drugbank_target|Q48152 Adhesin (DB04233)
 OpenBabel12092120443D

  0  0  0     0  0            999 V3000
M  V30 BEGIN CTAB
M  V30 COUNTS 15986 16068 0 0 0
M  V30 BEGIN ATOM
M  V30 1 H -0.908 1.98254 -0.117106 0
M  V30 2 N 0 1.576 0 0
M  V30 3 C 0.933 2.03868 1.02534 0
M  V30 4 C 1.911 0.928543 1.3348 0
M  V30 5 O 3.095 1.19667 1.45644 0
M  V30 6 C 0.222 2.43627 2.35294 0
M  V30 7 C -0.732 3.65373 2.2001 0
M  V30 8 S 0.101 5.13292 1.52614 0
M  V30 9 C 1.257 5.56322 2.86805 0
M  V30 10 H 1.49 2.90518 0.631377 0
M  V30 11 H -0.977 1.52953 0.210867 0
M  V30 12 H 0.981 2.67203 3.11629 0
M  V30 13 H -0.358 1.57376 2.7183 0
M  V30 14 H -1.165 3.90944 3.18086 0
M  V30 15 H -1.563 3.418 1.51819 0
M  V30 16 H 0.729 5.58782 3.83104 0
M  V30 17 H 1.672 6.56266 2.65933 0
M  V30 18 H 2.08 4.83886 2.90714 0
M  V30 19 N 1.4781 -0.272755 1.55222 0
M  V30 20 C 2.4261 -1.35705 1.88909 0
M  V30 21 C 3.4201 -1.5112 0.765456 0
M  V30 22 O 4.6261 -1.52901 0.949802 0
M  V30 23 H 1.0011 -0.453868 0.59959 0
M  V30 24 H 2.9721 -1.04544 2.79487 0
M  V30 25 C 1.7211 -2.71049 2.17779 0
M  V30 26 H 1.0441 -2.59979 3.03728 0
M  V30 27 H 2.4841 -3.45858 2.45272 0
M  V30 28 C 0.9431 -3.22165 0.985473 0
M  V30 29 O 1.4731 -4.01096 0.220233 0
M  V30 30 N -0.3209 -2.7985 0.783108 0
M  V30 31 H -0.7739 -2.15775 1.40708 0
M  V30 32 H -0.8159 -3.14397 -0.0130392 0
M  V30 33 N 2.9562 -1.48159 -0.537278 0
M  V30 34 C 3.9032 -1.62138 -1.64256 0
M  V30 35 C 4.8732 -0.463668 -1.59497 0
M  V30 36 O 6.0582 -0.686241 -1.78032 0
M  V30 37 C 3.1982 -1.66028 -3.02537 0
M  V30 38 C 2.3112 -2.92855 -3.17585 0
M  V30 39 C 1.4462 -2.87952 -4.46382 0
M  V30 40 C 0.4852 -4.09516 -4.54932 0
M  V30 41 N -0.3778 -4.02733 -5.75109 0
M  V30 42 H 4.4622 -2.56529 -1.51647 0
M  V30 43 H 1.9992 -1.27224 -0.738414 0
M  V30 44 H 3.9572 -1.66265 -3.82638 0
M  V30 45 H 2.5872 -0.751331 -3.13934 0
M  V30 46 H 1.6392 -3.02395 -2.30784 0
M  V30 47 H 2.9512 -3.82822 -3.19764 0
M  V30 48 H 2.1052 -2.8655 -5.34765 0
M  V30 49 H 0.8442 -1.95702 -4.46712 0
M  V30 50 H -0.1508 -4.11201 -3.64957 0
M  V30 51 H 1.0742 -5.02917 -4.56346 0
M  V30 52 H -0.9798 -3.13299 -5.76351 0
M  V30 53 H -1.0628 -4.86397 -5.78752 0
M  V30 54 H 0.2052 -4.05379 -6.65799 0
M  V30 55 N 4.4343 0.785586 -1.36625 0
M  V30 56 C 5.6833 1.53883 -1.30396 0
M  V30 57 C 5.9963 1.95271 0.113452 0
M  V30 58 O 7.2023 2.69858 0.298142 0
M  V30 59 C 5.6583 2.77808 -2.28802 0
M  V30 60 C 5.2663 2.43574 -3.75999 0
M  V30 61 C 7.0103 3.55783 -2.31558 0
M  V30 62 C 4.9173 3.63919 -4.66173 0
M  V30 63 H 3.8473 0.577678 -0.484566 0
M  V30 64 H 6.4983 0.861705 -1.62009 0
M  V30 65 H 4.8803 3.47339 -1.90188 0
M  V30 66 H 6.0543 1.81916 -4.23371 0
M  V30 67 H 4.3693 1.78803 -3.76056 0
M  V30 68 H 6.9663 4.45205 -2.96137 0
M  V30 69 H 7.3093 3.94644 -1.3252 0
M  V30 70 H 7.8423 2.93235 -2.68809 0
M  V30 71 H 4.5813 3.3015 -5.66287 0
M  V30 72 H 4.1013 4.2473 -4.23515 0
M  V30 73 H 5.7803 4.30901 -4.82632 0
M  V30 74 N 5.9124 1.20967 1.01018 0
M  V30 75 C 7.1594 1.02374 1.74716 0
M  V30 76 C 7.4874 -0.443375 1.89379 0
M  V30 77 O 6.7424 -1.34535 1.42123 0
M  V30 78 C 7.0414 1.65997 3.16512 0
M  V30 79 C 6.7074 3.15831 3.2181 0
M  V30 80 C 5.3694 3.56719 3.22963 0
M  V30 81 C 7.7214 4.11816 3.19464 0
M  V30 82 C 5.0494 4.92107 3.19449 0
M  V30 83 C 7.4014 5.47158 3.17491 0
M  V30 84 C 6.0654 5.87451 3.16951 0
M  V30 85 H 5.3354 0.374614 0.639332 0
M  V30 86 H 7.9824 1.50485 1.18434 0
M  V30 87 H 6.2874 1.10166 3.75993 0
M  V30 88 H 7.9844 1.49119 3.72242 0
M  V30 89 H 4.5744 2.83263 3.21652 0
M  V30 90 H 8.7584 3.81257 3.17737 0
M  V30 91 H 4.0144 5.22579 3.17366 0
M  V30 92 H 8.1884 6.21274 3.14629 0
M  V30 93 H 5.8154 6.92329 3.13983 0
M  V30 94 N 7.3905 -1.2043 1.01659 0
M  V30 95 C 8.3385 -2.25249 0.580143 0
M  V30 96 C 9.3325 -1.65057 -0.381115 0
M  V30 97 O 10.5385 -1.78241 -0.251039 0
M  V30 98 H 6.9135 -0.732695 0.169299 0
M  V30 99 H 8.8845 -2.59389 1.47512 0
M  V30 100 C 7.6335 -3.47638 -0.065788 0
M  V30 101 H 6.9565 -3.94233 0.664874 0
M  V30 102 H 8.3965 -4.2268 -0.334282 0
M  V30 103 C 6.8555 -3.10447 -1.3086 0
M  V30 104 O 7.3855 -3.21981 -2.4019 0
M  V30 105 N 5.5915 -2.64996 -1.1927 0
M  V30 106 H 5.1385 -2.55811 -0.303064 0
M  V30 107 H 5.0965 -2.40482 -2.02523 0
M  V30 108 N 8.8686 -0.792821 -1.36206 0
M  V30 109 C 10.1146 -0.36733 -1.99446 0
M  V30 110 C 10.4476 1.05917 -1.62774 0
M  V30 111 O 9.7226 1.7324 -0.88421 0
M  V30 112 C 10.0056 -0.535044 -3.56103 0
M  V30 113 C 9.8586 -2.00548 -4.02617 0
M  V30 114 C 11.1776 0.0478191 -4.40074 0
M  V30 115 H 8.2966 -0.134941 -0.724541 0
M  V30 116 H 10.9386 -0.999794 -1.61568 0
M  V30 117 H 9.0886 0.00336329 -3.885 0
M  V30 118 H 10.7606 -2.60521 -3.80692 0
M  V30 119 H 9.0036 -2.50686 -3.54032 0
M  V30 120 H 9.6746 -2.07377 -5.11565 0
M  V30 121 H 12.1506 -0.411822 -4.14057 0
M  V30 122 H 11.0266 -0.0995336 -5.4881 0
M  V30 123 H 11.2876 1.14025 -4.27142 0
M  V30 124 N 10.3467 1.47872 -0.545128 0
M  V30 125 C 11.5957 2.01695 -0.0145033 0
M  V30 126 C 11.9087 1.42609 1.33873 0
M  V30 127 O 13.1147 1.88021 1.95858 0
M  V30 128 C 11.5707 3.59892 0.0245068 0
M  V30 129 C 11.1787 4.27966 -1.32475 0
M  V30 130 C 12.9227 4.21507 0.50316 0
M  V30 131 C 10.8297 5.78136 -1.2455 0
M  V30 132 H 9.7597 0.753998 -0.00165172 0
M  V30 133 H 12.4107 1.69985 -0.691175 0
M  V30 134 H 10.7927 3.88509 0.766575 0
M  V30 135 H 11.9667 4.11003 -2.08357 0
M  V30 136 H 10.2817 3.78286 -1.74036 0
M  V30 137 H 12.8787 5.31538 0.580656 0
M  V30 138 H 13.2217 3.87855 1.51243 0
M  V30 139 H 13.7547 3.97376 -0.183681 0
M  V30 140 H 10.4937 6.16388 -2.23039 0
M  V30 141 H 10.0137 5.97469 -0.528282 0
M  V30 142 H 11.6927 6.40099 -0.942488 0
M  V30 143 N 11.8248 0.280983 1.55075 0
M  V30 144 C 13.0708 -0.327573 2.00745 0
M  V30 145 C 13.4258 -1.53045 1.16598 0
M  V30 146 O 12.7188 -1.90221 0.229451 0
M  V30 147 C 12.9128 -0.754656 3.49342 0
M  V30 148 C 12.7418 0.40529 4.4787 0
M  V30 149 C 11.5118 0.890947 4.97383 0
M  V30 150 C 13.7098 1.24371 4.99035 0
M  V30 151 N 11.6918 2.01975 5.79724 0
M  V30 152 C 13.0628 2.22031 5.7888 0
M  V30 153 C 15.1178 1.27638 4.81262 0
M  V30 154 C 13.8208 3.22709 6.42846 0
M  V30 155 C 15.8468 2.27164 5.46031 0
M  V30 156 C 15.2088 3.23556 6.25692 0
M  V30 157 H 11.3078 -0.0848774 0.77738 0
M  V30 158 H 13.8918 0.406342 1.90413 0
M  V30 159 H 12.0628 -1.45778 3.60005 0
M  V30 160 H 13.7948 -1.34105 3.81835 0
M  V30 161 H 10.5498 0.469262 4.71269 0
M  V30 162 H 10.9738 2.58794 6.25584 0
M  V30 163 H 15.6158 0.544936 4.19274 0
M  V30 164 H 13.3338 3.96784 7.0398 0
M  V30 165 H 16.9198 2.30441 5.34217 0
M  V30 166 H 15.7998 3.99309 6.74924 0
M  V30 167 N 13.3029 -1.57598 0.00835791 0
M  V30 168 C 14.2509 -2.10078 -0.998508 0
M  V30 169 C 15.2449 -1.02262 -1.35051 0
M  V30 170 O 16.4509 -1.20719 -1.33518 0
M  V30 171 H 12.8259 -0.670903 -0.339696 0
M  V30 172 H 14.7969 -2.93648 -0.530398 0
M  V30 173 C 13.5459 -2.62615 -2.27879 0
M  V30 174 H 12.8689 -3.45213 -2.01662 0
M  V30 175 H 14.3089 -3.03004 -2.96588 0
M  V30 176 C 12.7679 -1.54407 -2.99433 0
M  V30 177 O 13.2979 -0.931812 -3.90743 0
M  V30 178 N 11.5039 -1.2695 -2.61404 0
M  V30 179 H 11.0509 -1.76924 -1.87232 0
M  V30 180 H 11.0089 -0.547704 -3.09593 0
M  V30 181 N 14.781 0.264519 -1.55364 0
M  V30 182 C 16.027 0.99646 -1.76631 0
M  V30 183 C 16.36 1.85632 -0.570478 0
M  V30 184 O 15.635 1.89647 0.43175 0
M  V30 185 C 15.918 1.87187 -3.07625 0
M  V30 186 C 15.771 1.04138 -4.37579 0
M  V30 187 C 17.09 2.85749 -3.34717 0
M  V30 188 H 14.209 0.360841 -0.642622 0
M  V30 189 H 16.851 0.268218 -1.88097 0
M  V30 190 H 15.001 2.49279 -2.9798 0
M  V30 191 H 16.673 0.440517 -4.59192 0
M  V30 192 H 14.916 0.345115 -4.32425 0
M  V30 193 H 15.587 1.68729 -5.2558 0
M  V30 194 H 18.063 2.33793 -3.4421 0
M  V30 195 H 16.939 3.44136 -4.27623 0
M  V30 196 H 17.2 3.61311 -2.54768 0
M  V30 197 N 16.2591 1.48442 0.529413 0
M  V30 198 C 17.5051 1.5672 1.28711 0
M  V30 199 C 17.8381 0.2406 1.92704 0
M  V30 200 O 17.1131 -0.753454 1.79313 0
M  V30 201 C 17.3961 2.70587 2.37603 0
M  V30 202 C 17.2491 4.12953 1.78297 0
M  V30 203 C 18.5681 2.80212 3.39366 0
M  V30 204 H 15.6871 0.570474 0.466613 0
M  V30 205 H 18.3291 1.80617 0.589706 0
M  V30 206 H 16.4791 2.50342 2.97088 0
M  V30 207 H 18.1511 4.44639 1.22858 0
M  V30 208 H 16.3941 4.19927 1.0883 0
M  V30 209 H 17.0651 4.88448 2.57144 0
M  V30 210 H 19.5411 2.98553 2.89836 0
M  V30 211 H 18.4171 3.61611 4.12951 0
M  V30 212 H 18.6781 1.88393 3.99951 0
M  V30 213 N 17.7372 -0.778329 1.37039 0
M  V30 214 C 18.9652 -1.56734 1.35063 0
M  V30 215 C 19.3802 -1.88686 -0.0655597 0
M  V30 216 O 18.7372 -1.5096 -1.02554 0
M  V30 217 C 18.7882 -2.88163 2.18276 0
M  V30 218 O 18.5092 -2.57583 3.54376 0
M  V30 219 C 20.0102 -3.82422 2.24206 0
M  V30 220 H 17.2302 -0.485778 0.462883 0
M  V30 221 H 19.7742 -0.965185 1.8029 0
M  V30 222 H 17.9292 -3.44818 1.76576 0
M  V30 223 H 18.3432 -3.41699 3.97922 0
M  V30 224 H 19.8172 -4.71667 2.86765 0
M  V30 225 H 20.2942 -4.21078 1.24861 0
M  V30 226 H 20.9002 -3.31697 2.6619 0
M  V30 227 N 19.2153 -1.21501 -1.00376 0
M  V30 228 C 20.1473 -0.933174 -2.09343 0
M  V30 229 C 21.1603 0.0840896 -1.62583 0
M  V30 230 O 22.3493 -0.148563 -1.77881 0
M  V30 231 C 19.4493 -0.379869 -3.36764 0
M  V30 232 C 18.6223 -1.45176 -4.12605 0
M  V30 233 C 17.6813 -0.907476 -5.18316 0
M  V30 234 O 16.7073 -1.5912 -5.46507 0
M  V30 235 N 17.9093 0.276649 -5.7984 0
M  V30 236 H 20.6743 -1.87124 -2.34104 0
M  V30 237 H 18.2353 -1.12043 -1.16867 0
M  V30 238 H 20.2273 -0.00131488 -4.047 0
M  V30 239 H 18.7973 0.463048 -3.09151 0
M  V30 240 H 18.0173 -2.00411 -3.39454 0
M  V30 241 H 19.3053 -2.17328 -4.6005 0
M  V30 242 H 18.7033 0.849147 -5.59291 0
M  V30 243 H 17.2603 0.596702 -6.49063 0
M  V30 244 N 20.6934 1.19889 -1.02296 0
M  V30 245 C 21.9214 1.9339 -0.735399 0
M  V30 246 C 22.3364 1.75148 0.704887 0
M  V30 247 O 21.6934 1.06954 1.47875 0
M  V30 248 C 21.7444 3.45313 -1.06962 0
M  V30 249 O 21.4654 3.62964 -2.45334 0
M  V30 250 C 22.9664 4.35948 -0.804021 0
M  V30 251 H 20.1864 0.61448 -0.269546 0
M  V30 252 H 22.7304 1.522 -1.36585 0
M  V30 253 H 20.8854 3.84359 -0.484455 0
M  V30 254 H 21.2994 4.56886 -2.57595 0
M  V30 255 H 22.7734 5.41174 -1.0879 0
M  V30 256 H 23.2504 4.3842 0.261691 0
M  V30 257 H 23.8564 4.02574 -1.37164 0
M  V30 258 N 22.1715 0.800033 1.35784 0
M  V30 259 C 23.4175 0.38701 1.99684 0
M  V30 260 C 23.7725 -1.03268 1.62338 0
M  V30 261 O 23.0655 -1.70543 0.87325 0
M  V30 262 C 23.2595 0.500276 3.53881 0
M  V30 263 C 23.0885 1.92942 4.06206 0
M  V30 264 C 21.8585 2.55637 4.35865 0
M  V30 265 C 24.0565 2.89307 4.25213 0
M  V30 266 N 22.0385 3.9003 4.74078 0
M  V30 267 C 23.4095 4.08556 4.66349 0
M  V30 268 C 25.4645 2.86225 4.07406 0
M  V30 269 C 24.1675 5.25146 4.91543 0
M  V30 270 C 26.1935 4.02011 4.33752 0
M  V30 271 C 25.5555 5.20007 4.75155 0
M  V30 272 H 21.6545 0.189252 0.758754 0
M  V30 273 H 24.2385 1.03988 1.64604 0
M  V30 274 H 22.4095 -0.122568 3.88207 0
M  V30 275 H 24.1415 0.0624733 4.04652 0
M  V30 276 H 20.8965 2.07039 4.25948 0
M  V30 277 H 21.3205 4.59205 4.97454 0
M  V30 278 H 25.9625 1.96154 3.74544 0
M  V30 279 H 23.6805 6.15794 5.23281 0
M  V30 280 H 27.2665 4.00999 4.21534 0
M  V30 281 H 26.1465 6.08113 4.95145 0
M  V30 282 N 23.6496 -1.47581 0.552962 0
M  V30 283 C 24.8956 -2.02782 0.0273648 0
M  V30 284 C 25.2286 -1.42687 -1.31734 0
M  V30 285 O 24.5036 -0.580897 -1.85623 0
M  V30 286 C 24.7866 -3.60031 -0.0702371 0
M  V30 287 C 24.6396 -4.30566 1.30126 0
M  V30 288 C 25.9586 -4.33028 -0.785771 0
M  V30 289 H 23.0776 -0.736912 0.0114185 0
M  V30 290 H 25.7196 -1.76056 0.714432 0
M  V30 291 H 23.8696 -3.82932 -0.655382 0
M  V30 292 H 25.5416 -4.19018 1.92929 0
M  V30 293 H 23.7846 -3.91086 1.87709 0
M  V30 294 H 24.4556 -5.39114 1.18573 0
M  V30 295 H 26.9316 -4.15095 -0.288982 0
M  V30 296 H 25.8076 -5.42695 -0.823013 0
M  V30 297 H 26.0686 -4.01945 -1.841 0
M  V30 298 N 25.1277 -0.289203 -1.54924 0
M  V30 299 C 26.3737 0.323998 -2.00195 0
M  V30 300 C 26.7067 1.54441 -1.17735 0
M  V30 301 O 25.9817 1.92875 -0.250878 0
M  V30 302 C 26.2647 0.692276 -3.53383 0
M  V30 303 C 26.1177 -0.536457 -4.46589 0
M  V30 304 C 27.4367 1.52335 -4.12895 0
M  V30 305 H 24.5557 0.116289 -0.727768 0
M  V30 306 H 27.1977 -0.398954 -1.85764 0
M  V30 307 H 25.3477 1.30822 -3.65811 0
M  V30 308 H 27.0197 -1.17499 -4.46085 0
M  V30 309 H 25.2627 -1.17192 -4.1767 0
M  V30 310 H 25.9337 -0.234806 -5.515 0
M  V30 311 H 28.4097 1.00302 -4.0383 0
M  V30 312 H 27.2857 1.74982 -5.20262 0
M  V30 313 H 27.5467 2.50886 -3.64018 0
M  V30 314 N 26.6058 1.57591 -0.0167156 0
M  V30 315 C 27.8518 1.91567 0.665582 0
M  V30 316 C 28.1848 0.892298 1.72487 0
M  V30 317 O 27.4598 -0.0867127 1.94307 0
M  V30 318 C 27.7428 3.36069 1.29342 0
M  V30 319 C 27.5958 4.49135 0.244541 0
M  V30 320 C 28.9148 3.803 2.21495 0
M  V30 321 H 26.0338 0.69666 0.240488 0
M  V30 322 H 28.6758 1.89866 -0.0714356 0
M  V30 323 H 26.8258 3.3765 1.92158 0
M  V30 324 H 28.4978 4.59689 -0.385228 0
M  V30 325 H 26.7408 4.3165 -0.431379 0
M  V30 326 H 27.4118 5.47242 0.723207 0
M  V30 327 H 29.8878 3.80377 1.68678 0
M  V30 328 H 28.7638 4.82127 2.62382 0
M  V30 329 H 29.0248 3.15104 3.101 0
M  V30 330 N 28.0839 -0.256276 1.55502 0
M  V30 331 C 29.3089 -1.00766 1.81276 0
M  V30 332 C 29.7339 -1.78524 0.59252 0
M  V30 333 O 29.0919 -1.75413 -0.45827 0
M  V30 334 C 29.1399 -1.92869 3.04687 0
M  V30 335 O 28.2439 -3.019 2.80945 0
M  V30 336 H 27.5849 -0.287224 0.598664 0
M  V30 337 H 30.1149 -0.280109 2.02674 0
M  V30 338 H 30.1249 -2.34511 3.33869 0
M  V30 339 H 28.7999 -1.35689 3.93143 0
M  V30 340 H 27.3769 -2.64454 2.62904 0
M  V30 341 N 29.562 -1.4872 -0.521534 0
M  V30 342 C 30.472 -1.66569 -1.65203 0
M  V30 343 C 31.488 -0.548197 -1.65139 0
M  V30 344 O 32.664 -0.820339 -1.83936 0
M  V30 345 C 29.729 -1.70917 -3.01642 0
M  V30 346 C 28.79 -2.94356 -3.12495 0
M  V30 347 C 28.023 -2.98487 -4.42426 0
M  V30 348 O 28.246 -2.10786 -5.30024 0
M  V30 349 O 27.18 -3.90746 -4.57822 0
M  V30 350 H 31.006 -2.62298 -1.5308 0
M  V30 351 H 28.591 -1.3222 -0.695565 0
M  V30 352 H 30.473 -1.7625 -3.82771 0
M  V30 353 H 29.148 -0.783633 -3.14071 0
M  V30 354 H 28.055 -2.94552 -2.3063 0
M  V30 355 H 29.388 -3.86322 -3.04986 0
M  V30 356 N 31.0401 0.771051 -1.3745 0
M  V30 357 C 31.9701 1.89827 -1.3597 0
M  V30 358 C 32.9511 1.68562 -0.228216 0
M  V30 359 O 34.1361 1.8941 -0.428675 0
M  V30 360 C 31.2661 3.2712 -1.16662 0
M  V30 361 C 30.2201 3.6295 -2.2683 0
M  V30 362 C 29.5461 4.98791 -1.92644 0
M  V30 363 C 30.8461 3.69627 -3.69017 0
M  V30 364 H 32.5401 1.91323 -2.30295 0
M  V30 365 H 30.0861 0.919082 -1.10855 0
M  V30 366 H 32.0391 4.05615 -1.14256 0
M  V30 367 H 30.7631 3.26059 -0.187926 0
M  V30 368 H 29.4221 2.86763 -2.28392 0
M  V30 369 H 29.0701 4.94271 -0.933021 0
M  V30 370 H 28.7701 5.23733 -2.66416 0
M  V30 371 H 30.2941 5.79685 -1.91826 0
M  V30 372 H 31.7081 4.38273 -3.69581 0
M  V30 373 H 30.1051 4.06067 -4.41848 0
M  V30 374 H 31.1751 2.70273 -4.02592 0
M  V30 375 N 32.5182 1.22032 0.997298 0
M  V30 376 C 33.7462 1.06841 1.7718 0
M  V30 377 C 34.1612 -0.381325 1.84909 0
M  V30 378 O 33.5182 -1.26437 1.31605 0
M  V30 379 C 33.5692 1.66814 3.20711 0
M  V30 380 O 33.2902 3.06116 3.13408 0
M  V30 381 C 34.7912 1.56838 4.14628 0
M  V30 382 H 32.0112 0.374782 0.556578 0
M  V30 383 H 34.5552 1.61532 1.2541 0
M  V30 384 H 32.7102 1.16196 3.69564 0
M  V30 385 H 33.1242 3.34926 4.0364 0
M  V30 386 H 34.5982 2.03532 5.13107 0
M  V30 387 H 35.0752 0.524155 4.36061 0
M  V30 388 H 35.6812 2.06741 3.7167 0
M  V30 389 N 33.9963 -1.19345 1.0293 0
M  V30 390 C 35.4123 -1.41069 0.746446 0
M  V30 391 C 35.6123 -1.90078 -0.668776 0
M  V30 392 O 34.6683 -2.0778 -1.4347 0
M  V30 393 C 35.9813 -2.42141 1.78292 0
M  V30 394 C 37.5293 -2.55887 1.80252 0
M  V30 395 C 38.0043 -3.60214 2.8286 0
M  V30 396 N 39.4953 -3.67711 2.81679 0
M  V30 397 C 40.2303 -4.48128 3.57727 0
M  V30 398 N 39.7263 -5.32248 4.43491 0
M  V30 399 N 41.5193 -4.42782 3.46267 0
M  V30 400 H 33.6703 -0.858536 1.94275 0
M  V30 401 H 35.9333 -0.439541 0.839945 0
M  V30 402 H 35.6393 -2.13155 2.79746 0
M  V30 403 H 35.5133 -3.41323 1.60557 0
M  V30 404 H 37.9003 -2.84196 0.794757 0
M  V30 405 H 37.9813 -1.56858 2.02062 0
M  V30 406 H 37.6253 -3.32647 3.83807 0
M  V30 407 H 37.5553 -4.58895 2.58307 0
M  V30 408 H 40.0463 -3.07634 2.19476 0
M  V30 409 H 40.3593 -5.90729 4.98256 0
M  V30 410 H 38.7043 -5.31707 4.47564 0
M  V30 411 H 41.8953 -3.76107 2.78677 0
M  V30 412 H 42.0683 -5.05215 4.05785 0
M  V30 413 N 35.4744 -0.807222 -1.35358 0
M  V30 414 C 36.7024 -0.400377 -2.02989 0
M  V30 415 C 37.1174 0.988859 -1.60832 0
M  V30 416 O 36.4744 1.63729 -0.806175 0
M  V30 417 C 36.5254 -0.474867 -3.58368 0
M  V30 418 O 36.2464 -1.80933 -3.98992 0
M  V30 419 C 37.7474 -0.0609112 -4.43258 0
M  V30 420 H 34.9674 -0.162587 -0.651004 0
M  V30 421 H 37.5114 -1.09102 -1.72965 0
M  V30 422 H 35.6664 0.167534 -3.87038 0
M  V30 423 H 36.0804 -1.77256 -4.9364 0
M  V30 424 H 37.5544 -0.164145 -5.51756 0
M  V30 425 H 38.0314 0.993831 -4.27808 0
M  V30 426 H 38.6374 -0.676492 -4.19885 0
M  V30 427 N 36.9525 1.47285 -0.560781 0
M  V30 428 C 37.9025 2.27073 0.205384 0
M  V30 429 C 38.8865 1.34569 0.882044 0
M  V30 430 O 40.0785 1.58899 0.77976 0
M  V30 431 C 37.2075 3.20414 1.23247 0
M  V30 432 C 36.2935 4.20399 0.559041 0
M  V30 433 N 36.6845 5.04423 -0.372927 0
M  V30 434 C 34.9825 4.38536 0.812522 0
M  V30 435 C 35.6835 5.76655 -0.764446 0
M  V30 436 N 34.6595 5.43471 -0.11848 0
M  V30 437 H 38.4615 2.89422 -0.511117 0
M  V30 438 H 35.9755 1.57868 -0.380975 0
M  V30 439 H 37.9725 3.76262 1.79534 0
M  V30 440 H 36.6325 2.59623 1.95002 0
M  V30 441 H 37.6435 5.1248 -0.747287 0
M  V30 442 H 34.3205 3.88913 1.51832 0
M  V30 443 H 35.7105 6.54238 -1.53045 0
M  V30 444 N 38.4306 0.297415 1.54768 0
M  V30 445 C 39.6586 -0.315623 2.04478 0
M  V30 446 C 40.0736 -1.47792 1.17486 0
M  V30 447 O 39.4306 -1.81404 0.19971 0
M  V30 448 C 39.4816 -0.7753 3.53088 0
M  V30 449 O 39.2026 0.340732 4.36773 0
M  V30 450 C 40.7036 -1.45386 4.18781 0
M  V30 451 H 37.9236 -0.0690887 0.667434 0
M  V30 452 H 40.4676 0.436003 1.99798 0
M  V30 453 H 38.6226 -1.47696 3.58141 0
M  V30 454 H 39.0366 -0.0165035 5.24497 0
M  V30 455 H 40.5106 -1.72669 5.24299 0
M  V30 456 H 40.9876 -2.39275 3.68299 0
M  V30 457 H 41.5936 -0.795475 4.17795 0
M  V30 458 N 39.9087 -1.5758 0.0250728 0
M  V30 459 C 40.8557 -2.09973 -0.958129 0
M  V30 460 C 41.8257 -1.00085 -1.3256 0
M  V30 461 O 43.0107 -1.27481 -1.41962 0
M  V30 462 C 40.1507 -2.62812 -2.2366 0
M  V30 463 C 39.2637 -3.86693 -1.92594 0
M  V30 464 C 38.3987 -4.27941 -3.14707 0
M  V30 465 C 37.4377 -5.44591 -2.79442 0
M  V30 466 N 36.5747 -5.81014 -3.94167 0
M  V30 467 H 41.4147 -2.937 -0.504428 0
M  V30 468 H 38.9517 -1.45172 -0.237392 0
M  V30 469 H 40.9097 -2.91536 -2.98434 0
M  V30 470 H 39.5397 -1.81922 -2.66654 0
M  V30 471 H 38.5917 -3.64723 -1.0808 0
M  V30 472 H 39.9037 -4.71547 -1.62619 0
M  V30 473 H 39.0577 -4.58079 -3.97804 0
M  V30 474 H 37.7967 -3.41845 -3.4784 0
M  V30 475 H 36.8017 -5.1415 -1.94755 0
M  V30 476 H 38.0267 -6.32382 -2.47528 0
M  V30 477 H 35.9727 -4.97874 -4.2715 0
M  V30 478 H 35.8897 -6.60498 -3.67801 0
M  V30 479 H 37.1577 -6.15756 -4.7798 0
M  V30 480 N 41.3868 0.248026 -1.55636 0
M  V30 481 C 42.6268 0.983592 -1.79178 0
M  V30 482 C 42.9908 1.82567 -0.594414 0
M  V30 483 O 44.1918 2.59292 -0.708583 0
M  V30 484 C 42.4628 1.82228 -3.07454 0
M  V30 485 S 44.0218 2.61709 -3.52213 0
M  V30 486 H 40.8398 0.330866 -0.629324 0
M  V30 487 H 43.4418 0.251562 -1.93875 0
M  V30 488 H 42.1458 1.19333 -3.92668 0
M  V30 489 H 41.6768 2.59708 -2.95492 0
M  V30 490 H 43.6918 3.84655 -3.13457 0
M  V30 491 N 42.8649 1.48995 0.513639 0
M  V30 492 C 43.8279 1.64229 1.59879 0
M  V30 493 C 44.8279 0.514696 1.5234 0
M  V30 494 O 46.0179 0.78087 1.55718 0
M  V30 495 C 43.1499 1.62783 2.99524 0
M  V30 496 H 44.3429 2.61004 1.47705 0
M  V30 497 H 41.8959 1.37837 0.736936 0
M  V30 498 H 42.6309 0.675461 3.17188 0
M  V30 499 H 42.4159 2.4466 3.06404 0
M  V30 500 H 43.9059 1.76669 3.78388 0
M  V30 501 N 44.343 -0.763751 1.37857 0
M  V30 502 C 45.568 -1.55805 1.36893 0
M  V30 503 C 45.993 -1.88054 -0.0416135 0
M  V30 504 O 45.351 -1.49825 -1.02089 0
M  V30 505 C 45.399 -2.84012 2.22192 0
M  V30 506 O 44.503 -3.78732 1.63204 0
M  V30 507 H 43.844 -0.471638 0.46739 0
M  V30 508 H 46.374 -0.944657 1.81487 0
M  V30 509 H 46.384 -3.33037 2.35691 0
M  V30 510 H 45.059 -2.59869 3.24716 0
M  V30 511 H 43.636 -3.37402 1.58791 0
M  V30 512 N 45.8211 -1.22559 -0.990812 0
M  V30 513 C 46.7841 -0.998863 -2.0629 0
M  V30 514 C 47.7841 0.0354834 -1.60761 0
M  V30 515 O 48.9741 -0.203231 -1.7301 0
M  V30 516 C 46.1061 -0.509203 -3.37076 0
M  V30 517 H 47.2991 -1.95014 -2.27837 0
M  V30 518 H 44.8521 -1.04456 -1.16269 0
M  V30 519 H 45.5871 0.446335 -3.21214 0
M  V30 520 H 45.3721 -1.25547 -3.71457 0
M  V30 521 H 46.8621 -0.370888 -4.1595 0
M  V30 522 N 47.2992 1.18797 -1.03562 0
M  V30 523 C 48.5272 1.92599 -0.755869 0
M  V30 524 C 48.9422 1.75886 0.686271 0
M  V30 525 O 48.2992 1.08517 1.46732 0
M  V30 526 C 48.3502 3.44159 -1.10619 0
M  V30 527 O 48.0712 3.60341 -2.4917 0
M  V30 528 C 49.5722 4.3507 -0.850214 0
M  V30 529 H 46.7922 0.611587 -0.276048 0
M  V30 530 H 49.3362 1.50742 -1.38192 0
M  V30 531 H 47.4912 3.83823 -0.525194 0
M  V30 532 H 47.9052 4.54128 -2.62427 0
M  V30 533 H 49.3792 5.39989 -1.14523 0
M  V30 534 H 49.8562 4.38673 0.215176 0
M  V30 535 H 50.4622 4.01097 -1.41426 0
M  V30 536 N 48.7773 0.814389 1.34928 0
M  V30 537 C 50.0233 0.399013 1.98836 0
M  V30 538 C 50.3563 -1.03314 1.64438 0
M  V30 539 O 49.6313 -1.71811 0.911659 0
M  V30 540 C 49.9143 0.591629 3.55207 0
M  V30 541 C 49.7673 2.06928 3.99376 0
M  V30 542 C 51.0863 0.022199 4.40094 0
M  V30 543 H 48.2053 0.146451 0.722303 0
M  V30 544 H 50.8473 1.02537 1.59957 0
M  V30 545 H 48.9973 0.0584441 3.88456 0
M  V30 546 H 50.6693 2.66544 3.76499 0
M  V30 547 H 48.9123 2.56287 3.49999 0
M  V30 548 H 49.5833 2.1549 5.08201 0
M  V30 549 H 52.0593 0.477643 4.13349 0
M  V30 550 H 50.9353 0.186832 5.48582 0
M  V30 551 H 51.1963 -1.07215 4.28902 0
M  V30 552 N 50.2554 -1.46986 0.568584 0
M  V30 553 C 51.2184 -2.28624 -0.162366 0
M  V30 554 C 52.2184 -1.37596 -0.832103 0
M  V30 555 O 53.4084 -1.60115 -0.68622 0
M  V30 556 C 50.5404 -3.17596 -1.23878 0
M  V30 557 H 51.7334 -2.94722 0.554899 0
M  V30 558 H 49.2864 -1.52863 0.325976 0
M  V30 559 H 50.0214 -2.56214 -1.98808 0
M  V30 560 H 49.8064 -3.846 -0.763219 0
M  V30 561 H 51.2964 -3.79078 -1.75185 0
M  V30 562 N 51.7335 -0.305618 -1.54608 0
M  V30 563 C 52.9795 0.302746 -2.00528 0
M  V30 564 C 53.3125 1.53184 -1.19367 0
M  V30 565 O 52.5875 1.92598 -0.271321 0
M  V30 566 C 52.8705 0.654756 -3.54097 0
M  V30 567 C 52.7235 -0.583793 -4.45995 0
M  V30 568 C 54.0425 1.47947 -4.14487 0
M  V30 569 H 51.1615 0.108564 -0.72896 0
M  V30 570 H 53.8035 -0.418634 -1.85331 0
M  V30 571 H 51.9535 1.26935 -3.67178 0
M  V30 572 H 53.6255 -1.22224 -4.44814 0
M  V30 573 H 51.8685 -1.21615 -4.16404 0
M  V30 574 H 52.5395 -0.293287 -5.5122 0
M  V30 575 H 55.0155 0.96013 -4.04871 0
M  V30 576 H 53.8915 1.69454 -5.22088 0
M  V30 577 H 54.1525 2.47011 -3.66658 0
M  V30 578 N 53.2116 1.57565 -0.0334293 0
M  V30 579 C 54.1746 2.09393 0.932048 0
M  V30 580 C 55.1746 1.00986 1.25134 0
M  V30 581 O 56.3646 1.27129 1.19096 0
M  V30 582 C 53.4966 2.56338 2.2473 0
M  V30 583 H 54.6896 2.95984 0.483085 0
M  V30 584 H 52.2426 1.54819 0.21468 0
M  V30 585 H 52.9776 1.7309 2.74245 0
M  V30 586 H 52.7626 3.35542 2.02865 0
M  V30 587 H 54.2526 2.96646 2.93923 0
M  V30 588 N 54.6897 -0.239769 1.55765 0
M  V30 589 C 55.9357 -0.968234 1.78194 0
M  V30 590 C 56.2687 -1.84701 0.599938 0
M  V30 591 O 55.5437 -1.9031 -0.401524 0
M  V30 592 C 55.8267 -1.8227 3.10564 0
M  V30 593 C 55.6797 -0.971633 4.3918 0
M  V30 594 C 56.9987 -2.80388 3.39221 0
M  V30 595 H 54.1177 -0.350572 0.648281 0
M  V30 596 H 56.7597 -0.238259 1.885 0
M  V30 597 H 54.9097 -2.44507 3.01908 0
M  V30 598 H 56.5817 -0.367408 4.59835 0
M  V30 599 H 54.8247 -0.276276 4.32919 0
M  V30 600 H 55.4957 -1.60346 5.28198 0
M  V30 601 H 57.9717 -2.28287 3.47885 0
M  V30 602 H 56.8477 -3.3729 4.33044 0
M  V30 603 H 57.1087 -3.57212 2.60484 0
M  V30 604 N 56.1678 -1.49265 -0.50573 0
M  V30 605 C 57.0978 -1.68495 -1.61653 0
M  V30 606 C 58.0788 -0.53366 -1.61512 0
M  V30 607 O 59.2638 -0.76897 -1.78327 0
M  V30 608 C 56.3938 -1.74709 -3.00157 0
M  V30 609 C 55.3478 -2.89581 -3.15162 0
M  V30 610 C 54.6738 -2.80903 -4.5497 0
M  V30 611 C 55.9738 -4.30578 -2.95634 0
M  V30 612 H 57.6678 -2.61493 -1.45814 0
M  V30 613 H 55.2138 -1.25838 -0.70005 0
M  V30 614 H 57.1668 -1.86748 -3.77761 0
M  V30 615 H 55.8908 -0.783067 -3.17074 0
M  V30 616 H 54.5498 -2.77136 -2.39982 0
M  V30 617 H 54.1978 -1.82419 -4.68756 0
M  V30 618 H 53.8978 -3.57999 -4.65951 0
M  V30 619 H 55.4218 -2.94944 -5.34641 0
M  V30 620 H 56.8358 -4.4373 -3.63011 0
M  V30 621 H 55.2328 -5.0886 -3.18091 0
M  V30 622 H 56.3028 -4.45352 -1.91806 0
M  V30 623 N 57.6459 0.756429 -1.3826 0
M  V30 624 C 58.6089 1.85176 -1.35065 0
M  V30 625 C 59.6089 1.58818 -0.251703 0
M  V30 626 O 60.7989 1.66615 -0.508433 0
M  V30 627 C 57.9309 3.22596 -1.10201 0
M  V30 628 H 59.1239 1.89417 -2.3251 0
M  V30 629 H 56.6769 0.95783 -1.23512 0
M  V30 630 H 57.4119 3.24025 -0.133504 0
M  V30 631 H 57.1969 3.43122 -1.89762 0
M  V30 632 H 58.6869 4.02673 -1.10654 0
M  V30 633 N 59.124 1.23083 0.984299 0
M  V30 634 C 60.352 1.08714 1.76037 0
M  V30 635 C 60.767 -0.361691 1.85303 0
M  V30 636 O 60.124 -1.25034 1.32939 0
M  V30 637 C 60.175 1.70206 3.18923 0
M  V30 638 O 59.896 3.09423 3.10144 0
M  V30 639 C 61.397 1.61227 4.12941 0
M  V30 640 H 58.617 0.380664 0.552572 0
M  V30 641 H 61.161 1.62853 1.23689 0
M  V30 642 H 59.316 1.20109 3.6831 0
M  V30 643 H 59.73 3.39188 4.00065 0
M  V30 644 H 61.204 2.08962 5.10919 0
M  V30 645 H 61.681 0.570375 4.35481 0
M  V30 646 H 62.287 2.10671 3.69456 0
M  V30 647 N 60.6021 -1.18246 1.0419 0
M  V30 648 C 61.5321 -2.24127 0.654914 0
M  V30 649 C 62.5131 -1.66617 -0.342451 0
M  V30 650 O 63.6981 -1.92924 -0.222277 0
M  V30 651 C 60.8281 -3.47295 0.0183757 0
M  V30 652 C 59.7821 -4.17563 0.939414 0
M  V30 653 C 59.1081 -5.34438 0.167286 0
M  V30 654 C 60.4081 -4.70917 2.25908 0
M  V30 655 H 62.1021 -2.56753 1.54007 0
M  V30 656 H 59.6481 -1.23414 0.74195 0
M  V30 657 H 61.6011 -4.20572 -0.264082 0
M  V30 658 H 60.3251 -3.13907 -0.901664 0
M  V30 659 H 58.9841 -3.46186 1.20628 0
M  V30 660 H 58.6321 -4.97298 -0.7552 0
M  V30 661 H 58.3321 -5.82388 0.780901 0
M  V30 662 H 59.8561 -6.10504 -0.108125 0
M  V30 663 H 61.2701 -5.35882 2.03724 0
M  V30 664 H 59.6671 -5.29406 2.82577 0
M  V30 665 H 60.7371 -3.88272 2.9047 0
M  V30 666 N 62.0802 -0.821533 -1.34494 0
M  V30 667 C 63.0102 -0.257138 -2.3208 0
M  V30 668 C 63.9912 0.625645 -1.58176 0
M  V30 669 O 65.1762 0.552811 -1.86166 0
M  V30 670 C 62.3062 0.582958 -3.42372 0
M  V30 671 C 61.2602 -0.202571 -4.2752 0
M  V30 672 C 60.5862 0.760179 -5.29269 0
M  V30 673 C 61.8862 -1.40998 -5.02908 0
M  V30 674 H 63.5802 -1.07247 -2.79532 0
M  V30 675 H 61.1262 -0.517163 -1.34393 0
M  V30 676 H 63.0792 0.987972 -4.09655 0
M  V30 677 H 61.8032 1.43133 -2.93565 0
M  V30 678 H 60.4622 -0.588936 -3.61838 0
M  V30 679 H 60.1102 1.60447 -4.76724 0
M  V30 680 H 59.8102 0.238809 -5.87115 0
M  V30 681 H 61.3342 1.16308 -5.9942 0
M  V30 682 H 62.7482 -1.07905 -5.63054 0
M  V30 683 H 61.1452 -1.86689 -5.70322 0
M  V30 684 H 62.2152 -2.1889 -4.32684 0
M  V30 685 N 63.5583 1.46682 -0.576371 0
M  V30 686 C 64.7833 2.07304 -0.0630475 0
M  V30 687 C 65.2083 1.42329 1.2298 0
M  V30 688 O 64.5663 0.504865 1.74129 0
M  V30 689 C 64.6143 3.60472 0.095895 0
M  V30 690 O 63.7183 3.95927 1.15394 0
M  V30 691 H 63.0593 0.661288 -0.0599463 0
M  V30 692 H 65.5893 1.88417 -0.797511 0
M  V30 693 H 65.5993 4.06865 0.304071 0
M  V30 694 H 64.2743 4.07157 -0.84828 0
M  V30 695 H 62.8513 3.61252 0.924724 0
M  V30 696 N 65.0364 0.313813 1.54444 0
M  V30 697 C 65.9994 -0.54379 2.22656 0
M  V30 698 C 66.9994 -1.05124 1.21678 0
M  V30 699 O 68.1894 -0.945225 1.46325 0
M  V30 700 C 65.3214 -1.75427 2.92298 0
M  V30 701 H 66.5144 0.0523599 2.99854 0
M  V30 702 H 64.0674 0.0647834 1.56166 0
M  V30 703 H 64.8024 -2.38991 2.19211 0
M  V30 704 H 64.5874 -1.39791 3.66334 0
M  V30 705 H 66.0774 -2.36325 3.44297 0
M  V30 706 N 66.5145 -1.57545 0.0417849 0
M  V30 707 C 67.7425 -1.96624 -0.643928 0
M  V30 708 C 68.1575 -0.918897 -1.64929 0
M  V30 709 O 67.5145 0.0979323 -1.82237 0
M  V30 710 C 67.5655 -3.35781 -1.33914 0
M  V30 711 O 67.2865 -4.365 -0.374048 0
M  V30 712 C 68.7875 -3.89566 -2.1155 0
M  V30 713 H 66.0075 -0.647316 -0.176702 0
M  V30 714 H 68.5515 -2.04229 0.105304 0
M  V30 715 H 66.7065 -3.29357 -2.03968 0
M  V30 716 H 67.1205 -5.17248 -0.869179 0
M  V30 717 H 68.5945 -4.89242 -2.55628 0
M  V30 718 H 69.0715 -3.24488 -2.9598 0
M  V30 719 H 69.6775 -3.99298 -1.46427 0
M  V30 720 N 67.9926 0.231505 -1.5589 0
M  V30 721 C 69.2386 0.95877 -1.78705 0
M  V30 722 C 69.5716 1.8438 -0.609725 0
M  V30 723 O 68.8466 1.90521 0.391426 0
M  V30 724 C 69.1296 1.8062 -3.11526 0
M  V30 725 C 68.9826 0.948328 -4.39689 0
M  V30 726 C 70.3016 2.78585 -3.40703 0
M  V30 727 H 67.4206 0.347129 -0.650131 0
M  V30 728 H 70.0626 0.228259 -1.88624 0
M  V30 729 H 68.2126 2.42902 -3.03201 0
M  V30 730 H 69.8846 0.343016 -4.60023 0
M  V30 731 H 68.1276 0.253314 -4.3306 0
M  V30 732 H 68.7986 1.57543 -5.29041 0
M  V30 733 H 71.2746 2.26439 -3.49091 0
M  V30 734 H 70.1506 3.34988 -4.34826 0
M  V30 735 H 70.4116 3.55825 -2.62375 0
M  V30 736 N 69.4707 1.49531 0.497807 0
M  V30 737 C 70.3807 1.69176 1.62532 0
M  V30 738 C 71.3967 0.5744 1.64246 0
M  V30 739 O 72.5727 0.849497 1.82608 0
M  V30 740 C 69.6377 1.75695 2.98885 0
M  V30 741 C 68.6987 2.9929 3.07773 0
M  V30 742 C 67.9317 3.05488 4.37622 0
M  V30 743 O 68.1547 2.19192 5.26603 0
M  V30 744 O 67.0887 3.9798 4.51548 0
M  V30 745 H 70.9147 2.647 1.48887 0
M  V30 746 H 68.4997 1.3331 0.674441 0
M  V30 747 H 70.3817 1.82317 3.79919 0
M  V30 748 H 69.0567 0.8335 3.12785 0
M  V30 749 H 67.9637 2.98183 2.25915 0
M  V30 750 H 69.2967 3.91125 2.98801 0
M  V30 751 N 70.9488 -0.749086 1.3866 0
M  V30 752 C 71.9118 -1.84457 1.36045 0
M  V30 753 C 72.9118 -1.58682 0.260122 0
M  V30 754 O 74.1018 -1.66343 0.517261 0
M  V30 755 C 71.2338 -3.22008 1.11911 0
M  V30 756 H 72.4268 -1.88182 2.33512 0
M  V30 757 H 69.9798 -0.951266 1.24019 0
M  V30 758 H 70.7148 -3.2395 0.150686 0
M  V30 759 H 70.4998 -3.42111 1.91579 0
M  V30 760 H 71.9898 -4.0208 1.12788 0
M  V30 761 N 72.4269 -1.23603 -0.977757 0
M  V30 762 C 73.3749 -1.01704 -2.09187 0
M  V30 763 C 74.3689 0.0448214 -1.69341 0
M  V30 764 O 75.5749 -0.108902 -1.7967 0
M  V30 765 H 71.9499 -0.311803 -0.684312 0
M  V30 766 H 73.9209 -1.96207 -2.24823 0
M  V30 767 C 72.6699 -0.627746 -3.41986 0
M  V30 768 H 71.9929 -1.43656 -3.73099 0
M  V30 769 H 73.4329 -0.514053 -4.20872 0
M  V30 770 C 71.8919 0.664238 -3.30287 0
M  V30 771 O 72.4219 1.71268 -3.6336 0
M  V30 772 N 70.6279 0.641156 -2.83439 0
M  V30 773 H 70.1749 -0.212376 -2.56723 0
M  V30 774 H 70.1329 1.50583 -2.75993 0
M  V30 775 N 73.905 1.17692 -1.04816 0
M  V30 776 C 74.853 2.23632 -0.63966 0
M  V30 777 C 75.847 1.6601 0.337219 0
M  V30 778 O 77.053 1.78844 0.203693 0
M  V30 779 H 73.428 0.727949 -0.188665 0
M  V30 780 H 75.399 2.55387 -1.54337 0
M  V30 781 C 74.148 3.4769 -0.0264051 0
M  V30 782 H 73.471 3.92331 -0.769164 0
M  V30 783 H 74.911 4.23418 0.222098 0
M  V30 784 C 73.37 3.13807 1.22584 0
M  V30 785 O 73.9 3.28236 2.31569 0
M  V30 786 N 72.106 2.68065 1.12202 0
M  V30 787 H 71.653 2.56525 0.235133 0
M  V30 788 H 71.611 2.45767 1.96076 0
M  V30 789 N 75.3831 0.828654 1.34056 0
M  V30 790 C 76.3311 0.242973 2.31327 0
M  V30 791 C 77.3251 -0.61944 1.57668 0
M  V30 792 O 78.5311 -0.51014 1.7262 0
M  V30 793 H 74.9061 0.059834 0.749616 0
M  V30 794 H 76.8771 1.07809 2.78244 0
M  V30 795 C 75.6261 -0.575733 3.429 0
M  V30 796 H 74.9491 0.0785582 3.99723 0
M  V30 797 H 76.3891 -0.951547 4.13185 0
M  V30 798 C 74.8481 -1.75044 2.87856 0
M  V30 799 O 75.3781 -2.84882 2.83205 0
M  V30 800 N 73.5841 -1.56903 2.44602 0
M  V30 801 H 73.1311 -0.675547 2.48584 0
M  V30 802 H 73.0891 -2.35652 2.08124 0
M  V30 803 N 76.8612 -1.46375 0.584142 0
M  V30 804 C 78.0892 -2.06761 0.0759296 0
M  V30 805 C 78.5042 -1.43266 -1.22965 0
M  V30 806 O 77.8612 -0.538458 -1.74376 0
M  V30 807 C 77.9122 -3.61375 -0.0950384 0
M  V30 808 O 77.6332 -4.22495 1.15887 0
M  V30 809 C 79.1342 -4.38693 -0.637434 0
M  V30 810 H 76.3542 -0.668479 0.0581075 0
M  V30 811 H 78.8982 -1.8798 0.805218 0
M  V30 812 H 77.0532 -3.79578 -0.774554 0
M  V30 813 H 77.4672 -5.15385 0.973598 0
M  V30 814 H 78.9412 -5.47464 -0.706237 0
M  V30 815 H 79.4182 -4.06836 -1.65472 0
M  V30 816 H 80.0242 -4.25299 0.00725967 0
M  V30 817 N 78.3393 -0.321999 -1.54275 0
M  V30 818 C 79.7503 0.166384 -1.85957 0
M  V30 819 C 80.1013 1.51747 -1.24367 0
M  V30 820 O 79.2263 2.09317 -0.549124 0
M  V30 821 C 79.8213 0.308681 -3.37391 0
M  V30 822 C 78.3803 0.741286 -3.69028 0
M  V30 823 C 77.5273 -0.137937 -2.76957 0
M  V30 824 H 80.4783 -0.542335 -1.49146 0
M  V30 825 H 80.4993 1.13984 -3.63026 0
M  V30 826 H 80.0113 -0.674809 -3.82188 0
M  V30 827 H 78.1123 1.73458 -3.29762 0
M  V30 828 H 78.2253 0.546118 -4.75977 0
M  V30 829 H 76.5893 0.386251 -2.51754 0
M  V30 830 H 77.3723 -1.11816 -3.2458 0
M  V30 831 N 79.8174 1.5752 -0.0501392 0
M  V30 832 C 81.0634 1.92936 0.624798 0
M  V30 833 C 81.3964 0.928685 1.70555 0
M  V30 834 O 80.6714 -0.0454779 1.94447 0
M  V30 835 C 80.9544 3.38737 1.22185 0
M  V30 836 C 80.8074 4.49552 0.149218 0
M  V30 837 C 82.1264 3.84913 2.13378 0
M  V30 838 H 79.2454 0.701604 0.225657 0
M  V30 839 H 81.8874 1.89671 -0.111693 0
M  V30 840 H 80.0374 3.4165 1.84953 0
M  V30 841 H 81.7094 4.58768 -0.482648 0
M  V30 842 H 79.9524 4.30638 -0.522841 0
M  V30 843 H 80.6234 5.48653 0.606966 0
M  V30 844 H 83.0994 3.8387 1.60572 0
M  V30 845 H 81.9754 4.87584 2.52097 0
M  V30 846 H 82.2364 3.21611 3.03346 0
M  V30 847 N 81.2955 -0.223234 1.56011 0
M  V30 848 C 82.5235 -0.964812 1.83027 0
M  V30 849 C 82.9385 -1.78013 0.62904 0
M  V30 850 O 82.2955 -1.78008 -0.402414 0
M  V30 851 C 82.3465 -1.88373 3.08542 0
M  V30 852 O 82.0675 -1.10137 4.2403 0
M  V30 853 C 83.5685 -2.73934 3.48533 0
M  V30 854 H 80.7885 -0.282842 0.608475 0
M  V30 855 H 83.3325 -0.238971 2.03099 0
M  V30 856 H 81.4875 -2.56354 2.9045 0
M  V30 857 H 81.9015 -1.72501 4.95322 0
M  V30 858 H 83.3755 -3.34117 4.39397 0
M  V30 859 H 83.8525 -3.46244 2.70207 0
M  V30 860 H 84.4585 -2.11369 3.69057 0
M  V30 861 N 82.7736 -1.49793 -0.48987 0
M  V30 862 C 83.7216 -1.67783 -1.61095 0
M  V30 863 C 84.7156 -0.543683 -1.60438 0
M  V30 864 O 85.9216 -0.723647 -1.64813 0
M  V30 865 H 82.2966 -0.529255 -0.534222 0
M  V30 866 H 84.2676 -2.61861 -1.43078 0
M  V30 867 C 83.0166 -1.77191 -2.99164 0
M  V30 868 H 82.3396 -2.63841 -3.0038 0
M  V30 869 H 83.7796 -1.93809 -3.77113 0
M  V30 870 C 82.2386 -0.519203 -3.32875 0
M  V30 871 O 82.7686 0.350124 -4.00171 0
M  V30 872 N 80.9746 -0.378816 -2.8812 0
M  V30 873 H 80.5216 -1.08725 -2.33531 0
M  V30 874 H 80.4796 0.458239 -3.11043 0
M  V30 875 N 84.2517 0.741722 -1.39055 0
M  V30 876 C 85.1987 1.85566 -1.37237 0
M  V30 877 C 86.1687 1.64457 -0.233072 0
M  V30 878 O 87.3537 1.85957 -0.427147 0
M  V30 879 C 84.4937 3.23004 -1.215 0
M  V30 880 C 83.6067 3.55864 -2.44918 0
M  V30 881 C 82.7417 4.82669 -2.21821 0
M  V30 882 C 81.7807 5.08351 -3.40948 0
M  V30 883 N 80.9177 6.26356 -3.17211 0
M  V30 884 H 85.7577 1.86455 -2.32462 0
M  V30 885 H 83.2947 0.911176 -1.15482 0
M  V30 886 H 85.2527 4.02331 -1.10389 0
M  V30 887 H 83.8827 3.21411 -0.29908 0
M  V30 888 H 82.9347 2.7129 -2.66657 0
M  V30 889 H 84.2467 3.70765 -3.33668 0
M  V30 890 H 83.4007 5.69962 -2.07914 0
M  V30 891 H 82.1397 4.69929 -1.30454 0
M  V30 892 H 81.1447 4.19522 -3.55361 0
M  V30 893 H 82.3697 5.22981 -4.33207 0
M  V30 894 H 80.3157 6.14917 -2.28502 0
M  V30 895 H 80.2327 6.41813 -3.99515 0
M  V30 896 H 81.5007 7.16506 -3.06984 0
M  V30 897 N 85.7298 1.2412 0.971189 0
M  V30 898 C 86.6598 1.05508 2.08304 0
M  V30 899 C 87.6408 -0.0308864 1.70072 0
M  V30 900 O 88.8258 0.135521 1.93727 0
M  V30 901 C 85.9558 0.655365 3.4106 0
M  V30 902 C 84.9098 1.68971 3.93234 0
M  V30 903 C 84.2358 1.14516 5.22293 0
M  V30 904 C 85.5358 3.08487 4.21465 0
M  V30 905 H 87.2298 1.98507 2.24132 0
M  V30 906 H 84.7758 0.955821 1.07704 0
M  V30 907 H 86.7288 0.51217 4.18276 0
M  V30 908 H 85.4528 -0.31032 3.25122 0
M  V30 909 H 84.1118 1.82106 3.18171 0
M  V30 910 H 83.7598 0.170189 5.02712 0
M  V30 911 H 83.4598 1.83635 5.58168 0
M  V30 912 H 84.9838 1.01401 6.02121 0
M  V30 913 H 86.3978 2.98601 4.89398 0
M  V30 914 H 84.7948 3.74926 4.68562 0
M  V30 915 H 85.8648 3.56787 3.28376 0
M  V30 916 N 87.2079 -1.17134 1.05439 0
M  V30 917 C 88.1549 -2.21235 0.657539 0
M  V30 918 C 89.1249 -1.62551 -0.341543 0
M  V30 919 O 90.3099 -1.89379 -0.232393 0
M  V30 920 C 87.4499 -3.45076 0.0410575 0
M  V30 921 C 86.5629 -4.18042 1.08927 0
M  V30 922 C 85.6979 -5.29376 0.439848 0
M  V30 923 C 84.7369 -5.94132 1.4722 0
M  V30 924 N 83.8739 -6.96975 0.846756 0
M  V30 925 H 88.7139 -2.54534 1.54972 0
M  V30 926 H 86.2509 -1.25028 0.775006 0
M  V30 927 H 88.2089 -4.15862 -0.33383 0
M  V30 928 H 86.8389 -3.12353 -0.814568 0
M  V30 929 H 85.8909 -3.45945 1.58196 0
M  V30 930 H 87.2029 -4.62306 1.87282 0
M  V30 931 H 86.3569 -6.06699 0.0115125 0
M  V30 932 H 85.0959 -4.86251 -0.375656 0
M  V30 933 H 84.1009 -5.15538 1.91052 0
M  V30 934 H 85.3259 -6.39337 2.28965 0
M  V30 935 H 83.2719 -6.5598 0.0518075 0
M  V30 936 H 83.1889 -7.39565 1.5678 0
M  V30 937 H 84.4569 -7.78239 0.443277 0
M  V30 938 N 88.686 -0.835752 -1.33615 0
M  V30 939 C 89.649 -0.272 -2.2758 0
M  V30 940 C 90.649 0.557487 -1.50827 0
M  V30 941 O 91.839 0.37173 -1.70188 0
M  V30 942 C 88.971 0.617173 -3.35267 0
M  V30 943 H 90.164 -1.10111 -2.78954 0
M  V30 944 H 87.717 -0.608594 -1.43965 0
M  V30 945 H 88.452 1.46884 -2.89129 0
M  V30 946 H 88.237 0.0237066 -3.92093 0
M  V30 947 H 89.727 1.005 -4.05326 0
M  V30 948 N 90.1641 1.46063 -0.591896 0
M  V30 949 C 91.3941 2.06418 -0.0867676 0
M  V30 950 C 91.8021 1.43975 1.22751 0
M  V30 951 O 91.1451 0.542531 1.75506 0
M  V30 952 C 91.2071 3.59213 0.143725 0
M  V30 953 C 90.8711 4.439 -1.08635 0
M  V30 954 C 91.8681 4.79864 -2.00067 0
M  V30 955 C 89.5531 4.84896 -1.31077 0
M  V30 956 C 91.5471 5.55661 -3.12282 0
M  V30 957 C 89.2341 5.6045 -2.43596 0
M  V30 958 C 90.2321 5.95747 -3.34027 0
M  V30 959 O 89.9201 6.69772 -4.4459 0
M  V30 960 H 89.6521 0.673443 -0.0587447 0
M  V30 961 H 92.2061 1.88539 -0.814994 0
M  V30 962 H 90.4361 3.75433 0.926668 0
M  V30 963 H 92.1251 4.01463 0.5985 0
M  V30 964 H 92.8911 4.48763 -1.83947 0
M  V30 965 H 88.7701 4.56867 -0.61594 0
M  V30 966 H 92.3141 5.8313 -3.82891 0
M  V30 967 H 88.2111 5.90965 -2.59674 0
M  V30 968 H 88.9791 6.88207 -4.43073 0
M  V30 969 N 91.6422 0.330177 1.54103 0
M  V30 970 C 92.8902 -0.269871 2.0029 0
M  V30 971 C 93.2112 -1.52133 1.21986 0
M  V30 972 O 92.4812 -1.93212 0.323438 0
M  V30 973 H 91.0612 -0.10271 0.739905 0
M  V30 974 H 93.7232 0.448249 1.89675 0
M  V30 975 H 92.8192 -0.52166 3.07709 0
M  V30 976 N 93.1203 -1.57491 0.0584922 0
M  V30 977 C 94.3973 -1.84346 -0.653918 0
M  V30 978 C 94.7773 -0.948355 -1.88599 0
M  V30 979 O 94.1253 -0.0112403 -2.28497 0
M  V30 980 C 94.3353 -3.34239 -1.00425 0
M  V30 981 C 95.6833 -4.01431 -1.38342 0
M  V30 982 O 96.7073 -3.38907 -1.09637 0
M  V30 983 O 95.5663 -5.11683 -1.91943 0
M  V30 984 H 92.6603 -0.761112 -0.323478 0
M  V30 985 H 95.2063 -1.6947 0.0884125 0
M  V30 986 H 93.9783 -3.91089 -0.128625 0
M  V30 987 H 93.6013 -3.54329 -1.80378 0
M  V30 988 N 94.5984 0.214957 -1.56127 0
M  V30 989 C 95.5614 1.24997 -1.92116 0
M  V30 990 C 96.5614 1.39467 -0.800344 0
M  V30 991 O 97.7514 1.37619 -1.06802 0
M  V30 992 C 94.8834 2.62271 -2.17777 0
M  V30 993 H 96.0764 0.942875 -2.84693 0
M  V30 994 H 93.6294 0.455654 -1.49511 0
M  V30 995 H 94.3644 2.98068 -1.27773 0
M  V30 996 H 94.1494 2.53143 -2.99434 0
M  V30 997 H 95.6394 3.36946 -2.46693 0
M  V30 998 N 96.0765 1.50051 0.48192 0
M  V30 999 C 97.0245 1.68635 1.60203 0
M  V30 1000 C 98.0185 0.552184 1.60148 0
M  V30 1001 O 99.2245 0.732377 1.64427 0
M  V30 1002 H 95.5995 0.532081 0.531407 0
M  V30 1003 H 97.5705 2.62616 1.41688 0
M  V30 1004 C 96.3195 1.78775 2.9822 0
M  V30 1005 H 95.6425 2.6543 2.98976 0
M  V30 1006 H 97.0825 1.95806 3.7608 0
M  V30 1007 C 95.5415 0.536849 3.32595 0
M  V30 1008 O 96.0715 -0.328897 4.00351 0
M  V30 1009 N 94.2775 0.394091 2.87915 0
M  V30 1010 H 93.8245 1.09962 2.32951 0
M  V30 1011 H 93.7825 -0.441737 3.11281 0
M  V30 1012 N 97.5546 -0.734337 1.39446 0
M  V30 1013 C 98.8016 -1.49391 1.36706 0
M  V30 1014 C 99.1296 -1.94465 -0.0367813 0
M  V30 1015 O 98.3846 -1.67154 -1.01774 0
M  V30 1016 C 98.6836 -2.74711 2.28623 0
M  V30 1017 C 98.3496 -2.48501 3.76242 0
M  V30 1018 C 97.0116 -2.41062 4.16464 0
M  V30 1019 C 99.3636 -2.26098 4.69606 0
M  V30 1020 C 96.6916 -2.09262 5.48112 0
M  V30 1021 C 99.0436 -1.95814 6.01531 0
M  V30 1022 C 97.7076 -1.86845 6.40816 0
M  V30 1023 H 96.9776 -0.546661 0.500243 0
M  V30 1024 H 99.6246 -0.842788 1.71957 0
M  V30 1025 H 97.9296 -3.44569 1.86492 0
M  V30 1026 H 99.6266 -3.32741 2.23796 0
M  V30 1027 H 96.2166 -2.55169 3.44364 0
M  V30 1028 H 100.401 -2.30812 4.39363 0
M  V30 1029 H 95.6566 -2.00841 5.77471 0
M  V30 1030 H 99.8306 -1.77488 6.73403 0
M  V30 1031 H 97.4576 -1.6197 7.42745 0
M  V30 1032 N 99.0327 -1.24633 -0.964593 0
M  V30 1033 C 99.9807 -1.03917 -2.08096 0
M  V30 1034 C 100.975 0.0268581 -1.69379 0
M  V30 1035 O 102.181 -0.127952 -1.79545 0
M  V30 1036 H 98.5557 -0.319044 -0.680966 0
M  V30 1037 H 100.527 -1.98581 -2.22729 0
M  V30 1038 C 99.2757 -0.663983 -3.41301 0
M  V30 1039 H 98.5987 -1.47605 -3.71555 0
M  V30 1040 H 100.039 -0.558663 -4.20303 0
M  V30 1041 C 98.4977 0.629169 -3.30973 0
M  V30 1042 O 99.0277 1.67404 -3.65156 0
M  V30 1043 N 97.2337 0.611057 -2.84103 0
M  V30 1044 H 96.7807 -0.239593 -2.56483 0
M  V30 1045 H 96.7387 1.47647 -2.77575 0
M  V30 1046 N 100.511 1.16574 -1.06058 0
M  V30 1047 C 101.758 1.87047 -0.775873 0
M  V30 1048 C 102.086 1.81562 0.697534 0
M  V30 1049 O 101.341 1.22445 1.52662 0
M  V30 1050 C 101.64 3.36195 -1.21275 0
M  V30 1051 C 101.306 3.6188 -2.68986 0
M  V30 1052 C 99.9678 3.68599 -3.09335 0
M  V30 1053 C 102.32 3.72648 -3.64394 0
M  V30 1054 C 99.6478 3.83584 -4.43937 0
M  V30 1055 C 102 3.89154 -4.98741 0
M  V30 1056 C 100.664 3.94114 -5.3873 0
M  V30 1057 H 99.9338 0.684452 -0.283912 0
M  V30 1058 H 102.581 1.37853 -1.32925 0
M  V30 1059 H 100.886 3.87505 -0.578528 0
M  V30 1060 H 102.583 3.89103 -0.969542 0
M  V30 1061 H 99.1728 3.57281 -2.36744 0
M  V30 1062 H 103.357 3.66769 -3.34356 0
M  V30 1063 H 98.6128 3.85677 -4.74409 0
M  V30 1064 H 102.787 3.96427 -5.72554 0
M  V30 1065 H 100.414 4.05478 -6.43033 0
M  V30 1066 N 101.989 0.842826 1.3317 0
M  V30 1067 C 103.217 0.454055 2.01856 0
M  V30 1068 C 103.632 -0.94587 1.63397 0
M  V30 1069 O 102.989 -1.61534 0.849302 0
M  V30 1070 C 103.04 0.569715 3.56982 0
M  V30 1071 O 102.761 1.91448 3.94055 0
M  V30 1072 C 104.262 0.178412 4.42941 0
M  V30 1073 H 101.482 0.17979 0.646465 0
M  V30 1074 H 104.026 1.1365 1.70012 0
M  V30 1075 H 102.181 -0.0648587 3.87346 0
M  V30 1076 H 102.595 1.90282 4.88767 0
M  V30 1077 H 104.069 0.310376 5.51127 0
M  V30 1078 H 104.546 -0.880056 4.30293 0
M  V30 1079 H 105.152 0.787579 4.17944 0
M  V30 1080 N 103.467 -1.45747 0.599634 0
M  V30 1081 C 104.415 -2.322 -0.136426 0
M  V30 1082 C 105.409 -1.45497 -0.867583 0
M  V30 1083 O 106.615 -1.62027 -0.78405 0
M  V30 1084 H 102.99 -0.749368 -0.0628588 0
M  V30 1085 H 104.961 -2.92072 0.611281 0
M  V30 1086 C 103.71 -3.28974 -1.12567 0
M  V30 1087 H 103.033 -3.9568 -0.572484 0
M  V30 1088 H 104.473 -3.92212 -1.61077 0
M  V30 1089 C 102.932 -2.55561 -2.19523 0
M  V30 1090 O 103.462 -2.33111 -3.27143 0
M  V30 1091 N 101.668 -2.15832 -1.94589 0
M  V30 1092 H 101.215 -2.3429 -1.07078 0
M  V30 1093 H 101.173 -1.67034 -2.66359 0
M  V30 1094 N 104.945 -0.338344 -1.53925 0
M  V30 1095 C 105.893 0.536231 -2.26335 0
M  V30 1096 C 106.887 1.1063 -1.28286 0
M  V30 1097 O 108.093 1.05264 -1.46012 0
M  V30 1098 H 104.468 0.191602 -0.727181 0
M  V30 1099 H 106.439 -0.0965747 -2.98244 0
M  V30 1100 C 105.188 1.67803 -3.04528 0
M  V30 1101 H 104.511 1.24864 -3.79801 0
M  V30 1102 H 105.951 2.26526 -3.58416 0
M  V30 1103 C 104.41 2.60439 -2.13712 0
M  V30 1104 O 104.94 3.6255 -1.72975 0
M  V30 1105 N 103.146 2.29006 -1.78898 0
M  V30 1106 H 102.693 1.46011 -2.12223 0
M  V30 1107 H 102.651 2.91248 -1.18416 0
M  V30 1108 N 106.423 1.57458 -0.0668435 0
M  V30 1109 C 107.648 1.9804 0.616027 0
M  V30 1110 C 108.073 0.944771 1.62652 0
M  V30 1111 O 107.431 -0.0902094 1.81075 0
M  V30 1112 C 107.479 3.37665 1.26549 0
M  V30 1113 O 106.583 3.36701 2.38131 0
M  V30 1114 H 105.924 0.644719 0.158849 0
M  V30 1115 H 108.454 2.04121 -0.139891 0
M  V30 1116 H 108.464 3.7474 1.6135 0
M  V30 1117 H 107.139 4.12573 0.525016 0
M  V30 1118 H 105.716 3.1139 2.0516 0
M  V30 1119 N 107.901 -0.206675 1.56239 0
M  V30 1120 C 109.15 -0.926964 1.79138 0
M  V30 1121 C 109.463 -1.84901 0.638043 0
M  V30 1122 O 110.669 -2.60906 0.751033 0
M  V30 1123 C 109.125 -1.6986 3.17294 0
M  V30 1124 C 108.733 -0.821956 4.40395 0
M  V30 1125 C 110.477 -2.40922 3.4951 0
M  V30 1126 C 108.384 -1.59179 5.69575 0
M  V30 1127 H 107.314 -0.349864 0.667915 0
M  V30 1128 H 109.965 -0.180487 1.8261 0
M  V30 1129 H 108.347 -2.48853 3.08039 0
M  V30 1130 H 109.521 -0.0715019 4.60745 0
M  V30 1131 H 107.836 -0.222741 4.15804 0
M  V30 1132 H 110.433 -2.99047 4.43255 0
M  V30 1133 H 110.776 -3.14542 2.72707 0
M  V30 1134 H 111.309 -1.68905 3.60161 0
M  V30 1135 H 108.048 -0.898589 6.49312 0
M  V30 1136 H 107.568 -2.31648 5.53262 0
M  V30 1137 H 109.247 -2.14862 6.10281 0
M  V30 1138 N 109.379 -1.50304 -0.473955 0
M  V30 1139 C 110.342 -1.6841 -1.55469 0
M  V30 1140 C 111.342 -0.554905 -1.50922 0
M  V30 1141 O 112.532 -0.821882 -1.53593 0
M  V30 1142 C 109.664 -1.70667 -2.95102 0
M  V30 1143 H 110.857 -2.64828 -1.40733 0
M  V30 1144 H 108.41 -1.39742 -0.700132 0
M  V30 1145 H 109.145 -0.75932 -3.15285 0
M  V30 1146 H 108.93 -2.52698 -2.9981 0
M  V30 1147 H 110.42 -1.8664 -3.73571 0
M  V30 1148 N 110.857 0.726932 -1.39834 0
M  V30 1149 C 112.134 1.47902 -1.28001 0
M  V30 1150 C 112.514 2.1083 0.106789 0
M  V30 1151 O 111.862 1.99242 1.11869 0
M  V30 1152 C 112.072 2.52392 -2.41038 0
M  V30 1153 C 113.42 3.18546 -2.80737 0
M  V30 1154 O 114.444 2.62708 -2.40547 0
M  V30 1155 O 113.303 4.19604 -3.50135 0
M  V30 1156 H 110.397 0.657163 -0.502062 0
M  V30 1157 H 112.943 0.760071 -1.51727 0
M  V30 1158 H 111.715 2.04329 -3.33715 0
M  V30 1159 H 111.338 3.31837 -2.19021 0
M  V30 1160 N 112.336 1.25143 0.95797 0
M  V30 1161 C 113.299 1.05321 2.03569 0
M  V30 1162 C 114.299 0.007152 1.60798 0
M  V30 1163 O 115.489 0.24903 1.72411 0
M  V30 1164 C 112.621 0.598394 3.35607 0
M  V30 1165 H 113.814 2.00986 2.22586 0
M  V30 1166 H 111.367 1.07502 1.13459 0
M  V30 1167 H 112.102 -0.361014 3.22284 0
M  V30 1168 H 111.887 1.35351 3.67998 0
M  V30 1169 H 113.377 0.48104 4.1482 0
M  V30 1170 N 113.814 -1.1601 1.06675 0
M  V30 1171 C 114.724 -2.24156 0.692179 0
M  V30 1172 C 115.74 -1.71507 -0.293513 0
M  V30 1173 O 116.916 -2.009 -0.141861 0
M  V30 1174 C 113.981 -3.46587 0.0884131 0
M  V30 1175 C 113.042 -4.14257 1.12646 0
M  V30 1176 C 112.275 -5.30844 0.551416 0
M  V30 1177 O 112.498 -5.66858 -0.634656 0
M  V30 1178 O 111.432 -5.87848 1.29298 0
M  V30 1179 H 115.258 -2.58513 1.59388 0
M  V30 1180 H 112.843 -1.23599 0.83926 0
M  V30 1181 H 114.725 -4.20679 -0.246361 0
M  V30 1182 H 113.4 -3.13994 -0.786712 0
M  V30 1183 H 112.307 -3.42118 1.51348 0
M  V30 1184 H 113.64 -4.50914 1.97325 0
M  V30 1185 N 115.292 -0.849877 -1.32721 0
M  V30 1186 C 116.239 -0.289033 -2.28983 0
M  V30 1187 C 117.209 0.601324 -1.54833 0
M  V30 1188 O 118.394 0.537253 -1.8308 0
M  V30 1189 C 115.534 0.520623 -3.4115 0
M  V30 1190 C 114.647 -0.394989 -4.3019 0
M  V30 1191 C 113.782 0.426834 -5.29482 0
M  V30 1192 C 112.821 -0.486476 -6.10164 0
M  V30 1193 N 111.958 0.297879 -7.01468 0
M  V30 1194 H 116.798 -1.11519 -2.76347 0
M  V30 1195 H 114.335 -0.56138 -1.35967 0
M  V30 1196 H 116.293 1.00563 -4.04899 0
M  V30 1197 H 114.923 1.31165 -2.9495 0
M  V30 1198 H 113.975 -0.99836 -3.67065 0
M  V30 1199 H 115.287 -1.09612 -4.86607 0
M  V30 1200 H 114.441 0.975205 -5.98811 0
M  V30 1201 H 113.18 1.16136 -4.73671 0
M  V30 1202 H 112.185 -1.04677 -5.39743 0
M  V30 1203 H 113.41 -1.21953 -6.6806 0
M  V30 1204 H 111.356 1.01558 -6.48091 0
M  V30 1205 H 111.273 -0.344318 -7.55216 0
M  V30 1206 H 112.541 0.828131 -7.75089 0
M  V30 1207 N 116.77 1.45427 -0.607355 0
M  V30 1208 C 117.702 2.2871 0.149752 0
M  V30 1209 C 118.715 1.39937 0.831958 0
M  V30 1210 O 119.904 1.64313 0.697385 0
M  V30 1211 C 117.004 3.15673 1.23304 0
M  V30 1212 C 116.177 4.32722 0.637996 0
M  V30 1213 C 115.236 5.00895 1.61215 0
M  V30 1214 O 114.262 5.57697 1.13854 0
M  V30 1215 N 115.464 5.00159 2.94655 0
M  V30 1216 H 118.229 2.94328 -0.564882 0
M  V30 1217 H 115.79 1.55612 -0.446823 0
M  V30 1218 H 117.782 3.58144 1.88454 0
M  V30 1219 H 116.352 2.51965 1.8502 0
M  V30 1220 H 115.572 3.93734 -0.191572 0
M  V30 1221 H 116.86 5.08321 0.220665 0
M  V30 1222 H 116.258 4.553 3.35735 0
M  V30 1223 H 114.815 5.46495 3.55228 0
M  V30 1224 N 118.248 0.346503 1.53744 0
M  V30 1225 C 119.494 -0.249473 2.0126 0
M  V30 1226 C 119.827 -1.49965 1.23386 0
M  V30 1227 O 119.102 -1.91811 0.32229 0
M  V30 1228 C 119.385 -0.560643 3.55709 0
M  V30 1229 C 119.238 0.701836 4.44291 0
M  V30 1230 C 120.557 -1.36905 4.18264 0
M  V30 1231 H 117.676 -0.0891987 0.731582 0
M  V30 1232 H 120.318 0.467624 1.84156 0
M  V30 1233 H 118.468 -1.17156 3.70414 0
M  V30 1234 H 120.14 1.33974 4.41417 0
M  V30 1235 H 118.383 1.32612 4.13033 0
M  V30 1236 H 119.054 0.43933 5.50249 0
M  V30 1237 H 121.53 -0.852448 4.07275 0
M  V30 1238 H 120.406 -1.55553 5.26398 0
M  V30 1239 H 120.667 -2.37203 3.73078 0
M  V30 1240 N 119.726 -1.57421 0.075193 0
M  V30 1241 C 120.658 -2.09904 -0.920483 0
M  V30 1242 C 121.671 -1.03191 -1.25918 0
M  V30 1243 O 122.86 -1.30695 -1.21577 0
M  V30 1244 C 119.96 -2.54726 -2.23534 0
M  V30 1245 C 119.133 -3.8505 -2.07498 0
M  V30 1246 C 118.192 -4.15929 -3.22319 0
M  V30 1247 O 117.218 -4.85474 -2.9716 0
M  V30 1248 N 118.42 -3.69745 -4.47514 0
M  V30 1249 H 121.185 -2.95954 -0.472359 0
M  V30 1250 H 118.746 -1.61523 -0.110444 0
M  V30 1251 H 120.738 -2.72443 -2.9926 0
M  V30 1252 H 119.308 -1.73795 -2.59835 0
M  V30 1253 H 118.528 -3.76679 -1.16219 0
M  V30 1254 H 119.816 -4.70348 -1.94038 0
M  V30 1255 H 119.214 -3.13569 -4.7084 0
M  V30 1256 H 117.771 -3.92655 -5.20255 0
M  V30 1257 N 121.204 0.198386 -1.56346 0
M  V30 1258 C 122.114 1.2664 -1.97483 0
M  V30 1259 C 123.13 1.49989 -0.882002 0
M  V30 1260 O 124.306 1.62668 -1.18748 0
M  V30 1261 C 121.371 2.59141 -2.30319 0
M  V30 1262 C 120.432 2.43892 -3.53292 0
M  V30 1263 C 119.665 3.70074 -3.84553 0
M  V30 1264 O 119.888 4.74101 -3.1715 0
M  V30 1265 O 118.822 3.658 -4.7799 0
M  V30 1266 H 122.648 0.947304 -2.88548 0
M  V30 1267 H 120.233 0.403123 -1.43859 0
M  V30 1268 H 122.115 3.37352 -2.5253 0
M  V30 1269 H 120.79 2.90684 -1.42423 0
M  V30 1270 H 119.697 1.63803 -3.36332 0
M  V30 1271 H 121.03 2.17282 -4.41644 0
M  V30 1272 N 122.682 1.50554 0.465978 0
M  V30 1273 C 123.645 1.69233 1.54574 0
M  V30 1274 C 124.645 0.562901 1.50626 0
M  V30 1275 O 125.835 0.830016 1.53155 0
M  V30 1276 C 122.967 1.7223 2.94193 0
M  V30 1277 H 124.16 2.65571 1.39327 0
M  V30 1278 H 121.713 1.40111 0.692711 0
M  V30 1279 H 122.448 0.77603 3.14878 0
M  V30 1280 H 122.233 2.54285 2.98466 0
M  V30 1281 H 123.723 1.88618 3.72576 0
M  V30 1282 N 124.16 -0.719506 1.40217 0
M  V30 1283 C 125.39 -1.50646 1.41384 0
M  V30 1284 C 125.798 -1.89197 0.0107743 0
M  V30 1285 O 125.141 -1.55709 -0.974708 0
M  V30 1286 C 125.203 -2.81405 2.23722 0
M  V30 1287 C 124.867 -2.65199 3.72181 0
M  V30 1288 C 125.864 -2.32717 4.64907 0
M  V30 1289 C 123.549 -2.81586 4.1595 0
M  V30 1290 C 125.543 -2.16827 5.99387 0
M  V30 1291 C 123.23 -2.65313 5.50502 0
M  V30 1292 C 124.228 -2.32981 6.42035 0
M  V30 1293 O 123.916 -2.16827 7.74107 0
M  V30 1294 H 123.648 -0.471606 0.484318 0
M  V30 1295 H 126.202 -0.895456 1.84853 0
M  V30 1296 H 124.432 -3.44823 1.75026 0
M  V30 1297 H 126.121 -3.43102 2.16878 0
M  V30 1298 H 126.887 -2.19694 4.32388 0
M  V30 1299 H 122.766 -3.0574 3.45027 0
M  V30 1300 H 126.31 -1.91513 6.70797 0
M  V30 1301 H 122.207 -2.7792 5.82607 0
M  V30 1302 H 122.975 -2.31778 7.84998 0
M  V30 1303 N 125.638 -1.25649 -0.95132 0
M  V30 1304 C 126.585 -1.06323 -2.04851 0
M  V30 1305 C 127.555 0.0286491 -1.66075 0
M  V30 1306 O 128.74 -0.12917 -1.90362 0
M  V30 1307 C 125.88 -0.691529 -3.381 0
M  V30 1308 C 124.993 -1.85861 -3.89974 0
M  V30 1309 C 124.128 -1.43096 -5.11563 0
M  V30 1310 C 123.167 -2.56696 -5.55674 0
M  V30 1311 N 122.304 -2.14684 -6.68472 0
M  V30 1312 H 127.144 -2.00222 -2.20715 0
M  V30 1313 H 124.681 -0.997027 -1.08156 0
M  V30 1314 H 126.639 -0.456963 -4.1469 0
M  V30 1315 H 125.269 0.210474 -3.22113 0
M  V30 1316 H 124.321 -2.20639 -3.09875 0
M  V30 1317 H 125.633 -2.71161 -4.18657 0
M  V30 1318 H 124.787 -1.15624 -5.9558 0
M  V30 1319 H 123.526 -0.548722 -4.84603 0
M  V30 1320 H 122.531 -2.84909 -4.7022 0
M  V30 1321 H 123.756 -3.45503 -5.8464 0
M  V30 1322 H 121.702 -1.28881 -6.43215 0
M  V30 1323 H 121.619 -2.9353 -6.96689 0
M  V30 1324 H 122.887 -1.90397 -7.5589 0
M  V30 1325 N 127.117 1.15442 -1.07289 0
M  V30 1326 C 128.365 1.85845 -0.794096 0
M  V30 1327 C 128.686 1.82692 0.681809 0
M  V30 1328 O 127.956 1.26741 1.49377 0
M  V30 1329 H 126.536 0.688089 -0.290763 0
M  V30 1330 H 129.198 1.39947 -1.3565 0
M  V30 1331 H 128.294 2.91001 -1.12804 0
M  V30 1332 N 128.595 0.856903 1.32268 0
M  V30 1333 C 129.525 0.31858 2.31316 0
M  V30 1334 C 130.506 -0.583487 1.59779 0
M  V30 1335 O 131.691 -0.503259 1.87566 0
M  V30 1336 C 128.821 -0.491979 3.43798 0
M  V30 1337 C 127.775 0.315849 4.26833 0
M  V30 1338 C 127.101 -0.619586 5.31098 0
M  V30 1339 C 128.401 1.54282 4.98993 0
M  V30 1340 H 130.095 1.14621 2.76591 0
M  V30 1341 H 127.641 0.552613 1.32974 0
M  V30 1342 H 129.594 -0.879012 4.1213 0
M  V30 1343 H 128.318 -1.35299 2.97257 0
M  V30 1344 H 126.977 0.684664 3.6015 0
M  V30 1345 H 126.625 -1.47751 4.8081 0
M  V30 1346 H 126.325 -0.0830621 5.87541 0
M  V30 1347 H 127.849 -1.00375 6.02293 0
M  V30 1348 H 129.263 1.22796 5.59995 0
M  V30 1349 H 127.66 2.01745 5.65172 0
M  V30 1350 H 128.73 2.30285 4.26728 0
M  V30 1351 N 130.073 -1.45103 0.615059 0
M  V30 1352 C 131.003 -2.33339 -0.0865619 0
M  V30 1353 C 131.984 -1.4727 -0.851209 0
M  V30 1354 O 133.169 -1.76026 -0.820281 0
M  V30 1355 C 130.299 -3.30095 -1.07956 0
M  V30 1356 C 129.253 -4.25858 -0.427628 0
M  V30 1357 C 128.579 -5.12361 -1.5294 0
M  V30 1358 C 129.879 -5.18165 0.655944 0
M  V30 1359 H 131.573 -2.92254 0.650224 0
M  V30 1360 H 129.119 -1.40532 0.314138 0
M  V30 1361 H 131.072 -3.90698 -1.57901 0
M  V30 1362 H 129.796 -2.69355 -1.84703 0
M  V30 1363 H 128.455 -3.66564 0.0510292 0
M  V30 1364 H 128.103 -4.47984 -2.28734 0
M  V30 1365 H 127.803 -5.77238 -1.09865 0
M  V30 1366 H 129.327 -5.75833 -2.03098 0
M  V30 1367 H 130.741 -5.72796 0.240257 0
M  V30 1368 H 129.138 -5.91559 1.00888 0
M  V30 1369 H 130.208 -4.60144 1.52957 0
M  V30 1370 N 131.551 -0.354651 -1.53558 0
M  V30 1371 C 132.499 0.512195 -2.26891 0
M  V30 1372 C 133.493 1.09263 -1.29452 0
M  V30 1373 O 134.699 1.03709 -1.47121 0
M  V30 1374 H 131.074 0.183878 -0.729173 0
M  V30 1375 H 133.045 -0.128202 -2.98124 0
M  V30 1376 C 131.794 1.64563 -3.06291 0
M  V30 1377 H 131.117 1.20829 -3.81104 0
M  V30 1378 H 132.557 2.22711 -3.60799 0
M  V30 1379 C 131.016 2.58158 -2.16462 0
M  V30 1380 O 131.546 3.60695 -1.76811 0
M  V30 1381 N 129.752 2.27096 -1.81317 0
M  V30 1382 H 129.299 1.43751 -2.1376 0
M  V30 1383 H 129.257 2.89975 -1.21498 0
M  V30 1384 N 133.029 1.57378 -0.0835403 0
M  V30 1385 C 133.959 2.1641 0.87686 0
M  V30 1386 C 134.94 1.09429 1.30228 0
M  V30 1387 O 136.125 1.37516 1.37124 0
M  V30 1388 C 133.255 2.73517 2.14022 0
M  V30 1389 C 132.209 3.85769 1.85381 0
M  V30 1390 C 131.535 4.29529 3.18448 0
M  V30 1391 C 132.835 5.09486 1.14984 0
M  V30 1392 H 134.529 2.96914 0.385059 0
M  V30 1393 H 132.075 1.42823 0.18377 0
M  V30 1394 H 134.028 3.13463 2.81636 0
M  V30 1395 H 132.752 1.90252 2.65465 0
M  V30 1396 H 131.411 3.46345 1.20169 0
M  V30 1397 H 131.059 3.43169 3.67755 0
M  V30 1398 H 130.759 5.05204 3.00071 0
M  V30 1399 H 132.283 4.72099 3.8724 0
M  V30 1400 H 133.697 5.46674 1.72687 0
M  V30 1401 H 132.094 5.90515 1.06826 0
M  V30 1402 H 133.164 4.84724 0.130749 0
M  V30 1403 N 134.507 -0.190092 1.56449 0
M  V30 1404 C 135.455 -1.25501 1.95837 0
M  V30 1405 C 136.449 -1.4685 0.844485 0
M  V30 1406 O 137.655 -1.47651 1.02952 0
M  V30 1407 H 134.03 -0.421447 0.622805 0
M  V30 1408 H 136.001 -0.895821 2.84636 0
M  V30 1409 C 134.75 -2.59124 2.31841 0
M  V30 1410 H 134.073 -2.43514 3.17082 0
M  V30 1411 H 135.513 -3.32371 2.6326 0
M  V30 1412 C 133.972 -3.16488 1.15486 0
M  V30 1413 O 134.502 -3.99365 0.432535 0
M  V30 1414 N 132.708 -2.75305 0.930349 0
M  V30 1415 H 132.255 -2.08013 1.51948 0
M  V30 1416 H 132.213 -3.14024 0.153634 0
M  V30 1417 N 135.985 -1.50799 -0.457987 0
M  V30 1418 C 136.895 -1.73426 -1.57989 0
M  V30 1419 C 137.911 -0.617745 -1.62665 0
M  V30 1420 O 139.087 -0.897614 -1.80291 0
M  V30 1421 C 136.152 -1.83557 -2.94122 0
M  V30 1422 C 135.213 -3.07345 -2.99729 0
M  V30 1423 C 134.446 -3.16983 -4.29368 0
M  V30 1424 O 134.669 -2.33077 -5.20607 0
M  V30 1425 O 133.603 -4.09812 -4.40837 0
M  V30 1426 H 137.429 -2.68555 -1.41817 0
M  V30 1427 H 135.014 -1.35052 -0.638859 0
M  V30 1428 H 136.896 -1.92326 -3.74952 0
M  V30 1429 H 135.571 -0.916137 -3.10465 0
M  V30 1430 H 134.478 -3.04068 -2.1793 0
M  V30 1431 H 135.811 -3.9891 -2.88326 0
M  V30 1432 N 137.463 0.71206 -1.40597 0
M  V30 1433 C 138.41 1.82613 -1.41142 0
M  V30 1434 C 139.38 1.63925 -0.267903 0
M  V30 1435 O 140.565 1.85009 -0.466495 0
M  V30 1436 C 137.705 3.20354 -1.28324 0
M  V30 1437 C 136.818 3.50589 -2.52411 0
M  V30 1438 C 135.953 4.77855 -2.32009 0
M  V30 1439 C 134.992 5.01005 -3.51654 0
M  V30 1440 N 134.129 6.19487 -3.30425 0
M  V30 1441 H 138.969 1.81482 -2.36365 0
M  V30 1442 H 136.506 0.886475 -1.17388 0
M  V30 1443 H 138.464 3.99899 -1.18899 0
M  V30 1444 H 137.094 3.20705 -0.367189 0
M  V30 1445 H 136.146 2.65573 -2.72351 0
M  V30 1446 H 137.458 3.63604 -3.41458 0
M  V30 1447 H 136.612 5.65424 -2.19956 0
M  V30 1448 H 135.351 4.67056 -1.40392 0
M  V30 1449 H 134.356 4.1189 -3.64179 0
M  V30 1450 H 135.581 5.13674 -4.44202 0
M  V30 1451 H 133.527 6.09932 -2.41494 0
M  V30 1452 H 133.444 6.33194 -4.13039 0
M  V30 1453 H 134.712 7.09834 -3.22113 0
M  V30 1454 N 138.941 1.26152 0.944643 0
M  V30 1455 C 139.889 1.07215 2.06417 0
M  V30 1456 C 140.883 9.2007e-05 1.694 0
M  V30 1457 O 142.089 0.1565 1.79318 0
M  V30 1458 H 138.464 0.329837 0.675805 0
M  V30 1459 H 140.435 2.02099 2.19541 0
M  V30 1460 C 139.184 0.718197 3.40202 0
M  V30 1461 H 138.507 1.53497 3.69159 0
M  V30 1462 H 139.947 0.625459 4.19361 0
M  V30 1463 C 138.406 -0.576435 3.31932 0
M  V30 1464 O 138.936 -1.61574 3.67773 0
M  V30 1465 N 137.142 -0.565781 2.85039 0
M  V30 1466 H 136.689 0.280367 2.5607 0
M  V30 1467 H 136.647 -1.43213 2.79888 0
M  V30 1468 N 140.419 -1.14872 1.07899 0
M  V30 1469 C 141.382 -2.17986 0.708161 0
M  V30 1470 C 142.382 -1.58775 -0.25442 0
M  V30 1471 O 143.572 -1.74166 -0.034645 0
M  V30 1472 C 140.704 -3.40871 0.0446929 0
M  V30 1473 H 141.897 -2.52306 1.62116 0
M  V30 1474 H 139.45 -1.2943 0.876218 0
M  V30 1475 H 140.185 -3.12124 -0.880281 0
M  V30 1476 H 139.97 -3.8511 0.737091 0
M  V30 1477 H 141.46 -4.17121 -0.19991 0
M  V30 1478 N 141.898 -0.863906 -1.31812 0
M  V30 1479 C 143.123 -0.48527 -2.01643 0
M  V30 1480 C 143.548 0.913058 -1.64453 0
M  V30 1481 O 142.906 1.6014 -0.849985 0
M  V30 1482 C 142.954 -0.642625 -3.54828 0
M  V30 1483 O 142.058 0.320659 -4.11151 0
M  V30 1484 H 141.399 -0.193793 -0.635091 0
M  V30 1485 H 143.929 -1.16565 -1.68148 0
M  V30 1486 H 143.939 -0.533628 -4.04495 0
M  V30 1487 H 142.614 -1.66227 -3.81237 0
M  V30 1488 H 141.191 0.167126 -3.72525 0
M  V30 1489 N 143.376 1.44774 -0.622745 0
M  V30 1490 C 144.653 1.95522 -0.0551974 0
M  V30 1491 C 145.033 1.5649 1.41683 0
M  V30 1492 O 144.381 0.834848 2.12703 0
M  V30 1493 C 144.591 3.4796 -0.269242 0
M  V30 1494 C 145.939 4.24306 -0.158014 0
M  V30 1495 O 146.963 3.55637 -0.200162 0
M  V30 1496 O 145.822 5.46471 -0.0558693 0
M  V30 1497 H 142.916 0.826556 0.0271015 0
M  V30 1498 H 145.462 1.54866 -0.693864 0
M  V30 1499 H 144.234 3.6939 -1.29099 0
M  V30 1500 H 143.857 3.95543 0.403966 0
M  V30 1501 N 144.854 0.36279 1.53368 0
M  V30 1502 C 145.801 -0.485008 2.25646 0
M  V30 1503 C 146.771 -1.07982 1.2621 0
M  V30 1504 O 147.956 -1.11284 1.54986 0
M  V30 1505 C 145.096 -1.62023 3.04701 0
M  V30 1506 C 144.209 -1.05086 4.19024 0
M  V30 1507 C 143.344 -2.15496 4.85525 0
M  V30 1508 C 142.383 -1.5601 5.91884 0
M  V30 1509 N 141.52 -2.60241 6.52088 0
M  V30 1510 H 146.36 0.137864 2.97681 0
M  V30 1511 H 143.897 0.0798061 1.46883 0
M  V30 1512 H 145.855 -2.28887 3.48807 0
M  V30 1513 H 144.485 -2.2138 2.34927 0
M  V30 1514 H 143.537 -0.27259 3.79422 0
M  V30 1515 H 144.849 -0.575926 4.95464 0
M  V30 1516 H 144.003 -2.90186 5.32801 0
M  V30 1517 H 142.742 -2.66341 4.08551 0
M  V30 1518 H 141.747 -0.798338 5.43973 0
M  V30 1519 H 142.972 -1.05994 6.70777 0
M  V30 1520 H 140.918 -3.10304 5.77968 0
M  V30 1521 H 140.835 -2.17426 7.24059 0
M  V30 1522 H 142.103 -3.34641 7.04014 0
M  V30 1523 N 146.332 -1.57332 0.0918853 0
M  V30 1524 C 147.262 -2.16872 -0.865371 0
M  V30 1525 C 148.243 -1.10118 -1.29646 0
M  V30 1526 O 149.428 -1.38242 -1.36392 0
M  V30 1527 C 146.558 -2.74649 -2.12569 0
M  V30 1528 C 145.512 -3.86747 -1.83333 0
M  V30 1529 C 144.838 -4.31212 -3.16166 0
M  V30 1530 C 146.138 -5.10089 -1.1228 0
M  V30 1531 H 147.832 -2.97114 -0.369307 0
M  V30 1532 H 145.378 -1.42918 -0.176194 0
M  V30 1533 H 147.331 -3.14952 -2.7997 0
M  V30 1534 H 146.055 -1.91657 -2.64452 0
M  V30 1535 H 144.714 -3.46978 -1.18331 0
M  V30 1536 H 144.362 -3.45115 -3.6593 0
M  V30 1537 H 144.062 -5.06788 -2.97388 0
M  V30 1538 H 145.586 -4.74146 -3.84731 0
M  V30 1539 H 147 -5.47582 -1.69785 0
M  V30 1540 H 145.397 -5.91073 -1.03693 0
M  V30 1541 H 146.467 -4.84786 -0.105041 0
M  V30 1542 N 147.81 0.181792 -1.56548 0
M  V30 1543 C 148.74 1.22765 -1.98623 0
M  V30 1544 C 149.721 1.46747 -0.860189 0
M  V30 1545 O 150.906 1.58259 -1.12551 0
M  V30 1546 C 148.036 2.56894 -2.33715 0
M  V30 1547 C 146.99 2.475 -3.49182 0
M  V30 1548 C 146.316 3.86023 -3.69986 0
M  V30 1549 C 147.616 1.98866 -4.82959 0
M  V30 1550 H 149.31 0.877942 -2.86239 0
M  V30 1551 H 146.856 0.42088 -1.37712 0
M  V30 1552 H 148.809 3.30253 -2.61746 0
M  V30 1553 H 147.533 2.93632 -1.42997 0
M  V30 1554 H 146.192 1.76596 -3.21262 0
M  V30 1555 H 145.84 4.20136 -2.76576 0
M  V30 1556 H 145.54 3.80609 -4.47672 0
M  V30 1557 H 147.064 4.60984 -4.00407 0
M  V30 1558 H 148.478 2.61992 -5.09934 0
M  V30 1559 H 146.875 2.04424 -5.64208 0
M  V30 1560 H 147.945 0.942465 -4.75653 0
M  V30 1561 N 149.288 1.51039 0.449983 0
M  V30 1562 C 150.534 1.63322 1.20223 0
M  V30 1563 C 150.867 0.34241 1.91158 0
M  V30 1564 O 150.142 -0.657344 1.83055 0
M  V30 1565 C 150.425 2.82801 2.22925 0
M  V30 1566 C 150.278 4.21823 1.56157 0
M  V30 1567 C 151.597 2.97807 3.24035 0
M  V30 1568 H 148.716 0.594407 0.435718 0
M  V30 1569 H 151.358 1.83489 0.493136 0
M  V30 1570 H 149.508 2.65738 2.834 0
M  V30 1571 H 151.18 4.50526 0.991162 0
M  V30 1572 H 149.423 4.25105 0.864172 0
M  V30 1573 H 150.094 5.01391 2.30891 0
M  V30 1574 H 152.57 3.13497 2.73603 0
M  V30 1575 H 151.446 3.82992 3.93202 0
M  V30 1576 H 151.707 2.09328 3.89402 0
M  V30 1577 N 150.766 -0.704594 1.40972 0
M  V30 1578 C 151.676 -1.84856 1.44448 0
M  V30 1579 C 152.692 -1.70726 0.335961 0
M  V30 1580 O 153.868 -1.92799 0.582276 0
M  V30 1581 C 150.933 -3.20758 1.31587 0
M  V30 1582 C 149.994 -3.47063 2.52677 0
M  V30 1583 C 149.227 -4.76481 2.4042 0
M  V30 1584 O 149.45 -5.52341 1.42391 0
M  V30 1585 O 148.384 -5.03367 3.30007 0
M  V30 1586 H 152.21 -1.8488 2.40942 0
M  V30 1587 H 149.795 -0.85647 1.22413 0
M  V30 1588 H 151.677 -4.01913 1.26665 0
M  V30 1589 H 150.352 -3.21438 0.382049 0
M  V30 1590 H 149.259 -2.65873 2.63177 0
M  V30 1591 H 150.592 -3.5119 3.44858 0
M  V30 1592 N 152.244 -1.26651 -0.937939 0
M  V30 1593 C 153.521 -1.0313 -1.66204 0
M  V30 1594 C 153.901 0.437256 -2.06522 0
M  V30 1595 O 153.249 1.41831 -1.79154 0
M  V30 1596 C 153.459 -1.98314 -2.87181 0
M  V30 1597 C 154.807 -2.27107 -3.58758 0
M  V30 1598 O 155.831 -1.96205 -2.97291 0
M  V30 1599 O 154.69 -2.79736 -4.69479 0
M  V30 1600 H 151.784 -0.392384 -0.727986 0
M  V30 1601 H 154.33 -1.37874 -0.989382 0
M  V30 1602 H 153.102 -2.97399 -2.54302 0
M  V30 1603 H 152.725 -1.64068 -3.6217 0
M  V30 1604 N 153.722 1.14298 -1.08507 0
M  V30 1605 C 154.67 2.21483 -0.710483 0
M  V30 1606 C 155.664 1.66998 0.284234 0
M  V30 1607 O 156.87 1.79401 0.146692 0
M  V30 1608 H 153.245 0.721578 -0.211729 0
M  V30 1609 H 155.216 2.50348 -1.62384 0
M  V30 1610 C 153.965 3.4743 -0.137007 0
M  V30 1611 H 153.288 3.89686 -0.893592 0
M  V30 1612 H 154.728 4.2391 0.0872789 0
M  V30 1613 C 153.187 3.17548 1.12538 0
M  V30 1614 O 153.717 3.35437 2.21009 0
M  V30 1615 N 151.923 2.71499 1.03617 0
M  V30 1616 H 151.47 2.57143 0.153403 0
M  V30 1617 H 151.428 2.51881 1.88158 0
M  V30 1618 N 155.201 0.870884 1.31352 0
M  V30 1619 C 156.429 0.49677 2.00848 0
M  V30 1620 C 156.844 -0.910998 1.65367 0
M  V30 1621 O 156.201 -1.59696 0.883374 0
M  V30 1622 C 156.252 0.645308 3.55694 0
M  V30 1623 O 155.973 1.99764 3.89905 0
M  V30 1624 C 157.474 0.272326 4.42463 0
M  V30 1625 H 154.694 0.193462 0.642506 0
M  V30 1626 H 157.238 1.1723 1.67563 0
M  V30 1627 H 155.393 0.0173176 3.87396 0
M  V30 1628 H 155.807 2.00607 4.84621 0
M  V30 1629 H 157.281 0.427208 5.50344 0
M  V30 1630 H 157.758 -0.788587 4.32062 0
M  V30 1631 H 158.364 0.876054 4.1618 0
M  V30 1632 N 156.679 -1.44442 0.630414 0
M  V30 1633 C 157.642 -2.29107 -0.0652523 0
M  V30 1634 C 158.642 -1.41002 -0.772995 0
M  V30 1635 O 159.832 -1.62881 -0.617692 0
M  V30 1636 C 156.964 -3.22564 -1.10296 0
M  V30 1637 H 158.157 -2.92103 0.679401 0
M  V30 1638 H 155.71 -1.51343 0.390517 0
M  V30 1639 H 156.445 -2.64416 -1.87762 0
M  V30 1640 H 156.23 -3.87491 -0.59941 0
M  V30 1641 H 157.72 -3.86167 -1.5895 0
M  V30 1642 N 158.157 -0.370918 -1.53173 0
M  V30 1643 C 159.12 0.460778 -2.24521 0
M  V30 1644 C 160.12 1.00536 -1.25496 0
M  V30 1645 O 161.31 0.890266 -1.49733 0
M  V30 1646 C 158.442 1.64457 -2.98608 0
M  V30 1647 H 159.635 -0.163613 -2.99453 0
M  V30 1648 H 157.188 -0.122699 -1.55818 0
M  V30 1649 H 157.923 2.30691 -2.2793 0
M  V30 1650 H 157.708 1.26099 -3.7127 0
M  V30 1651 H 159.198 2.23384 -3.5283 0
M  V30 1652 N 159.635 1.57281 -0.100228 0
M  V30 1653 C 160.863 1.98879 0.570509 0
M  V30 1654 C 161.278 0.979476 1.61405 0
M  V30 1655 O 160.635 -0.0302288 1.82475 0
M  V30 1656 C 160.686 3.4052 1.2136 0
M  V30 1657 O 160.407 4.37588 0.211786 0
M  V30 1658 C 161.908 3.97149 1.96945 0
M  V30 1659 H 159.128 0.653428 0.152555 0
M  V30 1660 H 161.672 2.03697 -0.18103 0
M  V30 1661 H 159.827 3.367 1.91603 0
M  V30 1662 H 160.241 5.20118 0.676607 0
M  V30 1663 H 161.715 4.98393 2.37294 0
M  V30 1664 H 162.192 3.3525 2.83733 0
M  V30 1665 H 162.798 4.04458 1.31506 0
M  V30 1666 N 161.113 -0.173488 1.56642 0
M  V30 1667 C 162.359 -0.891784 1.8214 0
M  V30 1668 C 162.692 -1.8199 0.677736 0
M  V30 1669 O 161.967 -1.91842 -0.320446 0
M  V30 1670 C 162.25 -1.68933 3.18015 0
M  V30 1671 C 162.103 -0.784487 4.42906 0
M  V30 1672 C 163.422 -2.65748 3.50808 0
M  V30 1673 H 160.541 -0.322761 0.662567 0
M  V30 1674 H 163.183 -0.158095 1.89341 0
M  V30 1675 H 161.333 -2.31482 3.12007 0
M  V30 1676 H 163.005 -0.172046 4.60979 0
M  V30 1677 H 161.248 -0.0924117 4.33702 0
M  V30 1678 H 161.919 -1.37799 5.34524 0
M  V30 1679 H 164.395 -2.13327 3.57255 0
M  V30 1680 H 163.271 -3.18619 4.4696 0
M  V30 1681 H 163.532 -3.45842 2.75401 0
M  V30 1682 N 162.591 -1.51276 -0.441967 0
M  V30 1683 C 163.839 -1.63392 -1.18943 0
M  V30 1684 C 164.16 -0.350159 -1.9183 0
M  V30 1685 O 163.43 0.633784 -1.85364 0
M  V30 1686 H 162.01 -0.602164 -0.442049 0
M  V30 1687 H 164.672 -1.88186 -0.507165 0
M  V30 1688 H 163.768 -2.45934 -1.92154 0
M  V30 1689 N 164.069 0.697108 -1.41344 0
M  V30 1690 C 165.017 1.83237 -1.43272 0
M  V30 1691 C 166.011 1.66522 -0.310947 0
M  V30 1692 O 167.217 1.73402 -0.482899 0
M  V30 1693 H 163.592 0.603802 -0.448249 0
M  V30 1694 H 165.563 1.78727 -2.38954 0
M  V30 1695 C 164.312 3.21245 -1.33029 0
M  V30 1696 H 163.635 3.34723 -2.18633 0
M  V30 1697 H 165.075 4.00763 -1.38439 0
M  V30 1698 C 163.534 3.36873 -0.0424635 0
M  V30 1699 O 164.064 3.91177 0.913421 0
M  V30 1700 N 162.27 2.90581 0.0331145 0
M  V30 1701 H 161.817 2.46577 -0.745506 0
M  V30 1702 H 161.775 3.01416 0.894199 0
M  V30 1703 N 165.547 1.27147 0.931209 0
M  V30 1704 C 166.477 1.12081 2.04842 0
M  V30 1705 C 167.458 0.0232364 1.70084 0
M  V30 1706 O 168.643 0.197085 1.93197 0
M  V30 1707 C 165.773 0.76354 3.38803 0
M  V30 1708 C 164.727 1.81396 3.87659 0
M  V30 1709 C 164.053 1.31075 5.18385 0
M  V30 1710 C 165.353 3.21739 4.11438 0
M  V30 1711 H 167.047 2.05537 2.17703 0
M  V30 1712 H 164.593 0.989603 1.04608 0
M  V30 1713 H 166.546 0.644982 4.16435 0
M  V30 1714 H 165.27 -0.206727 3.25945 0
M  V30 1715 H 163.929 1.92136 3.12217 0
M  V30 1716 H 163.577 0.330037 5.01916 0
M  V30 1717 H 163.277 2.013 5.52044 0
M  V30 1718 H 164.801 1.20506 5.98591 0
M  V30 1719 H 166.215 3.14019 4.79651 0
M  V30 1720 H 164.612 3.89644 4.56397 0
M  V30 1721 H 165.682 3.67054 3.16859 0
M  V30 1722 N 167.025 -1.13721 1.09112 0
M  V30 1723 C 168.441 -1.36914 0.820174 0
M  V30 1724 C 168.641 -1.93356 -0.567079 0
M  V30 1725 O 167.697 -2.15093 -1.32255 0
M  V30 1726 C 169.01 -2.3235 1.90877 0
M  V30 1727 C 170.558 -2.45973 1.93562 0
M  V30 1728 C 171.033 -3.44714 3.01556 0
M  V30 1729 N 172.524 -3.52263 3.00775 0
M  V30 1730 C 173.259 -4.28536 3.80978 0
M  V30 1731 N 172.755 -5.07991 4.71081 0
M  V30 1732 N 174.548 -4.23804 3.69251 0
M  V30 1733 H 166.699 -0.754348 1.98553 0
M  V30 1734 H 168.962 -0.3944 0.862063 0
M  V30 1735 H 168.668 -1.98027 2.90651 0
M  V30 1736 H 168.542 -3.32332 1.78424 0
M  V30 1737 H 170.929 -2.79584 0.944286 0
M  V30 1738 H 171.01 -1.45926 2.10093 0
M  V30 1739 H 170.654 -3.11835 4.00901 0
M  V30 1740 H 170.584 -4.44558 2.82269 0
M  V30 1741 H 173.075 -2.95567 2.35475 0
M  V30 1742 H 173.388 -5.63487 5.28869 0
M  V30 1743 H 171.733 -5.07235 4.75119 0
M  V30 1744 H 174.924 -3.60806 2.98222 0
M  V30 1745 H 175.097 -4.82995 4.31995 0
M  V30 1746 N 168.503 -0.877838 -1.30888 0
M  V30 1747 C 169.45 -0.337538 -2.28318 0
M  V30 1748 C 170.42 0.568346 -1.56074 0
M  V30 1749 O 171.605 0.498298 -1.84178 0
M  V30 1750 C 168.745 0.448142 -3.42178 0
M  V30 1751 C 167.858 -0.48615 -4.29256 0
M  V30 1752 C 166.993 0.314427 -5.30269 0
M  V30 1753 C 166.032 -0.615791 -6.08995 0
M  V30 1754 N 165.169 0.14902 -7.01942 0
M  V30 1755 H 170.009 -1.17356 -2.73919 0
M  V30 1756 H 167.546 -0.590094 -1.34745 0
M  V30 1757 H 169.504 0.919517 -4.06941 0
M  V30 1758 H 168.134 1.24879 -2.97666 0
M  V30 1759 H 167.186 -1.076 -3.64865 0
M  V30 1760 H 168.498 -1.19909 -4.84173 0
M  V30 1761 H 167.652 0.847969 -6.00745 0
M  V30 1762 H 166.391 1.06062 -4.76027 0
M  V30 1763 H 165.396 -1.16102 -5.37401 0
M  V30 1764 H 166.621 -1.36097 -6.65323 0
M  V30 1765 H 164.567 0.877884 -6.50099 0
M  V30 1766 H 164.484 -0.504433 -7.54315 0
M  V30 1767 H 165.752 0.663537 -7.76671 0
M  V30 1768 N 169.982 1.44106 -0.638065 0
M  V30 1769 C 170.912 2.33448 0.0494287 0
M  V30 1770 C 171.893 1.48606 0.827672 0
M  V30 1771 O 173.078 1.77308 0.792173 0
M  V30 1772 C 170.208 3.31771 1.02691 0
M  V30 1773 C 169.162 4.26485 0.359823 0
M  V30 1774 C 168.488 5.14729 1.44769 0
M  V30 1775 C 169.788 5.17056 -0.738296 0
M  V30 1776 H 171.482 2.91183 -0.696636 0
M  V30 1777 H 169.028 1.40014 -0.336456 0
M  V30 1778 H 170.981 3.93161 1.51666 0
M  V30 1779 H 169.705 2.7226 1.80395 0
M  V30 1780 H 168.364 3.66437 -0.10934 0
M  V30 1781 H 168.012 4.51566 2.21578 0
M  V30 1782 H 167.712 5.78913 1.00668 0
M  V30 1783 H 169.236 5.78991 1.93911 0
M  V30 1784 H 170.65 5.72342 -0.331354 0
M  V30 1785 H 169.047 5.89879 -1.10286 0
M  V30 1786 H 170.117 4.57652 -1.60258 0
M  V30 1787 N 171.46 0.379036 1.52974 0
M  V30 1788 C 172.708 -0.206014 2.01047 0
M  V30 1789 C 173.029 -1.48175 1.26765 0
M  V30 1790 O 172.299 -1.92085 0.384743 0
M  V30 1791 H 170.879 -0.0791184 0.742798 0
M  V30 1792 H 173.541 0.508366 1.88153 0
M  V30 1793 H 172.637 -0.423501 3.09213 0
M  V30 1794 N 172.938 -1.57226 0.108567 0
M  V30 1795 C 174.184 -1.95919 -0.546564 0
M  V30 1796 C 174.539 -0.990417 -1.6495 0
M  V30 1797 O 173.832 -0.0186593 -1.91591 0
M  V30 1798 C 174.026 -3.38911 -1.13463 0
M  V30 1799 C 173.855 -4.4961 -0.0901926 0
M  V30 1800 C 172.625 -5.04168 0.338008 0
M  V30 1801 C 174.823 -5.09693 0.686808 0
M  V30 1802 N 172.805 -5.98434 1.36931 0
M  V30 1803 C 174.176 -5.99804 1.56958 0
M  V30 1804 C 176.231 -4.92388 0.738846 0
M  V30 1805 C 174.934 -6.74463 2.49983 0
M  V30 1806 C 176.96 -5.67719 1.65676 0
M  V30 1807 C 176.322 -6.57507 2.52713 0
M  V30 1808 H 172.421 -0.763312 -0.169936 0
M  V30 1809 H 175.005 -1.93728 0.194264 0
M  V30 1810 H 173.176 -3.41769 -1.84522 0
M  V30 1811 H 174.908 -3.64752 -1.75322 0
M  V30 1812 H 171.663 -4.73571 -0.0523673 0
M  V30 1813 H 172.087 -6.5027 1.88356 0
M  V30 1814 H 176.729 -4.22724 0.080084 0
M  V30 1815 H 174.447 -7.4338 3.16878 0
M  V30 1816 H 178.033 -5.56338 1.70233 0
M  V30 1817 H 176.913 -7.14778 3.22586 0
M  V30 1818 N 174.416 0.165178 -1.56732 0
M  V30 1819 C 175.662 0.882112 -1.82611 0
M  V30 1820 C 175.995 1.81628 -0.687378 0
M  V30 1821 O 175.27 1.92009 0.310267 0
M  V30 1822 C 175.553 1.67245 -3.18906 0
M  V30 1823 C 175.406 0.760987 -4.43316 0
M  V30 1824 C 176.725 2.63884 -3.52212 0
M  V30 1825 H 173.844 0.319242 -0.664269 0
M  V30 1826 H 176.486 0.148052 -1.89422 0
M  V30 1827 H 174.636 2.29824 -3.1323 0
M  V30 1828 H 176.308 0.147596 -4.61064 0
M  V30 1829 H 174.551 0.0694102 -4.33744 0
M  V30 1830 H 175.222 1.34962 -5.35247 0
M  V30 1831 H 177.698 2.11429 -3.58381 0
M  V30 1832 H 176.574 3.16245 -4.48643 0
M  V30 1833 H 176.835 3.44377 -2.77231 0
M  V30 1834 N 175.894 1.51508 0.433938 0
M  V30 1835 C 176.824 1.76016 1.53429 0
M  V30 1836 C 177.805 0.610112 1.58782 0
M  V30 1837 O 178.99 0.853177 1.74455 0
M  V30 1838 C 176.12 1.88831 2.9148 0
M  V30 1839 C 175.074 3.04288 3.00987 0
M  V30 1840 C 174.4 3.0229 4.4105 0
M  V30 1841 C 175.7 4.44193 2.74754 0
M  V30 1842 H 177.394 2.68152 1.33171 0
M  V30 1843 H 174.94 1.29035 0.639214 0
M  V30 1844 H 176.893 2.04559 3.6842 0
M  V30 1845 H 175.617 0.933455 3.12976 0
M  V30 1846 H 174.276 2.8827 2.26486 0
M  V30 1847 H 173.924 2.04576 4.59519 0
M  V30 1848 H 173.624 3.79822 4.4834 0
M  V30 1849 H 175.148 3.20116 5.1996 0
M  V30 1850 H 176.562 4.60544 3.41426 0
M  V30 1851 H 174.959 5.23457 2.9345 0
M  V30 1852 H 176.029 4.53996 1.70339 0
M  V30 1853 N 177.372 -0.689602 1.41712 0
M  V30 1854 C 178.597 -1.48329 1.44959 0
M  V30 1855 C 179.022 -1.8801 0.0581283 0
M  V30 1856 O 178.38 -1.55026 -0.940035 0
M  V30 1857 C 178.428 -2.71835 2.36935 0
M  V30 1858 O 177.532 -3.69549 1.8305 0
M  V30 1859 H 176.873 -0.446199 0.491734 0
M  V30 1860 H 179.403 -0.847127 1.86239 0
M  V30 1861 H 179.413 -3.20076 2.53013 0
M  V30 1862 H 178.088 -2.42291 3.38035 0
M  V30 1863 H 176.665 -3.2851 1.76452 0
M  V30 1864 N 178.85 -1.27639 -0.924453 0
M  V30 1865 C 180.075 -1.17101 -1.71179 0
M  V30 1866 C 180.5 0.268134 -1.86179 0
M  V30 1867 O 179.858 1.19415 -1.36418 0
M  V30 1868 C 179.906 -1.86313 -3.08739 0
M  V30 1869 O 179.01 -1.16331 -3.95652 0
M  V30 1870 H 178.351 -0.407091 -0.524569 0
M  V30 1871 H 180.881 -1.68767 -1.15666 0
M  V30 1872 H 180.891 -1.938 -3.59034 0
M  V30 1873 H 179.566 -2.91001 -2.97138 0
M  V30 1874 H 178.143 -1.16935 -3.54091 0
M  V30 1875 N 180.328 1.1314 -1.09713 0
M  V30 1876 C 181.275 2.18642 -0.739196 0
M  V30 1877 C 182.245 1.63706 0.280978 0
M  V30 1878 O 183.43 1.90111 0.161946 0
M  V30 1879 C 180.57 3.44685 -0.169102 0
M  V30 1880 C 179.683 4.13711 -1.24367 0
M  V30 1881 C 178.818 5.27379 -0.636019 0
M  V30 1882 C 177.857 5.88259 -1.69169 0
M  V30 1883 N 176.994 6.93352 -1.10485 0
M  V30 1884 H 181.834 2.48607 -1.64312 0
M  V30 1885 H 179.371 1.22066 -0.820875 0
M  V30 1886 H 181.329 4.16815 0.179256 0
M  V30 1887 H 179.959 3.15161 0.698079 0
M  V30 1888 H 179.011 3.39835 -1.70927 0
M  V30 1889 H 180.323 4.55037 -2.04311 0
M  V30 1890 H 179.477 6.06238 -0.236677 0
M  V30 1891 H 178.216 4.8731 0.194928 0
M  V30 1892 H 177.221 5.08092 -2.10055 0
M  V30 1893 H 178.446 6.30399 -2.52536 0
M  V30 1894 H 176.392 6.55335 -0.295234 0
M  V30 1895 H 176.309 7.33236 -1.84121 0
M  V30 1896 H 177.577 7.76057 -0.73181 0
M  V30 1897 N 181.806 0.884767 1.30421 0
M  V30 1898 C 182.754 0.340869 2.30089 0
M  V30 1899 C 183.748 -0.55201 1.60154 0
M  V30 1900 O 184.954 -0.436467 1.74628 0
M  V30 1901 H 181.329 0.0915739 0.746404 0
M  V30 1902 H 183.3 1.19513 2.73421 0
M  V30 1903 C 182.049 -0.429779 3.45034 0
M  V30 1904 H 181.372 0.248024 3.9903 0
M  V30 1905 H 182.812 -0.775445 4.16849 0
M  V30 1906 C 181.271 -1.62677 2.95022 0
M  V30 1907 O 181.801 -2.72614 2.95033 0
M  V30 1908 N 180.007 -1.46387 2.51036 0
M  V30 1909 H 179.554 -0.569506 2.51226 0
M  V30 1910 H 179.512 -2.26612 2.17932 0
M  V30 1911 N 183.284 -1.43765 0.645699 0
M  V30 1912 C 184.532 -2.01499 0.155731 0
M  V30 1913 C 184.853 -1.51151 -1.232 0
M  V30 1914 O 184.123 -0.721044 -1.82148 0
M  V30 1915 H 182.703 -0.745003 0.0545817 0
M  V30 1916 H 185.365 -1.76075 0.835677 0
M  V30 1917 H 184.461 -3.1181 0.134577 0
M  V30 1918 N 184.763 -0.387143 -1.52771 0
M  V30 1919 C 185.991 0.195869 -2.05971 0
M  V30 1920 C 186.406 1.40691 -1.25903 0
M  V30 1921 O 185.763 1.79931 -0.305134 0
M  V30 1922 C 185.814 0.56812 -3.57008 0
M  V30 1923 O 185.535 -0.594803 -4.34043 0
M  V30 1924 C 187.036 1.20723 -4.26545 0
M  V30 1925 H 184.256 0.0300578 -0.670326 0
M  V30 1926 H 186.8 -0.551749 -1.96916 0
M  V30 1927 H 184.955 1.26564 -3.66143 0
M  V30 1928 H 185.369 -0.289322 -5.23701 0
M  V30 1929 H 186.843 1.41807 -5.33474 0
M  V30 1930 H 187.32 2.17395 -3.81623 0
M  V30 1931 H 187.926 0.550535 -4.21722 0
M  V30 1932 N 186.241 1.57166 -0.116904 0
M  V30 1933 C 187.657 1.5779 0.239693 0
M  V30 1934 C 187.857 1.1295 1.66867 0
M  V30 1935 O 186.913 0.81592 2.38954 0
M  V30 1936 C 188.226 3.00699 0.00828202 0
M  V30 1937 C 189.774 3.12912 0.0743438 0
M  V30 1938 C 190.249 4.57817 -0.129348 0
M  V30 1939 N 191.74 4.63139 -0.075247 0
M  V30 1940 C 192.475 5.73023 -0.207788 0
M  V30 1941 N 191.971 6.91665 -0.396382 0
M  V30 1942 N 193.764 5.61906 -0.14751 0
M  V30 1943 H 185.915 1.84615 -1.05029 0
M  V30 1944 H 188.178 0.85311 -0.41341 0
M  V30 1945 H 187.884 3.37784 -0.979531 0
M  V30 1946 H 187.758 3.69848 0.741077 0
M  V30 1947 H 190.145 2.75686 1.05268 0
M  V30 1948 H 190.226 2.4631 -0.690297 0
M  V30 1949 H 189.87 4.95742 -1.10465 0
M  V30 1950 H 189.8 5.22507 0.655253 0
M  V30 1951 H 192.291 3.7784 0.0670898 0
M  V30 1952 H 192.604 7.71255 -0.488437 0
M  V30 1953 H 190.949 6.93654 -0.432329 0
M  V30 1954 H 194.14 4.681 -0.00115036 0
M  V30 1955 H 194.313 6.47501 -0.254247 0
M  V30 1956 N 187.719 -0.156864 1.56817 0
M  V30 1957 C 188.667 -1.21319 1.98455 0
M  V30 1958 C 189.661 -1.45025 0.875444 0
M  V30 1959 O 190.867 -1.45435 1.0606 0
M  V30 1960 H 187.242 -0.408142 0.631605 0
M  V30 1961 H 189.213 -0.835244 2.86472 0
M  V30 1962 C 187.962 -2.54148 2.37285 0
M  V30 1963 H 187.285 -2.36733 3.22176 0
M  V30 1964 H 188.725 -3.26712 2.70251 0
M  V30 1965 C 187.184 -3.13967 1.22173 0
M  V30 1966 O 187.714 -3.98357 0.517149 0
M  V30 1967 N 185.92 -2.7327 0.988536 0
M  V30 1968 H 185.467 -2.04744 1.56326 0
M  V30 1969 H 185.425 -3.13628 0.220209 0
M  V30 1970 N 189.197 -1.51736 -0.425897 0
M  V30 1971 C 190.107 -1.76738 -1.54275 0
M  V30 1972 C 191.123 -0.65211 -1.61318 0
M  V30 1973 O 192.299 -0.935654 -1.78346 0
M  V30 1974 C 189.364 -1.89755 -2.90162 0
M  V30 1975 C 188.425 -3.13633 -2.93143 0
M  V30 1976 C 187.658 -3.2602 -4.22548 0
M  V30 1977 O 187.881 -2.44067 -5.15546 0
M  V30 1978 O 186.815 -4.19071 -4.32046 0
M  V30 1979 H 190.641 -2.71502 -1.36089 0
M  V30 1980 H 188.226 -1.36376 -0.610069 0
M  V30 1981 H 190.108 -2.00236 -3.70788 0
M  V30 1982 H 188.783 -0.981785 -3.08452 0
M  V30 1983 H 187.69 -3.08622 -2.11431 0
M  V30 1984 H 189.023 -4.04936 -2.798 0
M  V30 1985 N 190.675 0.682077 -1.42076 0
M  V30 1986 C 191.622 1.79578 -1.44984 0
M  V30 1987 C 192.592 1.6332 -0.302614 0
M  V30 1988 O 193.777 1.83978 -0.505633 0
M  V30 1989 C 190.917 3.1756 -1.35091 0
M  V30 1990 C 190.03 3.45156 -2.59791 0
M  V30 1991 C 189.165 4.72826 -2.42093 0
M  V30 1992 C 188.204 4.93433 -3.62202 0
M  V30 1993 N 187.341 6.12338 -3.43491 0
M  V30 1994 H 192.181 1.76427 -2.40161 0
M  V30 1995 H 189.718 0.861376 -1.19242 0
M  V30 1996 H 191.676 3.97287 -1.27354 0
M  V30 1997 H 190.306 3.19854 -0.435133 0
M  V30 1998 H 189.358 2.59736 -2.77923 0
M  V30 1999 H 190.67 3.5628 -3.49094 0
M  V30 2000 H 189.824 5.60631 -2.319 0
M  V30 2001 H 188.563 4.63973 -1.50268 0
M  V30 2002 H 187.568 4.04073 -3.72834 0
M  V30 2003 H 188.793 5.04136 -4.54998 0
M  V30 2004 H 186.739 6.04672 -2.54377 0
M  V30 2005 H 186.656 6.2429 -4.26377 0
M  V30 2006 H 187.924 7.02841 -3.37097 0
M  V30 2007 N 192.153 1.28127 0.917671 0
M  V30 2008 C 193.378 1.18007 1.70555 0
M  V30 2009 C 193.803 -0.258257 1.86319 0
M  V30 2010 O 193.161 -1.1869 1.37049 0
M  V30 2011 C 193.209 1.87948 3.07746 0
M  V30 2012 O 192.313 1.18427 3.9503 0
M  V30 2013 H 191.654 0.409867 0.522403 0
M  V30 2014 H 194.184 1.69379 1.1477 0
M  V30 2015 H 194.194 1.95701 3.58001 0
M  V30 2016 H 192.869 2.92573 2.95591 0
M  V30 2017 H 191.446 1.18811 3.53466 0
M  V30 2018 N 193.631 -1.12557 1.10312 0
M  V30 2019 C 194.563 -2.17971 0.708625 0
M  V30 2020 C 195.576 -1.60806 -0.254027 0
M  V30 2021 O 196.765 -1.78458 -0.0386891 0
M  V30 2022 C 193.865 -3.38891 0.0248198 0
M  V30 2023 C 193.038 -4.25548 1.01132 0
M  V30 2024 C 192.097 -5.24972 0.35924 0
M  V30 2025 O 191.123 -5.60174 1.00965 0
M  V30 2026 N 192.325 -5.73747 -0.882847 0
M  V30 2027 H 195.09 -2.52427 1.61557 0
M  V30 2028 H 192.651 -1.27967 0.991771 0
M  V30 2029 H 194.643 -4.02485 -0.422852 0
M  V30 2030 H 193.213 -3.02596 -0.784514 0
M  V30 2031 H 192.433 -3.58589 1.6373 0
M  V30 2032 H 193.721 -4.80294 1.67914 0
M  V30 2033 H 193.119 -5.4731 -1.43065 0
M  V30 2034 H 191.676 -6.39234 -1.27369 0
M  V30 2035 N 195.109 -0.891671 -1.2995 0
M  V30 2036 C 196.041 -0.320695 -2.26945 0
M  V30 2037 C 197.054 0.528497 -1.53983 0
M  V30 2038 O 198.243 0.346959 -1.75096 0
M  V30 2039 C 195.343 0.562066 -3.34207 0
M  V30 2040 C 194.516 -0.259576 -4.36629 0
M  V30 2041 C 193.575 0.554739 -5.23268 0
M  V30 2042 O 192.601 -0.0249311 -5.69195 0
M  V30 2043 N 193.803 1.8625 -5.4981 0
M  V30 2044 H 196.568 -1.15432 -2.76578 0
M  V30 2045 H 194.129 -0.755336 -1.432 0
M  V30 2046 H 196.121 1.11304 -3.89093 0
M  V30 2047 H 194.691 1.29637 -2.84452 0
M  V30 2048 H 193.911 -0.991986 -3.81514 0
M  V30 2049 H 195.199 -0.822564 -5.02107 0
M  V30 2050 H 194.597 2.35628 -5.14292 0
M  V30 2051 H 193.154 2.36078 -6.07545 0
M  V30 2052 N 196.587 1.43421 -0.653314 0
M  V30 2053 C 197.833 2.02111 -0.166992 0
M  V30 2054 C 198.166 1.51423 1.21592 0
M  V30 2055 O 197.441 0.707389 1.8118 0
M  V30 2056 C 197.724 3.5966 -0.177948 0
M  V30 2057 C 197.577 4.20579 -1.59478 0
M  V30 2058 C 198.896 4.37413 0.4856 0
M  V30 2059 H 196.015 0.734374 -0.0621557 0
M  V30 2060 H 198.657 1.70717 -0.834016 0
M  V30 2061 H 196.807 3.86537 0.390032 0
M  V30 2062 H 198.479 4.04732 -2.21336 0
M  V30 2063 H 196.722 3.77226 -2.14204 0
M  V30 2064 H 197.393 5.29665 -1.5543 0
M  V30 2065 H 199.869 4.161 0.00234528 0
M  V30 2066 H 198.745 5.47075 0.447207 0
M  V30 2067 H 199.006 4.13672 1.55974 0
M  V30 2068 N 198.065 0.39524 1.52563 0
M  V30 2069 C 199.012 -0.437036 2.26624 0
M  V30 2070 C 199.982 -1.05281 1.28472 0
M  V30 2071 O 201.167 -1.07971 1.57311 0
M  V30 2072 C 198.307 -1.55524 3.08069 0
M  V30 2073 C 197.42 -0.961745 4.21158 0
M  V30 2074 C 196.555 -2.05149 4.89987 0
M  V30 2075 C 195.594 -1.4342 5.95061 0
M  V30 2076 N 194.731 -2.46351 6.57462 0
M  V30 2077 H 199.571 0.200976 2.97322 0
M  V30 2078 H 197.108 0.110944 1.46681 0
M  V30 2079 H 199.066 -2.21437 3.53584 0
M  V30 2080 H 197.696 -2.16348 2.3957 0
M  V30 2081 H 196.748 -0.192048 3.79915 0
M  V30 2082 H 198.06 -0.470701 4.96574 0
M  V30 2083 H 197.214 -2.78819 5.38837 0
M  V30 2084 H 195.953 -2.57615 4.14109 0
M  V30 2085 H 194.958 -0.682774 5.45544 0
M  V30 2086 H 196.183 -0.917416 6.72875 0
M  V30 2087 H 194.129 -2.97975 5.8442 0
M  V30 2088 H 194.046 -2.02019 7.28508 0
M  V30 2089 H 195.314 -3.19633 7.10954 0
M  V30 2090 N 199.544 -1.57102 0.125237 0
M  V30 2091 C 200.494 -2.12202 -0.833936 0
M  V30 2092 C 201.478 -1.04433 -1.22403 0
M  V30 2093 O 202.67 -1.30655 -1.19408 0
M  V30 2094 C 199.799 -2.72994 -2.08157 0
M  V30 2095 C 198.885 -3.87852 -1.71556 0
M  V30 2096 N 199.276 -4.9464 -1.05662 0
M  V30 2097 C 197.574 -3.98153 -2.00973 0
M  V30 2098 C 198.275 -5.74953 -0.883376 0
M  V30 2099 N 197.251 -5.24985 -1.41036 0
M  V30 2100 H 201.053 -2.92141 -0.321035 0
M  V30 2101 H 198.567 -1.62217 -0.0770315 0
M  V30 2102 H 200.564 -3.10816 -2.77847 0
M  V30 2103 H 199.224 -1.9452 -2.59985 0
M  V30 2104 H 200.235 -5.12872 -0.719878 0
M  V30 2105 H 196.912 -3.30728 -2.54804 0
M  V30 2106 H 198.302 -6.70904 -0.365675 0
M  V30 2107 N 201.022 0.148545 -1.56898 0
M  V30 2108 C 201.985 1.16736 -1.97244 0
M  V30 2109 C 202.985 1.35947 -0.858777 0
M  V30 2110 O 204.175 1.32966 -1.12542 0
M  V30 2111 C 201.307 2.52798 -2.28705 0
M  V30 2112 H 202.5 0.821279 -2.88435 0
M  V30 2113 H 200.053 0.391831 -1.51309 0
M  V30 2114 H 200.788 2.92381 -1.403 0
M  V30 2115 H 200.573 2.40216 -3.09901 0
M  V30 2116 H 202.063 3.26179 -2.60762 0
M  V30 2117 N 202.5 1.5196 0.417844 0
M  V30 2118 C 203.777 1.56146 1.17803 0
M  V30 2119 C 204.157 0.337275 2.08388 0
M  V30 2120 O 203.505 -0.676447 2.18258 0
M  V30 2121 C 203.715 2.88566 1.96293 0
M  V30 2122 C 205.063 3.41244 2.52662 0
M  V30 2123 O 206.087 2.90247 2.06483 0
M  V30 2124 O 204.946 4.30273 3.36938 0
M  V30 2125 H 202.04 0.628598 0.537395 0
M  V30 2126 H 204.586 1.64283 0.425331 0
M  V30 2127 H 203.358 3.69116 1.2988 0
M  V30 2128 H 202.981 2.83681 2.78587 0
M  V30 2129 N 203.978 -0.674533 1.42435 0
M  V30 2130 C 204.888 -1.81751 1.48337 0
M  V30 2131 C 205.904 -1.69975 0.372099 0
M  V30 2132 O 207.08 -1.91521 0.62304 0
M  V30 2133 C 204.145 -3.17895 1.38361 0
M  V30 2134 C 203.206 -3.41625 2.59982 0
M  V30 2135 C 202.439 -4.71274 2.50473 0
M  V30 2136 O 202.662 -5.49197 1.54075 0
M  V30 2137 O 201.596 -4.96254 3.4061 0
M  V30 2138 H 205.422 -1.79728 2.44809 0
M  V30 2139 H 203.007 -0.830312 1.24202 0
M  V30 2140 H 204.889 -3.99136 1.35161 0
M  V30 2141 H 203.564 -3.20555 0.450144 0
M  V30 2142 H 202.471 -2.60231 2.68757 0
M  V30 2143 H 203.804 -3.43796 3.52229 0
M  V30 2144 N 205.456 -1.28612 -0.910864 0
M  V30 2145 C 206.702 -1.16106 -1.66274 0
M  V30 2146 C 207.035 0.289113 -1.92036 0
M  V30 2147 O 206.31 1.21 -1.52281 0
M  V30 2148 C 206.593 -1.96309 -3.01885 0
M  V30 2149 C 206.446 -3.49405 -2.8326 0
M  V30 2150 C 207.765 -1.78076 -4.02463 0
M  V30 2151 H 204.884 -0.423152 -0.603417 0
M  V30 2152 H 207.526 -1.57961 -1.05586 0
M  V30 2153 H 205.676 -1.60742 -3.53687 0
M  V30 2154 H 207.348 -3.94894 -2.38446 0
M  V30 2155 H 205.591 -3.74893 -2.18261 0
M  V30 2156 H 206.262 -4.00784 -3.79574 0
M  V30 2157 H 208.738 -2.0912 -3.59733 0
M  V30 2158 H 207.614 -2.36561 -4.95308 0
M  V30 2159 H 207.875 -0.733008 -4.35981 0
M  V30 2160 N 206.934 1.1197 -1.10907 0
M  V30 2161 C 207.864 2.19928 -0.784473 0
M  V30 2162 C 208.845 1.6833 0.244726 0
M  V30 2163 O 210.03 1.93892 0.109418 0
M  V30 2164 C 207.16 3.46597 -0.220827 0
M  V30 2165 C 206.114 4.11376 -1.18127 0
M  V30 2166 C 205.44 5.32554 -0.478594 0
M  V30 2167 C 206.74 4.56945 -2.52979 0
M  V30 2168 H 208.434 2.47337 -1.68715 0
M  V30 2169 H 205.98 1.18879 -0.812642 0
M  V30 2170 H 207.933 4.21396 0.0184278 0
M  V30 2171 H 206.657 3.1863 0.717113 0
M  V30 2172 H 205.316 3.38564 -1.40606 0
M  V30 2173 H 204.964 5.00856 0.463976 0
M  V30 2174 H 204.664 5.76844 -1.11912 0
M  V30 2175 H 206.188 6.10096 -0.248 0
M  V30 2176 H 207.602 5.23093 -2.3462 0
M  V30 2177 H 205.999 5.1203 -3.12962 0
M  V30 2178 H 207.069 3.70676 -3.12614 0
M  V30 2179 N 208.412 0.89855 1.29475 0
M  V30 2180 C 209.659 0.523882 1.95606 0
M  V30 2181 C 209.987 -0.929608 1.70847 0
M  V30 2182 O 209.242 -1.67401 1.01367 0
M  V30 2183 C 209.541 0.761398 3.49195 0
M  V30 2184 C 209.207 2.19207 3.94029 0
M  V30 2185 C 207.869 2.58326 4.05982 0
M  V30 2186 C 210.221 3.12379 4.17216 0
M  V30 2187 C 207.549 3.898 4.38489 0
M  V30 2188 C 209.901 4.43401 4.51197 0
M  V30 2189 C 208.565 4.82394 4.61359 0
M  V30 2190 H 207.835 0.191702 0.715773 0
M  V30 2191 H 210.482 1.13699 1.54094 0
M  V30 2192 H 208.787 0.0653622 3.91745 0
M  V30 2193 H 210.484 0.450904 3.98457 0
M  V30 2194 H 207.074 1.87846 3.85242 0
M  V30 2195 H 211.258 2.83371 4.07449 0
M  V30 2196 H 206.514 4.19734 4.44559 0
M  V30 2197 H 210.688 5.15623 4.68087 0
M  V30 2198 H 208.315 5.84306 4.86303 0
M  V30 2199 N 209.89 -1.43072 0.660911 0
M  V30 2200 C 210.8 -2.34585 -0.0264163 0
M  V30 2201 C 211.816 -1.54316 -0.803898 0
M  V30 2202 O 212.992 -1.86939 -0.749391 0
M  V30 2203 C 210.057 -3.32689 -0.975639 0
M  V30 2204 C 209.118 -4.2886 -0.194236 0
M  V30 2205 C 208.351 -5.22278 -1.09825 0
M  V30 2206 O 208.574 -5.20299 -2.33763 0
M  V30 2207 O 207.508 -5.99228 -0.566513 0
M  V30 2208 H 211.334 -2.94869 0.727034 0
M  V30 2209 H 208.919 -1.43342 0.42111 0
M  V30 2210 H 210.801 -3.92995 -1.52094 0
M  V30 2211 H 209.476 -2.74898 -1.70918 0
M  V30 2212 H 208.383 -3.72011 0.394835 0
M  V30 2213 H 209.716 -4.89655 0.499899 0
M  V30 2214 N 211.368 -0.403325 -1.52352 0
M  V30 2215 C 212.616 0.174003 -2.0135 0
M  V30 2216 C 212.937 1.46139 -1.29106 0
M  V30 2217 O 212.207 1.91448 -0.415253 0
M  V30 2218 H 210.787 0.0672911 -0.743963 0
M  V30 2219 H 213.449 -0.538235 -1.87321 0
M  V30 2220 H 212.545 0.374254 -3.09848 0
M  V30 2221 N 212.846 1.57033 -0.133567 0
M  V30 2222 C 213.793 2.16074 0.811208 0
M  V30 2223 C 214.763 1.08979 1.2535 0
M  V30 2224 O 215.948 1.36958 1.32843 0
M  V30 2225 C 213.088 2.77595 2.05024 0
M  V30 2226 C 212.201 3.99042 1.65498 0
M  V30 2227 C 211.336 4.48603 2.84479 0
M  V30 2228 C 210.375 5.62547 2.41262 0
M  V30 2229 N 209.512 6.06787 3.53206 0
M  V30 2230 H 214.352 2.96477 0.300906 0
M  V30 2231 H 211.889 1.46462 0.136822 0
M  V30 2232 H 213.847 3.11402 2.77642 0
M  V30 2233 H 212.477 1.99859 2.53488 0
M  V30 2234 H 211.529 3.71302 0.826981 0
M  V30 2235 H 212.841 4.81629 1.29748 0
M  V30 2236 H 211.995 4.84395 3.65303 0
M  V30 2237 H 210.734 3.64995 3.23465 0
M  V30 2238 H 209.739 5.26345 1.58874 0
M  V30 2239 H 210.964 6.47931 2.03377 0
M  V30 2240 H 208.91 5.26117 3.91838 0
M  V30 2241 H 208.827 6.84266 3.21427 0
M  V30 2242 H 210.095 6.4722 4.34427 0
M  V30 2243 N 214.325 -0.140222 1.56975 0
M  V30 2244 C 215.573 -0.850005 1.83356 0
M  V30 2245 C 215.894 -1.81399 0.71551 0
M  V30 2246 O 215.164 -1.94136 -0.262294 0
M  V30 2247 H 213.744 -0.316886 0.676456 0
M  V30 2248 H 216.406 -0.132608 1.94448 0
M  V30 2249 H 215.502 -1.40814 2.78528 0
M  V30 2250 N 215.803 -1.52179 -0.40978 0
M  V30 2251 C 217.051 -1.65878 -1.15451 0
M  V30 2252 C 217.372 -0.390771 -1.91044 0
M  V30 2253 O 216.642 0.594323 -1.86667 0
M  V30 2254 H 215.222 -0.611405 -0.429177 0
M  V30 2255 H 217.884 -1.89219 -0.467134 0
M  V30 2256 H 216.98 -2.49954 -1.86894 0
M  V30 2257 N 217.281 0.66697 -1.42791 0
M  V30 2258 C 218.527 1.4291 -1.43891 0
M  V30 2259 C 218.86 1.94114 -0.0578972 0
M  V30 2260 O 218.135 1.71414 0.91911 0
M  V30 2261 C 218.418 2.62049 -2.46987 0
M  V30 2262 C 218.271 2.16426 -3.94309 0
M  V30 2263 C 219.59 3.64266 -2.46978 0
M  V30 2264 H 216.709 0.518306 -0.523954 0
M  V30 2265 H 219.351 0.757321 -1.74255 0
M  V30 2266 H 217.501 3.19361 -2.21225 0
M  V30 2267 H 219.173 1.64221 -4.31079 0
M  V30 2268 H 217.416 1.47925 -4.078 0
M  V30 2269 H 218.087 3.02038 -4.62036 0
M  V30 2270 H 220.563 3.16686 -2.69906 0
M  V30 2271 H 219.439 4.45196 -3.21079 0
M  V30 2272 H 219.7 4.15927 -1.49857 0
M  V30 2273 N 218.759 1.29093 0.90403 0
M  V30 2274 C 219.691 1.09658 2.01266 0
M  V30 2275 C 220.704 0.0453729 1.62737 0
M  V30 2276 O 221.893 0.289446 1.76138 0
M  V30 2277 C 218.993 0.646278 3.32681 0
M  V30 2278 C 218.166 1.77505 3.99763 0
M  V30 2279 C 217.225 1.31649 5.09465 0
M  V30 2280 O 216.251 2.02045 5.32134 0
M  V30 2281 N 217.453 0.184997 5.80205 0
M  V30 2282 H 220.218 2.05135 2.18494 0
M  V30 2283 H 217.779 1.20975 1.07594 0
M  V30 2284 H 219.771 0.322906 4.0341 0
M  V30 2285 H 218.341 -0.215916 3.11853 0
M  V30 2286 H 217.561 2.26752 3.22455 0
M  V30 2287 H 218.849 2.53198 4.41325 0
M  V30 2288 H 218.247 -0.402021 5.6427 0
M  V30 2289 H 216.804 -0.0790358 6.51752 0
M  V30 2290 N 220.237 -1.11381 1.11499 0
M  V30 2291 C 221.483 -1.83403 0.865512 0
M  V30 2292 C 221.816 -1.84459 -0.607329 0
M  V30 2293 O 221.091 -1.29811 -1.44842 0
M  V30 2294 C 221.374 -3.30552 1.42855 0
M  V30 2295 C 221.227 -3.37886 2.96906 0
M  V30 2296 C 222.546 -4.26643 1.08 0
M  V30 2297 H 219.665 -0.665879 0.31587 0
M  V30 2298 H 222.307 -1.30601 1.37998 0
M  V30 2299 H 220.457 -3.75648 0.990985 0
M  V30 2300 H 222.129 -3.01343 3.49271 0
M  V30 2301 H 220.372 -2.78088 3.32941 0
M  V30 2302 H 221.043 -4.41458 3.31389 0
M  V30 2303 H 223.519 -3.89729 1.45775 0
M  V30 2304 H 222.395 -5.27986 1.50072 0
M  V30 2305 H 222.656 -4.42099 -0.00915037 0
M  V30 2306 N 221.715 -0.905404 -1.28997 0
M  V30 2307 C 222.943 -0.549846 -1.9946 0
M  V30 2308 C 223.358 0.866834 -1.67724 0
M  V30 2309 O 222.715 1.57298 -0.925404 0
M  V30 2310 C 222.766 -0.739387 -3.53858 0
M  V30 2311 O 222.487 -2.10031 -3.84472 0
M  V30 2312 C 223.988 -0.389541 -4.41585 0
M  V30 2313 H 221.208 -0.210429 -0.637151 0
M  V30 2314 H 223.752 -1.21632 -1.64396 0
M  V30 2315 H 221.907 -0.120023 -3.87214 0
M  V30 2316 H 222.321 -2.13385 -4.79132 0
M  V30 2317 H 223.795 -0.572972 -5.49018 0
M  V30 2318 H 224.272 0.673756 -4.34001 0
M  V30 2319 H 224.878 -0.986089 -4.1371 0
M  V30 2320 N 223.193 1.4272 -0.668489 0
M  V30 2321 C 224.418 2.06484 -0.194758 0
M  V30 2322 C 224.843 1.49862 1.13679 0
M  V30 2323 O 224.201 0.614582 1.70565 0
M  V30 2324 C 224.249 3.60353 -0.133546 0
M  V30 2325 O 223.353 4.02464 0.899806 0
M  V30 2326 H 222.694 0.656137 -0.10188 0
M  V30 2327 H 225.224 1.82964 -0.915722 0
M  V30 2328 H 225.234 4.07976 0.0447041 0
M  V30 2329 H 223.909 4.00938 -1.1055 0
M  V30 2330 H 222.486 3.66402 0.693109 0
M  V30 2331 N 224.671 0.411399 1.52136 0
M  V30 2332 C 225.899 -0.163076 2.06256 0
M  V30 2333 C 226.314 -1.3867 1.28125 0
M  V30 2334 O 225.671 -1.79423 0.333721 0
M  V30 2335 C 225.722 -0.511252 3.57867 0
M  V30 2336 O 225.443 0.66378 4.33042 0
M  V30 2337 C 226.944 -1.13921 4.28412 0
M  V30 2338 H 224.164 -0.0193897 0.67072 0
M  V30 2339 H 226.708 0.583007 1.96013 0
M  V30 2340 H 224.863 -1.20723 3.6811 0
M  V30 2341 H 225.277 0.372601 5.23175 0
M  V30 2342 H 226.751 -1.33302 5.35663 0
M  V30 2343 H 227.228 -2.11296 3.85033 0
M  V30 2344 H 227.834 -0.483373 4.22544 0
M  V30 2345 N 226.149 -1.5696 0.141893 0
M  V30 2346 C 227.374 -2.00754 -0.520838 0
M  V30 2347 C 227.799 -1.0213 -1.57959 0
M  V30 2348 O 227.157 0.00371324 -1.813 0
M  V30 2349 C 227.205 -3.43318 -1.10294 0
M  V30 2350 O 226.309 -3.47679 -2.21795 0
M  V30 2351 H 225.65 -0.651564 -0.127908 0
M  V30 2352 H 228.18 -2.03221 0.23712 0
M  V30 2353 H 228.19 -3.82012 -1.43287 0
M  V30 2354 H 226.865 -4.14608 -0.327574 0
M  V30 2355 H 225.442 -3.20824 -1.9007 0
M  V30 2356 N 227.627 0.131896 -1.57047 0
M  V30 2357 C 228.537 1.1815 -2.02676 0
M  V30 2358 C 229.553 1.46113 -0.944824 0
M  V30 2359 O 230.729 1.57485 -1.25541 0
M  V30 2360 C 227.794 2.49139 -2.41103 0
M  V30 2361 C 226.855 2.28688 -3.63318 0
M  V30 2362 C 226.088 3.53431 -3.99903 0
M  V30 2363 O 226.311 4.60223 -3.36973 0
M  V30 2364 O 225.245 3.45198 -4.93074 0
M  V30 2365 H 229.071 0.824069 -2.92306 0
M  V30 2366 H 226.656 0.341745 -1.45439 0
M  V30 2367 H 228.538 3.26338 -2.66611 0
M  V30 2368 H 227.213 2.84382 -1.54624 0
M  V30 2369 H 226.12 1.4939 -3.42977 0
M  V30 2370 H 227.453 1.98355 -4.50462 0
M  V30 2371 N 229.106 1.52395 0.401703 0
M  V30 2372 C 230.054 1.7689 1.51039 0
M  V30 2373 C 231.048 0.636298 1.56996 0
M  V30 2374 O 232.254 0.818507 1.60314 0
M  V30 2375 H 228.629 0.559502 0.502456 0
M  V30 2376 H 230.6 2.69757 1.27568 0
M  V30 2377 C 229.349 1.94331 2.88324 0
M  V30 2378 H 228.672 2.80905 2.84486 0
M  V30 2379 H 230.112 2.15466 3.65172 0
M  V30 2380 C 228.571 0.712396 3.29282 0
M  V30 2381 O 229.101 -0.116218 4.01532 0
M  V30 2382 N 227.307 0.546154 2.85422 0
M  V30 2383 H 226.854 1.22156 2.26794 0
M  V30 2384 H 226.812 -0.276113 3.13185 0
M  V30 2385 N 230.584 -0.659388 1.43143 0
M  V30 2386 C 231.832 -1.41654 1.44147 0
M  V30 2387 C 232.153 -1.94893 0.0645739 0
M  V30 2388 O 231.423 -1.74044 -0.899198 0
M  V30 2389 H 230.003 -0.525708 0.530697 0
M  V30 2390 H 232.665 -0.778097 1.78694 0
M  V30 2391 H 231.761 -2.26195 2.1504 0
M  V30 2392 N 232.062 -1.29571 -0.897171 0
M  V30 2393 C 233.009 -1.14916 -2.00158 0
M  V30 2394 C 233.979 -0.0418149 -1.66047 0
M  V30 2395 O 235.164 -0.209793 -1.89643 0
M  V30 2396 C 232.304 -0.834307 -3.34863 0
M  V30 2397 C 231.417 -2.02234 -3.8174 0
M  V30 2398 C 230.552 -1.64664 -5.05034 0
M  V30 2399 C 229.591 -2.80033 -5.44286 0
M  V30 2400 N 228.728 -2.42843 -6.58765 0
M  V30 2401 H 233.568 -2.09403 -2.12025 0
M  V30 2402 H 231.105 -1.042 -1.0383 0
M  V30 2403 H 233.063 -0.632436 -4.12379 0
M  V30 2404 H 231.693 0.0736656 -3.22716 0
M  V30 2405 H 230.745 -2.33583 -3.00238 0
M  V30 2406 H 232.057 -2.88673 -4.06779 0
M  V30 2407 H 231.211 -1.4078 -5.9014 0
M  V30 2408 H 229.95 -0.753766 -4.8184 0
M  V30 2409 H 228.955 -3.04596 -4.57713 0
M  V30 2410 H 230.18 -3.69989 -5.6946 0
M  V30 2411 H 228.126 -1.56046 -6.3717 0
M  V30 2412 H 228.043 -3.22815 -6.83613 0
M  V30 2413 H 229.311 -2.22285 -7.47134 0
M  V30 2414 N 233.54 1.10788 -1.12088 0
M  V30 2415 C 234.49 2.15158 -0.754401 0
M  V30 2416 C 235.474 1.59026 0.244846 0
M  V30 2417 O 236.666 1.76927 0.0509097 0
M  V30 2418 C 233.795 3.42677 -0.206657 0
M  V30 2419 C 232.881 4.05751 -1.23398 0
M  V30 2420 N 233.272 4.43582 -2.43041 0
M  V30 2421 C 231.57 4.32764 -1.07848 0
M  V30 2422 C 232.271 4.93085 -3.08613 0
M  V30 2423 N 231.247 4.89664 -2.36072 0
M  V30 2424 H 235.049 2.42195 -1.6649 0
M  V30 2425 H 232.563 1.27872 -1.00112 0
M  V30 2426 H 234.56 4.16834 0.0740646 0
M  V30 2427 H 233.22 3.17101 0.698342 0
M  V30 2428 H 234.231 4.35395 -2.80449 0
M  V30 2429 H 230.908 4.16863 -0.230483 0
M  V30 2430 H 232.298 5.31933 -4.10483 0
M  V30 2431 N 235.018 0.912232 1.28515 0
M  V30 2432 C 236.246 0.560416 1.99166 0
M  V30 2433 C 236.661 -0.857927 1.68182 0
M  V30 2434 O 236.018 -1.56805 0.933733 0
M  V30 2435 C 236.069 0.758142 3.53461 0
M  V30 2436 O 235.79 2.12067 3.83352 0
M  V30 2437 C 237.291 0.412954 4.41372 0
M  V30 2438 H 234.511 0.213805 0.636026 0
M  V30 2439 H 237.055 1.22502 1.63749 0
M  V30 2440 H 235.21 0.140556 3.87145 0
M  V30 2441 H 235.624 2.15923 4.77993 0
M  V30 2442 H 237.098 0.60208 5.48707 0
M  V30 2443 H 237.575 -0.65073 4.34353 0
M  V30 2444 H 238.181 1.00802 4.13182 0
M  V30 2445 N 236.496 -1.42363 0.676048 0
M  V30 2446 C 237.745 -2.00745 0.196037 0
M  V30 2447 C 238.058 -1.54083 -1.20489 0
M  V30 2448 O 239.264 -2.04891 -1.78134 0
M  V30 2449 C 237.72 -3.58651 0.299616 0
M  V30 2450 C 237.328 -4.143 1.70468 0
M  V30 2451 C 239.072 -4.24326 -0.121619 0
M  V30 2452 C 236.979 -5.64574 1.76096 0
M  V30 2453 H 235.909 -0.750787 0.0695301 0
M  V30 2454 H 238.56 -1.63072 0.841412 0
M  V30 2455 H 236.942 -3.93833 -0.413673 0
M  V30 2456 H 238.116 -3.90575 2.44515 0
M  V30 2457 H 236.431 -3.61081 2.07387 0
M  V30 2458 H 239.028 -5.34607 -0.0997362 0
M  V30 2459 H 239.371 -3.99897 -1.15708 0
M  V30 2460 H 239.904 -3.94108 0.540706 0
M  V30 2461 H 236.643 -5.93804 2.77628 0
M  V30 2462 H 236.163 -5.90286 1.06406 0
M  V30 2463 H 237.842 -6.29013 1.51496 0
M  V30 2464 N 237.974 -0.419461 -1.51915 0
M  V30 2465 C 239.202 0.152136 -2.0634 0
M  V30 2466 C 239.617 1.37988 -1.28859 0
M  V30 2467 O 238.974 1.79243 -0.343232 0
M  V30 2468 C 239.025 0.492266 -3.58133 0
M  V30 2469 O 238.746 -0.686736 -4.32684 0
M  V30 2470 C 240.247 1.11648 -4.2901 0
M  V30 2471 H 237.467 0.0158325 -0.670813 0
M  V30 2472 H 240.011 -0.593394 -1.95702 0
M  V30 2473 H 238.166 1.18769 -3.68745 0
M  V30 2474 H 238.58 -0.400341 -5.2297 0
M  V30 2475 H 240.054 1.3046 -5.36362 0
M  V30 2476 H 240.531 2.09251 -3.86148 0
M  V30 2477 H 241.137 0.460958 -4.22795 0
M  V30 2478 N 239.452 1.56882 -0.150215 0
M  V30 2479 C 240.699 1.96228 0.500093 0
M  V30 2480 C 241.027 1.03522 1.64661 0
M  V30 2481 O 240.282 0.0650683 1.95592 0
M  V30 2482 C 240.581 3.41801 1.04437 0
M  V30 2483 C 240.247 4.50897 0.0159671 0
M  V30 2484 C 238.909 4.8046 -0.266731 0
M  V30 2485 C 241.261 5.16703 -0.683192 0
M  V30 2486 C 238.589 5.73135 -1.25434 0
M  V30 2487 C 240.941 6.10441 -1.65964 0
M  V30 2488 C 239.605 6.38382 -1.95 0
M  V30 2489 H 238.875 0.718048 0.182997 0
M  V30 2490 H 241.522 1.90019 -0.237724 0
M  V30 2491 H 239.827 3.44857 1.85959 0
M  V30 2492 H 241.524 3.69573 1.55618 0
M  V30 2493 H 238.114 4.27891 0.246485 0
M  V30 2494 H 242.298 4.93993 -0.477983 0
M  V30 2495 H 237.554 5.93074 -1.48571 0
M  V30 2496 H 241.728 6.60507 -2.20689 0
M  V30 2497 H 239.355 7.09996 -2.71679 0
M  V30 2498 N 240.93 -0.123565 1.57115 0
M  V30 2499 C 241.893 -1.13583 1.99076 0
M  V30 2500 C 242.893 -1.34564 0.880296 0
M  V30 2501 O 244.083 -1.31158 1.14644 0
M  V30 2502 C 241.215 -2.49128 2.32698 0
M  V30 2503 H 242.408 -0.775287 2.89706 0
M  V30 2504 H 239.961 -0.36771 1.51913 0
M  V30 2505 H 240.696 -2.90111 1.44934 0
M  V30 2506 H 240.481 -2.35255 3.13684 0
M  V30 2507 H 241.971 -3.2199 2.65918 0
M  V30 2508 N 242.408 -1.52605 -0.393616 0
M  V30 2509 C 243.338 -1.80022 -1.48709 0
M  V30 2510 C 244.319 -0.651995 -1.57108 0
M  V30 2511 O 245.504 -0.89913 -1.72132 0
M  V30 2512 C 242.634 -1.96492 -2.86371 0
M  V30 2513 C 241.588 -3.12161 -2.92813 0
M  V30 2514 C 240.914 -3.13877 -4.3288 0
M  V30 2515 C 242.214 -4.51322 -2.6288 0
M  V30 2516 H 243.908 -2.71589 -1.26015 0
M  V30 2517 H 241.454 -1.30684 -0.604778 0
M  V30 2518 H 243.407 -2.14255 -3.62867 0
M  V30 2519 H 242.131 -1.01611 -3.10391 0
M  V30 2520 H 240.79 -2.94173 -2.18764 0
M  V30 2521 H 240.438 -2.16687 -4.53933 0
M  V30 2522 H 240.138 -3.91576 -4.38112 0
M  V30 2523 H 241.662 -3.33789 -5.1129 0
M  V30 2524 H 243.076 -4.69435 -3.29096 0
M  V30 2525 H 241.473 -5.31053 -2.79468 0
M  V30 2526 H 242.543 -4.58353 -1.58242 0
M  V30 2527 N 243.887 0.651787 -1.4349 0
M  V30 2528 C 244.85 1.74647 -1.48429 0
M  V30 2529 C 245.85 1.56513 -0.368817 0
M  V30 2530 O 247.04 1.62385 -0.630623 0
M  V30 2531 C 244.172 3.13533 -1.33827 0
M  V30 2532 H 245.365 1.71649 -2.4592 0
M  V30 2533 H 242.918 0.863573 -1.30277 0
M  V30 2534 H 243.653 3.22142 -0.37349 0
M  V30 2535 H 243.438 3.28101 -2.14691 0
M  V30 2536 H 244.928 3.93356 -1.40218 0
M  V30 2537 N 245.365 1.30045 0.890287 0
M  V30 2538 C 246.312 1.15976 1.99545 0
M  V30 2539 C 247.282 0.0506202 1.66023 0
M  V30 2540 O 248.467 0.219847 1.89529 0
M  V30 2541 C 245.607 0.852054 3.34416 0
M  V30 2542 C 244.72 2.04255 3.80662 0
M  V30 2543 C 243.855 1.6734 5.04154 0
M  V30 2544 C 242.894 2.82916 5.42794 0
M  V30 2545 N 242.031 2.46333 6.57468 0
M  V30 2546 H 246.871 2.10524 2.10911 0
M  V30 2547 H 244.408 1.04749 1.03276 0
M  V30 2548 H 246.366 0.654296 4.12037 0
M  V30 2549 H 244.996 -0.0565502 3.2275 0
M  V30 2550 H 244.048 2.35172 2.98995 0
M  V30 2551 H 245.36 2.90826 4.05242 0
M  V30 2552 H 244.514 1.43908 5.89386 0
M  V30 2553 H 243.253 0.779308 4.81433 0
M  V30 2554 H 242.258 3.0702 4.56091 0
M  V30 2555 H 243.483 3.73004 5.6749 0
M  V30 2556 H 241.429 1.59423 6.36334 0
M  V30 2557 H 241.346 3.26436 6.81891 0
M  V30 2558 H 242.614 2.26244 7.45945 0
M  V30 2559 N 246.843 -1.10192 1.12674 0
M  V30 2560 C 248.12 -1.78717 0.794965 0
M  V30 2561 C 248.5 -1.98628 -0.714853 0
M  V30 2562 O 247.848 -1.58135 -1.64941 0
M  V30 2563 C 248.058 -3.11546 1.5729 0
M  V30 2564 C 249.406 -3.86382 1.76052 0
M  V30 2565 O 250.43 -3.21274 1.53823 0
M  V30 2566 O 249.289 -5.03246 2.13087 0
M  V30 2567 H 246.383 -0.774702 0.289423 0
M  V30 2568 H 248.929 -1.16819 1.23091 0
M  V30 2569 H 247.701 -2.92489 2.59935 0
M  V30 2570 H 247.324 -3.81164 1.13137 0
M  V30 2571 N 248.321 -0.919034 -1.28029 0
M  V30 2572 C 249.251 -0.428581 -2.29533 0
M  V30 2573 C 250.232 0.50659 -1.62381 0
M  V30 2574 O 251.417 0.413195 -1.89753 0
M  V30 2575 C 248.547 0.327388 -3.45753 0
M  V30 2576 C 247.501 -0.519137 -4.2484 0
M  V30 2577 C 246.827 0.365486 -5.33449 0
M  V30 2578 C 248.127 -1.77914 -4.91064 0
M  V30 2579 H 249.821 -1.27687 -2.70807 0
M  V30 2580 H 247.367 -0.615428 -1.30186 0
M  V30 2581 H 249.32 0.681378 -4.15855 0
M  V30 2582 H 248.044 1.20963 -3.03374 0
M  V30 2583 H 246.703 -0.855717 -3.56473 0
M  V30 2584 H 246.351 1.24642 -4.87312 0
M  V30 2585 H 246.051 -0.197356 -5.87268 0
M  V30 2586 H 247.575 0.715241 -6.06396 0
M  V30 2587 H 248.989 -1.49374 -5.53498 0
M  V30 2588 H 247.386 -2.2848 -5.54903 0
M  V30 2589 H 248.456 -2.50382 -4.15255 0
M  V30 2590 N 249.799 1.42003 -0.683588 0
M  V30 2591 C 251.047 2.01015 -0.209101 0
M  V30 2592 C 251.368 1.54365 1.19149 0
M  V30 2593 O 250.638 0.769083 1.80172 0
M  V30 2594 H 249.218 0.743294 -0.074315 0
M  V30 2595 H 251.88 1.73798 -0.882066 0
M  V30 2596 H 250.976 3.11343 -0.2172 0
M  V30 2597 N 251.277 0.427512 1.51691 0
M  V30 2598 C 252.523 -0.142439 2.02299 0
M  V30 2599 C 252.856 -1.43214 1.31162 0
M  V30 2600 O 252.131 -1.89833 0.423511 0
M  V30 2601 C 252.414 -0.371301 3.58181 0
M  V30 2602 C 252.267 0.936358 4.39946 0
M  V30 2603 C 253.586 -1.14542 4.24933 0
M  V30 2604 H 250.705 -0.0502937 0.735282 0
M  V30 2605 H 253.347 0.564584 1.81418 0
M  V30 2606 H 251.497 -0.973559 3.76104 0
M  V30 2607 H 253.169 1.57184 4.33694 0
M  V30 2608 H 251.412 1.5432 4.05423 0
M  V30 2609 H 252.083 0.730388 5.47147 0
M  V30 2610 H 254.559 -0.635362 4.11221 0
M  V30 2611 H 253.435 -1.27431 5.33903 0
M  V30 2612 H 253.696 -2.17093 3.85127 0
M  V30 2613 N 252.755 -1.56801 0.158532 0
M  V30 2614 C 253.702 -2.17337 -0.776729 0
M  V30 2615 C 254.672 -1.1096 -1.23601 0
M  V30 2616 O 255.857 -1.39054 -1.30647 0
M  V30 2617 C 252.997 -2.80822 -2.00582 0
M  V30 2618 C 252.11 -4.01624 -1.59129 0
M  V30 2619 C 251.245 -4.53072 -2.77306 0
M  V30 2620 C 250.284 -5.66314 -2.32282 0
M  V30 2621 N 249.421 -6.12329 -3.43508 0
M  V30 2622 H 254.261 -2.96918 -0.253701 0
M  V30 2623 H 251.798 -1.46661 -0.113504 0
M  V30 2624 H 253.756 -3.15779 -2.72652 0
M  V30 2625 H 252.386 -2.03866 -2.50277 0
M  V30 2626 H 251.438 -3.72571 -0.767806 0
M  V30 2627 H 252.75 -4.83633 -1.2207 0
M  V30 2628 H 251.904 -4.90145 -3.57551 0
M  V30 2629 H 250.643 -3.70095 -3.17617 0
M  V30 2630 H 249.648 -5.28806 -1.5048 0
M  V30 2631 H 250.873 -6.51085 -1.93043 0
M  V30 2632 H 248.819 -5.32284 -3.83418 0
M  V30 2633 H 248.736 -6.89293 -3.105 0
M  V30 2634 H 250.004 -6.5405 -4.24075 0
M  V30 2635 N 254.233 0.115231 -1.57178 0
M  V30 2636 C 255.461 0.836437 -1.89239 0
M  V30 2637 C 255.876 1.73256 -0.750175 0
M  V30 2638 O 255.233 1.80357 0.278832 0
M  V30 2639 C 255.284 1.66671 -3.20785 0
M  V30 2640 O 255.005 0.806652 -4.3061 0
M  V30 2641 C 256.506 2.49274 -3.66575 0
M  V30 2642 H 253.726 0.240253 -0.626514 0
M  V30 2643 H 256.27 0.0984932 -2.04263 0
M  V30 2644 H 254.425 2.35737 -3.0742 0
M  V30 2645 H 254.839 1.37969 -5.06028 0
M  V30 2646 H 256.313 3.03055 -4.6137 0
M  V30 2647 H 256.79 3.26807 -2.93417 0
M  V30 2648 H 257.396 1.85443 -3.82741 0
M  V30 2649 N 255.711 1.52812 0.385517 0
M  V30 2650 C 256.674 1.77188 1.45386 0
M  V30 2651 C 257.674 0.641953 1.4743 0
M  V30 2652 O 258.864 0.910033 1.4854 0
M  V30 2653 C 255.996 1.87582 2.8465 0
M  V30 2654 H 257.189 2.72583 1.25054 0
M  V30 2655 H 254.742 1.43586 0.617467 0
M  V30 2656 H 255.477 0.941849 3.10322 0
M  V30 2657 H 255.262 2.69748 2.84567 0
M  V30 2658 H 256.752 2.08102 3.62054 0
M  V30 2659 N 257.189 -0.644168 1.43834 0
M  V30 2660 C 258.417 -1.43147 1.49387 0
M  V30 2661 C 258.832 -1.88452 0.114583 0
M  V30 2662 O 258.189 -1.60047 -0.876989 0
M  V30 2663 C 258.24 -2.66046 2.44748 0
M  V30 2664 O 257.961 -2.22633 3.77314 0
M  V30 2665 C 259.462 -3.59311 2.59635 0
M  V30 2666 H 256.682 -0.439447 0.507077 0
M  V30 2667 H 259.226 -0.78895 1.88669 0
M  V30 2668 H 257.381 -3.26418 2.08638 0
M  V30 2669 H 257.795 -3.02216 4.28679 0
M  V30 2670 H 259.269 -4.42187 3.30416 0
M  V30 2671 H 259.746 -4.07259 1.64427 0
M  V30 2672 H 260.352 -3.04816 2.96593 0
M  V30 2673 N 258.668 -1.30515 -0.883378 0
M  V30 2674 C 259.914 -1.19607 -1.63774 0
M  V30 2675 C 260.247 0.248314 -1.92606 0
M  V30 2676 O 259.522 1.17742 -1.54813 0
M  V30 2677 C 259.805 -2.02669 -2.97653 0
M  V30 2678 C 259.658 -3.55335 -2.75784 0
M  V30 2679 C 260.977 -1.86573 -3.98596 0
M  V30 2680 H 258.096 -0.435856 -0.594305 0
M  V30 2681 H 260.738 -1.60165 -1.02212 0
M  V30 2682 H 258.888 -1.68208 -3.50197 0
M  V30 2683 H 260.56 -3.99863 -2.30016 0
M  V30 2684 H 258.803 -3.79438 -2.1026 0
M  V30 2685 H 259.474 -4.08745 -3.70988 0
M  V30 2686 H 261.95 -2.16703 -3.55217 0
M  V30 2687 H 260.826 -2.47014 -4.90179 0
M  V30 2688 H 261.087 -0.825321 -4.34328 0
M  V30 2689 N 260.146 1.09593 -1.13257 0
M  V30 2690 C 261.371 1.8604 -0.916732 0
M  V30 2691 C 261.796 1.80504 0.529146 0
M  V30 2692 O 261.154 1.18127 1.37534 0
M  V30 2693 C 261.202 3.32017 -1.40703 0
M  V30 2694 O 260.306 4.08141 -0.591153 0
M  V30 2695 H 259.647 0.576943 -0.328683 0
M  V30 2696 H 262.177 1.38405 -1.50682 0
M  V30 2697 H 262.187 3.82865 -1.4099 0
M  V30 2698 H 260.862 3.35361 -2.45979 0
M  V30 2699 H 259.439 3.67084 -0.656005 0
M  V30 2700 N 261.624 0.925811 1.2754 0
M  V30 2701 C 262.901 0.483726 1.89524 0
M  V30 2702 C 263.281 -1.03809 1.83812 0
M  V30 2703 O 262.629 -1.89143 1.28207 0
M  V30 2704 C 262.839 1.02769 3.33526 0
M  V30 2705 C 264.187 1.08703 4.10449 0
M  V30 2706 O 265.211 0.977175 3.42534 0
M  V30 2707 O 264.07 1.25599 5.31871 0
M  V30 2708 H 261.164 0.15529 0.812289 0
M  V30 2709 H 263.71 1.01738 1.35822 0
M  V30 2710 H 262.482 2.07155 3.31967 0
M  V30 2711 H 262.105 0.475567 3.94746 0
M  V30 2712 N 263.102 -1.41638 0.69111 0
M  V30 2713 C 264.33 -2.05628 0.22909 0
M  V30 2714 C 264.745 -1.51992 -1.11999 0
M  V30 2715 O 264.102 -0.666322 -1.69901 0
M  V30 2716 C 264.153 -3.61084 0.173283 0
M  V30 2717 O 263.874 -4.12735 1.46907 0
M  V30 2718 C 265.375 -4.42213 -0.310266 0
M  V30 2719 H 262.595 -0.662327 0.107534 0
M  V30 2720 H 265.139 -1.81489 0.942438 0
M  V30 2721 H 263.294 -3.84278 -0.490858 0
M  V30 2722 H 263.708 -5.06743 1.35322 0
M  V30 2723 H 265.182 -5.51194 -0.298196 0
M  V30 2724 H 265.659 -4.1799 -1.34838 0
M  V30 2725 H 266.265 -4.24074 0.322716 0
M  V30 2726 N 264.58 -0.43555 -1.51462 0
M  V30 2727 C 265.51 0.367376 -2.30592 0
M  V30 2728 C 266.491 1.02263 -1.35928 0
M  V30 2729 O 267.676 1.02661 -1.64847 0
M  V30 2730 C 264.806 1.46983 -3.14664 0
M  V30 2731 C 263.76 0.938161 -4.17591 0
M  V30 2732 C 263.086 2.13622 -4.90173 0
M  V30 2733 C 264.386 -0.0261621 -5.22293 0
M  V30 2734 H 266.08 -0.292969 -2.97963 0
M  V30 2735 H 263.626 -0.14234 -1.43295 0
M  V30 2736 H 265.579 2.03873 -3.688 0
M  V30 2737 H 264.303 2.15843 -2.4511 0
M  V30 2738 H 262.962 0.391481 -3.64504 0
M  V30 2739 H 262.61 2.81098 -4.17124 0
M  V30 2740 H 262.31 1.78688 -5.59772 0
M  V30 2741 H 263.834 2.7107 -5.47132 0
M  V30 2742 H 265.248 0.452384 -5.71512 0
M  V30 2743 H 263.645 -0.287992 -5.99409 0
M  V30 2744 H 264.715 -0.963391 -4.75233 0
M  V30 2745 N 266.058 1.56714 -0.166846 0
M  V30 2746 C 267.286 2.0112 0.485644 0
M  V30 2747 C 267.701 1.04705 1.57106 0
M  V30 2748 O 267.058 0.0471923 1.82439 0
M  V30 2749 C 267.109 3.45361 1.06808 0
M  V30 2750 O 266.83 4.38092 0.0259995 0
M  V30 2751 C 268.331 4.05145 1.79924 0
M  V30 2752 H 265.551 0.65931 0.124704 0
M  V30 2753 H 268.095 2.02746 -0.267262 0
M  V30 2754 H 266.25 3.44524 1.7715 0
M  V30 2755 H 266.664 5.22519 0.455398 0
M  V30 2756 H 268.138 5.08009 2.15942 0
M  V30 2757 H 268.615 3.46982 2.69258 0
M  V30 2758 H 269.221 4.09672 1.14234 0
M  V30 2759 N 267.536 -0.106894 1.57237 0
M  V30 2760 C 268.785 -0.811163 1.8467 0
M  V30 2761 C 269.098 -1.80469 0.754342 0
M  V30 2762 O 270.304 -2.55601 0.915439 0
M  V30 2763 C 268.76 -1.49337 3.27454 0
M  V30 2764 C 268.368 -0.540217 4.44731 0
M  V30 2765 C 270.112 -2.18206 3.64124 0
M  V30 2766 C 268.019 -1.22634 5.78545 0
M  V30 2767 H 266.949 -0.306679 0.688813 0
M  V30 2768 H 269.6 -0.0639887 1.83388 0
M  V30 2769 H 267.982 -2.2876 3.23241 0
M  V30 2770 H 269.156 0.221659 4.60267 0
M  V30 2771 H 267.471 0.042146 4.16379 0
M  V30 2772 H 270.068 -2.70253 4.61376 0
M  V30 2773 H 270.411 -2.96562 2.92158 0
M  V30 2774 H 270.944 -1.45658 3.70174 0
M  V30 2775 H 267.683 -0.483832 6.53712 0
M  V30 2776 H 267.203 -1.95993 5.66874 0
M  V30 2777 H 268.882 -1.75615 6.2271 0
M  V30 2778 N 269.014 -1.53014 -0.377408 0
M  V30 2779 C 270.262 -1.6829 -1.11906 0
M  V30 2780 C 270.583 -0.431206 -1.90173 0
M  V30 2781 O 269.853 0.554595 -1.87886 0
M  V30 2782 H 268.433 -0.620371 -0.416112 0
M  V30 2783 H 271.095 -1.90167 -0.426893 0
M  V30 2784 H 270.191 -2.53862 -1.8155 0
M  V30 2785 N 270.492 0.636531 -1.44174 0
M  V30 2786 C 271.74 1.39343 -1.46383 0
M  V30 2787 C 272.061 1.94766 -0.0955715 0
M  V30 2788 O 271.331 1.75452 0.871395 0
M  V30 2789 H 269.911 0.517199 -0.538994 0
M  V30 2790 H 272.573 0.74957 -1.7991 0
M  V30 2791 H 271.669 2.22746 -2.18611 0
M  V30 2792 N 271.97 1.30982 0.876444 0
M  V30 2793 C 273.218 1.20058 1.62575 0
M  V30 2794 C 273.539 -0.242947 1.93481 0
M  V30 2795 O 272.809 -1.1619 1.57724 0
M  V30 2796 H 271.389 0.44135 0.602677 0
M  V30 2797 H 274.051 1.64222 1.04962 0
M  V30 2798 H 273.147 1.76762 2.57219 0
M  V30 2799 N 273.449 -1.08991 1.13837 0
M  V30 2800 C 274.412 -2.13925 0.822715 0
M  V30 2801 C 275.412 -1.599 -0.1699 0
M  V30 2802 O 276.602 -1.74104 0.0577251 0
M  V30 2803 C 273.734 -3.40155 0.225318 0
M  V30 2804 H 274.927 -2.43358 1.75262 0
M  V30 2805 H 272.48 -1.24603 0.943594 0
M  V30 2806 H 273.215 -3.16352 -0.713594 0
M  V30 2807 H 273 -3.80661 0.940193 0
M  V30 2808 H 274.49 -4.17594 0.0214784 0
M  V30 2809 N 274.927 -0.932562 -1.27047 0
M  V30 2810 C 275.89 -0.440064 -2.24936 0
M  V30 2811 C 276.89 0.444071 -1.54547 0
M  V30 2812 O 278.08 0.244465 -1.72476 0
M  V30 2813 C 275.212 0.36678 -3.38921 0
M  V30 2814 H 276.405 -1.305 -2.70018 0
M  V30 2815 H 273.958 -0.713707 -1.39054 0
M  V30 2816 H 274.693 1.25033 -2.99228 0
M  V30 2817 H 274.478 -0.267204 -3.91188 0
M  V30 2818 H 275.968 0.701567 -4.11665 0
M  V30 2819 N 276.405 1.4127 -0.698611 0
M  V30 2820 C 277.368 2.29158 -0.044132 0
M  V30 2821 C 278.368 1.44529 0.704841 0
M  V30 2822 O 279.558 1.65643 0.539276 0
M  V30 2823 C 276.69 3.27459 0.947809 0
M  V30 2824 H 277.883 2.88529 -0.817994 0
M  V30 2825 H 275.436 1.49307 -0.46228 0
M  V30 2826 H 276.171 2.73073 1.74933 0
M  V30 2827 H 275.956 3.8991 0.41385 0
M  V30 2828 H 277.446 3.93311 1.40344 0
M  V30 2829 N 277.883 0.443576 1.51229 0
M  V30 2830 C 279.131 -0.120557 2.0174 0
M  V30 2831 C 279.452 -1.42665 1.32935 0
M  V30 2832 O 278.722 -1.9028 0.465866 0
M  V30 2833 H 277.302 -0.0475426 0.745486 0
M  V30 2834 H 279.964 0.587711 1.85828 0
M  V30 2835 H 279.06 -0.291972 3.10731 0
M  V30 2836 N 279.361 -1.56624 0.175154 0
M  V30 2837 C 280.324 -2.16934 -0.739738 0
M  V30 2838 C 281.324 -1.11842 -1.15533 0
M  V30 2839 O 282.514 -1.37335 -1.07167 0
M  V30 2840 C 279.646 -2.75531 -2.00738 0
M  V30 2841 H 280.839 -2.99131 -0.214639 0
M  V30 2842 H 278.392 -1.56123 -0.0744197 0
M  V30 2843 H 279.127 -1.97078 -2.57548 0
M  V30 2844 H 278.912 -3.52444 -1.71831 0
M  V30 2845 H 280.402 -3.21904 -2.66021 0
M  V30 2846 N 280.839 0.0985539 -1.57292 0
M  V30 2847 C 282.067 0.816318 -1.90115 0
M  V30 2848 C 282.482 1.72451 -0.768509 0
M  V30 2849 O 281.839 1.80643 0.259687 0
M  V30 2850 C 281.89 1.63259 -3.22535 0
M  V30 2851 O 281.611 0.760934 -4.31441 0
M  V30 2852 C 283.112 2.45372 -3.69199 0
M  V30 2853 H 280.332 0.233595 -0.629027 0
M  V30 2854 H 282.876 0.0768229 -2.04356 0
M  V30 2855 H 281.031 2.32463 -3.09903 0
M  V30 2856 H 281.445 1.32595 -5.07463 0
M  V30 2857 H 282.919 2.98144 -4.64558 0
M  V30 2858 H 283.396 3.23677 -2.96867 0
M  V30 2859 H 284.002 1.81373 -3.84687 0
M  V30 2860 N 282.317 1.53212 0.369288 0
M  V30 2861 C 283.545 1.73119 1.13303 0
M  V30 2862 C 283.96 0.458455 1.83149 0
M  V30 2863 O 283.317 -0.568403 1.73423 0
M  V30 2864 C 283.368 2.89413 2.16616 0
M  V30 2865 O 283.089 4.11761 1.49614 0
M  V30 2866 C 284.59 3.21161 3.05566 0
M  V30 2867 H 281.81 0.579107 0.338934 0
M  V30 2868 H 284.354 1.99942 0.429338 0
M  V30 2869 H 282.509 2.64994 2.82589 0
M  V30 2870 H 282.923 4.76858 2.18419 0
M  V30 2871 H 284.397 4.05949 3.74045 0
M  V30 2872 H 284.874 2.36369 3.70171 0
M  V30 2873 H 285.48 3.47492 2.45213 0
M  V30 2874 N 283.795 -0.628877 1.44509 0
M  V30 2875 C 285.023 -1.41554 1.50897 0
M  V30 2876 C 285.438 -1.8832 0.134564 0
M  V30 2877 O 284.795 -1.60969 -0.859965 0
M  V30 2878 C 284.846 -2.63435 2.47556 0
M  V30 2879 O 284.567 -2.18619 3.79654 0
M  V30 2880 C 286.068 -3.56537 2.63431 0
M  V30 2881 H 283.288 -0.434044 0.511709 0
M  V30 2882 H 285.832 -0.768895 1.89495 0
M  V30 2883 H 283.987 -3.24187 2.12089 0
M  V30 2884 H 284.401 -2.97652 4.31861 0
M  V30 2885 H 285.875 -4.38657 3.35088 0
M  V30 2886 H 286.352 -4.05493 1.68738 0
M  V30 2887 H 286.958 -3.01653 2.9981 0
M  V30 2888 N 285.273 -1.31445 -0.869486 0
M  V30 2889 C 286.684 -1.19042 -1.43826 0
M  V30 2890 C 287.035 0.202919 -1.95148 0
M  V30 2891 O 286.16 1.10071 -1.86315 0
M  V30 2892 C 286.755 -2.15499 -2.6143 0
M  V30 2893 C 285.314 -2.07028 -3.14351 0
M  V30 2894 C 284.461 -2.04701 -1.87063 0
M  V30 2895 H 287.412 -1.43489 -0.677984 0
M  V30 2896 H 287.433 -1.74488 -3.38134 0
M  V30 2897 H 286.945 -3.16899 -2.24046 0
M  V30 2898 H 285.046 -1.08825 -3.56354 0
M  V30 2899 H 285.159 -2.96157 -3.766 0
M  V30 2900 H 283.523 -1.49724 -2.06046 0
M  V30 2901 H 284.306 -3.07857 -1.51917 0
M  V30 2902 N 286.751 1.08385 -1.14413 0
M  V30 2903 C 287.698 2.15311 -0.831265 0
M  V30 2904 C 288.668 1.64751 0.211292 0
M  V30 2905 O 289.853 1.90627 0.0811674 0
M  V30 2906 C 286.993 3.43658 -0.315143 0
M  V30 2907 C 286.106 4.08064 -1.41802 0
M  V30 2908 C 285.241 5.24207 -0.859126 0
M  V30 2909 C 284.28 5.80554 -1.93967 0
M  V30 2910 N 283.417 6.88042 -1.39793 0
M  V30 2911 H 288.257 2.41415 -1.74708 0
M  V30 2912 H 285.794 1.18474 -0.871909 0
M  V30 2913 H 287.752 4.172 0.00230884 0
M  V30 2914 H 286.382 3.17839 0.56378 0
M  V30 2915 H 285.434 3.3228 -1.85187 0
M  V30 2916 H 286.746 4.45962 -2.23427 0
M  V30 2917 H 285.9 6.04689 -0.49359 0
M  V30 2918 H 284.639 4.87699 -0.011932 0
M  V30 2919 H 283.644 4.98725 -2.31415 0
M  V30 2920 H 284.869 6.19121 -2.79046 0
M  V30 2921 H 282.815 6.53493 -0.572919 0
M  V30 2922 H 282.732 7.24767 -2.15054 0
M  V30 2923 H 284 7.72255 -1.0603 0
M  V30 2924 N 288.23 0.939286 1.26551 0
M  V30 2925 C 289.476 0.586715 1.94128 0
M  V30 2926 C 289.809 -0.8717 1.73537 0
M  V30 2927 O 289.084 -1.62339 1.07127 0
M  V30 2928 C 289.367 0.927497 3.4795 0
M  V30 2929 C 289.22 2.44052 3.77834 0
M  V30 2930 C 290.539 0.441569 4.37879 0
M  V30 2931 H 287.658 0.21463 0.705055 0
M  V30 2932 H 290.3 1.17316 1.49455 0
M  V30 2933 H 288.45 0.428431 3.8613 0
M  V30 2934 H 290.122 3.01216 3.4938 0
M  V30 2935 H 288.365 2.8848 3.23978 0
M  V30 2936 H 289.036 2.62947 4.85348 0
M  V30 2937 H 291.512 0.869448 4.06915 0
M  V30 2938 H 290.388 0.708856 5.44304 0
M  V30 2939 H 290.649 -0.658467 4.37169 0
M  V30 2940 N 289.708 -1.40897 0.706093 0
M  V30 2941 C 290.656 -2.32572 0.0361893 0
M  V30 2942 C 291.65 -1.51532 -0.757266 0
M  V30 2943 O 292.856 -1.67396 -0.661703 0
M  V30 2944 H 289.231 -0.751966 -0.00709935 0
M  V30 2945 H 291.202 -2.86733 0.826249 0
M  V30 2946 C 289.951 -3.36418 -0.87854 0
M  V30 2947 H 289.274 -3.98836 -0.277401 0
M  V30 2948 H 290.714 -4.0308 -1.3154 0
M  V30 2949 C 289.173 -2.71141 -1.99961 0
M  V30 2950 O 289.703 -2.56735 -3.0895 0
M  V30 2951 N 287.909 -2.29671 -1.78043 0
M  V30 2952 H 287.456 -2.41588 -0.894042 0
M  V30 2953 H 287.414 -1.86332 -2.53235 0
M  V30 2954 N 291.186 -0.45159 -1.50991 0
M  V30 2955 C 292.432 0.110237 -2.025 0
M  V30 2956 C 292.765 1.41109 -1.33424 0
M  V30 2957 O 292.04 1.89135 -0.453659 0
M  V30 2958 C 292.323 0.314271 -3.58726 0
M  V30 2959 C 292.176 -1.00623 -4.38401 0
M  V30 2960 C 293.495 1.07767 -4.26702 0
M  V30 2961 H 290.614 0.0385897 -0.735989 0
M  V30 2962 H 293.256 -0.593374 -1.80497 0
M  V30 2963 H 291.406 0.913601 -3.77605 0
M  V30 2964 H 293.078 -1.64064 -4.31139 0
M  V30 2965 H 291.321 -1.6075 -4.02917 0
M  V30 2966 H 291.992 -0.817341 -5.45915 0
M  V30 2967 H 294.468 0.56986 -4.12179 0
M  V30 2968 H 293.344 1.18921 -5.35863 0
M  V30 2969 H 293.605 2.10939 -3.88532 0
M  V30 2970 N 292.664 1.56529 -0.183458 0
M  V30 2971 C 293.892 2.01623 0.464285 0
M  V30 2972 C 294.307 1.06366 1.55986 0
M  V30 2973 O 293.664 0.0665398 1.82379 0
M  V30 2974 C 293.715 3.46475 1.03139 0
M  V30 2975 O 293.436 4.38095 -0.0204675 0
M  V30 2976 C 294.937 4.0703 1.75617 0
M  V30 2977 H 292.157 0.660596 0.117704 0
M  V30 2978 H 294.701 2.02451 -0.288751 0
M  V30 2979 H 292.856 3.46383 1.73486 0
M  V30 2980 H 293.27 5.22973 0.399952 0
M  V30 2981 H 294.744 5.10271 2.10542 0
M  V30 2982 H 295.221 3.49819 2.65563 0
M  V30 2983 H 295.827 4.1086 1.09882 0
M  V30 2984 N 294.142 -0.090211 1.57342 0
M  V30 2985 C 295.367 -0.810082 1.90925 0
M  V30 2986 C 295.792 -1.71248 0.778187 0
M  V30 2987 O 295.15 -1.79278 -0.269991 0
M  V30 2988 C 295.198 -1.59529 3.23393 0
M  V30 2989 O 294.302 -2.70461 3.11327 0
M  V30 2990 H 293.643 -0.222231 0.625707 0
M  V30 2991 H 296.173 -0.0639716 2.045 0
M  V30 2992 H 296.183 -1.97847 3.5682 0
M  V30 2993 H 294.858 -0.933055 4.05299 0
M  V30 2994 H 293.435 -2.35135 2.89423 0
M  V30 2995 N 295.62 -1.53406 -0.361157 0
M  V30 2996 C 296.848 -1.73717 -1.12383 0
M  V30 2997 C 297.263 -0.468161 -1.82904 0
M  V30 2998 O 296.62 0.559198 -1.73722 0
M  V30 2999 C 296.671 -2.90558 -2.15078 0
M  V30 3000 O 296.392 -4.12549 -1.47428 0
M  V30 3001 C 297.893 -3.22777 -3.03858 0
M  V30 3002 H 295.113 -0.580896 -0.335858 0
M  V30 3003 H 297.657 -2.00167 -0.418728 0
M  V30 3004 H 295.812 -2.66489 -2.8118 0
M  V30 3005 H 296.226 -4.78009 -2.15887 0
M  V30 3006 H 297.7 -4.07927 -3.71887 0
M  V30 3007 H 298.177 -2.38329 -3.68912 0
M  V30 3008 H 298.783 -3.48787 -2.43367 0
M  V30 3009 N 297.098 0.621204 -1.44841 0
M  V30 3010 C 298.326 1.40752 -1.51646 0
M  V30 3011 C 298.741 1.88246 -0.144549 0
M  V30 3012 O 298.098 1.61422 0.851416 0
M  V30 3013 C 298.149 2.62119 -2.4895 0
M  V30 3014 O 297.87 2.16602 -3.80808 0
M  V30 3015 C 299.371 3.55135 -2.65319 0
M  V30 3016 H 296.591 0.431325 -0.514004 0
M  V30 3017 H 299.135 0.758835 -1.899 0
M  V30 3018 H 297.29 3.23058 -2.13805 0
M  V30 3019 H 297.704 2.95358 -4.33433 0
M  V30 3020 H 299.178 4.36874 -3.37409 0
M  V30 3021 H 299.655 4.04592 -1.70886 0
M  V30 3022 H 300.261 3.00058 -3.01405 0
M  V30 3023 N 298.576 1.31904 0.862503 0
M  V30 3024 C 299.853 1.12644 1.59908 0
M  V30 3025 C 300.233 -0.316104 2.0872 0
M  V30 3026 O 299.581 -1.31145 1.87118 0
M  V30 3027 C 299.791 2.1472 2.7513 0
M  V30 3028 C 301.139 2.47637 3.44907 0
M  V30 3029 O 302.163 2.13205 2.85346 0
M  V30 3030 O 301.022 3.06632 4.52371 0
M  V30 3031 H 298.116 0.43416 0.703871 0
M  V30 3032 H 300.662 1.43408 0.907314 0
M  V30 3033 H 299.434 3.1172 2.3653 0
M  V30 3034 H 299.057 1.84905 3.51989 0
M  V30 3035 N 300.054 -1.07777 1.14986 0
M  V30 3036 C 301.302 -1.79934 0.920235 0
M  V30 3037 C 301.623 -1.86955 -0.554336 0
M  V30 3038 O 300.893 -1.36731 -1.40291 0
M  V30 3039 H 299.473 -0.666424 0.337473 0
M  V30 3040 H 302.135 -1.3027 1.44968 0
M  V30 3041 H 301.231 -2.82539 1.32583 0
M  V30 3042 N 301.532 -0.945985 -1.26051 0
M  V30 3043 C 302.462 -0.477172 -2.28572 0
M  V30 3044 C 303.443 0.472032 -1.63419 0
M  V30 3045 O 304.628 0.372853 -1.90587 0
M  V30 3046 C 301.758 0.253975 -3.4637 0
M  V30 3047 C 300.712 -0.609135 -4.23643 0
M  V30 3048 C 300.038 0.252252 -5.34105 0
M  V30 3049 C 301.338 -1.8829 -4.8718 0
M  V30 3050 H 303.032 -1.33402 -2.68038 0
M  V30 3051 H 300.578 -0.642904 -1.28852 0
M  V30 3052 H 302.531 0.593016 -4.17207 0
M  V30 3053 H 301.255 1.145 -3.05871 0
M  V30 3054 H 299.914 -0.931138 -3.54578 0
M  V30 3055 H 299.562 1.14278 -4.89846 0
M  V30 3056 H 299.262 -0.32188 -5.86718 0
M  V30 3057 H 300.786 0.586454 -6.07777 0
M  V30 3058 H 302.2 -1.61081 -5.50205 0
M  V30 3059 H 300.597 -2.40199 -5.49931 0
M  V30 3060 H 301.667 -2.59134 -4.09851 0
M  V30 3061 N 303.011 1.40521 -0.713556 0
M  V30 3062 C 303.958 2.30723 -0.059684 0
M  V30 3063 C 304.928 1.48079 0.752448 0
M  V30 3064 O 306.113 1.76823 0.71681 0
M  V30 3065 C 303.253 3.34274 0.857594 0
M  V30 3066 C 302.366 4.31986 0.0351536 0
M  V30 3067 C 301.501 5.22605 0.951724 0
M  V30 3068 C 300.54 6.11976 0.123253 0
M  V30 3069 N 299.677 6.9502 0.99459 0
M  V30 3070 H 304.517 2.86074 -0.834596 0
M  V30 3071 H 302.054 1.40879 -0.42326 0
M  V30 3072 H 304.012 3.92879 1.40364 0
M  V30 3073 H 302.642 2.8043 1.59871 0
M  V30 3074 H 301.694 3.7518 -0.628052 0
M  V30 3075 H 303.006 4.95101 -0.606347 0
M  V30 3076 H 302.16 5.86131 1.56638 0
M  V30 3077 H 300.899 4.59759 1.62705 0
M  V30 3078 H 299.904 5.47482 -0.50435 0
M  V30 3079 H 301.129 6.76881 -0.548539 0
M  V30 3080 H 299.075 6.34764 1.6556 0
M  V30 3081 H 298.992 7.54892 0.40908 0
M  V30 3082 H 300.26 7.62997 1.59549 0
M  V30 3083 N 304.489 0.459591 1.5075 0
M  V30 3084 C 305.736 -0.0993495 2.02256 0
M  V30 3085 C 306.064 -1.40751 1.34237 0
M  V30 3086 O 305.319 -1.90379 0.453228 0
M  V30 3087 C 305.618 -0.342866 3.55752 0
M  V30 3088 C 305.284 0.88218 4.42186 0
M  V30 3089 C 303.946 1.21808 4.65528 0
M  V30 3090 C 306.298 1.69837 4.92752 0
M  V30 3091 C 303.626 2.37045 5.36681 0
M  V30 3092 C 305.978 2.84192 5.65171 0
M  V30 3093 C 304.642 3.1821 5.8677 0
M  V30 3094 H 303.912 -0.0363545 0.740108 0
M  V30 3095 H 306.559 0.611329 1.8148 0
M  V30 3096 H 304.864 -1.13567 3.7498 0
M  V30 3097 H 306.561 -0.789121 3.93159 0
M  V30 3098 H 303.151 0.610467 4.2423 0
M  V30 3099 H 307.335 1.45205 4.74583 0
M  V30 3100 H 302.591 2.63689 5.51614 0
M  V30 3101 H 306.765 3.4779 6.03337 0
M  V30 3102 H 304.392 4.07613 6.41682 0
M  V30 3103 N 305.967 -1.56429 0.191757 0
M  V30 3104 C 306.93 -2.17707 -0.716688 0
M  V30 3105 C 307.93 -1.13061 -1.14341 0
M  V30 3106 O 309.12 -1.38464 -1.05704 0
M  V30 3107 C 306.252 -2.77644 -1.97804 0
M  V30 3108 H 307.445 -2.99342 -0.1829 0
M  V30 3109 H 304.998 -1.56193 -0.0578566 0
M  V30 3110 H 305.733 -1.99799 -2.55443 0
M  V30 3111 H 305.518 -3.54246 -1.68083 0
M  V30 3112 H 307.008 -3.24708 -2.62592 0
M  V30 3113 N 307.445 0.0818655 -1.57387 0
M  V30 3114 C 308.392 1.09834 -2.0299 0
M  V30 3115 C 309.362 1.39043 -0.908639 0
M  V30 3116 O 310.547 1.50282 -1.17559 0
M  V30 3117 C 307.687 2.40971 -2.47037 0
M  V30 3118 C 306.8 2.18379 -3.7274 0
M  V30 3119 C 305.935 3.43008 -4.0561 0
M  V30 3120 C 304.974 3.15736 -5.24383 0
M  V30 3121 N 304.111 4.32667 -5.52941 0
M  V30 3122 H 308.951 0.702472 -2.89602 0
M  V30 3123 H 306.488 0.33531 -1.43227 0
M  V30 3124 H 308.446 3.1752 -2.70623 0
M  V30 3125 H 307.076 2.78379 -1.63417 0
M  V30 3126 H 306.128 1.32569 -3.56552 0
M  V30 3127 H 307.44 1.94227 -4.59431 0
M  V30 3128 H 306.594 4.27958 -4.30043 0
M  V30 3129 H 305.333 3.70225 -3.17466 0
M  V30 3130 H 304.338 2.2918 -4.99757 0
M  V30 3131 H 305.563 2.8985 -6.14136 0
M  V30 3132 H 303.509 4.59935 -4.67756 0
M  V30 3133 H 303.426 4.11753 -6.34031 0
M  V30 3134 H 304.694 5.18644 -5.81918 0
M  V30 3135 N 308.923 1.53595 0.353017 0
M  V30 3136 C 310.2 1.61002 1.11075 0
M  V30 3137 C 310.58 0.425356 2.0677 0
M  V30 3138 O 309.928 -0.583267 2.2093 0
M  V30 3139 C 310.138 2.96631 1.83877 0
M  V30 3140 C 311.486 3.51653 2.37961 0
M  V30 3141 O 312.51 2.98743 1.93987 0
M  V30 3142 O 311.369 4.44177 3.18386 0
M  V30 3143 H 308.463 0.650825 0.510251 0
M  V30 3144 H 311.009 1.6594 0.35527 0
M  V30 3145 H 309.781 3.74293 1.14108 0
M  V30 3146 H 309.404 2.95242 2.66304 0
M  V30 3147 N 310.401 -0.613514 1.45168 0
M  V30 3148 C 311.364 -1.7065 1.53007 0
M  V30 3149 C 312.364 -1.5548 0.410184 0
M  V30 3150 O 313.554 -1.60656 0.673455 0
M  V30 3151 C 310.686 -3.09875 1.42093 0
M  V30 3152 H 311.879 -1.65068 2.50385 0
M  V30 3153 H 309.432 -0.828728 1.32521 0
M  V30 3154 H 310.167 -3.21039 0.458769 0
M  V30 3155 H 309.952 -3.22293 2.23315 0
M  V30 3156 H 311.442 -3.895 1.50598 0
M  V30 3157 N 311.879 -1.3236 -0.855495 0
M  V30 3158 C 312.842 -1.21164 -1.94556 0
M  V30 3159 C 313.842 -0.134908 -1.60233 0
M  V30 3160 O 315.032 -0.385249 -1.69887 0
M  V30 3161 C 312.164 -0.863192 -3.29791 0
M  V30 3162 H 313.357 -2.18038 -2.05911 0
M  V30 3163 H 310.91 -1.16179 -1.04557 0
M  V30 3164 H 311.645 0.103769 -3.24134 0
M  V30 3165 H 311.43 -1.64166 -3.56078 0
M  V30 3166 H 312.92 -0.809156 -4.09686 0
M  V30 3167 N 313.357 1.07166 -1.15556 0
M  V30 3168 C 314.605 1.79443 -0.929764 0
M  V30 3169 C 314.926 1.87246 0.544414 0
M  V30 3170 O 314.196 1.37473 1.39564 0
M  V30 3171 H 312.776 0.664625 -0.341003 0
M  V30 3172 H 315.438 1.29499 -1.45657 0
M  V30 3173 H 314.534 2.81832 -1.34079 0
M  V30 3174 N 314.835 0.952656 1.25548 0
M  V30 3175 C 315.798 0.475794 2.24207 0
M  V30 3176 C 316.798 -0.419428 1.55234 0
M  V30 3177 O 317.988 -0.216994 1.72843 0
M  V30 3178 C 315.12 -0.312814 3.39462 0
M  V30 3179 H 316.313 1.34779 2.67908 0
M  V30 3180 H 313.866 0.735739 1.37901 0
M  V30 3181 H 314.601 -1.20257 3.01179 0
M  V30 3182 H 314.386 0.329404 3.90714 0
M  V30 3183 H 315.876 -0.635986 4.12729 0
M  V30 3184 N 316.313 -1.40141 0.720998 0
M  V30 3185 C 317.261 -2.3252 0.0608547 0
M  V30 3186 C 318.255 -1.52326 -0.741152 0
M  V30 3187 O 319.461 -1.68089 -0.643911 0
M  V30 3188 H 315.836 -0.751999 0.000876664 0
M  V30 3189 H 317.807 -2.8584 0.856614 0
M  V30 3190 C 316.556 -3.37331 -0.842809 0
M  V30 3191 H 315.879 -3.99108 -0.235084 0
M  V30 3192 H 317.319 -4.04452 -1.27257 0
M  V30 3193 C 315.778 -2.73246 -1.97074 0
M  V30 3194 O 316.308 -2.59998 -3.06209 0
M  V30 3195 N 314.514 -2.31547 -1.75597 0
M  V30 3196 H 314.061 -2.42522 -0.868368 0
M  V30 3197 H 314.019 -1.89007 -2.51244 0
M  V30 3198 N 317.792 -0.46758 -1.50504 0
M  V30 3199 C 319.04 0.0884469 -2.01906 0
M  V30 3200 C 319.361 1.40532 -1.35188 0
M  V30 3201 O 318.631 1.89515 -0.496079 0
M  V30 3202 H 317.211 0.0356765 -0.746148 0
M  V30 3203 H 319.873 -0.6172 -1.84869 0
M  V30 3204 H 318.969 0.2425 -3.11156 0
M  V30 3205 N 319.27 1.56325 -0.20005 0
M  V30 3206 C 320.547 1.89484 0.48529 0
M  V30 3207 C 320.927 1.1143 1.79294 0
M  V30 3208 O 320.275 0.216919 2.27468 0
M  V30 3209 C 320.485 3.41923 0.699243 0
M  V30 3210 C 321.833 4.12256 1.01638 0
M  V30 3211 O 322.857 3.47402 0.786792 0
M  V30 3212 O 321.716 5.26887 1.45095 0
M  V30 3213 H 318.81 0.787144 0.253639 0
M  V30 3214 H 321.356 1.67985 -0.240633 0
M  V30 3215 H 320.128 3.90658 -0.224008 0
M  V30 3216 H 319.751 3.69131 1.47744 0
M  V30 3217 N 320.748 -0.0735177 1.57428 0
M  V30 3218 C 321.976 -0.785969 1.9139 0
M  V30 3219 C 322.391 -1.71207 0.795847 0
M  V30 3220 O 321.748 -1.81033 -0.230915 0
M  V30 3221 C 321.799 -1.58107 3.25091 0
M  V30 3222 O 321.52 -0.6922 4.32597 0
M  V30 3223 C 323.021 -2.39467 3.73055 0
M  V30 3224 H 320.241 -0.223558 0.632663 0
M  V30 3225 H 322.785 -0.044302 2.04452 0
M  V30 3226 H 320.94 -2.27503 3.13562 0
M  V30 3227 H 321.354 -1.24504 5.09508 0
M  V30 3228 H 322.828 -2.90716 4.69242 0
M  V30 3229 H 323.305 -3.18913 3.01979 0
M  V30 3230 H 323.911 -1.7523 3.87523 0
M  V30 3231 N 322.226 -1.5378 -0.344866 0
M  V30 3232 C 323.454 -1.74899 -1.10534 0
M  V30 3233 C 323.869 -0.487534 -1.82397 0
M  V30 3234 O 323.226 0.540741 -1.74305 0
M  V30 3235 C 323.277 -2.92822 -2.11984 0
M  V30 3236 O 322.998 -4.14089 -1.43044 0
M  V30 3237 C 324.499 -3.25982 -3.00417 0
M  V30 3238 H 321.719 -0.584426 -0.329678 0
M  V30 3239 H 324.263 -2.006 -0.397474 0
M  V30 3240 H 322.418 -2.69457 -2.78338 0
M  V30 3241 H 322.832 -4.80272 -2.10805 0
M  V30 3242 H 324.306 -4.11848 -3.67539 0
M  V30 3243 H 324.783 -2.42228 -3.66363 0
M  V30 3244 H 325.389 -3.51349 -2.39654 0
M  V30 3245 N 323.704 0.605807 -1.45491 0
M  V30 3246 C 324.95 1.36679 -1.49823 0
M  V30 3247 C 325.283 1.93693 -0.140175 0
M  V30 3248 O 324.558 1.75158 0.845581 0
M  V30 3249 C 324.841 2.51337 -2.57879 0
M  V30 3250 C 324.694 1.99508 -4.03134 0
M  V30 3251 C 326.013 3.53463 -2.62205 0
M  V30 3252 H 323.132 0.495617 -0.545466 0
M  V30 3253 H 325.774 0.682732 -1.7731 0
M  V30 3254 H 323.924 3.09691 -2.34571 0
M  V30 3255 H 325.596 1.45789 -4.37656 0
M  V30 3256 H 323.839 1.30496 -4.13707 0
M  V30 3257 H 324.51 2.82169 -4.74431 0
M  V30 3258 H 326.986 3.04953 -2.83095 0
M  V30 3259 H 325.862 4.31178 -3.39672 0
M  V30 3260 H 326.123 4.09197 -1.67363 0
M  V30 3261 N 325.182 1.32811 0.848464 0
M  V30 3262 C 326.132 1.18842 1.94578 0
M  V30 3263 C 327.116 0.0937517 1.60627 0
M  V30 3264 O 328.308 0.320887 1.74067 0
M  V30 3265 C 325.437 0.91999 3.30743 0
M  V30 3266 C 324.523 2.05665 3.70894 0
M  V30 3267 N 324.914 3.30579 3.8282 0
M  V30 3268 C 323.212 1.9612 4.00566 0
M  V30 3269 C 323.913 4.05067 4.17487 0
M  V30 3270 N 322.889 3.33419 4.2934 0
M  V30 3271 H 326.691 2.13536 2.0194 0
M  V30 3272 H 324.205 1.2468 1.0406 0
M  V30 3273 H 326.202 0.800859 4.09136 0
M  V30 3274 H 324.862 -0.0185076 3.24695 0
M  V30 3275 H 325.873 3.65441 3.66978 0
M  V30 3276 H 322.55 1.09871 4.02784 0
M  V30 3277 H 323.94 5.12815 4.34131 0
M  V30 3278 N 326.66 -1.06551 1.16123 0
M  V30 3279 C 327.59 -2.15935 0.88851 0
M  V30 3280 C 328.571 -1.69306 -0.164135 0
M  V30 3281 O 329.756 -1.94193 -0.0167857 0
M  V30 3282 C 326.886 -3.45149 0.385942 0
M  V30 3283 C 325.84 -4.05271 1.3762 0
M  V30 3284 C 325.166 -5.29664 0.732137 0
M  V30 3285 C 326.466 -4.44355 2.74493 0
M  V30 3286 H 328.16 -2.39006 1.80323 0
M  V30 3287 H 325.706 -1.14866 0.868435 0
M  V30 3288 H 327.659 -4.21004 0.182647 0
M  V30 3289 H 326.383 -3.21689 -0.564274 0
M  V30 3290 H 325.042 -3.3147 1.56599 0
M  V30 3291 H 324.69 -5.02499 -0.224483 0
M  V30 3292 H 324.39 -5.70848 1.39307 0
M  V30 3293 H 325.914 -6.08218 0.538802 0
M  V30 3294 H 327.328 -5.11303 2.59311 0
M  V30 3295 H 325.725 -4.96515 3.37035 0
M  V30 3296 H 326.795 -3.55339 3.29943 0
M  V30 3297 N 328.138 -0.959301 -1.25041 0
M  V30 3298 C 329.086 -0.474437 -2.2771 0
M  V30 3299 C 330.08 0.457697 -1.631 0
M  V30 3300 O 331.286 0.333912 -1.76876 0
M  V30 3301 H 327.661 -0.134936 -0.739795 0
M  V30 3302 H 329.632 -1.35251 -2.65988 0
M  V30 3303 C 328.381 0.227884 -3.46952 0
M  V30 3304 H 327.704 -0.480248 -3.96905 0
M  V30 3305 H 329.144 0.531091 -4.20661 0
M  V30 3306 C 327.603 1.452 -3.04004 0
M  V30 3307 O 328.133 2.54949 -3.10426 0
M  V30 3308 N 326.339 1.31502 -2.59144 0
M  V30 3309 H 325.886 0.422065 -2.54119 0
M  V30 3310 H 325.844 2.13521 -2.30773 0
M  V30 3311 N 329.616 1.39756 -0.72842 0
M  V30 3312 C 330.864 2.00248 -0.272946 0
M  V30 3313 C 331.185 1.58077 1.14178 0
M  V30 3314 O 330.455 0.826014 1.77634 0
M  V30 3315 H 329.035 0.740554 -0.0979247 0
M  V30 3316 H 331.697 1.70903 -0.936912 0
M  V30 3317 H 330.793 3.10495 -0.316142 0
M  V30 3318 N 331.094 0.475555 1.50254 0
M  V30 3319 C 332.343 -0.0795996 2.01543 0
M  V30 3320 C 332.656 -1.4038 1.36209 0
M  V30 3321 O 333.862 -2.04415 1.7868 0
M  V30 3322 C 332.318 -0.192363 3.59386 0
M  V30 3323 C 331.926 1.12367 4.33679 0
M  V30 3324 C 333.67 -0.699238 4.18701 0
M  V30 3325 C 331.577 0.974453 5.83317 0
M  V30 3326 H 330.507 -0.0335228 0.753254 0
M  V30 3327 H 333.158 0.611128 1.73025 0
M  V30 3328 H 331.54 -0.946974 3.84511 0
M  V30 3329 H 332.714 1.88958 4.20276 0
M  V30 3330 H 331.029 1.562 3.85993 0
M  V30 3331 H 333.626 -0.827978 5.28251 0
M  V30 3332 H 333.969 -1.69171 3.80377 0
M  V30 3333 H 334.502 -0.00188807 3.978 0
M  V30 3334 H 331.241 1.94042 6.26121 0
M  V30 3335 H 330.761 0.248998 5.99283 0
M  V30 3336 H 332.44 0.642867 6.43798 0
M  V30 3337 N 332.573 -1.56217 0.208337 0
M  V30 3338 C 333.821 -1.97558 -0.426076 0
M  V30 3339 C 334.142 -1.09683 -1.61229 0
M  V30 3340 O 333.412 -0.170956 -1.95153 0
M  V30 3341 H 331.992 -0.729575 -0.160405 0
M  V30 3342 H 334.654 -1.92606 0.298155 0
M  V30 3343 H 333.75 -3.02672 -0.761312 0
M  V30 3344 N 334.051 0.0651679 -1.57465 0
M  V30 3345 C 335.276 0.779605 -1.9219 0
M  V30 3346 C 335.701 1.69988 -0.805333 0
M  V30 3347 O 335.059 1.79685 0.241435 0
M  V30 3348 C 335.107 1.54364 -3.2589 0
M  V30 3349 O 334.211 2.65474 -3.1559 0
M  V30 3350 H 333.552 0.212249 -0.629163 0
M  V30 3351 H 336.082 0.0314294 -2.04576 0
M  V30 3352 H 336.092 1.92146 -3.59922 0
M  V30 3353 H 334.767 0.868457 -4.06732 0
M  V30 3354 H 333.344 2.30501 -2.93128 0
M  V30 3355 N 335.529 1.53961 0.336706 0
M  V30 3356 C 336.757 1.75483 1.09605 0
M  V30 3357 C 337.172 0.4972 1.82136 0
M  V30 3358 O 336.529 -0.53149 1.74589 0
M  V30 3359 C 336.58 2.93943 2.10428 0
M  V30 3360 O 336.301 4.14842 1.40846 0
M  V30 3361 C 337.802 3.27571 2.98684 0
M  V30 3362 H 335.022 0.586166 0.326574 0
M  V30 3363 H 337.566 2.00808 0.38683 0
M  V30 3364 H 335.721 2.70929 2.76905 0
M  V30 3365 H 336.135 4.81383 2.08255 0
M  V30 3366 H 337.609 4.13791 3.6535 0
M  V30 3367 H 338.086 2.44168 3.65074 0
M  V30 3368 H 338.692 3.52615 2.37787 0
M  V30 3369 N 337.007 -0.598083 1.45811 0
M  V30 3370 C 337.937 -1.71873 1.58057 0
M  V30 3371 C 338.918 -1.64533 0.431615 0
M  V30 3372 O 340.103 -1.82787 0.65595 0
M  V30 3373 C 337.233 -3.10495 1.55597 0
M  V30 3374 C 336.187 -3.32654 2.69305 0
M  V30 3375 C 335.513 -4.71646 2.51902 0
M  V30 3376 C 336.813 -3.21981 4.11248 0
M  V30 3377 H 338.507 -1.61881 2.51863 0
M  V30 3378 H 336.053 -0.777372 1.21214 0
M  V30 3379 H 338.006 -3.88699 1.6276 0
M  V30 3380 H 336.73 -3.2135 0.583255 0
M  V30 3381 H 335.389 -2.56843 2.61586 0
M  V30 3382 H 335.037 -4.79246 1.52748 0
M  V30 3383 H 334.737 -4.87426 3.2816 0
M  V30 3384 H 336.261 -5.52038 2.60933 0
M  V30 3385 H 337.675 -3.90049 4.20161 0
M  V30 3386 H 336.072 -3.49289 4.87972 0
M  V30 3387 H 337.142 -2.1928 4.32486 0
M  V30 3388 N 338.485 -1.33259 -0.841409 0
M  V30 3389 C 339.713 -1.27605 -1.62864 0
M  V30 3390 C 340.128 0.153507 -1.88175 0
M  V30 3391 O 339.485 1.09485 -1.46011 0
M  V30 3392 C 339.536 -2.04596 -2.98031 0
M  V30 3393 O 339.257 -3.41975 -2.73834 0
M  V30 3394 C 340.758 -2.06122 -3.92465 0
M  V30 3395 H 337.978 -0.439718 -0.506842 0
M  V30 3396 H 340.522 -1.75591 -1.04824 0
M  V30 3397 H 338.677 -1.60299 -3.5268 0
M  V30 3398 H 339.091 -3.81549 -3.59889 0
M  V30 3399 H 340.565 -2.64451 -4.84531 0
M  V30 3400 H 341.042 -1.05083 -4.26444 0
M  V30 3401 H 341.648 -2.50427 -3.43753 0
M  V30 3402 N 339.963 1.05934 -1.16686 0
M  V30 3403 C 341.24 1.75643 -0.860747 0
M  V30 3404 C 341.62 2.01144 0.640641 0
M  V30 3405 O 340.968 1.64147 1.58959 0
M  V30 3406 C 341.178 3.05493 -1.68745 0
M  V30 3407 C 342.526 3.79581 -1.90271 0
M  V30 3408 O 343.55 3.15344 -1.65641 0
M  V30 3409 O 342.409 4.9499 -2.31618 0
M  V30 3410 H 339.503 0.763426 -0.317977 0
M  V30 3411 H 342.049 1.1217 -1.27342 0
M  V30 3412 H 340.821 2.8264 -2.70611 0
M  V30 3413 H 340.444 3.76702 -1.27206 0
M  V30 3414 N 341.441 0.965919 1.2453 0
M  V30 3415 C 342.669 0.644385 1.96609 0
M  V30 3416 C 343.084 -0.785823 1.71669 0
M  V30 3417 O 342.441 -1.52703 0.999399 0
M  V30 3418 C 342.492 0.907375 3.49927 0
M  V30 3419 O 342.213 2.28136 3.74013 0
M  V30 3420 C 343.714 0.599784 4.39224 0
M  V30 3421 H 340.934 0.240588 0.626385 0
M  V30 3422 H 343.478 1.29337 1.58405 0
M  V30 3423 H 341.633 0.304631 3.862 0
M  V30 3424 H 342.047 2.36002 4.68405 0
M  V30 3425 H 343.521 0.834263 5.45659 0
M  V30 3426 H 343.998 -0.465921 4.36722 0
M  V30 3427 H 344.604 1.18235 4.08535 0
M  V30 3428 N 342.919 -1.39368 0.735821 0
M  V30 3429 C 343.849 -2.33234 0.111506 0
M  V30 3430 C 344.83 -1.53954 -0.723334 0
M  V30 3431 O 346.015 -1.82344 -0.668147 0
M  V30 3432 C 343.145 -3.38057 -0.795917 0
M  V30 3433 C 342.099 -4.2795 -0.065172 0
M  V30 3434 C 341.425 -5.23479 -1.08967 0
M  V30 3435 C 342.725 -5.10741 1.09273 0
M  V30 3436 H 344.419 -2.85692 0.895571 0
M  V30 3437 H 341.965 -1.37364 0.432109 0
M  V30 3438 H 343.918 -4.02675 -1.24221 0
M  V30 3439 H 342.642 -2.8404 -1.61211 0
M  V30 3440 H 341.301 -3.64813 0.361511 0
M  V30 3441 H 340.949 -4.65758 -1.89944 0
M  V30 3442 H 340.649 -5.84472 -0.605489 0
M  V30 3443 H 342.173 -5.90974 -1.53565 0
M  V30 3444 H 343.587 -5.68699 0.724841 0
M  V30 3445 H 341.984 -5.8088 1.50659 0
M  V30 3446 H 343.054 -4.45525 1.91404 0
M  V30 3447 N 344.397 -0.483516 -1.5 0
M  V30 3448 C 345.643 0.0672592 -2.02688 0
M  V30 3449 C 345.976 1.38247 -1.36387 0
M  V30 3450 O 345.251 1.88131 -0.493675 0
M  V30 3451 C 345.534 0.238109 -3.59312 0
M  V30 3452 C 345.387 -1.099 -4.36168 0
M  V30 3453 C 346.706 0.986916 -4.28892 0
M  V30 3454 H 343.825 0.0229696 -0.736642 0
M  V30 3455 H 346.467 -0.631527 -1.79197 0
M  V30 3456 H 344.617 0.8333 -3.79458 0
M  V30 3457 H 346.289 -1.73172 -4.27562 0
M  V30 3458 H 344.532 -1.69261 -3.99416 0
M  V30 3459 H 345.203 -0.932954 -5.44059 0
M  V30 3460 H 347.679 0.482302 -4.13295 0
M  V30 3461 H 346.555 1.07527 -5.38265 0
M  V30 3462 H 346.816 2.0265 -3.92919 0
M  V30 3463 N 345.875 1.56104 -0.216619 0
M  V30 3464 C 347.123 1.97781 0.415593 0
M  V30 3465 C 347.444 1.10536 1.60645 0
M  V30 3466 O 346.714 0.181303 1.95059 0
M  V30 3467 H 345.294 0.730415 0.156534 0
M  V30 3468 H 347.956 1.92445 -0.308366 0
M  V30 3469 H 347.052 3.03072 0.74525 0
M  V30 3470 N 347.353 -0.0568162 1.57498 0
M  V30 3471 C 348.578 -0.769402 1.92601 0
M  V30 3472 C 349.003 -1.69559 0.814336 0
M  V30 3473 O 348.361 -1.79811 -0.231903 0
M  V30 3474 C 348.409 -1.52634 3.26704 0
M  V30 3475 O 347.513 -2.63797 3.16994 0
M  V30 3476 H 346.854 -0.208909 0.63028 0
M  V30 3477 H 349.384 -0.0205798 2.0459 0
M  V30 3478 H 349.394 -1.90234 3.60936 0
M  V30 3479 H 348.069 -0.846875 4.07186 0
M  V30 3480 H 346.646 -2.28943 2.94346 0
M  V30 3481 N 348.832 -1.54138 -0.328536 0
M  V30 3482 C 350.243 -1.63395 -0.903272 0
M  V30 3483 C 350.594 -0.524828 -1.8905 0
M  V30 3484 O 349.719 0.343068 -2.13663 0
M  V30 3485 C 350.314 -2.9618 -1.64507 0
M  V30 3486 C 348.873 -3.0765 -2.1686 0
M  V30 3487 C 348.02 -2.58933 -0.992416 0
M  V30 3488 H 350.971 -1.58344 -0.106253 0
M  V30 3489 H 350.992 -2.86061 -2.50897 0
M  V30 3490 H 350.504 -3.76884 -0.926302 0
M  V30 3491 H 348.605 -2.31611 -2.91868 0
M  V30 3492 H 348.718 -4.1337 -2.42202 0
M  V30 3493 H 347.082 -2.14706 -1.37016 0
M  V30 3494 H 347.865 -3.42089 -0.288041 0
M  V30 3495 N 350.31 0.590341 -1.46126 0
M  V30 3496 C 351.273 1.68194 -1.55703 0
M  V30 3497 C 352.273 1.54808 -0.434868 0
M  V30 3498 O 353.463 1.59564 -0.698928 0
M  V30 3499 C 350.595 3.07575 -1.47005 0
M  V30 3500 H 351.788 1.61064 -2.52979 0
M  V30 3501 H 349.341 0.807541 -1.33823 0
M  V30 3502 H 350.076 3.20268 -0.509785 0
M  V30 3503 H 349.861 3.187 -2.28414 0
M  V30 3504 H 351.351 3.87055 -1.56776 0
M  V30 3505 N 351.788 1.33704 0.83433 0
M  V30 3506 C 353.016 1.28467 1.62185 0
M  V30 3507 C 353.431 -0.143526 1.88254 0
M  V30 3508 O 352.788 -1.08709 1.4659 0
M  V30 3509 C 352.839 2.06174 2.96942 0
M  V30 3510 O 352.56 3.43422 2.72016 0
M  V30 3511 C 354.061 2.08201 3.91366 0
M  V30 3512 H 351.281 0.4424 0.504503 0
M  V30 3513 H 353.825 1.76145 1.03891 0
M  V30 3514 H 351.98 1.62167 3.51825 0
M  V30 3515 H 352.394 3.83453 3.57861 0
M  V30 3516 H 353.868 2.67017 4.83121 0
M  V30 3517 H 354.345 1.07343 4.2588 0
M  V30 3518 H 354.951 2.52246 3.42421 0
M  V30 3519 N 353.266 -1.05314 1.17247 0
M  V30 3520 C 354.216 -2.11313 0.856196 0
M  V30 3521 C 355.2 -1.60013 -0.168694 0
M  V30 3522 O 356.392 -1.76968 0.0335624 0
M  V30 3523 C 353.521 -3.41301 0.369917 0
M  V30 3524 C 352.607 -3.99401 1.42616 0
M  V30 3525 N 352.998 -4.31481 2.63928 0
M  V30 3526 C 351.296 -4.27126 1.28373 0
M  V30 3527 C 351.997 -4.77799 3.31787 0
M  V30 3528 N 350.973 -4.77843 2.59166 0
M  V30 3529 H 354.775 -2.33976 1.77856 0
M  V30 3530 H 352.289 -1.2295 1.06099 0
M  V30 3531 H 354.286 -4.16713 0.124897 0
M  V30 3532 H 352.946 -3.20072 -0.546253 0
M  V30 3533 H 353.957 -4.21519 3.00902 0
M  V30 3534 H 350.634 -4.15289 0.429111 0
M  V30 3535 H 352.024 -5.11743 4.35395 0
M  V30 3536 N 354.744 -0.972509 -1.24016 0
M  V30 3537 C 355.993 -0.632603 -1.91523 0
M  V30 3538 C 356.306 0.836641 -1.76804 0
M  V30 3539 O 357.512 1.28728 -2.39043 0
M  V30 3540 C 355.968 -1.08082 -3.43287 0
M  V30 3541 C 355.576 -2.57386 -3.66683 0
M  V30 3542 C 357.32 -0.814288 -4.16617 0
M  V30 3543 C 355.227 -2.95915 -5.12043 0
M  V30 3544 H 354.157 -0.232898 -0.717129 0
M  V30 3545 H 356.808 -1.17936 -1.40582 0
M  V30 3546 H 355.19 -0.462339 -3.93292 0
M  V30 3547 H 356.364 -3.24405 -3.27258 0
M  V30 3548 H 354.679 -2.81701 -3.06649 0
M  V30 3549 H 357.276 -1.0781 -5.23718 0
M  V30 3550 H 357.619 0.24955 -4.15551 0
M  V30 3551 H 358.152 -1.39397 -3.72577 0
M  V30 3552 H 354.891 -4.0139 -5.18234 0
M  V30 3553 H 354.411 -2.33584 -5.52448 0
M  V30 3554 H 356.09 -2.86086 -5.80314 0
M  V30 3555 N 356.222 1.38976 -0.743202 0
M  V30 3556 C 357.499 1.94351 -0.220705 0
M  V30 3557 C 357.879 1.67935 1.2791 0
M  V30 3558 O 357.227 1.01211 2.04862 0
M  V30 3559 C 357.437 3.44426 -0.563171 0
M  V30 3560 C 358.785 4.2144 -0.517046 0
M  V30 3561 O 359.809 3.52661 -0.500846 0
M  V30 3562 O 358.668 5.44032 -0.518806 0
M  V30 3563 H 355.762 0.825879 -0.043047 0
M  V30 3564 H 358.308 1.48429 -0.822618 0
M  V30 3565 H 357.08 3.5712 -1.59941 0
M  V30 3566 H 356.703 3.97543 0.0672883 0
M  V30 3567 N 357.7 0.491464 1.49741 0
M  V30 3568 C 358.948 -0.0563141 2.02022 0
M  V30 3569 C 359.269 -1.38363 1.37407 0
M  V30 3570 O 358.539 -1.88702 0.526166 0
M  V30 3571 H 357.119 -0.0238014 0.746621 0
M  V30 3572 H 359.781 0.646533 1.83864 0
M  V30 3573 H 358.877 -0.192967 3.11503 0
M  V30 3574 N 359.178 -1.55987 0.224894 0
M  V30 3575 C 360.426 -1.97998 -0.405099 0
M  V30 3576 C 360.747 -1.11387 -1.60056 0
M  V30 3577 O 360.017 -0.191645 -1.9496 0
M  V30 3578 H 358.597 -0.731235 -0.152658 0
M  V30 3579 H 361.259 -1.92279 0.318567 0
M  V30 3580 H 360.355 -3.03463 -0.729167 0
M  V30 3581 N 360.656 0.0484629 -1.57525 0
M  V30 3582 C 361.933 0.777447 -1.79486 0
M  V30 3583 C 362.313 1.94597 -0.818251 0
M  V30 3584 O 361.661 2.28047 0.143767 0
M  V30 3585 C 361.871 1.22864 -3.26658 0
M  V30 3586 C 363.219 1.65251 -3.91123 0
M  V30 3587 O 364.243 1.32372 -3.3069 0
M  V30 3588 O 363.102 2.26207 -4.97486 0
M  V30 3589 H 360.196 0.374357 -0.737419 0
M  V30 3590 H 362.742 0.0267359 -1.69679 0
M  V30 3591 H 361.514 0.393589 -3.89316 0
M  V30 3592 H 361.137 2.03996 -3.41279 0
M  V30 3593 N 362.134 1.5431 0.320358 0
M  V30 3594 C 363.066 1.80262 1.41556 0
M  V30 3595 C 364.079 0.684723 1.477 0
M  V30 3596 O 365.268 0.961886 1.50366 0
M  V30 3597 C 362.368 1.90825 2.8007 0
M  V30 3598 C 361.541 3.21023 2.97091 0
M  V30 3599 C 360.6 3.22247 4.15985 0
M  V30 3600 O 359.626 3.95871 4.08992 0
M  V30 3601 N 360.828 2.46258 5.25678 0
M  V30 3602 H 363.593 2.74778 1.19655 0
M  V30 3603 H 361.154 1.53646 0.510358 0
M  V30 3604 H 363.146 1.89067 3.57821 0
M  V30 3605 H 361.716 1.03392 2.95006 0
M  V30 3606 H 360.936 3.35715 2.06614 0
M  V30 3607 H 362.224 4.0698 3.05361 0
M  V30 3608 H 361.622 1.86037 5.34235 0
M  V30 3609 H 360.179 2.50275 6.01835 0
M  V30 3610 N 363.613 -0.582584 1.46437 0
M  V30 3611 C 364.838 -1.37168 1.55563 0
M  V30 3612 C 365.263 -1.87061 0.19743 0
M  V30 3613 O 364.621 -1.61572 -0.822451 0
M  V30 3614 C 364.669 -2.53511 2.56446 0
M  V30 3615 O 363.773 -3.54953 2.09958 0
M  V30 3616 H 363.114 -0.408494 0.523477 0
M  V30 3617 H 365.644 -0.706646 1.9201 0
M  V30 3618 H 365.654 -3.00426 2.76058 0
M  V30 3619 H 364.329 -2.16549 3.55076 0
M  V30 3620 H 362.906 -3.14516 2.00334 0
M  V30 3621 N 365.091 -1.34144 -0.827227 0
M  V30 3622 C 366.319 -1.29325 -1.61501 0
M  V30 3623 C 366.734 0.13354 -1.88327 0
M  V30 3624 O 366.091 1.0793 -1.47164 0
M  V30 3625 C 366.142 -2.07746 -2.95844 0
M  V30 3626 O 365.863 -3.4486 -2.70191 0
M  V30 3627 C 367.364 -2.10273 -3.90256 0
M  V30 3628 H 364.584 -0.445069 -0.50215 0
M  V30 3629 H 367.128 -1.76693 -1.02955 0
M  V30 3630 H 365.283 -1.6403 -3.5096 0
M  V30 3631 H 365.697 -3.85345 -3.55822 0
M  V30 3632 H 367.171 -2.69575 -4.81698 0
M  V30 3633 H 367.648 -1.096 -4.25305 0
M  V30 3634 H 368.254 -2.54059 -3.41078 0
M  V30 3635 N 366.569 1.04691 -1.17803 0
M  V30 3636 C 367.519 2.10856 -0.867391 0
M  V30 3637 C 368.503 1.601 0.160206 0
M  V30 3638 O 369.695 1.76948 -0.042947 0
M  V30 3639 C 366.824 3.411 -0.388012 0
M  V30 3640 C 365.91 3.9864 -1.44732 0
M  V30 3641 N 366.301 4.30075 -2.66212 0
M  V30 3642 C 364.599 4.26439 -1.30637 0
M  V30 3643 C 365.3 4.76033 -3.34317 0
M  V30 3644 N 364.276 4.76462 -2.61696 0
M  V30 3645 H 368.078 2.33029 -1.79094 0
M  V30 3646 H 365.592 1.22386 -1.0675 0
M  V30 3647 H 367.589 4.16641 -0.146994 0
M  V30 3648 H 366.249 3.20357 0.529271 0
M  V30 3649 H 367.26 4.19917 -3.03134 0
M  V30 3650 H 363.937 4.15056 -0.451129 0
M  V30 3651 H 365.327 5.09427 -4.38103 0
M  V30 3652 N 368.047 0.979072 1.23499 0
M  V30 3653 C 369.277 0.664237 1.95631 0
M  V30 3654 C 369.685 -0.772653 1.72704 0
M  V30 3655 O 369.028 -1.53141 1.01457 0
M  V30 3656 C 369.09 0.873115 3.48736 0
M  V30 3657 C 368.754 2.29182 3.95379 0
M  V30 3658 C 369.751 3.2704 4.04155 0
M  V30 3659 C 367.436 2.62256 4.28401 0
M  V30 3660 C 369.43 4.56052 4.45304 0
M  V30 3661 C 367.117 3.91491 4.69231 0
M  V30 3662 C 368.115 4.88201 4.77649 0
M  V30 3663 O 367.803 6.15129 5.17563 0
M  V30 3664 H 367.535 0.245915 0.629684 0
M  V30 3665 H 370.089 1.3127 1.57979 0
M  V30 3666 H 368.319 0.167476 3.86337 0
M  V30 3667 H 370.008 0.555642 4.02079 0
M  V30 3668 H 370.774 3.02819 3.78848 0
M  V30 3669 H 366.653 1.87692 4.21061 0
M  V30 3670 H 370.197 5.31538 4.51789 0
M  V30 3671 H 366.094 4.15508 4.93987 0
M  V30 3672 H 366.862 6.18862 5.35679 0
M  V30 3673 N 369.525 -1.3858 0.750561 0
M  V30 3674 C 370.753 -2.04471 0.316098 0
M  V30 3675 C 371.168 -1.56606 -1.05452 0
M  V30 3676 O 370.525 -0.737784 -1.66922 0
M  V30 3677 C 370.576 -3.60025 0.326275 0
M  V30 3678 O 370.297 -4.06133 1.6428 0
M  V30 3679 C 371.798 -4.43131 -0.122429 0
M  V30 3680 H 369.018 -0.65717 0.135528 0
M  V30 3681 H 371.562 -1.77329 1.01857 0
M  V30 3682 H 369.717 -3.86014 -0.327431 0
M  V30 3683 H 370.131 -5.00547 1.56693 0
M  V30 3684 H 371.605 -5.51963 -0.0641473 0
M  V30 3685 H 372.082 -4.23333 -1.16988 0
M  V30 3686 H 372.688 -4.22323 0.50229 0
M  V30 3687 N 371.003 -0.499398 -1.49478 0
M  V30 3688 C 372.419 -0.155261 -1.58843 0
M  V30 3689 C 372.619 1.34008 -1.50479 0
M  V30 3690 O 371.675 2.11589 -1.37791 0
M  V30 3691 C 372.988 -0.730636 -2.91689 0
M  V30 3692 C 374.536 -0.696599 -3.0515 0
M  V30 3693 C 375.011 -1.25001 -4.40612 0
M  V30 3694 N 376.502 -1.21064 -4.47099 0
M  V30 3695 C 377.237 -1.60905 -5.50361 0
M  V30 3696 N 376.733 -2.08331 -6.60735 0
M  V30 3697 N 378.526 -1.52331 -5.41065 0
M  V30 3698 H 370.677 -1.47162 -1.53158 0
M  V30 3699 H 372.94 -0.610309 -0.725415 0
M  V30 3700 H 372.646 -1.77928 -3.03372 0
M  V30 3701 H 372.52 -0.190161 -3.7672 0
M  V30 3702 H 374.907 0.343204 -2.93097 0
M  V30 3703 H 374.988 -1.2742 -2.21806 0
M  V30 3704 H 374.632 -2.28859 -4.53416 0
M  V30 3705 H 374.562 -0.64836 -5.22593 0
M  V30 3706 H 377.053 -0.863128 -3.67911 0
M  V30 3707 H 377.366 -2.36805 -7.35624 0
M  V30 3708 H 375.711 -2.12304 -6.6178 0
M  V30 3709 H 378.902 -1.151 -4.53729 0
M  V30 3710 H 379.075 -1.83704 -6.21415 0
M  V30 3711 N 372.481 1.55866 -0.233164 0
M  V30 3712 C 373.444 2.1953 0.658715 0
M  V30 3713 C 374.444 1.16053 1.11303 0
M  V30 3714 O 375.634 1.41218 1.01996 0
M  V30 3715 C 372.766 2.82791 1.90373 0
M  V30 3716 H 373.959 2.99721 0.10347 0
M  V30 3717 H 371.512 1.56291 0.0164245 0
M  V30 3718 H 372.247 2.06501 2.50056 0
M  V30 3719 H 372.032 3.58578 1.58632 0
M  V30 3720 H 373.522 3.31556 2.53891 0
M  V30 3721 N 373.959 -0.0401083 1.57549 0
M  V30 3722 C 374.922 -1.02871 2.04817 0
M  V30 3723 C 375.922 -1.29708 0.950388 0
M  V30 3724 O 377.112 -1.24897 1.21435 0
M  V30 3725 C 374.244 -2.36443 2.45576 0
M  V30 3726 H 375.437 -0.620631 2.93408 0
M  V30 3727 H 372.99 -0.286667 1.53649 0
M  V30 3728 H 373.725 -2.82021 1.60108 0
M  V30 3729 H 373.51 -2.18296 3.25713 0
M  V30 3730 H 375 -3.07441 2.82612 0
M  V30 3731 N 375.437 -1.54477 -0.31217 0
M  V30 3732 C 376.662 -1.77526 -1.07235 0
M  V30 3733 C 377.087 -0.527775 -1.80544 0
M  V30 3734 O 376.445 0.52121 -1.73646 0
M  V30 3735 C 376.493 -2.97535 -2.03728 0
M  V30 3736 O 375.597 -2.69878 -3.11833 0
M  V30 3737 H 374.938 -0.58792 -0.30862 0
M  V30 3738 H 377.468 -2.01532 -0.352993 0
M  V30 3739 H 377.478 -3.25198 -2.46395 0
M  V30 3740 H 376.153 -3.87996 -1.49774 0
M  V30 3741 H 374.73 -2.53199 -2.7376 0
M  V30 3742 N 376.915 0.57481 -1.46744 0
M  V30 3743 C 378.164 1.32898 -1.51727 0
M  V30 3744 C 378.477 1.948 -0.176692 0
M  V30 3745 O 379.683 2.71299 -0.104385 0
M  V30 3746 C 378.139 2.40901 -2.67385 0
M  V30 3747 C 377.747 1.85266 -4.07898 0
M  V30 3748 C 379.491 3.17609 -2.81646 0
M  V30 3749 C 377.398 2.90945 -5.14883 0
M  V30 3750 H 376.328 0.499631 -0.564699 0
M  V30 3751 H 378.979 0.612536 -1.72975 0
M  V30 3752 H 377.361 3.15379 -2.39483 0
M  V30 3753 H 378.535 1.17278 -4.45626 0
M  V30 3754 H 376.85 1.21199 -3.98371 0
M  V30 3755 H 379.447 3.96493 -3.58744 0
M  V30 3756 H 379.79 3.70696 -1.89448 0
M  V30 3757 H 380.323 2.50239 -3.09233 0
M  V30 3758 H 377.062 2.42736 -6.089 0
M  V30 3759 H 376.582 3.57398 -4.81691 0
M  V30 3760 H 378.261 3.54755 -5.41071 0
M  V30 3761 N 378.394 1.34581 0.820102 0
M  V30 3762 C 379.341 1.2639 1.93117 0
M  V30 3763 C 380.311 0.138554 1.65521 0
M  V30 3764 O 381.496 0.320004 1.88097 0
M  V30 3765 C 378.636 1.02812 3.29429 0
M  V30 3766 C 377.749 2.24146 3.693 0
M  V30 3767 C 376.884 1.93829 4.94574 0
M  V30 3768 C 375.923 3.1129 5.27034 0
M  V30 3769 N 375.06 2.80838 6.43486 0
M  V30 3770 H 379.9 2.21408 1.99455 0
M  V30 3771 H 377.437 1.10077 0.975784 0
M  V30 3772 H 379.395 0.871788 4.0799 0
M  V30 3773 H 378.025 0.114612 3.22596 0
M  V30 3774 H 377.077 2.50691 2.86109 0
M  V30 3775 H 378.389 3.11899 3.89257 0
M  V30 3776 H 377.543 1.74948 5.80929 0
M  V30 3777 H 376.282 1.03341 4.76626 0
M  V30 3778 H 375.287 3.30764 4.39175 0
M  V30 3779 H 376.512 4.02561 5.4692 0
M  V30 3780 H 374.458 1.92929 6.26988 0
M  V30 3781 H 374.375 3.62123 6.63629 0
M  V30 3782 H 375.643 2.65467 7.32903 0
M  V30 3783 N 379.872 -1.04064 1.18357 0
M  V30 3784 C 381.149 -1.74252 0.888581 0
M  V30 3785 C 381.529 -2.02138 -0.60856 0
M  V30 3786 O 380.877 -1.66656 -1.56327 0
M  V30 3787 C 381.087 -3.0277 1.73584 0
M  V30 3788 C 382.435 -3.76506 1.96286 0
M  V30 3789 O 383.459 -3.12668 1.70637 0
M  V30 3790 O 382.318 -4.91243 2.39464 0
M  V30 3791 H 379.412 -0.758271 0.330082 0
M  V30 3792 H 381.958 -1.1013 1.2911 0
M  V30 3793 H 380.73 -2.78299 2.75073 0
M  V30 3794 H 380.353 -3.74631 1.33183 0
M  V30 3795 N 381.35 -0.985608 -1.22978 0
M  V30 3796 C 382.596 -0.65836 -1.91816 0
M  V30 3797 C 382.929 0.806692 -1.76653 0
M  V30 3798 O 382.204 1.58252 -1.13078 0
M  V30 3799 C 382.487 -1.056 -3.44268 0
M  V30 3800 C 382.34 -2.57906 -3.68516 0
M  V30 3801 C 383.659 -0.603781 -4.35939 0
M  V30 3802 H 380.778 -0.24065 -0.696604 0
M  V30 3803 H 383.42 -1.22783 -1.44998 0
M  V30 3804 H 381.57 -0.571445 -3.84274 0
M  V30 3805 H 383.242 -3.13976 -3.3796 0
M  V30 3806 H 381.485 -3.00305 -3.13048 0
M  V30 3807 H 382.156 -2.80779 -4.75255 0
M  V30 3808 H 384.632 -1.01987 -4.03408 0
M  V30 3809 H 383.508 -0.910383 -5.41298 0
M  V30 3810 H 383.769 0.495761 -4.39312 0
M  V30 3811 N 382.828 1.3818 -0.7579 0
M  V30 3812 C 383.758 2.33027 -0.148597 0
M  V30 3813 C 384.739 1.55085 0.69875 0
M  V30 3814 O 385.924 1.83384 0.639053 0
M  V30 3815 C 383.054 3.3928 0.742034 0
M  V30 3816 C 382.008 4.28 -0.00291946 0
M  V30 3817 C 381.334 5.25146 1.00625 0
M  V30 3818 C 382.634 5.08938 -1.17385 0
M  V30 3819 H 384.328 2.84231 -0.940909 0
M  V30 3820 H 381.874 1.36659 -0.453908 0
M  V30 3821 H 383.827 4.046 1.17799 0
M  V30 3822 H 382.551 2.86569 1.56671 0
M  V30 3823 H 381.21 3.64192 -0.419504 0
M  V30 3824 H 380.858 4.68721 1.8251 0
M  V30 3825 H 380.558 5.85361 0.512428 0
M  V30 3826 H 382.082 5.93342 1.44143 0
M  V30 3827 H 383.496 5.67474 -0.815224 0
M  V30 3828 H 381.893 5.7841 -1.59882 0
M  V30 3829 H 382.963 4.42424 -1.98468 0
M  V30 3830 N 384.306 0.507319 1.49211 0
M  V30 3831 C 385.254 -0.281364 2.30892 0
M  V30 3832 C 386.248 -0.95687 1.39787 0
M  V30 3833 O 387.454 -0.883838 1.56807 0
M  V30 3834 H 383.829 -0.109597 0.743971 0
M  V30 3835 H 385.8 0.42744 2.95323 0
M  V30 3836 C 384.549 -1.32918 3.21291 0
M  V30 3837 H 383.872 -0.818799 3.91326 0
M  V30 3838 H 385.312 -1.85288 3.81372 0
M  V30 3839 C 383.771 -2.35074 2.41333 0
M  V30 3840 O 384.301 -3.4108 2.12197 0
M  V30 3841 N 382.507 -2.07705 2.03241 0
M  V30 3842 H 382.054 -1.2152 2.27136 0
M  V30 3843 H 382.012 -2.76283 1.50051 0
M  V30 3844 N 385.784 -1.5574 0.241426 0
M  V30 3845 C 386.747 -2.19877 -0.647063 0
M  V30 3846 C 387.747 -1.16642 -1.10686 0
M  V30 3847 O 388.937 -1.41757 -1.01245 0
M  V30 3848 C 386.069 -2.83797 -1.88871 0
M  V30 3849 H 387.262 -2.99772 -0.087574 0
M  V30 3850 H 384.815 -1.56298 -0.00813574 0
M  V30 3851 H 385.55 -2.07824 -2.48957 0
M  V30 3852 H 385.335 -3.59414 -1.56728 0
M  V30 3853 H 386.825 -3.32898 -2.52129 0
M  V30 3854 N 387.262 0.0317525 -1.57568 0
M  V30 3855 C 388.51 0.721676 -1.88776 0
M  V30 3856 C 388.831 1.76039 -0.838772 0
M  V30 3857 O 388.101 1.95482 0.127935 0
M  V30 3858 H 386.681 0.269534 -0.696678 0
M  V30 3859 H 389.343 -0.00165879 -1.949 0
M  V30 3860 H 388.439 1.21293 -2.87566 0
M  V30 3861 N 388.74 1.54641 0.303973 0
M  V30 3862 C 389.986 1.74969 1.03718 0
M  V30 3863 C 390.341 0.527461 1.85029 0
M  V30 3864 O 389.634 -0.480143 1.85486 0
M  V30 3865 C 389.828 2.97753 1.97681 0
M  V30 3866 C 389.657 4.318 1.25613 0
M  V30 3867 C 388.427 4.95616 0.984518 0
M  V30 3868 C 390.625 5.10021 0.662081 0
M  V30 3869 N 388.607 6.13455 0.233794 0
M  V30 3870 C 389.978 6.19984 0.0439736 0
M  V30 3871 C 392.033 4.94663 0.566835 0
M  V30 3872 C 390.736 7.16264 -0.66016 0
M  V30 3873 C 392.762 5.91271 -0.123637 0
M  V30 3874 C 392.124 7.00601 -0.730608 0
M  V30 3875 H 388.223 0.692873 0.362562 0
M  V30 3876 H 390.807 1.92116 0.316135 0
M  V30 3877 H 388.978 2.82036 2.6704 0
M  V30 3878 H 390.71 3.06621 2.64132 0
M  V30 3879 H 387.465 4.55921 1.28191 0
M  V30 3880 H 387.889 6.76879 -0.127996 0
M  V30 3881 H 392.531 4.10267 1.02181 0
M  V30 3882 H 390.249 8.00204 -1.12691 0
M  V30 3883 H 393.835 5.81466 -0.197236 0
M  V30 3884 H 392.715 7.7407 -1.2564 0
M  V30 3885 N 390.218 -0.567019 1.47046 0
M  V30 3886 C 391.166 -1.69593 1.59188 0
M  V30 3887 C 392.16 -1.63046 0.459609 0
M  V30 3888 O 393.366 -1.6835 0.637058 0
M  V30 3889 H 389.741 -0.560993 0.500791 0
M  V30 3890 H 391.712 -1.56488 2.54075 0
M  V30 3891 C 390.461 -3.07964 1.61411 0
M  V30 3892 H 389.784 -3.13679 2.47881 0
M  V30 3893 H 391.224 -3.86671 1.73958 0
M  V30 3894 C 389.683 -3.35123 0.34559 0
M  V30 3895 O 390.213 -3.97812 -0.557521 0
M  V30 3896 N 388.419 -2.89699 0.22864 0
M  V30 3897 H 387.966 -2.38863 0.964479 0
M  V30 3898 H 387.924 -3.08242 -0.619192 0
M  V30 3899 N 391.696 -1.35014 -0.812953 0
M  V30 3900 C 392.945 -1.27269 -1.56479 0
M  V30 3901 C 393.258 0.152771 -1.95002 0
M  V30 3902 O 394.464 0.352451 -2.69203 0
M  V30 3903 C 392.92 -2.23159 -2.82362 0
M  V30 3904 C 392.528 -3.71016 -2.511 0
M  V30 3905 C 394.272 -2.24342 -3.60376 0
M  V30 3906 C 392.179 -4.58746 -3.73237 0
M  V30 3907 H 391.109 -0.472829 -0.587324 0
M  V30 3908 H 393.76 -1.6024 -0.894171 0
M  V30 3909 H 392.142 -1.83151 -3.51101 0
M  V30 3910 H 393.316 -4.1962 -1.90409 0
M  V30 3911 H 391.631 -3.72378 -1.86343 0
M  V30 3912 H 394.228 -2.87107 -4.51081 0
M  V30 3913 H 394.571 -1.24542 -3.97234 0
M  V30 3914 H 395.104 -2.62846 -2.98591 0
M  V30 3915 H 391.843 -5.59521 -3.41492 0
M  V30 3916 H 391.363 -4.14871 -4.33176 0
M  V30 3917 H 393.042 -4.73852 -4.40537 0
M  V30 3918 N 393.175 1.03435 -1.18907 0
M  V30 3919 C 394.122 2.11591 -0.921837 0
M  V30 3920 C 395.092 1.65499 0.141226 0
M  V30 3921 O 396.277 1.908 0.000242829 0
M  V30 3922 C 393.417 3.42012 -0.460616 0
M  V30 3923 C 392.53 4.01682 -1.58982 0
M  V30 3924 C 391.665 5.20091 -1.08069 0
M  V30 3925 C 390.704 5.71805 -2.18416 0
M  V30 3926 N 389.841 6.81494 -1.68849 0
M  V30 3927 H 394.681 2.33787 -1.8479 0
M  V30 3928 H 392.218 1.1467 -0.921373 0
M  V30 3929 H 394.176 4.16834 -0.174642 0
M  V30 3930 H 392.806 3.19944 0.428467 0
M  V30 3931 H 391.858 3.24127 -1.99113 0
M  V30 3932 H 393.17 4.36084 -2.4214 0
M  V30 3933 H 392.324 6.02051 -0.749615 0
M  V30 3934 H 391.063 4.87209 -0.218771 0
M  V30 3935 H 390.068 4.88461 -2.5236 0
M  V30 3936 H 391.293 6.06728 -3.05054 0
M  V30 3937 H 389.239 6.50475 -0.849572 0
M  V30 3938 H 389.156 7.14994 -2.45601 0
M  V30 3939 H 390.424 7.67063 -1.38689 0
M  V30 3940 N 394.653 0.992116 1.22453 0
M  V30 3941 C 395.901 0.666215 1.90804 0
M  V30 3942 C 396.222 -0.804152 1.77647 0
M  V30 3943 O 395.492 -1.57629 1.16318 0
M  V30 3944 H 394.072 0.243423 0.706225 0
M  V30 3945 H 396.734 1.25845 1.48825 0
M  V30 3946 H 395.83 0.928069 2.97982 0
M  V30 3947 N 396.131 -1.37776 0.765217 0
M  V30 3948 C 397.377 -2.00145 0.327072 0
M  V30 3949 C 397.71 -1.60607 -1.09175 0
M  V30 3950 O 396.985 -0.849127 -1.74986 0
M  V30 3951 C 397.268 -3.57109 0.46319 0
M  V30 3952 C 397.121 -4.06576 1.92395 0
M  V30 3953 C 398.44 -4.39888 -0.136473 0
M  V30 3954 H 395.559 -0.727113 0.120316 0
M  V30 3955 H 398.201 -1.63549 0.967039 0
M  V30 3956 H 396.351 -3.88414 -0.0816358 0
M  V30 3957 H 398.023 -3.85864 2.52798 0
M  V30 3958 H 396.266 -3.59011 2.43503 0
M  V30 3959 H 396.937 -5.15639 1.97028 0
M  V30 3960 H 399.413 -4.14803 0.328317 0
M  V30 3961 H 398.289 -5.48899 -0.0110582 0
M  V30 3962 H 398.55 -4.24758 -1.22608 0
M  V30 3963 N 397.609 -0.515225 -1.4894 0
M  V30 3964 C 398.556 0.255567 -2.29381 0
M  V30 3965 C 399.526 0.947387 -1.36432 0
M  V30 3966 O 400.711 0.951288 -1.65394 0
M  V30 3967 C 397.851 1.30551 -3.19453 0
M  V30 3968 C 396.964 0.624029 -4.27469 0
M  V30 3969 C 396.099 1.65563 -5.0474 0
M  V30 3970 C 395.138 0.956802 -6.04576 0
M  V30 3971 N 394.275 1.93326 -6.74959 0
M  V30 3972 H 399.115 -0.436607 -2.94784 0
M  V30 3973 H 396.652 -0.227154 -1.45336 0
M  V30 3974 H 398.61 1.92639 -3.70062 0
M  V30 3975 H 397.24 1.96626 -2.56004 0
M  V30 3976 H 396.292 -0.110459 -3.8024 0
M  V30 3977 H 397.604 0.0746092 -4.98744 0
M  V30 3978 H 396.758 2.35119 -5.59289 0
M  V30 3979 H 395.497 2.23893 -4.3327 0
M  V30 3980 H 394.502 0.247097 -5.49244 0
M  V30 3981 H 395.727 0.379814 -6.78037 0
M  V30 3982 H 393.673 2.50591 -6.06251 0
M  V30 3983 H 393.59 1.43489 -7.42258 0
M  V30 3984 H 394.858 2.62126 -7.34105 0
M  V30 3985 N 399.087 1.5561 -0.249682 0
M  V30 3986 C 400.05 2.20217 0.635394 0
M  V30 3987 C 401.05 1.17227 1.10066 0
M  V30 3988 O 402.24 1.42292 1.00492 0
M  V30 3989 C 399.372 2.84794 1.87363 0
M  V30 3990 H 400.565 2.99814 0.0716752 0
M  V30 3991 H 398.118 1.563 -0.000153234 0
M  V30 3992 H 398.853 2.09142 2.47851 0
M  V30 3993 H 398.638 3.60241 1.5482 0
M  V30 3994 H 400.128 3.3423 2.5036 0
M  V30 3995 N 400.565 -0.0233959 1.57583 0
M  V30 3996 C 401.813 -0.711654 1.89156 0
M  V30 3997 C 402.134 -1.75591 0.848096 0
M  V30 3998 O 401.404 -1.95547 -0.117566 0
M  V30 3999 H 399.984 -0.265835 0.698098 0
M  V30 4000 H 402.646 0.0119948 1.94896 0
M  V30 4001 H 401.742 -1.19766 2.88206 0
M  V30 4002 N 402.043 -1.548 -0.295768 0
M  V30 4003 C 403.268 -1.78653 -1.05346 0
M  V30 4004 C 403.693 -0.546894 -1.79974 0
M  V30 4005 O 403.051 0.502763 -1.7419 0
M  V30 4006 C 403.099 -2.99679 -2.00561 0
M  V30 4007 O 402.203 -2.7317 -3.08953 0
M  V30 4008 H 401.544 -0.59116 -0.302367 0
M  V30 4009 H 404.074 -2.01895 -0.331598 0
M  V30 4010 H 404.084 -3.27793 -2.42932 0
M  V30 4011 H 402.759 -3.89562 -1.4565 0
M  V30 4012 H 401.336 -2.56089 -2.71059 0
M  V30 4013 N 403.521 0.559213 -1.47345 0
M  V30 4014 C 404.749 1.34194 -1.57479 0
M  V30 4015 C 405.164 1.87463 -0.224261 0
M  V30 4016 O 404.521 1.64888 0.782185 0
M  V30 4017 C 404.572 2.51324 -2.59843 0
M  V30 4018 O 404.293 2.00256 -3.89653 0
M  V30 4019 C 405.794 3.43563 -2.80142 0
M  V30 4020 H 403.014 0.409136 -0.531835 0
M  V30 4021 H 405.558 0.677609 -1.92947 0
M  V30 4022 H 403.713 3.13699 -2.27314 0
M  V30 4023 H 404.127 2.76708 -4.4557 0
M  V30 4024 H 405.601 4.2217 -3.55635 0
M  V30 4025 H 406.078 3.9698 -1.87892 0
M  V30 4026 H 406.684 2.87005 -3.1386 0
M  V30 4027 N 404.999 1.35443 0.805782 0
M  V30 4028 C 406.227 1.31878 1.59423 0
M  V30 4029 C 406.642 -0.103562 1.88516 0
M  V30 4030 O 405.999 -1.05575 1.48863 0
M  V30 4031 C 406.05 2.12426 2.92502 0
M  V30 4032 O 405.771 3.49115 2.6467 0
M  V30 4033 C 407.272 2.16455 3.86862 0
M  V30 4034 H 404.492 0.453002 0.495005 0
M  V30 4035 H 407.036 1.78309 1.00131 0
M  V30 4036 H 405.191 1.69593 3.48306 0
M  V30 4037 H 405.605 3.90957 3.49647 0
M  V30 4038 H 407.079 2.77204 4.77349 0
M  V30 4039 H 407.556 1.16352 4.23508 0
M  V30 4040 H 408.162 2.59453 3.36993 0
M  V30 4041 N 406.477 -1.02803 1.19454 0
M  V30 4042 C 407.725 -1.75869 0.995722 0
M  V30 4043 C 408.046 -1.89138 -0.474543 0
M  V30 4044 O 407.316 -1.42558 -1.34366 0
M  V30 4045 H 405.896 -0.651511 0.365435 0
M  V30 4046 H 408.558 -1.24004 1.50363 0
M  V30 4047 H 407.654 -2.76661 1.44447 0
M  V30 4048 N 407.956 -0.998596 -1.21925 0
M  V30 4049 C 408.888 -0.511879 -2.23411 0
M  V30 4050 C 409.901 0.396094 -1.57908 0
M  V30 4051 O 411.09 0.197316 -1.77406 0
M  V30 4052 C 408.19 0.276802 -3.37768 0
M  V30 4053 C 407.363 -0.628687 -4.32858 0
M  V30 4054 C 406.422 0.109272 -5.26087 0
M  V30 4055 O 405.448 -0.507237 -5.66935 0
M  V30 4056 N 406.65 1.38983 -5.63617 0
M  V30 4057 H 409.415 -1.38457 -2.658 0
M  V30 4058 H 406.976 -0.873981 -1.36283 0
M  V30 4059 H 408.968 0.77928 -3.97126 0
M  V30 4060 H 407.538 1.05063 -2.94415 0
M  V30 4061 H 406.758 -1.31175 -3.71735 0
M  V30 4062 H 408.046 -1.24514 -4.93329 0
M  V30 4063 H 407.444 1.91194 -5.32411 0
M  V30 4064 H 406.001 1.83739 -6.25367 0
M  V30 4065 N 409.434 1.37368 -0.772513 0
M  V30 4066 C 410.659 2.0447 -0.347386 0
M  V30 4067 C 411.084 1.57882 1.0225 0
M  V30 4068 O 410.442 0.73941 1.65537 0
M  V30 4069 C 410.49 3.58369 -0.400479 0
M  V30 4070 O 409.594 4.0803 0.598789 0
M  V30 4071 H 408.935 0.646773 -0.15027 0
M  V30 4072 H 411.465 1.75667 -1.04892 0
M  V30 4073 H 411.475 4.07183 -0.258045 0
M  V30 4074 H 410.15 3.91633 -1.39986 0
M  V30 4075 H 408.727 3.70534 0.419411 0
M  V30 4076 N 410.912 0.523116 1.48665 0
M  V30 4077 C 411.822 -0.247406 2.33292 0
M  V30 4078 C 412.838 -0.945769 1.46052 0
M  V30 4079 O 414.014 -0.922253 1.79043 0
M  V30 4080 C 411.079 -1.28487 3.22012 0
M  V30 4081 C 410.14 -0.597592 4.2512 0
M  V30 4082 C 409.373 -1.58563 5.09601 0
M  V30 4083 O 409.596 -2.81763 4.95949 0
M  V30 4084 O 408.53 -1.12879 5.91221 0
M  V30 4085 H 412.356 0.445869 3.00409 0
M  V30 4086 H 409.941 0.284128 1.46673 0
M  V30 4087 H 411.823 -1.88459 3.7691 0
M  V30 4088 H 410.498 -1.96068 2.57564 0
M  V30 4089 H 409.405 0.0424407 3.74076 0
M  V30 4090 H 410.738 0.0361517 4.92187 0
M  V30 4091 N 412.39 -1.55475 0.257931 0
M  V30 4092 C 413.338 -2.23244 -0.653076 0
M  V30 4093 C 414.332 -1.22366 -1.17144 0
M  V30 4094 O 415.538 -1.40347 -1.12706 0
M  V30 4095 H 411.913 -0.716247 -0.229117 0
M  V30 4096 H 413.884 -2.98343 -0.0584788 0
M  V30 4097 C 412.633 -2.95401 -1.83395 0
M  V30 4098 H 411.956 -3.72802 -1.44424 0
M  V30 4099 H 413.396 -3.46165 -2.44838 0
M  V30 4100 C 411.855 -1.99895 -2.71189 0
M  V30 4101 O 412.385 -1.53909 -3.71046 0
M  V30 4102 N 410.591 -1.6676 -2.3799 0
M  V30 4103 H 410.138 -2.04352 -1.56837 0
M  V30 4104 H 410.096 -1.03127 -2.97005 0
M  V30 4105 N 413.868 0.0150385 -1.57593 0
M  V30 4106 C 415.114 0.704043 -1.90187 0
M  V30 4107 C 415.447 1.74249 -0.857366 0
M  V30 4108 O 414.722 1.94092 0.125843 0
M  V30 4109 C 415.005 1.36087 -3.33395 0
M  V30 4110 C 414.858 0.334981 -4.48551 0
M  V30 4111 C 416.177 2.29112 -3.7576 0
M  V30 4112 H 413.296 0.254475 -0.691673 0
M  V30 4113 H 415.938 -0.0331678 -1.89971 0
M  V30 4114 H 414.088 1.98922 -3.3371 0
M  V30 4115 H 415.76 -0.292534 -4.60372 0
M  V30 4116 H 414.003 -0.344325 -4.32431 0
M  V30 4117 H 414.674 0.833316 -5.45674 0
M  V30 4118 H 417.15 1.76308 -3.76902 0
M  V30 4119 H 416.026 2.72043 -4.76743 0
M  V30 4120 H 416.287 3.16385 -3.08793 0
M  V30 4121 N 415.346 1.54954 0.287554 0
M  V30 4122 C 416.623 1.65569 1.04146 0
M  V30 4123 C 417.003 0.512672 2.0478 0
M  V30 4124 O 416.351 -0.489038 2.23205 0
M  V30 4125 C 416.561 3.04163 1.71131 0
M  V30 4126 C 417.909 3.61429 2.22832 0
M  V30 4127 O 418.933 3.06702 1.81141 0
M  V30 4128 O 417.792 4.57281 2.9926 0
M  V30 4129 H 414.886 0.671881 0.482188 0
M  V30 4130 H 417.432 1.67297 0.28457 0
M  V30 4131 H 416.204 3.78796 0.981303 0
M  V30 4132 H 415.827 3.06271 2.53543 0
M  V30 4133 N 416.824 -0.551391 1.4764 0
M  V30 4134 C 418.071 -1.3083 1.54563 0
M  V30 4135 C 418.399 -1.93359 0.210361 0
M  V30 4136 O 417.654 -1.78721 -0.797332 0
M  V30 4137 C 417.953 -2.43469 2.61644 0
M  V30 4138 C 417.619 -1.98732 4.04742 0
M  V30 4139 C 416.281 -1.86248 4.43695 0
M  V30 4140 C 418.633 -1.64659 4.94507 0
M  V30 4141 C 415.961 -1.37995 5.70241 0
M  V30 4142 C 418.313 -1.17875 6.21521 0
M  V30 4143 C 416.977 -1.03992 6.5935 0
M  V30 4144 H 416.247 -0.478741 0.565587 0
M  V30 4145 H 418.894 -0.617697 1.81264 0
M  V30 4146 H 417.199 -3.18109 2.28722 0
M  V30 4147 H 418.896 -3.01642 2.64222 0
M  V30 4148 H 415.486 -2.09393 3.73968 0
M  V30 4149 H 419.67 -1.73174 4.65107 0
M  V30 4150 H 414.926 -1.25915 5.98294 0
M  V30 4151 H 419.1 -0.905739 6.90485 0
M  V30 4152 H 416.727 -0.663794 7.57296 0
M  V30 4153 N 418.302 -1.35869 -0.798587 0
M  V30 4154 C 419.548 -1.2978 -1.55836 0
M  V30 4155 C 419.881 0.125322 -1.93795 0
M  V30 4156 O 419.156 1.07658 -1.61987 0
M  V30 4157 C 419.439 -2.21188 -2.84162 0
M  V30 4158 C 419.292 -3.72155 -2.52628 0
M  V30 4159 C 420.611 -2.11545 -3.85923 0
M  V30 4160 H 417.73 -0.472769 -0.565383 0
M  V30 4161 H 420.372 -1.66341 -0.918192 0
M  V30 4162 H 418.522 -1.90139 -3.38791 0
M  V30 4163 H 420.194 -4.13682 -2.04121 0
M  V30 4164 H 418.437 -3.92042 -1.85704 0
M  V30 4165 H 419.108 -4.31511 -3.44242 0
M  V30 4166 H 421.584 -2.38855 -3.40716 0
M  V30 4167 H 420.46 -2.77688 -4.73477 0
M  V30 4168 H 420.721 -1.09987 -4.282 0
M  V30 4169 N 419.78 1.02168 -1.19998 0
M  V30 4170 C 420.73 2.08969 -0.911921 0
M  V30 4171 C 421.714 1.60404 0.12621 0
M  V30 4172 O 422.906 1.76817 -0.0804706 0
M  V30 4173 C 420.035 3.402 -0.460277 0
M  V30 4174 C 419.121 3.9548 -1.53155 0
M  V30 4175 N 419.512 4.24332 -2.75275 0
M  V30 4176 C 417.81 4.23572 -1.39653 0
M  V30 4177 C 418.511 4.68834 -3.44339 0
M  V30 4178 N 417.487 4.70804 -2.71744 0
M  V30 4179 H 421.289 2.29178 -1.83997 0
M  V30 4180 H 418.803 1.20094 -1.09322 0
M  V30 4181 H 420.8 4.16235 -0.235337 0
M  V30 4182 H 419.46 3.21408 0.4612 0
M  V30 4183 H 420.471 4.13393 -3.11973 0
M  V30 4184 H 417.148 4.14005 -0.539067 0
M  V30 4185 H 418.538 5.00019 -4.4881 0
M  V30 4186 N 421.258 1.00505 1.21394 0
M  V30 4187 C 422.486 0.706609 1.9446 0
M  V30 4188 C 422.901 -0.73081 1.74082 0
M  V30 4189 O 422.258 -1.49446 1.04747 0
M  V30 4190 C 422.309 1.01824 3.46863 0
M  V30 4191 O 422.03 2.39919 3.66566 0
M  V30 4192 C 423.531 0.739216 4.37093 0
M  V30 4193 H 420.751 0.260394 0.618414 0
M  V30 4194 H 423.295 1.34311 1.54211 0
M  V30 4195 H 421.45 0.427343 3.85036 0
M  V30 4196 H 421.864 2.50784 4.6066 0
M  V30 4197 H 423.338 1.00744 5.42729 0
M  V30 4198 H 423.815 -0.326746 4.37983 0
M  V30 4199 H 424.421 1.31173 4.04566 0
M  V30 4200 N 422.737 -1.36956 0.779787 0
M  V30 4201 C 423.967 -2.03459 0.358877 0
M  V30 4202 C 424.375 -1.58939 -1.02641 0
M  V30 4203 O 423.718 -0.769777 -1.66794 0
M  V30 4204 C 423.78 -3.5796 0.332393 0
M  V30 4205 C 423.444 -4.25644 1.66362 0
M  V30 4206 C 424.441 -4.49205 2.61746 0
M  V30 4207 C 422.126 -4.63313 1.94027 0
M  V30 4208 C 424.12 -5.09503 3.82996 0
M  V30 4209 C 421.807 -5.2333 3.15546 0
M  V30 4210 C 422.805 -5.46363 4.0985 0
M  V30 4211 O 422.493 -6.05122 5.29228 0
M  V30 4212 H 422.225 -0.659767 0.147254 0
M  V30 4213 H 424.779 -1.76111 1.05708 0
M  V30 4214 H 423.009 -3.84388 -0.422237 0
M  V30 4215 H 424.698 -4.05852 -0.0625389 0
M  V30 4216 H 425.464 -4.20508 2.41657 0
M  V30 4217 H 421.343 -4.44715 1.21448 0
M  V30 4218 H 424.887 -5.27397 4.56617 0
M  V30 4219 H 420.784 -5.51451 3.35517 0
M  V30 4220 H 421.552 -6.23595 5.30161 0
M  V30 4221 N 424.215 -0.530993 -1.48385 0
M  V30 4222 C 425.492 0.0671788 -1.95485 0
M  V30 4223 C 425.872 1.51191 -1.47324 0
M  V30 4224 O 425.22 2.17507 -0.700202 0
M  V30 4225 C 425.43 -0.0511206 -3.48963 0
M  V30 4226 C 426.778 0.107632 -4.24464 0
M  V30 4227 O 427.802 0.0226248 -3.56193 0
M  V30 4228 O 426.661 0.285972 -5.45751 0
M  V30 4229 H 423.755 0.0787365 -0.823243 0
M  V30 4230 H 426.301 -0.595662 -1.58902 0
M  V30 4231 H 425.073 -1.05747 -3.7674 0
M  V30 4232 H 424.696 0.650525 -3.92242 0
M  V30 4233 N 425.693 1.55336 -0.266172 0
M  V30 4234 C 426.921 2.03801 0.356756 0
M  V30 4235 C 427.336 1.14485 1.50129 0
M  V30 4236 O 426.693 0.163121 1.8177 0
M  V30 4237 C 426.744 3.51455 0.846281 0
M  V30 4238 O 426.465 4.37371 -0.252663 0
M  V30 4239 C 427.966 4.15767 1.53794 0
M  V30 4240 H 425.186 0.665906 0.0825218 0
M  V30 4241 H 427.73 2.00636 -0.39566 0
M  V30 4242 H 425.885 3.55092 1.54881 0
M  V30 4243 H 426.299 5.24358 0.122173 0
M  V30 4244 H 427.773 5.20714 1.83198 0
M  V30 4245 H 428.25 3.63404 2.46646 0
M  V30 4246 H 428.856 4.16107 0.879488 0
M  V30 4247 N 427.171 -0.0066808 1.57599 0
M  V30 4248 C 428.417 -0.693947 1.90558 0
M  V30 4249 C 428.75 -1.73792 0.866594 0
M  V30 4250 O 428.025 -1.94156 -0.115548 0
M  V30 4251 C 428.308 -1.34317 3.34112 0
M  V30 4252 C 428.161 -0.311189 4.48722 0
M  V30 4253 C 429.48 -2.27116 3.7697 0
M  V30 4254 H 426.599 -0.250803 0.693013 0
M  V30 4255 H 429.241 0.043242 1.89951 0
M  V30 4256 H 427.391 -1.9715 3.3476 0
M  V30 4257 H 429.063 0.316944 4.6021 0
M  V30 4258 H 427.306 0.367253 4.32243 0
M  V30 4259 H 427.977 -0.804366 5.46108 0
M  V30 4260 H 430.453 -1.74306 3.77831 0
M  V30 4261 H 429.329 -2.69511 4.78179 0
M  V30 4262 H 429.59 -3.14743 3.10466 0
M  V30 4263 N 428.649 -1.55105 -0.279332 0
M  V30 4264 C 429.559 -1.90638 -1.36727 0
M  V30 4265 C 430.575 -0.802899 -1.54368 0
M  V30 4266 O 431.751 -1.10138 -1.68616 0
M  V30 4267 C 428.816 -2.16547 -2.70755 0
M  V30 4268 C 427.877 -3.40146 -2.61915 0
M  V30 4269 C 427.11 -3.6481 -3.8955 0
M  V30 4270 O 427.333 -2.92095 -4.89935 0
M  V30 4271 O 426.267 -4.58343 -3.90135 0
M  V30 4272 H 430.093 -2.83237 -1.09591 0
M  V30 4273 H 427.678 -1.4157 -0.477306 0
M  V30 4274 H 429.56 -2.34665 -3.50014 0
M  V30 4275 H 428.235 -1.27131 -2.9769 0
M  V30 4276 H 427.142 -3.2737 -1.81052 0
M  V30 4277 H 428.475 -4.29761 -2.3993 0
M  V30 4278 N 430.127 0.543554 -1.4793 0
M  V30 4279 C 431.374 1.30008 -1.55255 0
M  V30 4280 C 431.702 1.93245 -0.220612 0
M  V30 4281 O 430.957 1.79141 0.787843 0
M  V30 4282 C 431.256 2.42078 -2.62932 0
M  V30 4283 C 430.922 1.96583 -4.0579 0
M  V30 4284 C 429.584 1.83893 -4.44676 0
M  V30 4285 C 431.936 1.62034 -4.95373 0
M  V30 4286 C 429.264 1.34969 -5.70964 0
M  V30 4287 C 431.616 1.14577 -6.22137 0
M  V30 4288 C 430.28 1.00493 -6.59892 0
M  V30 4289 H 429.55 0.475735 -0.568117 0
M  V30 4290 H 432.197 0.608075 -1.81589 0
M  V30 4291 H 430.502 3.16892 -2.30406 0
M  V30 4292 H 432.199 3.00236 -2.65818 0
M  V30 4293 H 428.789 2.07407 -3.75074 0
M  V30 4294 H 432.973 1.70705 -4.66019 0
M  V30 4295 H 428.229 1.2274 -5.98953 0
M  V30 4296 H 432.403 0.869109 -6.90955 0
M  V30 4297 H 430.03 0.623624 -7.57638 0
M  V30 4298 N 431.605 1.3629 0.791371 0
M  V30 4299 C 432.535 1.33137 1.91825 0
M  V30 4300 C 433.516 0.203168 1.68882 0
M  V30 4301 O 434.701 0.400509 1.90025 0
M  V30 4302 C 431.831 1.11793 3.28816 0
M  V30 4303 C 430.785 2.21417 3.66277 0
M  V30 4304 C 430.111 1.85218 5.01596 0
M  V30 4305 C 431.411 3.63489 3.75064 0
M  V30 4306 H 433.105 2.2743 1.9472 0
M  V30 4307 H 430.651 1.09479 0.935437 0
M  V30 4308 H 432.604 1.08222 4.07266 0
M  V30 4309 H 431.328 0.139501 3.26302 0
M  V30 4310 H 429.987 2.2411 2.90121 0
M  V30 4311 H 429.635 0.859544 4.95602 0
M  V30 4312 H 429.335 2.58611 5.27631 0
M  V30 4313 H 430.859 1.832 5.82469 0
M  V30 4314 H 432.273 3.63034 4.43711 0
M  V30 4315 H 430.67 4.35771 4.12582 0
M  V30 4316 H 431.74 3.98536 2.76219 0
M  V30 4317 N 433.083 -1.0153 1.20538 0
M  V30 4318 C 434.308 -1.79283 1.04271 0
M  V30 4319 C 434.733 -1.8372 -0.403544 0
M  V30 4320 O 434.091 -1.27321 -1.2907 0
M  V30 4321 C 434.139 -3.21535 1.63241 0
M  V30 4322 O 433.243 -4.03099 0.870908 0
M  V30 4323 H 432.584 -0.55293 0.367647 0
M  V30 4324 H 435.114 -1.27696 1.59859 0
M  V30 4325 H 435.124 -3.72243 1.6703 0
M  V30 4326 H 433.799 -3.1762 2.68497 0
M  V30 4327 H 432.376 -3.61693 0.907323 0
M  V30 4328 N 434.561 -1.01147 -1.20859 0
M  V30 4329 C 435.524 -0.582224 -2.21682 0
M  V30 4330 C 436.524 0.344887 -1.57058 0
M  V30 4331 O 437.714 0.134281 -1.73682 0
M  V30 4332 C 434.846 0.150496 -3.40568 0
M  V30 4333 H 436.039 -1.47408 -2.61172 0
M  V30 4334 H 433.592 -0.800695 -1.34233 0
M  V30 4335 H 434.327 1.0575 -3.06574 0
M  V30 4336 H 434.112 -0.515444 -3.88697 0
M  V30 4337 H 435.602 0.438344 -4.15293 0
M  V30 4338 N 436.039 1.36541 -0.78704 0
M  V30 4339 C 437.316 1.9355 -0.282424 0
M  V30 4340 C 437.696 1.71919 1.22503 0
M  V30 4341 O 437.044 1.07677 2.01539 0
M  V30 4342 C 437.254 3.4246 -0.672462 0
M  V30 4343 C 438.602 4.19582 -0.650863 0
M  V30 4344 O 439.626 3.50889 -0.612789 0
M  V30 4345 O 438.485 5.42106 -0.691623 0
M  V30 4346 H 435.579 0.824091 -0.0693 0
M  V30 4347 H 438.125 1.45736 -0.869423 0
M  V30 4348 H 436.897 3.51851 -1.71221 0
M  V30 4349 H 436.52 3.97556 -0.0592211 0
M  V30 4350 N 437.518 0.538854 1.48102 0
M  V30 4351 C 438.746 0.0123136 2.06896 0
M  V30 4352 C 439.161 -1.27312 1.39417 0
M  V30 4353 O 438.518 -1.75949 0.484582 0
M  V30 4354 C 438.569 -0.206118 3.60912 0
M  V30 4355 O 438.29 1.0284 4.25859 0
M  V30 4356 C 439.791 -0.772033 4.36526 0
M  V30 4357 H 437.011 0.0375239 0.66995 0
M  V30 4358 H 439.555 0.747032 1.90367 0
M  V30 4359 H 437.71 -0.89091 3.77017 0
M  V30 4360 H 438.124 0.814654 5.18135 0
M  V30 4361 H 439.598 -0.874251 5.45033 0
M  V30 4362 H 440.075 -1.77904 4.01555 0
M  V30 4363 H 440.681 -0.123526 4.25121 0
M  V30 4364 N 438.996 -1.55193 0.274407 0
M  V30 4365 C 439.906 -2.26164 -0.623473 0
M  V30 4366 C 440.922 -1.28729 -1.17068 0
M  V30 4367 O 442.098 -1.61663 -1.20112 0
M  V30 4368 C 439.163 -2.96833 -1.7914 0
M  V30 4369 C 438.224 -4.09745 -1.28093 0
M  V30 4370 C 437.457 -4.77034 -2.3932 0
M  V30 4371 O 437.68 -4.4353 -3.5866 0
M  V30 4372 O 436.614 -5.64996 -2.07516 0
M  V30 4373 H 440.44 -3.03661 -0.0485661 0
M  V30 4374 H 438.025 -1.49341 0.0418382 0
M  V30 4375 H 439.907 -3.41248 -2.4724 0
M  V30 4376 H 438.582 -2.22253 -2.35341 0
M  V30 4377 H 437.489 -3.69787 -0.566416 0
M  V30 4378 H 438.822 -4.86224 -0.764683 0
M  V30 4379 N 440.474 -0.00167713 -1.576 0
M  V30 4380 C 441.702 0.693759 -1.94922 0
M  V30 4381 C 442.117 1.67215 -0.876626 0
M  V30 4382 O 441.474 1.81929 0.144279 0
M  V30 4383 C 441.525 1.42416 -3.32265 0
M  V30 4384 O 441.246 0.485014 -4.35407 0
M  V30 4385 C 442.747 2.21395 -3.84056 0
M  V30 4386 H 439.967 0.193118 -0.642609 0
M  V30 4387 H 442.511 -0.0532952 -2.04431 0
M  V30 4388 H 440.666 2.12284 -3.24059 0
M  V30 4389 H 441.08 1.00053 -5.14868 0
M  V30 4390 H 442.554 2.67996 -4.82578 0
M  V30 4391 H 443.031 3.04142 -3.16851 0
M  V30 4392 H 443.637 1.56542 -3.95443 0
M  V30 4393 N 441.952 1.55251 0.271103 0
M  V30 4394 C 443.18 1.79974 1.02064 0
M  V30 4395 C 443.595 0.574003 1.79863 0
M  V30 4396 O 442.952 -0.456962 1.76686 0
M  V30 4397 C 443.003 3.02603 1.97772 0
M  V30 4398 O 442.724 4.20443 1.23124 0
M  V30 4399 C 444.225 3.39944 2.84522 0
M  V30 4400 H 441.445 0.599489 0.301419 0
M  V30 4401 H 443.989 2.02268 0.301313 0
M  V30 4402 H 442.144 2.8243 2.65165 0
M  V30 4403 H 442.558 4.89783 1.87651 0
M  V30 4404 H 444.032 4.28915 3.47471 0
M  V30 4405 H 444.509 2.59432 3.54389 0
M  V30 4406 H 445.115 3.62383 2.22618 0
M  V30 4407 N 443.43 -0.535701 1.48216 0
M  V30 4408 C 444.658 -1.31671 1.59594 0
M  V30 4409 C 445.073 -1.87083 0.254056 0
M  V30 4410 O 444.43 -1.66112 -0.755854 0
M  V30 4411 C 444.481 -2.47158 2.63809 0
M  V30 4412 O 444.202 -1.94032 3.92789 0
M  V30 4413 C 445.703 -3.39062 2.85573 0
M  V30 4414 H 442.923 -0.400623 0.538277 0
M  V30 4415 H 445.467 -0.646827 1.94001 0
M  V30 4416 H 443.622 -3.10043 2.32276 0
M  V30 4417 H 444.036 -2.69585 4.49916 0
M  V30 4418 H 445.51 -4.16459 3.62306 0
M  V30 4419 H 445.987 -3.93941 1.94184 0
M  V30 4420 H 446.593 -2.81975 3.18387 0
M  V30 4421 N 444.908 -1.36708 -0.784132 0
M  V30 4422 C 446.154 -1.31426 -1.54451 0
M  V30 4423 C 446.487 0.10476 -1.93917 0
M  V30 4424 O 445.762 1.05934 -1.6312 0
M  V30 4425 C 446.045 -2.24189 -2.818 0
M  V30 4426 C 445.898 -3.74813 -2.48667 0
M  V30 4427 C 447.217 -2.15626 -3.83658 0
M  V30 4428 H 444.336 -0.478739 -0.560337 0
M  V30 4429 H 446.978 -1.67305 -0.900498 0
M  V30 4430 H 445.128 -1.93722 -3.36755 0
M  V30 4431 H 446.8 -4.15823 -1.99722 0
M  V30 4432 H 445.043 -3.93989 -1.81535 0
M  V30 4433 H 445.714 -4.35138 -3.39646 0
M  V30 4434 H 448.19 -2.42456 -3.38163 0
M  V30 4435 H 447.066 -2.82694 -4.70506 0
M  V30 4436 H 447.327 -1.14522 -4.27009 0
M  V30 4437 N 446.386 1.0089 -1.21074 0
M  V30 4438 C 447.614 1.78191 -1.05145 0
M  V30 4439 C 448.029 1.84537 0.398952 0
M  V30 4440 O 447.386 1.30393 1.27687 0
M  V30 4441 C 447.437 3.22288 -1.63746 0
M  V30 4442 O 447.158 3.16315 -3.03111 0
M  V30 4443 C 448.659 4.16106 -1.52875 0
M  V30 4444 H 445.879 0.560129 -0.369454 0
M  V30 4445 H 448.423 1.26945 -1.60328 0
M  V30 4446 H 446.578 3.70655 -1.12664 0
M  V30 4447 H 446.992 4.06817 -3.31059 0
M  V30 4448 H 448.466 5.15026 -1.98626 0
M  V30 4449 H 448.943 4.36541 -0.482521 0
M  V30 4450 H 449.549 3.73625 -2.03185 0
M  V30 4451 N 447.864 1.01787 1.20321 0
M  V30 4452 C 449.11 0.708985 1.90003 0
M  V30 4453 C 449.443 -0.759572 1.78729 0
M  V30 4454 O 448.718 -1.55198 1.17234 0
M  V30 4455 C 449.001 1.1469 3.41348 0
M  V30 4456 C 448.854 2.67586 3.61549 0
M  V30 4457 C 450.173 0.71915 4.34185 0
M  V30 4458 H 447.292 0.259034 0.689978 0
M  V30 4459 H 449.934 1.26584 1.41692 0
M  V30 4460 H 448.084 0.673128 3.82624 0
M  V30 4461 H 449.756 3.22826 3.29517 0
M  V30 4462 H 447.999 3.085 3.04976 0
M  V30 4463 H 448.67 2.93281 4.67643 0
M  V30 4464 H 451.146 1.12647 4.00562 0
M  V30 4465 H 450.022 1.05358 5.38694 0
M  V30 4466 H 450.283 -0.379111 4.40472 0
M  V30 4467 N 449.342 -1.36122 0.79427 0
M  V30 4468 C 450.619 -1.93398 0.292685 0
M  V30 4469 C 450.999 -1.72567 -1.21589 0
M  V30 4470 O 450.347 -1.08745 -2.00965 0
M  V30 4471 C 450.557 -3.42099 0.690614 0
M  V30 4472 C 451.905 -4.19231 0.673105 0
M  V30 4473 O 452.929 -3.50559 0.631389 0
M  V30 4474 O 451.788 -5.41732 0.720362 0
M  V30 4475 H 448.882 -0.823712 0.0736693 0
M  V30 4476 H 451.428 -1.45273 0.87714 0
M  V30 4477 H 450.2 -3.50938 1.73085 0
M  V30 4478 H 449.823 -3.97519 0.0803036 0
M  V30 4479 N 450.82 -0.546701 -1.47814 0
M  V30 4480 C 452.045 -0.021268 -2.07389 0
M  V30 4481 C 452.47 1.25822 -1.39822 0
M  V30 4482 O 451.828 1.75111 -0.46968 0
M  V30 4483 C 451.876 0.168502 -3.60206 0
M  V30 4484 O 450.98 1.23347 -3.93522 0
M  V30 4485 H 450.321 -0.0466108 -0.662362 0
M  V30 4486 H 452.851 -0.759387 -1.89985 0
M  V30 4487 H 452.861 0.385982 -4.0617 0
M  V30 4488 H 451.536 -0.766075 -4.08784 0
M  V30 4489 H 450.113 0.997319 -3.59316 0
M  V30 4490 N 452.299 1.55045 -0.282633 0
M  V30 4491 C 453.246 2.22822 0.601566 0
M  V30 4492 C 454.216 1.20431 1.14392 0
M  V30 4493 O 455.401 1.48996 1.19184 0
M  V30 4494 C 452.541 2.95873 1.77632 0
M  V30 4495 C 451.654 4.12999 1.26711 0
M  V30 4496 C 450.789 4.73676 2.40426 0
M  V30 4497 C 449.828 5.82981 1.86545 0
M  V30 4498 N 448.965 6.3769 2.93762 0
M  V30 4499 H 453.805 2.97995 0.0169528 0
M  V30 4500 H 451.342 1.471 -0.00339964 0
M  V30 4501 H 453.3 3.36447 2.46697 0
M  V30 4502 H 451.93 2.2311 2.33285 0
M  V30 4503 H 450.982 3.77494 0.469314 0
M  V30 4504 H 452.294 4.91803 0.832518 0
M  V30 4505 H 451.448 5.17008 3.17471 0
M  V30 4506 H 450.187 3.94164 2.87203 0
M  V30 4507 H 449.192 5.39092 1.07983 0
M  V30 4508 H 450.417 6.64366 1.40694 0
M  V30 4509 H 448.363 5.61069 3.39908 0
M  V30 4510 H 448.28 7.11788 2.54744 0
M  V30 4511 H 449.548 6.8568 3.7076 0
M  V30 4512 N 453.777 0.010035 1.57597 0
M  V30 4513 C 454.687 -0.994226 2.12491 0
M  V30 4514 C 455.703 -1.37013 1.07254 0
M  V30 4515 O 456.879 -1.45542 1.3921 0
M  V30 4516 C 453.944 -2.2642 2.62555 0
M  V30 4517 C 453.005 -1.95049 3.82432 0
M  V30 4518 C 452.238 -3.15991 4.30099 0
M  V30 4519 O 452.461 -4.28015 3.7704 0
M  V30 4520 O 451.395 -2.99403 5.22151 0
M  V30 4521 H 455.221 -0.557549 2.98538 0
M  V30 4522 H 452.806 -0.209413 1.47925 0
M  V30 4523 H 454.688 -3.01009 2.9491 0
M  V30 4524 H 453.363 -2.69306 1.796 0
M  V30 4525 H 452.27 -1.17904 3.55034 0
M  V30 4526 H 453.603 -1.56992 4.66491 0
M  V30 4527 N 455.255 -1.55392 -0.262866 0
M  V30 4528 C 456.203 -1.8977 -1.345 0
M  V30 4529 C 457.197 -0.775063 -1.50629 0
M  V30 4530 O 458.403 -0.959519 -1.52293 0
M  V30 4531 H 454.778 -0.602467 -0.450041 0
M  V30 4532 H 456.749 -2.80147 -1.02762 0
M  V30 4533 C 455.498 -2.19501 -2.69657 0
M  V30 4534 H 454.821 -3.05378 -2.5804 0
M  V30 4535 H 456.261 -2.47469 -3.44289 0
M  V30 4536 C 454.72 -1.00597 -3.21531 0
M  V30 4537 O 455.25 -0.245768 -4.00947 0
M  V30 4538 N 453.456 -0.800911 -2.79345 0
M  V30 4539 H 453.003 -1.42079 -2.14875 0
M  V30 4540 H 452.961 -0.00697996 -3.14399 0
M  V30 4541 N 456.733 0.527833 -1.48498 0
M  V30 4542 C 457.981 1.28101 -1.56316 0
M  V30 4543 C 458.302 1.9352 -0.239781 0
M  V30 4544 O 457.572 1.81433 0.738849 0
M  V30 4545 H 456.152 0.475793 -0.575873 0
M  V30 4546 H 458.814 0.614052 -1.84974 0
M  V30 4547 H 457.91 2.05916 -2.34532 0
M  V30 4548 N 458.211 1.37122 0.776871 0
M  V30 4549 C 459.158 1.3247 1.88998 0
M  V30 4550 C 460.128 0.191143 1.64997 0
M  V30 4551 O 461.313 0.379683 1.86984 0
M  V30 4552 C 458.453 1.13241 3.25992 0
M  V30 4553 C 457.566 2.35782 3.61982 0
M  V30 4554 C 456.701 2.09465 4.88158 0
M  V30 4555 C 455.74 3.279 5.16864 0
M  V30 4556 N 454.877 3.01167 6.34226 0
M  V30 4557 H 459.717 2.27642 1.9231 0
M  V30 4558 H 457.254 1.13125 0.94027 0
M  V30 4559 H 459.212 1.00115 4.0501 0
M  V30 4560 H 457.842 0.217186 3.22069 0
M  V30 4561 H 456.894 2.59666 2.77989 0
M  V30 4562 H 458.206 3.24125 3.79137 0
M  V30 4563 H 457.36 1.93341 5.75069 0
M  V30 4564 H 456.099 1.18452 4.73097 0
M  V30 4565 H 455.104 3.44569 4.2843 0
M  V30 4566 H 456.329 4.19757 5.33836 0
M  V30 4567 H 454.275 2.12779 6.20533 0
M  V30 4568 H 454.192 3.83052 6.51772 0
M  V30 4569 H 455.46 2.88649 7.24087 0
M  V30 4570 N 459.689 -1.00246 1.21608 0
M  V30 4571 C 461.105 -1.26435 0.973975 0
M  V30 4572 C 461.305 -1.98642 -0.338143 0
M  V30 4573 O 460.361 -2.29026 -1.06317 0
M  V30 4574 C 461.674 -2.08551 2.16626 0
M  V30 4575 C 463.222 -2.21769 2.20879 0
M  V30 4576 C 463.697 -3.07267 3.39633 0
M  V30 4577 N 465.188 -3.14855 3.39736 0
M  V30 4578 C 465.923 -3.81274 4.28273 0
M  V30 4579 N 465.419 -4.497 5.27012 0
M  V30 4580 N 467.212 -3.7794 4.16074 0
M  V30 4581 H 459.363 -0.518089 2.05984 0
M  V30 4582 H 461.626 -0.291368 0.902113 0
M  V30 4583 H 461.332 -1.62847 3.11727 0
M  V30 4584 H 461.206 -3.09303 2.15897 0
M  V30 4585 H 463.593 -2.66691 1.26332 0
M  V30 4586 H 463.674 -1.20478 2.25652 0
M  V30 4587 H 463.318 -2.63047 4.34475 0
M  V30 4588 H 463.248 -4.08678 3.321 0
M  V30 4589 H 465.739 -2.66147 2.6828 0
M  V30 4590 H 466.052 -4.98092 5.90867 0
M  V30 4591 H 464.397 -4.48479 5.30935 0
M  V30 4592 H 467.588 -3.23638 3.38195 0
M  V30 4593 H 467.761 -4.29424 4.85282 0
M  V30 4594 N 461.167 -1.02423 -1.1978 0
M  V30 4595 C 462.395 -0.737456 -1.93311 0
M  V30 4596 C 462.81 0.703023 -1.75223 0
M  V30 4597 O 462.167 1.47761 -1.07112 0
M  V30 4598 C 462.218 -1.0733 -3.45199 0
M  V30 4599 O 461.939 -2.4572 -3.62702 0
M  V30 4600 C 463.44 -0.80866 -4.35862 0
M  V30 4601 H 460.66 -0.2702 -0.614193 0
M  V30 4602 H 463.204 -1.36747 -1.52054 0
M  V30 4603 H 461.359 -0.488545 -3.84307 0
M  V30 4604 H 461.773 -2.58081 -4.56612 0
M  V30 4605 H 463.247 -1.09365 -5.41057 0
M  V30 4606 H 463.724 0.257025 -4.38447 0
M  V30 4607 H 464.33 -1.37592 -4.02428 0
M  V30 4608 N 462.645 1.35699 -0.801477 0
M  V30 4609 C 463.555 2.33661 -0.209691 0
M  V30 4610 C 464.571 1.6162 0.644591 0
M  V30 4611 O 465.747 1.93529 0.557545 0
M  V30 4612 C 462.812 3.40816 0.636033 0
M  V30 4613 C 461.873 4.28639 -0.238147 0
M  V30 4614 C 461.106 5.30676 0.567307 0
M  V30 4615 O 461.329 5.41174 1.8024 0
M  V30 4616 O 460.263 6.01887 -0.0391336 0
M  V30 4617 H 464.089 2.8606 -1.01996 0
M  V30 4618 H 461.674 1.38379 -0.563164 0
M  V30 4619 H 463.556 4.06301 1.11791 0
M  V30 4620 H 462.231 2.90696 1.42399 0
M  V30 4621 H 461.138 3.66152 -0.767044 0
M  V30 4622 H 462.471 4.82143 -0.989915 0
M  V30 4623 N 464.123 0.554532 1.47522 0
M  V30 4624 C 465.369 0.0295227 2.02779 0
M  V30 4625 C 465.702 -1.31582 1.42828 0
M  V30 4626 O 464.977 -1.85561 0.582872 0
M  V30 4627 C 465.26 -0.0664057 3.60039 0
M  V30 4628 C 465.113 1.30585 4.30427 0
M  V30 4629 C 466.432 -0.781162 4.33112 0
M  V30 4630 H 463.551 0.0122027 0.736899 0
M  V30 4631 H 466.193 0.716305 1.7598 0
M  V30 4632 H 464.343 -0.651307 3.83002 0
M  V30 4633 H 466.015 1.93374 4.18813 0
M  V30 4634 H 464.258 1.88125 3.90886 0
M  V30 4635 H 464.929 1.19147 5.38988 0
M  V30 4636 H 467.405 -0.284565 4.15126 0
M  V30 4637 H 466.281 -0.817237 5.42782 0
M  V30 4638 H 466.542 -1.83672 4.0214 0
M  V30 4639 N 465.601 -1.54893 0.290851 0
M  V30 4640 C 466.548 -2.23138 -0.58974 0
M  V30 4641 C 467.518 -1.21036 -1.13752 0
M  V30 4642 O 468.703 -1.49626 -1.18392 0
M  V30 4643 C 465.843 -2.96811 -1.76061 0
M  V30 4644 C 464.956 -4.13665 -1.24519 0
M  V30 4645 C 464.091 -4.74944 -2.3791 0
M  V30 4646 C 463.13 -5.83963 -1.83451 0
M  V30 4647 N 462.267 -6.39239 -2.90376 0
M  V30 4648 H 467.107 -2.98 -0.00114915 0
M  V30 4649 H 464.644 -1.47096 0.0112006 0
M  V30 4650 H 466.602 -3.37751 -2.44909 0
M  V30 4651 H 465.232 -2.24344 -2.32098 0
M  V30 4652 H 464.284 -3.77737 -0.449288 0
M  V30 4653 H 465.596 -4.92238 -0.806424 0
M  V30 4654 H 464.75 -5.18684 -3.14724 0
M  V30 4655 H 463.489 -3.95682 -2.85109 0
M  V30 4656 H 462.494 -5.39657 -1.05122 0
M  V30 4657 H 463.719 -6.65103 -1.37169 0
M  V30 4658 H 461.665 -5.62864 -3.36927 0
M  V30 4659 H 461.582 -7.13129 -2.50965 0
M  V30 4660 H 462.85 -6.87637 -3.67118 0
M  V30 4661 N 467.08 -0.0183926 -1.57589 0
M  V30 4662 C 468.329 0.66185 -1.90532 0
M  V30 4663 C 468.642 1.73904 -0.895366 0
M  V30 4664 O 469.848 2.47518 -1.11566 0
M  V30 4665 C 468.304 1.22844 -3.38286 0
M  V30 4666 C 467.912 0.185103 -4.47617 0
M  V30 4667 C 469.656 1.88581 -3.80312 0
M  V30 4668 C 467.563 0.762723 -5.86461 0
M  V30 4669 H 466.493 0.250972 -0.711006 0
M  V30 4670 H 469.144 -0.0819435 -1.83317 0
M  V30 4671 H 467.526 2.0235 -3.40398 0
M  V30 4672 H 468.7 -0.58671 -4.5705 0
M  V30 4673 H 467.015 -0.372889 -4.14727 0
M  V30 4674 H 469.612 2.32735 -4.81392 0
M  V30 4675 H 469.955 2.72408 -3.14801 0
M  V30 4676 H 470.488 1.15782 -3.80578 0
M  V30 4677 H 467.227 -0.0371713 -6.55489 0
M  V30 4678 H 466.747 1.50327 -5.80656 0
M  V30 4679 H 468.426 1.25576 -6.34697 0
M  V30 4680 N 468.558 1.5553 0.254621 0
M  V30 4681 C 469.806 1.7665 0.981793 0
M  V30 4682 C 470.127 0.580963 1.86145 0
M  V30 4683 O 469.397 -0.403537 1.91699 0
M  V30 4684 H 467.977 0.651475 0.365498 0
M  V30 4685 H 470.639 1.92958 0.274426 0
M  V30 4686 H 469.735 2.67486 1.60802 0
M  V30 4687 N 470.036 -0.519951 1.48776 0
M  V30 4688 C 470.999 -1.60574 1.6355 0
M  V30 4689 C 471.999 -1.52557 0.508234 0
M  V30 4690 O 473.189 -1.56047 0.774262 0
M  V30 4691 C 470.321 -3.00211 1.61512 0
M  V30 4692 H 471.514 -1.4881 2.60376 0
M  V30 4693 H 469.067 -0.742772 1.37523 0
M  V30 4694 H 469.802 -3.17471 0.662009 0
M  V30 4695 H 469.587 -3.07439 2.43359 0
M  V30 4696 H 471.077 -3.79134 1.75064 0
M  V30 4697 N 471.514 -1.37532 -0.769588 0
M  V30 4698 C 472.461 -1.3347 -1.88293 0
M  V30 4699 C 473.431 -0.199891 -1.64893 0
M  V30 4700 O 474.616 -0.389594 -1.8678 0
M  V30 4701 C 471.756 -1.14968 -3.25387 0
M  V30 4702 C 470.869 -2.37698 -3.60727 0
M  V30 4703 C 470.004 -2.12051 -4.8704 0
M  V30 4704 C 469.043 -3.30636 -5.15117 0
M  V30 4705 N 468.18 -3.04527 -6.3262 0
M  V30 4706 H 473.02 -2.28658 -1.911 0
M  V30 4707 H 470.557 -1.13622 -0.934257 0
M  V30 4708 H 472.515 -1.02261 -4.04473 0
M  V30 4709 H 471.145 -0.234263 -3.21949 0
M  V30 4710 H 470.197 -2.61137 -2.76608 0
M  V30 4711 H 471.509 -3.26131 -3.77413 0
M  V30 4712 H 470.663 -1.96388 -5.74035 0
M  V30 4713 H 469.402 -1.20959 -4.72462 0
M  V30 4714 H 468.407 -3.46836 -4.26597 0
M  V30 4715 H 469.632 -4.22582 -5.31603 0
M  V30 4716 H 467.578 -2.16067 -6.19396 0
M  V30 4717 H 467.495 -3.86503 -6.49732 0
M  V30 4718 H 468.763 -2.92485 -7.22546 0
M  V30 4719 N 472.992 0.995999 -1.22138 0
M  V30 4720 C 474.22 1.77066 -1.07029 0
M  V30 4721 C 474.635 1.8495 0.379357 0
M  V30 4722 O 473.992 1.3174 1.26297 0
M  V30 4723 C 474.043 3.20533 -1.67155 0
M  V30 4724 O 473.764 3.13082 -3.06449 0
M  V30 4725 C 475.265 4.14461 -1.5728 0
M  V30 4726 H 472.485 0.556179 -0.375374 0
M  V30 4727 H 475.029 1.25238 -1.61666 0
M  V30 4728 H 473.184 3.6944 -1.16589 0
M  V30 4729 H 473.598 4.03283 -3.35355 0
M  V30 4730 H 475.072 5.1289 -2.04078 0
M  V30 4731 H 475.549 4.36005 -0.528795 0
M  V30 4732 H 476.155 3.71449 -2.07136 0
M  V30 4733 N 474.47 1.03057 1.19235 0
M  V30 4734 C 475.695 0.74757 1.93458 0
M  V30 4735 C 476.12 -0.687648 1.7508 0
M  V30 4736 O 475.478 -1.47499 1.05422 0
M  V30 4737 C 475.526 1.10604 3.43219 0
M  V30 4738 O 474.63 0.225671 4.11782 0
M  V30 4739 H 473.971 0.276047 0.603899 0
M  V30 4740 H 476.501 1.3777 1.51263 0
M  V30 4741 H 476.511 1.06366 3.93891 0
M  V30 4742 H 475.186 2.15165 3.55917 0
M  V30 4743 H 473.763 0.326795 3.71465 0
M  V30 4744 N 475.948 -1.35272 0.808662 0
M  V30 4745 C 477.194 -1.99003 0.390581 0
M  V30 4746 C 477.527 -1.63999 -1.0401 0
M  V30 4747 O 476.802 -0.904368 -1.72196 0
M  V30 4748 C 477.085 -3.55454 0.576566 0
M  V30 4749 C 476.938 -4.00249 2.05233 0
M  V30 4750 C 478.257 -4.401 0.00354277 0
M  V30 4751 H 475.376 -0.722917 0.143388 0
M  V30 4752 H 478.018 -1.6039 1.01858 0
M  V30 4753 H 476.168 -3.88477 0.0419766 0
M  V30 4754 H 477.84 -3.77626 2.64946 0
M  V30 4755 H 476.083 -3.51082 2.54801 0
M  V30 4756 H 476.754 -5.0911 2.13333 0
M  V30 4757 H 479.23 -4.13548 0.460117 0
M  V30 4758 H 478.106 -5.48656 0.163575 0
M  V30 4759 H 478.367 -4.28444 -1.09032 0
M  V30 4760 N 477.426 -0.562348 -1.47226 0
M  V30 4761 C 478.675 -0.038041 -2.01664 0
M  V30 4762 C 478.988 1.32199 -1.44162 0
M  V30 4763 O 480.194 1.9365 -1.90294 0
M  V30 4764 C 478.65 -0.0174958 -3.59896 0
M  V30 4765 C 478.258 -1.3746 -4.2639 0
M  V30 4766 C 480.002 0.453934 -4.22066 0
M  V30 4767 C 477.909 -1.31289 -5.76643 0
M  V30 4768 H 476.839 -0.0104511 -0.753928 0
M  V30 4769 H 479.49 -0.710966 -1.69167 0
M  V30 4770 H 477.872 0.721182 -3.89378 0
M  V30 4771 H 479.046 -2.1314 -4.08544 0
M  V30 4772 H 477.361 -1.78438 -3.7623 0
M  V30 4773 H 479.958 0.518584 -5.32179 0
M  V30 4774 H 480.301 1.46706 -3.89594 0
M  V30 4775 H 480.834 -0.230044 -3.97134 0
M  V30 4776 H 477.573 -2.30217 -6.13743 0
M  V30 4777 H 477.093 -0.597973 -5.96812 0
M  V30 4778 H 478.772 -1.01713 -6.38955 0
M  V30 4779 N 478.904 1.54736 -0.299062 0
M  V30 4780 C 479.851 2.23448 0.577899 0
M  V30 4781 C 480.821 1.21637 1.13109 0
M  V30 4782 O 482.006 1.50252 1.17597 0
M  V30 4783 C 479.146 2.9774 1.74484 0
M  V30 4784 C 478.259 4.1432 1.22323 0
M  V30 4785 C 477.394 4.76199 2.35388 0
M  V30 4786 C 476.433 5.84927 1.80351 0
M  V30 4787 N 475.57 6.4077 2.86982 0
M  V30 4788 H 480.41 2.97996 -0.0146545 0
M  V30 4789 H 477.947 1.47088 -0.0190013 0
M  V30 4790 H 479.905 3.39045 2.43114 0
M  V30 4791 H 478.535 2.25572 2.30905 0
M  V30 4792 H 477.587 3.7797 0.429249 0
M  V30 4793 H 478.899 4.92659 0.780309 0
M  V30 4794 H 478.053 5.20346 3.11969 0
M  V30 4795 H 476.792 3.97188 2.83006 0
M  V30 4796 H 475.797 5.40207 1.02259 0
M  V30 4797 H 477.022 6.65821 1.3364 0
M  V30 4798 H 474.968 5.64643 3.33938 0
M  V30 4799 H 474.885 7.1445 2.4718 0
M  V30 4800 H 476.153 6.89574 3.63466 0
M  V30 4801 N 480.382 0.0267497 1.57577 0
M  V30 4802 C 481.292 -0.971633 2.13533 0
M  V30 4803 C 482.308 -1.35868 1.08701 0
M  V30 4804 O 483.484 -1.44058 1.40746 0
M  V30 4805 C 480.549 -2.23622 2.64941 0
M  V30 4806 C 479.61 -1.90982 3.8448 0
M  V30 4807 C 478.843 -3.11411 4.33427 0
M  V30 4808 O 479.066 -4.23992 3.81558 0
M  V30 4809 O 478 -2.93848 5.25297 0
M  V30 4810 H 481.826 -0.525853 2.99113 0
M  V30 4811 H 479.411 -0.193712 1.48139 0
M  V30 4812 H 481.293 -2.97864 2.98086 0
M  V30 4813 H 479.968 -2.67386 1.82446 0
M  V30 4814 H 478.875 -1.14132 3.56265 0
M  V30 4815 H 480.208 -1.52036 4.6813 0
M  V30 4816 N 481.861 -1.55662 -0.24637 0
M  V30 4817 C 482.808 -1.90361 -1.30504 0
M  V30 4818 C 483.778 -0.757905 -1.47801 0
M  V30 4819 O 484.963 -1.01161 -1.61775 0
M  V30 4820 C 482.103 -2.2042 -2.65535 0
M  V30 4821 C 481.216 -3.47799 -2.56242 0
M  V30 4822 C 480.351 -3.67426 -3.8363 0
M  V30 4823 C 479.39 -4.88403 -3.68956 0
M  V30 4824 N 478.527 -5.04548 -4.88237 0
M  V30 4825 H 483.367 -2.80645 -1.00213 0
M  V30 4826 H 480.904 -1.38924 -0.483577 0
M  V30 4827 H 482.862 -2.35853 -3.44135 0
M  V30 4828 H 481.492 -1.3334 -2.93973 0
M  V30 4829 H 480.544 -3.40694 -1.69208 0
M  V30 4830 H 481.856 -4.36544 -2.4131 0
M  V30 4831 H 481.01 -3.82821 -4.70673 0
M  V30 4832 H 479.749 -2.76914 -4.01459 0
M  V30 4833 H 478.754 -4.72984 -2.80296 0
M  V30 4834 H 479.979 -5.80375 -3.52621 0
M  V30 4835 H 477.925 -4.16974 -5.06427 0
M  V30 4836 H 477.842 -5.87384 -4.75937 0
M  V30 4837 H 479.11 -5.24355 -5.76777 0
M  V30 4838 N 483.339 0.512053 -1.4905 0
M  V30 4839 C 484.616 1.27337 -1.48474 0
M  V30 4840 C 484.996 2.1009 -0.206301 0
M  V30 4841 O 484.344 2.136 0.811609 0
M  V30 4842 C 484.554 2.13954 -2.75726 0
M  V30 4843 C 485.902 2.73507 -3.24776 0
M  V30 4844 O 486.926 2.24229 -2.76767 0
M  V30 4845 O 485.785 3.63186 -4.08361 0
M  V30 4846 H 482.879 0.575652 -0.593762 0
M  V30 4847 H 485.425 0.527232 -1.61302 0
M  V30 4848 H 484.197 1.52709 -3.60272 0
M  V30 4849 H 483.82 2.95782 -2.65705 0
M  V30 4850 N 484.817 1.37938 0.762283 0
M  V30 4851 C 486.065 1.33404 1.51815 0
M  V30 4852 C 486.386 -0.0780975 1.94844 0
M  V30 4853 O 485.656 -1.02405 1.67003 0
M  V30 4854 H 484.236 0.490839 0.563104 0
M  V30 4855 H 486.898 1.72527 0.906669 0
M  V30 4856 H 485.994 1.97926 2.41313 0
M  V30 4857 N 486.295 -0.989507 1.22664 0
M  V30 4858 C 487.242 -2.08024 0.999733 0
M  V30 4859 C 488.212 -1.65909 -0.0797047 0
M  V30 4860 O 489.397 -1.90669 0.0705715 0
M  V30 4861 C 486.537 -3.40067 0.587234 0
M  V30 4862 C 485.65 -3.95505 1.73781 0
M  V30 4863 C 484.785 -5.15722 1.27297 0
M  V30 4864 C 483.824 -5.63305 2.39488 0
M  V30 4865 N 482.961 -6.74758 1.94026 0
M  V30 4866 H 487.801 -2.26768 1.9334 0
M  V30 4867 H 485.338 -1.11171 0.963297 0
M  V30 4868 H 487.296 -4.15899 0.329227 0
M  V30 4869 H 485.926 -3.21314 -0.309426 0
M  V30 4870 H 484.978 -3.16513 2.11006 0
M  V30 4871 H 486.29 -4.26797 2.58158 0
M  V30 4872 H 485.444 -5.98854 0.972546 0
M  V30 4873 H 484.183 -4.86061 0.399445 0
M  V30 4874 H 483.188 -4.78759 2.70315 0
M  V30 4875 H 484.413 -5.94988 3.27362 0
M  V30 4876 H 482.359 -6.46874 1.09041 0
M  V30 4877 H 482.276 -7.05386 2.71968 0
M  V30 4878 H 483.544 -7.61387 1.67062 0
M  V30 4879 N 487.773 -1.03688 -1.18687 0
M  V30 4880 C 488.703 -0.645407 -2.24403 0
M  V30 4881 C 489.684 0.349511 -1.66471 0
M  V30 4882 O 490.869 0.230453 -1.92828 0
M  V30 4883 C 487.999 -0.00365337 -3.473 0
M  V30 4884 C 486.953 -0.921705 -4.17958 0
M  V30 4885 C 486.279 -0.144629 -5.34504 0
M  V30 4886 C 487.579 -2.23909 -4.71871 0
M  V30 4887 H 489.273 -1.52917 -2.57404 0
M  V30 4888 H 486.819 -0.736711 -1.23728 0
M  V30 4889 H 488.772 0.281908 -4.20456 0
M  V30 4890 H 487.496 0.914963 -3.13522 0
M  V30 4891 H 486.155 -1.19159 -3.46694 0
M  V30 4892 H 485.803 0.776274 -4.96974 0
M  V30 4893 H 485.503 -0.756206 -5.82714 0
M  V30 4894 H 487.027 0.134004 -6.10453 0
M  V30 4895 H 488.441 -2.0145 -5.36741 0
M  V30 4896 H 486.838 -2.8033 -5.30599 0
M  V30 4897 H 487.908 -2.88822 -3.895 0
M  V30 4898 N 489.251 1.34841 -0.815825 0
M  V30 4899 C 490.498 1.98499 -0.400535 0
M  V30 4900 C 490.826 1.64699 1.03463 0
M  V30 4901 O 490.081 0.907006 1.73412 0
M  V30 4902 C 490.38 3.53273 -0.541541 0
M  V30 4903 C 490.046 4.06966 -1.94138 0
M  V30 4904 C 488.708 4.21341 -2.32433 0
M  V30 4905 C 491.06 4.35933 -2.85677 0
M  V30 4906 C 488.388 4.62007 -3.61617 0
M  V30 4907 C 490.74 4.78042 -4.14317 0
M  V30 4908 C 489.404 4.90622 -4.52599 0
M  V30 4909 H 488.674 0.72636 -0.146566 0
M  V30 4910 H 491.321 1.60902 -1.0384 0
M  V30 4911 H 489.626 3.91387 0.179741 0
M  V30 4912 H 491.323 4.00497 -0.20085 0
M  V30 4913 H 487.913 3.96235 -1.63388 0
M  V30 4914 H 492.097 4.24372 -2.57337 0
M  V30 4915 H 487.353 4.69937 -3.91113 0
M  V30 4916 H 491.527 4.99415 -4.85342 0
M  V30 4917 H 489.154 5.2189 -5.52752 0
M  V30 4918 N 490.729 0.570148 1.46925 0
M  V30 4919 C 491.957 0.0561966 2.06824 0
M  V30 4920 C 492.372 -1.24326 1.42086 0
M  V30 4921 O 491.729 -1.74882 0.521794 0
M  V30 4922 C 491.78 -0.129517 3.61268 0
M  V30 4923 O 491.501 1.1185 4.23581 0
M  V30 4924 C 493.002 -0.679266 4.38065 0
M  V30 4925 H 490.222 0.0517261 0.669003 0
M  V30 4926 H 492.766 0.787243 1.8874 0
M  V30 4927 H 490.921 -0.810739 3.78822 0
M  V30 4928 H 491.335 0.924375 5.1629 0
M  V30 4929 H 492.809 -0.758445 5.46765 0
M  V30 4930 H 493.286 -1.69346 4.05239 0
M  V30 4931 H 493.892 -0.0333237 4.25287 0
M  V30 4932 N 492.207 -1.54576 0.307264 0
M  V30 4933 C 493.455 -1.99867 -0.299574 0
M  V30 4934 C 493.776 -1.19714 -1.53927 0
M  V30 4935 O 493.046 -0.29472 -1.9367 0
M  V30 4936 H 491.626 -0.738299 -0.113683 0
M  V30 4937 H 494.288 -1.9032 0.420042 0
M  V30 4938 H 493.384 -3.06901 -0.567283 0
M  V30 4939 N 493.685 -0.035106 -1.57561 0
M  V30 4940 C 494.632 0.94474 -2.10578 0
M  V30 4941 C 495.602 1.3192 -1.00927 0
M  V30 4942 O 496.787 1.41147 -1.28382 0
M  V30 4943 C 493.927 2.21982 -2.64231 0
M  V30 4944 C 493.04 1.90128 -3.87911 0
M  V30 4945 C 492.175 3.11975 -4.29936 0
M  V30 4946 C 491.214 2.75968 -5.46359 0
M  V30 4947 N 490.351 3.90459 -5.83512 0
M  V30 4948 H 495.191 0.485717 -2.94015 0
M  V30 4949 H 492.728 0.228143 -1.4532 0
M  V30 4950 H 494.686 2.96572 -2.9343 0
M  V30 4951 H 493.316 2.6549 -1.83616 0
M  V30 4952 H 492.368 1.05755 -3.65404 0
M  V30 4953 H 493.68 1.59613 -4.72573 0
M  V30 4954 H 492.834 3.9488 -4.60603 0
M  V30 4955 H 491.573 3.45657 -3.44053 0
M  V30 4956 H 490.578 1.91478 -5.1538 0
M  V30 4957 H 491.803 2.43497 -6.33945 0
M  V30 4958 H 489.749 4.23971 -5.00584 0
M  V30 4959 H 489.666 3.63588 -6.62827 0
M  V30 4960 H 490.934 4.7405 -6.18787 0
M  V30 4961 N 495.163 1.55791 0.238111 0
M  V30 4962 C 496.126 1.90239 1.27835 0
M  V30 4963 C 497.126 0.779552 1.4064 0
M  V30 4964 O 498.316 1.04747 1.3919 0
M  V30 4965 C 495.448 2.13859 2.65475 0
M  V30 4966 H 496.641 2.83262 0.985034 0
M  V30 4967 H 494.194 1.48818 0.477799 0
M  V30 4968 H 494.929 1.23334 2.99932 0
M  V30 4969 H 494.714 2.95643 2.57561 0
M  V30 4970 H 496.204 2.41664 3.40571 0
M  V30 4971 N 496.642 -0.504142 1.49319 0
M  V30 4972 C 497.59 -1.62689 1.66238 0
M  V30 4973 C 498.584 -1.6095 0.528349 0
M  V30 4974 O 499.79 -1.65496 0.707887 0
M  V30 4975 H 496.165 -0.539247 0.524134 0
M  V30 4976 H 498.136 -1.45571 2.60484 0
M  V30 4977 C 496.885 -3.00841 1.74328 0
M  V30 4978 H 496.208 -3.02884 2.60963 0
M  V30 4979 H 497.648 -3.78945 1.90202 0
M  V30 4980 C 496.107 -3.33355 0.487416 0
M  V30 4981 O 496.637 -3.99819 -0.388294 0
M  V30 4982 N 494.843 -2.88469 0.351306 0
M  V30 4983 H 494.39 -2.34557 1.06492 0
M  V30 4984 H 494.348 -3.10591 -0.487899 0
M  V30 4985 N 498.12 -1.38341 -0.754957 0
M  V30 4986 C 499.067 -1.3546 -1.86867 0
M  V30 4987 C 500.037 -0.217369 -1.64672 0
M  V30 4988 O 501.222 -0.409383 -1.86356 0
M  V30 4989 C 498.362 -1.18413 -3.24149 0
M  V30 4990 C 497.475 -2.41511 -3.58185 0
M  V30 4991 C 496.61 -2.17205 -4.84763 0
M  V30 4992 C 495.649 -3.36081 -5.11582 0
M  V30 4993 N 494.786 -3.11219 -6.29354 0
M  V30 4994 H 499.626 -2.30672 -1.88664 0
M  V30 4995 H 497.163 -1.14607 -0.922154 0
M  V30 4996 H 499.121 -1.06545 -4.03366 0
M  V30 4997 H 497.751 -0.268397 -3.21682 0
M  V30 4998 H 496.803 -2.64056 -2.73822 0
M  V30 4999 H 498.115 -3.30115 -3.73932 0
M  V30 5000 H 497.269 -2.02465 -5.7192 0
M  V30 5001 H 496.008 -1.25964 -4.71152 0
M  V30 5002 H 495.013 -3.51341 -4.22894 0
M  V30 5003 H 496.238 -4.28196 -5.27091 0
M  V30 5004 H 494.184 -2.22624 -6.17069 0
M  V30 5005 H 494.101 -3.93373 -6.45596 0
M  V30 5006 H 495.369 -3.00132 -7.19403 0
M  V30 5007 N 499.598 0.982988 -1.23187 0
M  V30 5008 C 500.508 2.10907 -1.02739 0
M  V30 5009 C 501.524 1.73979 0.0273188 0
M  V30 5010 O 502.7 2.00702 -0.16757 0
M  V30 5011 C 499.765 3.41142 -0.618304 0
M  V30 5012 C 498.826 3.92112 -1.74777 0
M  V30 5013 C 498.059 5.16131 -1.3581 0
M  V30 5014 O 498.282 5.6989 -0.241201 0
M  V30 5015 O 497.216 5.61103 -2.17824 0
M  V30 5016 H 501.042 2.31046 -1.97108 0
M  V30 5017 H 498.627 1.09284 -1.01869 0
M  V30 5018 H 500.509 4.19488 -0.400982 0
M  V30 5019 H 499.184 3.2234 0.296421 0
M  V30 5020 H 498.091 3.14895 -2.0197 0
M  V30 5021 H 499.424 4.15364 -2.64071 0
M  V30 5022 N 501.076 1.04316 1.18135 0
M  V30 5023 C 502.304 0.768117 1.92113 0
M  V30 5024 C 502.719 -0.675057 1.76319 0
M  V30 5025 O 502.076 -1.46038 1.09449 0
M  V30 5026 C 502.127 1.12808 3.43448 0
M  V30 5027 O 501.848 2.5146 3.58747 0
M  V30 5028 C 503.349 0.8779 4.3452 0
M  V30 5029 H 500.569 0.279937 0.609817 0
M  V30 5030 H 503.113 1.39149 1.49859 0
M  V30 5031 H 501.268 0.549623 3.83481 0
M  V30 5032 H 501.682 2.65313 4.52448 0
M  V30 5033 H 503.156 1.17959 5.39249 0
M  V30 5034 H 503.633 -0.187239 4.38801 0
M  V30 5035 H 504.239 1.43977 4.00188 0
M  V30 5036 N 502.554 -1.34406 0.822964 0
M  V30 5037 C 503.502 -2.31428 0.233165 0
M  V30 5038 C 504.496 -1.57404 -0.626118 0
M  V30 5039 O 505.702 -1.72402 -0.517453 0
M  V30 5040 H 502.077 -0.749863 0.0566557 0
M  V30 5041 H 504.048 -2.78699 1.06628 0
M  V30 5042 C 502.797 -3.42653 -0.590264 0
M  V30 5043 H 502.12 -3.99753 0.0616129 0
M  V30 5044 H 503.56 -4.12778 -0.969054 0
M  V30 5045 C 502.019 -2.87112 -1.76262 0
M  V30 5046 O 502.549 -2.81995 -2.8608 0
M  V30 5047 N 500.755 -2.43934 -1.57938 0
M  V30 5048 H 500.302 -2.48296 -0.686078 0
M  V30 5049 H 500.26 -2.07123 -2.36532 0
M  V30 5050 N 504.032 -0.577932 -1.46621 0
M  V30 5051 C 504.979 0.158048 -2.30258 0
M  V30 5052 C 505.949 0.888669 -1.40328 0
M  V30 5053 O 507.134 0.880283 -1.6928 0
M  V30 5054 C 504.274 1.16884 -3.24703 0
M  V30 5055 C 503.387 0.442163 -4.29731 0
M  V30 5056 C 502.522 1.44007 -5.11308 0
M  V30 5057 C 501.561 0.69952 -6.0809 0
M  V30 5058 N 500.698 1.64525 -6.82551 0
M  V30 5059 H 505.538 -0.561242 -2.92667 0
M  V30 5060 H 503.075 -0.288591 -1.44241 0
M  V30 5061 H 505.033 1.7677 -3.779 0
M  V30 5062 H 503.663 1.85591 -2.64113 0
M  V30 5063 H 502.715 -0.271632 -3.79429 0
M  V30 5064 H 504.027 -0.136992 -4.98612 0
M  V30 5065 H 503.181 2.11186 -5.68758 0
M  V30 5066 H 501.92 2.05315 -4.42377 0
M  V30 5067 H 500.925 0.0139217 -5.49798 0
M  V30 5068 H 502.15 0.091894 -6.79038 0
M  V30 5069 H 500.096 2.24653 -6.16334 0
M  V30 5070 H 500.013 1.11878 -7.47676 0
M  V30 5071 H 501.281 2.30754 -7.44562 0
M  V30 5072 N 505.51 1.54411 -0.315457 0
M  V30 5073 C 506.756 2.00716 0.289972 0
M  V30 5074 C 507.089 1.2034 1.5242 0
M  V30 5075 O 506.364 0.283579 1.92422 0
M  V30 5076 C 506.647 3.54507 0.632196 0
M  V30 5077 C 506.5 4.45615 -0.61218 0
M  V30 5078 C 507.819 4.15421 1.45305 0
M  V30 5079 H 504.938 0.729637 0.10392 0
M  V30 5080 H 507.58 1.8506 -0.430427 0
M  V30 5081 H 505.73 3.67979 1.24595 0
M  V30 5082 H 507.402 4.44026 -1.25053 0
M  V30 5083 H 505.645 4.15621 -1.24264 0
M  V30 5084 H 506.316 5.51022 -0.328379 0
M  V30 5085 H 508.792 4.05474 0.934331 0
M  V30 5086 H 507.668 5.23157 1.66127 0
M  V30 5087 H 507.929 3.68223 2.44671 0
M  V30 5088 N 506.988 0.0434614 1.5754 0
M  V30 5089 C 508.265 -0.671479 1.83713 0
M  V30 5090 C 508.645 -1.89495 0.930315 0
M  V30 5091 O 507.993 -2.28498 -0.0105639 0
M  V30 5092 C 508.203 -1.0361 3.33266 0
M  V30 5093 C 509.551 -1.42167 4.00092 0
M  V30 5094 O 510.575 -1.12866 3.37846 0
M  V30 5095 O 509.434 -1.96817 5.09829 0
M  V30 5096 H 506.528 -0.330726 0.75799 0
M  V30 5097 H 509.074 0.0722373 1.69546 0
M  V30 5098 H 507.846 -0.165938 3.90948 0
M  V30 5099 H 507.469 -1.83751 3.52592 0
M  V30 5100 N 508.466 -1.55915 -0.229846 0
M  V30 5101 C 509.714 -1.7819 -0.953565 0
M  V30 5102 C 510.035 -0.610504 -1.85197 0
M  V30 5103 O 509.305 0.372988 -1.92316 0
M  V30 5104 H 507.885 -0.657208 -0.355087 0
M  V30 5105 H 510.547 -1.9337 -0.243693 0
M  V30 5106 H 509.643 -2.70011 -1.56527 0
M  V30 5107 N 509.944 0.496216 -1.49584 0
M  V30 5108 C 510.907 1.57952 -1.66084 0
M  V30 5109 C 511.907 1.51729 -0.53244 0
M  V30 5110 O 513.097 1.54796 -0.79899 0
M  V30 5111 C 510.229 2.97604 -1.66268 0
M  V30 5112 H 511.422 1.44649 -2.6271 0
M  V30 5113 H 508.975 0.7208 -1.38687 0
M  V30 5114 H 509.71 3.16378 -0.712432 0
M  V30 5115 H 509.495 3.03528 -2.4822 0
M  V30 5116 H 510.985 3.76301 -1.81073 0
M  V30 5117 N 511.423 1.38739 0.74761 0
M  V30 5118 C 512.371 1.36573 1.88283 0
M  V30 5119 C 513.365 0.250712 1.67534 0
M  V30 5120 O 514.571 0.420073 1.7503 0
M  V30 5121 H 510.946 0.42619 0.619569 0
M  V30 5122 H 512.917 2.32356 1.87226 0
M  V30 5123 C 511.666 1.21361 3.25832 0
M  V30 5124 H 510.989 2.06424 3.42388 0
M  V30 5125 H 512.429 1.23901 4.05493 0
M  V30 5126 C 510.888 -0.0790099 3.36807 0
M  V30 5127 O 511.418 -1.05385 3.8763 0
M  V30 5128 N 509.624 -0.13785 2.90273 0
M  V30 5129 H 509.171 0.656128 2.49104 0
M  V30 5130 H 509.129 -1.00228 2.97996 0
M  V30 5131 N 512.901 -0.976442 1.23707 0
M  V30 5132 C 513.864 -2.0511 1.02287 0
M  V30 5133 C 514.864 -1.60791 -0.0167195 0
M  V30 5134 O 516.054 -1.72761 0.223408 0
M  V30 5135 C 513.186 -3.36458 0.548507 0
M  V30 5136 H 514.379 -2.25545 1.9766 0
M  V30 5137 H 511.932 -1.15042 1.05806 0
M  V30 5138 H 512.667 -3.21713 -0.408818 0
M  V30 5139 H 512.452 -3.69967 1.29874 0
M  V30 5140 H 513.942 -4.15489 0.419406 0
M  V30 5141 N 514.379 -1.04941 -1.1758 0
M  V30 5142 C 515.607 -0.778294 -1.91703 0
M  V30 5143 C 516.022 0.665697 -1.76675 0
M  V30 5144 O 515.379 1.45456 -1.10222 0
M  V30 5145 C 515.43 -1.14628 -3.42845 0
M  V30 5146 O 515.151 -2.53359 -3.57409 0
M  V30 5147 C 516.652 -0.900931 -4.34049 0
M  V30 5148 H 513.872 -0.283167 -0.608323 0
M  V30 5149 H 516.416 -1.39942 -1.49119 0
M  V30 5150 H 514.571 -0.569953 -3.83184 0
M  V30 5151 H 514.985 -2.67709 -4.51035 0
M  V30 5152 H 516.459 -1.20817 -5.38616 0
M  V30 5153 H 516.936 0.163966 -4.38894 0
M  V30 5154 H 517.542 -1.46097 -3.99419 0
M  V30 5155 N 515.857 1.33968 -0.830081 0
M  V30 5156 C 516.767 2.33164 -0.259207 0
M  V30 5157 C 517.783 1.62951 0.610164 0
M  V30 5158 O 518.959 1.94668 0.516369 0
M  V30 5159 C 516.024 3.42088 0.563598 0
M  V30 5160 C 515.085 4.28037 -0.329014 0
M  V30 5161 C 514.318 5.3176 0.454616 0
M  V30 5162 O 514.541 5.44876 1.6872 0
M  V30 5163 O 513.475 6.01669 -0.166794 0
M  V30 5164 H 517.301 2.83832 -1.08041 0
M  V30 5165 H 514.886 1.37154 -0.59239 0
M  V30 5166 H 516.768 4.08581 1.03147 0
M  V30 5167 H 515.443 2.93651 1.36201 0
M  V30 5168 H 514.35 3.64443 -0.844538 0
M  V30 5169 H 515.683 4.79934 -1.09196 0
M  V30 5170 N 517.335 0.585699 1.46312 0
M  V30 5171 C 518.612 0.00542031 1.95599 0
M  V30 5172 C 518.992 -1.45619 1.52834 0
M  V30 5173 O 518.34 -2.14759 0.780446 0
M  V30 5174 C 518.55 0.180601 3.48532 0
M  V30 5175 C 519.898 0.049979 4.24571 0
M  V30 5176 O 520.922 0.109589 3.56031 0
M  V30 5177 O 519.781 -0.0832226 5.46437 0
M  V30 5178 H 516.875 -0.0481281 0.825598 0
M  V30 5179 H 519.421 0.654227 1.56582 0
M  V30 5180 H 518.193 1.19657 3.72556 0
M  V30 5181 H 517.816 -0.504498 3.94386 0
M  V30 5182 N 518.813 -1.54241 0.323641 0
M  V30 5183 C 519.776 -2.22997 -0.529602 0
M  V30 5184 C 520.776 -1.22345 -1.04347 0
M  V30 5185 O 521.966 -1.46924 -0.935889 0
M  V30 5186 C 519.098 -2.93409 -1.73562 0
M  V30 5187 H 520.291 -2.99815 0.0714518 0
M  V30 5188 H 517.844 -1.56121 0.0747258 0
M  V30 5189 H 518.579 -2.20729 -2.37591 0
M  V30 5190 H 518.364 -3.67217 -1.37456 0
M  V30 5191 H 519.854 -3.45794 -2.34128 0
M  V30 5192 N 520.291 -0.0518155 -1.57515 0
M  V30 5193 C 521.568 0.661727 -1.84067 0
M  V30 5194 C 521.948 1.88999 -0.940351 0
M  V30 5195 O 521.296 2.285 -0.00155404 0
M  V30 5196 C 521.506 1.01841 -3.3381 0
M  V30 5197 C 522.854 1.40043 -4.00841 0
M  V30 5198 O 523.878 1.11073 -3.38439 0
M  V30 5199 O 522.737 1.94111 -5.10865 0
M  V30 5200 H 519.831 0.326702 -0.759733 0
M  V30 5201 H 522.377 -0.0812277 -1.69505 0
M  V30 5202 H 521.149 0.145202 -3.91031 0
M  V30 5203 H 520.772 1.81879 -3.53562 0
M  V30 5204 N 521.769 1.56035 0.221574 0
M  V30 5205 C 522.679 1.95581 1.29558 0
M  V30 5206 C 523.695 0.859639 1.51282 0
M  V30 5207 O 524.871 1.16321 1.64413 0
M  V30 5208 C 521.936 2.26447 2.62531 0
M  V30 5209 C 520.997 3.49632 2.4911 0
M  V30 5210 C 520.23 3.79017 3.75742 0
M  V30 5211 O 520.453 3.10077 4.78757 0
M  V30 5212 O 519.387 4.72507 3.72855 0
M  V30 5213 H 523.213 2.8711 0.990035 0
M  V30 5214 H 520.798 1.43244 0.424434 0
M  V30 5215 H 522.68 2.47494 3.41064 0
M  V30 5216 H 521.355 1.38092 2.92766 0
M  V30 5217 H 520.262 3.33864 1.68777 0
M  V30 5218 H 521.595 4.3837 2.23814 0
M  V30 5219 N 523.247 -0.488276 1.49845 0
M  V30 5220 C 524.495 -1.23911 1.59657 0
M  V30 5221 C 524.816 -1.92816 0.291005 0
M  V30 5222 O 524.086 -1.83328 -0.690485 0
M  V30 5223 H 522.666 -0.460357 0.588286 0
M  V30 5224 H 525.328 -0.564794 1.86537 0
M  V30 5225 H 524.424 -1.99625 2.39909 0
M  V30 5226 N 524.725 -1.39134 -0.740242 0
M  V30 5227 C 525.672 -1.37434 -1.8542 0
M  V30 5228 C 526.642 -0.234822 -1.64432 0
M  V30 5229 O 527.827 -0.429125 -1.85912 0
M  V30 5230 C 524.967 -1.21844 -3.22875 0
M  V30 5231 C 524.08 -2.45296 -3.55603 0
M  V30 5232 C 523.215 -2.22334 -4.82432 0
M  V30 5233 C 522.254 -3.41488 -5.07988 0
M  V30 5234 N 521.391 -3.17877 -6.26018 0
M  V30 5235 H 526.231 -2.3266 -1.86207 0
M  V30 5236 H 523.768 -1.15578 -0.909946 0
M  V30 5237 H 525.726 -1.10818 -4.02213 0
M  V30 5238 H 524.356 -0.3025 -3.21379 0
M  V30 5239 H 523.408 -2.66945 -2.71006 0
M  V30 5240 H 524.72 -3.34063 -3.7041 0
M  V30 5241 H 523.874 -2.0852 -5.69741 0
M  V30 5242 H 522.613 -1.30954 -4.6979 0
M  V30 5243 H 521.618 -3.55807 -4.19144 0
M  V30 5244 H 522.843 -4.33763 -5.22519 0
M  V30 5245 H 520.789 -2.29156 -6.14673 0
M  V30 5246 H 520.706 -4.00198 -6.41387 0
M  V30 5247 H 521.974 -3.07746 -7.16179 0
M  V30 5248 N 526.204 0.969867 -1.24223 0
M  V30 5249 C 527.452 1.70918 -1.0785 0
M  V30 5250 C 527.773 1.91186 0.383763 0
M  V30 5251 O 527.043 1.48806 1.27411 0
M  V30 5252 H 525.623 0.633334 -0.396103 0
M  V30 5253 H 528.285 1.16689 -1.56108 0
M  V30 5254 H 527.381 2.69455 -1.57482 0
M  V30 5255 N 527.682 1.05563 1.17022 0
M  V30 5256 C 528.612 0.681026 2.23348 0
M  V30 5257 C 529.593 -0.322983 1.67005 0
M  V30 5258 O 530.778 -0.199746 1.9317 0
M  V30 5259 C 527.908 0.0589053 3.4725 0
M  V30 5260 C 526.862 0.988082 4.16438 0
M  V30 5261 C 526.188 0.229646 5.34207 0
M  V30 5262 C 527.488 2.31388 4.68249 0
M  V30 5263 H 529.182 1.56993 2.54938 0
M  V30 5264 H 526.728 0.756302 1.2254 0
M  V30 5265 H 528.681 -0.214982 4.20851 0
M  V30 5266 H 527.405 -0.864968 3.14938 0
M  V30 5267 H 526.064 1.24659 3.44754 0
M  V30 5268 H 525.712 -0.697111 4.98146 0
M  V30 5269 H 525.412 0.848815 5.81437 0
M  V30 5270 H 526.936 -0.0368694 6.10589 0
M  V30 5271 H 528.35 2.09964 5.33468 0
M  V30 5272 H 526.747 2.88736 5.26072 0
M  V30 5273 H 527.817 2.94982 3.84855 0
M  V30 5274 N 529.16 -1.33526 0.837174 0
M  V30 5275 C 530.406 -1.9813 0.432704 0
M  V30 5276 C 530.739 -1.66168 -1.00508 0
M  V30 5277 O 530.014 -0.94069 -1.70239 0
M  V30 5278 C 530.297 -3.54151 0.651834 0
M  V30 5279 C 530.15 -3.95806 2.13676 0
M  V30 5280 C 531.469 -4.39993 0.0968937 0
M  V30 5281 H 528.588 -0.719713 0.15869 0
M  V30 5282 H 531.23 -1.58193 1.05237 0
M  V30 5283 H 529.38 -3.88301 0.124369 0
M  V30 5284 H 531.052 -3.71921 2.72896 0
M  V30 5285 H 529.295 -3.45599 2.62191 0
M  V30 5286 H 529.966 -5.0447 2.24084 0
M  V30 5287 H 532.442 -4.12479 0.547733 0
M  V30 5288 H 531.318 -5.48186 0.279917 0
M  V30 5289 H 531.579 -4.3066 -0.9992 0
M  V30 5290 N 530.638 -0.59345 -1.46 0
M  V30 5291 C 531.866 -0.0890934 -2.06708 0
M  V30 5292 C 532.281 1.2205 -1.44046 0
M  V30 5293 O 531.638 1.74029 -0.549551 0
M  V30 5294 C 531.689 0.0720263 -3.61428 0
M  V30 5295 O 531.41 -1.18574 -4.21748 0
M  V30 5296 C 532.911 0.609487 -4.3909 0
M  V30 5297 H 530.131 -0.0623628 -0.668096 0
M  V30 5298 H 532.675 -0.817171 -1.87464 0
M  V30 5299 H 530.83 0.750369 -3.80063 0
M  V30 5300 H 531.244 -1.0064 -5.14754 0
M  V30 5301 H 532.718 0.671363 -5.47902 0
M  V30 5302 H 533.195 1.62878 -4.07882 0
M  V30 5303 H 533.801 -0.03434 -4.25286 0
M  V30 5304 N 532.116 1.54067 -0.331816 0
M  V30 5305 C 533.079 2.23275 0.517768 0
M  V30 5306 C 534.079 1.22897 1.03697 0
M  V30 5307 O 535.269 1.47419 0.928084 0
M  V30 5308 C 532.401 2.94326 1.72004 0
M  V30 5309 H 533.594 2.99773 -0.0873507 0
M  V30 5310 H 531.147 1.56079 -0.0830042 0
M  V30 5311 H 531.882 2.21986 2.36417 0
M  V30 5312 H 531.667 3.67941 1.35507 0
M  V30 5313 H 533.157 3.47031 2.32291 0
M  V30 5314 N 533.594 0.0601682 1.57485 0
M  V30 5315 C 534.541 -0.91112 2.12055 0
M  V30 5316 C 535.511 -1.30298 1.03013 0
M  V30 5317 O 536.696 -1.39087 1.30612 0
M  V30 5318 C 533.836 -2.1775 2.67729 0
M  V30 5319 C 532.949 -1.83933 3.90887 0
M  V30 5320 C 532.084 -3.05096 4.34845 0
M  V30 5321 C 531.123 -2.67241 5.5068 0
M  V30 5322 N 530.26 -3.81127 5.8965 0
M  V30 5323 H 535.1 -0.43888 2.9475 0
M  V30 5324 H 532.637 -0.204995 1.45665 0
M  V30 5325 H 534.595 -2.91866 2.98111 0
M  V30 5326 H 533.225 -2.62535 1.87816 0
M  V30 5327 H 532.277 -0.999287 3.6704 0
M  V30 5328 H 533.589 -1.52074 4.75052 0
M  V30 5329 H 532.743 -3.87502 4.66827 0
M  V30 5330 H 531.482 -3.40139 3.49509 0
M  V30 5331 H 530.487 -1.83254 5.18361 0
M  V30 5332 H 531.712 -2.3338 6.37738 0
M  V30 5333 H 529.658 -4.15954 5.07266 0
M  V30 5334 H 529.575 -3.52997 6.68528 0
M  V30 5335 H 530.843 -4.64145 6.2625 0
M  V30 5336 N 535.072 -1.5615 -0.213296 0
M  V30 5337 C 536.349 -1.70349 -0.961281 0
M  V30 5338 C 536.729 -0.609791 -2.02101 0
M  V30 5339 O 536.077 0.381987 -2.25285 0
M  V30 5340 C 536.287 -3.11982 -1.56424 0
M  V30 5341 C 537.635 -3.71649 -2.05334 0
M  V30 5342 O 538.659 -3.14995 -1.66302 0
M  V30 5343 O 537.518 -4.71038 -2.77102 0
M  V30 5344 H 534.612 -0.694121 -0.449582 0
M  V30 5345 H 537.158 -1.68464 -0.204426 0
M  V30 5346 H 535.93 -3.83046 -0.799457 0
M  V30 5347 H 535.553 -3.18019 -2.38641 0
M  V30 5348 N 536.55 0.480323 -1.50102 0
M  V30 5349 C 537.796 1.23489 -1.60867 0
M  V30 5350 C 538.129 1.91809 -0.303827 0
M  V30 5351 O 537.404 1.81694 0.694092 0
M  V30 5352 C 537.687 2.28578 -2.78252 0
M  V30 5353 C 537.54 1.64624 -4.18592 0
M  V30 5354 C 538.859 3.2997 -2.91218 0
M  V30 5355 H 535.978 0.447605 -0.585507 0
M  V30 5356 H 538.62 0.530005 -1.82458 0
M  V30 5357 H 536.77 2.88697 -2.59974 0
M  V30 5358 H 538.442 1.08173 -4.48438 0
M  V30 5359 H 536.685 0.949645 -4.23278 0
M  V30 5360 H 537.356 2.40946 -4.96638 0
M  V30 5361 H 539.832 2.79864 -3.07921 0
M  V30 5362 H 538.708 4.00839 -3.74993 0
M  V30 5363 H 538.969 3.93541 -2.0144 0
M  V30 5364 N 538.028 1.39524 0.732853 0
M  V30 5365 C 539.277 1.36175 1.48792 0
M  V30 5366 C 539.59 -0.0388195 1.95561 0
M  V30 5367 O 540.796 -0.194899 2.708 0
M  V30 5368 C 539.252 2.39242 2.68871 0
M  V30 5369 C 538.86 3.85024 2.29042 0
M  V30 5370 C 540.604 2.44972 3.46683 0
M  V30 5371 C 538.511 4.79727 3.45856 0
M  V30 5372 H 537.441 0.506267 0.558757 0
M  V30 5373 H 540.092 1.65181 0.799226 0
M  V30 5374 H 538.474 2.0331 3.39825 0
M  V30 5375 H 539.648 4.30008 1.6562 0
M  V30 5376 H 537.963 3.82609 1.64316 0
M  V30 5377 H 540.56 3.12918 4.33574 0
M  V30 5378 H 540.903 1.4749 3.89297 0
M  V30 5379 H 541.436 2.79808 2.82759 0
M  V30 5380 H 538.175 5.78479 3.08289 0
M  V30 5381 H 537.695 4.39421 4.08251 0
M  V30 5382 H 539.374 4.98731 4.12161 0
M  V30 5383 N 539.506 -0.963266 1.24736 0
M  V30 5384 C 540.783 -1.68248 0.9976 0
M  V30 5385 C 541.163 -2.05599 -0.478776 0
M  V30 5386 O 540.511 -1.7626 -1.45412 0
M  V30 5387 C 540.721 -2.91118 1.92487 0
M  V30 5388 C 542.069 -3.63261 2.19833 0
M  V30 5389 O 543.093 -3.01184 1.90176 0
M  V30 5390 O 541.952 -4.75019 2.7022 0
M  V30 5391 H 539.046 -0.735744 0.377637 0
M  V30 5392 H 541.592 -1.01696 1.35853 0
M  V30 5393 H 540.364 -2.60242 2.92215 0
M  V30 5394 H 539.987 -3.65402 1.56738 0
M  V30 5395 N 540.985 -1.06182 -1.16461 0
M  V30 5396 C 541.948 -0.675723 -2.19013 0
M  V30 5397 C 542.948 0.277963 -1.58379 0
M  V30 5398 O 544.138 0.0604962 -1.74095 0
M  V30 5399 C 541.27 0.00591459 -3.40899 0
M  V30 5400 H 542.463 -1.58353 -2.54685 0
M  V30 5401 H 540.016 -0.856908 -1.30716 0
M  V30 5402 H 540.751 0.92652 -3.10783 0
M  V30 5403 H 540.536 -0.67984 -3.86161 0
M  V30 5404 H 542.026 0.26181 -4.16778 0
M  V30 5405 N 542.463 1.3308 -0.844243 0
M  V30 5406 C 543.709 1.97898 -0.443206 0
M  V30 5407 C 544.042 1.66699 0.99625 0
M  V30 5408 O 543.317 0.949704 1.69738 0
M  V30 5409 C 543.6 3.53801 -0.670606 0
M  V30 5410 C 543.453 3.94667 -2.15772 0
M  V30 5411 C 544.772 4.39936 -0.120226 0
M  V30 5412 H 541.891 0.718861 -0.162504 0
M  V30 5413 H 544.533 1.57633 -1.06075 0
M  V30 5414 H 542.683 3.88229 -0.14496 0
M  V30 5415 H 544.355 3.70469 -2.74865 0
M  V30 5416 H 542.598 3.44203 -2.6402 0
M  V30 5417 H 543.269 5.03275 -2.26757 0
M  V30 5418 H 545.745 4.12183 -0.5696 0
M  V30 5419 H 544.621 5.4803 -0.308984 0
M  V30 5420 H 544.882 4.31184 0.976347 0
M  V30 5421 N 543.941 0.601185 1.45683 0
M  V30 5422 C 544.889 -0.133955 2.32214 0
M  V30 5423 C 545.883 -0.866034 1.45589 0
M  V30 5424 O 547.089 -0.782326 1.6211 0
M  V30 5425 H 543.464 -0.0620613 0.749435 0
M  V30 5426 H 545.435 0.614389 2.92007 0
M  V30 5427 C 544.184 -1.12216 3.29094 0
M  V30 5428 H 543.507 -0.568273 3.95741 0
M  V30 5429 H 544.947 -1.60659 3.92383 0
M  V30 5430 C 543.406 -2.19251 2.55794 0
M  V30 5431 O 543.936 -3.26894 2.33459 0
M  V30 5432 N 542.142 -1.9436 2.16039 0
M  V30 5433 H 541.689 -1.06829 2.34404 0
M  V30 5434 H 541.647 -2.66181 1.67318 0
M  V30 5435 N 545.419 -1.53889 0.339982 0
M  V30 5436 C 546.366 -2.24902 -0.518452 0
M  V30 5437 C 547.336 -1.24593 -1.09844 0
M  V30 5438 O 548.521 -1.53317 -1.13572 0
M  V30 5439 C 545.661 -3.02262 -1.66529 0
M  V30 5440 C 544.774 -4.17418 -1.11295 0
M  V30 5441 C 543.909 -4.82273 -2.2268 0
M  V30 5442 C 542.948 -5.89503 -1.6478 0
M  V30 5443 N 542.085 -6.48153 -2.69893 0
M  V30 5444 H 546.925 -2.97853 0.0936579 0
M  V30 5445 H 544.462 -1.46986 0.0579924 0
M  V30 5446 H 546.42 -3.45371 -2.3404 0
M  V30 5447 H 545.05 -2.31614 -2.24844 0
M  V30 5448 H 544.102 -3.78976 -0.328886 0
M  V30 5449 H 545.414 -4.94554 -0.649414 0
M  V30 5450 H 544.568 -5.28435 -2.98063 0
M  V30 5451 H 543.307 -4.04552 -2.72376 0
M  V30 5452 H 542.312 -5.42728 -0.879004 0
M  V30 5453 H 543.537 -6.6913 -1.1594 0
M  V30 5454 H 541.483 -5.73298 -3.1885 0
M  V30 5455 H 541.4 -7.20752 -2.28151 0
M  V30 5456 H 542.668 -6.98968 -3.45056 0
M  V30 5457 N 546.897 -0.0685191 -1.57451 0
M  V30 5458 C 548.125 0.610462 -1.97689 0
M  V30 5459 C 548.54 1.63346 -0.946758 0
M  V30 5460 O 547.897 1.82377 0.0669868 0
M  V30 5461 C 547.948 1.28196 -3.38006 0
M  V30 5462 O 547.669 0.299906 -4.37072 0
M  V30 5463 C 549.17 2.04907 -3.931 0
M  V30 5464 H 546.39 0.165689 -0.650222 0
M  V30 5465 H 548.934 -0.139953 -2.04021 0
M  V30 5466 H 547.089 1.98348 -3.32771 0
M  V30 5467 H 547.503 0.78126 -5.18649 0
M  V30 5468 H 548.977 2.47287 -4.93511 0
M  V30 5469 H 549.454 2.9043 -3.29465 0
M  V30 5470 H 550.06 1.39629 -4.01726 0
M  V30 5471 N 548.375 1.56261 0.205012 0
M  V30 5472 C 549.623 1.79684 0.925096 0
M  V30 5473 C 549.944 0.63989 1.84202 0
M  V30 5474 O 549.214 -0.342345 1.92885 0
M  V30 5475 H 547.794 0.662774 0.344587 0
M  V30 5476 H 550.456 1.93734 0.212899 0
M  V30 5477 H 549.552 2.72467 1.52211 0
M  V30 5478 N 549.853 -0.472356 1.50355 0
M  V30 5479 C 551.099 -1.22348 1.62488 0
M  V30 5480 C 551.454 -1.89711 0.320574 0
M  V30 5481 O 550.747 -1.79074 -0.68141 0
M  V30 5482 C 550.941 -2.29257 2.74182 0
M  V30 5483 C 550.77 -1.72383 4.15348 0
M  V30 5484 C 549.54 -1.52411 4.81766 0
M  V30 5485 C 551.738 -1.21949 4.99633 0
M  V30 5486 N 549.72 -0.907669 6.07153 0
M  V30 5487 C 551.091 -0.726191 6.15732 0
M  V30 5488 C 553.146 -1.10792 4.85417 0
M  V30 5489 C 551.849 -0.132322 7.19178 0
M  V30 5490 C 553.875 -0.52799 5.89038 0
M  V30 5491 C 553.237 -0.0450604 7.04386 0
M  V30 5492 H 549.336 -0.436631 0.648751 0
M  V30 5493 H 551.92 -0.525698 1.87469 0
M  V30 5494 H 550.091 -2.96464 2.50926 0
M  V30 5495 H 551.823 -2.9628 2.75681 0
M  V30 5496 H 548.578 -1.776 4.39039 0
M  V30 5497 H 549.002 -0.617897 6.74174 0
M  V30 5498 H 553.644 -1.46722 3.96525 0
M  V30 5499 H 551.362 0.239187 8.07746 0
M  V30 5500 H 554.948 -0.444046 5.80103 0
M  V30 5501 H 553.828 0.396659 7.83196 0
M  V30 5502 N 551.331 -1.39911 -0.725443 0
M  V30 5503 C 552.747 -1.21725 -1.03224 0
M  V30 5504 C 552.947 -0.0855224 -2.01318 0
M  V30 5505 O 552.003 0.55976 -2.46217 0
M  V30 5506 C 553.316 -2.55511 -1.58539 0
M  V30 5507 C 554.864 -2.62439 -1.70572 0
M  V30 5508 C 555.339 -3.9647 -2.29294 0
M  V30 5509 N 556.83 -3.98159 -2.36692 0
M  V30 5510 C 557.565 -4.98647 -2.83088 0
M  V30 5511 N 557.061 -6.0953 -3.2931 0
M  V30 5512 N 558.854 -4.8602 -2.82384 0
M  V30 5513 H 551.005 -2.12267 -0.075048 0
M  V30 5514 H 553.268 -0.943136 -0.0959066 0
M  V30 5515 H 552.974 -3.38926 -0.939249 0
M  V30 5516 H 552.848 -2.75905 -2.57208 0
M  V30 5517 H 555.235 -1.79401 -2.34306 0
M  V30 5518 H 555.316 -2.45885 -0.705297 0
M  V30 5519 H 554.96 -4.79942 -1.66186 0
M  V30 5520 H 554.89 -4.10349 -3.30032 0
M  V30 5521 H 557.381 -3.18085 -2.04035 0
M  V30 5522 H 557.694 -6.82106 -3.6325 0
M  V30 5523 H 556.039 -6.1311 -3.27294 0
M  V30 5524 H 559.23 -3.98493 -2.45603 0
M  V30 5525 H 559.403 -5.64478 -3.18226 0
M  V30 5526 N 552.809 0.956637 -1.25245 0
M  V30 5527 C 554.058 1.69537 -1.0927 0
M  V30 5528 C 554.371 1.92136 0.366503 0
M  V30 5529 O 555.577 2.63687 0.64665 0
M  V30 5530 C 554.033 3.05211 -1.9072 0
M  V30 5531 C 553.641 2.90416 -3.41119 0
M  V30 5532 C 555.385 3.82882 -1.83308 0
M  V30 5533 C 553.292 4.21468 -4.14872 0
M  V30 5534 H 552.222 0.635804 -0.405302 0
M  V30 5535 H 554.873 1.06513 -1.49423 0
M  V30 5536 H 553.255 3.69128 -1.43389 0
M  V30 5537 H 554.429 2.35444 -3.9611 0
M  V30 5538 H 552.744 2.26203 -3.49602 0
M  V30 5539 H 555.341 4.79944 -2.35706 0
M  V30 5540 H 555.684 4.0853 -0.800572 0
M  V30 5541 H 556.217 3.25711 -2.28379 0
M  V30 5542 H 552.956 4.01009 -5.18529 0
M  V30 5543 H 552.476 4.76213 -3.64665 0
M  V30 5544 H 554.155 4.90022 -4.22478 0
M  V30 5545 N 554.287 1.06798 1.15896 0
M  V30 5546 C 555.234 0.683314 2.20453 0
M  V30 5547 C 556.204 -0.32255 1.62938 0
M  V30 5548 O 557.389 -0.210276 1.89638 0
M  V30 5549 C 554.529 0.0813266 3.45004 0
M  V30 5550 C 553.642 1.13799 4.16742 0
M  V30 5551 C 552.777 0.501598 5.28826 0
M  V30 5552 C 551.816 1.54144 5.92373 0
M  V30 5553 N 550.953 0.928038 6.9594 0
M  V30 5554 H 555.793 1.57932 2.52708 0
M  V30 5555 H 553.33 0.789544 1.24115 0
M  V30 5556 H 555.288 -0.285274 4.16224 0
M  V30 5557 H 553.918 -0.77806 3.13283 0
M  V30 5558 H 552.97 1.62223 3.44075 0
M  V30 5559 H 554.282 1.92664 4.60089 0
M  V30 5560 H 553.436 0.0823162 6.06644 0
M  V30 5561 H 552.175 -0.318883 4.86656 0
M  V30 5562 H 551.18 1.97056 5.13273 0
M  V30 5563 H 552.405 2.3641 6.36621 0
M  V30 5564 H 550.351 0.12836 6.55874 0
M  V30 5565 H 550.268 1.65401 7.37685 0
M  V30 5566 H 551.536 0.534071 7.77668 0
M  V30 5567 N 555.766 -1.3263 0.851289 0
M  V30 5568 C 556.994 -2.01563 0.466899 0
M  V30 5569 C 557.409 -1.63996 -0.935447 0
M  V30 5570 O 556.766 -0.85957 -1.6099 0
M  V30 5571 C 556.817 -3.56613 0.592433 0
M  V30 5572 O 556.538 -3.92828 1.93954 0
M  V30 5573 C 558.039 -4.42818 0.206612 0
M  V30 5574 H 555.259 -0.645307 0.183902 0
M  V30 5575 H 557.803 -1.69285 1.1473 0
M  V30 5576 H 555.958 -3.87379 -0.0401936 0
M  V30 5577 H 556.372 -4.87545 1.9339 0
M  V30 5578 H 557.846 -5.50918 0.345462 0
M  V30 5579 H 558.323 -4.30844 -0.85264 0
M  V30 5580 H 558.929 -4.17434 0.814176 0
M  V30 5581 N 557.244 -0.608902 -1.45362 0
M  V30 5582 C 558.472 -0.111013 -2.06602 0
M  V30 5583 C 558.887 1.20516 -1.45332 0
M  V30 5584 O 558.244 1.73437 -0.567978 0
M  V30 5585 C 558.295 0.033688 -3.61484 0
M  V30 5586 O 558.016 -1.23041 -4.20467 0
M  V30 5587 C 559.517 0.562882 -4.39712 0
M  V30 5588 H 556.737 -0.0694453 -0.667397 0
M  V30 5589 H 559.281 -0.837008 -1.86586 0
M  V30 5590 H 557.436 0.710016 -3.80838 0
M  V30 5591 H 557.85 -1.06094 -5.13658 0
M  V30 5592 H 559.324 0.613213 -5.48583 0
M  V30 5593 H 559.801 1.58543 -4.09586 0
M  V30 5594 H 560.407 -0.0794454 -4.25226 0
M  V30 5595 N 558.722 1.53707 -0.348139 0
M  V30 5596 C 559.999 1.93247 0.302475 0
M  V30 5597 C 560.379 1.28012 1.67857 0
M  V30 5598 O 559.727 0.43274 2.24365 0
M  V30 5599 C 559.937 3.47031 0.370159 0
M  V30 5600 C 561.285 4.20066 0.61882 0
M  V30 5601 O 562.309 3.53319 0.452087 0
M  V30 5602 O 561.168 5.38318 0.94215 0
M  V30 5603 H 558.262 0.807736 0.177458 0
M  V30 5604 H 560.808 1.64927 -0.399651 0
M  V30 5605 H 559.58 3.86745 -0.59534 0
M  V30 5606 H 559.203 3.81532 1.11888 0
M  V30 5607 N 560.2 0.0768682 1.57412 0
M  V30 5608 C 561.163 -0.873949 2.11884 0
M  V30 5609 C 562.163 -1.22301 1.04398 0
M  V30 5610 O 563.353 -1.15545 1.30365 0
M  V30 5611 C 560.485 -2.17575 2.62438 0
M  V30 5612 H 561.678 -0.401278 2.97203 0
M  V30 5613 H 559.231 -0.171904 1.55352 0
M  V30 5614 H 559.966 -2.69368 1.80587 0
M  V30 5615 H 559.751 -1.93534 3.41009 0
M  V30 5616 H 561.241 -2.85631 3.04639 0
M  V30 5617 N 561.678 -1.56367 -0.196722 0
M  V30 5618 C 562.626 -1.95304 -1.2633 0
M  V30 5619 C 563.62 -0.838252 -1.47206 0
M  V30 5620 O 564.826 -1.02325 -1.48087 0
M  V30 5621 H 561.201 -0.621013 -0.424083 0
M  V30 5622 H 563.172 -2.84254 -0.907879 0
M  V30 5623 C 561.921 -2.3074 -2.60104 0
M  V30 5624 H 561.244 -3.16047 -2.44856 0
M  V30 5625 H 562.684 -2.61849 -3.33484 0
M  V30 5626 C 561.143 -1.14143 -3.16975 0
M  V30 5627 O 561.673 -0.415602 -3.99544 0
M  V30 5628 N 559.879 -0.91867 -2.75697 0
M  V30 5629 H 559.426 -1.51065 -2.08656 0
M  V30 5630 H 559.384 -0.140321 -3.14087 0
M  V30 5631 N 563.156 0.464375 -1.50603 0
M  V30 5632 C 564.404 1.21356 -1.61608 0
M  V30 5633 C 564.725 1.92329 -0.321643 0
M  V30 5634 O 563.995 1.84403 0.661232 0
M  V30 5635 H 562.575 0.45094 -0.595535 0
M  V30 5636 H 565.237 0.535046 -1.87412 0
M  V30 5637 H 564.333 1.95783 -2.43054 0
M  V30 5638 N 564.634 1.40294 0.718013 0
M  V30 5639 C 565.566 1.36281 1.84283 0
M  V30 5640 C 566.579 0.268621 1.60569 0
M  V30 5641 O 567.768 0.528798 1.70487 0
M  V30 5642 C 564.868 1.09741 3.2064 0
M  V30 5643 C 564.041 2.30767 3.71571 0
M  V30 5644 C 563.1 2.00424 4.86535 0
M  V30 5645 O 562.126 2.73268 4.99313 0
M  V30 5646 N 563.328 0.980724 5.72156 0
M  V30 5647 H 566.093 2.3322 1.88225 0
M  V30 5648 H 563.654 1.34616 0.899453 0
M  V30 5649 H 565.646 0.874322 3.95143 0
M  V30 5650 H 564.216 0.214771 3.11861 0
M  V30 5651 H 563.436 2.68921 2.88228 0
M  V30 5652 H 564.724 3.11455 4.02335 0
M  V30 5653 H 564.122 0.377375 5.6444 0
M  V30 5654 H 562.679 0.817538 6.46653 0
M  V30 5655 N 566.112 -0.949982 1.2575 0
M  V30 5656 C 567.06 -2.06869 1.06339 0
M  V30 5657 C 568.054 -1.69399 -0.00708901 0
M  V30 5658 O 569.26 -1.79383 0.148897 0
M  V30 5659 H 565.635 -0.677197 0.326969 0
M  V30 5660 H 567.606 -2.20396 2.01167 0
M  V30 5661 C 566.355 -3.40503 0.703769 0
M  V30 5662 H 565.678 -3.69807 1.51931 0
M  V30 5663 H 567.118 -4.19623 0.607677 0
M  V30 5664 C 565.577 -3.31685 -0.5905 0
M  V30 5665 O 566.107 -3.67085 -1.63131 0
M  V30 5666 N 564.313 -2.84797 -0.577859 0
M  V30 5667 H 563.86 -2.56186 0.26951 0
M  V30 5668 H 563.818 -2.79279 -1.44398 0
M  V30 5669 N 567.59 -1.07411 -1.15328 0
M  V30 5670 C 568.838 -0.796073 -1.85761 0
M  V30 5671 C 569.159 0.679864 -1.82764 0
M  V30 5672 O 568.429 1.49242 -1.269 0
M  V30 5673 H 567.009 -0.291495 -0.687779 0
M  V30 5674 H 569.671 -1.35799 -1.39802 0
M  V30 5675 H 568.767 -1.13114 -2.90881 0
M  V30 5676 N 569.068 1.32177 -0.85831 0
M  V30 5677 C 570.345 1.91781 -0.384624 0
M  V30 5678 C 570.725 1.78171 1.13217 0
M  V30 5679 O 570.073 1.18209 1.95548 0
M  V30 5680 C 570.283 3.38414 -0.853047 0
M  V30 5681 C 571.631 4.15542 -0.872359 0
M  V30 5682 O 572.655 3.47148 -0.797926 0
M  V30 5683 O 571.514 5.37678 -0.978009 0
M  V30 5684 H 568.608 0.819259 -0.112886 0
M  V30 5685 H 571.154 1.40923 -0.945453 0
M  V30 5686 H 569.926 3.4228 -1.89632 0
M  V30 5687 H 569.549 3.96683 -0.269874 0
M  V30 5688 N 570.547 0.616602 1.45037 0
M  V30 5689 C 571.794 0.115331 2.02171 0
M  V30 5690 C 572.122 -1.25748 1.48383 0
M  V30 5691 O 571.377 -1.84511 0.652229 0
M  V30 5692 C 571.676 0.0356829 3.57382 0
M  V30 5693 C 571.342 1.34535 4.30362 0
M  V30 5694 C 570.004 1.70408 4.50016 0
M  V30 5695 C 572.356 2.21049 4.72003 0
M  V30 5696 C 569.684 2.92529 5.0857 0
M  V30 5697 C 572.036 3.42427 5.31908 0
M  V30 5698 C 570.7 3.78541 5.49784 0
M  V30 5699 H 569.97 0.0422024 0.739797 0
M  V30 5700 H 572.617 0.80002 1.73988 0
M  V30 5701 H 570.922 -0.732314 3.84895 0
M  V30 5702 H 572.619 -0.368463 3.99304 0
M  V30 5703 H 569.209 1.05615 4.15383 0
M  V30 5704 H 573.393 1.94632 4.56544 0
M  V30 5705 H 568.649 3.20605 5.20598 0
M  V30 5706 H 572.823 4.09709 5.63127 0
M  V30 5707 H 570.45 4.73255 5.94923 0
M  V30 5708 N 572.025 -1.5352 0.356285 0
M  V30 5709 C 572.988 -2.24071 -0.482182 0
M  V30 5710 C 573.988 -1.24531 -1.01729 0
M  V30 5711 O 575.178 -1.48876 -0.904513 0
M  V30 5712 C 572.31 -2.97025 -1.67299 0
M  V30 5713 H 573.503 -2.99596 0.135031 0
M  V30 5714 H 571.056 -1.55928 0.107825 0
M  V30 5715 H 571.791 -2.25719 -2.32855 0
M  V30 5716 H 571.576 -3.7005 -1.29636 0
M  V30 5717 H 573.066 -3.50683 -2.26741 0
M  V30 5718 N 573.503 -0.0852151 -1.57369 0
M  V30 5719 C 574.731 0.58946 -1.98325 0
M  V30 5720 C 575.146 1.62333 -0.96403 0
M  V30 5721 O 574.503 1.82438 0.0476395 0
M  V30 5722 C 574.554 1.24604 -3.39347 0
M  V30 5723 O 574.275 0.253532 -4.37366 0
M  V30 5724 C 575.776 2.00726 -3.95252 0
M  V30 5725 H 572.996 0.158783 -0.651942 0
M  V30 5726 H 575.54 -0.161584 -2.03861 0
M  V30 5727 H 573.695 1.94808 -3.34856 0
M  V30 5728 H 574.109 0.726207 -5.19448 0
M  V30 5729 H 575.583 2.42039 -4.96106 0
M  V30 5730 H 576.06 2.86919 -3.32527 0
M  V30 5731 H 576.666 1.3536 -4.03185 0
M  V30 5732 N 574.981 1.5647 0.188427 0
M  V30 5733 C 576.227 1.81281 0.909124 0
M  V30 5734 C 576.56 0.66034 1.82628 0
M  V30 5735 O 575.835 -0.338737 1.91528 0
M  V30 5736 C 576.118 3.16388 1.7196 0
M  V30 5737 C 575.971 4.42137 0.826714 0
M  V30 5738 C 577.29 3.48256 2.69083 0
M  V30 5739 H 574.409 0.659457 0.329068 0
M  V30 5740 H 577.051 1.89182 0.176156 0
M  V30 5741 H 575.201 3.09784 2.34448 0
M  V30 5742 H 576.873 4.60794 0.216025 0
M  V30 5743 H 575.116 4.33594 0.133792 0
M  V30 5744 H 575.787 5.33184 1.42893 0
M  V30 5745 H 578.263 3.55203 2.16726 0
M  V30 5746 H 577.139 4.43899 3.2287 0
M  V30 5747 H 577.4 2.72088 3.48455 0
M  V30 5748 N 576.459 -0.456382 1.50847 0
M  V30 5749 C 577.422 -1.53493 1.70213 0
M  V30 5750 C 578.422 -1.50264 0.572481 0
M  V30 5751 O 579.612 -1.52623 0.839751 0
M  V30 5752 C 576.744 -2.93091 1.741 0
M  V30 5753 H 577.937 -1.37633 2.66453 0
M  V30 5754 H 575.49 -0.683776 1.4055 0
M  V30 5755 H 576.225 -3.14378 0.796063 0
M  V30 5756 H 576.01 -2.9684 2.5618 0
M  V30 5757 H 577.5 -3.71368 1.90987 0
M  V30 5758 N 577.937 -1.40673 -0.710563 0
M  V30 5759 C 579.162 -1.42741 -1.50465 0
M  V30 5760 C 579.587 -0.0302116 -1.88076 0
M  V30 5761 O 578.945 0.962945 -1.53613 0
M  V30 5762 C 578.993 -2.32873 -2.75322 0
M  V30 5763 O 578.097 -1.77544 -3.72226 0
M  V30 5764 H 577.438 -0.485056 -0.45345 0
M  V30 5765 H 579.968 -1.84961 -0.874681 0
M  V30 5766 H 579.978 -2.48233 -3.23797 0
M  V30 5767 H 578.653 -3.34401 -2.47283 0
M  V30 5768 H 577.23 -1.71556 -3.31093 0
M  V30 5769 N 579.415 0.9433 -1.26252 0
M  V30 5770 C 580.663 1.68592 -1.11451 0
M  V30 5771 C 580.984 1.91957 0.343123 0
M  V30 5772 O 580.254 1.51475 1.24226 0
M  V30 5773 H 578.834 0.624789 -0.409448 0
M  V30 5774 H 581.496 1.13351 -1.58548 0
M  V30 5775 H 580.592 2.66054 -1.63162 0
M  V30 5776 N 580.893 1.08022 1.14757 0
M  V30 5777 C 582.121 0.828847 1.89572 0
M  V30 5778 C 582.536 -0.618621 1.78377 0
M  V30 5779 O 581.893 -1.42482 1.1404 0
M  V30 5780 C 581.944 1.23677 3.39685 0
M  V30 5781 O 581.665 2.62746 3.50566 0
M  V30 5782 C 583.166 1.01569 4.31507 0
M  V30 5783 H 580.386 0.299196 0.600602 0
M  V30 5784 H 582.93 1.43846 1.45357 0
M  V30 5785 H 581.085 0.671347 3.81539 0
M  V30 5786 H 581.499 2.79573 4.43778 0
M  V30 5787 H 582.973 1.35055 5.35223 0
M  V30 5788 H 583.45 -0.0475433 4.39174 0
M  V30 5789 H 584.056 1.56636 3.95405 0
M  V30 5790 N 582.371 -1.3172 0.865308 0
M  V30 5791 C 583.319 -2.30569 0.306674 0
M  V30 5792 C 584.313 -1.59317 -0.575724 0
M  V30 5793 O 585.519 -1.73961 -0.462343 0
M  V30 5794 H 581.894 -0.747681 0.0804834 0
M  V30 5795 H 583.865 -2.75165 1.15441 0
M  V30 5796 C 582.614 -3.44358 -0.480952 0
M  V30 5797 H 581.937 -3.99354 0.18876 0
M  V30 5798 H 583.377 -4.15652 -0.837241 0
M  V30 5799 C 581.836 -2.92574 -1.67039 0
M  V30 5800 O 582.366 -2.90954 -2.76964 0
M  V30 5801 N 580.572 -2.48835 -1.50097 0
M  V30 5802 H 580.119 -2.50353 -0.606738 0
M  V30 5803 H 580.077 -2.14543 -2.29823 0
M  V30 5804 N 583.85 -0.624285 -1.44708 0
M  V30 5805 C 585.096 -0.126237 -2.02407 0
M  V30 5806 C 585.428 1.24618 -1.48943 0
M  V30 5807 O 584.704 1.82569 -0.670742 0
M  V30 5808 C 584.986 -0.105449 -3.59946 0
M  V30 5809 C 584.84 -1.50972 -4.23707 0
M  V30 5810 C 586.159 0.573629 -4.36346 0
M  V30 5811 H 583.278 -0.0473472 -0.735478 0
M  V30 5812 H 585.92 -0.799452 -1.72362 0
M  V30 5813 H 584.07 0.46783 -3.85673 0
M  V30 5814 H 585.742 -2.13136 -4.0911 0
M  V30 5815 H 583.985 -2.0656 -3.81465 0
M  V30 5816 H 584.656 -1.44727 -5.32689 0
M  V30 5817 H 587.132 0.0861787 -4.16011 0
M  V30 5818 H 586.008 0.557338 -5.46063 0
M  V30 5819 H 586.269 1.64276 -4.10446 0
M  V30 5820 N 585.328 1.53329 -0.364422 0
M  V30 5821 C 586.556 2.05657 0.226424 0
M  V30 5822 C 586.971 1.23801 1.42544 0
M  V30 5823 O 586.328 0.27839 1.80364 0
M  V30 5824 C 586.379 3.56125 0.621056 0
M  V30 5825 O 586.1 4.34879 -0.530304 0
M  V30 5826 C 587.601 4.24706 1.27041 0
M  V30 5827 H 584.821 0.669806 0.0400056 0
M  V30 5828 H 587.365 1.97714 -0.522456 0
M  V30 5829 H 585.52 3.64223 1.31985 0
M  V30 5830 H 585.934 5.24073 -0.211546 0
M  V30 5831 H 587.408 5.3131 1.49711 0
M  V30 5832 H 587.885 3.78354 2.23036 0
M  V30 5833 H 588.491 4.20858 0.613079 0
M  V30 5834 N 586.806 0.0935595 1.57322 0
M  V30 5835 C 588.053 -0.570509 1.94297 0
M  V30 5836 C 588.381 -1.68286 0.97519 0
M  V30 5837 O 587.636 -1.95699 -0.00548655 0
M  V30 5838 C 587.935 -1.16692 3.37813 0
M  V30 5839 C 587.601 -0.178509 4.50547 0
M  V30 5840 C 586.263 0.0933475 4.81109 0
M  V30 5841 C 588.615 0.496472 5.1883 0
M  V30 5842 C 585.943 1.0469 5.77284 0
M  V30 5843 C 588.295 1.43849 6.16028 0
M  V30 5844 C 586.959 1.71859 6.44997 0
M  V30 5845 H 586.229 -0.208764 0.710984 0
M  V30 5846 H 588.876 0.169066 1.90752 0
M  V30 5847 H 587.181 -1.98271 3.37929 0
M  V30 5848 H 588.878 -1.6884 3.63722 0
M  V30 5849 H 585.468 -0.400584 4.26724 0
M  V30 5850 H 589.652 0.299584 4.95395 0
M  V30 5851 H 584.908 1.27094 5.98044 0
M  V30 5852 H 589.082 1.96734 6.68034 0
M  V30 5853 H 586.709 2.45906 7.19329 0
M  V30 5854 N 588.284 -1.56567 -0.180126 0
M  V30 5855 C 589.247 -1.94852 -1.20686 0
M  V30 5856 C 590.247 -0.831212 -1.3765 0
M  V30 5857 O 591.437 -1.09841 -1.35206 0
M  V30 5858 C 588.569 -2.23565 -2.57355 0
M  V30 5859 H 589.762 -2.86722 -0.879225 0
M  V30 5860 H 587.315 -1.50489 -0.422237 0
M  V30 5861 H 588.05 -1.34381 -2.95148 0
M  V30 5862 H 587.835 -3.04999 -2.46411 0
M  V30 5863 H 589.325 -2.54137 -3.31367 0
M  V30 5864 N 589.762 0.448376 -1.51087 0
M  V30 5865 C 590.987 1.22605 -1.6728 0
M  V30 5866 C 591.412 1.84524 -0.365045 0
M  V30 5867 O 590.77 1.6832 0.673642 0
M  V30 5868 C 590.818 2.29393 -2.78229 0
M  V30 5869 O 589.922 3.34608 -2.41063 0
M  V30 5870 H 589.263 0.359705 -0.558129 0
M  V30 5871 H 591.793 0.530903 -1.97592 0
M  V30 5872 H 591.803 2.74352 -3.01986 0
M  V30 5873 H 590.478 1.83701 -3.73131 0
M  V30 5874 H 589.055 2.95202 -2.27838 0
M  V30 5875 N 591.24 1.41047 0.703093 0
M  V30 5876 C 592.488 1.39723 1.4602 0
M  V30 5877 C 592.809 0.00461257 1.94999 0
M  V30 5878 O 592.079 -0.952292 1.71196 0
M  V30 5879 H 590.659 0.514281 0.541779 0
M  V30 5880 H 593.321 1.76217 0.832678 0
M  V30 5881 H 592.417 2.07982 2.32701 0
M  V30 5882 N 592.718 -0.936591 1.26751 0
M  V30 5883 C 593.666 -2.0573 1.08527 0
M  V30 5884 C 594.66 -1.69397 0.0108784 0
M  V30 5885 O 595.866 -1.79215 0.167915 0
M  V30 5886 H 592.241 -0.673691 0.334133 0
M  V30 5887 H 594.212 -2.1825 2.03493 0
M  V30 5888 C 592.961 -3.39738 0.739845 0
M  V30 5889 H 592.284 -3.68174 1.55845 0
M  V30 5890 H 593.724 -4.18955 0.652149 0
M  V30 5891 C 592.183 -3.32292 -0.555288 0
M  V30 5892 O 592.713 -3.68794 -1.59229 0
M  V30 5893 N 590.919 -2.85394 -0.54762 0
M  V30 5894 H 590.466 -2.55886 0.296667 0
M  V30 5895 H 590.424 -2.80795 -1.41427 0
M  V30 5896 N 594.196 -1.08629 -1.14182 0
M  V30 5897 C 595.444 -0.815731 -1.84906 0
M  V30 5898 C 595.765 0.660441 -1.83475 0
M  V30 5899 O 595.035 1.47888 -1.28476 0
M  V30 5900 H 593.615 -0.298773 -0.684648 0
M  V30 5901 H 596.277 -1.37274 -1.38354 0
M  V30 5902 H 595.373 -1.16193 -2.89665 0
M  V30 5903 N 595.674 1.31259 -0.872281 0
M  V30 5904 C 596.902 2.00795 -0.498907 0
M  V30 5905 C 597.317 1.65464 0.909238 0
M  V30 5906 O 596.674 0.885073 1.59602 0
M  V30 5907 C 596.725 3.55625 -0.649092 0
M  V30 5908 O 596.446 3.89692 -2.00179 0
M  V30 5909 C 597.947 4.42434 -0.277034 0
M  V30 5910 H 595.167 0.642299 -0.194145 0
M  V30 5911 H 597.711 1.67438 -1.17408 0
M  V30 5912 H 595.866 3.87394 -0.0214402 0
M  V30 5913 H 596.28 4.84407 -2.01122 0
M  V30 5914 H 597.754 5.50299 -0.433064 0
M  V30 5915 H 598.231 4.32146 0.783989 0
M  V30 5916 H 598.837 4.16086 -0.880483 0
M  V30 5917 N 597.152 0.631951 1.44375 0
M  V30 5918 C 598.38 0.143867 2.06399 0
M  V30 5919 C 598.795 -1.18188 1.47231 0
M  V30 5920 O 598.152 -1.72511 0.595498 0
M  V30 5921 C 598.203 0.0238253 3.61492 0
M  V30 5922 O 597.924 1.29715 4.18456 0
M  V30 5923 C 599.425 -0.492856 4.40552 0
M  V30 5924 H 596.645 0.0800542 0.666207 0
M  V30 5925 H 599.189 0.866586 1.85231 0
M  V30 5926 H 597.344 -0.649338 3.81919 0
M  V30 5927 H 597.758 1.14252 5.11905 0
M  V30 5928 H 599.232 -0.525861 5.49489 0
M  V30 5929 H 599.709 -1.52006 4.12057 0
M  V30 5930 H 600.315 0.147085 4.25046 0
M  V30 5931 N 598.631 -1.53133 0.372548 0
M  V30 5932 C 599.594 -2.24569 -0.458389 0
M  V30 5933 C 600.594 -1.25603 -1.00402 0
M  V30 5934 O 601.784 -1.49827 -0.888672 0
M  V30 5935 C 598.916 -2.98783 -1.6414 0
M  V30 5936 H 600.109 -2.99436 0.166799 0
M  V30 5937 H 597.662 -1.55805 0.124357 0
M  V30 5938 H 598.397 -2.28176 -2.30448 0
M  V30 5939 H 598.182 -3.71404 -1.25704 0
M  V30 5940 H 599.672 -3.53068 -2.23008 0
M  V30 5941 N 600.109 -0.101901 -1.5727 0
M  V30 5942 C 601.337 0.568392 -1.98939 0
M  V30 5943 C 601.752 1.61301 -0.981194 0
M  V30 5944 O 601.109 1.82478 0.0282869 0
M  V30 5945 C 601.16 1.20997 -3.40649 0
M  V30 5946 O 600.881 0.207129 -4.3761 0
M  V30 5947 C 602.382 1.96523 -3.97358 0
M  V30 5948 H 599.602 0.15186 -0.65359 0
M  V30 5949 H 602.146 -0.183198 -2.03678 0
M  V30 5950 H 600.301 1.91245 -3.36904 0
M  V30 5951 H 600.715 0.671071 -5.20189 0
M  V30 5952 H 602.189 2.36764 -4.98645 0
M  V30 5953 H 602.666 2.83376 -3.35552 0
M  V30 5954 H 603.272 1.31076 -4.04598 0
M  V30 5955 N 601.587 1.56661 0.17182 0
M  V30 5956 C 602.833 1.82235 0.889845 0
M  V30 5957 C 603.166 0.679673 1.81918 0
M  V30 5958 O 602.441 -0.318404 1.91876 0
M  V30 5959 C 602.724 3.18195 1.68595 0
M  V30 5960 C 602.577 4.42989 0.779773 0
M  V30 5961 C 603.896 3.5109 2.65375 0
M  V30 5962 H 601.015 0.66291 0.322056 0
M  V30 5963 H 603.657 1.89358 0.15608 0
M  V30 5964 H 601.807 3.12253 2.3115 0
M  V30 5965 H 603.479 4.60997 0.16714 0
M  V30 5966 H 601.722 4.33711 0.0877964 0
M  V30 5967 H 602.393 5.3467 1.3723 0
M  V30 5968 H 604.869 3.57482 2.12946 0
M  V30 5969 H 603.745 4.47298 3.18144 0
M  V30 5970 H 604.006 2.75768 3.45549 0
M  V30 5971 N 603.065 -0.440357 1.51323 0
M  V30 5972 C 604.293 -1.21255 1.67645 0
M  V30 5973 C 604.708 -1.85088 0.37252 0
M  V30 5974 O 604.065 -1.70582 -0.648683 0
M  V30 5975 C 604.116 -2.29881 2.78993 0
M  V30 5976 O 603.837 -1.68659 4.04334 0
M  V30 5977 C 605.338 -3.20214 3.06558 0
M  V30 5978 H 602.558 -0.36558 0.562666 0
M  V30 5979 H 605.102 -0.52214 1.97722 0
M  V30 5980 H 603.257 -2.94643 2.51524 0
M  V30 5981 H 603.671 -2.40426 4.6615 0
M  V30 5982 H 605.145 -3.92575 3.88058 0
M  V30 5983 H 605.622 -3.80794 2.18844 0
M  V30 5984 H 606.228 -2.61156 3.35675 0
M  V30 5985 N 604.543 -1.41418 -0.695603 0
M  V30 5986 C 605.491 -1.43467 -1.83084 0
M  V30 5987 C 606.485 -0.312719 -1.66489 0
M  V30 5988 O 607.691 -0.484744 -1.7335 0
M  V30 5989 H 604.066 -0.448891 -0.603325 0
M  V30 5990 H 606.037 -2.39144 -1.78473 0
M  V30 5991 C 604.786 -1.3337 -3.21104 0
M  V30 5992 H 604.109 -2.18989 -3.3449 0
M  V30 5993 H 605.549 -1.38865 -4.00615 0
M  V30 5994 C 604.008 -0.0460484 -3.36869 0
M  V30 5995 O 604.538 0.909258 -3.91274 0
M  V30 5996 N 602.744 0.0300222 -2.90584 0
M  V30 5997 H 602.291 -0.748129 -2.46497 0
M  V30 5998 H 602.249 0.890991 -3.01511 0
M  V30 5999 N 606.021 0.929856 -1.27246 0
M  V30 6000 C 607.269 1.674 -1.13233 0
M  V30 6001 C 607.59 1.92311 0.322744 0
M  V30 6002 O 606.86 1.52784 1.22612 0
M  V30 6003 H 605.44 0.620411 -0.416052 0
M  V30 6004 H 608.102 1.11663 -1.59741 0
M  V30 6005 H 607.198 2.64308 -1.65975 0
M  V30 6006 N 607.499 1.09233 1.13605 0
M  V30 6007 C 608.727 0.848908 1.88683 0
M  V30 6008 C 609.142 -0.599667 1.79024 0
M  V30 6009 O 608.499 -1.41265 1.15544 0
M  V30 6010 C 608.55 1.27273 3.38355 0
M  V30 6011 O 608.271 2.66449 3.47759 0
M  V30 6012 C 609.772 1.0614 4.30406 0
M  V30 6013 H 606.992 0.305549 0.597395 0
M  V30 6014 H 609.536 1.4538 1.43823 0
M  V30 6015 H 607.691 0.711776 3.80805 0
M  V30 6016 H 608.105 2.84264 4.40788 0
M  V30 6017 H 609.579 1.40725 5.33761 0
M  V30 6018 H 610.056 -0.000960332 4.392 0
M  V30 6019 H 610.662 1.60821 3.93722 0
M  V30 6020 N 608.977 -1.30795 0.87923 0
M  V30 6021 C 610.254 -1.91145 0.415086 0
M  V30 6022 C 610.634 -1.7995 -1.10368 0
M  V30 6023 O 609.982 -1.21305 -1.93642 0
M  V30 6024 C 610.192 -3.37014 0.906778 0
M  V30 6025 C 611.54 -4.14101 0.938358 0
M  V30 6026 O 612.564 -3.45834 0.853053 0
M  V30 6027 O 611.423 -5.36054 1.06342 0
M  V30 6028 H 608.517 -0.81736 0.125905 0
M  V30 6029 H 611.063 -1.39401 0.967753 0
M  V30 6030 H 609.835 -3.3922 1.95053 0
M  V30 6031 H 609.458 -3.96204 0.332948 0
M  V30 6032 N 610.455 -0.639598 -1.44038 0
M  V30 6033 C 611.703 -0.147188 -2.01563 0
M  V30 6034 C 612.024 1.2384 -1.50628 0
M  V30 6035 O 611.294 1.82452 -0.713316 0
M  V30 6036 H 609.874 -0.0514231 -0.745228 0
M  V30 6037 H 612.536 -0.828205 -1.76428 0
M  V30 6038 H 611.632 -0.121358 -3.11864 0
M  V30 6039 N 611.933 1.52934 -0.380664 0
M  V30 6040 C 613.182 2.00651 0.205477 0
M  V30 6041 C 613.495 1.27164 1.48623 0
M  V30 6042 O 614.701 1.65547 2.15189 0
M  V30 6043 C 613.157 3.57479 0.416726 0
M  V30 6044 C 612.765 4.39857 -0.850268 0
M  V30 6045 C 614.509 4.13509 0.959702 0
M  V30 6046 C 612.416 5.88269 -0.607773 0
M  V30 6047 H 611.346 0.749684 0.0805614 0
M  V30 6048 H 613.997 1.76508 -0.501732 0
M  V30 6049 H 612.379 3.77836 1.18557 0
M  V30 6050 H 613.553 4.31269 -1.62307 0
M  V30 6051 H 611.868 3.95005 -1.31756 0
M  V30 6052 H 614.465 5.22039 1.15669 0
M  V30 6053 H 614.808 3.69054 1.92626 0
M  V30 6054 H 615.341 3.9701 0.250645 0
M  V30 6055 H 612.08 6.3703 -1.54509 0
M  V30 6056 H 611.6 5.99667 0.126247 0
M  V30 6057 H 613.279 6.46558 -0.239014 0
M  V30 6058 N 613.412 0.11024 1.57214 0
M  V30 6059 C 614.64 -0.557834 1.99238 0
M  V30 6060 C 615.055 -1.60778 0.989734 0
M  V30 6061 O 614.412 -1.82491 -0.0186092 0
M  V30 6062 C 614.463 -1.19189 3.41286 0
M  V30 6063 O 614.184 -0.183919 4.37714 0
M  V30 6064 C 615.685 -1.94413 3.98395 0
M  V30 6065 H 612.905 -0.148392 0.654386 0
M  V30 6066 H 615.449 0.193996 2.03578 0
M  V30 6067 H 613.604 -1.89456 3.37913 0
M  V30 6068 H 614.018 -0.643475 5.20538 0
M  V30 6069 H 615.492 -2.34116 4.99894 0
M  V30 6070 H 615.969 -2.81592 3.3705 0
M  V30 6071 H 616.575 -1.28928 4.05287 0
M  V30 6072 N 614.89 -1.56749 -0.16351 0
M  V30 6073 C 616.136 -1.82704 -0.880168 0
M  V30 6074 C 616.469 -0.689311 -1.81555 0
M  V30 6075 O 615.744 0.308224 -1.92042 0
M  V30 6076 C 616.027 -3.19084 -1.66905 0
M  V30 6077 C 615.88 -4.43397 -0.756269 0
M  V30 6078 C 617.199 -3.52493 -2.63509 0
M  V30 6079 H 614.318 -0.664608 -0.318535 0
M  V30 6080 H 616.96 -1.89438 -0.146036 0
M  V30 6081 H 615.11 -3.13475 -2.2949 0
M  V30 6082 H 616.782 -4.61079 -0.14269 0
M  V30 6083 H 615.025 -4.33752 -0.0647944 0
M  V30 6084 H 615.696 -5.3539 -1.34393 0
M  V30 6085 H 618.172 -3.58606 -2.11047 0
M  V30 6086 H 617.048 -4.48979 -3.15767 0
M  V30 6087 H 617.309 -2.77597 -3.44082 0
M  V30 6088 N 616.368 0.432326 -1.51554 0
M  V30 6089 C 617.315 1.52512 -1.7323 0
M  V30 6090 C 618.285 1.55863 -0.5741 0
M  V30 6091 O 619.47 1.72796 -0.809093 0
M  V30 6092 C 616.61 2.90183 -1.86783 0
M  V30 6093 C 615.723 2.96322 -3.14352 0
M  V30 6094 C 614.858 4.25147 -3.18471 0
M  V30 6095 C 613.897 4.25172 -4.40335 0
M  V30 6096 N 613.034 5.45529 -4.41975 0
M  V30 6097 H 617.874 1.33332 -2.66508 0
M  V30 6098 H 615.411 0.647613 -1.32077 0
M  V30 6099 H 617.369 3.70071 -1.92623 0
M  V30 6100 H 615.999 3.0791 -0.969087 0
M  V30 6101 H 615.051 2.09066 -3.17798 0
M  V30 6102 H 616.363 2.92203 -4.04251 0
M  V30 6103 H 615.517 5.13411 -3.23255 0
M  V30 6104 H 614.256 4.31929 -2.2647 0
M  V30 6105 H 613.261 3.353 -4.35723 0
M  V30 6106 H 614.486 4.20049 -5.33606 0
M  V30 6107 H 612.432 5.53024 -3.52847 0
M  V30 6108 H 612.349 5.43311 -5.25689 0
M  V30 6109 H 613.617 6.35812 -4.50958 0
M  V30 6110 N 617.846 1.41785 0.688094 0
M  V30 6111 C 619.076 1.44705 1.47459 0
M  V30 6112 C 619.484 0.052916 1.89126 0
M  V30 6113 O 618.827 -0.939781 1.57841 0
M  V30 6114 C 618.889 2.29935 2.76352 0
M  V30 6115 C 618.553 3.77996 2.56843 0
M  V30 6116 C 619.55 4.69976 2.22304 0
M  V30 6117 C 617.235 4.2212 2.7225 0
M  V30 6118 C 619.229 6.04068 2.03421 0
M  V30 6119 C 616.916 5.56275 2.52985 0
M  V30 6120 C 617.914 6.47065 2.18621 0
M  V30 6121 O 617.602 7.78744 1.9953 0
M  V30 6122 H 617.334 0.494703 0.460701 0
M  V30 6123 H 619.888 1.86802 0.854057 0
M  V30 6124 H 618.118 1.82664 3.40839 0
M  V30 6125 H 619.807 2.24467 3.38186 0
M  V30 6126 H 620.573 4.37175 2.10008 0
M  V30 6127 H 616.452 3.51752 2.97979 0
M  V30 6128 H 619.996 6.74897 1.76523 0
M  V30 6129 H 615.893 5.88653 2.64873 0
M  V30 6130 H 616.661 7.89966 2.14234 0
M  V30 6131 N 619.324 -0.923095 1.27737 0
M  V30 6132 C 620.601 -1.64989 1.05062 0
M  V30 6133 C 620.981 -2.07018 -0.413124 0
M  V30 6134 O 620.329 -1.80797 -1.39731 0
M  V30 6135 C 620.539 -2.84847 2.01652 0
M  V30 6136 C 621.887 -3.56083 2.31279 0
M  V30 6137 O 622.911 -2.94981 1.99662 0
M  V30 6138 O 621.77 -4.66182 2.85196 0
M  V30 6139 H 618.864 -0.723357 0.400853 0
M  V30 6140 H 621.41 -0.973224 1.3902 0
M  V30 6141 H 620.182 -2.50814 3.00347 0
M  V30 6142 H 619.805 -3.60231 1.68284 0
M  V30 6143 N 620.802 -1.09834 -1.13024 0
M  V30 6144 C 621.765 -0.745058 -2.16752 0
M  V30 6145 C 622.765 0.227435 -1.59183 0
M  V30 6146 O 623.955 0.0050786 -1.74199 0
M  V30 6147 C 621.087 -0.102543 -3.40746 0
M  V30 6148 H 622.28 -1.66375 -2.49518 0
M  V30 6149 H 619.833 -0.898061 -1.27924 0
M  V30 6150 H 620.568 0.827177 -3.13573 0
M  V30 6151 H 620.353 -0.80235 -3.83803 0
M  V30 6152 H 621.843 0.129082 -4.174 0
M  V30 6153 N 622.28 1.30327 -0.886154 0
M  V30 6154 C 623.227 2.28099 -0.352069 0
M  V30 6155 C 624.197 1.56433 0.558397 0
M  V30 6156 O 625.382 1.84492 0.486561 0
M  V30 6157 C 622.522 3.42456 0.426346 0
M  V30 6158 C 621.635 4.28938 -0.513472 0
M  V30 6159 C 620.77 5.30458 0.280657 0
M  V30 6160 C 619.809 6.0859 -0.654556 0
M  V30 6161 N 618.946 7.02022 0.104322 0
M  V30 6162 H 623.786 2.73166 -1.19097 0
M  V30 6163 H 621.323 1.34367 -0.598662 0
M  V30 6164 H 623.281 4.07518 0.893587 0
M  V30 6165 H 621.911 2.98455 1.22981 0
M  V30 6166 H 620.963 3.64173 -1.09921 0
M  V30 6167 H 622.275 4.83399 -1.2299 0
M  V30 6168 H 621.429 6.01273 0.8097 0
M  V30 6169 H 620.168 4.76693 1.03029 0
M  V30 6170 H 619.173 5.36651 -1.19522 0
M  V30 6171 H 620.398 6.64443 -1.4033 0
M  V30 6172 H 618.344 6.50645 0.836472 0
M  V30 6173 H 618.261 7.53979 -0.552453 0
M  V30 6174 H 619.529 7.77077 0.614069 0
M  V30 6175 N 623.758 0.647228 1.43697 0
M  V30 6176 C 625.004 0.158422 2.0218 0
M  V30 6177 C 625.337 -1.22233 1.50907 0
M  V30 6178 O 624.612 -1.81478 0.699702 0
M  V30 6179 C 624.895 0.1627 3.59732 0
M  V30 6180 C 624.748 1.57694 4.21251 0
M  V30 6181 C 626.067 -0.504138 4.37203 0
M  V30 6182 H 623.186 0.059042 0.734631 0
M  V30 6183 H 625.828 0.826772 1.71069 0
M  V30 6184 H 623.978 -0.406414 3.86368 0
M  V30 6185 H 625.65 2.19618 4.05667 0
M  V30 6186 H 623.893 2.12603 3.7813 0
M  V30 6187 H 624.564 1.53183 5.3032 0
M  V30 6188 H 627.04 -0.0199841 4.16095 0
M  V30 6189 H 625.916 -0.470394 5.46881 0
M  V30 6190 H 626.177 -1.57726 4.13007 0
M  V30 6191 N 625.236 -1.5273 0.388769 0
M  V30 6192 C 626.484 -2.01174 -0.193208 0
M  V30 6193 C 626.805 -1.27705 -1.47365 0
M  V30 6194 O 626.075 -0.396966 -1.91836 0
M  V30 6195 H 624.655 -0.743287 -0.0743871 0
M  V30 6196 H 627.317 -1.87826 0.520336 0
M  V30 6197 H 626.413 -3.09477 -0.403803 0
M  V30 6198 N 626.714 -0.118576 -1.57153 0
M  V30 6199 C 627.991 0.583062 -1.86708 0
M  V30 6200 C 628.371 1.84841 -1.01967 0
M  V30 6201 O 627.719 2.28288 -0.0984673 0
M  V30 6202 C 627.929 0.875912 -3.3783 0
M  V30 6203 C 629.277 1.22916 -4.0642 0
M  V30 6204 O 630.301 0.966188 -3.42846 0
M  V30 6205 O 629.16 1.72269 -5.18638 0
M  V30 6206 H 626.254 0.294185 -0.772906 0
M  V30 6207 H 628.8 -0.153048 -1.69008 0
M  V30 6208 H 627.572 -0.0207776 -3.91294 0
M  V30 6209 H 627.195 1.66719 -3.60958 0
M  V30 6210 N 628.193 1.56834 0.155195 0
M  V30 6211 C 629.441 1.82536 0.867462 0
M  V30 6212 C 629.762 0.698168 1.82073 0
M  V30 6213 O 629.032 -0.280807 1.93877 0
M  V30 6214 H 627.612 0.673401 0.323327 0
M  V30 6215 H 630.274 1.94313 0.151156 0
M  V30 6216 H 629.37 2.77171 1.43466 0
M  V30 6217 N 629.671 -0.424282 1.51781 0
M  V30 6218 C 630.601 -1.52305 1.7699 0
M  V30 6219 C 631.582 -1.5839 0.620209 0
M  V30 6220 O 632.767 -1.73908 0.864268 0
M  V30 6221 C 629.897 -2.90271 1.90683 0
M  V30 6222 C 628.851 -2.99043 3.06198 0
M  V30 6223 C 628.177 -4.39116 3.05092 0
M  V30 6224 C 629.477 -2.7192 4.45934 0
M  V30 6225 H 631.171 -1.31461 2.68995 0
M  V30 6226 H 628.717 -0.630985 1.29439 0
M  V30 6227 H 630.67 -3.6711 2.06901 0
M  V30 6228 H 629.394 -3.12376 0.953365 0
M  V30 6229 H 628.053 -2.24646 2.89706 0
M  V30 6230 H 627.701 -4.58207 2.07498 0
M  V30 6231 H 627.401 -4.45912 3.82669 0
M  V30 6232 H 628.925 -5.17911 3.2342 0
M  V30 6233 H 630.339 -3.38487 4.62709 0
M  V30 6234 H 628.736 -2.90111 5.25315 0
M  V30 6235 H 629.806 -1.67445 4.55072 0
M  V30 6236 N 631.149 -1.42148 -0.680565 0
M  V30 6237 C 632.096 -1.45175 -1.79424 0
M  V30 6238 C 633.066 -0.304352 -1.63288 0
M  V30 6239 O 634.251 -0.507591 -1.83924 0
M  V30 6240 C 631.391 -1.35429 -3.17416 0
M  V30 6241 C 630.504 -2.60158 -3.4488 0
M  V30 6242 C 629.639 -2.42596 -4.72568 0
M  V30 6243 C 628.678 -3.62727 -4.93047 0
M  V30 6244 N 627.815 -3.44143 -6.11973 0
M  V30 6245 H 632.655 -2.40349 -1.76172 0
M  V30 6246 H 630.192 -1.19334 -0.860107 0
M  V30 6247 H 632.15 -1.27777 -3.97151 0
M  V30 6248 H 630.78 -0.438536 -3.19807 0
M  V30 6249 H 629.832 -2.78199 -2.5944 0
M  V30 6250 H 631.144 -3.49473 -3.55908 0
M  V30 6251 H 630.298 -2.32497 -5.60384 0
M  V30 6252 H 629.037 -1.50761 -4.63813 0
M  V30 6253 H 628.042 -3.73264 -4.03676 0
M  V30 6254 H 629.267 -4.55534 -5.03652 0
M  V30 6255 H 627.213 -2.5502 -6.04401 0
M  V30 6256 H 627.13 -4.27041 -6.23836 0
M  V30 6257 H 628.398 -3.37845 -7.02482 0
M  V30 6258 N 632.627 0.916307 -1.28225 0
M  V30 6259 C 633.557 2.0352 -1.14464 0
M  V30 6260 C 634.538 1.70045 -0.0430844 0
M  V30 6261 O 635.723 1.92954 -0.219619 0
M  V30 6262 C 632.853 3.37889 -0.803027 0
M  V30 6263 C 631.807 3.85516 -1.85908 0
M  V30 6264 C 631.133 5.1682 -1.37116 0
M  V30 6265 C 632.433 4.07655 -3.26519 0
M  V30 6266 H 634.127 2.1529 -2.08064 0
M  V30 6267 H 631.673 1.03446 -1.00174 0
M  V30 6268 H 633.626 4.15654 -0.693537 0
M  V30 6269 H 632.35 3.26164 0.168674 0
M  V30 6270 H 631.009 3.09953 -1.95767 0
M  V30 6271 H 630.657 5.01497 -0.38859 0
M  V30 6272 H 630.357 5.49657 -2.07728 0
M  V30 6273 H 631.881 5.97143 -1.27484 0
M  V30 6274 H 633.295 4.75953 -3.19596 0
M  V30 6275 H 631.692 4.51818 -3.94943 0
M  V30 6276 H 632.762 3.12553 -3.70727 0
M  V30 6277 N 634.105 1.10431 1.1244 0
M  V30 6278 C 635.382 0.758797 1.80282 0
M  V30 6279 C 635.762 -0.754727 1.97147 0
M  V30 6280 O 635.11 -1.68094 1.54779 0
M  V30 6281 C 635.32 1.50982 3.14651 0
M  V30 6282 C 636.668 1.68232 3.8985 0
M  V30 6283 O 637.692 1.47319 3.24308 0
M  V30 6284 O 636.551 2.02905 5.07437 0
M  V30 6285 H 633.645 0.273756 0.780376 0
M  V30 6286 H 636.191 1.20713 1.19275 0
M  V30 6287 H 634.963 2.53989 2.97666 0
M  V30 6288 H 634.586 1.05435 3.83366 0
M  V30 6289 N 635.583 -1.29855 0.893053 0
M  V30 6290 C 636.831 -1.9544 0.514566 0
M  V30 6291 C 637.152 -1.70795 -0.940959 0
M  V30 6292 O 636.422 -1.03601 -1.66264 0
M  V30 6293 H 635.002 -0.723137 0.187302 0
M  V30 6294 H 637.664 -1.58234 1.13789 0
M  V30 6295 H 636.76 -3.04341 0.691581 0
M  V30 6296 N 637.061 -0.65484 -1.43351 0
M  V30 6297 C 638.338 -0.0987371 -1.95351 0
M  V30 6298 C 638.718 1.38161 -1.59608 0
M  V30 6299 O 638.066 2.10791 -0.882021 0
M  V30 6300 C 638.276 -0.346684 -3.47274 0
M  V30 6301 C 639.624 -0.25249 -4.23849 0
M  V30 6302 O 640.648 -0.279332 -3.55103 0
M  V30 6303 O 639.507 -0.177584 -5.46211 0
M  V30 6304 H 636.601 0.0086829 -0.826954 0
M  V30 6305 H 639.147 -0.728189 -1.53282 0
M  V30 6306 H 637.919 -1.37296 -3.66423 0
M  V30 6307 H 637.542 0.315757 -3.96344 0
M  V30 6308 N 638.539 1.52521 -0.396863 0
M  V30 6309 C 639.486 2.26671 0.434624 0
M  V30 6310 C 640.456 1.28584 1.05144 0
M  V30 6311 O 641.641 1.57426 1.07804 0
M  V30 6312 C 638.781 3.08234 1.55196 0
M  V30 6313 C 637.894 4.21261 0.957262 0
M  V30 6314 C 637.029 4.90205 2.04627 0
M  V30 6315 C 636.068 5.95213 1.42787 0
M  V30 6316 N 635.205 6.57723 2.45651 0
M  V30 6317 H 640.045 2.973 -0.204139 0
M  V30 6318 H 637.582 1.46669 -0.112505 0
M  V30 6319 H 639.54 3.53819 2.2106 0
M  V30 6320 H 638.17 2.398 2.16092 0
M  V30 6321 H 637.222 3.79935 0.188005 0
M  V30 6322 H 638.534 4.96624 0.465416 0
M  V30 6323 H 637.688 5.39133 2.78246 0
M  V30 6324 H 636.427 4.14383 2.57174 0
M  V30 6325 H 635.432 5.45616 0.676968 0
M  V30 6326 H 636.657 6.72972 0.910255 0
M  V30 6327 H 634.603 5.84737 2.97353 0
M  V30 6328 H 634.52 7.28723 2.01243 0
M  V30 6329 H 635.788 7.11293 3.18876 0
M  V30 6330 N 640.017 0.126909 1.57088 0
M  V30 6331 C 641.266 -0.529024 1.94639 0
M  V30 6332 C 641.579 -1.67323 1.01304 0
M  V30 6333 O 642.785 -2.39245 1.28352 0
M  V30 6334 C 641.241 -0.992483 3.45945 0
M  V30 6335 C 640.849 0.123691 4.47829 0
M  V30 6336 C 642.593 -1.61934 3.924 0
M  V30 6337 C 640.5 -0.356911 5.90322 0
M  V30 6338 H 639.43 -0.201397 0.726605 0
M  V30 6339 H 642.081 0.208032 1.82317 0
M  V30 6340 H 640.463 -1.7842 3.53528 0
M  V30 6341 H 641.637 0.900168 4.51922 0
M  V30 6342 H 639.952 0.657699 4.11173 0
M  V30 6343 H 642.549 -1.9902 4.96281 0
M  V30 6344 H 642.892 -2.50075 3.32819 0
M  V30 6345 H 643.425 -0.892894 3.8765 0
M  V30 6346 H 640.164 0.488636 6.53676 0
M  V30 6347 H 639.684 -1.0997 5.89633 0
M  V30 6348 H 641.363 -0.815547 6.41839 0
M  V30 6349 N 641.495 -1.56914 -0.146875 0
M  V30 6350 C 642.458 -1.97368 -1.16526 0
M  V30 6351 C 643.458 -0.860223 -1.35856 0
M  V30 6352 O 644.648 -1.12684 -1.32846 0
M  V30 6353 C 641.78 -2.28974 -2.52555 0
M  V30 6354 H 642.973 -2.88523 -0.818209 0
M  V30 6355 H 640.526 -1.5135 -0.390221 0
M  V30 6356 H 641.261 -1.40611 -2.92231 0
M  V30 6357 H 641.046 -3.10157 -2.39886 0
M  V30 6358 H 642.536 -2.61109 -3.25902 0
M  V30 6359 N 642.974 0.416227 -1.52004 0
M  V30 6360 C 643.937 1.48926 -1.74223 0
M  V30 6361 C 644.937 1.48693 -0.612119 0
M  V30 6362 O 646.127 1.50343 -0.879921 0
M  V30 6363 C 643.259 2.88372 -1.81809 0
M  V30 6364 H 644.452 1.3052 -2.70008 0
M  V30 6365 H 642.005 0.646271 -1.42313 0
M  V30 6366 H 642.74 3.12157 -0.879135 0
M  V30 6367 H 642.525 2.89944 -2.6396 0
M  V30 6368 H 644.015 3.66173 -2.00766 0
M  V30 6369 N 644.452 1.42507 0.673017 0
M  V30 6370 C 645.729 1.33554 1.42908 0
M  V30 6371 C 646.109 -0.0262211 2.11084 0
M  V30 6372 O 645.457 -1.04181 2.03368 0
M  V30 6373 C 645.667 2.50498 2.43006 0
M  V30 6374 C 647.015 2.92694 3.07596 0
M  V30 6375 O 648.039 2.50401 2.53333 0
M  V30 6376 O 646.898 3.65899 4.05931 0
M  V30 6377 H 643.992 0.526785 0.637516 0
M  V30 6378 H 646.538 1.54518 0.701591 0
M  V30 6379 H 645.31 3.41272 1.9144 0
M  V30 6380 H 644.933 2.3153 3.23233 0
M  V30 6381 N 645.93 -0.909495 1.28709 0
M  V30 6382 C 647.158 -1.69272 1.18973 0
M  V30 6383 C 647.573 -1.87123 -0.251048 0
M  V30 6384 O 646.93 -1.40127 -1.16922 0
M  V30 6385 C 646.981 -3.08257 1.88839 0
M  V30 6386 O 646.702 -2.91228 3.27289 0
M  V30 6387 C 648.203 -4.02642 1.85457 0
M  V30 6388 H 645.423 -0.528999 0.412797 0
M  V30 6389 H 647.967 -1.13803 1.69909 0
M  V30 6390 H 646.122 -3.6053 1.41762 0
M  V30 6391 H 646.536 -3.79223 3.6234 0
M  V30 6392 H 648.01 -4.97613 2.38925 0
M  V30 6393 H 648.487 -4.31327 0.827893 0
M  V30 6394 H 649.093 -3.56298 2.32233 0
M  V30 6395 N 647.408 -1.11026 -1.11852 0
M  V30 6396 C 648.636 -0.878818 -1.87308 0
M  V30 6397 C 649.051 0.57111 -1.79955 0
M  V30 6398 O 648.408 1.39409 -1.17777 0
M  V30 6399 C 648.459 -1.3264 -3.36287 0
M  V30 6400 O 648.18 -2.71948 -3.43476 0
M  V30 6401 C 649.681 -1.12974 -4.28663 0
M  V30 6402 H 646.901 -0.315015 -0.592458 0
M  V30 6403 H 649.445 -1.47649 -1.41492 0
M  V30 6404 H 647.6 -0.772269 -3.79625 0
M  V30 6405 H 648.014 -2.91241 -4.3621 0
M  V30 6406 H 649.488 -1.49198 -5.31454 0
M  V30 6407 H 649.965 -0.0689127 -4.39146 0
M  V30 6408 H 650.571 -1.67064 -3.91113 0
M  V30 6409 N 648.886 1.2938 -0.899927 0
M  V30 6410 C 649.849 2.25983 -0.382677 0
M  V30 6411 C 650.849 1.53366 0.483259 0
M  V30 6412 O 652.039 1.71798 0.28828 0
M  V30 6413 C 649.171 3.37878 0.452915 0
M  V30 6414 H 650.364 2.73252 -1.23586 0
M  V30 6415 H 647.917 1.40825 -0.678088 0
M  V30 6416 H 648.652 2.95949 1.32608 0
M  V30 6417 H 648.437 3.91742 -0.167562 0
M  V30 6418 H 649.927 4.09746 0.806107 0
M  V30 6419 N 650.364 0.662433 1.43002 0
M  V30 6420 C 651.294 -0.00979809 2.33498 0
M  V30 6421 C 652.275 -0.802329 1.49989 0
M  V30 6422 O 653.46 -0.761964 1.78627 0
M  V30 6423 C 650.59 -0.970446 3.33466 0
M  V30 6424 C 649.544 -0.287383 4.27034 0
M  V30 6425 C 648.87 -1.36012 5.17112 0
M  V30 6426 C 650.17 0.82595 5.15728 0
M  V30 6427 H 651.864 0.745959 2.89958 0
M  V30 6428 H 649.41 0.360172 1.39423 0
M  V30 6429 H 651.363 -1.44971 3.95679 0
M  V30 6430 H 650.087 -1.75748 2.75282 0
M  V30 6431 H 648.746 0.17152 3.66199 0
M  V30 6432 H 648.394 -2.13882 4.55262 0
M  V30 6433 H 648.094 -0.908276 5.80538 0
M  V30 6434 H 649.618 -1.84056 5.82199 0
M  V30 6435 H 651.032 0.42845 5.71697 0
M  V30 6436 H 649.429 1.20282 5.87922 0
M  V30 6437 H 650.499 1.68003 4.54866 0
M  V30 6438 N 651.842 -1.52309 0.404946 0
M  V30 6439 C 653.07 -2.06185 -0.171818 0
M  V30 6440 C 653.485 -1.27536 -1.39212 0
M  V30 6441 O 652.842 -0.326112 -1.79563 0
M  V30 6442 C 652.893 -3.57647 -0.526417 0
M  V30 6443 O 652.614 -4.3332 0.645417 0
M  V30 6444 C 654.115 -4.27925 -1.15736 0
M  V30 6445 H 651.335 -0.670632 -0.0222328 0
M  V30 6446 H 653.879 -1.96259 0.574692 0
M  V30 6447 H 652.034 -3.67595 -1.22282 0
M  V30 6448 H 652.448 -5.23328 0.35042 0
M  V30 6449 H 653.922 -5.35093 -1.35572 0
M  V30 6450 H 654.399 -3.84134 -2.12926 0
M  V30 6451 H 655.005 -4.22335 -0.501281 0
M  V30 6452 N 653.32 -0.135238 -1.57019 0
M  V30 6453 C 654.566 0.519563 -1.96032 0
M  V30 6454 C 654.899 1.65284 -1.01955 0
M  V30 6455 O 654.174 1.94408 -0.059727 0
M  V30 6456 C 654.457 1.0369 -3.44848 0
M  V30 6457 C 654.31 -0.0940754 -4.49702 0
M  V30 6458 C 655.629 1.92254 -3.95887 0
M  V30 6459 H 652.748 0.18739 -0.712779 0
M  V30 6460 H 655.39 -0.214086 -1.8879 0
M  V30 6461 H 653.54 1.66209 -3.5115 0
M  V30 6462 H 655.212 -0.73 -4.55487 0
M  V30 6463 H 653.455 -0.754924 -4.27181 0
M  V30 6464 H 654.126 0.309419 -5.51132 0
M  V30 6465 H 656.602 1.39581 -3.9199 0
M  V30 6466 H 655.478 2.25364 -5.00502 0
M  V30 6467 H 655.739 2.85513 -3.37543 0
M  V30 6468 N 654.798 1.5699 0.138552 0
M  V30 6469 C 655.746 1.99858 1.18994 0
M  V30 6470 C 656.74 0.89231 1.43994 0
M  V30 6471 O 657.946 1.0775 1.44187 0
M  V30 6472 H 654.321 0.636325 0.400743 0
M  V30 6473 H 656.292 2.87427 0.801755 0
M  V30 6474 C 655.041 2.40235 2.51361 0
M  V30 6475 H 654.364 3.24917 2.32957 0
M  V30 6476 H 655.804 2.74045 3.23535 0
M  V30 6477 C 654.263 1.25829 3.1252 0
M  V30 6478 O 654.793 0.563604 3.97727 0
M  V30 6479 N 652.999 1.02036 2.72097 0
M  V30 6480 H 652.546 1.58705 2.02905 0
M  V30 6481 H 652.504 0.256796 3.1335 0
M  V30 6482 N 656.276 -0.40816 1.52223 0
M  V30 6483 C 657.553 -1.16807 1.56893 0
M  V30 6484 C 657.933 -2.08169 0.350537 0
M  V30 6485 O 657.281 -2.18684 -0.662536 0
M  V30 6486 C 657.491 -1.94451 2.8981 0
M  V30 6487 C 658.839 -2.50484 3.42845 0
M  V30 6488 O 659.863 -2.0463 2.91556 0
M  V30 6489 O 658.722 -3.34192 4.3241 0
M  V30 6490 H 655.816 -0.533382 0.632007 0
M  V30 6491 H 658.362 -0.414862 1.64551 0
M  V30 6492 H 657.134 -1.27527 3.69936 0
M  V30 6493 H 656.757 -2.76775 2.85449 0
M  V30 6494 N 657.755 -1.42862 -0.66545 0
M  V30 6495 C 659.003 -1.43546 -1.42264 0
M  V30 6496 C 659.324 -0.0563116 -1.94919 0
M  V30 6497 O 658.594 0.906568 -1.73661 0
M  V30 6498 H 657.174 -0.528464 -0.527953 0
M  V30 6499 H 659.836 -1.78363 -0.785665 0
M  V30 6500 H 658.932 -2.14079 -2.27105 0
M  V30 6501 N 659.233 0.902656 -1.29189 0
M  V30 6502 C 660.18 2.00643 -1.14066 0
M  V30 6503 C 661.15 1.66064 -0.0347756 0
M  V30 6504 O 662.335 1.8973 -0.201752 0
M  V30 6505 C 659.475 3.35214 -0.820104 0
M  V30 6506 C 658.588 3.82594 -2.00614 0
M  V30 6507 C 657.723 5.05727 -1.62522 0
M  V30 6508 C 656.762 5.45469 -2.77724 0
M  V30 6509 N 655.899 6.59789 -2.40048 0
M  V30 6510 H 660.739 2.1291 -2.08502 0
M  V30 6511 H 658.276 1.04271 -1.03759 0
M  V30 6512 H 660.234 4.12643 -0.614949 0
M  V30 6513 H 658.864 3.22682 0.0873452 0
M  V30 6514 H 657.916 3.01226 -2.32308 0
M  V30 6515 H 659.228 4.07999 -2.86946 0
M  V30 6516 H 658.382 5.90732 -1.38277 0
M  V30 6517 H 657.121 4.82155 -0.733333 0
M  V30 6518 H 656.126 4.59 -3.02653 0
M  V30 6519 H 657.351 5.71024 -3.67572 0
M  V30 6520 H 655.297 6.37826 -1.53343 0
M  V30 6521 H 655.214 6.84975 -3.19914 0
M  V30 6522 H 656.482 7.4807 -2.19116 0
M  V30 6523 N 660.711 1.11618 1.11262 0
M  V30 6524 C 661.659 0.771291 2.1944 0
M  V30 6525 C 662.653 -0.238073 1.67719 0
M  V30 6526 O 663.859 -0.0971628 1.79738 0
M  V30 6527 H 660.234 0.231548 0.715465 0
M  V30 6528 H 662.205 1.69226 2.45775 0
M  V30 6529 C 660.954 0.232765 3.4692 0
M  V30 6530 H 660.277 1.00072 3.87073 0
M  V30 6531 H 661.717 0.0296561 4.2399 0
M  V30 6532 C 660.176 -1.03738 3.20531 0
M  V30 6533 O 660.706 -2.11675 3.41404 0
M  V30 6534 N 658.912 -0.960906 2.74253 0
M  V30 6535 H 658.459 -0.0824323 2.57468 0
M  V30 6536 H 658.417 -1.8114 2.56974 0
M  V30 6537 N 662.189 -1.289 0.906776 0
M  V30 6538 C 663.152 -2.25777 0.394656 0
M  V30 6539 C 664.152 -1.53621 -0.475119 0
M  V30 6540 O 665.342 -1.71949 -0.279165 0
M  V30 6541 C 662.474 -3.38113 -0.43499 0
M  V30 6542 H 663.667 -2.72592 1.25033 0
M  V30 6543 H 661.22 -1.40463 0.685547 0
M  V30 6544 H 661.955 -2.96648 -1.31036 0
M  V30 6545 H 661.74 -3.91647 0.188334 0
M  V30 6546 H 663.23 -4.10168 -0.784365 0
M  V30 6547 N 663.667 -0.670007 -1.42649 0
M  V30 6548 C 664.615 0.0230106 -2.32589 0
M  V30 6549 C 665.609 0.795585 -1.49555 0
M  V30 6550 O 666.815 0.70409 -1.65658 0
M  V30 6551 H 663.19 0.0262342 -0.751542 0
M  V30 6552 H 665.161 -0.753009 -2.88743 0
M  V30 6553 C 663.91 0.963872 -3.34073 0
M  V30 6554 H 663.233 0.378813 -3.98001 0
M  V30 6555 H 664.673 1.41755 -3.99602 0
M  V30 6556 C 663.132 2.06797 -2.65964 0
M  V30 6557 O 663.662 3.15383 -2.48789 0
M  V30 6558 N 661.868 1.83831 -2.25066 0
M  V30 6559 H 661.415 0.955235 -2.39234 0
M  V30 6560 H 661.373 2.57895 -1.79827 0
M  V30 6561 N 665.145 1.52092 -0.413018 0
M  V30 6562 C 666.093 2.28681 0.425199 0
M  V30 6563 C 667.087 1.3353 1.04241 0
M  V30 6564 O 668.293 1.50973 0.980166 0
M  V30 6565 H 664.668 0.735661 0.155906 0
M  V30 6566 H 666.639 2.97418 -0.241926 0
M  V30 6567 C 665.388 3.1235 1.5275 0
M  V30 6568 H 664.711 3.85439 1.06191 0
M  V30 6569 H 666.151 3.69038 2.08774 0
M  V30 6570 C 664.61 2.26161 2.49706 0
M  V30 6571 O 665.14 1.90452 3.53682 0
M  V30 6572 N 663.346 1.89854 2.20008 0
M  V30 6573 H 662.893 2.19092 1.35486 0
M  V30 6574 H 662.851 1.3248 2.85125 0
M  V30 6575 N 666.623 0.143563 1.56945 0
M  V30 6576 C 668.034 -0.37783 1.82837 0
M  V30 6577 C 668.385 -1.64967 1.06209 0
M  V30 6578 O 667.51 -2.14221 0.306291 0
M  V30 6579 C 668.105 -0.692274 3.31652 0
M  V30 6580 C 666.664 -1.1582 3.58138 0
M  V30 6581 C 665.811 -0.17951 2.76718 0
M  V30 6582 H 668.762 0.368317 1.54367 0
M  V30 6583 H 668.783 -1.54729 3.47619 0
M  V30 6584 H 668.295 0.233572 3.87397 0
M  V30 6585 H 666.396 -2.10011 3.07776 0
M  V30 6586 H 666.509 -1.08655 4.66616 0
M  V30 6587 H 664.873 -0.671458 2.4569 0
M  V30 6588 H 665.656 0.739865 3.35233 0
M  V30 6589 N 668.101 -1.57061 -0.130224 0
M  V30 6590 C 669.048 -1.99517 -1.16024 0
M  V30 6591 C 670.018 -0.865452 -1.41771 0
M  V30 6592 O 671.203 -1.12882 -1.53826 0
M  V30 6593 C 668.343 -2.3951 -2.48453 0
M  V30 6594 C 667.456 -3.65848 -2.29737 0
M  V30 6595 C 666.591 -3.9487 -3.55318 0
M  V30 6596 C 665.63 -5.14426 -3.31711 0
M  V30 6597 N 664.767 -5.39375 -4.49466 0
M  V30 6598 H 669.607 -2.87305 -0.791194 0
M  V30 6599 H 667.144 -1.42129 -0.379195 0
M  V30 6600 H 669.102 -2.60731 -3.25692 0
M  V30 6601 H 667.732 -1.54779 -2.83272 0
M  V30 6602 H 666.784 -3.52307 -1.4347 0
M  V30 6603 H 668.096 -4.53241 -2.08263 0
M  V30 6604 H 667.25 -4.16679 -4.4098 0
M  V30 6605 H 665.989 -3.05931 -3.79813 0
M  V30 6606 H 664.994 -4.92473 -2.44439 0
M  V30 6607 H 666.219 -6.04933 -3.08598 0
M  V30 6608 H 664.165 -4.53391 -4.74102 0
M  V30 6609 H 664.082 -6.21069 -4.31055 0
M  V30 6610 H 665.35 -5.65694 -5.36293 0
M  V30 6611 N 669.579 0.400081 -1.52437 0
M  V30 6612 C 670.827 1.14392 -1.6661 0
M  V30 6613 C 671.148 1.90792 -0.402927 0
M  V30 6614 O 670.418 1.87042 0.582425 0
M  V30 6615 H 668.998 0.425275 -0.614125 0
M  V30 6616 H 671.66 0.455076 -1.89513 0
M  V30 6617 H 670.756 1.85298 -2.51139 0
M  V30 6618 N 671.057 1.43213 0.657864 0
M  V30 6619 C 672.004 1.48011 1.77092 0
M  V30 6620 C 672.974 0.330291 1.62783 0
M  V30 6621 O 674.159 0.536787 1.83094 0
M  V30 6622 C 671.299 1.40461 3.15222 0
M  V30 6623 C 670.412 2.65612 3.40697 0
M  V30 6624 C 669.547 2.50083 4.68649 0
M  V30 6625 C 668.586 3.70525 4.87214 0
M  V30 6626 N 667.723 3.53835 6.0642 0
M  V30 6627 H 672.563 2.43121 1.72326 0
M  V30 6628 H 670.1 1.20687 0.841013 0
M  V30 6629 H 672.058 1.34079 3.95068 0
M  V30 6630 H 670.688 0.489359 3.19069 0
M  V30 6631 H 669.74 2.82292 2.54982 0
M  V30 6632 H 671.052 3.5509 3.50303 0
M  V30 6633 H 670.206 2.41383 5.56614 0
M  V30 6634 H 668.945 1.58121 4.61356 0
M  V30 6635 H 667.95 3.79639 3.97686 0
M  V30 6636 H 669.175 4.63489 4.96341 0
M  V30 6637 H 667.121 2.64604 6.00267 0
M  V30 6638 H 667.038 4.36912 6.16963 0
M  V30 6639 H 668.306 3.48978 6.97019 0
M  V30 6640 N 672.536 -0.895792 1.29666 0
M  V30 6641 C 673.782 -1.64908 1.18039 0
M  V30 6642 C 674.115 -1.9236 -0.266682 0
M  V30 6643 O 673.39 -1.53682 -1.19214 0
M  V30 6644 C 673.673 -2.99574 1.99819 0
M  V30 6645 C 673.526 -2.79163 3.52687 0
M  V30 6646 C 674.845 -4.00358 1.82761 0
M  V30 6647 H 671.964 -0.598437 0.430165 0
M  V30 6648 H 674.606 -1.03736 1.59182 0
M  V30 6649 H 672.756 -3.51786 1.64859 0
M  V30 6650 H 674.428 -2.33821 3.9765 0
M  V30 6651 H 672.671 -2.13871 3.77414 0
M  V30 6652 H 673.342 -3.74871 4.05186 0
M  V30 6653 H 675.818 -3.57268 2.13304 0
M  V30 6654 H 674.694 -4.92514 2.42325 0
M  V30 6655 H 674.955 -4.35096 0.783839 0
M  V30 6656 N 674.014 -1.12206 -1.10668 0
M  V30 6657 C 674.977 -0.790867 -2.15123 0
M  V30 6658 C 675.977 0.193618 -1.5963 0
M  V30 6659 O 677.167 -0.0318728 -1.74171 0
M  V30 6660 C 674.299 -0.174797 -3.40452 0
M  V30 6661 H 675.492 -1.7163 -2.45933 0
M  V30 6662 H 673.045 -0.924993 -1.2599 0
M  V30 6663 H 673.78 0.760478 -3.15257 0
M  V30 6664 H 673.565 -0.88358 -3.82015 0
M  V30 6665 H 675.055 0.0405162 -4.1758 0
M  V30 6666 N 675.492 1.28418 -0.913599 0
M  V30 6667 C 676.769 1.89977 -0.465619 0
M  V30 6668 C 677.149 1.82813 1.05559 0
M  V30 6669 O 676.497 1.26397 1.90358 0
M  V30 6670 C 676.707 3.34492 -0.995813 0
M  V30 6671 C 678.055 4.11468 -1.04782 0
M  V30 6672 O 679.079 3.43451 -0.944445 0
M  V30 6673 O 677.938 5.33046 -1.20518 0
M  V30 6674 H 675.032 0.813734 -0.147532 0
M  V30 6675 H 677.578 1.36786 -1.00437 0
M  V30 6676 H 676.35 3.33929 -2.03978 0
M  V30 6677 H 675.973 3.95181 -0.437878 0
M  V30 6678 N 676.97 0.677563 1.42291 0
M  V30 6679 C 678.216 0.201272 2.01799 0
M  V30 6680 C 678.549 -1.19004 1.53465 0
M  V30 6681 O 677.824 -1.79953 0.738039 0
M  V30 6682 C 678.107 0.238968 3.59306 0
M  V30 6683 C 677.96 1.66594 4.17812 0
M  V30 6684 C 679.279 -0.411287 4.38174 0
M  V30 6685 H 676.398 0.0746114 0.733214 0
M  V30 6686 H 679.04 0.862872 1.69276 0
M  V30 6687 H 677.19 -0.324368 3.87144 0
M  V30 6688 H 678.862 2.28173 4.00917 0
M  V30 6689 H 677.105 2.20576 3.73536 0
M  V30 6690 H 677.776 1.64398 5.26951 0
M  V30 6691 H 680.252 0.0682804 4.16044 0
M  V30 6692 H 679.128 -0.354286 5.47755 0
M  V30 6693 H 679.389 -1.4893 4.1626 0
M  V30 6694 N 678.448 -1.51871 0.421078 0
M  V30 6695 C 679.411 -2.25914 -0.386712 0
M  V30 6696 C 680.411 -1.28733 -0.963555 0
M  V30 6697 O 681.601 -1.52579 -0.840556 0
M  V30 6698 C 678.733 -3.03853 -1.54551 0
M  V30 6699 H 679.926 -2.98754 0.261978 0
M  V30 6700 H 677.479 -1.5533 0.173862 0
M  V30 6701 H 678.214 -2.35392 -2.23072 0
M  V30 6702 H 677.999 -3.75215 -1.13824 0
M  V30 6703 H 679.489 -3.59984 -2.11663 0
M  V30 6704 N 679.926 -0.151884 -1.56866 0
M  V30 6705 C 681.151 0.508044 -2.01081 0
M  V30 6706 C 681.576 1.57306 -1.03134 0
M  V30 6707 O 680.934 1.81298 -0.0078309 0
M  V30 6708 C 680.982 1.08106 -3.44014 0
M  V30 6709 O 680.086 2.19577 -3.49084 0
M  V30 6710 H 679.427 0.123757 -0.652365 0
M  V30 6711 H 681.957 -0.250055 -2.03066 0
M  V30 6712 H 681.967 1.40851 -3.82916 0
M  V30 6713 H 680.642 0.301168 -4.14808 0
M  V30 6714 H 679.219 1.88023 -3.22027 0
M  V30 6715 N 681.404 1.57128 0.121893 0
M  V30 6716 C 682.632 1.88883 0.844451 0
M  V30 6717 C 683.047 0.742824 1.73573 0
M  V30 6718 O 682.404 -0.286475 1.80238 0
M  V30 6719 C 682.455 3.20076 1.68029 0
M  V30 6720 O 682.176 4.30264 0.824898 0
M  V30 6721 C 683.677 3.65515 2.50826 0
M  V30 6722 H 680.897 0.62549 0.242907 0
M  V30 6723 H 683.441 2.04219 0.107151 0
M  V30 6724 H 681.596 3.06418 2.37038 0
M  V30 6725 H 682.01 5.05439 1.40113 0
M  V30 6726 H 683.484 4.60081 3.05008 0
M  V30 6727 H 683.961 2.92029 3.28048 0
M  V30 6728 H 684.567 3.81952 1.87064 0
M  V30 6729 N 682.882 -0.391992 1.52647 0
M  V30 6730 C 684.159 -1.15136 1.58123 0
M  V30 6731 C 684.539 -2.07786 0.372597 0
M  V30 6732 O 683.887 -2.19374 -0.639304 0
M  V30 6733 C 684.097 -1.91367 2.91856 0
M  V30 6734 C 685.445 -2.46833 3.45483 0
M  V30 6735 O 686.469 -2.01527 2.9371 0
M  V30 6736 O 685.328 -3.29587 4.3593 0
M  V30 6737 H 682.422 -0.526649 0.637629 0
M  V30 6738 H 684.968 -0.397386 1.64982 0
M  V30 6739 H 683.74 -1.23597 3.71268 0
M  V30 6740 H 683.363 -2.73732 2.88369 0
M  V30 6741 N 684.36 -1.4356 -0.65026 0
M  V30 6742 C 685.27 -1.514 -1.79207 0
M  V30 6743 C 686.286 -0.400895 -1.69319 0
M  V30 6744 O 687.462 -0.655458 -1.90436 0
M  V30 6745 C 684.527 -1.43737 -3.155 0
M  V30 6746 C 683.588 -2.65743 -3.37163 0
M  V30 6747 C 682.821 -2.58436 -4.66954 0
M  V30 6748 O 683.044 -1.63374 -5.46503 0
M  V30 6749 O 681.978 -3.48984 -4.90402 0
M  V30 6750 H 685.804 -2.47825 -1.75547 0
M  V30 6751 H 683.389 -1.25594 -0.809111 0
M  V30 6752 H 685.271 -1.41916 -3.96784 0
M  V30 6753 H 683.946 -0.504488 -3.19745 0
M  V30 6754 H 682.853 -2.73136 -2.55632 0
M  V30 6755 H 684.186 -3.58014 -3.37768 0
M  V30 6756 N 685.838 0.888903 -1.30139 0
M  V30 6757 C 686.785 1.99422 -1.16188 0
M  V30 6758 C 687.755 1.66017 -0.0523869 0
M  V30 6759 O 688.94 1.89506 -0.221864 0
M  V30 6760 C 686.08 3.34325 -0.855612 0
M  V30 6761 C 685.193 3.80445 -2.0466 0
M  V30 6762 C 684.328 5.03975 -1.67876 0
M  V30 6763 C 683.367 5.42492 -2.83493 0
M  V30 6764 N 682.504 6.57206 -2.47032 0
M  V30 6765 H 687.344 2.10687 -2.10749 0
M  V30 6766 H 684.881 1.03165 -1.04859 0
M  V30 6767 H 686.839 4.11968 -0.658681 0
M  V30 6768 H 685.469 3.22756 0.0531155 0
M  V30 6769 H 684.521 2.98745 -2.3549 0
M  V30 6770 H 685.833 4.04933 -2.91257 0
M  V30 6771 H 684.987 5.89232 -1.44535 0
M  V30 6772 H 683.726 4.8135 -0.784431 0
M  V30 6773 H 682.731 4.55764 -3.07505 0
M  V30 6774 H 683.956 5.67093 -3.73607 0
M  V30 6775 H 681.902 6.36164 -1.601 0
M  V30 6776 H 681.819 6.81543 -3.27161 0
M  V30 6777 H 683.087 7.45704 -2.27038 0
M  V30 6778 N 687.317 1.12792 1.10072 0
M  V30 6779 C 688.264 0.79921 2.16521 0
M  V30 6780 C 689.234 -0.235726 1.64419 0
M  V30 6781 O 690.419 -0.109457 1.90486 0
M  V30 6782 C 687.559 0.264091 3.44088 0
M  V30 6783 C 686.672 1.35729 4.10124 0
M  V30 6784 C 685.807 0.781212 5.25424 0
M  V30 6785 C 684.846 1.85327 5.8337 0
M  V30 6786 N 683.983 1.29564 6.90042 0
M  V30 6787 H 688.823 1.71105 2.43981 0
M  V30 6788 H 686.36 0.854225 1.19756 0
M  V30 6789 H 688.318 -0.0642423 4.17151 0
M  V30 6790 H 686.948 -0.610901 3.16967 0
M  V30 6791 H 686 1.80234 3.34993 0
M  V30 6792 H 687.312 2.16782 4.4923 0
M  V30 6793 H 686.466 0.403769 6.05355 0
M  V30 6794 H 685.205 -0.0604686 4.87663 0
M  V30 6795 H 684.21 2.23986 5.02106 0
M  V30 6796 H 685.435 2.69824 6.23195 0
M  V30 6797 H 683.381 0.475844 6.54272 0
M  V30 6798 H 683.298 2.04271 7.2788 0
M  V30 6799 H 684.566 0.945545 7.73744 0
M  V30 6800 N 688.795 -1.27931 0.920396 0
M  V30 6801 C 689.725 -2.29487 0.431024 0
M  V30 6802 C 690.706 -1.62435 -0.504861 0
M  V30 6803 O 691.891 -1.89797 -0.411176 0
M  V30 6804 C 689.021 -3.45788 -0.323709 0
M  V30 6805 C 687.975 -4.24784 0.523658 0
M  V30 6806 C 687.301 -5.33488 -0.359809 0
M  V30 6807 C 688.601 -4.90874 1.78437 0
M  V30 6808 H 690.295 -2.70671 1.27975 0
M  V30 6809 H 687.841 -1.30121 0.616813 0
M  V30 6810 H 689.794 -4.15927 -0.676952 0
M  V30 6811 H 688.518 -3.03502 -1.2064 0
M  V30 6812 H 687.177 -3.56382 0.85951 0
M  V30 6813 H 686.825 -4.87445 -1.24124 0
M  V30 6814 H 686.525 -5.87247 0.203605 0
M  V30 6815 H 688.049 -6.06472 -0.708787 0
M  V30 6816 H 689.463 -5.53339 1.49963 0
M  V30 6817 H 687.86 -5.54659 2.29071 0
M  V30 6818 H 688.93 -4.14988 2.50824 0
M  V30 6819 N 690.273 -0.685099 -1.4193 0
M  V30 6820 C 691.519 -0.211971 -2.01689 0
M  V30 6821 C 691.852 1.18189 -1.54094 0
M  V30 6822 O 691.127 1.79559 -0.747572 0
M  V30 6823 C 691.41 -0.258019 -3.59174 0
M  V30 6824 C 691.263 -1.68807 -4.16922 0
M  V30 6825 C 692.582 0.388044 -4.38386 0
M  V30 6826 H 689.701 -0.0784987 -0.732808 0
M  V30 6827 H 692.343 -0.871837 -1.68816 0
M  V30 6828 H 690.493 0.303832 -3.8731 0
M  V30 6829 H 692.165 -2.30296 -3.99702 0
M  V30 6830 H 690.408 -2.22553 -3.72361 0
M  V30 6831 H 691.079 -1.6719 -5.26072 0
M  V30 6832 H 693.555 -0.0903432 -4.16002 0
M  V30 6833 H 692.431 0.325232 -5.47936 0
M  V30 6834 H 692.692 1.4672 -4.17044 0
M  V30 6835 N 691.751 1.51645 -0.429126 0
M  V30 6836 C 692.979 2.06433 0.138994 0
M  V30 6837 C 693.394 1.29735 1.37165 0
M  V30 6838 O 692.751 0.354638 1.79021 0
M  V30 6839 C 692.802 3.58439 0.469452 0
M  V30 6840 O 692.523 4.32238 -0.714273 0
M  V30 6841 C 694.024 4.29712 1.08914 0
M  V30 6842 H 691.244 0.6709 0.0115608 0
M  V30 6843 H 693.788 1.9532 -0.605843 0
M  V30 6844 H 691.943 3.69494 1.16419 0
M  V30 6845 H 692.357 5.22704 -0.433633 0
M  V30 6846 H 693.831 5.37182 1.27042 0
M  V30 6847 H 694.308 3.87473 2.06788 0
M  V30 6848 H 694.914 4.2308 0.434028 0
M  V30 6849 N 693.229 0.160201 1.56784 0
M  V30 6850 C 694.192 -0.760405 2.16219 0
M  V30 6851 C 695.192 -1.16595 1.10735 0
M  V30 6852 O 696.382 -1.08472 1.36306 0
M  V30 6853 C 693.514 -2.03358 2.73603 0
M  V30 6854 H 694.707 -0.243173 2.98912 0
M  V30 6855 H 692.26 -0.0893139 1.56045 0
M  V30 6856 H 692.995 -2.59416 1.94612 0
M  V30 6857 H 692.78 -1.75186 3.50788 0
M  V30 6858 H 694.27 -2.69081 3.19351 0
M  V30 6859 N 694.707 -1.5719 -0.113559 0
M  V30 6860 C 695.654 -2.00736 -1.13901 0
M  V30 6861 C 696.624 -0.88044 -1.40846 0
M  V30 6862 O 697.809 -1.14507 -1.5262 0
M  V30 6863 C 694.949 -2.42132 -2.45899 0
M  V30 6864 C 694.062 -3.68264 -2.25844 0
M  V30 6865 C 693.197 -3.98617 -3.5111 0
M  V30 6866 C 692.236 -5.17915 -3.26236 0
M  V30 6867 N 691.373 -5.44111 -4.4372 0
M  V30 6868 H 696.213 -2.88128 -0.760677 0
M  V30 6869 H 693.75 -1.42523 -0.364099 0
M  V30 6870 H 695.708 -2.6417 -3.22908 0
M  V30 6871 H 694.338 -1.57775 -2.81615 0
M  V30 6872 H 693.39 -3.53809 -1.39726 0
M  V30 6873 H 694.702 -4.55425 -2.03444 0
M  V30 6874 H 693.856 -4.21333 -4.36536 0
M  V30 6875 H 692.595 -3.09942 -3.76546 0
M  V30 6876 H 691.6 -4.95038 -2.39202 0
M  V30 6877 H 692.825 -6.08172 -3.02165 0
M  V30 6878 H 690.771 -4.58394 -4.69266 0
M  V30 6879 H 690.688 -6.25606 -4.24444 0
M  V30 6880 H 691.956 -5.71351 -5.30263 0
M  V30 6881 N 696.185 0.383891 -1.52853 0
M  V30 6882 C 697.433 1.12619 -1.67814 0
M  V30 6883 C 697.754 1.90354 -0.423141 0
M  V30 6884 O 697.024 1.87649 0.562554 0
M  V30 6885 H 695.604 0.418738 -0.618601 0
M  V30 6886 H 698.266 0.43495 -1.89985 0
M  V30 6887 H 697.362 1.82624 -2.5309 0
M  V30 6888 N 697.663 1.43903 0.642637 0
M  V30 6889 C 698.593 1.52697 1.76652 0
M  V30 6890 C 699.574 0.380816 1.65782 0
M  V30 6891 O 700.759 0.599432 1.84717 0
M  V30 6892 C 697.889 1.45975 3.15133 0
M  V30 6893 C 696.843 2.58949 3.40778 0
M  V30 6894 C 696.169 2.37279 4.79169 0
M  V30 6895 C 697.469 4.01153 3.34475 0
M  V30 6896 H 699.163 2.46766 1.69549 0
M  V30 6897 H 696.709 1.18767 0.814279 0
M  V30 6898 H 698.662 1.5073 3.93521 0
M  V30 6899 H 697.386 0.484162 3.22991 0
M  V30 6900 H 696.045 2.53564 2.64765 0
M  V30 6901 H 695.693 1.37939 4.83717 0
M  V30 6902 H 695.393 3.13016 4.97287 0
M  V30 6903 H 696.917 2.43834 5.59801 0
M  V30 6904 H 698.331 4.07968 4.02784 0
M  V30 6905 H 696.728 4.77001 3.64129 0
M  V30 6906 H 697.798 4.25539 2.32475 0
M  V30 6907 N 699.141 -0.881989 1.30609 0
M  V30 6908 C 700.387 -1.63647 1.19781 0
M  V30 6909 C 700.72 -1.92632 -0.246265 0
M  V30 6910 O 699.995 -1.54938 -1.17577 0
M  V30 6911 C 700.278 -2.97437 2.02985 0
M  V30 6912 C 700.131 -2.75406 3.55628 0
M  V30 6913 C 701.45 -3.98397 1.86997 0
M  V30 6914 H 698.569 -0.593841 0.436488 0
M  V30 6915 H 701.211 -1.02041 1.60273 0
M  V30 6916 H 699.361 -3.50018 1.68581 0
M  V30 6917 H 701.033 -2.2959 4.00107 0
M  V30 6918 H 699.276 -2.09856 3.79662 0
M  V30 6919 H 699.947 -3.70552 4.09139 0
M  V30 6920 H 702.423 -3.54986 2.17081 0
M  V30 6921 H 701.299 -4.89916 2.47536 0
M  V30 6922 H 701.56 -4.3424 0.829943 0
M  V30 6923 N 700.619 -1.13374 -1.09472 0
M  V30 6924 C 701.847 -0.918351 -1.85402 0
M  V30 6925 C 702.262 0.53281 -1.81126 0
M  V30 6926 O 701.619 1.36879 -1.20708 0
M  V30 6927 C 701.67 -1.39743 -3.33398 0
M  V30 6928 O 701.391 -2.79172 -3.37631 0
M  V30 6929 C 702.892 -1.22042 -4.2617 0
M  V30 6930 H 700.112 -0.327511 -0.585643 0
M  V30 6931 H 702.656 -1.50617 -1.38328 0
M  V30 6932 H 700.811 -0.852619 -3.77901 0
M  V30 6933 H 701.225 -3.00428 -4.29934 0
M  V30 6934 H 702.699 -1.60438 -5.2817 0
M  V30 6935 H 703.176 -0.162047 -4.38901 0
M  V30 6936 H 703.782 -1.75323 -3.87482 0
M  V30 6937 N 702.098 1.27442 -0.927168 0
M  V30 6938 C 703.061 2.2512 -0.430525 0
M  V30 6939 C 704.061 1.54357 0.450619 0
M  V30 6940 O 705.251 1.72371 0.251774 0
M  V30 6941 C 702.383 3.38763 0.381144 0
M  V30 6942 H 703.576 2.70569 -1.29354 0
M  V30 6943 H 701.129 1.39355 -0.707806 0
M  V30 6944 H 701.864 2.98695 1.263 0
M  V30 6945 H 701.649 3.91298 -0.250618 0
M  V30 6946 H 703.139 4.11364 0.719012 0
M  V30 6947 N 703.576 0.692616 1.41565 0
M  V30 6948 C 704.506 0.0397325 2.33466 0
M  V30 6949 C 705.487 -0.770334 1.51657 0
M  V30 6950 O 706.672 -0.723903 1.80203 0
M  V30 6951 C 703.802 -0.899495 3.3545 0
M  V30 6952 C 702.756 -0.196738 4.27548 0
M  V30 6953 C 702.082 -1.25012 5.19881 0
M  V30 6954 C 703.382 0.935158 5.1386 0
M  V30 6955 H 705.076 0.807296 2.88311 0
M  V30 6956 H 702.622 0.389665 1.38628 0
M  V30 6957 H 704.575 -1.36545 3.98665 0
M  V30 6958 H 703.299 -1.69869 2.78948 0
M  V30 6959 H 701.958 0.249158 3.65752 0
M  V30 6960 H 701.606 -2.04177 4.59696 0
M  V30 6961 H 701.306 -0.784931 5.82334 0
M  V30 6962 H 702.83 -1.71665 5.85972 0
M  V30 6963 H 704.244 0.549619 5.70659 0
M  V30 6964 H 702.641 1.32726 5.85238 0
M  V30 6965 H 703.711 1.77613 4.512 0
M  V30 6966 N 705.054 -1.51416 0.437162 0
M  V30 6967 C 706.002 -2.29328 -0.388765 0
M  V30 6968 C 706.996 -1.35171 -1.02104 0
M  V30 6969 O 708.202 -1.52513 -0.956024 0
M  V30 6970 H 704.577 -0.738048 -0.144183 0
M  V30 6971 H 706.548 -2.96995 0.289212 0
M  V30 6972 C 705.297 -3.14741 -1.47761 0
M  V30 6973 H 704.62 -3.8708 -1.00045 0
M  V30 6974 H 706.06 -3.72313 -2.02877 0
M  V30 6975 C 704.519 -2.30105 -2.46076 0
M  V30 6976 O 705.049 -1.96055 -3.50607 0
M  V30 6977 N 703.255 -1.93331 -2.1696 0
M  V30 6978 H 702.802 -2.2122 -1.31983 0
M  V30 6979 H 702.76 -1.36999 -2.82982 0
M  V30 6980 N 706.532 -0.168513 -1.56696 0
M  V30 6981 C 707.757 0.486688 -2.01609 0
M  V30 6982 C 708.182 1.56203 -1.04796 0
M  V30 6983 O 707.54 1.8128 -0.0270596 0
M  V30 6984 C 707.588 1.04451 -3.45141 0
M  V30 6985 O 706.692 2.15862 -3.51393 0
M  V30 6986 H 706.033 0.116831 -0.653641 0
M  V30 6987 H 708.563 -0.271579 -2.0279 0
M  V30 6988 H 708.573 1.36782 -3.84389 0
M  V30 6989 H 707.248 0.257155 -4.15104 0
M  V30 6990 H 705.825 1.84597 -3.24004 0
M  V30 6991 N 708.01 1.57248 0.105221 0
M  V30 6992 C 708.94 2.04374 1.12931 0
M  V30 6993 C 709.921 0.93074 1.42377 0
M  V30 6994 O 711.106 1.20136 1.52581 0
M  V30 6995 C 708.236 2.45967 2.45189 0
M  V30 6996 C 707.19 3.60838 2.30174 0
M  V30 6997 C 706.516 3.88374 3.67518 0
M  V30 6998 C 707.816 4.92084 1.75073 0
M  V30 6999 H 709.51 2.9018 0.737287 0
M  V30 7000 H 707.056 1.39601 0.353211 0
M  V30 7001 H 709.009 2.77542 3.17094 0
M  V30 7002 H 707.733 1.57148 2.86308 0
M  V30 7003 H 706.392 3.29493 1.60716 0
M  V30 7004 H 706.04 2.96739 4.06147 0
M  V30 7005 H 705.74 4.65703 3.58321 0
M  V30 7006 H 707.264 4.22415 4.40906 0
M  V30 7007 H 708.678 5.22106 2.36809 0
M  V30 7008 H 707.075 5.73507 1.76662 0
M  V30 7009 H 708.145 4.79684 0.709347 0
M  V30 7010 N 709.488 -0.375779 1.53054 0
M  V30 7011 C 710.713 -1.14484 1.7294 0
M  V30 7012 C 711.138 -1.82572 0.452668 0
M  V30 7013 O 710.496 -1.71343 -0.592567 0
M  V30 7014 C 710.544 -2.15857 2.88857 0
M  V30 7015 O 709.648 -3.22725 2.56753 0
M  V30 7016 H 708.989 -0.332666 0.574656 0
M  V30 7017 H 711.519 -0.436025 1.999 0
M  V30 7018 H 711.529 -2.59631 3.14731 0
M  V30 7019 H 710.204 -1.65689 3.81471 0
M  V30 7020 H 708.781 -2.83996 2.41663 0
M  V30 7021 N 710.966 -1.44241 -0.634997 0
M  V30 7022 C 712.212 -1.48033 -1.39492 0
M  V30 7023 C 712.567 -0.109791 -1.92086 0
M  V30 7024 O 711.86 0.874394 -1.70484 0
M  V30 7025 C 712.054 -2.47279 -2.58046 0
M  V30 7026 C 711.883 -3.93848 -2.17057 0
M  V30 7027 C 710.653 -4.62061 -2.04518 0
M  V30 7028 C 712.851 -4.83172 -1.76208 0
M  V30 7029 N 710.833 -5.93471 -1.57051 0
M  V30 7030 C 712.204 -6.03996 -1.39958 0
M  V30 7031 C 714.259 -4.70271 -1.63554 0
M  V30 7032 C 712.962 -7.13351 -0.923196 0
M  V30 7033 C 714.988 -5.79646 -1.1732 0
M  V30 7034 C 714.35 -6.99609 -0.820181 0
M  V30 7035 H 710.449 -0.596743 -0.505392 0
M  V30 7036 H 713.033 -1.80542 -0.72887 0
M  V30 7037 H 711.204 -2.16766 -3.22284 0
M  V30 7038 H 712.936 -2.41391 -3.24827 0
M  V30 7039 H 709.691 -4.1682 -2.24851 0
M  V30 7040 H 710.115 -6.63275 -1.35628 0
M  V30 7041 H 714.757 -3.77964 -1.8948 0
M  V30 7042 H 712.475 -8.0547 -0.651441 0
M  V30 7043 H 716.061 -5.71689 -1.07993 0
M  V30 7044 H 714.941 -7.82803 -0.467901 0
M  V30 7045 N 712.444 0.87505 -1.31075 0
M  V30 7046 C 713.672 1.66058 -1.23419 0
M  V30 7047 C 714.087 1.87723 0.201347 0
M  V30 7048 O 713.444 1.43178 1.13165 0
M  V30 7049 C 713.495 3.03142 -1.96945 0
M  V30 7050 O 713.216 2.82448 -3.34895 0
M  V30 7051 C 714.717 3.97583 -1.96067 0
M  V30 7052 H 711.937 0.517868 -0.426677 0
M  V30 7053 H 714.481 1.09258 -1.72867 0
M  V30 7054 H 712.636 3.56645 -1.51271 0
M  V30 7055 H 713.05 3.69483 -3.72267 0
M  V30 7056 H 714.524 4.91104 -2.52034 0
M  V30 7057 H 715.001 4.2898 -0.941961 0
M  V30 7058 H 715.607 3.50015 -2.41597 0
M  V30 7059 N 713.922 1.13953 1.08869 0
M  V30 7060 C 715.15 0.92817 1.84912 0
M  V30 7061 C 715.565 -0.523197 1.81406 0
M  V30 7062 O 714.922 -1.36237 1.21432 0
M  V30 7063 C 714.973 1.41509 3.32652 0
M  V30 7064 O 714.694 2.80959 3.36145 0
M  V30 7065 C 716.195 1.243 4.25517 0
M  V30 7066 H 713.415 0.330612 0.583898 0
M  V30 7067 H 715.959 1.51349 1.37527 0
M  V30 7068 H 714.114 0.872648 3.77444 0
M  V30 7069 H 714.528 3.02704 4.28335 0
M  V30 7070 H 716.002 1.63237 5.27312 0
M  V30 7071 H 716.479 0.18532 4.38809 0
M  V30 7072 H 717.085 1.77375 3.86546 0
M  V30 7073 N 715.4 -1.26948 0.933913 0
M  V30 7074 C 716.628 -1.98186 0.59414 0
M  V30 7075 C 717.043 -1.69614 -0.829257 0
M  V30 7076 O 716.4 -0.960213 -1.55197 0
M  V30 7077 C 716.451 -3.52123 0.818026 0
M  V30 7078 O 716.172 -3.79698 2.18543 0
M  V30 7079 C 717.673 -4.40608 0.48781 0
M  V30 7080 H 714.893 -0.632305 0.224569 0
M  V30 7081 H 717.437 -1.61646 1.25263 0
M  V30 7082 H 715.592 -3.86851 0.206246 0
M  V30 7083 H 716.006 -4.7426 2.24005 0
M  V30 7084 H 717.48 -5.47606 0.695126 0
M  V30 7085 H 717.957 -4.35394 -0.576913 0
M  V30 7086 H 718.563 -4.11411 1.078 0
M  V30 7087 N 716.879 -0.700114 -1.41195 0
M  V30 7088 C 717.842 -0.0465706 -2.29153 0
M  V30 7089 C 718.842 0.703302 -1.44604 0
M  V30 7090 O 720.032 0.537513 -1.657 0
M  V30 7091 C 717.164 0.944324 -3.2756 0
M  V30 7092 H 718.357 -0.821064 -2.88442 0
M  V30 7093 H 715.91 -0.463869 -1.49258 0
M  V30 7094 H 716.645 1.74642 -2.73259 0
M  V30 7095 H 716.43 0.409701 -3.89954 0
M  V30 7096 H 717.92 1.39925 -3.9346 0
M  V30 7097 N 718.357 1.51182 -0.445186 0
M  V30 7098 C 719.32 2.26501 0.350722 0
M  V30 7099 C 720.32 1.3025 0.942952 0
M  V30 7100 O 721.51 1.53897 0.816175 0
M  V30 7101 C 718.642 3.06274 1.49697 0
M  V30 7102 H 719.835 2.98299 -0.309474 0
M  V30 7103 H 717.388 1.55034 -0.198551 0
M  V30 7104 H 718.123 2.38911 2.19299 0
M  V30 7105 H 717.908 3.76979 1.0784 0
M  V30 7106 H 719.398 3.63306 2.05909 0
M  V30 7107 N 719.835 0.176821 1.56605 0
M  V30 7108 C 720.745 -0.763682 2.21822 0
M  V30 7109 C 721.761 -1.24889 1.21156 0
M  V30 7110 O 722.937 -1.29987 1.53836 0
M  V30 7111 C 720.002 -1.97352 2.8505 0
M  V30 7112 C 719.063 -1.53466 4.00932 0
M  V30 7113 C 718.296 -2.68682 4.61135 0
M  V30 7114 O 718.519 -3.85694 4.20234 0
M  V30 7115 O 717.453 -2.42442 5.50913 0
M  V30 7116 H 721.279 -0.238363 3.02763 0
M  V30 7117 H 718.864 -0.0516331 1.49311 0
M  V30 7118 H 720.746 -2.68096 3.25119 0
M  V30 7119 H 719.421 -2.48779 2.07101 0
M  V30 7120 H 718.328 -0.796551 3.65521 0
M  V30 7121 H 719.661 -1.06724 4.8049 0
M  V30 7122 N 721.313 -1.57302 -0.09688 0
M  V30 7123 C 722.276 -2.00976 -1.10188 0
M  V30 7124 C 723.276 -0.903009 -1.3305 0
M  V30 7125 O 724.466 -1.16853 -1.29194 0
M  V30 7126 C 721.598 -2.36893 -2.45142 0
M  V30 7127 H 722.791 -2.9098 -0.726003 0
M  V30 7128 H 720.344 -1.52515 -0.341872 0
M  V30 7129 H 721.079 -1.49837 -2.8761 0
M  V30 7130 H 720.864 -3.17632 -2.29897 0
M  V30 7131 H 722.354 -2.71345 -3.1743 0
M  V30 7132 N 722.791 0.367657 -1.53252 0
M  V30 7133 C 724.068 1.12606 -1.59935 0
M  V30 7134 C 724.448 2.07167 -0.405606 0
M  V30 7135 O 723.796 2.20364 0.604323 0
M  V30 7136 C 724.006 1.86699 -2.94863 0
M  V30 7137 C 725.354 2.41306 -3.49366 0
M  V30 7138 O 726.378 1.96828 -2.96879 0
M  V30 7139 O 725.237 3.2261 -4.41118 0
M  V30 7140 H 722.331 0.516438 -0.645926 0
M  V30 7141 H 724.877 0.371088 -1.65593 0
M  V30 7142 H 723.649 1.17674 -3.73187 0
M  V30 7143 H 723.272 2.6911 -2.92687 0
M  V30 7144 N 724.269 1.44576 0.627338 0
M  V30 7145 C 725.517 1.47267 1.38408 0
M  V30 7146 C 725.838 0.107971 1.94701 0
M  V30 7147 O 725.108 -0.860206 1.76004 0
M  V30 7148 H 723.688 0.542276 0.513756 0
M  V30 7149 H 726.35 1.80383 0.738099 0
M  V30 7150 H 725.446 2.20025 2.21349 0
M  V30 7151 N 725.747 -0.868086 1.31537 0
M  V30 7152 C 726.995 -1.61807 1.21091 0
M  V30 7153 C 727.316 -1.93631 -0.230623 0
M  V30 7154 O 726.586 -1.5846 -1.15183 0
M  V30 7155 H 725.166 -0.599854 0.445178 0
M  V30 7156 H 727.828 -1.03915 1.64887 0
M  V30 7157 H 726.924 -2.56088 1.78396 0
M  V30 7158 N 727.225 -1.14528 -1.08264 0
M  V30 7159 C 728.453 -0.937964 -1.84418 0
M  V30 7160 C 728.868 0.51357 -1.81681 0
M  V30 7161 O 728.225 1.35591 -1.22153 0
M  V30 7162 C 728.276 -1.43272 -3.31897 0
M  V30 7163 O 727.997 -2.82738 -3.34651 0
M  V30 7164 C 729.498 -1.26555 -4.24851 0
M  V30 7165 H 726.718 -0.333704 -0.582136 0
M  V30 7166 H 729.262 -1.52076 -1.36723 0
M  V30 7167 H 727.417 -0.892653 -3.76975 0
M  V30 7168 H 727.831 -3.04971 -4.26724 0
M  V30 7169 H 729.305 -1.66031 -5.26439 0
M  V30 7170 H 729.782 -0.208589 -4.38704 0
M  V30 7171 H 730.388 -1.79423 -3.856 0
M  V30 7172 N 728.703 1.26451 -0.940633 0
M  V30 7173 C 729.633 2.28773 -0.467479 0
M  V30 7174 C 730.614 1.63218 0.478955 0
M  V30 7175 O 731.799 1.90427 0.380929 0
M  V30 7176 C 728.929 3.46259 0.268656 0
M  V30 7177 C 727.883 4.23898 -0.591171 0
M  V30 7178 C 727.209 5.33993 0.274891 0
M  V30 7179 C 728.509 4.87974 -1.86223 0
M  V30 7180 H 730.203 2.68601 -1.32265 0
M  V30 7181 H 727.749 1.29123 -0.637436 0
M  V30 7182 H 729.702 4.16951 0.610696 0
M  V30 7183 H 728.426 3.05383 1.15796 0
M  V30 7184 H 727.085 3.54969 -0.916098 0
M  V30 7185 H 726.733 4.89358 1.16353 0
M  V30 7186 H 726.433 5.86849 -0.297006 0
M  V30 7187 H 727.957 6.07523 0.612213 0
M  V30 7188 H 729.371 5.50883 -1.58747 0
M  V30 7189 H 727.768 5.50945 -2.37866 0
M  V30 7190 H 728.838 4.10945 -2.57394 0
M  V30 7191 N 730.181 0.707592 1.40822 0
M  V30 7192 C 731.458 0.171172 1.9485 0
M  V30 7193 C 731.838 -1.32143 1.64625 0
M  V30 7194 O 731.186 -2.07372 0.959647 0
M  V30 7195 C 731.396 0.475334 3.45748 0
M  V30 7196 C 732.744 0.409625 4.22619 0
M  V30 7197 O 733.768 0.410934 3.53822 0
M  V30 7198 O 732.627 0.380185 5.45176 0
M  V30 7199 H 729.721 0.022015 0.826707 0
M  V30 7200 H 732.267 0.784577 1.50474 0
M  V30 7201 H 731.039 1.50801 3.61075 0
M  V30 7202 H 730.662 -0.168439 3.97243 0
M  V30 7203 N 731.66 -1.50943 0.453197 0
M  V30 7204 C 732.908 -2.01813 -0.107709 0
M  V30 7205 C 733.229 -1.33841 -1.41816 0
M  V30 7206 O 732.499 -0.477973 -1.8998 0
M  V30 7207 H 731.079 -0.745773 -0.0427948 0
M  V30 7208 H 733.741 -1.8545 0.599531 0
M  V30 7209 H 732.837 -3.10911 -0.27218 0
M  V30 7210 N 733.138 -0.185124 -1.56509 0
M  V30 7211 C 734.086 0.756505 -2.19954 0
M  V30 7212 C 735.08 1.22725 -1.16769 0
M  V30 7213 O 736.286 1.1913 -1.34937 0
M  V30 7214 H 732.661 0.262279 -0.704779 0
M  V30 7215 H 734.632 0.197587 -2.97745 0
M  V30 7216 C 733.381 1.96975 -2.86524 0
M  V30 7217 H 732.704 1.61658 -3.65659 0
M  V30 7218 H 734.144 2.60719 -3.34367 0
M  V30 7219 C 732.603 2.80219 -1.87027 0
M  V30 7220 O 733.133 3.77821 -1.36433 0
M  V30 7221 N 731.339 2.4551 -1.55477 0
M  V30 7222 H 730.886 1.66199 -1.96813 0
M  V30 7223 H 730.844 3.01493 -0.891597 0
M  V30 7224 N 734.616 1.57351 0.0885366 0
M  V30 7225 C 735.579 2.01557 1.09121 0
M  V30 7226 C 736.579 0.910052 1.3257 0
M  V30 7227 O 737.769 1.17537 1.28572 0
M  V30 7228 C 734.901 2.38189 2.43883 0
M  V30 7229 H 736.094 2.91361 0.710562 0
M  V30 7230 H 733.647 1.52694 0.333779 0
M  V30 7231 H 734.382 1.5136 2.86811 0
M  V30 7232 H 734.167 3.18846 2.28209 0
M  V30 7233 H 735.657 2.73025 3.15986 0
M  V30 7234 N 736.094 -0.359525 1.53444 0
M  V30 7235 C 737.319 -1.12644 1.74144 0
M  V30 7236 C 737.744 -1.82082 0.472007 0
M  V30 7237 O 737.102 -1.71962 -0.57436 0
M  V30 7238 C 737.15 -2.12781 2.9113 0
M  V30 7239 O 736.254 -3.19984 2.60162 0
M  V30 7240 H 735.595 -0.326553 0.578152 0
M  V30 7241 H 738.125 -0.414798 2.00351 0
M  V30 7242 H 738.135 -2.56278 3.17467 0
M  V30 7243 H 736.81 -1.61634 3.83207 0
M  V30 7244 H 735.387 -2.81417 2.44661 0
M  V30 7245 N 737.572 -1.44907 -0.619662 0
M  V30 7246 C 738.482 -1.55168 -1.75955 0
M  V30 7247 C 739.498 -0.43672 -1.6843 0
M  V30 7248 O 740.674 -0.695704 -1.89002 0
M  V30 7249 C 737.739 -1.50397 -3.12381 0
M  V30 7250 C 736.8 -2.72835 -3.31451 0
M  V30 7251 C 736.033 -2.68283 -4.61368 0
M  V30 7252 O 736.256 -1.74929 -5.42914 0
M  V30 7253 O 735.19 -3.59308 -4.82889 0
M  V30 7254 H 739.016 -2.51493 -1.7025 0
M  V30 7255 H 736.601 -1.27282 -0.782289 0
M  V30 7256 H 738.483 -1.50301 -3.93685 0
M  V30 7257 H 737.158 -0.572197 -3.18603 0
M  V30 7258 H 736.065 -2.78496 -2.49781 0
M  V30 7259 H 737.398 -3.65098 -3.30098 0
M  V30 7260 N 739.05 0.861098 -1.31996 0
M  V30 7261 C 739.982 1.97551 -1.16216 0
M  V30 7262 C 740.995 1.625 -0.0988527 0
M  V30 7263 O 742.184 1.75091 -0.3472 0
M  V30 7264 C 739.284 3.30376 -0.755307 0
M  V30 7265 C 738.457 3.93711 -1.90552 0
M  V30 7266 C 737.516 5.04862 -1.48328 0
M  V30 7267 O 736.542 5.25204 -2.19431 0
M  V30 7268 N 737.744 5.79283 -0.375656 0
M  V30 7269 H 740.509 2.11632 -2.12208 0
M  V30 7270 H 738.07 1.03559 -1.24448 0
M  V30 7271 H 740.062 4.0213 -0.455364 0
M  V30 7272 H 738.632 3.12395 0.113269 0
M  V30 7273 H 737.852 3.14825 -2.37231 0
M  V30 7274 H 739.14 4.32762 -2.67571 0
M  V30 7275 H 738.538 5.65286 0.216284 0
M  V30 7276 H 737.095 6.5166 -0.135289 0
M  V30 7277 N 740.528 1.15101 1.07655 0
M  V30 7278 C 741.438 0.858869 2.18313 0
M  V30 7279 C 742.454 -0.163641 1.73229 0
M  V30 7280 O 743.63 0.00969541 2.01398 0
M  V30 7281 C 740.695 0.34893 3.4494 0
M  V30 7282 C 739.756 1.43495 4.04608 0
M  V30 7283 C 738.989 0.949253 5.2519 0
M  V30 7284 O 739.212 -0.20636 5.70027 0
M  V30 7285 O 738.146 1.73161 5.76454 0
M  V30 7286 H 741.972 1.78386 2.45788 0
M  V30 7287 H 739.557 0.929876 1.16934 0
M  V30 7288 H 741.439 0.070851 4.2134 0
M  V30 7289 H 740.114 -0.548237 3.19024 0
M  V30 7290 H 739.021 1.7666 3.29761 0
M  V30 7291 H 740.354 2.30692 4.3479 0
M  V30 7292 N 742.006 -1.2595 0.947325 0
M  V30 7293 C 743.252 -1.9375 0.599064 0
M  V30 7294 C 743.585 -1.74088 -0.860632 0
M  V30 7295 O 742.86 -1.08158 -1.61654 0
M  V30 7296 C 743.143 -3.47353 0.949634 0
M  V30 7297 C 742.996 -3.76273 2.46452 0
M  V30 7298 C 744.315 -4.37589 0.469442 0
M  V30 7299 H 741.434 -0.703674 0.219115 0
M  V30 7300 H 744.076 -1.48705 1.18266 0
M  V30 7301 H 742.226 -3.8585 0.453008 0
M  V30 7302 H 743.898 -3.47455 3.03435 0
M  V30 7303 H 742.141 -3.22135 2.90537 0
M  V30 7304 H 742.812 -4.83664 2.66032 0
M  V30 7305 H 745.288 -4.06353 0.89534 0
M  V30 7306 H 744.164 -5.43841 0.7435 0
M  V30 7307 H 744.425 -4.37579 -0.630618 0
M  V30 7308 N 743.484 -0.715051 -1.40445 0
M  V30 7309 C 744.431 -0.0621393 -2.30716 0
M  V30 7310 C 745.401 0.750871 -1.48159 0
M  V30 7311 O 746.586 0.714928 -1.76899 0
M  V30 7312 C 743.726 0.854036 -3.34365 0
M  V30 7313 C 742.839 0.0305565 -4.31989 0
M  V30 7314 C 741.974 0.946162 -5.22706 0
M  V30 7315 C 741.013 0.116741 -6.11989 0
M  V30 7316 N 740.15 0.987194 -6.95125 0
M  V30 7317 H 744.99 -0.83764 -2.85985 0
M  V30 7318 H 742.527 -0.424759 -1.40834 0
M  V30 7319 H 744.485 1.39946 -3.93028 0
M  V30 7320 H 743.115 1.59572 -2.806 0
M  V30 7321 H 742.167 -0.632044 -3.75112 0
M  V30 7322 H 743.479 -0.611615 -4.95036 0
M  V30 7323 H 742.633 1.56014 -5.86297 0
M  V30 7324 H 741.372 1.62216 -4.59932 0
M  V30 7325 H 740.377 -0.510176 -5.47428 0
M  V30 7326 H 741.602 -0.555742 -6.76822 0
M  V30 7327 H 739.548 1.64885 -6.3494 0
M  V30 7328 H 739.465 0.401046 -7.54936 0
M  V30 7329 H 740.733 1.58737 -7.63166 0
M  V30 7330 N 744.962 1.50701 -0.461195 0
M  V30 7331 C 745.925 2.2686 0.326679 0
M  V30 7332 C 746.925 1.31243 0.929085 0
M  V30 7333 O 748.115 1.54754 0.799807 0
M  V30 7334 C 745.247 3.07844 1.46441 0
M  V30 7335 H 746.44 2.97954 -0.341095 0
M  V30 7336 H 743.993 1.54814 -0.214984 0
M  V30 7337 H 744.728 2.41223 2.16753 0
M  V30 7338 H 744.513 3.78101 1.03836 0
M  V30 7339 H 746.003 3.65469 2.02044 0
M  V30 7340 N 746.441 0.193421 1.56409 0
M  V30 7341 C 747.689 -0.444908 1.97142 0
M  V30 7342 C 748.01 -1.62268 1.08139 0
M  V30 7343 O 747.28 -1.95307 0.152326 0
M  V30 7344 H 745.86 -0.16736 0.728011 0
M  V30 7345 H 748.522 0.279763 1.92882 0
M  V30 7346 H 747.618 -0.790159 3.01932 0
M  V30 7347 N 747.919 -1.57396 -0.0801906 0
M  V30 7348 C 749.196 -1.77883 -0.813451 0
M  V30 7349 C 749.576 -0.778879 -1.96206 0
M  V30 7350 O 748.924 0.189683 -2.27711 0
M  V30 7351 C 749.134 -3.24116 -1.2942 0
M  V30 7352 C 750.482 -3.87714 -1.73098 0
M  V30 7353 O 751.506 -3.27956 -1.39007 0
M  V30 7354 O 750.365 -4.92828 -2.36184 0
M  V30 7355 H 747.459 -0.729727 -0.389138 0
M  V30 7356 H 750.005 -1.69591 -0.0609166 0
M  V30 7357 H 748.777 -3.88443 -0.471947 0
M  V30 7358 H 748.4 -3.371 -2.1083 0
M  V30 7359 N 749.397 0.351382 -1.53633 0
M  V30 7360 C 750.344 1.43115 -1.81071 0
M  V30 7361 C 751.314 1.52601 -0.655913 0
M  V30 7362 O 752.499 1.68264 -0.89955 0
M  V30 7363 C 749.639 2.79874 -2.01903 0
M  V30 7364 C 748.752 2.79242 -3.29618 0
M  V30 7365 C 747.887 4.07667 -3.40559 0
M  V30 7366 C 746.926 4.01233 -4.62254 0
M  V30 7367 N 746.063 5.21334 -4.70271 0
M  V30 7368 H 750.903 1.19017 -2.73201 0
M  V30 7369 H 748.44 0.576691 -1.35324 0
M  V30 7370 H 750.398 3.5934 -2.11969 0
M  V30 7371 H 749.028 3.0234 -1.13094 0
M  V30 7372 H 748.08 1.91927 -3.28433 0
M  V30 7373 H 749.392 2.70363 -4.19172 0
M  V30 7374 H 748.546 4.95555 -3.50015 0
M  V30 7375 H 747.285 4.19317 -2.49047 0
M  V30 7376 H 746.29 3.11732 -4.52884 0
M  V30 7377 H 747.515 3.91173 -5.55122 0
M  V30 7378 H 745.461 5.33543 -3.81665 0
M  V30 7379 H 745.378 5.14681 -5.5375 0
M  V30 7380 H 746.646 6.11014 -4.84027 0
M  V30 7381 N 750.875 1.45233 0.611969 0
M  V30 7382 C 752.121 1.49242 1.37312 0
M  V30 7383 C 752.454 0.131963 1.93751 0
M  V30 7384 O 751.729 -0.852999 1.74798 0
M  V30 7385 C 752.012 2.56811 2.52428 0
M  V30 7386 C 751.865 4.02284 2.01215 0
M  V30 7387 C 753.184 2.60705 3.54572 0
M  V30 7388 H 750.303 0.54336 0.497925 0
M  V30 7389 H 752.945 1.77019 0.690242 0
M  V30 7390 H 751.095 2.33256 3.10683 0
M  V30 7391 H 752.767 4.37035 1.47643 0
M  V30 7392 H 751.01 4.1315 1.32248 0
M  V30 7393 H 751.681 4.7323 2.84178 0
M  V30 7394 H 754.157 2.81799 3.06151 0
M  V30 7395 H 753.033 3.37841 4.32614 0
M  V30 7396 H 753.294 1.65627 4.09903 0
M  V30 7397 N 752.353 -0.854086 1.3245 0
M  V30 7398 C 753.581 -1.64074 1.26045 0
M  V30 7399 C 753.996 -1.8802 -0.171456 0
M  V30 7400 O 753.353 -1.4496 -1.10873 0
M  V30 7401 C 753.404 -2.9997 2.01743 0
M  V30 7402 O 753.125 -2.77084 3.39346 0
M  V30 7403 C 754.626 -3.94414 2.02368 0
M  V30 7404 H 751.846 -0.511015 0.434862 0
M  V30 7405 H 754.39 -1.06494 1.74583 0
M  V30 7406 H 752.545 -3.54193 1.56926 0
M  V30 7407 H 752.959 -3.63514 3.78098 0
M  V30 7408 H 754.433 -4.87032 2.59815 0
M  V30 7409 H 754.91 -4.27427 1.01009 0
M  V30 7410 H 755.516 -3.46127 2.47135 0
M  V30 7411 N 753.831 -1.1567 -1.07043 0
M  V30 7412 C 755.078 -0.933517 -1.79699 0
M  V30 7413 C 755.406 0.539162 -1.86878 0
M  V30 7414 O 754.661 1.41592 -1.35093 0
M  V30 7415 C 754.96 -1.49677 -3.24548 0
M  V30 7416 C 754.626 -2.99047 -3.37463 0
M  V30 7417 C 753.288 -3.39824 -3.40695 0
M  V30 7418 C 755.64 -3.95027 -3.40004 0
M  V30 7419 C 752.968 -4.75215 -3.44075 0
M  V30 7420 C 755.32 -5.30295 -3.44921 0
M  V30 7421 C 753.984 -5.70562 -3.46432 0
M  V30 7422 H 753.254 -0.341598 -0.657565 0
M  V30 7423 H 755.901 -1.44263 -1.25938 0
M  V30 7424 H 754.206 -0.908915 -3.81111 0
M  V30 7425 H 755.903 -1.29986 -3.79348 0
M  V30 7426 H 752.493 -2.6653 -3.35648 0
M  V30 7427 H 756.677 -3.64596 -3.36725 0
M  V30 7428 H 751.933 -5.05754 -3.43545 0
M  V30 7429 H 756.107 -6.0446 -3.45833 0
M  V30 7430 H 753.734 -6.75456 -3.48803 0
M  V30 7431 N 755.309 1.25446 -0.953992 0
M  V30 7432 C 756.256 2.25912 -0.472485 0
M  V30 7433 C 757.226 1.59173 0.47469 0
M  V30 7434 O 758.411 1.86812 0.388082 0
M  V30 7435 C 755.551 3.44235 0.244218 0
M  V30 7436 C 754.664 4.25613 -0.740121 0
M  V30 7437 C 753.799 5.312 -0.000922267 0
M  V30 7438 C 752.838 6.04265 -0.976236 0
M  V30 7439 N 751.975 7.01589 -0.267952 0
M  V30 7440 H 756.815 2.66469 -1.3341 0
M  V30 7441 H 754.352 1.31005 -0.669045 0
M  V30 7442 H 756.31 4.11682 0.676314 0
M  V30 7443 H 754.94 3.04554 1.06988 0
M  V30 7444 H 753.992 3.57834 -1.2907 0
M  V30 7445 H 755.304 4.762 -1.48441 0
M  V30 7446 H 754.458 6.04719 0.48984 0
M  V30 7447 H 753.197 4.81484 0.776159 0
M  V30 7448 H 752.202 5.29561 -1.478 0
M  V30 7449 H 753.427 6.5607 -1.75354 0
M  V30 7450 H 751.373 6.54164 0.490403 0
M  V30 7451 H 751.29 7.4999 -0.951344 0
M  V30 7452 H 752.558 7.7924 0.201294 0
M  V30 7453 N 756.787 0.722489 1.40064 0
M  V30 7454 C 757.75 0.0830209 2.2905 0
M  V30 7455 C 758.75 -0.680208 1.45705 0
M  V30 7456 O 759.94 -0.511084 1.66534 0
M  V30 7457 C 757.072 -0.892092 3.29021 0
M  V30 7458 H 758.265 0.866848 2.87099 0
M  V30 7459 H 755.818 0.487556 1.48501 0
M  V30 7460 H 756.553 -1.70273 2.76003 0
M  V30 7461 H 756.338 -0.34761 3.90556 0
M  V30 7462 H 757.828 -1.33648 3.95636 0
M  V30 7463 N 758.265 -1.50454 0.469181 0
M  V30 7464 C 759.513 -2.01916 -0.0862982 0
M  V30 7465 C 759.834 -1.35337 -1.40388 0
M  V30 7466 O 759.104 -0.498096 -1.89462 0
M  V30 7467 H 757.684 -0.746185 -0.0348825 0
M  V30 7468 H 760.346 -1.84804 0.619167 0
M  V30 7469 H 759.442 -3.11182 -0.239189 0
M  V30 7470 N 759.743 -0.201713 -1.56304 0
M  V30 7471 C 760.69 0.716499 -2.19397 0
M  V30 7472 C 761.66 1.20494 -1.14326 0
M  V30 7473 O 762.845 1.26763 -1.42604 0
M  V30 7474 C 759.985 1.92762 -2.86246 0
M  V30 7475 C 759.098 1.47993 -4.0586 0
M  V30 7476 C 758.233 2.64706 -4.60547 0
M  V30 7477 C 757.272 2.16576 -5.72504 0
M  V30 7478 N 756.409 3.26491 -6.21569 0
M  V30 7479 H 761.249 0.171724 -2.97505 0
M  V30 7480 H 758.786 0.073016 -1.46919 0
M  V30 7481 H 760.744 2.6384 -3.23178 0
M  V30 7482 H 759.374 2.44559 -2.10691 0
M  V30 7483 H 758.426 0.66477 -3.74546 0
M  V30 7484 H 759.738 1.08686 -4.86815 0
M  V30 7485 H 758.892 3.43898 -4.99819 0
M  V30 7486 H 757.631 3.0729 -3.78713 0
M  V30 7487 H 756.636 1.3584 -5.32755 0
M  V30 7488 H 757.861 1.75015 -6.56161 0
M  V30 7489 H 755.807 3.68594 -5.42655 0
M  V30 7490 H 755.724 2.91374 -6.97594 0
M  V30 7491 H 756.992 4.05877 -6.65495 0
M  V30 7492 N 761.222 1.57436 0.0718424 0
M  V30 7493 C 762.17 2.04725 1.10411 0
M  V30 7494 C 763.164 0.952579 1.4008 0
M  V30 7495 O 764.37 1.13769 1.39487 0
M  V30 7496 H 760.745 0.652749 0.373393 0
M  V30 7497 H 762.716 2.90569 0.679126 0
M  V30 7498 C 761.465 2.5068 2.40946 0
M  V30 7499 H 760.788 3.34505 2.18967 0
M  V30 7500 H 762.228 2.87521 3.11621 0
M  V30 7501 C 760.687 1.38971 3.06902 0
M  V30 7502 O 761.217 0.731786 3.94978 0
M  V30 7503 N 759.423 1.13485 2.67525 0
M  V30 7504 H 758.97 1.67168 1.95991 0
M  V30 7505 H 758.928 0.389467 3.11978 0
M  V30 7506 N 762.7 -0.34323 1.53817 0
M  V30 7507 C 763.63 -1.42709 1.84814 0
M  V30 7508 C 764.611 -1.5488 0.703297 0
M  V30 7509 O 765.796 -1.69082 0.955237 0
M  V30 7510 C 762.926 -2.79756 2.05801 0
M  V30 7511 C 761.88 -2.82392 3.21619 0
M  V30 7512 C 761.206 -4.22326 3.2794 0
M  V30 7513 C 762.506 -2.479 4.59721 0
M  V30 7514 H 764.2 -1.17018 2.75585 0
M  V30 7515 H 761.746 -0.561485 1.32602 0
M  V30 7516 H 763.699 -3.55627 2.26069 0
M  V30 7517 H 762.423 -3.06883 1.11761 0
M  V30 7518 H 761.082 -2.08974 3.01207 0
M  V30 7519 H 760.73 -4.46564 2.31494 0
M  V30 7520 H 760.43 -4.25001 4.05768 0
M  V30 7521 H 761.954 -5.00039 3.50419 0
M  V30 7522 H 763.368 -3.13484 4.80001 0
M  V30 7523 H 761.765 -2.61857 5.39954 0
M  V30 7524 H 762.835 -1.43087 4.63308 0
M  V30 7525 N 764.178 -1.45556 -0.604258 0
M  V30 7526 C 765.125 -1.54482 -1.71476 0
M  V30 7527 C 766.095 -0.390479 -1.61445 0
M  V30 7528 O 767.28 -0.604371 -1.80975 0
M  V30 7529 C 764.42 -1.52064 -3.09791 0
M  V30 7530 C 763.533 -2.78073 -3.30604 0
M  V30 7531 C 762.668 -2.67304 -4.59044 0
M  V30 7532 C 761.707 -3.88352 -4.73127 0
M  V30 7533 N 760.844 -3.76098 -5.9287 0
M  V30 7534 H 765.684 -2.49349 -1.63184 0
M  V30 7535 H 763.221 -1.23725 -0.795641 0
M  V30 7536 H 765.179 -1.48649 -3.89819 0
M  V30 7537 H 763.809 -0.607442 -3.17033 0
M  V30 7538 H 762.861 -2.91561 -2.44329 0
M  V30 7539 H 764.173 -3.67847 -3.36883 0
M  V30 7540 H 763.327 -2.61875 -5.47272 0
M  V30 7541 H 762.066 -1.75135 -4.55169 0
M  V30 7542 H 761.071 -3.94137 -3.83322 0
M  V30 7543 H 762.296 -4.81591 -4.78797 0
M  V30 7544 H 760.242 -2.867 -5.90033 0
M  V30 7545 H 760.159 -4.59509 -6.00323 0
M  V30 7546 H 761.427 -3.74607 -6.83586 0
M  V30 7547 N 765.656 0.84705 -1.32902 0
M  V30 7548 C 766.902 1.60414 -1.24078 0
M  V30 7549 C 767.235 1.93217 0.195105 0
M  V30 7550 O 766.51 1.58001 1.13428 0
M  V30 7551 C 766.793 2.91951 -2.108 0
M  V30 7552 C 766.646 2.6588 -3.62805 0
M  V30 7553 C 767.965 3.93299 -1.97494 0
M  V30 7554 H 765.084 0.58206 -0.452079 0
M  V30 7555 H 767.726 0.977562 -1.62922 0
M  V30 7556 H 765.876 3.45425 -1.77802 0
M  V30 7557 H 767.548 2.18902 -4.06054 0
M  V30 7558 H 765.791 1.99716 -3.85092 0
M  V30 7559 H 766.462 3.59574 -4.1882 0
M  V30 7560 H 768.938 3.49105 -2.26417 0
M  V30 7561 H 767.814 4.8318 -2.60438 0
M  V30 7562 H 768.075 4.31887 -0.944782 0
M  V30 7563 N 767.134 1.16236 1.06428 0
M  V30 7564 C 768.081 0.86769 2.13869 0
M  V30 7565 C 769.051 -0.183298 1.65086 0
M  V30 7566 O 770.236 -0.0488002 1.90738 0
M  V30 7567 C 767.376 0.373427 3.43074 0
M  V30 7568 C 766.489 1.48708 4.05598 0
M  V30 7569 C 765.624 0.947977 5.22673 0
M  V30 7570 C 764.663 2.03793 5.77178 0
M  V30 7571 N 763.8 1.51451 6.85571 0
M  V30 7572 H 768.64 1.78781 2.38414 0
M  V30 7573 H 766.177 0.891892 1.16977 0
M  V30 7574 H 768.135 0.0685035 4.17144 0
M  V30 7575 H 766.765 -0.509752 3.1875 0
M  V30 7576 H 765.817 1.908 3.29089 0
M  V30 7577 H 767.129 2.30964 4.42105 0
M  V30 7578 H 766.283 0.596154 6.03764 0
M  V30 7579 H 765.022 0.0947081 4.87608 0
M  V30 7580 H 764.027 2.39847 4.94726 0
M  V30 7581 H 765.252 2.89514 6.14295 0
M  V30 7582 H 763.198 0.683755 6.52427 0
M  V30 7583 H 763.115 2.27325 7.21013 0
M  V30 7584 H 764.383 1.19123 7.70344 0
M  V30 7585 N 768.612 -1.24939 0.960631 0
M  V30 7586 C 769.544 -2.24879 0.442937 0
M  V30 7587 C 770.557 -1.56615 -0.444464 0
M  V30 7588 O 771.746 -1.76715 -0.251776 0
M  V30 7589 C 768.846 -3.36757 -0.380537 0
M  V30 7590 C 768.019 -4.34587 0.495283 0
M  V30 7591 C 767.078 -5.25502 -0.270995 0
M  V30 7592 O 766.104 -5.68227 0.332661 0
M  V30 7593 N 767.306 -5.59077 -1.56249 0
M  V30 7594 H 770.071 -2.69932 1.30218 0
M  V30 7595 H 767.632 -1.38907 0.83166 0
M  V30 7596 H 769.624 -3.94542 -0.90103 0
M  V30 7597 H 768.194 -2.91045 -1.14067 0
M  V30 7598 H 767.414 -3.75593 1.19682 0
M  V30 7599 H 768.702 -4.96925 1.09285 0
M  V30 7600 H 768.1 -5.2628 -2.07476 0
M  V30 7601 H 766.657 -6.19421 -2.02882 0
M  V30 7602 N 770.09 -0.729906 -1.39679 0
M  V30 7603 C 771 -0.0880322 -2.34435 0
M  V30 7604 C 772.016 0.727674 -1.58053 0
M  V30 7605 O 773.192 0.657321 -1.90371 0
M  V30 7606 C 770.257 0.812211 -3.37052 0
M  V30 7607 C 769.318 -0.0151681 -4.29297 0
M  V30 7608 C 768.551 0.842202 -5.27013 0
M  V30 7609 O 768.774 2.08108 -5.31081 0
M  V30 7610 O 767.708 0.27357 -6.01278 0
M  V30 7611 H 771.534 -0.869989 -2.90972 0
M  V30 7612 H 769.119 -0.490522 -1.41118 0
M  V30 7613 H 771.001 1.32745 -3.99946 0
M  V30 7614 H 769.676 1.57307 -2.82907 0
M  V30 7615 H 768.583 -0.575811 -3.69642 0
M  V30 7616 H 769.916 -0.738129 -4.86634 0
M  V30 7617 N 771.568 1.50203 -0.477153 0
M  V30 7618 C 772.816 2.01959 0.0755889 0
M  V30 7619 C 773.137 1.3608 1.39668 0
M  V30 7620 O 772.407 0.508136 1.89195 0
M  V30 7621 H 770.987 0.74636 0.0309248 0
M  V30 7622 H 773.649 1.84473 -0.628959 0
M  V30 7623 H 772.745 3.11305 0.222683 0
M  V30 7624 N 773.046 0.209999 1.56195 0
M  V30 7625 C 774.009 -0.691232 2.18528 0
M  V30 7626 C 775.009 -1.13013 1.14388 0
M  V30 7627 O 776.199 -1.04081 1.39688 0
M  V30 7628 C 773.331 -1.94551 2.79934 0
M  V30 7629 H 774.524 -0.147953 2.99535 0
M  V30 7630 H 772.077 -0.0396243 1.5625 0
M  V30 7631 H 772.812 -2.53094 2.02766 0
M  V30 7632 H 772.597 -1.63938 3.56184 0
M  V30 7633 H 774.087 -2.58785 3.2775 0
M  V30 7634 N 774.524 -1.57472 -0.0634922 0
M  V30 7635 C 775.472 -2.05307 -1.09323 0
M  V30 7636 C 776.466 -0.959995 -1.39572 0
M  V30 7637 O 777.672 -1.14507 -1.38882 0
M  V30 7638 H 774.047 -0.65472 -0.369927 0
M  V30 7639 H 776.018 -2.90925 -0.663707 0
M  V30 7640 C 774.767 -2.51954 -2.39613 0
M  V30 7641 H 774.09 -3.35662 -2.1719 0
M  V30 7642 H 775.53 -2.89169 -3.10092 0
M  V30 7643 C 773.989 -1.40596 -3.06161 0
M  V30 7644 O 774.519 -0.752722 -3.94585 0
M  V30 7645 N 772.725 -1.14902 -2.66919 0
M  V30 7646 H 772.272 -1.68205 -1.95102 0
M  V30 7647 H 772.23 -0.406006 -3.11767 0
M  V30 7648 N 776.003 0.335068 -1.53997 0
M  V30 7649 C 777.25 1.07435 -1.71651 0
M  V30 7650 C 777.578 1.88378 -0.48413 0
M  V30 7651 O 776.833 1.8827 0.534139 0
M  V30 7652 C 777.132 2.0364 -2.9371 0
M  V30 7653 C 776.798 1.38942 -4.28959 0
M  V30 7654 C 775.46 1.21027 -4.65732 0
M  V30 7655 C 777.812 0.924083 -5.12943 0
M  V30 7656 C 775.14 0.552097 -5.84097 0
M  V30 7657 C 777.492 0.27978 -6.31981 0
M  V30 7658 C 776.156 0.0883843 -6.67441 0
M  V30 7659 H 775.426 0.393133 -0.628114 0
M  V30 7660 H 778.073 0.352712 -1.88224 0
M  V30 7661 H 776.378 2.82215 -2.71775 0
M  V30 7662 H 778.075 2.6085 -3.04562 0
M  V30 7663 H 774.665 1.53885 -4.00022 0
M  V30 7664 H 778.849 1.05032 -4.85059 0
M  V30 7665 H 774.105 0.392502 -6.10139 0
M  V30 7666 H 778.279 -0.0888479 -6.96343 0
M  V30 7667 H 775.906 -0.423657 -7.59019 0
M  V30 7668 N 777.481 1.45874 0.596531 0
M  V30 7669 C 778.709 1.54013 1.38158 0
M  V30 7670 C 779.124 0.17648 1.87973 0
M  V30 7671 O 778.481 -0.823895 1.62844 0
M  V30 7672 C 778.532 2.53363 2.57855 0
M  V30 7673 O 778.253 3.8443 2.10108 0
M  V30 7674 C 779.754 2.71308 3.50581 0
M  V30 7675 H 776.974 0.521251 0.422538 0
M  V30 7676 H 779.518 1.9116 0.726493 0
M  V30 7677 H 777.673 2.19257 3.19382 0
M  V30 7678 H 778.087 4.38384 2.87958 0
M  V30 7679 H 779.561 3.44776 4.31084 0
M  V30 7680 H 780.038 1.77728 4.01633 0
M  V30 7681 H 780.644 3.06455 2.94899 0
M  V30 7682 N 778.959 -0.83999 1.33349 0
M  V30 7683 C 780.189 -1.62492 1.27593 0
M  V30 7684 C 780.597 -1.88559 -0.155597 0
M  V30 7685 O 779.94 -1.46537 -1.10782 0
M  V30 7686 C 780.002 -2.99984 1.98116 0
M  V30 7687 C 779.666 -2.96892 3.47425 0
M  V30 7688 C 780.663 -2.72688 4.42648 0
M  V30 7689 C 778.348 -3.17063 3.89585 0
M  V30 7690 C 780.342 -2.68681 5.78004 0
M  V30 7691 C 778.029 -3.12682 5.25046 0
M  V30 7692 C 779.027 -2.88522 6.19067 0
M  V30 7693 O 778.715 -2.84042 7.52047 0
M  V30 7694 H 778.447 -0.512358 0.440982 0
M  V30 7695 H 781.001 -1.0545 1.76265 0
M  V30 7696 H 779.231 -3.58875 1.44034 0
M  V30 7697 H 780.92 -3.6084 1.85875 0
M  V30 7698 H 781.686 -2.56856 4.114 0
M  V30 7699 H 777.565 -3.34889 3.16813 0
M  V30 7700 H 781.109 -2.49743 6.51363 0
M  V30 7701 H 777.006 -3.28063 5.55918 0
M  V30 7702 H 777.774 -2.99892 7.61582 0
M  V30 7703 N 780.437 -1.16799 -1.0581 0
M  V30 7704 C 781.662 -0.977402 -1.82925 0
M  V30 7705 C 782.087 0.469514 -1.82146 0
M  V30 7706 O 781.445 1.33576 -1.22585 0
M  V30 7707 C 781.493 -1.51543 -3.27211 0
M  V30 7708 O 780.597 -0.725021 -4.05977 0
M  V30 7709 H 779.938 -0.347474 -0.565825 0
M  V30 7710 H 782.468 -1.55151 -1.33376 0
M  V30 7711 H 782.478 -1.53502 -3.78023 0
M  V30 7712 H 781.153 -2.56872 -3.27093 0
M  V30 7713 H 779.73 -0.77634 -3.64729 0
M  V30 7714 N 781.915 1.24427 -0.967243 0
M  V30 7715 C 782.845 2.2773 -0.515899 0
M  V30 7716 C 783.826 1.64197 0.444227 0
M  V30 7717 O 785.011 1.91193 0.340451 0
M  V30 7718 C 782.141 3.46751 0.195149 0
M  V30 7719 C 781.095 4.22548 -0.680953 0
M  V30 7720 C 780.421 5.34456 0.161561 0
M  V30 7721 C 781.721 4.83914 -1.96532 0
M  V30 7722 H 783.415 2.65735 -1.37933 0
M  V30 7723 H 780.961 1.27742 -0.664681 0
M  V30 7724 H 782.914 4.18153 0.522117 0
M  V30 7725 H 781.638 3.07771 1.09292 0
M  V30 7726 H 780.297 3.52946 -0.991186 0
M  V30 7727 H 779.945 4.91716 1.05947 0
M  V30 7728 H 779.645 5.86087 -0.421418 0
M  V30 7729 H 781.169 6.08685 0.483211 0
M  V30 7730 H 782.583 5.47392 -1.70396 0
M  V30 7731 H 780.98 5.45775 -2.49499 0
M  V30 7732 H 782.05 4.05393 -2.66053 0
M  V30 7733 N 783.393 0.737304 1.3929 0
M  V30 7734 C 784.325 0.0592106 2.29124 0
M  V30 7735 C 785.338 -0.701026 1.46934 0
M  V30 7736 O 786.527 -0.544808 1.69983 0
M  V30 7737 C 783.627 -0.940358 3.25592 0
M  V30 7738 C 782.8 -0.241163 4.36735 0
M  V30 7739 C 781.859 -1.14916 5.13498 0
M  V30 7740 O 780.885 -0.625783 5.6575 0
M  V30 7741 N 782.087 -2.47869 5.2492 0
M  V30 7742 H 784.852 0.830647 2.87959 0
M  V30 7743 H 782.413 0.586718 1.50895 0
M  V30 7744 H 784.405 -1.55046 3.73822 0
M  V30 7745 H 782.975 -1.61299 2.67771 0
M  V30 7746 H 782.195 0.549441 3.90352 0
M  V30 7747 H 783.483 0.243299 5.08218 0
M  V30 7748 H 782.881 -2.92864 4.83991 0
M  V30 7749 H 781.438 -3.03969 5.76581 0
M  V30 7750 N 784.871 -1.49948 0.485112 0
M  V30 7751 C 786.148 -1.95186 -0.12726 0
M  V30 7752 C 786.528 -1.42605 -1.5565 0
M  V30 7753 O 785.876 -0.632986 -2.19558 0
M  V30 7754 C 786.086 -3.48955 -0.0562117 0
M  V30 7755 C 787.434 -4.23932 -0.238106 0
M  V30 7756 O 788.458 -3.55955 -0.132145 0
M  V30 7757 O 787.317 -5.44614 -0.453658 0
M  V30 7758 H 784.411 -0.820433 -0.104014 0
M  V30 7759 H 786.957 -1.60659 0.546517 0
M  V30 7760 H 785.729 -3.79814 0.941122 0
M  V30 7761 H 785.352 -3.90056 -0.770834 0
M  V30 7762 N 786.349 -0.21828 -1.56081 0
M  V30 7763 C 787.312 0.679633 -2.18892 0
M  V30 7764 C 788.312 1.12405 -1.14986 0
M  V30 7765 O 789.502 1.03339 -1.40238 0
M  V30 7766 C 786.634 1.93063 -2.80962 0
M  V30 7767 H 787.827 0.132066 -2.99609 0
M  V30 7768 H 785.38 0.0313374 -1.56269 0
M  V30 7769 H 786.115 2.52015 -2.04106 0
M  V30 7770 H 785.9 1.62046 -3.57048 0
M  V30 7771 H 787.39 2.57043 -3.29118 0
M  V30 7772 N 787.827 1.57504 0.0551401 0
M  V30 7773 C 788.757 2.07864 1.06372 0
M  V30 7774 C 789.738 0.975565 1.39344 0
M  V30 7775 O 790.923 1.24929 1.48682 0
M  V30 7776 C 788.053 2.53643 2.3724 0
M  V30 7777 C 787.007 3.67978 2.18578 0
M  V30 7778 C 786.333 3.9987 3.54976 0
M  V30 7779 C 787.633 4.97405 1.59329 0
M  V30 7780 H 789.327 2.92379 0.644595 0
M  V30 7781 H 786.873 1.40654 0.308619 0
M  V30 7782 H 788.826 2.8749 3.08103 0
M  V30 7783 H 787.55 1.66177 2.81163 0
M  V30 7784 H 786.209 3.3444 1.50152 0
M  V30 7785 H 785.857 3.0951 3.965 0
M  V30 7786 H 785.557 4.76867 3.43324 0
M  V30 7787 H 787.081 4.36228 4.27244 0
M  V30 7788 H 788.495 5.29375 2.20078 0
M  V30 7789 H 786.892 5.78837 1.58327 0
M  V30 7790 H 787.962 4.81697 0.55638 0
M  V30 7791 N 789.305 -0.326896 1.54172 0
M  V30 7792 C 790.533 -1.08486 1.76177 0
M  V30 7793 C 790.948 -1.81815 0.508788 0
M  V30 7794 O 790.305 -1.74924 -0.520362 0
M  V30 7795 C 790.356 -2.08552 2.95276 0
M  V30 7796 O 790.077 -1.38202 4.15731 0
M  V30 7797 C 791.578 -2.96593 3.29466 0
M  V30 7798 H 788.798 -0.322835 0.588233 0
M  V30 7799 H 791.342 -0.374036 2.0105 0
M  V30 7800 H 789.497 -2.75174 2.72687 0
M  V30 7801 H 789.911 -2.05186 4.827 0
M  V30 7802 H 791.385 -3.62708 4.16109 0
M  V30 7803 H 791.862 -3.63511 2.46487 0
M  V30 7804 H 792.468 -2.35537 3.54122 0
M  V30 7805 N 790.784 -1.46188 -0.588786 0
M  V30 7806 C 792.032 -1.50885 -1.34455 0
M  V30 7807 C 792.353 -0.159555 -1.94346 0
M  V30 7808 O 791.623 0.813239 -1.78222 0
M  V30 7809 H 790.203 -0.555707 -0.499198 0
M  V30 7810 H 792.865 -1.82277 -0.690014 0
M  V30 7811 H 791.961 -2.25816 -2.15438 0
M  V30 7812 N 792.262 0.832906 -1.33792 0
M  V30 7813 C 793.192 1.95828 -1.27176 0
M  V30 7814 C 794.173 1.69427 -0.15114 0
M  V30 7815 O 795.358 1.91167 -0.341886 0
M  V30 7816 C 792.488 3.32098 -1.01629 0
M  V30 7817 C 791.442 3.72912 -2.10049 0
M  V30 7818 C 790.768 5.07054 -1.69706 0
M  V30 7819 C 792.068 3.86064 -3.51783 0
M  V30 7820 H 793.762 2.01622 -2.21334 0
M  V30 7821 H 791.308 0.96866 -1.0655 0
M  V30 7822 H 793.261 4.10402 -0.956474 0
M  V30 7823 H 791.985 3.26577 -0.0390956 0
M  V30 7824 H 790.644 2.96876 -2.15082 0
M  V30 7825 H 790.292 4.9801 -0.706737 0
M  V30 7826 H 789.992 5.35333 -2.42264 0
M  V30 7827 H 791.516 5.87827 -1.65202 0
M  V30 7828 H 792.93 4.54665 -3.49218 0
M  V30 7829 H 791.327 4.25787 -4.22878 0
M  V30 7830 H 792.397 2.88344 -3.89854 0
M  V30 7831 N 793.74 1.17359 1.05189 0
M  V30 7832 C 794.968 0.986529 1.81866 0
M  V30 7833 C 795.383 -0.46522 1.82979 0
M  V30 7834 O 794.74 -1.32305 1.25705 0
M  V30 7835 C 794.791 1.52021 3.27982 0
M  V30 7836 O 794.512 2.91511 3.27037 0
M  V30 7837 C 796.013 1.37774 4.21347 0
M  V30 7838 H 793.233 0.349021 0.573084 0
M  V30 7839 H 795.777 1.55648 1.32643 0
M  V30 7840 H 793.932 0.992287 3.74476 0
M  V30 7841 H 794.346 3.16178 4.18488 0
M  V30 7842 H 795.82 1.7993 5.21852 0
M  V30 7843 H 796.297 0.32483 4.37997 0
M  V30 7844 H 796.903 1.89583 3.80708 0
M  V30 7845 N 795.218 -1.23913 0.973828 0
M  V30 7846 C 796.443 -1.96735 0.656511 0
M  V30 7847 C 796.868 -1.71682 -0.768571 0
M  V30 7848 O 796.226 -0.984267 -1.52256 0
M  V30 7849 C 796.274 -3.48004 0.944735 0
M  V30 7850 O 795.378 -4.12387 0.0333357 0
M  V30 7851 H 794.719 -0.616119 0.247575 0
M  V30 7852 H 797.249 -1.57525 1.30564 0
M  V30 7853 H 797.259 -3.98424 0.87876 0
M  V30 7854 H 795.934 -3.65567 1.98328 0
M  V30 7855 H 794.511 -3.72585 0.153157 0
M  V30 7856 N 796.696 -0.74468 -1.38897 0
M  V30 7857 C 797.945 -0.293716 -1.9955 0
M  V30 7858 C 798.258 1.12831 -1.59777 0
M  V30 7859 O 799.464 1.67929 -2.13336 0
M  V30 7860 C 797.92 -0.474188 -3.56762 0
M  V30 7861 C 797.528 -1.90472 -4.05493 0
M  V30 7862 C 799.272 -0.0854875 -4.24414 0
M  V30 7863 C 797.179 -2.03423 -5.55314 0
M  V30 7864 H 796.109 -0.106066 -0.746502 0
M  V30 7865 H 798.76 -0.919948 -1.58774 0
M  V30 7866 H 797.142 0.221092 -3.95382 0
M  V30 7867 H 798.316 -2.63274 -3.78184 0
M  V30 7868 H 796.631 -2.24752 -3.50536 0
M  V30 7869 H 799.228 -0.161133 -5.34457 0
M  V30 7870 H 799.571 0.96066 -4.05064 0
M  V30 7871 H 800.104 -0.732286 -3.91002 0
M  V30 7872 H 796.843 -3.0626 -5.79556 0
M  V30 7873 H 796.363 -1.3507 -5.84394 0
M  V30 7874 H 798.042 -1.81996 -6.20876 0
M  V30 7875 N 798.174 1.49689 -0.493057 0
M  V30 7876 C 799.402 2.06836 0.0513141 0
M  V30 7877 C 799.817 1.35436 1.31539 0
M  V30 7878 O 799.174 0.430248 1.77356 0
M  V30 7879 C 799.225 3.60107 0.317003 0
M  V30 7880 O 798.946 4.2882 -0.896957 0
M  V30 7881 C 800.447 4.33945 0.905902 0
M  V30 7882 H 797.667 0.670787 -0.0169048 0
M  V30 7883 H 800.211 1.92574 -0.688139 0
M  V30 7884 H 798.366 3.74099 1.00642 0
M  V30 7885 H 798.78 5.20395 -0.654939 0
M  V30 7886 H 800.254 5.42087 1.04144 0
M  V30 7887 H 800.731 3.95895 1.90168 0
M  V30 7888 H 801.337 4.2454 0.254195 0
M  V30 7889 N 799.652 0.226554 1.55963 0
M  V30 7890 C 800.582 -0.676079 2.23498 0
M  V30 7891 C 801.563 -1.19718 1.20837 0
M  V30 7892 O 802.748 -1.24027 1.49436 0
M  V30 7893 C 799.878 -1.88217 2.91876 0
M  V30 7894 C 798.832 -1.4947 4.01052 0
M  V30 7895 C 798.158 -2.77997 4.56751 0
M  V30 7896 C 799.458 -0.680951 5.17842 0
M  V30 7897 H 801.152 -0.112989 2.99187 0
M  V30 7898 H 798.698 -0.0529046 1.43903 0
M  V30 7899 H 800.651 -2.51911 3.37815 0
M  V30 7900 H 799.375 -2.47031 2.13643 0
M  V30 7901 H 798.034 -0.881199 3.55852 0
M  V30 7902 H 797.682 -3.34966 3.75243 0
M  V30 7903 H 797.382 -2.52803 5.30438 0
M  V30 7904 H 798.906 -3.42625 5.05411 0
M  V30 7905 H 800.32 -1.22171 5.60131 0
M  V30 7906 H 798.717 -0.525898 5.97791 0
M  V30 7907 H 799.787 0.311346 4.83899 0
M  V30 7908 N 801.13 -1.57531 -0.0467866 0
M  V30 7909 C 802.378 -1.88078 -0.739656 0
M  V30 7910 C 802.699 -0.821936 -1.76831 0
M  V30 7911 O 801.969 0.146582 -1.95351 0
M  V30 7912 H 800.549 -0.694075 -0.276169 0
M  V30 7913 H 803.211 -1.94893 -0.0169391 0
M  V30 7914 H 802.307 -2.86396 -1.24031 0
M  V30 7915 N 802.608 0.318715 -1.54344 0
M  V30 7916 C 803.836 1.0755 -1.7675 0
M  V30 7917 C 804.251 1.81543 -0.518422 0
M  V30 7918 O 803.608 1.75198 0.511078 0
M  V30 7919 C 803.659 2.06983 -2.96378 0
M  V30 7920 O 803.38 1.35995 -4.16458 0
M  V30 7921 C 804.881 2.94841 -3.31034 0
M  V30 7922 H 802.101 0.319711 -0.589937 0
M  V30 7923 H 804.645 0.363369 -2.01246 0
M  V30 7924 H 802.8 2.73724 -2.74142 0
M  V30 7925 H 803.214 2.02623 -4.83781 0
M  V30 7926 H 804.688 3.60496 -4.18027 0
M  V30 7927 H 805.165 3.62199 -2.48412 0
M  V30 7928 H 805.771 2.33656 -3.55366 0
M  V30 7929 N 804.086 1.46499 0.581025 0
M  V30 7930 C 805.334 1.51596 1.33653 0
M  V30 7931 C 805.655 0.169859 1.94259 0
M  V30 7932 O 804.925 -0.803776 1.78651 0
M  V30 7933 H 803.505 0.558346 0.496244 0
M  V30 7934 H 806.167 1.8264 0.680338 0
M  V30 7935 H 805.263 2.26956 2.14237 0
M  V30 7936 N 805.565 -0.825799 1.34232 0
M  V30 7937 C 806.513 -1.95792 1.25572 0
M  V30 7938 C 807.507 -1.68695 0.154404 0
M  V30 7939 O 808.713 -1.77147 0.319196 0
M  V30 7940 H 805.088 -0.642949 0.390027 0
M  V30 7941 H 807.059 -2.00219 2.21258 0
M  V30 7942 C 805.808 -3.32245 1.02511 0
M  V30 7943 H 805.131 -3.53642 1.86487 0
M  V30 7944 H 806.571 -4.1192 1.00487 0
M  V30 7945 C 805.03 -3.35803 -0.27167 0
M  V30 7946 O 805.56 -3.80962 -1.274 0
M  V30 7947 N 803.766 -2.89008 -0.303778 0
M  V30 7948 H 803.313 -2.52451 0.512464 0
M  V30 7949 H 803.271 -2.9177 -1.17121 0
M  V30 7950 N 807.043 -1.17915 -1.04565 0
M  V30 7951 C 807.991 -0.897919 -2.1457 0
M  V30 7952 C 808.985 0.139883 -1.68821 0
M  V30 7953 O 810.191 -0.00779463 -1.79998 0
M  V30 7954 H 806.566 -0.272867 -0.700748 0
M  V30 7955 H 808.537 -1.83268 -2.3549 0
M  V30 7956 C 807.286 -0.434634 -3.44973 0
M  V30 7957 H 806.609 -1.22469 -3.8058 0
M  V30 7958 H 808.049 -0.276804 -4.23095 0
M  V30 7959 C 806.508 0.848738 -3.26034 0
M  V30 7960 O 807.038 1.9141 -3.53164 0
M  V30 7961 N 805.244 0.799373 -2.79389 0
M  V30 7962 H 804.791 -0.0678192 -2.57511 0
M  V30 7963 H 804.749 1.6585 -2.67098 0
M  V30 7964 N 808.521 1.23394 -0.980386 0
M  V30 7965 C 809.769 1.91431 -0.647978 0
M  V30 7966 C 810.09 1.76871 0.821066 0
M  V30 7967 O 809.36 1.14808 1.58732 0
M  V30 7968 H 807.94 0.708516 -0.236673 0
M  V30 7969 H 810.602 1.50019 -1.2442 0
M  V30 7970 H 809.698 2.98854 -0.899592 0
M  V30 7971 N 809.999 0.752036 1.385 0
M  V30 7972 C 810.962 0.131587 2.28822 0
M  V30 7973 C 811.962 -0.649149 1.47115 0
M  V30 7974 O 813.152 -0.475645 1.67581 0
M  V30 7975 C 810.284 -0.822101 3.30839 0
M  V30 7976 H 811.477 0.927551 2.85196 0
M  V30 7977 H 809.03 0.518945 1.47434 0
M  V30 7978 H 809.765 -1.6438 2.79553 0
M  V30 7979 H 809.55 -0.264689 3.91206 0
M  V30 7980 H 811.04 -1.25226 3.98382 0
M  V30 7981 N 811.477 -1.49425 0.500989 0
M  V30 7982 C 812.424 -2.29126 -0.277443 0
M  V30 7983 C 813.394 -1.35522 -0.960363 0
M  V30 7984 O 814.579 -1.64479 -0.967027 0
M  V30 7985 C 811.719 -3.18193 -1.33593 0
M  V30 7986 C 810.832 -4.26854 -0.664791 0
M  V30 7987 C 809.967 -5.03137 -1.70372 0
M  V30 7988 C 809.006 -6.03635 -1.01445 0
M  V30 7989 N 808.143 -6.73083 -1.99758 0
M  V30 7990 H 812.983 -2.95187 0.408458 0
M  V30 7991 H 810.52 -1.45546 0.213275 0
M  V30 7992 H 812.478 -3.68207 -1.96161 0
M  V30 7993 H 811.108 -2.54116 -1.9906 0
M  V30 7994 H 810.16 -3.80328 0.0741708 0
M  V30 7995 H 811.472 -4.9865 -0.122197 0
M  V30 7996 H 810.626 -5.5702 -2.40445 0
M  V30 7997 H 809.365 -4.31114 -2.28017 0
M  V30 7998 H 808.37 -5.48984 -0.299496 0
M  V30 7999 H 809.595 -6.77644 -0.444497 0
M  V30 8000 H 807.541 -6.03832 -2.56365 0
M  V30 8001 H 807.458 -7.40855 -1.50565 0
M  V30 8002 H 808.726 -7.3157 -2.69119 0
M  V30 8003 N 812.955 -0.234822 -1.55841 0
M  V30 8004 C 814.183 0.397745 -2.03041 0
M  V30 8005 C 814.598 1.52405 -1.11437 0
M  V30 8006 O 813.955 1.82061 -0.126466 0
M  V30 8007 C 814.006 0.916919 -3.49678 0
M  V30 8008 O 813.727 -0.164493 -4.37791 0
M  V30 8009 C 815.228 1.62139 -4.12584 0
M  V30 8010 H 812.448 0.0959214 -0.664108 0
M  V30 8011 H 814.992 -0.355156 -2.01392 0
M  V30 8012 H 813.147 1.62004 -3.519 0
M  V30 8013 H 813.561 0.227794 -5.24005 0
M  V30 8014 H 815.035 1.93651 -5.16917 0
M  V30 8015 H 815.512 2.53918 -3.58361 0
M  V30 8016 H 816.118 0.963145 -4.14251 0
M  V30 8017 N 814.433 1.57553 0.0384317 0
M  V30 8018 C 815.343 2.09333 1.0591 0
M  V30 8019 C 816.359 1.0299 1.40247 0
M  V30 8020 O 817.535 1.34669 1.49754 0
M  V30 8021 C 814.6 2.55468 2.34386 0
M  V30 8022 C 813.661 3.76254 2.06716 0
M  V30 8023 C 812.894 4.20179 3.29067 0
M  V30 8024 O 813.117 3.637 4.39407 0
M  V30 8025 O 812.051 5.12697 3.15317 0
M  V30 8026 H 815.877 2.96683 0.649087 0
M  V30 8027 H 813.462 1.47211 0.254802 0
M  V30 8028 H 815.344 2.85514 3.09935 0
M  V30 8029 H 814.019 1.71234 2.74701 0
M  V30 8030 H 812.926 3.51241 1.28766 0
M  V30 8031 H 814.259 4.61443 1.71263 0
M  V30 8032 N 815.911 -0.310526 1.54511 0
M  V30 8033 C 817.16 -1.0445 1.72549 0
M  V30 8034 C 817.473 -1.88748 0.513172 0
M  V30 8035 O 818.679 -2.65338 0.575165 0
M  V30 8036 C 817.135 -1.90665 3.05246 0
M  V30 8037 C 816.743 -1.11415 4.33925 0
M  V30 8038 C 818.487 -2.63719 3.32645 0
M  V30 8039 C 816.394 -1.96852 5.57677 0
M  V30 8040 H 815.324 -0.393676 0.643067 0
M  V30 8041 H 817.975 -0.302003 1.80998 0
M  V30 8042 H 816.357 -2.68864 2.90737 0
M  V30 8043 H 817.531 -0.378956 4.59239 0
M  V30 8044 H 815.846 -0.499853 4.13389 0
M  V30 8045 H 818.443 -3.27974 4.223 0
M  V30 8046 H 818.786 -3.32047 2.51098 0
M  V30 8047 H 819.319 -1.92574 3.48081 0
M  V30 8048 H 816.058 -1.33009 6.41864 0
M  V30 8049 H 815.578 -2.68069 5.36562 0
M  V30 8050 H 817.257 -2.55127 5.94575 0
M  V30 8051 N 817.389 -1.46805 -0.573248 0
M  V30 8052 C 818.337 -1.58468 -1.70267 0
M  V30 8053 C 819.331 -0.452694 -1.63239 0
M  V30 8054 O 820.537 -0.629915 -1.68618 0
M  V30 8055 H 816.912 -0.498408 -0.56311 0
M  V30 8056 H 818.883 -2.5341 -1.57563 0
M  V30 8057 C 817.632 -1.60104 -3.08645 0
M  V30 8058 H 816.955 -2.4655 -3.14727 0
M  V30 8059 H 818.395 -1.72318 -3.87405 0
M  V30 8060 C 816.854 -0.33138 -3.35266 0
M  V30 8061 O 817.384 0.57438 -3.97572 0
M  V30 8062 N 815.59 -0.216358 -2.89793 0
M  V30 8063 H 815.137 -0.954345 -2.3927 0
M  V30 8064 H 815.095 0.632253 -3.07977 0
M  V30 8065 N 818.867 0.818669 -1.34668 0
M  V30 8066 C 819.814 1.92983 -1.26595 0
M  V30 8067 C 820.784 1.65506 -0.140315 0
M  V30 8068 O 821.969 1.88063 -0.322005 0
M  V30 8069 C 819.109 3.2932 -1.03163 0
M  V30 8070 C 818.222 3.69061 -2.24539 0
M  V30 8071 C 817.357 4.94368 -1.94355 0
M  V30 8072 C 816.396 5.26702 -3.11851 0
M  V30 8073 N 815.533 6.43187 -2.81522 0
M  V30 8074 H 820.373 1.99219 -2.2162 0
M  V30 8075 H 817.91 0.974612 -1.1018 0
M  V30 8076 H 819.868 4.07897 -0.87613 0
M  V30 8077 H 818.498 3.22584 -0.118045 0
M  V30 8078 H 817.55 2.85842 -2.50995 0
M  V30 8079 H 818.862 3.88924 -3.12313 0
M  V30 8080 H 818.016 5.80742 -1.75566 0
M  V30 8081 H 816.755 4.76515 -1.03848 0
M  V30 8082 H 815.76 4.38823 -3.31231 0
M  V30 8083 H 816.985 5.46492 -4.03142 0
M  V30 8084 H 814.931 6.26783 -1.93596 0
M  V30 8085 H 814.848 6.63243 -3.62829 0
M  V30 8086 H 816.116 7.32621 -2.66247 0
M  V30 8087 N 820.346 1.18468 1.03938 0
M  V30 8088 C 821.623 0.890435 1.74157 0
M  V30 8089 C 822.003 -0.606409 2.02203 0
M  V30 8090 O 821.351 -1.5615 1.66822 0
M  V30 8091 C 821.561 1.73906 3.02585 0
M  V30 8092 C 822.909 1.96686 3.76297 0
M  V30 8093 O 823.933 1.70969 3.12487 0
M  V30 8094 O 822.792 2.39986 4.90988 0
M  V30 8095 H 819.886 0.330889 0.757919 0
M  V30 8096 H 822.432 1.29228 1.09992 0
M  V30 8097 H 821.204 2.75369 2.78006 0
M  V30 8098 H 820.827 1.33581 3.74489 0
M  V30 8099 N 821.824 -1.22873 0.986916 0
M  V30 8100 C 823.072 -1.91084 0.658121 0
M  V30 8101 C 823.393 -1.77304 -0.811675 0
M  V30 8102 O 822.663 -1.15649 -1.58121 0
M  V30 8103 H 821.243 -0.707251 0.240427 0
M  V30 8104 H 823.905 -1.49357 1.25213 0
M  V30 8105 H 823.001 -2.98373 0.915428 0
M  V30 8106 N 823.302 -0.75937 -1.38099 0
M  V30 8107 C 824.232 -0.151077 -2.33011 0
M  V30 8108 C 825.213 0.697099 -1.5516 0
M  V30 8109 O 826.398 0.637101 -1.83452 0
M  V30 8110 C 823.528 0.738423 -3.39359 0
M  V30 8111 C 822.482 -0.0074741 -4.27999 0
M  V30 8112 C 821.808 1.00066 -5.25253 0
M  V30 8113 C 823.108 -1.17926 -5.08813 0
M  V30 8114 H 824.802 -0.943933 -2.84131 0
M  V30 8115 H 822.348 -0.455362 -1.36611 0
M  V30 8116 H 824.301 1.17369 -4.04725 0
M  V30 8117 H 823.025 1.56366 -2.86735 0
M  V30 8118 H 821.684 -0.423379 -3.64147 0
M  V30 8119 H 821.332 1.82012 -4.68914 0
M  V30 8120 H 821.032 0.506199 -5.85416 0
M  V30 8121 H 822.556 1.43512 -5.93495 0
M  V30 8122 H 823.97 -0.821262 -5.67387 0
M  V30 8123 H 822.367 -1.60497 -5.78239 0
M  V30 8124 H 823.437 -1.98938 -4.42212 0
M  V30 8125 N 824.78 1.49157 -0.508906 0
M  V30 8126 C 826.008 2.06879 0.0293734 0
M  V30 8127 C 826.423 1.36823 1.30095 0
M  V30 8128 O 825.78 0.449034 1.7689 0
M  V30 8129 C 825.831 3.60423 0.278791 0
M  V30 8130 O 825.552 4.27844 -0.942389 0
M  V30 8131 C 827.053 4.34881 0.859825 0
M  V30 8132 H 824.273 0.67057 -0.0240184 0
M  V30 8133 H 826.817 1.91834 -0.708526 0
M  V30 8134 H 824.972 3.75145 0.966689 0
M  V30 8135 H 825.386 5.19671 -0.710097 0
M  V30 8136 H 826.86 5.43161 0.983884 0
M  V30 8137 H 827.337 3.9789 1.85958 0
M  V30 8138 H 827.943 4.24785 0.209152 0
M  V30 8139 N 826.258 0.243083 1.55714 0
M  V30 8140 C 827.507 -0.383188 1.98027 0
M  V30 8141 C 827.82 -1.59347 1.13436 0
M  V30 8142 O 829.026 -2.29065 1.45745 0
M  V30 8143 C 827.482 -0.733135 3.52354 0
M  V30 8144 C 827.09 0.455539 4.45678 0
M  V30 8145 C 828.834 -1.32381 4.03331 0
M  V30 8146 C 826.741 0.0819591 5.91343 0
M  V30 8147 H 825.671 -0.146944 0.739543 0
M  V30 8148 H 828.322 0.342697 1.80272 0
M  V30 8149 H 826.704 -1.51704 3.65789 0
M  V30 8150 H 827.878 1.23291 4.44 0
M  V30 8151 H 826.193 0.960886 4.05162 0
M  V30 8152 H 828.79 -1.61658 5.09677 0
M  V30 8153 H 829.133 -2.24698 3.50452 0
M  V30 8154 H 829.666 -0.602885 3.93205 0
M  V30 8155 H 826.405 0.972171 6.48251 0
M  V30 8156 H 825.925 -0.659291 5.96166 0
M  V30 8157 H 827.604 -0.3372 6.46121 0
M  V30 8158 N 827.736 -1.57571 -0.0300757 0
M  V30 8159 C 828.964 -1.93485 -0.732891 0
M  V30 8160 C 829.379 -0.842758 -1.68947 0
M  V30 8161 O 828.736 0.180904 -1.81601 0
M  V30 8162 C 828.787 -3.29328 -1.49082 0
M  V30 8163 O 828.508 -4.34341 -0.572639 0
M  V30 8164 C 830.009 -3.79517 -2.29088 0
M  V30 8165 H 827.229 -0.638588 -0.206026 0
M  V30 8166 H 829.773 -2.04496 0.0120966 0
M  V30 8167 H 827.928 -3.19716 -2.1877 0
M  V30 8168 H 828.342 -5.12748 -1.10406 0
M  V30 8169 H 829.816 -4.77081 -2.77665 0
M  V30 8170 H 830.293 -3.10659 -3.10464 0
M  V30 8171 H 830.899 -3.92208 -1.64477 0
M  V30 8172 N 829.214 0.302327 -1.54673 0
M  V30 8173 C 830.625 0.875409 -1.64904 0
M  V30 8174 C 830.976 1.88132 -0.55684 0
M  V30 8175 O 830.101 2.14215 0.306754 0
M  V30 8176 C 830.696 1.59457 -2.9893 0
M  V30 8177 C 829.255 2.11607 -3.11287 0
M  V30 8178 C 828.402 0.948324 -2.6058 0
M  V30 8179 H 831.353 0.079362 -1.58501 0
M  V30 8180 H 831.374 2.46005 -2.90279 0
M  V30 8181 H 830.886 0.8622 -3.78402 0
M  V30 8182 H 828.987 2.87895 -2.36532 0
M  V30 8183 H 829.1 2.35151 -4.17422 0
M  V30 8184 H 827.464 1.33352 -2.17001 0
M  V30 8185 H 828.247 0.229936 -3.42529 0
M  V30 8186 N 830.692 1.47107 0.565454 0
M  V30 8187 C 831.655 1.58535 1.65527 0
M  V30 8188 C 832.655 0.461081 1.54048 0
M  V30 8189 O 833.845 0.725911 1.58355 0
M  V30 8190 C 830.977 1.52204 3.05036 0
M  V30 8191 H 832.17 2.55676 1.56747 0
M  V30 8192 H 829.723 1.35174 0.78471 0
M  V30 8193 H 830.458 0.564071 3.19357 0
M  V30 8194 H 830.243 2.3379 3.14777 0
M  V30 8195 H 831.733 1.63322 3.84338 0
M  V30 8196 N 832.17 -0.811516 1.35101 0
M  V30 8197 C 833.118 -1.94449 1.27642 0
M  V30 8198 C 834.112 -1.68522 0.172287 0
M  V30 8199 O 835.318 -1.76799 0.337967 0
M  V30 8200 H 831.693 -0.638776 0.396824 0
M  V30 8201 H 833.664 -1.97861 2.23369 0
M  V30 8202 C 832.413 -3.31139 1.06029 0
M  V30 8203 H 831.736 -3.51644 1.90227 0
M  V30 8204 H 833.176 -4.10831 1.0485 0
M  V30 8205 C 831.635 -3.36072 -0.236039 0
M  V30 8206 O 832.165 -3.82292 -1.23353 0
M  V30 8207 N 830.371 -2.89314 -0.273107 0
M  V30 8208 H 829.918 -2.51893 0.539211 0
M  V30 8209 H 829.876 -2.92996 -1.1402 0
M  V30 8210 N 833.648 -1.19017 -1.03309 0
M  V30 8211 C 834.896 -0.988258 -1.76289 0
M  V30 8212 C 835.217 0.482557 -1.88935 0
M  V30 8213 O 834.487 1.34969 -1.41987 0
M  V30 8214 H 833.067 -0.36267 -0.653054 0
M  V30 8215 H 835.729 -1.49836 -1.2464 0
M  V30 8216 H 834.825 -1.43273 -2.77271 0
M  V30 8217 N 835.127 1.22348 -0.993418 0
M  V30 8218 C 836.09 2.22522 -0.549251 0
M  V30 8219 C 837.09 1.56529 0.368164 0
M  V30 8220 O 838.28 1.73463 0.16005 0
M  V30 8221 C 835.412 3.40307 0.201037 0
M  V30 8222 H 836.605 2.63332 -1.43515 0
M  V30 8223 H 834.158 1.35407 -0.78068 0
M  V30 8224 H 834.893 3.0497 1.10289 0
M  V30 8225 H 834.678 3.8942 -0.457685 0
M  V30 8226 H 836.168 4.14597 0.499946 0
M  V30 8227 N 836.605 0.766683 1.37694 0
M  V30 8228 C 837.853 0.328065 1.9942 0
M  V30 8229 C 838.174 -1.09775 1.61166 0
M  V30 8230 O 837.444 -1.75288 0.874686 0
M  V30 8231 H 836.024 0.11831 0.737572 0
M  V30 8232 H 838.686 0.983686 1.68255 0
M  V30 8233 H 837.782 0.401647 3.09505 0
M  V30 8234 N 838.083 -1.48885 0.516809 0
M  V30 8235 C 839.046 -2.27916 -0.242256 0
M  V30 8236 C 840.046 -1.34601 -0.879735 0
M  V30 8237 O 841.236 -1.57616 -0.74182 0
M  V30 8238 C 838.368 -3.13067 -1.34914 0
M  V30 8239 H 839.561 -2.96483 0.451444 0
M  V30 8240 H 837.114 -1.5391 0.272294 0
M  V30 8241 H 837.849 -2.49102 -2.07651 0
M  V30 8242 H 837.634 -3.81695 -0.897313 0
M  V30 8243 H 839.124 -3.72716 -1.88341 0
M  V30 8244 N 839.561 -0.251338 -1.55583 0
M  V30 8245 C 840.509 0.662534 -2.22965 0
M  V30 8246 C 841.503 1.17662 -1.21869 0
M  V30 8247 O 842.709 1.133 -1.39868 0
M  V30 8248 H 839.084 0.232151 -0.715269 0
M  V30 8249 H 841.055 0.0711252 -2.98315 0
M  V30 8250 C 839.804 1.84646 -2.94621 0
M  V30 8251 H 839.127 1.46003 -3.72187 0
M  V30 8252 H 840.567 2.46303 -3.45124 0
M  V30 8253 C 839.026 2.72034 -1.98744 0
M  V30 8254 O 839.556 3.71695 -1.52335 0
M  V30 8255 N 837.762 2.38695 -1.6575 0
M  V30 8256 H 837.309 1.57702 -2.03685 0
M  V30 8257 H 837.267 2.9744 -1.01867 0
M  V30 8258 N 841.039 1.57585 0.0217189 0
M  V30 8259 C 841.987 2.08134 1.03842 0
M  V30 8260 C 842.981 0.996662 1.36978 0
M  V30 8261 O 844.187 1.18149 1.35797 0
M  V30 8262 H 840.562 0.664298 0.352438 0
M  V30 8263 H 842.533 2.92583 0.58634 0
M  V30 8264 C 841.282 2.58218 2.32849 0
M  V30 8265 H 840.605 3.41302 2.08214 0
M  V30 8266 H 842.045 2.97289 3.02316 0
M  V30 8267 C 840.504 1.48664 3.02325 0
M  V30 8268 O 841.034 0.857075 3.9245 0
M  V30 8269 N 839.24 1.21938 2.63779 0
M  V30 8270 H 838.787 1.73319 1.90574 0
M  V30 8271 H 838.745 0.488523 3.10581 0
M  V30 8272 N 842.517 -0.29412 1.54831 0
M  V30 8273 C 843.48 -1.3461 1.85507 0
M  V30 8274 C 844.48 -1.43359 0.728343 0
M  V30 8275 O 845.67 -1.42875 0.996609 0
M  V30 8276 C 842.802 -2.73012 2.0415 0
M  V30 8277 H 843.995 -1.08651 2.79526 0
M  V30 8278 H 841.548 -0.531138 1.46999 0
M  V30 8279 H 842.283 -3.04183 1.12441 0
M  V30 8280 H 842.068 -2.68051 2.86166 0
M  V30 8281 H 843.558 -3.49061 2.29229 0
M  V30 8282 N 843.995 -1.47404 -0.557645 0
M  V30 8283 C 844.943 -1.60265 -1.68576 0
M  V30 8284 C 845.937 -0.469982 -1.6275 0
M  V30 8285 O 847.143 -0.647764 -1.67941 0
M  V30 8286 H 843.518 -0.504353 -0.557792 0
M  V30 8287 H 845.489 -2.55066 -1.54867 0
M  V30 8288 C 844.238 -1.63369 -3.0693 0
M  V30 8289 H 843.561 -2.49874 -3.12095 0
M  V30 8290 H 845.001 -1.76417 -3.85556 0
M  V30 8291 C 843.46 -0.366921 -3.34896 0
M  V30 8292 O 843.99 0.53218 -3.98159 0
M  V30 8293 N 842.196 -0.247082 -2.89548 0
M  V30 8294 H 841.743 -0.979669 -2.38244 0
M  V30 8295 H 841.701 0.599552 -3.0863 0
M  V30 8296 N 845.473 0.80434 -1.35529 0
M  V30 8297 C 846.701 1.59283 -1.32048 0
M  V30 8298 C 847.116 1.88527 0.101556 0
M  V30 8299 O 846.473 1.48975 1.05417 0
M  V30 8300 C 846.524 2.92276 -2.12737 0
M  V30 8301 O 846.245 2.64299 -3.49396 0
M  V30 8302 C 847.746 3.86631 -2.16867 0
M  V30 8303 H 844.966 0.494523 -0.453528 0
M  V30 8304 H 847.51 0.999415 -1.78415 0
M  V30 8305 H 845.665 3.48125 -1.69964 0
M  V30 8306 H 846.079 3.4923 -3.91329 0
M  V30 8307 H 847.553 4.77053 -2.77712 0
M  V30 8308 H 848.03 4.23384 -1.16803 0
M  V30 8309 H 848.636 3.36717 -2.59811 0
M  V30 8310 N 846.951 1.19563 1.02676 0
M  V30 8311 C 848.2 0.993864 1.75514 0
M  V30 8312 C 848.513 -0.475882 1.89723 0
M  V30 8313 O 849.719 -0.796525 2.59553 0
M  V30 8314 C 848.175 1.72937 3.15628 0
M  V30 8315 C 847.783 3.23937 3.09466 0
M  V30 8316 C 849.527 1.61092 3.92746 0
M  V30 8317 C 847.434 3.90067 4.44524 0
M  V30 8318 H 846.364 0.368244 0.657961 0
M  V30 8319 H 849.015 1.43081 1.14891 0
M  V30 8320 H 847.397 1.22025 3.76731 0
M  V30 8321 H 848.571 3.81983 2.57731 0
M  V30 8322 H 846.886 3.3608 2.45843 0
M  V30 8323 H 849.483 2.07848 4.92649 0
M  V30 8324 H 849.826 0.565415 4.12442 0
M  V30 8325 H 850.359 2.09361 3.3825 0
M  V30 8326 H 847.098 4.94725 4.30032 0
M  V30 8327 H 846.618 3.36809 4.96306 0
M  V30 8328 H 848.297 3.93736 5.13401 0
M  V30 8329 N 848.429 -1.21819 0.999893 0
M  V30 8330 C 849.654 -1.95298 0.698094 0
M  V30 8331 C 850.079 -1.73273 -0.731982 0
M  V30 8332 O 849.437 -1.01634 -1.50134 0
M  V30 8333 C 849.485 -3.45922 1.01834 0
M  V30 8334 O 848.589 -4.12223 0.120801 0
M  V30 8335 H 847.93 -0.610729 0.260588 0
M  V30 8336 H 850.46 -1.5472 1.33876 0
M  V30 8337 H 850.47 -3.96471 0.963074 0
M  V30 8338 H 849.145 -3.61278 2.06037 0
M  V30 8339 H 847.722 -3.72177 0.232153 0
M  V30 8340 N 849.908 -0.773975 -1.37286 0
M  V30 8341 C 851.154 -0.339809 -1.99933 0
M  V30 8342 C 851.487 1.0815 -1.61299 0
M  V30 8343 O 850.762 1.74442 -0.860252 0
M  V30 8344 C 851.045 -0.485919 -3.56806 0
M  V30 8345 C 850.898 -1.9498 -4.05343 0
M  V30 8346 C 852.217 0.108461 -4.39966 0
M  V30 8347 H 849.336 -0.124944 -0.726332 0
M  V30 8348 H 851.978 -0.977433 -1.6293 0
M  V30 8349 H 850.128 0.0569023 -3.88458 0
M  V30 8350 H 851.8 -2.5525 -3.84246 0
M  V30 8351 H 850.043 -2.45784 -3.57453 0
M  V30 8352 H 850.714 -2.00308 -5.14374 0
M  V30 8353 H 853.19 -0.354722 -4.14585 0
M  V30 8354 H 852.066 -0.0238926 -5.48895 0
M  V30 8355 H 852.327 1.19901 -4.25531 0
M  V30 8356 N 851.386 1.48609 -0.524698 0
M  V30 8357 C 852.614 2.06899 0.00742946 0
M  V30 8358 C 853.029 1.38196 1.28637 0
M  V30 8359 O 852.386 0.467771 1.76403 0
M  V30 8360 C 852.437 3.60699 0.240548 0
M  V30 8361 O 852.158 4.26821 -0.987715 0
M  V30 8362 C 853.659 4.35769 0.813652 0
M  V30 8363 H 850.879 0.670278 -0.0311294 0
M  V30 8364 H 853.423 1.91071 -0.728832 0
M  V30 8365 H 851.578 3.76149 0.926845 0
M  V30 8366 H 851.992 5.18889 -0.765175 0
M  V30 8367 H 853.466 5.44174 0.926219 0
M  V30 8368 H 853.943 3.9984 1.81728 0
M  V30 8369 H 854.549 4.24983 0.164086 0
M  V30 8370 N 852.864 0.259585 1.55447 0
M  V30 8371 C 853.811 -0.634578 2.21905 0
M  V30 8372 C 854.781 -1.16168 1.18719 0
M  V30 8373 O 855.966 -1.21383 1.4721 0
M  V30 8374 C 853.106 -1.82005 2.93203 0
M  V30 8375 C 852.219 -1.32828 4.11073 0
M  V30 8376 C 851.354 -2.47431 4.70055 0
M  V30 8377 C 850.393 -1.95179 5.80148 0
M  V30 8378 N 849.53 -3.03197 6.33258 0
M  V30 8379 H 854.37 -0.0611886 2.97937 0
M  V30 8380 H 851.907 -0.0184378 1.47088 0
M  V30 8381 H 853.865 -2.51664 3.32748 0
M  V30 8382 H 852.495 -2.36571 2.19622 0
M  V30 8383 H 851.547 -0.525301 3.76756 0
M  V30 8384 H 852.859 -0.905435 4.90513 0
M  V30 8385 H 852.013 -3.25111 5.12238 0
M  V30 8386 H 850.752 -2.93023 3.89857 0
M  V30 8387 H 849.757 -1.15974 5.37429 0
M  V30 8388 H 850.982 -1.50541 6.62204 0
M  V30 8389 H 848.928 -3.48199 5.55961 0
M  V30 8390 H 848.845 -2.65282 7.07928 0
M  V30 8391 H 850.113 -3.80898 6.80101 0
M  V30 8392 N 854.342 -1.57594 -0.0133615 0
M  V30 8393 C 855.619 -1.81173 -0.737273 0
M  V30 8394 C 855.999 -0.861395 -1.92726 0
M  V30 8395 O 855.347 0.0929324 -2.28311 0
M  V30 8396 C 855.557 -3.29314 -1.15557 0
M  V30 8397 C 856.905 -3.94707 -1.56498 0
M  V30 8398 O 857.929 -3.33557 -1.24973 0
M  V30 8399 O 856.788 -5.02402 -2.15069 0
M  V30 8400 H 853.882 -0.745575 -0.357837 0
M  V30 8401 H 856.428 -1.69696 0.0110674 0
M  V30 8402 H 855.2 -3.90096 -0.30677 0
M  V30 8403 H 854.823 -3.45739 -1.96343 0
M  V30 8404 N 855.82 0.285905 -1.54985 0
M  V30 8405 C 857.068 1.01718 -1.74636 0
M  V30 8406 C 857.389 1.87277 -0.543342 0
M  V30 8407 O 856.659 1.90847 0.442078 0
M  V30 8408 H 855.239 0.378549 -0.643979 0
M  V30 8409 H 857.901 0.313247 -1.92366 0
M  V30 8410 H 856.997 1.66159 -2.64192 0
M  V30 8411 N 857.298 1.47698 0.54982 0
M  V30 8412 C 858.547 1.53961 1.30303 0
M  V30 8413 C 858.86 0.209731 1.94472 0
M  V30 8414 O 860.066 0.150418 2.71083 0
M  V30 8415 C 858.522 2.71436 2.36328 0
M  V30 8416 C 858.13 4.10983 1.78316 0
M  V30 8417 C 859.874 2.86996 3.12783 0
M  V30 8418 C 857.781 5.19747 2.82164 0
M  V30 8419 H 856.711 0.573098 0.489975 0
M  V30 8420 H 859.362 1.73989 0.583089 0
M  V30 8421 H 857.744 2.44801 3.11269 0
M  V30 8422 H 858.918 4.47552 1.09697 0
M  V30 8423 H 857.233 4.00371 1.1442 0
M  V30 8424 H 859.83 3.65422 3.90347 0
M  V30 8425 H 860.173 1.95712 3.67427 0
M  V30 8426 H 860.706 3.13436 2.44954 0
M  V30 8427 H 857.445 6.12932 2.32366 0
M  V30 8428 H 856.965 4.87688 3.49171 0
M  V30 8429 H 858.644 5.47014 3.4552 0
M  V30 8430 N 858.776 -0.797141 1.35954 0
M  V30 8431 C 860.001 -1.59097 1.33053 0
M  V30 8432 C 860.426 -1.87897 -0.0874592 0
M  V30 8433 O 859.784 -1.47291 -1.05712 0
M  V30 8434 C 859.832 -2.89346 2.152 0
M  V30 8435 O 858.936 -3.826 1.5392 0
M  V30 8436 H 858.277 -0.482895 0.45575 0
M  V30 8437 H 860.807 -0.988633 1.79129 0
M  V30 8438 H 860.817 -3.38686 2.27499 0
M  V30 8439 H 859.492 -2.6771 3.18283 0
M  V30 8440 H 858.069 -3.41174 1.50516 0
M  V30 8441 N 860.254 -1.20106 -1.0204 0
M  V30 8442 C 861.217 -0.948261 -2.08664 0
M  V30 8443 C 862.217 0.0746753 -1.60627 0
M  V30 8444 O 863.407 -0.160981 -1.73455 0
M  V30 8445 C 860.539 -0.426854 -3.38217 0
M  V30 8446 H 861.732 -1.894 -2.32524 0
M  V30 8447 H 859.285 -1.0159 -1.18782 0
M  V30 8448 H 860.02 0.524532 -3.2003 0
M  V30 8449 H 859.805 -1.16451 -3.74408 0
M  V30 8450 H 861.295 -0.269346 -4.1673 0
M  V30 8451 N 861.732 1.21287 -1.00634 0
M  V30 8452 C 862.98 1.90013 -0.688438 0
M  V30 8453 C 863.301 1.78573 0.783365 0
M  V30 8454 O 862.571 1.1815 1.56261 0
M  V30 8455 H 861.151 0.703336 -0.251648 0
M  V30 8456 H 863.813 1.47346 -1.27574 0
M  V30 8457 H 862.909 2.96879 -0.962781 0
M  V30 8458 N 863.21 0.781244 1.36873 0
M  V30 8459 C 864.458 0.349198 1.9906 0
M  V30 8460 C 864.779 -1.0806 1.62321 0
M  V30 8461 O 864.049 -1.74351 0.893229 0
M  V30 8462 H 862.629 0.126126 0.736275 0
M  V30 8463 H 865.291 1.00148 1.67202 0
M  V30 8464 H 864.387 0.434451 3.09061 0
M  V30 8465 N 864.689 -1.48329 0.532571 0
M  V30 8466 C 865.621 -2.27652 -0.265931 0
M  V30 8467 C 866.634 -1.35522 -0.902083 0
M  V30 8468 O 867.823 -1.60552 -0.780088 0
M  V30 8469 C 864.923 -3.0899 -1.39207 0
M  V30 8470 C 864.096 -4.28915 -0.857349 0
M  V30 8471 C 863.155 -4.92044 -1.86493 0
M  V30 8472 O 862.181 -5.51181 -1.42084 0
M  V30 8473 N 863.383 -4.84518 -3.19723 0
M  V30 8474 H 866.148 -2.96821 0.414389 0
M  V30 8475 H 863.709 -1.57684 0.367066 0
M  V30 8476 H 865.701 -3.48091 -2.06433 0
M  V30 8477 H 864.271 -2.42224 -1.97601 0
M  V30 8478 H 863.491 -3.94199 -0.00901765 0
M  V30 8479 H 864.779 -5.0654 -0.479025 0
M  V30 8480 H 864.177 -4.37628 -3.58467 0
M  V30 8481 H 862.734 -5.27712 -3.82575 0
M  V30 8482 N 866.167 -0.267825 -1.55308 0
M  V30 8483 C 867.392 0.357487 -2.04296 0
M  V30 8484 C 867.817 1.49222 -1.14518 0
M  V30 8485 O 867.175 1.80741 -0.142292 0
M  V30 8486 C 867.223 0.822899 -3.51085 0
M  V30 8487 O 866.327 1.93078 -3.6441 0
M  V30 8488 H 865.668 0.075025 -0.659748 0
M  V30 8489 H 868.198 -0.399996 -2.00652 0
M  V30 8490 H 868.208 1.12059 -3.92309 0
M  V30 8491 H 866.883 -0.0073562 -4.15899 0
M  V30 8492 H 865.46 1.63618 -3.35087 0
M  V30 8493 N 867.645 1.57599 0.00500368 0
M  V30 8494 C 868.891 1.90631 0.691919 0
M  V30 8495 C 869.224 0.868443 1.737 0
M  V30 8496 O 868.499 -0.113482 1.94169 0
M  V30 8497 C 868.782 3.34255 1.33961 0
M  V30 8498 C 868.635 4.48755 0.306413 0
M  V30 8499 C 869.954 3.77211 2.26715 0
M  V30 8500 H 867.073 0.693279 0.250066 0
M  V30 8501 H 869.715 1.89946 -0.0452634 0
M  V30 8502 H 867.865 3.3497 1.96793 0
M  V30 8503 H 869.537 4.60176 -0.321841 0
M  V30 8504 H 867.78 4.32203 -0.371852 0
M  V30 8505 H 868.451 5.46193 0.798554 0
M  V30 8506 H 870.927 3.78017 1.73904 0
M  V30 8507 H 869.803 4.78466 2.69002 0
M  V30 8508 H 870.064 3.10801 3.14413 0
M  V30 8509 N 869.123 -0.277682 1.55134 0
M  V30 8510 C 870.07 -1.34313 1.87693 0
M  V30 8511 C 871.04 -1.49298 0.727973 0
M  V30 8512 O 872.225 -1.6378 0.978807 0
M  V30 8513 C 869.365 -2.69922 2.15026 0
M  V30 8514 C 868.478 -2.63197 3.42565 0
M  V30 8515 C 867.613 -3.90955 3.59622 0
M  V30 8516 C 866.652 -3.78722 4.8087 0
M  V30 8517 N 865.789 -4.98303 4.94609 0
M  V30 8518 H 870.629 -1.05847 2.78569 0
M  V30 8519 H 868.166 -0.511469 1.37922 0
M  V30 8520 H 870.124 -3.48817 2.28872 0
M  V30 8521 H 868.754 -2.966 1.2739 0
M  V30 8522 H 867.806 -1.76038 3.37216 0
M  V30 8523 H 869.118 -2.50056 4.31594 0
M  V30 8524 H 868.272 -4.78291 3.7326 0
M  V30 8525 H 867.011 -4.06957 2.6877 0
M  V30 8526 H 866.016 -2.89769 4.67241 0
M  V30 8527 H 867.241 -3.64242 5.73153 0
M  V30 8528 H 865.187 -5.14725 4.06687 0
M  V30 8529 H 865.104 -4.87675 5.77676 0
M  V30 8530 H 866.372 -5.87225 5.12628 0
M  V30 8531 N 870.601 -1.47988 -0.541979 0
M  V30 8532 C 871.549 -1.62044 -1.66867 0
M  V30 8533 C 872.543 -0.487217 -1.62242 0
M  V30 8534 O 873.749 -0.66554 -1.67244 0
M  V30 8535 H 870.124 -0.51024 -0.552412 0
M  V30 8536 H 872.095 -2.56695 -1.52153 0
M  V30 8537 C 870.844 -1.66615 -3.0518 0
M  V30 8538 H 870.167 -2.5317 -3.09427 0
M  V30 8539 H 871.607 -1.80496 -3.83663 0
M  V30 8540 C 870.066 -0.402421 -3.34488 0
M  V30 8541 O 870.596 0.48992 -3.98701 0
M  V30 8542 N 868.802 -0.277778 -2.89269 0
M  V30 8543 H 868.349 -1.00488 -2.37192 0
M  V30 8544 H 868.307 0.566784 -3.09249 0
M  V30 8545 N 872.079 0.78992 -1.36375 0
M  V30 8546 C 873.325 1.55007 -1.3077 0
M  V30 8547 C 873.658 1.93871 0.112979 0
M  V30 8548 O 872.933 1.6267 1.06625 0
M  V30 8549 C 873.216 2.82748 -2.22993 0
M  V30 8550 C 873.069 2.50253 -3.73756 0
M  V30 8551 C 874.388 3.84569 -2.13998 0
M  V30 8552 H 871.507 0.562362 -0.476359 0
M  V30 8553 H 874.149 0.907582 -1.66922 0
M  V30 8554 H 872.299 3.37573 -1.92292 0
M  V30 8555 H 873.971 2.01482 -4.14973 0
M  V30 8556 H 872.214 1.83203 -3.93216 0
M  V30 8557 H 872.885 3.41487 -4.33694 0
M  V30 8558 H 875.361 3.39188 -2.4102 0
M  V30 8559 H 874.237 4.717 -2.80697 0
M  V30 8560 H 874.498 4.27491 -1.12711 0
M  V30 8561 N 873.557 1.20646 1.01402 0
M  V30 8562 C 874.803 1.0197 1.753 0
M  V30 8563 C 875.136 -0.446803 1.8899 0
M  V30 8564 O 874.411 -1.33169 1.41762 0
M  V30 8565 C 874.694 1.70693 3.17074 0
M  V30 8566 C 874.547 3.24805 3.11162 0
M  V30 8567 C 875.866 1.44212 4.15802 0
M  V30 8568 H 872.985 0.371844 0.636318 0
M  V30 8569 H 875.627 1.48696 1.18277 0
M  V30 8570 H 873.777 1.30968 3.65759 0
M  V30 8571 H 875.449 3.73841 2.70261 0
M  V30 8572 H 873.692 3.55576 2.48492 0
M  V30 8573 H 874.363 3.68049 4.11393 0
M  V30 8574 H 876.839 1.7868 3.75783 0
M  V30 8575 H 875.715 1.94825 5.13161 0
M  V30 8576 H 875.976 0.370252 4.40547 0
M  V30 8577 N 875.035 -1.20752 1.01276 0
M  V30 8578 C 876.26 -1.94547 0.718769 0
M  V30 8579 C 876.685 -1.7404 -0.713563 0
M  V30 8580 O 876.043 -1.03221 -1.49047 0
M  V30 8581 C 876.091 -3.44823 1.05497 0
M  V30 8582 O 875.195 -4.12072 0.164516 0
M  V30 8583 H 874.536 -0.607931 0.267051 0
M  V30 8584 H 877.066 -1.53292 1.35509 0
M  V30 8585 H 877.076 -3.95427 1.00507 0
M  V30 8586 H 875.751 -3.59072 2.09858 0
M  V30 8587 H 874.328 -3.71909 0.271615 0
M  V30 8588 N 876.513 -0.788492 -1.36457 0
M  V30 8589 C 877.761 -0.359749 -1.98872 0
M  V30 8590 C 878.082 1.07197 -1.62892 0
M  V30 8591 O 877.352 1.73875 -0.902463 0
M  V30 8592 H 875.932 -0.130029 -0.735596 0
M  V30 8593 H 878.594 -1.01033 -1.66668 0
M  V30 8594 H 877.69 -0.450835 -3.08827 0
M  V30 8595 N 877.991 1.48044 -0.54043 0
M  V30 8596 C 878.921 2.32597 0.205178 0
M  V30 8597 C 879.902 1.42748 0.925041 0
M  V30 8598 O 881.087 1.71624 0.908784 0
M  V30 8599 C 878.217 3.24175 1.24612 0
M  V30 8600 C 877.171 4.23131 0.64376 0
M  V30 8601 C 876.497 5.03915 1.78812 0
M  V30 8602 C 877.797 5.20831 -0.39144 0
M  V30 8603 H 879.491 2.95184 -0.500676 0
M  V30 8604 H 877.037 1.41948 -0.242225 0
M  V30 8605 H 878.99 3.82158 1.77576 0
M  V30 8606 H 877.714 2.59608 1.98169 0
M  V30 8607 H 876.373 3.66349 0.135554 0
M  V30 8608 H 876.021 4.35765 2.51232 0
M  V30 8609 H 875.721 5.709 1.39094 0
M  V30 8610 H 877.245 5.64753 2.32134 0
M  V30 8611 H 878.659 5.73277 0.0515064 0
M  V30 8612 H 877.056 5.95926 -0.706569 0
M  V30 8613 H 878.126 4.6733 -1.29345 0
M  V30 8614 N 879.47 0.276058 1.55163 0
M  V30 8615 C 880.417 -0.611006 2.22565 0
M  V30 8616 C 881.387 -1.14902 1.19945 0
M  V30 8617 O 882.572 -1.19815 1.48489 0
M  V30 8618 C 879.712 -1.78885 2.95117 0
M  V30 8619 C 878.825 -1.2846 4.12458 0
M  V30 8620 C 877.96 -2.42432 4.72652 0
M  V30 8621 C 876.999 -1.89015 5.82185 0
M  V30 8622 N 876.136 -2.96463 6.36439 0
M  V30 8623 H 880.976 -0.0295849 2.97985 0
M  V30 8624 H 878.513 -0.00283607 1.471 0
M  V30 8625 H 880.471 -2.48121 3.35398 0
M  V30 8626 H 879.101 -2.34229 2.22119 0
M  V30 8627 H 878.153 -0.485312 3.77292 0
M  V30 8628 H 879.465 -0.853358 4.91446 0
M  V30 8629 H 878.619 -3.19659 5.15658 0
M  V30 8630 H 877.358 -2.88872 3.92943 0
M  V30 8631 H 876.363 -1.10267 5.38629 0
M  V30 8632 H 877.588 -1.43509 6.63763 0
M  V30 8633 H 875.534 -3.42283 5.59623 0
M  V30 8634 H 875.451 -2.57759 7.10701 0
M  V30 8635 H 876.719 -3.73663 6.84103 0
M  V30 8636 N 880.948 -1.576 0.00335426 0
M  V30 8637 C 881.895 -2.08632 -0.986975 0
M  V30 8638 C 882.865 -0.982491 -1.33927 0
M  V30 8639 O 884.05 -1.25513 -1.43705 0
M  V30 8640 C 881.19 -2.59705 -2.27261 0
M  V30 8641 C 880.303 -3.84002 -1.97905 0
M  V30 8642 C 879.438 -4.23563 -3.20574 0
M  V30 8643 C 878.477 -5.40688 -2.8692 0
M  V30 8644 N 877.614 -5.75526 -4.02136 0
M  V30 8645 H 882.454 -2.92977 -0.544855 0
M  V30 8646 H 879.991 -1.44831 -0.257376 0
M  V30 8647 H 881.949 -2.87395 -3.02423 0
M  V30 8648 H 880.579 -1.7823 -2.69136 0
M  V30 8649 H 879.631 -3.63199 -1.13096 0
M  V30 8650 H 880.943 -4.69261 -1.69102 0
M  V30 8651 H 880.097 -4.52554 -4.04079 0
M  V30 8652 H 878.836 -3.37019 -3.52518 0
M  V30 8653 H 877.841 -5.11417 -2.01822 0
M  V30 8654 H 879.066 -6.2891 -2.5622 0
M  V30 8655 H 877.012 -4.9194 -4.33971 0
M  V30 8656 H 876.929 -6.55367 -3.76869 0
M  V30 8657 H 878.197 -6.0911 -4.8642 0
M  V30 8658 N 882.426 0.269451 -1.5528 0
M  V30 8659 C 883.673 1.00058 -1.76053 0
M  V30 8660 C 884.001 1.86156 -0.563592 0
M  V30 8661 O 883.256 1.90366 0.453806 0
M  V30 8662 C 883.555 1.91 -3.02082 0
M  V30 8663 C 883.221 1.20623 -4.34466 0
M  V30 8664 C 881.883 1.01165 -4.70446 0
M  V30 8665 C 884.235 0.705695 -5.164 0
M  V30 8666 C 881.563 0.303865 -5.85913 0
M  V30 8667 C 883.915 0.0114838 -6.32599 0
M  V30 8668 C 882.579 -0.19478 -6.67216 0
M  V30 8669 H 881.849 0.366138 -0.644223 0
M  V30 8670 H 884.496 0.272563 -1.8955 0
M  V30 8671 H 882.801 2.70435 -2.835 0
M  V30 8672 H 884.498 2.47698 -3.15352 0
M  V30 8673 H 881.088 1.36781 -4.06188 0
M  V30 8674 H 885.272 0.84364 -4.89077 0
M  V30 8675 H 880.528 0.133368 -6.11255 0
M  V30 8676 H 884.702 -0.384111 -6.9534 0
M  V30 8677 H 882.329 -0.745201 -7.56539 0
M  V30 8678 N 883.904 1.48273 0.534124 0
M  V30 8679 C 885.152 1.55771 1.28762 0
M  V30 8680 C 885.473 0.231575 1.9362 0
M  V30 8681 O 884.743 -0.746533 1.81118 0
M  V30 8682 H 883.323 0.573851 0.47823 0
M  V30 8683 H 885.985 1.84712 0.621888 0
M  V30 8684 H 885.081 2.33657 2.06908 0
M  V30 8685 N 885.382 -0.782676 1.36792 0
M  V30 8686 C 886.659 -1.52939 1.21939 0
M  V30 8687 C 887.039 -2.10228 -0.191639 0
M  V30 8688 O 886.387 -1.94574 -1.19805 0
M  V30 8689 C 886.597 -2.61898 2.30674 0
M  V30 8690 C 887.945 -3.29598 2.67676 0
M  V30 8691 O 888.969 -2.72186 2.29768 0
M  V30 8692 O 887.828 -4.3337 3.32946 0
M  V30 8693 H 884.922 -0.676856 0.47518 0
M  V30 8694 H 887.468 -0.82058 1.48542 0
M  V30 8695 H 886.24 -2.17607 3.25212 0
M  V30 8696 H 885.863 -3.40391 2.05475 0
M  V30 8697 N 886.86 -1.21182 -1.00761 0
M  V30 8698 C 887.823 -0.970339 -2.07646 0
M  V30 8699 C 888.823 0.0576345 -1.60697 0
M  V30 8700 O 890.013 -0.179369 -1.73274 0
M  V30 8701 C 887.145 -0.462703 -3.37745 0
M  V30 8702 H 888.338 -1.91856 -2.30502 0
M  V30 8703 H 885.891 -1.02844 -1.17698 0
M  V30 8704 H 886.626 0.490559 -3.20568 0
M  V30 8705 H 886.411 -1.20416 -3.73152 0
M  V30 8706 H 887.901 -0.313531 -4.16421 0
M  V30 8707 N 888.338 1.20213 -1.01915 0
M  V30 8708 C 889.286 2.25125 -0.584936 0
M  V30 8709 C 890.28 1.65138 0.377602 0
M  V30 8710 O 891.486 1.78294 0.247245 0
M  V30 8711 H 887.861 0.732333 -0.170858 0
M  V30 8712 H 889.832 2.59075 -1.48063 0
M  V30 8713 C 888.581 3.47651 0.058389 0
M  V30 8714 H 887.904 3.9409 -0.673263 0
M  V30 8715 H 889.344 4.2275 0.325285 0
M  V30 8716 C 887.803 3.10725 1.30199 0
M  V30 8717 O 888.333 3.22491 2.39505 0
M  V30 8718 N 886.539 2.6525 1.18706 0
M  V30 8719 H 886.086 2.55875 0.297618 0
M  V30 8720 H 886.044 2.40913 2.02011 0
M  V30 8721 N 889.816 0.795718 1.36037 0
M  V30 8722 C 891.063 0.371024 1.99072 0
M  V30 8723 C 891.391 -1.05896 1.63145 0
M  V30 8724 O 890.646 -1.7474 0.881163 0
M  V30 8725 C 890.945 0.489038 3.54038 0
M  V30 8726 C 890.611 1.88075 4.09803 0
M  V30 8727 C 889.273 2.26152 4.24745 0
M  V30 8728 C 891.625 2.79174 4.40126 0
M  V30 8729 C 888.953 3.54718 4.67324 0
M  V30 8730 C 891.305 4.07175 4.8414 0
M  V30 8731 C 889.969 4.45266 4.97287 0
M  V30 8732 H 889.239 0.135767 0.728456 0
M  V30 8733 H 891.886 1.0144 1.62426 0
M  V30 8734 H 890.191 -0.237823 3.91078 0
M  V30 8735 H 891.888 0.141374 4.00751 0
M  V30 8736 H 888.478 1.57488 3.98617 0
M  V30 8737 H 892.662 2.51009 4.28145 0
M  V30 8738 H 887.918 3.84093 4.75691 0
M  V30 8739 H 892.092 4.77875 5.06565 0
M  V30 8740 H 889.719 5.44943 5.30038 0
M  V30 8741 N 891.294 -1.47756 0.548274 0
M  V30 8742 C 892.571 -1.9555 -0.0443603 0
M  V30 8743 C 892.951 -1.49079 -1.49462 0
M  V30 8744 O 892.299 -0.725538 -2.16675 0
M  V30 8745 C 892.509 -3.48879 0.0918425 0
M  V30 8746 C 893.857 -4.2456 -0.0580879 0
M  V30 8747 O 894.881 -3.56195 0.018946 0
M  V30 8748 O 893.74 -5.46048 -0.222261 0
M  V30 8749 H 890.834 -0.824106 -0.0691235 0
M  V30 8750 H 893.38 -1.58196 0.614166 0
M  V30 8751 H 892.152 -3.7548 1.10137 0
M  V30 8752 H 891.775 -3.92975 -0.604704 0
M  V30 8753 N 892.772 -0.284283 -1.55015 0
M  V30 8754 C 894.183 0.211681 -1.85496 0
M  V30 8755 C 894.534 1.54735 -1.2063 0
M  V30 8756 O 893.659 2.10594 -0.497918 0
M  V30 8757 C 894.254 0.390864 -3.36538 0
M  V30 8758 C 892.813 0.831055 -3.67111 0
M  V30 8759 C 891.96 -0.0703581 -2.77211 0
M  V30 8760 H 894.911 -0.505803 -1.50424 0
M  V30 8761 H 894.932 1.22803 -3.60138 0
M  V30 8762 H 894.444 -0.581409 -3.8372 0
M  V30 8763 H 892.545 1.81447 -3.25434 0
M  V30 8764 H 892.658 0.662026 -4.74504 0
M  V30 8765 H 891.022 0.447528 -2.50737 0
M  V30 8766 H 891.805 -1.03868 -3.2721 0
M  V30 8767 N 894.251 1.57596 -0.0117121 0
M  V30 8768 C 895.181 2.12188 0.9746 0
M  V30 8769 C 896.162 1.03379 1.35081 0
M  V30 8770 O 897.347 1.31123 1.4325 0
M  V30 8771 C 894.477 2.63477 2.26268 0
M  V30 8772 C 893.431 3.76917 2.02774 0
M  V30 8773 C 892.757 4.14566 3.37697 0
M  V30 8774 C 894.057 5.03715 1.38089 0
M  V30 8775 H 895.751 2.9485 0.520007 0
M  V30 8776 H 893.297 1.41836 0.248685 0
M  V30 8777 H 895.25 3.00299 2.95633 0
M  V30 8778 H 893.974 1.77953 2.73862 0
M  V30 8779 H 892.633 3.40507 1.35832 0
M  V30 8780 H 892.281 3.26048 3.83016 0
M  V30 8781 H 891.981 4.91 3.22789 0
M  V30 8782 H 893.505 4.53956 4.08358 0
M  V30 8783 H 894.919 5.38233 1.97428 0
M  V30 8784 H 893.316 5.85032 1.33634 0
M  V30 8785 H 894.386 4.83624 0.351575 0
M  V30 8786 N 895.729 -0.261212 1.5542 0
M  V30 8787 C 896.957 -1.00916 1.8062 0
M  V30 8788 C 897.372 -1.79494 0.585444 0
M  V30 8789 O 896.729 -1.76974 -0.445702 0
M  V30 8790 C 896.78 -1.95841 3.03856 0
M  V30 8791 O 896.501 -1.20445 4.21218 0
M  V30 8792 C 898.002 -2.82352 3.41749 0
M  V30 8793 H 895.222 -0.297596 0.601397 0
M  V30 8794 H 897.766 -0.288427 2.02456 0
M  V30 8795 H 895.921 -2.63361 2.84112 0
M  V30 8796 H 896.335 -1.84528 4.90968 0
M  V30 8797 H 897.809 -3.44733 4.31118 0
M  V30 8798 H 898.286 -3.5273 2.61683 0
M  V30 8799 H 898.892 -2.20306 3.63793 0
M  V30 8800 N 897.207 -1.48554 -0.526253 0
M  V30 8801 C 898.432 -1.60686 -1.31129 0
M  V30 8802 C 898.857 -0.268701 -1.86171 0
M  V30 8803 O 898.215 0.760167 -1.64594 0
M  V30 8804 C 898.263 -2.65938 -2.43536 0
M  V30 8805 O 897.367 -2.23356 -3.46678 0
M  V30 8806 H 896.708 -0.538691 -0.388211 0
M  V30 8807 H 899.238 -1.94567 -0.632826 0
M  V30 8808 H 899.248 -2.87327 -2.89668 0
M  V30 8809 H 897.923 -3.63085 -2.02835 0
M  V30 8810 H 896.5 -2.12196 -3.06639 0
M  V30 8811 N 898.685 0.775411 -1.37205 0
M  V30 8812 C 899.91 1.5696 -1.35567 0
M  V30 8813 C 900.335 1.88012 0.0575554 0
M  V30 8814 O 899.693 1.48954 1.03355 0
M  V30 8815 C 899.741 2.85886 -2.19776 0
M  V30 8816 O 898.845 3.80103 -1.59987 0
M  V30 8817 H 898.186 0.475583 -0.463375 0
M  V30 8818 H 900.716 0.96001 -1.80679 0
M  V30 8819 H 900.726 3.35024 -2.32859 0
M  V30 8820 H 899.401 2.62613 -3.22502 0
M  V30 8821 H 897.978 3.38736 -1.55924 0
M  V30 8822 N 900.163 1.21714 1.00117 0
M  V30 8823 C 901.126 0.981338 2.07129 0
M  V30 8824 C 902.126 -0.0491116 1.60725 0
M  V30 8825 O 903.316 0.188555 1.73177 0
M  V30 8826 C 900.448 0.480608 3.37495 0
M  V30 8827 H 901.641 1.93075 2.29482 0
M  V30 8828 H 899.194 1.03467 1.17151 0
M  V30 8829 H 899.929 -0.473552 3.20824 0
M  V30 8830 H 899.714 1.22393 3.72508 0
M  V30 8831 H 901.204 0.33561 4.16249 0
M  V30 8832 N 901.641 -1.19671 1.02551 0
M  V30 8833 C 902.918 -1.85014 0.634771 0
M  V30 8834 C 903.298 -1.91574 -0.886706 0
M  V30 8835 O 902.646 -1.43022 -1.78205 0
M  V30 8836 C 902.856 -3.24167 1.29292 0
M  V30 8837 C 904.204 -4.00363 1.41402 0
M  V30 8838 O 905.228 -3.33553 1.24983 0
M  V30 8839 O 904.087 -5.2003 1.6802 0
M  V30 8840 H 901.181 -0.797147 0.220196 0
M  V30 8841 H 903.727 -1.27188 1.12345 0
M  V30 8842 H 902.499 -3.14208 2.33215 0
M  V30 8843 H 902.122 -3.89634 0.791895 0
M  V30 8844 N 903.119 -0.802921 -1.35613 0
M  V30 8845 C 904.067 -0.198783 -2.31749 0
M  V30 8846 C 905.061 0.649416 -1.56458 0
M  V30 8847 O 906.267 0.542989 -1.71615 0
M  V30 8848 H 902.642 -0.0455177 -0.750621 0
M  V30 8849 H 904.613 -1.02479 -2.80251 0
M  V30 8850 C 903.362 0.641066 -3.41739 0
M  V30 8851 H 902.685 -0.00226244 -3.998 0
M  V30 8852 H 904.125 1.03022 -4.11294 0
M  V30 8853 C 902.584 1.80505 -2.84464 0
M  V30 8854 O 903.114 2.90235 -2.77717 0
M  V30 8855 N 901.32 1.61542 -2.41563 0
M  V30 8856 H 900.867 0.722863 -2.4725 0
M  V30 8857 H 900.825 2.39581 -2.03589 0
M  V30 8858 N 904.597 1.47463 -0.556102 0
M  V30 8859 C 905.527 2.32801 0.180497 0
M  V30 8860 C 906.508 1.43721 0.909848 0
M  V30 8861 O 907.693 1.72578 0.89053 0
M  V30 8862 C 904.823 3.25478 1.21167 0
M  V30 8863 C 903.777 4.2379 0.598846 0
M  V30 8864 C 903.103 5.05783 1.73457 0
M  V30 8865 C 904.403 5.20387 -0.446659 0
M  V30 8866 H 906.097 2.94636 -0.531956 0
M  V30 8867 H 903.643 1.41683 -0.257267 0
M  V30 8868 H 905.596 3.8402 1.73513 0
M  V30 8869 H 904.32 2.61695 1.95405 0
M  V30 8870 H 902.979 3.66472 0.0966897 0
M  V30 8871 H 902.627 4.38405 2.46596 0
M  V30 8872 H 902.327 5.72343 1.33031 0
M  V30 8873 H 903.851 5.67183 2.26131 0
M  V30 8874 H 905.265 5.73299 -0.00930019 0
M  V30 8875 H 903.662 5.95143 -0.769735 0
M  V30 8876 H 904.732 4.65932 -1.34295 0
M  V30 8877 N 906.075 0.2925 1.54862 0
M  V30 8878 C 907.303 -0.322113 2.04377 0
M  V30 8879 C 907.718 -1.48164 1.17016 0
M  V30 8880 O 907.075 -1.81466 0.19395 0
M  V30 8881 C 907.126 -0.786506 3.5284 0
M  V30 8882 O 906.847 0.326863 4.36879 0
M  V30 8883 C 908.348 -1.46715 4.18318 0
M  V30 8884 H 905.568 -0.0712074 0.667211 0
M  V30 8885 H 908.112 0.429657 1.99935 0
M  V30 8886 H 906.267 -1.48832 3.5767 0
M  V30 8887 H 906.681 -0.0331558 5.2449 0
M  V30 8888 H 908.155 -1.74333 5.23748 0
M  V30 8889 H 908.632 -2.40443 3.67538 0
M  V30 8890 H 909.238 -0.808735 4.1754 0
M  V30 8891 N 907.553 -1.57587 0.0200696 0
M  V30 8892 C 908.5 -2.09667 -0.964791 0
M  V30 8893 C 909.47 -0.99664 -1.32877 0
M  V30 8894 O 910.655 -1.2703 -1.42366 0
M  V30 8895 C 907.795 -2.62101 -2.24493 0
M  V30 8896 C 906.908 -3.8608 -1.93821 0
M  V30 8897 C 906.043 -4.26939 -3.16064 0
M  V30 8898 C 905.082 -5.43701 -2.81169 0
M  V30 8899 N 904.219 -5.79759 -3.9601 0
M  V30 8900 H 909.059 -2.93538 -0.513751 0
M  V30 8901 H 906.596 -1.45096 -0.242 0
M  V30 8902 H 908.554 -2.90587 -2.99358 0
M  V30 8903 H 907.184 -1.81074 -2.6723 0
M  V30 8904 H 906.236 -3.64378 -1.09237 0
M  V30 8905 H 907.548 -4.71028 -1.64115 0
M  V30 8906 H 906.702 -4.56814 -3.99257 0
M  V30 8907 H 905.441 -3.40739 -3.48924 0
M  V30 8908 H 904.446 -5.13529 -1.96387 0
M  V30 8909 H 905.671 -6.31593 -2.49535 0
M  V30 8910 H 903.617 -4.96516 -4.28729 0
M  V30 8911 H 903.534 -6.59327 -3.69896 0
M  V30 8912 H 904.802 -6.14235 -4.79933 0
M  V30 8913 N 909.032 0.252966 -1.55557 0
M  V30 8914 C 909.964 1.33585 -1.86246 0
M  V30 8915 C 910.977 1.44584 -0.748291 0
M  V30 8916 O 912.166 1.46042 -1.02635 0
M  V30 8917 C 909.266 2.71509 -2.02821 0
M  V30 8918 C 908.439 2.82853 -3.33636 0
M  V30 8919 C 907.498 4.01581 -3.40028 0
M  V30 8920 O 906.524 3.91394 -4.13278 0
M  V30 8921 N 907.726 5.14474 -2.6888 0
M  V30 8922 H 910.491 1.07596 -2.7972 0
M  V30 8923 H 908.052 0.443075 -1.55719 0
M  V30 8924 H 910.044 3.49262 -2.04445 0
M  V30 8925 H 908.614 2.90232 -1.1612 0
M  V30 8926 H 907.834 1.91823 -3.4438 0
M  V30 8927 H 909.122 2.87378 -4.19871 0
M  V30 8928 H 908.52 5.25641 -2.09087 0
M  V30 8929 H 907.077 5.90385 -2.76204 0
M  V30 8930 N 910.51 1.48831 0.518367 0
M  V30 8931 C 911.458 1.64678 1.64268 0
M  V30 8932 C 912.452 0.512967 1.61447 0
M  V30 8933 O 913.658 0.692063 1.66164 0
M  V30 8934 H 910.033 0.518964 0.544224 0
M  V30 8935 H 912.004 2.59083 1.4805 0
M  V30 8936 C 910.753 1.71449 3.0249 0
M  V30 8937 H 910.076 2.58061 3.0536 0
M  V30 8938 H 911.516 1.86577 3.80743 0
M  V30 8939 C 909.975 0.455584 3.33805 0
M  V30 8940 O 910.505 -0.426428 3.9943 0
M  V30 8941 N 908.711 0.323763 2.88791 0
M  V30 8942 H 908.258 1.04249 2.35563 0
M  V30 8943 H 908.216 -0.517514 3.10112 0
M  V30 8944 N 911.988 -0.768124 1.37614 0
M  V30 8945 C 913.265 -1.51637 1.23554 0
M  V30 8946 C 913.645 -2.1042 -0.169331 0
M  V30 8947 O 912.993 -1.95834 -1.17735 0
M  V30 8948 C 913.203 -2.59436 2.33439 0
M  V30 8949 C 914.551 -3.2674 2.71157 0
M  V30 8950 O 915.575 -2.69733 2.32642 0
M  V30 8951 O 914.434 -4.29814 3.37524 0
M  V30 8952 H 911.528 -0.671778 0.482332 0
M  V30 8953 H 914.074 -0.804779 1.49403 0
M  V30 8954 H 912.846 -2.14146 3.27502 0
M  V30 8955 H 912.469 -3.38192 2.09073 0
M  V30 8956 N 913.466 -1.22244 -0.994698 0
M  V30 8957 C 914.743 -0.954459 -1.70732 0
M  V30 8958 C 915.123 0.530945 -2.04314 0
M  V30 8959 O 914.471 1.49851 -1.72502 0
M  V30 8960 C 914.681 -1.85016 -2.95922 0
M  V30 8961 C 916.029 -2.10517 -3.68738 0
M  V30 8962 O 917.053 -1.82449 -3.05926 0
M  V30 8963 O 915.912 -2.58044 -4.81742 0
M  V30 8964 H 913.006 -0.35879 -0.745116 0
M  V30 8965 H 915.552 -1.33221 -1.0512 0
M  V30 8966 H 914.324 -2.85498 -2.67594 0
M  V30 8967 H 913.947 -1.47388 -3.69273 0
M  V30 8968 N 914.944 1.19125 -1.03184 0
M  V30 8969 C 915.907 2.20662 -0.619766 0
M  V30 8970 C 916.907 1.57621 0.318179 0
M  V30 8971 O 918.097 1.73885 0.104783 0
M  V30 8972 C 915.229 3.40774 0.0926696 0
M  V30 8973 H 916.422 2.58633 -1.5182 0
M  V30 8974 H 913.975 1.32855 -0.823364 0
M  V30 8975 H 914.71 3.08324 1.00531 0
M  V30 8976 H 914.495 3.87766 -0.581344 0
M  V30 8977 H 915.985 4.15977 0.367792 0
M  V30 8978 N 916.422 0.810101 1.35185 0
M  V30 8979 C 917.652 0.404109 2.02609 0
M  V30 8980 C 918.06 -0.990748 1.61186 0
M  V30 8981 O 917.403 -1.65038 0.80674 0
M  V30 8982 C 917.465 0.412047 3.57131 0
M  V30 8983 C 917.129 1.75802 4.21832 0
M  V30 8984 C 918.126 2.71687 4.43263 0
M  V30 8985 C 915.811 2.04299 4.58876 0
M  V30 8986 C 917.805 3.9425 5.00845 0
M  V30 8987 C 915.492 3.27125 5.16171 0
M  V30 8988 C 916.49 4.21918 5.37098 0
M  V30 8989 O 916.178 5.42576 5.93184 0
M  V30 8990 H 915.91 0.161914 0.656323 0
M  V30 8991 H 918.464 1.09605 1.73712 0
M  V30 8992 H 916.694 -0.336509 3.85233 0
M  V30 8993 H 918.383 0.0278817 4.0589 0
M  V30 8994 H 919.149 2.50964 4.15021 0
M  V30 8995 H 915.028 1.31324 4.41899 0
M  V30 8996 H 918.572 4.68251 5.17094 0
M  V30 8997 H 914.469 3.47718 5.43841 0
M  V30 8998 H 915.237 5.43921 6.11631 0
M  V30 8999 N 917.9 -1.47166 0.563914 0
M  V30 9000 C 918.847 -2.30097 -0.180013 0
M  V30 9001 C 919.817 -1.39473 -0.902019 0
M  V30 9002 O 921.002 -1.68432 -0.896396 0
M  V30 9003 C 918.142 -3.23573 -1.19978 0
M  V30 9004 C 917.255 -4.2929 -0.483149 0
M  V30 9005 C 916.39 -5.0991 -1.48879 0
M  V30 9006 C 915.429 -6.07395 -0.757513 0
M  V30 9007 N 914.566 -6.8095 -1.71031 0
M  V30 9008 H 919.406 -2.93189 0.53329 0
M  V30 9009 H 916.943 -1.4451 0.274814 0
M  V30 9010 H 918.901 -3.76196 -1.80368 0
M  V30 9011 H 917.531 -2.6233 -1.88103 0
M  V30 9012 H 916.583 -3.79671 0.235414 0
M  V30 9013 H 917.895 -4.9872 0.0894075 0
M  V30 9014 H 917.049 -5.66717 -2.16603 0
M  V30 9015 H 915.788 -4.40397 -2.09527 0
M  V30 9016 H 914.793 -5.4976 -0.0663841 0
M  V30 9017 H 916.018 -6.78919 -0.156685 0
M  V30 9018 H 913.964 -6.14162 -2.30524 0
M  V30 9019 H 913.881 -7.46574 -1.19007 0
M  V30 9020 H 915.149 -7.42326 -2.37849 0
M  V30 9021 N 919.378 -0.300708 -1.54705 0
M  V30 9022 C 920.626 0.308044 -1.99739 0
M  V30 9023 C 920.947 1.54433 -1.19061 0
M  V30 9024 O 920.217 1.93794 -0.286507 0
M  V30 9025 H 918.797 0.116811 -0.73781 0
M  V30 9026 H 921.459 -0.41197 -1.90496 0
M  V30 9027 H 920.555 0.580287 -3.06658 0
M  V30 9028 N 920.856 1.57574 -0.0284266 0
M  V30 9029 C 921.786 2.1321 0.952039 0
M  V30 9030 C 922.767 1.04806 1.33977 0
M  V30 9031 O 923.952 1.32635 1.41851 0
M  V30 9032 C 921.082 2.65862 2.23461 0
M  V30 9033 C 920.036 3.79047 1.98765 0
M  V30 9034 C 919.362 4.18124 3.33281 0
M  V30 9035 C 920.662 5.05151 1.32739 0
M  V30 9036 H 922.356 2.95385 0.488705 0
M  V30 9037 H 919.902 1.42092 0.233628 0
M  V30 9038 H 921.855 3.03417 2.92431 0
M  V30 9039 H 920.579 1.80848 2.71959 0
M  V30 9040 H 919.238 3.41929 1.32213 0
M  V30 9041 H 918.886 3.30092 3.79537 0
M  V30 9042 H 918.586 4.94396 3.17563 0
M  V30 9043 H 920.11 4.58262 4.0352 0
M  V30 9044 H 921.524 5.40297 1.91708 0
M  V30 9045 H 919.921 5.86416 1.27421 0
M  V30 9046 H 920.991 4.83969 0.300261 0
M  V30 9047 N 922.334 -0.244713 1.55689 0
M  V30 9048 C 923.562 -0.989944 1.8168 0
M  V30 9049 C 923.977 -1.78863 0.604449 0
M  V30 9050 O 923.334 -1.77437 -0.426907 0
M  V30 9051 C 923.385 -1.92607 3.05916 0
M  V30 9052 O 923.106 -1.1597 4.22472 0
M  V30 9053 C 924.607 -2.78711 3.44724 0
M  V30 9054 H 921.827 -0.2912 0.604519 0
M  V30 9055 H 924.371 -0.266938 2.0275 0
M  V30 9056 H 922.526 -2.60333 2.8689 0
M  V30 9057 H 922.94 -1.79311 4.92898 0
M  V30 9058 H 924.414 -3.40141 4.34751 0
M  V30 9059 H 924.891 -3.49935 2.6541 0
M  V30 9060 H 925.497 -2.16435 3.66109 0
M  V30 9061 N 923.813 -1.49104 -0.510467 0
M  V30 9062 C 924.761 -1.65547 -1.63392 0
M  V30 9063 C 925.755 -0.521522 -1.61172 0
M  V30 9064 O 926.961 -0.700865 -1.65795 0
M  V30 9065 H 923.336 -0.521843 -0.541464 0
M  V30 9066 H 925.307 -2.59864 -1.46673 0
M  V30 9067 C 924.056 -1.73051 -3.01577 0
M  V30 9068 H 923.379 -2.59676 -3.03987 0
M  V30 9069 H 924.819 -1.88594 -3.79748 0
M  V30 9070 C 923.278 -0.47328 -3.33559 0
M  V30 9071 O 923.808 0.405239 -3.99651 0
M  V30 9072 N 922.014 -0.339074 -2.88615 0
M  V30 9073 H 921.561 -1.05497 -2.35007 0
M  V30 9074 H 921.519 0.501061 -3.10382 0
M  V30 9075 N 925.291 0.760815 -1.38019 0
M  V30 9076 C 926.221 1.88811 -1.37377 0
M  V30 9077 C 927.202 1.68388 -0.240737 0
M  V30 9078 O 928.387 1.89086 -0.442739 0
M  V30 9079 C 925.517 3.26244 -1.1909 0
M  V30 9080 C 924.471 3.61254 -2.29521 0
M  V30 9081 C 923.797 4.97346 -1.96345 0
M  V30 9082 C 925.097 3.66874 -3.71753 0
M  V30 9083 H 926.791 1.89606 -2.31711 0
M  V30 9084 H 924.337 0.910818 -1.11535 0
M  V30 9085 H 926.29 4.04755 -1.17267 0
M  V30 9086 H 925.014 3.2591 -0.212152 0
M  V30 9087 H 923.673 2.85057 -2.30517 0
M  V30 9088 H 923.321 4.93564 -0.969728 0
M  V30 9089 H 923.021 5.21739 -2.703 0
M  V30 9090 H 924.545 5.78244 -1.96129 0
M  V30 9091 H 925.959 4.35514 -3.72828 0
M  V30 9092 H 924.356 4.02772 -4.44853 0
M  V30 9093 H 925.426 2.67273 -4.0459 0
M  V30 9094 N 926.769 1.22769 0.988202 0
M  V30 9095 C 928.046 0.9635 1.70223 0
M  V30 9096 C 928.426 -0.520102 2.04593 0
M  V30 9097 O 927.774 -1.48934 1.73295 0
M  V30 9098 C 927.984 1.86583 2.94937 0
M  V30 9099 C 929.332 2.12469 3.67616 0
M  V30 9100 O 930.356 1.84069 3.04954 0
M  V30 9101 O 929.215 2.60595 4.80367 0
M  V30 9102 H 926.309 0.362737 0.743203 0
M  V30 9103 H 928.855 1.33776 1.04412 0
M  V30 9104 H 927.627 2.86913 2.66077 0
M  V30 9105 H 927.25 1.49344 3.68486 0
M  V30 9106 N 928.247 -1.18576 1.03814 0
M  V30 9107 C 929.157 -2.25778 0.637311 0
M  V30 9108 C 930.173 -1.7074 -0.335248 0
M  V30 9109 O 931.349 -2.00494 -0.19081 0
M  V30 9110 C 928.414 -3.467 0.00386953 0
M  V30 9111 C 927.475 -4.16881 1.02511 0
M  V30 9112 C 926.708 -5.32031 0.421802 0
M  V30 9113 O 926.931 -5.65142 -0.772699 0
M  V30 9114 O 925.865 -5.90826 1.14925 0
M  V30 9115 H 929.691 -2.62323 1.53037 0
M  V30 9116 H 927.276 -1.25609 0.80887 0
M  V30 9117 H 929.158 -4.19953 -0.348873 0
M  V30 9118 H 927.833 -3.11983 -0.863047 0
M  V30 9119 H 926.74 -3.45707 1.4296 0
M  V30 9120 H 928.073 -4.55592 1.86271 0
M  V30 9121 N 929.725 -0.817259 -1.34754 0
M  V30 9122 C 930.672 -0.233108 -2.2962 0
M  V30 9123 C 931.642 0.638902 -1.53321 0
M  V30 9124 O 932.827 0.581739 -1.81715 0
M  V30 9125 C 929.967 0.603659 -3.39779 0
M  V30 9126 C 929.08 -0.289967 -4.31026 0
M  V30 9127 C 928.215 0.555825 -5.28284 0
M  V30 9128 C 927.254 -0.337539 -6.11169 0
M  V30 9129 N 926.391 0.468847 -7.00533 0
M  V30 9130 H 931.231 -1.04747 -2.78984 0
M  V30 9131 H 928.768 -0.528056 -1.37295 0
M  V30 9132 H 930.726 1.10407 -4.02326 0
M  V30 9133 H 929.356 1.38319 -2.91664 0
M  V30 9134 H 928.408 -0.908552 -3.69391 0
M  V30 9135 H 929.72 -0.977136 -4.89135 0
M  V30 9136 H 928.874 1.12094 -5.96255 0
M  V30 9137 H 927.613 1.27652 -4.70698 0
M  V30 9138 H 926.618 -0.914839 -5.42135 0
M  V30 9139 H 927.843 -1.05626 -6.70835 0
M  V30 9140 H 925.789 1.17332 -6.45422 0
M  V30 9141 H 925.706 -0.160052 -7.55831 0
M  V30 9142 H 926.974 1.01689 -7.72839 0
M  V30 9143 N 931.203 1.46865 -0.571711 0
M  V30 9144 C 932.451 2.0203 -0.0530022 0
M  V30 9145 C 932.772 1.44687 1.30731 0
M  V30 9146 O 932.042 0.627429 1.85581 0
M  V30 9147 H 930.622 0.746815 -0.0166035 0
M  V30 9148 H 933.284 1.80099 -0.745003 0
M  V30 9149 H 932.38 3.12091 0.0242538 0
M  V30 9150 N 932.681 0.308908 1.54543 0
M  V30 9151 C 933.909 -0.300418 2.04707 0
M  V30 9152 C 934.324 -1.46915 1.18581 0
M  V30 9153 O 933.681 -1.81251 0.213186 0
M  V30 9154 C 933.732 -0.749038 3.53655 0
M  V30 9155 O 933.453 0.373181 4.36508 0
M  V30 9156 C 934.954 -1.4227 4.1985 0
M  V30 9157 H 932.174 -0.0641267 0.667929 0
M  V30 9158 H 934.718 0.450839 1.99469 0
M  V30 9159 H 932.873 -1.4503 3.59228 0
M  V30 9160 H 933.287 0.0224752 5.24495 0
M  V30 9161 H 934.761 -1.68768 5.25568 0
M  V30 9162 H 935.238 -2.36531 3.70067 0
M  V30 9163 H 935.844 -0.764404 4.18374 0
M  V30 9164 N 934.159 -1.57557 0.0367827 0
M  V30 9165 C 935.436 -1.83427 -0.679261 0
M  V30 9166 C 935.816 -0.922274 -1.89888 0
M  V30 9167 O 935.164 0.02025 -2.28491 0
M  V30 9168 C 935.374 -3.32823 -1.05022 0
M  V30 9169 C 936.722 -3.99486 -1.43861 0
M  V30 9170 O 937.746 -3.37364 -1.14297 0
M  V30 9171 O 936.605 -5.0899 -1.98977 0
M  V30 9172 H 933.699 -0.756581 -0.333936 0
M  V30 9173 H 936.245 -1.69575 0.0650494 0
M  V30 9174 H 935.017 -3.90874 -0.182509 0
M  V30 9175 H 934.64 -3.5181 -1.85244 0
M  V30 9176 N 935.637 0.236453 -1.55816 0
M  V30 9177 C 936.584 1.29289 -1.91188 0
M  V30 9178 C 937.554 1.47315 -0.767301 0
M  V30 9179 O 938.739 1.61128 -1.02189 0
M  V30 9180 C 935.879 2.64126 -2.22107 0
M  V30 9181 C 934.992 2.54022 -3.49423 0
M  V30 9182 C 934.127 3.81282 -3.69861 0
M  V30 9183 C 933.166 3.65839 -4.90743 0
M  V30 9184 N 932.303 4.85014 -5.07647 0
M  V30 9185 H 937.143 0.98424 -2.81277 0
M  V30 9186 H 934.68 0.474722 -1.39229 0
M  V30 9187 H 936.638 3.42626 -2.3804 0
M  V30 9188 H 935.268 2.93118 -1.35209 0
M  V30 9189 H 934.32 1.67036 -3.41765 0
M  V30 9190 H 935.632 2.38525 -4.38072 0
M  V30 9191 H 934.786 4.68226 -3.8581 0
M  V30 9192 H 933.525 3.99688 -2.79465 0
M  V30 9193 H 932.53 2.77279 -4.74759 0
M  V30 9194 H 933.755 3.48918 -5.82609 0
M  V30 9195 H 931.701 5.03762 -4.20191 0
M  V30 9196 H 931.618 4.72188 -5.90402 0
M  V30 9197 H 932.886 5.73427 -5.28017 0
M  V30 9198 N 937.115 1.49373 0.502552 0
M  V30 9199 C 938.047 1.62045 1.62093 0
M  V30 9200 C 939.06 0.503221 1.54827 0
M  V30 9201 O 940.249 0.775208 1.60788 0
M  V30 9202 C 937.349 1.55971 3.00876 0
M  V30 9203 C 936.522 2.832 3.33341 0
M  V30 9204 C 935.581 2.702 4.51529 0
M  V30 9205 O 934.607 3.44132 4.53389 0
M  V30 9206 N 935.809 1.81642 5.5135 0
M  V30 9207 H 938.574 2.58501 1.51649 0
M  V30 9208 H 936.135 1.46442 0.690396 0
M  V30 9209 H 938.127 1.4493 3.77859 0
M  V30 9210 H 936.697 0.673795 3.05252 0
M  V30 9211 H 935.917 3.08604 2.4527 0
M  V30 9212 H 937.205 3.67551 3.51829 0
M  V30 9213 H 936.603 1.20829 5.52645 0
M  V30 9214 H 935.16 1.76524 6.27441 0
M  V30 9215 N 938.594 -0.753485 1.38421 0
M  V30 9216 C 939.822 -1.54272 1.37868 0
M  V30 9217 C 940.237 -1.88774 -0.0315155 0
M  V30 9218 O 939.594 -1.52785 -0.998148 0
M  V30 9219 C 939.645 -2.84179 2.23438 0
M  V30 9220 O 939.366 -2.51149 3.58965 0
M  V30 9221 C 940.867 -3.78316 2.31067 0
M  V30 9222 H 938.087 -0.47735 0.47157 0
M  V30 9223 H 940.631 -0.932509 1.82001 0
M  V30 9224 H 938.786 -3.41577 1.82767 0
M  V30 9225 H 939.2 -3.34466 4.04021 0
M  V30 9226 H 940.674 -4.66418 2.95226 0
M  V30 9227 H 941.151 -4.18757 1.32436 0
M  V30 9228 H 941.757 -3.26842 2.72129 0
M  V30 9229 N 940.072 -1.23292 -0.981677 0
M  V30 9230 C 941.483 -1.05936 -1.53735 0
M  V30 9231 C 941.834 0.373695 -1.92608 0
M  V30 9232 O 940.959 1.26024 -1.75917 0
M  V30 9233 C 941.554 -1.91682 -2.79363 0
M  V30 9234 C 940.113 -1.78591 -3.31334 0
M  V30 9235 C 939.26 -1.87463 -2.04335 0
M  V30 9236 H 942.211 -1.36973 -0.801505 0
M  V30 9237 H 942.232 -1.44085 -3.52164 0
M  V30 9238 H 941.744 -2.95975 -2.51039 0
M  V30 9239 H 939.845 -0.770755 -3.64541 0
M  V30 9240 H 939.958 -2.61902 -4.01179 0
M  V30 9241 H 938.322 -1.3103 -2.18411 0
M  V30 9242 H 939.105 -2.9331 -1.78394 0
M  V30 9243 N 941.55 1.18024 -1.04442 0
M  V30 9244 C 942.796 1.88377 -0.751133 0
M  V30 9245 C 943.129 1.80377 0.719571 0
M  V30 9246 O 942.404 1.20662 1.52548 0
M  V30 9247 C 942.687 3.38708 -1.22265 0
M  V30 9248 C 942.54 3.55499 -2.75574 0
M  V30 9249 C 943.859 4.32475 -0.815688 0
M  V30 9250 H 940.978 0.684037 -0.27434 0
M  V30 9251 H 943.62 1.38837 -1.29709 0
M  V30 9252 H 941.77 3.8103 -0.758192 0
M  V30 9253 H 943.442 3.22244 -3.30086 0
M  V30 9254 H 941.685 2.98028 -3.15217 0
M  V30 9255 H 942.356 4.60994 -3.03625 0
M  V30 9256 H 944.832 3.97953 -1.21542 0
M  V30 9257 H 943.708 5.36213 -1.17331 0
M  V30 9258 H 943.969 4.41207 0.280901 0
M  V30 9259 N 943.028 0.824394 1.34319 0
M  V30 9260 C 944.274 0.413779 1.98534 0
M  V30 9261 C 944.607 -1.02089 1.65201 0
M  V30 9262 O 943.882 -1.71129 0.924402 0
M  V30 9263 C 944.165 0.61801 3.54757 0
M  V30 9264 C 944.018 2.0989 3.97827 0
M  V30 9265 C 945.337 0.0549041 4.40066 0
M  V30 9266 H 942.456 0.151815 0.721194 0
M  V30 9267 H 945.098 1.03723 1.5919 0
M  V30 9268 H 943.248 0.0873107 3.88402 0
M  V30 9269 H 944.92 2.69335 3.74508 0
M  V30 9270 H 943.163 2.58881 3.48085 0
M  V30 9271 H 943.834 2.1926 5.06586 0
M  V30 9272 H 946.31 0.508348 4.12983 0
M  V30 9273 H 945.186 0.227595 5.48428 0
M  V30 9274 H 945.447 -1.04025 4.29687 0
M  V30 9275 N 944.506 -1.46559 0.579492 0
M  V30 9276 C 945.469 -2.28739 -0.145371 0
M  V30 9277 C 946.469 -1.38211 -0.821854 0
M  V30 9278 O 947.659 -1.6062 -0.674302 0
M  V30 9279 C 944.791 -3.18507 -1.21515 0
M  V30 9280 H 945.984 -2.94301 0.576786 0
M  V30 9281 H 943.537 -1.52616 0.337327 0
M  V30 9282 H 944.272 -2.57685 -1.96899 0
M  V30 9283 H 944.057 -3.85157 -0.734616 0
M  V30 9284 H 945.547 -3.80369 -1.72363 0
M  V30 9285 N 945.984 -0.3171 -1.54377 0
M  V30 9286 C 947.261 0.341348 -1.92598 0
M  V30 9287 C 947.641 1.70402 -1.24605 0
M  V30 9288 O 946.989 2.25191 -0.387448 0
M  V30 9289 C 947.199 0.440003 -3.46215 0
M  V30 9290 C 948.547 0.703327 -4.18734 0
M  V30 9291 O 949.571 0.523181 -3.52337 0
M  V30 9292 O 948.43 1.05042 -5.3631 0
M  V30 9293 H 945.524 0.193696 -0.803997 0
M  V30 9294 H 948.07 -0.366341 -1.65699 0
M  V30 9295 H 946.842 -0.517299 -3.87866 0
M  V30 9296 H 946.465 1.19553 -3.792 0
M  V30 9297 N 947.462 1.57535 -0.0451378 0
M  V30 9298 C 948.41 2.12351 0.949205 0
M  V30 9299 C 949.404 1.05386 1.32628 0
M  V30 9300 O 950.61 1.23802 1.30664 0
M  V30 9301 H 946.985 0.678648 0.323945 0
M  V30 9302 H 948.956 2.94806 0.461718 0
M  V30 9303 C 947.705 2.67862 2.21687 0
M  V30 9304 H 947.028 3.49826 1.93551 0
M  V30 9305 H 948.468 3.09844 2.89435 0
M  V30 9306 C 946.927 1.61353 2.95748 0
M  V30 9307 O 947.457 1.02276 3.88462 0
M  V30 9308 N 945.663 1.33017 2.5837 0
M  V30 9309 H 945.21 1.81246 1.83051 0
M  V30 9310 H 945.168 0.619812 3.0823 0
M  V30 9311 N 948.94 -0.228186 1.55939 0
M  V30 9312 C 950.168 -0.970618 1.8272 0
M  V30 9313 C 950.583 -1.78212 0.623385 0
M  V30 9314 O 949.94 -1.77879 -0.408063 0
M  V30 9315 C 949.991 -1.89352 3.07942 0
M  V30 9316 O 949.712 -1.11483 4.23678 0
M  V30 9317 C 951.213 -2.75039 3.47661 0
M  V30 9318 H 948.433 -0.284772 0.607574 0
M  V30 9319 H 950.977 -0.245419 2.03022 0
M  V30 9320 H 949.132 -2.57275 2.89635 0
M  V30 9321 H 949.546 -1.74073 4.94772 0
M  V30 9322 H 951.02 -3.35511 4.38334 0
M  V30 9323 H 951.497 -3.471 2.69106 0
M  V30 9324 H 952.103 -2.1254 3.68384 0
M  V30 9325 N 950.418 -1.49637 -0.494624 0
M  V30 9326 C 951.381 -1.66252 -1.57775 0
M  V30 9327 C 952.381 -0.534054 -1.51672 0
M  V30 9328 O 953.571 -0.800637 -1.54711 0
M  V30 9329 C 950.703 -1.66584 -2.97426 0
M  V30 9330 H 951.896 -2.62864 -1.4437 0
M  V30 9331 H 949.449 -1.38764 -0.719323 0
M  V30 9332 H 950.184 -0.715798 -3.16302 0
M  V30 9333 H 949.969 -2.48543 -3.03264 0
M  V30 9334 H 951.459 -1.81474 -3.76108 0
M  V30 9335 N 951.896 0.746133 -1.38819 0
M  V30 9336 C 952.859 1.84167 -1.36437 0
M  V30 9337 C 953.859 1.58626 -0.263499 0
M  V30 9338 O 955.049 1.66233 -0.520801 0
M  V30 9339 C 952.181 3.21769 -1.12596 0
M  V30 9340 H 953.374 1.87684 -2.33912 0
M  V30 9341 H 950.927 0.948625 -1.24221 0
M  V30 9342 H 951.662 3.23917 -0.15758 0
M  V30 9343 H 951.447 3.41702 -1.92307 0
M  V30 9344 H 952.937 4.0184 -1.13643 0
M  V30 9345 N 953.375 1.23811 0.975125 0
M  V30 9346 C 954.603 1.10019 1.75224 0
M  V30 9347 C 955.018 -0.34791 1.85567 0
M  V30 9348 O 954.375 -1.24043 1.33864 0
M  V30 9349 C 954.426 1.72572 3.1765 0
M  V30 9350 O 954.147 3.11719 3.07836 0
M  V30 9351 C 955.648 1.64292 4.11732 0
M  V30 9352 H 952.868 0.38476 0.549728 0
M  V30 9353 H 955.412 1.63768 1.22476 0
M  V30 9354 H 953.567 1.22843 3.67408 0
M  V30 9355 H 953.981 3.42152 3.97533 0
M  V30 9356 H 955.455 2.12754 5.09352 0
M  V30 9357 H 955.932 0.602722 4.35045 0
M  V30 9358 H 956.538 2.13411 3.6788 0
M  V30 9359 N 954.853 -1.17469 1.05066 0
M  V30 9360 C 956.099 -1.87976 0.761113 0
M  V30 9361 C 956.432 -1.80756 -0.709995 0
M  V30 9362 O 955.707 -1.21469 -1.51906 0
M  V30 9363 C 955.99 -3.38055 1.2406 0
M  V30 9364 C 955.843 -3.54032 2.77455 0
M  V30 9365 C 957.162 -4.32036 0.838612 0
M  V30 9366 H 954.281 -0.682573 0.277963 0
M  V30 9367 H 956.923 -1.38147 1.30443 0
M  V30 9368 H 955.073 -3.80622 0.778388 0
M  V30 9369 H 956.745 -3.20489 3.3179 0
M  V30 9370 H 954.988 -2.96352 3.16793 0
M  V30 9371 H 955.659 -4.59377 3.06066 0
M  V30 9372 H 958.135 -3.97303 1.23651 0
M  V30 9373 H 957.011 -5.35583 1.20173 0
M  V30 9374 H 957.272 -4.41349 -0.257498 0
M  V30 9375 N 956.331 -0.831506 -1.3388 0
M  V30 9376 C 957.579 -0.422837 -1.97627 0
M  V30 9377 C 957.9 1.01961 -1.6622 0
M  V30 9378 O 957.17 1.70916 -0.957323 0
M  V30 9379 H 955.75 -0.153365 -0.731087 0
M  V30 9380 H 958.412 -1.06284 -1.6337 0
M  V30 9381 H 957.508 -0.548858 -3.07236 0
M  V30 9382 N 957.809 1.4625 -0.587256 0
M  V30 9383 C 959.086 1.95599 -0.00750181 0
M  V30 9384 C 959.466 1.52989 1.45457 0
M  V30 9385 O 958.814 0.782731 2.14676 0
M  V30 9386 C 959.024 3.48513 -0.184309 0
M  V30 9387 C 960.372 4.24565 -0.0544972 0
M  V30 9388 O 961.396 3.5602 -0.113378 0
M  V30 9389 O 960.255 5.46445 0.0774075 0
M  V30 9390 H 957.349 0.825649 0.0472495 0
M  V30 9391 H 959.895 1.56512 -0.655893 0
M  V30 9392 H 958.667 3.72428 -1.20053 0
M  V30 9393 H 958.29 3.9444 0.500301 0
M  V30 9394 N 959.287 0.325282 1.54207 0
M  V30 9395 C 960.217 -0.532574 2.27345 0
M  V30 9396 C 961.198 -1.11791 1.28206 0
M  V30 9397 O 962.383 -1.14272 1.57021 0
M  V30 9398 C 959.513 -1.69274 3.03255 0
M  V30 9399 C 958.467 -1.23662 4.09746 0
M  V30 9400 C 957.793 -2.48386 4.73506 0
M  V30 9401 C 959.093 -0.350244 5.21124 0
M  V30 9402 H 960.787 0.0775108 2.993 0
M  V30 9403 H 958.333 0.0387193 1.43948 0
M  V30 9404 H 960.286 -2.29917 3.53152 0
M  V30 9405 H 959.01 -2.32944 2.28921 0
M  V30 9406 H 957.669 -0.653106 3.60735 0
M  V30 9407 H 957.317 -3.10424 3.95786 0
M  V30 9408 H 957.017 -2.18558 5.45441 0
M  V30 9409 H 958.541 -3.09789 5.26178 0
M  V30 9410 H 959.955 -0.863011 5.66767 0
M  V30 9411 H 958.352 -0.14466 5.99926 0
M  V30 9412 H 959.422 0.618457 4.8094 0
M  V30 9413 N 960.765 -1.57509 0.0534917 0
M  V30 9414 C 962.181 -1.56696 -0.303067 0
M  V30 9415 C 962.381 -1.06135 -1.71282 0
M  V30 9416 O 961.437 -0.71899 -2.42047 0
M  V30 9417 C 962.75 -3.00421 -0.129418 0
M  V30 9418 C 964.298 -3.12358 -0.200346 0
M  V30 9419 C 964.773 -4.57967 -0.0551971 0
M  V30 9420 N 966.264 -4.63066 -0.111398 0
M  V30 9421 C 966.999 -5.73395 -0.0232344 0
M  V30 9422 N 966.495 -6.92701 0.11741 0
M  V30 9423 N 968.288 -5.62045 -0.078984 0
M  V30 9424 H 960.439 -1.88696 0.975064 0
M  V30 9425 H 962.702 -0.869072 0.378706 0
M  V30 9426 H 962.408 -3.41456 0.842653 0
M  V30 9427 H 962.282 -3.66563 -0.889476 0
M  V30 9428 H 964.669 -2.71221 -1.16289 0
M  V30 9429 H 964.75 -2.48891 0.590506 0
M  V30 9430 H 964.394 -4.9979 0.904034 0
M  V30 9431 H 964.324 -5.19443 -0.865223 0
M  V30 9432 H 966.815 -3.77263 -0.219256 0
M  V30 9433 H 967.128 -7.72597 0.177326 0
M  V30 9434 H 965.473 -6.94833 0.152526 0
M  V30 9435 H 968.664 -4.67725 -0.187434 0
M  V30 9436 H 968.837 -6.48 -0.00681731 0
M  V30 9437 N 962.243 0.219913 -1.56058 0
M  V30 9438 C 963.491 0.942199 -1.78793 0
M  V30 9439 C 963.812 1.84804 -0.622284 0
M  V30 9440 O 963.082 1.9255 0.360735 0
M  V30 9441 H 961.662 0.350895 -0.659455 0
M  V30 9442 H 964.324 0.231376 -1.93522 0
M  V30 9443 H 963.42 1.54804 -2.71002 0
M  V30 9444 N 963.721 1.49897 0.486681 0
M  V30 9445 C 964.651 1.7054 1.59494 0
M  V30 9446 C 965.632 0.554184 1.60819 0
M  V30 9447 O 966.817 0.791617 1.77333 0
M  V30 9448 C 963.947 1.78517 2.97908 0
M  V30 9449 C 962.901 2.93571 3.11449 0
M  V30 9450 C 962.227 2.86674 4.51356 0
M  V30 9451 C 963.527 4.34308 2.90127 0
M  V30 9452 H 965.221 2.63329 1.42472 0
M  V30 9453 H 962.767 1.2672 0.683969 0
M  V30 9454 H 964.72 1.91544 3.75352 0
M  V30 9455 H 963.444 0.823381 3.16051 0
M  V30 9456 H 962.103 2.80169 2.36433 0
M  V30 9457 H 961.751 1.88373 4.66395 0
M  V30 9458 H 961.451 3.63903 4.61355 0
M  V30 9459 H 962.975 3.01728 5.30841 0
M  V30 9460 H 964.389 4.48317 3.57331 0
M  V30 9461 H 962.786 5.12869 3.11585 0
M  V30 9462 H 963.856 4.47759 1.86119 0
M  V30 9463 N 965.199 -0.738761 1.39212 0
M  V30 9464 C 966.447 -1.49529 1.35962 0
M  V30 9465 C 966.768 -1.94948 -0.0450152 0
M  V30 9466 O 966.038 -1.68717 -0.995552 0
M  V30 9467 H 964.618 -0.554692 0.500326 0
M  V30 9468 H 967.28 -0.877255 1.74041 0
M  V30 9469 H 966.376 -2.37919 2.01993 0
M  V30 9470 N 966.677 -1.24326 -0.968545 0
M  V30 9471 C 967.923 -1.09413 -1.71465 0
M  V30 9472 C 968.278 0.363422 -1.88937 0
M  V30 9473 O 967.571 1.26486 -1.43916 0
M  V30 9474 C 967.765 -1.76644 -3.10695 0
M  V30 9475 C 967.594 -3.28787 -3.06805 0
M  V30 9476 C 966.364 -3.97995 -3.11333 0
M  V30 9477 C 968.562 -4.25389 -2.89047 0
M  V30 9478 N 966.544 -5.37024 -2.97453 0
M  V30 9479 C 967.915 -5.51411 -2.83454 0
M  V30 9480 C 969.97 -4.15976 -2.73621 0
M  V30 9481 C 968.673 -6.69096 -2.64013 0
M  V30 9482 C 970.699 -5.33338 -2.55547 0
M  V30 9483 C 970.061 -6.58291 -2.50663 0
M  V30 9484 H 966.16 -0.454986 -0.636012 0
M  V30 9485 H 968.744 -1.57228 -1.14837 0
M  V30 9486 H 966.915 -1.31344 -3.65518 0
M  V30 9487 H 968.647 -1.54599 -3.74007 0
M  V30 9488 H 965.402 -3.49155 -3.19981 0
M  V30 9489 H 965.826 -6.09948 -2.93756 0
M  V30 9490 H 970.468 -3.20131 -2.76181 0
M  V30 9491 H 968.186 -7.65064 -2.60197 0
M  V30 9492 H 971.772 -5.27904 -2.44557 0
M  V30 9493 H 970.652 -7.47575 -2.36856 0
M  V30 9494 N 968.156 1.1691 -1.05688 0
M  V30 9495 C 969.402 1.8757 -0.771071 0
M  V30 9496 C 969.735 1.8113 0.700399 0
M  V30 9497 O 969.01 1.22273 1.5126 0
M  V30 9498 C 969.293 3.37392 -1.25851 0
M  V30 9499 C 969.146 3.52556 -2.79329 0
M  V30 9500 C 970.465 4.31585 -0.861512 0
M  V30 9501 H 967.584 0.681089 -0.281579 0
M  V30 9502 H 970.226 1.37453 -1.31174 0
M  V30 9503 H 968.376 3.80204 -0.798563 0
M  V30 9504 H 970.048 3.18725 -3.33485 0
M  V30 9505 H 968.291 2.94668 -3.1836 0
M  V30 9506 H 968.962 4.57748 -3.08498 0
M  V30 9507 H 971.438 3.96642 -1.25756 0
M  V30 9508 H 970.314 5.34939 -1.23012 0
M  V30 9509 H 970.575 4.4148 0.234089 0
M  V30 9510 N 969.634 0.838594 1.33437 0
M  V30 9511 C 970.883 0.430484 1.97053 0
M  V30 9512 C 971.196 -1.01556 1.6717 0
M  V30 9513 O 972.402 -1.52834 2.24397 0
M  V30 9514 C 970.858 0.718828 3.52648 0
M  V30 9515 C 970.466 2.17953 3.91408 0
M  V30 9516 C 972.21 0.377654 4.22817 0
M  V30 9517 C 970.117 2.41194 5.39981 0
M  V30 9518 H 969.047 0.157239 0.737422 0
M  V30 9519 H 971.698 1.02714 1.5206 0
M  V30 9520 H 970.08 0.0518042 3.95966 0
M  V30 9521 H 971.254 2.88701 3.59149 0
M  V30 9522 H 969.569 2.48366 3.34221 0
M  V30 9523 H 972.166 0.528926 5.32077 0
M  V30 9524 H 972.509 -0.679338 4.1072 0
M  V30 9525 H 973.042 0.999899 3.85028 0
M  V30 9526 H 969.781 3.45457 5.57081 0
M  V30 9527 H 969.301 1.75007 5.73701 0
M  V30 9528 H 970.98 2.24334 6.06863 0
M  V30 9529 N 971.112 -1.45937 0.595003 0
M  V30 9530 C 972.337 -2.07207 0.0894416 0
M  V30 9531 C 972.762 -1.43884 -1.21157 0
M  V30 9532 O 972.12 -0.526998 -1.73472 0
M  V30 9533 C 972.168 -3.60565 -0.0499828 0
M  V30 9534 O 971.272 -3.97364 -1.10342 0
M  V30 9535 H 970.613 -0.660471 0.0683627 0
M  V30 9536 H 973.143 -1.87386 0.82144 0
M  V30 9537 H 973.153 -4.0722 -0.252234 0
M  V30 9538 H 971.828 -4.06044 0.90006 0
M  V30 9539 H 970.405 -3.62401 -0.878645 0
M  V30 9540 N 972.59 -0.333456 -1.54032 0
M  V30 9541 C 973.553 0.515392 -2.2333 0
M  V30 9542 C 974.553 1.03566 -1.23007 0
M  V30 9543 O 975.743 0.926514 -1.47517 0
M  V30 9544 C 972.875 1.7169 -2.94508 0
M  V30 9545 H 974.068 -0.0905407 -2.99763 0
M  V30 9546 H 971.621 -0.0846651 -1.56071 0
M  V30 9547 H 972.356 2.3618 -2.22237 0
M  V30 9548 H 972.141 1.35115 -3.68085 0
M  V30 9549 H 973.631 2.31922 -3.47278 0
M  V30 9550 N 974.068 1.57479 -0.061844 0
M  V30 9551 C 975.345 1.84484 0.649993 0
M  V30 9552 C 975.725 0.952366 1.88396 0
M  V30 9553 O 975.073 0.0161035 2.28494 0
M  V30 9554 C 975.283 3.34452 0.997133 0
M  V30 9555 C 976.631 4.01724 1.37488 0
M  V30 9556 O 977.655 3.3914 1.08916 0
M  V30 9557 O 976.514 5.12091 1.90854 0
M  V30 9558 H 973.608 0.761798 0.321858 0
M  V30 9559 H 976.154 1.6945 -0.0920192 0
M  V30 9560 H 974.926 3.91115 0.120301 0
M  V30 9561 H 974.549 3.54713 1.79624 0
M  V30 9562 N 975.546 -0.211634 1.56173 0
M  V30 9563 C 976.493 -1.26231 1.93221 0
M  V30 9564 C 977.463 -1.46076 0.790641 0
M  V30 9565 O 978.648 -1.59482 1.04739 0
M  V30 9566 C 975.788 -2.60559 2.26281 0
M  V30 9567 C 974.901 -2.48431 3.5342 0
M  V30 9568 C 974.036 -3.7535 3.7588 0
M  V30 9569 C 973.075 -3.57985 4.96501 0
M  V30 9570 N 972.212 -4.76877 5.15299 0
M  V30 9571 H 977.052 -0.939367 2.82807 0
M  V30 9572 H 974.589 -0.452511 1.39967 0
M  V30 9573 H 976.547 -3.38796 2.43461 0
M  V30 9574 H 975.177 -2.9093 1.39855 0
M  V30 9575 H 974.229 -1.61577 3.44379 0
M  V30 9576 H 975.541 -2.31526 4.41811 0
M  V30 9577 H 974.695 -4.62029 3.9321 0
M  V30 9578 H 973.434 -3.95191 2.85788 0
M  V30 9579 H 972.439 -2.69691 4.79111 0
M  V30 9580 H 973.664 -3.39605 5.88086 0
M  V30 9581 H 971.61 -4.97013 4.28152 0
M  V30 9582 H 971.527 -4.62735 5.9784 0
M  V30 9583 H 972.795 -5.64954 5.37073 0
M  V30 9584 N 977.024 -1.50153 -0.478725 0
M  V30 9585 C 978.252 -1.64505 -1.25482 0
M  V30 9586 C 978.667 -0.325295 -1.85977 0
M  V30 9587 O 978.024 0.691885 -1.68876 0
M  V30 9588 C 978.075 -2.73052 -2.36906 0
M  V30 9589 O 977.796 -3.99911 -1.78894 0
M  V30 9590 C 979.297 -2.98309 -3.27912 0
M  V30 9591 H 976.517 -0.55318 -0.379781 0
M  V30 9592 H 979.061 -1.96329 -0.57229 0
M  V30 9593 H 977.216 -2.43944 -3.00949 0
M  V30 9594 H 977.63 -4.5988 -2.52211 0
M  V30 9595 H 979.104 -3.77942 -4.02323 0
M  V30 9596 H 979.581 -2.09082 -3.8624 0
M  V30 9597 H 980.187 -3.2892 -2.69614 0
M  V30 9598 N 978.502 0.731368 -1.39602 0
M  V30 9599 C 979.73 1.52059 -1.40305 0
M  V30 9600 C 980.145 1.888 0.00147921 0
M  V30 9601 O 979.502 1.54354 0.973715 0
M  V30 9602 C 979.553 2.80588 -2.27931 0
M  V30 9603 O 979.274 2.45406 -3.62915 0
M  V30 9604 C 980.775 3.74592 -2.37056 0
M  V30 9605 H 977.995 0.469787 -0.479104 0
M  V30 9606 H 980.539 0.903436 -1.83462 0
M  V30 9607 H 978.694 3.38626 -1.88178 0
M  V30 9608 H 979.108 3.27996 -4.09291 0
M  V30 9609 H 980.582 4.61662 -3.02609 0
M  V30 9610 H 981.059 4.16597 -1.39081 0
M  V30 9611 H 981.665 3.22471 -2.77295 0
M  V30 9612 N 979.98 1.24838 0.961938 0
M  V30 9613 C 981.228 1.08936 1.70227 0
M  V30 9614 C 981.549 -0.371582 1.91427 0
M  V30 9615 O 980.819 -1.26461 1.49614 0
M  V30 9616 H 979.399 0.400128 0.630799 0
M  V30 9617 H 982.061 1.56848 1.15692 0
M  V30 9618 H 981.157 1.59195 2.68446 0
M  V30 9619 N 981.458 -1.16348 1.06306 0
M  V30 9620 C 982.706 -1.86512 0.778311 0
M  V30 9621 C 983.027 -1.82107 -0.697273 0
M  V30 9622 O 982.297 -1.2547 -1.50446 0
M  V30 9623 H 980.877 -0.690529 0.284919 0
M  V30 9624 H 983.539 -1.41092 1.34458 0
M  V30 9625 H 982.635 -2.91947 1.10333 0
M  V30 9626 N 982.937 -0.845659 -1.3299 0
M  V30 9627 C 984.162 -0.457435 -2.02293 0
M  V30 9628 C 984.587 0.935634 -1.63179 0
M  V30 9629 O 983.945 1.61297 -0.827835 0
M  V30 9630 C 983.993 -0.593665 -3.5568 0
M  V30 9631 O 983.097 0.37729 -4.10671 0
M  V30 9632 H 982.438 -0.185022 -0.637701 0
M  V30 9633 H 984.968 -1.14237 -1.69738 0
M  V30 9634 H 984.978 -0.477834 -4.05192 0
M  V30 9635 H 983.653 -1.60957 -3.83491 0
M  V30 9636 H 982.23 0.218448 -3.7226 0
M  V30 9637 N 984.415 1.45619 -0.602734 0
M  V30 9638 C 985.643 2.06647 -0.102253 0
M  V30 9639 C 986.058 1.4482 1.21131 0
M  V30 9640 O 985.415 0.560621 1.73676 0
M  V30 9641 C 985.466 3.61467 0.0490113 0
M  V30 9642 O 985.187 4.20985 -1.21257 0
M  V30 9643 C 986.688 4.39469 0.581517 0
M  V30 9644 H 983.908 0.667685 -0.0666155 0
M  V30 9645 H 986.452 1.86939 -0.829091 0
M  V30 9646 H 984.607 3.80534 0.726153 0
M  V30 9647 H 985.021 5.14103 -1.03915 0
M  V30 9648 H 986.495 5.48318 0.636462 0
M  V30 9649 H 986.972 4.0891 1.60277 0
M  V30 9650 H 987.578 4.25256 -0.061419 0
M  V30 9651 N 985.893 0.34162 1.53853 0
M  V30 9652 C 986.803 -0.524555 2.2866 0
M  V30 9653 C 987.819 -1.1136 1.33697 0
M  V30 9654 O 988.995 -1.1297 1.66732 0
M  V30 9655 C 986.06 -1.66065 3.04341 0
M  V30 9656 C 985.121 -1.10158 4.14926 0
M  V30 9657 C 984.354 -2.18353 4.86988 0
M  V30 9658 O 984.577 -3.39038 4.58704 0
M  V30 9659 O 983.511 -1.82756 5.73484 0
M  V30 9660 H 987.337 0.0835014 3.03585 0
M  V30 9661 H 984.922 0.106727 1.49018 0
M  V30 9662 H 986.804 -2.3217 3.51674 0
M  V30 9663 H 985.479 -2.25456 2.32275 0
M  V30 9664 H 984.386 -0.405109 3.719 0
M  V30 9665 H 985.719 -0.552567 4.89088 0
M  V30 9666 N 987.371 -1.57444 0.0701946 0
M  V30 9667 C 988.601 -1.97467 -0.607476 0
M  V30 9668 C 989.009 -0.947232 -1.63781 0
M  V30 9669 O 988.352 0.074652 -1.83548 0
M  V30 9670 C 988.414 -3.33795 -1.33495 0
M  V30 9671 C 988.078 -4.54697 -0.458265 0
M  V30 9672 C 989.075 -5.19127 0.283488 0
M  V30 9673 C 986.76 -5.00833 -0.383612 0
M  V30 9674 C 988.754 -6.28043 1.08813 0
M  V30 9675 C 986.441 -6.09622 0.424705 0
M  V30 9676 C 987.439 -6.7309 1.15925 0
M  V30 9677 O 987.127 -7.79785 1.95423 0
M  V30 9678 H 986.859 -0.654405 -0.169501 0
M  V30 9679 H 989.413 -2.04931 0.138651 0
M  V30 9680 H 987.643 -3.22941 -2.12711 0
M  V30 9681 H 989.332 -3.58435 -1.9047 0
M  V30 9682 H 990.098 -4.84428 0.235397 0
M  V30 9683 H 985.977 -4.51211 -0.944968 0
M  V30 9684 H 989.521 -6.77513 1.66197 0
M  V30 9685 H 985.418 -6.43755 0.474366 0
M  V30 9686 H 986.186 -7.96655 1.87838 0
M  V30 9687 N 988.849 0.203349 -1.56283 0
M  V30 9688 C 989.799 1.25595 -1.90289 0
M  V30 9689 C 990.783 1.41403 -0.767732 0
M  V30 9690 O 991.975 1.43912 -1.03046 0
M  V30 9691 C 989.104 2.60255 -2.23881 0
M  V30 9692 C 988.19 2.48274 -3.43833 0
M  V30 9693 N 988.581 2.05963 -4.61966 0
M  V30 9694 C 986.879 2.79188 -3.47808 0
M  V30 9695 C 987.58 2.05674 -5.44126 0
M  V30 9696 N 986.556 2.46862 -4.84314 0
M  V30 9697 H 990.358 0.920016 -2.79129 0
M  V30 9698 H 987.872 0.411829 -1.57091 0
M  V30 9699 H 989.869 3.36274 -2.46425 0
M  V30 9700 H 988.529 2.94678 -1.36363 0
M  V30 9701 H 989.54 1.76803 -4.86787 0
M  V30 9702 H 986.217 3.17863 -2.70684 0
M  V30 9703 H 987.607 1.74932 -6.48728 0
M  V30 9704 N 990.327 1.50405 0.470755 0
M  V30 9705 C 991.604 1.51929 1.23195 0
M  V30 9706 C 991.984 0.264159 2.09441 0
M  V30 9707 O 991.332 -0.752395 2.15757 0
M  V30 9708 C 991.542 2.81521 2.06269 0
M  V30 9709 C 992.89 3.32195 2.64446 0
M  V30 9710 O 993.914 2.82845 2.16511 0
M  V30 9711 O 992.773 4.18221 3.51786 0
M  V30 9712 H 989.867 0.609411 0.559059 0
M  V30 9713 H 992.413 1.62695 0.482549 0
M  V30 9714 H 991.185 3.64346 1.42715 0
M  V30 9715 H 990.808 2.7376 2.88342 0
M  V30 9716 N 991.805 -0.723954 1.39988 0
M  V30 9717 C 992.737 -1.84859 1.35498 0
M  V30 9718 C 993.75 -1.60681 0.261812 0
M  V30 9719 O 994.939 -1.7071 0.521566 0
M  V30 9720 C 992.039 -3.21103 1.08381 0
M  V30 9721 C 991.212 -3.72546 2.2919 0
M  V30 9722 C 990.271 -4.8738 1.9836 0
M  V30 9723 O 989.297 -5.00467 2.71149 0
M  V30 9724 N 990.499 -5.72566 0.956461 0
M  V30 9725 H 993.264 -1.89212 2.3242 0
M  V30 9726 H 990.825 -0.905152 1.34233 0
M  V30 9727 H 992.817 -3.9551 0.857564 0
M  V30 9728 H 991.387 -3.1195 0.201549 0
M  V30 9729 H 990.607 -2.89365 2.67697 0
M  V30 9730 H 991.895 -4.03652 3.09746 0
M  V30 9731 H 991.293 -5.64595 0.353444 0
M  V30 9732 H 989.85 -6.46993 0.790118 0
M  V30 9733 N 993.283 -1.25346 -0.955304 0
M  V30 9734 C 994.529 -1.10218 -1.70235 0
M  V30 9735 C 994.862 0.356124 -1.90907 0
M  V30 9736 O 994.137 1.26253 -1.47954 0
M  V30 9737 C 994.42 -1.85627 -3.08569 0
M  V30 9738 C 994.273 -3.39281 -2.95311 0
M  V30 9739 C 995.592 -1.63886 -4.08448 0
M  V30 9740 H 992.711 -0.401781 -0.617852 0
M  V30 9741 H 995.353 -1.5417 -1.11048 0
M  V30 9742 H 993.503 -1.48269 -3.59094 0
M  V30 9743 H 995.175 -3.8631 -2.52116 0
M  V30 9744 H 993.418 -3.67027 -2.31244 0
M  V30 9745 H 994.089 -3.87258 -3.93364 0
M  V30 9746 H 996.565 -1.96406 -3.6683 0
M  V30 9747 H 995.441 -2.19087 -5.03281 0
M  V30 9748 H 995.702 -0.580021 -4.38279 0
M  V30 9749 N 994.761 1.15782 -1.06922 0
M  V30 9750 C 996.177 1.38454 -0.793896 0
M  V30 9751 C 996.377 1.92238 0.603875 0
M  V30 9752 O 995.433 2.1253 1.36335 0
M  V30 9753 C 996.746 2.3595 -1.86408 0
M  V30 9754 C 998.294 2.49622 -1.88833 0
M  V30 9755 C 998.769 3.50406 -2.94923 0
M  V30 9756 N 1000.26 3.57938 -2.93997 0
M  V30 9757 C 1001 4.35728 -3.72731 0
M  V30 9758 N 1000.49 5.16888 -4.61301 0
M  V30 9759 N 1002.28 4.30774 -3.61096 0
M  V30 9760 H 994.435 0.792101 -1.97077 0
M  V30 9761 H 996.698 0.410779 -0.85438 0
M  V30 9762 H 996.404 2.03537 -2.86819 0
M  V30 9763 H 996.278 3.35677 -1.72049 0
M  V30 9764 H 998.665 2.81335 -0.890759 0
M  V30 9765 H 998.746 1.49909 -2.0727 0
M  V30 9766 H 998.39 3.19429 -3.94877 0
M  V30 9767 H 998.32 4.49864 -2.73734 0
M  V30 9768 H 1000.81 3.00007 -2.29791 0
M  V30 9769 H 1001.12 5.73477 -5.18019 0
M  V30 9770 H 999.469 5.16209 -4.65353 0
M  V30 9771 H 1002.66 3.66432 -2.91282 0
M  V30 9772 H 1002.83 4.91151 -4.22699 0
M  V30 9773 N 996.239 0.8527 1.3254 0
M  V30 9774 C 997.187 0.284659 2.30852 0
M  V30 9775 C 998.181 -0.5909 1.5876 0
M  V30 9776 O 999.387 -0.478922 1.73512 0
M  V30 9777 H 995.762 0.0733452 0.748415 0
M  V30 9778 H 997.733 1.1281 2.76254 0
M  V30 9779 C 996.482 -0.51379 3.43883 0
M  V30 9780 H 995.805 0.150644 3.99516 0
M  V30 9781 H 997.245 -0.876866 4.14834 0
M  V30 9782 C 995.704 -1.69823 2.90967 0
M  V30 9783 O 996.234 -2.79727 2.88298 0
M  V30 9784 N 994.44 -1.52465 2.47392 0
M  V30 9785 H 993.987 -0.630599 2.49762 0
M  V30 9786 H 993.945 -2.31859 2.12341 0
M  V30 9787 N 997.718 -1.45297 0.610449 0
M  V30 9788 C 998.681 -2.28995 -0.0968194 0
M  V30 9789 C 999.681 -1.39923 -0.792353 0
M  V30 9790 O 1000.87 -1.62014 -0.64008 0
M  V30 9791 C 998.003 -3.21013 -1.14731 0
M  V30 9792 H 999.196 -2.93012 0.639082 0
M  V30 9793 H 996.749 -1.51867 0.369624 0
M  V30 9794 H 997.484 -2.61803 -1.91388 0
M  V30 9795 H 997.269 -3.86628 -0.652753 0
M  V30 9796 H 998.759 -3.8394 -1.64256 0
M  V30 9797 N 999.196 -0.349774 -1.5367 0
M  V30 9798 C 1000.14 0.519396 -2.26727 0
M  V30 9799 C 1001.14 1.09673 -1.29105 0
M  V30 9800 O 1002.34 1.04176 -1.46791 0
M  V30 9801 H 998.719 0.186192 -0.728585 0
M  V30 9802 H 1000.69 -0.118736 -2.98164 0
M  V30 9803 C 999.439 1.65535 -3.05767 0
M  V30 9804 H 998.762 1.22038 -3.80719 0
M  V30 9805 H 1000.2 2.23856 -3.6009 0
M  V30 9806 C 998.661 2.58844 -2.15642 0
M  V30 9807 O 999.191 3.61254 -1.75665 0
M  V30 9808 N 997.397 2.27671 -1.80595 0
M  V30 9809 H 996.944 1.44429 -2.13302 0
M  V30 9810 H 996.902 2.90359 -1.20577 0
M  V30 9811 N 1000.67 1.57404 -0.0785433 0
M  V30 9812 C 1001.58 2.16612 0.900902 0
M  V30 9813 C 1002.6 1.13109 1.32221 0
M  V30 9814 O 1003.78 1.45406 1.39352 0
M  V30 9815 C 1000.84 2.7215 2.14791 0
M  V30 9816 C 999.902 3.90551 1.78237 0
M  V30 9817 C 999.135 4.43431 2.96993 0
M  V30 9818 O 999.358 3.95292 4.11218 0
M  V30 9819 O 998.292 5.34674 2.76418 0
M  V30 9820 H 1002.12 3.0068 0.427227 0
M  V30 9821 H 999.703 1.48696 0.144902 0
M  V30 9822 H 1001.58 3.07718 2.87902 0
M  V30 9823 H 1000.26 1.91139 2.61243 0
M  V30 9824 H 999.167 3.59825 1.02357 0
M  V30 9825 H 1000.5 4.72876 1.36562 0
M  V30 9826 N 1002.15 -0.195058 1.56388 0
M  V30 9827 C 1003.4 -0.9168 1.80894 0
M  V30 9828 C 1003.73 -1.82907 0.652592 0
M  V30 9829 O 1003.01 -1.91382 -0.346853 0
M  V30 9830 C 1003.29 -1.733 3.15657 0
M  V30 9831 C 1003.14 -0.845449 4.41783 0
M  V30 9832 C 1004.46 -2.70557 3.47112 0
M  V30 9833 H 1001.58 -0.331861 0.658056 0
M  V30 9834 H 1004.22 -0.184174 1.89105 0
M  V30 9835 H 1002.37 -2.3576 3.08787 0
M  V30 9836 H 1004.04 -0.235557 4.60698 0
M  V30 9837 H 1002.29 -0.152172 4.33533 0
M  V30 9838 H 1002.96 -1.45152 5.32574 0
M  V30 9839 H 1005.43 -2.1823 3.54281 0
M  V30 9840 H 1004.31 -3.24749 4.42526 0
M  V30 9841 H 1004.57 -3.49605 2.70608 0
M  V30 9842 N 1003.63 -1.50653 -0.462772 0
M  V30 9843 C 1004.58 -1.70122 -1.55971 0
M  V30 9844 C 1005.55 -0.542581 -1.56988 0
M  V30 9845 O 1006.73 -0.774114 -1.74391 0
M  V30 9846 C 1003.87 -1.80899 -2.93887 0
M  V30 9847 C 1002.98 -3.08318 -3.02595 0
M  V30 9848 C 1002.12 -3.09841 -4.31477 0
M  V30 9849 C 1001.16 -4.3168 -4.33957 0
M  V30 9850 N 1000.3 -4.30894 -5.54323 0
M  V30 9851 H 1005.14 -2.63768 -1.38674 0
M  V30 9852 H 1002.67 -1.30746 -0.674091 0
M  V30 9853 H 1004.63 -1.85128 -3.73876 0
M  V30 9854 H 1003.26 -0.906854 -3.098 0
M  V30 9855 H 1002.31 -3.13521 -2.15427 0
M  V30 9856 H 1003.62 -3.98282 -3.00288 0
M  V30 9857 H 1002.78 -3.12845 -5.1982 0
M  V30 9858 H 1001.52 -2.17722 -4.36404 0
M  V30 9859 H 1000.52 -4.28879 -3.4401 0
M  V30 9860 H 1001.75 -5.25035 -4.30715 0
M  V30 9861 H 999.694 -3.41633 -5.6002 0
M  V30 9862 H 999.611 -5.14636 -5.53792 0
M  V30 9863 H 1000.88 -4.38056 -6.44769 0
M  V30 9864 N 1005.11 0.71652 -1.4037 0
M  V30 9865 C 1006.36 1.47638 -1.38597 0
M  V30 9866 C 1006.68 1.94496 0.0120141 0
M  V30 9867 O 1005.94 1.68437 0.996373 0
M  V30 9868 C 1006.24 2.71777 -2.32103 0
M  V30 9869 C 1005.9 2.43689 -3.79376 0
M  V30 9870 C 1004.57 2.35739 -4.195 0
M  V30 9871 C 1006.92 2.20099 -4.72447 0
M  V30 9872 C 1004.25 2.02265 -5.50732 0
M  V30 9873 C 1006.6 1.88138 -6.03976 0
M  V30 9874 C 1005.26 1.78669 -6.43143 0
M  V30 9875 H 1004.53 0.540246 -0.507163 0
M  V30 9876 H 1007.18 0.820822 -1.73017 0
M  V30 9877 H 1005.48 3.42166 -1.90865 0
M  V30 9878 H 1007.18 3.29864 -2.28015 0
M  V30 9879 H 1003.77 2.50763 -3.47585 0
M  V30 9880 H 1007.95 2.25198 -4.42266 0
M  V30 9881 H 1003.21 1.93471 -5.79982 0
M  V30 9882 H 1007.38 1.68898 -6.75608 0
M  V30 9883 H 1005.01 1.52498 -7.44747 0
M  V30 9884 N 1006.59 1.25851 0.948643 0
M  V30 9885 C 1007.53 1.06759 2.04625 0
M  V30 9886 C 1008.5 -0.0251144 1.66081 0
M  V30 9887 O 1009.69 0.133221 1.90334 0
M  V30 9888 C 1006.83 0.698724 3.37952 0
M  V30 9889 C 1005.94 1.8669 3.89578 0
M  V30 9890 C 1005.08 1.44184 5.11258 0
M  V30 9891 C 1004.12 2.57878 5.55126 0
M  V30 9892 N 1003.25 2.16106 6.68014 0
M  V30 9893 H 1008.09 2.00691 2.20289 0
M  V30 9894 H 1005.63 0.999327 1.07944 0
M  V30 9895 H 1007.59 0.465788 4.14592 0
M  V30 9896 H 1006.22 -0.203618 3.22157 0
M  V30 9897 H 1005.27 2.21298 3.09405 0
M  V30 9898 H 1006.58 2.72051 4.18079 0
M  V30 9899 H 1005.74 1.16891 5.95333 0
M  V30 9900 H 1004.47 0.559035 4.84485 0
M  V30 9901 H 1003.48 2.85909 4.69612 0
M  V30 9902 H 1004.7 3.46747 5.83904 0
M  V30 9903 H 1002.65 1.3025 6.42939 0
M  V30 9904 H 1002.57 2.95012 6.96063 0
M  V30 9905 H 1003.84 1.92005 7.55483 0
M  V30 9906 N 1008.06 -1.15214 1.07534 0
M  V30 9907 C 1009.29 -1.90463 0.820883 0
M  V30 9908 C 1009.71 -1.77578 -0.620305 0
M  V30 9909 O 1009.07 -1.10976 -1.43366 0
M  V30 9910 C 1009.12 -3.38746 1.23627 0
M  V30 9911 O 1008.22 -4.1062 0.382715 0
M  V30 9912 H 1007.57 -0.59292 0.298901 0
M  V30 9913 H 1010.1 -1.45893 1.43445 0
M  V30 9914 H 1010.11 -3.89543 1.21327 0
M  V30 9915 H 1008.78 -3.47443 2.28596 0
M  V30 9916 H 1007.36 -3.69947 0.468374 0
M  V30 9917 N 1009.54 -0.859717 -1.32086 0
M  V30 9918 C 1010.79 -0.464662 -1.96686 0
M  V30 9919 C 1011.11 0.98412 -1.68345 0
M  V30 9920 O 1010.38 1.68847 -0.993361 0
M  V30 9921 H 1008.96 -0.168838 -0.727669 0
M  V30 9922 H 1011.62 -1.09726 -1.61079 0
M  V30 9923 H 1010.72 -0.613904 -3.06003 0
M  V30 9924 N 1011.02 1.44971 -0.618145 0
M  V30 9925 C 1011.97 2.32354 0.106846 0
M  V30 9926 C 1012.96 1.4659 0.848984 0
M  V30 9927 O 1014.17 1.63012 0.763354 0
M  V30 9928 H 1010.54 0.750108 0.0533109 0
M  V30 9929 H 1012.51 2.9127 -0.648426 0
M  V30 9930 C 1011.26 3.30381 1.08368 0
M  V30 9931 H 1010.59 3.96377 0.52205 0
M  V30 9932 H 1012.03 3.94231 1.56069 0
M  V30 9933 C 1010.49 2.58336 2.1625 0
M  V30 9934 O 1011.02 2.37258 3.24148 0
M  V30 9935 N 1009.22 2.18292 1.91825 0
M  V30 9936 H 1008.77 2.35635 1.04086 0
M  V30 9937 H 1008.73 1.70413 2.6421 0
M  V30 9938 N 1012.5 0.357919 1.53482 0
M  V30 9939 C 1013.75 -0.2337 2.00744 0
M  V30 9940 C 1014.07 -1.49908 1.2471 0
M  V30 9941 O 1013.34 -1.92597 0.358235 0
M  V30 9942 H 1011.92 -0.0893474 0.741637 0
M  V30 9943 H 1014.58 0.482388 1.88836 0
M  V30 9944 H 1013.68 -0.466073 3.086 0
M  V30 9945 N 1013.98 -1.5736 0.0868897 0
M  V30 9946 C 1015.23 -1.93229 -0.578387 0
M  V30 9947 C 1015.54 -0.970127 -1.69847 0
M  V30 9948 O 1016.74 -1.22222 -2.42434 0
M  V30 9949 C 1015.2 -3.43307 -1.0802 0
M  V30 9950 C 1014.81 -4.47999 0.00968135 0
M  V30 9951 C 1016.55 -3.88151 -1.71868 0
M  V30 9952 C 1014.46 -5.89223 -0.507029 0
M  V30 9953 H 1013.39 -0.721245 -0.219823 0
M  V30 9954 H 1016.04 -1.82787 0.161566 0
M  V30 9955 H 1014.42 -3.48873 -1.87359 0
M  V30 9956 H 1015.6 -4.54067 0.784865 0
M  V30 9957 H 1013.91 -4.12714 0.552845 0
M  V30 9958 H 1016.51 -4.91056 -2.11585 0
M  V30 9959 H 1016.85 -3.26347 -2.58464 0
M  V30 9960 H 1017.38 -3.85252 -0.991259 0
M  V30 9961 H 1014.12 -6.54708 0.322121 0
M  V30 9962 H 1013.64 -5.86643 -1.2494 0
M  V30 9963 H 1015.32 -6.39556 -0.978628 0
M  V30 9964 N 1015.45 0.186762 -1.56489 0
M  V30 9965 C 1016.4 1.25084 -1.96104 0
M  V30 9966 C 1017.4 1.4667 -0.847609 0
M  V30 9967 O 1018.6 1.47432 -1.03266 0
M  V30 9968 H 1014.98 0.420121 -0.623701 0
M  V30 9969 H 1016.95 0.889761 -2.84826 0
M  V30 9970 C 1015.7 2.5863 -2.32392 0
M  V30 9971 H 1015.02 2.42838 -3.176 0
M  V30 9972 H 1016.46 3.3181 -2.63967 0
M  V30 9973 C 1014.92 3.16241 -1.16159 0
M  V30 9974 O 1015.45 3.99272 -0.441034 0
M  V30 9975 N 1013.66 2.75106 -0.936206 0
M  V30 9976 H 1013.2 2.0769 -1.5239 0
M  V30 9977 H 1013.16 3.13991 -0.160317 0
M  V30 9978 N 1016.93 1.50896 0.454776 0
M  V30 9979 C 1018.18 1.6294 1.20741 0
M  V30 9980 C 1018.51 0.336339 1.91265 0
M  V30 9981 O 1017.79 -0.663153 1.82846 0
M  V30 9982 C 1018.07 2.82092 2.23822 0
M  V30 9983 C 1017.92 4.21326 1.57495 0
M  V30 9984 C 1019.24 2.96777 3.24979 0
M  V30 9985 H 1016.36 0.59302 0.437603 0
M  V30 9986 H 1019 1.83331 0.498959 0
M  V30 9987 H 1017.15 2.64837 2.84243 0
M  V30 9988 H 1018.82 4.50209 1.00546 0
M  V30 9989 H 1017.07 4.24829 0.877664 0
M  V30 9990 H 1017.74 5.00656 2.32482 0
M  V30 9991 H 1020.21 3.12627 2.74597 0
M  V30 9992 H 1019.09 3.81742 3.94416 0
M  V30 9993 H 1019.35 2.08091 3.90065 0
M  V30 9994 N 1018.41 -0.709066 1.40748 0
M  V30 9995 C 1019.64 -1.50313 1.42901 0
M  V30 9996 C 1020.06 -1.88072 0.032213 0
M  V30 9997 O 1019.42 -1.53716 -0.96131 0
M  V30 9998 C 1019.47 -2.75074 2.33166 0
M  V30 9999 O 1018.57 -3.72036 1.7794 0
M  V30 10000 H 1017.91 -0.452934 0.485538 0
M  V30 10001 H 1020.44 -0.872712 1.85054 0
M  V30 10002 H 1020.45 -3.23532 2.48578 0
M  V30 10003 H 1019.13 -2.46927 3.34664 0
M  V30 10004 H 1017.7 -3.30911 1.71908 0
M  V30 10005 N 1019.89 -1.26353 -0.941956 0
M  V30 10006 C 1021.14 -1.1163 -1.68473 0
M  V30 10007 C 1021.46 0.34108 -1.91994 0
M  V30 10008 O 1020.73 1.24065 -1.51607 0
M  V30 10009 H 1019.31 -0.410113 -0.624353 0
M  V30 10010 H 1021.97 -1.58669 -1.13182 0
M  V30 10011 H 1021.07 -1.63445 -2.6588 0
M  V30 10012 N 1021.37 1.14642 -1.08144 0
M  V30 10013 C 1022.31 2.1964 -0.708995 0
M  V30 10014 C 1023.28 1.63303 0.303512 0
M  V30 10015 O 1024.47 1.8987 0.18813 0
M  V30 10016 C 1021.61 3.44886 -0.121585 0
M  V30 10017 C 1020.72 4.15386 -1.18654 0
M  V30 10018 C 1019.86 5.28205 -0.56328 0
M  V30 10019 C 1018.9 5.90534 -1.61046 0
M  V30 10020 N 1018.03 6.94809 -1.00919 0
M  V30 10021 H 1022.87 2.50848 -1.6087 0
M  V30 10022 H 1020.41 1.23185 -0.803975 0
M  V30 10023 H 1022.37 4.16528 0.23668 0
M  V30 10024 H 1021 3.14169 0.741445 0
M  V30 10025 H 1020.05 3.42159 -1.66227 0
M  V30 10026 H 1021.36 4.57809 -1.9802 0
M  V30 10027 H 1020.52 6.06507 -0.153109 0
M  V30 10028 H 1019.26 4.86995 0.262066 0
M  V30 10029 H 1018.26 5.10938 -2.03033 0
M  V30 10030 H 1019.49 6.33819 -2.43824 0
M  V30 10031 H 1017.43 6.5568 -0.204894 0
M  V30 10032 H 1017.35 7.35704 -1.73999 0
M  V30 10033 H 1018.62 7.76992 -0.624792 0
M  V30 10034 N 1022.85 0.866709 1.31628 0
M  V30 10035 C 1024.07 0.49039 2.01004 0
M  V30 10036 C 1024.49 -0.916244 1.65077 0
M  V30 10037 O 1023.85 -1.59975 0.8783 0
M  V30 10038 C 1023.9 0.634011 3.55897 0
M  V30 10039 O 1023.62 1.98525 3.90537 0
M  V30 10040 C 1025.12 0.258277 4.42547 0
M  V30 10041 H 1022.34 0.191421 0.643117 0
M  V30 10042 H 1024.88 1.16698 1.67934 0
M  V30 10043 H 1023.04 0.00501801 3.874 0
M  V30 10044 H 1023.45 1.99067 4.85255 0
M  V30 10045 H 1024.93 0.409733 5.50477 0
M  V30 10046 H 1025.4 -0.802301 4.3181 0
M  V30 10047 H 1026.01 0.862837 4.16456 0
M  V30 10048 N 1024.32 -1.44642 0.625825 0
M  V30 10049 C 1025.57 -2.02393 0.128391 0
M  V30 10050 C 1025.9 -1.49075 -1.2446 0
M  V30 10051 O 1025.18 -0.672684 -1.82497 0
M  V30 10052 C 1025.46 -3.59934 0.109279 0
M  V30 10053 C 1025.31 -4.23546 1.51423 0
M  V30 10054 C 1026.63 -4.36406 -0.568985 0
M  V30 10055 H 1023.75 -0.735427 0.0481299 0
M  V30 10056 H 1026.39 -1.72277 0.801286 0
M  V30 10057 H 1024.54 -3.85722 -0.463726 0
M  V30 10058 H 1026.22 -4.08882 2.13572 0
M  V30 10059 H 1024.46 -3.81245 2.06966 0
M  V30 10060 H 1025.13 -5.32535 1.45294 0
M  V30 10061 H 1027.61 -4.1602 -0.0817516 0
M  V30 10062 H 1026.48 -5.46122 -0.551527 0
M  V30 10063 H 1026.74 -4.1062 -1.6384 0
M  V30 10064 N 1025.8 -0.366053 -1.5329 0
M  V30 10065 C 1026.75 0.495319 -2.27265 0
M  V30 10066 C 1027.74 1.08298 -1.30261 0
M  V30 10067 O 1028.95 1.02613 -1.47887 0
M  V30 10068 H 1025.32 0.178454 -0.730519 0
M  V30 10069 H 1027.3 -0.150354 -2.98021 0
M  V30 10070 C 1026.04 1.62283 -3.07505 0
M  V30 10071 H 1025.37 1.17993 -3.81992 0
M  V30 10072 H 1026.81 2.20024 -3.62444 0
M  V30 10073 C 1025.27 2.56542 -2.18375 0
M  V30 10074 O 1025.8 3.59371 -1.79486 0
M  V30 10075 N 1024 2.25742 -1.82999 0
M  V30 10076 H 1023.55 1.42159 -2.14822 0
M  V30 10077 H 1023.51 2.89064 -1.2365 0
M  V30 10078 N 1027.28 1.57312 -0.0952337 0
M  V30 10079 C 1028.53 1.93974 0.567319 0
M  V30 10080 C 1028.85 0.977805 1.68713 0
M  V30 10081 O 1028.12 0.0298944 1.95877 0
M  V30 10082 H 1026.7 0.71612 0.212558 0
M  V30 10083 H 1029.36 1.94254 -0.158598 0
M  V30 10084 H 1028.46 2.964 0.977423 0
M  V30 10085 N 1028.76 -0.17846 1.56586 0
M  V30 10086 C 1030.17 -0.529957 1.50544 0
M  V30 10087 C 1030.37 -1.85015 0.798237 0
M  V30 10088 O 1029.43 -2.49983 0.355639 0
M  V30 10089 C 1030.74 -0.569314 2.95261 0
M  V30 10090 C 1032.29 -0.657008 3.06027 0
M  V30 10091 C 1032.77 -0.727323 4.52188 0
M  V30 10092 N 1034.26 -0.790406 4.56406 0
M  V30 10093 C 1034.99 -0.865265 5.66834 0
M  V30 10094 N 1034.49 -0.901398 6.86911 0
M  V30 10095 N 1036.28 -0.903736 5.54787 0
M  V30 10096 H 1028.43 0.687304 2.00972 0
M  V30 10097 H 1030.69 0.246936 0.915274 0
M  V30 10098 H 1030.4 0.331934 3.5013 0
M  V30 10099 H 1030.27 -1.41828 3.4952 0
M  V30 10100 H 1032.66 -1.54868 2.51197 0
M  V30 10101 H 1032.74 0.218495 2.54865 0
M  V30 10102 H 1032.39 0.160067 5.07648 0
M  V30 10103 H 1032.32 -1.61887 5.01099 0
M  V30 10104 H 1034.81 -0.771054 3.6995 0
M  V30 10105 H 1035.12 -0.959494 7.6682 0
M  V30 10106 H 1033.47 -0.869795 6.89536 0
M  V30 10107 H 1036.66 -0.872459 4.59898 0
M  V30 10108 H 1036.83 -0.958615 6.4087 0
M  V30 10109 N 1030.24 -1.51135 -0.446768 0
M  V30 10110 C 1031.65 -1.39101 -0.782504 0
M  V30 10111 C 1031.85 -0.46599 -1.96038 0
M  V30 10112 O 1030.91 0.0823679 -2.52366 0
M  V30 10113 C 1032.22 -2.80953 -1.07173 0
M  V30 10114 C 1033.77 -2.90038 -1.17673 0
M  V30 10115 C 1034.24 -4.32777 -1.49894 0
M  V30 10116 N 1035.73 -4.3584 -1.56837 0
M  V30 10117 C 1036.47 -5.43305 -1.83322 0
M  V30 10118 N 1035.97 -6.60945 -2.07662 0
M  V30 10119 N 1037.76 -5.30775 -1.85026 0
M  V30 10120 H 1029.91 -2.09835 0.329114 0
M  V30 10121 H 1032.17 -0.944199 0.0848054 0
M  V30 10122 H 1031.88 -3.50591 -0.279037 0
M  V30 10123 H 1031.75 -3.197 -2.00179 0
M  V30 10124 H 1034.14 -2.20603 -1.96005 0
M  V30 10125 H 1034.22 -2.54801 -0.225892 0
M  V30 10126 H 1033.86 -5.02757 -0.720924 0
M  V30 10127 H 1033.79 -4.6552 -2.46168 0
M  V30 10128 H 1036.29 -3.51023 -1.39968 0
M  V30 10129 H 1036.6 -7.38643 -2.27214 0
M  V30 10130 H 1034.94 -6.64077 -2.05003 0
M  V30 10131 H 1038.13 -4.37858 -1.65523 0
M  V30 10132 H 1038.31 -6.14609 -2.05329 0
M  V30 10133 N 1031.71 0.701592 -1.41122 0
M  V30 10134 C 1032.62 1.84548 -1.44841 0
M  V30 10135 C 1033.64 1.70654 -0.339594 0
M  V30 10136 O 1034.82 1.92675 -0.586378 0
M  V30 10137 C 1031.88 3.20477 -1.3227 0
M  V30 10138 C 1030.94 3.46524 -2.53415 0
M  V30 10139 C 1030.17 4.75968 -2.41434 0
M  V30 10140 O 1030.4 5.52037 -1.43566 0
M  V30 10141 O 1029.33 5.02664 -3.31078 0
M  V30 10142 H 1033.16 1.84367 -2.41335 0
M  V30 10143 H 1030.74 0.853863 -1.22595 0
M  V30 10144 H 1032.62 4.01642 -1.2752 0
M  V30 10145 H 1031.3 3.21355 -0.388889 0
M  V30 10146 H 1030.21 2.65313 -2.63742 0
M  V30 10147 H 1031.54 3.50455 -3.45604 0
M  V30 10148 N 1033.19 1.2685 0.935242 0
M  V30 10149 C 1034.44 1.12132 1.67658 0
M  V30 10150 C 1034.75 -0.333839 1.9273 0
M  V30 10151 O 1035.96 -0.601801 2.64746 0
M  V30 10152 C 1034.42 1.95873 3.0193 0
M  V30 10153 C 1034.02 3.46 2.84584 0
M  V30 10154 C 1035.77 1.89781 3.79715 0
M  V30 10155 C 1033.67 4.21966 4.14365 0
M  V30 10156 H 1032.6 0.416035 0.628833 0
M  V30 10157 H 1035.26 1.51209 1.03962 0
M  V30 10158 H 1033.64 1.49633 3.66641 0
M  V30 10159 H 1034.81 4.00049 2.28687 0
M  V30 10160 H 1033.13 3.53391 2.20236 0
M  V30 10161 H 1035.72 2.43819 4.75875 0
M  V30 10162 H 1036.07 0.869797 4.07112 0
M  V30 10163 H 1036.6 2.33875 3.21788 0
M  V30 10164 H 1033.34 5.2526 3.9215 0
M  V30 10165 H 1032.86 3.72696 4.69955 0
M  V30 10166 H 1034.54 4.30734 4.82781 0
M  V30 10167 N 1034.67 -1.14067 1.0875 0
M  V30 10168 C 1035.9 -1.89041 0.840902 0
M  V30 10169 C 1036.31 -1.78768 -0.60725 0
M  V30 10170 O 1035.67 -1.14945 -1.41753 0
M  V30 10171 C 1035.72 -3.38891 1.25838 0
M  V30 10172 O 1035.44 -3.48886 2.64972 0
M  V30 10173 C 1036.94 -4.30852 1.04315 0
M  V30 10174 H 1034.16 -0.598685 0.303014 0
M  V30 10175 H 1036.71 -1.44438 1.44769 0
M  V30 10176 H 1034.86 -3.81103 0.695627 0
M  V30 10177 H 1035.28 -4.41989 2.82393 0
M  V30 10178 H 1036.75 -5.34353 1.38461 0
M  V30 10179 H 1037.23 -4.39196 -0.0195784 0
M  V30 10180 H 1037.83 -3.944 1.59151 0
M  V30 10181 N 1036.15 -0.873678 -1.31166 0
M  V30 10182 C 1037.4 -0.486457 -1.9657 0
M  V30 10183 C 1037.72 0.962042 -1.69041 0
M  V30 10184 O 1036.98 1.69305 -0.981543 0
M  V30 10185 C 1037.28 -0.69462 -3.50585 0
M  V30 10186 C 1036.94 -2.11647 -3.98141 0
M  V30 10187 C 1035.61 -2.50531 -4.10838 0
M  V30 10188 C 1037.96 -3.0436 -4.23101 0
M  V30 10189 C 1035.29 -3.81361 -4.45848 0
M  V30 10190 C 1037.64 -4.34709 -4.59577 0
M  V30 10191 C 1036.3 -4.73502 -4.70481 0
M  V30 10192 H 1035.57 -0.178007 -0.719301 0
M  V30 10193 H 1038.22 -1.10737 -1.56235 0
M  V30 10194 H 1036.52 0.00940878 -3.91799 0
M  V30 10195 H 1038.22 -0.374782 -3.99245 0
M  V30 10196 H 1034.81 -1.8046 -3.88757 0
M  V30 10197 H 1038.99 -2.75544 -4.12782 0
M  V30 10198 H 1034.25 -4.11174 -4.52488 0
M  V30 10199 H 1038.42 -5.06596 -4.77842 0
M  V30 10200 H 1036.05 -5.74919 -4.97365 0
M  V30 10201 N 1037.63 1.44308 -0.633487 0
M  V30 10202 C 1038.54 2.34492 0.0711787 0
M  V30 10203 C 1039.55 1.52754 0.8332 0
M  V30 10204 O 1040.73 1.85475 0.784929 0
M  V30 10205 C 1037.79 3.30767 1.03895 0
M  V30 10206 C 1036.85 4.28412 0.276043 0
M  V30 10207 C 1036.09 5.20087 1.19772 0
M  V30 10208 O 1036.31 5.15743 2.4365 0
M  V30 10209 O 1035.24 5.98038 0.680764 0
M  V30 10210 H 1039.07 2.96203 -0.67063 0
M  V30 10211 H 1036.66 1.4412 -0.393678 0
M  V30 10212 H 1038.54 3.90021 1.59566 0
M  V30 10213 H 1037.21 2.71586 1.76133 0
M  V30 10214 H 1036.12 3.72696 -0.32377 0
M  V30 10215 H 1037.45 4.9052 -0.406364 0
M  V30 10216 N 1039.1 0.374177 1.53094 0
M  V30 10217 C 1040.03 -0.459976 2.28925 0
M  V30 10218 C 1041.02 -1.07656 1.31698 0
M  V30 10219 O 1042.2 -1.09219 1.60577 0
M  V30 10220 C 1039.33 -1.5954 3.08487 0
M  V30 10221 C 1038.28 -1.10563 4.13473 0
M  V30 10222 C 1037.61 -2.33196 4.81169 0
M  V30 10223 C 1038.91 -0.184275 5.21975 0
M  V30 10224 H 1040.6 0.172692 2.98902 0
M  V30 10225 H 1038.15 0.0844956 1.43752 0
M  V30 10226 H 1040.1 -2.18565 3.60288 0
M  V30 10227 H 1038.83 -2.25543 2.36216 0
M  V30 10228 H 1037.49 -0.53801 3.62631 0
M  V30 10229 H 1037.13 -2.97675 4.05461 0
M  V30 10230 H 1036.83 -2.01094 5.52119 0
M  V30 10231 H 1038.36 -2.92892 5.35767 0
M  V30 10232 H 1039.77 -0.682262 5.69226 0
M  V30 10233 H 1038.17 0.0462746 6.00082 0
M  V30 10234 H 1039.24 0.771152 4.78729 0
M  V30 10235 N 1040.58 -1.57259 0.103575 0
M  V30 10236 C 1041.55 -2.13337 -0.837859 0
M  V30 10237 C 1042.55 -1.06459 -1.20512 0
M  V30 10238 O 1043.74 -1.32307 -1.13316 0
M  V30 10239 C 1040.87 -2.66093 -2.13089 0
M  V30 10240 H 1042.06 -2.97842 -0.350775 0
M  V30 10241 H 1039.61 -1.55621 -0.145511 0
M  V30 10242 H 1040.35 -1.85133 -2.66264 0
M  V30 10243 H 1040.13 -3.44244 -1.87719 0
M  V30 10244 H 1041.62 -3.09443 -2.80419 0
M  V30 10245 N 1042.06 0.170153 -1.56679 0
M  V30 10246 C 1043.01 1.21064 -1.965 0
M  V30 10247 C 1043.98 1.43928 -0.829092 0
M  V30 10248 O 1045.16 1.56649 -1.08931 0
M  V30 10249 C 1042.3 2.54468 -2.33109 0
M  V30 10250 C 1041.42 2.38974 -3.59883 0
M  V30 10251 C 1040.55 3.65252 -3.857 0
M  V30 10252 C 1039.59 3.44696 -5.05817 0
M  V30 10253 N 1038.73 4.63047 -5.27761 0
M  V30 10254 H 1043.57 0.864055 -2.85198 0
M  V30 10255 H 1041.1 0.415243 -1.41117 0
M  V30 10256 H 1043.06 3.32222 -2.52358 0
M  V30 10257 H 1041.69 2.8712 -1.4752 0
M  V30 10258 H 1040.74 1.5239 -3.48542 0
M  V30 10259 H 1042.06 2.19731 -4.47794 0
M  V30 10260 H 1041.21 4.51441 -4.05322 0
M  V30 10261 H 1039.95 3.87475 -2.96166 0
M  V30 10262 H 1038.95 2.56893 -4.86092 0
M  V30 10263 H 1040.18 3.23894 -5.96883 0
M  V30 10264 H 1038.12 4.85487 -4.41179 0
M  V30 10265 H 1038.04 4.46722 -6.09898 0
M  V30 10266 H 1039.31 5.50516 -5.51863 0
M  V30 10267 N 1043.54 1.5137 0.438746 0
M  V30 10268 C 1044.79 1.63645 1.18595 0
M  V30 10269 C 1045.11 0.354241 1.91755 0
M  V30 10270 O 1044.38 -0.629838 1.85499 0
M  V30 10271 H 1042.96 0.603103 0.440767 0
M  V30 10272 H 1045.62 1.88293 0.503159 0
M  V30 10273 H 1044.72 2.46342 1.9163 0
M  V30 10274 N 1045.02 -0.694098 1.41492 0
M  V30 10275 C 1045.93 -1.83778 1.45818 0
M  V30 10276 C 1046.94 -1.70471 0.348639 0
M  V30 10277 O 1048.12 -1.92361 0.596588 0
M  V30 10278 C 1045.18 -3.19771 1.33967 0
M  V30 10279 C 1044.24 -3.45175 2.5525 0
M  V30 10280 C 1043.48 -4.74681 2.43955 0
M  V30 10281 O 1043.7 -5.51268 1.46491 0
M  V30 10282 O 1042.63 -5.00901 3.33739 0
M  V30 10283 H 1046.46 -1.83084 2.42309 0
M  V30 10284 H 1044.05 -0.847349 1.23046 0
M  V30 10285 H 1045.93 -4.00961 1.29648 0
M  V30 10286 H 1044.6 -3.21145 0.405926 0
M  V30 10287 H 1043.51 -2.6391 2.65146 0
M  V30 10288 H 1044.84 -3.48617 3.47458 0
M  V30 10289 N 1046.49 -1.27344 -0.928501 0
M  V30 10290 C 1047.74 -1.13804 -1.67859 0
M  V30 10291 C 1048.07 0.31555 -1.91619 0
M  V30 10292 O 1047.35 1.23087 -1.50599 0
M  V30 10293 C 1047.63 -1.9213 -3.04562 0
M  V30 10294 C 1047.48 -3.45468 -2.88048 0
M  V30 10295 C 1048.8 -1.72513 -4.04879 0
M  V30 10296 H 1045.92 -0.414796 -0.609191 0
M  V30 10297 H 1048.56 -1.5649 -1.07753 0
M  V30 10298 H 1046.71 -1.55853 -3.55868 0
M  V30 10299 H 1048.39 -3.9157 -2.43865 0
M  V30 10300 H 1046.63 -3.71849 -2.23407 0
M  V30 10301 H 1047.3 -3.95515 -3.85061 0
M  V30 10302 H 1049.78 -2.04143 -3.62581 0
M  V30 10303 H 1048.65 -2.29713 -4.98521 0
M  V30 10304 H 1048.91 -0.672856 -4.3695 0
M  V30 10305 N 1047.97 1.13488 -1.09353 0
M  V30 10306 C 1049.22 1.85022 -0.830354 0
M  V30 10307 C 1049.55 1.83266 0.64242 0
M  V30 10308 O 1048.83 1.27024 1.47293 0
M  V30 10309 C 1049.11 3.33218 -1.36521 0
M  V30 10310 C 1048.96 3.43491 -2.90404 0
M  V30 10311 C 1050.28 4.28626 -0.998381 0
M  V30 10312 H 1047.4 0.671786 -0.303105 0
M  V30 10313 H 1050.04 1.33211 -1.3548 0
M  V30 10314 H 1048.19 3.77471 -0.919117 0
M  V30 10315 H 1049.86 3.07954 -3.43456 0
M  V30 10316 H 1048.11 2.84391 -3.27573 0
M  V30 10317 H 1048.78 4.47702 -3.22905 0
M  V30 10318 H 1051.25 3.9244 -1.38311 0
M  V30 10319 H 1050.13 5.30754 -1.39968 0
M  V30 10320 H 1050.39 4.42001 0.093517 0
M  V30 10321 N 1049.45 0.880621 1.30701 0
M  V30 10322 C 1050.4 0.342397 2.28246 0
M  V30 10323 C 1051.37 -0.565023 1.56194 0
M  V30 10324 O 1052.55 -0.494377 1.84284 0
M  V30 10325 C 1049.69 -0.440859 3.42272 0
M  V30 10326 C 1048.81 0.495284 4.29151 0
M  V30 10327 C 1047.94 -0.303141 5.30334 0
M  V30 10328 C 1046.98 0.628751 6.08862 0
M  V30 10329 N 1046.12 -0.13408 7.01972 0
M  V30 10330 H 1050.96 1.17938 2.73669 0
M  V30 10331 H 1048.49 0.59296 1.34619 0
M  V30 10332 H 1050.45 -0.910854 4.07135 0
M  V30 10333 H 1049.08 -1.24245 2.97931 0
M  V30 10334 H 1048.13 1.08376 3.64635 0
M  V30 10335 H 1049.45 1.2094 4.83916 0
M  V30 10336 H 1048.6 -0.835181 6.00924 0
M  V30 10337 H 1047.34 -1.05049 4.76252 0
M  V30 10338 H 1046.34 1.17246 5.37153 0
M  V30 10339 H 1047.57 1.37512 6.65032 0
M  V30 10340 H 1045.52 -0.864046 6.50285 0
M  V30 10341 H 1045.43 0.520486 7.54206 0
M  V30 10342 H 1046.7 -0.647005 7.7681 0
M  V30 10343 N 1050.93 -1.4397 0.641131 0
M  V30 10344 C 1052.15 -2.06818 0.155318 0
M  V30 10345 C 1052.58 -1.47665 -1.16519 0
M  V30 10346 O 1051.94 -0.58192 -1.71707 0
M  V30 10347 C 1051.99 -3.60542 0.0647537 0
M  V30 10348 O 1051.09 -4.00674 -0.976447 0
M  V30 10349 H 1050.43 -0.657962 0.0893404 0
M  V30 10350 H 1052.96 -1.84678 0.88064 0
M  V30 10351 H 1052.97 -4.07816 -0.122552 0
M  V30 10352 H 1051.65 -4.02975 1.02878 0
M  V30 10353 H 1050.22 -3.65013 -0.762905 0
M  V30 10354 N 1052.41 -0.382291 -1.52893 0
M  V30 10355 C 1053.36 0.471187 -2.27778 0
M  V30 10356 C 1054.35 1.0691 -1.31402 0
M  V30 10357 O 1055.56 1.01038 -1.48967 0
M  V30 10358 H 1051.93 0.170696 -0.732371 0
M  V30 10359 H 1053.9 -0.181954 -2.97845 0
M  V30 10360 C 1052.65 1.59012 -3.09209 0
M  V30 10361 H 1051.97 1.13935 -3.83222 0
M  V30 10362 H 1053.41 2.16167 -3.64757 0
M  V30 10363 C 1051.87 2.54212 -2.21084 0
M  V30 10364 O 1052.4 3.57447 -1.83288 0
M  V30 10365 N 1050.61 2.23789 -1.85383 0
M  V30 10366 H 1050.16 1.39872 -2.16318 0
M  V30 10367 H 1050.11 2.87737 -1.26708 0
M  V30 10368 N 1053.89 1.57202 -0.111913 0
M  V30 10369 C 1054.8 2.18475 0.854753 0
M  V30 10370 C 1055.81 1.15888 1.29792 0
M  V30 10371 O 1056.99 1.48329 1.36237 0
M  V30 10372 C 1054.05 2.76645 2.0897 0
M  V30 10373 C 1053.11 3.94244 1.69913 0
M  V30 10374 C 1052.35 4.49631 2.8752 0
M  V30 10375 O 1052.57 4.03926 4.02741 0
M  V30 10376 O 1051.5 5.40417 2.65015 0
M  V30 10377 H 1055.33 3.01519 0.363352 0
M  V30 10378 H 1052.91 1.4897 0.113329 0
M  V30 10379 H 1054.8 3.13755 2.81311 0
M  V30 10380 H 1053.47 1.96637 2.5713 0
M  V30 10381 H 1052.38 3.61915 0.947013 0
M  V30 10382 H 1053.71 4.75666 1.26501 0
M  V30 10383 N 1055.36 -0.161842 1.56767 0
M  V30 10384 C 1056.61 -0.876925 1.82527 0
M  V30 10385 C 1056.94 -1.81831 0.690492 0
M  V30 10386 O 1056.19 -1.9304 -0.32159 0
M  V30 10387 C 1056.49 -1.69736 3.14522 0
M  V30 10388 C 1056.16 -0.904075 4.41743 0
M  V30 10389 C 1054.82 -0.685168 4.76297 0
M  V30 10390 C 1057.17 -0.348282 5.20035 0
M  V30 10391 C 1054.5 0.10048 5.86614 0
M  V30 10392 C 1056.85 0.424327 6.31175 0
M  V30 10393 C 1055.52 0.653948 6.64289 0
M  V30 10394 H 1054.79 -0.320889 0.667915 0
M  V30 10395 H 1057.43 -0.141338 1.90978 0
M  V30 10396 H 1055.74 -2.50262 3.01456 0
M  V30 10397 H 1057.44 -2.25386 3.31666 0
M  V30 10398 H 1054.03 -1.08474 4.14646 0
M  V30 10399 H 1058.21 -0.504721 4.93727 0
M  V30 10400 H 1053.47 0.288029 6.10721 0
M  V30 10401 H 1057.64 0.862203 6.91042 0
M  V30 10402 H 1055.27 1.26459 7.49608 0
M  V30 10403 N 1056.84 -1.516 -0.430713 0
M  V30 10404 C 1058.07 -1.68414 -1.20185 0
M  V30 10405 C 1058.48 -0.384297 -1.84847 0
M  V30 10406 O 1057.84 0.637808 -1.70992 0
M  V30 10407 C 1057.89 -2.80451 -2.28099 0
M  V30 10408 O 1057.61 -4.05399 -1.66081 0
M  V30 10409 C 1059.11 -3.0859 -3.18256 0
M  V30 10410 H 1056.33 -0.564982 -0.361989 0
M  V30 10411 H 1058.88 -1.9805 -0.50954 0
M  V30 10412 H 1057.03 -2.53395 -2.93036 0
M  V30 10413 H 1057.45 -4.67671 -2.37453 0
M  V30 10414 H 1058.92 -3.9055 -3.90096 0
M  V30 10415 H 1059.4 -2.21264 -3.79393 0
M  V30 10416 H 1060 -3.37331 -2.59014 0
M  V30 10417 N 1058.32 0.686584 -1.41858 0
M  V30 10418 C 1059.57 1.44879 -1.41908 0
M  V30 10419 C 1059.9 1.94175 -0.0311408 0
M  V30 10420 O 1059.17 1.70131 0.942646 0
M  V30 10421 C 1059.46 2.65428 -2.43352 0
M  V30 10422 C 1059.31 2.2184 -3.91289 0
M  V30 10423 C 1060.63 3.67635 -2.41934 0
M  V30 10424 H 1057.75 0.525477 -0.516762 0
M  V30 10425 H 1060.39 0.781263 -1.73194 0
M  V30 10426 H 1058.54 3.2238 -2.16803 0
M  V30 10427 H 1060.21 1.70146 -4.28775 0
M  V30 10428 H 1058.45 1.53531 -4.05722 0
M  V30 10429 H 1059.13 3.08376 -4.5783 0
M  V30 10430 H 1061.6 3.20376 -2.65516 0
M  V30 10431 H 1060.48 4.49579 -3.14913 0
M  V30 10432 H 1060.74 4.17953 -1.44111 0
M  V30 10433 N 1059.8 1.27835 0.921735 0
M  V30 10434 C 1060.74 1.11075 2.02314 0
M  V30 10435 C 1061.71 0.0101195 1.66097 0
M  V30 10436 O 1062.9 0.173564 1.90009 0
M  V30 10437 C 1060.04 0.770251 3.36394 0
M  V30 10438 C 1059.15 1.94912 3.8553 0
M  V30 10439 C 1058.29 1.54996 5.08084 0
M  V30 10440 C 1057.33 2.69595 5.49531 0
M  V30 10441 N 1056.46 2.30227 6.6328 0
M  V30 10442 H 1061.3 2.05319 2.15982 0
M  V30 10443 H 1058.84 1.022 1.058 0
M  V30 10444 H 1060.8 0.553624 4.1351 0
M  V30 10445 H 1059.43 -0.135238 3.22517 0
M  V30 10446 H 1058.48 2.27811 3.04641 0
M  V30 10447 H 1059.79 2.80858 4.12214 0
M  V30 10448 H 1058.95 1.29493 5.9272 0
M  V30 10449 H 1057.69 0.661676 4.83191 0
M  V30 10450 H 1056.69 2.95806 4.63442 0
M  V30 10451 H 1057.92 3.59054 5.76417 0
M  V30 10452 H 1055.86 1.43858 6.40032 0
M  V30 10453 H 1055.78 3.09711 6.89649 0
M  V30 10454 H 1057.05 2.07987 7.5124 0
M  V30 10455 N 1061.28 -1.12907 1.09954 0
M  V30 10456 C 1062.19 -2.22082 0.756095 0
M  V30 10457 C 1063.2 -1.72277 -0.244272 0
M  V30 10458 O 1064.38 -2.01224 -0.0842637 0
M  V30 10459 C 1061.44 -3.46192 0.187642 0
M  V30 10460 C 1060.5 -4.10861 1.24465 0
M  V30 10461 C 1059.74 -5.29047 0.703227 0
M  V30 10462 O 1059.96 -5.68443 -0.472043 0
M  V30 10463 O 1058.89 -5.83904 1.46082 0
M  V30 10464 H 1062.72 -2.53842 1.66727 0
M  V30 10465 H 1060.3 -1.21145 0.874316 0
M  V30 10466 H 1062.19 -4.21212 -0.125774 0
M  V30 10467 H 1060.86 -3.16119 -0.696459 0
M  V30 10468 H 1059.77 -3.37643 1.61085 0
M  V30 10469 H 1061.1 -4.45078 2.10159 0
M  V30 10470 N 1062.75 -0.88754 -1.30232 0
M  V30 10471 C 1063.98 -0.522306 -2.00199 0
M  V30 10472 C 1064.4 0.889866 -1.66514 0
M  V30 10473 O 1063.75 1.58558 -0.903639 0
M  V30 10474 C 1063.8 -0.690551 -3.54843 0
M  V30 10475 O 1063.53 -2.04713 -3.8733 0
M  V30 10476 C 1065.03 -0.328649 -4.4208 0
M  V30 10477 H 1062.25 -0.201628 -0.63999 0
M  V30 10478 H 1064.79 -1.19355 -1.66056 0
M  V30 10479 H 1062.95 -0.0666493 -3.87343 0
M  V30 10480 H 1063.36 -2.06762 -4.82027 0
M  V30 10481 H 1064.83 -0.497257 -5.49756 0
M  V30 10482 H 1065.31 0.733502 -4.33032 0
M  V30 10483 H 1065.92 -0.928982 -4.1503 0
M  V30 10484 N 1064.23 1.43628 -0.648757 0
M  V30 10485 C 1065.18 2.32529 0.057536 0
M  V30 10486 C 1066.17 1.48358 0.817699 0
M  V30 10487 O 1067.38 1.64595 0.728605 0
M  V30 10488 H 1063.76 0.75107 0.037388 0
M  V30 10489 H 1065.73 2.89829 -0.710062 0
M  V30 10490 C 1064.48 3.32605 1.01336 0
M  V30 10491 H 1063.8 3.97395 0.437855 0
M  V30 10492 H 1065.24 3.97453 1.47672 0
M  V30 10493 C 1063.7 2.62865 2.10722 0
M  V30 10494 O 1064.23 2.4408 3.19042 0
M  V30 10495 N 1062.43 2.22312 1.87152 0
M  V30 10496 H 1061.98 2.3779 0.990644 0
M  V30 10497 H 1061.94 1.75979 2.60536 0
M  V30 10498 N 1065.71 0.390394 1.52688 0
M  V30 10499 C 1066.96 -0.191067 2.01195 0
M  V30 10500 C 1067.28 -1.47229 1.27862 0
M  V30 10501 O 1066.55 -1.91793 0.399007 0
M  V30 10502 H 1065.13 -0.073596 0.743366 0
M  V30 10503 H 1067.79 0.522334 1.8777 0
M  V30 10504 H 1066.89 -0.40051 3.0952 0
M  V30 10505 N 1067.19 -1.57141 0.120249 0
M  V30 10506 C 1068.14 -2.15379 -0.829497 0
M  V30 10507 C 1069.11 -1.07913 -1.2627 0
M  V30 10508 O 1070.29 -1.35827 -1.33999 0
M  V30 10509 C 1067.43 -2.75847 -2.0737 0
M  V30 10510 C 1066.54 -3.97624 -1.68875 0
M  V30 10511 C 1065.68 -4.46175 -2.88272 0
M  V30 10512 C 1064.72 -5.60481 -2.46023 0
M  V30 10513 N 1063.85 -6.0377 -3.58337 0
M  V30 10514 H 1068.69 -2.96211 -0.326031 0
M  V30 10515 H 1066.23 -1.46341 -0.149235 0
M  V30 10516 H 1068.19 -3.09037 -2.80272 0
M  V30 10517 H 1066.82 -1.97703 -2.55174 0
M  V30 10518 H 1065.87 -3.70588 -0.858431 0
M  V30 10519 H 1067.18 -4.80512 -1.33827 0
M  V30 10520 H 1066.34 -4.8128 -3.69397 0
M  V30 10521 H 1065.08 -3.6224 -3.26548 0
M  V30 10522 H 1064.08 -5.24979 -1.63331 0
M  V30 10523 H 1065.31 -6.46184 -2.08863 0
M  V30 10524 H 1063.25 -5.22776 -3.96284 0
M  V30 10525 H 1063.17 -6.81517 -3.27217 0
M  V30 10526 H 1064.44 -6.43514 -4.39898 0
M  V30 10527 N 1068.67 0.153526 -1.5685 0
M  V30 10528 C 1069.58 1.20932 -2.01029 0
M  V30 10529 C 1070.59 1.47401 -0.924598 0
M  V30 10530 O 1071.77 1.592 -1.23359 0
M  V30 10531 C 1068.83 2.52438 -2.37647 0
M  V30 10532 C 1067.89 2.33673 -3.60132 0
M  V30 10533 C 1067.13 3.58909 -3.94994 0
M  V30 10534 O 1067.35 4.64823 -3.30599 0
M  V30 10535 O 1066.28 3.5196 -4.8827 0
M  V30 10536 H 1070.11 0.864273 -2.91143 0
M  V30 10537 H 1067.7 0.361755 -1.44954 0
M  V30 10538 H 1069.58 3.29981 -2.62088 0
M  V30 10539 H 1068.25 2.86486 -1.5069 0
M  V30 10540 H 1067.16 1.54102 -3.40886 0
M  V30 10541 H 1068.49 2.04544 -4.47686 0
M  V30 10542 N 1070.14 1.51827 0.422667 0
M  V30 10543 C 1071.37 1.69049 1.1929 0
M  V30 10544 C 1071.79 0.394095 1.84641 0
M  V30 10545 O 1071.14 -0.628731 1.71328 0
M  V30 10546 C 1071.2 2.81657 2.26609 0
M  V30 10547 O 1070.92 4.06275 1.63929 0
M  V30 10548 C 1072.42 3.10274 3.16615 0
M  V30 10549 H 1069.64 0.566894 0.358988 0
M  V30 10550 H 1072.18 1.98318 0.499029 0
M  V30 10551 H 1070.34 2.54945 2.91688 0
M  V30 10552 H 1070.75 4.68924 2.3497 0
M  V30 10553 H 1072.22 3.92613 3.88019 0
M  V30 10554 H 1072.7 2.23273 3.78214 0
M  V30 10555 H 1073.31 3.387 2.57221 0
M  V30 10556 N 1071.62 -0.679052 1.4222 0
M  V30 10557 C 1072.85 -1.47248 1.46058 0
M  V30 10558 C 1073.27 -1.87962 0.0720987 0
M  V30 10559 O 1072.63 -1.5572 -0.928488 0
M  V30 10560 C 1072.68 -2.70067 2.38948 0
M  V30 10561 O 1071.78 -3.68178 1.85791 0
M  V30 10562 H 1071.12 -0.442533 0.495036 0
M  V30 10563 H 1073.65 -0.833263 1.86863 0
M  V30 10564 H 1073.66 -3.18187 2.55385 0
M  V30 10565 H 1072.34 -2.39773 3.39826 0
M  V30 10566 H 1070.92 -3.2719 1.78889 0
M  V30 10567 N 1073.1 -1.28322 -0.914942 0
M  V30 10568 C 1074.03 -1.14681 -2.03398 0
M  V30 10569 C 1075.01 -0.0448939 -1.70041 0
M  V30 10570 O 1076.2 -0.221672 -1.92931 0
M  V30 10571 C 1073.33 -0.806623 -3.37803 0
M  V30 10572 C 1072.28 -1.86318 -3.85318 0
M  V30 10573 C 1071.61 -1.37665 -5.16674 0
M  V30 10574 C 1072.91 -3.26953 -4.07307 0
M  V30 10575 H 1074.6 -2.08293 -2.15068 0
M  V30 10576 H 1072.15 -1.00284 -1.03339 0
M  V30 10577 H 1074.1 -0.69796 -4.1558 0
M  V30 10578 H 1072.82 0.165203 -3.26182 0
M  V30 10579 H 1071.48 -1.96096 -3.09745 0
M  V30 10580 H 1071.13 -0.393927 -5.01455 0
M  V30 10581 H 1070.83 -2.08313 -5.49435 0
M  V30 10582 H 1072.35 -1.28119 -5.97007 0
M  V30 10583 H 1073.77 -3.20102 -4.75613 0
M  V30 10584 H 1072.17 -3.95424 -4.51398 0
M  V30 10585 H 1073.24 -3.71059 -3.12159 0
M  V30 10586 N 1074.58 1.12322 -1.10551 0
M  V30 10587 C 1075.82 1.8413 -0.849932 0
M  V30 10588 C 1076.16 1.83938 0.622946 0
M  V30 10589 O 1075.43 1.28579 1.45937 0
M  V30 10590 C 1075.72 3.31751 -1.40048 0
M  V30 10591 C 1075.57 3.40391 -2.9403 0
M  V30 10592 C 1076.89 4.27543 -1.04379 0
M  V30 10593 H 1074.01 0.668533 -0.310213 0
M  V30 10594 H 1076.65 1.31766 -1.36886 0
M  V30 10595 H 1074.8 3.76475 -0.959102 0
M  V30 10596 H 1076.47 3.04294 -3.46703 0
M  V30 10597 H 1074.71 2.809 -3.30571 0
M  V30 10598 H 1075.38 4.44252 -3.27635 0
M  V30 10599 H 1077.86 3.90951 -1.42466 0
M  V30 10600 H 1076.74 5.2924 -1.4559 0
M  V30 10601 H 1077 4.42075 0.0466316 0
M  V30 10602 N 1076.06 0.894434 1.2976 0
M  V30 10603 C 1077 0.366586 2.2787 0
M  V30 10604 C 1077.97 -0.548425 1.56785 0
M  V30 10605 O 1079.16 -0.474804 1.84798 0
M  V30 10606 C 1076.3 -0.404531 3.42721 0
M  V30 10607 C 1075.41 0.540774 4.28602 0
M  V30 10608 C 1074.55 -0.246875 5.30626 0
M  V30 10609 C 1073.59 0.693294 6.08161 0
M  V30 10610 N 1072.72 -0.059619 7.02075 0
M  V30 10611 H 1077.56 1.20834 2.72402 0
M  V30 10612 H 1075.1 0.607205 1.33983 0
M  V30 10613 H 1077.06 -0.86762 4.08079 0
M  V30 10614 H 1075.69 -1.21078 2.99232 0
M  V30 10615 H 1074.74 1.12237 3.63465 0
M  V30 10616 H 1076.05 1.26065 4.82606 0
M  V30 10617 H 1075.21 -0.771398 6.01776 0
M  V30 10618 H 1073.94 -0.999918 4.77339 0
M  V30 10619 H 1072.95 1.22936 5.35879 0
M  V30 10620 H 1074.17 1.44558 6.63536 0
M  V30 10621 H 1072.12 -0.795026 6.51165 0
M  V30 10622 H 1072.04 0.60045 7.53612 0
M  V30 10623 H 1073.31 -0.564577 7.77453 0
M  V30 10624 N 1077.53 -1.43282 0.656365 0
M  V30 10625 C 1078.78 -2.02075 0.171293 0
M  V30 10626 C 1079.11 -1.51682 -1.21269 0
M  V30 10627 O 1078.39 -0.711243 -1.81029 0
M  V30 10628 C 1078.67 -3.59621 0.185602 0
M  V30 10629 C 1078.52 -4.20239 1.60373 0
M  V30 10630 C 1079.84 -4.37515 -0.476289 0
M  V30 10631 H 1076.96 -0.73424 0.0637185 0
M  V30 10632 H 1079.6 -1.70539 0.837648 0
M  V30 10633 H 1077.75 -3.86619 -0.381804 0
M  V30 10634 H 1079.43 -4.0426 2.22197 0
M  V30 10635 H 1077.67 -3.76769 2.15006 0
M  V30 10636 H 1078.34 -5.29333 1.56557 0
M  V30 10637 H 1080.82 -4.16099 0.00651073 0
M  V30 10638 H 1079.69 -5.47169 -0.435562 0
M  V30 10639 H 1079.95 -4.14003 -1.55093 0
M  V30 10640 N 1079.01 -0.398486 -1.52479 0
M  V30 10641 C 1080.26 0.180394 -2.01293 0
M  V30 10642 C 1080.58 1.46548 -1.28641 0
M  V30 10643 O 1079.85 1.91579 -0.409173 0
M  V30 10644 H 1078.43 0.0696528 -0.743746 0
M  V30 10645 H 1081.09 -0.532285 -1.87491 0
M  V30 10646 H 1080.19 0.38409 -3.09728 0
M  V30 10647 N 1080.49 1.57075 -0.12858 0
M  V30 10648 C 1081.77 1.87075 0.571162 0
M  V30 10649 C 1082.15 1.03141 1.84188 0
M  V30 10650 O 1081.5 0.113001 2.2822 0
M  V30 10651 C 1081.71 3.3838 0.854383 0
M  V30 10652 C 1083.05 4.07194 1.20326 0
M  V30 10653 O 1084.08 3.43454 0.944338 0
M  V30 10654 O 1082.94 5.19725 1.68963 0
M  V30 10655 H 1080.03 0.774764 0.289258 0
M  V30 10656 H 1082.58 1.68908 -0.163806 0
M  V30 10657 H 1081.35 3.91273 -0.0456925 0
M  V30 10658 H 1080.97 3.62012 1.64418 0
M  V30 10659 N 1081.97 -0.145205 1.5693 0
M  V30 10660 C 1082.92 -1.17923 1.98401 0
M  V30 10661 C 1083.89 -1.42591 0.851885 0
M  V30 10662 O 1085.07 -1.54896 1.11409 0
M  V30 10663 C 1082.21 -2.50727 2.37128 0
M  V30 10664 C 1081.32 -2.33218 3.63639 0
M  V30 10665 C 1080.46 -3.5907 3.91462 0
M  V30 10666 C 1079.5 -3.36605 5.11237 0
M  V30 10667 N 1078.64 -4.54592 5.35061 0
M  V30 10668 H 1083.48 -0.818573 2.86537 0
M  V30 10669 H 1081.01 -0.392739 1.4176 0
M  V30 10670 H 1082.97 -3.28165 2.57611 0
M  V30 10671 H 1081.6 -2.84736 1.52069 0
M  V30 10672 H 1080.65 -1.46826 3.50922 0
M  V30 10673 H 1081.96 -2.12579 4.51234 0
M  V30 10674 H 1081.12 -4.44936 4.12453 0
M  V30 10675 H 1079.86 -3.82715 3.02293 0
M  V30 10676 H 1078.86 -2.49127 4.90118 0
M  V30 10677 H 1080.09 -3.14357 6.01961 0
M  V30 10678 H 1078.03 -4.78406 4.48847 0
M  V30 10679 H 1077.95 -4.36962 6.16928 0
M  V30 10680 H 1079.22 -5.41666 5.60551 0
M  V30 10681 N 1083.45 -1.52049 -0.414609 0
M  V30 10682 C 1084.68 -1.69433 -1.18221 0
M  V30 10683 C 1085.09 -0.40104 -1.84901 0
M  V30 10684 O 1084.43 0.632342 -1.72474 0
M  V30 10685 C 1084.49 -2.76986 -2.2917 0
M  V30 10686 C 1084.15 -4.18903 -1.82671 0
M  V30 10687 C 1085.15 -5.02929 -1.31751 0
M  V30 10688 C 1082.84 -4.65113 -1.89672 0
M  V30 10689 C 1084.83 -6.31234 -0.884461 0
M  V30 10690 C 1082.52 -5.93408 -1.45978 0
M  V30 10691 C 1083.52 -6.76297 -0.9545 0
M  V30 10692 O 1083.2 -8.02191 -0.523852 0
M  V30 10693 H 1082.94 -0.571228 -0.36149 0
M  V30 10694 H 1085.49 -1.99355 -0.494643 0
M  V30 10695 H 1083.72 -2.42428 -3.01273 0
M  V30 10696 H 1085.41 -2.83023 -2.90951 0
M  V30 10697 H 1086.17 -4.68422 -1.2572 0
M  V30 10698 H 1082.05 -4.00702 -2.27945 0
M  V30 10699 H 1085.6 -6.95881 -0.489383 0
M  V30 10700 H 1081.49 -6.27424 -1.51687 0
M  V30 10701 H 1082.26 -8.15934 -0.647656 0
M  V30 10702 N 1084.93 0.6715 -1.42579 0
M  V30 10703 C 1086.16 1.4576 -1.46416 0
M  V30 10704 C 1086.56 1.89051 -0.0749843 0
M  V30 10705 O 1085.91 1.58927 0.921296 0
M  V30 10706 C 1085.97 2.7365 -2.33144 0
M  V30 10707 C 1085.63 2.52414 -3.80968 0
M  V30 10708 C 1086.63 2.16804 -4.72538 0
M  V30 10709 C 1084.31 2.67306 -4.25268 0
M  V30 10710 C 1086.31 1.96358 -6.06401 0
M  V30 10711 C 1084 2.46475 -5.5919 0
M  V30 10712 C 1084.99 2.11055 -6.49573 0
M  V30 10713 O 1084.68 1.90428 -7.8102 0
M  V30 10714 H 1084.41 0.454896 -0.500045 0
M  V30 10715 H 1086.97 0.832198 -1.87786 0
M  V30 10716 H 1085.2 3.38684 -1.86629 0
M  V30 10717 H 1086.89 3.35543 -2.28398 0
M  V30 10718 H 1087.65 2.04891 -4.39596 0
M  V30 10719 H 1083.53 2.93854 -3.55206 0
M  V30 10720 H 1087.08 1.68634 -6.76911 0
M  V30 10721 H 1082.97 2.57985 -5.91704 0
M  V30 10722 H 1083.74 2.05 -7.92412 0
M  V30 10723 N 1086.4 1.28806 0.908124 0
M  V30 10724 C 1087.63 1.19271 1.69674 0
M  V30 10725 C 1088.05 -0.244403 1.86505 0
M  V30 10726 O 1087.41 -1.17668 1.37927 0
M  V30 10727 C 1087.46 1.9023 3.06341 0
M  V30 10728 O 1086.56 1.2136 3.94139 0
M  V30 10729 H 1085.9 0.413738 0.519343 0
M  V30 10730 H 1088.43 1.70227 1.13508 0
M  V30 10731 H 1088.44 1.98356 3.56537 0
M  V30 10732 H 1087.12 2.94762 2.93408 0
M  V30 10733 H 1085.7 1.21435 3.52573 0
M  V30 10734 N 1087.88 -1.11734 1.11145 0
M  V30 10735 C 1088.83 -2.17683 0.766979 0
M  V30 10736 C 1089.8 -1.64051 -0.260108 0
M  V30 10737 O 1090.98 -1.90302 -0.137723 0
M  V30 10738 C 1088.12 -3.44442 0.212982 0
M  V30 10739 C 1087.24 -4.12094 1.29626 0
M  V30 10740 C 1086.37 -5.26526 0.703127 0
M  V30 10741 C 1085.41 -5.86057 1.76647 0
M  V30 10742 N 1084.55 -6.91889 1.19306 0
M  V30 10743 H 1089.39 -2.46495 1.67465 0
M  V30 10744 H 1086.92 -1.21011 0.836353 0
M  V30 10745 H 1088.88 -4.17009 -0.126162 0
M  V30 10746 H 1087.51 -3.16025 -0.657888 0
M  V30 10747 H 1086.56 -3.37631 1.75241 0
M  V30 10748 H 1087.88 -4.52398 2.10089 0
M  V30 10749 H 1087.03 -6.05888 0.313859 0
M  V30 10750 H 1085.77 -4.87519 -0.132856 0
M  V30 10751 H 1084.77 -5.05375 2.16508 0
M  V30 10752 H 1086 -6.27132 2.60543 0
M  V30 10753 H 1083.95 -6.54906 0.378664 0
M  V30 10754 H 1083.86 -7.30832 1.93443 0
M  V30 10755 H 1085.13 -7.75062 0.830578 0
M  V30 10756 N 1089.36 -0.901303 -1.29284 0
M  V30 10757 C 1090.27 -0.3849 -2.31421 0
M  V30 10758 C 1091.29 0.521163 -1.66012 0
M  V30 10759 O 1092.46 0.410356 -1.97175 0
M  V30 10760 C 1089.53 0.377804 -3.44635 0
M  V30 10761 C 1088.59 -0.559974 -4.25632 0
M  V30 10762 C 1087.82 0.166425 -5.3344 0
M  V30 10763 O 1088.04 1.39012 -5.53202 0
M  V30 10764 O 1086.98 -0.491875 -5.99887 0
M  V30 10765 H 1090.8 -1.2323 -2.77575 0
M  V30 10766 H 1088.39 -0.665683 -1.3375 0
M  V30 10767 H 1090.27 0.809041 -4.13561 0
M  V30 10768 H 1088.95 1.20124 -3.00586 0
M  V30 10769 H 1087.85 -1.04036 -3.59343 0
M  V30 10770 H 1089.19 -1.34987 -4.73328 0
M  V30 10771 N 1090.84 1.42931 -0.663954 0
M  V30 10772 C 1092.11 1.95284 -0.111174 0
M  V30 10773 C 1092.49 1.60484 1.37142 0
M  V30 10774 O 1091.84 0.895425 2.10225 0
M  V30 10775 C 1092.05 3.47046 -0.368789 0
M  V30 10776 C 1093.4 4.23679 -0.279473 0
M  V30 10777 O 1094.42 3.54918 -0.301937 0
M  V30 10778 O 1093.28 5.46087 -0.21236 0
M  V30 10779 H 1090.38 0.826993 0.00341718 0
M  V30 10780 H 1092.92 1.52816 -0.737935 0
M  V30 10781 H 1091.7 3.65541 -1.39626 0
M  V30 10782 H 1091.32 3.96537 0.290514 0
M  V30 10783 N 1092.32 0.406567 1.52266 0
M  V30 10784 C 1093.56 -0.171391 2.00971 0
M  V30 10785 C 1093.88 -1.46443 1.29668 0
M  V30 10786 O 1095.08 -2.12348 1.69176 0
M  V30 10787 C 1093.54 -0.35599 3.58135 0
M  V30 10788 C 1093.15 0.924803 4.38351 0
M  V30 10789 C 1094.89 -0.889378 4.15079 0
M  V30 10790 C 1092.8 0.707534 5.87152 0
M  V30 10791 H 1091.73 -0.0678253 0.750943 0
M  V30 10792 H 1094.38 0.531619 1.7563 0
M  V30 10793 H 1092.76 -1.12127 3.79794 0
M  V30 10794 H 1093.94 1.69603 4.28452 0
M  V30 10795 H 1092.25 1.38442 3.92712 0
M  V30 10796 H 1094.85 -1.06792 5.23927 0
M  V30 10797 H 1095.19 -1.86334 3.7227 0
M  V30 10798 H 1095.72 -0.183224 3.97378 0
M  V30 10799 H 1092.46 1.65299 6.34316 0
M  V30 10800 H 1091.98 -0.024446 5.99795 0
M  V30 10801 H 1093.66 0.348721 6.4606 0
M  V30 10802 N 1093.79 -1.57004 0.136909 0
M  V30 10803 C 1095.07 -1.87375 -0.561233 0
M  V30 10804 C 1095.45 -1.04117 -1.83638 0
M  V30 10805 O 1094.8 -0.125103 -2.28157 0
M  V30 10806 C 1095.01 -3.38829 -0.836426 0
M  V30 10807 C 1096.36 -4.07826 -1.18164 0
M  V30 10808 O 1097.38 -3.4395 -0.92611 0
M  V30 10809 O 1096.24 -5.20614 -1.66204 0
M  V30 10810 H 1093.33 -0.776287 -0.285145 0
M  V30 10811 H 1095.88 -1.68818 0.172761 0
M  V30 10812 H 1094.65 -3.91244 0.066442 0
M  V30 10813 H 1094.28 -3.62879 -1.62496 0
M  V30 10814 N 1095.27 0.136881 -1.57004 0
M  V30 10815 C 1096.2 1.17026 -2.02057 0
M  V30 10816 C 1097.18 1.44223 -0.901866 0
M  V30 10817 O 1098.37 1.54971 -1.17037 0
M  V30 10818 C 1095.5 2.50095 -2.40977 0
M  V30 10819 C 1094.45 2.37398 -3.56127 0
M  V30 10820 C 1093.78 3.75268 -3.80891 0
M  V30 10821 C 1095.08 1.84952 -4.88457 0
M  V30 10822 H 1096.77 0.795601 -2.88636 0
M  V30 10823 H 1094.32 0.381266 -1.38861 0
M  V30 10824 H 1096.27 3.22621 -2.71097 0
M  V30 10825 H 1095 2.89416 -1.51348 0
M  V30 10826 H 1093.65 1.67322 -3.26188 0
M  V30 10827 H 1093.3 4.12043 -2.88496 0
M  V30 10828 H 1093 3.67631 -4.5839 0
M  V30 10829 H 1094.53 4.49327 -4.13446 0
M  V30 10830 H 1095.94 2.4728 -5.17229 0
M  V30 10831 H 1094.34 1.88181 -5.69832 0
M  V30 10832 H 1095.41 0.805848 -4.78157 0
M  V30 10833 N 1096.75 1.52266 0.40654 0
M  V30 10834 C 1097.98 1.70304 1.17491 0
M  V30 10835 C 1098.39 0.413656 1.84213 0
M  V30 10836 O 1097.75 -0.610524 1.71985 0
M  V30 10837 C 1097.8 2.84045 2.23609 0
M  V30 10838 O 1097.52 4.0799 1.5961 0
M  V30 10839 C 1099.02 3.13614 3.13306 0
M  V30 10840 H 1096.24 0.570669 0.352955 0
M  V30 10841 H 1098.79 1.98836 0.477967 0
M  V30 10842 H 1096.94 2.58025 2.88967 0
M  V30 10843 H 1097.36 4.7139 2.29983 0
M  V30 10844 H 1098.83 3.96707 3.83833 0
M  V30 10845 H 1099.31 2.27272 3.75824 0
M  V30 10846 H 1099.91 3.41409 2.53614 0
M  V30 10847 N 1098.23 -0.663929 1.42933 0
M  V30 10848 C 1099.46 -1.45192 1.474 0
M  V30 10849 C 1099.87 -1.88592 0.0886014 0
M  V30 10850 O 1099.23 -1.58824 -0.898962 0
M  V30 10851 C 1099.28 -2.69394 2.41059 0
M  V30 10852 O 1099 -2.27812 3.7421 0
M  V30 10853 C 1100.5 -3.62855 2.54659 0
M  V30 10854 H 1097.72 -0.446394 0.500973 0
M  V30 10855 H 1100.27 -0.814875 1.87563 0
M  V30 10856 H 1098.42 -3.29262 2.0412 0
M  V30 10857 H 1098.83 -3.08095 4.24474 0
M  V30 10858 H 1100.31 -4.46698 3.24291 0
M  V30 10859 H 1100.79 -4.09487 1.58799 0
M  V30 10860 H 1101.39 -3.08874 2.92364 0
M  V30 10861 N 1099.71 -1.29285 -0.901281 0
M  V30 10862 C 1100.95 -1.16934 -1.64836 0
M  V30 10863 C 1101.28 0.279826 -1.92982 0
M  V30 10864 O 1100.55 1.19179 -1.55478 0
M  V30 10865 H 1099.13 -0.429768 -0.61099 0
M  V30 10866 H 1101.79 -1.62189 -1.08077 0
M  V30 10867 H 1100.88 -1.71821 -2.60545 0
M  V30 10868 N 1101.18 1.11143 -1.11736 0
M  V30 10869 C 1102.12 2.1705 -0.736325 0
M  V30 10870 C 1103.13 1.61116 0.233528 0
M  V30 10871 O 1104.32 1.78493 0.0159602 0
M  V30 10872 C 1101.42 3.38832 -0.067974 0
M  V30 10873 C 1100.59 4.24226 -1.06543 0
M  V30 10874 C 1099.65 5.24472 -0.426063 0
M  V30 10875 O 1098.68 5.58843 -1.0809 0
M  V30 10876 N 1099.88 5.74825 0.809711 0
M  V30 10877 H 1102.64 2.50349 -1.64758 0
M  V30 10878 H 1100.2 1.26693 -1.00799 0
M  V30 10879 H 1102.2 4.02991 0.371563 0
M  V30 10880 H 1100.77 3.0357 0.745917 0
M  V30 10881 H 1099.99 3.56475 -1.68283 0
M  V30 10882 H 1101.27 4.78117 -1.74016 0
M  V30 10883 H 1100.67 5.49088 1.36084 0
M  V30 10884 H 1099.23 6.40804 1.19218 0
M  V30 10885 N 1102.66 0.908147 1.28804 0
M  V30 10886 C 1104.07 0.585727 1.77274 0
M  V30 10887 C 1104.42 -0.898842 1.744 0
M  V30 10888 O 1103.55 -1.70301 1.33516 0
M  V30 10889 C 1104.14 1.05647 3.21907 0
M  V30 10890 C 1102.7 0.785066 3.68122 0
M  V30 10891 C 1101.85 1.22638 2.48707 0
M  V30 10892 H 1104.8 1.09 1.15346 0
M  V30 10893 H 1104.82 0.395442 3.7844 0
M  V30 10894 H 1104.33 2.13698 3.23967 0
M  V30 10895 H 1102.44 -0.282477 3.71528 0
M  V30 10896 H 1102.55 1.38888 4.58527 0
M  V30 10897 H 1100.91 0.645217 2.46392 0
M  V30 10898 H 1101.7 2.31512 2.5349 0
M  V30 10899 N 1104.14 -1.42577 0.671525 0
M  V30 10900 C 1105.09 -2.30798 -0.00883676 0
M  V30 10901 C 1106.06 -1.4578 -0.796076 0
M  V30 10902 O 1107.24 -1.74617 -0.768987 0
M  V30 10903 C 1104.38 -3.31581 -0.956452 0
M  V30 10904 C 1103.5 -4.31691 -0.163381 0
M  V30 10905 C 1102.63 -5.19549 -1.10645 0
M  V30 10906 C 1101.67 -6.1134 -0.304876 0
M  V30 10907 N 1100.81 -6.91761 -1.20048 0
M  V30 10908 H 1105.65 -2.88426 0.749301 0
M  V30 10909 H 1103.18 -1.42074 0.381251 0
M  V30 10910 H 1105.14 -3.88539 -1.51966 0
M  V30 10911 H 1103.77 -2.75561 -1.68126 0
M  V30 10912 H 1102.82 -3.76879 0.516396 0
M  V30 10913 H 1104.14 -4.96683 0.459099 0
M  V30 10914 H 1103.29 -5.81223 -1.73969 0
M  V30 10915 H 1102.03 -4.54726 -1.76282 0
M  V30 10916 H 1101.03 -5.48738 0.341597 0
M  V30 10917 H 1102.26 -6.78211 0.347352 0
M  V30 10918 H 1100.2 -6.2957 -1.84331 0
M  V30 10919 H 1100.12 -7.53345 -0.633003 0
M  V30 10920 H 1101.39 -7.57924 -1.82129 0
M  V30 10921 N 1105.62 -0.414636 -1.52048 0
M  V30 10922 C 1106.55 0.399119 -2.30064 0
M  V30 10923 C 1107.53 1.04126 -1.34506 0
M  V30 10924 O 1108.71 1.04923 -1.63416 0
M  V30 10925 C 1105.84 1.51305 -3.12608 0
M  V30 10926 C 1104.8 0.995621 -4.16259 0
M  V30 10927 C 1104.12 2.20357 -4.87183 0
M  V30 10928 C 1105.42 0.0458178 -5.2228 0
M  V30 10929 H 1107.12 -0.251879 -2.98339 0
M  V30 10930 H 1104.66 -0.122579 -1.43477 0
M  V30 10931 H 1106.62 2.08936 -3.65956 0
M  V30 10932 H 1105.34 2.19201 -2.42113 0
M  V30 10933 H 1104 0.441676 -3.6393 0
M  V30 10934 H 1103.65 2.8682 -4.13211 0
M  V30 10935 H 1103.35 1.86385 -5.57256 0
M  V30 10936 H 1104.87 2.78584 -5.43345 0
M  V30 10937 H 1106.29 0.531102 -5.70835 0
M  V30 10938 H 1104.68 -0.20536 -5.99749 0
M  V30 10939 H 1105.75 -0.897807 -4.76516 0
M  V30 10940 N 1107.1 1.56929 -0.145233 0
M  V30 10941 C 1108.04 2.16671 0.795128 0
M  V30 10942 C 1109.01 1.09908 1.24537 0
M  V30 10943 O 1110.2 1.37941 1.31821 0
M  V30 10944 C 1107.34 2.79111 2.02956 0
M  V30 10945 C 1106.45 4.00261 1.62528 0
M  V30 10946 C 1105.59 4.50705 2.81137 0
M  V30 10947 C 1104.63 5.64324 2.37075 0
M  V30 10948 N 1103.76 6.09395 3.48687 0
M  V30 10949 H 1108.6 2.96692 0.278865 0
M  V30 10950 H 1106.14 1.4656 0.125934 0
M  V30 10951 H 1108.1 3.13456 2.7532 0
M  V30 10952 H 1106.73 2.01737 2.51996 0
M  V30 10953 H 1105.78 3.71906 0.799365 0
M  V30 10954 H 1107.09 4.8258 1.26166 0
M  V30 10955 H 1106.25 4.87096 3.61693 0
M  V30 10956 H 1104.98 3.67389 3.20744 0
M  V30 10957 H 1103.99 5.27511 1.54958 0
M  V30 10958 H 1105.21 6.49425 1.98556 0
M  V30 10959 H 1103.16 5.29014 3.87917 0
M  V30 10960 H 1103.08 6.86636 3.16333 0
M  V30 10961 H 1104.35 6.50431 4.29605 0
M  V30 10962 N 1108.58 -0.128553 1.57075 0
M  V30 10963 C 1109.85 -0.867766 1.75297 0
M  V30 10964 C 1110.23 -1.98508 0.718176 0
M  V30 10965 O 1109.58 -2.2702 -0.259616 0
M  V30 10966 C 1109.79 -1.39326 3.19983 0
M  V30 10967 C 1111.14 -1.84939 3.82208 0
M  V30 10968 O 1112.16 -1.49027 3.23527 0
M  V30 10969 O 1111.02 -2.51227 4.85332 0
M  V30 10970 H 1108.12 -0.411393 0.717415 0
M  V30 10971 H 1110.66 -0.113038 1.69323 0
M  V30 10972 H 1109.43 -0.591172 3.86809 0
M  V30 10973 H 1109.06 -2.21097 3.30457 0
M  V30 10974 N 1110.05 -1.5248 -0.398459 0
M  V30 10975 C 1111.3 -1.66731 -1.14215 0
M  V30 10976 C 1111.62 -0.404957 -1.90749 0
M  V30 10977 O 1110.89 0.580434 -1.87104 0
M  V30 10978 H 1109.47 -0.614577 -0.424622 0
M  V30 10979 H 1112.13 -1.89561 -0.453059 0
M  V30 10980 H 1111.23 -2.51336 -1.85031 0
M  V30 10981 N 1111.53 0.65634 -1.43283 0
M  V30 10982 C 1112.48 1.79058 -1.48462 0
M  V30 10983 C 1113.47 1.65563 -0.358512 0
M  V30 10984 O 1114.68 1.71947 -0.532365 0
M  V30 10985 H 1111.05 0.590716 -0.465358 0
M  V30 10986 H 1113.03 1.7181 -2.43975 0
M  V30 10987 C 1111.77 3.17304 -1.42175 0
M  V30 10988 H 1111.1 3.28324 -2.2813 0
M  V30 10989 H 1112.54 3.96633 -1.4986 0
M  V30 10990 C 1111 3.36613 -0.138929 0
M  V30 10991 O 1111.53 3.93633 0.80101 0
M  V30 10992 N 1109.73 2.90557 -0.0501237 0
M  V30 10993 H 1109.28 2.4434 -0.815821 0
M  V30 10994 H 1109.24 3.03853 0.807504 0
M  V30 10995 N 1113.01 1.29761 0.894412 0
M  V30 10996 C 1114.24 1.2094 1.67872 0
M  V30 10997 C 1114.65 -0.229192 1.87404 0
M  V30 10998 O 1114.01 -1.15278 1.41482 0
M  V30 10999 C 1114.06 1.92424 3.06032 0
M  V30 11000 O 1113.78 3.30665 2.87388 0
M  V30 11001 C 1115.28 1.90144 4.0045 0
M  V30 11002 H 1112.5 0.418942 0.524145 0
M  V30 11003 H 1115.05 1.71226 1.11813 0
M  V30 11004 H 1113.2 1.4596 3.58851 0
M  V30 11005 H 1113.62 3.66741 3.74969 0
M  V30 11006 H 1115.09 2.44716 4.94791 0
M  V30 11007 H 1115.57 0.878175 4.30331 0
M  V30 11008 H 1116.17 2.36375 3.53563 0
M  V30 11009 N 1114.49 -1.10549 1.12324 0
M  V30 11010 C 1115.73 -1.82755 0.879117 0
M  V30 11011 C 1116.07 -1.84905 -0.593604 0
M  V30 11012 O 1115.34 -1.30884 -1.43873 0
M  V30 11013 C 1115.62 -3.29481 1.45308 0
M  V30 11014 C 1115.48 -3.3567 2.99408 0
M  V30 11015 C 1116.8 -4.25828 1.11167 0
M  V30 11016 H 1113.92 -0.663513 0.32081 0
M  V30 11017 H 1116.56 -1.29572 1.38965 0
M  V30 11018 H 1114.71 -3.74902 1.01887 0
M  V30 11019 H 1116.38 -2.98739 3.515 0
M  V30 11020 H 1114.62 -2.75606 3.34998 0
M  V30 11021 H 1115.29 -4.38983 3.34661 0
M  V30 11022 H 1117.77 -3.88635 1.48667 0
M  V30 11023 H 1116.65 -5.26857 1.53991 0
M  V30 11024 H 1116.91 -4.42094 0.0237046 0
M  V30 11025 N 1115.97 -0.914965 -1.28321 0
M  V30 11026 C 1116.93 -0.409024 -2.25521 0
M  V30 11027 C 1117.93 0.465327 -1.5392 0
M  V30 11028 O 1119.12 0.26821 -1.72123 0
M  V30 11029 C 1116.25 0.413452 -3.38383 0
M  V30 11030 H 1117.44 -1.26767 -2.71791 0
M  V30 11031 H 1115 -0.694477 -1.40024 0
M  V30 11032 H 1115.73 1.29145 -2.97476 0
M  V30 11033 H 1115.52 -0.213268 -3.9152 0
M  V30 11034 H 1117.01 0.758232 -4.10659 0
M  V30 11035 N 1117.44 1.42219 -0.679077 0
M  V30 11036 C 1118.41 2.29197 -0.0125475 0
M  V30 11037 C 1119.41 1.43544 0.724691 0
M  V30 11038 O 1120.6 1.64884 0.562052 0
M  V30 11039 C 1117.73 3.26122 0.992846 0
M  V30 11040 H 1118.92 2.89629 -0.778154 0
M  V30 11041 H 1116.47 1.4993 -0.44166 0
M  V30 11042 H 1117.21 2.70637 1.78679 0
M  V30 11043 H 1116.99 3.89302 0.467544 0
M  V30 11044 H 1118.48 3.91339 1.45751 0
M  V30 11045 N 1118.92 0.422693 1.51826 0
M  V30 11046 C 1119.87 -0.396088 2.27376 0
M  V30 11047 C 1120.84 -1.02946 1.30351 0
M  V30 11048 O 1122.02 -1.05116 1.59233 0
M  V30 11049 C 1119.16 -1.49942 3.10824 0
M  V30 11050 C 1118.28 -0.885623 4.22825 0
M  V30 11051 C 1117.41 -1.96278 4.93608 0
M  V30 11052 C 1116.45 -1.32664 5.97551 0
M  V30 11053 N 1115.59 -2.34452 6.61798 0
M  V30 11054 H 1120.43 0.254571 2.96911 0
M  V30 11055 H 1117.96 0.137383 1.46457 0
M  V30 11056 H 1119.92 -2.15023 3.57521 0
M  V30 11057 H 1118.55 -2.11991 2.43433 0
M  V30 11058 H 1117.6 -0.123491 3.80199 0
M  V30 11059 H 1118.92 -0.381057 4.97342 0
M  V30 11060 H 1118.07 -2.69055 5.43778 0
M  V30 11061 H 1116.81 -2.50103 4.18688 0
M  V30 11062 H 1115.81 -0.584262 5.46687 0
M  V30 11063 H 1117.04 -0.7959 6.7442 0
M  V30 11064 H 1114.99 -2.87385 5.897 0
M  V30 11065 H 1114.9 -1.88845 7.32034 0
M  V30 11066 H 1116.17 -3.06757 7.16603 0
M  V30 11067 N 1120.4 -1.5685 0.153553 0
M  V30 11068 C 1121.63 -2.0041 -0.501949 0
M  V30 11069 C 1122.04 -1.03272 -1.58529 0
M  V30 11070 O 1121.38 -0.0227479 -1.83686 0
M  V30 11071 C 1121.44 -3.40402 -1.15613 0
M  V30 11072 C 1121.11 -4.56486 -0.216596 0
M  V30 11073 C 1122.1 -5.16894 0.558267 0
M  V30 11074 C 1119.79 -5.02162 -0.117592 0
M  V30 11075 C 1121.78 -6.21392 1.41951 0
M  V30 11076 C 1119.47 -6.06514 0.747255 0
M  V30 11077 C 1120.47 -6.65999 1.51441 0
M  V30 11078 O 1120.16 -7.6833 2.36483 0
M  V30 11079 H 1119.89 -0.66247 -0.134574 0
M  V30 11080 H 1122.44 -2.03908 0.247086 0
M  V30 11081 H 1120.67 -3.33762 -1.95294 0
M  V30 11082 H 1122.36 -3.68028 -1.71202 0
M  V30 11083 H 1123.13 -4.825 0.491851 0
M  V30 11084 H 1119.01 -4.55586 -0.704462 0
M  V30 11085 H 1122.55 -6.67751 2.01877 0
M  V30 11086 H 1118.45 -6.40335 0.81494 0
M  V30 11087 H 1119.21 -7.85578 2.29803 0
M  V30 11088 N 1121.88 0.120221 -1.57141 0
M  V30 11089 C 1122.81 1.1732 -1.96898 0
M  V30 11090 C 1123.82 1.37722 -0.868134 0
M  V30 11091 O 1125.01 1.36818 -1.14643 0
M  V30 11092 C 1122.11 2.53343 -2.25102 0
M  V30 11093 C 1121.28 2.53559 -3.56408 0
M  V30 11094 C 1120.34 3.71319 -3.72838 0
M  V30 11095 O 1119.37 3.54961 -4.44962 0
M  V30 11096 N 1120.57 4.89836 -3.11514 0
M  V30 11097 H 1123.34 0.835023 -2.87832 0
M  V30 11098 H 1120.9 0.309508 -1.58914 0
M  V30 11099 H 1122.89 3.30679 -2.3331 0
M  V30 11100 H 1121.46 2.79347 -1.403 0
M  V30 11101 H 1120.68 1.61946 -3.59398 0
M  V30 11102 H 1121.97 2.5076 -4.42716 0
M  V30 11103 H 1121.37 5.0603 -2.52884 0
M  V30 11104 H 1119.92 5.64853 -3.25246 0
M  V30 11105 N 1123.36 1.52689 0.390367 0
M  V30 11106 C 1124.63 1.58246 1.14968 0
M  V30 11107 C 1125.01 0.374808 2.07746 0
M  V30 11108 O 1124.36 -0.636969 2.19442 0
M  V30 11109 C 1124.57 2.92059 1.91056 0
M  V30 11110 C 1125.92 3.45745 2.46466 0
M  V30 11111 O 1126.94 2.93924 2.01214 0
M  V30 11112 O 1125.8 4.3628 3.29122 0
M  V30 11113 H 1122.9 0.638189 0.52597 0
M  V30 11114 H 1125.44 1.65024 0.39563 0
M  V30 11115 H 1124.21 3.71399 1.23201 0
M  V30 11116 H 1123.84 2.8866 2.73425 0
M  V30 11117 N 1124.83 -0.648732 1.43629 0
M  V30 11118 C 1125.78 -1.76145 1.49136 0
M  V30 11119 C 1126.75 -1.62569 0.340649 0
M  V30 11120 O 1127.94 -1.82748 0.548435 0
M  V30 11121 C 1125.08 -3.14321 1.42466 0
M  V30 11122 C 1124.19 -3.38999 2.67776 0
M  V30 11123 C 1123.32 -4.67047 2.53062 0
M  V30 11124 C 1122.36 -4.84845 3.7362 0
M  V30 11125 N 1121.5 -6.04155 3.57689 0
M  V30 11126 H 1126.34 -1.70774 2.44213 0
M  V30 11127 H 1123.88 -0.833311 1.2122 0
M  V30 11128 H 1125.84 -3.94206 1.36592 0
M  V30 11129 H 1124.47 -3.18751 0.509666 0
M  V30 11130 H 1123.52 -2.53179 2.83909 0
M  V30 11131 H 1124.83 -3.48035 3.57314 0
M  V30 11132 H 1123.98 -5.55066 2.44922 0
M  V30 11133 H 1122.72 -4.60339 1.61056 0
M  V30 11134 H 1121.73 -3.95261 3.82163 0
M  V30 11135 H 1122.95 -4.9338 4.6664 0
M  V30 11136 H 1120.9 -5.9857 2.6842 0
M  V30 11137 H 1120.82 -6.14169 4.40832 0
M  V30 11138 H 1122.08 -6.94782 3.53409 0
M  V30 11139 N 1126.31 -1.30234 -0.887518 0
M  V30 11140 C 1127.56 -1.18675 -1.63587 0
M  V30 11141 C 1127.88 0.259342 -1.93268 0
M  V30 11142 O 1127.15 1.17523 -1.56733 0
M  V30 11143 H 1125.73 -0.436224 -0.606397 0
M  V30 11144 H 1128.39 -1.63326 -1.06351 0
M  V30 11145 H 1127.49 -1.74575 -2.58708 0
M  V30 11146 N 1127.79 1.09952 -1.12909 0
M  V30 11147 C 1129.04 1.81657 -0.885729 0
M  V30 11148 C 1129.36 1.85863 0.589913 0
M  V30 11149 O 1128.63 1.34028 1.42875 0
M  V30 11150 H 1127.21 0.672743 -0.324694 0
M  V30 11151 H 1129.87 1.33013 -1.42456 0
M  V30 11152 H 1128.97 2.85018 -1.27167 0
M  V30 11153 N 1129.27 0.921757 1.27833 0
M  V30 11154 C 1130.22 0.414838 2.27041 0
M  V30 11155 C 1131.19 -0.515045 1.57913 0
M  V30 11156 O 1132.37 -0.435499 1.85763 0
M  V30 11157 C 1129.51 -0.331744 3.43502 0
M  V30 11158 C 1128.62 0.631565 4.27358 0
M  V30 11159 C 1127.76 -0.134265 5.3103 0
M  V30 11160 C 1126.8 0.822138 6.06554 0
M  V30 11161 N 1125.93 0.0893149 7.02043 0
M  V30 11162 H 1130.77 1.26585 2.69778 0
M  V30 11163 H 1128.31 0.635488 1.32665 0
M  V30 11164 H 1130.27 -0.780866 4.09827 0
M  V30 11165 H 1128.9 -1.14704 3.01733 0
M  V30 11166 H 1127.95 1.19922 3.61003 0
M  V30 11167 H 1129.26 1.36274 4.79824 0
M  V30 11168 H 1128.42 -0.643579 6.03277 0
M  V30 11169 H 1127.16 -0.898443 4.79353 0
M  V30 11170 H 1126.16 1.34275 5.33151 0
M  V30 11171 H 1127.39 1.586 6.6032 0
M  V30 11172 H 1125.33 -0.656725 6.52704 0
M  V30 11173 H 1125.25 0.760167 7.52169 0
M  V30 11174 H 1126.52 -0.399541 7.78475 0
M  V30 11175 N 1130.75 -1.41857 0.686609 0
M  V30 11176 C 1131.99 -2.01666 0.214118 0
M  V30 11177 C 1132.33 -1.5422 -1.18025 0
M  V30 11178 O 1131.6 -0.749482 -1.7948 0
M  V30 11179 C 1131.88 -3.59147 0.261841 0
M  V30 11180 C 1131.74 -4.16742 1.69251 0
M  V30 11181 C 1133.06 -4.38427 -0.383378 0
M  V30 11182 H 1130.17 -0.732724 0.0792785 0
M  V30 11183 H 1132.82 -1.68724 0.873633 0
M  V30 11184 H 1130.97 -3.87342 -0.29971 0
M  V30 11185 H 1132.64 -3.99456 2.30722 0
M  V30 11186 H 1130.88 -3.72124 2.2295 0
M  V30 11187 H 1131.55 -5.25894 1.6775 0
M  V30 11188 H 1134.03 -4.15992 0.0947701 0
M  V30 11189 H 1132.9 -5.4797 -0.319401 0
M  V30 11190 H 1133.17 -4.172 -1.46276 0
M  V30 11191 N 1132.22 -0.430739 -1.51599 0
M  V30 11192 C 1133.47 0.138133 -2.02329 0
M  V30 11193 C 1133.8 1.42934 -1.31466 0
M  V30 11194 O 1133.08 1.89743 -0.427551 0
M  V30 11195 C 1133.36 0.363677 -3.58259 0
M  V30 11196 C 1133.21 -0.94572 -4.39746 0
M  V30 11197 C 1134.53 1.13637 -4.25176 0
M  V30 11198 H 1131.65 0.0487287 -0.735387 0
M  V30 11199 H 1134.29 -0.568444 -1.81297 0
M  V30 11200 H 1132.44 0.965552 -3.7631 0
M  V30 11201 H 1134.12 -1.58107 -4.33359 0
M  V30 11202 H 1132.36 -1.55183 -4.05094 0
M  V30 11203 H 1133.03 -0.742031 -5.4699 0
M  V30 11204 H 1135.51 0.626608 -4.11355 0
M  V30 11205 H 1134.38 1.26294 -5.34173 0
M  V30 11206 H 1134.64 2.16273 -3.85588 0
M  V30 11207 N 1133.7 1.56767 -0.161869 0
M  V30 11208 C 1134.93 2.01401 0.49523 0
M  V30 11209 C 1135.35 1.04133 1.56646 0
M  V30 11210 O 1134.71 0.0193747 1.8129 0
M  V30 11211 C 1134.76 3.44695 1.05913 0
M  V30 11212 O 1133.86 3.50475 2.1735 0
M  V30 11213 H 1133.2 0.65314 0.1196 0
M  V30 11214 H 1135.73 2.02903 -0.26298 0
M  V30 11215 H 1135.74 3.83805 1.3841 0
M  V30 11216 H 1134.42 4.14991 0.274749 0
M  V30 11217 H 1133 3.23218 1.85969 0
M  V30 11218 N 1135.18 -0.111886 1.57202 0
M  V30 11219 C 1136.43 -0.819623 1.85499 0
M  V30 11220 C 1136.76 -1.7919 0.748629 0
M  V30 11221 O 1136.03 -1.92952 -0.244918 0
M  V30 11222 C 1136.32 -1.56324 3.24399 0
M  V30 11223 C 1136.17 -0.610081 4.45643 0
M  V30 11224 C 1137.49 -2.51777 3.60966 0
M  V30 11225 H 1134.61 -0.296512 0.674722 0
M  V30 11226 H 1137.25 -0.0836741 1.89816 0
M  V30 11227 H 1135.4 -2.1906 3.2085 0
M  V30 11228 H 1137.07 0.00898038 4.61299 0
M  V30 11229 H 1135.32 0.0778488 4.3373 0
M  V30 11230 H 1135.99 -1.16718 5.39519 0
M  V30 11231 H 1138.46 -1.99143 3.65351 0
M  V30 11232 H 1137.34 -3.00835 4.59118 0
M  V30 11233 H 1137.6 -3.34769 2.8876 0
M  V30 11234 N 1136.66 -1.52894 -0.382264 0
M  V30 11235 C 1137.89 -1.72152 -1.14766 0
M  V30 11236 C 1138.3 -0.442911 -1.83531 0
M  V30 11237 O 1137.66 0.583085 -1.72935 0
M  V30 11238 C 1137.71 -2.87566 -2.19062 0
M  V30 11239 O 1137.43 -4.10478 -1.53099 0
M  V30 11240 C 1138.93 -3.18559 -3.08277 0
M  V30 11241 H 1136.15 -0.576212 -0.343832 0
M  V30 11242 H 1138.7 -1.99571 -0.446273 0
M  V30 11243 H 1136.85 -2.62589 -2.84826 0
M  V30 11244 H 1137.26 -4.74989 -2.22454 0
M  V30 11245 H 1138.74 -4.02763 -3.77473 0
M  V30 11246 H 1139.22 -2.33222 -3.72161 0
M  V30 11247 H 1139.82 -3.454 -2.48151 0
M  V30 11248 N 1138.14 0.641106 -1.43971 0
M  V30 11249 C 1139.41 1.39897 -1.36704 0
M  V30 11250 C 1139.79 2.1109 -0.0208051 0
M  V30 11251 O 1139.14 2.05638 0.99625 0
M  V30 11252 C 1139.35 2.37366 -2.55849 0
M  V30 11253 C 1140.7 3.01 -2.99473 0
M  V30 11254 O 1141.72 2.47692 -2.55982 0
M  V30 11255 O 1140.58 3.9768 -3.74851 0
M  V30 11256 H 1137.68 0.625623 -0.540855 0
M  V30 11257 H 1140.22 0.666997 -1.56042 0
M  V30 11258 H 1139 1.8379 -3.45452 0
M  V30 11259 H 1138.62 3.17995 -2.38673 0
M  V30 11260 N 1139.62 1.30703 0.880598 0
M  V30 11261 C 1140.56 1.17369 2.00817 0
M  V30 11262 C 1141.56 0.0845159 1.69189 0
M  V30 11263 O 1142.76 0.245673 1.78316 0
M  V30 11264 H 1139.14 0.363107 0.658527 0
M  V30 11265 H 1141.11 2.12789 2.09197 0
M  V30 11266 C 1139.86 0.886851 3.362 0
M  V30 11267 H 1139.18 1.71704 3.61051 0
M  V30 11268 H 1140.62 0.83368 4.15723 0
M  V30 11269 C 1139.08 -0.410293 3.34392 0
M  V30 11270 O 1139.61 -1.43044 3.75368 0
M  V30 11271 N 1137.82 -0.423023 2.87505 0
M  V30 11272 H 1137.36 0.407637 2.54354 0
M  V30 11273 H 1137.32 -1.29086 2.86678 0
M  V30 11274 N 1141.09 -1.09351 1.1349 0
M  V30 11275 C 1142.32 -1.85304 0.920324 0
M  V30 11276 C 1142.74 -1.81182 -0.530883 0
M  V30 11277 O 1142.09 -1.20853 -1.36751 0
M  V30 11278 C 1142.14 -3.33249 1.40098 0
M  V30 11279 O 1141.87 -3.37333 2.79531 0
M  V30 11280 C 1143.37 -4.2604 1.22495 0
M  V30 11281 H 1140.59 -0.585294 0.328134 0
M  V30 11282 H 1143.13 -1.38168 1.50765 0
M  V30 11283 H 1141.29 -3.7781 0.85664 0
M  V30 11284 H 1141.7 -4.29614 3.00885 0
M  V30 11285 H 1143.17 -5.27999 1.61 0
M  V30 11286 H 1143.65 -4.38883 0.166717 0
M  V30 11287 H 1144.26 -3.87295 1.75735 0
M  V30 11288 N 1142.57 -0.928524 -1.27343 0
M  V30 11289 C 1143.48 -0.433901 -2.30553 0
M  V30 11290 C 1144.5 0.485832 -1.6708 0
M  V30 11291 O 1145.67 0.36844 -1.98001 0
M  V30 11292 C 1142.74 0.304617 -3.45359 0
M  V30 11293 C 1141.8 -0.650131 -4.24349 0
M  V30 11294 C 1141.03 0.0532372 -5.33673 0
M  V30 11295 O 1141.26 1.27246 -5.56026 0
M  V30 11296 O 1140.19 -0.619009 -5.98709 0
M  V30 11297 H 1144.02 -1.2909 -2.74899 0
M  V30 11298 H 1141.6 -0.693903 -1.32308 0
M  V30 11299 H 1143.48 0.721137 -4.15184 0
M  V30 11300 H 1142.16 1.13721 -3.03066 0
M  V30 11301 H 1141.06 -1.11635 -3.57055 0
M  V30 11302 H 1142.4 -1.44996 -4.70358 0
M  V30 11303 N 1144.05 1.41491 -0.694123 0
M  V30 11304 C 1145.01 2.2917 -0.0368562 0
M  V30 11305 C 1146.01 1.44305 0.709426 0
M  V30 11306 O 1147.2 1.6547 0.544533 0
M  V30 11307 C 1144.33 3.27156 0.958201 0
M  V30 11308 H 1145.53 2.88787 -0.808829 0
M  V30 11309 H 1143.08 1.49453 -0.457538 0
M  V30 11310 H 1143.82 2.72516 1.75799 0
M  V30 11311 H 1143.6 3.89776 0.426227 0
M  V30 11312 H 1145.09 3.92863 1.41592 0
M  V30 11313 N 1145.53 0.438773 1.51369 0
M  V30 11314 C 1146.76 -0.125847 2.06517 0
M  V30 11315 C 1147.17 -1.36336 1.30606 0
M  V30 11316 O 1146.53 -1.78792 0.36603 0
M  V30 11317 C 1146.58 -0.446619 3.5873 0
M  V30 11318 O 1146.3 0.741781 4.31775 0
M  V30 11319 C 1147.8 -1.06175 4.30397 0
M  V30 11320 H 1145.02 -0.00728868 0.67096 0
M  V30 11321 H 1147.56 0.618267 1.9493 0
M  V30 11322 H 1145.72 -1.14064 3.70227 0
M  V30 11323 H 1146.13 0.466907 5.22418 0
M  V30 11324 H 1147.61 -1.23619 5.3798 0
M  V30 11325 H 1148.08 -2.04317 3.88782 0
M  V30 11326 H 1148.69 -0.40708 4.23347 0
M  V30 11327 N 1147.01 -1.56678 0.170181 0
M  V30 11328 C 1148.25 -1.96024 -0.475147 0
M  V30 11329 C 1148.57 -1.0588 -1.64465 0
M  V30 11330 O 1149.77 -1.34901 -2.35614 0
M  V30 11331 C 1148.23 -3.4855 -0.896704 0
M  V30 11332 C 1147.84 -4.47318 0.247142 0
M  V30 11333 C 1149.58 -3.96716 -1.51052 0
M  V30 11334 C 1147.49 -5.91082 -0.193982 0
M  V30 11335 H 1146.42 -0.731883 -0.181282 0
M  V30 11336 H 1149.07 -1.81674 0.25823 0
M  V30 11337 H 1147.45 -3.58314 -1.68603 0
M  V30 11338 H 1148.63 -4.49268 1.02445 0
M  V30 11339 H 1146.94 -4.09203 0.770839 0
M  V30 11340 H 1149.54 -5.01581 -1.85258 0
M  V30 11341 H 1149.88 -3.39588 -2.40802 0
M  V30 11342 H 1150.41 -3.89965 -0.785652 0
M  V30 11343 H 1147.15 -6.5208 0.668714 0
M  V30 11344 H 1146.67 -5.92441 -0.936675 0
M  V30 11345 H 1148.35 -6.43844 -0.638237 0
M  V30 11346 N 1148.48 0.103547 -1.57259 0
M  V30 11347 C 1149.71 0.82235 -1.89855 0
M  V30 11348 C 1150.13 1.72694 -0.76303 0
M  V30 11349 O 1149.48 1.8056 0.265421 0
M  V30 11350 C 1149.53 1.64282 -3.22015 0
M  V30 11351 O 1149.26 0.774628 -4.31197 0
M  V30 11352 C 1150.76 2.46543 -3.68418 0
M  V30 11353 H 1147.98 0.235591 -0.628282 0
M  V30 11354 H 1150.52 0.0833106 -2.0433 0
M  V30 11355 H 1148.68 2.33446 -3.09163 0
M  V30 11356 H 1149.09 1.34205 -5.0704 0
M  V30 11357 H 1150.56 2.99618 -4.63609 0
M  V30 11358 H 1151.04 3.24618 -2.95838 0
M  V30 11359 H 1151.65 1.82594 -3.84109 0
M  V30 11360 N 1149.96 1.53094 0.37415 0
M  V30 11361 C 1150.91 1.79585 1.47824 0
M  V30 11362 C 1151.9 0.664513 1.55822 0
M  V30 11363 O 1153.11 0.84729 1.58811 0
M  V30 11364 H 1149.48 0.568474 0.492282 0
M  V30 11365 H 1151.46 2.72014 1.22681 0
M  V30 11366 C 1150.2 1.995 2.84772 0
M  V30 11367 H 1149.53 2.85991 2.79373 0
M  V30 11368 H 1150.97 2.22018 3.61226 0
M  V30 11369 C 1149.43 0.771673 3.27943 0
M  V30 11370 O 1149.96 -0.0437737 4.01676 0
M  V30 11371 N 1148.16 0.597547 2.8439 0
M  V30 11372 H 1147.71 1.26227 2.24554 0
M  V30 11373 H 1147.67 -0.219578 3.13632 0
M  V30 11374 N 1151.44 -0.633461 1.44309 0
M  V30 11375 C 1152.39 -1.74554 1.50995 0
M  V30 11376 C 1153.36 -1.62199 0.357873 0
M  V30 11377 O 1154.54 -1.82156 0.567787 0
M  V30 11378 C 1151.68 -3.12792 1.45791 0
M  V30 11379 C 1150.79 -3.3614 2.71356 0
M  V30 11380 C 1149.93 -4.64337 2.58002 0
M  V30 11381 C 1148.97 -4.80855 3.78741 0
M  V30 11382 N 1148.11 -6.00327 3.64077 0
M  V30 11383 H 1152.95 -1.68174 2.46011 0
M  V30 11384 H 1150.48 -0.820407 1.22097 0
M  V30 11385 H 1152.44 -3.92735 1.40765 0
M  V30 11386 H 1151.07 -3.18193 0.543445 0
M  V30 11387 H 1150.12 -2.50154 2.86579 0
M  V30 11388 H 1151.43 -3.44226 3.60985 0
M  V30 11389 H 1150.59 -5.52437 2.50795 0
M  V30 11390 H 1149.33 -4.58605 1.65929 0
M  V30 11391 H 1148.33 -3.91185 3.86334 0
M  V30 11392 H 1149.56 -4.88403 4.71847 0
M  V30 11393 H 1147.5 -5.9569 2.74754 0
M  V30 11394 H 1147.42 -6.09459 4.47321 0
M  V30 11395 H 1148.69 -6.90995 3.60758 0
M  V30 11396 N 1152.92 -1.31168 -0.873655 0
M  V30 11397 C 1154.17 -1.20404 -1.62319 0
M  V30 11398 C 1154.49 0.238829 -1.93532 0
M  V30 11399 O 1153.76 1.15854 -1.57971 0
M  V30 11400 H 1152.34 -0.442632 -0.601736 0
M  V30 11401 H 1155 -1.64445 -1.04613 0
M  V30 11402 H 1154.1 -1.77309 -2.56842 0
M  V30 11403 N 1154.4 1.08748 -1.14068 0
M  V30 11404 C 1155.62 1.85353 -0.930532 0
M  V30 11405 C 1156.05 1.80892 0.515717 0
M  V30 11406 O 1155.4 1.19146 1.36652 0
M  V30 11407 C 1155.45 3.30962 -1.43167 0
M  V30 11408 O 1154.56 4.0769 -0.621468 0
M  V30 11409 H 1153.9 0.574485 -0.332962 0
M  V30 11410 H 1156.43 1.37282 -1.51707 0
M  V30 11411 H 1156.44 3.81807 -1.43832 0
M  V30 11412 H 1155.11 3.33524 -2.48464 0
M  V30 11413 H 1153.69 3.66587 -0.683267 0
M  V30 11414 N 1155.87 0.935264 1.26849 0
M  V30 11415 C 1157.12 0.578545 1.93642 0
M  V30 11416 C 1157.44 -0.884296 1.73796 0
M  V30 11417 O 1156.71 -1.62768 1.09011 0
M  V30 11418 H 1155.29 0.210976 0.716588 0
M  V30 11419 H 1157.96 1.1893 1.54407 0
M  V30 11420 H 1157.05 0.791268 3.01903 0
M  V30 11421 N 1157.35 -1.41121 0.701616 0
M  V30 11422 C 1158.58 -2.05154 0.244011 0
M  V30 11423 C 1158.99 -1.52922 -1.11407 0
M  V30 11424 O 1158.33 -0.67486 -1.70855 0
M  V30 11425 C 1158.4 -3.59262 0.130773 0
M  V30 11426 C 1158.06 -4.34318 1.42187 0
M  V30 11427 C 1159.06 -4.632 2.36097 0
M  V30 11428 C 1156.74 -4.73481 1.67693 0
M  V30 11429 C 1158.74 -5.30214 3.53768 0
M  V30 11430 C 1156.42 -5.4023 2.85648 0
M  V30 11431 C 1157.42 -5.68524 3.78509 0
M  V30 11432 O 1157.11 -6.33898 4.94397 0
M  V30 11433 H 1156.84 -0.666997 0.109957 0
M  V30 11434 H 1159.39 -1.81771 0.956473 0
M  V30 11435 H 1157.62 -3.81409 -0.637512 0
M  V30 11436 H 1159.31 -4.0486 -0.29044 0
M  V30 11437 H 1160.08 -4.3342 2.17652 0
M  V30 11438 H 1155.96 -4.50835 0.962733 0
M  V30 11439 H 1159.5 -5.52215 4.26267 0
M  V30 11440 H 1155.4 -5.69429 3.04008 0
M  V30 11441 H 1156.17 -6.52394 4.94292 0
M  V30 11442 N 1158.83 -0.446794 -1.51134 0
M  V30 11443 C 1160.08 0.116666 -2.02464 0
M  V30 11444 C 1160.41 1.41532 -1.32975 0
M  V30 11445 O 1159.68 1.89278 -0.447651 0
M  V30 11446 C 1159.97 0.325659 -3.58624 0
M  V30 11447 C 1159.82 -0.992307 -4.38718 0
M  V30 11448 C 1161.14 1.09121 -4.26357 0
M  V30 11449 H 1158.26 0.0409262 -0.735863 0
M  V30 11450 H 1160.9 -0.587641 -1.80684 0
M  V30 11451 H 1159.05 0.925585 -3.77313 0
M  V30 11452 H 1160.72 -1.62694 -4.31658 0
M  V30 11453 H 1158.97 -1.5947 -4.03425 0
M  V30 11454 H 1159.64 -0.800005 -5.46172 0
M  V30 11455 H 1162.11 0.582944 -4.11996 0
M  V30 11456 H 1160.99 1.20621 -5.35483 0
M  V30 11457 H 1161.25 2.12171 -3.87861 0
M  V30 11458 N 1160.31 1.56586 -0.178487 0
M  V30 11459 C 1161.54 2.01475 0.470684 0
M  V30 11460 C 1161.95 1.0587 1.56323 0
M  V30 11461 O 1161.31 0.060749 1.82399 0
M  V30 11462 C 1161.36 3.46145 1.04238 0
M  V30 11463 O 1161.08 4.381 -0.0065582 0
M  V30 11464 C 1162.58 4.06471 1.76908 0
M  V30 11465 H 1159.8 0.660219 0.119801 0
M  V30 11466 H 1162.35 2.02542 -0.282322 0
M  V30 11467 H 1160.5 3.45831 1.74585 0
M  V30 11468 H 1160.91 5.22843 0.416554 0
M  V30 11469 H 1162.39 5.096 2.12161 0
M  V30 11470 H 1162.87 3.48974 2.66672 0
M  V30 11471 H 1163.47 4.10509 1.11186 0
M  V30 11472 N 1161.79 -0.095206 1.57312 0
M  V30 11473 C 1163.03 -0.797142 1.85715 0
M  V30 11474 C 1163.36 -1.79275 0.767171 0
M  V30 11475 O 1162.63 -1.94808 -0.206584 0
M  V30 11476 H 1161.21 -0.297382 0.685254 0
M  V30 11477 H 1163.87 -0.0768617 1.94748 0
M  V30 11478 H 1162.96 -1.32779 2.82447 0
M  V30 11479 N 1163.26 -1.53291 -0.366026 0
M  V30 11480 C 1164.21 -1.80367 -1.4687 0
M  V30 11481 C 1165.21 -0.672767 -1.55468 0
M  V30 11482 O 1166.41 -0.8557 -1.5836 0
M  V30 11483 H 1162.79 -0.571076 -0.48926 0
M  V30 11484 H 1164.76 -2.72661 -1.21237 0
M  V30 11485 C 1163.51 -2.01008 -2.8371 0
M  V30 11486 H 1162.83 -2.87468 -2.77853 0
M  V30 11487 H 1164.27 -2.2393 -3.60043 0
M  V30 11488 C 1162.73 -0.789054 -3.27529 0
M  V30 11489 O 1163.26 0.0224712 -4.01694 0
M  V30 11490 N 1161.47 -0.612621 -2.84069 0
M  V30 11491 H 1161.01 -1.27416 -2.23881 0
M  V30 11492 H 1160.97 0.202943 -3.13744 0
M  V30 11493 N 1164.74 0.6258 -1.44643 0
M  V30 11494 C 1165.67 1.75086 -1.47911 0
M  V30 11495 C 1166.69 1.58496 -0.37188 0
M  V30 11496 O 1167.88 1.66712 -0.637925 0
M  V30 11497 C 1164.98 3.12874 -1.30243 0
M  V30 11498 C 1164.15 3.55873 -2.54309 0
M  V30 11499 C 1163.21 4.72558 -2.31464 0
M  V30 11500 O 1162.23 4.80599 -3.04981 0
M  V30 11501 N 1163.44 5.64617 -1.34862 0
M  V30 11502 H 1166.2 1.72751 -2.44902 0
M  V30 11503 H 1163.76 0.810531 -1.4015 0
M  V30 11504 H 1165.75 3.88663 -1.12798 0
M  V30 11505 H 1164.32 3.0982 -0.415966 0
M  V30 11506 H 1163.54 2.70237 -2.86994 0
M  V30 11507 H 1164.83 3.81355 -3.36817 0
M  V30 11508 H 1164.23 5.60819 -0.741542 0
M  V30 11509 H 1162.79 6.40013 -1.23394 0
M  V30 11510 N 1166.22 1.31629 0.866686 0
M  V30 11511 C 1167.47 1.21683 1.62238 0
M  V30 11512 C 1167.8 -0.223767 1.92907 0
M  V30 11513 O 1167.07 -1.15761 1.563 0
M  V30 11514 C 1167.36 2.06443 2.95048 0
M  V30 11515 C 1167.21 3.58818 2.71237 0
M  V30 11516 C 1168.53 1.91634 3.96187 0
M  V30 11517 H 1165.65 0.443389 0.588707 0
M  V30 11518 H 1168.29 1.61453 1.00164 0
M  V30 11519 H 1166.44 1.72654 3.48027 0
M  V30 11520 H 1168.11 4.0276 2.24905 0
M  V30 11521 H 1166.36 3.82085 2.05411 0
M  V30 11522 H 1167.03 4.13436 3.65752 0
M  V30 11523 H 1169.5 2.21209 3.52428 0
M  V30 11524 H 1168.38 2.53236 4.86993 0
M  V30 11525 H 1168.64 0.880564 4.33242 0
M  V30 11526 N 1167.7 -1.08142 1.14644 0
M  V30 11527 C 1168.66 -2.13308 0.83859 0
M  V30 11528 C 1169.66 -1.60022 -0.158012 0
M  V30 11529 O 1170.85 -1.74057 0.0706621 0
M  V30 11530 C 1167.98 -3.39978 0.250591 0
M  V30 11531 H 1169.18 -2.42049 1.77066 0
M  V30 11532 H 1166.73 -1.23899 0.952828 0
M  V30 11533 H 1167.47 -3.16873 -0.690064 0
M  V30 11534 H 1167.25 -3.79952 0.968456 0
M  V30 11535 H 1168.74 -4.17567 0.0525115 0
M  V30 11536 N 1169.18 -0.941978 -1.26351 0
M  V30 11537 C 1170.45 -0.507822 -1.88893 0
M  V30 11538 C 1170.83 1.0146 -1.85119 0
M  V30 11539 O 1170.18 1.87495 -1.30606 0
M  V30 11540 C 1170.39 -1.07007 -3.3219 0
M  V30 11541 C 1171.74 -1.13922 -4.09032 0
M  V30 11542 O 1172.76 -1.02072 -3.41262 0
M  V30 11543 O 1171.62 -1.32362 -5.30229 0
M  V30 11544 H 1168.72 -0.165621 -0.810246 0
M  V30 11545 H 1171.26 -1.03459 -1.34515 0
M  V30 11546 H 1170.04 -2.11366 -3.29302 0
M  V30 11547 H 1169.66 -0.525797 -3.94108 0
M  V30 11548 N 1170.66 1.40747 -0.709091 0
M  V30 11549 C 1171.62 2.29118 -0.0611607 0
M  V30 11550 C 1172.62 1.45049 0.694081 0
M  V30 11551 O 1173.81 1.66039 0.526952 0
M  V30 11552 C 1170.94 3.28154 0.923447 0
M  V30 11553 H 1172.13 2.87913 -0.839413 0
M  V30 11554 H 1169.69 1.4896 -0.473363 0
M  V30 11555 H 1170.42 2.74366 1.72899 0
M  V30 11556 H 1170.21 3.90207 0.384862 0
M  V30 11557 H 1171.7 3.94343 1.37417 0
M  V30 11558 N 1172.13 0.454803 1.50895 0
M  V30 11559 C 1173.38 -0.107367 2.01414 0
M  V30 11560 C 1173.7 -1.42243 1.34262 0
M  V30 11561 O 1174.9 -2.06858 1.75846 0
M  V30 11562 C 1173.36 -0.241872 3.59086 0
M  V30 11563 C 1172.97 1.06379 4.35187 0
M  V30 11564 C 1174.71 -0.756873 4.17698 0
M  V30 11565 C 1172.62 0.893973 5.84604 0
M  V30 11566 H 1171.55 -0.0439003 0.752721 0
M  V30 11567 H 1174.2 0.587225 1.7385 0
M  V30 11568 H 1172.58 -0.999873 3.83169 0
M  V30 11569 H 1173.75 1.83148 4.2284 0
M  V30 11570 H 1172.07 1.50865 3.88109 0
M  V30 11571 H 1174.67 -0.900697 5.27059 0
M  V30 11572 H 1175.01 -1.74397 3.7801 0
M  V30 11573 H 1175.54 -0.0567088 3.9776 0
M  V30 11574 H 1172.28 1.85395 6.28736 0
M  V30 11575 H 1171.8 0.166387 5.99569 0
M  V30 11576 H 1173.48 0.554084 6.44623 0
M  V30 11577 N 1173.61 -1.56489 0.186789 0
M  V30 11578 C 1174.57 -2.17478 -0.723596 0
M  V30 11579 C 1175.57 -1.12698 -1.14699 0
M  V30 11580 O 1176.76 -1.38128 -1.06143 0
M  V30 11581 C 1173.9 -2.77015 -1.98685 0
M  V30 11582 H 1175.09 -2.99282 -0.192403 0
M  V30 11583 H 1172.64 -1.56174 -0.0628153 0
M  V30 11584 H 1173.38 -1.98987 -2.56076 0
M  V30 11585 H 1173.16 -3.53711 -1.69207 0
M  V30 11586 H 1174.65 -3.23872 -2.63622 0
M  V30 11587 N 1175.09 0.086862 -1.5736 0
M  V30 11588 C 1176.04 1.10478 -2.02641 0
M  V30 11589 C 1177.01 1.39331 -0.904219 0
M  V30 11590 O 1178.19 1.50654 -1.17081 0
M  V30 11591 C 1175.33 2.41754 -2.4627 0
M  V30 11592 C 1174.44 2.19561 -3.72044 0
M  V30 11593 C 1173.58 3.44294 -4.04519 0
M  V30 11594 C 1172.62 3.17399 -5.23378 0
M  V30 11595 N 1171.76 4.3442 -5.51564 0
M  V30 11596 H 1176.6 0.711663 -2.89378 0
M  V30 11597 H 1174.13 0.339856 -1.4312 0
M  V30 11598 H 1176.09 3.18378 -2.69613 0
M  V30 11599 H 1174.72 2.78896 -1.62532 0
M  V30 11600 H 1173.77 1.337 -3.5613 0
M  V30 11601 H 1175.08 1.95685 -4.58812 0
M  V30 11602 H 1174.24 4.29321 -4.28682 0
M  V30 11603 H 1172.98 3.71232 -3.16289 0
M  V30 11604 H 1171.98 2.30765 -4.99026 0
M  V30 11605 H 1173.21 2.91799 -6.13213 0
M  V30 11606 H 1171.15 4.61418 -4.66293 0
M  V30 11607 H 1171.07 4.13764 -6.3272 0
M  V30 11608 H 1172.34 5.20489 -5.80269 0
M  V30 11609 N 1176.57 1.53483 0.357892 0
M  V30 11610 C 1177.79 1.74264 1.12458 0
M  V30 11611 C 1178.22 0.473944 1.82031 0
M  V30 11612 O 1177.58 -0.57253 1.72023 0
M  V30 11613 C 1177.62 2.91356 2.12471 0
M  V30 11614 O 1176.73 2.60502 3.19707 0
M  V30 11615 H 1176.07 0.578499 0.325937 0
M  V30 11616 H 1178.6 2.00395 0.412666 0
M  V30 11617 H 1178.61 3.1774 2.5594 0
M  V30 11618 H 1177.28 3.83378 1.61226 0
M  V30 11619 H 1175.86 2.44961 2.81156 0
M  V30 11620 N 1178.05 -0.61812 1.44973 0
M  V30 11621 C 1179.29 -1.37468 1.48145 0
M  V30 11622 C 1179.61 -1.94628 0.120366 0
M  V30 11623 O 1178.88 -1.76548 -0.848982 0
M  V30 11624 H 1177.46 -0.510293 0.545536 0
M  V30 11625 H 1180.13 -0.726598 1.8085 0
M  V30 11626 H 1179.22 -2.19944 2.2143 0
M  V30 11627 N 1179.52 -1.32087 -0.859693 0
M  V30 11628 C 1180.77 -1.2236 -1.61351 0
M  V30 11629 C 1181.1 0.215796 -1.93299 0
M  V30 11630 O 1180.35 1.16742 -1.57066 0
M  V30 11631 C 1180.65 -2.0234 -2.94607 0
M  V30 11632 C 1180.32 -3.51746 -2.82109 0
M  V30 11633 C 1178.98 -3.92482 -2.78408 0
M  V30 11634 C 1181.33 -4.46776 -2.68403 0
M  V30 11635 C 1178.66 -5.265 -2.58873 0
M  V30 11636 C 1181.01 -5.80931 -2.50404 0
M  V30 11637 C 1179.68 -6.20875 -2.45092 0
M  V30 11638 H 1178.95 -0.447748 -0.590426 0
M  V30 11639 H 1181.59 -1.63461 -0.997637 0
M  V30 11640 H 1179.9 -1.53952 -3.60286 0
M  V30 11641 H 1181.6 -1.92187 -3.51945 0
M  V30 11642 H 1178.19 -3.19389 -2.85812 0
M  V30 11643 H 1182.37 -4.16228 -2.70311 0
M  V30 11644 H 1177.63 -5.5651 -2.53192 0
M  V30 11645 H 1181.8 -6.54185 -2.38777 0
M  V30 11646 H 1179.43 -7.24662 -2.29714 0
M  V30 11647 N 1181 1.07532 -1.15215 0
M  V30 11648 C 1181.91 2.18222 -0.861192 0
M  V30 11649 C 1182.93 1.73246 0.161798 0
M  V30 11650 O 1184.1 2.01397 -0.0118386 0
M  V30 11651 C 1181.17 3.44902 -0.352601 0
M  V30 11652 C 1180.23 4.04455 -1.43926 0
M  V30 11653 C 1179.46 5.25089 -0.954841 0
M  V30 11654 O 1179.69 5.70048 0.200294 0
M  V30 11655 O 1178.62 5.76269 -1.73774 0
M  V30 11656 H 1182.45 2.45599 -1.78648 0
M  V30 11657 H 1180.03 1.16835 -0.93112 0
M  V30 11658 H 1181.91 4.21333 -0.0753347 0
M  V30 11659 H 1180.59 3.19082 0.544841 0
M  V30 11660 H 1179.49 3.29573 -1.7701 0
M  V30 11661 H 1180.83 4.34544 -2.31155 0
M  V30 11662 N 1182.48 0.948665 1.2585 0
M  V30 11663 C 1183.41 0.482036 2.2847 0
M  V30 11664 C 1184.39 -0.468553 1.63519 0
M  V30 11665 O 1185.58 -0.368796 1.90666 0
M  V30 11666 C 1182.71 -0.246603 3.46423 0
M  V30 11667 C 1181.66 0.61815 4.23513 0
M  V30 11668 C 1180.99 -0.240884 5.34157 0
M  V30 11669 C 1182.29 1.89327 4.86778 0
M  V30 11670 H 1183.98 1.33973 2.67753 0
M  V30 11671 H 1181.53 0.645645 1.28715 0
M  V30 11672 H 1183.48 -0.584135 4.17332 0
M  V30 11673 H 1182.2 -1.13849 3.06114 0
M  V30 11674 H 1180.86 0.938682 3.54379 0
M  V30 11675 H 1180.51 -1.13235 4.90089 0
M  V30 11676 H 1180.21 0.334367 5.86648 0
M  V30 11677 H 1181.73 -0.573517 6.07901 0
M  V30 11678 H 1183.15 1.62252 5.49861 0
M  V30 11679 H 1181.55 2.41369 5.49419 0
M  V30 11680 H 1182.62 2.60006 4.09298 0
M  V30 11681 N 1183.96 -1.40369 0.716545 0
M  V30 11682 C 1185.21 -2.00473 0.255959 0
M  V30 11683 C 1185.53 -1.57104 -1.15514 0
M  V30 11684 O 1184.8 -0.810925 -1.78328 0
M  V30 11685 H 1183.38 -0.741357 0.0916427 0
M  V30 11686 H 1186.04 -1.71692 0.922389 0
M  V30 11687 H 1185.14 -3.10752 0.289806 0
M  V30 11688 N 1185.44 -0.462799 -1.50652 0
M  V30 11689 C 1186.37 0.325724 -2.31217 0
M  V30 11690 C 1187.35 0.997942 -1.3775 0
M  V30 11691 O 1188.53 0.996707 -1.66671 0
M  V30 11692 C 1185.66 1.41283 -3.17264 0
M  V30 11693 C 1184.62 0.862687 -4.19216 0
M  V30 11694 C 1183.94 2.04746 -4.93946 0
M  V30 11695 C 1185.24 -0.120365 -5.22161 0
M  V30 11696 H 1186.94 -0.346666 -2.97386 0
M  V30 11697 H 1184.48 -0.168163 -1.43015 0
M  V30 11698 H 1186.44 1.97188 -3.72418 0
M  V30 11699 H 1185.16 2.11387 -2.48964 0
M  V30 11700 H 1183.82 0.325671 -3.65151 0
M  V30 11701 H 1183.47 2.73529 -4.22127 0
M  V30 11702 H 1183.17 1.68562 -5.62904 0
M  V30 11703 H 1184.69 2.61157 -5.51932 0
M  V30 11704 H 1186.1 0.349226 -5.72235 0
M  V30 11705 H 1184.5 -0.396061 -5.98792 0
M  V30 11706 H 1185.57 -1.04895 -4.73418 0
M  V30 11707 N 1186.91 1.56388 -0.195085 0
M  V30 11708 C 1187.88 2.17859 0.712053 0
M  V30 11709 C 1188.88 1.13304 1.141 0
M  V30 11710 O 1190.07 1.38689 1.05409 0
M  V30 11711 C 1187.2 2.78065 1.97213 0
M  V30 11712 H 1188.39 2.9938 0.176529 0
M  V30 11713 H 1185.95 1.56205 0.0545322 0
M  V30 11714 H 1186.68 2.00342 2.55017 0
M  V30 11715 H 1186.47 3.54603 1.67329 0
M  V30 11716 H 1187.96 3.25266 2.619 0
M  V30 11717 N 1188.39 -0.0785156 1.57404 0
M  V30 11718 C 1189.67 -0.811557 1.77969 0
M  V30 11719 C 1190.05 -1.96123 0.780966 0
M  V30 11720 O 1189.4 -2.27731 -0.18726 0
M  V30 11721 C 1189.61 -1.29075 3.24254 0
M  V30 11722 C 1190.96 -1.72685 3.87898 0
M  V30 11723 O 1191.98 -1.38658 3.28104 0
M  V30 11724 O 1190.84 -2.3566 4.93079 0
M  V30 11725 H 1187.93 -0.388361 0.73014 0
M  V30 11726 H 1190.48 -0.0591118 1.69597 0
M  V30 11727 H 1189.25 -0.467813 3.88494 0
M  V30 11728 H 1188.87 -2.10472 3.37324 0
M  V30 11729 N 1189.87 -1.5367 -0.349747 0
M  V30 11730 C 1190.78 -1.84207 -1.45275 0
M  V30 11731 C 1191.8 -0.731695 -1.57868 0
M  V30 11732 O 1192.97 -1.02337 -1.73462 0
M  V30 11733 C 1190.04 -2.0398 -2.80345 0
M  V30 11734 C 1189.1 -3.27853 -2.77148 0
M  V30 11735 C 1188.33 -3.46673 -4.05775 0
M  V30 11736 O 1188.55 -2.69457 -5.02741 0
M  V30 11737 O 1187.49 -4.40082 -4.10623 0
M  V30 11738 H 1191.31 -2.77947 -1.22389 0
M  V30 11739 H 1188.9 -1.39247 -0.541345 0
M  V30 11740 H 1190.78 -2.18466 -3.60348 0
M  V30 11741 H 1189.46 -1.13429 -3.03176 0
M  V30 11742 H 1188.36 -3.18776 -1.95787 0
M  V30 11743 H 1189.7 -4.18377 -2.59271 0
M  V30 11744 N 1191.35 0.610423 -1.45298 0
M  V30 11745 C 1192.31 1.70324 -1.5337 0
M  V30 11746 C 1193.31 1.55393 -0.413492 0
M  V30 11747 O 1194.5 1.60512 -0.676872 0
M  V30 11748 C 1191.63 3.09572 -1.42752 0
M  V30 11749 H 1192.83 1.64535 -2.50736 0
M  V30 11750 H 1190.38 0.825906 -1.32697 0
M  V30 11751 H 1191.11 3.2094 -0.465601 0
M  V30 11752 H 1190.9 3.21817 -2.24 0
M  V30 11753 H 1192.39 3.89178 -1.51427 0
M  V30 11754 N 1192.83 1.32541 0.852676 0
M  V30 11755 C 1194.1 1.1383 1.59067 0
M  V30 11756 C 1194.48 -0.300584 2.08949 0
M  V30 11757 O 1193.83 -1.29751 1.88088 0
M  V30 11758 C 1194.04 2.16758 2.73527 0
M  V30 11759 C 1195.39 2.50194 3.43057 0
M  V30 11760 O 1196.41 2.15319 2.83754 0
M  V30 11761 O 1195.27 3.09985 4.50079 0
M  V30 11762 H 1192.37 0.439379 0.700625 0
M  V30 11763 H 1194.91 1.44078 0.896632 0
M  V30 11764 H 1193.68 3.13469 2.34207 0
M  V30 11765 H 1193.31 1.87515 3.50605 0
M  V30 11766 N 1194.3 -1.0692 1.15784 0
M  V30 11767 C 1195.27 -2.12407 0.861167 0
M  V30 11768 C 1196.27 -1.6018 -0.141031 0
M  V30 11769 O 1197.46 -1.73972 0.0891192 0
M  V30 11770 C 1194.59 -3.39693 0.286636 0
M  V30 11771 H 1195.78 -2.40157 1.79623 0
M  V30 11772 H 1193.34 -1.22881 0.965916 0
M  V30 11773 H 1194.07 -3.17587 -0.656417 0
M  V30 11774 H 1193.86 -3.78903 1.0087 0
M  V30 11775 H 1195.35 -4.17488 0.0967971 0
M  V30 11776 N 1195.78 -0.955326 -1.25345 0
M  V30 11777 C 1196.73 -0.474888 -2.25862 0
M  V30 11778 C 1197.7 0.472996 -1.59223 0
M  V30 11779 O 1198.88 0.386094 -1.86853 0
M  V30 11780 C 1196.02 0.240554 -3.44261 0
M  V30 11781 C 1195.14 -0.74465 -4.25534 0
M  V30 11782 C 1194.27 -0.00657513 -5.312 0
M  V30 11783 C 1193.31 -0.982666 -6.04161 0
M  V30 11784 N 1192.45 -0.275418 -7.0156 0
M  V30 11785 H 1197.29 -1.33693 -2.66327 0
M  V30 11786 H 1194.83 -0.670439 -1.30933 0
M  V30 11787 H 1196.78 0.671933 -4.11753 0
M  V30 11788 H 1195.41 1.06664 -3.04668 0
M  V30 11789 H 1194.47 -1.29451 -3.57696 0
M  V30 11790 H 1195.78 -1.48948 -4.76042 0
M  V30 11791 H 1194.93 0.483404 -6.04771 0
M  V30 11792 H 1193.67 0.771035 -4.81567 0
M  V30 11793 H 1192.68 -1.48364 -5.29404 0
M  V30 11794 H 1193.9 -1.76052 -6.55883 0
M  V30 11795 H 1191.85 0.483441 -6.54216 0
M  V30 11796 H 1191.76 -0.959324 -7.49889 0
M  V30 11797 H 1193.03 0.193002 -7.79261 0
M  V30 11798 N 1197.26 1.39987 -0.723979 0
M  V30 11799 C 1198.22 2.29041 -0.0854583 0
M  V30 11800 C 1199.22 1.45777 0.678657 0
M  V30 11801 O 1200.41 1.66588 0.509311 0
M  V30 11802 C 1197.55 3.29115 0.88859 0
M  V30 11803 H 1198.74 2.87006 -0.869903 0
M  V30 11804 H 1196.29 1.48449 -0.489136 0
M  V30 11805 H 1197.03 2.76184 1.69979 0
M  V30 11806 H 1196.81 3.90593 0.343454 0
M  V30 11807 H 1198.3 3.95778 1.33227 0
M  V30 11808 N 1198.74 0.470782 1.50404 0
M  V30 11809 C 1199.7 -0.312227 2.27063 0
M  V30 11810 C 1200.7 -0.920709 1.31832 0
M  V30 11811 O 1201.89 -0.789937 1.5526 0
M  V30 11812 C 1199.02 -1.44477 3.0877 0
M  V30 11813 H 1200.22 0.36006 2.97731 0
M  V30 11814 H 1197.77 0.224837 1.54674 0
M  V30 11815 H 1198.51 -2.15212 2.42599 0
M  V30 11816 H 1198.29 -1.01426 3.78755 0
M  V30 11817 H 1199.78 -1.99713 3.66749 0
M  V30 11818 N 1200.22 -1.56282 0.203376 0
M  V30 11819 C 1201.46 -1.97812 -0.433202 0
M  V30 11820 C 1201.79 -1.09052 -1.61053 0
M  V30 11821 O 1201.05 -0.131417 -1.95258 0
M  V30 11822 C 1201.35 -3.45148 -0.927759 0
M  V30 11823 C 1201.01 -4.50692 0.137083 0
M  V30 11824 C 1199.67 -4.79278 0.429652 0
M  V30 11825 C 1202.03 -5.14086 0.858174 0
M  V30 11826 C 1199.35 -5.68547 1.44815 0
M  V30 11827 C 1201.71 -6.04457 1.86588 0
M  V30 11828 C 1200.37 -6.31395 2.16556 0
M  V30 11829 H 1199.64 -0.723846 -0.15852 0
M  V30 11830 H 1202.29 -1.89102 0.302082 0
M  V30 11831 H 1200.59 -3.5097 -1.74147 0
M  V30 11832 H 1202.29 -3.74642 -1.42984 0
M  V30 11833 H 1198.88 -4.28481 -0.101111 0
M  V30 11834 H 1203.06 -4.92086 0.645376 0
M  V30 11835 H 1198.32 -5.87689 1.68615 0
M  V30 11836 H 1202.49 -6.52636 2.4298 0
M  V30 11837 H 1200.12 -7.00366 2.9562 0
M  V30 11838 N 1201.7 0.070167 -1.57444 0
M  V30 11839 C 1202.97 0.802108 -1.78397 0
M  V30 11840 C 1203.35 1.95706 -0.791356 0
M  V30 11841 O 1202.7 2.27827 0.17518 0
M  V30 11842 C 1202.91 1.27354 -3.24934 0
M  V30 11843 C 1204.26 1.70626 -3.88808 0
M  V30 11844 O 1205.28 1.36916 -3.28835 0
M  V30 11845 O 1204.14 2.33041 -4.94322 0
M  V30 11846 H 1201.24 0.384483 -0.73219 0
M  V30 11847 H 1203.78 0.0501168 -1.69626 0
M  V30 11848 H 1202.55 0.447204 -3.88736 0
M  V30 11849 H 1202.18 2.0868 -3.38435 0
M  V30 11850 N 1203.17 1.53854 0.341593 0
M  V30 11851 C 1204.45 1.61823 1.09875 0
M  V30 11852 C 1204.83 0.440711 2.06448 0
M  V30 11853 O 1204.18 -0.566833 2.21358 0
M  V30 11854 C 1204.39 2.9799 1.81668 0
M  V30 11855 C 1205.74 3.53411 2.35341 0
M  V30 11856 O 1206.76 3.00177 1.91761 0
M  V30 11857 O 1205.62 4.4653 3.15076 0
M  V30 11858 H 1202.71 0.654599 0.5054 0
M  V30 11859 H 1205.26 1.66199 0.342929 0
M  V30 11860 H 1204.03 3.7513 1.11323 0
M  V30 11861 H 1203.65 2.97213 2.64103 0
M  V30 11862 N 1204.65 -0.602709 1.4562 0
M  V30 11863 C 1205.6 -1.71312 1.54664 0
M  V30 11864 C 1206.57 -1.61403 0.392197 0
M  V30 11865 O 1207.75 -1.80911 0.606297 0
M  V30 11866 C 1204.89 -3.09629 1.52393 0
M  V30 11867 C 1204.01 -3.30308 2.78425 0
M  V30 11868 C 1203.14 -4.5876 2.67793 0
M  V30 11869 C 1202.18 -4.72713 3.88855 0
M  V30 11870 N 1201.32 -5.92469 3.76729 0
M  V30 11871 H 1206.16 -1.62918 2.49523 0
M  V30 11872 H 1203.69 -0.794324 1.2381 0
M  V30 11873 H 1205.65 -3.89661 1.49064 0
M  V30 11874 H 1204.28 -3.16968 0.610816 0
M  V30 11875 H 1203.33 -2.44018 2.9182 0
M  V30 11876 H 1204.65 -3.36491 3.68205 0
M  V30 11877 H 1203.8 -5.46993 2.62457 0
M  V30 11878 H 1202.54 -4.54983 1.75619 0
M  V30 11879 H 1201.54 -3.82903 3.94545 0
M  V30 11880 H 1202.77 -4.78284 4.82101 0
M  V30 11881 H 1200.72 -5.89728 2.87328 0
M  V30 11882 H 1200.63 -5.99833 4.60148 0
M  V30 11883 H 1201.9 -6.83187 3.75334 0
M  V30 11884 N 1206.13 -1.32992 -0.845635 0
M  V30 11885 C 1207.36 -1.27087 -1.63268 0
M  V30 11886 C 1207.77 0.159481 -1.88125 0
M  V30 11887 O 1207.13 1.09948 -1.45663 0
M  V30 11888 C 1207.18 -2.03649 -2.98679 0
M  V30 11889 O 1206.9 -3.41104 -2.74918 0
M  V30 11890 C 1208.4 -2.04875 -3.93117 0
M  V30 11891 H 1205.62 -0.438107 -0.508236 0
M  V30 11892 H 1208.17 -1.75257 -1.05381 0
M  V30 11893 H 1206.32 -1.59178 -3.53187 0
M  V30 11894 H 1206.74 -3.80405 -3.61099 0
M  V30 11895 H 1208.21 -2.62911 -4.85368 0
M  V30 11896 H 1208.69 -1.03728 -4.26775 0
M  V30 11897 H 1209.29 -2.49334 -3.44547 0
M  V30 11898 N 1207.61 1.06304 -1.1635 0
M  V30 11899 C 1208.55 2.13776 -0.869965 0
M  V30 11900 C 1209.52 1.65105 0.181541 0
M  V30 11901 O 1210.71 1.90743 0.0467705 0
M  V30 11902 C 1207.85 3.43034 -0.377077 0
M  V30 11903 C 1206.96 4.0544 -1.4914 0
M  V30 11904 C 1206.1 5.22572 -0.953538 0
M  V30 11905 C 1205.14 5.76961 -2.04407 0
M  V30 11906 N 1204.27 6.85409 -1.52181 0
M  V30 11907 H 1209.11 2.38224 -1.79034 0
M  V30 11908 H 1206.65 1.16882 -0.893136 0
M  V30 11909 H 1208.61 4.17136 -0.0729426 0
M  V30 11910 H 1207.24 3.18804 0.506359 0
M  V30 11911 H 1206.29 3.28886 -1.9115 0
M  V30 11912 H 1207.6 4.41859 -2.31434 0
M  V30 11913 H 1206.76 6.037 -0.602579 0
M  V30 11914 H 1205.5 4.87598 -0.099897 0
M  V30 11915 H 1204.5 4.9447 -2.40373 0
M  V30 11916 H 1205.73 6.13987 -2.90167 0
M  V30 11917 H 1203.67 6.52354 -0.690697 0
M  V30 11918 H 1203.59 7.2077 -2.28092 0
M  V30 11919 H 1204.86 7.70217 -1.19942 0
M  V30 11920 N 1209.09 0.96196 1.24836 0
M  V30 11921 C 1210.05 0.492443 2.23847 0
M  V30 11922 C 1211.05 -0.40788 1.55541 0
M  V30 11923 O 1212.24 -0.204143 1.73 0
M  V30 11924 C 1209.37 -0.287578 3.39685 0
M  V30 11925 H 1210.56 1.36767 2.66899 0
M  V30 11926 H 1208.12 0.745967 1.3735 0
M  V30 11927 H 1208.85 -1.18015 3.02064 0
M  V30 11928 H 1208.64 0.358431 3.90458 0
M  V30 11929 H 1210.13 -0.605297 4.1319 0
M  V30 11930 N 1210.56 -1.39601 0.731392 0
M  V30 11931 C 1211.49 -2.33268 0.1041 0
M  V30 11932 C 1212.47 -1.53724 -0.728219 0
M  V30 11933 O 1213.66 -1.82131 -0.673933 0
M  V30 11934 C 1210.79 -3.37802 -0.806646 0
M  V30 11935 C 1209.74 -4.27928 -0.0787588 0
M  V30 11936 C 1209.07 -5.23131 -1.10628 0
M  V30 11937 C 1210.37 -5.11086 1.07651 0
M  V30 11938 H 1212.06 -2.85975 0.886496 0
M  V30 11939 H 1209.61 -1.375 0.427746 0
M  V30 11940 H 1211.56 -4.02278 -1.25499 0
M  V30 11941 H 1210.29 -2.83527 -1.62112 0
M  V30 11942 H 1208.95 -3.64926 0.349926 0
M  V30 11943 H 1208.59 -4.65152 -1.91422 0
M  V30 11944 H 1208.29 -5.84277 -0.624043 0
M  V30 11945 H 1209.82 -5.90483 -1.5544 0
M  V30 11946 H 1211.23 -5.68927 0.706781 0
M  V30 11947 H 1209.63 -5.81356 1.48814 0
M  V30 11948 H 1210.7 -4.46131 1.89988 0
M  V30 11949 N 1212.04 -0.478751 -1.50152 0
M  V30 11950 C 1213.27 0.0732929 -2.0727 0
M  V30 11951 C 1213.69 1.32066 -1.33941 0
M  V30 11952 O 1213.05 1.7707 -0.389367 0
M  V30 11953 C 1213.1 0.332528 -3.59064 0
M  V30 11954 O 1212.2 1.41158 -3.8749 0
M  V30 11955 H 1211.54 -0.0163684 -0.663798 0
M  V30 11956 H 1214.07 -0.671993 -1.9325 0
M  V30 11957 H 1214.08 0.570735 -4.03988 0
M  V30 11958 H 1212.76 -0.578934 -4.11851 0
M  V30 11959 H 1211.34 1.16008 -3.54396 0
M  V30 11960 N 1213.52 1.56172 -0.211661 0
M  V30 11961 C 1214.48 2.18602 0.688906 0
M  V30 11962 C 1215.48 1.14508 1.12892 0
M  V30 11963 O 1216.67 1.39799 1.03932 0
M  V30 11964 C 1213.81 2.80141 1.94253 0
M  V30 11965 H 1215 2.9955 0.144765 0
M  V30 11966 H 1212.55 1.56254 0.0379615 0
M  V30 11967 H 1213.29 2.03035 2.52878 0
M  V30 11968 H 1213.07 3.56358 1.63558 0
M  V30 11969 H 1214.56 3.28026 2.58436 0
M  V30 11970 N 1215 -0.0618163 1.57479 0
M  V30 11971 C 1216.25 -0.757569 1.87364 0
M  V30 11972 C 1216.57 -1.77607 0.805025 0
M  V30 11973 O 1215.84 -1.95202 -0.165216 0
M  V30 11974 H 1214.42 -0.28278 0.691408 0
M  V30 11975 H 1217.08 -0.0355354 1.94868 0
M  V30 11976 H 1216.18 -1.26758 2.85199 0
M  V30 11977 N 1216.48 -1.54033 -0.333429 0
M  V30 11978 C 1217.7 -1.75716 -1.09232 0
M  V30 11979 C 1218.12 -0.501076 -1.82029 0
M  V30 11980 O 1217.48 0.527772 -1.74702 0
M  V30 11981 C 1217.53 -2.9439 -2.09802 0
M  V30 11982 O 1217.25 -4.15141 -1.39963 0
M  V30 11983 C 1218.75 -3.28206 -2.97987 0
M  V30 11984 H 1215.97 -0.586859 -0.325326 0
M  V30 11985 H 1218.51 -2.0089 -0.382555 0
M  V30 11986 H 1216.67 -2.71518 -2.76327 0
M  V30 11987 H 1217.08 -4.81826 -2.0723 0
M  V30 11988 H 1218.56 -4.14568 -3.64469 0
M  V30 11989 H 1219.03 -2.44944 -3.64553 0
M  V30 11990 H 1219.64 -3.5312 -2.37036 0
M  V30 11991 N 1217.95 0.594978 -1.45938 0
M  V30 11992 C 1219.18 1.37994 -1.5416 0
M  V30 11993 C 1219.6 1.87954 -0.17848 0
M  V30 11994 O 1218.95 1.62932 0.822161 0
M  V30 11995 C 1219.01 2.57586 -2.53637 0
M  V30 11996 O 1218.73 2.09698 -3.84653 0
M  V30 11997 C 1220.23 3.50292 -2.71681 0
M  V30 11998 H 1217.45 0.421983 -0.5217 0
M  V30 11999 H 1219.99 0.724459 -1.91238 0
M  V30 12000 H 1218.15 3.19149 -2.19597 0
M  V30 12001 H 1218.56 2.87492 -4.3869 0
M  V30 12002 H 1220.03 4.30717 -3.45234 0
M  V30 12003 H 1220.51 4.01444 -1.78156 0
M  V30 12004 H 1221.12 2.94573 -3.06768 0
M  V30 12005 N 1219.43 1.33438 0.838571 0
M  V30 12006 C 1220.34 1.25753 1.98049 0
M  V30 12007 C 1221.36 0.168051 1.73187 0
M  V30 12008 O 1222.53 0.391691 1.97554 0
M  V30 12009 C 1219.6 0.997148 3.32051 0
M  V30 12010 C 1218.66 2.17667 3.70027 0
M  V30 12011 C 1217.89 1.92861 4.97635 0
M  V30 12012 O 1218.12 0.879072 5.63585 0
M  V30 12013 O 1217.05 2.79402 5.33121 0
M  V30 12014 H 1220.88 2.21786 2.07472 0
M  V30 12015 H 1218.46 1.13488 0.971645 0
M  V30 12016 H 1220.34 0.869099 4.1234 0
M  V30 12017 H 1219.02 0.0671036 3.2363 0
M  V30 12018 H 1217.93 2.36025 2.90246 0
M  V30 12019 H 1219.26 3.09006 3.83114 0
M  V30 12020 N 1220.91 -1.05686 1.16912 0
M  V30 12021 C 1222.16 -1.77987 0.948875 0
M  V30 12022 C 1222.47 -1.8845 -0.524011 0
M  V30 12023 O 1223.68 -2.57442 -0.862322 0
M  V30 12024 C 1222.13 -3.19927 1.64848 0
M  V30 12025 C 1221.74 -3.1761 3.15956 0
M  V30 12026 C 1223.49 -3.96719 1.51044 0
M  V30 12027 C 1221.39 -4.54307 3.78628 0
M  V30 12028 H 1220.32 -0.667119 0.35138 0
M  V30 12029 H 1222.97 -1.18496 1.40111 0
M  V30 12030 H 1221.36 -3.79714 1.12397 0
M  V30 12031 H 1222.53 -2.67369 3.75301 0
M  V30 12032 H 1220.85 -2.54317 3.29715 0
M  V30 12033 H 1223.44 -4.97779 1.95243 0
M  V30 12034 H 1223.79 -4.13748 0.460268 0
M  V30 12035 H 1224.32 -3.43468 2.00685 0
M  V30 12036 H 1221.06 -4.42484 4.8362 0
M  V30 12037 H 1220.58 -5.04717 3.24069 0
M  V30 12038 H 1222.26 -5.23255 3.80543 0
M  V30 12039 N 1222.39 -0.968567 -1.24324 0
M  V30 12040 C 1223.63 -0.631863 -1.92705 0
M  V30 12041 C 1223.97 0.83096 -1.75524 0
M  V30 12042 O 1223.24 1.59795 -1.10887 0
M  V30 12043 C 1223.53 -1.00845 -3.45691 0
M  V30 12044 C 1223.38 -2.52803 -3.72036 0
M  V30 12045 C 1224.7 -0.543647 -4.36729 0
M  V30 12046 H 1221.82 -0.231027 -0.699854 0
M  V30 12047 H 1224.46 -1.20773 -1.46676 0
M  V30 12048 H 1222.61 -0.518434 -3.85025 0
M  V30 12049 H 1224.28 -3.09289 -3.42255 0
M  V30 12050 H 1222.52 -2.95963 -3.17157 0
M  V30 12051 H 1223.19 -2.74203 -4.79079 0
M  V30 12052 H 1225.67 -0.964182 -4.04775 0
M  V30 12053 H 1224.55 -0.8357 -5.42501 0
M  V30 12054 H 1224.81 0.556256 -4.38587 0
M  V30 12055 N 1223.87 1.39211 -0.738786 0
M  V30 12056 C 1224.81 2.32424 -0.0904601 0
M  V30 12057 C 1225.81 1.53258 0.721694 0
M  V30 12058 O 1227.01 1.68895 0.622454 0
M  V30 12059 H 1223.39 0.751927 -0.010453 0
M  V30 12060 H 1225.36 2.84726 -0.892945 0
M  V30 12061 C 1224.11 3.38377 0.799783 0
M  V30 12062 H 1223.43 3.99375 0.18424 0
M  V30 12063 H 1224.87 4.0604 1.22096 0
M  V30 12064 C 1223.33 2.75734 1.93578 0
M  V30 12065 O 1223.86 2.63876 3.02874 0
M  V30 12066 N 1222.07 2.33764 1.72634 0
M  V30 12067 H 1221.61 2.43609 0.837413 0
M  V30 12068 H 1221.57 1.92191 2.48817 0
M  V30 12069 N 1225.34 0.486708 1.49896 0
M  V30 12070 C 1226.31 -0.288126 2.27382 0
M  V30 12071 C 1227.31 -0.906675 1.32801 0
M  V30 12072 O 1228.5 -0.773425 1.56089 0
M  V30 12073 C 1225.63 -1.41194 3.10285 0
M  V30 12074 H 1226.82 0.391618 2.97332 0
M  V30 12075 H 1224.38 0.24123 1.54427 0
M  V30 12076 H 1225.11 -2.12627 2.44868 0
M  V30 12077 H 1224.9 -0.974033 3.79809 0
M  V30 12078 H 1226.39 -1.95812 3.68846 0
M  V30 12079 N 1226.82 -1.56058 0.219941 0
M  V30 12080 C 1227.77 -2.16853 -0.704185 0
M  V30 12081 C 1228.76 -1.11639 -1.15869 0
M  V30 12082 O 1229.95 -1.37632 -1.11295 0
M  V30 12083 C 1227.08 -2.85073 -1.9128 0
M  V30 12084 C 1226.16 -3.9751 -1.47805 0
M  V30 12085 N 1226.56 -5.00121 -0.755792 0
M  V30 12086 C 1224.85 -4.0957 -1.76546 0
M  V30 12087 C 1225.55 -5.79241 -0.534332 0
M  V30 12088 N 1224.53 -5.32549 -1.09055 0
M  V30 12089 H 1228.33 -2.93547 -0.143914 0
M  V30 12090 H 1225.85 -1.62386 0.021133 0
M  V30 12091 H 1227.84 -3.27037 -2.58558 0
M  V30 12092 H 1226.5 -2.09874 -2.47756 0
M  V30 12093 H 1227.51 -5.16285 -0.408647 0
M  V30 12094 H 1224.19 -3.45521 -2.34353 0
M  V30 12095 H 1225.58 -6.71888 0.0404032 0
M  V30 12096 N 1228.3 0.053464 -1.57509 0
M  V30 12097 C 1229.58 0.783141 -1.79238 0
M  V30 12098 C 1229.96 1.94855 -0.812069 0
M  V30 12099 O 1229.31 2.28 0.151006 0
M  V30 12100 C 1229.52 1.239 -3.26266 0
M  V30 12101 C 1230.86 1.66492 -3.90596 0
M  V30 12102 O 1231.89 1.33421 -3.30269 0
M  V30 12103 O 1230.75 2.27785 -4.96766 0
M  V30 12104 H 1227.84 0.376696 -0.736226 0
M  V30 12105 H 1230.39 0.0321229 -1.6967 0
M  V30 12106 H 1229.16 0.405948 -3.89189 0
M  V30 12107 H 1228.78 2.05078 -3.4063 0
M  V30 12108 N 1229.78 1.54207 0.325255 0
M  V30 12109 C 1230.73 1.83474 1.40021 0
M  V30 12110 C 1231.7 0.681719 1.51466 0
M  V30 12111 O 1232.88 0.92798 1.66713 0
M  V30 12112 C 1230.02 2.06624 2.76407 0
M  V30 12113 C 1229.13 3.3431 2.73607 0
M  V30 12114 C 1228.27 3.4743 4.01828 0
M  V30 12115 C 1227.31 4.68997 3.93329 0
M  V30 12116 N 1226.45 4.79052 5.13277 0
M  V30 12117 H 1231.29 2.75182 1.14363 0
M  V30 12118 H 1228.82 1.36284 0.553639 0
M  V30 12119 H 1230.78 2.18037 3.5569 0
M  V30 12120 H 1229.41 1.18209 3.00377 0
M  V30 12121 H 1228.46 3.31643 1.86324 0
M  V30 12122 H 1229.77 4.237 2.6321 0
M  V30 12123 H 1228.93 3.58376 4.89542 0
M  V30 12124 H 1227.67 2.56128 4.1503 0
M  V30 12125 H 1226.67 4.58109 3.04 0
M  V30 12126 H 1227.9 5.61681 3.81695 0
M  V30 12127 H 1225.84 3.90666 5.26988 0
M  V30 12128 H 1225.76 5.62406 5.05208 0
M  V30 12129 H 1227.03 4.94328 6.02711 0
M  V30 12130 N 1231.26 -0.58723 1.46251 0
M  V30 12131 C 1232.5 -1.3476 1.51551 0
M  V30 12132 C 1232.84 -1.93499 0.16483 0
M  V30 12133 O 1232.11 -1.7622 -0.823207 0
M  V30 12134 C 1232.39 -2.48033 2.61059 0
M  V30 12135 C 1232.25 -1.94358 4.05642 0
M  V30 12136 C 1233.57 -3.50096 2.66685 0
M  V30 12137 H 1230.69 -0.48863 0.551733 0
M  V30 12138 H 1233.33 -0.660097 1.78165 0
M  V30 12139 H 1231.48 -3.06679 2.38496 0
M  V30 12140 H 1233.15 -1.40204 4.39478 0
M  V30 12141 H 1231.39 -1.25217 4.15335 0
M  V30 12142 H 1232.06 -2.76105 4.77986 0
M  V30 12143 H 1234.54 -3.01324 2.86955 0
M  V30 12144 H 1233.42 -4.26817 3.45135 0
M  V30 12145 H 1233.68 -4.07032 1.7256 0
M  V30 12146 N 1232.74 -1.33881 -0.831482 0
M  V30 12147 C 1234.15 -1.13376 -1.1233 0
M  V30 12148 C 1234.35 0.0704402 -2.01377 0
M  V30 12149 O 1233.41 0.748516 -2.4115 0
M  V30 12150 C 1234.72 -2.42484 -1.77826 0
M  V30 12151 C 1236.27 -2.4846 -1.90359 0
M  V30 12152 C 1236.74 -3.77548 -2.59272 0
M  V30 12153 N 1238.23 -3.7866 -2.66778 0
M  V30 12154 C 1238.97 -4.75258 -3.20807 0
M  V30 12155 N 1238.47 -5.82234 -3.75466 0
M  V30 12156 N 1240.26 -4.62724 -3.19128 0
M  V30 12157 H 1232.41 -2.11051 -0.238998 0
M  V30 12158 H 1234.67 -0.932893 -0.168565 0
M  V30 12159 H 1234.38 -3.30647 -1.19857 0
M  V30 12160 H 1234.25 -2.55186 -2.77777 0
M  V30 12161 H 1236.64 -1.60742 -2.47479 0
M  V30 12162 H 1236.72 -2.39693 -0.893359 0
M  V30 12163 H 1236.36 -4.65651 -2.02808 0
M  V30 12164 H 1236.29 -3.83594 -3.60781 0
M  V30 12165 H 1238.79 -3.01351 -2.28026 0
M  V30 12166 H 1239.1 -6.51968 -4.14918 0
M  V30 12167 H 1237.44 -5.85959 -3.73733 0
M  V30 12168 H 1240.63 -3.78303 -2.75688 0
M  V30 12169 H 1240.81 -5.38175 -3.60932 0
M  V30 12170 N 1234.21 1.05064 -1.1747 0
M  V30 12171 C 1235.46 1.78089 -0.963883 0
M  V30 12172 C 1235.79 1.87766 0.507365 0
M  V30 12173 O 1235.04 1.37477 1.39279 0
M  V30 12174 C 1235.34 3.21961 -1.55164 0
M  V30 12175 C 1235.01 3.32339 -3.04732 0
M  V30 12176 C 1233.67 3.34878 -3.45557 0
M  V30 12177 C 1236.02 3.3325 -4.00741 0
M  V30 12178 C 1233.35 3.35959 -4.80987 0
M  V30 12179 C 1235.7 3.3587 -5.36073 0
M  V30 12180 C 1234.37 3.36697 -5.7636 0
M  V30 12181 H 1233.64 0.651672 -0.35271 0
M  V30 12182 H 1236.28 1.23471 -1.4638 0
M  V30 12183 H 1234.59 3.79514 -0.973471 0
M  V30 12184 H 1236.29 3.77087 -1.36406 0
M  V30 12185 H 1232.88 3.31076 -2.72188 0
M  V30 12186 H 1237.06 3.30488 -3.70258 0
M  V30 12187 H 1232.32 3.34911 -5.11512 0
M  V30 12188 H 1236.49 3.35524 -6.10243 0
M  V30 12189 H 1234.12 3.37288 -6.81279 0
M  V30 12190 N 1235.69 0.975146 1.23809 0
M  V30 12191 C 1236.65 0.516157 2.23312 0
M  V30 12192 C 1237.65 -0.39136 1.55965 0
M  V30 12193 O 1238.84 -0.185783 1.73206 0
M  V30 12194 C 1235.98 -0.251534 3.39971 0
M  V30 12195 H 1237.17 1.3959 2.65433 0
M  V30 12196 H 1234.72 0.760493 1.36551 0
M  V30 12197 H 1235.46 -1.14805 3.03299 0
M  V30 12198 H 1235.24 0.399825 3.90056 0
M  V30 12199 H 1236.73 -0.561438 4.13809 0
M  V30 12200 N 1237.17 -1.38817 0.746158 0
M  V30 12201 C 1238.12 -2.32373 0.102785 0
M  V30 12202 C 1239.11 -1.53638 -0.713556 0
M  V30 12203 O 1240.32 -1.69223 -0.613488 0
M  V30 12204 H 1236.69 -0.751861 0.0144405 0
M  V30 12205 H 1238.66 -2.84249 0.908032 0
M  V30 12206 C 1237.41 -3.38796 -0.781827 0
M  V30 12207 H 1236.74 -3.99467 -0.163057 0
M  V30 12208 H 1238.18 -4.06682 -1.19941 0
M  V30 12209 C 1236.63 -2.76756 -1.92113 0
M  V30 12210 O 1237.16 -2.65478 -3.0147 0
M  V30 12211 N 1235.37 -2.34676 -1.71392 0
M  V30 12212 H 1234.92 -2.44049 -0.824483 0
M  V30 12213 H 1234.88 -1.93508 -2.47794 0
M  V30 12214 N 1238.65 -0.49465 -1.49636 0
M  V30 12215 C 1239.9 0.0520143 -2.02033 0
M  V30 12216 C 1240.22 1.38071 -1.37701 0
M  V30 12217 O 1239.49 1.88589 -0.530181 0
M  V30 12218 H 1238.07 0.0222123 -0.74667 0
M  V30 12219 H 1240.73 -0.650445 -1.83726 0
M  V30 12220 H 1239.82 0.186337 -3.11543 0
M  V30 12221 N 1240.13 1.55939 -0.228214 0
M  V30 12222 C 1241.06 2.2357 0.6737 0
M  V30 12223 C 1242.04 1.20964 1.1959 0
M  V30 12224 O 1243.22 1.49568 1.23867 0
M  V30 12225 C 1240.35 2.92076 1.87906 0
M  V30 12226 C 1239.31 4.01211 1.49043 0
M  V30 12227 C 1238.63 4.57047 2.77511 0
M  V30 12228 C 1239.93 5.17914 0.67544 0
M  V30 12229 H 1241.63 2.99199 0.109806 0
M  V30 12230 H 1239.17 1.43908 0.0513732 0
M  V30 12231 H 1241.12 3.38083 2.51551 0
M  V30 12232 H 1239.85 2.13906 2.46803 0
M  V30 12233 H 1238.51 3.55945 0.877411 0
M  V30 12234 H 1238.16 3.75599 3.34566 0
M  V30 12235 H 1237.86 5.30707 2.52239 0
M  V30 12236 H 1239.38 5.05776 3.42087 0
M  V30 12237 H 1240.79 5.60261 1.21575 0
M  V30 12238 H 1239.19 5.97847 0.519536 0
M  V30 12239 H 1240.26 4.83866 -0.316495 0
M  V30 12240 N 1241.6 -0.0451101 1.57535 0
M  V30 12241 C 1242.55 -1.0692 2.06569 0
M  V30 12242 C 1243.55 -1.38443 0.976218 0
M  V30 12243 O 1244.75 -1.37536 1.1612 0
M  V30 12244 H 1241.13 -0.36226 0.658993 0
M  V30 12245 H 1243.1 -0.629709 2.9168 0
M  V30 12246 C 1241.85 -2.36656 2.54733 0
M  V30 12247 H 1241.17 -2.13257 3.38174 0
M  V30 12248 H 1242.61 -3.06696 2.92769 0
M  V30 12249 C 1241.07 -3.04499 1.4416 0
M  V30 12250 O 1241.6 -3.93679 0.798721 0
M  V30 12251 N 1239.81 -2.6556 1.18009 0
M  V30 12252 H 1239.35 -1.93126 1.7047 0
M  V30 12253 H 1239.31 -3.11272 0.442363 0
M  V30 12254 N 1243.08 -1.54377 -0.317073 0
M  V30 12255 C 1244.31 -1.76865 -1.07362 0
M  V30 12256 C 1244.73 -0.520354 -1.81488 0
M  V30 12257 O 1244.08 0.509213 -1.75252 0
M  V30 12258 C 1244.13 -2.96598 -2.06668 0
M  V30 12259 O 1243.85 -4.16602 -1.35552 0
M  V30 12260 C 1245.36 -3.31348 -2.94489 0
M  V30 12261 H 1242.58 -0.590277 -0.319083 0
M  V30 12262 H 1245.12 -2.01284 -0.361227 0
M  V30 12263 H 1243.27 -2.74433 -2.73432 0
M  V30 12264 H 1243.69 -4.83996 -2.02108 0
M  V30 12265 H 1245.16 -4.1841 -3.60051 0
M  V30 12266 H 1245.64 -2.48797 -3.61935 0
M  V30 12267 H 1246.25 -3.55614 -2.33278 0
M  V30 12268 N 1244.56 0.579466 -1.4656 0
M  V30 12269 C 1245.51 1.68829 -1.5737 0
M  V30 12270 C 1246.48 1.60759 -0.417825 0
M  V30 12271 O 1247.66 1.79923 -0.635001 0
M  V30 12272 C 1244.8 3.07166 -1.573 0
M  V30 12273 C 1243.92 3.25837 -2.83645 0
M  V30 12274 C 1243.05 4.54441 -2.75057 0
M  V30 12275 C 1242.09 4.66467 -3.96327 0
M  V30 12276 N 1241.23 5.86401 -3.86107 0
M  V30 12277 H 1246.07 1.58928 -2.52083 0
M  V30 12278 H 1243.6 0.774526 -1.25058 0
M  V30 12279 H 1245.56 3.8724 -1.55245 0
M  V30 12280 H 1244.19 3.15956 -0.661166 0
M  V30 12281 H 1243.24 2.39345 -2.95666 0
M  V30 12282 H 1244.56 3.30591 -3.73512 0
M  V30 12283 H 1243.71 5.42748 -2.71126 0
M  V30 12284 H 1242.45 4.52131 -1.82836 0
M  V30 12285 H 1241.45 3.76577 -4.00587 0
M  V30 12286 H 1242.68 4.70554 -4.89649 0
M  V30 12287 H 1240.62 5.85082 -2.96673 0
M  V30 12288 H 1240.54 5.92437 -4.69632 0
M  V30 12289 H 1241.81 6.7713 -3.86155 0
M  V30 12290 N 1246.04 1.3432 0.824371 0
M  V30 12291 C 1247.28 1.26783 1.58284 0
M  V30 12292 C 1247.62 -0.162282 1.93521 0
M  V30 12293 O 1246.89 -1.1073 1.59903 0
M  V30 12294 C 1247.18 2.15725 2.88331 0
M  V30 12295 C 1247.03 3.67266 2.59684 0
M  V30 12296 C 1248.35 2.04141 3.8989 0
M  V30 12297 H 1245.47 0.461893 0.574303 0
M  V30 12298 H 1248.11 1.64558 0.949769 0
M  V30 12299 H 1246.26 1.83639 3.42358 0
M  V30 12300 H 1247.93 4.09711 2.11978 0
M  V30 12301 H 1246.17 3.88426 1.93151 0
M  V30 12302 H 1246.84 4.24863 3.52414 0
M  V30 12303 H 1249.32 2.3231 3.45212 0
M  V30 12304 H 1248.2 2.68601 4.7869 0
M  V30 12305 H 1248.46 1.01795 4.30221 0
M  V30 12306 N 1247.52 -1.0444 1.18026 0
M  V30 12307 C 1248.74 -1.81772 0.998684 0
M  V30 12308 C 1249.17 -1.82682 -0.448225 0
M  V30 12309 O 1248.52 -1.24136 -1.32136 0
M  V30 12310 C 1248.57 -3.2542 1.55352 0
M  V30 12311 O 1247.68 -4.05103 0.772351 0
M  V30 12312 H 1247.02 -0.561731 0.354054 0
M  V30 12313 H 1249.55 -1.31557 1.56697 0
M  V30 12314 H 1249.56 -3.76206 1.57903 0
M  V30 12315 H 1248.23 -3.24073 2.60672 0
M  V30 12316 H 1246.81 -3.63798 0.818852 0
M  V30 12317 N 1248.99 -0.981699 -1.2329 0
M  V30 12318 C 1249.96 -0.527992 -2.23036 0
M  V30 12319 C 1250.96 0.383083 -1.5617 0
M  V30 12320 O 1252.15 0.176595 -1.73303 0
M  V30 12321 C 1249.28 0.233501 -3.40099 0
M  V30 12322 H 1250.47 -1.40995 -2.64689 0
M  V30 12323 H 1248.03 -0.767724 -1.36146 0
M  V30 12324 H 1248.76 1.13194 -3.03904 0
M  V30 12325 H 1248.55 -0.420505 -3.89839 0
M  V30 12326 H 1250.04 0.539485 -4.14101 0
M  V30 12327 N 1250.47 1.3842 -0.753509 0
M  V30 12328 C 1251.44 2.28808 -0.134022 0
M  V30 12329 C 1252.44 1.47184 0.647583 0
M  V30 12330 O 1253.63 1.67631 0.473861 0
M  V30 12331 C 1250.76 3.30926 0.81858 0
M  V30 12332 H 1251.95 2.85097 -0.930586 0
M  V30 12333 H 1249.5 1.47378 -0.520514 0
M  V30 12334 H 1250.24 2.79728 1.64082 0
M  V30 12335 H 1250.02 3.91234 0.260526 0
M  V30 12336 H 1251.51 3.98515 1.24802 0
M  V30 12337 N 1251.95 0.502579 1.49372 0
M  V30 12338 C 1253.18 -0.0381429 2.06865 0
M  V30 12339 C 1253.59 -1.30674 1.36271 0
M  V30 12340 O 1252.95 -1.77078 0.441532 0
M  V30 12341 C 1253 -0.294068 3.60302 0
M  V30 12342 O 1252.72 0.924244 4.2824 0
M  V30 12343 C 1254.22 -0.878253 4.34513 0
M  V30 12344 H 1251.44 0.0211756 0.670666 0
M  V30 12345 H 1253.99 0.700387 1.92132 0
M  V30 12346 H 1252.14 -0.982583 3.74732 0
M  V30 12347 H 1252.56 0.688062 5.19967 0
M  V30 12348 H 1254.03 -1.0069 5.42739 0
M  V30 12349 H 1254.51 -1.87643 3.97098 0
M  V30 12350 H 1255.11 -0.227157 4.24693 0
M  V30 12351 N 1253.43 -1.55816 0.23648 0
M  V30 12352 C 1254.67 -1.98981 -0.391725 0
M  V30 12353 C 1255.01 -1.12428 -1.58346 0
M  V30 12354 O 1254.28 -0.185303 -1.93615 0
M  V30 12355 C 1254.57 -3.50831 -0.811759 0
M  V30 12356 C 1254.42 -4.48152 0.384648 0
M  V30 12357 C 1255.74 -4.07489 -1.66254 0
M  V30 12358 H 1252.86 -0.723404 -0.140911 0
M  V30 12359 H 1255.5 -1.87011 0.335706 0
M  V30 12360 H 1253.65 -3.61162 -1.43157 0
M  V30 12361 H 1255.32 -4.49814 1.02298 0
M  V30 12362 H 1253.56 -4.21406 1.02955 0
M  V30 12363 H 1254.23 -5.51979 0.0475809 0
M  V30 12364 H 1256.71 -4.00195 -1.13944 0
M  V30 12365 H 1255.59 -5.14026 -1.92531 0
M  V30 12366 H 1255.85 -3.55297 -2.6309 0
M  V30 12367 N 1254.91 0.036755 -1.57557 0
M  V30 12368 C 1255.82 1.05687 -2.09446 0
M  V30 12369 C 1256.83 1.40137 -1.03139 0
M  V30 12370 O 1258.01 1.49611 -1.34828 0
M  V30 12371 C 1255.07 2.34114 -2.55717 0
M  V30 12372 C 1254.13 2.06316 -3.76473 0
M  V30 12373 C 1253.37 3.2862 -4.20529 0
M  V30 12374 O 1253.59 4.3902 -3.64167 0
M  V30 12375 O 1252.52 3.14772 -5.13033 0
M  V30 12376 H 1256.35 0.64593 -2.96751 0
M  V30 12377 H 1253.94 0.253235 -1.47238 0
M  V30 12378 H 1255.82 3.09631 -2.85844 0
M  V30 12379 H 1254.49 2.74519 -1.71526 0
M  V30 12380 H 1253.4 1.28392 -3.51378 0
M  V30 12381 H 1254.73 1.70772 -4.61625 0
M  V30 12382 N 1256.39 1.54543 0.308881 0
M  V30 12383 C 1257.61 1.77753 1.06857 0
M  V30 12384 C 1258.04 0.531616 1.80431 0
M  V30 12385 O 1257.39 -0.517513 1.73757 0
M  V30 12386 C 1257.44 2.97968 2.03094 0
M  V30 12387 O 1256.55 2.70541 3.11257 0
M  V30 12388 H 1255.89 0.588576 0.307368 0
M  V30 12389 H 1258.42 2.01607 0.348703 0
M  V30 12390 H 1258.43 3.25722 2.45702 0
M  V30 12391 H 1257.1 3.88314 1.48948 0
M  V30 12392 H 1255.68 2.53781 2.7322 0
M  V30 12393 N 1257.86 -0.571685 1.46866 0
M  V30 12394 C 1259.09 -1.35524 1.56336 0
M  V30 12395 C 1259.51 -1.87647 0.208359 0
M  V30 12396 O 1258.86 -1.64219 -0.796136 0
M  V30 12397 C 1258.91 -2.53518 2.57703 0
M  V30 12398 O 1258.64 -2.03552 3.87941 0
M  V30 12399 C 1260.14 -3.45925 2.77219 0
M  V30 12400 H 1257.36 -0.41363 0.528348 0
M  V30 12401 H 1259.9 -0.693943 1.92366 0
M  V30 12402 H 1258.06 -3.15615 2.24647 0
M  V30 12403 H 1258.47 -2.80476 4.43208 0
M  V30 12404 H 1259.94 -4.2517 3.52043 0
M  V30 12405 H 1260.42 -3.98559 1.8452 0
M  V30 12406 H 1261.03 -2.89655 3.11416 0
M  V30 12407 N 1259.34 -1.34755 -0.817236 0
M  V30 12408 C 1260.62 -1.18007 -1.55993 0
M  V30 12409 C 1261 0.245079 -2.09673 0
M  V30 12410 O 1260.35 1.24718 -1.91462 0
M  V30 12411 C 1260.56 -2.23934 -2.67684 0
M  V30 12412 C 1261.9 -2.59201 -3.36303 0
M  V30 12413 O 1262.93 -2.22767 -2.77945 0
M  V30 12414 O 1261.79 -3.21809 -4.41702 0
M  V30 12415 H 1258.88 -0.4578 -0.688729 0
M  V30 12416 H 1261.43 -1.46405 -0.858117 0
M  V30 12417 H 1260.2 -3.19568 -2.25813 0
M  V30 12418 H 1259.82 -1.96745 -3.4551 0
M  V30 12419 N 1260.82 1.03812 -1.18578 0
M  V30 12420 C 1261.78 2.10049 -0.91718 0
M  V30 12421 C 1262.78 1.60498 0.0985122 0
M  V30 12422 O 1263.97 1.73674 -0.135213 0
M  V30 12423 C 1261.1 3.38813 -0.376599 0
M  V30 12424 H 1262.3 2.3531 -1.85927 0
M  V30 12425 H 1259.85 1.20277 -0.998156 0
M  V30 12426 H 1260.59 3.19216 0.571983 0
M  V30 12427 H 1260.37 3.76096 -1.10881 0
M  V30 12428 H 1261.86 4.17084 -0.207453 0
M  V30 12429 N 1262.3 0.988223 1.22768 0
M  V30 12430 C 1263.25 0.527454 2.26541 0
M  V30 12431 C 1264.24 -0.419506 1.64123 0
M  V30 12432 O 1265.45 -0.292539 1.77607 0
M  V30 12433 H 1261.82 0.152165 0.736444 0
M  V30 12434 H 1263.79 1.41422 2.62759 0
M  V30 12435 C 1262.54 -0.146845 3.4739 0
M  V30 12436 H 1261.86 0.572752 3.95676 0
M  V30 12437 H 1263.3 -0.432768 4.21786 0
M  V30 12438 C 1261.76 -1.38065 3.0731 0
M  V30 12439 O 1262.29 -2.47634 3.16291 0
M  V30 12440 N 1260.5 -1.25418 2.62143 0
M  V30 12441 H 1260.05 -0.362641 2.55035 0
M  V30 12442 H 1260 -2.08077 2.35694 0
M  V30 12443 N 1263.78 -1.38018 0.760839 0
M  V30 12444 C 1265.02 -1.99557 0.319609 0
M  V30 12445 C 1265.34 -1.60699 -1.10457 0
M  V30 12446 O 1264.61 -0.867248 -1.75658 0
M  V30 12447 H 1263.19 -0.738066 0.115182 0
M  V30 12448 H 1265.86 -1.6867 0.976544 0
M  V30 12449 H 1264.95 -3.09672 0.388523 0
M  V30 12450 N 1265.25 -0.510493 -1.49103 0
M  V30 12451 C 1266.53 0.0941122 -1.95373 0
M  V30 12452 C 1266.91 1.53207 -1.45227 0
M  V30 12453 O 1266.26 2.18452 -0.670161 0
M  V30 12454 C 1266.47 -0.00302507 -3.49 0
M  V30 12455 C 1267.82 0.166117 -4.24275 0
M  V30 12456 O 1268.84 0.0717097 -3.56128 0
M  V30 12457 O 1267.7 0.361155 -5.45305 0
M  V30 12458 H 1264.79 0.0900741 -0.82208 0
M  V30 12459 H 1267.34 -0.573707 -1.59708 0
M  V30 12460 H 1266.11 -1.00545 -3.78162 0
M  V30 12461 H 1265.73 0.704518 -3.91308 0
M  V30 12462 N 1266.73 1.55688 -0.24474 0
M  V30 12463 C 1267.68 2.21289 0.655723 0
M  V30 12464 C 1268.65 1.17606 1.17295 0
M  V30 12465 O 1269.83 1.46045 1.22782 0
M  V30 12466 C 1266.97 2.91453 1.84794 0
M  V30 12467 C 1266.09 4.09787 1.36744 0
M  V30 12468 C 1265.22 4.67672 2.51905 0
M  V30 12469 C 1264.26 5.78259 2.00706 0
M  V30 12470 N 1263.4 6.30336 3.09225 0
M  V30 12471 H 1268.24 2.97865 0.0896156 0
M  V30 12472 H 1265.77 1.47064 0.0324725 0
M  V30 12473 H 1267.73 3.30331 2.54828 0
M  V30 12474 H 1266.36 2.17355 2.38656 0
M  V30 12475 H 1265.41 3.76237 0.561228 0
M  V30 12476 H 1266.73 4.89627 0.952199 0
M  V30 12477 H 1265.88 5.09113 3.29984 0
M  V30 12478 H 1264.62 3.87044 2.9673 0
M  V30 12479 H 1263.62 5.36298 1.21097 0
M  V30 12480 H 1264.85 6.60737 1.56853 0
M  V30 12481 H 1262.8 5.52614 3.53489 0
M  V30 12482 H 1262.71 7.05364 2.72025 0
M  V30 12483 H 1263.98 6.76435 3.8737 0
M  V30 12484 N 1268.21 -0.0283989 1.57574 0
M  V30 12485 C 1269.46 -0.720142 1.89583 0
M  V30 12486 C 1269.79 -1.7497 0.842562 0
M  V30 12487 O 1269.06 -1.93979 -0.142294 0
M  V30 12488 C 1269.35 -1.38909 3.32229 0
M  V30 12489 C 1269.2 -0.372998 4.48251 0
M  V30 12490 C 1270.52 -2.32289 3.73804 0
M  V30 12491 H 1267.64 -0.26033 0.689491 0
M  V30 12492 H 1270.28 0.0170607 1.89992 0
M  V30 12493 H 1268.43 -2.01744 3.32011 0
M  V30 12494 H 1270.1 0.253492 4.60603 0
M  V30 12495 H 1268.34 0.30765 4.32708 0
M  V30 12496 H 1269.02 -0.879549 5.44948 0
M  V30 12497 H 1271.49 -1.79497 3.75393 0
M  V30 12498 H 1270.37 -2.76075 4.74419 0
M  V30 12499 H 1270.63 -3.18992 3.06099 0
M  V30 12500 N 1269.69 -1.54705 -0.300681 0
M  V30 12501 C 1270.92 -1.77993 -1.0548 0
M  V30 12502 C 1271.33 -0.539574 -1.80926 0
M  V30 12503 O 1270.69 0.490597 -1.75782 0
M  V30 12504 C 1270.74 -2.98774 -2.0351 0
M  V30 12505 O 1270.46 -4.18016 -1.31126 0
M  V30 12506 C 1271.96 -3.34452 -2.90958 0
M  V30 12507 H 1269.18 -0.593628 -0.312805 0
M  V30 12508 H 1271.72 -2.01656 -0.339858 0
M  V30 12509 H 1269.88 -2.77318 -2.70506 0
M  V30 12510 H 1270.29 -4.86113 -1.96963 0
M  V30 12511 H 1271.77 -4.22206 -3.55593 0
M  V30 12512 H 1272.24 -2.52622 -3.59275 0
M  V30 12513 H 1272.85 -3.58069 -2.29493 0
M  V30 12514 N 1271.17 0.563888 -1.47167 0
M  V30 12515 C 1272.39 1.34693 -1.57052 0
M  V30 12516 C 1272.81 1.87534 -0.218308 0
M  V30 12517 O 1272.17 1.64639 0.787416 0
M  V30 12518 C 1272.22 2.52148 -2.59044 0
M  V30 12519 O 1271.94 2.01492 -3.89015 0
M  V30 12520 C 1273.44 3.4445 -2.7905 0
M  V30 12521 H 1270.66 0.410822 -0.530534 0
M  V30 12522 H 1273.2 0.683731 -1.92731 0
M  V30 12523 H 1271.36 3.14419 -2.26317 0
M  V30 12524 H 1271.77 2.78122 -4.44689 0
M  V30 12525 H 1273.25 4.23297 -3.54293 0
M  V30 12526 H 1273.72 3.97575 -1.86631 0
M  V30 12527 H 1274.33 2.88 -3.12948 0
M  V30 12528 N 1272.64 1.35187 0.810078 0
M  V30 12529 C 1273.87 1.31371 1.59841 0
M  V30 12530 C 1274.29 -0.109547 1.88482 0
M  V30 12531 O 1273.64 -1.06047 1.48527 0
M  V30 12532 C 1273.7 2.11496 2.93175 0
M  V30 12533 O 1273.42 3.48273 2.65777 0
M  V30 12534 C 1274.92 2.15226 3.87547 0
M  V30 12535 H 1272.14 0.451428 0.496441 0
M  V30 12536 H 1274.68 1.7799 1.00697 0
M  V30 12537 H 1272.84 1.68486 3.48843 0
M  V30 12538 H 1273.25 3.89845 3.50886 0
M  V30 12539 H 1274.72 2.75687 4.78226 0
M  V30 12540 H 1275.2 1.15007 4.23875 0
M  V30 12541 H 1275.81 2.58382 3.37815 0
M  V30 12542 N 1274.12 -1.03182 1.19127 0
M  V30 12543 C 1275.37 -1.76533 0.992093 0
M  V30 12544 C 1275.7 -1.88549 -0.477429 0
M  V30 12545 O 1274.95 -1.39675 -1.37074 0
M  V30 12546 C 1275.25 -3.19452 1.60267 0
M  V30 12547 C 1274.92 -3.27449 3.09981 0
M  V30 12548 C 1273.58 -3.29338 3.50841 0
M  V30 12549 C 1275.93 -3.26833 4.05992 0
M  V30 12550 C 1273.26 -3.28265 4.86271 0
M  V30 12551 C 1275.61 -3.27299 5.41348 0
M  V30 12552 C 1274.28 -3.27485 5.81644 0
M  V30 12553 H 1273.55 -0.645979 0.363033 0
M  V30 12554 H 1276.19 -1.21127 1.48326 0
M  V30 12555 H 1274.5 -3.77917 1.03372 0
M  V30 12556 H 1276.19 -3.74869 1.42388 0
M  V30 12557 H 1272.78 -3.26704 2.77421 0
M  V30 12558 H 1276.97 -3.24556 3.75469 0
M  V30 12559 H 1272.22 -3.26731 5.16775 0
M  V30 12560 H 1276.4 -3.25773 6.15504 0
M  V30 12561 H 1274.03 -3.26407 6.86558 0
M  V30 12562 N 1275.6 -0.99472 -1.22242 0
M  V30 12563 C 1276.85 -0.672596 -1.91322 0
M  V30 12564 C 1277.18 0.793542 -1.77247 0
M  V30 12565 O 1276.45 1.57407 -1.14251 0
M  V30 12566 C 1276.74 -1.08155 -3.43474 0
M  V30 12567 C 1276.59 -2.60638 -3.6659 0
M  V30 12568 C 1277.91 -0.636161 -4.35478 0
M  V30 12569 H 1275.03 -0.24582 -0.694796 0
M  V30 12570 H 1277.67 -1.23857 -1.44082 0
M  V30 12571 H 1275.82 -0.599987 -3.83839 0
M  V30 12572 H 1277.49 -3.16479 -3.35617 0
M  V30 12573 H 1275.74 -3.02624 -3.10808 0
M  V30 12574 H 1276.41 -2.84304 -4.73155 0
M  V30 12575 H 1278.88 -1.04982 -4.02639 0
M  V30 12576 H 1277.76 -0.950584 -5.40606 0
M  V30 12577 H 1278.02 0.4631 -4.39668 0
M  V30 12578 N 1277.08 1.37613 -0.768148 0
M  V30 12579 C 1278.03 2.30311 -0.150176 0
M  V30 12580 C 1279 1.50918 0.69376 0
M  V30 12581 O 1280.18 1.795 0.64687 0
M  V30 12582 C 1277.32 3.37382 0.72576 0
M  V30 12583 C 1276.43 4.31791 -0.13439 0
M  V30 12584 C 1275.57 5.25937 0.745915 0
M  V30 12585 C 1274.61 6.11988 -0.116988 0
M  V30 12586 N 1273.74 6.98387 0.721091 0
M  V30 12587 H 1278.58 2.82579 -0.946212 0
M  V30 12588 H 1276.12 1.3911 -0.478217 0
M  V30 12589 H 1278.08 3.98084 1.24839 0
M  V30 12590 H 1276.71 2.86488 1.48743 0
M  V30 12591 H 1275.76 3.72426 -0.774793 0
M  V30 12592 H 1277.07 4.9234 -0.800163 0
M  V30 12593 H 1276.23 5.91826 1.33516 0
M  V30 12594 H 1274.97 4.6579 1.44538 0
M  V30 12595 H 1273.97 5.45081 -0.7188 0
M  V30 12596 H 1275.2 6.74207 -0.813732 0
M  V30 12597 H 1273.14 6.40772 1.40524 0
M  V30 12598 H 1273.06 7.55916 0.112536 0
M  V30 12599 H 1274.33 7.6867 1.29485 0
M  V30 12600 N 1278.56 0.518393 1.4883 0
M  V30 12601 C 1279.78 -0.0162 2.06894 0
M  V30 12602 C 1280.2 -1.29222 1.37649 0
M  V30 12603 O 1279.56 -1.766 0.460288 0
M  V30 12604 C 1279.61 -0.255836 3.60594 0
M  V30 12605 O 1279.33 0.969612 4.27235 0
M  V30 12606 C 1280.83 -0.832117 4.3542 0
M  V30 12607 H 1278.05 0.0282877 0.670403 0
M  V30 12608 H 1280.59 0.720726 1.91379 0
M  V30 12609 H 1278.75 -0.942782 3.75753 0
M  V30 12610 H 1279.16 0.743172 5.19208 0
M  V30 12611 H 1280.64 -0.949279 5.43776 0
M  V30 12612 H 1281.11 -1.83421 3.99066 0
M  V30 12613 H 1281.72 -0.1821 4.2491 0
M  V30 12614 N 1280.03 -1.55556 0.252993 0
M  V30 12615 C 1281.31 -1.91022 -0.420696 0
M  V30 12616 C 1281.69 -1.17452 -1.75409 0
M  V30 12617 O 1281.04 -0.294 -2.26601 0
M  V30 12618 C 1281.25 -3.441 -0.582787 0
M  V30 12619 C 1282.6 -4.15468 -0.875873 0
M  V30 12620 O 1283.62 -3.49872 -0.668425 0
M  V30 12621 O 1282.48 -5.31508 -1.27128 0
M  V30 12622 H 1279.57 -0.7953 -0.226776 0
M  V30 12623 H 1282.12 -1.67072 0.297511 0
M  V30 12624 H 1280.89 -3.89673 0.356474 0
M  V30 12625 H 1280.52 -3.73933 -1.3513 0
M  V30 12626 N 1281.51 0.0200419 -1.57587 0
M  V30 12627 C 1282.76 0.710078 -1.89962 0
M  V30 12628 C 1283.09 1.74521 -0.851829 0
M  V30 12629 O 1282.37 1.94052 0.132005 0
M  V30 12630 C 1282.65 1.37145 -3.32961 0
M  V30 12631 C 1282.5 0.349221 -4.48442 0
M  V30 12632 C 1283.82 2.30304 -3.75031 0
M  V30 12633 H 1280.94 0.25667 -0.690862 0
M  V30 12634 H 1283.58 -0.0271362 -1.89981 0
M  V30 12635 H 1281.73 1.99981 -3.33076 0
M  V30 12636 H 1283.4 -0.277916 -4.60462 0
M  V30 12637 H 1281.65 -0.330594 -4.32538 0
M  V30 12638 H 1282.32 0.850636 -5.45406 0
M  V30 12639 H 1284.79 1.77503 -3.7634 0
M  V30 12640 H 1283.67 2.73555 -4.75877 0
M  V30 12641 H 1283.93 3.17364 -3.07786 0
M  V30 12642 N 1282.99 1.54862 0.292472 0
M  V30 12643 C 1283.9 1.89472 1.38339 0
M  V30 12644 C 1284.92 0.789783 1.55043 0
M  V30 12645 O 1286.09 1.08705 1.69544 0
M  V30 12646 C 1283.16 2.14244 2.72581 0
M  V30 12647 C 1282.22 3.37913 2.64789 0
M  V30 12648 C 1281.45 3.61494 3.92629 0
M  V30 12649 O 1281.67 2.87931 4.92394 0
M  V30 12650 O 1280.61 4.55019 3.94007 0
M  V30 12651 H 1284.43 2.82298 1.11989 0
M  V30 12652 H 1282.02 1.41161 0.489291 0
M  V30 12653 H 1283.9 2.31689 3.51991 0
M  V30 12654 H 1282.58 1.24603 2.98757 0
M  V30 12655 H 1281.48 3.25823 1.83821 0
M  V30 12656 H 1282.82 4.27711 2.43565 0
M  V30 12657 N 1284.47 -0.556076 1.47464 0
M  V30 12658 C 1285.4 -1.67275 1.62915 0
M  V30 12659 C 1286.38 -1.63229 0.478562 0
M  V30 12660 O 1287.56 -1.80833 0.708032 0
M  V30 12661 C 1284.69 -3.05911 1.64426 0
M  V30 12662 C 1283.65 -3.24804 2.78722 0
M  V30 12663 C 1282.97 -4.64238 2.65307 0
M  V30 12664 C 1284.27 -3.10071 4.20302 0
M  V30 12665 H 1285.97 -1.54601 2.56396 0
M  V30 12666 H 1283.51 -0.742337 1.23391 0
M  V30 12667 H 1285.47 -3.83878 1.73826 0
M  V30 12668 H 1284.19 -3.19547 0.675053 0
M  V30 12669 H 1282.85 -2.49246 2.68835 0
M  V30 12670 H 1282.5 -4.74675 1.66412 0
M  V30 12671 H 1282.2 -4.77828 3.41986 0
M  V30 12672 H 1283.72 -5.44339 2.76637 0
M  V30 12673 H 1285.14 -3.77855 4.3116 0
M  V30 12674 H 1283.53 -3.3517 4.97776 0
M  V30 12675 H 1284.6 -2.06803 4.38589 0
M  V30 12676 N 1285.95 -1.35615 -0.802897 0
M  V30 12677 C 1287.36 -1.26062 -1.37715 0
M  V30 12678 C 1287.71 0.105411 -1.95917 0
M  V30 12679 O 1286.83 1.00648 -1.91569 0
M  V30 12680 C 1287.43 -2.28261 -2.50365 0
M  V30 12681 C 1285.99 -2.22437 -3.03642 0
M  V30 12682 C 1285.14 -2.1377 -1.76629 0
M  V30 12683 H 1288.09 -1.46689 -0.605631 0
M  V30 12684 H 1288.11 -1.91122 -3.29017 0
M  V30 12685 H 1287.62 -3.27671 -2.07975 0
M  V30 12686 H 1285.72 -1.2645 -3.50487 0
M  V30 12687 H 1285.83 -3.14558 -3.61373 0
M  V30 12688 H 1284.2 -1.59806 -1.98328 0
M  V30 12689 H 1284.98 -3.15046 -1.36385 0
M  V30 12690 N 1287.43 1.02549 -1.19673 0
M  V30 12691 C 1288.36 2.12794 -0.961289 0
M  V30 12692 C 1289.34 1.69766 0.106575 0
M  V30 12693 O 1290.52 1.94138 -0.0491358 0
M  V30 12694 C 1287.65 3.4364 -0.502868 0
M  V30 12695 C 1286.61 4.00367 -1.51296 0
M  V30 12696 C 1285.93 5.26874 -0.911491 0
M  V30 12697 C 1287.23 4.34782 -2.89416 0
M  V30 12698 H 1288.93 2.32748 -1.88331 0
M  V30 12699 H 1286.47 1.11852 -0.906922 0
M  V30 12700 H 1288.42 4.20141 -0.325436 0
M  V30 12701 H 1287.15 3.23418 0.454764 0
M  V30 12702 H 1285.81 3.25964 -1.67759 0
M  V30 12703 H 1285.46 5.02971 0.0537982 0
M  V30 12704 H 1285.16 5.65791 -1.58602 0
M  V30 12705 H 1286.68 6.06039 -0.74493 0
M  V30 12706 H 1288.09 5.02207 -2.76516 0
M  V30 12707 H 1286.49 4.8479 -3.53693 0
M  V30 12708 H 1287.56 3.43935 -3.41814 0
M  V30 12709 N 1288.9 1.00119 1.21713 0
M  V30 12710 C 1290.13 0.700431 1.94683 0
M  V30 12711 C 1290.55 -0.736333 1.73849 0
M  V30 12712 O 1289.9 -1.49778 1.04272 0
M  V30 12713 C 1289.95 1.00722 3.47185 0
M  V30 12714 O 1289.68 2.38754 3.67326 0
M  V30 12715 C 1291.18 0.725335 4.37326 0
M  V30 12716 H 1288.4 0.25843 0.619238 0
M  V30 12717 H 1290.94 1.3382 1.54636 0
M  V30 12718 H 1289.1 0.415117 3.85169 0
M  V30 12719 H 1289.51 2.49321 4.61454 0
M  V30 12720 H 1290.98 0.990202 5.43046 0
M  V30 12721 H 1291.46 -0.340649 4.37877 0
M  V30 12722 H 1292.07 1.29888 4.04981 0
M  V30 12723 N 1290.38 -1.37203 0.775435 0
M  V30 12724 C 1291.31 -2.28873 0.122374 0
M  V30 12725 C 1292.33 -1.48811 -0.660239 0
M  V30 12726 O 1293.52 -1.7142 -0.497724 0
M  V30 12727 C 1290.62 -3.28062 -0.850212 0
M  V30 12728 C 1289.79 -4.37234 -0.120633 0
M  V30 12729 C 1288.85 -5.16472 -1.00712 0
M  V30 12730 O 1287.87 -5.6726 -0.469528 0
M  V30 12731 N 1289.08 -5.31556 -2.33299 0
M  V30 12732 H 1291.84 -2.85559 0.909741 0
M  V30 12733 H 1289.4 -1.49219 0.628107 0
M  V30 12734 H 1291.39 -3.77956 -1.44678 0
M  V30 12735 H 1289.96 -2.72118 -1.53853 0
M  V30 12736 H 1289.18 -3.88688 0.656879 0
M  V30 12737 H 1290.47 -5.07354 0.383358 0
M  V30 12738 H 1289.87 -4.91883 -2.79406 0
M  V30 12739 H 1288.43 -5.84745 -2.87953 0
M  V30 12740 N 1291.86 -0.526279 -1.48553 0
M  V30 12741 C 1293.11 0.0111473 -2.01697 0
M  V30 12742 C 1293.42 1.35675 -1.40895 0
M  V30 12743 O 1294.63 1.98233 -1.85515 0
M  V30 12744 C 1293.08 0.0702721 -3.59831 0
M  V30 12745 C 1292.69 -1.27022 -4.29616 0
M  V30 12746 C 1294.44 0.556722 -4.20834 0
M  V30 12747 C 1292.34 -1.17188 -5.79673 0
M  V30 12748 H 1291.27 0.00793697 -0.753958 0
M  V30 12749 H 1293.92 -0.669503 -1.70851 0
M  V30 12750 H 1292.31 0.81592 -3.87503 0
M  V30 12751 H 1293.48 -2.03114 -4.1362 0
M  V30 12752 H 1291.79 -1.69211 -3.80469 0
M  V30 12753 H 1294.39 0.648205 -5.30756 0
M  V30 12754 H 1294.73 1.56163 -3.859 0
M  V30 12755 H 1295.27 -0.133132 -3.97577 0
M  V30 12756 H 1292.01 -2.15182 -6.19174 0
M  V30 12757 H 1291.53 -0.452259 -5.98093 0
M  V30 12758 H 1293.21 -0.861011 -6.41245 0
M  V30 12759 N 1293.34 1.5542 -0.261239 0
M  V30 12760 C 1294.57 2.03391 0.362698 0
M  V30 12761 C 1294.98 1.13947 1.51039 0
M  V30 12762 O 1294.32 0.149231 1.83093 0
M  V30 12763 C 1294.38 3.47558 0.918889 0
M  V30 12764 C 1294.04 4.56894 -0.0983829 0
M  V30 12765 C 1295.04 5.1182 -0.913018 0
M  V30 12766 C 1292.73 5.01779 -0.228616 0
M  V30 12767 C 1294.72 6.10138 -1.84421 0
M  V30 12768 C 1292.41 5.99926 -1.16329 0
M  V30 12769 C 1293.41 6.53984 -1.9696 0
M  V30 12770 O 1293.09 7.50214 -2.8885 0
M  V30 12771 H 1292.83 0.670166 0.0886182 0
M  V30 12772 H 1295.38 2.01722 -0.386967 0
M  V30 12773 H 1293.61 3.46423 1.71838 0
M  V30 12774 H 1295.3 3.78947 1.45443 0
M  V30 12775 H 1296.06 4.77965 -0.823066 0
M  V30 12776 H 1291.94 4.59356 0.388945 0
M  V30 12777 H 1295.49 6.52258 -2.47397 0
M  V30 12778 H 1291.38 6.332 -1.25412 0
M  V30 12779 H 1292.15 7.67881 -2.83374 0
M  V30 12780 N 1294.82 -0.0116844 1.57596 0
M  V30 12781 C 1295.76 -1.02514 2.08791 0
M  V30 12782 C 1296.76 -1.36341 1.00536 0
M  V30 12783 O 1297.96 -1.35042 1.19011 0
M  V30 12784 H 1294.34 -0.348201 0.666528 0
M  V30 12785 H 1296.31 -0.567698 2.9295 0
M  V30 12786 C 1295.06 -2.312 2.59696 0
M  V30 12787 H 1294.38 -2.06036 3.42621 0
M  V30 12788 H 1295.82 -3.00417 2.99208 0
M  V30 12789 C 1294.28 -3.01372 1.50586 0
M  V30 12790 O 1294.81 -3.91896 0.882046 0
M  V30 12791 N 1293.02 -2.62997 1.23616 0
M  V30 12792 H 1292.56 -1.89466 1.74529 0
M  V30 12793 H 1292.52 -3.10264 0.508289 0
M  V30 12794 N 1296.29 -1.55015 -0.284256 0
M  V30 12795 C 1297.52 -1.79102 -1.03586 0
M  V30 12796 C 1297.94 -0.558733 -1.80343 0
M  V30 12797 O 1297.29 0.471925 -1.76293 0
M  V30 12798 C 1297.34 -3.00915 -2.0033 0
M  V30 12799 O 1297.07 -4.19384 -1.26685 0
M  V30 12800 C 1298.57 -3.3752 -2.87394 0
M  V30 12801 H 1295.79 -0.596912 -0.306491 0
M  V30 12802 H 1298.33 -2.02005 -0.31845 0
M  V30 12803 H 1296.49 -2.80171 -2.67549 0
M  V30 12804 H 1296.9 -4.88175 -1.91796 0
M  V30 12805 H 1298.37 -4.25953 -3.51095 0
M  V30 12806 H 1298.85 -2.56418 -3.56576 0
M  V30 12807 H 1299.46 -3.60483 -2.25682 0
M  V30 12808 N 1297.77 0.548248 -1.47757 0
M  V30 12809 C 1299.05 1.3092 -1.45325 0
M  V30 12810 C 1299.43 2.1053 -0.155008 0
M  V30 12811 O 1298.78 2.11558 0.863455 0
M  V30 12812 C 1298.99 2.20614 -2.70426 0
M  V30 12813 C 1300.33 2.81345 -3.18009 0
M  V30 12814 O 1301.36 2.30911 -2.71216 0
M  V30 12815 O 1300.22 3.73036 -3.99383 0
M  V30 12816 H 1297.31 0.58996 -0.579548 0
M  V30 12817 H 1299.86 0.56641 -1.59968 0
M  V30 12818 H 1298.63 1.61449 -3.56441 0
M  V30 12819 H 1298.25 3.02173 -2.58413 0
M  V30 12820 N 1299.25 1.36039 0.795694 0
M  V30 12821 C 1300.21 1.29709 1.88966 0
M  V30 12822 C 1301.21 0.206142 1.59473 0
M  V30 12823 O 1302.4 0.460534 1.68002 0
M  V30 12824 C 1299.53 1.00922 3.25619 0
M  V30 12825 H 1300.73 2.26993 1.95995 0
M  V30 12826 H 1298.28 1.2072 0.992791 0
M  V30 12827 H 1299.02 0.0407027 3.24274 0
M  V30 12828 H 1298.8 1.79863 3.48413 0
M  V30 12829 H 1300.29 0.990826 4.05675 0
M  V30 12830 N 1300.73 -1.01913 1.20215 0
M  V30 12831 C 1301.68 -2.12516 0.945493 0
M  V30 12832 C 1302.67 -1.69091 -0.102243 0
M  V30 12833 O 1303.88 -1.79936 0.047888 0
M  V30 12834 H 1300.25 -0.694496 0.288409 0
M  V30 12835 H 1302.22 -2.31349 1.88468 0
M  V30 12836 C 1300.97 -3.43919 0.51137 0
M  V30 12837 H 1300.29 -3.77758 1.30916 0
M  V30 12838 H 1301.73 -4.22374 0.370981 0
M  V30 12839 C 1300.19 -3.27844 -0.775902 0
M  V30 12840 O 1300.72 -3.5734 -1.83496 0
M  V30 12841 N 1298.93 -2.81101 -0.73694 0
M  V30 12842 H 1298.48 -2.57296 0.125164 0
M  V30 12843 H 1298.43 -2.70726 -1.59859 0
M  V30 12844 N 1302.21 -1.00763 -1.2118 0
M  V30 12845 C 1303.45 -0.690459 -1.8994 0
M  V30 12846 C 1303.78 0.781464 -1.78656 0
M  V30 12847 O 1303.05 1.56135 -1.18316 0
M  V30 12848 H 1301.63 -0.252397 -0.703068 0
M  V30 12849 H 1304.29 -1.2773 -1.47211 0
M  V30 12850 H 1303.38 -0.96594 -2.96776 0
M  V30 12851 N 1303.68 1.3679 -0.7827 0
M  V30 12852 C 1304.63 2.30139 -0.174595 0
M  V30 12853 C 1305.6 1.51645 0.677714 0
M  V30 12854 O 1306.79 1.80176 0.627796 0
M  V30 12855 C 1303.93 3.38133 0.689936 0
M  V30 12856 C 1303.04 4.31624 -0.180179 0
M  V30 12857 C 1302.17 5.26698 0.69009 0
M  V30 12858 C 1301.21 6.1183 -0.181891 0
M  V30 12859 N 1300.35 6.99113 0.646977 0
M  V30 12860 H 1305.19 2.81559 -0.97613 0
M  V30 12861 H 1302.73 1.38595 -0.492944 0
M  V30 12862 H 1304.69 3.99386 1.2061 0
M  V30 12863 H 1303.32 2.88049 1.45696 0
M  V30 12864 H 1302.37 3.71583 -0.81425 0
M  V30 12865 H 1303.68 4.91464 -0.852337 0
M  V30 12866 H 1302.83 5.93209 1.27232 0
M  V30 12867 H 1301.57 4.67297 1.3959 0
M  V30 12868 H 1300.58 5.44288 -0.776572 0
M  V30 12869 H 1301.8 6.73306 -0.885195 0
M  V30 12870 H 1299.75 6.42227 1.3372 0
M  V30 12871 H 1299.67 7.55993 0.0323547 0
M  V30 12872 H 1300.93 7.7 1.21325 0
M  V30 12873 N 1305.16 0.53415 1.48272 0
M  V30 12874 C 1306.11 -0.226335 2.29688 0
M  V30 12875 C 1307.08 -0.929937 1.37628 0
M  V30 12876 O 1308.26 -0.930149 1.66592 0
M  V30 12877 C 1305.4 -1.26472 3.2109 0
M  V30 12878 C 1304.52 -0.569542 4.28229 0
M  V30 12879 C 1303.65 -1.59122 5.06807 0
M  V30 12880 C 1302.69 -0.879734 6.05745 0
M  V30 12881 N 1301.83 -1.84715 6.77366 0
M  V30 12882 H 1306.67 0.474111 2.94204 0
M  V30 12883 H 1304.21 0.245643 1.45034 0
M  V30 12884 H 1306.16 -1.87911 3.72485 0
M  V30 12885 H 1304.79 -1.9335 2.58487 0
M  V30 12886 H 1303.85 0.158872 3.80068 0
M  V30 12887 H 1305.16 -0.0110904 4.98799 0
M  V30 12888 H 1304.31 -2.27977 5.62238 0
M  V30 12889 H 1303.05 -2.18357 4.36086 0
M  V30 12890 H 1302.06 -0.177134 5.49515 0
M  V30 12891 H 1303.28 -0.293439 6.78466 0
M  V30 12892 H 1301.23 -2.42851 6.09393 0
M  V30 12893 H 1301.14 -1.34025 7.44025 0
M  V30 12894 H 1302.41 -2.52756 7.37384 0
M  V30 12895 N 1306.64 -1.55279 0.269478 0
M  V30 12896 C 1307.89 -1.98649 -0.349522 0
M  V30 12897 C 1308.2 -1.16125 -1.57399 0
M  V30 12898 O 1309.41 -1.49612 -2.26558 0
M  V30 12899 C 1307.86 -3.53547 -0.673224 0
M  V30 12900 C 1307.47 -4.44841 0.531119 0
M  V30 12901 C 1309.22 -4.05519 -1.25516 0
M  V30 12902 C 1307.12 -5.91119 0.182317 0
M  V30 12903 H 1306.05 -0.74193 -0.13437 0
M  V30 12904 H 1308.7 -1.79664 0.373246 0
M  V30 12905 H 1307.09 -3.68311 -1.45474 0
M  V30 12906 H 1308.26 -4.41843 1.3081 0
M  V30 12907 H 1306.58 -4.03472 1.02952 0
M  V30 12908 H 1309.17 -5.12347 -1.52984 0
M  V30 12909 H 1309.52 -3.54215 -2.18718 0
M  V30 12910 H 1310.05 -3.94172 -0.536059 0
M  V30 12911 H 1306.79 -6.46507 1.08206 0
M  V30 12912 H 1306.31 -5.97199 -0.558008 0
M  V30 12913 H 1307.99 -6.466 -0.227484 0
M  V30 12914 N 1308.12 0.00332656 -1.576 0
M  V30 12915 C 1309.35 0.699945 -1.94701 0
M  V30 12916 C 1309.76 1.67492 -0.871312 0
M  V30 12917 O 1309.12 1.81882 0.150054 0
M  V30 12918 C 1309.17 1.43471 -3.31811 0
M  V30 12919 O 1308.89 0.498835 -4.35251 0
M  V30 12920 C 1310.39 2.22614 -3.83351 0
M  V30 12921 H 1307.61 0.195158 -0.641993 0
M  V30 12922 H 1310.16 -0.0468044 -2.04446 0
M  V30 12923 H 1308.31 2.13311 -3.23384 0
M  V30 12924 H 1308.72 1.01688 -5.14548 0
M  V30 12925 H 1310.2 2.69527 -4.81725 0
M  V30 12926 H 1310.68 3.05146 -3.15883 0
M  V30 12927 H 1311.28 1.57796 -3.94944 0
M  V30 12928 N 1309.6 1.55164 0.276031 0
M  V30 12929 C 1310.54 1.87836 1.34113 0
M  V30 12930 C 1311.51 0.729562 1.4922 0
M  V30 12931 O 1312.7 0.980549 1.63676 0
M  V30 12932 C 1309.84 2.15313 2.69693 0
M  V30 12933 C 1308.95 3.42845 2.62833 0
M  V30 12934 C 1308.09 3.60038 3.90572 0
M  V30 12935 C 1307.13 4.81273 3.7821 0
M  V30 12936 N 1306.26 4.95139 4.97777 0
M  V30 12937 H 1311.1 2.78681 1.0555 0
M  V30 12938 H 1308.64 1.37976 0.510001 0
M  V30 12939 H 1310.6 2.29243 3.48573 0
M  V30 12940 H 1309.23 1.27706 2.96464 0
M  V30 12941 H 1308.28 3.37403 1.75679 0
M  V30 12942 H 1309.59 4.3186 2.49597 0
M  V30 12943 H 1308.75 3.73769 4.77893 0
M  V30 12944 H 1307.48 2.69203 4.06671 0
M  V30 12945 H 1306.49 4.67549 2.89271 0
M  V30 12946 H 1307.71 5.7354 3.63632 0
M  V30 12947 H 1305.66 4.07234 5.14292 0
M  V30 12948 H 1305.58 5.78194 4.8706 0
M  V30 12949 H 1306.85 5.13253 5.86679 0
M  V30 12950 N 1311.07 -0.540404 1.48045 0
M  V30 12951 C 1312.32 -1.2987 1.55762 0
M  V30 12952 C 1312.65 -1.92877 0.226307 0
M  V30 12953 O 1311.93 -1.7875 -0.766727 0
M  V30 12954 C 1312.21 -2.39602 2.68817 0
M  V30 12955 C 1312.06 -1.81354 4.1162 0
M  V30 12956 C 1313.38 -3.41434 2.77688 0
M  V30 12957 H 1310.5 -0.47083 0.566999 0
M  V30 12958 H 1313.14 -0.603081 1.80175 0
M  V30 12959 H 1311.29 -2.98936 2.48132 0
M  V30 12960 H 1312.97 -1.26151 4.43716 0
M  V30 12961 H 1311.21 -1.1194 4.19108 0
M  V30 12962 H 1311.88 -2.60758 4.86528 0
M  V30 12963 H 1314.36 -2.92042 2.96396 0
M  V30 12964 H 1313.23 -4.15621 3.5854 0
M  V30 12965 H 1313.49 -4.01336 1.85422 0
M  V30 12966 N 1312.55 -1.36459 -0.788468 0
M  V30 12967 C 1313.8 -1.30935 -1.54867 0
M  V30 12968 C 1314.13 0.110916 -1.93883 0
M  V30 12969 O 1313.41 1.06452 -1.62783 0
M  V30 12970 C 1313.69 -2.23294 -2.8251 0
M  V30 12971 C 1313.54 -3.74022 -2.49856 0
M  V30 12972 C 1314.86 -2.14407 -3.84341 0
M  V30 12973 H 1311.98 -0.476958 -0.561854 0
M  V30 12974 H 1314.62 -1.67018 -0.905805 0
M  V30 12975 H 1312.77 -1.92652 -3.37369 0
M  V30 12976 H 1314.44 -4.15187 -2.01041 0
M  V30 12977 H 1312.69 -3.93411 -1.82785 0
M  V30 12978 H 1313.36 -4.34057 -3.41026 0
M  V30 12979 H 1315.83 -2.41381 -3.38932 0
M  V30 12980 H 1314.71 -2.81199 -4.71401 0
M  V30 12981 H 1314.97 -1.13166 -4.27371 0
M  V30 12982 N 1314.03 1.01274 -1.20754 0
M  V30 12983 C 1314.98 2.09894 -0.959852 0
M  V30 12984 C 1315.95 1.65726 0.111351 0
M  V30 12985 O 1317.13 1.90769 -0.0341721 0
M  V30 12986 C 1314.27 3.41126 -0.52223 0
M  V30 12987 C 1313.39 3.98749 -1.66202 0
M  V30 12988 C 1312.52 5.18057 -1.17432 0
M  V30 12989 C 1311.56 5.67772 -2.28694 0
M  V30 12990 N 1310.7 6.78338 -1.81114 0
M  V30 12991 H 1315.54 2.30416 -1.88977 0
M  V30 12992 H 1313.07 1.12989 -0.941906 0
M  V30 12993 H 1315.03 4.16451 -0.249799 0
M  V30 12994 H 1313.66 3.20665 0.370688 0
M  V30 12995 H 1312.71 3.20483 -2.04927 0
M  V30 12996 H 1314.03 4.31646 -2.49967 0
M  V30 12997 H 1313.18 6.00601 -0.858086 0
M  V30 12998 H 1311.92 4.86735 -0.306614 0
M  V30 12999 H 1310.92 4.8383 -2.61129 0
M  V30 13000 H 1312.15 6.01127 -3.15948 0
M  V30 13001 H 1310.09 6.48837 -0.966761 0
M  V30 13002 H 1310.01 7.10448 -2.58457 0
M  V30 13003 H 1311.28 7.64437 -1.52502 0
M  V30 13004 N 1315.51 1.01404 1.20644 0
M  V30 13005 C 1316.79 0.617088 1.85611 0
M  V30 13006 C 1317.17 -0.904947 1.9072 0
M  V30 13007 O 1316.51 -1.79562 1.41315 0
M  V30 13008 C 1316.72 1.26193 3.25386 0
M  V30 13009 C 1318.07 1.37575 4.01694 0
M  V30 13010 O 1319.1 1.21795 3.34731 0
M  V30 13011 O 1317.96 1.6305 5.2161 0
M  V30 13012 H 1315.05 0.212579 0.799211 0
M  V30 13013 H 1317.6 1.11126 1.28254 0
M  V30 13014 H 1316.37 2.30206 3.16419 0
M  V30 13015 H 1315.99 0.754679 3.90372 0
M  V30 13016 N 1316.99 -1.36373 0.789944 0
M  V30 13017 C 1318.24 -1.98834 0.361866 0
M  V30 13018 C 1318.56 -1.63006 -1.07024 0
M  V30 13019 O 1317.83 -0.904312 -1.73779 0
M  V30 13020 H 1316.41 -0.735457 0.130812 0
M  V30 13021 H 1319.07 -1.66561 1.0121 0
M  V30 13022 H 1318.16 -3.08778 0.454122 0
M  V30 13023 N 1318.47 -0.542005 -1.47987 0
M  V30 13024 C 1319.4 0.25143 -2.27817 0
M  V30 13025 C 1320.41 0.893436 -1.36094 0
M  V30 13026 O 1321.6 0.769849 -1.61045 0
M  V30 13027 C 1318.7 1.37236 -3.0987 0
M  V30 13028 C 1317.87 0.830021 -4.29452 0
M  V30 13029 C 1316.93 1.83356 -4.93221 0
M  V30 13030 O 1315.96 1.38571 -5.52075 0
M  V30 13031 N 1317.16 3.16631 -4.86544 0
M  V30 13032 H 1319.92 -0.433281 -2.96551 0
M  V30 13033 H 1317.49 -0.377099 -1.57447 0
M  V30 13034 H 1319.48 2.04212 -3.49399 0
M  V30 13035 H 1318.05 1.96055 -2.43478 0
M  V30 13036 H 1317.27 -0.0160827 -3.94197 0
M  V30 13037 H 1318.56 0.446762 -5.06835 0
M  V30 13038 H 1317.95 3.55673 -4.39901 0
M  V30 13039 H 1316.51 3.79207 -5.30137 0
M  V30 13040 N 1319.94 1.55134 -0.277709 0
M  V30 13041 C 1321.17 2.04061 0.341601 0
M  V30 13042 C 1321.59 1.15597 1.49274 0
M  V30 13043 O 1320.94 0.176625 1.81643 0
M  V30 13044 C 1320.99 3.52074 0.820139 0
M  V30 13045 O 1320.72 4.37171 -0.28516 0
M  V30 13046 C 1322.22 4.16899 1.507 0
M  V30 13047 H 1319.44 0.666501 0.0775708 0
M  V30 13048 H 1321.98 2.00336 -0.410559 0
M  V30 13049 H 1320.14 3.56233 1.52238 0
M  V30 13050 H 1320.55 5.24434 0.0832022 0
M  V30 13051 H 1322.02 5.22061 1.79323 0
M  V30 13052 H 1322.5 3.65227 2.43939 0
M  V30 13053 H 1323.11 4.16749 0.848541 0
M  V30 13054 N 1321.42 0.00503138 1.57599 0
M  V30 13055 C 1322.37 -0.984754 2.08737 0
M  V30 13056 C 1323.34 -1.33822 0.983915 0
M  V30 13057 O 1324.52 -1.43572 1.25665 0
M  V30 13058 C 1321.66 -2.26984 2.59946 0
M  V30 13059 C 1320.78 -1.97496 3.84212 0
M  V30 13060 C 1319.91 -3.20123 4.23904 0
M  V30 13061 C 1318.95 -2.86344 5.40993 0
M  V30 13062 N 1318.09 -4.01524 5.75954 0
M  V30 13063 H 1322.93 -0.541737 2.93034 0
M  V30 13064 H 1320.46 -0.255834 1.44858 0
M  V30 13065 H 1322.42 -3.02117 2.87717 0
M  V30 13066 H 1321.05 -2.68946 1.78516 0
M  V30 13067 H 1320.1 -1.12709 3.63319 0
M  V30 13068 H 1321.42 -1.68602 4.69441 0
M  V30 13069 H 1320.57 -4.03598 4.52983 0
M  V30 13070 H 1319.31 -3.5216 3.37394 0
M  V30 13071 H 1318.31 -2.01278 5.11632 0
M  V30 13072 H 1319.54 -2.5555 6.29183 0
M  V30 13073 H 1317.49 -4.33447 4.92402 0
M  V30 13074 H 1317.4 -3.76171 6.55768 0
M  V30 13075 H 1318.67 -4.85772 6.09628 0
M  V30 13076 N 1322.9 -1.55308 -0.267798 0
M  V30 13077 C 1324.15 -1.77342 -0.99606 0
M  V30 13078 C 1324.5 -0.570502 -1.83747 0
M  V30 13079 O 1323.79 0.436721 -1.86556 0
M  V30 13080 C 1323.99 -3.02286 -1.90678 0
M  V30 13081 C 1323.82 -4.34614 -1.15501 0
M  V30 13082 C 1322.59 -4.97779 -0.868576 0
M  V30 13083 C 1324.78 -5.11427 -0.542865 0
M  V30 13084 N 1322.77 -6.13833 -0.0905541 0
M  V30 13085 C 1324.14 -6.19918 0.100738 0
M  V30 13086 C 1326.19 -4.95851 -0.45123 0
M  V30 13087 C 1324.9 -7.14528 0.827151 0
M  V30 13088 C 1326.92 -5.90821 0.261602 0
M  V30 13089 C 1326.28 -6.98705 0.893924 0
M  V30 13090 H 1322.38 -0.701146 -0.346292 0
M  V30 13091 H 1324.97 -1.92802 -0.271211 0
M  V30 13092 H 1323.14 -2.88192 -2.60384 0
M  V30 13093 H 1324.87 -3.12702 -2.56904 0
M  V30 13094 H 1321.62 -4.58789 -1.17515 0
M  V30 13095 H 1322.05 -6.76396 0.28594 0
M  V30 13096 H 1326.69 -4.1254 -0.925774 0
M  V30 13097 H 1324.41 -7.97356 1.31336 0
M  V30 13098 H 1327.99 -5.80847 0.332892 0
M  V30 13099 H 1326.87 -7.70927 1.43672 0
M  V30 13100 N 1324.38 0.532545 -1.4833 0
M  V30 13101 C 1325.61 1.31141 -1.59642 0
M  V30 13102 C 1326.02 1.87476 -0.254835 0
M  V30 13103 O 1325.36 1.66985 0.765622 0
M  V30 13104 C 1325.42 2.50182 -2.58165 0
M  V30 13105 C 1325.08 2.14953 -4.03292 0
M  V30 13106 C 1326.08 1.70777 -4.91051 0
M  V30 13107 C 1323.77 2.25555 -4.4881 0
M  V30 13108 C 1325.76 1.37665 -6.22356 0
M  V30 13109 C 1323.45 1.92055 -5.80136 0
M  V30 13110 C 1324.45 1.48181 -6.66732 0
M  V30 13111 O 1324.13 1.15119 -7.95615 0
M  V30 13112 H 1323.87 0.405164 -0.541127 0
M  V30 13113 H 1326.42 0.649423 -1.94863 0
M  V30 13114 H 1324.65 3.19353 -2.1806 0
M  V30 13115 H 1326.34 3.12246 -2.5934 0
M  V30 13116 H 1327.1 1.62059 -4.57124 0
M  V30 13117 H 1322.98 2.5866 -3.81597 0
M  V30 13118 H 1326.53 1.03348 -6.89902 0
M  V30 13119 H 1322.42 2.00413 -6.136 0
M  V30 13120 H 1323.19 1.28539 -8.08344 0
M  V30 13121 N 1325.86 1.36875 0.78122 0
M  V30 13122 C 1326.77 1.3404 1.92537 0
M  V30 13123 C 1327.78 0.241354 1.72318 0
M  V30 13124 O 1328.96 0.475128 1.95715 0
M  V30 13125 C 1326.02 1.13708 3.27523 0
M  V30 13126 C 1325.08 2.33165 3.60462 0
M  V30 13127 C 1324.32 2.13793 4.89007 0
M  V30 13128 O 1324.54 1.11732 5.5935 0
M  V30 13129 O 1323.47 3.01762 5.20791 0
M  V30 13130 H 1327.3 2.30386 1.97879 0
M  V30 13131 H 1324.88 1.17506 0.922637 0
M  V30 13132 H 1326.77 1.0432 4.08283 0
M  V30 13133 H 1325.44 0.204306 3.23055 0
M  V30 13134 H 1324.35 2.48123 2.79974 0
M  V30 13135 H 1325.68 3.24977 3.69663 0
M  V30 13136 N 1327.33 -1.00632 1.21289 0
M  V30 13137 C 1328.26 -2.11238 0.995021 0
M  V30 13138 C 1329.24 -1.69914 -0.0795537 0
M  V30 13139 O 1330.43 -1.94035 0.0800152 0
M  V30 13140 C 1327.56 -3.42797 0.557475 0
M  V30 13141 C 1326.51 -3.97909 1.57646 0
M  V30 13142 C 1325.84 -5.25357 0.995197 0
M  V30 13143 C 1327.14 -4.30123 2.96297 0
M  V30 13144 H 1328.83 -2.29722 1.9201 0
M  V30 13145 H 1326.38 -1.10395 0.924602 0
M  V30 13146 H 1328.33 -4.19571 0.392236 0
M  V30 13147 H 1327.06 -3.24101 -0.403253 0
M  V30 13148 H 1325.72 -3.23254 1.72924 0
M  V30 13149 H 1325.36 -5.02993 0.026227 0
M  V30 13150 H 1325.06 -5.63196 1.67583 0
M  V30 13151 H 1326.59 -6.04777 0.841251 0
M  V30 13152 H 1328 -4.97744 2.8447 0
M  V30 13153 H 1326.4 -4.79101 3.61361 0
M  V30 13154 H 1327.47 -3.38454 3.47242 0
M  V30 13155 N 1328.81 -1.02043 -1.20104 0
M  V30 13156 C 1329.76 -0.587332 -2.25063 0
M  V30 13157 C 1330.75 0.375844 -1.65178 0
M  V30 13158 O 1331.96 0.245347 -1.7832 0
M  V30 13159 H 1328.33 -0.171637 -0.732151 0
M  V30 13160 H 1330.31 -1.48339 -2.58917 0
M  V30 13161 C 1329.05 0.0546893 -3.47657 0
M  V30 13162 H 1328.38 -0.677457 -3.94018 0
M  V30 13163 H 1329.82 0.320786 -4.22785 0
M  V30 13164 C 1328.28 1.29869 -3.10863 0
M  V30 13165 O 1328.81 2.39161 -3.22746 0
M  V30 13166 N 1327.01 1.18423 -2.65376 0
M  V30 13167 H 1326.56 0.294895 -2.55906 0
M  V30 13168 H 1326.52 2.01755 -2.41128 0
M  V30 13169 N 1330.29 1.35952 -0.797165 0
M  V30 13170 C 1331.25 2.28266 -0.206748 0
M  V30 13171 C 1332.25 1.49169 0.60043 0
M  V30 13172 O 1333.44 1.69054 0.42029 0
M  V30 13173 C 1330.58 3.33363 0.712884 0
M  V30 13174 H 1331.77 2.81992 -1.02082 0
M  V30 13175 H 1329.32 1.45648 -0.567138 0
M  V30 13176 H 1330.06 2.84806 1.551 0
M  V30 13177 H 1329.84 3.91864 0.135926 0
M  V30 13178 H 1331.33 4.02284 1.1206 0
M  V30 13179 N 1331.77 0.549846 1.47697 0
M  V30 13180 C 1333.05 -0.0422793 1.95554 0
M  V30 13181 C 1333.43 -1.49303 1.49238 0
M  V30 13182 O 1332.77 -2.16598 0.727844 0
M  V30 13183 C 1332.98 0.0955552 3.48869 0
M  V30 13184 C 1334.33 -0.0535698 4.24566 0
M  V30 13185 O 1335.36 0.0227365 3.56193 0
M  V30 13186 O 1334.21 -0.21645 5.46071 0
M  V30 13187 H 1331.31 -0.0682465 0.824179 0
M  V30 13188 H 1333.85 0.615849 1.58131 0
M  V30 13189 H 1332.63 1.10536 3.75363 0
M  V30 13190 H 1332.25 -0.600522 3.93039 0
M  V30 13191 N 1333.25 -1.54984 0.285932 0
M  V30 13192 C 1334.49 -1.99436 -0.32709 0
M  V30 13193 C 1334.82 -1.17582 -1.55562 0
M  V30 13194 O 1334.09 -0.268002 -1.94058 0
M  V30 13195 H 1332.67 -0.736662 -0.123846 0
M  V30 13196 H 1335.33 -1.90881 0.393774 0
M  V30 13197 H 1334.42 -3.0609 -0.609523 0
M  V30 13198 N 1334.72 -0.0133892 -1.57594 0
M  V30 13199 C 1335.95 0.679255 -1.95432 0
M  V30 13200 C 1336.37 1.66558 -0.889028 0
M  V30 13201 O 1335.72 1.82031 0.130755 0
M  V30 13202 C 1335.78 1.39943 -3.33314 0
M  V30 13203 O 1335.5 0.452643 -4.35755 0
M  V30 13204 C 1337 2.18535 -3.85691 0
M  V30 13205 H 1334.22 0.188337 -0.644026 0
M  V30 13206 H 1336.76 -0.0684861 -2.04385 0
M  V30 13207 H 1334.92 2.0987 -3.25628 0
M  V30 13208 H 1335.33 0.962243 -5.15598 0
M  V30 13209 H 1336.8 2.64403 -4.84557 0
M  V30 13210 H 1337.28 3.01779 -3.19102 0
M  V30 13211 H 1337.89 1.53598 -3.96595 0
M  V30 13212 N 1336.2 1.55448 0.259558 0
M  V30 13213 C 1337.17 1.88459 1.30445 0
M  V30 13214 C 1338.17 0.760096 1.41701 0
M  V30 13215 O 1339.36 1.02819 1.4062 0
M  V30 13216 C 1336.49 2.10181 2.68397 0
M  V30 13217 H 1337.68 2.81877 1.02398 0
M  V30 13218 H 1335.23 1.48145 0.498262 0
M  V30 13219 H 1335.97 1.19189 3.01603 0
M  V30 13220 H 1335.75 2.92066 2.6161 0
M  V30 13221 H 1337.24 2.36947 3.43869 0
M  V30 13222 N 1337.68 -0.524672 1.4861 0
M  V30 13223 C 1338.96 -1.28592 1.47389 0
M  V30 13224 C 1339.34 -2.10257 0.188482 0
M  V30 13225 O 1338.69 -2.12905 -0.829689 0
M  V30 13226 C 1338.9 -2.16284 2.73902 0
M  V30 13227 C 1340.24 -2.7625 3.22445 0
M  V30 13228 O 1341.27 -2.26567 2.74856 0
M  V30 13229 O 1340.13 -3.66635 4.05267 0
M  V30 13230 H 1337.22 -0.580666 0.58886 0
M  V30 13231 H 1339.77 -0.540888 1.60849 0
M  V30 13232 H 1338.54 -1.55757 3.58964 0
M  V30 13233 H 1338.16 -2.98024 2.63188 0
M  V30 13234 N 1339.16 -1.37287 -0.77395 0
M  V30 13235 C 1340.09 -1.27239 -1.89435 0
M  V30 13236 C 1341.07 -0.153365 -1.61875 0
M  V30 13237 O 1342.25 -0.327193 -1.85639 0
M  V30 13238 C 1339.38 -0.966771 -3.24609 0
M  V30 13239 C 1338.43 -2.10237 -3.71083 0
M  V30 13240 S 1339.26 -3.72188 -3.85014 0
M  V30 13241 C 1340.42 -3.43773 -5.2304 0
M  V30 13242 H 1340.65 -2.22068 -1.97669 0
M  V30 13243 H 1338.18 -1.22884 -0.93482 0
M  V30 13244 H 1340.14 -0.797268 -4.02683 0
M  V30 13245 H 1338.8 -0.0359985 -3.14079 0
M  V30 13246 H 1337.99 -1.84349 -4.69075 0
M  V30 13247 H 1337.6 -2.23189 -3.00104 0
M  V30 13248 H 1339.89 -2.98625 -6.08136 0
M  V30 13249 H 1340.83 -4.41085 -5.5394 0
M  V30 13250 H 1341.24 -2.78753 -4.90873 0
M  V30 13251 N 1340.64 0.999871 -1.21821 0
M  V30 13252 C 1341.86 1.77405 -1.06467 0
M  V30 13253 C 1342.28 1.84828 0.385227 0
M  V30 13254 O 1341.64 1.31338 1.26714 0
M  V30 13255 C 1341.69 3.21062 -1.66137 0
M  V30 13256 O 1341.41 3.14054 -3.05454 0
M  V30 13257 C 1342.91 4.14958 -1.55963 0
M  V30 13258 H 1340.13 0.557368 -0.373607 0
M  V30 13259 H 1342.67 1.2575 -1.61267 0
M  V30 13260 H 1340.83 3.69808 -1.15416 0
M  V30 13261 H 1341.24 4.04346 -3.34073 0
M  V30 13262 H 1342.72 5.13536 -2.02448 0
M  V30 13263 H 1343.19 4.36171 -0.514949 0
M  V30 13264 H 1343.8 3.72105 -2.05956 0
M  V30 13265 N 1342.11 1.02678 1.19562 0
M  V30 13266 C 1343.06 0.605764 2.22709 0
M  V30 13267 C 1344.03 -0.37936 1.6171 0
M  V30 13268 O 1345.22 -0.276496 1.88786 0
M  V30 13269 C 1342.36 -0.0394312 3.45077 0
M  V30 13270 C 1341.47 0.991481 4.20468 0
M  V30 13271 C 1340.6 0.316269 5.30258 0
M  V30 13272 C 1339.64 1.33324 5.97404 0
M  V30 13273 N 1338.78 0.683979 6.9876 0
M  V30 13274 H 1343.62 1.48994 2.58079 0
M  V30 13275 H 1341.16 0.745636 1.26802 0
M  V30 13276 H 1343.12 -0.430726 4.14971 0
M  V30 13277 H 1341.75 -0.887193 3.10369 0
M  V30 13278 H 1340.8 1.50085 3.49541 0
M  V30 13279 H 1342.11 1.76449 4.66548 0
M  V30 13280 H 1341.26 -0.129983 6.06561 0
M  V30 13281 H 1340 -0.488956 4.85243 0
M  V30 13282 H 1339.01 1.78977 5.19853 0
M  V30 13283 H 1340.23 2.13992 6.44503 0
M  V30 13284 H 1338.18 -0.101192 6.55922 0
M  V30 13285 H 1338.1 1.3949 7.4302 0
M  V30 13286 H 1339.36 0.261658 7.79061 0
M  V30 13287 N 1343.59 -1.35528 0.804364 0
M  V30 13288 C 1344.5 -2.33616 0.214663 0
M  V30 13289 C 1345.52 -1.61757 -0.64115 0
M  V30 13290 O 1346.69 -1.93647 -0.553424 0
M  V30 13291 C 1343.76 -3.40951 -0.628778 0
M  V30 13292 C 1342.82 -4.28587 0.247269 0
M  V30 13293 C 1342.05 -5.30796 -0.556012 0
M  V30 13294 O 1342.28 -5.41557 -1.79088 0
M  V30 13295 O 1341.21 -6.01878 0.0519437 0
M  V30 13296 H 1345.04 -2.85843 1.02605 0
M  V30 13297 H 1342.62 -1.38259 0.566108 0
M  V30 13298 H 1344.5 -4.06538 -1.10926 0
M  V30 13299 H 1343.18 -2.90999 -1.4178 0
M  V30 13300 H 1342.09 -3.65988 0.774835 0
M  V30 13301 H 1343.42 -4.81931 1.00017 0
M  V30 13302 N 1345.07 -0.557671 -1.47404 0
M  V30 13303 C 1346.32 -0.0338384 -2.02772 0
M  V30 13304 C 1346.65 1.31278 -1.43107 0
M  V30 13305 O 1345.93 1.85436 -0.58682 0
M  V30 13306 C 1346.21 0.0587427 -3.60052 0
M  V30 13307 C 1346.06 -1.315 -4.30148 0
M  V30 13308 C 1347.38 0.771942 -4.33277 0
M  V30 13309 H 1344.5 -0.0137711 -0.736871 0
M  V30 13310 H 1347.14 -0.720049 -1.75827 0
M  V30 13311 H 1345.29 0.643154 -3.83139 0
M  V30 13312 H 1346.96 -1.94265 -4.184 0
M  V30 13313 H 1345.21 -1.88956 -3.90484 0
M  V30 13314 H 1345.88 -1.20294 -5.38733 0
M  V30 13315 H 1348.35 0.275729 -4.15185 0
M  V30 13316 H 1347.23 0.805683 -5.42955 0
M  V30 13317 H 1347.49 1.82816 -4.0253 0
M  V30 13318 N 1346.55 1.54831 -0.294147 0
M  V30 13319 C 1347.78 2.04411 0.319938 0
M  V30 13320 C 1348.19 1.17174 1.4804 0
M  V30 13321 O 1347.55 0.195881 1.81446 0
M  V30 13322 C 1347.6 3.52924 0.782751 0
M  V30 13323 O 1347.32 4.36844 -0.331512 0
M  V30 13324 C 1348.82 4.18474 1.4627 0
M  V30 13325 H 1346.04 0.667286 0.0704973 0
M  V30 13326 H 1348.59 1.9989 -0.431785 0
M  V30 13327 H 1346.74 3.57828 1.48451 0
M  V30 13328 H 1347.16 5.24493 0.0275743 0
M  V30 13329 H 1348.63 5.23933 1.73776 0
M  V30 13330 H 1349.11 3.67793 2.40052 0
M  V30 13331 H 1349.71 4.17626 0.804291 0
M  V30 13332 N 1348.03 0.0217466 1.57585 0
M  V30 13333 C 1348.96 -0.961069 2.12804 0
M  V30 13334 C 1349.94 -1.3442 1.04237 0
M  V30 13335 O 1351.12 -1.42412 1.32032 0
M  V30 13336 C 1348.25 -2.24586 2.64912 0
M  V30 13337 C 1347.21 -2.0037 3.78201 0
M  V30 13338 C 1346.53 -3.35051 4.16708 0
M  V30 13339 C 1347.83 -1.34879 5.04584 0
M  V30 13340 H 1349.53 -0.501222 2.95175 0
M  V30 13341 H 1347.07 -0.239649 1.41992 0
M  V30 13342 H 1349.03 -2.93715 3.02175 0
M  V30 13343 H 1347.75 -2.72723 1.79693 0
M  V30 13344 H 1346.41 -1.33662 3.41365 0
M  V30 13345 H 1346.06 -3.80932 3.28481 0
M  V30 13346 H 1345.76 -3.19656 4.93045 0
M  V30 13347 H 1347.28 -4.05459 4.56547 0
M  V30 13348 H 1348.7 -1.93997 5.3948 0
M  V30 13349 H 1347.09 -1.29906 5.85871 0
M  V30 13350 H 1348.16 -0.320774 4.83838 0
M  V30 13351 N 1349.51 -1.55583 -0.251311 0
M  V30 13352 C 1350.75 -1.76859 -0.978031 0
M  V30 13353 C 1351.07 -0.584924 -1.86021 0
M  V30 13354 O 1350.34 0.399456 -1.91784 0
M  V30 13355 H 1348.92 -0.652252 -0.364111 0
M  V30 13356 H 1351.59 -1.93016 -0.270319 0
M  V30 13357 H 1350.68 -2.67828 -1.60233 0
M  V30 13358 N 1350.98 0.516783 -1.48886 0
M  V30 13359 C 1351.93 1.64093 -1.64853 0
M  V30 13360 C 1352.93 1.61392 -0.514685 0
M  V30 13361 O 1354.13 1.6609 -0.693831 0
M  V30 13362 H 1350.51 0.543672 -0.519543 0
M  V30 13363 H 1352.48 1.47774 -2.5924 0
M  V30 13364 C 1351.23 3.02308 -1.71771 0
M  V30 13365 H 1350.55 3.05085 -2.58385 0
M  V30 13366 H 1351.99 3.80544 -1.86982 0
M  V30 13367 C 1350.45 3.33757 -0.459136 0
M  V30 13368 O 1350.98 3.99475 0.422177 0
M  V30 13369 N 1349.18 2.88756 -0.326837 0
M  V30 13370 H 1348.73 2.35452 -1.045 0
M  V30 13371 H 1348.69 3.10166 0.514213 0
M  V30 13372 N 1352.46 1.37696 0.766659 0
M  V30 13373 C 1353.71 1.33382 1.52765 0
M  V30 13374 C 1354.04 -0.0800569 1.94035 0
M  V30 13375 O 1353.32 -1.03848 1.64456 0
M  V30 13376 C 1353.6 2.2776 2.78922 0
M  V30 13377 C 1353.45 3.77949 2.43874 0
M  V30 13378 C 1354.77 2.20494 3.80881 0
M  V30 13379 H 1351.89 0.485836 0.554195 0
M  V30 13380 H 1354.53 1.68438 0.879119 0
M  V30 13381 H 1352.68 1.97994 3.34261 0
M  V30 13382 H 1354.35 4.18333 1.9441 0
M  V30 13383 H 1352.6 3.96269 1.76503 0
M  V30 13384 H 1353.27 4.39428 3.34077 0
M  V30 13385 H 1355.74 2.46742 3.35048 0
M  V30 13386 H 1354.62 2.88663 4.66867 0
M  V30 13387 H 1354.88 1.19951 4.25516 0
M  V30 13388 N 1353.94 -0.993397 1.22349 0
M  V30 13389 C 1355.22 -1.7063 0.956275 0
M  V30 13390 C 1355.6 -2.0437 -0.52877 0
M  V30 13391 O 1354.94 -1.72662 -1.49667 0
M  V30 13392 C 1355.15 -2.95725 1.85331 0
M  V30 13393 C 1356.5 -3.68514 2.10909 0
M  V30 13394 O 1357.53 -3.05732 1.82775 0
M  V30 13395 O 1356.39 -4.81468 2.58556 0
M  V30 13396 H 1353.48 -0.744734 0.359583 0
M  V30 13397 H 1356.03 -1.04979 1.33333 0
M  V30 13398 H 1354.8 -2.6729 2.85782 0
M  V30 13399 H 1354.42 -3.69116 1.47781 0
M  V30 13400 N 1355.42 -1.03311 -1.19015 0
M  V30 13401 C 1356.64 -0.751686 -1.93299 0
M  V30 13402 C 1357.07 0.68392 -1.75226 0
M  V30 13403 O 1356.43 1.47274 -1.05736 0
M  V30 13404 C 1356.47 -1.11335 -3.42982 0
M  V30 13405 O 1355.58 -0.234434 -4.11733 0
M  V30 13406 H 1354.92 -0.277331 -0.60331 0
M  V30 13407 H 1357.45 -1.38092 -1.5097 0
M  V30 13408 H 1357.46 -1.07204 -3.93664 0
M  V30 13409 H 1356.13 -2.15922 -3.55458 0
M  V30 13410 H 1354.71 -0.3347 -3.71395 0
M  V30 13411 N 1356.9 1.35099 -0.81154 0
M  V30 13412 C 1358.17 1.93009 -0.317289 0
M  V30 13413 C 1358.55 1.74101 1.19382 0
M  V30 13414 O 1357.9 1.11295 1.99564 0
M  V30 13415 C 1358.11 3.41191 -0.734123 0
M  V30 13416 C 1359.46 4.1834 -0.726437 0
M  V30 13417 O 1360.48 3.49727 -0.67598 0
M  V30 13418 O 1359.34 5.4077 -0.789291 0
M  V30 13419 H 1356.44 0.822707 -0.084153 0
M  V30 13420 H 1358.98 1.44145 -0.895569 0
M  V30 13421 H 1357.75 3.48705 -1.7754 0
M  V30 13422 H 1357.38 3.97384 -0.130919 0
M  V30 13423 N 1358.37 0.56548 1.47106 0
M  V30 13424 C 1359.62 0.0444375 2.02051 0
M  V30 13425 C 1359.94 -1.31344 1.44131 0
M  V30 13426 O 1359.21 -1.85845 0.619556 0
M  V30 13427 H 1357.79 0.0134375 0.746879 0
M  V30 13428 H 1360.45 0.737362 1.80413 0
M  V30 13429 H 1359.55 -0.0374834 3.12077 0
M  V30 13430 N 1359.85 -1.54672 0.302354 0
M  V30 13431 C 1360.8 -2.2357 -0.573141 0
M  V30 13432 C 1361.77 -1.21878 -1.12849 0
M  V30 13433 O 1362.95 -1.50502 -1.17277 0
M  V30 13434 C 1360.09 -2.98111 -1.7385 0
M  V30 13435 C 1359.21 -4.14579 -1.21441 0
M  V30 13436 C 1358.34 -4.76699 -2.34374 0
M  V30 13437 C 1357.38 -5.8531 -1.79106 0
M  V30 13438 N 1356.52 -6.41379 -2.85618 0
M  V30 13439 H 1361.36 -2.97993 0.0209969 0
M  V30 13440 H 1358.9 -1.47083 0.0221318 0
M  V30 13441 H 1360.85 -3.39561 -2.42392 0
M  V30 13442 H 1359.48 -2.26063 -2.30425 0
M  V30 13443 H 1358.54 -3.78061 -0.421204 0
M  V30 13444 H 1359.85 -4.92824 -0.769821 0
M  V30 13445 H 1359 -5.21009 -3.10861 0
M  V30 13446 H 1357.74 -3.9779 -2.8216 0
M  V30 13447 H 1356.75 -5.40423 -1.01109 0
M  V30 13448 H 1357.97 -6.66104 -1.32222 0
M  V30 13449 H 1355.92 -5.65352 -3.32735 0
M  V30 13450 H 1355.83 -7.14974 -2.45659 0
M  V30 13451 H 1357.1 -6.90346 -3.61998 0
M  V30 13452 N 1361.33 -0.0301034 -1.57571 0
M  V30 13453 C 1362.28 0.951421 -2.10277 0
M  V30 13454 C 1363.25 1.3224 -1.00508 0
M  V30 13455 O 1364.43 1.41554 -1.27934 0
M  V30 13456 C 1361.57 2.2282 -2.63525 0
M  V30 13457 C 1360.69 1.91359 -3.87306 0
M  V30 13458 C 1359.82 3.13339 -4.28943 0
M  V30 13459 C 1358.86 2.77701 -5.4548 0
M  V30 13460 N 1358 3.9231 -5.82269 0
M  V30 13461 H 1362.84 0.495049 -2.93859 0
M  V30 13462 H 1360.37 0.232756 -1.45247 0
M  V30 13463 H 1362.33 2.97502 -2.92487 0
M  V30 13464 H 1360.96 2.66072 -1.82772 0
M  V30 13465 H 1360.01 1.06915 -3.65066 0
M  V30 13466 H 1361.33 1.61112 -4.72064 0
M  V30 13467 H 1360.48 3.9634 -4.59347 0
M  V30 13468 H 1359.22 3.46747 -3.42954 0
M  V30 13469 H 1358.22 1.93113 -5.14769 0
M  V30 13470 H 1359.45 2.45508 -6.33169 0
M  V30 13471 H 1357.39 4.25559 -4.99235 0
M  V30 13472 H 1357.31 3.65691 -6.61669 0
M  V30 13473 H 1358.58 4.76012 -6.17279 0
M  V30 13474 N 1362.81 1.55714 0.243056 0
M  V30 13475 C 1364.05 1.77989 0.971993 0
M  V30 13476 C 1364.39 0.596038 1.84827 0
M  V30 13477 O 1363.66 -0.40554 1.90225 0
M  V30 13478 C 1363.95 3.10178 1.82925 0
M  V30 13479 C 1363.8 4.38974 0.9809 0
M  V30 13480 C 1365.12 3.38628 2.81103 0
M  V30 13481 H 1362.24 0.64754 0.35194 0
M  V30 13482 H 1364.88 1.88449 0.242237 0
M  V30 13483 H 1363.03 3.01392 2.45143 0
M  V30 13484 H 1364.7 4.59756 0.377113 0
M  V30 13485 H 1362.94 4.3286 0.285414 0
M  V30 13486 H 1363.61 5.27858 1.61461 0
M  V30 13487 H 1366.09 3.47403 2.29021 0
M  V30 13488 H 1364.97 4.32331 3.38203 0
M  V30 13489 H 1365.23 2.5973 3.57761 0
M  V30 13490 N 1364.29 -0.50888 1.49158 0
M  V30 13491 C 1365.53 -1.26537 1.58481 0
M  V30 13492 C 1365.87 -1.92353 0.267168 0
M  V30 13493 O 1365.14 -1.80336 -0.728639 0
M  V30 13494 C 1365.42 -2.33846 2.73839 0
M  V30 13495 C 1365.28 -1.72582 4.15374 0
M  V30 13496 C 1366.6 -3.35467 2.84868 0
M  V30 13497 H 1363.71 -0.458697 0.576859 0
M  V30 13498 H 1366.36 -0.564728 1.81413 0
M  V30 13499 H 1364.51 -2.93605 2.54417 0
M  V30 13500 H 1366.18 -1.16711 4.46292 0
M  V30 13501 H 1364.42 -1.03025 4.21389 0
M  V30 13502 H 1365.09 -2.5038 4.91949 0
M  V30 13503 H 1367.57 -2.85689 3.02524 0
M  V30 13504 H 1366.44 -4.07922 3.67275 0
M  V30 13505 H 1366.71 -3.97313 1.93894 0
M  V30 13506 N 1365.76 -1.381 -0.759346 0
M  V30 13507 C 1366.71 -1.34866 -1.87296 0
M  V30 13508 C 1367.68 -0.212139 -1.6474 0
M  V30 13509 O 1368.87 -0.403464 -1.86485 0
M  V30 13510 C 1366.01 -1.17383 -3.24523 0
M  V30 13511 C 1365.12 -2.40372 -3.5895 0
M  V30 13512 C 1364.25 -2.15665 -4.8545 0
M  V30 13513 C 1363.29 -3.34455 -5.12646 0
M  V30 13514 N 1362.43 -3.0922 -6.30339 0
M  V30 13515 H 1367.27 -2.30072 -1.89396 0
M  V30 13516 H 1364.81 -1.14314 -0.925788 0
M  V30 13517 H 1366.77 -1.05264 -4.03702 0
M  V30 13518 H 1365.4 -0.258182 -3.21766 0
M  V30 13519 H 1364.45 -2.63185 -2.74659 0
M  V30 13520 H 1365.76 -3.28926 -3.74978 0
M  V30 13521 H 1364.91 -2.00649 -5.7256 0
M  V30 13522 H 1363.65 -1.24467 -4.7155 0
M  V30 13523 H 1362.66 -3.49997 -4.24007 0
M  V30 13524 H 1363.88 -4.26521 -5.28448 0
M  V30 13525 H 1361.83 -2.20664 -6.17773 0
M  V30 13526 H 1361.75 -3.91321 -6.46841 0
M  V30 13527 H 1363.01 -2.97847 -7.20352 0
M  V30 13528 N 1367.24 0.986894 -1.22875 0
M  V30 13529 C 1368.52 1.70121 -0.965311 0
M  V30 13530 C 1368.9 2.04648 0.517924 0
M  V30 13531 O 1368.25 1.73453 1.48749 0
M  V30 13532 C 1368.46 2.94738 -1.86897 0
M  V30 13533 C 1369.81 3.6739 -2.12861 0
M  V30 13534 O 1370.83 3.04758 -1.84394 0
M  V30 13535 O 1369.69 4.8009 -2.61106 0
M  V30 13536 H 1366.78 0.742817 -0.363527 0
M  V30 13537 H 1369.33 1.0427 -1.33887 0
M  V30 13538 H 1368.1 2.65771 -2.87196 0
M  V30 13539 H 1367.72 3.68327 -1.49736 0
M  V30 13540 N 1368.72 1.0394 1.18466 0
M  V30 13541 C 1369.67 0.623063 2.241 0
M  V30 13542 C 1370.66 -0.349518 1.65755 0
M  V30 13543 O 1371.87 -0.216947 1.78688 0
M  V30 13544 H 1368.24 0.183263 0.729327 0
M  V30 13545 H 1370.21 1.52439 2.56524 0
M  V30 13546 C 1368.96 0.000626805 3.477 0
M  V30 13547 H 1368.29 0.740056 3.92891 0
M  V30 13548 H 1369.73 -0.253484 4.23242 0
M  V30 13549 C 1368.19 -1.24907 3.1289 0
M  V30 13550 O 1368.72 -2.33996 3.2651 0
M  V30 13551 N 1366.92 -1.14187 2.67226 0
M  V30 13552 H 1366.47 -0.254146 2.56343 0
M  V30 13553 H 1366.43 -1.97893 2.44307 0
M  V30 13554 N 1370.2 -1.34667 0.818693 0
M  V30 13555 C 1371.48 -1.92838 0.327521 0
M  V30 13556 C 1371.86 -1.74732 -1.18457 0
M  V30 13557 O 1371.2 -1.12352 -1.98971 0
M  V30 13558 C 1371.41 -3.40797 0.752207 0
M  V30 13559 C 1372.76 -4.17948 0.748613 0
M  V30 13560 O 1373.79 -3.49364 0.694517 0
M  V30 13561 O 1372.64 -5.40344 0.817958 0
M  V30 13562 H 1369.74 -0.822249 0.0885148 0
M  V30 13563 H 1372.28 -1.43668 0.9032 0
M  V30 13564 H 1371.06 -3.47759 1.79387 0
M  V30 13565 H 1370.68 -3.97309 0.151992 0
M  V30 13566 N 1371.68 -0.573274 -1.46804 0
M  V30 13567 C 1372.92 -0.0551522 -2.02025 0
M  V30 13568 C 1373.25 1.30577 -1.44826 0
M  V30 13569 O 1372.52 1.85514 -0.629403 0
M  V30 13570 H 1371.1 -0.0173982 -0.746797 0
M  V30 13571 H 1373.76 -0.746919 -1.8002 0
M  V30 13572 H 1372.85 0.0209326 -3.12093 0
M  V30 13573 N 1373.15 1.5451 -0.310553 0
M  V30 13574 C 1374.1 2.23871 0.561277 0
M  V30 13575 C 1375.07 1.22475 1.12202 0
M  V30 13576 O 1376.26 1.51121 1.16477 0
M  V30 13577 C 1373.4 2.99029 1.72267 0
M  V30 13578 C 1372.51 4.15218 1.19241 0
M  V30 13579 C 1371.64 4.77935 2.31843 0
M  V30 13580 C 1370.68 5.86251 1.75999 0
M  V30 13581 N 1369.82 6.42885 2.82212 0
M  V30 13582 H 1374.66 2.97977 -0.0367998 0
M  V30 13583 H 1372.2 1.4707 -0.0299317 0
M  V30 13584 H 1374.16 3.40842 2.40588 0
M  V30 13585 H 1372.79 2.27281 2.29223 0
M  V30 13586 H 1371.84 3.78279 0.401148 0
M  V30 13587 H 1373.15 4.93225 0.743675 0
M  V30 13588 H 1372.3 5.2265 3.08094 0
M  V30 13589 H 1371.04 3.99281 2.80047 0
M  V30 13590 H 1370.05 5.40952 0.982415 0
M  V30 13591 H 1371.27 6.66795 1.28688 0
M  V30 13592 H 1369.22 5.67109 3.29732 0
M  V30 13593 H 1369.14 7.16267 2.41864 0
M  V30 13594 H 1370.4 6.92256 3.58332 0
M  V30 13595 N 1374.63 0.0384594 1.57553 0
M  V30 13596 C 1375.88 -0.633249 1.93291 0
M  V30 13597 C 1376.23 -1.69196 0.915995 0
M  V30 13598 O 1375.53 -1.91484 -0.0666597 0
M  V30 13599 C 1375.72 -1.28439 3.33524 0
M  V30 13600 C 1375.55 -0.290279 4.48762 0
M  V30 13601 C 1374.32 0.113206 5.05173 0
M  V30 13602 C 1376.52 0.459201 5.12246 0
M  V30 13603 N 1374.5 1.10151 6.03937 0
M  V30 13604 C 1375.87 1.30097 6.06197 0
M  V30 13605 C 1377.93 0.518891 4.95189 0
M  V30 13606 C 1376.63 2.19706 6.84924 0
M  V30 13607 C 1378.66 1.40236 5.74533 0
M  V30 13608 C 1378.02 2.23189 6.68106 0
M  V30 13609 H 1374.12 -0.203752 0.754989 0
M  V30 13610 H 1376.7 0.107819 1.94401 0
M  V30 13611 H 1374.87 -1.99555 3.33215 0
M  V30 13612 H 1376.6 -1.91388 3.56585 0
M  V30 13613 H 1373.36 -0.26316 4.72868 0
M  V30 13614 H 1373.78 1.59218 6.58011 0
M  V30 13615 H 1378.42 -0.108201 4.22662 0
M  V30 13616 H 1376.14 2.83467 7.56751 0
M  V30 13617 H 1379.73 1.45295 5.63365 0
M  V30 13618 H 1378.61 2.90443 7.28432 0
M  V30 13619 N 1376.11 -1.55841 -0.234795 0
M  V30 13620 C 1377.34 -1.82043 -0.976937 0
M  V30 13621 C 1377.75 -0.613552 -1.78975 0
M  V30 13622 O 1377.09 0.427271 -1.78662 0
M  V30 13623 C 1377.15 -3.0178 -1.95369 0
M  V30 13624 C 1376.82 -4.3732 -1.32666 0
M  V30 13625 C 1377.82 -5.14847 -0.723107 0
M  V30 13626 C 1375.5 -4.8403 -1.3424 0
M  V30 13627 C 1377.49 -6.37238 -0.143646 0
M  V30 13628 C 1375.18 -6.06367 -0.759087 0
M  V30 13629 C 1376.18 -6.82811 -0.16075 0
M  V30 13630 O 1375.87 -8.02836 0.41352 0
M  V30 13631 H 1375.6 -0.609424 -0.292537 0
M  V30 13632 H 1378.15 -2.03758 -0.259216 0
M  V30 13633 H 1376.38 -2.7585 -2.71005 0
M  V30 13634 H 1378.07 -3.14968 -2.56027 0
M  V30 13635 H 1378.84 -4.79873 -0.703371 0
M  V30 13636 H 1374.72 -4.24512 -1.7975 0
M  V30 13637 H 1378.26 -6.96847 0.324002 0
M  V30 13638 H 1374.16 -6.40816 -0.776191 0
M  V30 13639 H 1374.93 -8.17926 0.306554 0
M  V30 13640 N 1377.59 0.500963 -1.49426 0
M  V30 13641 C 1378.54 1.59939 -1.62492 0
M  V30 13642 C 1379.52 1.53555 -0.480584 0
M  V30 13643 O 1380.72 1.61085 -0.733538 0
M  V30 13644 C 1377.84 2.98549 -1.6948 0
M  V30 13645 C 1376.93 3.09929 -2.89491 0
M  V30 13646 N 1377.32 2.91198 -4.13567 0
M  V30 13647 C 1375.62 3.41029 -2.87428 0
M  V30 13648 C 1376.32 3.06761 -4.94239 0
M  V30 13649 N 1375.3 3.35639 -4.27606 0
M  V30 13650 H 1379.1 1.44111 -2.56143 0
M  V30 13651 H 1376.61 0.707088 -1.46199 0
M  V30 13652 H 1378.61 3.7749 -1.76938 0
M  V30 13653 H 1377.27 3.15446 -0.769658 0
M  V30 13654 H 1378.28 2.67373 -4.43545 0
M  V30 13655 H 1374.96 3.64103 -2.04293 0
M  V30 13656 H 1376.35 2.96772 -6.02807 0
M  V30 13657 N 1379.07 1.38501 0.752011 0
M  V30 13658 C 1380.03 1.35655 1.84744 0
M  V30 13659 C 1381.03 0.256772 1.58737 0
M  V30 13660 O 1382.22 0.513749 1.66452 0
M  V30 13661 C 1379.35 1.11231 3.22243 0
M  V30 13662 H 1380.55 2.33114 1.88674 0
M  V30 13663 H 1378.1 1.23818 0.953882 0
M  V30 13664 H 1378.83 0.143848 3.23981 0
M  V30 13665 H 1378.62 1.90857 3.42515 0
M  V30 13666 H 1380.11 1.11939 4.02318 0
M  V30 13667 N 1380.55 -0.980364 1.23396 0
M  V30 13668 C 1381.49 -2.07275 1.01516 0
M  V30 13669 C 1382.46 -1.65963 -0.0673729 0
M  V30 13670 O 1383.65 -1.90612 0.0847392 0
M  V30 13671 C 1380.79 -3.39621 0.61249 0
M  V30 13672 C 1379.9 -3.94203 1.76715 0
M  V30 13673 C 1379.04 -5.14761 1.31126 0
M  V30 13674 C 1378.07 -5.61509 2.43667 0
M  V30 13675 N 1377.21 -6.73297 1.99035 0
M  V30 13676 H 1382.05 -2.25325 1.9502 0
M  V30 13677 H 1379.59 -1.10452 0.971532 0
M  V30 13678 H 1381.55 -4.15643 0.360126 0
M  V30 13679 H 1380.18 -3.21535 -0.285539 0
M  V30 13680 H 1379.23 -3.14937 2.13352 0
M  V30 13681 H 1380.54 -4.24867 2.61323 0
M  V30 13682 H 1379.69 -5.98115 1.01702 0
M  V30 13683 H 1378.43 -4.85751 0.435555 0
M  V30 13684 H 1377.44 -4.76737 2.73865 0
M  V30 13685 H 1378.66 -5.92539 3.31774 0
M  V30 13686 H 1376.61 -6.46046 1.13845 0
M  V30 13687 H 1376.53 -7.03345 2.77203 0
M  V30 13688 H 1377.79 -7.60125 1.72716 0
M  V30 13689 N 1382.02 -1.04567 -1.17913 0
M  V30 13690 C 1382.99 -0.645476 -2.19923 0
M  V30 13691 C 1383.99 0.299763 -1.57981 0
M  V30 13692 O 1385.18 0.0844825 -1.73995 0
M  V30 13693 C 1382.31 0.0528935 -3.40859 0
M  V30 13694 H 1383.5 -1.54828 -2.56843 0
M  V30 13695 H 1381.05 -0.838812 -1.31885 0
M  V30 13696 H 1381.79 0.969261 -3.09477 0
M  V30 13697 H 1381.57 -0.626558 -3.87062 0
M  V30 13698 H 1383.06 0.319221 -4.16378 0
M  V30 13699 N 1383.5 1.34231 -0.825823 0
M  V30 13700 C 1384.78 1.92662 -0.337743 0
M  V30 13701 C 1385.16 1.75358 1.17529 0
M  V30 13702 O 1384.51 1.13405 1.98372 0
M  V30 13703 C 1384.72 3.40394 -0.770269 0
M  V30 13704 C 1386.06 4.17546 -0.770767 0
M  V30 13705 O 1387.09 3.4899 -0.713035 0
M  V30 13706 O 1385.95 5.39903 -0.846602 0
M  V30 13707 H 1383.04 0.821768 -0.0928741 0
M  V30 13708 H 1385.59 1.43187 -0.910807 0
M  V30 13709 H 1384.36 3.46802 -1.81228 0
M  V30 13710 H 1383.98 3.97223 -0.17306 0
M  V30 13711 N 1384.98 0.581051 1.46498 0
M  V30 13712 C 1386.23 0.0658652 2.01993 0
M  V30 13713 C 1386.55 -1.29807 1.45516 0
M  V30 13714 O 1385.82 -1.85177 0.639233 0
M  V30 13715 H 1384.4 0.0213584 0.746695 0
M  V30 13716 H 1387.06 0.756456 1.79621 0
M  V30 13717 H 1386.16 -0.00438128 3.121 0
M  V30 13718 N 1386.46 -1.54343 0.318742 0
M  V30 13719 C 1387.69 -2.04894 -0.287378 0
M  V30 13720 C 1388.1 -1.19514 -1.46157 0
M  V30 13721 O 1387.46 -0.224722 -1.81111 0
M  V30 13722 C 1387.51 -3.54124 -0.726505 0
M  V30 13723 O 1387.23 -4.36261 0.400968 0
M  V30 13724 C 1388.73 -4.20748 -1.39594 0
M  V30 13725 H 1385.95 -0.668323 -0.0598724 0
M  V30 13726 H 1388.49 -1.99177 0.463531 0
M  V30 13727 H 1386.65 -3.60145 -1.4274 0
M  V30 13728 H 1387.06 -5.2447 0.0558714 0
M  V30 13729 H 1388.54 -5.26632 -1.65418 0
M  V30 13730 H 1389.01 -3.71566 -2.3417 0
M  V30 13731 H 1389.62 -4.18852 -0.737749 0
M  V30 13732 N 1387.94 -0.0468143 -1.5753 0
M  V30 13733 C 1388.9 0.914225 -2.10177 0
M  V30 13734 C 1389.9 1.24271 -1.02045 0
M  V30 13735 O 1391.09 1.18012 -1.28136 0
M  V30 13736 C 1388.22 2.22544 -2.58238 0
M  V30 13737 H 1389.41 0.457922 -2.96383 0
M  V30 13738 H 1386.97 0.20152 -1.54995 0
M  V30 13739 H 1387.7 2.72765 -1.75413 0
M  V30 13740 H 1387.49 2.00007 -3.37253 0
M  V30 13741 H 1388.98 2.91392 -2.99133 0
M  V30 13742 N 1389.41 1.55964 0.226527 0
M  V30 13743 C 1390.69 1.69528 0.975689 0
M  V30 13744 C 1391.07 0.592635 2.02611 0
M  V30 13745 O 1390.42 -0.401073 2.24953 0
M  V30 13746 C 1390.63 3.10644 1.59063 0
M  V30 13747 C 1391.98 3.69895 2.08478 0
M  V30 13748 O 1393 3.13574 1.68966 0
M  V30 13749 O 1391.86 4.68672 2.81085 0
M  V30 13750 H 1388.95 0.690285 0.455451 0
M  V30 13751 H 1391.5 1.68285 0.218702 0
M  V30 13752 H 1390.27 3.82355 0.831903 0
M  V30 13753 H 1389.9 3.15984 2.41329 0
M  V30 13754 N 1390.89 -0.493031 1.4969 0
M  V30 13755 C 1391.84 -1.59367 1.66945 0
M  V30 13756 C 1392.81 -1.58049 0.510842 0
M  V30 13757 O 1393.99 -1.75915 0.738822 0
M  V30 13758 C 1391.13 -2.97472 1.74941 0
M  V30 13759 C 1390.25 -3.08745 3.02159 0
M  V30 13760 C 1389.38 -4.37632 3.01085 0
M  V30 13761 C 1388.42 -4.42567 4.22849 0
M  V30 13762 N 1387.56 -5.62892 4.19639 0
M  V30 13763 H 1392.4 -1.4396 2.6092 0
M  V30 13764 H 1389.94 -0.700297 1.29361 0
M  V30 13765 H 1391.89 -3.7753 1.77558 0
M  V30 13766 H 1390.52 -3.11564 0.844252 0
M  V30 13767 H 1389.58 -2.217 3.09117 0
M  V30 13768 H 1390.89 -3.08251 3.92151 0
M  V30 13769 H 1390.04 -5.26018 3.02309 0
M  V30 13770 H 1388.78 -4.40702 2.08885 0
M  V30 13771 H 1387.79 -3.52581 4.21861 0
M  V30 13772 H 1389.01 -4.41205 5.1625 0
M  V30 13773 H 1386.96 -5.6679 3.30281 0
M  V30 13774 H 1386.87 -5.64048 5.03374 0
M  V30 13775 H 1388.14 -6.53464 4.24977 0
M  V30 13776 N 1392.37 -1.38898 -0.744656 0
M  V30 13777 C 1393.6 -1.38848 -1.53391 0
M  V30 13778 C 1394.01 0.0194949 -1.8879 0
M  V30 13779 O 1393.37 0.988399 -1.53417 0
M  V30 13780 C 1393.42 -2.25243 -2.8275 0
M  V30 13781 O 1393.14 -3.60557 -2.48858 0
M  V30 13782 C 1394.64 -2.33471 -3.76837 0
M  V30 13783 H 1391.86 -0.4746 -0.474338 0
M  V30 13784 H 1394.41 -1.82591 -0.920902 0
M  V30 13785 H 1392.56 -1.84938 -3.40407 0
M  V30 13786 H 1392.98 -4.06142 -3.31887 0
M  V30 13787 H 1394.45 -2.9819 -4.64528 0
M  V30 13788 H 1394.93 -1.351 -4.17905 0
M  V30 13789 H 1395.53 -2.74205 -3.25103 0
M  V30 13790 N 1393.85 0.973806 -1.23914 0
M  V30 13791 C 1394.8 2.06734 -1.02614 0
M  V30 13792 C 1395.77 1.65997 0.0585705 0
M  V30 13793 O 1396.95 1.90564 -0.0948467 0
M  V30 13794 C 1394.09 3.39292 -0.630493 0
M  V30 13795 C 1393.2 3.9326 -1.78803 0
M  V30 13796 C 1392.34 5.14059 -1.33854 0
M  V30 13797 C 1391.38 5.60209 -2.46642 0
M  V30 13798 N 1390.51 6.72232 -2.02603 0
M  V30 13799 H 1395.35 2.24287 -1.96212 0
M  V30 13800 H 1392.89 1.09935 -0.977376 0
M  V30 13801 H 1394.85 4.15446 -0.382163 0
M  V30 13802 H 1393.48 3.21682 0.268483 0
M  V30 13803 H 1392.53 3.13801 -2.15019 0
M  V30 13804 H 1393.84 4.23475 -2.63573 0
M  V30 13805 H 1393 5.97567 -1.04873 0
M  V30 13806 H 1391.74 4.85513 -0.46131 0
M  V30 13807 H 1390.74 4.75278 -2.7639 0
M  V30 13808 H 1391.97 5.90771 -3.34912 0
M  V30 13809 H 1389.91 6.45433 -1.17269 0
M  V30 13810 H 1389.83 7.01865 -2.80929 0
M  V30 13811 H 1391.1 7.59198 -1.76745 0
M  V30 13812 N 1395.33 1.05191 1.17357 0
M  V30 13813 C 1396.57 0.760479 1.87246 0
M  V30 13814 C 1396.9 -0.714618 1.81434 0
M  V30 13815 O 1396.17 -1.51636 1.24029 0
M  V30 13816 H 1394.75 0.278317 0.693216 0
M  V30 13817 H 1397.41 1.33106 1.42369 0
M  V30 13818 H 1396.5 1.07542 2.92987 0
M  V30 13819 N 1396.8 -1.33791 0.83293 0
M  V30 13820 C 1397.71 -2.33108 0.264169 0
M  V30 13821 C 1398.73 -1.6308 -0.606694 0
M  V30 13822 O 1399.91 -1.94777 -0.512225 0
M  V30 13823 C 1396.97 -3.42208 -0.556315 0
M  V30 13824 C 1396.03 -4.27966 0.338123 0
M  V30 13825 C 1395.27 -5.31856 -0.443297 0
M  V30 13826 O 1395.49 -5.45234 -1.6756 0
M  V30 13827 O 1394.42 -6.01632 0.179599 0
M  V30 13828 H 1398.25 -2.83602 1.08645 0
M  V30 13829 H 1395.83 -1.37027 0.595307 0
M  V30 13830 H 1397.72 -4.088 -1.02277 0
M  V30 13831 H 1396.39 -2.9394 -1.35575 0
M  V30 13832 H 1395.3 -3.64262 0.852293 0
M  V30 13833 H 1396.63 -4.79701 1.10217 0
M  V30 13834 N 1398.28 -0.588812 -1.46187 0
M  V30 13835 C 1399.53 -0.0768417 -2.02654 0
M  V30 13836 C 1399.86 1.28213 -1.4586 0
M  V30 13837 O 1399.14 1.8415 -0.626022 0
M  V30 13838 C 1399.42 -0.0176429 -3.60096 0
M  V30 13839 C 1399.27 -1.40595 -4.27262 0
M  V30 13840 C 1400.59 0.679864 -4.34817 0
M  V30 13841 H 1397.71 -0.0293981 -0.736413 0
M  V30 13842 H 1400.35 -0.757183 -1.74261 0
M  V30 13843 H 1398.5 0.56174 -3.84417 0
M  V30 13844 H 1400.17 -2.03097 -4.14185 0
M  V30 13845 H 1398.42 -1.97196 -3.86388 0
M  V30 13846 H 1399.09 -1.31694 -5.3606 0
M  V30 13847 H 1401.56 0.1876 -4.15677 0
M  V30 13848 H 1400.44 0.690333 -5.44542 0
M  V30 13849 H 1400.7 1.74237 -4.06318 0
M  V30 13850 N 1399.76 1.54172 -0.326923 0
M  V30 13851 C 1400.99 2.05512 0.279231 0
M  V30 13852 C 1401.41 1.20131 1.44741 0
M  V30 13853 O 1400.77 0.211191 1.80066 0
M  V30 13854 C 1400.82 3.53971 0.688263 0
M  V30 13855 O 1399.92 3.71516 1.79025 0
M  V30 13856 H 1399.26 0.662131 0.0497826 0
M  V30 13857 H 1401.79 1.98979 -0.476309 0
M  V30 13858 H 1401.8 3.96302 0.970002 0
M  V30 13859 H 1400.48 4.15568 -0.166132 0
M  V30 13860 H 1399.05 3.4109 1.50706 0
M  V30 13861 N 1401.24 0.0551678 1.57503 0
M  V30 13862 C 1402.19 -0.935665 2.12951 0
M  V30 13863 C 1403.18 -1.31954 1.06229 0
M  V30 13864 O 1404.39 -1.29873 1.24632 0
M  V30 13865 H 1400.76 -0.319618 0.680697 0
M  V30 13866 H 1402.73 -0.442937 2.95094 0
M  V30 13867 C 1401.48 -2.19977 2.69268 0
M  V30 13868 H 1400.8 -1.91319 3.51051 0
M  V30 13869 H 1402.24 -2.87456 3.11681 0
M  V30 13870 C 1400.7 -2.94714 1.63233 0
M  V30 13871 O 1401.23 -3.87803 1.04747 0
M  V30 13872 N 1399.44 -2.57518 1.34659 0
M  V30 13873 H 1398.99 -1.81894 1.82407 0
M  V30 13874 H 1398.94 -3.07829 0.639425 0
M  V30 13875 N 1402.72 -1.56081 -0.218252 0
M  V30 13876 C 1403.99 -1.70043 -0.966684 0
M  V30 13877 C 1404.37 -0.603372 -2.02293 0
M  V30 13878 O 1403.72 0.389138 -2.25162 0
M  V30 13879 C 1403.93 -3.11484 -1.57413 0
M  V30 13880 C 1405.28 -3.70995 -2.06513 0
M  V30 13881 O 1406.3 -3.14466 -1.67301 0
M  V30 13882 O 1405.16 -4.70156 -2.78596 0
M  V30 13883 H 1402.26 -0.692691 -0.451784 0
M  V30 13884 H 1404.8 -1.68398 -0.209774 0
M  V30 13885 H 1403.57 -3.8279 -0.811614 0
M  V30 13886 H 1403.2 -3.1726 -2.3965 0
M  V30 13887 N 1404.2 0.485086 -1.49949 0
M  V30 13888 C 1405.14 1.5848 -1.67788 0
M  V30 13889 C 1406.11 1.57776 -0.519216 0
M  V30 13890 O 1407.3 1.75521 -0.748141 0
M  V30 13891 C 1404.44 2.9654 -1.76516 0
M  V30 13892 C 1403.55 3.07139 -3.03792 0
M  V30 13893 C 1402.69 4.36029 -3.03401 0
M  V30 13894 C 1401.72 4.40318 -4.2519 0
M  V30 13895 N 1400.86 5.60659 -4.22618 0
M  V30 13896 H 1405.7 1.42575 -2.6168 0
M  V30 13897 H 1403.24 0.693426 -1.29731 0
M  V30 13898 H 1405.2 3.76583 -1.79557 0
M  V30 13899 H 1403.83 3.11112 -0.860764 0
M  V30 13900 H 1402.88 2.20057 -3.10289 0
M  V30 13901 H 1404.19 3.06167 -3.9378 0
M  V30 13902 H 1403.34 5.24407 -3.05094 0
M  V30 13903 H 1402.08 4.39588 -2.11219 0
M  V30 13904 H 1401.09 3.50339 -4.23725 0
M  V30 13905 H 1402.31 4.38461 -5.18583 0
M  V30 13906 H 1400.26 5.6503 -3.33282 0
M  V30 13907 H 1400.18 5.61371 -5.06359 0
M  V30 13908 H 1401.44 6.51201 -4.28436 0
M  V30 13909 N 1405.67 1.39291 0.737279 0
M  V30 13910 C 1406.92 1.36592 1.49901 0
M  V30 13911 C 1407.25 -0.0388812 1.94161 0
M  V30 13912 O 1406.53 -1.00337 1.66622 0
M  V30 13913 C 1406.81 2.33625 2.74028 0
M  V30 13914 C 1406.66 3.83037 2.35802 0
M  V30 13915 C 1407.98 2.28524 3.76118 0
M  V30 13916 H 1405.1 0.497482 0.543765 0
M  V30 13917 H 1407.74 1.70265 0.843193 0
M  V30 13918 H 1405.89 2.0504 3.29986 0
M  V30 13919 H 1407.57 4.22363 1.85493 0
M  V30 13920 H 1405.81 3.99924 1.68058 0
M  V30 13921 H 1406.48 4.46415 3.24681 0
M  V30 13922 H 1408.96 2.53794 3.29739 0
M  V30 13923 H 1407.83 2.98501 4.60639 0
M  V30 13924 H 1408.09 1.28949 4.22876 0
M  V30 13925 N 1407.15 -0.967221 1.24429 0
M  V30 13926 C 1408.38 -1.75053 1.11226 0
M  V30 13927 C 1408.8 -1.85162 -0.331139 0
M  V30 13928 O 1408.16 -1.32288 -1.23974 0
M  V30 13929 C 1408.21 -3.14882 1.75733 0
M  V30 13930 O 1407.31 -3.99371 1.02842 0
M  V30 13931 H 1406.65 -0.538078 0.389061 0
M  V30 13932 H 1409.18 -1.21325 1.64746 0
M  V30 13933 H 1409.19 -3.65402 1.81509 0
M  V30 13934 H 1407.87 -3.06839 2.80754 0
M  V30 13935 H 1406.44 -3.57854 1.04856 0
M  V30 13936 N 1408.63 -1.05812 -1.16797 0
M  V30 13937 C 1409.86 -0.792519 -1.9112 0
M  V30 13938 C 1410.27 0.652549 -1.77164 0
M  V30 13939 O 1409.63 1.44633 -1.113 0
M  V30 13940 C 1409.68 -1.17172 -3.41984 0
M  V30 13941 O 1409.4 -2.56008 -3.55516 0
M  V30 13942 C 1410.9 -0.933162 -4.33367 0
M  V30 13943 H 1408.12 -0.28768 -0.606202 0
M  V30 13944 H 1410.67 -1.41046 -1.48075 0
M  V30 13945 H 1408.82 -0.598413 -3.8275 0
M  V30 13946 H 1409.24 -2.71053 -4.49033 0
M  V30 13947 H 1410.71 -1.24817 -5.37703 0
M  V30 13948 H 1411.19 0.131345 -4.39004 0
M  V30 13949 H 1411.79 -1.49062 -3.98322 0
M  V30 13950 N 1410.11 1.33347 -0.840014 0
M  V30 13951 C 1411.38 1.92293 -0.358158 0
M  V30 13952 C 1411.76 1.76594 1.15662 0
M  V30 13953 O 1411.11 1.15503 1.97158 0
M  V30 13954 C 1411.32 3.39558 -0.806329 0
M  V30 13955 C 1412.67 4.16705 -0.81501 0
M  V30 13956 O 1413.69 3.48214 -0.75001 0
M  V30 13957 O 1412.55 5.38974 -0.903818 0
M  V30 13958 H 1409.65 0.820737 -0.101585 0
M  V30 13959 H 1412.19 1.42213 -0.925942 0
M  V30 13960 H 1410.97 3.44861 -1.84897 0
M  V30 13961 H 1410.59 3.97017 -0.215181 0
M  V30 13962 N 1411.59 0.596556 1.45873 0
M  V30 13963 C 1412.5 -0.130832 2.34235 0
M  V30 13964 C 1413.51 -0.871805 1.50584 0
M  V30 13965 O 1414.69 -0.831877 1.83417 0
M  V30 13966 C 1411.75 -1.12279 3.28016 0
M  V30 13967 C 1410.81 -0.384982 4.2757 0
M  V30 13968 C 1410.05 -1.32969 5.1687 0
M  V30 13969 O 1410.27 -2.56696 5.09375 0
M  V30 13970 O 1409.2 -0.832741 5.96112 0
M  V30 13971 H 1413.03 0.59503 2.97814 0
M  V30 13972 H 1410.61 0.356873 1.45075 0
M  V30 13973 H 1412.5 -1.6944 3.85834 0
M  V30 13974 H 1411.17 -1.82988 2.67015 0
M  V30 13975 H 1410.08 0.228816 3.734 0
M  V30 13976 H 1411.41 0.281398 4.91395 0
M  V30 13977 N 1413.06 -1.53996 0.335095 0
M  V30 13978 C 1414.01 -2.24736 -0.52559 0
M  V30 13979 C 1414.98 -1.24244 -1.10239 0
M  V30 13980 O 1416.17 -1.52955 -1.14058 0
M  V30 13981 C 1413.31 -3.01732 -1.67487 0
M  V30 13982 C 1412.42 -4.17062 -1.1262 0
M  V30 13983 C 1411.55 -4.81563 -2.2421 0
M  V30 13984 C 1410.59 -5.88977 -1.6665 0
M  V30 13985 N 1409.73 -6.47293 -2.71949 0
M  V30 13986 H 1414.57 -2.97881 0.0842008 0
M  V30 13987 H 1412.11 -1.47003 0.0533254 0
M  V30 13988 H 1414.06 -3.44626 -2.35135 0
M  V30 13989 H 1412.69 -2.30899 -2.25578 0
M  V30 13990 H 1411.75 -3.78869 -0.340917 0
M  V30 13991 H 1413.06 -4.94346 -0.665113 0
M  V30 13992 H 1412.21 -5.27486 -2.9974 0
M  V30 13993 H 1410.95 -4.03685 -2.73659 0
M  V30 13994 H 1409.96 -5.42446 -0.89623 0
M  V30 13995 H 1411.18 -6.68758 -1.18064 0
M  V30 13996 H 1409.13 -5.72283 -3.20668 0
M  V30 13997 H 1409.04 -7.20024 -2.30438 0
M  V30 13998 H 1410.31 -6.97869 -3.47273 0
M  V30 13999 N 1414.54 -0.0635198 -1.57472 0
M  V30 14000 C 1415.49 0.916528 -2.08767 0
M  V30 14001 C 1416.48 1.26405 -0.99552 0
M  V30 14002 O 1417.67 1.24441 -1.25871 0
M  V30 14003 C 1414.8 2.18704 -2.64619 0
M  V30 14004 C 1413.88 1.86637 -3.80825 0
M  V30 14005 N 1414.27 1.24982 -4.90115 0
M  V30 14006 C 1412.57 2.16435 -3.89964 0
M  V30 14007 C 1413.27 1.10821 -5.71046 0
M  V30 14008 N 1412.25 1.61519 -5.1905 0
M  V30 14009 H 1416.05 0.435376 -2.90657 0
M  V30 14010 H 1413.56 0.1406 -1.6179 0
M  V30 14011 H 1415.56 2.89825 -2.99678 0
M  V30 14012 H 1414.22 2.67415 -1.84172 0
M  V30 14013 H 1415.23 0.920491 -5.09654 0
M  V30 14014 H 1411.91 2.6758 -3.20479 0
M  V30 14015 H 1413.3 0.628547 -6.68954 0
M  V30 14016 N 1416.02 1.56195 0.209972 0
M  V30 14017 C 1417.27 1.80011 0.93402 0
M  V30 14018 C 1417.6 0.635109 1.83521 0
M  V30 14019 O 1416.87 -0.365099 1.91043 0
M  V30 14020 C 1417.16 3.13989 1.76304 0
M  V30 14021 C 1417.01 4.40956 0.887567 0
M  V30 14022 C 1418.33 3.44514 2.73857 0
M  V30 14023 H 1415.45 0.654859 0.338125 0
M  V30 14024 H 1418.09 1.88921 0.20221 0
M  V30 14025 H 1416.24 3.06524 2.38695 0
M  V30 14026 H 1417.91 4.60452 0.279507 0
M  V30 14027 H 1416.15 4.33368 0.193533 0
M  V30 14028 H 1416.83 5.31164 1.50228 0
M  V30 14029 H 1419.3 3.52182 2.216 0
M  V30 14030 H 1418.18 4.39407 3.28957 0
M  V30 14031 H 1418.44 2.6726 3.52171 0
M  V30 14032 N 1417.5 -0.477127 1.50204 0
M  V30 14033 C 1418.74 -1.23147 1.6113 0
M  V30 14034 C 1419.08 -1.91743 0.307909 0
M  V30 14035 O 1418.35 -1.81841 -0.690223 0
M  V30 14036 C 1418.63 -2.27985 2.78738 0
M  V30 14037 C 1418.49 -1.63733 4.18941 0
M  V30 14038 C 1419.81 -3.29349 2.9192 0
M  V30 14039 H 1416.93 -0.446358 0.586459 0
M  V30 14040 H 1419.57 -0.52612 1.8257 0
M  V30 14041 H 1417.72 -2.88143 2.60588 0
M  V30 14042 H 1419.39 -1.07218 4.48667 0
M  V30 14043 H 1417.63 -0.940634 4.23479 0
M  V30 14044 H 1418.3 -2.39888 4.9715 0
M  V30 14045 H 1420.78 -2.79208 3.08516 0
M  V30 14046 H 1419.66 -4.0004 3.75845 0
M  V30 14047 H 1419.92 -3.93111 2.02278 0
M  V30 14048 N 1418.98 -1.3968 -0.729882 0
M  V30 14049 C 1420.2 -1.40654 -1.52418 0
M  V30 14050 C 1420.63 -0.00428997 -1.881 0
M  V30 14051 O 1419.98 0.984023 -1.52272 0
M  V30 14052 C 1420.03 -2.29057 -2.78506 0
M  V30 14053 O 1419.14 -1.72397 -3.74637 0
M  V30 14054 H 1418.48 -0.478761 -0.460091 0
M  V30 14055 H 1421.01 -1.83738 -0.900087 0
M  V30 14056 H 1421.02 -2.43748 -3.27187 0
M  V30 14057 H 1419.69 -3.30961 -2.51868 0
M  V30 14058 H 1418.27 -1.66977 -3.33426 0
M  V30 14059 N 1420.45 0.960609 -1.2494 0
M  V30 14060 C 1421.38 2.074 -1.07274 0
M  V30 14061 C 1422.37 1.70092 0.0164365 0
M  V30 14062 O 1423.55 1.93604 -0.151975 0
M  V30 14063 C 1420.68 3.40491 -0.684317 0
M  V30 14064 C 1419.63 3.91784 -1.72306 0
M  V30 14065 C 1418.96 5.21301 -1.18949 0
M  V30 14066 C 1420.26 4.18829 -3.12056 0
M  V30 14067 H 1421.95 2.22438 -2.00404 0
M  V30 14068 H 1419.5 1.06888 -0.964937 0
M  V30 14069 H 1421.45 4.17826 -0.547686 0
M  V30 14070 H 1420.18 3.25374 0.282687 0
M  V30 14071 H 1418.84 3.16613 -1.84802 0
M  V30 14072 H 1418.48 5.02549 -0.212892 0
M  V30 14073 H 1418.18 5.56588 -1.8837 0
M  V30 14074 H 1419.71 6.01238 -1.06513 0
M  V30 14075 H 1421.12 4.86844 -3.02748 0
M  V30 14076 H 1419.52 4.6536 -3.78894 0
M  V30 14077 H 1420.59 3.25333 -3.59564 0
M  V30 14078 N 1421.93 1.0643 1.16234 0
M  V30 14079 C 1423.21 0.695256 1.82827 0
M  V30 14080 C 1423.59 -0.823242 1.94386 0
M  V30 14081 O 1422.94 -1.73406 1.48804 0
M  V30 14082 C 1423.15 1.3988 3.19741 0
M  V30 14083 C 1424.5 1.54489 3.95498 0
M  V30 14084 O 1425.52 1.35882 3.29264 0
M  V30 14085 O 1424.38 1.85027 5.14225 0
M  V30 14086 H 1421.47 0.246285 0.789476 0
M  V30 14087 H 1424.02 1.16466 1.23426 0
M  V30 14088 H 1422.79 2.43419 3.06371 0
M  V30 14089 H 1422.41 0.91957 3.8682 0
M  V30 14090 N 1423.41 -1.329 0.847073 0
M  V30 14091 C 1424.82 -1.79813 0.502394 0
M  V30 14092 C 1425.17 -1.70017 -0.979218 0
M  V30 14093 O 1424.3 -1.25427 -1.76344 0
M  V30 14094 C 1424.89 -3.26485 0.905154 0
M  V30 14095 C 1423.45 -3.71383 0.612489 0
M  V30 14096 C 1422.6 -2.54157 1.10903 0
M  V30 14097 H 1425.55 -1.20306 1.035 0
M  V30 14098 H 1425.57 -3.79872 0.218476 0
M  V30 14099 H 1425.08 -3.33583 1.98353 0
M  V30 14100 H 1423.18 -3.69806 -0.45548 0
M  V30 14101 H 1423.3 -4.64507 1.17347 0
M  V30 14102 H 1421.66 -2.49134 0.529576 0
M  V30 14103 H 1422.44 -2.64013 2.19435 0
M  V30 14104 N 1424.89 -0.604284 -1.45555 0
M  V30 14105 C 1425.84 0.129013 -2.32242 0
M  V30 14106 C 1426.83 0.862933 -1.45773 0
M  V30 14107 O 1428.04 0.778874 -1.62276 0
M  V30 14108 H 1424.41 0.0604661 -0.749565 0
M  V30 14109 H 1426.38 -0.620603 -2.91875 0
M  V30 14110 C 1425.13 1.11516 -3.29332 0
M  V30 14111 H 1424.45 0.559849 -3.95861 0
M  V30 14112 H 1425.89 1.59824 -3.92724 0
M  V30 14113 C 1424.35 2.18706 -2.5626 0
M  V30 14114 O 1424.88 3.26397 -2.34154 0
M  V30 14115 N 1423.09 1.93899 -2.16452 0
M  V30 14116 H 1422.64 1.0633 -2.34631 0
M  V30 14117 H 1422.59 2.65824 -1.67884 0
M  V30 14118 N 1426.37 1.53816 -0.343257 0
M  V30 14119 C 1427.64 1.9315 0.308609 0
M  V30 14120 C 1428.02 1.27479 1.68263 0
M  V30 14121 O 1427.37 0.425614 2.24501 0
M  V30 14122 C 1427.58 3.46912 0.381176 0
M  V30 14123 C 1428.93 4.19868 0.632153 0
M  V30 14124 O 1429.95 3.53174 0.463303 0
M  V30 14125 O 1428.81 5.38016 0.959237 0
M  V30 14126 H 1425.91 0.807169 0.180022 0
M  V30 14127 H 1428.45 1.65053 -0.394412 0
M  V30 14128 H 1427.22 3.86932 -0.583058 0
M  V30 14129 H 1426.85 3.81175 1.13099 0
M  V30 14130 N 1427.84 0.0718701 1.57436 0
M  V30 14131 C 1428.78 -0.924911 2.09709 0
M  V30 14132 C 1429.79 -1.26136 1.02925 0
M  V30 14133 O 1430.98 -1.21853 1.30438 0
M  V30 14134 C 1428.08 -2.24072 2.54254 0
M  V30 14135 C 1427.25 -2.0831 3.84611 0
M  V30 14136 C 1426.31 -3.23196 4.15248 0
M  V30 14137 O 1425.34 -2.98184 4.84846 0
M  V30 14138 N 1426.54 -4.48293 3.688 0
M  V30 14139 H 1429.3 -0.478605 2.95854 0
M  V30 14140 H 1426.86 -0.113853 1.61499 0
M  V30 14141 H 1428.86 -2.99835 2.71811 0
M  V30 14142 H 1427.43 -2.60201 1.73246 0
M  V30 14143 H 1426.65 -1.17014 3.76432 0
M  V30 14144 H 1427.93 -1.9503 4.69937 0
M  V30 14145 H 1427.33 -4.71501 3.12575 0
M  V30 14146 H 1425.89 -5.21082 3.91556 0
M  V30 14147 N 1429.32 -1.56304 -0.201686 0
M  V30 14148 C 1430.55 -1.84692 -0.943583 0
M  V30 14149 C 1430.97 -0.654649 -1.7634 0
M  V30 14150 O 1430.33 0.396586 -1.76909 0
M  V30 14151 C 1430.38 -3.11251 -1.82085 0
M  V30 14152 O 1429.48 -2.9134 -2.91881 0
M  V30 14153 H 1428.82 -0.608351 -0.266092 0
M  V30 14154 H 1431.35 -2.0353 -0.208992 0
M  V30 14155 H 1431.36 -3.41874 -2.2268 0
M  V30 14156 H 1430.04 -3.97652 -1.21844 0
M  V30 14157 H 1428.62 -2.72 -2.55089 0
M  V30 14158 N 1430.8 0.469154 -1.50455 0
M  V30 14159 C 1431.75 1.56691 -1.6946 0
M  V30 14160 C 1432.72 1.57217 -0.535921 0
M  V30 14161 O 1433.9 1.74717 -0.766715 0
M  V30 14162 C 1431.04 2.94651 -1.79651 0
M  V30 14163 C 1430.16 3.03899 -3.07033 0
M  V30 14164 C 1429.29 4.32786 -3.08009 0
M  V30 14165 C 1428.33 4.35784 -4.29836 0
M  V30 14166 N 1427.47 5.56145 -4.28541 0
M  V30 14167 H 1432.31 1.39791 -2.63178 0
M  V30 14168 H 1429.84 0.679628 -1.30459 0
M  V30 14169 H 1431.8 3.74658 -1.83541 0
M  V30 14170 H 1430.43 3.10182 -0.893713 0
M  V30 14171 H 1429.48 2.16754 -3.12605 0
M  V30 14172 H 1430.8 3.01974 -3.97005 0
M  V30 14173 H 1429.95 5.21141 -3.10639 0
M  V30 14174 H 1428.69 4.37323 -2.1587 0
M  V30 14175 H 1427.69 3.45825 -4.27417 0
M  V30 14176 H 1428.92 4.32937 -5.23204 0
M  V30 14177 H 1426.86 5.61464 -3.39256 0
M  V30 14178 H 1426.78 5.55969 -5.12284 0
M  V30 14179 H 1428.05 6.4662 -4.35319 0
M  V30 14180 N 1432.28 1.40065 0.722464 0
M  V30 14181 C 1433.53 1.37698 1.47932 0
M  V30 14182 C 1433.85 -0.0222608 1.94987 0
M  V30 14183 O 1433.12 -0.975795 1.69868 0
M  V30 14184 H 1431.7 0.506766 0.548815 0
M  V30 14185 H 1434.36 1.75053 0.856884 0
M  V30 14186 H 1433.46 2.04756 2.35545 0
M  V30 14187 N 1433.76 -0.95397 1.25448 0
M  V30 14188 C 1434.7 -2.05075 1.0589 0
M  V30 14189 C 1435.67 -1.66069 -0.0321545 0
M  V30 14190 O 1436.86 -1.90389 0.125152 0
M  V30 14191 C 1434 -3.38246 0.684391 0
M  V30 14192 C 1433.11 -3.90366 1.85037 0
M  V30 14193 C 1432.25 -5.11864 1.42016 0
M  V30 14194 C 1431.29 -5.56214 2.55523 0
M  V30 14195 N 1430.42 -6.68924 2.13272 0
M  V30 14196 H 1435.26 -2.21137 1.99755 0
M  V30 14197 H 1432.8 -1.08366 0.994742 0
M  V30 14198 H 1434.76 -4.14785 0.448209 0
M  V30 14199 H 1433.39 -3.22068 -0.217273 0
M  V30 14200 H 1432.44 -3.1034 2.19984 0
M  V30 14201 H 1433.75 -4.19228 2.70276 0
M  V30 14202 H 1432.91 -5.95823 1.14366 0
M  V30 14203 H 1431.65 -4.84718 0.538492 0
M  V30 14204 H 1430.65 -4.7082 2.83916 0
M  V30 14205 H 1431.88 -5.85368 3.44268 0
M  V30 14206 H 1429.82 -6.43486 1.27523 0
M  V30 14207 H 1429.74 -6.97307 2.92059 0
M  V30 14208 H 1431.01 -7.5629 1.88801 0
M  V30 14209 N 1435.24 -1.07045 -1.15668 0
M  V30 14210 C 1436.48 -0.790172 -1.86013 0
M  V30 14211 C 1436.8 0.685663 -1.82548 0
M  V30 14212 O 1436.07 1.49644 -1.26426 0
M  V30 14213 H 1434.65 -0.28931 -0.688701 0
M  V30 14214 H 1437.32 -1.35354 -1.40233 0
M  V30 14215 H 1436.41 -1.1219 -2.91239 0
M  V30 14216 N 1436.71 1.32449 -0.85411 0
M  V30 14217 C 1437.96 1.97563 -0.4579 0
M  V30 14218 C 1438.29 1.67435 0.983835 0
M  V30 14219 O 1437.57 0.962292 1.69027 0
M  V30 14220 C 1437.85 3.53292 -0.69688 0
M  V30 14221 C 1437.7 3.93053 -2.18699 0
M  V30 14222 C 1439.02 4.39834 -0.152917 0
M  V30 14223 H 1436.14 0.717634 -0.167842 0
M  V30 14224 H 1438.78 1.5684 -1.07243 0
M  V30 14225 H 1436.93 3.88111 -0.173807 0
M  V30 14226 H 1438.61 3.68416 -2.7761 0
M  V30 14227 H 1436.85 3.42232 -2.6657 0
M  V30 14228 H 1437.52 5.01576 -2.3049 0
M  V30 14229 H 1440 4.11748 -0.600216 0
M  V30 14230 H 1438.87 5.47785 -0.349703 0
M  V30 14231 H 1439.13 4.31898 0.944276 0
M  V30 14232 N 1438.19 0.611994 1.45232 0
M  V30 14233 C 1439.44 0.109073 2.02506 0
M  V30 14234 C 1439.77 -1.25876 1.47881 0
M  V30 14235 O 1439.05 -1.83131 0.65524 0
M  V30 14236 C 1439.33 0.0749288 3.60022 0
M  V30 14237 C 1439.18 1.47374 4.24972 0
M  V30 14238 C 1440.5 -0.610602 4.35844 0
M  V30 14239 H 1437.62 0.0411101 0.735853 0
M  V30 14240 H 1440.26 0.78481 1.73034 0
M  V30 14241 H 1438.41 -0.500511 3.85262 0
M  V30 14242 H 1440.08 2.0966 4.10902 0
M  V30 14243 H 1438.33 2.03319 3.83202 0
M  V30 14244 H 1439 1.40206 5.33897 0
M  V30 14245 H 1441.47 -0.121445 4.15923 0
M  V30 14246 H 1440.35 -0.603614 5.45571 0
M  V30 14247 H 1440.61 -1.6775 4.09038 0
M  V30 14248 N 1439.67 -1.53632 0.351409 0
M  V30 14249 C 1440.92 -2.00222 -0.243731 0
M  V30 14250 C 1441.23 -1.24305 -1.51022 0
M  V30 14251 O 1442.44 -1.61411 -2.18309 0
M  V30 14252 C 1440.89 -3.56619 -0.48487 0
M  V30 14253 C 1440.5 -4.414 0.766173 0
M  V30 14254 C 1442.25 -4.11603 -1.03844 0
M  V30 14255 C 1440.15 -5.89321 0.4954 0
M  V30 14256 H 1439.08 -0.74801 -0.0948534 0
M  V30 14257 H 1441.73 -1.77433 0.467957 0
M  V30 14258 H 1440.12 -3.75505 -1.25746 0
M  V30 14259 H 1441.29 -4.34288 1.54047 0
M  V30 14260 H 1439.6 -3.97448 1.24194 0
M  V30 14261 H 1442.2 -5.19736 -1.25611 0
M  V30 14262 H 1442.54 -3.65311 -1.99634 0
M  V30 14263 H 1443.08 -3.96459 -0.326363 0
M  V30 14264 H 1439.82 -6.39863 1.42324 0
M  V30 14265 H 1439.34 -5.99317 -0.240662 0
M  V30 14266 H 1441.02 -6.46897 0.115584 0
M  V30 14267 N 1441.15 -0.0802183 -1.57396 0
M  V30 14268 C 1442.42 0.628419 -1.8523 0
M  V30 14269 C 1442.8 1.87272 -0.974288 0
M  V30 14270 O 1442.15 2.2846 -0.0427687 0
M  V30 14271 C 1442.36 0.958033 -3.35593 0
M  V30 14272 C 1443.71 1.3279 -4.03301 0
M  V30 14273 O 1444.73 1.04951 -3.40388 0
M  V30 14274 O 1443.59 1.84865 -5.14283 0
M  V30 14275 H 1440.69 0.312945 -0.765503 0
M  V30 14276 H 1443.23 -0.111788 -1.69331 0
M  V30 14277 H 1442.01 0.074648 -3.91229 0
M  V30 14278 H 1441.63 1.75472 -3.56785 0
M  V30 14279 N 1442.63 1.56409 0.193394 0
M  V30 14280 C 1443.57 1.95572 1.25914 0
M  V30 14281 C 1444.57 0.841384 1.47028 0
M  V30 14282 O 1445.77 1.0264 1.47868 0
M  V30 14283 H 1442.15 0.621914 0.422761 0
M  V30 14284 H 1444.12 2.84446 0.901827 0
M  V30 14285 C 1442.87 2.31293 2.59613 0
M  V30 14286 H 1442.19 3.16568 2.44182 0
M  V30 14287 H 1443.63 2.62558 3.32926 0
M  V30 14288 C 1442.09 1.14818 3.16731 0
M  V30 14289 O 1442.62 0.424105 3.99455 0
M  V30 14290 N 1440.83 0.924536 2.75501 0
M  V30 14291 H 1440.37 1.51509 2.08334 0
M  V30 14292 H 1440.33 0.147006 3.14056 0
M  V30 14293 N 1444.1 -0.461169 1.50702 0
M  V30 14294 C 1445.35 -1.21431 1.62427 0
M  V30 14295 C 1445.68 -1.91406 0.328228 0
M  V30 14296 O 1444.96 -1.82563 -0.670898 0
M  V30 14297 C 1445.24 -2.25016 2.8114 0
M  V30 14298 C 1445.09 -1.5928 4.20654 0
M  V30 14299 C 1446.41 -3.26234 2.95397 0
M  V30 14300 H 1443.53 -0.440113 0.59116 0
M  V30 14301 H 1446.17 -0.506726 1.83118 0
M  V30 14302 H 1444.32 -2.85363 2.63629 0
M  V30 14303 H 1446 -1.02454 4.49779 0
M  V30 14304 H 1444.24 -0.895665 4.24453 0
M  V30 14305 H 1444.91 -2.34602 4.99666 0
M  V30 14306 H 1447.39 -2.7592 3.1146 0
M  V30 14307 H 1446.26 -3.96031 3.80067 0
M  V30 14308 H 1446.52 -3.90943 2.06436 0
M  V30 14309 N 1445.58 -1.40446 -0.715026 0
M  V30 14310 C 1446.54 -1.40506 -1.81082 0
M  V30 14311 C 1447.54 -0.298768 -1.58 0
M  V30 14312 O 1448.73 -0.5577 -1.65031 0
M  V30 14313 C 1445.87 -1.19735 -3.19181 0
M  V30 14314 H 1447.06 -2.38034 -1.82427 0
M  V30 14315 H 1444.61 -1.26303 -0.920718 0
M  V30 14316 H 1445.35 -0.229695 -3.23486 0
M  V30 14317 H 1445.13 -1.99871 -3.37334 0
M  V30 14318 H 1446.62 -1.22566 -3.99208 0
M  V30 14319 N 1447.06 0.947303 -1.25952 0
M  V30 14320 C 1448.01 2.06642 -1.06779 0
M  V30 14321 C 1449 1.694 0.00348362 0
M  V30 14322 O 1450.21 1.79351 -0.152715 0
M  V30 14323 H 1446.58 0.676499 -0.32841 0
M  V30 14324 H 1448.55 2.19968 -2.01635 0
M  V30 14325 C 1447.3 3.40353 -0.711015 0
M  V30 14326 H 1446.63 3.69483 -1.52718 0
M  V30 14327 H 1448.07 4.19493 -0.616606 0
M  V30 14328 C 1446.52 3.3181 0.58344 0
M  V30 14329 O 1447.05 3.67431 1.6235 0
M  V30 14330 N 1445.26 2.84919 0.571797 0
M  V30 14331 H 1444.81 2.56128 -0.274962 0
M  V30 14332 H 1444.77 2.79586 1.43803 0
M  V30 14333 N 1448.54 1.07657 1.15099 0
M  V30 14334 C 1449.79 0.800025 1.85591 0
M  V30 14335 C 1450.11 -0.675973 1.82909 0
M  V30 14336 O 1449.38 -1.48971 1.27218 0
M  V30 14337 H 1447.96 0.292958 0.687157 0
M  V30 14338 H 1450.62 1.36096 1.39513 0
M  V30 14339 H 1449.72 1.13733 2.90639 0
M  V30 14340 N 1450.02 -1.31994 0.861122 0
M  V30 14341 C 1451.29 -1.91699 0.388705 0
M  V30 14342 C 1451.67 -1.78412 -1.12838 0
M  V30 14343 O 1451.02 -1.18625 -1.95296 0
M  V30 14344 C 1451.23 -3.38232 0.860248 0
M  V30 14345 C 1452.58 -4.15355 0.881201 0
M  V30 14346 O 1453.6 -3.46977 0.805313 0
M  V30 14347 O 1452.46 -5.37468 0.98945 0
M  V30 14348 H 1449.56 -0.819017 0.114629 0
M  V30 14349 H 1452.1 -1.40721 0.94845 0
M  V30 14350 H 1450.87 -3.41876 1.9036 0
M  V30 14351 H 1450.5 -3.96625 0.278316 0
M  V30 14352 N 1451.49 -0.619688 -1.44906 0
M  V30 14353 C 1452.74 -0.117147 -2.0136 0
M  V30 14354 C 1453.06 1.2644 -1.49239 0
M  V30 14355 O 1454.26 1.86034 -1.97747 0
M  V30 14356 C 1452.72 -0.15871 -3.5955 0
M  V30 14357 C 1452.33 -1.54086 -4.20668 0
M  V30 14358 C 1454.07 0.287961 -4.23522 0
M  V30 14359 C 1451.98 -1.53816 -5.71047 0
M  V30 14360 H 1450.91 -0.040028 -0.752937 0
M  V30 14361 H 1453.56 -0.776802 -1.66247 0
M  V30 14362 H 1451.94 0.56783 -3.91908 0
M  V30 14363 H 1453.11 -2.29007 -3.99865 0
M  V30 14364 H 1451.43 -1.93065 -3.68938 0
M  V30 14365 H 1454.03 0.309351 -5.33804 0
M  V30 14366 H 1454.37 1.31305 -3.9505 0
M  V30 14367 H 1454.9 -0.385707 -3.95926 0
M  V30 14368 H 1451.64 -2.54124 -6.04236 0
M  V30 14369 H 1451.16 -0.831708 -5.94006 0
M  V30 14370 H 1452.84 -1.26708 -6.34472 0
M  V30 14371 N 1452.97 1.53444 -0.359552 0
M  V30 14372 C 1454.2 2.06058 0.235576 0
M  V30 14373 C 1454.62 1.23175 1.42161 0
M  V30 14374 O 1453.98 0.249338 1.79577 0
M  V30 14375 C 1454.03 3.55351 0.613025 0
M  V30 14376 O 1453.13 3.75229 1.71104 0
M  V30 14377 H 1452.47 0.663038 0.0357266 0
M  V30 14378 H 1455 1.97923 -0.518408 0
M  V30 14379 H 1455.01 3.9827 0.885722 0
M  V30 14380 H 1453.69 4.15122 -0.254243 0
M  V30 14381 H 1452.27 3.4421 1.43437 0
M  V30 14382 N 1454.45 0.0885642 1.57351 0
M  V30 14383 C 1455.41 -0.858178 2.12528 0
M  V30 14384 C 1456.41 -1.21522 1.05304 0
M  V30 14385 O 1457.6 -1.14573 1.3122 0
M  V30 14386 C 1454.74 -2.15619 2.64048 0
M  V30 14387 H 1455.93 -0.37918 2.97493 0
M  V30 14388 H 1453.48 -0.160354 1.55475 0
M  V30 14389 H 1454.22 -2.68018 1.82584 0
M  V30 14390 H 1454 -1.90995 3.42437 0
M  V30 14391 H 1455.49 -2.83359 3.06753 0
M  V30 14392 N 1455.93 -1.56509 -0.185096 0
M  V30 14393 C 1457.16 -1.85327 -0.91986 0
M  V30 14394 C 1457.57 -0.672294 -1.76425 0
M  V30 14395 O 1456.93 0.358854 -1.78937 0
M  V30 14396 C 1456.98 -3.13047 -1.80787 0
M  V30 14397 O 1456.7 -4.26591 -0.997569 0
M  V30 14398 C 1458.2 -3.55114 -2.65347 0
M  V30 14399 H 1455.42 -0.615196 -0.267909 0
M  V30 14400 H 1457.97 -2.03622 -0.189338 0
M  V30 14401 H 1456.12 -2.96619 -2.4919 0
M  V30 14402 H 1456.53 -4.99384 -1.60362 0
M  V30 14403 H 1458.01 -4.47419 -3.23295 0
M  V30 14404 H 1458.49 -2.78576 -3.39547 0
M  V30 14405 H 1459.09 -3.74105 -2.023 0
M  V30 14406 N 1457.41 0.45317 -1.50944 0
M  V30 14407 C 1458.63 1.23136 -1.6689 0
M  V30 14408 C 1459.06 1.84639 -0.359185 0
M  V30 14409 O 1458.41 1.68106 0.678983 0
M  V30 14410 C 1458.46 2.30275 -2.77499 0
M  V30 14411 O 1457.57 3.35371 -2.39999 0
M  V30 14412 H 1456.91 0.361475 -0.556984 0
M  V30 14413 H 1459.44 0.537174 -1.97422 0
M  V30 14414 H 1459.45 2.75309 -3.01113 0
M  V30 14415 H 1458.12 1.84885 -3.72546 0
M  V30 14416 H 1456.7 2.95924 -2.26899 0
M  V30 14417 N 1458.88 1.40823 0.707568 0
M  V30 14418 C 1460.11 1.42866 1.49656 0
M  V30 14419 C 1460.53 0.0305663 1.88775 0
M  V30 14420 O 1459.88 -0.947376 1.55984 0
M  V30 14421 C 1459.94 2.32661 2.76679 0
M  V30 14422 O 1459.66 3.67028 2.39211 0
M  V30 14423 C 1461.16 2.4338 3.70514 0
M  V30 14424 H 1458.38 0.487009 0.461588 0
M  V30 14425 H 1460.92 1.84969 0.872167 0
M  V30 14426 H 1459.08 1.93898 3.35384 0
M  V30 14427 H 1459.49 4.14799 3.21002 0
M  V30 14428 H 1460.96 3.10401 4.56459 0
M  V30 14429 H 1461.44 1.46132 4.14176 0
M  V30 14430 H 1462.05 2.82728 3.17718 0
M  V30 14431 N 1460.36 -0.94061 1.26453 0
M  V30 14432 C 1461.64 -1.66421 1.02779 0
M  V30 14433 C 1462.02 -2.06429 -0.441614 0
M  V30 14434 O 1461.37 -1.78854 -1.42209 0
M  V30 14435 C 1461.58 -2.87599 1.97707 0
M  V30 14436 C 1462.93 -3.59237 2.26349 0
M  V30 14437 O 1463.95 -2.97704 1.95577 0
M  V30 14438 O 1462.81 -4.70068 2.78744 0
M  V30 14439 H 1459.9 -0.728813 0.390846 0
M  V30 14440 H 1462.45 -0.99229 1.37665 0
M  V30 14441 H 1461.22 -2.54929 2.96862 0
M  V30 14442 H 1460.84 -3.62516 1.63303 0
M  V30 14443 N 1461.84 -1.08266 -1.14527 0
M  V30 14444 C 1462.8 -0.715117 -2.17758 0
M  V30 14445 C 1463.8 0.24935 -1.58855 0
M  V30 14446 O 1464.99 0.0290846 -1.74176 0
M  V30 14447 C 1462.13 -0.055575 -3.40855 0
M  V30 14448 H 1463.32 -1.62921 -2.51787 0
M  V30 14449 H 1460.87 -0.880346 -1.2915 0
M  V30 14450 H 1461.61 0.870312 -3.12404 0
M  V30 14451 H 1461.39 -0.749382 -3.84872 0
M  V30 14452 H 1462.88 0.186592 -4.17183 0
M  V30 14453 N 1463.32 1.31536 -0.86811 0
M  V30 14454 C 1464.57 1.96045 -0.474271 0
M  V30 14455 C 1464.88 1.6939 0.978071 0
M  V30 14456 O 1466.09 2.27746 1.47797 0
M  V30 14457 C 1464.54 3.5096 -0.797203 0
M  V30 14458 C 1464.15 3.86456 -2.26618 0
M  V30 14459 C 1465.9 4.21871 -0.471745 0
M  V30 14460 C 1463.8 5.34474 -2.53162 0
M  V30 14461 H 1462.73 0.733737 -0.173627 0
M  V30 14462 H 1465.38 1.49734 -1.06076 0
M  V30 14463 H 1463.77 3.95752 -0.139994 0
M  V30 14464 H 1464.94 3.52629 -2.9663 0
M  V30 14465 H 1463.25 3.28605 -2.55749 0
M  V30 14466 H 1465.85 5.30767 -0.647317 0
M  V30 14467 H 1466.19 4.12131 0.58768 0
M  V30 14468 H 1466.73 3.82706 -1.08542 0
M  V30 14469 H 1463.47 5.49248 -3.57781 0
M  V30 14470 H 1462.99 5.6966 -1.87743 0
M  V30 14471 H 1464.67 6.01716 -2.37797 0
M  V30 14472 N 1464.8 0.627364 1.44575 0
M  V30 14473 C 1465.75 -0.0920488 2.32418 0
M  V30 14474 C 1466.74 -0.839633 1.47128 0
M  V30 14475 O 1467.95 -0.752958 1.63495 0
M  V30 14476 H 1464.32 -0.0485336 0.750432 0
M  V30 14477 H 1466.29 0.666959 2.90851 0
M  V30 14478 C 1465.04 -1.06262 3.31064 0
M  V30 14479 H 1464.36 -0.4968 3.96701 0
M  V30 14480 H 1465.8 -1.53556 3.95217 0
M  V30 14481 C 1464.26 -2.14601 2.59707 0
M  V30 14482 O 1464.79 -3.2263 2.39317 0
M  V30 14483 N 1463 -1.90431 2.19509 0
M  V30 14484 H 1462.55 -1.02584 2.36293 0
M  V30 14485 H 1462.5 -2.6312 1.72091 0
M  V30 14486 N 1466.28 -1.53251 0.367684 0
M  V30 14487 C 1467.52 -2.00889 -0.220914 0
M  V30 14488 C 1467.84 -1.25662 -1.4911 0
M  V30 14489 O 1467.11 -0.370491 -1.92365 0
M  V30 14490 H 1465.69 -0.742191 -0.0846233 0
M  V30 14491 H 1468.36 -1.88525 0.494402 0
M  V30 14492 H 1467.45 -3.08891 -0.446414 0
M  V30 14493 N 1467.75 -0.0969077 -1.57302 0
M  V30 14494 C 1468.98 0.578086 -1.99181 0
M  V30 14495 C 1469.4 1.60818 -0.975667 0
M  V30 14496 O 1468.76 1.81215 0.0556054 0
M  V30 14497 C 1468.81 1.20076 -3.40021 0
M  V30 14498 O 1467.91 2.31656 -3.41188 0
M  V30 14499 H 1467.25 0.146506 -0.647636 0
M  V30 14500 H 1469.78 -0.178855 -2.03817 0
M  V30 14501 H 1469.79 1.54162 -3.77754 0
M  V30 14502 H 1468.47 0.446114 -4.135 0
M  V30 14503 H 1467.05 1.99175 -3.15252 0
M  V30 14504 N 1469.23 1.56605 0.176793 0
M  V30 14505 C 1470.16 1.9254 1.24342 0
M  V30 14506 C 1471.18 0.81792 1.40762 0
M  V30 14507 O 1472.37 1.09636 1.40862 0
M  V30 14508 C 1469.47 2.15822 2.61293 0
M  V30 14509 C 1468.64 3.47035 2.66243 0
M  V30 14510 C 1467.7 3.5921 3.84519 0
M  V30 14511 O 1466.72 4.31876 3.70771 0
M  V30 14512 N 1467.93 2.93653 5.00748 0
M  V30 14513 H 1470.69 2.84635 0.938246 0
M  V30 14514 H 1468.25 1.57695 0.366597 0
M  V30 14515 H 1470.24 2.21237 3.38875 0
M  V30 14516 H 1468.81 1.30138 2.84223 0
M  V30 14517 H 1468.03 3.53326 1.74798 0
M  V30 14518 H 1469.32 4.33388 2.66557 0
M  V30 14519 H 1468.72 2.34476 5.14818 0
M  V30 14520 H 1467.28 3.04671 5.76211 0
M  V30 14521 N 1470.71 -0.445159 1.51182 0
M  V30 14522 C 1471.64 -1.5473 1.74874 0
M  V30 14523 C 1472.62 -1.5923 0.598323 0
M  V30 14524 O 1473.81 -1.75083 0.840219 0
M  V30 14525 C 1470.94 -2.92872 1.86664 0
M  V30 14526 C 1469.89 -3.03235 3.02048 0
M  V30 14527 C 1469.22 -4.43279 2.99012 0
M  V30 14528 C 1470.52 -2.7804 4.42144 0
M  V30 14529 H 1472.21 -1.35156 2.67158 0
M  V30 14530 H 1469.76 -0.648763 1.28558 0
M  V30 14531 H 1471.71 -3.69927 2.01822 0
M  V30 14532 H 1470.43 -3.1366 0.910225 0
M  V30 14533 H 1469.09 -2.28617 2.86583 0
M  V30 14534 H 1468.74 -4.61023 2.01163 0
M  V30 14535 H 1468.44 -4.51144 3.76488 0
M  V30 14536 H 1469.96 -5.22319 3.16252 0
M  V30 14537 H 1471.38 -3.44831 4.58 0
M  V30 14538 H 1469.77 -2.97323 5.21267 0
M  V30 14539 H 1470.84 -1.737 4.52721 0
M  V30 14540 N 1472.19 -1.41197 -0.700089 0
M  V30 14541 C 1473.42 -1.43449 -1.4868 0
M  V30 14542 C 1473.83 -0.0368799 -1.89164 0
M  V30 14543 O 1473.17 0.953129 -1.57039 0
M  V30 14544 C 1473.23 -2.27583 -2.78291 0
M  V30 14545 C 1472.89 -3.75805 -2.60038 0
M  V30 14546 C 1473.89 -4.68074 -2.2628 0
M  V30 14547 C 1471.58 -4.19796 -2.75819 0
M  V30 14548 C 1473.57 -6.02322 -2.08535 0
M  V30 14549 C 1471.26 -5.5411 -2.57692 0
M  V30 14550 C 1472.26 -6.45189 -2.24099 0
M  V30 14551 O 1471.94 -7.77025 -2.06125 0
M  V30 14552 H 1471.68 -0.490779 -0.464879 0
M  V30 14553 H 1474.23 -1.86071 -0.869864 0
M  V30 14554 H 1472.46 -1.79767 -3.42375 0
M  V30 14555 H 1474.15 -2.21591 -3.40077 0
M  V30 14556 H 1474.91 -4.35379 -2.13707 0
M  V30 14557 H 1470.79 -3.49213 -3.0095 0
M  V30 14558 H 1474.34 -6.73376 -1.82238 0
M  V30 14559 H 1470.23 -5.86386 -2.69854 0
M  V30 14560 H 1471 -7.88121 -2.20924 0
M  V30 14561 N 1473.67 0.933891 -1.2695 0
M  V30 14562 C 1474.63 2.0152 -1.0919 0
M  V30 14563 C 1475.63 1.60755 -0.037865 0
M  V30 14564 O 1476.82 1.71904 -0.281917 0
M  V30 14565 C 1473.95 3.34403 -0.66239 0
M  V30 14566 H 1475.14 2.18706 -2.05201 0
M  V30 14567 H 1472.7 1.11385 -1.0965 0
M  V30 14568 H 1473.43 3.22915 0.299388 0
M  V30 14569 H 1473.22 3.65345 -1.42356 0
M  V30 14570 H 1474.71 4.13826 -0.560187 0
M  V30 14571 N 1475.14 1.08871 1.13951 0
M  V30 14572 C 1476.39 0.822504 1.85372 0
M  V30 14573 C 1476.72 -0.650183 1.82993 0
M  V30 14574 O 1476 -1.4783 1.26398 0
M  V30 14575 C 1476.28 1.35107 3.33793 0
M  V30 14576 C 1476.13 2.88945 3.44719 0
M  V30 14577 C 1477.45 0.980203 4.29045 0
M  V30 14578 H 1474.57 0.300255 0.673065 0
M  V30 14579 H 1477.21 1.34914 1.33784 0
M  V30 14580 H 1475.36 0.903108 3.77857 0
M  V30 14581 H 1477.04 3.42148 3.09407 0
M  V30 14582 H 1475.28 3.26365 2.85777 0
M  V30 14583 H 1475.95 3.21004 4.49066 0
M  V30 14584 H 1478.43 1.36646 3.93023 0
M  V30 14585 H 1477.3 1.37717 5.31343 0
M  V30 14586 H 1477.56 -0.112253 4.41957 0
M  V30 14587 N 1476.62 -1.31073 0.875073 0
M  V30 14588 C 1477.58 -2.26672 0.339481 0
M  V30 14589 C 1478.58 -1.52416 -0.512439 0
M  V30 14590 O 1479.77 -1.71217 -0.321012 0
M  V30 14591 C 1476.91 -3.36952 -0.517311 0
M  V30 14592 H 1478.1 -2.7556 1.18349 0
M  V30 14593 H 1475.65 -1.42093 0.65109 0
M  V30 14594 H 1476.39 -2.93364 -1.38231 0
M  V30 14595 H 1476.17 -3.9199 0.092773 0
M  V30 14596 H 1477.66 -4.08133 -0.884154 0
M  V30 14597 N 1478.1 -0.635022 -1.4424 0
M  V30 14598 C 1479.05 0.0675707 -2.30701 0
M  V30 14599 C 1480.02 0.832919 -1.43707 0
M  V30 14600 O 1481.2 0.813177 -1.72604 0
M  V30 14601 C 1478.34 1.04053 -3.2904 0
M  V30 14602 C 1477.46 0.273191 -4.31135 0
M  V30 14603 C 1476.59 1.23831 -5.16565 0
M  V30 14604 C 1475.63 0.460359 -6.10366 0
M  V30 14605 N 1474.77 1.37614 -6.88481 0
M  V30 14606 H 1479.61 -0.675656 -2.90239 0
M  V30 14607 H 1477.14 -0.344971 -1.42998 0
M  V30 14608 H 1479.1 1.61805 -3.84545 0
M  V30 14609 H 1477.73 1.75084 -2.71193 0
M  V30 14610 H 1476.78 -0.420315 -3.78071 0
M  V30 14611 H 1478.1 -0.332548 -4.9769 0
M  V30 14612 H 1477.25 1.88704 -5.76607 0
M  V30 14613 H 1475.99 1.87797 -4.50093 0
M  V30 14614 H 1474.99 -0.201836 -5.49429 0
M  V30 14615 H 1476.22 -0.174639 -6.78875 0
M  V30 14616 H 1474.16 2.00294 -6.24675 0
M  V30 14617 H 1474.08 0.82452 -7.5149 0
M  V30 14618 H 1475.35 2.01359 -7.53044 0
M  V30 14619 N 1479.58 1.53054 -0.375806 0
M  V30 14620 C 1480.83 2.01003 0.210257 0
M  V30 14621 C 1481.15 1.26451 1.48442 0
M  V30 14622 O 1480.42 0.380687 1.92166 0
M  V30 14623 H 1479 0.74263 0.0806861 0
M  V30 14624 H 1481.66 1.8826 -0.504393 0
M  V30 14625 H 1480.76 3.09123 0.430027 0
M  V30 14626 N 1481.06 0.105248 1.57248 0
M  V30 14627 C 1482.3 -0.556878 1.95004 0
M  V30 14628 C 1482.64 -1.672 0.987818 0
M  V30 14629 O 1481.91 -1.94487 0.022616 0
M  V30 14630 C 1482.19 -1.10252 3.42807 0
M  V30 14631 C 1482.05 0.00823908 4.49799 0
M  V30 14632 C 1483.37 -1.99774 3.92146 0
M  V30 14633 H 1480.48 -0.200959 0.709073 0
M  V30 14634 H 1483.13 0.178019 1.89164 0
M  V30 14635 H 1481.28 -1.7288 3.47915 0
M  V30 14636 H 1482.95 0.642944 4.56797 0
M  V30 14637 H 1481.19 0.673265 4.28544 0
M  V30 14638 H 1481.86 -0.414538 5.50441 0
M  V30 14639 H 1484.34 -1.47036 3.89255 0
M  V30 14640 H 1483.21 -2.34874 4.9611 0
M  V30 14641 H 1483.48 -2.91902 3.32033 0
M  V30 14642 N 1482.53 -1.56697 -0.168486 0
M  V30 14643 C 1483.76 -1.86292 -0.900152 0
M  V30 14644 C 1484.18 -0.690968 -1.75702 0
M  V30 14645 O 1483.53 0.339855 -1.79308 0
M  V30 14646 C 1483.59 -3.14946 -1.77457 0
M  V30 14647 O 1483.31 -4.27625 -0.952267 0
M  V30 14648 C 1484.81 -3.57908 -2.61566 0
M  V30 14649 H 1482.03 -0.618003 -0.261369 0
M  V30 14650 H 1484.57 -2.03811 -0.16773 0
M  V30 14651 H 1482.73 -2.99246 -2.4603 0
M  V30 14652 H 1483.14 -5.01057 -1.55056 0
M  V30 14653 H 1484.61 -4.50823 -3.18532 0
M  V30 14654 H 1485.09 -2.82162 -3.36573 0
M  V30 14655 H 1485.7 -3.7623 -1.98321 0
M  V30 14656 N 1484.01 0.437135 -1.51416 0
M  V30 14657 C 1484.96 1.55124 -1.73319 0
M  V30 14658 C 1485.95 1.58437 -0.599511 0
M  V30 14659 O 1487.16 1.62179 -0.780896 0
M  V30 14660 H 1483.54 0.515368 -0.547632 0
M  V30 14661 H 1485.51 1.33824 -2.66709 0
M  V30 14662 C 1484.26 2.92778 -1.87554 0
M  V30 14663 H 1483.58 2.9096 -2.74194 0
M  V30 14664 H 1485.02 3.70097 -2.06891 0
M  V30 14665 C 1483.48 3.30854 -0.635408 0
M  V30 14666 O 1484.01 4.01152 0.20983 0
M  V30 14667 N 1482.21 2.86618 -0.47944 0
M  V30 14668 H 1481.76 2.29582 -1.16834 0
M  V30 14669 H 1481.72 3.12456 0.349078 0
M  V30 14670 N 1485.49 1.41566 0.692592 0
M  V30 14671 C 1486.42 1.46423 1.81886 0
M  V30 14672 C 1487.4 0.32258 1.67013 0
M  V30 14673 O 1488.59 0.534437 1.86701 0
M  V30 14674 C 1485.72 1.3486 3.20047 0
M  V30 14675 C 1484.67 2.46867 3.49629 0
M  V30 14676 C 1484 2.20369 4.87177 0
M  V30 14677 C 1485.3 3.89205 3.48306 0
M  V30 14678 H 1486.99 2.40683 1.78079 0
M  V30 14679 H 1484.54 1.15845 0.855334 0
M  V30 14680 H 1486.49 1.36869 3.98553 0
M  V30 14681 H 1485.21 0.370859 3.24488 0
M  V30 14682 H 1483.87 2.44146 2.73475 0
M  V30 14683 H 1483.52 1.20931 4.88247 0
M  V30 14684 H 1483.22 2.95426 5.07934 0
M  V30 14685 H 1484.74 2.24099 5.6799 0
M  V30 14686 H 1486.16 3.93626 4.16811 0
M  V30 14687 H 1484.56 4.63969 3.80595 0
M  V30 14688 H 1485.63 4.17144 2.47222 0
M  V30 14689 N 1486.97 -0.927146 1.27443 0
M  V30 14690 C 1487.93 -2.00938 1.10257 0
M  V30 14691 C 1488.93 -1.60733 0.0463898 0
M  V30 14692 O 1490.12 -1.71752 0.291029 0
M  V30 14693 C 1487.25 -3.34047 0.680115 0
M  V30 14694 H 1488.45 -2.17615 2.06358 0
M  V30 14695 H 1486 -1.10802 1.10239 0
M  V30 14696 H 1486.73 -3.23069 -0.282259 0
M  V30 14697 H 1486.52 -3.64585 1.44291 0
M  V30 14698 H 1488.01 -4.13523 0.582126 0
M  V30 14699 N 1488.45 -1.09474 -1.13372 0
M  V30 14700 C 1489.69 -0.82945 -1.84295 0
M  V30 14701 C 1490.02 0.646788 -1.83961 0
M  V30 14702 O 1489.29 1.46929 -1.29572 0
M  V30 14703 H 1487.87 -0.303853 -0.682409 0
M  V30 14704 H 1490.53 -1.38298 -1.3733 0
M  V30 14705 H 1489.62 -1.18342 -2.88793 0
M  V30 14706 N 1489.92 1.30607 -0.882012 0
M  V30 14707 C 1490.86 2.27177 -0.303861 0
M  V30 14708 C 1491.87 1.53587 0.539898 0
M  V30 14709 O 1493.06 1.74833 0.359931 0
M  V30 14710 C 1490.16 3.33781 0.586828 0
M  V30 14711 C 1489.33 4.3681 -0.227197 0
M  V30 14712 C 1488.39 5.22842 0.593519 0
M  V30 14713 O 1487.42 5.69197 0.0172694 0
M  V30 14714 N 1488.62 5.48414 1.90321 0
M  V30 14715 H 1491.38 2.77426 -1.13378 0
M  V30 14716 H 1488.94 1.43756 -0.744698 0
M  V30 14717 H 1490.94 3.88257 1.14186 0
M  V30 14718 H 1489.51 2.83483 1.31743 0
M  V30 14719 H 1488.73 3.82239 -0.963674 0
M  V30 14720 H 1490.01 5.02703 -0.785315 0
M  V30 14721 H 1489.41 5.1253 2.39435 0
M  V30 14722 H 1487.97 6.05778 2.40575 0
M  V30 14723 N 1491.4 0.642663 1.43901 0
M  V30 14724 C 1492.65 0.152003 2.0223 0
M  V30 14725 C 1492.98 -1.22711 1.50518 0
M  V30 14726 O 1492.26 -1.817 0.693937 0
M  V30 14727 C 1492.54 0.151278 3.59782 0
M  V30 14728 C 1492.39 1.56356 4.2175 0
M  V30 14729 C 1493.71 -0.518016 4.37041 0
M  V30 14730 H 1490.83 0.0567094 0.734815 0
M  V30 14731 H 1493.47 0.821337 1.7133 0
M  V30 14732 H 1491.62 -0.418679 3.86237 0
M  V30 14733 H 1493.29 2.18329 4.06362 0
M  V30 14734 H 1491.54 2.11401 3.78803 0
M  V30 14735 H 1492.21 1.51499 5.30803 0
M  V30 14736 H 1494.68 -0.0331947 4.16087 0
M  V30 14737 H 1493.56 -0.487754 5.46729 0
M  V30 14738 H 1493.82 -1.59036 4.12504 0
M  V30 14739 N 1492.88 -1.52852 0.383918 0
M  V30 14740 C 1493.83 -2.27828 -0.468762 0
M  V30 14741 C 1494.82 -1.31516 -1.0677 0
M  V30 14742 O 1496.03 -1.49075 -1.0088 0
M  V30 14743 H 1492.4 -0.732552 -0.169917 0
M  V30 14744 H 1494.38 -2.97825 0.185124 0
M  V30 14745 C 1493.12 -3.09378 -1.58683 0
M  V30 14746 H 1492.45 -3.83343 -1.13527 0
M  V30 14747 H 1493.89 -3.64987 -2.15779 0
M  V30 14748 C 1492.35 -2.21354 -2.53976 0
M  V30 14749 O 1492.88 -1.83668 -3.57252 0
M  V30 14750 N 1491.08 -1.85621 -2.23591 0
M  V30 14751 H 1490.63 -2.16467 -1.39642 0
M  V30 14752 H 1490.59 -1.27015 -2.87602 0
M  V30 14753 N 1494.36 -0.113586 -1.5719 0
M  V30 14754 C 1495.31 0.855985 -2.16277 0
M  V30 14755 C 1496.3 1.2792 -1.11053 0
M  V30 14756 O 1497.51 1.25158 -1.29366 0
M  V30 14757 H 1493.88 0.294134 -0.692091 0
M  V30 14758 H 1495.85 0.333109 -2.96535 0
M  V30 14759 C 1494.6 2.09832 -2.77247 0
M  V30 14760 H 1493.93 1.78158 -3.5791 0
M  V30 14761 H 1495.37 2.7569 -3.22135 0
M  V30 14762 C 1493.82 2.88453 -1.74059 0
M  V30 14763 O 1494.35 3.83648 -1.19068 0
M  V30 14764 N 1492.56 2.52342 -1.44124 0
M  V30 14765 H 1492.11 1.74998 -1.89033 0
M  V30 14766 H 1492.07 3.05244 -0.753234 0
M  V30 14767 N 1495.84 1.56784 0.160173 0
M  V30 14768 C 1496.77 2.00298 1.20012 0
M  V30 14769 C 1497.75 0.880356 1.45546 0
M  V30 14770 O 1498.93 1.14724 1.56691 0
M  V30 14771 C 1496.06 2.37238 2.53645 0
M  V30 14772 C 1495.02 3.52563 2.42658 0
M  V30 14773 C 1494.34 3.75278 3.80881 0
M  V30 14774 C 1495.64 4.85657 1.92183 0
M  V30 14775 H 1497.34 2.87423 0.838362 0
M  V30 14776 H 1494.88 1.3828 0.401838 0
M  V30 14777 H 1496.84 2.66278 3.2661 0
M  V30 14778 H 1495.56 1.47035 2.9163 0
M  V30 14779 H 1494.22 3.23669 1.72146 0
M  V30 14780 H 1493.87 2.82347 4.1628 0
M  V30 14781 H 1493.57 4.52882 3.74396 0
M  V30 14782 H 1495.09 4.0673 4.55415 0
M  V30 14783 H 1496.51 5.13501 2.54931 0
M  V30 14784 H 1494.9 5.66975 1.96619 0
M  V30 14785 H 1495.97 4.76908 0.876742 0
M  V30 14786 N 1497.32 -0.429099 1.51646 0
M  V30 14787 C 1498.23 -1.54648 1.76412 0
M  V30 14788 C 1499.24 -1.61455 0.648703 0
M  V30 14789 O 1500.42 -1.78544 0.931888 0
M  V30 14790 C 1497.48 -2.90562 1.89142 0
M  V30 14791 C 1496.54 -2.93804 3.13014 0
M  V30 14792 C 1495.78 -4.23235 3.25127 0
M  V30 14793 O 1496 -5.1606 2.42979 0
M  V30 14794 O 1494.93 -4.32929 4.18158 0
M  V30 14795 H 1498.76 -1.36661 2.71215 0
M  V30 14796 H 1496.34 -0.612946 1.36247 0
M  V30 14797 H 1498.23 -3.7121 1.99453 0
M  V30 14798 H 1496.9 -3.08659 0.975272 0
M  V30 14799 H 1495.81 -2.12082 3.08175 0
M  V30 14800 H 1497.14 -2.80654 4.04344 0
M  V30 14801 N 1498.79 -1.41931 -0.685074 0
M  V30 14802 C 1500.04 -1.41571 -1.44229 0
M  V30 14803 C 1500.36 -0.0294445 -1.94978 0
M  V30 14804 O 1499.63 0.930414 -1.72395 0
M  V30 14805 H 1498.21 -0.521138 -0.535186 0
M  V30 14806 H 1500.87 -1.77263 -0.81017 0
M  V30 14807 H 1499.97 -2.10929 -2.30034 0
M  V30 14808 N 1500.27 0.920374 -1.27933 0
M  V30 14809 C 1501.22 2.02196 -1.1129 0
M  V30 14810 C 1502.19 1.66096 -0.0118871 0
M  V30 14811 O 1503.37 1.8999 -0.175586 0
M  V30 14812 C 1500.51 3.36312 -0.77383 0
M  V30 14813 C 1499.63 3.85322 -1.95322 0
M  V30 14814 C 1498.76 5.07919 -1.55537 0
M  V30 14815 C 1497.8 5.49244 -2.7018 0
M  V30 14816 N 1496.94 6.63034 -2.30933 0
M  V30 14817 H 1501.78 2.15764 -2.05548 0
M  V30 14818 H 1499.31 1.05691 -1.02312 0
M  V30 14819 H 1501.27 4.13451 -0.558024 0
M  V30 14820 H 1499.9 3.22531 0.131806 0
M  V30 14821 H 1498.95 3.04399 -2.28135 0
M  V30 14822 H 1500.27 4.11915 -2.81296 0
M  V30 14823 H 1499.42 5.92581 -1.30123 0
M  V30 14824 H 1498.16 4.8312 -0.666818 0
M  V30 14825 H 1497.16 4.63127 -2.96299 0
M  V30 14826 H 1498.39 5.76035 -3.59667 0
M  V30 14827 H 1496.34 6.39878 -1.44539 0
M  V30 14828 H 1496.25 6.89319 -3.10444 0
M  V30 14829 H 1497.52 7.51018 -2.08786 0
M  V30 14830 N 1501.75 1.10074 1.1279 0
M  V30 14831 C 1503 0.842118 1.84489 0
M  V30 14832 C 1503.33 -0.630737 1.83672 0
M  V30 14833 O 1502.6 -1.46481 1.27959 0
M  V30 14834 C 1502.89 1.3864 3.32342 0
M  V30 14835 C 1502.74 2.92585 3.41635 0
M  V30 14836 C 1504.06 1.02565 4.27982 0
M  V30 14837 H 1501.18 0.307376 0.669842 0
M  V30 14838 H 1503.82 1.36326 1.32345 0
M  V30 14839 H 1501.97 0.943134 3.76878 0
M  V30 14840 H 1503.64 3.4541 3.0576 0
M  V30 14841 H 1501.88 3.29378 2.82299 0
M  V30 14842 H 1502.56 3.25749 4.45636 0
M  V30 14843 H 1505.03 1.40807 3.91552 0
M  V30 14844 H 1503.91 1.43345 5.29852 0
M  V30 14845 H 1504.17 -0.0653712 4.42052 0
M  V30 14846 N 1503.23 -1.30138 0.888926 0
M  V30 14847 C 1504.18 -2.29979 0.348212 0
M  V30 14848 C 1505.17 -1.60329 -0.546894 0
M  V30 14849 O 1506.38 -1.74767 -0.43089 0
M  V30 14850 H 1502.75 -0.746107 0.0939563 0
M  V30 14851 H 1504.72 -2.73038 1.20385 0
M  V30 14852 C 1503.47 -3.45169 -0.418762 0
M  V30 14853 H 1502.79 -3.98949 0.260761 0
M  V30 14854 H 1504.23 -4.17094 -0.762133 0
M  V30 14855 C 1502.69 -2.95539 -1.61734 0
M  V30 14856 O 1503.22 -2.95902 -2.7167 0
M  V30 14857 N 1501.43 -2.51502 -1.45585 0
M  V30 14858 H 1500.98 -2.51406 -0.561483 0
M  V30 14859 H 1500.93 -2.18654 -2.25916 0
M  V30 14860 N 1504.71 -0.650285 -1.43559 0
M  V30 14861 C 1505.65 0.043098 -2.3076 0
M  V30 14862 C 1506.62 0.81763 -1.44582 0
M  V30 14863 O 1507.81 0.794825 -1.73457 0
M  V30 14864 C 1504.95 1.00557 -3.30125 0
M  V30 14865 C 1504.06 0.227448 -4.31401 0
M  V30 14866 C 1503.2 1.18345 -5.17849 0
M  V30 14867 C 1502.23 0.395596 -6.1082 0
M  V30 14868 N 1501.37 1.30304 -6.89902 0
M  V30 14869 H 1506.21 -0.706402 -2.89506 0
M  V30 14870 H 1503.75 -0.360118 -1.42624 0
M  V30 14871 H 1505.71 1.57717 -3.8624 0
M  V30 14872 H 1504.34 1.72198 -2.73034 0
M  V30 14873 H 1503.39 -0.460391 -3.77604 0
M  V30 14874 H 1504.7 -0.385316 -4.9731 0
M  V30 14875 H 1503.85 1.82578 -5.78576 0
M  V30 14876 H 1502.59 1.83013 -4.52059 0
M  V30 14877 H 1501.6 -0.260099 -5.49184 0
M  V30 14878 H 1502.82 -0.246633 -6.78652 0
M  V30 14879 H 1500.77 1.93657 -6.26764 0
M  V30 14880 H 1500.69 0.744768 -7.52323 0
M  V30 14881 H 1501.95 1.93361 -7.55137 0
M  V30 14882 N 1506.18 1.52647 -0.392018 0
M  V30 14883 C 1507.43 2.01912 0.18958 0
M  V30 14884 C 1507.76 1.27786 1.46234 0
M  V30 14885 O 1507.04 0.379124 1.90769 0
M  V30 14886 C 1507.32 3.57217 0.454734 0
M  V30 14887 C 1507.17 4.4201 -0.833501 0
M  V30 14888 C 1508.49 4.22146 1.24421 0
M  V30 14889 H 1505.61 0.733909 0.0674281 0
M  V30 14890 H 1508.25 1.82685 -0.52212 0
M  V30 14891 H 1506.4 3.73731 1.06101 0
M  V30 14892 H 1508.08 4.37242 -1.47027 0
M  V30 14893 H 1506.32 4.08912 -1.44823 0
M  V30 14894 H 1506.99 5.48701 -0.602585 0
M  V30 14895 H 1509.47 4.09627 0.731093 0
M  V30 14896 H 1508.34 5.30786 1.39848 0
M  V30 14897 H 1508.6 3.7996 2.26016 0
M  V30 14898 N 1507.66 0.121921 1.57128 0
M  V30 14899 C 1508.91 -0.534313 1.94909 0
M  V30 14900 C 1509.23 -1.67029 1.0063 0
M  V30 14901 O 1508.5 -1.95798 0.0631366 0
M  V30 14902 H 1507.08 -0.200372 0.719625 0
M  V30 14903 H 1509.74 0.191546 1.93956 0
M  V30 14904 H 1508.84 -0.926974 2.98016 0
M  V30 14905 N 1509.14 -1.56867 -0.151857 0
M  V30 14906 C 1510.09 -1.97899 -1.18763 0
M  V30 14907 C 1511.06 -0.845833 -1.42951 0
M  V30 14908 O 1512.24 -1.10751 -1.55367 0
M  V30 14909 C 1509.38 -2.36063 -2.5173 0
M  V30 14910 C 1508.5 -3.62647 -2.34757 0
M  V30 14911 C 1507.63 -3.89936 -3.60726 0
M  V30 14912 C 1506.67 -5.09806 -3.38769 0
M  V30 14913 N 1505.81 -5.33129 -4.56856 0
M  V30 14914 H 1510.65 -2.86187 -0.830713 0
M  V30 14915 H 1508.18 -1.41592 -0.398745 0
M  V30 14916 H 1510.14 -2.56218 -3.29254 0
M  V30 14917 H 1508.77 -1.50861 -2.85379 0
M  V30 14918 H 1507.82 -3.50297 -1.48312 0
M  V30 14919 H 1509.14 -4.50328 -2.1449 0
M  V30 14920 H 1508.29 -4.10563 -4.4668 0
M  V30 14921 H 1507.03 -3.00668 -3.83993 0
M  V30 14922 H 1506.03 -4.89057 -2.51203 0
M  V30 14923 H 1507.26 -6.00623 -3.16906 0
M  V30 14924 H 1505.2 -4.46815 -4.80305 0
M  V30 14925 H 1505.12 -6.1507 -4.39574 0
M  V30 14926 H 1506.39 -5.5825 -5.44038 0
M  V30 14927 N 1510.62 0.421051 -1.51871 0
M  V30 14928 C 1512.03 0.758781 -1.40409 0
M  V30 14929 C 1512.23 1.95219 -0.499197 0
M  V30 14930 O 1511.29 2.52469 0.0395216 0
M  V30 14931 C 1512.6 1.02388 -2.82731 0
M  V30 14932 C 1514.15 1.12733 -2.91994 0
M  V30 14933 C 1514.63 1.42527 -4.35259 0
M  V30 14934 N 1516.12 1.49417 -4.38439 0
M  V30 14935 C 1516.85 1.74074 -5.46339 0
M  V30 14936 N 1516.35 1.96414 -6.64375 0
M  V30 14937 N 1518.14 1.7599 -5.33839 0
M  V30 14938 H 1510.29 -0.364682 -2.09246 0
M  V30 14939 H 1512.56 -0.100819 -0.942624 0
M  V30 14940 H 1512.26 0.219491 -3.51014 0
M  V30 14941 H 1512.14 1.94724 -3.23052 0
M  V30 14942 H 1514.52 1.92233 -2.23899 0
M  V30 14943 H 1514.6 0.182611 -2.55147 0
M  V30 14944 H 1514.25 0.635486 -5.03909 0
M  V30 14945 H 1514.18 2.38231 -4.69631 0
M  V30 14946 H 1516.67 1.3399 -3.53348 0
M  V30 14947 H 1516.98 2.14644 -7.42393 0
M  V30 14948 H 1515.33 1.93702 -6.67461 0
M  V30 14949 H 1518.52 1.58067 -4.40605 0
M  V30 14950 H 1518.69 1.94868 -6.18005 0
M  V30 14951 N 1512.1 1.42293 0.677538 0
M  V30 14952 C 1513.06 1.45258 1.77293 0
M  V30 14953 C 1514.06 0.340554 1.57152 0
M  V30 14954 O 1515.25 0.601259 1.63495 0
M  V30 14955 C 1512.38 1.28156 3.15894 0
M  V30 14956 H 1513.57 2.42787 1.76052 0
M  V30 14957 H 1511.13 1.287 0.886908 0
M  V30 14958 H 1511.86 0.315381 3.22763 0
M  V30 14959 H 1511.65 2.08744 3.31916 0
M  V30 14960 H 1513.14 1.33107 3.95818 0
M  V30 14961 N 1513.57 -0.913576 1.28419 0
M  V30 14962 C 1514.85 -1.64203 1.06285 0
M  V30 14963 C 1515.23 -2.07319 -0.397728 0
M  V30 14964 O 1514.58 -1.8183 -1.38383 0
M  V30 14965 C 1514.79 -2.8334 2.03763 0
M  V30 14966 C 1516.14 -3.54355 2.33918 0
M  V30 14967 O 1517.16 -2.93489 2.01848 0
M  V30 14968 O 1516.02 -4.6405 2.88652 0
M  V30 14969 H 1513.11 -0.720359 0.406217 0
M  V30 14970 H 1515.66 -0.962866 1.39739 0
M  V30 14971 H 1514.43 -2.48575 3.02203 0
M  V30 14972 H 1514.06 -3.5897 1.70956 0
M  V30 14973 N 1515.05 -1.1067 -1.12204 0
M  V30 14974 C 1516.02 -0.761145 -2.16193 0
M  V30 14975 C 1517.02 0.215599 -1.59348 0
M  V30 14976 O 1518.21 -0.00786723 -1.74198 0
M  V30 14977 C 1515.34 -0.127863 -3.4066 0
M  V30 14978 H 1516.53 -1.68225 -2.48275 0
M  V30 14979 H 1514.08 -0.907542 -1.27253 0
M  V30 14980 H 1514.82 0.803851 -3.14179 0
M  V30 14981 H 1514.6 -0.83085 -3.83196 0
M  V30 14982 H 1516.09 0.0980593 -4.17485 0
M  V30 14983 N 1516.53 1.29665 -0.895815 0
M  V30 14984 C 1517.78 1.9533 -0.518725 0
M  V30 14985 C 1518.1 1.70995 0.937322 0
M  V30 14986 O 1517.37 1.03955 1.66043 0
M  V30 14987 H 1515.95 0.722736 -0.188841 0
M  V30 14988 H 1518.61 1.57991 -1.14126 0
M  V30 14989 H 1517.71 3.04193 -0.698057 0
M  V30 14990 N 1518.01 0.657889 1.43212 0
M  V30 14991 C 1519.24 0.181072 2.06106 0
M  V30 14992 C 1519.65 -1.15513 1.49339 0
M  V30 14993 O 1519.01 -1.71409 0.626517 0
M  V30 14994 C 1519.06 0.0890244 3.6139 0
M  V30 14995 O 1518.78 1.37241 4.16049 0
M  V30 14996 C 1520.28 -0.413313 4.41369 0
M  V30 14997 H 1517.5 0.0920577 0.664655 0
M  V30 14998 H 1520.05 0.899855 1.83638 0
M  V30 14999 H 1518.2 -0.580345 3.83028 0
M  V30 15000 H 1518.61 1.23467 5.09761 0
M  V30 15001 H 1520.09 -0.426663 5.50349 0
M  V30 15002 H 1520.57 -1.44549 4.14731 0
M  V30 15003 H 1521.17 0.223727 4.24711 0
M  V30 15004 N 1519.49 -1.52437 0.400108 0
M  V30 15005 C 1520.45 -2.2536 -0.417808 0
M  V30 15006 C 1521.45 -1.27393 -0.981204 0
M  V30 15007 O 1522.64 -1.51406 -0.861503 0
M  V30 15008 C 1519.77 -3.01695 -1.58724 0
M  V30 15009 H 1520.96 -2.99086 0.220782 0
M  V30 15010 H 1518.52 -1.55555 0.152439 0
M  V30 15011 H 1519.25 -2.32295 -2.26295 0
M  V30 15012 H 1519.04 -3.73611 -1.18984 0
M  V30 15013 H 1520.53 -3.57033 -2.16604 0
M  V30 15014 N 1520.96 -0.130252 -1.57061 0
M  V30 15015 C 1522.19 0.535707 -2.00362 0
M  V30 15016 C 1522.61 1.58712 -1.00956 0
M  V30 15017 O 1521.97 1.81292 0.0171546 0
M  V30 15018 C 1522.02 1.12836 -3.42491 0
M  V30 15019 O 1521.12 2.24367 -3.46025 0
M  V30 15020 H 1520.47 0.132735 -0.650598 0
M  V30 15021 H 1523 -0.222047 -2.03392 0
M  V30 15022 H 1523.01 1.46115 -3.80939 0
M  V30 15023 H 1521.68 0.358304 -4.14354 0
M  V30 15024 H 1520.26 1.92443 -3.19406 0
M  V30 15025 N 1522.44 1.56945 0.143535 0
M  V30 15026 C 1523.41 1.97616 1.16106 0
M  V30 15027 C 1524.41 0.863113 1.35672 0
M  V30 15028 O 1525.6 1.12966 1.32606 0
M  V30 15029 C 1522.73 2.29511 2.52067 0
M  V30 15030 H 1523.92 2.88696 0.812066 0
M  V30 15031 H 1521.47 1.51433 0.386999 0
M  V30 15032 H 1522.21 1.41233 2.91931 0
M  V30 15033 H 1521.99 3.10667 2.39225 0
M  V30 15034 H 1523.48 2.61802 3.25345 0
M  V30 15035 N 1523.92 -0.412991 1.52093 0
M  V30 15036 C 1524.85 -1.50986 1.78117 0
M  V30 15037 C 1525.83 -1.57925 0.631963 0
M  V30 15038 O 1527.02 -1.73261 0.877168 0
M  V30 15039 C 1524.15 -2.88846 1.92835 0
M  V30 15040 C 1523.1 -2.96759 3.08412 0
M  V30 15041 C 1522.43 -4.36837 3.08347 0
M  V30 15042 C 1523.73 -2.68599 4.47942 0
M  V30 15043 H 1525.42 -1.29459 2.69964 0
M  V30 15044 H 1522.97 -0.621348 1.29905 0
M  V30 15045 H 1524.92 -3.65563 2.09623 0
M  V30 15046 H 1523.64 -3.11658 0.976553 0
M  V30 15047 H 1522.3 -2.22487 2.91368 0
M  V30 15048 H 1521.95 -4.56652 2.10897 0
M  V30 15049 H 1521.65 -4.43056 3.85973 0
M  V30 15050 H 1523.18 -5.15493 3.2726 0
M  V30 15051 H 1524.59 -3.35039 4.65212 0
M  V30 15052 H 1522.99 -2.86199 5.27456 0
M  V30 15053 H 1524.06 -1.64058 4.56304 0
M  V30 15054 N 1525.4 -1.4265 -0.669982 0
M  V30 15055 C 1526.36 -1.46196 -1.7652 0
M  V30 15056 C 1527.36 -0.348884 -1.5697 0
M  V30 15057 O 1528.55 -0.609921 -1.63174 0
M  V30 15058 C 1525.68 -1.29829 -3.1521 0
M  V30 15059 H 1526.88 -2.43718 -1.74762 0
M  V30 15060 H 1524.43 -1.29168 -0.88007 0
M  V30 15061 H 1525.17 -0.332493 -3.22591 0
M  V30 15062 H 1524.95 -2.10501 -3.30804 0
M  V30 15063 H 1526.44 -1.35205 -3.95107 0
M  V30 15064 N 1526.88 0.906753 -1.28902 0
M  V30 15065 C 1527.84 1.99158 -1.1344 0
M  V30 15066 C 1528.84 1.60639 -0.0719551 0
M  V30 15067 O 1530.03 1.71267 -0.318317 0
M  V30 15068 C 1527.16 3.32923 -0.733172 0
M  V30 15069 H 1528.36 2.14305 -2.09794 0
M  V30 15070 H 1525.91 1.09034 -1.11988 0
M  V30 15071 H 1526.64 3.23477 0.230826 0
M  V30 15072 H 1526.43 3.62244 -1.50073 0
M  V30 15073 H 1527.92 4.12544 -0.64784 0
M  V30 15074 N 1528.36 1.11264 1.11616 0
M  V30 15075 C 1529.58 0.88306 1.87661 0
M  V30 15076 C 1530.01 -0.561586 1.79521 0
M  V30 15077 O 1529.36 -1.3964 1.1563 0
M  V30 15078 C 1529.41 1.34698 3.34498 0
M  V30 15079 O 1528.52 0.517512 4.0914 0
M  V30 15080 H 1527.86 0.318233 0.582772 0
M  V30 15081 H 1530.39 1.48164 1.41098 0
M  V30 15082 H 1530.4 1.34068 3.85344 0
M  V30 15083 H 1529.07 2.39896 3.39739 0
M  V30 15084 H 1527.65 0.589751 3.68207 0
M  V30 15085 N 1529.83 -1.29188 0.902679 0
M  V30 15086 C 1530.77 -2.26665 0.339964 0
M  V30 15087 C 1531.78 -1.54426 -0.515396 0
M  V30 15088 O 1532.97 -1.75384 -0.332071 0
M  V30 15089 C 1530.07 -3.34672 -0.533653 0
M  V30 15090 C 1529.24 -4.36393 0.296661 0
M  V30 15091 C 1528.3 -5.2372 -0.510264 0
M  V30 15092 O 1527.33 -5.69153 0.0732871 0
M  V30 15093 N 1528.53 -5.51373 -1.81572 0
M  V30 15094 H 1531.29 -2.75588 1.17778 0
M  V30 15095 H 1528.85 -1.42553 0.767474 0
M  V30 15096 H 1530.85 -3.90025 -1.07995 0
M  V30 15097 H 1529.42 -2.85543 -1.27216 0
M  V30 15098 H 1528.64 -3.80658 1.02436 0
M  V30 15099 H 1529.92 -5.0139 0.865191 0
M  V30 15100 H 1529.32 -5.16275 -2.31251 0
M  V30 15101 H 1527.88 -6.09528 -2.30908 0
M  V30 15102 N 1531.31 -0.665475 -1.42861 0
M  V30 15103 C 1532.24 0.00482845 -2.335 0
M  V30 15104 C 1533.22 0.799135 -1.50159 0
M  V30 15105 O 1534.41 0.75816 -1.78789 0
M  V30 15106 C 1531.54 0.963347 -3.33672 0
M  V30 15107 C 1530.49 0.278294 -4.27094 0
M  V30 15108 C 1529.82 1.34911 -5.174 0
M  V30 15109 C 1531.12 -0.836925 -5.15551 0
M  V30 15110 H 1532.81 -0.752129 -2.89799 0
M  V30 15111 H 1530.36 -0.363139 -1.39346 0
M  V30 15112 H 1532.31 1.44128 -3.95986 0
M  V30 15113 H 1531.03 1.75161 -2.75656 0
M  V30 15114 H 1529.69 -0.179314 -3.66161 0
M  V30 15115 H 1529.34 2.12912 -4.55716 0
M  V30 15116 H 1529.04 0.895919 -5.8073 0
M  V30 15117 H 1530.57 1.82816 -5.8259 0
M  V30 15118 H 1531.98 -0.440617 -5.71604 0
M  V30 15119 H 1530.38 -1.21533 -5.87665 0
M  V30 15120 H 1531.45 -1.6897 -4.54507 0
M  V30 15121 N 1532.79 1.52222 -0.408187 0
M  V30 15122 C 1534.2 1.86598 0.0616213 0
M  V30 15123 C 1534.55 1.32698 1.44519 0
M  V30 15124 O 1533.68 0.665883 2.059 0
M  V30 15125 C 1534.27 3.38592 0.118595 0
M  V30 15126 C 1532.83 3.72611 0.532737 0
M  V30 15127 C 1531.98 2.75744 -0.293356 0
M  V30 15128 H 1534.93 1.45862 -0.625291 0
M  V30 15129 H 1534.95 3.68858 0.934039 0
M  V30 15130 H 1534.46 3.77792 -0.888516 0
M  V30 15131 H 1532.56 3.38989 1.54652 0
M  V30 15132 H 1532.68 4.78294 0.277777 0
M  V30 15133 H 1531.04 2.53527 0.244166 0
M  V30 15134 H 1531.82 3.17783 -1.2988 0
M  V30 15135 N 1534.27 0.138579 1.5699 0
M  V30 15136 C 1535.2 -0.835134 2.13444 0
M  V30 15137 C 1536.21 -1.21657 1.08183 0
M  V30 15138 O 1537.4 -1.16211 1.35489 0
M  V30 15139 C 1534.5 -2.13086 2.63529 0
M  V30 15140 C 1533.67 -1.9181 3.931 0
M  V30 15141 C 1532.73 -3.05293 4.28582 0
M  V30 15142 O 1531.76 -2.77351 4.97056 0
M  V30 15143 N 1532.96 -4.32248 3.87482 0
M  V30 15144 H 1535.73 -0.352693 2.97617 0
M  V30 15145 H 1533.29 -0.0452536 1.61837 0
M  V30 15146 H 1535.28 -2.88036 2.84284 0
M  V30 15147 H 1533.85 -2.52619 1.84127 0
M  V30 15148 H 1533.07 -1.00943 3.81057 0
M  V30 15149 H 1534.36 -1.74923 4.77786 0
M  V30 15150 H 1533.76 -4.5782 3.32292 0
M  V30 15151 H 1532.31 -5.04006 4.13305 0
M  V30 15152 N 1535.75 -1.57019 -0.13521 0
M  V30 15153 C 1536.71 -1.98229 -1.15056 0
M  V30 15154 C 1537.71 -0.870295 -1.35213 0
M  V30 15155 O 1538.9 -1.13668 -1.32005 0
M  V30 15156 C 1536.03 -2.30844 -2.50846 0
M  V30 15157 H 1537.22 -2.89123 -0.796744 0
M  V30 15158 H 1534.78 -1.51636 -0.378962 0
M  V30 15159 H 1535.51 -1.42779 -2.91178 0
M  V30 15160 H 1535.3 -3.11931 -2.37574 0
M  V30 15161 H 1536.79 -2.63524 -3.23952 0
M  V30 15162 N 1537.22 0.404919 -1.52309 0
M  V30 15163 C 1538.45 1.17309 -1.70429 0
M  V30 15164 C 1538.87 1.84169 -0.415617 0
M  V30 15165 O 1538.22 1.7205 0.608693 0
M  V30 15166 C 1538.28 2.23306 -2.84282 0
M  V30 15167 O 1538 1.59176 -4.0816 0
M  V30 15168 C 1539.5 3.12972 -3.13948 0
M  V30 15169 H 1536.72 0.352348 -0.571045 0
M  V30 15170 H 1539.26 0.475851 -1.98887 0
M  V30 15171 H 1537.42 2.88693 -2.58332 0
M  V30 15172 H 1537.83 2.29481 -4.71634 0
M  V30 15173 H 1539.3 3.83411 -3.97115 0
M  V30 15174 H 1539.78 3.75582 -2.27672 0
M  V30 15175 H 1540.39 2.53251 -3.41678 0
M  V30 15176 N 1538.7 1.43003 0.662408 0
M  V30 15177 C 1539.64 1.4189 1.78725 0
M  V30 15178 C 1540.61 0.281515 1.60144 0
M  V30 15179 O 1541.8 0.473677 1.82452 0
M  V30 15180 C 1538.92 1.22166 3.159 0
M  V30 15181 C 1537.97 2.39061 3.53203 0
M  V30 15182 S 1538.8 4.01607 3.54221 0
M  V30 15183 C 1539.96 3.84249 4.94068 0
M  V30 15184 H 1540.19 2.37073 1.79398 0
M  V30 15185 H 1537.73 1.29924 0.834214 0
M  V30 15186 H 1539.68 1.11474 3.95074 0
M  V30 15187 H 1538.34 0.285468 3.128 0
M  V30 15188 H 1537.54 2.21041 4.52943 0
M  V30 15189 H 1537.14 2.46331 2.81419 0
M  V30 15190 H 1539.43 3.46006 5.82483 0
M  V30 15191 H 1540.37 4.83709 5.17138 0
M  V30 15192 H 1540.78 3.16879 4.6717 0
M  V30 15193 N 1540.18 -0.899904 1.29381 0
M  V30 15194 C 1541.59 -1.46563 1.15655 0
M  V30 15195 C 1541.94 -1.94622 -0.248375 0
M  V30 15196 O 1541.07 -1.83698 -1.14386 0
M  V30 15197 C 1541.66 -2.66384 2.09344 0
M  V30 15198 C 1540.22 -3.19093 1.99641 0
M  V30 15199 C 1539.37 -1.91786 2.00283 0
M  V30 15200 H 1542.32 -0.711264 1.41869 0
M  V30 15201 H 1542.34 -3.42111 1.66554 0
M  V30 15202 H 1541.85 -2.31376 3.11587 0
M  V30 15203 H 1539.95 -3.58795 1.00485 0
M  V30 15204 H 1540.07 -3.83405 2.87293 0
M  V30 15205 H 1538.43 -2.09482 1.44878 0
M  V30 15206 H 1539.21 -1.59055 3.04231 0
M  V30 15207 N 1541.66 -1.11854 -1.11024 0
M  V30 15208 C 1542.91 -0.868355 -1.82494 0
M  V30 15209 C 1543.23 0.607622 -1.85292 0
M  V30 15210 O 1542.5 1.44147 -1.32659 0
M  V30 15211 H 1541.08 -0.31826 -0.67581 0
M  V30 15212 H 1543.74 -1.4118 -1.34366 0
M  V30 15213 H 1542.84 -1.24441 -2.86218 0
M  V30 15214 N 1543.14 1.28707 -0.909517 0
M  V30 15215 C 1544.08 2.27427 -0.393155 0
M  V30 15216 C 1545.05 1.57414 0.53009 0
M  V30 15217 O 1546.24 1.85339 0.453205 0
M  V30 15218 C 1543.38 3.4317 0.364507 0
M  V30 15219 C 1542.49 4.27942 -0.590757 0
M  V30 15220 C 1541.63 5.30878 0.184931 0
M  V30 15221 C 1540.67 6.07311 -0.764222 0
M  V30 15222 N 1539.8 7.02096 -0.0223203 0
M  V30 15223 H 1544.64 2.70974 -1.24005 0
M  V30 15224 H 1542.18 1.33265 -0.6228 0
M  V30 15225 H 1544.14 4.09063 0.819937 0
M  V30 15226 H 1542.77 3.00625 1.17578 0
M  V30 15227 H 1541.82 3.62131 -1.16471 0
M  V30 15228 H 1543.13 4.81102 -1.31689 0
M  V30 15229 H 1542.29 6.02635 0.701116 0
M  V30 15230 H 1541.02 4.78474 0.944143 0
M  V30 15231 H 1540.03 5.34408 -1.29182 0
M  V30 15232 H 1541.25 6.61804 -1.52292 0
M  V30 15233 H 1539.2 6.52048 0.718978 0
M  V30 15234 H 1539.12 7.5286 -0.688359 0
M  V30 15235 H 1540.39 7.78059 0.473807 0
M  V30 15236 N 1544.61 0.673042 1.42506 0
M  V30 15237 C 1545.84 0.201349 2.0642 0
M  V30 15238 C 1546.26 -1.132 1.50224 0
M  V30 15239 O 1545.62 -1.70368 0.620024 0
M  V30 15240 C 1545.67 0.14505 3.60308 0
M  V30 15241 O 1544.77 -0.886953 4.02749 0
M  V30 15242 H 1544.12 0.103975 0.655809 0
M  V30 15243 H 1546.65 0.921559 1.8267 0
M  V30 15244 H 1546.66 -0.0316792 4.07988 0
M  V30 15245 H 1545.33 1.11829 4.00583 0
M  V30 15246 H 1543.91 -0.681408 3.66621 0
M  V30 15247 N 1546.09 -1.52004 0.416254 0
M  V30 15248 C 1547.03 -2.2371 -0.450474 0
M  V30 15249 C 1548 -1.24812 -1.04215 0
M  V30 15250 O 1549.19 -1.53885 -1.08866 0
M  V30 15251 C 1546.31 -2.97122 -1.62592 0
M  V30 15252 C 1545.36 -4.10508 -1.15695 0
M  V30 15253 S 1546.19 -5.35374 -0.116239 0
M  V30 15254 C 1547.35 -6.12318 -1.29684 0
M  V30 15255 H 1547.58 -2.96878 0.158361 0
M  V30 15256 H 1545.12 -1.53091 0.200602 0
M  V30 15257 H 1547.07 -3.40022 -2.2999 0
M  V30 15258 H 1545.73 -2.23583 -2.20611 0
M  V30 15259 H 1544.93 -4.61075 -2.03534 0
M  V30 15260 H 1544.53 -3.69761 -0.561518 0
M  V30 15261 H 1546.82 -6.40125 -2.21914 0
M  V30 15262 H 1547.76 -7.032 -0.831569 0
M  V30 15263 H 1548.17 -5.43487 -1.52586 0
M  V30 15264 N 1547.57 -0.146903 -1.56914 0
M  V30 15265 C 1548.82 0.504981 -1.96412 0
M  V30 15266 C 1549.15 1.64522 -1.0318 0
M  V30 15267 O 1548.42 1.94359 -0.0741728 0
M  V30 15268 C 1548.71 1.01125 -3.45609 0
M  V30 15269 C 1548.56 -0.127493 -4.49619 0
M  V30 15270 C 1549.88 1.89306 -3.97305 0
M  V30 15271 H 1547 0.182088 -0.714152 0
M  V30 15272 H 1549.64 -0.22811 -1.88626 0
M  V30 15273 H 1547.79 1.63595 -3.52376 0
M  V30 15274 H 1549.46 -0.763829 -4.54932 0
M  V30 15275 H 1547.71 -0.786649 -4.26608 0
M  V30 15276 H 1548.38 0.268453 -5.51347 0
M  V30 15277 H 1550.85 1.36664 -3.93017 0
M  V30 15278 H 1549.73 2.21638 -5.02163 0
M  V30 15279 H 1549.99 2.82996 -3.39655 0
M  V30 15280 N 1549.05 1.57088 0.126881 0
M  V30 15281 C 1550.01 1.98836 1.14003 0
M  V30 15282 C 1551.01 0.877454 1.34749 0
M  V30 15283 O 1552.2 1.14366 1.314 0
M  V30 15284 C 1549.33 2.32171 2.49618 0
M  V30 15285 H 1550.53 2.89541 0.7814 0
M  V30 15286 H 1548.08 1.51835 0.370915 0
M  V30 15287 H 1548.81 1.44321 2.90417 0
M  V30 15288 H 1548.6 3.13187 2.35916 0
M  V30 15289 H 1550.09 2.65238 3.2255 0
M  V30 15290 N 1550.53 -0.396836 1.52522 0
M  V30 15291 C 1551.78 -1.13978 1.66409 0
M  V30 15292 C 1552.09 -1.91333 0.406326 0
M  V30 15293 O 1553.29 -2.6815 0.425195 0
M  V30 15294 C 1551.75 -2.07512 2.94052 0
M  V30 15295 C 1551.36 -1.35616 4.2698 0
M  V30 15296 C 1553.1 -2.8199 3.17304 0
M  V30 15297 C 1551.01 -2.2787 5.45737 0
M  V30 15298 H 1549.94 -0.429181 0.619935 0
M  V30 15299 H 1552.59 -0.403207 1.79015 0
M  V30 15300 H 1550.97 -2.84773 2.75174 0
M  V30 15301 H 1552.15 -0.636349 4.56385 0
M  V30 15302 H 1550.46 -0.731297 4.09928 0
M  V30 15303 H 1553.06 -3.5118 4.03208 0
M  V30 15304 H 1553.4 -3.45629 2.32048 0
M  V30 15305 H 1553.93 -2.11824 3.36712 0
M  V30 15306 H 1550.67 -1.68858 6.33378 0
M  V30 15307 H 1550.19 -2.97789 5.20655 0
M  V30 15308 H 1551.87 -2.88126 5.79303 0
M  V30 15309 N 1552.01 -1.43353 -0.654814 0
M  V30 15310 C 1552.97 -1.4806 -1.7496 0
M  V30 15311 C 1553.97 -0.365513 -1.56591 0
M  V30 15312 O 1555.16 -0.627194 -1.62517 0
M  V30 15313 C 1552.29 -1.33165 -3.13815 0
M  V30 15314 H 1553.48 -2.45557 -1.72167 0
M  V30 15315 H 1551.04 -1.30094 -0.86632 0
M  V30 15316 H 1551.77 -0.366689 -3.2222 0
M  V30 15317 H 1551.56 -2.13998 -3.28553 0
M  V30 15318 H 1553.05 -1.39388 -3.93651 0
M  V30 15319 N 1553.48 0.89303 -1.29857 0
M  V30 15320 C 1554.73 1.64088 -1.17981 0
M  V30 15321 C 1555.05 1.93156 0.267533 0
M  V30 15322 O 1554.32 1.56233 1.18186 0
M  V30 15323 H 1552.9 0.608241 -0.43365 0
M  V30 15324 H 1555.56 1.07042 -1.62874 0
M  V30 15325 H 1554.66 2.59446 -1.73477 0
M  V30 15326 N 1554.96 1.12442 1.10429 0
M  V30 15327 C 1556.19 0.902914 1.86714 0
M  V30 15328 C 1556.61 -0.542514 1.80107 0
M  V30 15329 O 1555.97 -1.38406 1.17105 0
M  V30 15330 C 1556.02 1.38238 3.33051 0
M  V30 15331 O 1555.12 0.560877 4.08568 0
M  V30 15332 H 1554.46 0.324397 0.579364 0
M  V30 15333 H 1556.99 1.49652 1.39519 0
M  V30 15334 H 1557 1.38148 3.839 0
M  V30 15335 H 1555.68 2.43486 3.37176 0
M  V30 15336 H 1554.25 0.628771 3.67561 0
M  V30 15337 N 1556.44 -1.28223 0.91633 0
M  V30 15338 C 1557.66 -1.99523 0.566147 0
M  V30 15339 C 1558.09 -1.68 -0.846034 0
M  V30 15340 O 1557.45 -0.913838 -1.56584 0
M  V30 15341 C 1557.5 -3.51949 0.785114 0
M  V30 15342 O 1556.6 -4.1211 -0.154686 0
M  V30 15343 H 1555.94 -0.626764 0.219232 0
M  V30 15344 H 1558.47 -1.63313 1.23247 0
M  V30 15345 H 1558.48 -4.02016 0.696224 0
M  V30 15346 H 1557.16 -3.74227 1.81457 0
M  V30 15347 H 1555.73 -3.72896 -0.0168463 0
M  V30 15348 N 1557.92 -0.68059 -1.42147 0
M  V30 15349 C 1559.15 -0.213529 -2.05494 0
M  V30 15350 C 1559.56 1.13665 -1.51251 0
M  V30 15351 O 1558.9 1.71838 -0.649422 0
M  V30 15352 C 1558.96 -0.0774256 -3.59417 0
M  V30 15353 C 1558.62 -1.35724 -4.3638 0
M  V30 15354 C 1559.62 -2.29195 -4.66654 0
M  V30 15355 C 1557.31 -1.60645 -4.75918 0
M  V30 15356 C 1559.3 -3.45858 -5.35407 0
M  V30 15357 C 1556.99 -2.77597 -5.44411 0
M  V30 15358 C 1557.99 -3.70027 -5.74081 0
M  V30 15359 O 1557.67 -4.84933 -6.41167 0
M  V30 15360 H 1557.41 -0.100043 -0.668556 0
M  V30 15361 H 1559.96 -0.929384 -1.83171 0
M  V30 15362 H 1558.19 0.694062 -3.8042 0
M  V30 15363 H 1559.88 0.350509 -4.04384 0
M  V30 15364 H 1560.64 -2.11194 -4.36603 0
M  V30 15365 H 1556.52 -0.8957 -4.52215 0
M  V30 15366 H 1560.07 -4.18023 -5.58483 0
M  V30 15367 H 1555.96 -2.95521 -5.73879 0
M  V30 15368 H 1556.73 -4.84552 -6.5966 0
M  V30 15369 N 1559.4 1.51781 -0.424309 0
M  V30 15370 C 1560.33 2.25144 0.429274 0
M  V30 15371 C 1561.34 1.2867 0.997389 0
M  V30 15372 O 1562.53 1.54514 0.893746 0
M  V30 15373 C 1559.63 2.98156 1.61109 0
M  V30 15374 C 1558.8 4.21623 1.16417 0
M  V30 15375 C 1557.86 4.77327 2.21462 0
M  V30 15376 O 1556.89 5.39511 1.8143 0
M  V30 15377 N 1558.09 4.60221 3.53803 0
M  V30 15378 H 1560.85 2.99036 -0.199438 0
M  V30 15379 H 1558.42 1.59919 -0.252492 0
M  V30 15380 H 1560.41 3.32312 2.30978 0
M  V30 15381 H 1558.98 2.27356 2.14541 0
M  V30 15382 H 1558.2 3.93109 0.293034 0
M  V30 15383 H 1559.49 5.01772 0.842767 0
M  V30 15384 H 1558.88 4.10661 3.89068 0
M  V30 15385 H 1557.44 4.98774 4.19604 0
M  V30 15386 N 1560.87 0.155222 1.56834 0
M  V30 15387 C 1562.12 -0.49285 1.95998 0
M  V30 15388 C 1562.44 -1.64857 1.0415 0
M  V30 15389 O 1561.71 -1.9562 0.104654 0
M  V30 15390 H 1560.29 -0.185063 0.723713 0
M  V30 15391 H 1562.95 0.232644 1.93507 0
M  V30 15392 H 1562.05 -0.863552 2.99915 0
M  V30 15393 N 1562.35 -1.57153 -0.118549 0
M  V30 15394 C 1563.28 -1.97022 -1.1711 0
M  V30 15395 C 1564.3 -0.869599 -1.37629 0
M  V30 15396 O 1565.49 -1.14788 -1.36696 0
M  V30 15397 C 1562.59 -2.25371 -2.53103 0
M  V30 15398 C 1561.76 -3.56677 -2.5318 0
M  V30 15399 C 1560.82 -3.73233 -3.70922 0
M  V30 15400 O 1559.84 -4.4534 -3.54487 0
M  V30 15401 N 1561.05 -3.12036 -4.89504 0
M  V30 15402 H 1563.81 -2.87921 -0.831959 0
M  V30 15403 H 1561.37 -1.58947 -0.307817 0
M  V30 15404 H 1563.36 -2.33662 -3.3043 0
M  V30 15405 H 1561.93 -1.40597 -2.79197 0
M  V30 15406 H 1561.15 -3.5957 -1.61564 0
M  V30 15407 H 1562.44 -4.42982 -2.50288 0
M  V30 15408 H 1561.84 -2.53422 -5.05761 0
M  V30 15409 H 1560.4 -3.25846 -5.64506 0
M  V30 15410 N 1563.83 0.388742 -1.5273 0
M  V30 15411 C 1564.78 1.49531 -1.78166 0
M  V30 15412 C 1565.77 1.56449 -0.649613 0
M  V30 15413 O 1566.98 1.59612 -0.832097 0
M  V30 15414 H 1563.35 0.497684 -0.56375 0
M  V30 15415 H 1565.32 1.25271 -2.70831 0
M  V30 15416 C 1564.07 2.86663 -1.96774 0
M  V30 15417 H 1563.4 2.82089 -2.83312 0
M  V30 15418 H 1564.84 3.63328 -2.18561 0
M  V30 15419 C 1563.29 3.28665 -0.740345 0
M  V30 15420 O 1563.82 4.01616 0.0821005 0
M  V30 15421 N 1562.03 2.84947 -0.570383 0
M  V30 15422 H 1561.58 2.25748 -1.24078 0
M  V30 15423 H 1561.54 3.13408 0.249496 0
M  V30 15424 N 1565.31 1.43698 0.647203 0
M  V30 15425 C 1566.56 1.45346 1.40425 0
M  V30 15426 C 1566.88 0.081129 1.94831 0
M  V30 15427 O 1566.15 -0.884379 1.74801 0
M  V30 15428 H 1564.73 0.535145 0.521181 0
M  V30 15429 H 1567.39 1.79349 0.762887 0
M  V30 15430 H 1566.48 2.16954 2.2436 0
M  V30 15431 N 1566.79 -0.886131 1.30328 0
M  V30 15432 C 1567.72 -2.00793 1.19183 0
M  V30 15433 C 1568.7 -1.69899 0.08276 0
M  V30 15434 O 1569.88 -1.92389 0.264593 0
M  V30 15435 C 1567.01 -3.35922 0.881669 0
M  V30 15436 C 1565.97 -3.81072 1.94855 0
M  V30 15437 C 1565.29 -5.1348 1.4914 0
M  V30 15438 C 1566.59 -3.99923 3.35944 0
M  V30 15439 H 1568.29 -2.10375 2.13032 0
M  V30 15440 H 1565.83 -1.0108 1.02561 0
M  V30 15441 H 1567.79 -4.13922 0.790359 0
M  V30 15442 H 1566.51 -3.26469 -0.0925037 0
M  V30 15443 H 1565.17 -3.053 2.02947 0
M  V30 15444 H 1564.82 -5.00453 0.50553 0
M  V30 15445 H 1564.52 -5.44659 2.205 0
M  V30 15446 H 1566.04 -5.94005 1.41386 0
M  V30 15447 H 1567.45 -4.68364 3.30617 0
M  V30 15448 H 1565.85 -4.42477 4.05381 0
M  V30 15449 H 1566.92 -3.03816 3.77921 0
M  V30 15450 N 1568.26 -1.13026 -1.09832 0
M  V30 15451 C 1569.23 -0.806832 -2.14529 0
M  V30 15452 C 1570.23 0.18175 -1.5977 0
M  V30 15453 O 1571.42 -0.0448155 -1.74142 0
M  V30 15454 C 1568.55 -0.200093 -3.40312 0
M  V30 15455 H 1569.74 -1.73453 -2.44651 0
M  V30 15456 H 1567.3 -0.934331 -1.25299 0
M  V30 15457 H 1568.03 0.737028 -3.15814 0
M  V30 15458 H 1567.82 -0.911945 -3.81348 0
M  V30 15459 H 1569.31 0.00948247 -4.17599 0
M  V30 15460 N 1569.74 1.27735 -0.923117 0
M  V30 15461 C 1570.99 1.93857 -0.556994 0
M  V30 15462 C 1571.3 1.73386 0.905346 0
M  V30 15463 O 1572.51 2.3381 1.38005 0
M  V30 15464 C 1570.97 3.47263 -0.94534 0
M  V30 15465 C 1570.57 3.76497 -2.42805 0
M  V30 15466 C 1572.32 4.1949 -0.65025 0
M  V30 15467 C 1570.23 5.23256 -2.75603 0
M  V30 15468 H 1569.16 0.725712 -0.204591 0
M  V30 15469 H 1571.81 1.451 -1.12331 0
M  V30 15470 H 1570.19 3.94803 -0.307721 0
M  V30 15471 H 1571.36 3.39731 -3.11319 0
M  V30 15472 H 1569.68 3.17463 -2.69456 0
M  V30 15473 H 1572.27 5.27544 -0.871851 0
M  V30 15474 H 1572.62 4.14253 0.412352 0
M  V30 15475 H 1573.15 3.77758 -1.24676 0
M  V30 15476 H 1569.89 5.33579 -3.80754 0
M  V30 15477 H 1569.41 5.61185 -2.11735 0
M  V30 15478 H 1571.09 5.91088 -2.63103 0
M  V30 15479 N 1571.22 0.688118 1.41784 0
M  V30 15480 C 1572.47 0.215517 2.00948 0
M  V30 15481 C 1572.79 -1.18656 1.54744 0
M  V30 15482 O 1572.06 -1.79925 0.774831 0
M  V30 15483 H 1570.64 0.0766876 0.743053 0
M  V30 15484 H 1573.3 0.88761 1.73515 0
M  V30 15485 H 1572.4 0.227139 3.11272 0
M  V30 15486 N 1572.7 -1.51554 0.432352 0
M  V30 15487 C 1573.94 -2.02344 -0.13598 0
M  V30 15488 C 1574.28 -1.31619 -1.42794 0
M  V30 15489 O 1573.55 -0.42957 -1.89697 0
M  V30 15490 C 1573.84 -3.58297 -0.359865 0
M  V30 15491 C 1573.69 -4.39645 0.950399 0
M  V30 15492 C 1575.01 -4.25297 -1.13184 0
M  V30 15493 H 1572.13 -0.735439 -0.0479461 0
M  V30 15494 H 1574.77 -1.81237 0.570373 0
M  V30 15495 H 1572.92 -3.76413 -0.961547 0
M  V30 15496 H 1574.59 -4.3319 1.58568 0
M  V30 15497 H 1572.83 -4.04928 1.55614 0
M  V30 15498 H 1573.5 -5.46911 0.747852 0
M  V30 15499 H 1575.98 -4.11421 -0.622231 0
M  V30 15500 H 1574.86 -5.34307 -1.25726 0
M  V30 15501 H 1575.12 -3.85818 -2.15862 0
M  V30 15502 N 1574.18 -0.163538 -1.56749 0
M  V30 15503 C 1575.4 0.493087 -2.01453 0
M  V30 15504 C 1575.83 1.56535 -1.043 0
M  V30 15505 O 1575.18 1.81287 -0.0213039 0
M  V30 15506 C 1575.23 1.05546 -3.44808 0
M  V30 15507 O 1574.34 2.16977 -3.50706 0
M  V30 15508 H 1573.68 0.118905 -0.653267 0
M  V30 15509 H 1576.21 -0.265139 -2.02875 0
M  V30 15510 H 1576.22 1.38002 -3.83953 0
M  V30 15511 H 1574.89 0.270333 -4.1502 0
M  V30 15512 H 1573.47 1.85625 -3.23416 0
M  V30 15513 N 1575.65 1.57214 0.110213 0
M  V30 15514 C 1577.07 1.52706 0.464004 0
M  V30 15515 C 1577.27 0.87792 1.81369 0
M  V30 15516 O 1576.33 0.463987 2.482 0
M  V30 15517 C 1577.64 2.97457 0.440406 0
M  V30 15518 C 1579.19 3.08594 0.523336 0
M  V30 15519 C 1579.66 4.54923 0.53004 0
M  V30 15520 N 1581.15 4.59411 0.591228 0
M  V30 15521 C 1581.89 5.7006 0.618007 0
M  V30 15522 N 1581.38 6.9018 0.601901 0
M  V30 15523 N 1583.18 5.58192 0.661679 0
M  V30 15524 H 1575.33 1.97794 -0.77403 0
M  V30 15525 H 1577.59 0.903673 -0.286496 0
M  V30 15526 H 1577.3 3.48356 -0.483845 0
M  V30 15527 H 1577.17 3.55356 1.26498 0
M  V30 15528 H 1579.56 2.57692 1.43801 0
M  V30 15529 H 1579.64 2.53674 -0.329095 0
M  V30 15530 H 1579.28 5.06472 -0.380623 0
M  V30 15531 H 1579.21 5.07663 1.39948 0
M  V30 15532 H 1581.7 3.72953 0.609483 0
M  V30 15533 H 1582.02 7.70267 0.6252 0
M  V30 15534 H 1580.36 6.92665 0.569186 0
M  V30 15535 H 1583.55 4.63256 0.671686 0
M  V30 15536 H 1583.73 6.44432 0.67908 0
M  V30 15537 N 1577.13 -0.380637 1.52934 0
M  V30 15538 C 1578.38 -1.12207 1.67608 0
M  V30 15539 C 1578.69 -1.90891 0.426597 0
M  V30 15540 O 1579.9 -2.67684 0.453612 0
M  V30 15541 C 1578.36 -2.04381 2.96237 0
M  V30 15542 C 1577.96 -1.3108 4.28395 0
M  V30 15543 C 1579.71 -2.78608 3.20277 0
M  V30 15544 C 1577.62 -2.22069 5.48124 0
M  V30 15545 H 1576.55 -0.422582 0.624452 0
M  V30 15546 H 1579.2 -0.384198 1.79433 0
M  V30 15547 H 1577.58 -2.81838 2.78179 0
M  V30 15548 H 1578.75 -0.587907 4.57034 0
M  V30 15549 H 1577.07 -0.687778 4.10681 0
M  V30 15550 H 1579.66 -3.46883 4.0691 0
M  V30 15551 H 1580.01 -3.43149 2.35701 0
M  V30 15552 H 1580.54 -2.08241 3.3894 0
M  V30 15553 H 1577.28 -1.62131 6.35133 0
M  V30 15554 H 1576.8 -2.9225 5.23784 0
M  V30 15555 H 1578.48 -2.81966 5.82327 0
M  V30 15556 N 1578.61 -1.44039 -0.639573 0
M  V30 15557 C 1579.84 -1.50063 -1.43164 0
M  V30 15558 C 1580.26 -0.123906 -1.87691 0
M  V30 15559 O 1579.62 0.885192 -1.58221 0
M  V30 15560 C 1579.67 -2.46305 -2.63375 0
M  V30 15561 O 1578.77 -1.95874 -3.62915 0
M  V30 15562 H 1578.11 -0.507052 -0.428713 0
M  V30 15563 H 1580.64 -1.8909 -0.781415 0
M  V30 15564 H 1580.65 -2.64062 -3.11023 0
M  V30 15565 H 1579.33 -3.46309 -2.3031 0
M  V30 15566 H 1577.9 -1.87844 -3.22132 0
M  V30 15567 N 1580.09 0.879207 -1.30796 0
M  V30 15568 C 1581.37 1.61328 -1.10602 0
M  V30 15569 C 1581.75 2.08301 0.342621 0
M  V30 15570 O 1581.09 1.85436 1.33514 0
M  V30 15571 C 1581.3 2.77838 -2.11203 0
M  V30 15572 C 1582.65 3.48028 -2.43231 0
M  V30 15573 O 1583.68 2.88034 -2.09559 0
M  V30 15574 O 1582.53 4.56233 -3.00854 0
M  V30 15575 H 1579.63 0.709335 -0.425174 0
M  V30 15576 H 1582.17 0.925478 -1.42243 0
M  V30 15577 H 1580.95 2.40475 -3.08687 0
M  V30 15578 H 1580.57 3.54312 -1.80414 0
M  V30 15579 N 1581.57 1.13606 1.09231 0
M  V30 15580 C 1582.52 0.810747 2.18013 0
M  V30 15581 C 1583.51 -0.207782 1.68121 0
M  V30 15582 O 1584.72 -0.0647274 1.79884 0
M  V30 15583 H 1581.09 0.244415 0.711172 0
M  V30 15584 H 1583.06 1.73632 2.42682 0
M  V30 15585 C 1581.81 0.295302 3.46444 0
M  V30 15586 H 1581.13 1.07037 3.85205 0
M  V30 15587 H 1582.57 0.106127 4.23867 0
M  V30 15588 C 1581.03 -0.979398 3.2235 0
M  V30 15589 O 1581.56 -2.05483 3.45166 0
M  V30 15590 N 1579.77 -0.911282 2.75942 0
M  V30 15591 H 1579.32 -0.035979 2.57575 0
M  V30 15592 H 1579.27 -1.76476 2.60199 0
M  V30 15593 N 1583.05 -1.27244 0.929878 0
M  V30 15594 C 1584.29 -1.93886 0.570331 0
M  V30 15595 C 1584.61 -1.7342 -0.891656 0
M  V30 15596 O 1583.88 -1.0832 -1.63228 0
M  V30 15597 H 1582.46 -0.717476 0.207937 0
M  V30 15598 H 1585.13 -1.5491 1.18275 0
M  V30 15599 H 1584.22 -3.02236 0.778463 0
M  V30 15600 N 1584.52 -0.695628 -1.41417 0
M  V30 15601 C 1585.47 -0.0303383 -2.3078 0
M  V30 15602 C 1586.44 0.771218 -1.4711 0
M  V30 15603 O 1587.63 0.739239 -1.75897 0
M  V30 15604 C 1584.77 0.900034 -3.33157 0
M  V30 15605 C 1583.88 0.0900862 -4.31906 0
M  V30 15606 C 1583.01 1.01811 -5.21352 0
M  V30 15607 C 1582.05 0.201068 -6.1177 0
M  V30 15608 N 1581.19 1.0829 -6.93699 0
M  V30 15609 H 1586.03 -0.798148 -2.87113 0
M  V30 15610 H 1583.57 -0.405311 -1.41406 0
M  V30 15611 H 1585.52 1.45349 -3.91062 0
M  V30 15612 H 1584.15 1.63424 -2.78375 0
M  V30 15613 H 1583.21 -0.58029 -3.75948 0
M  V30 15614 H 1584.52 -0.543336 -4.95832 0
M  V30 15615 H 1583.67 1.64079 -5.84092 0
M  V30 15616 H 1582.41 1.68538 -4.57653 0
M  V30 15617 H 1581.42 -0.434686 -5.48079 0
M  V30 15618 H 1582.64 -0.462416 -6.77524 0
M  V30 15619 H 1580.59 1.73619 -6.32608 0
M  V30 15620 H 1580.5 0.505046 -7.54311 0
M  V30 15621 H 1581.77 1.69239 -7.60906 0
M  V30 15622 N 1586 1.51322 -0.440383 0
M  V30 15623 C 1587.25 2.02413 0.125248 0
M  V30 15624 C 1587.58 1.32374 1.42094 0
M  V30 15625 O 1586.86 0.439624 1.89467 0
M  V30 15626 C 1587.14 3.58483 0.340858 0
M  V30 15627 C 1586.99 4.39134 -0.973701 0
M  V30 15628 C 1588.31 4.25891 1.10927 0
M  V30 15629 H 1585.43 0.735683 0.0440452 0
M  V30 15630 H 1588.07 1.80932 -0.579976 0
M  V30 15631 H 1586.22 3.76917 0.941572 0
M  V30 15632 H 1587.89 4.32343 -1.60863 0
M  V30 15633 H 1586.14 4.04097 -1.57759 0
M  V30 15634 H 1586.81 5.46506 -0.776845 0
M  V30 15635 H 1589.28 4.11746 0.600403 0
M  V30 15636 H 1588.16 5.34967 1.2289 0
M  V30 15637 H 1588.42 3.86958 2.13813 0
M  V30 15638 N 1587.48 0.171848 1.5666 0
M  V30 15639 C 1588.73 -0.473061 1.96074 0
M  V30 15640 C 1589.04 -1.64353 1.06054 0
M  V30 15641 O 1590.25 -2.35471 1.35151 0
M  V30 15642 C 1588.7 -0.892995 3.48645 0
M  V30 15643 C 1588.31 0.251902 4.47291 0
M  V30 15644 C 1590.06 -1.50629 3.96877 0
M  V30 15645 C 1587.96 -0.187691 5.91102 0
M  V30 15646 H 1586.89 -0.180503 0.732075 0
M  V30 15647 H 1589.54 0.260164 1.81646 0
M  V30 15648 H 1587.93 -1.68221 3.58494 0
M  V30 15649 H 1589.1 1.02923 4.49159 0
M  V30 15650 H 1587.41 0.775193 4.09121 0
M  V30 15651 H 1590.01 -1.84724 5.01778 0
M  V30 15652 H 1590.35 -2.4044 3.39844 0
M  V30 15653 H 1590.89 -0.781502 3.90048 0
M  V30 15654 H 1587.63 0.675653 6.52009 0
M  V30 15655 H 1587.15 -0.93037 5.9254 0
M  V30 15656 H 1588.83 -0.631385 6.43912 0
M  V30 15657 N 1588.96 -1.5727 -0.101874 0
M  V30 15658 C 1590.21 -1.84928 -0.805263 0
M  V30 15659 C 1590.52 -0.760099 -1.80227 0
M  V30 15660 O 1591.73 -0.923594 -2.55308 0
M  V30 15661 C 1590.18 -3.27929 -1.48291 0
M  V30 15662 C 1589.79 -4.44901 -0.526016 0
M  V30 15663 C 1591.53 -3.64819 -2.17043 0
M  V30 15664 C 1589.44 -5.78934 -1.20787 0
M  V30 15665 H 1588.37 -0.689789 -0.304478 0
M  V30 15666 H 1591.02 -1.83408 -0.0581337 0
M  V30 15667 H 1589.4 -3.2397 -2.27726 0
M  V30 15668 H 1590.58 -4.60193 0.236352 0
M  V30 15669 H 1588.89 -4.16363 0.0554387 0
M  V30 15670 H 1591.49 -4.62236 -2.68778 0
M  V30 15671 H 1591.83 -2.93104 -2.95628 0
M  V30 15672 H 1592.37 -3.70637 -1.44476 0
M  V30 15673 H 1589.1 -6.53863 -0.46296 0
M  V30 15674 H 1588.62 -5.67497 -1.94183 0
M  V30 15675 H 1590.3 -6.23268 -1.73626 0
M  V30 15676 N 1590.44 0.372521 -1.53134 0
M  V30 15677 C 1591.85 0.713727 -1.42752 0
M  V30 15678 C 1592.05 1.93532 -0.561051 0
M  V30 15679 O 1591.11 2.52467 -0.0408195 0
M  V30 15680 C 1592.42 0.933418 -2.85846 0
M  V30 15681 C 1593.97 1.03386 -2.95432 0
M  V30 15682 C 1594.44 1.28607 -4.39573 0
M  V30 15683 N 1595.93 1.35393 -4.42971 0
M  V30 15684 C 1596.67 1.56604 -5.516 0
M  V30 15685 N 1596.17 1.75178 -6.70287 0
M  V30 15686 N 1597.96 1.58917 -5.39168 0
M  V30 15687 H 1590.11 -0.431068 -2.0798 0
M  V30 15688 H 1592.37 -0.130757 -0.938939 0
M  V30 15689 H 1592.08 0.107707 -3.51535 0
M  V30 15690 H 1591.95 1.84348 -3.29083 0
M  V30 15691 H 1594.34 1.85012 -2.29901 0
M  V30 15692 H 1594.42 0.101346 -2.55599 0
M  V30 15693 H 1594.06 0.47485 -5.05675 0
M  V30 15694 H 1593.99 2.2317 -4.76973 0
M  V30 15695 H 1596.49 1.22681 -3.57432 0
M  V30 15696 H 1596.8 1.90916 -7.48846 0
M  V30 15697 H 1595.14 1.7237 -6.73286 0
M  V30 15698 H 1598.33 1.4397 -4.4541 0
M  V30 15699 H 1598.51 1.75108 -6.23892 0
M  V30 15700 N 1591.91 1.44376 0.631925 0
M  V30 15701 C 1592.84 1.54005 1.75512 0
M  V30 15702 C 1593.82 0.393126 1.65495 0
M  V30 15703 O 1595.01 0.613143 1.84267 0
M  V30 15704 C 1592.14 1.48313 3.14039 0
M  V30 15705 C 1591.09 2.61474 3.38844 0
M  V30 15706 C 1590.42 2.40834 4.77392 0
M  V30 15707 C 1591.72 4.03627 3.31485 0
M  V30 15708 H 1593.41 2.48019 1.6771 0
M  V30 15709 H 1590.96 1.19368 0.80543 0
M  V30 15710 H 1592.91 1.5365 3.9239 0
M  V30 15711 H 1591.64 0.508152 3.22623 0
M  V30 15712 H 1590.3 2.55525 2.62874 0
M  V30 15713 H 1589.94 1.4153 4.82678 0
M  V30 15714 H 1589.64 3.16703 4.94947 0
M  V30 15715 H 1591.17 2.47988 5.57974 0
M  V30 15716 H 1592.58 4.1095 3.99741 0
M  V30 15717 H 1590.98 4.79694 3.60574 0
M  V30 15718 H 1592.05 4.27255 2.29307 0
M  V30 15719 N 1593.39 -0.872258 1.31261 0
M  V30 15720 C 1594.62 -1.6632 1.23905 0
M  V30 15721 C 1595.04 -1.87109 -0.192878 0
M  V30 15722 O 1594.4 -1.4112 -1.1382 0
M  V30 15723 C 1594.45 -3.00979 1.98606 0
M  V30 15724 O 1593.55 -3.90642 1.32183 0
M  V30 15725 H 1592.89 -0.507736 0.427902 0
M  V30 15726 H 1595.42 -1.0877 1.73292 0
M  V30 15727 H 1595.43 -3.50931 2.08113 0
M  V30 15728 H 1594.11 -2.85168 3.02741 0
M  V30 15729 H 1592.68 -3.4909 1.31112 0
M  V30 15730 N 1594.87 -1.14184 -1.08627 0
M  V30 15731 C 1596.12 -0.906869 -1.80611 0
M  V30 15732 C 1596.44 0.568182 -1.86539 0
M  V30 15733 O 1595.71 1.41301 -1.35687 0
M  V30 15734 H 1594.29 -0.332523 -0.668908 0
M  V30 15735 H 1596.95 -1.43998 -1.31341 0
M  V30 15736 H 1596.05 -1.30484 -2.83514 0
M  V30 15737 N 1596.35 1.26749 -0.936613 0
M  V30 15738 C 1597.58 1.98059 -0.598357 0
M  V30 15739 C 1597.99 1.6979 0.825646 0
M  V30 15740 O 1597.35 0.963514 1.54992 0
M  V30 15741 C 1597.4 3.51948 -0.825519 0
M  V30 15742 O 1597.12 3.79232 -2.19351 0
M  V30 15743 C 1598.62 4.40503 -0.497186 0
M  V30 15744 H 1595.84 0.631826 -0.225914 0
M  V30 15745 H 1598.39 1.61379 -1.25607 0
M  V30 15746 H 1596.54 3.86806 -0.214479 0
M  V30 15747 H 1596.95 4.73782 -2.25014 0
M  V30 15748 H 1598.43 5.47457 -0.706779 0
M  V30 15749 H 1598.91 4.35516 0.567645 0
M  V30 15750 H 1599.51 4.11181 -1.08675 0
M  V30 15751 N 1597.83 0.703118 1.41046 0
M  V30 15752 C 1599.05 0.246552 2.05426 0
M  V30 15753 C 1599.47 -1.10704 1.52938 0
M  V30 15754 O 1598.83 -1.69329 0.680733 0
M  V30 15755 C 1598.88 0.203953 3.60924 0
M  V30 15756 O 1598.6 1.50408 4.11472 0
M  V30 15757 C 1600.1 -0.272686 4.42461 0
M  V30 15758 H 1597.32 0.113157 0.66139 0
M  V30 15759 H 1599.86 0.957823 1.80682 0
M  V30 15760 H 1598.02 -0.458194 3.84681 0
M  V30 15761 H 1598.43 1.39622 5.05575 0
M  V30 15762 H 1599.91 -0.251357 5.51427 0
M  V30 15763 H 1600.38 -1.31282 4.1912 0
M  V30 15764 H 1600.99 0.358733 4.23784 0
M  V30 15765 N 1599.3 -1.51086 0.448402 0
M  V30 15766 C 1600.25 -2.29611 -0.371711 0
M  V30 15767 C 1601.25 -1.35926 -1.01096 0
M  V30 15768 O 1602.45 -1.53219 -0.944663 0
M  V30 15769 H 1598.83 -0.739099 -0.138694 0
M  V30 15770 H 1600.8 -2.96772 0.311275 0
M  V30 15771 C 1599.55 -3.1583 -1.45418 0
M  V30 15772 H 1598.87 -3.87813 -0.971661 0
M  V30 15773 H 1600.31 -3.7381 -2.00105 0
M  V30 15774 C 1598.77 -2.31927 -2.44359 0
M  V30 15775 O 1599.3 -1.98655 -3.4914 0
M  V30 15776 N 1597.51 -1.94938 -2.15517 0
M  V30 15777 H 1597.05 -2.22195 -1.30335 0
M  V30 15778 H 1597.01 -1.39098 -2.81956 0
M  V30 15779 N 1600.78 -0.180154 -1.56567 0
M  V30 15780 C 1602.01 0.471692 -2.01965 0
M  V30 15781 C 1602.43 1.5542 -1.05954 0
M  V30 15782 O 1601.79 1.81255 -0.0405307 0
M  V30 15783 C 1601.84 1.01883 -3.45908 0
M  V30 15784 O 1600.94 2.13245 -3.52988 0
M  V30 15785 H 1600.28 0.11197 -0.654491 0
M  V30 15786 H 1602.81 -0.286642 -2.02582 0
M  V30 15787 H 1602.82 1.33922 -3.85395 0
M  V30 15788 H 1601.5 0.226299 -4.15284 0
M  V30 15789 H 1600.08 1.82184 -3.25367 0
M  V30 15790 N 1602.26 1.57322 0.0935319 0
M  V30 15791 C 1603.19 1.98861 1.13961 0
M  V30 15792 C 1604.21 0.891385 1.36228 0
M  V30 15793 O 1605.39 1.16949 1.34853 0
M  V30 15794 C 1602.49 2.29369 2.49485 0
M  V30 15795 C 1601.67 3.6066 2.47473 0
M  V30 15796 C 1600.73 3.79087 3.64937 0
M  V30 15797 O 1599.75 4.50923 3.47357 0
M  V30 15798 N 1600.95 3.19784 4.84478 0
M  V30 15799 H 1603.72 2.89208 0.786048 0
M  V30 15800 H 1601.28 1.59416 0.282491 0
M  V30 15801 H 1603.27 2.38889 3.26671 0
M  V30 15802 H 1601.84 1.45021 2.76925 0
M  V30 15803 H 1601.06 3.62095 1.55823 0
M  V30 15804 H 1602.35 4.46908 2.43209 0
M  V30 15805 H 1601.75 2.61436 5.01665 0
M  V30 15806 H 1600.31 3.34786 5.59251 0
M  V30 15807 N 1603.74 -0.364395 1.53329 0
M  V30 15808 C 1604.99 -1.10473 1.69234 0
M  V30 15809 C 1605.31 -1.89799 0.447347 0
M  V30 15810 O 1604.58 -1.8835 -0.538612 0
M  V30 15811 H 1603.16 -0.410826 0.623884 0
M  V30 15812 H 1605.82 -0.410721 1.90523 0
M  V30 15813 H 1604.92 -1.79387 2.55396 0
M  V30 15814 N 1605.22 -1.44709 -0.62426 0
M  V30 15815 C 1606.16 -1.52104 -1.73589 0
M  V30 15816 C 1607.13 -0.368193 -1.61968 0
M  V30 15817 O 1608.32 -0.579374 -1.81791 0
M  V30 15818 C 1605.46 -1.4778 -3.11857 0
M  V30 15819 C 1604.57 -2.73491 -3.34405 0
M  V30 15820 C 1603.71 -2.60953 -4.62685 0
M  V30 15821 C 1602.75 -3.81795 -4.78434 0
M  V30 15822 N 1601.88 -3.67892 -5.97997 0
M  V30 15823 H 1606.72 -2.47077 -1.66604 0
M  V30 15824 H 1604.26 -1.22617 -0.812616 0
M  V30 15825 H 1606.22 -1.43263 -3.91831 0
M  V30 15826 H 1604.85 -0.563694 -3.1784 0
M  V30 15827 H 1603.9 -2.88166 -2.48324 0
M  V30 15828 H 1605.21 -3.6317 -3.4192 0
M  V30 15829 H 1604.37 -2.54308 -5.50829 0
M  V30 15830 H 1603.1 -1.68846 -4.57539 0
M  V30 15831 H 1602.11 -3.88817 -3.88717 0
M  V30 15832 H 1603.33 -4.74947 -4.85388 0
M  V30 15833 H 1601.28 -2.78541 -5.93928 0
M  V30 15834 H 1601.2 -4.51193 -6.06598 0
M  V30 15835 H 1602.47 -3.6515 -6.88684 0
M  V30 15836 N 1606.69 0.865285 -1.31722 0
M  V30 15837 C 1607.92 1.65137 -1.24649 0
M  V30 15838 C 1608.34 1.87868 0.187391 0
M  V30 15839 O 1607.69 1.44015 1.12098 0
M  V30 15840 C 1607.75 3.0167 -1.99193 0
M  V30 15841 O 1607.47 2.79951 -3.36985 0
M  V30 15842 C 1608.97 3.96115 -1.99017 0
M  V30 15843 H 1606.19 0.514683 -0.430514 0
M  V30 15844 H 1608.73 1.07971 -1.73674 0
M  V30 15845 H 1606.89 3.55511 -1.53918 0
M  V30 15846 H 1607.3 3.66706 -3.75002 0
M  V30 15847 H 1608.77 4.89217 -2.55677 0
M  V30 15848 H 1609.25 4.28268 -0.973815 0
M  V30 15849 H 1609.86 3.4821 -2.44192 0
M  V30 15850 N 1608.17 1.14759 1.0802 0
M  V30 15851 C 1609.42 0.916435 1.80127 0
M  V30 15852 C 1609.74 -0.558281 1.86837 0
M  V30 15853 O 1609.01 -1.40579 1.36434 0
M  V30 15854 H 1607.59 0.336066 0.667135 0
M  V30 15855 H 1610.25 1.44693 1.30576 0
M  V30 15856 H 1609.35 1.31986 2.82818 0
M  V30 15857 N 1609.65 -1.26251 0.943322 0
M  V30 15858 C 1610.9 -1.93939 0.592909 0
M  V30 15859 C 1611.23 -1.73814 -0.866155 0
M  V30 15860 O 1610.5 -1.07645 -1.61997 0
M  V30 15861 C 1610.79 -3.47653 0.938601 0
M  V30 15862 C 1610.64 -3.77053 2.45257 0
M  V30 15863 C 1611.96 -4.37736 0.455546 0
M  V30 15864 H 1609.08 -0.704367 0.21688 0
M  V30 15865 H 1611.72 -1.4908 1.17793 0
M  V30 15866 H 1609.87 -3.85992 0.440756 0
M  V30 15867 H 1611.54 -3.48417 3.0233 0
M  V30 15868 H 1609.79 -3.23055 2.89513 0
M  V30 15869 H 1610.46 -4.84506 2.64495 0
M  V30 15870 H 1612.93 -4.06635 0.882435 0
M  V30 15871 H 1611.81 -5.44075 0.72623 0
M  V30 15872 H 1612.07 -4.37377 -0.644508 0
M  V30 15873 N 1611.13 -0.710588 -1.40671 0
M  V30 15874 C 1612.09 -0.0635988 -2.29112 0
M  V30 15875 C 1613.09 0.692537 -1.45123 0
M  V30 15876 O 1614.28 0.525184 -1.66095 0
M  V30 15877 C 1611.41 0.919955 -3.28252 0
M  V30 15878 H 1612.61 -0.842477 -2.87823 0
M  V30 15879 H 1610.16 -0.474948 -1.48909 0
M  V30 15880 H 1610.9 1.72607 -2.7455 0
M  V30 15881 H 1610.68 0.38071 -3.90247 0
M  V30 15882 H 1612.17 1.36997 -3.94489 0
M  V30 15883 N 1612.61 1.50847 -0.456408 0
M  V30 15884 C 1613.57 2.26755 0.33388 0
M  V30 15885 C 1614.57 1.30947 0.933247 0
M  V30 15886 O 1615.76 1.54499 0.804716 0
M  V30 15887 C 1612.89 3.07378 1.47417 0
M  V30 15888 H 1614.09 2.98061 -0.331634 0
M  V30 15889 H 1611.64 1.54882 -0.210067 0
M  V30 15890 H 1612.37 2.40534 2.17518 0
M  V30 15891 H 1612.16 3.7777 1.05036 0
M  V30 15892 H 1613.65 3.64826 2.03204 0
M  V30 15893 N 1614.09 0.188454 1.56469 0
M  V30 15894 C 1615.33 -0.451165 1.97 0
M  V30 15895 C 1615.65 -1.6261 1.07624 0
M  V30 15896 O 1614.92 -1.95354 0.146125 0
M  V30 15897 H 1613.5 -0.16967 0.727476 0
M  V30 15898 H 1616.17 0.273638 1.9297 0
M  V30 15899 H 1615.26 -0.799741 3.0168 0
M  V30 15900 N 1615.56 -1.5737 -0.0851874 0
M  V30 15901 C 1616.81 -1.86864 -0.78802 0
M  V30 15902 C 1617.14 -0.778936 -1.77894 0
M  V30 15903 O 1616.42 0.212132 -1.9334 0
M  V30 15904 C 1616.7 -3.27006 -1.50795 0
M  V30 15905 C 1616.55 -4.46615 -0.534354 0
M  V30 15906 C 1617.87 -3.65187 -2.45614 0
M  V30 15907 H 1614.99 -0.679657 -0.285017 0
M  V30 15908 H 1617.63 -1.8993 -0.0514443 0
M  V30 15909 H 1615.78 -3.24522 -2.13583 0
M  V30 15910 H 1617.46 -4.61217 0.0872761 0
M  V30 15911 H 1615.7 -4.33536 0.151455 0
M  V30 15912 H 1616.37 -5.41423 -1.07544 0
M  V30 15913 H 1618.85 -3.68678 -1.92913 0
M  V30 15914 H 1617.72 -4.64158 -2.92999 0
M  V30 15915 H 1617.98 -2.944 -3.2982 0
M  V30 15916 N 1617.04 0.356258 -1.53521 0
M  V30 15917 C 1618.29 1.09573 -1.69818 0
M  V30 15918 C 1618.61 1.89559 -0.457406 0
M  V30 15919 O 1617.88 1.88633 0.528616 0
M  V30 15920 H 1616.46 0.407512 -0.626054 0
M  V30 15921 H 1619.12 0.400612 -1.90738 0
M  V30 15922 H 1618.22 1.7803 -2.56343 0
M  V30 15923 N 1618.52 1.45038 0.616577 0
M  V30 15924 C 1619.75 1.51874 1.40064 0
M  V30 15925 C 1620.16 0.147105 1.88627 0
M  V30 15926 O 1619.5 -0.85995 1.62329 0
M  V30 15927 C 1619.56 2.43421 2.64549 0
M  V30 15928 C 1619.23 3.90326 2.37685 0
M  V30 15929 C 1620.22 4.80471 1.98605 0
M  V30 15930 C 1617.91 4.35163 2.50875 0
M  V30 15931 C 1619.9 6.13456 1.73064 0
M  V30 15932 C 1617.59 5.68192 2.24947 0
M  V30 15933 C 1618.59 6.57157 1.86102 0
M  V30 15934 O 1618.28 7.87721 1.60472 0
M  V30 15935 H 1618.01 0.517048 0.435474 0
M  V30 15936 H 1620.56 1.90826 0.759899 0
M  V30 15937 H 1618.79 1.99423 3.31312 0
M  V30 15938 H 1620.48 2.41042 3.26579 0
M  V30 15939 H 1621.25 4.47098 1.87959 0
M  V30 15940 H 1617.13 3.66165 2.80078 0
M  V30 15941 H 1620.67 6.82855 1.42669 0
M  V30 15942 H 1616.57 6.01122 2.35207 0
M  V30 15943 H 1617.33 7.99661 1.74598 0
M  V30 15944 N 1620 -0.858287 1.32179 0
M  V30 15945 C 1620.93 -1.97304 1.16636 0
M  V30 15946 C 1621.94 -1.62478 0.102311 0
M  V30 15947 O 1623.13 -1.75016 0.350926 0
M  V30 15948 C 1620.23 -3.30215 0.762337 0
M  V30 15949 C 1619.4 -3.93305 1.9139 0
M  V30 15950 C 1618.46 -5.04545 1.49402 0
M  V30 15951 O 1617.49 -5.24735 2.20548 0
M  V30 15952 N 1618.69 -5.79202 0.387984 0
M  V30 15953 H 1621.46 -2.11179 2.12658 0
M  V30 15954 H 1619.02 -1.03294 1.24668 0
M  V30 15955 H 1621.01 -4.02032 0.463922 0
M  V30 15956 H 1619.58 -3.12418 -0.10662 0
M  V30 15957 H 1618.8 -3.1432 2.37901 0
M  V30 15958 H 1620.09 -4.32192 2.68492 0
M  V30 15959 H 1619.49 -5.65331 -0.204252 0
M  V30 15960 H 1618.04 -6.51629 0.149158 0
M  V30 15961 N 1621.48 -1.1533 -1.07409 0
M  V30 15962 C 1622.72 -0.939155 -1.8042 0
M  V30 15963 C 1623.08 0.528116 -1.8501 0
M  V30 15964 O 1622.37 1.38649 -1.32239 0
M  V30 15965 C 1622.56 -1.48646 -3.25022 0
M  V30 15966 C 1622.39 -3.00542 -3.34522 0
M  V30 15967 C 1621.16 -3.69083 -3.45117 0
M  V30 15968 C 1623.36 -3.98331 -3.25326 0
M  V30 15969 N 1621.34 -5.08794 -3.43513 0
M  V30 15970 C 1622.71 -5.24356 -3.30833 0
M  V30 15971 C 1624.77 -3.9031 -3.09132 0
M  V30 15972 C 1623.47 -6.43295 -3.21813 0
M  V30 15973 C 1625.5 -5.08807 -3.01446 0
M  V30 15974 C 1624.86 -6.33706 -3.07565 0
M  V30 15975 H 1620.96 -0.397311 -0.673549 0
M  V30 15976 H 1623.54 -1.46524 -1.28214 0
M  V30 15977 H 1621.71 -0.987019 -3.75649 0
M  V30 15978 H 1623.45 -1.2112 -3.8615 0
M  V30 15979 H 1620.2 -3.19672 -3.49438 0
M  V30 15980 H 1620.62 -5.81761 -3.46242 0
M  V30 15981 H 1625.27 -2.94612 -3.03255 0
M  V30 15982 H 1622.98 -7.39227 -3.26449 0
M  V30 15983 H 1626.57 -5.0436 -2.9002 0
M  V30 15984 H 1625.45 -7.23858 -3.01661 0
M  V30 15985 O 1622.99 1.2005 -1.08029 0
M  V30 15986 H 1623.68 1.77744 -0.769865 0
M  V30 END ATOM
M  V30 BEGIN BOND
M  V30 END BOND
M  V30 END CTAB
M  END
$$$$
