drugbank_target|Q48255 3-dehydroquinate dehydratase (DB03868; DB04698)
 OpenBabel12092119593D

  0  0  0     0  0            999 V3000
M  V30 BEGIN CTAB
M  V30 COUNTS 2586 2608 0 0 0
M  V30 BEGIN ATOM
M  V30 1 H -0.908 1.98254 -0.117106 0
M  V30 2 N 0 1.576 0 0
M  V30 3 C 0.933 2.03868 1.02534 0
M  V30 4 C 1.911 0.928543 1.3348 0
M  V30 5 O 3.095 1.19667 1.45644 0
M  V30 6 C 0.222 2.43627 2.35294 0
M  V30 7 C -0.732 3.65373 2.2001 0
M  V30 8 S 0.101 5.13292 1.52614 0
M  V30 9 C 1.257 5.56322 2.86805 0
M  V30 10 H 1.49 2.90518 0.631377 0
M  V30 11 H -0.977 1.52953 0.210867 0
M  V30 12 H 0.981 2.67203 3.11629 0
M  V30 13 H -0.358 1.57376 2.7183 0
M  V30 14 H -1.165 3.90944 3.18086 0
M  V30 15 H -1.563 3.418 1.51819 0
M  V30 16 H 0.729 5.58782 3.83104 0
M  V30 17 H 1.672 6.56266 2.65933 0
M  V30 18 H 2.08 4.83886 2.90714 0
M  V30 19 N 1.4781 -0.272755 1.55222 0
M  V30 20 C 2.4251 -1.33716 1.88119 0
M  V30 21 C 3.3951 -1.49066 0.73271 0
M  V30 22 O 4.5801 -1.63469 0.984002 0
M  V30 23 C 1.7201 -2.69238 2.15882 0
M  V30 24 C 0.8331 -2.62108 3.43399 0
M  V30 25 C -0.0319 -3.89811 3.60861 0
M  V30 26 C -0.9929 -3.77193 4.8207 0
M  V30 27 N -1.8559 -4.9673 4.96189 0
M  V30 28 H 2.9841 -1.04962 2.78903 0
M  V30 29 H 0.5211 -0.507088 1.38083 0
M  V30 30 H 2.4791 -3.48089 2.29978 0
M  V30 31 H 1.1091 -2.96194 1.28331 0
M  V30 32 H 0.1611 -1.74967 3.37773 0
M  V30 33 H 1.4731 -2.48685 4.32386 0
M  V30 34 H 0.6271 -4.77103 3.74777 0
M  V30 35 H -0.6339 -4.06102 2.7006 0
M  V30 36 H -1.6289 -2.88284 4.68159 0
M  V30 37 H -0.4039 -3.62421 5.74307 0
M  V30 38 H -2.4579 -5.13431 4.08319 0
M  V30 39 H -2.5409 -4.85839 5.79221 0
M  V30 40 H -1.2729 -5.85594 5.1449 0
M  V30 41 N 2.9562 -1.48159 -0.537278 0
M  V30 42 C 4.2052 -1.5506 -1.28993 0
M  V30 43 C 4.5182 -0.226211 -1.94288 0
M  V30 44 O 5.7242 -0.173395 -2.70946 0
M  V30 45 C 4.1802 -2.73429 -2.34018 0
M  V30 46 C 3.7882 -4.1248 -1.74825 0
M  V30 47 C 5.5322 -2.89638 -3.10339 0
M  V30 48 C 3.4392 -5.22121 -2.77747 0
M  V30 49 H 2.3692 -0.577231 -0.485098 0
M  V30 50 H 5.0202 -1.74478 -0.568317 0
M  V30 51 H 3.4022 -2.47431 -3.09182 0
M  V30 52 H 4.5762 -4.48466 -1.05899 0
M  V30 53 H 2.8912 -4.01327 -1.11022 0
M  V30 54 H 5.4882 -3.68718 -3.87235 0
M  V30 55 H 5.8312 -1.9882 -3.65754 0
M  V30 56 H 6.3642 -3.15502 -2.42288 0
M  V30 57 H 3.1032 -6.1488 -2.27161 0
M  V30 58 H 2.6232 -4.90631 -3.45024 0
M  V30 59 H 4.3022 -5.49924 -3.4087 0
M  V30 60 N 4.4343 0.785586 -1.36625 0
M  V30 61 C 5.3643 1.91259 -1.33949 0
M  V30 62 C 6.3453 1.68795 -0.210325 0
M  V30 63 O 7.5303 1.89854 -0.408561 0
M  V30 64 C 4.6603 3.28339 -1.13186 0
M  V30 65 C 3.6143 3.65335 -2.22967 0
M  V30 66 C 2.9403 5.00806 -1.87342 0
M  V30 67 C 4.2403 3.7352 -3.65075 0
M  V30 68 H 5.9343 1.93755 -2.28253 0
M  V30 69 H 3.4803 0.930788 -1.09874 0
M  V30 70 H 5.4333 4.06804 -1.09948 0
M  V30 71 H 4.1573 3.2624 -0.153332 0
M  V30 72 H 2.8163 2.89169 -2.25337 0
M  V30 73 H 2.4643 4.95233 -0.880545 0
M  V30 74 H 2.1643 5.26529 -2.60846 0
M  V30 75 H 3.6883 5.81687 -1.85667 0
M  V30 76 H 5.1023 4.42168 -3.64911 0
M  V30 77 H 3.4993 4.10731 -4.37516 0
M  V30 78 H 4.5693 2.74527 -3.99703 0
M  V30 79 N 5.9124 1.20967 1.01018 0
M  V30 80 C 7.1584 1.02526 1.74975 0
M  V30 81 C 7.4914 -0.4408 1.89131 0
M  V30 82 O 6.7664 -1.32718 1.42184 0
M  V30 83 C 7.0494 1.71699 3.1653 0
M  V30 84 C 6.9024 3.25791 3.10129 0
M  V30 85 C 8.2214 1.45531 4.15342 0
M  V30 86 H 5.3404 0.373863 0.635134 0
M  V30 87 H 7.9824 1.49071 1.17805 0
M  V30 88 H 6.1324 1.32128 3.65341 0
M  V30 89 H 7.8044 3.74697 2.69072 0
M  V30 90 H 6.0474 3.56363 2.47362 0
M  V30 91 H 6.7184 3.69353 4.10222 0
M  V30 92 H 9.1944 1.79872 3.75213 0
M  V30 93 H 8.0704 1.96453 5.1254 0
M  V30 94 H 8.3314 0.384237 4.40427 0
M  V30 95 N 7.3905 -1.2043 1.01659 0
M  V30 96 C 8.6395 -1.89118 0.701237 0
M  V30 97 C 8.9525 -1.79705 -0.772358 0
M  V30 98 O 10.1585 -2.43528 -1.20026 0
M  V30 99 C 8.6145 -3.39168 1.20388 0
M  V30 100 C 8.2225 -3.57166 2.70438 0
M  V30 101 C 9.9665 -4.1341 0.963953 0
M  V30 102 C 7.8735 -5.01042 3.14183 0
M  V30 103 H 6.8035 -0.708267 0.2586 0
M  V30 104 H 9.4545 -1.36239 1.22927 0
M  V30 105 H 7.8365 -3.91369 0.603824 0
M  V30 106 H 9.0105 -3.15351 3.35992 0
M  V30 107 H 7.3255 -2.96294 2.92572 0
M  V30 108 H 9.9225 -5.19491 1.26621 0
M  V30 109 H 10.2655 -4.16181 -0.099578 0
M  V30 110 H 10.7985 -3.67309 1.52738 0
M  V30 111 H 7.5375 -5.03426 4.19812 0
M  V30 112 H 7.0575 -5.43668 2.53348 0
M  V30 113 H 8.7365 -5.69623 3.0682 0
M  V30 114 N 8.8686 -0.792821 -1.36206 0
M  V30 115 C 9.8006 -0.151469 -2.28699 0
M  V30 116 C 10.8136 0.641262 -1.49638 0
M  V30 117 O 12.0026 0.475885 -1.72039 0
M  V30 118 C 9.1026 0.808424 -3.29117 0
M  V30 119 C 8.2756 0.0650202 -4.37352 0
M  V30 120 C 7.3346 0.941358 -5.17711 0
M  V30 121 O 6.3606 0.397352 -5.67811 0
M  V30 122 N 7.5626 2.2652 -5.3448 0
M  V30 123 H 10.3276 -0.945982 -2.84379 0
M  V30 124 H 7.8886 -0.647032 -1.48409 0
M  V30 125 H 9.8806 1.3986 -3.79765 0
M  V30 126 H 8.4506 1.5038 -2.74052 0
M  V30 127 H 7.6706 -0.706255 -3.87822 0
M  V30 128 H 8.9586 -0.447847 -5.06825 0
M  V30 129 H 8.3566 2.73128 -4.95396 0
M  V30 130 H 6.9136 2.80493 -5.88359 0
M  V30 131 N 10.3467 1.47872 -0.545128 0
M  V30 132 C 11.5947 2.02093 -0.016553 0
M  V30 133 C 11.9157 1.42305 1.3332 0
M  V30 134 O 11.1857 0.593853 1.86682 0
M  V30 135 H 9.7657 0.746993 -0.00313038 0
M  V30 136 H 12.4277 1.81414 -0.712397 0
M  V30 137 H 11.5237 3.11996 0.0805422 0
M  V30 138 N 11.8248 0.280983 1.55075 0
M  V30 139 C 13.2358 -0.215629 1.85451 0
M  V30 140 C 13.5868 -1.54991 1.203 0
M  V30 141 O 12.7118 -2.10699 0.493435 0
M  V30 142 C 13.3068 -0.398026 3.36454 0
M  V30 143 C 11.8658 -0.838866 3.66933 0
M  V30 144 C 11.0128 0.064458 2.77225 0
M  V30 145 H 13.9638 0.502601 1.50531 0
M  V30 146 H 13.9848 -1.23569 3.59876 0
M  V30 147 H 13.4968 0.573241 3.83843 0
M  V30 148 H 11.5978 -1.8214 3.25048 0
M  V30 149 H 11.7108 -0.672123 4.74362 0
M  V30 150 H 10.0748 -0.452863 2.50642 0
M  V30 151 H 10.8578 1.03172 3.2743 0
M  V30 152 N 13.3029 -1.57598 0.00835791 0
M  V30 153 C 14.2509 -2.10078 -0.998508 0
M  V30 154 C 15.2449 -1.02262 -1.35051 0
M  V30 155 O 16.4509 -1.20719 -1.33518 0
M  V30 156 H 12.8259 -0.670903 -0.339696 0
M  V30 157 H 14.7969 -2.93648 -0.530398 0
M  V30 158 C 13.5459 -2.62615 -2.27879 0
M  V30 159 H 12.8689 -3.45213 -2.01662 0
M  V30 160 H 14.3089 -3.03004 -2.96588 0
M  V30 161 C 12.7679 -1.54407 -2.99433 0
M  V30 162 O 13.2979 -0.931812 -3.90743 0
M  V30 163 N 11.5039 -1.2695 -2.61404 0
M  V30 164 H 11.0509 -1.76924 -1.87232 0
M  V30 165 H 11.0089 -0.547704 -3.09593 0
M  V30 166 N 14.781 0.264519 -1.55364 0
M  V30 167 C 15.711 1.33121 -1.91836 0
M  V30 168 C 16.692 1.51101 -0.781192 0
M  V30 169 O 17.877 1.64003 -1.04003 0
M  V30 170 C 15.007 2.68921 -2.19769 0
M  V30 171 C 13.961 2.65661 -3.35571 0
M  V30 172 C 13.287 4.05093 -3.49004 0
M  V30 173 C 14.587 2.24187 -4.71739 0
M  V30 174 H 16.281 1.02844 -2.81182 0
M  V30 175 H 13.827 0.493286 -1.35287 0
M  V30 176 H 15.78 3.43663 -2.43872 0
M  V30 177 H 14.504 3.00799 -1.27231 0
M  V30 178 H 13.163 1.93377 -3.1145 0
M  V30 179 H 12.811 4.34206 -2.53917 0
M  V30 180 H 12.511 4.03804 -4.26868 0
M  V30 181 H 14.035 4.81561 -3.75408 0
M  V30 182 H 15.449 2.88654 -4.9533 0
M  V30 183 H 13.846 2.34044 -5.52579 0
M  V30 184 H 14.916 1.19327 -4.69988 0
M  V30 185 N 16.2591 1.48442 0.529413 0
M  V30 186 C 17.2071 1.63452 1.65487 0
M  V30 187 C 18.2011 0.500955 1.61823 0
M  V30 188 O 19.4071 0.679695 1.66674 0
M  V30 189 H 15.7821 0.514905 0.548066 0
M  V30 190 H 17.7531 2.57975 1.49971 0
M  V30 191 C 16.5021 1.69196 3.03756 0
M  V30 192 H 15.8251 2.55784 3.07269 0
M  V30 193 H 17.2651 1.83743 3.82119 0
M  V30 194 C 15.7241 0.430765 3.34135 0
M  V30 195 O 16.2541 -0.4561 3.99102 0
M  V30 196 N 14.4601 0.302293 2.89023 0
M  V30 197 H 14.0071 1.02496 2.36331 0
M  V30 198 H 13.9651 -0.540546 3.09718 0
M  V30 199 N 17.7372 -0.778329 1.37039 0
M  V30 200 C 18.6702 -1.8984 1.26633 0
M  V30 201 C 19.6482 -1.61923 0.148197 0
M  V30 202 O 20.8322 -1.85742 0.321265 0
M  V30 203 C 17.9592 -3.24916 0.956403 0
M  V30 204 C 17.0052 -3.71752 2.09051 0
M  V30 205 S 17.8382 -3.86201 3.70957 0
M  V30 206 C 18.9942 -5.24135 3.42101 0
M  V30 207 H 19.2272 -1.98377 2.21436 0
M  V30 208 H 16.7602 -0.938738 1.22585 0
M  V30 209 H 18.7182 -4.02936 0.784409 0
M  V30 210 H 17.3792 -3.14089 0.0259713 0
M  V30 211 H 16.5722 -4.69661 1.8285 0
M  V30 212 H 16.1742 -3.00815 2.2223 0
M  V30 213 H 18.4662 -6.09086 2.96682 0
M  V30 214 H 19.4092 -5.55346 4.39314 0
M  V30 215 H 19.8172 -4.91761 2.77185 0
M  V30 216 N 19.2153 -1.21501 -1.00376 0
M  V30 217 C 20.1453 -0.999478 -2.11028 0
M  V30 218 C 21.1263 0.0759671 -1.6993 0
M  V30 219 O 22.3113 -0.0841106 -1.94018 0
M  V30 220 C 19.4413 -0.564709 -3.42678 0
M  V30 221 C 18.3953 -1.58486 -3.97576 0
M  V30 222 C 17.7213 -1.00628 -5.25146 0
M  V30 223 C 19.0213 -2.97204 -4.29496 0
M  V30 224 H 20.7153 -1.92495 -2.29317 0
M  V30 225 H 18.2613 -0.92693 -1.102 0
M  V30 226 H 20.2143 -0.401091 -4.19487 0
M  V30 227 H 18.9383 0.396411 -3.24185 0
M  V30 228 H 17.5973 -1.73606 -3.22888 0
M  V30 229 H 17.2453 -0.0368439 -5.02987 0
M  V30 230 H 16.9453 -1.68771 -5.62841 0
M  V30 231 H 18.4693 -0.854015 -6.04598 0
M  V30 232 H 19.8833 -2.8552 -4.97143 0
M  V30 233 H 18.2803 -3.62372 -4.78338 0
M  V30 234 H 19.3503 -3.47956 -3.3772 0
M  V30 235 N 20.6934 1.19889 -1.02296 0
M  V30 236 C 21.9414 1.89046 -0.714558 0
M  V30 237 C 22.2624 1.79636 0.758681 0
M  V30 238 O 21.5324 1.20292 1.54618 0
M  V30 239 H 20.1124 0.699802 -0.261317 0
M  V30 240 H 22.7744 1.45574 -1.29592 0
M  V30 241 H 21.8704 2.95524 -1.0036 0
M  V30 242 N 22.1715 0.800033 1.35784 0
M  V30 243 C 23.1215 0.178654 2.27299 0
M  V30 244 C 24.1055 -0.643667 1.47464 0
M  V30 245 O 25.2975 -0.502 1.69732 0
M  V30 246 C 22.4265 -0.677194 3.36555 0
M  V30 247 C 21.5125 0.154497 4.23818 0
M  V30 248 N 21.9035 1.21427 4.91008 0
M  V30 249 C 20.2015 -0.0649462 4.45953 0
M  V30 250 C 20.9025 1.72147 5.55644 0
M  V30 251 N 19.8785 1.02897 5.33773 0
M  V30 252 H 23.6805 0.989637 2.76737 0
M  V30 253 H 21.1945 0.64054 1.49234 0
M  V30 254 H 23.1915 -1.13835 4.01058 0
M  V30 255 H 21.8515 -1.4866 2.8867 0
M  V30 256 H 22.8625 1.59684 4.92668 0
M  V30 257 H 19.5395 -0.844016 4.0888 0
M  V30 258 H 20.9295 2.60683 6.19269 0
M  V30 259 N 23.6496 -1.47581 0.552962 0
M  V30 260 C 25.0656 -1.5818 0.212424 0
M  V30 261 C 25.2656 -1.55213 -1.28496 0
M  V30 262 O 24.3216 -1.45329 -2.06484 0
M  V30 263 C 25.6346 -2.88865 0.835318 0
M  V30 264 C 27.1826 -3.0244 0.806156 0
M  V30 265 C 27.6576 -4.35819 1.40804 0
M  V30 266 N 29.1486 -4.42444 1.37103 0
M  V30 267 C 29.8836 -5.44202 1.80641 0
M  V30 268 N 29.3796 -6.52795 2.32015 0
M  V30 269 N 31.1726 -5.35222 1.71738 0
M  V30 270 H 23.3236 -1.47753 1.52587 0
M  V30 271 H 25.5866 -0.702941 0.636064 0
M  V30 272 H 25.2926 -2.9676 1.88749 0
M  V30 273 H 25.1666 -3.7579 0.325848 0
M  V30 274 H 27.5536 -2.94144 -0.237317 0
M  V30 275 H 27.6346 -2.17068 1.35334 0
M  V30 276 H 27.2786 -4.44871 2.45056 0
M  V30 277 H 27.2086 -5.19916 0.836338 0
M  V30 278 H 29.6996 -3.6456 0.995202 0
M  V30 279 H 30.0126 -7.26609 2.63171 0
M  V30 280 H 28.3576 -6.53696 2.36023 0
M  V30 281 H 31.5486 -4.49284 1.31382 0
M  V30 282 H 31.7216 -6.14389 2.05987 0
M  V30 283 N 25.1277 -0.289203 -1.54924 0
M  V30 284 C 26.4047 0.376032 -1.91951 0
M  V30 285 C 26.7847 1.72622 -1.21511 0
M  V30 286 O 26.1327 2.25853 -0.346767 0
M  V30 287 C 26.3427 0.502378 -3.45365 0
M  V30 288 C 27.6907 0.778741 -4.17398 0
M  V30 289 O 28.7147 0.586647 -3.51336 0
M  V30 290 O 27.5737 1.14698 -5.34328 0
M  V30 291 H 24.6677 0.208167 -0.800372 0
M  V30 292 H 27.2137 -0.336394 -1.66332 0
M  V30 293 H 25.9857 -0.447255 -3.88736 0
M  V30 294 H 25.6087 1.26373 -3.76982 0
M  V30 295 N 26.6058 1.57591 -0.0167156 0
M  V30 296 C 28.0168 1.79201 0.523834 0
M  V30 297 C 28.3678 0.925796 1.72984 0
M  V30 298 O 27.4928 0.132792 2.15992 0
M  V30 299 C 28.0878 3.25 0.957091 0
M  V30 300 C 26.6468 3.47648 1.44283 0
M  V30 301 C 25.7938 2.74374 0.401757 0
M  V30 302 H 28.7448 1.56831 -0.242816 0
M  V30 303 H 28.7658 3.34031 1.82219 0
M  V30 304 H 28.2778 3.88019 0.0791415 0
M  V30 305 H 26.3788 2.89866 2.34113 0
M  V30 306 H 26.4918 4.56352 1.45877 0
M  V30 307 H 24.8558 2.39485 0.867121 0
M  V30 308 H 25.6388 3.40102 -0.467513 0
M  V30 309 N 28.0839 -0.256276 1.55502 0
M  V30 310 C 29.4999 -0.604325 1.47716 0
M  V30 311 C 29.6999 -1.88763 0.705039 0
M  V30 312 O 28.7559 -2.51445 0.230613 0
M  V30 313 C 30.0689 -0.715756 2.92057 0
M  V30 314 C 31.6169 -0.808706 3.02372 0
M  V30 315 C 32.0919 -0.951777 4.48001 0
M  V30 316 N 33.5829 -1.01688 4.519 0
M  V30 317 C 34.3179 -1.14668 5.61817 0
M  V30 318 N 33.8139 -1.24261 6.81565 0
M  V30 319 N 35.6069 -1.1791 5.49594 0
M  V30 320 H 27.7579 0.586291 2.04148 0
M  V30 321 H 30.0209 0.201015 0.926443 0
M  V30 322 H 29.7269 0.157027 3.51349 0
M  V30 323 H 29.6009 -1.59071 3.42018 0
M  V30 324 H 31.9879 -1.67195 2.43166 0
M  V30 325 H 32.0689 0.0912063 2.55637 0
M  V30 326 H 31.7129 -0.0931291 5.07815 0
M  V30 327 H 31.6429 -1.86659 4.92408 0
M  V30 328 H 34.1339 -0.954468 3.65648 0
M  V30 329 H 34.4469 -1.34046 7.61086 0
M  V30 330 H 32.7919 -1.21236 6.84344 0
M  V30 331 H 35.9829 -1.10057 4.54978 0
M  V30 332 H 36.1559 -1.27681 6.35296 0
M  V30 333 N 29.562 -1.4872 -0.521534 0
M  V30 334 C 30.492 -1.66771 -1.63431 0
M  V30 335 C 31.473 -0.516499 -1.62069 0
M  V30 336 O 32.658 -0.750013 -1.79132 0
M  V30 337 C 29.788 -1.71515 -3.01993 0
M  V30 338 C 28.742 -2.86222 -3.18216 0
M  V30 339 C 28.068 -2.76061 -4.57924 0
M  V30 340 C 29.368 -4.27419 -3.00184 0
M  V30 341 H 31.062 -2.59932 -1.48579 0
M  V30 342 H 28.608 -1.25089 -0.713358 0
M  V30 343 H 30.561 -1.82731 -3.7972 0
M  V30 344 H 29.285 -0.749393 -3.17886 0
M  V30 345 H 27.944 -2.74575 -2.42908 0
M  V30 346 H 27.592 -1.77437 -4.70665 0
M  V30 347 H 27.292 -3.53037 -4.69722 0
M  V30 348 H 28.816 -2.89256 -5.37739 0
M  V30 349 H 30.23 -4.39855 -3.67697 0
M  V30 350 H 28.627 -5.05458 -3.2347 0
M  V30 351 H 29.697 -4.43293 -1.96518 0
M  V30 352 N 31.0401 0.771051 -1.3745 0
M  V30 353 C 32.2701 1.55789 -1.35696 0
M  V30 354 C 32.6781 1.89107 0.0594523 0
M  V30 355 O 32.0211 1.51984 1.03183 0
M  V30 356 C 32.0831 2.89515 -2.13123 0
M  V30 357 C 31.7471 2.78829 -3.62082 0
M  V30 358 C 32.7441 2.49812 -4.5595 0
M  V30 359 C 30.4291 2.9683 -4.05213 0
M  V30 360 C 32.4231 2.38923 -5.90927 0
M  V30 361 C 30.1101 2.85562 -5.40276 0
M  V30 362 C 31.1081 2.56649 -6.32946 0
M  V30 363 O 30.7961 2.45408 -7.65526 0
M  V30 364 H 30.5281 0.489257 -0.466481 0
M  V30 365 H 33.0821 0.963446 -1.81403 0
M  V30 366 H 31.3121 3.51081 -1.62107 0
M  V30 367 H 33.0011 3.50915 -2.03994 0
M  V30 368 H 33.7671 2.3559 -4.23937 0
M  V30 369 H 29.6461 3.18335 -3.33442 0
M  V30 370 H 33.1901 2.16277 -6.63227 0
M  V30 371 H 29.0871 2.99351 -5.71891 0
M  V30 372 H 29.8551 2.60753 -7.75855 0
M  V30 373 N 32.5182 1.22032 0.997298 0
M  V30 374 C 33.7662 1.04016 1.73278 0
M  V30 375 C 34.0872 -0.426255 1.90284 0
M  V30 376 O 33.3572 -1.30694 1.45931 0
M  V30 377 H 31.9372 0.381897 0.642 0
M  V30 378 H 34.5992 1.5347 1.20137 0
M  V30 379 H 33.6952 1.51441 2.72896 0
M  V30 380 N 33.9963 -1.19345 1.0293 0
M  V30 381 C 34.9293 -2.21347 0.555029 0
M  V30 382 C 35.9073 -1.57492 -0.404351 0
M  V30 383 O 37.0913 -1.85741 -0.321352 0
M  V30 384 C 34.2183 -3.38163 -0.19064 0
M  V30 385 C 33.2643 -4.20375 0.720236 0
M  V30 386 S 34.0973 -4.88371 2.19668 0
M  V30 387 C 35.2533 -6.08597 1.46153 0
M  V30 388 H 35.4863 -2.61235 1.41929 0
M  V30 389 H 33.0193 -1.29598 0.839272 0
M  V30 390 H 34.9773 -4.05871 -0.614724 0
M  V30 391 H 33.6383 -2.9671 -1.03063 0
M  V30 392 H 32.8313 -5.03793 0.14455 0
M  V30 393 H 32.4333 -3.57987 1.08266 0
M  V30 394 H 34.7253 -6.73354 0.748357 0
M  V30 395 H 35.6683 -6.7065 2.27233 0
M  V30 396 H 36.0763 -5.56297 0.958842 0
M  V30 397 N 35.4744 -0.807222 -1.35358 0
M  V30 398 C 36.7204 -0.388463 -1.99045 0
M  V30 399 C 37.0534 1.04184 -1.63888 0
M  V30 400 O 36.3284 1.72292 -0.902535 0
M  V30 401 C 36.6114 -0.572783 -3.55515 0
M  V30 402 C 36.4644 -2.04807 -4.00468 0
M  V30 403 C 37.7834 0.00114064 -4.401 0
M  V30 404 H 34.9024 -0.142619 -0.723069 0
M  V30 405 H 37.5444 -1.01687 -1.60498 0
M  V30 406 H 35.6944 -0.0378425 -3.88482 0
M  V30 407 H 37.3664 -2.64544 -3.77908 0
M  V30 408 H 35.6094 -2.54427 -3.51353 0
M  V30 409 H 36.2804 -2.12792 -5.09337 0
M  V30 410 H 38.7564 -0.455716 -4.13597 0
M  V30 411 H 37.6324 -0.157737 -5.48673 0
M  V30 412 H 37.8934 1.09488 -4.28328 0
M  V30 413 N 36.9525 1.47285 -0.560781 0
M  V30 414 C 38.1805 2.06855 -0.0430262 0
M  V30 415 C 38.5955 1.41291 1.25229 0
M  V30 416 O 37.9525 0.510648 1.7521 0
M  V30 417 C 38.0035 3.61178 0.152518 0
M  V30 418 O 37.7245 4.24285 -1.0915 0
M  V30 419 C 39.2255 4.37624 0.707145 0
M  V30 420 H 36.4455 0.669319 -0.0474652 0
M  V30 421 H 38.9895 1.89237 -0.77521 0
M  V30 422 H 37.1445 3.78298 0.834843 0
M  V30 423 H 37.5585 5.16868 -0.891482 0
M  V30 424 H 39.0325 5.46271 0.793244 0
M  V30 425 H 39.5095 4.04152 1.71923 0
M  V30 426 H 40.1155 4.25257 0.0604027 0
M  V30 427 N 38.4306 0.297415 1.54768 0
M  V30 428 C 39.3606 -0.573494 2.26348 0
M  V30 429 C 40.3416 -1.14085 1.26169 0
M  V30 430 O 41.5266 -1.17086 1.54934 0
M  V30 431 C 38.6566 -1.74716 3.00153 0
M  V30 432 C 37.6106 -1.31032 4.07449 0
M  V30 433 C 36.9366 -2.56887 4.68949 0
M  V30 434 C 38.2366 -0.444183 5.20408 0
M  V30 435 H 39.9306 0.0235131 2.99391 0
M  V30 436 H 37.4766 0.0127488 1.43994 0
M  V30 437 H 39.4296 -2.3625 3.48947 0
M  V30 438 H 38.1536 -2.37035 2.24682 0
M  V30 439 H 36.8126 -0.718066 3.59499 0
M  V30 440 H 36.4606 -3.17512 3.90122 0
M  V30 441 H 36.1606 -2.2836 5.41411 0
M  V30 442 H 37.6846 -3.19229 5.20505 0
M  V30 443 H 39.0986 -0.9651 5.65118 0
M  V30 444 H 37.4956 -0.252846 5.99567 0
M  V30 445 H 38.5656 0.531609 4.81977 0
M  V30 446 N 39.9087 -1.5758 0.0250728 0
M  V30 447 C 41.1857 -1.82917 -0.692873 0
M  V30 448 C 41.5657 -0.908137 -1.90568 0
M  V30 449 O 40.9137 0.0372298 -2.2847 0
M  V30 450 C 41.1237 -3.32034 -1.07492 0
M  V30 451 C 42.4717 -3.98406 -1.46826 0
M  V30 452 O 43.4957 -3.36505 -1.16801 0
M  V30 453 O 42.3547 -5.07497 -2.02754 0
M  V30 454 H 39.4487 -0.754079 -0.33955 0
M  V30 455 H 41.9947 -1.69619 0.0524456 0
M  V30 456 H 40.7667 -3.90728 -0.211552 0
M  V30 457 H 40.3897 -3.50424 -1.87854 0
M  V30 458 N 41.3868 0.248026 -1.55636 0
M  V30 459 C 42.3188 1.32993 -1.8667 0
M  V30 460 C 43.3318 1.44345 -0.752877 0
M  V30 461 O 44.5208 1.45715 -1.03098 0
M  V30 462 C 41.6208 2.70863 -2.03682 0
M  V30 463 C 40.7938 2.81792 -3.34532 0
M  V30 464 C 39.8528 4.005 -3.41301 0
M  V30 465 O 38.8788 3.9008 -4.14519 0
M  V30 466 N 40.0808 5.13618 -2.70512 0
M  V30 467 H 42.8458 1.06707 -2.8006 0
M  V30 468 H 40.4068 0.438129 -1.55859 0
M  V30 469 H 42.3988 3.48612 -2.05553 0
M  V30 470 H 40.9688 2.89862 -1.17041 0
M  V30 471 H 40.1888 1.90729 -3.44987 0
M  V30 472 H 41.4768 2.86043 -4.20781 0
M  V30 473 H 40.8748 5.24975 -2.10755 0
M  V30 474 H 39.4318 5.89505 -2.78077 0
M  V30 475 N 42.8649 1.48995 0.513639 0
M  V30 476 C 44.1139 1.57093 1.2651 0
M  V30 477 C 44.4269 0.257091 1.93903 0
M  V30 478 O 45.6329 0.216478 2.70636 0
M  V30 479 C 44.0889 2.77118 2.29638 0
M  V30 480 C 43.6969 4.15209 1.68241 0
M  V30 481 C 45.4409 2.94538 3.05692 0
M  V30 482 C 43.3479 5.26474 2.69406 0
M  V30 483 H 42.2779 0.584876 0.475854 0
M  V30 484 H 44.9289 1.7536 0.540487 0
M  V30 485 H 43.3109 2.52319 3.05207 0
M  V30 486 H 44.4849 4.50094 0.987505 0
M  V30 487 H 42.7999 4.03042 1.04623 0
M  V30 488 H 45.3969 3.74832 3.8132 0
M  V30 489 H 45.7399 2.04614 3.62545 0
M  V30 490 H 46.2729 3.19316 2.37238 0
M  V30 491 H 43.0119 6.18417 2.17351 0
M  V30 492 H 42.5319 4.96058 3.37175 0
M  V30 493 H 44.2109 5.55277 3.32078 0
M  V30 494 N 44.343 -0.763751 1.37857 0
M  V30 495 C 45.293 -1.86765 1.30777 0
M  V30 496 C 46.277 -1.59726 0.194015 0
M  V30 497 O 47.469 -1.7172 0.42911 0
M  V30 498 C 44.598 -3.24343 1.12502 0
M  V30 499 C 43.684 -3.57307 2.28456 0
M  V30 500 N 44.075 -3.61398 3.53871 0
M  V30 501 C 42.373 -3.87517 2.20786 0
M  V30 502 C 43.074 -3.91339 4.30382 0
M  V30 503 N 42.05 -4.07649 3.59615 0
M  V30 504 H 45.852 -1.88191 2.25746 0
M  V30 505 H 43.366 -0.9606 1.30944 0
M  V30 506 H 45.363 -4.03327 1.05514 0
M  V30 507 H 44.023 -3.24175 0.184574 0
M  V30 508 H 45.034 -3.43407 3.87675 0
M  V30 509 H 41.711 -3.95125 1.34844 0
M  V30 510 H 43.101 -4.01213 5.3896 0
M  V30 511 N 45.8211 -1.22559 -0.990812 0
M  V30 512 C 46.7311 -1.01394 -2.11557 0
M  V30 513 C 47.7471 0.0383962 -1.73958 0
M  V30 514 O 48.9231 -0.154787 -2.00804 0
M  V30 515 C 45.9881 -0.596569 -3.41529 0
M  V30 516 C 45.0491 -1.72276 -3.93217 0
M  V30 517 C 44.2821 -1.32521 -5.16985 0
M  V30 518 O 44.5051 -0.204909 -5.70032 0
M  V30 519 O 43.4391 -2.14247 -5.62478 0
M  V30 520 H 47.2651 -1.95633 -2.32296 0
M  V30 521 H 44.8501 -1.01172 -1.0993 0
M  V30 522 H 46.7321 -0.374263 -4.19735 0
M  V30 523 H 45.4071 0.316939 -3.22145 0
M  V30 524 H 44.3141 -1.99961 -3.16174 0
M  V30 525 H 45.6471 -2.61421 -4.17037 0
M  V30 526 N 47.2992 1.18797 -1.03562 0
M  V30 527 C 48.5482 1.87978 -0.731235 0
M  V30 528 C 48.8612 1.80911 0.743671 0
M  V30 529 O 50.0672 2.45407 1.16137 0
M  V30 530 C 48.5232 3.3721 -1.25768 0
M  V30 531 C 48.1312 3.52818 -2.76085 0
M  V30 532 C 49.8752 4.11825 -1.0296 0
M  V30 533 C 47.7822 4.9598 -3.22114 0
M  V30 534 H 46.7122 0.704063 -0.269835 0
M  V30 535 H 49.3632 1.34266 -1.25079 0
M  V30 536 H 47.7452 3.90359 -0.666011 0
M  V30 537 H 48.9192 3.09965 -3.40966 0
M  V30 538 H 47.2342 2.91602 -2.97249 0
M  V30 539 H 49.8312 5.17411 -1.34869 0
M  V30 540 H 50.1742 4.16287 0.0333546 0
M  V30 541 H 50.7072 3.64833 -1.58562 0
M  V30 542 H 47.4462 4.96684 -4.27768 0
M  V30 543 H 46.9662 5.39569 -2.61965 0
M  V30 544 H 48.6452 5.6467 -3.15844 0
M  V30 545 N 48.7773 0.814389 1.34928 0
M  V30 546 C 49.7103 0.175641 2.27523 0
M  V30 547 C 50.6883 -0.662953 1.48471 0
M  V30 548 O 51.8723 -0.628545 1.77712 0
M  V30 549 C 48.9993 -0.755516 3.30166 0
M  V30 550 C 48.0453 0.00445305 4.265 0
M  V30 551 S 48.8783 1.34582 5.18313 0
M  V30 552 C 50.0343 0.419315 6.24494 0
M  V30 553 H 50.2673 0.960691 2.8135 0
M  V30 554 H 47.8003 0.609846 1.41846 0
M  V30 555 H 49.7583 -1.28723 3.89796 0
M  V30 556 H 48.4193 -1.51402 2.75202 0
M  V30 557 H 47.6123 -0.703077 4.99072 0
M  V30 558 H 47.2143 0.466447 3.7108 0
M  V30 559 H 49.5063 -0.392432 6.76362 0
M  V30 560 H 50.4493 1.11446 6.99275 0
M  V30 561 H 50.8573 0.0115389 5.64499 0
M  V30 562 N 50.2554 -1.46986 0.568584 0
M  V30 563 C 51.1874 -2.28233 -0.210337 0
M  V30 564 C 52.2004 -1.37682 -0.868767 0
M  V30 565 O 53.3894 -1.62406 -0.740705 0
M  V30 566 C 50.4894 -3.12293 -1.3163 0
M  V30 567 C 49.6624 -4.30878 -0.7525 0
M  V30 568 C 48.7214 -4.96445 -1.74439 0
M  V30 569 O 47.7474 -5.54482 -1.286 0
M  V30 570 N 48.9494 -4.92171 -3.07812 0
M  V30 571 H 51.7144 -2.95723 0.486648 0
M  V30 572 H 49.2754 -1.56742 0.405409 0
M  V30 573 H 51.2674 -3.53022 -1.97883 0
M  V30 574 H 49.8374 -2.46971 -1.91636 0
M  V30 575 H 49.0574 -3.94104 0.0871128 0
M  V30 576 H 50.3454 -5.07558 -0.35536 0
M  V30 577 H 49.7434 -4.46239 -3.47688 0
M  V30 578 H 48.3004 -5.36884 -3.69592 0
M  V30 579 N 51.7335 -0.305618 -1.54608 0
M  V30 580 C 52.9615 0.304775 -2.04643 0
M  V30 581 C 53.3765 1.47167 -1.18268 0
M  V30 582 O 52.7335 1.81296 -0.209328 0
M  V30 583 C 52.7845 0.756564 -3.53495 0
M  V30 584 O 52.5055 -0.36389 -4.36586 0
M  V30 585 C 54.0065 1.43163 -4.19546 0
M  V30 586 H 51.2265 0.0655481 -0.667791 0
M  V30 587 H 53.7705 -0.446592 -1.99564 0
M  V30 588 H 51.9255 1.45794 -3.58919 0
M  V30 589 H 52.3395 -0.0113121 -5.24499 0
M  V30 590 H 53.8135 1.69886 -5.25207 0
M  V30 591 H 54.2905 2.37318 -3.69563 0
M  V30 592 H 54.8965 0.773307 -4.18211 0
M  V30 593 N 53.2116 1.57565 -0.0334293 0
M  V30 594 C 54.4586 1.91978 0.644272 0
M  V30 595 C 54.7866 0.910231 1.71887 0
M  V30 596 O 54.0416 -0.0801961 1.95536 0
M  V30 597 C 54.3406 3.33112 1.29504 0
M  V30 598 C 54.0066 4.49537 0.350388 0
M  V30 599 C 52.6686 4.81115 0.0903974 0
M  V30 600 C 55.0206 5.20347 -0.298032 0
M  V30 601 C 52.3486 5.8086 -0.825746 0
M  V30 602 C 54.7006 6.2107 -1.20226 0
M  V30 603 C 53.3646 6.51088 -1.4711 0
M  V30 604 H 52.6346 0.702496 0.235756 0
M  V30 605 H 55.2816 1.91259 -0.0961176 0
M  V30 606 H 53.5866 3.30113 2.11028 0
M  V30 607 H 55.2836 3.57011 1.82603 0
M  V30 608 H 51.8736 4.24883 0.563205 0
M  V30 609 H 56.0576 4.96178 -0.110234 0
M  V30 610 H 51.3136 6.02461 -1.04169 0
M  V30 611 H 55.4876 6.75057 -1.71086 0
M  V30 612 H 53.1146 7.28193 -2.18264 0
M  V30 613 N 54.6897 -0.239769 1.55765 0
M  V30 614 C 55.9357 -0.968234 1.78194 0
M  V30 615 C 56.2687 -1.84701 0.599938 0
M  V30 616 O 55.5437 -1.9031 -0.401524 0
M  V30 617 C 55.8267 -1.8227 3.10564 0
M  V30 618 C 55.6797 -0.971633 4.3918 0
M  V30 619 C 56.9987 -2.80388 3.39221 0
M  V30 620 H 54.1177 -0.350572 0.648281 0
M  V30 621 H 56.7597 -0.238259 1.885 0
M  V30 622 H 54.9097 -2.44507 3.01908 0
M  V30 623 H 56.5817 -0.367408 4.59835 0
M  V30 624 H 54.8247 -0.276276 4.32919 0
M  V30 625 H 55.4957 -1.60346 5.28198 0
M  V30 626 H 57.9717 -2.28287 3.47885 0
M  V30 627 H 56.8477 -3.3729 4.33044 0
M  V30 628 H 57.1087 -3.57212 2.60484 0
M  V30 629 N 56.1678 -1.49265 -0.50573 0
M  V30 630 C 57.1148 -1.65585 -1.6078 0
M  V30 631 C 58.0848 -0.497396 -1.58478 0
M  V30 632 O 59.2698 -0.72385 -1.76536 0
M  V30 633 C 56.4098 -1.72408 -2.98948 0
M  V30 634 C 55.5228 -2.99525 -3.11301 0
M  V30 635 C 54.6578 -2.97356 -4.40174 0
M  V30 636 C 53.6968 -4.19074 -4.46143 0
M  V30 637 N 52.8338 -4.14841 -5.66437 0
M  V30 638 H 57.6738 -2.59688 -1.46172 0
M  V30 639 H 55.2108 -1.28761 -0.711261 0
M  V30 640 H 57.1688 -1.74344 -3.79025 0
M  V30 641 H 55.7988 -0.817753 -3.1227 0
M  V30 642 H 54.8508 -3.07222 -2.24318 0
M  V30 643 H 56.1628 -3.89518 -3.11572 0
M  V30 644 H 55.3168 -2.97829 -5.28567 0
M  V30 645 H 54.0558 -2.05133 -4.42461 0
M  V30 646 H 53.0608 -4.1885 -3.56153 0
M  V30 647 H 54.2858 -5.12483 -4.45575 0
M  V30 648 H 52.2318 -3.25453 -5.69575 0
M  V30 649 H 52.1488 -4.98564 -5.68304 0
M  V30 650 H 53.4168 -4.1941 -6.57051 0
M  V30 651 N 57.6459 0.756429 -1.3826 0
M  V30 652 C 58.5779 1.87971 -1.31147 0
M  V30 653 C 59.5909 1.61248 -0.224239 0
M  V30 654 O 60.7799 1.71881 -0.481581 0
M  V30 655 C 57.8799 3.23545 -1.00857 0
M  V30 656 C 57.0529 3.77794 -2.20432 0
M  V30 657 C 56.1119 4.91877 -1.86931 0
M  V30 658 O 55.1379 5.06659 -2.59395 0
M  V30 659 N 56.3399 5.74643 -0.822568 0
M  V30 660 H 59.1049 1.94585 -2.2794 0
M  V30 661 H 56.6659 0.936234 -1.32084 0
M  V30 662 H 58.6579 3.97403 -0.765021 0
M  V30 663 H 57.2279 3.12335 -0.128687 0
M  V30 664 H 56.4479 2.95534 -2.6087 0
M  V30 665 H 57.7359 4.10771 -3.00241 0
M  V30 666 H 57.1339 5.65266 -0.221575 0
M  V30 667 H 55.6909 6.48661 -0.638899 0
M  V30 668 N 59.124 1.23083 0.984299 0
M  V30 669 C 60.372 1.05848 1.72165 0
M  V30 670 C 60.693 -0.406049 1.90726 0
M  V30 671 O 59.963 -1.29139 1.47309 0
M  V30 672 H 58.543 0.388685 0.637913 0
M  V30 673 H 61.205 1.54736 1.18503 0
M  V30 674 H 60.301 1.54327 2.71274 0
M  V30 675 N 60.6021 -1.18246 1.0419 0
M  V30 676 C 61.5501 -2.23968 0.627792 0
M  V30 677 C 62.5441 -1.65828 -0.346019 0
M  V30 678 O 63.7501 -1.78733 -0.213175 0
M  V30 679 H 60.1251 -0.728939 0.184802 0
M  V30 680 H 62.0961 -2.56202 1.52981 0
M  V30 681 C 60.8451 -3.47699 0.00796591 0
M  V30 682 H 60.1681 -3.92734 0.748347 0
M  V30 683 H 61.6081 -4.23294 -0.24455 0
M  V30 684 C 60.0671 -3.13153 -1.24246 0
M  V30 685 O 60.5971 -3.27003 -2.33307 0
M  V30 686 N 58.8031 -2.67467 -1.13622 0
M  V30 687 H 58.3501 -2.56396 -0.248734 0
M  V30 688 H 58.3081 -2.44724 -1.97377 0
M  V30 689 N 62.0802 -0.821533 -1.34494 0
M  V30 690 C 63.0102 -0.257138 -2.3208 0
M  V30 691 C 63.9912 0.625645 -1.58176 0
M  V30 692 O 65.1762 0.552811 -1.86166 0
M  V30 693 C 62.3062 0.582958 -3.42372 0
M  V30 694 C 61.2602 -0.202571 -4.2752 0
M  V30 695 C 60.5862 0.760179 -5.29269 0
M  V30 696 C 61.8862 -1.40998 -5.02908 0
M  V30 697 H 63.5802 -1.07247 -2.79532 0
M  V30 698 H 61.1262 -0.517163 -1.34393 0
M  V30 699 H 63.0792 0.987972 -4.09655 0
M  V30 700 H 61.8032 1.43133 -2.93565 0
M  V30 701 H 60.4622 -0.588936 -3.61838 0
M  V30 702 H 60.1102 1.60447 -4.76724 0
M  V30 703 H 59.8102 0.238809 -5.87115 0
M  V30 704 H 61.3342 1.16308 -5.9942 0
M  V30 705 H 62.7482 -1.07905 -5.63054 0
M  V30 706 H 61.1452 -1.86689 -5.70322 0
M  V30 707 H 62.2152 -2.1889 -4.32684 0
M  V30 708 N 63.5583 1.46682 -0.576371 0
M  V30 709 C 64.8353 1.95599 0.00703437 0
M  V30 710 C 65.2153 1.51904 1.46589 0
M  V30 711 O 64.5633 0.766755 2.15251 0
M  V30 712 C 64.7733 3.4864 -0.158404 0
M  V30 713 C 66.1213 4.24594 -0.0229439 0
M  V30 714 O 67.1453 3.56094 -0.0869173 0
M  V30 715 O 66.0043 5.46373 0.118015 0
M  V30 716 H 63.0983 0.825275 0.053384 0
M  V30 717 H 65.6443 1.56996 -0.644244 0
M  V30 718 H 64.4163 3.7331 -1.17282 0
M  V30 719 H 64.0393 3.94057 0.5296 0
M  V30 720 N 65.0364 0.313813 1.54444 0
M  V30 721 C 66.2824 -0.292108 2.00685 0
M  V30 722 C 66.6154 -1.52548 1.20177 0
M  V30 723 O 65.8904 -1.92452 0.281531 0
M  V30 724 C 66.1734 -0.635968 3.5444 0
M  V30 725 C 66.0264 0.607437 4.4568 0
M  V30 726 C 67.3454 -1.45747 4.15266 0
M  V30 727 H 64.4644 -0.104697 0.729526 0
M  V30 728 H 67.1064 0.428457 1.85106 0
M  V30 729 H 65.2564 -1.24986 3.67846 0
M  V30 730 H 66.9284 1.24581 4.44159 0
M  V30 731 H 65.1714 1.23822 4.15753 0
M  V30 732 H 65.8424 0.322515 5.51057 0
M  V30 733 H 68.3184 -0.938645 4.05375 0
M  V30 734 H 67.1944 -1.66683 5.2298 0
M  V30 735 H 67.4554 -2.45063 3.67963 0
M  V30 736 N 66.5145 -1.57545 0.0417849 0
M  V30 737 C 67.4245 -2.14451 -0.951213 0
M  V30 738 C 68.4405 -1.09992 -1.34825 0
M  V30 739 O 69.6165 -1.42114 -1.42708 0
M  V30 740 C 66.6815 -2.67063 -2.21084 0
M  V30 741 C 65.7425 -3.86284 -1.87304 0
M  V30 742 C 64.9755 -4.36378 -3.07261 0
M  V30 743 O 65.1985 -3.85587 -4.20332 0
M  V30 744 O 64.1325 -5.28077 -2.88822 0
M  V30 745 H 67.9585 -2.99601 -0.497287 0
M  V30 746 H 65.5435 -1.48317 -0.179567 0
M  V30 747 H 67.4255 -3.00914 -2.95006 0
M  V30 748 H 66.1005 -1.84989 -2.65633 0
M  V30 749 H 65.0075 -3.57338 -1.10727 0
M  V30 750 H 66.3405 -4.6956 -1.47562 0
M  V30 751 N 67.9926 0.231505 -1.5589 0
M  V30 752 C 68.9226 1.29022 -1.94617 0
M  V30 753 C 69.9036 1.4941 -0.813067 0
M  V30 754 O 71.0886 1.6176 -1.07459 0
M  V30 755 C 68.2186 2.64199 -2.25424 0
M  V30 756 C 67.1726 2.58484 -3.41131 0
M  V30 757 C 66.4986 3.97599 -3.57518 0
M  V30 758 C 67.7986 2.1413 -4.76388 0
M  V30 759 H 69.4926 0.968563 -2.83301 0
M  V30 760 H 67.0386 0.464479 -1.36303 0
M  V30 761 H 68.9916 3.38413 -2.51107 0
M  V30 762 H 67.7156 2.98032 -1.33583 0
M  V30 763 H 66.3746 1.86727 -3.15481 0
M  V30 764 H 66.0226 4.28723 -2.6307 0
M  V30 765 H 65.7226 3.94659 -4.35337 0
M  V30 766 H 67.2466 4.7349 -3.85538 0
M  V30 767 H 68.6606 2.78083 -5.01341 0
M  V30 768 H 67.0576 2.2227 -5.57419 0
M  V30 769 H 68.1276 1.09331 -4.72414 0
M  V30 770 N 69.4707 1.49531 0.497807 0
M  V30 771 C 70.3807 1.69176 1.62532 0
M  V30 772 C 71.3967 0.5744 1.64246 0
M  V30 773 O 72.5727 0.849497 1.82608 0
M  V30 774 C 69.6377 1.75695 2.98885 0
M  V30 775 C 68.6987 2.9929 3.07773 0
M  V30 776 C 67.9317 3.05488 4.37622 0
M  V30 777 O 68.1547 2.19192 5.26603 0
M  V30 778 O 67.0887 3.9798 4.51548 0
M  V30 779 H 70.9147 2.647 1.48887 0
M  V30 780 H 68.4997 1.3331 0.674441 0
M  V30 781 H 70.3817 1.82317 3.79919 0
M  V30 782 H 69.0567 0.8335 3.12785 0
M  V30 783 H 67.9637 2.98183 2.25915 0
M  V30 784 H 69.2967 3.91125 2.98801 0
M  V30 785 N 70.9488 -0.749086 1.3866 0
M  V30 786 C 72.1958 -1.50833 1.35114 0
M  V30 787 C 72.5238 -1.94415 -0.0574049 0
M  V30 788 O 71.7788 -1.66065 -1.03541 0
M  V30 789 C 72.0778 -2.7712 2.25697 0
M  V30 790 C 71.7438 -2.52477 3.73585 0
M  V30 791 C 70.4058 -2.45466 4.13884 0
M  V30 792 C 72.7578 -2.31066 4.67181 0
M  V30 793 C 70.0858 -2.15064 5.45861 0
M  V30 794 C 72.4378 -2.02183 5.9942 0
M  V30 795 C 71.1018 -1.93631 6.38798 0
M  V30 796 H 70.3718 -0.551936 0.494416 0
M  V30 797 H 73.0188 -0.860979 1.71054 0
M  V30 798 H 71.3238 -3.46528 1.82827 0
M  V30 799 H 73.0208 -3.35096 2.20254 0
M  V30 800 H 69.6108 -2.58807 3.41638 0
M  V30 801 H 73.7948 -2.35459 4.3689 0
M  V30 802 H 69.0508 -2.06954 5.75308 0
M  V30 803 H 73.2248 -1.8462 6.71482 0
M  V30 804 H 70.8518 -1.69839 7.40985 0
M  V30 805 N 72.4269 -1.23603 -0.977757 0
M  V30 806 C 73.6739 -1.06971 -1.71941 0
M  V30 807 C 74.0019 0.393009 -1.90488 0
M  V30 808 O 73.2569 1.30719 -1.4564 0
M  V30 809 C 73.5559 -1.7433 -3.11999 0
M  V30 810 C 73.2219 -3.24252 -3.13323 0
M  V30 811 C 71.8839 -3.65156 -3.13392 0
M  V30 812 C 74.2359 -4.20141 -3.08433 0
M  V30 813 C 71.5639 -5.00403 -3.0629 0
M  V30 814 C 73.9159 -5.55384 -3.02873 0
M  V30 815 C 72.5799 -5.95647 -3.01265 0
M  V30 816 H 71.8499 -0.391433 -0.629175 0
M  V30 817 H 74.4969 -1.53572 -1.14403 0
M  V30 818 H 72.8019 -1.20096 -3.7294 0
M  V30 819 H 74.4989 -1.58936 -3.68158 0
M  V30 820 H 71.0889 -2.91692 -3.14029 0
M  V30 821 H 75.2729 -3.89547 -3.07517 0
M  V30 822 H 70.5289 -5.3081 -3.03399 0
M  V30 823 H 74.7029 -6.29398 -2.98046 0
M  V30 824 H 72.3299 -7.0041 -2.95516 0
M  V30 825 N 73.905 1.17692 -1.04816 0
M  V30 826 C 74.837 2.21103 -0.603822 0
M  V30 827 C 75.85 1.59411 0.33046 0
M  V30 828 O 77.039 1.7807 0.12379 0
M  V30 829 C 74.139 3.38623 0.136898 0
M  V30 830 C 73.312 4.29888 -0.807137 0
M  V30 831 C 72.371 5.26088 -0.10836 0
M  V30 832 O 71.397 5.64353 -0.741232 0
M  V30 833 N 72.599 5.68882 1.15558 0
M  V30 834 H 75.364 2.59848 -1.49329 0
M  V30 835 H 72.925 1.32553 -0.929587 0
M  V30 836 H 74.917 4.00009 0.614401 0
M  V30 837 H 73.487 2.98508 0.927993 0
M  V30 838 H 72.707 3.65993 -1.46434 0
M  V30 839 H 73.995 4.87759 -1.44807 0
M  V30 840 H 73.393 5.39861 1.69015 0
M  V30 841 H 71.95 6.32429 1.57722 0
M  V30 842 N 75.3831 0.828654 1.34056 0
M  V30 843 C 76.6111 0.43262 2.02326 0
M  V30 844 C 77.0261 -0.963147 1.62385 0
M  V30 845 O 76.3831 -1.62425 0.832121 0
M  V30 846 C 76.4341 0.53182 3.57567 0
M  V30 847 O 76.1551 1.87258 3.96063 0
M  V30 848 C 77.6561 0.131422 4.43105 0
M  V30 849 H 74.8761 0.172923 0.648335 0
M  V30 850 H 77.4201 1.1184 1.71208 0
M  V30 851 H 75.5751 -0.105938 3.87255 0
M  V30 852 H 75.9891 1.85087 4.90758 0
M  V30 853 H 77.4631 0.251904 5.51425 0
M  V30 854 H 77.9401 -0.925645 4.29335 0
M  V30 855 H 78.5461 0.743207 4.18756 0
M  V30 856 N 76.8612 -1.46375 0.584142 0
M  V30 857 C 77.8092 -2.32042 -0.161047 0
M  V30 858 C 78.8032 -1.44569 -0.882966 0
M  V30 859 O 80.0092 -1.61186 -0.801191 0
M  V30 860 H 76.3842 -0.748659 -0.0708033 0
M  V30 861 H 78.3552 -2.92704 0.580269 0
M  V30 862 C 77.1042 -3.27762 -1.1605 0
M  V30 863 H 76.4272 -3.95051 -0.614419 0
M  V30 864 H 77.8672 -3.90481 -1.65228 0
M  V30 865 C 76.3262 -2.53218 -2.22221 0
M  V30 866 O 76.8562 -2.29628 -3.29597 0
M  V30 867 N 75.0622 -2.13756 -1.96868 0
M  V30 868 H 74.6092 -2.33142 -1.09557 0
M  V30 869 H 74.5672 -1.642 -2.68115 0
M  V30 870 N 78.3393 -0.321999 -1.54275 0
M  V30 871 C 79.5863 0.281044 -2.0054 0
M  V30 872 C 79.9143 1.52265 -1.21019 0
M  V30 873 O 79.1693 1.93687 -0.279982 0
M  V30 874 C 79.4683 0.661769 -3.5122 0
M  V30 875 C 79.1343 -0.480482 -4.48333 0
M  V30 876 C 77.7963 -0.794005 -4.74604 0
M  V30 877 C 80.1483 -1.24783 -5.06042 0
M  V30 878 C 77.4763 -1.87763 -5.55844 0
M  V30 879 C 79.8283 -2.32153 -5.88462 0
M  V30 880 C 78.4923 -2.64089 -6.13036 0
M  V30 881 H 77.7623 0.102841 -0.733829 0
M  V30 882 H 80.4093 -0.445453 -1.86247 0
M  V30 883 H 78.7143 1.46867 -3.63232 0
M  V30 884 H 80.4113 1.13989 -3.84457 0
M  V30 885 H 77.0013 -0.226039 -4.28004 0
M  V30 886 H 81.1853 -1.01887 -4.85729 0
M  V30 887 H 76.4413 -2.12954 -5.73115 0
M  V30 888 H 80.6153 -2.92057 -6.32199 0
M  V30 889 H 78.2423 -3.48185 -6.75775 0
M  V30 890 N 79.8174 1.5752 -0.0501392 0
M  V30 891 C 80.7274 2.14952 0.939827 0
M  V30 892 C 81.7434 1.10706 1.34239 0
M  V30 893 O 82.9194 1.42869 1.41952 0
M  V30 894 C 79.9844 2.68232 2.19665 0
M  V30 895 C 79.0454 3.87272 1.85253 0
M  V30 896 C 78.2784 4.38002 3.04943 0
M  V30 897 O 78.5014 3.87811 4.18281 0
M  V30 898 O 77.4354 5.29602 2.86017 0
M  V30 899 H 81.2614 2.9986 0.481392 0
M  V30 900 H 78.8464 1.4841 0.171699 0
M  V30 901 H 80.7284 3.02475 2.93406 0
M  V30 902 H 79.4034 1.86395 2.64648 0
M  V30 903 H 78.3104 3.5792 1.0883 0
M  V30 904 H 79.6434 4.70336 1.4507 0
M  V30 905 N 81.2955 -0.223234 1.56011 0
M  V30 906 C 82.5435 -0.946003 1.78592 0
M  V30 907 C 82.8645 -1.84936 0.618349 0
M  V30 908 O 82.1345 -1.92473 -0.364833 0
M  V30 909 H 80.7145 -0.352298 0.658707 0
M  V30 910 H 83.3765 -0.235494 1.93472 0
M  V30 911 H 82.4725 -1.55381 2.70672 0
M  V30 912 N 82.7736 -1.49793 -0.48987 0
M  V30 913 C 83.6836 -1.70036 -1.61632 0
M  V30 914 C 84.6996 -0.583102 -1.63939 0
M  V30 915 O 85.8756 -0.859169 -1.82154 0
M  V30 916 C 82.9406 -1.77277 -2.97949 0
M  V30 917 C 82.0016 -3.00918 -3.06181 0
M  V30 918 C 81.2346 -3.07804 -4.35996 0
M  V30 919 O 81.4576 -2.21982 -5.25433 0
M  V30 920 O 80.3916 -4.00369 -4.49431 0
M  V30 921 H 84.2176 -2.65486 -1.47482 0
M  V30 922 H 81.8026 -1.33666 -0.667362 0
M  V30 923 H 83.6846 -1.84329 -3.78947 0
M  V30 924 H 82.3596 -0.850076 -3.12339 0
M  V30 925 H 81.2666 -2.99377 -2.2433 0
M  V30 926 H 82.5996 -3.92704 -2.96723 0
M  V30 927 N 84.2517 0.741722 -1.39055 0
M  V30 928 C 85.5007 1.49656 -1.35225 0
M  V30 929 C 85.8137 1.95533 0.0512708 0
M  V30 930 O 87.0197 2.7067 0.212138 0
M  V30 931 C 85.4757 2.70389 -2.37525 0
M  V30 932 C 85.0837 2.31489 -3.83558 0
M  V30 933 C 86.8277 3.48236 -2.42759 0
M  V30 934 C 84.7347 3.48903 -4.77515 0
M  V30 935 H 83.6647 0.56197 -0.502699 0
M  V30 936 H 86.3157 0.809727 -1.64668 0
M  V30 937 H 84.6977 3.41113 -2.01142 0
M  V30 938 H 85.8717 1.68354 -4.28945 0
M  V30 939 H 84.1867 1.66749 -3.81554 0
M  V30 940 H 86.7837 4.35558 -3.1015 0
M  V30 941 H 87.1267 3.90229 -1.45008 0
M  V30 942 H 87.6597 2.84535 -2.78002 0
M  V30 943 H 84.3987 3.11966 -5.76504 0
M  V30 944 H 83.9187 4.11041 -4.36813 0
M  V30 945 H 85.5977 4.15328 -4.96096 0
M  V30 946 N 85.7298 1.2412 0.971189 0
M  V30 947 C 86.9788 1.07284 1.70801 0
M  V30 948 C 87.2918 -0.388902 1.91695 0
M  V30 949 O 88.4978 -0.677379 2.62914 0
M  V30 950 C 86.9538 1.87145 3.07416 0
M  V30 951 C 86.5618 3.37707 2.94377 0
M  V30 952 C 88.3058 1.78828 3.84995 0
M  V30 953 C 86.2128 4.09925 4.26281 0
M  V30 954 H 85.1428 0.397854 0.64049 0
M  V30 955 H 87.7938 1.4817 1.0825 0
M  V30 956 H 86.1758 1.39071 3.70777 0
M  V30 957 H 87.3498 3.93335 2.4005 0
M  V30 958 H 85.6648 3.46938 2.30267 0
M  V30 959 H 88.2618 2.30089 4.82662 0
M  V30 960 H 88.6048 0.75284 4.09436 0
M  V30 961 H 89.1378 2.24563 3.28354 0
M  V30 962 H 85.8768 5.13813 4.07033 0
M  V30 963 H 85.3968 3.59083 4.80437 0
M  V30 964 H 87.0758 4.1673 4.94919 0
M  V30 965 N 87.2079 -1.17134 1.05439 0
M  V30 966 C 88.4849 -1.83411 0.679699 0
M  V30 967 C 88.8649 -1.9368 -0.839726 0
M  V30 968 O 88.2129 -1.47325 -1.74664 0
M  V30 969 C 88.4229 -3.20918 1.37159 0
M  V30 970 C 89.7709 -3.96796 1.51123 0
M  V30 971 O 90.7949 -3.30406 1.3308 0
M  V30 972 O 89.6539 -5.15778 1.80651 0
M  V30 973 H 86.7479 -0.79154 0.239569 0
M  V30 974 H 89.2939 -1.24411 1.15413 0
M  V30 975 H 88.0659 -3.08428 2.40807 0
M  V30 976 H 87.6889 -3.87587 0.886674 0
M  V30 977 N 88.686 -0.835752 -1.33615 0
M  V30 978 C 89.633 -0.26473 -2.29277 0
M  V30 979 C 90.603 0.617712 -1.54187 0
M  V30 980 O 91.788 0.556641 -1.825 0
M  V30 981 C 88.928 0.556777 -3.40579 0
M  V30 982 C 88.041 -0.349339 -4.30585 0
M  V30 983 C 87.176 0.482969 -5.29 0
M  V30 984 C 86.215 -0.421732 -6.10645 0
M  V30 985 N 85.352 0.372262 -7.01112 0
M  V30 986 H 90.192 -1.08582 -2.77514 0
M  V30 987 H 87.729 -0.546927 -1.36554 0
M  V30 988 H 89.687 1.04852 -4.03809 0
M  V30 989 H 88.317 1.34286 -2.93542 0
M  V30 990 H 87.369 -0.959372 -3.68104 0
M  V30 991 H 88.681 -1.04445 -4.87742 0
M  V30 992 H 87.835 1.03866 -5.97743 0
M  V30 993 H 86.574 1.21153 -4.72412 0
M  V30 994 H 85.579 -0.989464 -5.40823 0
M  V30 995 H 86.804 -1.14861 -6.69316 0
M  V30 996 H 84.75 1.08426 -6.46977 0
M  V30 997 H 84.667 -0.264198 -7.55538 0
M  V30 998 H 85.935 0.910293 -7.74167 0
M  V30 999 N 90.1641 1.46063 -0.591896 0
M  V30 1000 C 91.4131 2.01547 -0.0786637 0
M  V30 1001 C 91.7261 1.46796 1.29268 0
M  V30 1002 O 92.9321 1.94157 1.89777 0
M  V30 1003 C 91.3881 3.59787 -0.0900024 0
M  V30 1004 C 90.9961 4.23534 -1.46023 0
M  V30 1005 C 92.7401 4.22895 0.368806 0
M  V30 1006 C 90.6471 5.73881 -1.4288 0
M  V30 1007 H 89.5771 0.753564 -0.0256388 0
M  V30 1008 H 92.2281 1.677 -0.744905 0
M  V30 1009 H 90.6101 3.90752 0.642586 0
M  V30 1010 H 91.7841 4.04167 -2.21328 0
M  V30 1011 H 90.0991 3.72558 -1.85982 0
M  V30 1012 H 92.6961 5.33116 0.411258 0
M  V30 1013 H 93.0391 3.9247 1.38827 0
M  V30 1014 H 93.5721 3.9659 -0.31001 0
M  V30 1015 H 90.3111 6.0898 -2.42536 0
M  V30 1016 H 89.8311 5.95486 -0.718095 0
M  V30 1017 H 91.5101 6.36776 -1.14565 0
M  V30 1018 N 91.6422 0.330177 1.54103 0
M  V30 1019 C 92.5742 -0.566902 2.22079 0
M  V30 1020 C 93.5872 -1.07462 1.22294 0
M  V30 1021 O 94.7762 -0.987065 1.48726 0
M  V30 1022 C 91.8762 -1.79138 2.87685 0
M  V30 1023 C 91.0492 -1.42123 4.13666 0
M  V30 1024 C 90.1082 -2.50394 4.62806 0
M  V30 1025 O 89.1342 -2.14261 5.27334 0
M  V30 1026 N 90.3362 -3.81433 4.37595 0
M  V30 1027 H 93.1012 0.0151844 2.99696 0
M  V30 1028 H 90.6622 0.153681 1.61169 0
M  V30 1029 H 92.6542 -2.50975 3.1748 0
M  V30 1030 H 91.2242 -2.28115 2.13734 0
M  V30 1031 H 90.4442 -0.534201 3.90564 0
M  V30 1032 H 91.7322 -1.14971 4.9564 0
M  V30 1033 H 91.1302 -4.13584 3.8596 0
M  V30 1034 H 89.6872 -4.4948 4.72029 0
M  V30 1035 N 93.1203 -1.57491 0.0584922 0
M  V30 1036 C 94.0303 -2.15448 -0.928414 0
M  V30 1037 C 95.0463 -1.11416 -1.3365 0
M  V30 1038 O 96.2223 -1.4362 -1.41193 0
M  V30 1039 C 93.2873 -2.69393 -2.18239 0
M  V30 1040 C 92.3483 -3.88249 -1.83196 0
M  V30 1041 C 91.5813 -4.39613 -3.02616 0
M  V30 1042 O 91.8043 -3.90023 -4.16219 0
M  V30 1043 O 90.7383 -5.31111 -2.83204 0
M  V30 1044 H 94.5643 -3.00112 -0.465483 0
M  V30 1045 H 92.1493 -1.48499 -0.163826 0
M  V30 1046 H 94.0313 -3.04026 -2.91798 0
M  V30 1047 H 92.7063 -1.87796 -2.63656 0
M  V30 1048 H 91.6133 -3.58492 -1.06931 0
M  V30 1049 H 92.9463 -4.71098 -1.42573 0
M  V30 1050 N 94.5984 0.214957 -1.56127 0
M  V30 1051 C 95.8234 0.95924 -1.83884 0
M  V30 1052 C 96.2484 1.7689 -0.639644 0
M  V30 1053 O 95.6064 1.76566 0.411601 0
M  V30 1054 C 95.6544 1.84723 -3.09693 0
M  V30 1055 O 94.7584 2.94346 -2.8885 0
M  V30 1056 H 94.0994 0.27125 -0.606069 0
M  V30 1057 H 96.6294 0.226276 -2.03345 0
M  V30 1058 H 96.6394 2.25576 -3.39969 0
M  V30 1059 H 95.3144 1.25218 -3.96602 0
M  V30 1060 H 93.8914 2.57391 -2.69823 0
M  V30 1061 N 96.0765 1.50051 0.48192 0
M  V30 1062 C 97.3225 1.60736 1.2366 0
M  V30 1063 C 97.6555 0.301786 1.91841 0
M  V30 1064 O 96.9305 -0.696025 1.8162 0
M  V30 1065 C 97.2135 2.78009 2.28874 0
M  V30 1066 C 97.0665 4.18416 1.65069 0
M  V30 1067 C 98.3855 2.90867 3.30279 0
M  V30 1068 H 95.5045 0.585031 0.448228 0
M  V30 1069 H 98.1465 1.82402 0.531946 0
M  V30 1070 H 96.2965 2.59667 2.88973 0
M  V30 1071 H 97.9685 4.48322 1.0865 0
M  V30 1072 H 96.2115 4.23177 0.954148 0
M  V30 1073 H 96.8825 4.96381 2.41474 0
M  V30 1074 H 99.3585 3.07623 2.80191 0
M  V30 1075 H 98.2345 3.74566 4.01238 0
M  V30 1076 H 98.4955 2.01021 3.93755 0
M  V30 1077 N 97.5546 -0.734337 1.39446 0
M  V30 1078 C 98.8026 -1.49096 1.36436 0
M  V30 1079 C 99.1236 -1.94961 -0.0388255 0
M  V30 1080 O 98.3936 -1.69033 -0.990191 0
M  V30 1081 H 96.9736 -0.5531 0.502085 0
M  V30 1082 H 99.6356 -0.871725 1.74319 0
M  V30 1083 H 98.7316 -2.37276 2.02747 0
M  V30 1084 N 99.0327 -1.24633 -0.964593 0
M  V30 1085 C 100.258 -1.11596 -1.74818 0
M  V30 1086 C 100.683 0.32723 -1.85232 0
M  V30 1087 O 100.041 1.23695 -1.32549 0
M  V30 1088 C 100.089 -1.76397 -3.1451 0
M  V30 1089 O 99.1927 -1.03685 -3.99153 0
M  V30 1090 H 98.5337 -0.390196 -0.537255 0
M  V30 1091 H 101.064 -1.65002 -1.20977 0
M  V30 1092 H 101.074 -1.8228 -3.65018 0
M  V30 1093 H 99.7487 -2.81401 -3.06246 0
M  V30 1094 H 98.3257 -1.05611 -3.57632 0
M  V30 1095 N 100.511 1.16574 -1.06058 0
M  V30 1096 C 101.788 1.83048 -0.689416 0
M  V30 1097 C 102.168 1.94122 0.829443 0
M  V30 1098 O 101.516 1.48249 1.7388 0
M  V30 1099 C 101.726 3.20186 -1.38859 0
M  V30 1100 C 103.074 3.95989 -1.53226 0
M  V30 1101 O 104.098 3.29696 -1.3483 0
M  V30 1102 O 102.957 5.14813 -1.83384 0
M  V30 1103 H 100.051 0.790258 -0.243764 0
M  V30 1104 H 102.597 1.23797 -1.16071 0
M  V30 1105 H 101.369 3.07146 -2.4244 0
M  V30 1106 H 100.992 3.87112 -0.907216 0
M  V30 1107 N 101.989 0.842826 1.3317 0
M  V30 1108 C 103.219 0.453397 2.01564 0
M  V30 1109 C 103.627 -0.951147 1.63554 0
M  V30 1110 O 102.97 -1.63021 0.846746 0
M  V30 1111 C 103.032 0.499013 3.5602 0
M  V30 1112 C 102.696 1.86037 4.1742 0
M  V30 1113 C 103.693 2.82416 4.36506 0
M  V30 1114 C 101.378 2.15428 4.53757 0
M  V30 1115 C 103.372 4.06346 4.91082 0
M  V30 1116 C 101.059 3.39615 5.0804 0
M  V30 1117 C 102.057 4.3489 5.26649 0
M  V30 1118 O 101.745 5.5688 5.79776 0
M  V30 1119 H 101.477 0.177871 0.652179 0
M  V30 1120 H 104.031 1.13808 1.70988 0
M  V30 1121 H 102.261 -0.242467 3.85939 0
M  V30 1122 H 103.95 0.126852 4.05702 0
M  V30 1123 H 104.716 2.6101 4.08777 0
M  V30 1124 H 100.595 1.42061 4.38565 0
M  V30 1125 H 104.139 4.80722 5.05522 0
M  V30 1126 H 100.036 3.60876 5.352 0
M  V30 1127 H 100.804 5.58674 5.98185 0
M  V30 1128 N 103.467 -1.45747 0.599634 0
M  V30 1129 C 104.377 -2.34262 -0.125888 0
M  V30 1130 C 105.393 -1.50768 -0.868625 0
M  V30 1131 O 106.569 -1.83592 -0.828003 0
M  V30 1132 C 103.634 -3.28252 -1.11587 0
M  V30 1133 C 102.695 -4.27651 -0.375956 0
M  V30 1134 C 101.928 -5.1715 -1.31877 0
M  V30 1135 O 102.151 -5.09916 -2.55621 0
M  V30 1136 O 101.085 -5.96286 -0.820157 0
M  V30 1137 H 104.911 -2.97688 0.601315 0
M  V30 1138 H 102.496 -1.44999 0.359934 0
M  V30 1139 H 104.378 -3.86191 -1.68626 0
M  V30 1140 H 103.053 -2.67401 -1.82424 0
M  V30 1141 H 101.96 -3.7335 0.236698 0
M  V30 1142 H 103.293 -4.91334 0.29177 0
M  V30 1143 N 104.945 -0.338344 -1.53925 0
M  V30 1144 C 106.193 0.259245 -2.0043 0
M  V30 1145 C 106.514 1.51484 -1.22791 0
M  V30 1146 O 105.784 1.93037 -0.33368 0
M  V30 1147 H 104.364 0.0987845 -0.740439 0
M  V30 1148 H 107.026 -0.458302 -1.89435 0
M  V30 1149 H 106.122 0.505334 -3.07982 0
M  V30 1150 N 106.423 1.57458 -0.0668435 0
M  V30 1151 C 107.672 1.92477 0.602947 0
M  V30 1152 C 107.985 0.948419 1.71068 0
M  V30 1153 O 109.191 1.19124 2.43971 0
M  V30 1154 C 107.647 3.41903 1.12383 0
M  V30 1155 C 107.255 4.47975 0.04737 0
M  V30 1156 C 108.999 3.85931 1.76797 0
M  V30 1157 C 106.906 5.88529 0.582022 0
M  V30 1158 H 105.836 0.718387 0.22899 0
M  V30 1159 H 108.487 1.82978 -0.138276 0
M  V30 1160 H 106.869 3.46459 1.91787 0
M  V30 1161 H 108.043 4.55029 -0.726978 0
M  V30 1162 H 106.358 4.13384 -0.500243 0
M  V30 1163 H 108.955 4.88322 2.17821 0
M  V30 1164 H 109.298 3.23029 2.62599 0
M  V30 1165 H 109.831 3.83958 1.04024 0
M  V30 1166 H 106.57 6.55065 -0.238721 0
M  V30 1167 H 106.09 5.85004 1.324 0
M  V30 1168 H 107.769 6.38258 1.05999 0
M  V30 1169 N 107.901 -0.206675 1.56239 0
M  V30 1170 C 109.15 -0.926964 1.79138 0
M  V30 1171 C 109.463 -1.84901 0.638043 0
M  V30 1172 O 110.669 -2.60906 0.751033 0
M  V30 1173 C 109.125 -1.6986 3.17294 0
M  V30 1174 C 108.733 -0.821956 4.40395 0
M  V30 1175 C 110.477 -2.40922 3.4951 0
M  V30 1176 C 108.384 -1.59179 5.69575 0
M  V30 1177 H 107.314 -0.349864 0.667915 0
M  V30 1178 H 109.965 -0.180487 1.8261 0
M  V30 1179 H 108.347 -2.48853 3.08039 0
M  V30 1180 H 109.521 -0.0715019 4.60745 0
M  V30 1181 H 107.836 -0.222741 4.15804 0
M  V30 1182 H 110.433 -2.99047 4.43255 0
M  V30 1183 H 110.776 -3.14542 2.72707 0
M  V30 1184 H 111.309 -1.68905 3.60161 0
M  V30 1185 H 108.048 -0.898589 6.49312 0
M  V30 1186 H 107.568 -2.31648 5.53262 0
M  V30 1187 H 109.247 -2.14862 6.10281 0
M  V30 1188 N 109.379 -1.50304 -0.473955 0
M  V30 1189 C 110.628 -1.60392 -1.22301 0
M  V30 1190 C 110.941 -0.308411 -1.93153 0
M  V30 1191 O 112.147 -0.288156 -2.69966 0
M  V30 1192 C 110.603 -2.83109 -2.2221 0
M  V30 1193 C 110.211 -4.19524 -1.57173 0
M  V30 1194 C 111.955 -3.0254 -2.97775 0
M  V30 1195 C 109.862 -5.33431 -2.55353 0
M  V30 1196 H 108.792 -0.597286 -0.460179 0
M  V30 1197 H 111.443 -1.76731 -0.493803 0
M  V30 1198 H 109.825 -2.60322 -2.9841 0
M  V30 1199 H 110.999 -4.52554 -0.867824 0
M  V30 1200 H 109.314 -4.05674 -0.939002 0
M  V30 1201 H 111.911 -3.84811 -3.71248 0
M  V30 1202 H 112.254 -2.14154 -3.56992 0
M  V30 1203 H 112.787 -3.25494 -2.28688 0
M  V30 1204 H 109.526 -6.23962 -2.00878 0
M  V30 1205 H 109.046 -5.04823 -3.23904 0
M  V30 1206 H 110.725 -5.63887 -3.17239 0
M  V30 1207 N 110.857 0.726932 -1.39834 0
M  V30 1208 C 111.805 1.86235 -1.39353 0
M  V30 1209 C 112.799 1.67144 -0.275555 0
M  V30 1210 O 114.005 1.74387 -0.44601 0
M  V30 1211 H 110.38 0.613174 -0.43534 0
M  V30 1212 H 112.351 1.83756 -2.35109 0
M  V30 1213 C 111.1 3.23995 -1.26185 0
M  V30 1214 H 110.423 3.39285 -2.11484 0
M  V30 1215 H 111.863 4.03609 -1.29907 0
M  V30 1216 C 110.322 3.36888 0.0290018 0
M  V30 1217 O 110.852 3.89152 0.99619 0
M  V30 1218 N 109.058 2.90446 0.0947437 0
M  V30 1219 H 108.605 2.48102 -0.693035 0
M  V30 1220 H 108.563 2.99451 0.957932 0
M  V30 1221 N 112.336 1.25143 0.95797 0
M  V30 1222 C 113.747 1.08851 1.51685 0
M  V30 1223 C 114.098 -0.33687 1.93286 0
M  V30 1224 O 113.223 -1.22644 1.7829 0
M  V30 1225 C 113.818 1.96978 2.75654 0
M  V30 1226 C 112.377 1.84881 3.27866 0
M  V30 1227 C 111.524 1.91329 2.0072 0
M  V30 1228 H 114.475 1.38478 0.77522 0
M  V30 1229 H 114.496 1.5078 3.4935 0
M  V30 1230 H 114.008 3.00712 2.45345 0
M  V30 1231 H 112.109 0.840182 3.63004 0
M  V30 1232 H 112.222 2.6951 3.96107 0
M  V30 1233 H 110.586 1.35174 2.15871 0
M  V30 1234 H 111.369 2.96661 1.72764 0
M  V30 1235 N 113.814 -1.1601 1.06675 0
M  V30 1236 C 115.062 -1.86264 0.784229 0
M  V30 1237 C 115.383 -1.82328 -0.691488 0
M  V30 1238 O 114.653 -1.25947 -1.50047 0
M  V30 1239 H 113.233 -0.689621 0.28711 0
M  V30 1240 H 115.895 -1.40664 1.34906 0
M  V30 1241 H 114.991 -2.91595 1.11259 0
M  V30 1242 N 115.292 -0.849877 -1.32721 0
M  V30 1243 C 116.255 -0.296122 -2.27279 0
M  V30 1244 C 117.255 0.541458 -1.5141 0
M  V30 1245 O 118.445 0.353658 -1.70572 0
M  V30 1246 C 115.577 0.581579 -3.35902 0
M  V30 1247 H 116.77 -1.13064 -2.77771 0
M  V30 1248 H 114.323 -0.62383 -1.43311 0
M  V30 1249 H 115.058 1.43809 -2.9067 0
M  V30 1250 H 114.843 -0.0178814 -3.92096 0
M  V30 1251 H 116.333 0.961951 -4.0637 0
M  V30 1252 N 116.77 1.45427 -0.607355 0
M  V30 1253 C 118.017 2.02241 -0.102455 0
M  V30 1254 C 118.345 1.4758 1.26691 0
M  V30 1255 O 117.6 0.640468 1.84923 0
M  V30 1256 C 117.899 3.57398 -0.0129263 0
M  V30 1257 C 117.565 4.3121 -1.31792 0
M  V30 1258 C 116.227 4.51092 -1.67539 0
M  V30 1259 C 118.579 4.73401 -2.18039 0
M  V30 1260 C 115.907 5.10422 -2.89285 0
M  V30 1261 C 118.259 5.34078 -3.39034 0
M  V30 1262 C 116.923 5.52184 -3.75033 0
M  V30 1263 H 116.193 0.740051 -0.037491 0
M  V30 1264 H 118.84 1.74494 -0.788926 0
M  V30 1265 H 117.145 3.84421 0.756806 0
M  V30 1266 H 118.842 3.99061 0.393881 0
M  V30 1267 H 115.432 4.16047 -1.02968 0
M  V30 1268 H 119.616 4.57774 -1.91721 0
M  V30 1269 H 114.872 5.22629 -3.17283 0
M  V30 1270 H 119.046 5.65724 -4.06115 0
M  V30 1271 H 116.673 5.97925 -4.69457 0
M  V30 1272 N 118.248 0.346503 1.53744 0
M  V30 1273 C 119.473 -0.253074 2.0585 0
M  V30 1274 C 119.898 -1.43202 1.21962 0
M  V30 1275 O 119.256 -1.79783 0.234073 0
M  V30 1276 C 119.304 -0.643193 3.54817 0
M  V30 1277 O 118.408 -1.74286 3.73762 0
M  V30 1278 H 117.749 -0.0413583 0.662711 0
M  V30 1279 H 120.279 0.501574 1.98357 0
M  V30 1280 H 120.289 -0.919526 3.97503 0
M  V30 1281 H 118.964 0.218966 4.15323 0
M  V30 1282 H 117.541 -1.46356 3.42979 0
M  V30 1283 N 119.726 -1.57421 0.075193 0
M  V30 1284 C 120.676 -2.09441 -0.901025 0
M  V30 1285 C 121.66 -1.00486 -1.25663 0
M  V30 1286 O 122.852 -1.2679 -1.23504 0
M  V30 1287 C 119.981 -2.66233 -2.16737 0
M  V30 1288 C 119.067 -3.82198 -1.83808 0
M  V30 1289 N 119.458 -4.91028 -1.21345 0
M  V30 1290 C 117.756 -3.91558 -2.13538 0
M  V30 1291 C 118.457 -5.71852 -1.06585 0
M  V30 1292 N 117.433 -5.20233 -1.57667 0
M  V30 1293 H 121.235 -2.90972 -0.413815 0
M  V30 1294 H 118.749 -1.6189 -0.128601 0
M  V30 1295 H 120.746 -3.01819 -2.87595 0
M  V30 1296 H 119.406 -1.8615 -2.66042 0
M  V30 1297 H 120.417 -5.10323 -0.88268 0
M  V30 1298 H 117.094 -3.22454 -2.65197 0
M  V30 1299 H 118.484 -6.69401 -0.578933 0
M  V30 1300 N 121.204 0.198386 -1.56346 0
M  V30 1301 C 122.432 0.935572 -1.84539 0
M  V30 1302 C 122.847 1.76989 -0.657281 0
M  V30 1303 O 122.204 1.78626 0.374043 0
M  V30 1304 C 122.255 1.8344 -3.11499 0
M  V30 1305 O 121.976 1.03377 -4.25728 0
M  V30 1306 C 123.477 2.68355 -3.52846 0
M  V30 1307 H 120.697 0.273126 -0.612897 0
M  V30 1308 H 123.241 0.20663 -2.03453 0
M  V30 1309 H 121.396 2.51701 -2.94492 0
M  V30 1310 H 121.81 1.64599 -4.98003 0
M  V30 1311 H 123.284 3.27085 -4.44657 0
M  V30 1312 H 123.761 3.41901 -2.75681 0
M  V30 1313 H 124.367 2.05471 -3.72373 0
M  V30 1314 N 122.682 1.50554 0.465978 0
M  V30 1315 C 123.907 1.65838 1.24549 0
M  V30 1316 C 124.332 0.343486 1.84937 0
M  V30 1317 O 123.69 -0.69324 1.67523 0
M  V30 1318 C 123.738 2.75533 2.32624 0
M  V30 1319 O 122.842 2.37142 3.37398 0
M  V30 1320 H 122.183 0.553893 0.366194 0
M  V30 1321 H 124.713 1.96959 0.553927 0
M  V30 1322 H 124.723 2.98763 2.77857 0
M  V30 1323 H 123.398 3.70962 1.88043 0
M  V30 1324 H 121.975 2.24377 2.97841 0
M  V30 1325 N 124.16 -0.719506 1.40217 0
M  V30 1326 C 125.409 -1.47486 1.37589 0
M  V30 1327 C 125.722 -1.9559 -0.0201568 0
M  V30 1328 O 126.928 -2.70973 -0.169049 0
M  V30 1329 C 125.384 -2.66575 2.41796 0
M  V30 1330 C 124.992 -2.25358 3.87192 0
M  V30 1331 C 126.736 -3.4433 2.48269 0
M  V30 1332 C 124.643 -3.41262 4.83005 0
M  V30 1333 H 123.573 -0.553901 0.511576 0
M  V30 1334 H 126.224 -0.783427 1.65936 0
M  V30 1335 H 124.606 -3.3787 2.06543 0
M  V30 1336 H 125.78 -1.61509 4.31569 0
M  V30 1337 H 124.095 -1.60657 3.84159 0
M  V30 1338 H 126.692 -4.30569 3.17041 0
M  V30 1339 H 127.035 -3.87872 1.51198 0
M  V30 1340 H 127.568 -2.80076 2.82493 0
M  V30 1341 H 124.307 -3.02755 5.81394 0
M  V30 1342 H 123.827 -4.0404 4.43297 0
M  V30 1343 H 125.506 -4.07383 5.02641 0
M  V30 1344 N 125.638 -1.25649 -0.95132 0
M  V30 1345 C 126.601 -1.06399 -2.03007 0
M  V30 1346 C 127.601 -0.0156794 -1.60792 0
M  V30 1347 O 128.791 -0.25817 -1.72276 0
M  V30 1348 C 125.923 -0.616184 -3.35285 0
M  V30 1349 H 127.116 -2.02164 -2.21517 0
M  V30 1350 H 124.669 -1.08103 -1.12887 0
M  V30 1351 H 125.404 0.343917 -3.22471 0
M  V30 1352 H 125.189 -1.37301 -3.67275 0
M  V30 1353 H 126.679 -0.503032 -4.14559 0
M  V30 1354 N 127.117 1.15442 -1.07289 0
M  V30 1355 C 128.366 1.85557 -0.790669 0
M  V30 1356 C 128.679 1.83186 0.685739 0
M  V30 1357 O 129.885 2.48977 1.0827 0
M  V30 1358 C 128.341 3.33038 -1.36433 0
M  V30 1359 C 127.949 3.43856 -2.8717 0
M  V30 1360 C 129.693 4.0834 -1.1601 0
M  V30 1361 C 127.6 4.85482 -3.3773 0
M  V30 1362 H 126.53 0.695122 -0.292098 0
M  V30 1363 H 129.181 1.30219 -1.29287 0
M  V30 1364 H 127.563 3.88043 -0.789864 0
M  V30 1365 H 128.737 2.98961 -3.50655 0
M  V30 1366 H 127.052 2.81998 -3.06376 0
M  V30 1367 H 129.649 5.12859 -1.51262 0
M  V30 1368 H 129.992 4.16182 -0.0991007 0
M  V30 1369 H 130.525 3.59603 -1.70089 0
M  V30 1370 H 127.264 4.82823 -4.43353 0
M  V30 1371 H 126.784 5.30961 -2.78999 0
M  V30 1372 H 128.463 5.54335 -3.33648 0
M  V30 1373 N 128.595 0.856903 1.32268 0
M  V30 1374 C 129.558 0.308171 2.27119 0
M  V30 1375 C 130.558 -0.533421 1.51695 0
M  V30 1376 O 131.748 -0.344607 1.70757 0
M  V30 1377 C 128.88 -0.563757 3.36206 0
M  V30 1378 H 130.073 1.14535 2.77167 0
M  V30 1379 H 127.626 0.631421 1.42978 0
M  V30 1380 H 128.361 -1.42266 2.91429 0
M  V30 1381 H 128.146 0.0386749 3.92081 0
M  V30 1382 H 129.636 -0.940386 4.06874 0
M  V30 1383 N 130.073 -1.45103 0.615059 0
M  V30 1384 C 131.35 -1.95549 0.0448276 0
M  V30 1385 C 131.73 -1.55737 -1.4251 0
M  V30 1386 O 131.078 -0.823556 -2.13143 0
M  V30 1387 C 131.288 -3.48098 0.250785 0
M  V30 1388 C 132.636 -4.24384 0.135509 0
M  V30 1389 O 133.66 -3.55738 0.181299 0
M  V30 1390 O 132.519 -5.46493 0.0268878 0
M  V30 1391 H 129.613 -0.8264 -0.0314845 0
M  V30 1392 H 132.159 -1.55232 0.685642 0
M  V30 1393 H 130.931 -3.7007 1.27139 0
M  V30 1394 H 130.554 -3.95323 -0.424937 0
M  V30 1395 N 131.551 -0.354651 -1.53558 0
M  V30 1396 C 132.514 0.484566 -2.24019 0
M  V30 1397 C 133.514 1.01861 -1.24422 0
M  V30 1398 O 134.704 0.906097 -1.4878 0
M  V30 1399 C 131.836 1.67615 -2.96847 0
M  V30 1400 H 133.029 -0.131843 -2.9961 0
M  V30 1401 H 130.582 -0.106165 -1.55939 0
M  V30 1402 H 131.317 2.33095 -2.25471 0
M  V30 1403 H 131.102 1.30029 -3.69912 0
M  V30 1404 H 132.592 2.27114 -3.50441 0
M  V30 1405 N 133.029 1.57378 -0.0835403 0
M  V30 1406 C 134.278 1.93106 0.582498 0
M  V30 1407 C 134.591 0.96651 1.70053 0
M  V30 1408 O 135.797 1.21705 2.42693 0
M  V30 1409 C 134.253 3.43076 1.08751 0
M  V30 1410 C 133.861 4.48 -0.000146404 0
M  V30 1411 C 135.605 3.87785 1.72694 0
M  V30 1412 C 133.512 5.89113 0.519568 0
M  V30 1413 H 132.442 0.720775 0.221358 0
M  V30 1414 H 135.093 1.82821 -0.157675 0
M  V30 1415 H 133.475 3.48474 1.88101 0
M  V30 1416 H 134.649 4.54233 -0.775199 0
M  V30 1417 H 132.964 4.1283 -0.54406 0
M  V30 1418 H 135.561 4.90604 2.1263 0
M  V30 1419 H 135.904 3.25796 2.59158 0
M  V30 1420 H 136.437 3.8504 0.999457 0
M  V30 1421 H 133.176 6.54775 -0.308186 0
M  V30 1422 H 132.696 5.86376 1.26188 0
M  V30 1423 H 134.375 6.39346 0.992237 0
M  V30 1424 N 134.507 -0.190092 1.56449 0
M  V30 1425 C 135.44 -1.26375 1.90012 0
M  V30 1426 C 136.418 -1.43705 0.760765 0
M  V30 1427 O 137.602 -1.59014 1.01226 0
M  V30 1428 C 134.729 -2.62962 2.13468 0
M  V30 1429 C 133.775 -2.62474 3.36169 0
M  V30 1430 S 134.608 -2.13412 4.91137 0
M  V30 1431 C 135.764 -3.51812 5.17667 0
M  V30 1432 H 135.997 -0.977181 2.80782 0
M  V30 1433 H 133.53 -0.393814 1.49293 0
M  V30 1434 H 135.488 -3.41583 2.27664 0
M  V30 1435 H 134.149 -2.88828 1.23439 0
M  V30 1436 H 133.342 -3.62918 3.49723 0
M  V30 1437 H 132.944 -1.91937 3.20992 0
M  V30 1438 H 135.236 -4.47706 5.08494 0
M  V30 1439 H 136.179 -3.43148 6.19399 0
M  V30 1440 H 136.587 -3.46956 4.45288 0
M  V30 1441 N 135.985 -1.50799 -0.457987 0
M  V30 1442 C 136.915 -1.73553 -1.5621 0
M  V30 1443 C 137.896 -0.584774 -1.59732 0
M  V30 1444 O 139.081 -0.825314 -1.7579 0
M  V30 1445 C 136.211 -1.84169 -2.94447 0
M  V30 1446 C 135.165 -2.99461 -3.0579 0
M  V30 1447 C 134.491 -2.95235 -4.45803 0
M  V30 1448 C 135.791 -4.39766 -2.81786 0
M  V30 1449 H 137.485 -2.66 -1.37421 0
M  V30 1450 H 135.031 -1.28002 -0.659662 0
M  V30 1451 H 136.984 -1.98672 -3.71628 0
M  V30 1452 H 135.708 -0.883545 -3.14422 0
M  V30 1453 H 134.367 -2.8463 -2.31044 0
M  V30 1454 H 134.015 -1.97239 -4.62715 0
M  V30 1455 H 133.715 -3.72642 -4.54326 0
M  V30 1456 H 135.239 -3.11803 -5.24987 0
M  V30 1457 H 136.653 -4.55054 -3.4871 0
M  V30 1458 H 135.05 -5.18722 -3.0174 0
M  V30 1459 H 136.12 -4.51229 -1.7754 0
M  V30 1460 N 137.463 0.71206 -1.40597 0
M  V30 1461 C 138.426 1.80785 -1.40888 0
M  V30 1462 C 139.426 1.57937 -0.302103 0
M  V30 1463 O 140.616 1.64913 -0.561182 0
M  V30 1464 C 137.748 3.18927 -1.20409 0
M  V30 1465 H 138.941 1.81924 -2.38419 0
M  V30 1466 H 136.494 0.91805 -1.26497 0
M  V30 1467 H 137.229 3.23436 -0.236522 0
M  V30 1468 H 137.014 3.36911 -2.00582 0
M  V30 1469 H 138.504 3.98949 -1.23408 0
M  V30 1470 N 138.941 1.26152 0.944643 0
M  V30 1471 C 140.189 1.11271 1.6871 0
M  V30 1472 C 140.51 -0.345166 1.91921 0
M  V30 1473 O 139.78 -1.24387 1.51343 0
M  V30 1474 H 138.36 0.408783 0.625224 0
M  V30 1475 H 141.022 1.58427 1.1352 0
M  V30 1476 H 140.118 1.62879 2.66227 0
M  V30 1477 N 140.419 -1.14872 1.07899 0
M  V30 1478 C 141.366 -2.19791 0.704319 0
M  V30 1479 C 142.336 -1.63238 -0.306987 0
M  V30 1480 O 143.521 -1.8983 -0.192171 0
M  V30 1481 C 140.661 -3.44911 0.114244 0
M  V30 1482 C 139.774 -4.15637 1.1777 0
M  V30 1483 C 138.909 -5.28324 0.552037 0
M  V30 1484 C 137.948 -5.90875 1.59789 0
M  V30 1485 N 137.085 -6.95022 0.994404 0
M  V30 1486 H 141.925 -2.5119 1.60336 0
M  V30 1487 H 139.462 -1.23356 0.801352 0
M  V30 1488 H 141.42 -4.16477 -0.245544 0
M  V30 1489 H 140.05 -3.14011 -0.74813 0
M  V30 1490 H 139.102 -3.42512 1.65499 0
M  V30 1491 H 140.414 -4.5823 1.97046 0
M  V30 1492 H 139.568 -6.06538 0.1402 0
M  V30 1493 H 138.307 -4.86939 -0.272431 0
M  V30 1494 H 137.312 -5.11369 2.01945 0
M  V30 1495 H 138.537 -6.34337 2.42474 0
M  V30 1496 H 136.483 -6.55722 0.190939 0
M  V30 1497 H 136.4 -7.36073 1.72432 0
M  V30 1498 H 137.668 -7.77123 0.608253 0
M  V30 1499 N 141.898 -0.863906 -1.31812 0
M  V30 1500 C 143.309 -0.52522 -1.7916 0
M  V30 1501 C 143.66 0.957518 -1.71248 0
M  V30 1502 O 142.785 1.74734 -1.27659 0
M  V30 1503 C 143.38 -0.9466 -3.25307 0
M  V30 1504 C 141.939 -0.659668 -3.70574 0
M  V30 1505 C 141.086 -1.14126 -2.52726 0
M  V30 1506 H 144.037 -1.05022 -1.1898 0
M  V30 1507 H 144.058 -0.266766 -3.79564 0
M  V30 1508 H 143.57 -2.02579 -3.31034 0
M  V30 1509 H 141.671 0.408416 -3.70355 0
M  V30 1510 H 141.784 -1.23245 -4.62977 0
M  V30 1511 H 140.148 -0.561216 -2.4844 0
M  V30 1512 H 140.931 -2.22775 -2.61201 0
M  V30 1513 N 143.376 1.44774 -0.622745 0
M  V30 1514 C 144.622 2.0242 -0.124083 0
M  V30 1515 C 144.955 1.4881 1.24777 0
M  V30 1516 O 144.23 0.668799 1.8264 0
M  V30 1517 C 144.513 3.59957 -0.101619 0
M  V30 1518 C 144.366 4.23867 -1.50521 0
M  V30 1519 C 145.685 4.36284 0.578272 0
M  V30 1520 H 142.804 0.735528 -0.0465645 0
M  V30 1521 H 145.446 1.72447 -0.797617 0
M  V30 1522 H 143.596 3.85623 0.471934 0
M  V30 1523 H 145.268 4.09336 -2.12701 0
M  V30 1524 H 143.511 3.81684 -2.06154 0
M  V30 1525 H 144.182 5.32843 -1.4416 0
M  V30 1526 H 146.658 4.16001 0.0906057 0
M  V30 1527 H 145.534 5.46004 0.563149 0
M  V30 1528 H 145.795 4.10271 1.64713 0
M  V30 1529 N 144.854 0.36279 1.53368 0
M  V30 1530 C 146.103 -0.22888 2.00397 0
M  V30 1531 C 146.416 -1.50096 1.25421 0
M  V30 1532 O 147.622 -2.17106 1.63025 0
M  V30 1533 C 146.078 -0.458417 3.56969 0
M  V30 1534 C 145.686 0.798877 4.4082 0
M  V30 1535 C 147.43 -1.00789 4.12361 0
M  V30 1536 C 145.337 0.539078 5.88938 0
M  V30 1537 H 144.267 -0.089305 0.748693 0
M  V30 1538 H 146.918 0.481099 1.77081 0
M  V30 1539 H 145.3 -1.22959 3.76427 0
M  V30 1540 H 146.474 1.57262 4.33134 0
M  V30 1541 H 144.789 1.27137 3.96516 0
M  V30 1542 H 147.386 -1.21754 5.20653 0
M  V30 1543 H 147.729 -1.9692 3.66781 0
M  V30 1544 H 148.262 -0.296961 3.9669 0
M  V30 1545 H 145.001 1.47064 6.3879 0
M  V30 1546 H 144.521 -0.196222 5.99479 0
M  V30 1547 H 146.2 0.163542 6.46793 0
M  V30 1548 N 146.332 -1.57332 0.0918853 0
M  V30 1549 C 147.242 -2.17368 -0.882505 0
M  V30 1550 C 148.258 -1.14226 -1.31257 0
M  V30 1551 O 149.434 -1.46582 -1.38115 0
M  V30 1552 C 146.499 -2.73962 -2.12476 0
M  V30 1553 C 145.56 -3.92048 -1.7492 0
M  V30 1554 C 144.793 -4.45933 -2.93223 0
M  V30 1555 O 145.016 -3.98764 -4.07852 0
M  V30 1556 O 143.95 -5.36999 -2.71875 0
M  V30 1557 H 147.776 -3.01031 -0.40172 0
M  V30 1558 H 145.361 -1.48813 -0.132291 0
M  V30 1559 H 147.243 -3.10147 -2.85283 0
M  V30 1560 H 145.918 -1.93347 -2.59613 0
M  V30 1561 H 144.825 -3.6068 -0.993025 0
M  V30 1562 H 146.158 -4.74017 -1.32548 0
M  V30 1563 N 147.81 0.181792 -1.56548 0
M  V30 1564 C 149.056 0.901431 -1.81665 0
M  V30 1565 C 149.389 1.82347 -0.668075 0
M  V30 1566 O 148.664 1.91669 0.330615 0
M  V30 1567 C 148.947 1.70618 -3.17115 0
M  V30 1568 C 148.8 0.807964 -4.42484 0
M  V30 1569 C 150.119 2.67605 -3.49393 0
M  V30 1570 H 147.238 0.32627 -0.660846 0
M  V30 1571 H 149.88 0.168134 -1.89255 0
M  V30 1572 H 148.03 2.33133 -3.10775 0
M  V30 1573 H 149.702 0.19649 -4.60881 0
M  V30 1574 H 147.945 0.115411 -4.33646 0
M  V30 1575 H 148.616 1.40632 -5.33785 0
M  V30 1576 H 151.092 2.15218 -3.56118 0
M  V30 1577 H 149.968 3.20985 -4.45264 0
M  V30 1578 H 150.229 3.47298 -2.73563 0
M  V30 1579 N 149.288 1.51039 0.449983 0
M  V30 1580 C 150.238 1.67824 1.54335 0
M  V30 1581 C 151.222 0.5324 1.51836 0
M  V30 1582 O 152.414 0.787762 1.58503 0
M  V30 1583 C 149.543 1.7951 2.92628 0
M  V30 1584 C 148.629 2.99838 2.9993 0
M  V30 1585 N 149.02 4.23207 2.77001 0
M  V30 1586 C 147.318 2.98832 3.31082 0
M  V30 1587 C 148.019 5.04361 2.89818 0
M  V30 1588 N 146.995 4.38746 3.2094 0
M  V30 1589 H 150.797 2.60884 1.35339 0
M  V30 1590 H 148.311 1.48513 0.657085 0
M  V30 1591 H 150.308 1.89642 3.7127 0
M  V30 1592 H 148.968 0.876227 3.12654 0
M  V30 1593 H 149.979 4.5236 2.52172 0
M  V30 1594 H 146.656 2.16527 3.56963 0
M  V30 1595 H 148.046 6.12528 2.76151 0
M  V30 1596 N 150.766 -0.704594 1.40972 0
M  V30 1597 C 151.696 -1.83124 1.44872 0
M  V30 1598 C 152.677 -1.67281 0.30838 0
M  V30 1599 O 153.862 -1.87149 0.518556 0
M  V30 1600 C 150.992 -3.21181 1.32136 0
M  V30 1601 C 149.946 -3.51714 2.43888 0
M  V30 1602 C 149.272 -4.89032 2.16222 0
M  V30 1603 C 150.572 -3.516 3.86232 0
M  V30 1604 H 152.266 -1.80117 2.39161 0
M  V30 1605 H 149.812 -0.865145 1.15114 0
M  V30 1606 H 151.765 -3.99702 1.33479 0
M  V30 1607 H 150.489 -3.24791 0.343279 0
M  V30 1608 H 149.148 -2.75539 2.41813 0
M  V30 1609 H 148.796 -4.89256 1.16778 0
M  V30 1610 H 148.496 -5.10426 2.911 0
M  V30 1611 H 150.02 -5.69873 2.19265 0
M  V30 1612 H 151.434 -4.2014 3.9007 0
M  V30 1613 H 149.831 -3.84523 4.60719 0
M  V30 1614 H 150.901 -2.50757 4.15029 0
M  V30 1615 N 152.244 -1.26651 -0.937939 0
M  V30 1616 C 153.472 -1.15173 -1.7188 0
M  V30 1617 C 153.887 0.292668 -1.86518 0
M  V30 1618 O 153.244 1.20014 -1.37488 0
M  V30 1619 C 153.295 -1.81925 -3.12387 0
M  V30 1620 O 153.016 -3.2072 -2.98446 0
M  V30 1621 C 154.517 -1.76442 -4.06673 0
M  V30 1622 H 151.737 -0.400911 -0.538063 0
M  V30 1623 H 154.281 -1.67332 -1.1756 0
M  V30 1624 H 152.436 -1.33696 -3.63599 0
M  V30 1625 H 152.85 -3.53802 -3.872 0
M  V30 1626 H 154.324 -2.27781 -5.02812 0
M  V30 1627 H 154.801 -0.731608 -4.33064 0
M  V30 1628 H 155.407 -2.24238 -3.61382 0
M  V30 1629 N 153.722 1.14298 -1.08507 0
M  V30 1630 C 154.67 2.21483 -0.710483 0
M  V30 1631 C 155.664 1.66998 0.284234 0
M  V30 1632 O 156.87 1.79401 0.146692 0
M  V30 1633 H 153.245 0.721578 -0.211729 0
M  V30 1634 H 155.216 2.50348 -1.62384 0
M  V30 1635 C 153.965 3.4743 -0.137007 0
M  V30 1636 H 153.288 3.89686 -0.893592 0
M  V30 1637 H 154.728 4.2391 0.0872789 0
M  V30 1638 C 153.187 3.17548 1.12538 0
M  V30 1639 O 153.717 3.35437 2.21009 0
M  V30 1640 N 151.923 2.71499 1.03617 0
M  V30 1641 H 151.47 2.57143 0.153403 0
M  V30 1642 H 151.428 2.51881 1.88158 0
M  V30 1643 N 155.201 0.870884 1.31352 0
M  V30 1644 C 156.45 0.478408 1.95944 0
M  V30 1645 C 156.763 -0.974493 1.69597 0
M  V30 1646 O 157.969 -1.47316 2.28058 0
M  V30 1647 C 156.425 0.804609 3.50791 0
M  V30 1648 C 156.033 2.27433 3.85977 0
M  V30 1649 C 157.777 0.480648 4.2177 0
M  V30 1650 C 155.684 2.5429 5.33939 0
M  V30 1651 H 154.614 0.175175 0.733369 0
M  V30 1652 H 157.265 1.06391 1.4951 0
M  V30 1653 H 155.647 0.148347 3.95722 0
M  V30 1654 H 156.821 2.97373 3.52002 0
M  V30 1655 H 155.136 2.56442 3.28065 0
M  V30 1656 H 157.733 0.658519 5.30629 0
M  V30 1657 H 158.076 -0.578979 4.12254 0
M  V30 1658 H 158.609 1.09349 3.82476 0
M  V30 1659 H 155.348 3.58939 5.48491 0
M  V30 1660 H 154.868 1.88945 5.69263 0
M  V30 1661 H 156.547 2.39066 6.01212 0
M  V30 1662 N 156.679 -1.44442 0.630414 0
M  V30 1663 C 157.611 -2.2892 -0.113347 0
M  V30 1664 C 158.624 -1.41243 -0.80959 0
M  V30 1665 O 159.813 -1.65402 -0.671156 0
M  V30 1666 C 156.913 -3.17594 -1.18266 0
M  V30 1667 C 156.086 -4.33682 -0.569073 0
M  V30 1668 C 155.145 -5.03397 -1.53226 0
M  V30 1669 O 154.171 -5.59438 -1.04967 0
M  V30 1670 N 155.373 -5.04783 -2.86661 0
M  V30 1671 H 158.138 -2.93392 0.611636 0
M  V30 1672 H 155.699 -1.54881 0.471523 0
M  V30 1673 H 157.691 -3.61097 -1.82732 0
M  V30 1674 H 156.261 -2.54876 -1.80988 0
M  V30 1675 H 155.481 -3.9338 0.254187 0
M  V30 1676 H 156.769 -5.08608 -0.139767 0
M  V30 1677 H 156.167 -4.60584 -3.28449 0
M  V30 1678 H 154.724 -5.52077 -3.46489 0
M  V30 1679 N 158.157 -0.370918 -1.53173 0
M  V30 1680 C 159.12 0.460778 -2.24521 0
M  V30 1681 C 160.12 1.00536 -1.25496 0
M  V30 1682 O 161.31 0.890266 -1.49733 0
M  V30 1683 C 158.442 1.64457 -2.98608 0
M  V30 1684 H 159.635 -0.163613 -2.99453 0
M  V30 1685 H 157.188 -0.122699 -1.55818 0
M  V30 1686 H 157.923 2.30691 -2.2793 0
M  V30 1687 H 157.708 1.26099 -3.7127 0
M  V30 1688 H 159.198 2.23384 -3.5283 0
M  V30 1689 N 159.635 1.57281 -0.100228 0
M  V30 1690 C 161.051 1.57527 0.256416 0
M  V30 1691 C 161.251 1.11173 1.68056 0
M  V30 1692 O 160.307 0.79053 2.39806 0
M  V30 1693 C 161.62 3.00673 0.0401747 0
M  V30 1694 C 163.168 3.12815 0.107528 0
M  V30 1695 C 163.643 4.57929 -0.0807834 0
M  V30 1696 N 165.134 4.63193 -0.0261207 0
M  V30 1697 C 165.869 5.73212 -0.146999 0
M  V30 1698 N 165.365 6.92047 -0.322999 0
M  V30 1699 N 167.158 5.62031 -0.0879044 0
M  V30 1700 H 159.309 1.85718 -1.03065 0
M  V30 1701 H 161.572 0.857446 -0.404339 0
M  V30 1702 H 161.278 3.38804 -0.943649 0
M  V30 1703 H 161.152 3.69042 0.780262 0
M  V30 1704 H 163.539 2.74554 1.08186 0
M  V30 1705 H 163.62 2.47028 -0.664134 0
M  V30 1706 H 163.264 4.96886 -1.05201 0
M  V30 1707 H 163.194 5.21783 0.710635 0
M  V30 1708 H 165.685 3.77748 0.107161 0
M  V30 1709 H 165.998 7.7173 -0.406608 0
M  V30 1710 H 164.343 6.94074 -0.358733 0
M  V30 1711 H 167.534 4.68075 0.048498 0
M  V30 1712 H 167.707 6.47734 -0.185557 0
M  V30 1713 N 161.113 -0.173488 1.56642 0
M  V30 1714 C 162.023 -1.23482 1.99473 0
M  V30 1715 C 163.039 -1.48567 0.905752 0
M  V30 1716 O 164.215 -1.60758 1.21321 0
M  V30 1717 C 161.28 -2.55444 2.34413 0
M  V30 1718 C 160.341 -2.38241 3.57127 0
M  V30 1719 C 159.574 -3.63909 3.90392 0
M  V30 1720 O 159.797 -4.68996 3.24653 0
M  V30 1721 O 158.731 -3.58149 4.83749 0
M  V30 1722 H 162.557 -0.901279 2.90018 0
M  V30 1723 H 160.142 -0.380185 1.44482 0
M  V30 1724 H 162.024 -3.33292 2.57865 0
M  V30 1725 H 160.699 -2.88382 1.4703 0
M  V30 1726 H 159.606 -1.58431 3.38896 0
M  V30 1727 H 160.939 -2.10228 4.45045 0
M  V30 1728 N 162.591 -1.51276 -0.441967 0
M  V30 1729 C 163.501 -1.75092 -1.56141 0
M  V30 1730 C 164.517 -0.634963 -1.62001 0
M  V30 1731 O 165.693 -0.916686 -1.79329 0
M  V30 1732 C 162.758 -1.86666 -2.92158 0
M  V30 1733 C 161.819 -3.10506 -2.96453 0
M  V30 1734 C 161.052 -3.21519 -4.25982 0
M  V30 1735 O 161.275 -2.38586 -5.18105 0
M  V30 1736 O 160.209 -4.14465 -4.36466 0
M  V30 1737 H 164.035 -2.70044 -1.38961 0
M  V30 1738 H 161.62 -1.35722 -0.624499 0
M  V30 1739 H 163.502 -1.96292 -3.72891 0
M  V30 1740 H 162.177 -0.949014 -3.09476 0
M  V30 1741 H 161.084 -3.06363 -2.14692 0
M  V30 1742 H 162.417 -4.01945 -2.84079 0
M  V30 1743 N 164.069 0.697108 -1.41344 0
M  V30 1744 C 165.316 1.45714 -1.40619 0
M  V30 1745 C 165.644 1.94494 -0.0147907 0
M  V30 1746 O 164.899 1.69794 0.973066 0
M  V30 1747 C 165.198 2.68553 -2.35826 0
M  V30 1748 C 164.864 2.38438 -3.82698 0
M  V30 1749 C 163.526 2.29936 -4.22709 0
M  V30 1750 C 165.878 2.13567 -4.75435 0
M  V30 1751 C 163.206 1.94656 -5.53467 0
M  V30 1752 C 165.558 1.79797 -6.06511 0
M  V30 1753 C 164.222 1.69789 -6.45545 0
M  V30 1754 H 163.492 0.533206 -0.51456 0
M  V30 1755 H 166.139 0.796901 -1.74131 0
M  V30 1756 H 164.444 3.39503 -1.95563 0
M  V30 1757 H 166.141 3.2669 -2.32539 0
M  V30 1758 H 162.731 2.4595 -3.51008 0
M  V30 1759 H 166.915 2.19082 -4.45328 0
M  V30 1760 H 162.171 1.8546 -5.82593 0
M  V30 1761 H 166.345 1.59572 -6.77872 0
M  V30 1762 H 163.972 1.4222 -7.46778 0
M  V30 1763 N 165.547 1.27147 0.931209 0
M  V30 1764 C 166.963 1.04475 1.20653 0
M  V30 1765 C 167.163 -0.223885 2.00252 0
M  V30 1766 O 166.219 -0.930332 2.34736 0
M  V30 1767 C 167.532 2.28209 1.95809 0
M  V30 1768 C 169.08 2.33211 2.08762 0
M  V30 1769 C 169.555 3.56665 2.87323 0
M  V30 1770 N 171.046 3.57201 2.94892 0
M  V30 1771 C 171.781 4.49395 3.56134 0
M  V30 1772 N 171.277 5.51889 4.18796 0
M  V30 1773 N 173.07 4.37026 3.53504 0
M  V30 1774 H 165.221 2.08612 0.399333 0
M  V30 1775 H 167.484 0.917312 0.239253 0
M  V30 1776 H 167.19 3.20538 1.44736 0
M  V30 1777 H 167.064 2.33247 2.96438 0
M  V30 1778 H 169.451 1.41391 2.59023 0
M  V30 1779 H 169.532 2.32178 1.07364 0
M  V30 1780 H 169.176 4.4882 2.37746 0
M  V30 1781 H 169.106 3.54948 3.88998 0
M  V30 1782 H 171.597 2.83074 2.50354 0
M  V30 1783 H 171.91 6.18409 4.63454 0
M  V30 1784 H 170.255 5.55735 4.17353 0
M  V30 1785 H 173.446 3.56166 3.03749 0
M  V30 1786 H 173.619 5.09067 4.00942 0
M  V30 1787 N 167.025 -1.13721 1.09112 0
M  V30 1788 C 167.972 -2.19031 0.727591 0
M  V30 1789 C 168.942 -1.63555 -0.289656 0
M  V30 1790 O 170.127 -1.90023 -0.172026 0
M  V30 1791 C 167.267 -3.4477 0.15082 0
M  V30 1792 C 166.38 -4.14365 1.22172 0
M  V30 1793 C 165.515 -5.27709 0.608042 0
M  V30 1794 C 164.554 -5.89147 1.66047 0
M  V30 1795 N 163.691 -6.93929 1.06806 0
M  V30 1796 H 168.531 -2.49475 1.62991 0
M  V30 1797 H 166.068 -1.22499 0.81439 0
M  V30 1798 H 168.026 -4.16714 -0.201358 0
M  V30 1799 H 166.656 -3.14787 -0.714783 0
M  V30 1800 H 165.708 -3.40737 1.69122 0
M  V30 1801 H 167.02 -4.56114 2.01895 0
M  V30 1802 H 166.174 -6.06355 0.204523 0
M  V30 1803 H 164.913 -4.872 -0.220769 0
M  V30 1804 H 163.918 -5.09198 2.07357 0
M  V30 1805 H 165.143 -6.31729 2.49189 0
M  V30 1806 H 163.089 -6.55483 0.260476 0
M  V30 1807 H 163.006 -7.34202 1.8023 0
M  V30 1808 H 164.274 -7.76434 0.690644 0
M  V30 1809 N 168.503 -0.877838 -1.30888 0
M  V30 1810 C 169.451 -0.328662 -2.30266 0
M  V30 1811 C 170.445 0.560496 -1.59859 0
M  V30 1812 O 171.651 0.445722 -1.74394 0
M  V30 1813 H 168.026 -0.0876142 -0.746879 0
M  V30 1814 H 169.997 -1.18061 -2.74051 0
M  V30 1815 C 168.746 0.448071 -3.44801 0
M  V30 1816 H 168.069 -0.226859 -3.99156 0
M  V30 1817 H 169.509 0.797541 -4.16432 0
M  V30 1818 C 167.968 1.64239 -2.94155 0
M  V30 1819 O 168.498 2.74175 -2.93583 0
M  V30 1820 N 166.704 1.47716 -2.50256 0
M  V30 1821 H 166.251 0.582821 -2.5092 0
M  V30 1822 H 166.209 2.27765 -2.16727 0
M  V30 1823 N 169.982 1.44106 -0.638065 0
M  V30 1824 C 171.207 2.0685 -0.150916 0
M  V30 1825 C 171.632 1.47417 1.16833 0
M  V30 1826 O 170.99 0.578264 1.71831 0
M  V30 1827 C 171.038 3.60555 -0.05708 0
M  V30 1828 O 170.142 4.00465 0.984972 0
M  V30 1829 H 169.483 0.658151 -0.0879399 0
M  V30 1830 H 172.013 1.84865 -0.876707 0
M  V30 1831 H 172.023 4.07789 0.131232 0
M  V30 1832 H 170.698 4.03193 -1.02021 0
M  V30 1833 H 169.275 3.64849 0.770672 0
M  V30 1834 N 171.46 0.379036 1.52974 0
M  V30 1835 C 172.69 -0.20649 2.05566 0
M  V30 1836 C 173.098 -1.41906 1.25137 0
M  V30 1837 O 172.441 -1.81421 0.288464 0
M  V30 1838 C 172.503 -0.651086 3.53555 0
M  V30 1839 C 172.167 0.446626 4.54812 0
M  V30 1840 C 173.164 1.30079 5.03364 0
M  V30 1841 C 170.849 0.610719 4.98573 0
M  V30 1842 C 172.843 2.30426 5.94292 0
M  V30 1843 C 170.53 1.61754 5.89304 0
M  V30 1844 C 171.528 2.46274 6.37054 0
M  V30 1845 O 171.216 3.45237 7.25994 0
M  V30 1846 H 170.948 -0.0372381 0.674974 0
M  V30 1847 H 173.502 0.539718 1.98182 0
M  V30 1848 H 171.732 -1.44911 3.58522 0
M  V30 1849 H 173.421 -1.16112 3.88938 0
M  V30 1850 H 174.187 1.18527 4.70294 0
M  V30 1851 H 170.066 -0.0374044 4.60985 0
M  V30 1852 H 173.61 2.96432 6.31485 0
M  V30 1853 H 169.507 1.73348 6.21788 0
M  V30 1854 H 170.275 3.41124 7.44027 0
M  V30 1855 N 172.938 -1.57226 0.108567 0
M  V30 1856 C 174.166 -1.99179 -0.559954 0
M  V30 1857 C 174.581 -0.988022 -1.60884 0
M  V30 1858 O 173.938 0.0205512 -1.82488 0
M  V30 1859 C 173.989 -3.41159 -1.19552 0
M  V30 1860 O 173.71 -4.37694 -0.188577 0
M  V30 1861 C 175.211 -3.98188 -1.94837 0
M  V30 1862 H 172.431 -0.654228 -0.149088 0
M  V30 1863 H 174.975 -2.03598 0.19183 0
M  V30 1864 H 173.13 -3.37711 -1.89815 0
M  V30 1865 H 173.544 -5.20469 -0.649014 0
M  V30 1866 H 175.018 -4.99644 -2.34648 0
M  V30 1867 H 175.495 -3.3675 -2.81951 0
M  V30 1868 H 176.101 -4.0515 -1.2936 0
M  V30 1869 N 174.416 0.165178 -1.56732 0
M  V30 1870 C 175.664 0.879068 -1.8198 0
M  V30 1871 C 175.985 1.82514 -0.686561 0
M  V30 1872 O 175.255 1.93694 0.293146 0
M  V30 1873 H 173.835 0.327608 -0.671329 0
M  V30 1874 H 176.497 0.163526 -1.94213 0
M  V30 1875 H 175.593 1.45228 -2.76252 0
M  V30 1876 N 175.894 1.51508 0.433938 0
M  V30 1877 C 176.857 1.72473 1.50949 0
M  V30 1878 C 177.857 0.594725 1.49398 0
M  V30 1879 O 179.047 0.862315 1.5136 0
M  V30 1880 C 176.179 1.78431 2.90474 0
M  V30 1881 H 177.372 2.68467 1.33662 0
M  V30 1882 H 174.925 1.41549 0.662836 0
M  V30 1883 H 175.66 0.842645 3.13161 0
M  V30 1884 H 175.445 2.60558 2.93005 0
M  V30 1885 H 176.935 1.96479 3.68491 0
M  V30 1886 N 177.372 -0.689602 1.41712 0
M  V30 1887 C 178.335 -1.78521 1.43746 0
M  V30 1888 C 179.335 -1.57436 0.327191 0
M  V30 1889 O 180.525 -1.64 0.587348 0
M  V30 1890 C 177.657 -3.16971 1.25467 0
M  V30 1891 H 178.85 -1.78108 2.41283 0
M  V30 1892 H 176.403 -0.89781 1.27942 0
M  V30 1893 H 177.138 -3.23019 0.287948 0
M  V30 1894 H 176.923 -3.33678 2.05917 0
M  V30 1895 H 178.413 -3.96935 1.2974 0
M  V30 1896 N 178.85 -1.27639 -0.924453 0
M  V30 1897 C 180.09 -1.15407 -1.68703 0
M  V30 1898 C 180.454 0.294581 -1.89727 0
M  V30 1899 O 181.655 0.539385 -2.63333 0
M  V30 1900 C 179.926 -1.9195 -3.0148 0
M  V30 1901 S 181.485 -1.95969 -3.92609 0
M  V30 1902 H 178.303 -0.411937 -0.579507 0
M  V30 1903 H 180.905 -1.61592 -1.10038 0
M  V30 1904 H 179.609 -2.96387 -2.83871 0
M  V30 1905 H 179.14 -1.46272 -3.65196 0
M  V30 1906 H 181.155 -1.05846 -4.84779 0
M  V30 1907 N 180.328 1.1314 -1.09713 0
M  V30 1908 C 181.576 1.84119 -0.833338 0
M  V30 1909 C 181.897 1.84097 0.642904 0
M  V30 1910 O 181.167 1.29881 1.46655 0
M  V30 1911 H 179.747 0.681766 -0.305293 0
M  V30 1912 H 182.409 1.37038 -1.38588 0
M  V30 1913 H 181.505 2.88543 -1.18951 0
M  V30 1914 N 181.806 0.884767 1.30421 0
M  V30 1915 C 183.054 0.502112 1.95763 0
M  V30 1916 C 183.375 -0.951815 1.70192 0
M  V30 1917 O 182.645 -1.6692 1.0254 0
M  V30 1918 H 181.225 0.182694 0.724315 0
M  V30 1919 H 183.887 1.1278 1.58955 0
M  V30 1920 H 182.983 0.672188 3.04775 0
M  V30 1921 N 183.284 -1.43765 0.645699 0
M  V30 1922 C 184.53 -2.02197 0.156271 0
M  V30 1923 C 184.863 -1.50776 -1.22393 0
M  V30 1924 O 184.138 -0.697771 -1.81553 0
M  V30 1925 C 184.421 -3.59749 0.158872 0
M  V30 1926 C 184.274 -4.21419 1.57245 0
M  V30 1927 C 185.593 -4.37149 -0.50879 0
M  V30 1928 H 182.712 -0.734694 0.0582602 0
M  V30 1929 H 185.354 -1.71157 0.824951 0
M  V30 1930 H 183.504 -3.86325 -0.410525 0
M  V30 1931 H 185.176 -4.059 2.19186 0
M  V30 1932 H 183.419 -3.78356 2.122 0
M  V30 1933 H 184.09 -5.30482 1.52619 0
M  V30 1934 H 186.566 -4.16093 -0.024412 0
M  V30 1935 H 185.442 -5.4683 -0.476213 0
M  V30 1936 H 185.703 -4.12839 -1.58165 0
M  V30 1937 N 184.763 -0.387143 -1.52771 0
M  V30 1938 C 186.012 0.19697 -2.00736 0
M  V30 1939 C 186.325 1.48082 -1.27793 0
M  V30 1940 O 187.531 2.14485 -1.66458 0
M  V30 1941 C 185.987 0.401568 -3.57653 0
M  V30 1942 C 185.595 -0.868907 -4.39493 0
M  V30 1943 C 187.339 0.942164 -4.13912 0
M  V30 1944 C 185.246 -0.632705 -5.88006 0
M  V30 1945 H 184.176 0.0773827 -0.750019 0
M  V30 1946 H 186.827 -0.50921 -1.76293 0
M  V30 1947 H 185.209 1.16954 -3.78335 0
M  V30 1948 H 186.383 -1.64133 -4.30577 0
M  V30 1949 H 184.698 -1.33429 -3.94443 0
M  V30 1950 H 187.295 1.13455 -5.22525 0
M  V30 1951 H 187.638 1.9106 -3.69867 0
M  V30 1952 H 188.171 0.233814 -3.97112 0
M  V30 1953 H 184.91 -1.57208 -6.36369 0
M  V30 1954 H 184.43 0.100825 -5.99715 0
M  V30 1955 H 186.109 -0.26642 -6.46451 0
M  V30 1956 N 186.241 1.57166 -0.116904 0
M  V30 1957 C 187.174 2.10912 0.871291 0
M  V30 1958 C 188.152 1.025 1.26224 0
M  V30 1959 O 189.336 1.3014 1.36366 0
M  V30 1960 C 186.463 2.6041 2.16574 0
M  V30 1961 C 185.509 3.80687 1.92302 0
M  V30 1962 S 186.342 5.23199 1.14119 0
M  V30 1963 C 187.498 5.76064 2.44748 0
M  V30 1964 H 187.731 2.94401 0.414138 0
M  V30 1965 H 185.264 1.54096 0.096829 0
M  V30 1966 H 187.222 2.89583 2.9095 0
M  V30 1967 H 185.883 1.77106 2.59408 0
M  V30 1968 H 185.076 4.13462 2.8821 0
M  V30 1969 H 184.678 3.5212 1.26047 0
M  V30 1970 H 186.97 5.8566 3.406 0
M  V30 1971 H 187.913 6.74184 2.16521 0
M  V30 1972 H 188.321 5.04117 2.54019 0
M  V30 1973 N 187.719 -0.156864 1.56817 0
M  V30 1974 C 188.967 -0.869404 1.82444 0
M  V30 1975 C 189.288 -1.82147 0.69623 0
M  V30 1976 O 188.558 -1.93847 -0.28287 0
M  V30 1977 H 187.138 -0.324043 0.673056 0
M  V30 1978 H 189.8 -0.153224 1.94297 0
M  V30 1979 H 188.896 -1.43761 2.77019 0
M  V30 1980 N 189.197 -1.51736 -0.425897 0
M  V30 1981 C 190.444 -1.6497 -1.17436 0
M  V30 1982 C 190.772 -0.371445 -1.9092 0
M  V30 1983 O 190.027 0.644963 -1.84767 0
M  V30 1984 C 190.326 -2.81103 -2.20717 0
M  V30 1985 C 189.992 -4.19954 -1.64162 0
M  V30 1986 C 188.654 -4.57725 -1.48462 0
M  V30 1987 C 191.006 -5.06552 -1.22696 0
M  V30 1988 C 188.334 -5.79789 -0.897873 0
M  V30 1989 C 190.686 -6.29205 -0.654464 0
M  V30 1990 C 189.35 -6.6574 -0.484456 0
M  V30 1991 H 188.62 -0.603668 -0.429727 0
M  V30 1992 H 191.267 -1.85798 -0.463829 0
M  V30 1993 H 189.572 -2.54542 -2.97852 0
M  V30 1994 H 191.269 -2.8854 -2.78471 0
M  V30 1995 H 187.859 -3.90181 -1.77361 0
M  V30 1996 H 192.043 -4.77968 -1.33642 0
M  V30 1997 H 187.299 -6.06733 -0.75402 0
M  V30 1998 H 191.473 -6.95643 -0.324694 0
M  V30 1999 H 189.1 -7.60195 -0.0276833 0
M  V30 2000 N 190.675 0.682077 -1.42076 0
M  V30 2001 C 191.923 1.4393 -1.41876 0
M  V30 2002 C 192.244 1.94971 -0.0335599 0
M  V30 2003 O 191.514 1.72591 0.926773 0
M  V30 2004 H 190.094 0.534085 -0.522267 0
M  V30 2005 H 192.756 0.806427 -1.77434 0
M  V30 2006 H 191.852 2.29588 -2.11414 0
M  V30 2007 N 192.153 1.28127 0.917671 0
M  V30 2008 C 193.564 1.13622 1.48145 0
M  V30 2009 C 193.915 -0.275207 1.9426 0
M  V30 2010 O 193.04 -1.1691 1.82102 0
M  V30 2011 C 193.635 2.05648 2.69248 0
M  V30 2012 C 192.194 1.95219 3.21818 0
M  V30 2013 C 191.341 1.97618 1.94532 0
M  V30 2014 H 194.292 1.40874 0.730772 0
M  V30 2015 H 194.313 1.61818 3.44377 0
M  V30 2016 H 193.825 3.08365 2.35653 0
M  V30 2017 H 191.926 0.955244 3.60147 0
M  V30 2018 H 192.039 2.81976 3.87333 0
M  V30 2019 H 190.403 1.41973 2.11461 0
M  V30 2020 H 191.186 3.02007 1.63238 0
M  V30 2021 N 193.631 -1.12557 1.10312 0
M  V30 2022 C 194.561 -2.20341 0.772798 0
M  V30 2023 C 195.542 -1.68198 -0.25365 0
M  V30 2024 O 196.727 -1.93831 -0.119699 0
M  V30 2025 C 193.857 -3.46709 0.202443 0
M  V30 2026 C 192.811 -4.11996 1.15943 0
M  V30 2027 C 192.137 -5.328 0.450345 0
M  V30 2028 C 193.437 -4.5828 2.50552 0
M  V30 2029 H 195.131 -2.48229 1.674 0
M  V30 2030 H 192.677 -1.19308 0.806326 0
M  V30 2031 H 194.63 -4.2138 -0.0407752 0
M  V30 2032 H 193.354 -3.18245 -0.734001 0
M  V30 2033 H 192.013 -3.39305 1.38808 0
M  V30 2034 H 191.661 -5.00602 -0.490531 0
M  V30 2035 H 191.361 -5.7743 1.08851 0
M  V30 2036 H 192.885 -6.10219 0.215642 0
M  V30 2037 H 194.299 -5.2433 2.31843 0
M  V30 2038 H 192.696 -5.13683 3.10242 0
M  V30 2039 H 193.766 -3.72329 3.10643 0
M  V30 2040 N 195.109 -0.891671 -1.2995 0
M  V30 2041 C 196.357 -0.512486 -1.95494 0
M  V30 2042 C 196.678 0.942776 -1.70695 0
M  V30 2043 O 195.948 1.66374 -1.03424 0
M  V30 2044 H 194.528 -0.186533 -0.723336 0
M  V30 2045 H 197.19 -1.13621 -1.58355 0
M  V30 2046 H 196.286 -0.688342 -3.04415 0
M  V30 2047 N 196.587 1.43421 -0.653314 0
M  V30 2048 C 197.817 2.05864 -0.174238 0
M  V30 2049 C 198.225 1.49052 1.16534 0
M  V30 2050 O 197.568 0.616481 1.73047 0
M  V30 2051 C 197.63 3.59499 -0.00875873 0
M  V30 2052 C 197.294 4.38893 -1.27364 0
M  V30 2053 C 198.291 4.70947 -2.20239 0
M  V30 2054 C 195.976 4.789 -1.51525 0
M  V30 2055 C 197.97 5.41916 -3.35568 0
M  V30 2056 C 195.657 5.49614 -2.67147 0
M  V30 2057 C 196.655 5.81044 -3.58994 0
M  V30 2058 O 196.343 6.50313 -4.72597 0
M  V30 2059 H 196.075 0.670345 -0.0872549 0
M  V30 2060 H 198.629 1.84913 -0.894226 0
M  V30 2061 H 196.859 3.79025 0.7666 0
M  V30 2062 H 198.548 4.0364 0.427687 0
M  V30 2063 H 199.314 4.40558 -2.02815 0
M  V30 2064 H 195.193 4.53843 -0.809158 0
M  V30 2065 H 198.737 5.66365 -4.07279 0
M  V30 2066 H 194.634 5.79419 -2.84505 0
M  V30 2067 H 195.402 6.68795 -4.71864 0
M  V30 2068 N 198.065 0.39524 1.52563 0
M  V30 2069 C 199.013 -0.451859 2.28169 0
M  V30 2070 C 200.007 -1.05792 1.32304 0
M  V30 2071 O 201.213 -0.997718 1.49818 0
M  V30 2072 H 197.588 -0.164481 0.733792 0
M  V30 2073 H 199.559 0.207199 2.9768 0
M  V30 2074 C 198.308 -1.56385 3.10546 0
M  V30 2075 H 197.631 -1.10682 3.84174 0
M  V30 2076 H 199.071 -2.13067 3.66577 0
M  V30 2077 C 197.53 -2.52328 2.23231 0
M  V30 2078 O 198.06 -3.5588 1.86312 0
M  V30 2079 N 196.266 -2.22209 1.87274 0
M  V30 2080 H 195.813 -1.38033 2.17496 0
M  V30 2081 H 195.771 -2.86652 1.29143 0
M  V30 2082 N 199.544 -1.57102 0.125237 0
M  V30 2083 C 200.477 -2.11371 -0.860094 0
M  V30 2084 C 201.455 -1.03168 -1.25679 0
M  V30 2085 O 202.639 -1.30862 -1.35674 0
M  V30 2086 C 199.766 -2.61555 -2.1519 0
M  V30 2087 C 198.812 -3.81701 -1.9028 0
M  V30 2088 S 199.645 -5.23797 -1.11343 0
M  V30 2089 C 200.801 -5.77353 -2.41689 0
M  V30 2090 H 201.034 -2.94617 -0.39852 0
M  V30 2091 H 198.567 -1.54145 -0.0886555 0
M  V30 2092 H 200.525 -2.91122 -2.89411 0
M  V30 2093 H 199.186 -1.78479 -2.58465 0
M  V30 2094 H 198.379 -4.14985 -2.86014 0
M  V30 2095 H 197.981 -3.52783 -1.24178 0
M  V30 2096 H 200.273 -5.87458 -3.37489 0
M  V30 2097 H 201.216 -6.75323 -2.12942 0
M  V30 2098 H 201.624 -5.05457 -2.51342 0
M  V30 2099 N 201.022 0.148545 -1.56898 0
M  V30 2100 C 201.985 1.16736 -1.97244 0
M  V30 2101 C 202.985 1.35947 -0.858777 0
M  V30 2102 O 204.175 1.32966 -1.12542 0
M  V30 2103 C 201.307 2.52798 -2.28705 0
M  V30 2104 H 202.5 0.821279 -2.88435 0
M  V30 2105 H 200.053 0.391831 -1.51309 0
M  V30 2106 H 200.788 2.92381 -1.403 0
M  V30 2107 H 200.573 2.40216 -3.09901 0
M  V30 2108 H 202.063 3.26179 -2.60762 0
M  V30 2109 N 202.5 1.5196 0.417844 0
M  V30 2110 C 203.43 1.77634 1.51554 0
M  V30 2111 C 204.411 0.626918 1.58126 0
M  V30 2112 O 205.596 0.871632 1.7354 0
M  V30 2113 C 202.726 1.91911 2.8946 0
M  V30 2114 C 201.68 3.07463 2.97743 0
M  V30 2115 C 201.006 3.06951 4.37819 0
M  V30 2116 C 202.306 4.47082 2.70027 0
M  V30 2117 H 204 2.6955 1.3032 0
M  V30 2118 H 201.546 1.29706 0.625492 0
M  V30 2119 H 203.499 2.08455 3.6623 0
M  V30 2120 H 202.223 0.966598 3.11969 0
M  V30 2121 H 200.882 2.90656 2.23416 0
M  V30 2122 H 200.53 2.09438 4.57323 0
M  V30 2123 H 200.23 3.84556 4.44286 0
M  V30 2124 H 201.754 3.25613 5.16535 0
M  V30 2125 H 203.168 4.6414 3.36522 0
M  V30 2126 H 201.565 5.2654 2.87881 0
M  V30 2127 H 202.635 4.55777 1.65514 0
M  V30 2128 N 203.978 -0.674533 1.42435 0
M  V30 2129 C 204.911 -1.79924 1.40366 0
M  V30 2130 C 205.889 -1.60378 0.267899 0
M  V30 2131 O 207.073 -1.82847 0.458159 0
M  V30 2132 C 204.2 -3.16927 1.19478 0
M  V30 2133 C 203.246 -3.55221 2.36051 0
M  V30 2134 S 204.079 -3.5762 3.98583 0
M  V30 2135 C 205.235 -4.97315 3.80038 0
M  V30 2136 H 205.468 -1.81405 2.35541 0
M  V30 2137 H 203.001 -0.845221 1.29211 0
M  V30 2138 H 204.959 -3.96007 1.08114 0
M  V30 2139 H 203.62 -3.13031 0.258883 0
M  V30 2140 H 202.813 -4.54804 2.17185 0
M  V30 2141 H 202.415 -2.83502 2.43932 0
M  V30 2142 H 204.707 -5.85401 3.41045 0
M  V30 2143 H 205.65 -5.21228 4.79298 0
M  V30 2144 H 206.058 -4.69845 3.12899 0
M  V30 2145 N 205.456 -1.28612 -0.910864 0
M  V30 2146 C 206.419 -1.12803 -1.9952 0
M  V30 2147 C 207.419 -0.0668264 -1.60661 0
M  V30 2148 O 208.609 -0.312847 -1.71368 0
M  V30 2149 C 205.741 -0.72254 -3.33155 0
M  V30 2150 H 206.934 -2.09109 -2.14973 0
M  V30 2151 H 204.487 -1.11639 -1.09391 0
M  V30 2152 H 205.222 0.241152 -3.23402 0
M  V30 2153 H 205.007 -1.48916 -3.62721 0
M  V30 2154 H 206.497 -0.634666 -4.12749 0
M  V30 2155 N 206.934 1.1197 -1.10907 0
M  V30 2156 C 207.867 2.16998 -0.706192 0
M  V30 2157 C 208.845 1.59903 0.294897 0
M  V30 2158 O 210.029 1.87513 0.192636 0
M  V30 2159 C 207.156 3.38673 -0.0427664 0
M  V30 2160 C 206.202 4.14414 -1.00811 0
M  V30 2161 S 207.035 4.72079 -2.52789 0
M  V30 2162 C 208.191 5.97083 -1.87731 0
M  V30 2163 H 208.424 2.50837 -1.59587 0
M  V30 2164 H 205.957 1.23508 -0.926555 0
M  V30 2165 H 207.915 4.09142 0.333668 0
M  V30 2166 H 206.576 3.03105 0.823788 0
M  V30 2167 H 205.769 5.016 -0.491259 0
M  V30 2168 H 205.371 3.49678 -1.3267 0
M  V30 2169 H 207.663 6.66599 -1.21044 0
M  V30 2170 H 208.606 6.53403 -2.72892 0
M  V30 2171 H 209.014 5.4837 -1.33979 0
M  V30 2172 N 208.412 0.89855 1.29475 0
M  V30 2173 C 209.658 0.524658 1.95896 0
M  V30 2174 C 209.991 -0.926468 1.70676 0
M  V30 2175 O 209.266 -1.65665 1.01908 0
M  V30 2176 C 209.549 0.81633 3.50725 0
M  V30 2177 C 209.402 2.31907 3.85408 0
M  V30 2178 C 210.721 0.302038 4.39062 0
M  V30 2179 H 207.84 0.19209 0.711527 0
M  V30 2180 H 210.482 1.12502 1.53112 0
M  V30 2181 H 208.632 0.305369 3.87298 0
M  V30 2182 H 210.304 2.89949 3.58786 0
M  V30 2183 H 208.547 2.78027 3.32992 0
M  V30 2184 H 209.218 2.47373 4.93468 0
M  V30 2185 H 211.694 0.739551 4.09475 0
M  V30 2186 H 210.57 0.535331 5.46283 0
M  V30 2187 H 210.831 -0.797216 4.34853 0
M  V30 2188 N 209.89 -1.43072 0.660911 0
M  V30 2189 C 210.838 -2.32569 -0.0378199 0
M  V30 2190 C 211.832 -1.49046 -0.805092 0
M  V30 2191 O 213.038 -1.65206 -0.714624 0
M  V30 2192 H 209.413 -0.75136 -0.031019 0
M  V30 2193 H 211.384 -2.89216 0.734609 0
M  V30 2194 C 210.133 -3.33453 -0.985124 0
M  V30 2195 H 209.456 -3.97752 -0.404147 0
M  V30 2196 H 210.896 -3.98691 -1.44297 0
M  V30 2197 C 209.355 -2.64642 -2.08486 0
M  V30 2198 O 209.885 -2.46776 -3.16961 0
M  V30 2199 N 208.091 -2.23891 -1.8526 0
M  V30 2200 H 207.638 -2.38621 -0.970449 0
M  V30 2201 H 207.596 -1.78181 -2.59034 0
M  V30 2202 N 211.368 -0.403325 -1.52352 0
M  V30 2203 C 212.617 0.175668 -2.00934 0
M  V30 2204 C 212.93 1.46718 -1.29356 0
M  V30 2205 O 214.136 2.12708 -1.68724 0
M  V30 2206 C 212.592 0.363612 -3.58058 0
M  V30 2207 C 212.2 -0.915472 -4.38547 0
M  V30 2208 C 213.944 0.89821 -4.14888 0
M  V30 2209 C 211.851 -0.695035 -5.87302 0
M  V30 2210 H 210.781 0.0694234 -0.750797 0
M  V30 2211 H 213.432 -0.527879 -1.75743 0
M  V30 2212 H 211.814 1.12935 -3.79555 0
M  V30 2213 H 212.988 -1.68691 -4.28812 0
M  V30 2214 H 211.303 -1.37606 -3.93006 0
M  V30 2215 H 213.9 1.07907 -5.23699 0
M  V30 2216 H 214.243 1.87126 -3.71873 0
M  V30 2217 H 214.776 0.191681 -3.97338 0
M  V30 2218 H 211.515 -1.63948 -6.34666 0
M  V30 2219 H 211.035 0.0372116 -5.99788 0
M  V30 2220 H 212.714 -0.33497 -6.46132 0
M  V30 2221 N 212.846 1.57033 -0.133567 0
M  V30 2222 C 213.776 2.1909 0.807567 0
M  V30 2223 C 214.757 1.13517 1.26681 0
M  V30 2224 O 215.942 1.41809 1.32679 0
M  V30 2225 C 213.072 2.80188 2.05212 0
M  V30 2226 C 212.026 3.91471 1.73015 0
M  V30 2227 C 211.352 4.39443 3.04622 0
M  V30 2228 C 212.652 5.12886 0.987168 0
M  V30 2229 H 214.346 2.97988 0.290403 0
M  V30 2230 H 211.892 1.43335 0.138239 0
M  V30 2231 H 213.845 3.22264 2.71521 0
M  V30 2232 H 212.569 1.98601 2.59278 0
M  V30 2233 H 211.228 3.49993 1.0909 0
M  V30 2234 H 210.876 3.54695 3.56651 0
M  V30 2235 H 210.576 5.14495 2.83847 0
M  V30 2236 H 212.1 4.8418 3.72024 0
M  V30 2237 H 213.514 5.51891 1.55208 0
M  V30 2238 H 211.911 5.93615 0.87985 0
M  V30 2239 H 212.981 4.84894 -0.0235286 0
M  V30 2240 N 214.325 -0.140222 1.56975 0
M  V30 2241 C 215.288 -1.15689 1.97861 0
M  V30 2242 C 216.288 -1.3549 0.865974 0
M  V30 2243 O 217.478 -1.32367 1.13246 0
M  V30 2244 C 214.61 -2.51582 2.30042 0
M  V30 2245 H 215.803 -0.805971 2.88867 0
M  V30 2246 H 213.356 -0.383801 1.51515 0
M  V30 2247 H 214.091 -2.91632 1.41849 0
M  V30 2248 H 213.876 -2.38569 3.11171 0
M  V30 2249 H 215.366 -3.24792 2.62488 0
M  V30 2250 N 215.803 -1.52179 -0.40978 0
M  V30 2251 C 216.713 -1.78364 -1.52392 0
M  V30 2252 C 217.729 -0.669183 -1.60617 0
M  V30 2253 O 218.905 -0.954518 -1.77344 0
M  V30 2254 C 215.97 -1.92822 -2.88133 0
M  V30 2255 C 215.031 -3.16725 -2.898 0
M  V30 2256 C 214.264 -3.30483 -4.19067 0
M  V30 2257 O 214.487 -2.49522 -5.12928 0
M  V30 2258 O 213.421 -4.2363 -4.27576 0
M  V30 2259 H 217.247 -2.72931 -1.33201 0
M  V30 2260 H 214.832 -1.37016 -0.59557 0
M  V30 2261 H 216.714 -2.04157 -3.68643 0
M  V30 2262 H 215.389 -1.01444 -3.07393 0
M  V30 2263 H 214.296 -3.10848 -2.08146 0
M  V30 2264 H 215.629 -4.07881 -2.75489 0
M  V30 2265 N 217.281 0.66697 -1.42791 0
M  V30 2266 C 218.214 1.79177 -1.41318 0
M  V30 2267 C 219.192 1.60234 -0.276401 0
M  V30 2268 O 220.376 1.82602 -0.46785 0
M  V30 2269 C 217.503 3.16289 -1.21157 0
M  V30 2270 C 216.549 3.53964 -2.37932 0
M  V30 2271 S 217.382 3.55501 -4.00474 0
M  V30 2272 C 218.538 4.95292 -3.8267 0
M  V30 2273 H 218.771 1.80153 -2.365 0
M  V30 2274 H 216.304 0.838357 -1.29657 0
M  V30 2275 H 218.262 3.95428 -1.10212 0
M  V30 2276 H 216.923 3.1289 -0.275481 0
M  V30 2277 H 216.116 4.53646 -2.19594 0
M  V30 2278 H 215.718 2.82204 -2.45432 0
M  V30 2279 H 218.01 5.83584 -3.44145 0
M  V30 2280 H 218.953 5.18679 -4.82055 0
M  V30 2281 H 219.361 4.68179 -3.15386 0
M  V30 2282 N 218.759 1.29093 0.90403 0
M  V30 2283 C 219.706 1.13853 2.00764 0
M  V30 2284 C 220.676 0.0330084 1.66067 0
M  V30 2285 O 221.861 0.199733 1.89752 0
M  V30 2286 C 219.001 0.816537 3.35301 0
M  V30 2287 C 218.114 2.00206 3.82807 0
M  V30 2288 C 217.249 1.61983 5.059 0
M  V30 2289 C 216.288 2.77143 5.45764 0
M  V30 2290 N 215.425 2.39346 6.60044 0
M  V30 2291 H 220.265 2.08276 2.13132 0
M  V30 2292 H 217.802 1.03648 1.04381 0
M  V30 2293 H 219.76 0.610557 4.12708 0
M  V30 2294 H 218.39 -0.090779 3.22672 0
M  V30 2295 H 217.442 2.31988 3.01473 0
M  V30 2296 H 218.754 2.86512 4.08304 0
M  V30 2297 H 217.908 1.37649 5.90879 0
M  V30 2298 H 216.647 0.728202 4.82233 0
M  V30 2299 H 215.652 3.02165 4.59322 0
M  V30 2300 H 216.877 3.66964 5.71414 0
M  V30 2301 H 214.823 1.52665 6.37989 0
M  V30 2302 H 214.74 3.19185 6.85315 0
M  V30 2303 H 216.008 2.1832 7.48303 0
M  V30 2304 N 220.237 -1.11381 1.11499 0
M  V30 2305 C 221.2 -2.15622 0.777153 0
M  V30 2306 C 222.2 -1.59504 -0.203779 0
M  V30 2307 O 223.39 -1.74188 0.020782 0
M  V30 2308 C 220.522 -3.40556 0.153116 0
M  V30 2309 H 221.715 -2.47021 1.70061 0
M  V30 2310 H 219.268 -1.26577 0.916952 0
M  V30 2311 H 220.003 -3.14767 -0.780536 0
M  V30 2312 H 219.788 -3.8257 0.859238 0
M  V30 2313 H 221.278 -4.17546 -0.0671044 0
M  V30 2314 N 221.715 -0.905404 -1.28997 0
M  V30 2315 C 222.962 -0.534248 -1.95325 0
M  V30 2316 C 223.29 0.920535 -1.71337 0
M  V30 2317 O 222.545 1.66861 -1.02254 0
M  V30 2318 C 222.844 -0.779906 -3.48787 0
M  V30 2319 C 222.51 -2.21293 -3.92861 0
M  V30 2320 C 221.172 -2.60475 -4.04606 0
M  V30 2321 C 223.524 -3.14587 -4.15553 0
M  V30 2322 C 220.852 -3.9212 -4.36416 0
M  V30 2323 C 223.204 -4.45787 -4.48839 0
M  V30 2324 C 221.868 -4.84834 -4.58794 0
M  V30 2325 H 221.138 -0.195495 -0.714747 0
M  V30 2326 H 223.785 -1.14514 -1.53488 0
M  V30 2327 H 222.09 -0.0861365 -3.91705 0
M  V30 2328 H 223.787 -0.472029 -3.98212 0
M  V30 2329 H 220.377 -1.89887 -3.84241 0
M  V30 2330 H 224.561 -2.85528 -4.0594 0
M  V30 2331 H 219.817 -4.22086 -4.42327 0
M  V30 2332 H 223.991 -5.18098 -4.65346 0
M  V30 2333 H 221.618 -5.86877 -4.83197 0
M  V30 2334 N 223.193 1.4272 -0.668489 0
M  V30 2335 C 224.125 2.2914 0.052613 0
M  V30 2336 C 225.138 1.43339 0.771857 0
M  V30 2337 O 226.327 1.67123 0.627067 0
M  V30 2338 C 223.427 3.20618 1.09804 0
M  V30 2339 C 222.6 4.35039 0.45389 0
M  V30 2340 C 221.659 5.07282 1.39825 0
M  V30 2341 O 220.685 5.62024 0.900978 0
M  V30 2342 N 221.887 5.12206 2.73176 0
M  V30 2343 H 224.652 2.91668 -0.689209 0
M  V30 2344 H 222.213 1.53577 -0.512422 0
M  V30 2345 H 224.205 3.65815 1.73094 0
M  V30 2346 H 222.775 2.59585 1.74167 0
M  V30 2347 H 221.995 3.92567 -0.358396 0
M  V30 2348 H 223.283 5.088 0.00486972 0
M  V30 2349 H 222.681 4.6913 3.16122 0
M  V30 2350 H 221.238 5.61069 3.31729 0
M  V30 2351 N 224.671 0.411399 1.52136 0
M  V30 2352 C 225.581 -0.419774 2.30814 0
M  V30 2353 C 226.597 -1.0515 1.38634 0
M  V30 2354 O 227.773 -1.05252 1.71709 0
M  V30 2355 C 224.838 -1.52019 3.11594 0
M  V30 2356 C 223.899 -0.91129 4.19516 0
M  V30 2357 C 223.132 -1.95927 4.96436 0
M  V30 2358 O 223.355 -3.17775 4.73683 0
M  V30 2359 O 222.289 -1.56423 5.81219 0
M  V30 2360 H 226.115 0.221805 3.02889 0
M  V30 2361 H 223.7 0.174547 1.48377 0
M  V30 2362 H 225.582 -2.15898 3.61892 0
M  V30 2363 H 224.257 -2.14633 2.42311 0
M  V30 2364 H 223.164 -0.235157 3.7336 0
M  V30 2365 H 224.497 -0.32904 4.91099 0
M  V30 2366 N 226.149 -1.5696 0.141893 0
M  V30 2367 C 227.112 -2.15316 -0.785587 0
M  V30 2368 C 228.112 -1.09366 -1.1788 0
M  V30 2369 O 229.302 -1.35031 -1.10056 0
M  V30 2370 C 226.434 -2.71211 -2.06537 0
M  V30 2371 H 227.627 -2.98608 -0.278041 0
M  V30 2372 H 225.18 -1.5593 -0.107519 0
M  V30 2373 H 225.915 -1.91571 -2.6167 0
M  V30 2374 H 225.7 -3.4872 -1.79268 0
M  V30 2375 H 227.19 -3.16189 -2.72789 0
M  V30 2376 N 227.627 0.131896 -1.57047 0
M  V30 2377 C 228.559 1.1878 -1.9602 0
M  V30 2378 C 229.572 1.38363 -0.857875 0
M  V30 2379 O 230.761 1.37666 -1.13623 0
M  V30 2380 C 227.861 2.55008 -2.23213 0
M  V30 2381 C 227.034 2.56201 -3.54513 0
M  V30 2382 C 226.093 3.7408 -3.70069 0
M  V30 2383 O 225.119 3.58258 -4.42312 0
M  V30 2384 N 226.321 4.92137 -3.07866 0
M  V30 2385 H 229.086 0.85639 -2.87204 0
M  V30 2386 H 226.647 0.321309 -1.5868 0
M  V30 2387 H 228.639 3.32404 -2.30846 0
M  V30 2388 H 227.209 2.80382 -1.3822 0
M  V30 2389 H 226.429 1.64613 -3.58185 0
M  V30 2390 H 227.717 2.54043 -4.4084 0
M  V30 2391 H 227.115 5.07895 -2.49116 0
M  V30 2392 H 225.672 5.67254 -3.21039 0
M  V30 2393 N 229.106 1.52395 0.401703 0
M  V30 2394 C 230.053 1.76268 1.48991 0
M  V30 2395 C 231.023 0.605386 1.54675 0
M  V30 2396 O 232.208 0.843742 1.7113 0
M  V30 2397 C 229.348 1.92592 2.86361 0
M  V30 2398 C 228.461 3.20259 2.89928 0
M  V30 2399 C 227.596 3.26972 4.18644 0
M  V30 2400 C 226.635 4.48812 4.16214 0
M  V30 2401 N 225.772 4.52877 5.36514 0
M  V30 2402 H 230.612 2.6914 1.27935 0
M  V30 2403 H 228.149 1.33355 0.620871 0
M  V30 2404 H 230.107 2.0004 3.66115 0
M  V30 2405 H 228.737 1.03093 3.05895 0
M  V30 2406 H 227.789 3.21945 2.02621 0
M  V30 2407 H 229.101 4.10056 2.83999 0
M  V30 2408 H 228.255 3.33533 5.06794 0
M  V30 2409 H 226.994 2.35126 4.27278 0
M  V30 2410 H 225.999 4.4239 3.26453 0
M  V30 2411 H 227.224 5.41961 4.09213 0
M  V30 2412 H 225.17 3.63917 5.45802 0
M  V30 2413 H 225.087 5.36529 5.32609 0
M  V30 2414 H 226.355 4.63676 6.26597 0
M  V30 2415 N 230.584 -0.659388 1.43143 0
M  V30 2416 C 231.532 -1.79374 1.4808 0
M  V30 2417 C 232.526 -1.65639 0.354988 0
M  V30 2418 O 233.732 -1.7206 0.528704 0
M  V30 2419 H 230.107 -0.591705 0.4641 0
M  V30 2420 H 232.078 -1.72329 2.43609 0
M  V30 2421 C 230.827 -3.17606 1.41499 0
M  V30 2422 H 230.15 -3.28809 2.27431 0
M  V30 2423 H 231.59 -3.96951 1.49015 0
M  V30 2424 C 230.049 -3.36642 0.131765 0
M  V30 2425 O 230.579 -3.93461 -0.809386 0
M  V30 2426 N 228.785 -2.90567 0.0439396 0
M  V30 2427 H 228.332 -2.44513 0.810619 0
M  V30 2428 H 228.29 -3.03681 -0.813969 0
M  V30 2429 N 232.062 -1.29571 -0.897171 0
M  V30 2430 C 233.01 -1.14802 -2.02295 0
M  V30 2431 C 234.004 -0.0629637 -1.69283 0
M  V30 2432 O 235.21 -0.222945 -1.78614 0
M  V30 2433 H 231.585 -0.354692 -0.663097 0
M  V30 2434 H 233.556 -2.10108 -2.11889 0
M  V30 2435 C 232.305 -0.843966 -3.37302 0
M  V30 2436 H 231.628 -1.67093 -3.63208 0
M  V30 2437 H 233.068 -0.780672 -4.16751 0
M  V30 2438 C 231.527 0.452843 -3.33843 0
M  V30 2439 O 232.057 1.47813 -3.73516 0
M  V30 2440 N 230.263 0.459601 -2.86943 0
M  V30 2441 H 229.81 -0.375213 -2.54853 0
M  V30 2442 H 229.768 1.32726 -2.85011 0
M  V30 2443 N 233.54 1.10788 -1.12088 0
M  V30 2444 C 234.951 1.64181 -0.88891 0
M  V30 2445 C 235.302 1.87508 0.577498 0
M  V30 2446 O 234.427 1.61434 1.44112 0
M  V30 2447 C 235.022 2.98257 -1.60712 0
M  V30 2448 C 233.581 3.4853 -1.42139 0
M  V30 2449 C 232.728 2.23208 -1.6454 0
M  V30 2450 H 235.679 0.943368 -1.27618 0
M  V30 2451 H 235.7 3.65552 -1.05604 0
M  V30 2452 H 235.212 2.81246 -2.67436 0
M  V30 2453 H 233.313 3.70692 -0.376552 0
M  V30 2454 H 233.426 4.26882 -2.17505 0
M  V30 2455 H 231.79 2.31169 -1.06925 0
M  V30 2456 H 232.573 2.08733 -2.72554 0
M  V30 2457 N 235.018 0.912232 1.28515 0
M  V30 2458 C 235.966 0.389597 2.29314 0
M  V30 2459 C 236.96 -0.517915 1.61289 0
M  V30 2460 O 238.166 -0.399328 1.75515 0
M  V30 2461 H 234.541 0.107386 0.744293 0
M  V30 2462 H 236.512 1.25286 2.70825 0
M  V30 2463 C 235.261 -0.356496 3.45868 0
M  V30 2464 H 234.584 0.332608 3.98414 0
M  V30 2465 H 236.024 -0.686851 4.184 0
M  V30 2466 C 234.483 -1.56383 2.98406 0
M  V30 2467 O 235.013 -2.66294 3.00749 0
M  V30 2468 N 233.219 -1.41029 2.54085 0
M  V30 2469 H 232.766 -0.516089 2.52377 0
M  V30 2470 H 232.724 -2.21939 2.22689 0
M  V30 2471 N 236.496 -1.42363 0.676048 0
M  V30 2472 C 237.444 -2.32596 -0.0131507 0
M  V30 2473 C 238.438 -1.49891 -0.789238 0
M  V30 2474 O 239.644 -1.65955 -0.697061 0
M  V30 2475 H 236.019 -0.751647 -0.0230481 0
M  V30 2476 H 237.99 -2.88421 0.765243 0
M  V30 2477 C 236.739 -3.34479 -0.949702 0
M  V30 2478 H 236.062 -3.98158 -0.361938 0
M  V30 2479 H 237.502 -4.00199 -1.4006 0
M  V30 2480 C 235.961 -2.66838 -2.05667 0
M  V30 2481 O 236.491 -2.50124 -3.14326 0
M  V30 2482 N 234.697 -2.25843 -1.82875 0
M  V30 2483 H 234.244 -2.39637 -0.945085 0
M  V30 2484 H 234.202 -1.80918 -2.5713 0
M  V30 2485 N 237.974 -0.419461 -1.51915 0
M  V30 2486 C 239.385 0.0477853 -1.86639 0
M  V30 2487 C 239.736 1.43531 -1.33766 0
M  V30 2488 O 238.861 2.05401 -0.68113 0
M  V30 2489 C 239.456 0.0934885 -3.38671 0
M  V30 2490 C 238.015 0.505097 -3.72996 0
M  V30 2491 C 237.162 -0.313792 -2.75519 0
M  V30 2492 H 240.113 -0.636088 -1.45395 0
M  V30 2493 H 240.134 0.906667 -3.6954 0
M  V30 2494 H 239.646 -0.916501 -3.77123 0
M  V30 2495 H 237.747 1.52135 -3.40126 0
M  V30 2496 H 237.86 0.242309 -4.78487 0
M  V30 2497 H 236.224 0.225363 -2.53701 0
M  V30 2498 H 237.007 -1.32232 -3.16812 0
M  V30 2499 N 239.452 1.56882 -0.150215 0
M  V30 2500 C 240.701 1.95403 0.500071 0
M  V30 2501 C 241.014 1.03777 1.658 0
M  V30 2502 O 242.22 1.31889 2.37313 0
M  V30 2503 C 240.676 3.4738 0.941018 0
M  V30 2504 C 240.284 4.47596 -0.190158 0
M  V30 2505 C 242.028 3.9476 1.56091 0
M  V30 2506 C 239.935 5.90787 0.269237 0
M  V30 2507 H 238.865 0.729515 0.190588 0
M  V30 2508 H 241.516 1.81988 -0.235074 0
M  V30 2509 H 239.898 3.56138 1.73152 0
M  V30 2510 H 241.072 4.50536 -0.967157 0
M  V30 2511 H 239.387 4.10151 -0.718666 0
M  V30 2512 H 241.984 4.99181 1.9163 0
M  V30 2513 H 242.327 3.36494 2.45107 0
M  V30 2514 H 242.86 3.88932 0.835249 0
M  V30 2515 H 239.599 6.52879 -0.585621 0
M  V30 2516 H 239.119 5.912 1.01204 0
M  V30 2517 H 240.798 6.42979 0.720176 0
M  V30 2518 N 240.93 -0.123565 1.57115 0
M  V30 2519 C 241.878 -1.17082 2.00984 0
M  V30 2520 C 242.872 -1.43136 0.906009 0
M  V30 2521 O 244.078 -1.43152 1.09121 0
M  V30 2522 H 240.453 -0.394653 0.64012 0
M  V30 2523 H 242.424 -0.774292 2.88179 0
M  V30 2524 C 241.173 -2.49057 2.42623 0
M  V30 2525 H 240.496 -2.29846 3.27125 0
M  V30 2526 H 241.936 -3.20906 2.7712 0
M  V30 2527 C 240.395 -3.11305 1.28805 0
M  V30 2528 O 240.925 -3.97171 0.60153 0
M  V30 2529 N 239.131 -2.71111 1.04628 0
M  V30 2530 H 238.678 -2.01382 1.60634 0
M  V30 2531 H 238.636 -3.1309 0.286685 0
M  V30 2532 N 242.408 -1.52605 -0.393616 0
M  V30 2533 C 243.356 -1.77688 -1.50099 0
M  V30 2534 C 244.35 -0.644615 -1.56656 0
M  V30 2535 O 245.556 -0.826997 -1.59877 0
M  V30 2536 H 241.931 -0.562159 -0.499481 0
M  V30 2537 H 243.902 -2.7043 -1.26135 0
M  V30 2538 C 242.651 -1.95858 -2.87289 0
M  V30 2539 H 241.974 -2.8241 -2.82992 0
M  V30 2540 H 243.414 -2.174 -3.64024 0
M  V30 2541 C 241.873 -0.729848 -3.28899 0
M  V30 2542 O 242.403 0.0949217 -4.01588 0
M  V30 2543 N 240.609 -0.561283 -2.85128 0
M  V30 2544 H 240.156 -1.23357 -2.26143 0
M  V30 2545 H 240.114 0.2595 -3.13327 0
M  V30 2546 N 243.887 0.651787 -1.4349 0
M  V30 2547 C 244.819 1.77725 -1.44729 0
M  V30 2548 C 245.832 1.59141 -0.343231 0
M  V30 2549 O 247.021 1.67835 -0.607751 0
M  V30 2550 C 244.121 3.15172 -1.24579 0
M  V30 2551 C 243.294 3.60402 -2.47849 0
M  V30 2552 C 242.353 4.76656 -2.22902 0
M  V30 2553 O 241.379 4.86022 -2.96263 0
M  V30 2554 N 242.581 5.66958 -1.24656 0
M  V30 2555 H 245.346 1.77141 -2.41746 0
M  V30 2556 H 242.907 0.835678 -1.38665 0
M  V30 2557 H 244.899 3.90634 -1.0577 0
M  V30 2558 H 243.469 3.1052 -0.360015 0
M  V30 2559 H 242.689 2.75369 -2.82073 0
M  V30 2560 H 243.977 3.87368 -3.29884 0
M  V30 2561 H 243.375 5.62065 -0.640265 0
M  V30 2562 H 241.932 6.42135 -1.1183 0
M  V30 2563 N 245.365 1.30045 0.890287 0
M  V30 2564 C 246.312 1.15976 1.99545 0
M  V30 2565 C 247.282 0.0506202 1.66023 0
M  V30 2566 O 248.467 0.219847 1.89529 0
M  V30 2567 C 245.607 0.852054 3.34416 0
M  V30 2568 C 244.72 2.04255 3.80662 0
M  V30 2569 C 243.855 1.6734 5.04154 0
M  V30 2570 C 242.894 2.82916 5.42794 0
M  V30 2571 N 242.031 2.46333 6.57468 0
M  V30 2572 H 246.871 2.10524 2.10911 0
M  V30 2573 H 244.408 1.04749 1.03276 0
M  V30 2574 H 246.366 0.654296 4.12037 0
M  V30 2575 H 244.996 -0.0565502 3.2275 0
M  V30 2576 H 244.048 2.35172 2.98995 0
M  V30 2577 H 245.36 2.90826 4.05242 0
M  V30 2578 H 244.514 1.43908 5.89386 0
M  V30 2579 H 243.253 0.779308 4.81433 0
M  V30 2580 H 242.258 3.0702 4.56091 0
M  V30 2581 H 243.483 3.73004 5.6749 0
M  V30 2582 H 241.429 1.59423 6.36334 0
M  V30 2583 H 241.346 3.26436 6.81891 0
M  V30 2584 H 242.614 2.26244 7.45945 0
M  V30 2585 O 246.882 -1.02616 1.24708 0
M  V30 2586 H 247.573 -1.6429 1.02608 0
M  V30 END ATOM
M  V30 BEGIN BOND
M  V30 END BOND
M  V30 END CTAB
M  END
$$$$
