drugbank_target|Q48436 Diacetyl reductase [(S)-acetoin forming] (DB02379)
 OpenBabel12092120233D

  0  0  0     0  0            999 V3000
M  V30 BEGIN CTAB
M  V30 COUNTS 3767 3796 0 0 0
M  V30 BEGIN ATOM
M  V30 1 H -0.908 1.98254 -0.117106 0
M  V30 2 N 0 1.576 0 0
M  V30 3 C 0.933 2.03868 1.02534 0
M  V30 4 C 1.911 0.928543 1.3348 0
M  V30 5 O 3.095 1.19667 1.45644 0
M  V30 6 C 0.222 2.43627 2.35294 0
M  V30 7 C -0.732 3.65373 2.2001 0
M  V30 8 S 0.101 5.13292 1.52614 0
M  V30 9 C 1.257 5.56322 2.86805 0
M  V30 10 H 1.49 2.90518 0.631377 0
M  V30 11 H -0.977 1.52953 0.210867 0
M  V30 12 H 0.981 2.67203 3.11629 0
M  V30 13 H -0.358 1.57376 2.7183 0
M  V30 14 H -1.165 3.90944 3.18086 0
M  V30 15 H -1.563 3.418 1.51819 0
M  V30 16 H 0.729 5.58782 3.83104 0
M  V30 17 H 1.672 6.56266 2.65933 0
M  V30 18 H 2.08 4.83886 2.90714 0
M  V30 19 N 1.4781 -0.272755 1.55222 0
M  V30 20 C 2.4251 -1.33716 1.88119 0
M  V30 21 C 3.3951 -1.49066 0.73271 0
M  V30 22 O 4.5801 -1.63469 0.984002 0
M  V30 23 C 1.7201 -2.69238 2.15882 0
M  V30 24 C 0.8331 -2.62108 3.43399 0
M  V30 25 C -0.0319 -3.89811 3.60861 0
M  V30 26 C -0.9929 -3.77193 4.8207 0
M  V30 27 N -1.8559 -4.9673 4.96189 0
M  V30 28 H 2.9841 -1.04962 2.78903 0
M  V30 29 H 0.5211 -0.507088 1.38083 0
M  V30 30 H 2.4791 -3.48089 2.29978 0
M  V30 31 H 1.1091 -2.96194 1.28331 0
M  V30 32 H 0.1611 -1.74967 3.37773 0
M  V30 33 H 1.4731 -2.48685 4.32386 0
M  V30 34 H 0.6271 -4.77103 3.74777 0
M  V30 35 H -0.6339 -4.06102 2.7006 0
M  V30 36 H -1.6289 -2.88284 4.68159 0
M  V30 37 H -0.4039 -3.62421 5.74307 0
M  V30 38 H -2.4579 -5.13431 4.08319 0
M  V30 39 H -2.5409 -4.85839 5.79221 0
M  V30 40 H -1.2729 -5.85594 5.1449 0
M  V30 41 N 2.9562 -1.48159 -0.537278 0
M  V30 42 C 3.9032 -1.62138 -1.64256 0
M  V30 43 C 4.8732 -0.463668 -1.59497 0
M  V30 44 O 6.0582 -0.686241 -1.78032 0
M  V30 45 C 3.1982 -1.66028 -3.02537 0
M  V30 46 C 2.3112 -2.92855 -3.17585 0
M  V30 47 C 1.4462 -2.87952 -4.46382 0
M  V30 48 C 0.4852 -4.09516 -4.54932 0
M  V30 49 N -0.3778 -4.02733 -5.75109 0
M  V30 50 H 4.4622 -2.56529 -1.51647 0
M  V30 51 H 1.9992 -1.27224 -0.738414 0
M  V30 52 H 3.9572 -1.66265 -3.82638 0
M  V30 53 H 2.5872 -0.751331 -3.13934 0
M  V30 54 H 1.6392 -3.02395 -2.30784 0
M  V30 55 H 2.9512 -3.82822 -3.19764 0
M  V30 56 H 2.1052 -2.8655 -5.34765 0
M  V30 57 H 0.8442 -1.95702 -4.46712 0
M  V30 58 H -0.1508 -4.11201 -3.64957 0
M  V30 59 H 1.0742 -5.02917 -4.56346 0
M  V30 60 H -0.9798 -3.13299 -5.76351 0
M  V30 61 H -1.0628 -4.86397 -5.78752 0
M  V30 62 H 0.2052 -4.05379 -6.65799 0
M  V30 63 N 4.4343 0.785586 -1.36625 0
M  V30 64 C 5.6803 1.54591 -1.31261 0
M  V30 65 C 6.0133 1.93906 0.106823 0
M  V30 66 O 5.2883 1.63007 1.06108 0
M  V30 67 C 5.5713 2.82038 -2.23889 0
M  V30 68 C 5.4243 2.49066 -3.74548 0
M  V30 69 C 6.7433 3.83887 -2.15217 0
M  V30 70 H 3.8623 0.560846 -0.478143 0
M  V30 71 H 6.5043 0.902278 -1.67209 0
M  V30 72 H 4.6543 3.36961 -1.93363 0
M  V30 73 H 6.3263 2.00164 -4.15611 0
M  V30 74 H 4.5693 1.81954 -3.93796 0
M  V30 75 H 5.2403 3.40109 -4.34776 0
M  V30 76 H 7.7163 3.38421 -2.42096 0
M  V30 77 H 6.5923 4.70806 -2.82193 0
M  V30 78 H 6.8533 4.27131 -1.14068 0
M  V30 79 N 5.9124 1.20967 1.01018 0
M  V30 80 C 6.8754 0.965918 2.07853 0
M  V30 81 C 7.8754 -0.0610545 1.60684 0
M  V30 82 O 9.0654 0.175681 1.73312 0
M  V30 83 C 6.1974 0.455513 3.37843 0
M  V30 84 H 7.3904 1.91365 2.3091 0
M  V30 85 H 4.9434 1.02594 1.17916 0
M  V30 86 H 5.6784 -0.497381 3.20463 0
M  V30 87 H 5.4634 1.19622 3.73407 0
M  V30 88 H 6.9534 0.304667 4.16487 0
M  V30 89 N 7.3905 -1.2043 1.01659 0
M  V30 90 C 8.3205 -2.25466 0.607226 0
M  V30 91 C 9.3015 -1.65853 -0.377716 0
M  V30 92 O 10.4865 -1.92409 -0.263149 0
M  V30 93 C 7.6165 -3.47256 -0.0552949 0
M  V30 94 C 6.5705 -4.19462 0.850632 0
M  V30 95 C 5.8965 -5.34673 0.0538859 0
M  V30 96 C 7.1965 -4.75603 2.15868 0
M  V30 97 H 8.8905 -2.59962 1.48526 0
M  V30 98 H 6.4365 -1.2496 0.715605 0
M  V30 99 H 8.3895 -4.19917 -0.353233 0
M  V30 100 H 7.1135 -3.11924 -0.968045 0
M  V30 101 H 5.7725 -3.48667 1.13257 0
M  V30 102 H 5.4205 -4.95585 -0.860514 0
M  V30 103 H 5.1205 -5.83913 0.657192 0
M  V30 104 H 6.6445 -6.10138 -0.237598 0
M  V30 105 H 8.0585 -5.40083 1.92311 0
M  V30 106 H 6.4555 -5.3528 2.71284 0
M  V30 107 H 7.5255 -3.94346 2.82169 0
M  V30 108 N 8.8686 -0.792821 -1.36206 0
M  V30 109 C 10.1146 -0.36733 -1.99446 0
M  V30 110 C 10.4476 1.05917 -1.62774 0
M  V30 111 O 9.7226 1.7324 -0.88421 0
M  V30 112 C 10.0056 -0.535044 -3.56103 0
M  V30 113 C 9.8586 -2.00548 -4.02617 0
M  V30 114 C 11.1776 0.0478191 -4.40074 0
M  V30 115 H 8.2966 -0.134941 -0.724541 0
M  V30 116 H 10.9386 -0.999794 -1.61568 0
M  V30 117 H 9.0886 0.00336329 -3.885 0
M  V30 118 H 10.7606 -2.60521 -3.80692 0
M  V30 119 H 9.0036 -2.50686 -3.54032 0
M  V30 120 H 9.6746 -2.07377 -5.11565 0
M  V30 121 H 12.1506 -0.411822 -4.14057 0
M  V30 122 H 11.0266 -0.0995336 -5.4881 0
M  V30 123 H 11.2876 1.14025 -4.27142 0
M  V30 124 N 10.3467 1.47872 -0.545128 0
M  V30 125 C 11.5747 2.06889 -0.021084 0
M  V30 126 C 11.9897 1.39955 1.2672 0
M  V30 127 O 11.3467 0.492036 1.75742 0
M  V30 128 C 11.3977 3.60996 0.190817 0
M  V30 129 O 11.1187 4.25419 -1.04644 0
M  V30 130 C 12.6197 4.36849 0.753521 0
M  V30 131 H 9.8397 0.669785 -0.0403635 0
M  V30 132 H 12.3837 1.90049 -0.755095 0
M  V30 133 H 10.5387 3.77391 0.87492 0
M  V30 134 H 10.9527 5.17785 -0.836611 0
M  V30 135 H 12.4267 5.45399 0.851139 0
M  V30 136 H 12.9037 4.02306 1.762 0
M  V30 137 H 13.5097 4.25169 0.105503 0
M  V30 138 N 11.8248 0.280983 1.55075 0
M  V30 139 C 13.0728 -0.333455 1.9933 0
M  V30 140 C 13.3938 -1.55937 1.17085 0
M  V30 141 O 12.6638 -1.94143 0.261805 0
M  V30 142 H 11.2438 -0.126197 0.736263 0
M  V30 143 H 13.9058 0.387678 1.91005 0
M  V30 144 H 13.0018 -0.619292 3.05894 0
M  V30 145 N 13.3029 -1.57598 0.00835791 0
M  V30 146 C 14.2659 -2.07884 -0.965242 0
M  V30 147 C 15.2659 -0.989825 -1.26725 0
M  V30 148 O 16.4559 -1.25218 -1.21104 0
M  V30 149 C 13.5879 -2.52731 -2.28779 0
M  V30 150 H 14.7809 -2.95178 -0.530112 0
M  V30 151 H 12.3339 -1.54458 -0.239283 0
M  V30 152 H 13.0689 -1.68705 -2.76964 0
M  V30 153 H 12.8539 -3.32272 -2.08177 0
M  V30 154 H 14.3439 -2.91933 -2.98605 0
M  V30 155 N 14.781 0.264519 -1.55364 0
M  V30 156 C 16.029 0.993021 -1.76021 0
M  V30 157 C 16.35 1.86511 -0.569099 0
M  V30 158 O 15.62 1.91438 0.415735 0
M  V30 159 H 14.2 0.369639 -0.649135 0
M  V30 160 H 16.862 0.286707 -1.9278 0
M  V30 161 H 15.958 1.62502 -2.66457 0
M  V30 162 N 16.2591 1.48442 0.529413 0
M  V30 163 C 17.1911 1.59095 1.64989 0
M  V30 164 C 18.2041 0.475212 1.5571 0
M  V30 165 O 19.3931 0.746081 1.6216 0
M  V30 166 C 16.4931 1.50518 3.0364 0
M  V30 167 C 15.6661 2.77142 3.38395 0
M  V30 168 C 14.7251 2.62012 4.56329 0
M  V30 169 O 13.7511 3.35898 4.59522 0
M  V30 170 N 14.9531 1.71667 5.54536 0
M  V30 171 H 17.7181 2.55723 1.56287 0
M  V30 172 H 15.2791 1.45173 0.716697 0
M  V30 173 H 17.2711 1.38091 3.80412 0
M  V30 174 H 15.8411 0.618627 3.06418 0
M  V30 175 H 15.0611 3.0413 2.50796 0
M  V30 176 H 16.3491 3.61146 3.58401 0
M  V30 177 H 15.7471 1.10841 5.54735 0
M  V30 178 H 14.3041 1.65178 6.30523 0
M  V30 179 N 17.7372 -0.778329 1.37039 0
M  V30 180 C 18.9852 -1.53361 1.31623 0
M  V30 181 C 19.3062 -1.94739 -0.100831 0
M  V30 182 O 18.5762 -1.65797 -1.04347 0
M  V30 183 H 17.1562 -0.568794 0.484234 0
M  V30 184 H 19.8182 -0.926742 1.71457 0
M  V30 185 H 18.9142 -2.43606 1.95096 0
M  V30 186 N 19.2153 -1.21501 -1.00376 0
M  V30 187 C 20.4643 -1.02718 -1.73586 0
M  V30 188 C 20.7773 0.439589 -1.90596 0
M  V30 189 O 21.9833 0.746848 -2.61026 0
M  V30 190 C 20.4393 -1.78929 -3.1227 0
M  V30 191 C 20.0473 -3.29783 -3.03228 0
M  V30 192 C 21.7913 -1.68557 -3.89601 0
M  V30 193 C 19.6983 -3.98479 -4.36999 0
M  V30 194 H 18.6283 -0.380733 -0.650814 0
M  V30 195 H 21.2793 -1.45248 -1.1214 0
M  V30 196 H 19.6613 -1.29192 -3.74333 0
M  V30 197 H 20.8353 -3.86832 -2.50395 0
M  V30 198 H 19.1503 -3.40711 -2.39385 0
M  V30 199 H 21.7473 -2.17211 -4.88593 0
M  V30 200 H 22.0903 -0.644021 -4.11288 0
M  V30 201 H 22.6233 -2.15778 -3.34193 0
M  V30 202 H 19.3623 -5.02841 -4.20513 0
M  V30 203 H 18.8823 -3.46219 -4.89788 0
M  V30 204 H 20.5613 -4.03462 -5.05794 0
M  V30 205 N 20.6934 1.19889 -1.02296 0
M  V30 206 C 21.9414 1.89046 -0.714558 0
M  V30 207 C 22.2624 1.79636 0.758681 0
M  V30 208 O 21.5324 1.20292 1.54618 0
M  V30 209 H 20.1124 0.699802 -0.261317 0
M  V30 210 H 22.7744 1.45574 -1.29592 0
M  V30 211 H 21.8704 2.95524 -1.0036 0
M  V30 212 N 22.1715 0.800033 1.35784 0
M  V30 213 C 23.1185 0.203848 2.29898 0
M  V30 214 C 24.0885 -0.658375 1.52495 0
M  V30 215 O 25.2735 -0.604832 1.8096 0
M  V30 216 C 22.4135 -0.64688 3.38983 0
M  V30 217 C 21.5265 0.235054 4.3136 0
M  V30 218 C 20.6615 -0.623054 5.27533 0
M  V30 219 C 19.7005 0.259682 6.11549 0
M  V30 220 N 18.8375 -0.558019 6.99879 0
M  V30 221 H 23.6775 1.01186 2.80295 0
M  V30 222 H 21.2145 0.51053 1.37957 0
M  V30 223 H 23.1725 -1.15521 4.00887 0
M  V30 224 H 21.8025 -1.42021 2.89879 0
M  V30 225 H 20.8545 0.861438 3.70518 0
M  V30 226 H 22.1665 0.914768 4.9034 0
M  V30 227 H 21.3205 -1.19678 5.94779 0
M  V30 228 H 20.0595 -1.33636 4.69034 0
M  V30 229 H 19.0645 0.845726 5.43256 0
M  V30 230 H 20.2895 0.970748 6.72126 0
M  V30 231 H 18.2355 -1.25542 6.43875 0
M  V30 232 H 18.1525 0.0637872 7.55973 0
M  V30 233 H 19.4205 -1.11523 7.71481 0
M  V30 234 N 23.6496 -1.47581 0.552962 0
M  V30 235 C 24.6126 -2.28439 -0.186605 0
M  V30 236 C 25.6126 -1.36706 -0.84665 0
M  V30 237 O 26.8026 -1.59378 -0.703164 0
M  V30 238 C 23.9346 -3.16264 -1.2724 0
M  V30 239 H 25.1276 -2.95294 0.523609 0
M  V30 240 H 22.6806 -1.532 0.309745 0
M  V30 241 H 23.4156 -2.54091 -2.01514 0
M  V30 242 H 23.2006 -3.83769 -0.803968 0
M  V30 243 H 24.6906 -3.77198 -1.79196 0
M  V30 244 N 25.1277 -0.289203 -1.54924 0
M  V30 245 C 26.3767 0.324231 -1.99077 0
M  V30 246 C 26.6897 1.5591 -1.18117 0
M  V30 247 O 27.8957 2.24637 -1.52481 0
M  V30 248 C 26.3517 0.628209 -3.54375 0
M  V30 249 C 25.9597 -0.587647 -4.44129 0
M  V30 250 C 27.7037 1.20349 -4.07083 0
M  V30 251 C 25.6107 -0.257475 -5.90839 0
M  V30 252 H 24.5407 0.124924 -0.743579 0
M  V30 253 H 27.1917 -0.396063 -1.79175 0
M  V30 254 H 25.5737 1.40778 -3.70132 0
M  V30 255 H 26.7477 -1.36418 -4.40144 0
M  V30 256 H 25.0627 -1.08074 -4.0213 0
M  V30 257 H 27.6597 1.46456 -5.14252 0
M  V30 258 H 28.0027 2.14195 -3.56968 0
M  V30 259 H 28.5357 0.485889 -3.94821 0
M  V30 260 H 25.2747 -1.16419 -6.45079 0
M  V30 261 H 24.7947 0.482018 -5.9786 0
M  V30 262 H 26.4737 0.145238 -6.46837 0
M  V30 263 N 26.6058 1.57591 -0.0167156 0
M  V30 264 C 27.5688 2.08393 0.954204 0
M  V30 265 C 28.5688 0.996531 1.26198 0
M  V30 266 O 29.7588 1.25858 1.20438 0
M  V30 267 C 26.8908 2.5394 2.27436 0
M  V30 268 H 28.0838 2.95455 0.514451 0
M  V30 269 H 25.6368 1.54582 0.231089 0
M  V30 270 H 26.3718 1.70171 2.76066 0
M  V30 271 H 26.1568 3.33371 2.06412 0
M  V30 272 H 27.6468 2.93512 2.97053 0
M  V30 273 N 28.0839 -0.256276 1.55502 0
M  V30 274 C 29.0139 -1.32102 1.92539 0
M  V30 275 C 29.9949 -1.50684 0.789194 0
M  V30 276 O 31.1799 -1.63449 1.04872 0
M  V30 277 C 28.3099 -2.67752 2.21192 0
M  V30 278 C 27.2639 -2.63878 3.36975 0
M  V30 279 C 26.5899 -4.03236 3.51147 0
M  V30 280 C 27.8899 -2.21682 4.72921 0
M  V30 281 H 29.5839 -1.01351 2.81724 0
M  V30 282 H 27.1299 -0.486105 1.35547 0
M  V30 283 H 29.0829 -3.42365 2.45691 0
M  V30 284 H 27.8069 -3.0012 1.28824 0
M  V30 285 H 26.4659 -1.91722 3.12471 0
M  V30 286 H 26.1139 -4.32854 2.56216 0
M  V30 287 H 25.8139 -4.01535 4.29003 0
M  V30 288 H 27.3379 -4.79563 3.77957 0
M  V30 289 H 28.7519 -2.86023 4.96854 0
M  V30 290 H 27.1489 -2.3111 5.53812 0
M  V30 291 H 28.2189 -1.16833 4.70615 0
M  V30 292 N 29.562 -1.4872 -0.521534 0
M  V30 293 C 30.978 -1.35028 -0.850855 0
M  V30 294 C 31.178 -0.367712 -1.98116 0
M  V30 295 O 30.234 0.208037 -2.51642 0
M  V30 296 C 31.547 -2.75263 -1.21041 0
M  V30 297 C 33.095 -2.83813 -1.31981 0
M  V30 298 C 33.57 -4.24769 -1.71276 0
M  V30 299 N 35.061 -4.27482 -1.78363 0
M  V30 300 C 35.796 -5.33494 -2.1017 0
M  V30 301 N 35.292 -6.49775 -2.40343 0
M  V30 302 N 37.085 -5.20894 -2.11248 0
M  V30 303 H 29.236 -2.11214 0.22413 0
M  V30 304 H 31.499 -0.947252 0.0376439 0
M  V30 305 H 31.205 -3.48765 -0.453415 0
M  V30 306 H 31.079 -3.09327 -2.15863 0
M  V30 307 H 33.466 -2.10561 -2.06756 0
M  V30 308 H 33.547 -2.53358 -0.352596 0
M  V30 309 H 33.191 -4.9854 -0.970588 0
M  V30 310 H 33.121 -4.52673 -2.69062 0
M  V30 311 H 35.612 -3.43611 -1.57288 0
M  V30 312 H 35.925 -7.26402 -2.63743 0
M  V30 313 H 34.27 -6.53035 -2.37844 0
M  V30 314 H 37.461 -4.29065 -1.87139 0
M  V30 315 H 37.634 -6.03612 -2.35704 0
M  V30 316 N 31.0401 0.771051 -1.3745 0
M  V30 317 C 31.9701 1.89827 -1.3597 0
M  V30 318 C 32.9511 1.68562 -0.228216 0
M  V30 319 O 34.1361 1.8941 -0.428675 0
M  V30 320 C 31.2661 3.2712 -1.16662 0
M  V30 321 C 30.2201 3.6295 -2.2683 0
M  V30 322 C 29.5461 4.98791 -1.92644 0
M  V30 323 C 30.8461 3.69627 -3.69017 0
M  V30 324 H 32.5401 1.91323 -2.30295 0
M  V30 325 H 30.0861 0.919082 -1.10855 0
M  V30 326 H 32.0391 4.05615 -1.14256 0
M  V30 327 H 30.7631 3.26059 -0.187926 0
M  V30 328 H 29.4221 2.86763 -2.28392 0
M  V30 329 H 29.0701 4.94271 -0.933021 0
M  V30 330 H 28.7701 5.23733 -2.66416 0
M  V30 331 H 30.2941 5.79685 -1.91826 0
M  V30 332 H 31.7081 4.38273 -3.69581 0
M  V30 333 H 30.1051 4.06067 -4.41848 0
M  V30 334 H 31.1751 2.70273 -4.02592 0
M  V30 335 N 32.5182 1.22032 0.997298 0
M  V30 336 C 33.7642 1.04376 1.73878 0
M  V30 337 C 34.0972 -0.420716 1.89588 0
M  V30 338 O 33.3722 -1.31202 1.43583 0
M  V30 339 C 33.6552 1.75047 3.14691 0
M  V30 340 C 33.5082 3.29062 3.06656 0
M  V30 341 C 34.8272 1.49928 4.13775 0
M  V30 342 H 31.9462 0.380578 0.631133 0
M  V30 343 H 34.5882 1.50312 1.16217 0
M  V30 344 H 32.7382 1.35996 3.63919 0
M  V30 345 H 34.4102 3.7753 2.65083 0
M  V30 346 H 32.6532 3.58967 2.43568 0
M  V30 347 H 33.3242 3.73683 4.06282 0
M  V30 348 H 35.8002 1.83842 3.73285 0
M  V30 349 H 34.6762 2.01878 5.10428 0
M  V30 350 H 34.9372 0.430929 4.39995 0
M  V30 351 N 33.9963 -1.19345 1.0293 0
M  V30 352 C 34.9433 -2.2258 0.610464 0
M  V30 353 C 35.9133 -1.6179 -0.375946 0
M  V30 354 O 37.0983 -1.88844 -0.272511 0
M  V30 355 C 34.2383 -3.45085 -0.0321473 0
M  V30 356 C 33.3513 -4.20258 1.00035 0
M  V30 357 C 32.4863 -5.3019 0.32746 0
M  V30 358 C 31.5253 -5.97121 1.34584 0
M  V30 359 N 30.6623 -6.98615 0.698726 0
M  V30 360 H 35.5023 -2.57764 1.49538 0
M  V30 361 H 33.0393 -1.26644 0.748311 0
M  V30 362 H 34.9973 -4.15061 -0.421966 0
M  V30 363 H 33.6273 -3.10555 -0.88064 0
M  V30 364 H 32.6793 -3.49223 1.50823 0
M  V30 365 H 33.9913 -4.66175 1.77433 0
M  V30 366 H 33.1453 -6.06587 -0.11718 0
M  V30 367 H 31.8843 -4.85345 -0.478713 0
M  V30 368 H 30.8893 -5.19474 1.80074 0
M  V30 369 H 32.1143 -6.4405 2.15352 0
M  V30 370 H 30.0603 -6.55942 -0.0873471 0
M  V30 371 H 29.9773 -7.42724 1.41058 0
M  V30 372 H 31.2453 -7.79004 0.278102 0
M  V30 373 N 35.4744 -0.807222 -1.35358 0
M  V30 374 C 36.7514 -0.311126 -1.9311 0
M  V30 375 C 37.1314 1.19937 -1.73719 0
M  V30 376 O 36.4794 1.99918 -1.10657 0
M  V30 377 C 36.6894 -0.723226 -3.41424 0
M  V30 378 C 38.0374 -0.713078 -4.18569 0
M  V30 379 O 39.0614 -0.664811 -3.49941 0
M  V30 380 O 37.9204 -0.772022 -5.41019 0
M  V30 381 H 35.0144 -0.081526 -0.822972 0
M  V30 382 H 37.5604 -0.890962 -1.4443 0
M  V30 383 H 36.3324 -1.76426 -3.4927 0
M  V30 384 H 35.9554 -0.118232 -3.97424 0
M  V30 385 N 36.9525 1.47285 -0.560781 0
M  V30 386 C 38.2005 2.02064 -0.0379868 0
M  V30 387 C 38.5215 1.43711 1.31803 0
M  V30 388 O 37.7915 0.61362 1.86042 0
M  V30 389 H 36.3715 0.746918 -0.0110531 0
M  V30 390 H 39.0335 1.80648 -0.731598 0
M  V30 391 H 38.1295 3.12064 0.0474463 0
M  V30 392 N 38.4306 0.297415 1.54768 0
M  V30 393 C 39.6776 -0.312913 2.00068 0
M  V30 394 C 40.0056 -1.54171 1.18582 0
M  V30 395 O 39.2606 -1.94108 0.249133 0
M  V30 396 C 39.5596 -0.717561 3.50123 0
M  V30 397 C 39.2256 0.409095 4.4904 0
M  V30 398 C 37.8876 0.718399 4.75807 0
M  V30 399 C 40.2396 1.16717 5.07963 0
M  V30 400 C 37.5676 1.78896 5.5876 0
M  V30 401 C 39.9196 2.22762 5.92081 0
M  V30 402 C 38.5836 2.54303 6.1716 0
M  V30 403 H 37.8536 -0.114503 0.7321 0
M  V30 404 H 40.5006 0.415767 1.86932 0
M  V30 405 H 38.8056 -1.52627 3.60849 0
M  V30 406 H 40.5026 -1.20091 3.82595 0
M  V30 407 H 37.0926 0.157918 4.28309 0
M  V30 408 H 41.2766 0.941466 4.87289 0
M  V30 409 H 36.5326 2.0381 5.7643 0
M  V30 410 H 40.7066 2.81962 6.36765 0
M  V30 411 H 38.3336 3.3739 6.81229 0
M  V30 412 N 39.9087 -1.5758 0.0250728 0
M  V30 413 C 40.8717 -2.08896 -0.943139 0
M  V30 414 C 41.8717 -1.00321 -1.25668 0
M  V30 415 O 43.0617 -1.26495 -1.19769 0
M  V30 416 C 40.1937 -2.55143 -2.26086 0
M  V30 417 H 41.3867 -2.95723 -0.498775 0
M  V30 418 H 38.9397 -1.54703 -0.222888 0
M  V30 419 H 39.6747 -1.71633 -2.75159 0
M  V30 420 H 39.4597 -3.34461 -2.04641 0
M  V30 421 H 40.9497 -2.95083 -2.95492 0
M  V30 422 N 41.3868 0.248026 -1.55636 0
M  V30 423 C 42.6328 0.97767 -1.77678 0
M  V30 424 C 42.9658 1.85016 -0.590135 0
M  V30 425 O 42.2408 1.90095 0.411611 0
M  V30 426 C 42.5238 1.83914 -3.09593 0
M  V30 427 C 42.3768 0.99491 -4.38659 0
M  V30 428 C 43.6958 2.82183 -3.37729 0
M  V30 429 H 40.8148 0.354005 -0.646413 0
M  V30 430 H 43.4568 0.248253 -1.88371 0
M  V30 431 H 41.6068 2.46104 -3.00608 0
M  V30 432 H 43.2788 0.391789 -4.59633 0
M  V30 433 H 41.5218 0.299231 -4.32767 0
M  V30 434 H 42.1928 1.63145 -5.2734 0
M  V30 435 H 44.6688 2.30129 -3.4667 0
M  V30 436 H 43.5448 3.39582 -4.31249 0
M  V30 437 H 43.8058 3.58588 -2.58586 0
M  V30 438 N 42.8649 1.48995 0.513639 0
M  V30 439 C 43.8279 1.64229 1.59879 0
M  V30 440 C 44.8279 0.514696 1.5234 0
M  V30 441 O 46.0179 0.78087 1.55718 0
M  V30 442 C 43.1499 1.62783 2.99524 0
M  V30 443 H 44.3429 2.61004 1.47705 0
M  V30 444 H 41.8959 1.37837 0.736936 0
M  V30 445 H 42.6309 0.675461 3.17188 0
M  V30 446 H 42.4159 2.4466 3.06404 0
M  V30 447 H 43.9059 1.76669 3.78388 0
M  V30 448 N 44.343 -0.763751 1.37857 0
M  V30 449 C 45.592 -1.51789 1.32827 0
M  V30 450 C 45.905 -1.95426 -0.0823719 0
M  V30 451 O 47.111 -2.70298 -0.255172 0
M  V30 452 C 45.567 -2.74133 2.33193 0
M  V30 453 C 45.175 -2.37562 3.79827 0
M  V30 454 C 46.919 -3.52054 2.37188 0
M  V30 455 C 44.826 -3.56456 4.71904 0
M  V30 456 H 43.756 -0.569896 0.493695 0
M  V30 457 H 46.407 -0.835822 1.63359 0
M  V30 458 H 44.789 -3.4427 1.9569 0
M  V30 459 H 45.963 -1.75157 4.26212 0
M  V30 460 H 44.278 -1.72798 3.78853 0
M  V30 461 H 46.875 -4.40437 3.03182 0
M  V30 462 H 47.218 -3.92486 1.38782 0
M  V30 463 H 47.751 -2.88921 2.7344 0
M  V30 464 H 44.49 -3.21099 5.71468 0
M  V30 465 H 44.01 -4.17938 4.30218 0
M  V30 466 H 45.689 -4.23168 4.89426 0
M  V30 467 N 45.8211 -1.22559 -0.990812 0
M  V30 468 C 46.7841 -0.998863 -2.0629 0
M  V30 469 C 47.7841 0.0354834 -1.60761 0
M  V30 470 O 48.9741 -0.203231 -1.7301 0
M  V30 471 C 46.1061 -0.509203 -3.37076 0
M  V30 472 H 47.2991 -1.95014 -2.27837 0
M  V30 473 H 44.8521 -1.04456 -1.16269 0
M  V30 474 H 45.5871 0.446335 -3.21214 0
M  V30 475 H 45.3721 -1.25547 -3.71457 0
M  V30 476 H 46.8621 -0.370888 -4.1595 0
M  V30 477 N 47.2992 1.18797 -1.03562 0
M  V30 478 C 48.5762 1.84469 -0.650434 0
M  V30 479 C 48.9562 1.92319 0.870433 0
M  V30 480 O 48.3042 1.44528 1.76986 0
M  V30 481 C 48.5142 3.2306 -1.32036 0
M  V30 482 C 49.8622 3.9915 -1.44792 0
M  V30 483 O 50.8862 3.32481 -1.27806 0
M  V30 484 O 49.7452 5.18587 -1.72423 0
M  V30 485 H 46.8392 0.795251 -0.226946 0
M  V30 486 H 49.3852 1.26231 -1.13419 0
M  V30 487 H 48.1572 3.1222 -2.3587 0
M  V30 488 H 47.7802 3.88949 -0.8249 0
M  V30 489 N 48.7773 0.814389 1.34928 0
M  V30 490 C 50.0073 0.41054 2.0248 0
M  V30 491 C 50.4153 -0.985625 1.61499 0
M  V30 492 O 49.7583 -1.64781 0.811976 0
M  V30 493 C 49.8203 0.423384 3.56998 0
M  V30 494 C 49.4843 1.77141 4.21272 0
M  V30 495 C 50.4813 2.73093 4.42398 0
M  V30 496 C 48.1663 2.05755 4.58225 0
M  V30 497 C 50.1603 3.95838 4.9959 0
M  V30 498 C 47.8473 3.28762 5.1513 0
M  V30 499 C 48.8453 4.23621 5.35755 0
M  V30 500 O 48.5333 5.44456 5.91458 0
M  V30 501 H 48.2653 0.163997 0.655806 0
M  V30 502 H 50.8193 1.10155 1.73364 0
M  V30 503 H 49.0493 -0.324276 3.85338 0
M  V30 504 H 50.7383 0.0407683 4.0588 0
M  V30 505 H 51.5043 2.5228 4.14222 0
M  V30 506 H 47.3833 1.32727 4.4148 0
M  V30 507 H 50.9273 4.69891 5.15605 0
M  V30 508 H 46.8243 3.49443 5.42734 0
M  V30 509 H 47.5923 5.4586 6.09901 0
M  V30 510 N 50.2554 -1.46986 0.568584 0
M  V30 511 C 51.2034 -2.31858 -0.185649 0
M  V30 512 C 52.1974 -1.43624 -0.898249 0
M  V30 513 O 53.4034 -1.60327 -0.818242 0
M  V30 514 H 49.7784 -0.747866 -0.0787399 0
M  V30 515 H 51.7494 -2.93303 0.549191 0
M  V30 516 C 50.4984 -3.26513 -1.19519 0
M  V30 517 H 49.8214 -3.94377 -0.656285 0
M  V30 518 H 51.2614 -3.88707 -1.6936 0
M  V30 519 C 49.7204 -2.50847 -2.24894 0
M  V30 520 O 50.2504 -2.26119 -3.32014 0
M  V30 521 N 48.4564 -2.11656 -1.99124 0
M  V30 522 H 48.0034 -2.31966 -1.12024 0
M  V30 523 H 47.9614 -1.61347 -2.69842 0
M  V30 524 N 51.7335 -0.305618 -1.54608 0
M  V30 525 C 53.0105 0.355652 -1.92339 0
M  V30 526 C 53.3905 1.71324 -1.23335 0
M  V30 527 O 52.7385 2.25473 -0.370702 0
M  V30 528 C 52.9485 0.46572 -3.45879 0
M  V30 529 C 54.2965 0.734426 -4.182 0
M  V30 530 O 55.3205 0.54935 -3.51938 0
M  V30 531 O 54.1795 1.09024 -5.35515 0
M  V30 532 H 51.2735 0.199666 -0.802535 0
M  V30 533 H 53.8195 -0.354017 -1.65966 0
M  V30 534 H 52.5915 -0.488461 -3.88239 0
M  V30 535 H 52.2145 1.22367 -3.78301 0
M  V30 536 N 53.2116 1.57565 -0.0334293 0
M  V30 537 C 54.1746 2.09393 0.932048 0
M  V30 538 C 55.1746 1.00986 1.25134 0
M  V30 539 O 56.3646 1.27129 1.19096 0
M  V30 540 C 53.4966 2.56338 2.2473 0
M  V30 541 H 54.6896 2.95984 0.483085 0
M  V30 542 H 52.2426 1.54819 0.21468 0
M  V30 543 H 52.9776 1.7309 2.74245 0
M  V30 544 H 52.7626 3.35542 2.02865 0
M  V30 545 H 54.2526 2.96646 2.93923 0
M  V30 546 N 54.6897 -0.239769 1.55765 0
M  V30 547 C 55.9177 -0.98417 1.81994 0
M  V30 548 C 56.3327 -1.7867 0.610124 0
M  V30 549 O 55.6897 -1.77571 -0.421271 0
M  V30 550 C 55.7407 -1.91635 3.06526 0
M  V30 551 O 55.4617 -1.14629 4.22838 0
M  V30 552 C 56.9627 -2.77616 3.45607 0
M  V30 553 H 54.1827 -0.28928 0.605441 0
M  V30 554 H 56.7267 -0.260499 2.02834 0
M  V30 555 H 54.8817 -2.5942 2.87715 0
M  V30 556 H 55.2957 -1.77745 4.93464 0
M  V30 557 H 56.7697 -3.38759 4.35828 0
M  V30 558 H 57.2467 -3.4909 2.6652 0
M  V30 559 H 57.8527 -2.15271 3.66795 0
M  V30 560 N 56.1678 -1.49265 -0.50573 0
M  V30 561 C 57.1308 -1.65075 -1.59006 0
M  V30 562 C 58.1308 -0.522768 -1.52065 0
M  V30 563 O 59.3208 -0.789117 -1.55302 0
M  V30 564 C 56.4528 -1.64369 -2.98656 0
M  V30 565 H 57.6458 -2.61784 -1.46319 0
M  V30 566 H 55.1988 -1.38226 -0.729616 0
M  V30 567 H 55.9338 -0.692272 -3.16825 0
M  V30 568 H 55.7188 -2.46282 -3.05103 0
M  V30 569 H 57.2088 -1.78674 -3.77446 0
M  V30 570 N 57.6459 0.756429 -1.3826 0
M  V30 571 C 58.5929 1.87011 -1.35261 0
M  V30 572 C 59.5629 1.64695 -0.215616 0
M  V30 573 O 60.7479 1.864 -0.407399 0
M  V30 574 C 57.8879 3.24275 -1.18068 0
M  V30 575 C 57.0009 3.58442 -2.41129 0
M  V30 576 C 56.1359 4.84994 -2.16689 0
M  V30 577 C 55.1749 5.11939 -3.35537 0
M  V30 578 N 54.3119 6.29685 -3.10549 0
M  V30 579 H 59.1519 1.8891 -2.30472 0
M  V30 580 H 56.6889 0.923373 -1.14509 0
M  V30 581 H 58.6469 4.03479 -1.06116 0
M  V30 582 H 57.2769 3.21711 -0.264973 0
M  V30 583 H 56.3289 2.74103 -2.63764 0
M  V30 584 H 57.6409 3.74283 -3.29717 0
M  V30 585 H 56.7949 5.72135 -2.01857 0
M  V30 586 H 55.5339 4.71286 -1.25462 0
M  V30 587 H 54.5389 4.23268 -3.50891 0
M  V30 588 H 55.7639 5.27546 -4.27635 0
M  V30 589 H 53.7099 6.17306 -2.21967 0
M  V30 590 H 53.6269 6.46014 -3.92686 0
M  V30 591 H 54.8949 7.19722 -2.99367 0
M  V30 592 N 59.124 1.23083 0.984299 0
M  V30 593 C 60.087 1.00979 2.05757 0
M  V30 594 C 61.087 -0.0269573 1.60777 0
M  V30 595 O 62.277 0.212403 1.729 0
M  V30 596 C 59.409 0.527072 3.36801 0
M  V30 597 H 60.602 1.9622 2.26799 0
M  V30 598 H 58.155 1.05072 1.15714 0
M  V30 599 H 58.89 -0.429294 3.21446 0
M  V30 600 H 58.675 1.27515 3.70786 0
M  V30 601 H 60.165 0.392942 4.15747 0
M  V30 602 N 60.6021 -1.18246 1.0419 0
M  V30 603 C 61.8481 -1.88536 0.747122 0
M  V30 604 C 62.1811 -1.80223 -0.723409 0
M  V30 605 O 61.4561 -1.20337 -1.52804 0
M  V30 606 C 61.7391 -3.38968 1.21544 0
M  V30 607 C 61.5921 -3.56084 2.74816 0
M  V30 608 C 62.9111 -4.32648 0.806482 0
M  V30 609 H 60.0301 -0.684619 0.272883 0
M  V30 610 H 62.6721 -1.39113 1.29413 0
M  V30 611 H 60.8221 -3.8119 0.750081 0
M  V30 612 H 62.4941 -3.22946 3.29399 0
M  V30 613 H 60.7371 -2.98699 3.14582 0
M  V30 614 H 61.4081 -4.61639 3.02644 0
M  V30 615 H 63.8841 -3.98211 1.20695 0
M  V30 616 H 62.7601 -5.36462 1.1619 0
M  V30 617 H 63.0211 -4.41146 -0.29029 0
M  V30 618 N 62.0802 -0.821533 -1.34494 0
M  V30 619 C 63.0432 -0.247847 -2.27856 0
M  V30 620 C 64.0432 0.573453 -1.50227 0
M  V30 621 O 65.2332 0.389759 -1.69784 0
M  V30 622 C 62.3652 0.652698 -3.34593 0
M  V30 623 H 63.5582 -1.07146 -2.80107 0
M  V30 624 H 61.1112 -0.593291 -1.44602 0
M  V30 625 H 61.8462 1.49943 -2.87555 0
M  V30 626 H 61.6312 0.065292 -3.92046 0
M  V30 627 H 63.1212 1.04793 -4.04238 0
M  V30 628 N 63.5583 1.46682 -0.576371 0
M  V30 629 C 64.7833 2.07304 -0.0630475 0
M  V30 630 C 65.2083 1.42329 1.2298 0
M  V30 631 O 64.5663 0.504865 1.74129 0
M  V30 632 C 64.6143 3.60472 0.095895 0
M  V30 633 O 63.7183 3.95927 1.15394 0
M  V30 634 H 63.0593 0.661288 -0.0599463 0
M  V30 635 H 65.5893 1.88417 -0.797511 0
M  V30 636 H 65.5993 4.06865 0.304071 0
M  V30 637 H 64.2743 4.07157 -0.84828 0
M  V30 638 H 62.8513 3.61252 0.924724 0
M  V30 639 N 65.0364 0.313813 1.54444 0
M  V30 640 C 65.9464 -0.565714 2.27677 0
M  V30 641 C 66.9624 -1.13754 1.31666 0
M  V30 642 O 68.1384 -1.15959 1.64668 0
M  V30 643 C 65.2034 -1.71528 3.01296 0
M  V30 644 C 64.2644 -1.17624 4.12872 0
M  V30 645 C 63.4974 -2.27102 4.8297 0
M  V30 646 O 63.7204 -3.47256 4.52514 0
M  V30 647 O 62.6544 -1.9307 5.70094 0
M  V30 648 H 66.4804 0.0287296 3.03686 0
M  V30 649 H 64.0654 0.0798312 1.49187 0
M  V30 650 H 65.9474 -2.38476 3.4743 0
M  V30 651 H 64.6224 -2.29608 2.2817 0
M  V30 652 H 63.5294 -0.472124 3.71109 0
M  V30 653 H 64.8624 -0.640695 4.88012 0
M  V30 654 N 66.5145 -1.57545 0.0417849 0
M  V30 655 C 67.7635 -1.91494 -0.633492 0
M  V30 656 C 68.0765 -0.921084 -1.72556 0
M  V30 657 O 69.2825 -1.15228 -2.45835 0
M  V30 658 C 67.7385 -3.40072 -1.17808 0
M  V30 659 C 67.3465 -4.47843 -0.118633 0
M  V30 660 C 69.0905 -3.8307 -1.82915 0
M  V30 661 C 66.9975 -5.87529 -0.675578 0
M  V30 662 H 65.9275 -0.714653 -0.24039 0
M  V30 663 H 68.5785 -1.83175 0.109148 0
M  V30 664 H 66.9605 -3.43364 -1.97274 0
M  V30 665 H 68.1345 -4.56128 0.654494 0
M  V30 666 H 66.4495 -4.14128 0.434414 0
M  V30 667 H 69.0465 -4.84794 -2.25563 0
M  V30 668 H 69.3895 -3.1881 -2.67705 0
M  V30 669 H 69.9225 -3.82255 -1.10119 0
M  V30 670 H 66.6615 -6.55362 0.134475 0
M  V30 671 H 66.1815 -5.82824 -1.4169 0
M  V30 672 H 67.8605 -6.36491 -1.1614 0
M  V30 673 N 67.9926 0.231505 -1.5589 0
M  V30 674 C 68.9406 1.30649 -1.92441 0
M  V30 675 C 69.9346 1.49037 -0.805254 0
M  V30 676 O 71.1406 1.50329 -0.990007 0
M  V30 677 H 67.5156 0.437812 -0.611412 0
M  V30 678 H 69.4866 0.970973 -2.82161 0
M  V30 679 C 68.2356 2.65179 -2.24889 0
M  V30 680 H 67.5586 2.51835 -3.10514 0
M  V30 681 H 68.9986 3.39234 -2.54355 0
M  V30 682 C 67.4576 3.19439 -1.07054 0
M  V30 683 O 67.9876 4.00371 -0.326499 0
M  V30 684 N 66.1936 2.77675 -0.85703 0
M  V30 685 H 65.7406 2.11969 -1.46379 0
M  V30 686 H 65.6986 3.14321 -0.0703223 0
M  V30 687 N 69.4707 1.49531 0.497807 0
M  V30 688 C 70.4027 1.62559 1.61578 0
M  V30 689 C 71.4157 0.508134 1.54667 0
M  V30 690 O 72.6047 0.780309 1.60541 0
M  V30 691 C 69.7047 1.56925 3.00379 0
M  V30 692 C 68.8777 2.84257 3.3244 0
M  V30 693 C 67.9367 2.71632 4.50669 0
M  V30 694 O 66.9627 3.4557 4.52294 0
M  V30 695 N 68.1647 1.83391 5.5077 0
M  V30 696 H 70.9297 2.58981 1.50828 0
M  V30 697 H 68.4907 1.4666 0.685743 0
M  V30 698 H 70.4827 1.46129 3.77397 0
M  V30 699 H 69.0527 0.683483 3.05037 0
M  V30 700 H 68.2727 3.09381 2.44289 0
M  V30 701 H 69.5607 3.68666 3.5066 0
M  V30 702 H 68.9587 1.22583 5.52259 0
M  V30 703 H 67.5157 1.78515 6.26878 0
M  V30 704 N 70.9488 -0.749086 1.3866 0
M  V30 705 C 71.9118 -1.84457 1.36045 0
M  V30 706 C 72.9118 -1.58682 0.260122 0
M  V30 707 O 74.1018 -1.66343 0.517261 0
M  V30 708 C 71.2338 -3.22008 1.11911 0
M  V30 709 H 72.4268 -1.88182 2.33512 0
M  V30 710 H 69.9798 -0.951266 1.24019 0
M  V30 711 H 70.7148 -3.2395 0.150686 0
M  V30 712 H 70.4998 -3.42111 1.91579 0
M  V30 713 H 71.9898 -4.0208 1.12788 0
M  V30 714 N 72.4269 -1.23603 -0.977757 0
M  V30 715 C 73.6749 -1.06759 -1.71601 0
M  V30 716 C 73.9959 0.395929 -1.90938 0
M  V30 717 O 73.2659 1.28356 -1.47992 0
M  V30 718 H 71.8459 -0.392062 -0.635843 0
M  V30 719 H 74.5079 -1.55362 -1.1768 0
M  V30 720 H 73.6039 -1.55763 -2.70452 0
M  V30 721 N 73.905 1.17692 -1.04816 0
M  V30 722 C 75.153 1.87488 -0.754497 0
M  V30 723 C 75.474 1.81205 0.720407 0
M  V30 724 O 74.744 1.23544 1.52032 0
M  V30 725 H 73.324 0.694101 -0.276102 0
M  V30 726 H 75.986 1.42793 -1.32651 0
M  V30 727 H 75.082 2.93328 -1.06606 0
M  V30 728 N 75.3831 0.828654 1.34056 0
M  V30 729 C 76.7991 0.515135 1.51058 0
M  V30 730 C 76.9991 -0.959581 1.77184 0
M  V30 731 O 76.0551 -1.74382 1.82612 0
M  V30 732 C 77.3681 1.37963 2.67183 0
M  V30 733 C 78.9161 1.37735 2.81066 0
M  V30 734 C 79.3911 2.22645 4.00241 0
M  V30 735 N 80.8821 2.203 4.07458 0
M  V30 736 C 81.6171 2.82744 4.98842 0
M  V30 737 N 81.1131 3.54201 5.9541 0
M  V30 738 N 82.9061 2.72268 4.91759 0
M  V30 739 H 75.0571 1.78343 1.15358 0
M  V30 740 H 77.3201 0.760304 0.566252 0
M  V30 741 H 77.0261 2.42714 2.54525 0
M  V30 742 H 76.9001 1.0484 3.62338 0
M  V30 743 H 79.2871 0.337593 2.93163 0
M  V30 744 H 79.3681 1.74859 1.86703 0
M  V30 745 H 79.0121 3.26674 3.88905 0
M  V30 746 H 78.9421 1.82869 4.93829 0
M  V30 747 H 81.4331 1.68327 3.38341 0
M  V30 748 H 81.7461 3.9908 6.61782 0
M  V30 749 H 80.0911 3.58308 5.95517 0
M  V30 750 H 83.2821 2.16014 4.15278 0
M  V30 751 H 83.4551 3.21219 5.62781 0
M  V30 752 N 76.8612 -1.46375 0.584142 0
M  V30 753 C 77.8242 -2.28784 -0.138108 0
M  V30 754 C 78.8242 -1.38471 -0.817462 0
M  V30 755 O 80.0142 -1.60833 -0.669199 0
M  V30 756 C 77.1462 -3.18892 -1.20503 0
M  V30 757 H 78.3392 -2.94117 0.586127 0
M  V30 758 H 75.8922 -1.52509 0.342171 0
M  V30 759 H 76.6272 -2.58309 -1.96079 0
M  V30 760 H 76.4122 -3.85388 -0.722384 0
M  V30 761 H 77.9022 -3.80914 -1.71155 0
M  V30 762 N 78.3393 -0.321999 -1.54275 0
M  V30 763 C 79.2723 0.58718 -2.20516 0
M  V30 764 C 80.2503 1.11693 -1.18167 0
M  V30 765 O 81.4343 1.18122 -1.46899 0
M  V30 766 C 78.5613 1.80554 -2.86562 0
M  V30 767 C 77.6073 1.40718 -4.02617 0
M  V30 768 S 78.4403 0.445218 -5.33646 0
M  V30 769 C 79.5963 1.6709 -6.03185 0
M  V30 770 H 79.8293 0.0244875 -2.9729 0
M  V30 771 H 77.3623 -0.106087 -1.54035 0
M  V30 772 H 79.3203 2.50462 -3.25237 0
M  V30 773 H 77.9813 2.33942 -2.09595 0
M  V30 774 H 77.1743 2.31501 -4.47687 0
M  V30 775 H 76.7763 0.78782 -3.65608 0
M  V30 776 H 79.0683 2.60856 -6.25268 0
M  V30 777 H 80.0113 1.26239 -6.96756 0
M  V30 778 H 80.4193 1.85716 -5.33076 0
M  V30 779 N 79.8174 1.5752 -0.0501392 0
M  V30 780 C 80.7804 2.1037 0.909786 0
M  V30 781 C 81.7804 1.02308 1.24056 0
M  V30 782 O 82.9704 1.28385 1.17741 0
M  V30 783 C 80.1024 2.58708 2.21998 0
M  V30 784 H 81.2954 2.96479 0.451665 0
M  V30 785 H 78.8484 1.55038 0.198248 0
M  V30 786 H 79.5834 1.75989 2.72394 0
M  V30 787 H 79.3684 3.37675 1.99295 0
M  V30 788 H 80.8584 2.99747 2.9076 0
M  V30 789 N 81.2955 -0.223234 1.56011 0
M  V30 790 C 82.5415 -0.949279 1.79211 0
M  V30 791 C 82.8745 -1.84054 0.619494 0
M  V30 792 O 82.1495 -1.90726 -0.381317 0
M  V30 793 C 82.4325 -1.78965 3.12479 0
M  V30 794 C 82.2855 -0.924997 4.40186 0
M  V30 795 C 83.6045 -2.76774 3.42175 0
M  V30 796 H 80.7235 -0.343676 0.651963 0
M  V30 797 H 83.3655 -0.218253 1.88742 0
M  V30 798 H 81.5155 -2.41291 3.04485 0
M  V30 799 H 83.1875 -0.318615 4.60198 0
M  V30 800 H 81.4305 -0.230344 4.33188 0
M  V30 801 H 82.1015 -1.54735 5.29869 0
M  V30 802 H 84.5775 -2.24584 3.50287 0
M  V30 803 H 83.4535 -3.32678 4.36597 0
M  V30 804 H 83.7145 -3.54429 2.64258 0
M  V30 805 N 82.7736 -1.49793 -0.48987 0
M  V30 806 C 83.7206 -1.67281 -1.59014 0
M  V30 807 C 84.6906 -0.514177 -1.57941 0
M  V30 808 O 85.8756 -0.742533 -1.75759 0
M  V30 809 C 83.0156 -1.75569 -2.97102 0
M  V30 810 C 82.1286 -3.0281 -3.08107 0
M  V30 811 C 81.2636 -3.02008 -4.36995 0
M  V30 812 C 80.3026 -4.23782 -4.41673 0
M  V30 813 N 79.4396 -4.20826 -5.62005 0
M  V30 814 H 84.2796 -2.61224 -1.43409 0
M  V30 815 H 81.8166 -1.29508 -0.697565 0
M  V30 816 H 83.7746 -1.78354 -3.77155 0
M  V30 817 H 82.4046 -0.850827 -3.11385 0
M  V30 818 H 81.4566 -3.09584 -2.21047 0
M  V30 819 H 82.7686 -3.92801 -3.07423 0
M  V30 820 H 81.9226 -3.03418 -5.25378 0
M  V30 821 H 80.6616 -2.09815 -4.4026 0
M  V30 822 H 79.6666 -4.22604 -3.5169 0
M  V30 823 H 80.8916 -5.17181 -4.40115 0
M  V30 824 H 78.8376 -3.31476 -5.66091 0
M  V30 825 H 78.7546 -5.04564 -5.62984 0
M  V30 826 H 80.0226 -4.26355 -6.52565 0
M  V30 827 N 84.2517 0.741722 -1.39055 0
M  V30 828 C 85.4977 1.50336 -1.36113 0
M  V30 829 C 85.8307 1.94148 0.0450796 0
M  V30 830 O 85.1057 1.66301 1.00868 0
M  V30 831 C 85.3887 2.74773 -2.32749 0
M  V30 832 C 85.2417 2.37023 -3.82283 0
M  V30 833 C 86.5607 3.76846 -2.27322 0
M  V30 834 H 83.6797 0.545351 -0.495743 0
M  V30 835 H 86.3217 0.848624 -1.69995 0
M  V30 836 H 84.4717 3.30639 -2.03986 0
M  V30 837 H 86.1437 1.8684 -4.21768 0
M  V30 838 H 84.3867 1.69334 -3.99385 0
M  V30 839 H 85.0577 3.26104 -4.45376 0
M  V30 840 H 87.5337 3.30548 -2.5274 0
M  V30 841 H 86.4097 4.6159 -2.97028 0
M  V30 842 H 86.6707 4.23286 -1.27599 0
M  V30 843 N 85.7298 1.2412 0.971189 0
M  V30 844 C 87.0068 0.986867 1.6888 0
M  V30 845 C 87.3868 -0.491857 2.0529 0
M  V30 846 O 86.7348 -1.46531 1.75331 0
M  V30 847 C 86.9448 1.9063 2.92338 0
M  V30 848 C 88.2928 2.17515 3.64654 0
M  V30 849 O 89.3168 1.88254 3.02388 0
M  V30 850 O 88.1758 2.6719 4.7673 0
M  V30 851 H 85.2698 0.372944 0.738134 0
M  V30 852 H 87.8158 1.35203 1.02559 0
M  V30 853 H 86.5878 2.90552 2.62097 0
M  V30 854 H 86.2108 1.54408 3.66393 0
M  V30 855 N 87.2079 -1.17134 1.05439 0
M  V30 856 C 88.4539 -1.87733 0.767077 0
M  V30 857 C 88.7869 -1.8098 -0.704253 0
M  V30 858 O 88.0619 -1.21951 -1.5152 0
M  V30 859 C 88.3449 -3.37659 1.25133 0
M  V30 860 C 88.1979 -3.53149 2.78578 0
M  V30 861 C 89.5169 -4.31768 0.852324 0
M  V30 862 H 86.6359 -0.681687 0.280129 0
M  V30 863 H 89.2779 -1.37732 1.30881 0
M  V30 864 H 87.4279 -3.80373 0.790469 0
M  V30 865 H 89.0999 -3.19434 3.32806 0
M  V30 866 H 87.3429 -2.95345 3.17732 0
M  V30 867 H 88.0139 -4.58403 3.07523 0
M  V30 868 H 90.4899 -3.96909 1.24911 0
M  V30 869 H 89.3659 -5.35199 1.21873 0
M  V30 870 H 89.6269 -4.41429 -0.243485 0
M  V30 871 N 88.686 -0.835752 -1.33615 0
M  V30 872 C 89.911 -0.442389 -2.02627 0
M  V30 873 C 90.336 0.947735 -1.62479 0
M  V30 874 O 89.694 1.61907 -0.815826 0
M  V30 875 C 89.742 -0.567216 -3.56111 0
M  V30 876 O 88.846 0.407799 -4.10379 0
M  V30 877 H 88.187 -0.180278 -0.639059 0
M  V30 878 H 90.717 -1.12972 -1.70583 0
M  V30 879 H 90.727 -0.447708 -4.05536 0
M  V30 880 H 89.402 -1.58103 -3.84677 0
M  V30 881 H 87.979 0.246107 -3.72087 0
M  V30 882 N 90.1641 1.46063 -0.591896 0
M  V30 883 C 91.4411 1.95595 -0.0137119 0
M  V30 884 C 91.8211 1.5345 1.4497 0
M  V30 885 O 91.1691 0.789543 2.14426 0
M  V30 886 C 91.3791 3.48453 -0.195373 0
M  V30 887 C 92.7271 4.24546 -0.0679765 0
M  V30 888 O 93.7511 3.55982 -0.124681 0
M  V30 889 O 92.6101 5.46467 0.0600579 0
M  V30 890 H 89.7041 0.825795 0.0446279 0
M  V30 891 H 92.2501 1.56303 -0.660859 0
M  V30 892 H 91.0221 3.72045 -1.21235 0
M  V30 893 H 90.6451 3.94597 0.487775 0
M  V30 894 N 91.6422 0.330177 1.54103 0
M  V30 895 C 93.0582 -0.0222371 1.59585 0
M  V30 896 C 93.2582 -1.49902 1.34654 0
M  V30 897 O 92.3142 -2.25592 1.13421 0
M  V30 898 C 93.6272 0.401932 2.98002 0
M  V30 899 C 95.1752 0.353145 3.11001 0
M  V30 900 C 95.6502 0.752576 4.51775 0
M  V30 901 N 97.1412 0.706239 4.57784 0
M  V30 902 C 97.8762 0.987417 5.64834 0
M  V30 903 N 97.3722 1.33607 6.79795 0
M  V30 904 N 99.1652 0.91254 5.54643 0
M  V30 905 H 91.3162 1.29228 1.68564 0
M  V30 906 H 93.5792 0.525906 0.78875 0
M  V30 907 H 93.2852 1.4311 3.21267 0
M  V30 908 H 93.1592 -0.229699 3.765 0
M  V30 909 H 95.5462 -0.666822 2.87467 0
M  V30 910 H 95.6272 1.0198 2.34593 0
M  V30 911 H 95.2712 1.77049 4.76042 0
M  V30 912 H 95.2012 0.0635409 5.26562 0
M  V30 913 H 97.6922 0.44889 3.75224 0
M  V30 914 H 98.0052 1.53582 7.57385 0
M  V30 915 H 96.3502 1.37439 6.81275 0
M  V30 916 H 99.5412 0.639601 4.6371 0
M  V30 917 H 99.7142 1.13503 6.37982 0
M  V30 918 N 93.1203 -1.57491 0.0584922 0
M  V30 919 C 94.3973 -1.84346 -0.653918 0
M  V30 920 C 94.7773 -0.948355 -1.88599 0
M  V30 921 O 94.1253 -0.0112403 -2.28497 0
M  V30 922 C 94.3353 -3.34239 -1.00425 0
M  V30 923 C 95.6833 -4.01431 -1.38342 0
M  V30 924 O 96.7073 -3.38907 -1.09637 0
M  V30 925 O 95.5663 -5.11683 -1.91943 0
M  V30 926 H 92.6603 -0.761112 -0.323478 0
M  V30 927 H 95.2063 -1.6947 0.0884125 0
M  V30 928 H 93.9783 -3.91089 -0.128625 0
M  V30 929 H 93.6013 -3.54329 -1.80378 0
M  V30 930 N 94.5984 0.214957 -1.56127 0
M  V30 931 C 95.5304 1.29004 -1.89448 0
M  V30 932 C 96.5434 1.42716 -0.783326 0
M  V30 933 O 97.7324 1.43496 -1.06166 0
M  V30 934 C 94.8324 2.66482 -2.09381 0
M  V30 935 C 94.0054 2.74633 -3.40434 0
M  V30 936 C 93.0644 3.9317 -3.49719 0
M  V30 937 O 92.0904 3.812 -4.227 0
M  V30 938 N 93.2924 5.07765 -2.81346 0
M  V30 939 H 96.0574 1.00743 -2.82261 0
M  V30 940 H 93.6184 0.40497 -1.56753 0
M  V30 941 H 95.6104 3.44173 -2.12901 0
M  V30 942 H 94.1804 2.87314 -1.23163 0
M  V30 943 H 93.4004 1.83368 -3.48955 0
M  V30 944 H 94.6884 2.77054 -4.26754 0
M  V30 945 H 94.0864 5.20386 -2.21843 0
M  V30 946 H 92.6434 5.83474 -2.90519 0
M  V30 947 N 96.0765 1.50051 0.48192 0
M  V30 948 C 97.3225 1.60736 1.2366 0
M  V30 949 C 97.6555 0.301786 1.91841 0
M  V30 950 O 96.9305 -0.696025 1.8162 0
M  V30 951 C 97.2135 2.78009 2.28874 0
M  V30 952 C 97.0665 4.18416 1.65069 0
M  V30 953 C 98.3855 2.90867 3.30279 0
M  V30 954 H 95.5045 0.585031 0.448228 0
M  V30 955 H 98.1465 1.82402 0.531946 0
M  V30 956 H 96.2965 2.59667 2.88973 0
M  V30 957 H 97.9685 4.48322 1.0865 0
M  V30 958 H 96.2115 4.23177 0.954148 0
M  V30 959 H 96.8825 4.96381 2.41474 0
M  V30 960 H 99.3585 3.07623 2.80191 0
M  V30 961 H 98.2345 3.74566 4.01238 0
M  V30 962 H 98.4955 2.01021 3.93755 0
M  V30 963 N 97.5546 -0.734337 1.39446 0
M  V30 964 C 98.8016 -1.49391 1.36706 0
M  V30 965 C 99.1296 -1.94465 -0.0367813 0
M  V30 966 O 98.3846 -1.67154 -1.01774 0
M  V30 967 C 98.6836 -2.74711 2.28623 0
M  V30 968 C 98.3496 -2.48501 3.76242 0
M  V30 969 C 97.0116 -2.41062 4.16464 0
M  V30 970 C 99.3636 -2.26098 4.69606 0
M  V30 971 C 96.6916 -2.09262 5.48112 0
M  V30 972 C 99.0436 -1.95814 6.01531 0
M  V30 973 C 97.7076 -1.86845 6.40816 0
M  V30 974 H 96.9776 -0.546661 0.500243 0
M  V30 975 H 99.6246 -0.842788 1.71957 0
M  V30 976 H 97.9296 -3.44569 1.86492 0
M  V30 977 H 99.6266 -3.32741 2.23796 0
M  V30 978 H 96.2166 -2.55169 3.44364 0
M  V30 979 H 100.401 -2.30812 4.39363 0
M  V30 980 H 95.6566 -2.00841 5.77471 0
M  V30 981 H 99.8306 -1.77488 6.73403 0
M  V30 982 H 97.4576 -1.6197 7.42745 0
M  V30 983 N 99.0327 -1.24633 -0.964593 0
M  V30 984 C 99.9957 -1.0424 -2.04124 0
M  V30 985 C 100.996 0.00137563 -1.608 0
M  V30 986 O 102.186 -0.239883 -1.7254 0
M  V30 987 C 99.3177 -0.580588 -3.3592 0
M  V30 988 H 100.511 -1.99803 -2.23649 0
M  V30 989 H 98.0637 -1.06899 -1.14027 0
M  V30 990 H 98.7987 0.3781 -3.22088 0
M  V30 991 H 98.5837 -1.33398 -3.6871 0
M  V30 992 H 100.074 -0.459034 -4.15069 0
M  V30 993 N 100.511 1.16574 -1.06058 0
M  V30 994 C 101.474 2.19085 -0.673392 0
M  V30 995 C 102.474 1.5835 0.279648 0
M  V30 996 O 103.664 1.74088 0.0623488 0
M  V30 997 C 100.796 3.40899 0.00954234 0
M  V30 998 H 101.989 2.54853 -1.58081 0
M  V30 999 H 99.5418 1.30808 -0.855516 0
M  V30 1000 H 100.277 3.10684 0.929826 0
M  V30 1001 H 100.062 3.86233 -0.67573 0
M  V30 1002 H 101.552 4.1675 0.266245 0
M  V30 1003 N 101.989 0.842826 1.3317 0
M  V30 1004 C 103.235 0.441099 1.97945 0
M  V30 1005 C 103.568 -0.998024 1.66593 0
M  V30 1006 O 102.843 -1.69839 0.947898 0
M  V30 1007 C 103.126 0.666841 3.53872 0
M  V30 1008 C 102.979 2.15352 3.94897 0
M  V30 1009 C 104.298 0.115544 4.39948 0
M  V30 1010 H 101.417 0.161739 0.719034 0
M  V30 1011 H 104.059 1.05907 1.57746 0
M  V30 1012 H 102.209 0.140828 3.88245 0
M  V30 1013 H 103.881 2.7447 3.70761 0
M  V30 1014 H 102.124 2.63653 3.44484 0
M  V30 1015 H 102.795 2.26221 5.03516 0
M  V30 1016 H 105.271 0.565213 4.12243 0
M  V30 1017 H 104.147 0.303152 5.48062 0
M  V30 1018 H 104.408 -0.980935 4.3108 0
M  V30 1019 N 103.467 -1.45747 0.599634 0
M  V30 1020 C 104.377 -2.34262 -0.125888 0
M  V30 1021 C 105.393 -1.50768 -0.868625 0
M  V30 1022 O 106.569 -1.83592 -0.828003 0
M  V30 1023 C 103.634 -3.28252 -1.11587 0
M  V30 1024 C 102.695 -4.27651 -0.375956 0
M  V30 1025 C 101.928 -5.1715 -1.31877 0
M  V30 1026 O 102.151 -5.09916 -2.55621 0
M  V30 1027 O 101.085 -5.96286 -0.820157 0
M  V30 1028 H 104.911 -2.97688 0.601315 0
M  V30 1029 H 102.496 -1.44999 0.359934 0
M  V30 1030 H 104.378 -3.86191 -1.68626 0
M  V30 1031 H 103.053 -2.67401 -1.82424 0
M  V30 1032 H 101.96 -3.7335 0.236698 0
M  V30 1033 H 103.293 -4.91334 0.29177 0
M  V30 1034 N 104.945 -0.338344 -1.53925 0
M  V30 1035 C 105.877 0.555117 -2.22376 0
M  V30 1036 C 106.89 1.06812 -1.22862 0
M  V30 1037 O 108.079 0.979163 -1.49247 0
M  V30 1038 C 105.179 1.77609 -2.88631 0
M  V30 1039 C 104.352 1.39927 -4.14414 0
M  V30 1040 C 103.411 2.47936 -4.64127 0
M  V30 1041 O 102.437 2.11461 -5.28463 0
M  V30 1042 N 103.639 3.79107 -4.39612 0
M  V30 1043 H 106.404 -0.0310778 -2.99684 0
M  V30 1044 H 103.965 -0.162226 -1.61085 0
M  V30 1045 H 105.957 2.49287 -3.18807 0
M  V30 1046 H 104.527 2.26978 -2.14941 0
M  V30 1047 H 103.747 0.513481 -3.90841 0
M  V30 1048 H 105.035 1.12341 -4.96243 0
M  V30 1049 H 104.433 4.11531 -3.88148 0
M  V30 1050 H 102.99 4.4697 -4.74406 0
M  V30 1051 N 106.423 1.57458 -0.0668435 0
M  V30 1052 C 107.386 2.11323 0.887422 0
M  V30 1053 C 108.386 1.03618 1.22964 0
M  V30 1054 O 109.576 1.29626 1.16373 0
M  V30 1055 C 106.708 2.61048 2.19242 0
M  V30 1056 H 107.901 2.96942 0.420194 0
M  V30 1057 H 105.454 1.55239 0.181793 0
M  V30 1058 H 106.189 1.78868 2.70512 0
M  V30 1059 H 105.974 3.39769 1.95702 0
M  V30 1060 H 107.464 3.02814 2.87565 0
M  V30 1061 N 107.901 -0.206675 1.56239 0
M  V30 1062 C 109.317 -0.557025 1.49564 0
M  V30 1063 C 109.517 -1.86424 0.764735 0
M  V30 1064 O 108.573 -2.50584 0.310491 0
M  V30 1065 C 109.886 -0.622478 2.94186 0
M  V30 1066 C 111.434 -0.712099 3.04792 0
M  V30 1067 C 111.909 -0.808767 4.50803 0
M  V30 1068 N 113.4 -0.8726 4.54907 0
M  V30 1069 C 114.135 -0.967365 5.65181 0
M  V30 1070 N 113.631 -1.02515 6.85173 0
M  V30 1071 N 115.424 -1.00366 5.53067 0
M  V30 1072 H 107.575 0.650943 2.02179 0
M  V30 1073 H 109.838 0.230387 0.919579 0
M  V30 1074 H 109.544 0.268727 3.50672 0
M  V30 1075 H 109.418 -1.4811 3.46905 0
M  V30 1076 H 111.805 -1.59374 2.48363 0
M  V30 1077 H 111.886 0.172489 2.55218 0
M  V30 1078 H 111.53 0.0684754 5.07854 0
M  V30 1079 H 111.46 -1.70899 4.98098 0
M  V30 1080 H 113.951 -0.837657 3.68499 0
M  V30 1081 H 114.264 -1.09765 7.64965 0
M  V30 1082 H 112.609 -0.994026 6.87855 0
M  V30 1083 H 115.8 -0.95527 4.58249 0
M  V30 1084 H 115.973 -1.07405 6.39037 0
M  V30 1085 N 109.379 -1.50304 -0.473955 0
M  V30 1086 C 110.326 -1.68959 -1.57231 0
M  V30 1087 C 111.296 -0.530899 -1.57387 0
M  V30 1088 O 112.481 -0.761133 -1.74961 0
M  V30 1089 C 109.621 -1.7871 -2.95223 0
M  V30 1090 C 108.734 -3.06061 -3.04878 0
M  V30 1091 C 107.869 -3.06626 -4.33767 0
M  V30 1092 C 106.908 -4.28443 -4.37154 0
M  V30 1093 N 106.045 -4.26763 -5.5751 0
M  V30 1094 H 110.885 -2.6273 -1.40631 0
M  V30 1095 H 108.422 -1.30241 -0.683789 0
M  V30 1096 H 110.38 -1.82344 -3.75242 0
M  V30 1097 H 109.01 -0.883806 -3.10465 0
M  V30 1098 H 108.062 -3.11911 -2.17751 0
M  V30 1099 H 109.374 -3.96039 -3.0324 0
M  V30 1100 H 108.528 -3.08973 -5.22131 0
M  V30 1101 H 107.267 -2.14473 -4.3801 0
M  V30 1102 H 106.272 -4.2631 -3.47188 0
M  V30 1103 H 107.497 -5.2182 -4.34605 0
M  V30 1104 H 105.443 -3.37462 -5.62544 0
M  V30 1105 H 105.36 -5.10507 -5.57601 0
M  V30 1106 H 106.628 -4.33253 -6.48006 0
M  V30 1107 N 110.857 0.726932 -1.39834 0
M  V30 1108 C 112.085 1.51613 -1.40787 0
M  V30 1109 C 112.5 1.88799 -0.00451505 0
M  V30 1110 O 111.857 1.54662 0.968809 0
M  V30 1111 C 111.908 2.79863 -2.28821 0
M  V30 1112 O 111.629 2.44253 -3.63692 0
M  V30 1113 C 113.13 3.73837 -2.38245 0
M  V30 1114 H 110.35 0.468264 -0.480593 0
M  V30 1115 H 112.894 0.897607 -1.83748 0
M  V30 1116 H 111.049 3.38027 -1.89252 0
M  V30 1117 H 111.463 3.26695 -4.1033 0
M  V30 1118 H 112.937 4.60699 -3.04073 0
M  V30 1119 H 113.414 4.16153 -1.40403 0
M  V30 1120 H 114.02 3.21589 -2.78317 0
M  V30 1121 N 112.336 1.25143 0.95797 0
M  V30 1122 C 113.266 1.07711 2.07173 0
M  V30 1123 C 114.247 -0.0128462 1.70095 0
M  V30 1124 O 115.432 0.156061 1.93572 0
M  V30 1125 C 112.562 0.691503 3.40346 0
M  V30 1126 C 111.516 1.73132 3.9142 0
M  V30 1127 C 110.842 1.20049 5.21049 0
M  V30 1128 C 112.142 3.1294 4.1817 0
M  V30 1129 H 113.836 2.00873 2.22014 0
M  V30 1130 H 111.382 0.967191 1.06684 0
M  V30 1131 H 113.335 0.556505 4.17709 0
M  V30 1132 H 112.059 -0.275819 3.25433 0
M  V30 1133 H 110.718 1.8547 3.16222 0
M  V30 1134 H 110.366 0.223499 5.02503 0
M  V30 1135 H 110.066 1.89545 5.56189 0
M  V30 1136 H 111.59 1.07782 6.01012 0
M  V30 1137 H 113.004 3.03775 4.86203 0
M  V30 1138 H 111.401 3.79875 4.64559 0
M  V30 1139 H 112.471 3.6025 3.24573 0
M  V30 1140 N 113.814 -1.1601 1.06675 0
M  V30 1141 C 115.062 -1.86264 0.784229 0
M  V30 1142 C 115.383 -1.82328 -0.691488 0
M  V30 1143 O 114.653 -1.25947 -1.50047 0
M  V30 1144 H 113.233 -0.689621 0.28711 0
M  V30 1145 H 115.895 -1.40664 1.34906 0
M  V30 1146 H 114.991 -2.91595 1.11259 0
M  V30 1147 N 115.292 -0.849877 -1.32721 0
M  V30 1148 C 116.54 -0.450032 -1.97026 0
M  V30 1149 C 116.861 0.996604 -1.67609 0
M  V30 1150 O 116.131 1.6958 -0.980786 0
M  V30 1151 H 114.711 -0.163426 -0.728904 0
M  V30 1152 H 117.373 -1.08526 -1.6189 0
M  V30 1153 H 116.469 -0.591146 -3.0645 0
M  V30 1154 N 116.77 1.45427 -0.607355 0
M  V30 1155 C 118.017 2.02241 -0.102455 0
M  V30 1156 C 118.345 1.4758 1.26691 0
M  V30 1157 O 117.6 0.640468 1.84923 0
M  V30 1158 C 117.899 3.57398 -0.0129263 0
M  V30 1159 C 117.565 4.3121 -1.31792 0
M  V30 1160 C 116.227 4.51092 -1.67539 0
M  V30 1161 C 118.579 4.73401 -2.18039 0
M  V30 1162 C 115.907 5.10422 -2.89285 0
M  V30 1163 C 118.259 5.34078 -3.39034 0
M  V30 1164 C 116.923 5.52184 -3.75033 0
M  V30 1165 H 116.193 0.740051 -0.037491 0
M  V30 1166 H 118.84 1.74494 -0.788926 0
M  V30 1167 H 117.145 3.84421 0.756806 0
M  V30 1168 H 118.842 3.99061 0.393881 0
M  V30 1169 H 115.432 4.16047 -1.02968 0
M  V30 1170 H 119.616 4.57774 -1.91721 0
M  V30 1171 H 114.872 5.22629 -3.17283 0
M  V30 1172 H 119.046 5.65724 -4.06115 0
M  V30 1173 H 116.673 5.97925 -4.69457 0
M  V30 1174 N 118.248 0.346503 1.53744 0
M  V30 1175 C 119.525 -0.304532 1.93215 0
M  V30 1176 C 119.905 -1.67993 1.27834 0
M  V30 1177 O 119.253 -2.24411 0.430352 0
M  V30 1178 C 119.463 -0.373852 3.46992 0
M  V30 1179 C 120.811 -0.62329 4.2 0
M  V30 1180 O 121.835 -0.455847 3.53271 0
M  V30 1181 O 120.694 -0.947879 5.38217 0
M  V30 1182 H 117.788 -0.178318 0.807547 0
M  V30 1183 H 120.334 0.397895 1.64969 0
M  V30 1184 H 119.106 0.591224 3.86808 0
M  V30 1185 H 118.729 -1.12294 3.81413 0
M  V30 1186 N 119.726 -1.57421 0.075193 0
M  V30 1187 C 120.972 -1.93905 -0.594025 0
M  V30 1188 C 121.305 -0.955701 -1.69056 0
M  V30 1189 O 120.58 0.0145373 -1.94495 0
M  V30 1190 C 120.863 -3.40638 -1.1678 0
M  V30 1191 C 120.716 -4.49733 -0.0776792 0
M  V30 1192 C 122.035 -3.88259 -2.07228 0
M  V30 1193 H 119.154 -0.705105 -0.214466 0
M  V30 1194 H 121.796 -1.8947 0.141854 0
M  V30 1195 H 119.946 -3.44549 -1.79494 0
M  V30 1196 H 121.618 -4.57942 0.555573 0
M  V30 1197 H 119.861 -4.29751 0.591286 0
M  V30 1198 H 120.532 -5.49549 -0.519603 0
M  V30 1199 H 123.008 -3.86376 -1.54445 0
M  V30 1200 H 121.884 -4.91533 -2.44308 0
M  V30 1201 H 122.145 -3.26396 -2.98191 0
M  V30 1202 N 121.204 0.198386 -1.56346 0
M  V30 1203 C 122.453 0.917451 -1.79627 0
M  V30 1204 C 122.766 1.8456 -0.64784 0
M  V30 1205 O 123.972 2.60504 -0.764859 0
M  V30 1206 C 122.428 1.68175 -3.18191 0
M  V30 1207 C 122.036 0.798589 -4.40825 0
M  V30 1208 C 123.78 2.39065 -3.50782 0
M  V30 1209 C 121.687 1.56157 -5.70411 0
M  V30 1210 H 120.617 0.346317 -0.669762 0
M  V30 1211 H 123.268 0.170801 -1.82703 0
M  V30 1212 H 121.65 2.47216 -3.09354 0
M  V30 1213 H 122.824 0.0470665 -4.60776 0
M  V30 1214 H 121.139 0.200686 -4.15916 0
M  V30 1215 H 123.736 2.96692 -4.44835 0
M  V30 1216 H 124.079 3.13091 -2.74371 0
M  V30 1217 H 124.612 1.66993 -3.61052 0
M  V30 1218 H 121.351 0.864142 -6.49779 0
M  V30 1219 H 120.871 2.2871 -5.54483 0
M  V30 1220 H 122.55 2.11622 -6.11412 0
M  V30 1221 N 122.682 1.50554 0.465978 0
M  V30 1222 C 123.928 1.62038 1.21949 0
M  V30 1223 C 124.261 0.322116 1.9151 0
M  V30 1224 O 123.536 -0.676723 1.82348 0
M  V30 1225 C 123.819 2.80421 2.25912 0
M  V30 1226 C 123.672 4.20144 1.60622 0
M  V30 1227 C 124.991 2.94354 3.27176 0
M  V30 1228 H 122.11 0.589752 0.441998 0
M  V30 1229 H 124.752 1.82956 0.51257 0
M  V30 1230 H 122.902 2.62717 2.86203 0
M  V30 1231 H 124.574 4.49449 1.03889 0
M  V30 1232 H 122.817 4.24165 0.909211 0
M  V30 1233 H 123.488 4.98914 2.36196 0
M  V30 1234 H 125.964 3.10578 2.76913 0
M  V30 1235 H 124.84 3.788 3.97242 0
M  V30 1236 H 125.101 2.05186 3.916 0
M  V30 1237 N 124.16 -0.719506 1.40217 0
M  V30 1238 C 125.108 -1.85493 1.40339 0
M  V30 1239 C 126.102 -1.66995 0.284415 0
M  V30 1240 O 127.308 -1.74148 0.455252 0
M  V30 1241 H 123.683 -0.610857 0.438586 0
M  V30 1242 H 125.654 -1.82506 2.36081 0
M  V30 1243 C 124.403 -3.23321 1.27901 0
M  V30 1244 H 123.726 -3.38159 2.1328 0
M  V30 1245 H 125.166 -4.02914 1.32045 0
M  V30 1246 C 123.625 -3.36898 -0.0111355 0
M  V30 1247 O 124.155 -3.89674 -0.975538 0
M  V30 1248 N 122.361 -2.90492 -0.0793393 0
M  V30 1249 H 121.908 -2.47731 0.706183 0
M  V30 1250 H 121.866 -2.99955 -0.942038 0
M  V30 1251 N 125.638 -1.25649 -0.95132 0
M  V30 1252 C 126.586 -1.06118 -2.06982 0
M  V30 1253 C 127.58 0.00889169 -1.69398 0
M  V30 1254 O 128.786 -0.146988 -1.79399 0
M  V30 1255 H 125.161 -0.326248 -0.677544 0
M  V30 1256 H 127.132 -2.00932 -2.2061 0
M  V30 1257 C 125.881 -0.700145 -3.40578 0
M  V30 1258 H 125.204 -1.51537 -3.69968 0
M  V30 1259 H 126.644 -0.603211 -4.19687 0
M  V30 1260 C 125.103 0.59403 -3.31622 0
M  V30 1261 O 125.633 1.63522 -3.66911 0
M  V30 1262 N 123.839 0.58089 -2.84735 0
M  V30 1263 H 123.386 -0.266783 -2.56215 0
M  V30 1264 H 123.344 1.44695 -2.79125 0
M  V30 1265 N 127.117 1.15442 -1.07289 0
M  V30 1266 C 128.08 2.18358 -0.696591 0
M  V30 1267 C 129.08 1.58637 0.262837 0
M  V30 1268 O 130.27 1.74145 0.0438809 0
M  V30 1269 C 127.402 3.4089 -0.0266151 0
M  V30 1270 H 128.595 2.53162 -1.60776 0
M  V30 1271 H 126.148 1.29893 -0.869342 0
M  V30 1272 H 126.883 3.11653 0.896822 0
M  V30 1273 H 126.668 3.85495 -0.716657 0
M  V30 1274 H 128.158 4.17009 0.222028 0
M  V30 1275 N 128.595 0.856903 1.32268 0
M  V30 1276 C 129.843 0.460474 1.96784 0
M  V30 1277 C 130.164 -0.987701 1.68135 0
M  V30 1278 O 129.434 -1.69058 0.989765 0
M  V30 1279 H 128.014 0.167289 0.728027 0
M  V30 1280 H 130.676 1.09383 1.61312 0
M  V30 1281 H 129.772 0.60739 3.06133 0
M  V30 1282 N 130.073 -1.45103 0.615059 0
M  V30 1283 C 131.319 -2.02483 0.113347 0
M  V30 1284 C 131.652 -1.48146 -1.25564 0
M  V30 1285 O 130.927 -0.659104 -1.82992 0
M  V30 1286 C 131.21 -3.60005 0.0825278 0
M  V30 1287 C 131.063 -4.2466 1.48271 0
M  V30 1288 C 132.382 -4.35972 -0.601401 0
M  V30 1289 H 129.501 -0.735764 0.0426632 0
M  V30 1290 H 132.143 -1.72868 0.788461 0
M  V30 1291 H 130.293 -3.85367 -0.492378 0
M  V30 1292 H 131.965 -4.10458 2.10527 0
M  V30 1293 H 130.208 -3.82772 2.04127 0
M  V30 1294 H 130.879 -5.336 1.41332 0
M  V30 1295 H 133.355 -4.15947 -0.112666 0
M  V30 1296 H 132.231 -5.45697 -0.592097 0
M  V30 1297 H 132.492 -4.09391 -1.66887 0
M  V30 1298 N 131.551 -0.354651 -1.53558 0
M  V30 1299 C 132.514 0.484566 -2.24019 0
M  V30 1300 C 133.514 1.01861 -1.24422 0
M  V30 1301 O 134.704 0.906097 -1.4878 0
M  V30 1302 C 131.836 1.67615 -2.96847 0
M  V30 1303 H 133.029 -0.131843 -2.9961 0
M  V30 1304 H 130.582 -0.106165 -1.55939 0
M  V30 1305 H 131.317 2.33095 -2.25471 0
M  V30 1306 H 131.102 1.30029 -3.69912 0
M  V30 1307 H 132.592 2.27114 -3.50441 0
M  V30 1308 N 133.029 1.57378 -0.0835403 0
M  V30 1309 C 134.44 1.81261 0.447358 0
M  V30 1310 C 134.791 0.998331 1.68902 0
M  V30 1311 O 133.916 0.224282 2.15235 0
M  V30 1312 C 134.511 3.28767 0.818386 0
M  V30 1313 C 133.07 3.53455 1.29409 0
M  V30 1314 C 132.217 2.75831 0.285024 0
M  V30 1315 H 135.168 1.5566 -0.309115 0
M  V30 1316 H 135.189 3.41459 1.67887 0
M  V30 1317 H 134.701 3.88006 -0.0855019 0
M  V30 1318 H 132.802 2.99534 2.21608 0
M  V30 1319 H 132.915 4.62128 1.2639 0
M  V30 1320 H 131.279 2.42947 0.764767 0
M  V30 1321 H 132.062 3.37813 -0.611341 0
M  V30 1322 N 134.507 -0.190092 1.56449 0
M  V30 1323 C 135.732 -0.929864 1.85387 0
M  V30 1324 C 136.157 -1.7585 0.667704 0
M  V30 1325 O 135.515 -1.77198 -0.383459 0
M  V30 1326 C 135.563 -1.79773 3.12593 0
M  V30 1327 O 134.667 -2.89713 2.93496 0
M  V30 1328 H 134.008 -0.261574 0.610307 0
M  V30 1329 H 136.538 -0.193896 2.03679 0
M  V30 1330 H 136.548 -2.20139 3.43515 0
M  V30 1331 H 135.223 -1.18892 3.98544 0
M  V30 1332 H 133.8 -2.53065 2.73884 0
M  V30 1333 N 135.985 -1.50799 -0.457987 0
M  V30 1334 C 137.213 -1.66218 -1.23203 0
M  V30 1335 C 137.628 -0.350894 -1.85511 0
M  V30 1336 O 136.985 0.668546 -1.69814 0
M  V30 1337 C 137.036 -2.76291 -2.33121 0
M  V30 1338 O 136.757 -4.02338 -1.73366 0
M  V30 1339 C 138.258 -3.028 -3.2377 0
M  V30 1340 H 135.478 -0.558361 -0.372121 0
M  V30 1341 H 138.022 -1.97099 -0.545179 0
M  V30 1342 H 136.177 -2.48068 -2.97558 0
M  V30 1343 H 136.591 -4.63312 -2.4585 0
M  V30 1344 H 138.065 -3.8345 -3.97077 0
M  V30 1345 H 138.542 -2.14385 -3.83322 0
M  V30 1346 H 139.148 -3.32604 -2.65056 0
M  V30 1347 N 137.463 0.71206 -1.40597 0
M  V30 1348 C 138.874 1.29135 -1.34837 0
M  V30 1349 C 139.225 1.96186 -0.0235395 0
M  V30 1350 O 138.35 1.97768 0.878444 0
M  V30 1351 C 138.945 2.34827 -2.44217 0
M  V30 1352 C 137.504 2.88371 -2.41907 0
M  V30 1353 C 136.651 1.62202 -2.24913 0
M  V30 1354 H 139.602 0.507944 -1.50352 0
M  V30 1355 H 139.623 3.15749 -2.12327 0
M  V30 1356 H 139.135 1.85996 -3.40627 0
M  V30 1357 H 137.236 3.41422 -1.49204 0
M  V30 1358 H 137.349 3.39925 -3.37621 0
M  V30 1359 H 135.713 1.874 -1.72492 0
M  V30 1360 H 136.496 1.15391 -3.23326 0
M  V30 1361 N 138.941 1.26152 0.944643 0
M  V30 1362 C 140.19 1.10883 1.68487 0
M  V30 1363 C 140.503 -0.348153 1.92477 0
M  V30 1364 O 141.709 -0.621459 2.64292 0
M  V30 1365 C 140.165 1.93624 3.03377 0
M  V30 1366 C 139.773 3.43875 2.87148 0
M  V30 1367 C 141.517 1.86954 3.81115 0
M  V30 1368 C 139.424 4.18875 4.1749 0
M  V30 1369 H 138.354 0.41135 0.631907 0
M  V30 1370 H 141.005 1.50433 1.05082 0
M  V30 1371 H 139.387 1.46904 3.67743 0
M  V30 1372 H 140.561 3.98338 2.31653 0
M  V30 1373 H 138.876 3.51744 2.22856 0
M  V30 1374 H 141.473 2.40275 4.77673 0
M  V30 1375 H 141.816 0.839518 4.07747 0
M  V30 1376 H 142.349 2.31477 3.23517 0
M  V30 1377 H 139.088 5.22332 3.96043 0
M  V30 1378 H 138.608 3.69193 4.72712 0
M  V30 1379 H 140.287 4.27134 4.85968 0
M  V30 1380 N 140.419 -1.14872 1.07899 0
M  V30 1381 C 141.329 -2.2341 0.715915 0
M  V30 1382 C 142.345 -1.71808 -0.275306 0
M  V30 1383 O 143.521 -2.01039 -0.120545 0
M  V30 1384 C 140.586 -3.46474 0.125168 0
M  V30 1385 C 139.647 -4.13039 1.17034 0
M  V30 1386 C 138.88 -5.30229 0.607688 0
M  V30 1387 O 139.103 -5.675 -0.574497 0
M  V30 1388 O 138.037 -5.86444 1.35526 0
M  V30 1389 H 141.863 -2.56808 1.62121 0
M  V30 1390 H 139.448 -1.22702 0.852322 0
M  V30 1391 H 141.33 -4.20917 -0.201729 0
M  V30 1392 H 140.005 -3.14811 -0.753364 0
M  V30 1393 H 138.912 -3.40493 1.54968 0
M  V30 1394 H 140.245 -4.48796 2.02097 0
M  V30 1395 N 141.898 -0.863906 -1.31812 0
M  V30 1396 C 143.123 -0.48527 -2.01643 0
M  V30 1397 C 143.548 0.913058 -1.64453 0
M  V30 1398 O 142.906 1.6014 -0.849985 0
M  V30 1399 C 142.954 -0.642625 -3.54828 0
M  V30 1400 O 142.058 0.320659 -4.11151 0
M  V30 1401 H 141.399 -0.193793 -0.635091 0
M  V30 1402 H 143.929 -1.16565 -1.68148 0
M  V30 1403 H 143.939 -0.533628 -4.04495 0
M  V30 1404 H 142.614 -1.66227 -3.81237 0
M  V30 1405 H 141.191 0.167126 -3.72525 0
M  V30 1406 N 143.376 1.44774 -0.622745 0
M  V30 1407 C 144.625 2.01334 -0.121397 0
M  V30 1408 C 144.938 1.49505 1.26125 0
M  V30 1409 O 146.144 1.98139 1.85616 0
M  V30 1410 C 144.6 3.59516 -0.166298 0
M  V30 1411 C 144.208 4.20342 -1.54974 0
M  V30 1412 C 145.952 4.23582 0.279021 0
M  V30 1413 C 143.859 5.70721 -1.55021 0
M  V30 1414 H 142.789 0.752851 -0.0416172 0
M  V30 1415 H 145.44 1.66083 -0.780309 0
M  V30 1416 H 143.822 3.92027 0.559557 0
M  V30 1417 H 144.996 3.99381 -2.29851 0
M  V30 1418 H 143.311 3.68529 -1.93843 0
M  V30 1419 H 145.908 5.33868 0.298083 0
M  V30 1420 H 146.251 3.95327 1.30471 0
M  V30 1421 H 146.784 3.95843 -0.394063 0
M  V30 1422 H 143.523 6.03698 -2.55399 0
M  V30 1423 H 143.043 5.93829 -0.844245 0
M  V30 1424 H 144.722 6.34203 -1.28047 0
M  V30 1425 N 144.854 0.36279 1.53368 0
M  V30 1426 C 146.082 -0.228613 2.05633 0
M  V30 1427 C 146.497 -1.42676 1.23649 0
M  V30 1428 O 145.854 -1.80394 0.27647 0
M  V30 1429 C 145.905 -0.624845 3.56059 0
M  V30 1430 O 145.626 0.525675 4.34935 0
M  V30 1431 C 147.127 -1.27493 4.24571 0
M  V30 1432 H 144.347 -0.0407183 0.669763 0
M  V30 1433 H 146.891 0.520352 1.97769 0
M  V30 1434 H 145.046 -1.32373 3.64083 0
M  V30 1435 H 145.46 0.205969 5.24095 0
M  V30 1436 H 146.934 -1.50277 5.31151 0
M  V30 1437 H 147.411 -2.23439 3.78116 0
M  V30 1438 H 148.017 -0.617558 4.20792 0
M  V30 1439 N 146.332 -1.57332 0.0918853 0
M  V30 1440 C 147.743 -1.81496 -0.437739 0
M  V30 1441 C 148.094 -1.00727 -1.6837 0
M  V30 1442 O 147.219 -0.235694 -2.15113 0
M  V30 1443 C 147.814 -3.29197 -0.800939 0
M  V30 1444 C 146.373 -3.54136 -1.27532 0
M  V30 1445 C 145.52 -2.75979 -0.270392 0
M  V30 1446 H 148.471 -1.55494 0.317366 0
M  V30 1447 H 148.492 -3.42344 -1.66074 0
M  V30 1448 H 148.004 -3.87955 0.106078 0
M  V30 1449 H 146.105 -3.00705 -2.20016 0
M  V30 1450 H 146.218 -4.62792 -1.23938 0
M  V30 1451 H 144.582 -2.43349 -0.751872 0
M  V30 1452 H 145.365 -3.37484 0.629248 0
M  V30 1453 N 147.81 0.181792 -1.56548 0
M  V30 1454 C 148.72 1.24538 -1.98815 0
M  V30 1455 C 149.736 1.49045 -0.897861 0
M  V30 1456 O 150.912 1.61399 -1.20467 0
M  V30 1457 C 147.977 2.56683 -2.33055 0
M  V30 1458 C 147.038 2.40131 -3.55859 0
M  V30 1459 C 146.271 3.65975 -3.88456 0
M  V30 1460 O 146.494 4.70711 -3.22161 0
M  V30 1461 O 145.428 3.6071 -4.81842 0
M  V30 1462 H 149.254 0.916647 -2.89536 0
M  V30 1463 H 146.839 0.387842 -1.44278 0
M  V30 1464 H 148.721 3.34655 -2.56094 0
M  V30 1465 H 147.396 2.89157 -1.45498 0
M  V30 1466 H 146.303 1.60226 -3.38051 0
M  V30 1467 H 147.636 2.12585 -4.43924 0
M  V30 1468 N 149.288 1.51039 0.449983 0
M  V30 1469 C 150.537 1.62317 1.19733 0
M  V30 1470 C 150.85 0.339101 1.92638 0
M  V30 1471 O 152.056 0.331069 2.69474 0
M  V30 1472 C 150.512 2.86608 2.17678 0
M  V30 1473 C 150.12 4.21972 1.50479 0
M  V30 1474 C 151.864 3.07239 2.92924 0
M  V30 1475 C 149.771 5.37426 2.46834 0
M  V30 1476 H 148.701 0.604532 0.450619 0
M  V30 1477 H 151.352 1.77494 0.465625 0
M  V30 1478 H 149.734 2.65037 2.94231 0
M  V30 1479 H 150.908 4.53878 0.795716 0
M  V30 1480 H 149.223 4.07117 0.874344 0
M  V30 1481 H 151.82 3.90668 3.65079 0
M  V30 1482 H 152.163 2.19807 3.5354 0
M  V30 1483 H 152.696 3.29091 2.23481 0
M  V30 1484 H 149.435 6.27079 1.90926 0
M  V30 1485 H 148.955 5.09912 3.15832 0
M  V30 1486 H 150.634 5.68862 3.08228 0
M  V30 1487 N 150.766 -0.704594 1.40972 0
M  V30 1488 C 152.012 -1.46675 1.40051 0
M  V30 1489 C 152.345 -1.94199 0.00641102 0
M  V30 1490 O 151.62 -1.68916 -0.964235 0
M  V30 1491 C 151.903 -2.68505 2.39952 0
M  V30 1492 C 151.756 -2.26805 3.88432 0
M  V30 1493 C 153.075 -3.70686 2.37233 0
M  V30 1494 H 150.194 -0.532015 0.510028 0
M  V30 1495 H 152.836 -0.803255 1.72185 0
M  V30 1496 H 150.986 -3.25114 2.1268 0
M  V30 1497 H 152.658 -1.75592 4.26574 0
M  V30 1498 H 150.901 -1.58685 4.03734 0
M  V30 1499 H 151.572 -3.14181 4.53866 0
M  V30 1500 H 154.048 -3.23731 2.61415 0
M  V30 1501 H 152.924 -4.53553 3.09162 0
M  V30 1502 H 153.185 -4.19754 1.38777 0
M  V30 1503 N 152.244 -1.26651 -0.937939 0
M  V30 1504 C 153.521 -1.0313 -1.66204 0
M  V30 1505 C 153.901 0.437256 -2.06522 0
M  V30 1506 O 153.249 1.41831 -1.79154 0
M  V30 1507 C 153.459 -1.98314 -2.87181 0
M  V30 1508 C 154.807 -2.27107 -3.58758 0
M  V30 1509 O 155.831 -1.96205 -2.97291 0
M  V30 1510 O 154.69 -2.79736 -4.69479 0
M  V30 1511 H 151.784 -0.392384 -0.727986 0
M  V30 1512 H 154.33 -1.37874 -0.989382 0
M  V30 1513 H 153.102 -2.97399 -2.54302 0
M  V30 1514 H 152.725 -1.64068 -3.6217 0
M  V30 1515 N 153.722 1.14298 -1.08507 0
M  V30 1516 C 154.669 2.19414 -0.715965 0
M  V30 1517 C 155.639 1.63399 0.298326 0
M  V30 1518 O 156.824 1.89929 0.182101 0
M  V30 1519 C 153.964 3.44845 -0.132534 0
M  V30 1520 C 153.077 4.15007 -1.19973 0
M  V30 1521 C 152.212 5.28024 -0.580048 0
M  V30 1522 C 151.251 5.9002 -1.62921 0
M  V30 1523 N 150.388 6.94485 -1.03125 0
M  V30 1524 H 155.228 2.50336 -1.61666 0
M  V30 1525 H 152.765 1.2293 -0.807882 0
M  V30 1526 H 154.723 4.16601 0.223454 0
M  V30 1527 H 153.353 3.14403 0.731467 0
M  V30 1528 H 152.405 3.41629 -1.67313 0
M  V30 1529 H 153.717 4.57178 -1.99473 0
M  V30 1530 H 152.871 6.06455 -0.172364 0
M  V30 1531 H 151.61 4.87076 0.246603 0
M  V30 1532 H 150.615 5.10291 -2.04654 0
M  V30 1533 H 151.84 6.33042 -2.45835 0
M  V30 1534 H 149.786 6.55612 -0.225711 0
M  V30 1535 H 149.703 7.35148 -1.76334 0
M  V30 1536 H 150.971 7.7679 -0.649458 0
M  V30 1537 N 155.201 0.870884 1.31352 0
M  V30 1538 C 156.447 0.482987 1.96965 0
M  V30 1539 C 156.78 -0.962462 1.68672 0
M  V30 1540 O 156.055 -1.6779 0.98371 0
M  V30 1541 C 156.338 0.741752 3.52378 0
M  V30 1542 C 156.191 2.2368 3.9024 0
M  V30 1543 C 157.51 0.208838 4.39604 0
M  V30 1544 H 154.629 0.176955 0.715441 0
M  V30 1545 H 157.271 1.09229 1.55464 0
M  V30 1546 H 155.421 0.223149 3.87859 0
M  V30 1547 H 157.093 2.82273 3.64856 0
M  V30 1548 H 155.336 2.70901 3.38814 0
M  V30 1549 H 156.007 2.3685 4.98604 0
M  V30 1550 H 158.483 0.652529 4.10952 0
M  V30 1551 H 157.359 0.419336 5.47296 0
M  V30 1552 H 157.62 -0.889275 4.33064 0
M  V30 1553 N 156.679 -1.44442 0.630414 0
M  V30 1554 C 157.909 -2.06115 0.141465 0
M  V30 1555 C 158.317 -1.47179 -1.1889 0
M  V30 1556 O 157.66 -0.588873 -1.74006 0
M  V30 1557 C 157.722 -3.59467 -0.0484355 0
M  V30 1558 C 157.386 -4.40864 1.20366 0
M  V30 1559 C 158.383 -4.74391 2.12719 0
M  V30 1560 C 156.068 -4.8125 1.43887 0
M  V30 1561 C 158.062 -5.47186 3.26904 0
M  V30 1562 C 155.749 -5.53795 2.5837 0
M  V30 1563 C 156.747 -5.86682 3.49705 0
M  V30 1564 O 156.435 -6.57749 4.62191 0
M  V30 1565 H 156.167 -0.671648 0.0765792 0
M  V30 1566 H 158.721 -1.86312 0.864695 0
M  V30 1567 H 156.951 -3.77758 -0.826803 0
M  V30 1568 H 158.64 -4.02909 -0.491849 0
M  V30 1569 H 159.406 -4.43728 1.95781 0
M  V30 1570 H 155.285 -4.55073 0.736853 0
M  V30 1571 H 158.829 -5.72773 3.98217 0
M  V30 1572 H 154.726 -5.83872 2.75251 0
M  V30 1573 H 155.494 -6.76217 4.61164 0
M  V30 1574 N 158.157 -0.370918 -1.53173 0
M  V30 1575 C 159.105 0.488101 -2.27421 0
M  V30 1576 C 160.099 1.07884 -1.30604 0
M  V30 1577 O 161.305 1.02143 -1.48212 0
M  V30 1578 H 157.68 0.176134 -0.731082 0
M  V30 1579 H 159.651 -0.159815 -2.97972 0
M  V30 1580 C 158.4 1.61306 -3.08019 0
M  V30 1581 H 157.723 1.1678 -3.82364 0
M  V30 1582 H 159.163 2.18872 -3.63141 0
M  V30 1583 C 157.622 2.55848 -2.19188 0
M  V30 1584 O 158.152 3.58799 -1.80626 0
M  V30 1585 N 156.358 2.2516 -1.83715 0
M  V30 1586 H 155.905 1.41476 -2.15273 0
M  V30 1587 H 155.863 2.8867 -1.24567 0
M  V30 1588 N 159.635 1.57281 -0.100228 0
M  V30 1589 C 160.884 1.93713 0.561984 0
M  V30 1590 C 161.197 0.984492 1.69018 0
M  V30 1591 O 162.403 1.24273 2.41389 0
M  V30 1592 C 160.859 3.4421 1.05106 0
M  V30 1593 C 160.467 4.47975 -0.0476628 0
M  V30 1594 C 162.211 3.89595 1.68571 0
M  V30 1595 C 160.118 5.89631 0.457055 0
M  V30 1596 H 159.048 0.723082 0.2137 0
M  V30 1597 H 161.699 1.82644 -0.177057 0
M  V30 1598 H 160.081 3.50449 1.84395 0
M  V30 1599 H 161.255 4.53385 -0.823333 0
M  V30 1600 H 159.57 4.1223 -0.587816 0
M  V30 1601 H 162.167 4.92832 2.07414 0
M  V30 1602 H 162.51 3.28526 2.55688 0
M  V30 1603 H 163.043 3.86078 0.958562 0
M  V30 1604 H 159.782 6.54411 -0.377616 0
M  V30 1605 H 159.302 5.87681 1.19962 0
M  V30 1606 H 160.981 6.40363 0.92437 0
M  V30 1607 N 161.113 -0.173488 1.56642 0
M  V30 1608 C 162.061 -1.23417 1.97157 0
M  V30 1609 C 163.055 -1.45946 0.860013 0
M  V30 1610 O 164.261 -1.46551 1.04512 0
M  V30 1611 H 160.636 -0.414818 0.62724 0
M  V30 1612 H 162.607 -0.865582 2.8557 0
M  V30 1613 C 161.356 -2.5665 2.34576 0
M  V30 1614 H 160.679 -2.40137 3.19647 0
M  V30 1615 H 162.119 -3.2956 2.6677 0
M  V30 1616 C 160.578 -3.15245 1.18836 0
M  V30 1617 O 161.108 -3.98883 0.474869 0
M  V30 1618 N 159.314 -2.74303 0.959497 0
M  V30 1619 H 158.861 -2.0639 1.54146 0
M  V30 1620 H 158.819 -3.13844 0.186932 0
M  V30 1621 N 162.591 -1.51276 -0.441967 0
M  V30 1622 C 163.837 -1.63958 -1.19355 0
M  V30 1623 C 164.17 -0.352543 -1.90973 0
M  V30 1624 O 163.445 0.647627 -1.83401 0
M  V30 1625 C 163.728 -2.83979 -2.21422 0
M  V30 1626 C 163.581 -4.22646 -1.53918 0
M  V30 1627 C 164.9 -2.99521 -3.22451 0
M  V30 1628 H 162.019 -0.596709 -0.432559 0
M  V30 1629 H 164.661 -1.83748 -0.483398 0
M  V30 1630 H 162.811 -2.67237 -2.81987 0
M  V30 1631 H 164.483 -4.51045 -0.967256 0
M  V30 1632 H 162.726 -4.25558 -0.841615 0
M  V30 1633 H 163.397 -5.02609 -2.28229 0
M  V30 1634 H 165.873 -3.14944 -2.71937 0
M  V30 1635 H 164.749 -3.85072 -3.91166 0
M  V30 1636 H 165.01 -2.11391 -3.88287 0
M  V30 1637 N 164.069 0.697108 -1.41344 0
M  V30 1638 C 165.016 1.81106 -1.43071 0
M  V30 1639 C 165.986 1.63632 -0.285275 0
M  V30 1640 O 167.171 1.84504 -0.486091 0
M  V30 1641 C 164.311 3.18975 -1.31715 0
M  V30 1642 C 163.424 3.47892 -2.56115 0
M  V30 1643 C 162.559 4.75367 -2.37064 0
M  V30 1644 C 161.598 4.97247 -3.56948 0
M  V30 1645 N 160.735 6.15947 -3.36977 0
M  V30 1646 H 165.575 1.78965 -2.38276 0
M  V30 1647 H 163.112 0.873975 -1.18322 0
M  V30 1648 H 165.07 3.98615 -1.23133 0
M  V30 1649 H 163.7 3.20297 -0.401183 0
M  V30 1650 H 162.752 2.62669 -2.75153 0
M  V30 1651 H 164.064 3.59962 -3.45295 0
M  V30 1652 H 163.218 5.63059 -2.25941 0
M  V30 1653 H 161.957 4.65541 -1.45338 0
M  V30 1654 H 160.962 4.08004 -3.68527 0
M  V30 1655 H 162.187 5.08934 -4.49626 0
M  V30 1656 H 160.133 6.07336 -2.47949 0
M  V30 1657 H 160.05 6.28777 -4.19732 0
M  V30 1658 H 161.318 7.06377 -3.29623 0
M  V30 1659 N 165.547 1.27147 0.931209 0
M  V30 1660 C 166.795 1.13055 1.6752 0
M  V30 1661 C 167.116 -0.324791 1.92276 0
M  V30 1662 O 166.386 -1.22775 1.52654 0
M  V30 1663 H 164.966 0.415391 0.620854 0
M  V30 1664 H 167.628 1.59623 1.11833 0
M  V30 1665 H 166.724 1.65694 2.64485 0
M  V30 1666 N 167.025 -1.13721 1.09112 0
M  V30 1667 C 168.271 -1.85198 0.826414 0
M  V30 1668 C 168.604 -1.83129 -0.646319 0
M  V30 1669 O 167.879 -1.2671 -1.47563 0
M  V30 1670 C 168.162 -3.33507 1.35812 0
M  V30 1671 C 168.015 -3.44108 2.89672 0
M  V30 1672 C 169.334 -4.28838 0.989256 0
M  V30 1673 H 166.453 -0.67243 0.301675 0
M  V30 1674 H 169.095 -1.33499 1.35197 0
M  V30 1675 H 167.245 -3.77666 0.911082 0
M  V30 1676 H 168.917 -3.08684 3.428 0
M  V30 1677 H 167.16 -2.85087 3.26967 0
M  V30 1678 H 167.831 -4.48388 3.21951 0
M  V30 1679 H 170.307 -3.92734 1.37475 0
M  V30 1680 H 169.183 -5.31051 1.38838 0
M  V30 1681 H 169.444 -4.4198 -0.102924 0
M  V30 1682 N 168.503 -0.877838 -1.30888 0
M  V30 1683 C 169.752 -0.488793 -1.95688 0
M  V30 1684 C 170.065 0.965485 -1.70111 0
M  V30 1685 O 171.271 1.46104 -2.28836 0
M  V30 1686 C 169.727 -0.823201 -3.50359 0
M  V30 1687 C 169.335 -2.29477 -3.84765 0
M  V30 1688 C 171.079 -0.503009 -4.21509 0
M  V30 1689 C 168.986 -2.57118 -5.32583 0
M  V30 1690 H 167.916 -0.179062 -0.732429 0
M  V30 1691 H 170.567 -1.07183 -1.48943 0
M  V30 1692 H 168.949 -0.169331 -3.95638 0
M  V30 1693 H 170.123 -2.99236 -3.5042 0
M  V30 1694 H 168.438 -2.58178 -3.267 0
M  V30 1695 H 171.035 -0.68665 -5.30273 0
M  V30 1696 H 171.378 0.557109 -4.12555 0
M  V30 1697 H 171.911 -1.11376 -3.8189 0
M  V30 1698 H 168.65 -3.61843 -5.4658 0
M  V30 1699 H 168.17 -1.91961 -5.68253 0
M  V30 1700 H 169.849 -2.42251 -5.99936 0
M  V30 1701 N 169.982 1.44106 -0.638065 0
M  V30 1702 C 171.228 2.02815 -0.15409 0
M  V30 1703 C 171.583 1.49342 1.21304 0
M  V30 1704 O 170.876 0.670699 1.79478 0
M  V30 1705 C 171.07 3.5729 -0.0887327 0
M  V30 1706 C 170.899 4.2575 -1.44799 0
M  V30 1707 C 169.669 4.62443 -2.03653 0
M  V30 1708 C 171.867 4.55746 -2.38327 0
M  V30 1709 N 169.849 5.15903 -3.32741 0
M  V30 1710 C 171.22 5.10364 -3.52036 0
M  V30 1711 C 173.275 4.37703 -2.3732 0
M  V30 1712 C 171.978 5.48837 -4.64941 0
M  V30 1713 C 174.004 4.77229 -3.49294 0
M  V30 1714 C 173.366 5.31966 -4.61726 0
M  V30 1715 H 169.465 0.775519 -0.100466 0
M  V30 1716 H 172.049 1.755 -0.843071 0
M  V30 1717 H 170.22 3.84201 0.569548 0
M  V30 1718 H 171.952 4.02671 0.404711 0
M  V30 1719 H 168.707 4.46987 -1.56523 0
M  V30 1720 H 169.131 5.47102 -3.98758 0
M  V30 1721 H 173.773 3.94671 -1.51641 0
M  V30 1722 H 171.491 5.9082 -5.51323 0
M  V30 1723 H 175.077 4.64976 -3.49698 0
M  V30 1724 H 173.957 5.61986 -5.46939 0
M  V30 1725 N 171.46 0.379036 1.52974 0
M  V30 1726 C 172.708 -0.206014 2.01047 0
M  V30 1727 C 173.029 -1.48175 1.26765 0
M  V30 1728 O 172.299 -1.92085 0.384743 0
M  V30 1729 H 170.879 -0.0791184 0.742798 0
M  V30 1730 H 173.541 0.508366 1.88153 0
M  V30 1731 H 172.637 -0.423501 3.09213 0
M  V30 1732 N 172.938 -1.57226 0.108567 0
M  V30 1733 C 174.187 -1.94008 -0.551703 0
M  V30 1734 C 174.5 -0.993442 -1.68494 0
M  V30 1735 O 175.706 -1.25551 -2.40726 0
M  V30 1736 C 174.162 -3.44763 -1.03279 0
M  V30 1737 C 173.77 -4.47943 0.0714193 0
M  V30 1738 C 175.514 -3.90483 -1.66503 0
M  V30 1739 C 173.421 -5.89865 -0.425779 0
M  V30 1740 H 172.351 -0.724206 -0.209863 0
M  V30 1741 H 175.002 -1.82547 0.186741 0
M  V30 1742 H 173.384 -3.51422 -1.82533 0
M  V30 1743 H 174.558 -4.52942 0.847365 0
M  V30 1744 H 172.873 -4.11913 0.609669 0
M  V30 1745 H 175.47 -4.93925 -2.04798 0
M  V30 1746 H 175.813 -3.29877 -2.53942 0
M  V30 1747 H 176.346 -3.86581 -0.938074 0
M  V30 1748 H 173.085 -6.54202 0.412316 0
M  V30 1749 H 172.605 -5.88309 -1.16843 0
M  V30 1750 H 174.284 -6.40844 -0.890397 0
M  V30 1751 N 174.416 0.165178 -1.56732 0
M  V30 1752 C 175.348 1.22911 -1.93457 0
M  V30 1753 C 176.361 1.40152 -0.828333 0
M  V30 1754 O 177.55 1.40046 -1.10677 0
M  V30 1755 C 174.65 2.59686 -2.17753 0
M  V30 1756 C 173.823 2.63663 -3.48999 0
M  V30 1757 C 172.882 3.81845 -3.62051 0
M  V30 1758 O 171.908 3.67559 -4.34613 0
M  V30 1759 N 173.11 4.98557 -2.97357 0
M  V30 1760 H 175.875 0.917118 -2.85323 0
M  V30 1761 H 173.436 0.354895 -1.57962 0
M  V30 1762 H 175.428 3.37225 -2.23743 0
M  V30 1763 H 173.998 2.83251 -1.32242 0
M  V30 1764 H 173.218 1.72173 -3.54612 0
M  V30 1765 H 174.506 2.63336 -4.35352 0
M  V30 1766 H 173.904 5.13065 -2.38287 0
M  V30 1767 H 172.461 5.73936 -3.08934 0
M  V30 1768 N 175.894 1.51508 0.433938 0
M  V30 1769 C 176.857 1.72473 1.50949 0
M  V30 1770 C 177.857 0.594725 1.49398 0
M  V30 1771 O 179.047 0.862315 1.5136 0
M  V30 1772 C 176.179 1.78431 2.90474 0
M  V30 1773 H 177.372 2.68467 1.33662 0
M  V30 1774 H 174.925 1.41549 0.662836 0
M  V30 1775 H 175.66 0.842645 3.13161 0
M  V30 1776 H 175.445 2.60558 2.93005 0
M  V30 1777 H 176.935 1.96479 3.68491 0
M  V30 1778 N 177.372 -0.689602 1.41712 0
M  V30 1779 C 178.335 -1.78521 1.43746 0
M  V30 1780 C 179.335 -1.57436 0.327191 0
M  V30 1781 O 180.525 -1.64 0.587348 0
M  V30 1782 C 177.657 -3.16971 1.25467 0
M  V30 1783 H 178.85 -1.78108 2.41283 0
M  V30 1784 H 176.403 -0.89781 1.27942 0
M  V30 1785 H 177.138 -3.23019 0.287948 0
M  V30 1786 H 176.923 -3.33678 2.05917 0
M  V30 1787 H 178.413 -3.96935 1.2974 0
M  V30 1788 N 178.85 -1.27639 -0.924453 0
M  V30 1789 C 180.096 -1.14336 -1.67497 0
M  V30 1790 C 180.429 0.309465 -1.91718 0
M  V30 1791 O 179.704 1.22608 -1.50989 0
M  V30 1792 C 179.987 -1.93096 -3.0395 0
M  V30 1793 C 179.84 -3.46381 -2.8695 0
M  V30 1794 C 181.159 -1.73798 -4.0433 0
M  V30 1795 H 178.278 -0.416728 -0.607871 0
M  V30 1796 H 180.92 -1.56832 -1.07256 0
M  V30 1797 H 179.07 -1.56982 -3.55372 0
M  V30 1798 H 180.742 -3.92343 -2.42621 0
M  V30 1799 H 178.985 -3.72557 -2.22225 0
M  V30 1800 H 179.656 -3.96735 -3.83804 0
M  V30 1801 H 182.132 -2.05293 -3.61931 0
M  V30 1802 H 181.008 -2.31294 -4.97789 0
M  V30 1803 H 181.269 -0.686725 -4.36734 0
M  V30 1804 N 180.328 1.1314 -1.09713 0
M  V30 1805 C 181.238 2.22242 -0.751367 0
M  V30 1806 C 182.254 1.72224 0.247938 0
M  V30 1807 O 183.43 2.01205 0.0885463 0
M  V30 1808 C 180.495 3.46231 -0.180274 0
M  V30 1809 C 179.556 4.11125 -1.2359 0
M  V30 1810 C 178.789 5.29195 -0.691966 0
M  V30 1811 O 179.012 5.68342 0.48414 0
M  V30 1812 O 177.946 5.84214 -1.44838 0
M  V30 1813 H 181.772 2.54197 -1.66186 0
M  V30 1814 H 179.357 1.21331 -0.871735 0
M  V30 1815 H 181.239 4.21185 0.134739 0
M  V30 1816 H 179.914 3.1597 0.703185 0
M  V30 1817 H 178.821 3.37985 -1.60366 0
M  V30 1818 H 180.154 4.45524 -2.09211 0
M  V30 1819 N 181.806 0.884767 1.30421 0
M  V30 1820 C 182.769 0.356277 2.26414 0
M  V30 1821 C 183.769 -0.501124 1.52792 0
M  V30 1822 O 184.959 -0.30831 1.7145 0
M  V30 1823 C 182.091 -0.492316 3.37326 0
M  V30 1824 H 183.284 1.20389 2.74675 0
M  V30 1825 H 180.837 0.661607 1.41607 0
M  V30 1826 H 181.572 -1.36052 2.94381 0
M  V30 1827 H 181.357 0.121832 3.91911 0
M  V30 1828 H 182.847 -0.853871 4.08777 0
M  V30 1829 N 183.284 -1.43765 0.645699 0
M  V30 1830 C 184.531 -2.01898 0.15604 0
M  V30 1831 C 184.859 -1.50887 -1.22733 0
M  V30 1832 O 184.114 -0.689271 -1.8316 0
M  V30 1833 C 184.413 -3.57238 0.107679 0
M  V30 1834 C 184.079 -4.27564 1.43178 0
M  V30 1835 C 182.741 -4.46492 1.7944 0
M  V30 1836 C 185.093 -4.67454 2.30513 0
M  V30 1837 C 182.421 -5.02573 3.02716 0
M  V30 1838 C 184.773 -5.24901 3.53074 0
M  V30 1839 C 183.437 -5.42046 3.89541 0
M  V30 1840 H 182.707 -0.738797 0.057099 0
M  V30 1841 H 185.354 -1.72341 0.834912 0
M  V30 1842 H 183.659 -3.86293 -0.654618 0
M  V30 1843 H 185.356 -3.99965 -0.287938 0
M  V30 1844 H 181.946 -4.13171 1.13963 0
M  V30 1845 H 186.13 -4.5253 2.0379 0
M  V30 1846 H 181.386 -5.14033 3.31028 0
M  V30 1847 H 185.56 -5.54758 4.20971 0
M  V30 1848 H 183.187 -5.85268 4.85145 0
M  V30 1849 N 184.763 -0.387143 -1.52771 0
M  V30 1850 C 185.71 0.449048 -2.26389 0
M  V30 1851 C 186.68 1.05961 -1.27912 0
M  V30 1852 O 187.865 1.08804 -1.56737 0
M  V30 1853 C 185.005 1.57155 -3.0724 0
M  V30 1854 C 184.118 0.984066 -4.20643 0
M  V30 1855 C 183.253 2.07745 -4.88892 0
M  V30 1856 C 182.292 1.46574 -5.94292 0
M  V30 1857 N 181.429 2.49834 -6.56146 0
M  V30 1858 H 186.269 -0.185205 -2.97424 0
M  V30 1859 H 183.806 -0.103164 -1.46738 0
M  V30 1860 H 185.764 2.23309 -3.52405 0
M  V30 1861 H 184.394 2.17615 -2.38419 0
M  V30 1862 H 183.446 0.212193 -3.79808 0
M  V30 1863 H 184.758 0.497029 -4.96318 0
M  V30 1864 H 183.912 2.81673 -5.3735 0
M  V30 1865 H 182.651 2.59807 -4.12737 0
M  V30 1866 H 181.656 0.711696 -5.45174 0
M  V30 1867 H 182.881 0.953088 -6.72379 0
M  V30 1868 H 180.827 3.0107 -5.82832 0
M  V30 1869 H 180.744 2.05879 -7.27427 0
M  V30 1870 H 182.012 3.23399 -7.09249 0
M  V30 1871 N 186.241 1.57166 -0.116904 0
M  V30 1872 C 187.188 2.15202 0.83408 0
M  V30 1873 C 188.158 1.07644 1.26499 0
M  V30 1874 O 189.343 1.35541 1.34288 0
M  V30 1875 C 186.483 2.75405 2.07957 0
M  V30 1876 C 185.596 3.97264 1.69721 0
M  V30 1877 C 184.731 4.45561 2.89221 0
M  V30 1878 C 183.77 5.59956 2.47215 0
M  V30 1879 N 182.907 6.03006 3.59622 0
M  V30 1880 H 187.747 2.96141 0.332335 0
M  V30 1881 H 185.284 1.46309 0.152349 0
M  V30 1882 H 187.242 3.08439 2.80929 0
M  V30 1883 H 185.872 1.97159 2.55594 0
M  V30 1884 H 184.924 3.70404 0.866316 0
M  V30 1885 H 186.236 4.80226 1.34849 0
M  V30 1886 H 185.39 4.80493 3.7042 0
M  V30 1887 H 184.129 3.61544 3.27318 0
M  V30 1888 H 183.134 5.2463 1.64448 0
M  V30 1889 H 184.359 6.45738 2.10238 0
M  V30 1890 H 182.305 5.21931 3.97396 0
M  V30 1891 H 182.222 6.80819 3.28667 0
M  V30 1892 H 183.49 6.42576 4.41267 0
M  V30 1893 N 187.719 -0.156864 1.56817 0
M  V30 1894 C 188.629 -1.2136 2.00771 0
M  V30 1895 C 189.645 -1.47598 0.921459 0
M  V30 1896 O 190.821 -1.59462 1.2302 0
M  V30 1897 C 187.886 -2.52943 2.37109 0
M  V30 1898 C 186.947 -2.34439 3.59634 0
M  V30 1899 C 186.18 -3.59748 3.94229 0
M  V30 1900 O 186.403 -4.65526 3.29609 0
M  V30 1901 O 185.337 -3.52998 4.8752 0
M  V30 1902 H 189.163 -0.870468 2.90958 0
M  V30 1903 H 186.748 -0.36484 1.44877 0
M  V30 1904 H 188.63 -3.30538 2.61386 0
M  V30 1905 H 187.305 -2.86806 1.5008 0
M  V30 1906 H 186.212 -1.54828 3.40557 0
M  V30 1907 H 187.545 -2.05496 4.4725 0
M  V30 1908 N 189.197 -1.51736 -0.425897 0
M  V30 1909 C 190.445 -1.64644 -1.17204 0
M  V30 1910 C 190.766 -0.370486 -1.91448 0
M  V30 1911 O 190.036 0.614088 -1.86026 0
M  V30 1912 H 188.616 -0.606819 -0.435638 0
M  V30 1913 H 191.278 -1.88713 -0.487177 0
M  V30 1914 H 190.374 -2.47958 -1.89534 0
M  V30 1915 N 190.675 0.682077 -1.42076 0
M  V30 1916 C 191.625 1.78823 -1.41444 0
M  V30 1917 C 192.609 1.58323 -0.28681 0
M  V30 1918 O 193.801 1.68926 -0.528498 0
M  V30 1919 C 190.93 3.17232 -1.3122 0
M  V30 1920 C 190.016 3.4338 -2.489 0
M  V30 1921 N 190.407 3.40152 -3.7434 0
M  V30 1922 C 188.705 3.73986 -2.43003 0
M  V30 1923 C 189.406 3.65581 -4.52466 0
M  V30 1924 N 188.382 3.85989 -3.8277 0
M  V30 1925 H 192.184 1.7471 -2.36334 0
M  V30 1926 H 189.698 0.882622 -1.36321 0
M  V30 1927 H 191.695 3.96489 -1.2885 0
M  V30 1928 H 190.355 3.22547 -0.373263 0
M  V30 1929 H 191.366 3.20221 -4.07037 0
M  V30 1930 H 188.043 3.86591 -1.57651 0
M  V30 1931 H 189.433 3.69108 -5.61435 0
M  V30 1932 N 192.153 1.28127 0.917671 0
M  V30 1933 C 193.401 1.14825 1.66312 0
M  V30 1934 C 193.722 -0.304379 1.9261 0
M  V30 1935 O 192.992 -1.21149 1.53947 0
M  V30 1936 H 191.572 0.421953 0.616413 0
M  V30 1937 H 194.234 1.608 1.10134 0
M  V30 1938 H 193.33 1.68489 2.62712 0
M  V30 1939 N 193.631 -1.12557 1.10312 0
M  V30 1940 C 194.879 -1.83675 0.843091 0
M  V30 1941 C 195.2 -1.84435 -0.633131 0
M  V30 1942 O 194.47 -1.30657 -1.45964 0
M  V30 1943 H 193.05 -0.680138 0.308904 0
M  V30 1944 H 195.712 -1.36301 1.39313 0
M  V30 1945 H 194.808 -2.87908 1.2048 0
M  V30 1946 N 195.109 -0.891671 -1.2995 0
M  V30 1947 C 196.056 -0.361736 -2.27948 0
M  V30 1948 C 197.026 0.551761 -1.56668 0
M  V30 1949 O 198.211 0.478736 -1.84696 0
M  V30 1950 C 195.351 0.411825 -3.42634 0
M  V30 1951 C 194.464 -0.531651 -4.28716 0
M  V30 1952 C 193.599 0.258167 -5.30572 0
M  V30 1953 C 192.638 -0.680349 -6.08307 0
M  V30 1954 N 191.775 0.0745613 -7.0206 0
M  V30 1955 H 196.615 -1.20254 -2.72659 0
M  V30 1956 H 194.152 -0.604352 -1.34112 0
M  V30 1957 H 196.11 0.876304 -4.07893 0
M  V30 1958 H 194.74 1.21715 -2.98974 0
M  V30 1959 H 193.792 -1.11463 -3.63703 0
M  V30 1960 H 195.104 -1.25038 -4.82874 0
M  V30 1961 H 194.258 0.784204 -6.0161 0
M  V30 1962 H 192.997 1.01008 -4.77126 0
M  V30 1963 H 192.002 -1.21796 -5.3614 0
M  V30 1964 H 193.227 -1.43145 -6.63842 0
M  V30 1965 H 191.173 0.808883 -6.50994 0
M  V30 1966 H 191.09 -0.584409 -7.53738 0
M  V30 1967 H 192.358 0.581123 -7.77331 0
M  V30 1968 N 196.587 1.43421 -0.653314 0
M  V30 1969 C 197.836 2.01032 -0.164076 0
M  V30 1970 C 198.149 1.52147 1.22926 0
M  V30 1971 O 199.355 2.02031 1.81371 0
M  V30 1972 C 197.811 3.59082 -0.24252 0
M  V30 1973 C 197.419 4.1696 -1.63855 0
M  V30 1974 C 199.163 4.24079 0.18911 0
M  V30 1975 C 197.07 5.67304 -1.67092 0
M  V30 1976 H 196 0.751798 -0.0575769 0
M  V30 1977 H 198.651 1.6439 -0.815362 0
M  V30 1978 H 197.033 3.93125 0.476276 0
M  V30 1979 H 198.207 3.94416 -2.38271 0
M  V30 1980 H 196.522 3.64335 -2.01616 0
M  V30 1981 H 199.119 5.34381 0.184775 0
M  V30 1982 H 199.462 3.98005 1.22056 0
M  V30 1983 H 199.995 3.94918 -0.477938 0
M  V30 1984 H 196.734 5.98145 -2.68146 0
M  V30 1985 H 196.254 5.91904 -0.970014 0
M  V30 1986 H 197.933 6.31344 -1.4147 0
M  V30 1987 N 198.065 0.39524 1.52563 0
M  V30 1988 C 199.314 -0.186321 2.00838 0
M  V30 1989 C 199.627 -1.47402 1.28577 0
M  V30 1990 O 200.833 -2.13599 1.67593 0
M  V30 1991 C 199.289 -0.382595 3.57861 0
M  V30 1992 C 198.897 0.892202 4.39026 0
M  V30 1993 C 200.641 -0.9202 4.14406 0
M  V30 1994 C 198.548 0.66388 5.87662 0
M  V30 1995 H 197.478 -0.0734041 0.750418 0
M  V30 1996 H 200.129 0.518552 1.76021 0
M  V30 1997 H 198.511 -1.14946 3.7895 0
M  V30 1998 H 199.685 1.66414 4.29701 0
M  V30 1999 H 198 1.35519 3.9373 0
M  V30 2000 H 200.597 -1.10683 5.23119 0
M  V30 2001 H 200.94 -1.89096 3.70875 0
M  V30 2002 H 201.473 -0.212751 3.97231 0
M  V30 2003 H 198.212 1.6058 6.35527 0
M  V30 2004 H 197.732 -0.0690193 5.9976 0
M  V30 2005 H 199.411 0.300699 6.46301 0
M  V30 2006 N 199.544 -1.57102 0.125237 0
M  V30 2007 C 200.492 -2.16905 -0.839927 0
M  V30 2008 C 201.486 -1.11998 -1.27094 0
M  V30 2009 O 202.692 -1.3029 -1.24195 0
M  V30 2010 H 199.067 -0.694252 -0.288995 0
M  V30 2011 H 201.038 -2.96774 -0.311115 0
M  V30 2012 C 199.787 -2.78795 -2.07771 0
M  V30 2013 H 199.11 -3.59221 -1.755 0
M  V30 2014 H 200.55 -3.2417 -2.73295 0
M  V30 2015 C 199.009 -1.76193 -2.87155 0
M  V30 2016 O 199.539 -1.21909 -3.82755 0
M  V30 2017 N 197.745 -1.45991 -2.51267 0
M  V30 2018 H 197.292 -1.90325 -1.73592 0
M  V30 2019 H 197.25 -0.775844 -3.04677 0
M  V30 2020 N 201.022 0.148545 -1.56898 0
M  V30 2021 C 201.985 1.16736 -1.97244 0
M  V30 2022 C 202.985 1.35947 -0.858777 0
M  V30 2023 O 204.175 1.32966 -1.12542 0
M  V30 2024 C 201.307 2.52798 -2.28705 0
M  V30 2025 H 202.5 0.821279 -2.88435 0
M  V30 2026 H 200.053 0.391831 -1.51309 0
M  V30 2027 H 200.788 2.92381 -1.403 0
M  V30 2028 H 200.573 2.40216 -3.09901 0
M  V30 2029 H 202.063 3.26179 -2.60762 0
M  V30 2030 N 202.5 1.5196 0.417844 0
M  V30 2031 C 203.74 1.67262 1.17486 0
M  V30 2032 C 204.104 0.38983 1.88001 0
M  V30 2033 O 205.305 0.418845 2.65517 0
M  V30 2034 C 203.576 2.85526 2.14965 0
M  V30 2035 S 205.135 3.21263 2.98891 0
M  V30 2036 H 201.953 0.589077 0.398132 0
M  V30 2037 H 204.555 1.89927 0.463452 0
M  V30 2038 H 203.259 3.77145 1.61833 0
M  V30 2039 H 202.79 2.65107 2.90657 0
M  V30 2040 H 204.805 2.69208 4.16823 0
M  V30 2041 N 203.978 -0.674533 1.42435 0
M  V30 2042 C 205.203 -1.46784 1.46524 0
M  V30 2043 C 205.628 -1.87938 0.078066 0
M  V30 2044 O 204.986 -1.56014 -0.92354 0
M  V30 2045 C 205.034 -2.69307 2.39805 0
M  V30 2046 O 204.138 -3.67587 1.86959 0
M  V30 2047 H 203.479 -0.440959 0.496439 0
M  V30 2048 H 206.009 -0.827326 1.87127 0
M  V30 2049 H 206.019 -3.17374 2.56393 0
M  V30 2050 H 204.694 -2.38692 3.40586 0
M  V30 2051 H 203.271 -3.2662 1.79927 0
M  V30 2052 N 205.456 -1.28612 -0.910864 0
M  V30 2053 C 206.388 -1.08589 -2.01844 0
M  V30 2054 C 207.401 -0.0367419 -1.62759 0
M  V30 2055 O 208.59 -0.280101 -1.76289 0
M  V30 2056 C 205.69 -0.628626 -3.33019 0
M  V30 2057 C 204.863 -1.75382 -4.00699 0
M  V30 2058 C 203.922 -1.28945 -5.10156 0
M  V30 2059 O 202.948 -1.9922 -5.33198 0
M  V30 2060 N 204.15 -0.154224 -5.80295 0
M  V30 2061 H 206.915 -2.03973 -2.19579 0
M  V30 2062 H 204.476 -1.20403 -1.08234 0
M  V30 2063 H 206.468 -0.301508 -4.03575 0
M  V30 2064 H 205.038 0.232451 -3.11735 0
M  V30 2065 H 204.258 -2.25039 -3.23653 0
M  V30 2066 H 205.546 -2.50854 -4.42662 0
M  V30 2067 H 204.944 0.43194 -5.64049 0
M  V30 2068 H 203.501 0.113599 -6.51701 0
M  V30 2069 N 206.934 1.1197 -1.10907 0
M  V30 2070 C 207.897 2.16031 -0.765707 0
M  V30 2071 C 208.897 1.59393 0.212235 0
M  V30 2072 O 210.087 1.74196 -0.0115441 0
M  V30 2073 C 207.219 3.40632 -0.135053 0
M  V30 2074 H 208.412 2.47919 -1.68748 0
M  V30 2075 H 205.965 1.27061 -0.910226 0
M  V30 2076 H 206.7 3.14348 0.797218 0
M  V30 2077 H 206.485 3.8302 -0.838937 0
M  V30 2078 H 207.975 4.17505 0.0892469 0
M  V30 2079 N 208.412 0.89855 1.29475 0
M  V30 2080 C 209.66 0.522847 1.9522 0
M  V30 2081 C 209.981 -0.93371 1.71192 0
M  V30 2082 O 209.251 -1.65823 1.04305 0
M  V30 2083 H 207.831 0.190366 0.722336 0
M  V30 2084 H 210.493 1.14459 1.5775 0
M  V30 2085 H 209.589 0.704476 3.04045 0
M  V30 2086 N 209.89 -1.43072 0.660911 0
M  V30 2087 C 210.84 -2.27948 -0.04847 0
M  V30 2088 C 211.824 -1.40325 -0.787246 0
M  V30 2089 O 213.016 -1.63893 -0.668446 0
M  V30 2090 C 210.145 -3.28143 -1.00881 0
M  V30 2091 C 209.231 -4.23252 -0.268108 0
M  V30 2092 N 209.622 -5.00656 0.719528 0
M  V30 2093 C 207.92 -4.43092 -0.508493 0
M  V30 2094 C 208.621 -5.70019 1.15988 0
M  V30 2095 N 207.597 -5.41364 0.492584 0
M  V30 2096 H 211.399 -2.85213 0.709279 0
M  V30 2097 H 208.913 -1.54869 0.488822 0
M  V30 2098 H 210.91 -3.87736 -1.53188 0
M  V30 2099 H 209.57 -2.7244 -1.76654 0
M  V30 2100 H 210.581 -5.06115 1.09855 0
M  V30 2101 H 207.258 -3.98449 -1.24679 0
M  V30 2102 H 208.648 -6.4214 1.97751 0
M  V30 2103 N 211.368 -0.403325 -1.52352 0
M  V30 2104 C 212.614 0.174605 -2.02047 0
M  V30 2105 C 212.947 1.45282 -1.28867 0
M  V30 2106 O 212.222 1.90483 -0.393257 0
M  V30 2107 C 212.505 0.428238 -3.57545 0
M  V30 2108 C 212.358 -0.866248 -4.4138 0
M  V30 2109 C 213.677 1.21287 -4.23057 0
M  V30 2110 H 210.796 0.0619851 -0.734389 0
M  V30 2111 H 213.438 -0.53565 -1.82293 0
M  V30 2112 H 211.588 1.03327 -3.74507 0
M  V30 2113 H 213.26 -1.50265 -4.3614 0
M  V30 2114 H 211.503 -1.47851 -4.07827 0
M  V30 2115 H 212.174 -0.643249 -5.48239 0
M  V30 2116 H 214.65 0.700703 -4.10158 0
M  V30 2117 H 213.526 1.35909 -5.31808 0
M  V30 2118 H 213.787 2.23193 -3.81625 0
M  V30 2119 N 212.846 1.57033 -0.133567 0
M  V30 2120 C 214.094 1.953 0.519848 0
M  V30 2121 C 214.415 1.01866 1.66278 0
M  V30 2122 O 213.685 0.0776513 1.95746 0
M  V30 2123 H 212.265 0.721091 0.195032 0
M  V30 2124 H 214.927 1.93809 -0.205921 0
M  V30 2125 H 214.023 2.98695 0.904854 0
M  V30 2126 N 214.325 -0.140222 1.56975 0
M  V30 2127 C 215.273 -1.19207 1.99731 0
M  V30 2128 C 216.267 -1.44089 0.890777 0
M  V30 2129 O 217.473 -1.44301 1.07597 0
M  V30 2130 H 213.848 -0.40142 0.635898 0
M  V30 2131 H 215.819 -0.804813 2.87342 0
M  V30 2132 C 214.568 -2.51617 2.39967 0
M  V30 2133 H 213.891 -2.33303 3.24669 0
M  V30 2134 H 215.331 -3.23827 2.73701 0
M  V30 2135 C 213.79 -3.12654 1.25496 0
M  V30 2136 O 214.32 -3.97786 0.559371 0
M  V30 2137 N 212.526 -2.72206 1.01746 0
M  V30 2138 H 212.073 -2.03074 1.58489 0
M  V30 2139 H 212.031 -3.13377 0.253461 0
M  V30 2140 N 215.803 -1.52179 -0.40978 0
M  V30 2141 C 217.214 -1.58377 -0.988615 0
M  V30 2142 C 217.565 -0.423879 -1.91566 0
M  V30 2143 O 216.69 0.455844 -2.11544 0
M  V30 2144 C 217.285 -2.87044 -1.79976 0
M  V30 2145 C 215.844 -2.95722 -2.32863 0
M  V30 2146 C 214.991 -2.53309 -1.12828 0
M  V30 2147 H 217.942 -1.57558 -0.190039 0
M  V30 2148 H 217.963 -2.7236 -2.65707 0
M  V30 2149 H 217.475 -3.71444 -1.12478 0
M  V30 2150 H 215.576 -2.15814 -3.03735 0
M  V30 2151 H 215.689 -3.99951 -2.63773 0
M  V30 2152 H 214.053 -2.07142 -1.48204 0
M  V30 2153 H 214.836 -3.40082 -0.46897 0
M  V30 2154 N 217.281 0.66697 -1.42791 0
M  V30 2155 C 218.191 1.80962 -1.49299 0
M  V30 2156 C 219.207 1.69775 -0.381108 0
M  V30 2157 O 220.383 1.91188 -0.633188 0
M  V30 2158 C 217.448 3.17156 -1.40045 0
M  V30 2159 C 216.509 3.40242 -2.6179 0
M  V30 2160 C 215.742 4.69939 -2.52969 0
M  V30 2161 O 215.965 5.48372 -1.56985 0
M  V30 2162 O 214.899 4.94441 -3.43237 0
M  V30 2163 H 218.725 1.78427 -2.45759 0
M  V30 2164 H 216.31 0.823713 -1.24641 0
M  V30 2165 H 218.192 3.98413 -1.37276 0
M  V30 2166 H 216.867 3.20312 -0.467138 0
M  V30 2167 H 215.774 2.58802 -2.70134 0
M  V30 2168 H 217.107 3.41923 -3.54047 0
M  V30 2169 N 218.759 1.29093 0.90403 0
M  V30 2170 C 219.689 1.16401 2.02418 0
M  V30 2171 C 220.67 0.0593085 1.69997 0
M  V30 2172 O 221.855 0.238021 1.92736 0
M  V30 2173 C 218.985 0.835233 3.37107 0
M  V30 2174 C 217.939 1.89578 3.83724 0
M  V30 2175 C 217.265 1.42041 5.15489 0
M  V30 2176 C 218.565 3.30394 4.04521 0
M  V30 2177 H 220.259 2.10109 2.13295 0
M  V30 2178 H 217.805 1.01157 1.02486 0
M  V30 2179 H 219.758 0.733169 4.14973 0
M  V30 2180 H 218.482 -0.137543 3.2631 0
M  V30 2181 H 217.141 1.98715 3.08071 0
M  V30 2182 H 216.789 0.436426 5.01103 0
M  V30 2183 H 216.489 2.12964 5.4765 0
M  V30 2184 H 218.013 1.33176 5.959 0
M  V30 2185 H 219.427 3.24123 4.72882 0
M  V30 2186 H 217.824 3.99237 4.48029 0
M  V30 2187 H 218.894 3.73692 3.09002 0
M  V30 2188 N 220.237 -1.11381 1.11499 0
M  V30 2189 C 221.2 -2.15622 0.777153 0
M  V30 2190 C 222.2 -1.59504 -0.203779 0
M  V30 2191 O 223.39 -1.74188 0.020782 0
M  V30 2192 C 220.522 -3.40556 0.153116 0
M  V30 2193 H 221.715 -2.47021 1.70061 0
M  V30 2194 H 219.268 -1.26577 0.916952 0
M  V30 2195 H 220.003 -3.14767 -0.780536 0
M  V30 2196 H 219.788 -3.8257 0.859238 0
M  V30 2197 H 221.278 -4.17546 -0.0671044 0
M  V30 2198 N 221.715 -0.905404 -1.28997 0
M  V30 2199 C 222.961 -0.535039 -1.95615 0
M  V30 2200 C 223.294 0.917404 -1.71165 0
M  V30 2201 O 222.569 1.65123 -1.02785 0
M  V30 2202 C 222.852 -0.834918 -3.50287 0
M  V30 2203 C 222.705 -2.33948 -3.84172 0
M  V30 2204 C 224.024 -0.325318 -4.38896 0
M  V30 2205 H 221.143 -0.195861 -0.710498 0
M  V30 2206 H 223.785 -1.13313 -1.52513 0
M  V30 2207 H 221.935 -0.325904 -3.87131 0
M  V30 2208 H 223.607 -2.91847 -3.57243 0
M  V30 2209 H 221.85 -2.79789 -3.31513 0
M  V30 2210 H 222.521 -2.49987 -4.92149 0
M  V30 2211 H 224.997 -0.761256 -4.09077 0
M  V30 2212 H 223.873 -0.564295 -5.45992 0
M  V30 2213 H 224.134 0.774144 -4.35269 0
M  V30 2214 N 223.193 1.4272 -0.668489 0
M  V30 2215 C 224.423 2.05668 -0.196063 0
M  V30 2216 C 224.831 1.5028 1.14946 0
M  V30 2217 O 224.174 0.6348 1.72383 0
M  V30 2218 C 224.236 3.59469 -0.0468879 0
M  V30 2219 C 223.9 4.37518 -1.32012 0
M  V30 2220 C 224.897 4.68584 -2.25222 0
M  V30 2221 C 222.582 4.77266 -1.56596 0
M  V30 2222 C 224.576 5.38326 -3.41297 0
M  V30 2223 C 222.263 5.4675 -2.72962 0
M  V30 2224 C 223.261 5.77204 -3.65137 0
M  V30 2225 O 222.949 6.45264 -4.79468 0
M  V30 2226 H 222.681 0.669382 -0.0943599 0
M  V30 2227 H 225.235 1.83954 -0.913788 0
M  V30 2228 H 223.465 3.79817 0.726357 0
M  V30 2229 H 225.154 4.04071 0.384852 0
M  V30 2230 H 225.92 4.38382 -2.07477 0
M  V30 2231 H 221.799 4.52959 -0.857249 0
M  V30 2232 H 225.343 5.62014 -4.13263 0
M  V30 2233 H 221.24 5.76369 -2.90635 0
M  V30 2234 H 222.008 6.63753 -4.78931 0
M  V30 2235 N 224.671 0.411399 1.52136 0
M  V30 2236 C 225.896 -0.165538 2.06738 0
M  V30 2237 C 226.321 -1.379 1.27926 0
M  V30 2238 O 225.679 -1.78628 0.310114 0
M  V30 2239 C 225.727 -0.492124 3.57226 0
M  V30 2240 O 224.831 -1.58276 3.80818 0
M  V30 2241 H 224.172 -0.0132132 0.663869 0
M  V30 2242 H 226.702 0.585253 1.96051 0
M  V30 2243 H 226.712 -0.750104 4.01045 0
M  V30 2244 H 225.387 0.394922 4.14021 0
M  V30 2245 H 223.964 -1.31677 3.48877 0
M  V30 2246 N 226.149 -1.5696 0.141893 0
M  V30 2247 C 227.374 -2.00754 -0.520838 0
M  V30 2248 C 227.799 -1.0213 -1.57959 0
M  V30 2249 O 227.157 0.00371324 -1.813 0
M  V30 2250 C 227.205 -3.43318 -1.10294 0
M  V30 2251 O 226.309 -3.47679 -2.21795 0
M  V30 2252 H 225.65 -0.651564 -0.127908 0
M  V30 2253 H 228.18 -2.03221 0.23712 0
M  V30 2254 H 228.19 -3.82012 -1.43287 0
M  V30 2255 H 226.865 -4.14608 -0.327574 0
M  V30 2256 H 225.442 -3.20824 -1.9007 0
M  V30 2257 N 227.627 0.131896 -1.57047 0
M  V30 2258 C 228.852 0.860418 -1.8871 0
M  V30 2259 C 229.277 1.73251 -0.73251 0
M  V30 2260 O 228.635 1.785 0.317429 0
M  V30 2261 C 228.683 1.68047 -3.19049 0
M  V30 2262 O 227.787 2.7862 -3.04047 0
M  V30 2263 H 227.128 0.238743 -0.619595 0
M  V30 2264 H 229.658 0.118169 -2.04258 0
M  V30 2265 H 229.668 2.07238 -3.51449 0
M  V30 2266 H 228.343 1.04018 -4.02682 0
M  V30 2267 H 226.92 2.42726 -2.83088 0
M  V30 2268 N 229.106 1.52395 0.401703 0
M  V30 2269 C 230.053 1.76268 1.48991 0
M  V30 2270 C 231.023 0.605386 1.54675 0
M  V30 2271 O 232.208 0.843742 1.7113 0
M  V30 2272 C 229.348 1.92592 2.86361 0
M  V30 2273 C 228.461 3.20259 2.89928 0
M  V30 2274 C 227.596 3.26972 4.18644 0
M  V30 2275 C 226.635 4.48812 4.16214 0
M  V30 2276 N 225.772 4.52877 5.36514 0
M  V30 2277 H 230.612 2.6914 1.27935 0
M  V30 2278 H 228.149 1.33355 0.620871 0
M  V30 2279 H 230.107 2.0004 3.66115 0
M  V30 2280 H 228.737 1.03093 3.05895 0
M  V30 2281 H 227.789 3.21945 2.02621 0
M  V30 2282 H 229.101 4.10056 2.83999 0
M  V30 2283 H 228.255 3.33533 5.06794 0
M  V30 2284 H 226.994 2.35126 4.27278 0
M  V30 2285 H 225.999 4.4239 3.26453 0
M  V30 2286 H 227.224 5.41961 4.09213 0
M  V30 2287 H 225.17 3.63917 5.45802 0
M  V30 2288 H 225.087 5.36529 5.32609 0
M  V30 2289 H 226.355 4.63676 6.26597 0
M  V30 2290 N 230.584 -0.659388 1.43143 0
M  V30 2291 C 231.831 -1.41935 1.44433 0
M  V30 2292 C 232.159 -1.94387 0.0663522 0
M  V30 2293 O 231.414 -1.72314 -0.927706 0
M  V30 2294 C 231.713 -2.62206 2.42864 0
M  V30 2295 C 231.379 -2.28208 3.88886 0
M  V30 2296 C 230.041 -2.18647 4.28657 0
M  V30 2297 C 232.393 -2.00887 4.8093 0
M  V30 2298 C 229.721 -1.79914 5.58433 0
M  V30 2299 C 232.073 -1.63653 6.11065 0
M  V30 2300 C 230.737 -1.52614 6.49819 0
M  V30 2301 H 230.007 -0.519376 0.528517 0
M  V30 2302 H 232.654 -0.750453 1.76183 0
M  V30 2303 H 230.959 -3.34199 2.04495 0
M  V30 2304 H 232.656 -3.2041 2.41119 0
M  V30 2305 H 229.246 -2.36557 3.57406 0
M  V30 2306 H 233.43 -2.07198 4.5098 0
M  V30 2307 H 228.686 -1.69948 5.87305 0
M  V30 2308 H 232.86 -1.41543 6.81864 0
M  V30 2309 H 230.487 -1.22371 7.50286 0
M  V30 2310 N 232.062 -1.29571 -0.897171 0
M  V30 2311 C 233.025 -1.14913 -1.98312 0
M  V30 2312 C 234.025 -0.0838629 -1.60581 0
M  V30 2313 O 235.215 -0.331006 -1.71026 0
M  V30 2314 C 232.347 -0.757835 -3.3237 0
M  V30 2315 H 233.54 -2.11377 -2.12743 0
M  V30 2316 H 231.093 -1.12793 -1.08201 0
M  V30 2317 H 231.828 0.206837 -3.2364 0
M  V30 2318 H 231.613 -1.52755 -3.61121 0
M  V30 2319 H 233.103 -0.678408 -4.12053 0
M  V30 2320 N 233.54 1.10788 -1.12088 0
M  V30 2321 C 234.786 1.82942 -0.875226 0
M  V30 2322 C 235.119 1.84779 0.597538 0
M  V30 2323 O 234.394 1.30578 1.44152 0
M  V30 2324 C 234.677 3.29789 -1.44606 0
M  V30 2325 C 234.53 3.36307 -2.98693 0
M  V30 2326 C 235.849 4.26064 -1.10261 0
M  V30 2327 H 232.968 0.664195 -0.319397 0
M  V30 2328 H 235.61 1.29867 -1.38689 0
M  V30 2329 H 233.76 3.75118 -1.01089 0
M  V30 2330 H 235.432 2.99487 -3.50864 0
M  V30 2331 H 233.675 2.76318 -3.34411 0
M  V30 2332 H 234.346 4.39694 -3.33726 0
M  V30 2333 H 236.822 3.88951 -1.4784 0
M  V30 2334 H 235.698 5.27183 -1.52869 0
M  V30 2335 H 235.959 4.42098 -0.0142953 0
M  V30 2336 N 235.018 0.912232 1.28515 0
M  V30 2337 C 236.434 0.610159 1.47476 0
M  V30 2338 C 236.634 -0.844955 1.82928 0
M  V30 2339 O 235.69 -1.62416 1.93332 0
M  V30 2340 C 237.003 1.54675 2.57868 0
M  V30 2341 C 238.551 1.55331 2.71738 0
M  V30 2342 C 239.026 2.47649 3.85272 0
M  V30 2343 N 240.517 2.45767 3.92623 0
M  V30 2344 C 241.252 3.13896 4.79851 0
M  V30 2345 N 240.748 3.9135 5.71679 0
M  V30 2346 N 242.541 3.02991 4.73448 0
M  V30 2347 H 234.692 1.85318 1.03783 0
M  V30 2348 H 236.955 0.794777 0.516753 0
M  V30 2349 H 236.661 2.5841 2.38574 0
M  V30 2350 H 236.535 1.27671 3.54937 0
M  V30 2351 H 238.922 0.52335 2.90422 0
M  V30 2352 H 239.003 1.86378 1.75205 0
M  V30 2353 H 238.647 3.50745 3.67342 0
M  V30 2354 H 238.577 2.13904 4.81199 0
M  V30 2355 H 241.068 1.89503 3.26951 0
M  V30 2356 H 241.381 4.40359 6.35062 0
M  V30 2357 H 239.726 3.95455 5.71524 0
M  V30 2358 H 242.917 2.41987 4.007 0
M  V30 2359 H 243.09 3.5636 5.41213 0
M  V30 2360 N 236.496 -1.42363 0.676048 0
M  V30 2361 C 237.744 -2.01123 0.198437 0
M  V30 2362 C 238.065 -1.53731 -1.19966 0
M  V30 2363 O 237.335 -0.759518 -1.80577 0
M  V30 2364 H 235.915 -0.743678 0.0703721 0
M  V30 2365 H 238.577 -1.74263 0.872837 0
M  V30 2366 H 237.673 -3.11454 0.200686 0
M  V30 2367 N 237.974 -0.419461 -1.51915 0
M  V30 2368 C 238.904 0.391813 -2.30189 0
M  V30 2369 C 239.885 1.03699 -1.34836 0
M  V30 2370 O 241.07 1.04403 -1.63748 0
M  V30 2371 C 238.2 1.50312 -3.13087 0
M  V30 2372 C 237.154 0.9824 -4.16573 0
M  V30 2373 C 236.48 2.18809 -4.8788 0
M  V30 2374 C 237.78 0.0292356 -5.22292 0
M  V30 2375 H 239.474 -0.26135 -2.98257 0
M  V30 2376 H 237.02 -0.127134 -1.43438 0
M  V30 2377 H 238.973 2.07773 -3.66617 0
M  V30 2378 H 237.697 2.18431 -2.42807 0
M  V30 2379 H 236.356 0.430119 -3.64068 0
M  V30 2380 H 236.004 2.85507 -4.14119 0
M  V30 2381 H 235.704 1.84615 -5.57845 0
M  V30 2382 H 237.228 2.76858 -5.44226 0
M  V30 2383 H 238.642 0.512976 -5.71 0
M  V30 2384 H 237.039 -0.2244 -5.9968 0
M  V30 2385 H 238.109 -0.912931 -4.76228 0
M  V30 2386 N 239.452 1.56882 -0.150215 0
M  V30 2387 C 240.68 2.00593 0.506948 0
M  V30 2388 C 241.095 1.03033 1.58208 0
M  V30 2389 O 240.452 0.0278396 1.82479 0
M  V30 2390 C 240.503 3.44209 1.10465 0
M  V30 2391 O 240.224 4.3804 0.0724636 0
M  V30 2392 C 241.725 4.03214 1.84211 0
M  V30 2393 H 238.945 0.65795 0.13169 0
M  V30 2394 H 241.489 2.03018 -0.245743 0
M  V30 2395 H 239.644 3.42625 1.80795 0
M  V30 2396 H 240.058 5.22007 0.510793 0
M  V30 2397 H 241.532 5.0569 2.21318 0
M  V30 2398 H 242.009 3.44107 2.72923 0
M  V30 2399 H 242.615 4.08437 1.18572 0
M  V30 2400 N 240.93 -0.123565 1.57115 0
M  V30 2401 C 241.862 -1.17739 1.96648 0
M  V30 2402 C 242.875 -1.37906 0.865201 0
M  V30 2403 O 244.064 -1.37062 1.14351 0
M  V30 2404 C 241.164 -2.53821 2.24562 0
M  V30 2405 C 240.337 -2.54317 3.55867 0
M  V30 2406 C 239.396 -3.72112 3.72047 0
M  V30 2407 O 238.422 -3.55907 4.44206 0
M  V30 2408 N 239.624 -4.90498 3.10471 0
M  V30 2409 H 242.389 -0.841147 2.87654 0
M  V30 2410 H 239.95 -0.31289 1.58848 0
M  V30 2411 H 241.942 -3.31175 2.32606 0
M  V30 2412 H 240.512 -2.79645 1.39705 0
M  V30 2413 H 239.732 -1.62711 3.59053 0
M  V30 2414 H 241.02 -2.51701 4.42181 0
M  V30 2415 H 240.418 -5.06567 2.51806 0
M  V30 2416 H 238.975 -5.65544 3.24043 0
M  V30 2417 N 242.408 -1.52605 -0.393616 0
M  V30 2418 C 243.636 -1.71294 -1.16043 0
M  V30 2419 C 244.051 -0.429259 -1.83855 0
M  V30 2420 O 243.408 0.595921 -1.72496 0
M  V30 2421 C 243.459 -2.8593 -2.21193 0
M  V30 2422 O 243.18 -4.09329 -1.56146 0
M  V30 2423 C 244.681 -3.16259 -3.10636 0
M  V30 2424 H 241.901 -0.573641 -0.348104 0
M  V30 2425 H 244.445 -1.99234 -0.461092 0
M  V30 2426 H 242.6 -2.60465 -2.86769 0
M  V30 2427 H 243.014 -4.73323 -2.25978 0
M  V30 2428 H 244.488 -3.99946 -3.80456 0
M  V30 2429 H 244.965 -2.3045 -3.73884 0
M  V30 2430 H 245.571 -3.43547 -2.50711 0
M  V30 2431 N 243.887 0.651787 -1.4349 0
M  V30 2432 C 244.85 1.74647 -1.48429 0
M  V30 2433 C 245.85 1.56513 -0.368817 0
M  V30 2434 O 247.04 1.62385 -0.630623 0
M  V30 2435 C 244.172 3.13533 -1.33827 0
M  V30 2436 H 245.365 1.71649 -2.4592 0
M  V30 2437 H 242.918 0.863573 -1.30277 0
M  V30 2438 H 243.653 3.22142 -0.37349 0
M  V30 2439 H 243.438 3.28101 -2.14691 0
M  V30 2440 H 244.928 3.93356 -1.40218 0
M  V30 2441 N 245.365 1.30045 0.890287 0
M  V30 2442 C 246.328 1.15963 1.977 0
M  V30 2443 C 247.328 0.0923777 1.60534 0
M  V30 2444 O 248.518 0.340071 1.70848 0
M  V30 2445 C 245.65 0.775451 3.31963 0
M  V30 2446 H 246.843 2.12502 2.11619 0
M  V30 2447 H 244.396 1.13366 1.07601 0
M  V30 2448 H 245.131 -0.189671 3.23745 0
M  V30 2449 H 244.916 1.54668 3.60306 0
M  V30 2450 H 246.406 0.700251 4.11687 0
M  V30 2451 N 246.843 -1.10192 1.12674 0
M  V30 2452 C 248.259 -1.34235 0.863317 0
M  V30 2453 C 248.459 -1.95062 -0.505277 0
M  V30 2454 O 247.515 -2.19192 -1.25345 0
M  V30 2455 C 248.828 -2.2616 1.98172 0
M  V30 2456 C 250.376 -2.3969 2.0129 0
M  V30 2457 C 250.851 -3.34946 3.1237 0
M  V30 2458 N 252.342 -3.42515 3.11829 0
M  V30 2459 C 253.077 -4.16199 3.94419 0
M  V30 2460 N 252.573 -4.92747 4.87004 0
M  V30 2461 N 254.366 -4.11843 3.82547 0
M  V30 2462 H 246.517 -0.690798 2.00853 0
M  V30 2463 H 248.78 -0.366774 0.874174 0
M  V30 2464 H 248.486 -1.8868 2.96804 0
M  V30 2465 H 248.36 -3.26488 1.88906 0
M  V30 2466 H 250.747 -2.76438 1.03276 0
M  V30 2467 H 250.828 -1.39169 2.14629 0
M  V30 2468 H 250.472 -2.98923 4.10619 0
M  V30 2469 H 250.402 -4.35353 2.96269 0
M  V30 2470 H 252.893 -2.87926 2.44759 0
M  V30 2471 H 253.206 -5.46376 5.46528 0
M  V30 2472 H 251.551 -4.91862 4.91016 0
M  V30 2473 H 254.742 -3.51136 3.0955 0
M  V30 2474 H 254.915 -4.69007 4.47142 0
M  V30 2475 N 248.321 -0.919034 -1.28029 0
M  V30 2476 C 249.598 -0.473668 -1.89778 0
M  V30 2477 C 249.978 1.04783 -1.83259 0
M  V30 2478 O 249.326 1.8982 -1.27202 0
M  V30 2479 C 249.536 -1.00998 -3.34066 0
M  V30 2480 C 250.884 -1.06525 -4.1102 0
M  V30 2481 O 251.908 -0.958996 -3.43048 0
M  V30 2482 O 250.767 -1.22776 -5.3253 0
M  V30 2483 H 247.861 -0.15098 -0.813101 0
M  V30 2484 H 250.407 -1.01016 -1.36359 0
M  V30 2485 H 249.179 -2.05392 -3.33061 0
M  V30 2486 H 248.802 -0.454626 -3.94992 0
M  V30 2487 N 249.799 1.42003 -0.683588 0
M  V30 2488 C 250.729 2.33487 -0.024866 0
M  V30 2489 C 251.71 1.51163 0.779975 0
M  V30 2490 O 252.895 1.79739 0.735362 0
M  V30 2491 C 250.025 3.3487 0.920836 0
M  V30 2492 C 248.979 4.27414 0.223958 0
M  V30 2493 C 248.305 5.19074 1.2832 0
M  V30 2494 C 249.605 5.14445 -0.90242 0
M  V30 2495 H 251.299 2.88819 -0.788921 0
M  V30 2496 H 248.845 1.38873 -0.38083 0
M  V30 2497 H 250.798 3.97787 1.39081 0
M  V30 2498 H 249.522 2.77861 1.71642 0
M  V30 2499 H 248.181 3.65904 -0.225864 0
M  V30 2500 H 247.829 4.58387 2.071 0
M  V30 2501 H 247.529 5.81822 0.821995 0
M  V30 2502 H 249.053 5.84867 1.75392 0
M  V30 2503 H 250.467 5.70998 -0.513272 0
M  V30 2504 H 248.864 5.86072 -1.28997 0
M  V30 2505 H 249.934 4.52322 -1.74737 0
M  V30 2506 N 251.277 0.427512 1.51691 0
M  V30 2507 C 252.24 -0.377132 2.26076 0
M  V30 2508 C 253.24 -0.958089 1.29141 0
M  V30 2509 O 254.43 -0.83408 1.52934 0
M  V30 2510 C 251.562 -1.53262 3.04506 0
M  V30 2511 H 252.755 0.27464 2.9864 0
M  V30 2512 H 250.308 0.180445 1.55255 0
M  V30 2513 H 251.043 -2.22072 2.36335 0
M  V30 2514 H 250.828 -1.12232 3.75694 0
M  V30 2515 H 252.318 -2.10135 3.60878 0
M  V30 2516 N 252.755 -1.56801 0.158532 0
M  V30 2517 C 254.166 -1.83189 -0.360366 0
M  V30 2518 C 254.517 -1.07778 -1.63946 0
M  V30 2519 O 253.642 -0.326718 -2.13919 0
M  V30 2520 C 254.237 -3.32297 -0.660595 0
M  V30 2521 C 252.796 -3.59227 -1.12398 0
M  V30 2522 C 251.943 -2.76877 -0.153097 0
M  V30 2523 H 254.894 -1.54008 0.383031 0
M  V30 2524 H 254.915 -3.4908 -1.51405 0
M  V30 2525 H 254.427 -3.87156 0.270527 0
M  V30 2526 H 252.528 -3.09766 -2.07064 0
M  V30 2527 H 252.641 -4.67632 -1.04197 0
M  V30 2528 H 251.005 -2.46319 -0.647983 0
M  V30 2529 H 251.788 -3.34511 0.77182 0
M  V30 2530 N 254.233 0.115231 -1.57178 0
M  V30 2531 C 255.163 1.1423 -2.03651 0
M  V30 2532 C 256.144 1.42967 -0.921655 0
M  V30 2533 O 257.329 1.53343 -1.19162 0
M  V30 2534 C 254.459 2.4675 -2.44401 0
M  V30 2535 C 253.413 2.32467 -3.59365 0
M  V30 2536 C 252.739 3.69984 -3.86026 0
M  V30 2537 C 254.039 1.78203 -4.90959 0
M  V30 2538 H 255.733 0.755749 -2.89705 0
M  V30 2539 H 253.279 0.362093 -1.39373 0
M  V30 2540 H 255.232 3.18854 -2.75517 0
M  V30 2541 H 253.956 2.87302 -1.55322 0
M  V30 2542 H 252.615 1.62811 -3.28463 0
M  V30 2543 H 252.263 4.08028 -2.94147 0
M  V30 2544 H 251.963 3.61279 -4.63412 0
M  V30 2545 H 253.487 4.43587 -4.19599 0
M  V30 2546 H 254.901 2.40128 -5.20587 0
M  V30 2547 H 253.298 1.8031 -5.72371 0
M  V30 2548 H 254.368 0.739876 -4.79222 0
M  V30 2549 N 255.711 1.52812 0.385517 0
M  V30 2550 C 256.959 1.67694 1.12797 0
M  V30 2551 C 257.28 0.421115 1.90399 0
M  V30 2552 O 256.55 -0.564551 1.87589 0
M  V30 2553 H 255.13 0.618155 0.419396 0
M  V30 2554 H 257.792 1.89938 0.436972 0
M  V30 2555 H 256.888 2.52896 1.82894 0
M  V30 2556 N 257.189 -0.644168 1.43834 0
M  V30 2557 C 258.438 -1.39985 1.45214 0
M  V30 2558 C 258.751 -1.95421 0.0835494 0
M  V30 2559 O 259.957 -2.71488 -0.0251748 0
M  V30 2560 C 258.413 -2.53384 2.55587 0
M  V30 2561 C 258.021 -2.04517 3.98594 0
M  V30 2562 C 259.765 -3.30685 2.66172 0
M  V30 2563 C 257.672 -3.1518 5.00416 0
M  V30 2564 H 256.602 -0.526005 0.540218 0
M  V30 2565 H 259.253 -0.694367 1.69855 0
M  V30 2566 H 257.635 -3.26446 2.24163 0
M  V30 2567 H 258.809 -1.38405 4.39523 0
M  V30 2568 H 257.124 -1.40068 3.92135 0
M  V30 2569 H 259.721 -4.13158 3.39418 0
M  V30 2570 H 260.064 -3.79312 1.71546 0
M  V30 2571 H 260.597 -2.64708 2.96942 0
M  V30 2572 H 257.336 -2.71511 5.96625 0
M  V30 2573 H 256.856 -3.79974 4.64091 0
M  V30 2574 H 258.535 -3.80166 5.23529 0
M  V30 2575 N 258.668 -1.30515 -0.883378 0
M  V30 2576 C 259.896 -1.22359 -1.66841 0
M  V30 2577 C 260.311 0.213296 -1.87591 0
M  V30 2578 O 259.668 1.14075 -1.42454 0
M  V30 2579 C 259.719 -1.95011 -3.04389 0
M  V30 2580 O 259.44 -3.3309 -2.84575 0
M  V30 2581 C 260.941 -1.93532 -3.98824 0
M  V30 2582 H 258.161 -0.423371 -0.520575 0
M  V30 2583 H 260.705 -1.72167 -1.10357 0
M  V30 2584 H 258.86 -1.48997 -3.57601 0
M  V30 2585 H 259.274 -3.69907 -3.71846 0
M  V30 2586 H 260.748 -2.48902 -4.92699 0
M  V30 2587 H 261.225 -0.914627 -4.29571 0
M  V30 2588 H 261.831 -2.39364 -3.51547 0
M  V30 2589 N 260.146 1.09593 -1.13257 0
M  V30 2590 C 261.392 1.82003 -0.89458 0
M  V30 2591 C 261.725 1.85402 0.577906 0
M  V30 2592 O 261 1.32099 1.42759 0
M  V30 2593 C 261.283 3.28237 -1.48096 0
M  V30 2594 C 261.136 3.3312 -3.02244 0
M  V30 2595 C 262.455 4.24871 -1.14774 0
M  V30 2596 H 259.574 0.66077 -0.326424 0
M  V30 2597 H 262.216 1.28389 -1.40058 0
M  V30 2598 H 260.366 3.74024 -1.05062 0
M  V30 2599 H 262.038 2.95748 -3.54021 0
M  V30 2600 H 260.281 2.72756 -3.37323 0
M  V30 2601 H 260.952 4.3613 -3.38371 0
M  V30 2602 H 263.428 3.87361 -1.51957 0
M  V30 2603 H 262.304 5.25532 -1.58452 0
M  V30 2604 H 262.565 4.42058 -0.0611849 0
M  V30 2605 N 261.624 0.925811 1.2754 0
M  V30 2606 C 262.572 0.413897 2.28888 0
M  V30 2607 C 263.566 -0.500779 1.61829 0
M  V30 2608 O 264.772 -0.38069 1.75928 0
M  V30 2609 H 261.147 0.115274 0.743112 0
M  V30 2610 H 263.118 1.28151 2.69481 0
M  V30 2611 C 261.867 -0.319792 3.46226 0
M  V30 2612 H 261.19 0.374846 3.98039 0
M  V30 2613 H 262.63 -0.642435 4.19105 0
M  V30 2614 C 261.089 -1.53209 3.00048 0
M  V30 2615 O 261.619 -2.6309 3.03557 0
M  V30 2616 N 259.825 -1.38326 2.55566 0
M  V30 2617 H 259.372 -0.489292 2.5291 0
M  V30 2618 H 259.33 -2.19564 2.25031 0
M  V30 2619 N 263.102 -1.41638 0.69111 0
M  V30 2620 C 264.35 -2.00902 0.219758 0
M  V30 2621 C 264.671 -1.54994 -1.18329 0
M  V30 2622 O 263.941 -0.778628 -1.79762 0
M  V30 2623 H 262.521 -0.74289 0.0782558 0
M  V30 2624 H 265.183 -1.73327 0.891271 0
M  V30 2625 H 264.279 -3.11224 0.233708 0
M  V30 2626 N 264.58 -0.43555 -1.51462 0
M  V30 2627 C 265.81 0.130053 -2.0619 0
M  V30 2628 C 266.218 1.37164 -1.30317 0
M  V30 2629 O 265.561 1.80225 -0.355598 0
M  V30 2630 C 265.623 0.519418 -3.55728 0
M  V30 2631 C 265.287 -0.615119 -4.52841 0
M  V30 2632 C 266.284 -1.48671 -4.9819 0
M  V30 2633 C 263.969 -0.795341 -4.95963 0
M  V30 2634 C 265.963 -2.52324 -5.8533 0
M  V30 2635 C 263.65 -1.83514 -5.82894 0
M  V30 2636 C 264.648 -2.69748 -6.27475 0
M  V30 2637 O 264.336 -3.71944 -7.1268 0
M  V30 2638 H 264.068 0.0121612 -0.675891 0
M  V30 2639 H 266.622 -0.6129 -1.96043 0
M  V30 2640 H 264.852 1.31505 -3.63653 0
M  V30 2641 H 266.541 1.01597 -3.92979 0
M  V30 2642 H 267.307 -1.359 -4.65571 0
M  V30 2643 H 263.186 -0.133713 -4.60806 0
M  V30 2644 H 266.73 -3.19665 -6.20048 0
M  V30 2645 H 262.627 -1.96306 -6.14926 0
M  V30 2646 H 263.395 -3.68503 -7.30854 0
M  V30 2647 N 266.058 1.56714 -0.166846 0
M  V30 2648 C 267.298 1.98641 0.481763 0
M  V30 2649 C 267.662 1.05038 1.6072 0
M  V30 2650 O 268.863 1.36087 2.31805 0
M  V30 2651 C 267.134 3.44362 0.956517 0
M  V30 2652 S 268.693 4.08317 1.60694 0
M  V30 2653 H 265.511 0.693873 0.155116 0
M  V30 2654 H 268.113 1.93719 -0.263251 0
M  V30 2655 H 266.817 4.10204 0.126936 0
M  V30 2656 H 266.348 3.53041 1.73568 0
M  V30 2657 H 268.363 4.02999 2.89494 0
M  V30 2658 N 267.536 -0.106894 1.57237 0
M  V30 2659 C 268.947 -0.662723 1.74542 0
M  V30 2660 C 269.298 -1.7971 0.787319 0
M  V30 2661 O 268.423 -2.16368 -0.0369636 0
M  V30 2662 C 269.018 -1.20896 3.16496 0
M  V30 2663 C 267.577 -1.71096 3.35266 0
M  V30 2664 C 266.724 -0.615642 2.7038 0
M  V30 2665 H 269.675 0.119106 1.58252 0
M  V30 2666 H 269.696 -2.07847 3.18716 0
M  V30 2667 H 269.208 -0.383122 3.86204 0
M  V30 2668 H 267.309 -2.56119 2.70618 0
M  V30 2669 H 267.422 -1.81208 4.43509 0
M  V30 2670 H 265.786 -1.05222 2.31949 0
M  V30 2671 H 266.569 0.199419 3.4272 0
M  V30 2672 N 269.014 -1.53014 -0.377408 0
M  V30 2673 C 270.262 -1.6829 -1.11906 0
M  V30 2674 C 270.583 -0.431206 -1.90173 0
M  V30 2675 O 269.853 0.554595 -1.87886 0
M  V30 2676 H 268.433 -0.620371 -0.416112 0
M  V30 2677 H 271.095 -1.90167 -0.426893 0
M  V30 2678 H 270.191 -2.53862 -1.8155 0
M  V30 2679 N 270.492 0.636531 -1.44174 0
M  V30 2680 C 271.741 1.39213 -1.45954 0
M  V30 2681 C 272.054 1.95374 -0.0939119 0
M  V30 2682 O 273.26 2.71498 0.0107767 0
M  V30 2683 C 271.716 2.52025 -2.56927 0
M  V30 2684 C 271.324 2.024 -3.99673 0
M  V30 2685 C 273.068 3.29269 -2.67922 0
M  V30 2686 C 270.975 3.12521 -5.0208 0
M  V30 2687 H 269.905 0.523132 -0.542999 0
M  V30 2688 H 272.556 0.685349 -1.70221 0
M  V30 2689 H 270.938 3.25253 -2.25891 0
M  V30 2690 H 272.112 1.36073 -4.40251 0
M  V30 2691 H 270.427 1.37987 -3.92872 0
M  V30 2692 H 273.024 4.11352 -3.41605 0
M  V30 2693 H 273.367 3.78397 -1.73555 0
M  V30 2694 H 273.9 2.63129 -2.98342 0
M  V30 2695 H 270.639 2.68343 -5.98057 0
M  V30 2696 H 270.159 3.77507 -4.66099 0
M  V30 2697 H 271.838 3.77385 -5.25538 0
M  V30 2698 N 271.97 1.30982 0.876444 0
M  V30 2699 C 273.216 1.20474 1.63138 0
M  V30 2700 C 273.549 -0.238096 1.92735 0
M  V30 2701 O 272.824 -1.1692 1.55435 0
M  V30 2702 C 273.107 2.04244 2.96574 0
M  V30 2703 C 272.96 3.56793 2.73896 0
M  V30 2704 C 274.279 1.88684 3.97601 0
M  V30 2705 H 271.398 0.439001 0.591985 0
M  V30 2706 H 274.04 1.60704 1.01361 0
M  V30 2707 H 272.19 1.70063 3.493 0
M  V30 2708 H 273.862 4.01077 2.27892 0
M  V30 2709 H 272.105 3.80548 2.08245 0
M  V30 2710 H 272.776 4.10706 3.68815 0
M  V30 2711 H 275.252 2.18584 3.54062 0
M  V30 2712 H 274.128 2.4961 4.88862 0
M  V30 2713 H 274.389 0.848343 4.33884 0
M  V30 2714 N 273.449 -1.08991 1.13837 0
M  V30 2715 C 274.396 -2.15748 0.819835 0
M  V30 2716 C 275.366 -1.64636 -0.220026 0
M  V30 2717 O 276.551 -1.90582 -0.0912757 0
M  V30 2718 C 273.691 -3.4382 0.296913 0
M  V30 2719 C 272.804 -4.0881 1.39636 0
M  V30 2720 C 271.939 -5.24655 0.831314 0
M  V30 2721 C 270.978 -5.81575 1.90886 0
M  V30 2722 N 270.115 -6.88774 1.36142 0
M  V30 2723 H 274.955 -2.42338 1.73426 0
M  V30 2724 H 272.492 -1.18935 0.865613 0
M  V30 2725 H 274.45 -4.17193 -0.0244339 0
M  V30 2726 H 273.08 -3.17535 -0.580628 0
M  V30 2727 H 272.132 -3.33258 1.83422 0
M  V30 2728 H 273.444 -4.47141 2.21058 0
M  V30 2729 H 272.598 -6.04942 0.461515 0
M  V30 2730 H 271.337 -4.87698 -0.013932 0
M  V30 2731 H 270.342 -4.99946 2.28767 0
M  V30 2732 H 271.567 -6.20592 2.75758 0
M  V30 2733 H 269.513 -6.53788 0.538254 0
M  V30 2734 H 269.43 -7.25898 2.11208 0
M  V30 2735 H 270.698 -7.72806 1.01933 0
M  V30 2736 N 274.927 -0.932562 -1.27047 0
M  V30 2737 C 276.155 -0.592031 -1.98249 0
M  V30 2738 C 276.57 0.831062 -1.69525 0
M  V30 2739 O 275.927 1.55299 -0.958561 0
M  V30 2740 C 275.978 -0.814279 -3.5221 0
M  V30 2741 O 275.699 -2.18139 -3.7993 0
M  V30 2742 C 277.2 -0.483121 -4.4066 0
M  V30 2743 H 274.42 -0.223896 -0.632544 0
M  V30 2744 H 276.964 -1.25091 -1.61779 0
M  V30 2745 H 275.119 -0.20213 -3.86872 0
M  V30 2746 H 275.533 -2.235 -4.74498 0
M  V30 2747 H 277.007 -0.689298 -5.47679 0
M  V30 2748 H 277.484 0.581546 -4.35333 0
M  V30 2749 H 278.09 -1.07362 -4.11526 0
M  V30 2750 N 276.405 1.4127 -0.698611 0
M  V30 2751 C 277.816 1.84187 -0.305289 0
M  V30 2752 C 278.167 1.58449 1.15708 0
M  V30 2753 O 277.292 1.05651 1.88856 0
M  V30 2754 C 277.887 3.3435 -0.547314 0
M  V30 2755 C 276.446 3.75826 -0.207878 0
M  V30 2756 C 275.593 2.64647 -0.828099 0
M  V30 2757 H 278.544 1.30778 -0.89904 0
M  V30 2758 H 278.565 3.8001 0.192998 0
M  V30 2759 H 278.077 3.53051 -1.61172 0
M  V30 2760 H 276.178 3.62725 0.852143 0
M  V30 2761 H 276.291 4.74462 -0.665021 0
M  V30 2762 H 274.655 2.53395 -0.257458 0
M  V30 2763 H 275.438 2.86165 -1.89643 0
M  V30 2764 N 277.883 0.443576 1.51229 0
M  V30 2765 C 278.816 -0.410089 2.24485 0
M  V30 2766 C 279.794 -1.01949 1.26669 0
M  V30 2767 O 280.978 -1.06075 1.55821 0
M  V30 2768 C 278.105 -1.57211 3.00004 0
M  V30 2769 C 277.151 -1.08279 4.12526 0
M  V30 2770 S 277.984 -0.0197476 5.35496 0
M  V30 2771 C 279.14 -1.18629 6.14555 0
M  V30 2772 H 279.373 0.211832 2.96544 0
M  V30 2773 H 276.906 0.228156 1.52705 0
M  V30 2774 H 278.864 -2.23825 3.44111 0
M  V30 2775 H 277.525 -2.16547 2.27522 0
M  V30 2776 H 276.718 -1.95193 4.64667 0
M  V30 2777 H 276.32 -0.494797 3.70713 0
M  V30 2778 H 278.612 -2.10344 6.4402 0
M  V30 2779 H 279.555 -0.70472 7.04584 0
M  V30 2780 H 279.963 -1.42768 5.46148 0
M  V30 2781 N 279.361 -1.56624 0.175154 0
M  V30 2782 C 280.607 -1.98061 -0.462976 0
M  V30 2783 C 280.962 -1.05949 -1.60601 0
M  V30 2784 O 280.255 -0.0999027 -1.91339 0
M  V30 2785 C 280.449 -3.43419 -0.989864 0
M  V30 2786 C 280.278 -4.49587 0.100583 0
M  V30 2787 C 279.048 -5.02281 0.551539 0
M  V30 2788 C 281.246 -5.06322 0.902369 0
M  V30 2789 N 279.228 -5.92088 1.62189 0
M  V30 2790 C 280.599 -5.92607 1.82256 0
M  V30 2791 C 282.654 -4.88811 0.947019 0
M  V30 2792 C 281.357 -6.63254 2.78364 0
M  V30 2793 C 283.383 -5.60182 1.89606 0
M  V30 2794 C 282.745 -6.46197 2.80372 0
M  V30 2795 H 278.844 -0.769833 -0.137409 0
M  V30 2796 H 281.428 -1.9273 0.276256 0
M  V30 2797 H 279.599 -3.49288 -1.6986 0
M  V30 2798 H 281.331 -3.7186 -1.59694 0
M  V30 2799 H 278.086 -4.73367 0.148537 0
M  V30 2800 H 278.51 -6.41696 2.15767 0
M  V30 2801 H 283.152 -4.22004 0.259304 0
M  V30 2802 H 280.87 -7.29271 3.48122 0
M  V30 2803 H 284.456 -5.48617 1.93676 0
M  V30 2804 H 283.336 -7.00453 3.52612 0
M  V30 2805 N 280.839 0.0985539 -1.57292 0
M  V30 2806 C 281.802 1.10402 -2.00858 0
M  V30 2807 C 282.802 1.33146 -0.901593 0
M  V30 2808 O 283.992 1.29318 -1.16716 0
M  V30 2809 C 281.124 2.45394 -2.36632 0
M  V30 2810 H 282.317 0.729099 -2.90902 0
M  V30 2811 H 279.87 0.343495 -1.52479 0
M  V30 2812 H 280.605 2.87769 -1.49531 0
M  V30 2813 H 280.39 2.30235 -3.17387 0
M  V30 2814 H 281.88 3.17718 -2.71007 0
M  V30 2815 N 282.317 1.53212 0.369288 0
M  V30 2816 C 283.227 1.82342 1.47609 0
M  V30 2817 C 284.243 0.711532 1.58787 0
M  V30 2818 O 285.419 1.0012 1.74751 0
M  V30 2819 C 282.484 2.00393 2.8292 0
M  V30 2820 C 281.545 3.24297 2.81301 0
M  V30 2821 C 280.778 3.41478 4.10157 0
M  V30 2822 O 281.001 2.63033 5.06132 0
M  V30 2823 O 279.935 4.34817 4.16194 0
M  V30 2824 H 283.761 2.76366 1.25918 0
M  V30 2825 H 281.346 1.38547 0.559034 0
M  V30 2826 H 283.228 2.13859 3.63101 0
M  V30 2827 H 281.903 1.09559 3.04596 0
M  V30 2828 H 280.81 3.16257 1.99831 0
M  V30 2829 H 282.143 4.15041 2.64578 0
M  V30 2830 N 283.795 -0.628877 1.44509 0
M  V30 2831 C 285.044 -1.38437 1.4669 0
M  V30 2832 C 285.357 -1.95322 0.104272 0
M  V30 2833 O 286.563 -2.715 0.00362163 0
M  V30 2834 C 285.019 -2.50659 2.5826 0
M  V30 2835 C 284.627 -2.00277 4.0074 0
M  V30 2836 C 286.371 -3.27844 2.69664 0
M  V30 2837 C 284.278 -3.09854 5.0373 0
M  V30 2838 H 283.208 -0.520245 0.545766 0
M  V30 2839 H 285.859 -0.676313 1.70582 0
M  V30 2840 H 284.241 -3.2405 2.27612 0
M  V30 2841 H 285.415 -1.33736 4.40966 0
M  V30 2842 H 283.73 -1.35901 3.93599 0
M  V30 2843 H 286.327 -4.09534 3.43781 0
M  V30 2844 H 286.67 -3.77471 1.75559 0
M  V30 2845 H 287.203 -2.61543 2.99733 0
M  V30 2846 H 283.942 -2.65168 5.99472 0
M  V30 2847 H 283.462 -3.7503 4.68095 0
M  V30 2848 H 285.141 -3.74592 5.27532 0
M  V30 2849 N 285.273 -1.31445 -0.869486 0
M  V30 2850 C 286.55 -1.11795 -1.60503 0
M  V30 2851 C 286.93 0.327168 -2.08549 0
M  V30 2852 O 286.278 1.32135 -1.8642 0
M  V30 2853 C 286.488 -2.13258 -2.76265 0
M  V30 2854 C 287.836 -2.45805 -3.46215 0
M  V30 2855 O 288.86 -2.11688 -2.86473 0
M  V30 2856 O 287.719 -3.04228 -4.5399 0
M  V30 2857 H 284.813 -0.430421 -0.706163 0
M  V30 2858 H 287.359 -1.42925 -0.914907 0
M  V30 2859 H 286.131 -3.10461 -2.3818 0
M  V30 2860 H 285.754 -1.83035 -3.52964 0
M  V30 2861 N 286.751 1.08385 -1.14413 0
M  V30 2862 C 288.167 1.32844 -0.884563 0
M  V30 2863 C 288.367 1.95841 0.474181 0
M  V30 2864 O 287.423 2.21158 1.21842 0
M  V30 2865 C 288.736 2.22978 -2.01745 0
M  V30 2866 C 290.284 2.36458 -2.05077 0
M  V30 2867 C 290.759 3.29934 -3.1766 0
M  V30 2868 N 292.25 3.37511 -3.17239 0
M  V30 2869 C 292.985 4.09871 -4.0099 0
M  V30 2870 N 292.481 4.84936 -4.94781 0
M  V30 2871 N 294.274 4.05704 -3.89051 0
M  V30 2872 H 286.425 0.658756 -2.01926 0
M  V30 2873 H 288.688 0.352821 -0.879899 0
M  V30 2874 H 288.394 1.83934 -2.99769 0
M  V30 2875 H 288.268 3.23441 -1.94077 0
M  V30 2876 H 290.655 2.7476 -1.0766 0
M  V30 2877 H 290.736 1.35736 -2.16816 0
M  V30 2878 H 290.38 2.92352 -4.15322 0
M  V30 2879 H 290.31 4.30584 -3.03158 0
M  V30 2880 H 292.801 2.83996 -2.49308 0
M  V30 2881 H 293.114 5.37612 -5.55151 0
M  V30 2882 H 291.459 4.83988 -4.98779 0
M  V30 2883 H 294.65 3.46167 -3.15097 0
M  V30 2884 H 294.823 4.61834 -4.54547 0
M  V30 2885 N 288.23 0.939286 1.26551 0
M  V30 2886 C 289.162 0.404704 2.25599 0
M  V30 2887 C 290.175 -0.470983 1.55838 0
M  V30 2888 O 291.364 -0.281734 1.76263 0
M  V30 2889 C 288.464 -0.43764 3.36062 0
M  V30 2890 C 287.637 0.421449 4.35365 0
M  V30 2891 C 286.696 -0.36015 5.24966 0
M  V30 2892 O 285.722 0.236167 5.6871 0
M  V30 2893 N 286.924 -1.65715 5.56344 0
M  V30 2894 H 289.689 1.25618 2.72103 0
M  V30 2895 H 287.25 0.807963 1.40298 0
M  V30 2896 H 289.242 -0.967866 3.92956 0
M  V30 2897 H 287.812 -1.18991 2.89067 0
M  V30 2898 H 287.032 1.1329 3.7757 0
M  V30 2899 H 288.32 1.00835 4.98708 0
M  V30 2900 H 287.718 -2.16378 5.22682 0
M  V30 2901 H 286.275 -2.13366 6.15888 0
M  V30 2902 N 289.708 -1.40897 0.706093 0
M  V30 2903 C 290.954 -2.01352 0.241889 0
M  V30 2904 C 291.287 -1.55832 -1.15888 0
M  V30 2905 O 290.562 -0.774145 -1.7843 0
M  V30 2906 C 290.845 -3.58752 0.311311 0
M  V30 2907 C 290.698 -4.1437 1.74978 0
M  V30 2908 C 292.017 -4.38914 -0.322922 0
M  V30 2909 H 289.136 -0.731562 0.0893687 0
M  V30 2910 H 291.778 -1.67504 0.896802 0
M  V30 2911 H 289.928 -3.87718 -0.246302 0
M  V30 2912 H 291.6 -3.96239 2.36205 0
M  V30 2913 H 289.843 -3.69016 2.28057 0
M  V30 2914 H 290.514 -5.23532 1.74981 0
M  V30 2915 H 292.99 -4.15822 0.152089 0
M  V30 2916 H 291.866 -5.48358 -0.243855 0
M  V30 2917 H 292.127 -4.19176 -1.40513 0
M  V30 2918 N 291.186 -0.45159 -1.50991 0
M  V30 2919 C 292.411 0.110667 -2.07105 0
M  V30 2920 C 292.836 1.3446 -1.31538 0
M  V30 2921 O 292.194 1.77743 -0.357365 0
M  V30 2922 C 292.242 0.397238 -3.58405 0
M  V30 2923 O 291.346 1.48124 -3.84881 0
M  V30 2924 H 290.687 -0.00439271 -0.663985 0
M  V30 2925 H 293.217 -0.637026 -1.9443 0
M  V30 2926 H 293.227 0.64351 -4.02893 0
M  V30 2927 H 291.902 -0.504553 -4.12828 0
M  V30 2928 H 290.479 1.22381 -3.52246 0
M  V30 2929 N 292.664 1.56529 -0.183458 0
M  V30 2930 C 293.574 2.22144 0.754272 0
M  V30 2931 C 294.59 1.21684 1.24374 0
M  V30 2932 O 295.766 1.54385 1.29333 0
M  V30 2933 C 292.831 2.85884 1.96141 0
M  V30 2934 C 291.892 4.01579 1.51765 0
M  V30 2935 C 291.125 4.6227 2.66725 0
M  V30 2936 O 291.348 4.21865 3.83909 0
M  V30 2937 O 290.282 5.51936 2.40104 0
M  V30 2938 H 294.108 3.02861 0.225527 0
M  V30 2939 H 291.693 1.49331 0.0453032 0
M  V30 2940 H 293.575 3.26253 2.66715 0
M  V30 2941 H 292.25 2.08154 2.47899 0
M  V30 2942 H 291.157 3.65856 0.781049 0
M  V30 2943 H 292.49 4.80938 1.04686 0
M  V30 2944 N 294.142 -0.090211 1.57342 0
M  V30 2945 C 295.105 -1.09335 2.01441 0
M  V30 2946 C 296.105 -1.32666 0.908641 0
M  V30 2947 O 297.295 -1.28697 1.174 0
M  V30 2948 C 294.427 -2.44136 2.3793 0
M  V30 2949 H 295.62 -0.713662 2.91285 0
M  V30 2950 H 293.173 -0.335404 1.52659 0
M  V30 2951 H 293.908 -2.86972 1.51055 0
M  V30 2952 H 293.693 -2.28548 3.18603 0
M  V30 2953 H 295.183 -3.16277 2.72688 0
M  V30 2954 N 295.62 -1.53406 -0.361157 0
M  V30 2955 C 296.583 -1.79479 -1.42548 0
M  V30 2956 C 297.583 -0.665327 -1.4639 0
M  V30 2957 O 298.773 -0.933549 -1.47073 0
M  V30 2958 C 295.905 -1.92087 -2.8163 0
M  V30 2959 H 297.098 -2.74538 -1.20701 0
M  V30 2960 H 294.651 -1.4455 -0.594546 0
M  V30 2961 H 295.386 -0.991099 -3.08784 0
M  V30 2962 H 295.171 -2.74241 -2.80239 0
M  V30 2963 H 296.661 -2.13836 -3.58697 0
M  V30 2964 N 297.098 0.621204 -1.44841 0
M  V30 2965 C 298.346 1.37783 -1.47852 0
M  V30 2966 C 298.667 1.94653 -0.116224 0
M  V30 2967 O 297.937 1.76367 0.852737 0
M  V30 2968 H 296.517 0.511453 -0.544449 0
M  V30 2969 H 299.179 0.730446 -1.80694 0
M  V30 2970 H 298.275 2.20414 -2.20961 0
M  V30 2971 N 298.576 1.31904 0.862503 0
M  V30 2972 C 299.523 1.20182 1.9704 0
M  V30 2973 C 300.493 0.0858247 1.65878 0
M  V30 2974 O 301.678 0.26 1.8902 0
M  V30 2975 C 298.818 0.922797 3.32533 0
M  V30 2976 C 297.931 2.12284 3.76244 0
M  V30 2977 C 297.066 1.77996 5.00491 0
M  V30 2978 C 296.105 2.94366 5.36671 0
M  V30 2979 N 295.242 2.60223 6.52095 0
M  V30 2980 H 300.082 2.14951 2.06398 0
M  V30 2981 H 297.619 1.06917 1.01031 0
M  V30 2982 H 299.577 0.741548 4.10557 0
M  V30 2983 H 298.207 0.0119227 3.22798 0
M  V30 2984 H 297.259 2.41461 2.9394 0
M  V30 2985 H 298.571 2.99357 3.98982 0
M  V30 2986 H 297.725 1.56377 5.862 0
M  V30 2987 H 296.464 0.881252 4.79672 0
M  V30 2988 H 295.469 3.16625 4.49476 0
M  V30 2989 H 296.694 3.84957 5.59451 0
M  V30 2990 H 294.64 1.72884 6.32809 0
M  V30 2991 H 294.557 3.40827 6.74814 0
M  V30 2992 H 295.825 2.42016 7.40978 0
M  V30 2993 N 300.054 -1.07777 1.14986 0
M  V30 2994 C 301.465 -1.61766 0.932127 0
M  V30 2995 C 301.816 -1.88974 -0.527581 0
M  V30 2996 O 300.941 -1.65198 -1.39781 0
M  V30 2997 C 301.536 -2.93891 1.68563 0
M  V30 2998 C 300.095 -3.44639 1.5133 0
M  V30 2999 C 299.242 -2.18767 1.704 0
M  V30 3000 H 302.193 -0.909201 1.30074 0
M  V30 3001 H 302.214 -3.62623 1.15259 0
M  V30 3002 H 301.726 -2.74057 2.74799 0
M  V30 3003 H 299.827 -3.69564 0.474702 0
M  V30 3004 H 299.94 -4.20966 2.28746 0
M  V30 3005 H 298.304 -2.28253 1.13016 0
M  V30 3006 H 299.087 -2.01433 2.77992 0
M  V30 3007 N 301.532 -0.945985 -1.26051 0
M  V30 3008 C 302.462 -0.477172 -2.28572 0
M  V30 3009 C 303.443 0.472032 -1.63419 0
M  V30 3010 O 304.628 0.372853 -1.90587 0
M  V30 3011 C 301.758 0.253975 -3.4637 0
M  V30 3012 C 300.712 -0.609135 -4.23643 0
M  V30 3013 C 300.038 0.252252 -5.34105 0
M  V30 3014 C 301.338 -1.8829 -4.8718 0
M  V30 3015 H 303.032 -1.33402 -2.68038 0
M  V30 3016 H 300.578 -0.642904 -1.28852 0
M  V30 3017 H 302.531 0.593016 -4.17207 0
M  V30 3018 H 301.255 1.145 -3.05871 0
M  V30 3019 H 299.914 -0.931138 -3.54578 0
M  V30 3020 H 299.562 1.14278 -4.89846 0
M  V30 3021 H 299.262 -0.32188 -5.86718 0
M  V30 3022 H 300.786 0.586454 -6.07777 0
M  V30 3023 H 302.2 -1.61081 -5.50205 0
M  V30 3024 H 300.597 -2.40199 -5.49931 0
M  V30 3025 H 301.667 -2.59134 -4.09851 0
M  V30 3026 N 303.011 1.40521 -0.713556 0
M  V30 3027 C 304.259 2.00527 -0.251692 0
M  V30 3028 C 304.58 1.56857 1.15848 0
M  V30 3029 O 303.85 0.807127 1.785 0
M  V30 3030 H 302.43 0.741551 -0.0900646 0
M  V30 3031 H 305.092 1.71887 -0.918733 0
M  V30 3032 H 304.188 3.10813 -0.283192 0
M  V30 3033 N 304.489 0.459591 1.5075 0
M  V30 3034 C 305.719 -0.0972338 2.06371 0
M  V30 3035 C 306.127 -1.35074 1.32483 0
M  V30 3036 O 305.47 -1.79637 0.384226 0
M  V30 3037 C 305.532 -0.462759 3.56509 0
M  V30 3038 C 305.196 0.687084 4.51805 0
M  V30 3039 C 306.193 1.56578 4.95761 0
M  V30 3040 C 303.878 0.874144 4.94635 0
M  V30 3041 C 305.872 2.61604 5.81242 0
M  V30 3042 C 303.559 1.92765 5.79901 0
M  V30 3043 C 304.557 2.79697 6.23104 0
M  V30 3044 O 304.245 3.83235 7.06673 0
M  V30 3045 H 303.977 -0.00140687 0.675999 0
M  V30 3046 H 306.531 0.644011 1.95043 0
M  V30 3047 H 304.761 -1.25703 3.65699 0
M  V30 3048 H 306.45 -0.953323 3.94546 0
M  V30 3049 H 307.216 1.4329 4.6335 0
M  V30 3050 H 303.095 0.207006 4.60535 0
M  V30 3051 H 306.639 3.29489 6.14884 0
M  V30 3052 H 302.536 2.06064 6.11725 0
M  V30 3053 H 303.304 3.80084 7.24899 0
M  V30 3054 N 305.967 -1.56429 0.191757 0
M  V30 3055 C 307.215 -1.97095 -0.447006 0
M  V30 3056 C 307.536 -1.07967 -1.62383 0
M  V30 3057 O 306.806 -0.150248 -1.95323 0
M  V30 3058 H 305.386 -0.727832 -0.168135 0
M  V30 3059 H 308.048 -1.92911 0.27771 0
M  V30 3060 H 307.144 -3.01848 -0.793371 0
M  V30 3061 N 307.445 0.0818655 -1.57387 0
M  V30 3062 C 308.673 0.796108 -1.9097 0
M  V30 3063 C 309.088 1.71626 -0.786757 0
M  V30 3064 O 308.445 1.80908 0.240513 0
M  V30 3065 C 308.496 1.59829 -3.24248 0
M  V30 3066 O 308.217 0.715131 -4.32224 0
M  V30 3067 C 309.718 2.41442 -3.7178 0
M  V30 3068 H 306.938 0.22691 -0.631469 0
M  V30 3069 H 309.482 0.0551439 -2.04426 0
M  V30 3070 H 307.637 2.29163 -3.12351 0
M  V30 3071 H 308.051 1.27205 -5.08841 0
M  V30 3072 H 309.525 2.932 -4.67694 0
M  V30 3073 H 310.002 3.2051 -3.00283 0
M  V30 3074 H 310.608 1.77283 -3.86589 0
M  V30 3075 N 308.923 1.53595 0.353017 0
M  V30 3076 C 309.886 1.80232 1.41594 0
M  V30 3077 C 310.886 0.673081 1.46035 0
M  V30 3078 O 312.076 0.941335 1.46576 0
M  V30 3079 C 309.208 1.93578 2.80607 0
M  V30 3080 H 310.401 2.75174 1.19244 0
M  V30 3081 H 307.954 1.44864 0.586872 0
M  V30 3082 H 308.689 1.00746 3.08254 0
M  V30 3083 H 308.474 2.75724 2.78781 0
M  V30 3084 H 309.964 2.15735 3.57558 0
M  V30 3085 N 310.401 -0.613514 1.45168 0
M  V30 3086 C 311.311 -1.75296 1.55912 0
M  V30 3087 C 312.327 -1.68244 0.443856 0
M  V30 3088 O 313.503 -1.88706 0.70371 0
M  V30 3089 C 310.568 -3.1174 1.5172 0
M  V30 3090 C 309.629 -3.30291 2.74238 0
M  V30 3091 C 308.862 -4.60226 2.70236 0
M  V30 3092 O 309.085 -5.42168 1.77229 0
M  V30 3093 O 308.019 -4.81361 3.61352 0
M  V30 3094 H 311.845 -1.69183 2.52212 0
M  V30 3095 H 309.43 -0.776886 1.27612 0
M  V30 3096 H 311.312 -3.93044 1.51968 0
M  V30 3097 H 309.987 -3.18357 0.585697 0
M  V30 3098 H 308.894 -2.48598 2.79553 0
M  V30 3099 H 310.227 -3.28547 3.66494 0
M  V30 3100 N 311.879 -1.3236 -0.855495 0
M  V30 3101 C 313.126 -1.22872 -1.60962 0
M  V30 3102 C 313.454 0.209658 -1.93367 0
M  V30 3103 O 312.709 1.16243 -1.57436 0
M  V30 3104 C 313.008 -2.03275 -2.93963 0
M  V30 3105 C 312.674 -3.5264 -2.80991 0
M  V30 3106 C 311.336 -3.93364 -2.7716 0
M  V30 3107 C 313.688 -4.47626 -2.66983 0
M  V30 3108 C 311.016 -5.27319 -2.572 0
M  V30 3109 C 313.368 -5.81723 -2.48558 0
M  V30 3110 C 312.032 -6.2165 -2.4312 0
M  V30 3111 H 311.302 -0.44962 -0.589001 0
M  V30 3112 H 313.949 -1.63777 -0.992442 0
M  V30 3113 H 312.254 -1.55095 -3.59795 0
M  V30 3114 H 313.951 -1.93303 -3.51333 0
M  V30 3115 H 310.541 -3.20295 -2.84797 0
M  V30 3116 H 314.725 -4.17084 -2.68988 0
M  V30 3117 H 309.981 -5.57311 -2.51424 0
M  V30 3118 H 314.155 -6.5494 -2.36699 0
M  V30 3119 H 311.782 -7.25388 -2.27412 0
M  V30 3120 N 313.357 1.07166 -1.15556 0
M  V30 3121 C 314.32 2.12589 -0.856644 0
M  V30 3122 C 315.32 1.6015 0.14444 0
M  V30 3123 O 316.51 1.7399 -0.0854163 0
M  V30 3124 C 313.642 3.39753 -0.279405 0
M  V30 3125 H 314.835 2.40539 -1.79112 0
M  V30 3126 H 312.388 1.23086 -0.963298 0
M  V30 3127 H 313.123 3.17447 0.663174 0
M  V30 3128 H 312.908 3.79117 -1.00063 0
M  V30 3129 H 314.398 4.17507 -0.0879113 0
M  V30 3130 N 314.835 0.952656 1.25548 0
M  V30 3131 C 315.782 0.47008 2.25962 0
M  V30 3132 C 316.752 -0.476384 1.59122 0
M  V30 3133 O 317.937 -0.39007 1.8677 0
M  V30 3134 C 315.077 -0.247881 3.44209 0
M  V30 3135 C 314.19 0.735591 4.25691 0
M  V30 3136 C 313.325 -0.0047306 5.312 0
M  V30 3137 C 312.364 0.969805 6.04368 0
M  V30 3138 N 311.501 0.260486 7.01617 0
M  V30 3139 H 316.341 1.33126 2.66611 0
M  V30 3140 H 313.878 0.66765 1.31076 0
M  V30 3141 H 315.836 -0.680695 4.1161 0
M  V30 3142 H 314.466 -1.07312 3.0444 0
M  V30 3143 H 313.518 1.28689 3.57971 0
M  V30 3144 H 314.83 1.47934 4.76358 0
M  V30 3145 H 313.984 -0.496275 6.04667 0
M  V30 3146 H 312.723 -0.781282 4.81401 0
M  V30 3147 H 311.728 1.47237 5.29718 0
M  V30 3148 H 312.953 1.74655 6.56256 0
M  V30 3149 H 310.899 -0.497364 6.54112 0
M  V30 3150 H 310.816 0.943362 7.50091 0
M  V30 3151 H 312.084 -0.209587 7.79218 0
M  V30 3152 N 316.313 -1.40141 0.720998 0
M  V30 3153 C 317.729 -1.54632 0.395113 0
M  V30 3154 C 317.929 -1.69115 -1.09555 0
M  V30 3155 O 316.985 -1.68377 -1.88163 0
M  V30 3156 C 318.298 -2.77177 1.1659 0
M  V30 3157 C 319.846 -2.91 1.15274 0
M  V30 3158 C 320.321 -4.16465 1.90579 0
M  V30 3159 N 321.812 -4.23476 1.87675 0
M  V30 3160 C 322.547 -5.19475 2.42762 0
M  V30 3161 N 322.043 -6.21348 3.06428 0
M  V30 3162 N 323.836 -5.11592 2.32874 0
M  V30 3163 H 315.987 -1.28986 1.68749 0
M  V30 3164 H 318.25 -0.62412 0.713567 0
M  V30 3165 H 317.956 -2.72771 2.22011 0
M  V30 3166 H 317.83 -3.69442 0.76108 0
M  V30 3167 H 320.217 -2.94907 0.106702 0
M  V30 3168 H 320.298 -1.99838 1.59682 0
M  V30 3169 H 319.942 -4.1332 2.95176 0
M  V30 3170 H 319.872 -5.06646 1.43587 0
M  V30 3171 H 322.363 -3.50497 1.41281 0
M  V30 3172 H 322.676 -6.91034 3.45965 0
M  V30 3173 H 321.021 -6.21777 3.10514 0
M  V30 3174 H 324.212 -4.30936 1.82789 0
M  V30 3175 H 324.385 -5.86233 2.76106 0
M  V30 3176 N 317.792 -0.46758 -1.50504 0
M  V30 3177 C 319.041 0.0902868 -2.01498 0
M  V30 3178 C 319.354 1.411 -1.35463 0
M  V30 3179 O 320.56 2.0536 -1.77594 0
M  V30 3180 C 319.016 0.21142 -3.59278 0
M  V30 3181 C 318.624 -1.10065 -4.34269 0
M  V30 3182 C 320.368 0.721433 -4.18325 0
M  V30 3183 C 318.275 -0.943505 -5.83825 0
M  V30 3184 H 317.205 0.037517 -0.753066 0
M  V30 3185 H 319.856 -0.601943 -1.73346 0
M  V30 3186 H 318.238 0.967352 -3.84003 0
M  V30 3187 H 319.412 -1.86726 -4.21272 0
M  V30 3188 H 317.727 -1.5415 -3.86816 0
M  V30 3189 H 320.324 0.85598 -5.27804 0
M  V30 3190 H 320.667 1.71186 -3.79475 0
M  V30 3191 H 321.2 0.0229843 -3.97793 0
M  V30 3192 H 317.939 -1.90719 -6.27141 0
M  V30 3193 H 317.459 -0.217213 -5.99407 0
M  V30 3194 H 319.138 -0.608715 -6.4413 0
M  V30 3195 N 319.27 1.56325 -0.20005 0
M  V30 3196 C 320.498 2.02105 0.442874 0
M  V30 3197 C 320.913 1.08014 1.5485 0
M  V30 3198 O 320.27 0.0858797 1.82298 0
M  V30 3199 C 320.321 3.47549 0.994583 0
M  V30 3200 O 320.042 4.38049 -0.0669322 0
M  V30 3201 C 321.543 4.0887 1.7129 0
M  V30 3202 H 318.763 0.661807 0.110691 0
M  V30 3203 H 321.307 2.02134 -0.310207 0
M  V30 3204 H 319.462 3.48204 1.69803 0
M  V30 3205 H 319.876 5.23368 0.344462 0
M  V30 3206 H 321.35 5.12475 2.05118 0
M  V30 3207 H 321.827 3.52615 2.61838 0
M  V30 3208 H 322.433 4.12002 1.05518 0
M  V30 3209 N 320.748 -0.0735177 1.57428 0
M  V30 3210 C 321.678 -1.0879 2.06608 0
M  V30 3211 C 322.659 -1.40473 0.959237 0
M  V30 3212 O 323.844 -1.5013 1.23185 0
M  V30 3213 C 320.974 -2.40183 2.50857 0
M  V30 3214 C 319.928 -2.22858 3.65402 0
M  V30 3215 C 319.254 -3.59619 3.957 0
M  V30 3216 C 320.554 -1.65123 4.95511 0
M  V30 3217 H 322.248 -0.678673 2.91607 0
M  V30 3218 H 319.794 -0.325013 1.40284 0
M  V30 3219 H 321.747 -3.11437 2.83874 0
M  V30 3220 H 320.471 -2.83083 1.62885 0
M  V30 3221 H 319.13 -1.54045 3.32664 0
M  V30 3222 H 318.778 -4.00086 3.04861 0
M  V30 3223 H 318.478 -3.48866 4.72828 0
M  V30 3224 H 320.002 -4.32306 4.31212 0
M  V30 3225 H 321.416 -2.26241 5.26771 0
M  V30 3226 H 319.813 -1.65071 5.7695 0
M  V30 3227 H 320.883 -0.612559 4.81015 0
M  V30 3228 N 322.226 -1.5378 -0.344866 0
M  V30 3229 C 323.474 -1.70625 -1.08311 0
M  V30 3230 C 323.795 -0.471447 -1.89215 0
M  V30 3231 O 323.065 0.514616 -1.8902 0
M  V30 3232 H 321.645 -0.629058 -0.402859 0
M  V30 3233 H 324.307 -1.9103 -0.386459 0
M  V30 3234 H 323.403 -2.57656 -1.76124 0
M  V30 3235 N 323.704 0.605807 -1.45491 0
M  V30 3236 C 325.12 0.926751 -1.29936 0
M  V30 3237 C 325.32 1.99896 -0.253706 0
M  V30 3238 O 324.376 2.50038 0.351737 0
M  V30 3239 C 325.689 1.36599 -2.67883 0
M  V30 3240 C 327.237 1.4801 -2.75793 0
M  V30 3241 C 327.712 1.95309 -4.14268 0
M  V30 3242 N 329.203 2.0254 -4.16571 0
M  V30 3243 C 329.938 2.40363 -5.20589 0
M  V30 3244 N 329.434 2.77143 -6.34952 0
M  V30 3245 N 331.227 2.40718 -5.07948 0
M  V30 3246 H 323.378 -0.102862 -2.12151 0
M  V30 3247 H 325.641 0.016639 -0.947854 0
M  V30 3248 H 325.347 0.652306 -3.45598 0
M  V30 3249 H 325.221 2.33215 -2.96463 0
M  V30 3250 H 327.608 2.1847 -1.98381 0
M  V30 3251 H 327.689 0.497041 -2.50925 0
M  V30 3252 H 327.333 1.25436 -4.92167 0
M  V30 3253 H 327.263 2.94532 -4.3653 0
M  V30 3254 H 329.754 1.76699 -3.34045 0
M  V30 3255 H 330.067 3.0489 -7.10114 0
M  V30 3256 H 328.412 2.74834 -6.3835 0
M  V30 3257 H 331.603 2.11392 -4.1765 0
M  V30 3258 H 331.776 2.69869 -5.89131 0
M  V30 3259 N 325.182 1.32811 0.848464 0
M  V30 3260 C 326.112 1.24882 1.97299 0
M  V30 3261 C 327.093 0.131357 1.69592 0
M  V30 3262 O 328.278 0.319553 1.91553 0
M  V30 3263 C 325.408 0.97746 3.33261 0
M  V30 3264 C 324.362 2.05682 3.75338 0
M  V30 3265 C 323.688 1.63777 5.09 0
M  V30 3266 C 324.988 3.47254 3.90144 0
M  V30 3267 H 326.682 2.18966 2.04191 0
M  V30 3268 H 324.228 1.05413 0.981029 0
M  V30 3269 H 326.181 0.908513 4.1149 0
M  V30 3270 H 324.905 0.000980011 3.266 0
M  V30 3271 H 323.564 2.11603 2.99366 0
M  V30 3272 H 323.212 0.648569 4.98801 0
M  V30 3273 H 322.912 2.36 5.38124 0
M  V30 3274 H 324.436 1.5833 5.89715 0
M  V30 3275 H 325.85 3.43888 4.58709 0
M  V30 3276 H 324.247 4.1788 4.30693 0
M  V30 3277 H 325.317 3.86462 2.92874 0
M  V30 3278 N 326.66 -1.06551 1.16123 0
M  V30 3279 C 327.885 -1.83544 0.965735 0
M  V30 3280 C 328.31 -1.81843 -0.481102 0
M  V30 3281 O 327.668 -1.21732 -1.34354 0
M  V30 3282 C 327.716 -3.28169 1.49457 0
M  V30 3283 O 326.82 -4.0643 0.699157 0
M  V30 3284 H 326.161 -0.568026 0.343864 0
M  V30 3285 H 328.691 -1.34362 1.54299 0
M  V30 3286 H 328.701 -3.78992 1.51092 0
M  V30 3287 H 327.376 -3.28722 2.54784 0
M  V30 3288 H 325.953 -3.65216 0.7531 0
M  V30 3289 N 328.138 -0.959301 -1.25041 0
M  V30 3290 C 329.048 -0.489994 -2.29426 0
M  V30 3291 C 330.064 0.444944 -1.68215 0
M  V30 3292 O 331.24 0.320046 -1.98841 0
M  V30 3293 C 328.305 0.220309 -3.45999 0
M  V30 3294 C 327.366 -0.753418 -4.22637 0
M  V30 3295 C 326.599 -0.076918 -5.33645 0
M  V30 3296 O 326.822 1.13649 -5.58963 0
M  V30 3297 O 325.756 -0.764824 -5.97021 0
M  V30 3298 H 329.582 -1.35755 -2.71669 0
M  V30 3299 H 327.167 -0.725961 -1.30576 0
M  V30 3300 H 329.049 0.619677 -4.16819 0
M  V30 3301 H 327.724 1.06296 -3.0575 0
M  V30 3302 H 326.631 -1.20308 -3.54227 0
M  V30 3303 H 327.964 -1.56423 -4.66683 0
M  V30 3304 N 329.616 1.39756 -0.72842 0
M  V30 3305 C 331.027 1.83498 -0.344289 0
M  V30 3306 C 331.378 1.60868 1.12321 0
M  V30 3307 O 330.503 1.09634 1.86573 0
M  V30 3308 C 331.098 3.33114 -0.618112 0
M  V30 3309 C 329.657 3.753 -0.287549 0
M  V30 3310 C 328.804 2.62831 -0.884048 0
M  V30 3311 H 331.755 1.28842 -0.926578 0
M  V30 3312 H 331.776 3.80334 0.112349 0
M  V30 3313 H 331.288 3.49553 -1.68625 0
M  V30 3314 H 329.389 3.64451 0.775012 0
M  V30 3315 H 329.502 4.72945 -0.765512 0
M  V30 3316 H 327.866 2.52792 -0.311149 0
M  V30 3317 H 328.649 2.82078 -1.95671 0
M  V30 3318 N 331.094 0.475555 1.50254 0
M  V30 3319 C 332.004 -0.321501 2.32387 0
M  V30 3320 C 333.02 -0.991755 1.42969 0
M  V30 3321 O 334.196 -0.978747 1.76018 0
M  V30 3322 C 331.261 -1.38667 3.17762 0
M  V30 3323 C 330.322 -0.732538 4.23004 0
M  V30 3324 C 329.555 -1.74695 5.04299 0
M  V30 3325 O 329.778 -2.97399 4.86734 0
M  V30 3326 O 328.712 -1.31631 5.8733 0
M  V30 3327 H 332.538 0.350071 3.01676 0
M  V30 3328 H 330.123 0.237321 1.47503 0
M  V30 3329 H 332.005 -2.00354 3.70724 0
M  V30 3330 H 330.68 -2.04163 2.51196 0
M  V30 3331 H 329.587 -0.0765902 3.74022 0
M  V30 3332 H 330.92 -0.120452 4.92053 0
M  V30 3333 N 332.573 -1.56217 0.208337 0
M  V30 3334 C 333.85 -1.89739 -0.475234 0
M  V30 3335 C 334.23 -1.1238 -1.78701 0
M  V30 3336 O 333.578 -0.228979 -2.2735 0
M  V30 3337 C 333.788 -3.42289 -0.681101 0
M  V30 3338 C 335.136 -4.12789 -0.994507 0
M  V30 3339 O 336.16 -3.47814 -0.768357 0
M  V30 3340 O 335.019 -5.27649 -1.42299 0
M  V30 3341 H 332.113 -0.788478 -0.249461 0
M  V30 3342 H 334.659 -1.67855 0.249538 0
M  V30 3343 H 333.431 -3.90534 0.244722 0
M  V30 3344 H 333.054 -3.69909 -1.45785 0
M  V30 3345 N 334.051 0.0651679 -1.57465 0
M  V30 3346 C 335.297 0.764193 -1.87851 0
M  V30 3347 C 335.63 1.76889 -0.801495 0
M  V30 3348 O 334.905 1.93594 0.187528 0
M  V30 3349 C 335.188 1.46625 -3.28897 0
M  V30 3350 C 335.041 0.477515 -4.47258 0
M  V30 3351 C 336.36 2.4095 -3.68281 0
M  V30 3352 H 333.479 0.276351 -0.683227 0
M  V30 3353 H 336.121 0.0272868 -1.8998 0
M  V30 3354 H 334.271 2.09438 -3.27212 0
M  V30 3355 H 335.943 -0.145922 -4.61069 0
M  V30 3356 H 334.186 -0.206576 -4.33308 0
M  V30 3357 H 334.857 1.0065 -5.42746 0
M  V30 3358 H 337.333 1.88209 -3.71102 0
M  V30 3359 H 336.209 2.87072 -4.67847 0
M  V30 3360 H 336.47 3.26049 -2.98571 0
M  V30 3361 N 335.529 1.53961 0.336706 0
M  V30 3362 C 336.492 1.81724 1.39675 0
M  V30 3363 C 337.492 0.688532 1.45313 0
M  V30 3364 O 338.682 0.956829 1.45569 0
M  V30 3365 C 335.814 1.96543 2.78538 0
M  V30 3366 H 337.007 2.76424 1.16318 0
M  V30 3367 H 334.56 1.45478 0.571474 0
M  V30 3368 H 335.295 1.0401 3.07168 0
M  V30 3369 H 335.08 2.78665 2.75841 0
M  V30 3370 H 336.57 2.19516 3.5525 0
M  V30 3371 N 337.007 -0.598083 1.45811 0
M  V30 3372 C 337.97 -1.69018 1.54808 0
M  V30 3373 C 338.97 -1.55037 0.426652 0
M  V30 3374 O 340.16 -1.59932 0.690456 0
M  V30 3375 C 337.292 -3.0835 1.45371 0
M  V30 3376 H 338.485 -1.62403 2.52121 0
M  V30 3377 H 336.038 -0.814626 1.33392 0
M  V30 3378 H 336.773 -3.20534 0.492793 0
M  V30 3379 H 336.558 -3.19907 2.26721 0
M  V30 3380 H 338.048 -3.8788 1.54721 0
M  V30 3381 N 338.485 -1.33259 -0.841409 0
M  V30 3382 C 339.725 -1.25902 -1.61022 0
M  V30 3383 C 340.089 0.173325 -1.91216 0
M  V30 3384 O 341.29 0.370824 -2.6623 0
M  V30 3385 C 339.561 -2.10735 -2.88662 0
M  V30 3386 S 341.12 -2.20541 -3.79351 0
M  V30 3387 H 337.938 -0.447958 -0.552137 0
M  V30 3388 H 340.54 -1.68263 -0.995382 0
M  V30 3389 H 339.244 -3.1384 -2.64448 0
M  V30 3390 H 338.775 -1.69201 -3.55154 0
M  V30 3391 H 340.79 -1.36462 -4.77067 0
M  V30 3392 N 339.963 1.05934 -1.16686 0
M  V30 3393 C 341.209 1.79065 -0.95203 0
M  V30 3394 C 341.542 1.87147 0.518629 0
M  V30 3395 O 340.817 1.36574 1.38484 0
M  V30 3396 C 341.1 3.23359 -1.58464 0
M  V30 3397 C 340.953 3.23336 -3.12689 0
M  V30 3398 C 342.272 4.21004 -1.28232 0
M  V30 3399 H 339.391 0.65005 -0.34728 0
M  V30 3400 H 342.033 1.23868 -1.44072 0
M  V30 3401 H 340.183 3.70493 -1.16908 0
M  V30 3402 H 341.855 2.84336 -3.6325 0
M  V30 3403 H 340.098 2.61886 -3.4583 0
M  V30 3404 H 340.769 4.25144 -3.52075 0
M  V30 3405 H 343.245 3.8233 -1.64203 0
M  V30 3406 H 342.121 5.20225 -1.75092 0
M  V30 3407 H 342.382 4.41639 -0.201791 0
M  V30 3408 N 341.441 0.965919 1.2453 0
M  V30 3409 C 342.666 0.643971 1.97149 0
M  V30 3410 C 343.091 -0.779487 1.71189 0
M  V30 3411 O 342.449 -1.5288 0.974553 0
M  V30 3412 C 342.497 0.922557 3.48599 0
M  V30 3413 O 341.601 0.00707672 4.12399 0
M  V30 3414 H 340.942 0.243647 0.617683 0
M  V30 3415 H 343.472 1.29558 1.58353 0
M  V30 3416 H 343.482 0.853373 3.98976 0
M  V30 3417 H 342.157 1.95996 3.66822 0
M  V30 3418 H 340.734 0.12943 3.72675 0
M  V30 3419 N 342.919 -1.39368 0.735821 0
M  V30 3420 C 344.149 -2.04498 0.293967 0
M  V30 3421 C 344.557 -1.55593 -1.07645 0
M  V30 3422 O 343.9 -0.716324 -1.69158 0
M  V30 3423 C 343.962 -3.58836 0.218342 0
M  V30 3424 C 343.626 -4.30721 1.52736 0
M  V30 3425 C 344.623 -4.57305 2.47322 0
M  V30 3426 C 342.308 -4.69251 1.79189 0
M  V30 3427 C 344.302 -5.21429 3.66593 0
M  V30 3428 C 341.989 -5.33104 2.98737 0
M  V30 3429 C 342.987 -5.59125 3.9226 0
M  V30 3430 O 342.675 -6.21653 5.09708 0
M  V30 3431 H 342.407 -0.664118 0.126189 0
M  V30 3432 H 344.961 -1.79385 1.00051 0
M  V30 3433 H 343.191 -3.8285 -0.544314 0
M  V30 3434 H 344.88 -4.05447 -0.191626 0
M  V30 3435 H 345.646 -4.27983 2.28156 0
M  V30 3436 H 341.525 -4.48354 1.07239 0
M  V30 3437 H 345.069 -5.41656 4.39607 0
M  V30 3438 H 340.966 -5.61846 3.17803 0
M  V30 3439 H 341.734 -6.40146 5.10054 0
M  V30 3440 N 344.397 -0.483516 -1.5 0
M  V30 3441 C 345.327 0.293829 -2.31644 0
M  V30 3442 C 346.308 0.978864 -1.39112 0
M  V30 3443 O 347.493 0.973644 -1.68029 0
M  V30 3444 C 344.623 1.36897 -3.19181 0
M  V30 3445 C 343.577 0.804833 -4.20365 0
M  V30 3446 C 342.903 1.9792 -4.96721 0
M  V30 3447 C 344.203 -0.192313 -5.21946 0
M  V30 3448 H 345.897 -0.387616 -2.9688 0
M  V30 3449 H 343.443 -0.187856 -1.42769 0
M  V30 3450 H 345.396 1.92037 -3.751 0
M  V30 3451 H 344.12 2.07936 -2.51853 0
M  V30 3452 H 342.779 0.275319 -3.65565 0
M  V30 3453 H 342.427 2.67686 -4.25856 0
M  V30 3454 H 342.127 1.60789 -5.65173 0
M  V30 3455 H 343.651 2.53526 -5.55479 0
M  V30 3456 H 345.065 0.270333 -5.72662 0
M  V30 3457 H 343.462 -0.478543 -5.98189 0
M  V30 3458 H 344.532 -1.11409 -4.71928 0
M  V30 3459 N 345.875 1.56104 -0.216619 0
M  V30 3460 C 346.838 2.18819 0.681962 0
M  V30 3461 C 347.838 1.14866 1.12528 0
M  V30 3462 O 349.028 1.40128 1.03488 0
M  V30 3463 C 346.16 2.80756 1.93362 0
M  V30 3464 H 347.353 2.99595 0.135254 0
M  V30 3465 H 344.906 1.56265 0.0330003 0
M  V30 3466 H 345.641 2.03837 2.52232 0
M  V30 3467 H 345.426 3.56876 1.62426 0
M  V30 3468 H 346.916 3.28844 2.57393 0
M  V30 3469 N 347.353 -0.0568162 1.57498 0
M  V30 3470 C 348.578 -0.769402 1.92601 0
M  V30 3471 C 349.003 -1.69559 0.814336 0
M  V30 3472 O 348.361 -1.79811 -0.231903 0
M  V30 3473 C 348.409 -1.52634 3.26704 0
M  V30 3474 O 347.513 -2.63797 3.16994 0
M  V30 3475 H 346.854 -0.208909 0.63028 0
M  V30 3476 H 349.384 -0.0205798 2.0459 0
M  V30 3477 H 349.394 -1.90234 3.60936 0
M  V30 3478 H 348.069 -0.846875 4.07186 0
M  V30 3479 H 346.646 -2.28943 2.94346 0
M  V30 3480 N 348.832 -1.54138 -0.328536 0
M  V30 3481 C 350.243 -1.63395 -0.903272 0
M  V30 3482 C 350.594 -0.524828 -1.8905 0
M  V30 3483 O 349.719 0.343068 -2.13663 0
M  V30 3484 C 350.314 -2.9618 -1.64507 0
M  V30 3485 C 348.873 -3.0765 -2.1686 0
M  V30 3486 C 348.02 -2.58933 -0.992416 0
M  V30 3487 H 350.971 -1.58344 -0.106253 0
M  V30 3488 H 350.992 -2.86061 -2.50897 0
M  V30 3489 H 350.504 -3.76884 -0.926302 0
M  V30 3490 H 348.605 -2.31611 -2.91868 0
M  V30 3491 H 348.718 -4.1337 -2.42202 0
M  V30 3492 H 347.082 -2.14706 -1.37016 0
M  V30 3493 H 347.865 -3.42089 -0.288041 0
M  V30 3494 N 350.31 0.590341 -1.46126 0
M  V30 3495 C 351.587 1.35029 -1.41515 0
M  V30 3496 C 351.967 2.10888 -0.0946472 0
M  V30 3497 O 351.315 2.08998 0.923693 0
M  V30 3498 C 351.525 2.28269 -2.63997 0
M  V30 3499 C 352.873 2.90338 -3.09821 0
M  V30 3500 O 353.897 2.38585 -2.64492 0
M  V30 3501 O 352.756 3.84321 -3.88535 0
M  V30 3502 H 349.85 0.606317 -0.562413 0
M  V30 3503 H 352.396 0.611994 -1.58281 0
M  V30 3504 H 351.168 1.71591 -3.51671 0
M  V30 3505 H 350.791 3.0945 -2.49652 0
M  V30 3506 N 351.788 1.33704 0.83433 0
M  V30 3507 C 353.013 1.28615 1.62705 0
M  V30 3508 C 353.438 -0.139242 1.87584 0
M  V30 3509 O 352.796 -1.09734 1.4432 0
M  V30 3510 C 352.844 2.07139 2.95171 0
M  V30 3511 O 351.948 1.4331 3.86699 0
M  V30 3512 H 351.289 0.44226 0.49528 0
M  V30 3513 H 353.819 1.76335 1.03766 0
M  V30 3514 H 353.829 2.18073 3.44831 0
M  V30 3515 H 352.504 3.10779 2.76386 0
M  V30 3516 H 351.081 1.4105 3.45195 0
M  V30 3517 N 353.266 -1.05314 1.17247 0
M  V30 3518 C 354.543 -1.75184 0.87005 0
M  V30 3519 C 354.923 -2.01481 -0.629965 0
M  V30 3520 O 354.271 -1.64988 -1.58086 0
M  V30 3521 C 354.481 -3.04594 1.70363 0
M  V30 3522 C 355.829 -3.78567 1.92281 0
M  V30 3523 O 356.853 -3.14461 1.67311 0
M  V30 3524 O 355.712 -4.93755 2.3424 0
M  V30 3525 H 352.806 -0.761729 0.322021 0
M  V30 3526 H 355.352 -1.11493 1.27935 0
M  V30 3527 H 354.124 -2.81201 2.72106 0
M  V30 3528 H 353.747 -3.76022 1.29202 0
M  V30 3529 N 354.744 -0.972509 -1.24016 0
M  V30 3530 C 355.974 -0.653853 -1.9598 0
M  V30 3531 C 356.382 0.781801 -1.72292 0
M  V30 3532 O 355.725 1.53677 -1.00644 0
M  V30 3533 C 355.787 -0.854608 -3.49194 0
M  V30 3534 C 355.451 -2.27082 -3.96589 0
M  V30 3535 C 356.448 -3.24892 -4.05883 0
M  V30 3536 C 354.133 -2.5998 -4.29786 0
M  V30 3537 C 356.127 -4.53684 -4.47716 0
M  V30 3538 C 353.814 -3.88997 -4.71301 0
M  V30 3539 C 354.812 -4.85661 -4.80232 0
M  V30 3540 O 354.5 -6.12376 -5.20818 0
M  V30 3541 H 354.232 -0.242572 -0.630979 0
M  V30 3542 H 356.786 -1.30431 -1.58673 0
M  V30 3543 H 355.016 -0.146985 -3.86421 0
M  V30 3544 H 356.705 -0.534311 -4.02368 0
M  V30 3545 H 357.471 -3.00805 -3.80449 0
M  V30 3546 H 353.35 -1.85457 -4.22051 0
M  V30 3547 H 356.894 -5.29135 -4.54601 0
M  V30 3548 H 352.791 -4.12882 -4.96184 0
M  V30 3549 H 353.559 -6.16013 -5.38953 0
M  V30 3550 N 356.222 1.38976 -0.743202 0
M  V30 3551 C 357.155 2.28128 -0.0572165 0
M  V30 3552 C 358.133 1.44827 0.739182 0
M  V30 3553 O 359.317 1.74207 0.720009 0
M  V30 3554 C 356.444 3.25796 0.926001 0
M  V30 3555 C 355.49 4.25947 0.217099 0
M  V30 3556 S 356.323 5.24604 -1.07477 0
M  V30 3557 C 357.479 6.25829 -0.0943545 0
M  V30 3558 H 357.712 2.85961 -0.813246 0
M  V30 3559 H 355.245 1.44822 -0.535341 0
M  V30 3560 H 357.203 3.82583 1.48797 0
M  V30 3561 H 355.864 2.66966 1.65493 0
M  V30 3562 H 355.057 4.94746 0.961372 0
M  V30 3563 H 354.659 3.73002 -0.273059 0
M  V30 3564 H 356.951 6.73411 0.743239 0
M  V30 3565 H 357.894 7.0412 -0.749713 0
M  V30 3566 H 358.302 5.63797 0.281706 0
M  V30 3567 N 357.7 0.491464 1.49741 0
M  V30 3568 C 358.928 -0.0535151 2.06831 0
M  V30 3569 C 359.343 -1.31683 1.35296 0
M  V30 3570 O 358.7 -1.77402 0.42836 0
M  V30 3571 C 358.751 -0.320835 3.60073 0
M  V30 3572 O 358.472 0.892394 4.28915 0
M  V30 3573 C 359.973 -0.910519 4.33848 0
M  V30 3574 H 357.193 0.0161909 0.670805 0
M  V30 3575 H 359.737 0.68609 1.92647 0
M  V30 3576 H 357.892 -1.0104 3.73991 0
M  V30 3577 H 358.306 0.649401 5.20464 0
M  V30 3578 H 359.78 -1.04721 5.41976 0
M  V30 3579 H 360.257 -1.90589 3.95692 0
M  V30 3580 H 360.863 -0.258712 4.24512 0
M  V30 3581 N 359.178 -1.55987 0.224894 0
M  V30 3582 C 360.426 -1.97998 -0.405099 0
M  V30 3583 C 360.747 -1.11387 -1.60056 0
M  V30 3584 O 360.017 -0.191645 -1.9496 0
M  V30 3585 H 358.597 -0.731235 -0.152658 0
M  V30 3586 H 361.259 -1.92279 0.318567 0
M  V30 3587 H 360.355 -3.03463 -0.729167 0
M  V30 3588 N 360.656 0.0484629 -1.57525 0
M  V30 3589 C 361.588 1.08222 -2.02041 0
M  V30 3590 C 362.601 1.33621 -0.930012 0
M  V30 3591 O 363.79 1.3145 -1.20761 0
M  V30 3592 C 360.89 2.42818 -2.36416 0
M  V30 3593 C 360.063 2.37049 -3.67596 0
M  V30 3594 C 359.122 3.53937 -3.89378 0
M  V30 3595 O 358.148 3.34308 -4.60681 0
M  V30 3596 N 359.35 4.75126 -3.3352 0
M  V30 3597 H 362.115 0.702946 -2.9134 0
M  V30 3598 H 359.676 0.236745 -1.6016 0
M  V30 3599 H 361.668 3.197 -2.48141 0
M  V30 3600 H 360.238 2.72661 -1.52888 0
M  V30 3601 H 359.458 1.45395 -3.66407 0
M  V30 3602 H 360.746 2.30318 -4.53686 0
M  V30 3603 H 360.144 4.93976 -2.75688 0
M  V30 3604 H 358.701 5.49439 -3.50656 0
M  V30 3605 N 362.134 1.5431 0.320358 0
M  V30 3606 C 363.359 1.76954 1.08175 0
M  V30 3607 C 363.784 0.518193 1.80821 0
M  V30 3608 O 363.142 -0.530411 1.73368 0
M  V30 3609 C 363.19 2.96451 2.05303 0
M  V30 3610 O 362.294 2.68221 3.13259 0
M  V30 3611 H 361.635 0.586275 0.311733 0
M  V30 3612 H 364.165 2.01342 0.363676 0
M  V30 3613 H 364.175 3.23887 2.48116 0
M  V30 3614 H 362.85 3.87196 1.51829 0
M  V30 3615 H 361.427 2.51744 2.75099 0
M  V30 3616 N 363.613 -0.582584 1.46437 0
M  V30 3617 C 364.543 -1.70187 1.59871 0
M  V30 3618 C 365.524 -1.64066 0.449042 0
M  V30 3619 O 366.709 -1.82081 0.6753 0
M  V30 3620 C 363.839 -3.08827 1.58881 0
M  V30 3621 C 362.793 -3.29779 2.72819 0
M  V30 3622 C 362.119 -4.68947 2.5689 0
M  V30 3623 C 363.419 -3.17601 4.1464 0
M  V30 3624 H 365.113 -1.592 2.53566 0
M  V30 3625 H 362.659 -0.764472 1.22032 0
M  V30 3626 H 364.612 -3.86951 1.66873 0
M  V30 3627 H 363.336 -3.20713 0.617306 0
M  V30 3628 H 361.995 -2.54054 2.64296 0
M  V30 3629 H 361.643 -4.77599 1.57823 0
M  V30 3630 H 361.343 -4.83919 3.33312 0
M  V30 3631 H 362.867 -5.4924 2.66773 0
M  V30 3632 H 364.281 -3.8557 4.24274 0
M  V30 3633 H 362.678 -3.44094 4.9165 0
M  V30 3634 H 363.748 -2.14681 4.34788 0
M  V30 3635 N 365.091 -1.34144 -0.827227 0
M  V30 3636 C 366.021 -1.28005 -1.95287 0
M  V30 3637 C 367.002 -0.158321 -1.69362 0
M  V30 3638 O 368.187 -0.349987 -1.9102 0
M  V30 3639 C 365.317 -1.03036 -3.31664 0
M  V30 3640 C 364.271 -2.11628 -3.72019 0
M  V30 3641 C 363.597 -1.71854 -5.0633 0
M  V30 3642 C 364.897 -3.53417 -3.8457 0
M  V30 3643 H 366.591 -2.22187 -2.00682 0
M  V30 3644 H 364.137 -1.0696 -0.964135 0
M  V30 3645 H 366.09 -0.973863 -4.09993 0
M  V30 3646 H 364.814 -0.0529391 -3.26557 0
M  V30 3647 H 363.473 -2.16339 -2.95961 0
M  V30 3648 H 363.121 -0.727841 -4.97706 0
M  V30 3649 H 362.821 -2.44531 -5.34302 0
M  V30 3650 H 364.345 -1.67692 -5.87122 0
M  V30 3651 H 365.759 -3.51142 -4.5318 0
M  V30 3652 H 364.156 -4.24679 -4.2399 0
M  V30 3653 H 365.226 -3.91072 -2.86689 0
M  V30 3654 N 366.569 1.04691 -1.17803 0
M  V30 3655 C 367.818 1.77176 -0.963931 0
M  V30 3656 C 368.131 1.88888 0.508015 0
M  V30 3657 O 369.337 2.58164 0.840465 0
M  V30 3658 C 367.793 3.18518 -1.67555 0
M  V30 3659 C 367.401 3.14919 -3.18637 0
M  V30 3660 C 369.145 3.95424 -1.54402 0
M  V30 3661 C 367.052 4.51081 -3.82466 0
M  V30 3662 H 365.982 0.664116 -0.357023 0
M  V30 3663 H 368.633 1.17303 -1.4111 0
M  V30 3664 H 367.015 3.78748 -1.15613 0
M  V30 3665 H 368.189 2.64178 -3.77554 0
M  V30 3666 H 366.504 2.51512 -3.31859 0
M  V30 3667 H 369.101 4.96106 -1.99456 0
M  V30 3668 H 369.444 4.13343 -0.495329 0
M  V30 3669 H 369.977 3.41754 -2.0359 0
M  V30 3670 H 366.716 4.38368 -4.87354 0
M  V30 3671 H 366.236 5.01951 -3.28337 0
M  V30 3672 H 367.915 5.2001 -3.84965 0
M  V30 3673 N 368.047 0.979072 1.23499 0
M  V30 3674 C 369.324 0.563674 1.87302 0
M  V30 3675 C 369.704 -0.959199 1.88049 0
M  V30 3676 O 369.052 -1.83535 1.36114 0
M  V30 3677 C 369.262 1.16822 3.28867 0
M  V30 3678 C 370.61 1.26014 4.0547 0
M  V30 3679 O 371.634 1.12158 3.38082 0
M  V30 3680 O 370.493 1.48044 5.26066 0
M  V30 3681 H 367.587 0.189602 0.804972 0
M  V30 3682 H 370.133 1.07407 1.31384 0
M  V30 3683 H 368.905 2.21049 3.22883 0
M  V30 3684 H 368.528 0.642564 3.92373 0
M  V30 3685 N 369.525 -1.3858 0.750561 0
M  V30 3686 C 370.773 -1.99789 0.30477 0
M  V30 3687 C 371.094 -1.59874 -1.11649 0
M  V30 3688 O 370.364 -0.85417 -1.76297 0
M  V30 3689 H 368.944 -0.738902 0.109694 0
M  V30 3690 H 371.606 -1.69391 0.963983 0
M  V30 3691 H 370.702 -3.09952 0.365499 0
M  V30 3692 N 371.003 -0.499398 -1.49478 0
M  V30 3693 C 372.251 0.0455996 -2.02049 0
M  V30 3694 C 372.572 1.37633 -1.38138 0
M  V30 3695 O 371.842 1.8842 -0.536166 0
M  V30 3696 H 370.422 0.0198416 -0.746736 0
M  V30 3697 H 373.084 -0.656274 -1.83519 0
M  V30 3698 H 372.18 0.176445 -3.11601 0
M  V30 3699 N 372.481 1.55866 -0.233164 0
M  V30 3700 C 373.414 2.16794 0.712442 0
M  V30 3701 C 374.392 1.1158 1.18273 0
M  V30 3702 O 375.576 1.39897 1.26337 0
M  V30 3703 C 372.703 2.75757 1.96661 0
M  V30 3704 C 371.749 3.93902 1.63533 0
M  V30 3705 S 372.582 5.30223 0.74995 0
M  V30 3706 C 373.738 5.92631 2.01343 0
M  V30 3707 H 373.971 2.96662 0.194617 0
M  V30 3708 H 371.504 1.5439 -0.0177425 0
M  V30 3709 H 373.462 3.10367 2.68668 0
M  V30 3710 H 372.123 1.9586 2.45556 0
M  V30 3711 H 371.316 4.33702 2.56747 0
M  V30 3712 H 370.918 3.60499 0.995804 0
M  V30 3713 H 373.21 6.09312 2.96219 0
M  V30 3714 H 374.153 6.88388 1.65915 0
M  V30 3715 H 374.561 5.21571 2.15925 0
M  V30 3716 N 373.959 -0.0401083 1.57549 0
M  V30 3717 C 375.205 -0.734211 1.89043 0
M  V30 3718 C 375.538 -1.75591 0.829535 0
M  V30 3719 O 374.813 -1.93868 -0.156706 0
M  V30 3720 C 375.096 -1.41374 3.31188 0
M  V30 3721 C 374.949 -0.406299 4.47961 0
M  V30 3722 C 376.268 -2.35061 3.72068 0
M  V30 3723 H 373.387 -0.265447 0.687537 0
M  V30 3724 H 376.029 0.00294087 1.9 0
M  V30 3725 H 374.179 -2.04206 3.30503 0
M  V30 3726 H 375.851 0.219255 4.60779 0
M  V30 3727 H 374.094 0.275485 4.32924 0
M  V30 3728 H 374.765 -0.920022 5.44279 0
M  V30 3729 H 377.241 -1.82282 3.74049 0
M  V30 3730 H 376.117 -2.79593 4.72355 0
M  V30 3731 H 376.378 -3.21258 3.0372 0
M  V30 3732 N 375.437 -1.54477 -0.31217 0
M  V30 3733 C 376.684 -1.73227 -1.04875 0
M  V30 3734 C 377.012 -0.512042 -1.87639 0
M  V30 3735 O 376.267 0.506131 -1.89042 0
M  V30 3736 C 376.566 -2.967 -1.99258 0
M  V30 3737 C 376.232 -4.30974 -1.32559 0
M  V30 3738 C 374.894 -4.67477 -1.141 0
M  V30 3739 C 377.246 -5.14258 -0.847835 0
M  V30 3740 C 374.574 -5.84852 -0.465326 0
M  V30 3741 C 376.926 -6.32327 -0.185931 0
M  V30 3742 C 375.59 -6.67499 0.0107077 0
M  V30 3743 H 374.86 -0.633881 -0.383765 0
M  V30 3744 H 377.507 -1.88727 -0.324731 0
M  V30 3745 H 375.812 -2.75935 -2.7815 0
M  V30 3746 H 377.509 -3.08401 -2.563 0
M  V30 3747 H 374.099 -4.02262 -1.4793 0
M  V30 3748 H 378.283 -4.86565 -0.978192 0
M  V30 3749 H 373.539 -6.10654 -0.301883 0
M  V30 3750 H 377.713 -6.96135 0.192211 0
M  V30 3751 H 375.34 -7.58306 0.536287 0
M  V30 3752 N 376.915 0.57481 -1.46744 0
M  V30 3753 C 377.863 1.70435 -1.58286 0
M  V30 3754 C 378.857 1.63287 -0.450956 0
M  V30 3755 O 380.063 1.68685 -0.628121 0
M  V30 3756 H 376.438 0.56364 -0.497809 0
M  V30 3757 H 378.409 1.57833 -2.53242 0
M  V30 3758 C 377.158 3.08815 -1.59776 0
M  V30 3759 H 376.481 3.1499 -2.46214 0
M  V30 3760 H 377.921 3.87588 -1.71905 0
M  V30 3761 C 376.38 3.35301 -0.327812 0
M  V30 3762 O 376.91 3.97511 0.57861 0
M  V30 3763 N 375.116 2.89816 -0.213274 0
M  V30 3764 H 374.663 2.39371 -0.951798 0
M  V30 3765 H 374.621 3.0791 0.63553 0
M  V30 3766 O 378.432 1.44602 0.719209 0
M  V30 3767 H 379.123 1.36947 1.36986 0
M  V30 END ATOM
M  V30 BEGIN BOND
M  V30 END BOND
M  V30 END CTAB
M  END
$$$$
