drugbank_target|Q49184 Dihydropteroate synthase type-1 (DB00891)
 OpenBabel12092119243D

  0  0  0     0  0            999 V3000
M  V30 BEGIN CTAB
M  V30 COUNTS 4326 4367 0 0 0
M  V30 BEGIN ATOM
M  V30 1 H -0.908 1.98254 -0.117106 0
M  V30 2 N 0 1.576 0 0
M  V30 3 C 0.933 2.03868 1.02534 0
M  V30 4 C 1.911 0.928543 1.3348 0
M  V30 5 O 3.095 1.19667 1.45644 0
M  V30 6 C 0.222 2.43627 2.35294 0
M  V30 7 C -0.732 3.65373 2.2001 0
M  V30 8 S 0.101 5.13292 1.52614 0
M  V30 9 C 1.257 5.56322 2.86805 0
M  V30 10 H 1.49 2.90518 0.631377 0
M  V30 11 H -0.977 1.52953 0.210867 0
M  V30 12 H 0.981 2.67203 3.11629 0
M  V30 13 H -0.358 1.57376 2.7183 0
M  V30 14 H -1.165 3.90944 3.18086 0
M  V30 15 H -1.563 3.418 1.51819 0
M  V30 16 H 0.729 5.58782 3.83104 0
M  V30 17 H 1.672 6.56266 2.65933 0
M  V30 18 H 2.08 4.83886 2.90714 0
M  V30 19 N 1.4781 -0.272755 1.55222 0
M  V30 20 C 2.4081 -1.34136 1.91127 0
M  V30 21 C 3.3891 -1.51513 0.773168 0
M  V30 22 O 4.5741 -1.64552 1.03132 0
M  V30 23 C 1.7041 -2.70083 2.1834 0
M  V30 24 C 0.6581 -2.67437 3.34158 0
M  V30 25 C -0.0159 -4.06938 3.46851 0
M  V30 26 C 1.2841 -2.26686 4.70543 0
M  V30 27 H 2.9781 -1.04333 2.80633 0
M  V30 28 H 0.5241 -0.500454 1.35024 0
M  V30 29 H 2.4771 -3.44952 2.42046 0
M  V30 30 H 1.2011 -3.01469 1.25634 0
M  V30 31 H -0.1399 -1.95026 3.1042 0
M  V30 32 H -0.4919 -4.35547 2.51611 0
M  V30 33 H -0.7919 -4.06062 4.2472 0
M  V30 34 H 0.7321 -4.83545 3.72849 0
M  V30 35 H 2.1461 -2.91277 4.93792 0
M  V30 36 H 0.5431 -2.36971 5.5133 0
M  V30 37 H 1.6131 -1.21818 4.69349 0
M  V30 38 N 2.9562 -1.48159 -0.537278 0
M  V30 39 C 4.3722 -1.34118 -0.865129 0
M  V30 40 C 4.5722 -0.346678 -1.98495 0
M  V30 41 O 3.6282 0.234715 -2.51407 0
M  V30 42 C 4.9412 -2.73963 -1.23954 0
M  V30 43 C 6.4892 -2.82397 -1.34984 0
M  V30 44 C 6.9642 -4.22928 -1.75772 0
M  V30 45 N 8.4552 -4.25566 -1.82887 0
M  V30 46 C 9.1902 -5.31235 -2.15817 0
M  V30 47 N 8.6862 -6.47189 -2.47222 0
M  V30 48 N 10.4792 -5.18624 -2.16761 0
M  V30 49 H 2.6302 -2.1144 0.201715 0
M  V30 50 H 4.8932 -0.947598 0.0275949 0
M  V30 51 H 4.5992 -3.48264 -0.490381 0
M  V30 52 H 4.4732 -3.0702 -2.19132 0
M  V30 53 H 6.8602 -2.08356 -2.08978 0
M  V30 54 H 6.9412 -2.5297 -0.379448 0
M  V30 55 H 6.5852 -4.97482 -1.02341 0
M  V30 56 H 6.5152 -4.49794 -2.73848 0
M  V30 57 H 9.0062 -3.41924 -1.60924 0
M  V30 58 H 9.3192 -7.23564 -2.71433 0
M  V30 59 H 7.6642 -6.50476 -2.44757 0
M  V30 60 H 10.8552 -4.27056 -1.91679 0
M  V30 61 H 11.0282 -6.01078 -2.42093 0
M  V30 62 N 4.4343 0.785586 -1.36625 0
M  V30 63 C 5.6593 1.57963 -1.34397 0
M  V30 64 C 6.0843 1.87964 0.071526 0
M  V30 65 O 5.4423 1.48182 1.0446 0
M  V30 66 C 5.4903 2.87511 -2.17646 0
M  V30 67 O 4.5943 3.81281 -1.57158 0
M  V30 68 H 3.9353 0.479014 -0.459828 0
M  V30 69 H 6.4653 0.973411 -1.79961 0
M  V30 70 H 6.4753 3.36745 -2.30362 0
M  V30 71 H 5.1503 2.65002 -3.20541 0
M  V30 72 H 3.7273 3.39885 -1.53403 0
M  V30 73 N 5.9124 1.20967 1.01018 0
M  V30 74 C 7.3284 0.965905 1.27053 0
M  V30 75 C 7.5284 -0.350785 1.98423 0
M  V30 76 O 6.5844 -1.07773 2.28344 0
M  V30 77 C 7.8974 2.15294 2.09926 0
M  V30 78 C 9.4454 2.19463 2.23171 0
M  V30 79 C 9.9204 3.3767 3.09424 0
M  V30 80 N 11.4114 3.37724 3.17012 0
M  V30 81 C 12.1464 4.25837 3.83993 0
M  V30 82 N 11.6424 5.24138 4.53047 0
M  V30 83 N 13.4354 4.1366 3.80581 0
M  V30 84 H 5.5864 2.0565 0.531194 0
M  V30 85 H 7.8494 0.90024 0.297106 0
M  V30 86 H 7.5554 3.10684 1.64828 0
M  V30 87 H 7.4294 2.13923 3.10672 0
M  V30 88 H 9.8164 1.24632 2.6749 0
M  V30 89 H 9.8974 2.2488 1.21912 0
M  V30 90 H 9.5414 4.32791 2.65808 0
M  V30 91 H 9.4714 3.29491 4.10784 0
M  V30 92 H 11.9624 2.6658 2.6785 0
M  V30 93 H 12.2754 5.87684 5.01844 0
M  V30 94 H 10.6204 5.28068 4.5185 0
M  V30 95 H 13.8114 3.36127 3.25785 0
M  V30 96 H 13.9844 4.82538 4.32505 0
M  V30 97 N 7.3905 -1.2043 1.01659 0
M  V30 98 C 8.6365 -1.90079 0.706963 0
M  V30 99 C 8.9695 -1.78648 -0.761474 0
M  V30 100 O 8.2445 -1.17069 -1.55323 0
M  V30 101 C 8.5275 -3.41469 1.14327 0
M  V30 102 C 8.3805 -3.61833 2.67201 0
M  V30 103 C 9.6995 -4.34261 0.714529 0
M  V30 104 H 6.8185 -0.690254 0.2583 0
M  V30 105 H 9.4605 -1.41826 1.26433 0
M  V30 106 H 7.6105 -3.82696 0.669056 0
M  V30 107 H 9.2825 -3.2986 3.22475 0
M  V30 108 H 7.5255 -3.05304 3.08175 0
M  V30 109 H 8.1965 -4.67955 2.92783 0
M  V30 110 H 10.6725 -4.00682 1.12221 0
M  V30 111 H 9.5485 -5.38806 1.04784 0
M  V30 112 H 9.8095 -4.40431 -0.383799 0
M  V30 113 N 8.8686 -0.792821 -1.36206 0
M  V30 114 C 10.0966 -0.378825 -2.03402 0
M  V30 115 C 10.5116 1.00586 -1.59774 0
M  V30 116 O 9.8686 1.64574 -0.788764 0
M  V30 117 C 9.9196 -0.43683 -3.58851 0
M  V30 118 O 9.6406 -1.76691 -4.00889 0
M  V30 119 C 11.1416 -0.0138943 -4.43298 0
M  V30 120 H 8.3616 -0.155673 -0.652692 0
M  V30 121 H 10.9056 -1.07261 -1.74113 0
M  V30 122 H 9.0606 0.208575 -3.86838 0
M  V30 123 H 9.4746 -1.72011 -4.95492 0
M  V30 124 H 10.9486 -0.105615 -5.51899 0
M  V30 125 H 11.4256 1.03915 -4.2673 0
M  V30 126 H 12.0316 -0.63192 -4.20579 0
M  V30 127 N 10.3467 1.47872 -0.545128 0
M  V30 128 C 11.5927 2.02793 -0.0166104 0
M  V30 129 C 11.9257 1.41987 1.32489 0
M  V30 130 O 11.2007 0.571045 1.85928 0
M  V30 131 C 11.4837 3.59989 0.0893294 0
M  V30 132 C 11.3367 4.3125 -1.27841 0
M  V30 133 C 12.6557 4.32606 0.808724 0
M  V30 134 H 9.7747 0.736962 -0.00751035 0
M  V30 135 H 12.4167 1.76433 -0.705085 0
M  V30 136 H 10.5667 3.82579 0.675681 0
M  V30 137 H 12.2387 4.20035 -1.90704 0
M  V30 138 H 10.4817 3.92076 -1.85632 0
M  V30 139 H 11.1527 5.39736 -1.15713 0
M  V30 140 H 13.6287 4.14936 0.310992 0
M  V30 141 H 12.5047 5.42251 0.851782 0
M  V30 142 H 12.7657 4.00963 1.86229 0
M  V30 143 N 11.8248 0.280983 1.55075 0
M  V30 144 C 13.0718 -0.334115 1.99725 0
M  V30 145 C 13.3998 -1.5542 1.1694 0
M  V30 146 O 12.6548 -1.94361 0.228531 0
M  V30 147 C 12.9538 -0.754656 3.49342 0
M  V30 148 C 12.6198 0.361445 4.49449 0
M  V30 149 C 11.2818 0.667893 4.76542 0
M  V30 150 C 13.6338 1.11322 5.09173 0
M  V30 151 C 10.9618 1.7296 5.60626 0
M  V30 152 C 13.3138 2.1647 5.9441 0
M  V30 153 C 11.9778 2.47742 6.19822 0
M  V30 154 H 11.2478 -0.122261 0.730844 0
M  V30 155 H 13.8948 0.395917 1.87363 0
M  V30 156 H 12.1998 -1.56446 3.5921 0
M  V30 157 H 13.8968 -1.24142 3.813 0
M  V30 158 H 10.4868 0.112481 4.28452 0
M  V30 159 H 14.6708 0.88973 4.8826 0
M  V30 160 H 9.9268 1.97684 5.78559 0
M  V30 161 H 14.1008 2.75193 6.3972 0
M  V30 162 H 11.7278 3.30145 6.84769 0
M  V30 163 N 13.3029 -1.57598 0.00835791 0
M  V30 164 C 14.5509 -1.90551 -0.6734 0
M  V30 165 C 14.8719 -0.883301 -1.73847 0
M  V30 166 O 14.1419 0.0781442 -1.95744 0
M  V30 167 H 12.7219 -0.703312 -0.251717 0
M  V30 168 H 15.3839 -1.94833 0.0512592 0
M  V30 169 H 14.4799 -2.9056 -1.13935 0
M  V30 170 N 14.781 0.264519 -1.55364 0
M  V30 171 C 16.03 0.992812 -1.75574 0
M  V30 172 C 16.343 1.87142 -0.568979 0
M  V30 173 O 17.549 2.63513 -0.653682 0
M  V30 174 C 16.005 1.81519 -3.10771 0
M  V30 175 C 15.613 0.984839 -4.37041 0
M  V30 176 C 17.357 2.53727 -3.40327 0
M  V30 177 C 15.264 1.80209 -5.63275 0
M  V30 178 H 14.194 0.374412 -0.65447 0
M  V30 179 H 16.845 0.248138 -1.81815 0
M  V30 180 H 15.227 2.60115 -2.98591 0
M  V30 181 H 16.401 0.242455 -4.60162 0
M  V30 182 H 14.716 0.37691 -4.14691 0
M  V30 183 H 17.313 3.15292 -4.3185 0
M  V30 184 H 17.656 3.24447 -2.60845 0
M  V30 185 H 18.189 1.82156 -3.53644 0
M  V30 186 H 14.928 1.13896 -6.45529 0
M  V30 187 H 14.448 2.52022 -5.44284 0
M  V30 188 H 16.127 2.37364 -6.01887 0
M  V30 189 N 16.2591 1.48442 0.529413 0
M  V30 190 C 17.1891 1.65902 1.64313 0
M  V30 191 C 18.1701 0.507897 1.6234 0
M  V30 192 O 19.3551 0.740503 1.79528 0
M  V30 193 C 16.4851 1.69911 3.02898 0
M  V30 194 C 15.4391 2.8453 3.19729 0
M  V30 195 C 14.7651 2.73629 4.59381 0
M  V30 196 C 16.0651 4.25821 3.02447 0
M  V30 197 H 17.7591 2.5914 1.49955 0
M  V30 198 H 15.3051 1.24709 0.719982 0
M  V30 199 H 17.2581 1.80715 3.80684 0
M  V30 200 H 15.9821 0.732524 3.18279 0
M  V30 201 H 14.6411 2.73283 2.44361 0
M  V30 202 H 14.2891 1.74938 4.71599 0
M  V30 203 H 13.9891 3.50541 4.71588 0
M  V30 204 H 15.5131 2.86401 5.39265 0
M  V30 205 H 16.9271 4.37898 3.70024 0
M  V30 206 H 15.3241 5.03735 3.26146 0
M  V30 207 H 16.3941 4.42244 1.98867 0
M  V30 208 N 17.7372 -0.778329 1.37039 0
M  V30 209 C 18.6852 -1.91278 1.32345 0
M  V30 210 C 19.6792 -1.68051 0.213331 0
M  V30 211 O 20.8852 -1.75922 0.38098 0
M  V30 212 H 17.2602 -0.628909 0.412283 0
M  V30 213 H 19.2312 -1.92355 2.28127 0
M  V30 214 C 17.9802 -3.28455 1.14073 0
M  V30 215 H 17.3032 -3.46901 1.98746 0
M  V30 216 H 18.7432 -4.08152 1.14837 0
M  V30 217 C 17.2022 -3.36548 -0.154015 0
M  V30 218 O 17.7322 -3.85186 -1.13993 0
M  V30 219 N 15.9382 -2.89894 -0.202475 0
M  V30 220 H 15.4852 -2.50504 0.600476 0
M  V30 221 H 15.4432 -2.9569 -1.06841 0
M  V30 222 N 19.2153 -1.21501 -1.00376 0
M  V30 223 C 20.1453 -0.999478 -2.11028 0
M  V30 224 C 21.1263 0.0759671 -1.6993 0
M  V30 225 O 22.3113 -0.0841106 -1.94018 0
M  V30 226 C 19.4413 -0.564709 -3.42678 0
M  V30 227 C 18.3953 -1.58486 -3.97576 0
M  V30 228 C 17.7213 -1.00628 -5.25146 0
M  V30 229 C 19.0213 -2.97204 -4.29496 0
M  V30 230 H 20.7153 -1.92495 -2.29317 0
M  V30 231 H 18.2613 -0.92693 -1.102 0
M  V30 232 H 20.2143 -0.401091 -4.19487 0
M  V30 233 H 18.9383 0.396411 -3.24185 0
M  V30 234 H 17.5973 -1.73606 -3.22888 0
M  V30 235 H 17.2453 -0.0368439 -5.02987 0
M  V30 236 H 16.9453 -1.68771 -5.62841 0
M  V30 237 H 18.4693 -0.854015 -6.04598 0
M  V30 238 H 19.8833 -2.8552 -4.97143 0
M  V30 239 H 18.2803 -3.62372 -4.78338 0
M  V30 240 H 19.3503 -3.47956 -3.3772 0
M  V30 241 N 20.6934 1.19889 -1.02296 0
M  V30 242 C 21.9214 1.9339 -0.735399 0
M  V30 243 C 22.3364 1.75148 0.704887 0
M  V30 244 O 21.6934 1.06954 1.47875 0
M  V30 245 C 21.7444 3.45313 -1.06962 0
M  V30 246 O 21.4654 3.62964 -2.45334 0
M  V30 247 C 22.9664 4.35948 -0.804021 0
M  V30 248 H 20.1864 0.61448 -0.269546 0
M  V30 249 H 22.7304 1.522 -1.36585 0
M  V30 250 H 20.8854 3.84359 -0.484455 0
M  V30 251 H 21.2994 4.56886 -2.57595 0
M  V30 252 H 22.7734 5.41174 -1.0879 0
M  V30 253 H 23.2504 4.3842 0.261691 0
M  V30 254 H 23.8564 4.02574 -1.37164 0
M  V30 255 N 22.1715 0.800033 1.35784 0
M  V30 256 C 23.0815 0.207204 2.33683 0
M  V30 257 C 24.0975 -0.64631 1.61551 0
M  V30 258 O 25.2735 -0.559604 1.93469 0
M  V30 259 C 22.3385 -0.639659 3.40748 0
M  V30 260 C 21.3995 0.233585 4.28664 0
M  V30 261 C 20.6325 -0.572954 5.30616 0
M  V30 262 O 20.8555 -1.80816 5.40982 0
M  V30 263 O 19.7895 0.0327285 6.01891 0
M  V30 264 H 23.6155 1.01692 2.86169 0
M  V30 265 H 21.2005 0.561691 1.38439 0
M  V30 266 H 23.0825 -1.12223 4.06182 0
M  V30 267 H 21.7575 -1.42708 2.90544 0
M  V30 268 H 20.6645 0.763147 3.66233 0
M  V30 269 H 21.9975 0.984784 4.82248 0
M  V30 270 N 23.6496 -1.47581 0.552962 0
M  V30 271 C 24.9266 -1.95563 -0.0381515 0
M  V30 272 C 25.3066 -1.49552 -1.48988 0
M  V30 273 O 24.6546 -0.732414 -2.16444 0
M  V30 274 C 24.8646 -3.48848 0.102919 0
M  V30 275 C 26.2126 -4.24577 -0.0446082 0
M  V30 276 O 27.2366 -3.56187 0.0302548 0
M  V30 277 O 26.0956 -5.46116 -0.204923 0
M  V30 278 H 23.1896 -0.824321 -0.0665067 0
M  V30 279 H 25.7356 -1.58001 0.619186 0
M  V30 280 H 24.5076 -3.75129 1.11328 0
M  V30 281 H 24.1306 -3.93165 -0.592224 0
M  V30 282 N 25.1277 -0.289203 -1.54924 0
M  V30 283 C 26.3527 0.329299 -2.04769 0
M  V30 284 C 26.7777 1.4763 -1.16564 0
M  V30 285 O 26.1357 1.80527 -0.167186 0
M  V30 286 C 26.1837 0.774438 -3.52186 0
M  V30 287 O 25.2877 1.88038 -3.67036 0
M  V30 288 H 24.6287 0.0659259 -0.660719 0
M  V30 289 H 27.1587 -0.42761 -2.00082 0
M  V30 290 H 27.1687 1.06642 -3.93816 0
M  V30 291 H 25.8437 -0.0646707 -4.1585 0
M  V30 292 H 24.4207 1.58985 -3.3731 0
M  V30 293 N 26.6058 1.57591 -0.0167156 0
M  V30 294 C 27.8528 1.91283 0.664597 0
M  V30 295 C 28.1808 0.891949 1.72842 0
M  V30 296 O 27.4358 -0.100931 1.9544 0
M  V30 297 C 27.7348 3.3172 1.33029 0
M  V30 298 C 27.4008 4.4914 0.398047 0
M  V30 299 C 26.0628 4.80992 0.141421 0
M  V30 300 C 28.4148 5.20634 -0.242825 0
M  V30 301 C 25.7428 5.81703 -0.764092 0
M  V30 302 C 28.0948 6.22311 -1.13632 0
M  V30 303 C 26.7588 6.52611 -1.40196 0
M  V30 304 H 26.0288 0.699956 0.243193 0
M  V30 305 H 28.6758 1.9135 -0.0758267 0
M  V30 306 H 26.9808 3.27856 2.14517 0
M  V30 307 H 28.6778 3.55055 1.86379 0
M  V30 308 H 25.2678 4.24262 0.608238 0
M  V30 309 H 29.4518 4.96267 -0.0576019 0
M  V30 310 H 24.7078 6.03532 -0.977732 0
M  V30 311 H 28.8818 6.76834 -1.63917 0
M  V30 312 H 26.5088 7.30467 -2.10529 0
M  V30 313 N 28.0839 -0.256276 1.55502 0
M  V30 314 C 29.3309 -0.985619 1.76895 0
M  V30 315 C 29.6589 -1.85671 0.579355 0
M  V30 316 O 28.9139 -1.90744 -0.437651 0
M  V30 317 C 29.2129 -1.88432 3.03691 0
M  V30 318 C 28.8789 -1.16936 4.35473 0
M  V30 319 C 27.5409 -0.97173 4.71286 0
M  V30 320 C 29.8929 -0.661889 5.1698 0
M  V30 321 C 27.2209 -0.254179 5.86149 0
M  V30 322 C 29.5729 0.042149 6.32586 0
M  V30 323 C 28.2369 0.25134 6.67027 0
M  V30 324 H 27.5069 -0.360663 0.647304 0
M  V30 325 H 30.1539 -0.256483 1.89775 0
M  V30 326 H 28.4589 -2.68021 2.85783 0
M  V30 327 H 30.1559 -2.45015 3.1744 0
M  V30 328 H 26.7459 -1.33332 4.07333 0
M  V30 329 H 30.9299 -0.802145 4.89775 0
M  V30 330 H 26.1859 -0.0815408 6.11346 0
M  V30 331 H 30.3599 0.443049 6.94989 0
M  V30 332 H 27.9869 0.809314 7.5588 0
M  V30 333 N 29.562 -1.4872 -0.521534 0
M  V30 334 C 30.839 -1.4766 -1.2828 0
M  V30 335 C 31.219 -0.19292 -2.10217 0
M  V30 336 O 30.567 0.825193 -2.13079 0
M  V30 337 C 30.777 -2.74358 -2.15705 0
M  V30 338 C 32.125 -3.23028 -2.75569 0
M  V30 339 O 33.149 -2.75333 -2.25987 0
M  V30 340 O 32.008 -4.0604 -3.65778 0
M  V30 341 H 29.102 -0.590085 -0.579421 0
M  V30 342 H 31.648 -1.60963 -0.537492 0
M  V30 343 H 30.42 -3.59292 -1.54999 0
M  V30 344 H 30.043 -2.63816 -2.97467 0
M  V30 345 N 31.0401 0.771051 -1.3745 0
M  V30 346 C 31.9501 1.91538 -1.35464 0
M  V30 347 C 32.9661 1.72134 -0.254123 0
M  V30 348 O 34.1421 1.95358 -0.489626 0
M  V30 349 C 31.2071 3.26671 -1.16134 0
M  V30 350 C 30.2681 3.58723 -2.35831 0
M  V30 351 C 29.5011 4.87409 -2.17413 0
M  V30 352 O 29.7241 5.58506 -1.15876 0
M  V30 353 O 28.6581 5.18539 -3.05615 0
M  V30 354 H 32.4841 1.96165 -2.31847 0
M  V30 355 H 30.0691 0.9139 -1.18187 0
M  V30 356 H 31.9511 4.07499 -1.07345 0
M  V30 357 H 30.6261 3.22894 -0.228251 0
M  V30 358 H 29.5331 2.78127 -2.50192 0
M  V30 359 H 30.8661 3.67243 -3.27709 0
M  V30 360 N 32.5182 1.22032 0.997298 0
M  V30 361 C 33.7432 1.06921 1.77715 0
M  V30 362 C 34.1682 -0.376226 1.84299 0
M  V30 363 O 33.5262 -1.27165 1.29223 0
M  V30 364 C 33.5742 1.67996 3.19076 0
M  V30 365 O 32.6782 0.930653 4.01762 0
M  V30 366 H 32.0192 0.375814 0.547412 0
M  V30 367 H 34.5492 1.61737 1.25309 0
M  V30 368 H 34.5592 1.72538 3.69723 0
M  V30 369 H 33.2342 2.73182 3.13599 0
M  V30 370 H 31.8112 0.960917 3.60307 0
M  V30 371 N 33.9963 -1.19345 1.0293 0
M  V30 372 C 35.4123 -1.41069 0.746446 0
M  V30 373 C 35.6123 -1.90078 -0.668776 0
M  V30 374 O 34.6683 -2.0778 -1.4347 0
M  V30 375 C 35.9813 -2.42141 1.78292 0
M  V30 376 C 37.5293 -2.55887 1.80252 0
M  V30 377 C 38.0043 -3.60214 2.8286 0
M  V30 378 N 39.4953 -3.67711 2.81679 0
M  V30 379 C 40.2303 -4.48128 3.57727 0
M  V30 380 N 39.7263 -5.32248 4.43491 0
M  V30 381 N 41.5193 -4.42782 3.46267 0
M  V30 382 H 33.6703 -0.858536 1.94275 0
M  V30 383 H 35.9333 -0.439541 0.839945 0
M  V30 384 H 35.6393 -2.13155 2.79746 0
M  V30 385 H 35.5133 -3.41323 1.60557 0
M  V30 386 H 37.9003 -2.84196 0.794757 0
M  V30 387 H 37.9813 -1.56858 2.02062 0
M  V30 388 H 37.6253 -3.32647 3.83807 0
M  V30 389 H 37.5553 -4.58895 2.58307 0
M  V30 390 H 40.0463 -3.07634 2.19476 0
M  V30 391 H 40.3593 -5.90729 4.98256 0
M  V30 392 H 38.7043 -5.31707 4.47564 0
M  V30 393 H 41.8953 -3.76107 2.78677 0
M  V30 394 H 42.0683 -5.05215 4.05785 0
M  V30 395 N 35.4744 -0.807222 -1.35358 0
M  V30 396 C 36.8904 -0.491038 -1.51858 0
M  V30 397 C 37.0904 0.987648 -1.75635 0
M  V30 398 O 36.1464 1.77265 -1.79815 0
M  V30 399 C 37.4594 -1.33695 -2.69344 0
M  V30 400 C 39.0074 -1.33246 -2.83222 0
M  V30 401 C 39.4824 -2.1625 -4.03733 0
M  V30 402 N 40.9734 -2.1379 -4.10911 0
M  V30 403 C 41.7084 -2.74772 -5.03277 0
M  V30 404 N 41.2044 -3.44684 -6.0097 0
M  V30 405 N 42.9974 -2.6441 -4.96028 0
M  V30 406 H 35.1484 -1.76485 -1.18181 0
M  V30 407 H 37.4114 -0.751199 -0.578276 0
M  V30 408 H 37.1174 -2.38634 -2.58354 0
M  V30 409 H 36.9914 -0.990618 -3.6396 0
M  V30 410 H 39.3784 -0.290911 -2.93663 0
M  V30 411 H 39.4594 -1.71866 -1.89461 0
M  V30 412 H 39.1034 -3.20445 -3.94052 0
M  V30 413 H 39.0334 -1.74989 -4.96675 0
M  V30 414 H 41.5244 -1.62923 -3.40976 0
M  V30 415 H 41.8374 -3.88501 -6.68047 0
M  V30 416 H 40.1824 -3.48788 -6.01142 0
M  V30 417 H 43.3734 -2.0938 -4.18662 0
M  V30 418 H 43.5464 -3.12225 -5.6782 0
M  V30 419 N 36.9525 1.47285 -0.560781 0
M  V30 420 C 37.8825 2.32857 0.173105 0
M  V30 421 C 38.8635 1.44009 0.905281 0
M  V30 422 O 40.0485 1.7286 0.885046 0
M  V30 423 C 37.1785 3.25861 1.20133 0
M  V30 424 C 36.1325 4.23978 0.585388 0
M  V30 425 C 35.4585 5.06332 1.7185 0
M  V30 426 C 36.7585 5.20242 -0.463178 0
M  V30 427 H 38.4525 2.94466 -0.541307 0
M  V30 428 H 35.9985 1.41601 -0.261764 0
M  V30 429 H 37.9515 3.84569 1.72293 0
M  V30 430 H 36.6755 2.62315 1.94573 0
M  V30 431 H 35.3345 3.66501 0.085054 0
M  V30 432 H 34.9825 4.39186 2.45203 0
M  V30 433 H 34.6825 5.72762 1.31213 0
M  V30 434 H 36.2065 5.67899 2.24329 0
M  V30 435 H 37.6205 5.73293 -0.027502 0
M  V30 436 H 36.0175 5.94896 -0.788627 0
M  V30 437 H 37.0875 4.65504 -1.35773 0
M  V30 438 N 38.4306 0.297415 1.54768 0
M  V30 439 C 39.7076 -0.365847 1.92148 0
M  V30 440 C 40.0876 -1.71975 1.22424 0
M  V30 441 O 39.4356 -2.25666 0.358739 0
M  V30 442 C 39.6456 -0.484056 3.45627 0
M  V30 443 C 40.9936 -0.756594 4.17805 0
M  V30 444 O 42.0176 -0.568007 3.51642 0
M  V30 445 O 40.8766 -1.11863 5.34929 0
M  V30 446 H 37.9706 -0.203919 0.801465 0
M  V30 447 H 40.5166 0.34521 1.66152 0
M  V30 448 H 39.2886 0.467865 3.88493 0
M  V30 449 H 38.9116 -1.24372 3.77647 0
M  V30 450 N 39.9087 -1.5758 0.0250728 0
M  V30 451 C 41.3197 -1.79476 -0.514323 0
M  V30 452 C 41.6707 -0.934956 -1.72491 0
M  V30 453 O 40.7957 -0.144245 -2.15919 0
M  V30 454 C 41.3907 -3.25503 -0.939842 0
M  V30 455 C 39.9497 -3.48408 -1.42438 0
M  V30 456 C 39.0967 -2.74583 -0.387201 0
M  V30 457 H 42.0477 -1.567 0.25113 0
M  V30 458 H 42.0687 -3.34992 -1.80445 0
M  V30 459 H 41.5807 -3.88056 -0.0585628 0
M  V30 460 H 39.6817 -2.91103 -2.32572 0
M  V30 461 H 39.7947 -4.57119 -1.43455 0
M  V30 462 H 38.1587 -2.39942 -0.854409 0
M  V30 463 H 38.9417 -3.39849 0.485543 0
M  V30 464 N 41.3868 0.248026 -1.55636 0
M  V30 465 C 42.3498 1.29044 -1.89421 0
M  V30 466 C 43.3498 1.41134 -0.770581 0
M  V30 467 O 44.5398 1.39854 -1.03858 0
M  V30 468 C 41.6718 2.66831 -2.12165 0
M  V30 469 H 42.8648 1.00305 -2.82629 0
M  V30 470 H 40.4178 0.487265 -1.48511 0
M  V30 471 H 41.1528 3.00711 -1.21422 0
M  V30 472 H 40.9378 2.59438 -2.93997 0
M  V30 473 H 42.4278 3.42103 -2.3949 0
M  V30 474 N 42.8649 1.48995 0.513639 0
M  V30 475 C 44.1129 1.57531 1.26604 0
M  V30 476 C 44.4339 0.258236 1.93283 0
M  V30 477 O 43.7039 -0.721502 1.8213 0
M  V30 478 H 42.2839 0.580387 0.470276 0
M  V30 479 H 44.9459 1.85552 0.596373 0
M  V30 480 H 44.0419 2.36486 2.03669 0
M  V30 481 N 44.343 -0.763751 1.37857 0
M  V30 482 C 45.306 -1.85889 1.34081 0
M  V30 483 C 46.306 -1.58949 0.243277 0
M  V30 484 O 47.496 -1.66882 0.499589 0
M  V30 485 C 44.628 -3.23176 1.08489 0
M  V30 486 H 45.821 -1.90648 2.31502 0
M  V30 487 H 43.374 -0.964367 1.23003 0
M  V30 488 H 44.109 -3.24091 0.116318 0
M  V30 489 H 43.894 -3.44124 1.8794 0
M  V30 490 H 45.384 -4.03254 1.08517 0
M  V30 491 N 45.8211 -1.22559 -0.990812 0
M  V30 492 C 47.0671 -1.05297 -1.73322 0
M  V30 493 C 47.4001 0.410655 -1.89808 0
M  V30 494 O 46.6751 1.30439 -1.44277 0
M  V30 495 C 46.9581 -1.76713 -3.13759 0
M  V30 496 C 46.8111 -3.30684 -3.04907 0
M  V30 497 C 48.1301 -1.52121 -4.12974 0
M  V30 498 H 45.2491 -0.38392 -0.629106 0
M  V30 499 H 47.8911 -1.50926 -1.15418 0
M  V30 500 H 46.0411 -1.37924 -3.63193 0
M  V30 501 H 47.7131 -3.7893 -2.63077 0
M  V30 502 H 45.9561 -3.60253 -2.41661 0
M  V30 503 H 46.6271 -3.75833 -4.04294 0
M  V30 504 H 49.1031 -1.85819 -3.72304 0
M  V30 505 H 47.9791 -2.04582 -5.0935 0
M  V30 506 H 48.2401 -0.454257 -4.3976 0
M  V30 507 N 47.2992 1.18797 -1.03562 0
M  V30 508 C 48.5272 1.92599 -0.755869 0
M  V30 509 C 48.9422 1.75886 0.686271 0
M  V30 510 O 48.2992 1.08517 1.46732 0
M  V30 511 C 48.3502 3.44159 -1.10619 0
M  V30 512 O 48.0712 3.60341 -2.4917 0
M  V30 513 C 49.5722 4.3507 -0.850214 0
M  V30 514 H 46.7922 0.611587 -0.276048 0
M  V30 515 H 49.3362 1.50742 -1.38192 0
M  V30 516 H 47.4912 3.83823 -0.525194 0
M  V30 517 H 47.9052 4.54128 -2.62427 0
M  V30 518 H 49.3792 5.39989 -1.14523 0
M  V30 519 H 49.8562 4.38673 0.215176 0
M  V30 520 H 50.4622 4.01097 -1.41426 0
M  V30 521 N 48.7773 0.814389 1.34928 0
M  V30 522 C 49.7403 0.235759 2.27984 0
M  V30 523 C 50.7403 -0.581412 1.49921 0
M  V30 524 O 51.9303 -0.398758 1.69575 0
M  V30 525 C 49.0623 -0.670433 3.34242 0
M  V30 526 H 50.2553 1.05659 2.80671 0
M  V30 527 H 47.8083 0.585614 1.44915 0
M  V30 528 H 48.5433 -1.51466 2.86755 0
M  V30 529 H 48.3283 -0.0860822 3.92005 0
M  V30 530 H 49.8183 -1.06935 4.03676 0
M  V30 531 N 50.2554 -1.46986 0.568584 0
M  V30 532 C 51.2184 -2.28624 -0.162366 0
M  V30 533 C 52.2184 -1.37596 -0.832103 0
M  V30 534 O 53.4084 -1.60115 -0.68622 0
M  V30 535 C 50.5404 -3.17596 -1.23878 0
M  V30 536 H 51.7334 -2.94722 0.554899 0
M  V30 537 H 49.2864 -1.52863 0.325976 0
M  V30 538 H 50.0214 -2.56214 -1.98808 0
M  V30 539 H 49.8064 -3.846 -0.763219 0
M  V30 540 H 51.2964 -3.79078 -1.75185 0
M  V30 541 N 51.7335 -0.305618 -1.54608 0
M  V30 542 C 52.9825 0.303098 -1.9941 0
M  V30 543 C 53.2955 1.54648 -1.19764 0
M  V30 544 O 54.5015 2.23007 -1.54855 0
M  V30 545 C 52.9575 0.590588 -3.55021 0
M  V30 546 C 52.5655 -0.634719 -4.43481 0
M  V30 547 C 54.3095 1.16025 -4.08336 0
M  V30 548 C 52.2165 -0.320126 -5.90533 0
M  V30 549 H 51.1465 0.117031 -0.744862 0
M  V30 550 H 53.7975 -0.415045 -1.78745 0
M  V30 551 H 52.1795 1.36845 -3.71604 0
M  V30 552 H 53.3535 -1.41079 -4.38672 0
M  V30 553 H 51.6685 -1.12333 -4.00962 0
M  V30 554 H 54.2655 1.40994 -5.15776 0
M  V30 555 H 54.6085 2.10397 -3.5922 0
M  V30 556 H 55.1415 0.443985 -3.95315 0
M  V30 557 H 51.8805 -1.23254 -6.43808 0
M  V30 558 H 51.4005 0.418579 -5.98338 0
M  V30 559 H 53.0795 0.0766241 -6.46955 0
M  V30 560 N 53.2116 1.57565 -0.0334293 0
M  V30 561 C 54.1216 2.13943 0.962572 0
M  V30 562 C 55.1376 1.09276 1.35406 0
M  V30 563 O 56.3136 1.41355 1.4346 0
M  V30 564 C 53.3786 2.65887 2.22497 0
M  V30 565 C 52.4396 3.85286 1.8935 0
M  V30 566 C 51.6726 4.34743 3.09571 0
M  V30 567 O 51.8956 3.83352 4.22371 0
M  V30 568 O 50.8296 5.26538 2.91618 0
M  V30 569 H 54.6556 2.99333 0.513169 0
M  V30 570 H 52.2406 1.4822 0.18743 0
M  V30 571 H 54.1226 2.99346 2.96598 0
M  V30 572 H 52.7976 1.83578 2.6661 0
M  V30 573 H 51.7046 3.56746 1.1262 0
M  V30 574 H 53.0376 4.68771 1.5005 0
M  V30 575 N 54.6897 -0.239769 1.55765 0
M  V30 576 C 55.6227 -1.32356 1.85895 0
M  V30 577 C 56.6007 -1.46053 0.714662 0
M  V30 578 O 57.7847 -1.62154 0.961157 0
M  V30 579 C 54.9117 -2.6962 2.04994 0
M  V30 580 C 53.9577 -2.73036 3.27648 0
M  V30 581 S 54.7907 -2.28929 4.84099 0
M  V30 582 C 55.9467 -3.68103 5.06212 0
M  V30 583 H 56.1797 -1.06601 2.77531 0
M  V30 584 H 53.7127 -0.441112 1.47965 0
M  V30 585 H 55.6707 -3.48653 2.16682 0
M  V30 586 H 54.3317 -2.92609 1.14188 0
M  V30 587 H 53.5247 -3.7386 3.38 0
M  V30 588 H 53.1267 -2.02052 3.14723 0
M  V30 589 H 55.4187 -4.63656 4.93993 0
M  V30 590 H 56.3617 -3.6268 6.08168 0
M  V30 591 H 56.7697 -3.60947 4.34025 0
M  V30 592 N 56.1678 -1.49265 -0.50573 0
M  V30 593 C 57.0978 -1.68495 -1.61653 0
M  V30 594 C 58.0788 -0.53366 -1.61512 0
M  V30 595 O 59.2638 -0.76897 -1.78327 0
M  V30 596 C 56.3938 -1.74709 -3.00157 0
M  V30 597 C 55.3478 -2.89581 -3.15162 0
M  V30 598 C 54.6738 -2.80903 -4.5497 0
M  V30 599 C 55.9738 -4.30578 -2.95634 0
M  V30 600 H 57.6678 -2.61493 -1.45814 0
M  V30 601 H 55.2138 -1.25838 -0.70005 0
M  V30 602 H 57.1668 -1.86748 -3.77761 0
M  V30 603 H 55.8908 -0.783067 -3.17074 0
M  V30 604 H 54.5498 -2.77136 -2.39982 0
M  V30 605 H 54.1978 -1.82419 -4.68756 0
M  V30 606 H 53.8978 -3.57999 -4.65951 0
M  V30 607 H 55.4218 -2.94944 -5.34641 0
M  V30 608 H 56.8358 -4.4373 -3.63011 0
M  V30 609 H 55.2328 -5.0886 -3.18091 0
M  V30 610 H 56.3028 -4.45352 -1.91806 0
M  V30 611 N 57.6459 0.756429 -1.3826 0
M  V30 612 C 59.0619 1.0591 -1.19395 0
M  V30 613 C 59.2619 2.01459 -0.0406567 0
M  V30 614 O 58.3179 2.44909 0.614467 0
M  V30 615 C 59.6309 1.64191 -2.51916 0
M  V30 616 C 61.1789 1.76376 -2.58574 0
M  V30 617 C 61.6539 2.38069 -3.91264 0
M  V30 618 N 63.1449 2.45503 -3.92788 0
M  V30 619 C 63.8799 2.94126 -4.92217 0
M  V30 620 N 63.3759 3.42805 -6.02043 0
M  V30 621 N 65.1689 2.9314 -4.7961 0
M  V30 622 H 57.3199 0.122313 -2.12048 0
M  V30 623 H 59.5829 0.116892 -0.940766 0
M  V30 624 H 59.2889 1.01451 -3.3675 0
M  V30 625 H 59.1629 2.6329 -2.70108 0
M  V30 626 H 61.5499 2.38244 -1.74137 0
M  V30 627 H 61.6309 0.759894 -2.44252 0
M  V30 628 H 61.2749 1.76835 -4.76121 0
M  V30 629 H 61.2049 3.39091 -4.02895 0
M  V30 630 H 63.6959 2.1107 -3.13461 0
M  V30 631 H 64.0089 3.78354 -6.73846 0
M  V30 632 H 62.3539 3.4087 -6.05667 0
M  V30 633 H 65.5449 2.54419 -3.92923 0
M  V30 634 H 65.7179 3.30721 -5.5725 0
M  V30 635 N 59.124 1.23083 0.984299 0
M  V30 636 C 60.37 1.06214 1.72761 0
M  V30 637 C 60.703 -0.400584 1.90024 0
M  V30 638 O 59.978 -1.29672 1.44967 0
M  V30 639 C 60.261 1.78375 3.12817 0
M  V30 640 C 60.114 3.32296 3.03149 0
M  V30 641 C 61.433 1.54309 4.12161 0
M  V30 642 H 58.552 0.387251 0.627061 0
M  V30 643 H 61.194 1.51536 1.14616 0
M  V30 644 H 59.344 1.39848 3.62457 0
M  V30 645 H 61.016 3.8032 2.61064 0
M  V30 646 H 59.259 3.6153 2.39747 0
M  V30 647 H 59.93 3.77972 4.02295 0
M  V30 648 H 62.406 1.87791 3.71314 0
M  V30 649 H 61.282 2.07281 5.08258 0
M  V30 650 H 61.543 0.477572 4.39513 0
M  V30 651 N 60.6021 -1.18246 1.0419 0
M  V30 652 C 61.8501 -1.87886 0.744543 0
M  V30 653 C 62.1711 -1.8082 -0.730006 0
M  V30 654 O 61.4411 -1.22736 -1.52685 0
M  V30 655 H 60.0211 -0.695556 0.272417 0
M  V30 656 H 62.6831 -1.43494 1.31892 0
M  V30 657 H 61.7791 -2.9389 1.05049 0
M  V30 658 N 62.0802 -0.821533 -1.34494 0
M  V30 659 C 63.3052 -0.420873 -2.03085 0
M  V30 660 C 63.7302 0.964915 -1.61465 0
M  V30 661 O 63.0882 1.62763 -0.798607 0
M  V30 662 C 63.1362 -0.529414 -3.56693 0
M  V30 663 O 62.2402 0.451302 -4.09923 0
M  V30 664 H 61.5812 -0.173489 -0.640935 0
M  V30 665 H 64.1112 -1.11157 -1.71771 0
M  V30 666 H 64.1212 -0.404671 -4.05988 0
M  V30 667 H 62.7962 -1.54014 -3.86332 0
M  V30 668 H 61.3732 0.285558 -3.71805 0
M  V30 669 N 63.5583 1.46682 -0.576371 0
M  V30 670 C 64.8353 1.95599 0.00703437 0
M  V30 671 C 65.2153 1.51904 1.46589 0
M  V30 672 O 64.5633 0.766755 2.15251 0
M  V30 673 C 64.7733 3.4864 -0.158404 0
M  V30 674 C 66.1213 4.24594 -0.0229439 0
M  V30 675 O 67.1453 3.56094 -0.0869173 0
M  V30 676 O 66.0043 5.46373 0.118015 0
M  V30 677 H 63.0983 0.825275 0.053384 0
M  V30 678 H 65.6443 1.56996 -0.644244 0
M  V30 679 H 64.4163 3.7331 -1.17282 0
M  V30 680 H 64.0393 3.94057 0.5296 0
M  V30 681 N 65.0364 0.313813 1.54444 0
M  V30 682 C 66.2824 -0.292108 2.00685 0
M  V30 683 C 66.6154 -1.52548 1.20177 0
M  V30 684 O 65.8904 -1.92452 0.281531 0
M  V30 685 C 66.1734 -0.635968 3.5444 0
M  V30 686 C 66.0264 0.607437 4.4568 0
M  V30 687 C 67.3454 -1.45747 4.15266 0
M  V30 688 H 64.4644 -0.104697 0.729526 0
M  V30 689 H 67.1064 0.428457 1.85106 0
M  V30 690 H 65.2564 -1.24986 3.67846 0
M  V30 691 H 66.9284 1.24581 4.44159 0
M  V30 692 H 65.1714 1.23822 4.15753 0
M  V30 693 H 65.8424 0.322515 5.51057 0
M  V30 694 H 68.3184 -0.938645 4.05375 0
M  V30 695 H 67.1944 -1.66683 5.2298 0
M  V30 696 H 67.4554 -2.45063 3.67963 0
M  V30 697 N 66.5145 -1.57545 0.0417849 0
M  V30 698 C 67.7605 -1.92601 -0.635021 0
M  V30 699 C 68.0935 -0.919627 -1.71045 0
M  V30 700 O 67.3685 0.0557892 -1.9442 0
M  V30 701 C 67.6515 -3.38085 -1.23979 0
M  V30 702 C 67.5045 -4.49467 -0.173057 0
M  V30 703 C 68.8235 -3.83776 -2.15416 0
M  V30 704 H 65.9425 -0.700397 -0.229374 0
M  V30 705 H 68.5845 -1.89728 0.101633 0
M  V30 706 H 66.7345 -3.40664 -1.86762 0
M  V30 707 H 68.4065 -4.59018 0.458312 0
M  V30 708 H 66.6495 -4.30909 0.499996 0
M  V30 709 H 67.3205 -5.48323 -0.636054 0
M  V30 710 H 69.7965 -3.83013 -1.62605 0
M  V30 711 H 68.6725 -4.8624 -2.54679 0
M  V30 712 H 68.9335 -3.19998 -3.05047 0
M  V30 713 N 67.9926 0.231505 -1.5589 0
M  V30 714 C 69.2696 0.981096 -1.69215 0
M  V30 715 C 69.6496 2.02799 -0.586164 0
M  V30 716 O 68.9976 2.24823 0.408253 0
M  V30 717 C 69.2076 1.60054 -3.10135 0
M  V30 718 C 70.5556 2.09658 -3.69227 0
M  V30 719 O 71.5796 1.69967 -3.13033 0
M  V30 720 O 70.4386 2.8258 -4.67772 0
M  V30 721 H 67.5326 0.457653 -0.688827 0
M  V30 722 H 70.0786 0.224073 -1.68214 0
M  V30 723 H 68.8506 0.844105 -3.82087 0
M  V30 724 H 68.4736 2.42336 -3.15212 0
M  V30 725 N 69.4707 1.49531 0.497807 0
M  V30 726 C 70.7167 1.59415 1.25358 0
M  V30 727 C 71.0497 0.281422 1.9215 0
M  V30 728 O 70.3247 -0.715249 1.80871 0
M  V30 729 C 70.6077 2.75566 2.3181 0
M  V30 730 C 70.4607 4.16642 1.69498 0
M  V30 731 C 71.7797 2.87347 3.33346 0
M  V30 732 H 68.8987 0.580244 0.454408 0
M  V30 733 H 71.5407 1.81827 0.551262 0
M  V30 734 H 69.6907 2.56587 2.91711 0
M  V30 735 H 71.3627 4.47145 1.13399 0
M  V30 736 H 69.6057 4.22141 0.998978 0
M  V30 737 H 70.2767 4.93792 2.46725 0
M  V30 738 H 72.7527 3.04634 2.83438 0
M  V30 739 H 71.6287 3.70289 4.05188 0
M  V30 740 H 71.8897 1.96834 3.95865 0
M  V30 741 N 70.9488 -0.749086 1.3866 0
M  V30 742 C 72.1968 -1.50535 1.34847 0
M  V30 743 C 72.5178 -1.94909 -0.0595016 0
M  V30 744 O 71.7878 -1.67973 -1.00806 0
M  V30 745 H 70.3678 -0.558395 0.49619 0
M  V30 746 H 73.0298 -0.890165 1.73384 0
M  V30 747 H 72.1258 -2.39413 2.00219 0
M  V30 748 N 72.4269 -1.23603 -0.977757 0
M  V30 749 C 73.8379 -1.06424 -1.53398 0
M  V30 750 C 74.1889 0.367578 -1.92726 0
M  V30 751 O 73.3139 1.25465 -1.76316 0
M  V30 752 C 73.9089 -1.92568 -2.78753 0
M  V30 753 C 72.4679 -1.79642 -3.30765 0
M  V30 754 C 71.6149 -1.88111 -2.03739 0
M  V30 755 H 74.5659 -1.37227 -0.797152 0
M  V30 756 H 74.5869 -1.45203 -3.51705 0
M  V30 757 H 74.0989 -2.96771 -2.50098 0
M  V30 758 H 72.1999 -0.782325 -3.64294 0
M  V30 759 H 72.3129 -2.63174 -4.00345 0
M  V30 760 H 70.6769 -1.31723 -2.17994 0
M  V30 761 H 71.4599 -2.93875 -1.77461 0
M  V30 762 N 73.905 1.17692 -1.04816 0
M  V30 763 C 74.868 2.19787 -0.650117 0
M  V30 764 C 75.868 1.58044 0.296427 0
M  V30 765 O 77.058 1.74012 0.0808097 0
M  V30 766 C 74.19 3.40869 0.0456987 0
M  V30 767 H 75.383 2.56516 -1.5537 0
M  V30 768 H 72.936 1.31708 -0.841594 0
M  V30 769 H 73.671 3.09681 0.962726 0
M  V30 770 H 73.456 3.86928 -0.634727 0
M  V30 771 H 74.946 4.16445 0.310432 0
M  V30 772 N 75.3831 0.828654 1.34056 0
M  V30 773 C 76.3461 0.259927 2.27721 0
M  V30 774 C 77.3461 -0.565478 1.50529 0
M  V30 775 O 78.5361 -0.38075 1.69988 0
M  V30 776 C 75.6681 -0.634944 3.34935 0
M  V30 777 H 76.8611 1.0863 2.79534 0
M  V30 778 H 74.4141 0.600951 1.44285 0
M  V30 779 H 75.1491 -1.48416 2.88346 0
M  V30 780 H 74.9341 -0.0444999 3.92075 0
M  V30 781 H 76.4241 -1.02648 4.04788 0
M  V30 782 N 76.8612 -1.46375 0.584142 0
M  V30 783 C 78.0862 -2.07268 0.0740405 0
M  V30 784 C 78.5112 -1.42979 -1.22223 0
M  V30 785 O 77.8692 -0.514092 -1.73859 0
M  V30 786 C 77.9172 -3.60518 -0.0767769 0
M  V30 787 O 77.0212 -3.96533 -1.13292 0
M  V30 788 H 76.3622 -0.660961 0.0634524 0
M  V30 789 H 78.8922 -1.87991 0.807492 0
M  V30 790 H 78.9022 -4.07021 -0.282489 0
M  V30 791 H 77.5772 -4.06702 0.86986 0
M  V30 792 H 76.1542 -3.61738 -0.905553 0
M  V30 793 N 78.3393 -0.321999 -1.54275 0
M  V30 794 C 79.2893 0.560185 -2.21011 0
M  V30 795 C 80.2733 1.08283 -1.19011 0
M  V30 796 O 81.4653 1.02011 -1.44647 0
M  V30 797 C 78.5943 1.72137 -2.97025 0
M  V30 798 C 77.6803 1.21369 -4.06363 0
M  V30 799 N 78.0713 0.425566 -5.04007 0
M  V30 800 C 76.3693 1.49255 -4.20284 0
M  V30 801 C 77.0703 0.152601 -5.815 0
M  V30 802 N 76.0463 0.738294 -5.38563 0
M  V30 803 H 79.8483 -0.049265 -2.93859 0
M  V30 804 H 77.3623 -0.127779 -1.61897 0
M  V30 805 H 79.3593 2.36512 -3.43319 0
M  V30 806 H 78.0193 2.33431 -2.25699 0
M  V30 807 H 79.0303 0.068551 -5.17855 0
M  V30 808 H 75.7073 2.11145 -3.60172 0
M  V30 809 H 77.0973 -0.481764 -6.70171 0
M  V30 810 N 79.8174 1.5752 -0.0501392 0
M  V30 811 C 81.2284 1.80271 0.485705 0
M  V30 812 C 81.5794 0.96228 1.70981 0
M  V30 813 O 80.7044 0.178578 2.15662 0
M  V30 814 C 81.2994 3.26957 0.887938 0
M  V30 815 C 79.8584 3.5063 1.36877 0
M  V30 816 C 79.0054 2.75165 0.343468 0
M  V30 817 H 81.9564 1.56281 -0.276028 0
M  V30 818 H 81.9774 3.37821 1.75093 0
M  V30 819 H 81.4894 3.881 -0.0031809 0
M  V30 820 H 79.5904 2.94766 2.27911 0
M  V30 821 H 79.7034 4.59343 1.36164 0
M  V30 822 H 78.0674 2.4127 0.816128 0
M  V30 823 H 78.8504 3.39034 -0.539548 0
M  V30 824 N 81.2955 -0.223234 1.56011 0
M  V30 825 C 82.5725 -0.972108 1.69733 0
M  V30 826 C 82.9525 -2.02485 0.59691 0
M  V30 827 O 82.3005 -2.25037 -0.396324 0
M  V30 828 C 82.5105 -1.58407 3.10979 0
M  V30 829 C 83.8585 -2.07696 3.70334 0
M  V30 830 O 84.8825 -1.68304 3.1393 0
M  V30 831 O 83.7415 -2.80096 4.69264 0
M  V30 832 H 80.8355 -0.453993 0.691245 0
M  V30 833 H 83.3815 -0.215149 1.68331 0
M  V30 834 H 82.1535 -0.823831 3.82529 0
M  V30 835 H 81.7765 -2.40661 3.16493 0
M  V30 836 N 82.7736 -1.49793 -0.48987 0
M  V30 837 C 83.7366 -1.66752 -1.57246 0
M  V30 838 C 84.7366 -0.538867 -1.51502 0
M  V30 839 O 85.9266 -0.805545 -1.54456 0
M  V30 840 C 83.0586 -1.67528 -2.96896 0
M  V30 841 H 84.2516 -2.63321 -1.43534 0
M  V30 842 H 81.8046 -1.38992 -0.714914 0
M  V30 843 H 82.5396 -0.725837 -3.16073 0
M  V30 844 H 82.3246 -2.49504 -3.02473 0
M  V30 845 H 83.8146 -1.82667 -3.7553 0
M  V30 846 N 84.2517 0.741722 -1.39055 0
M  V30 847 C 85.6677 1.04638 -1.20512 0
M  V30 848 C 85.8677 2.01405 -0.0620218 0
M  V30 849 O 84.9237 2.45547 0.588457 0
M  V30 850 C 86.2367 1.6151 -2.53643 0
M  V30 851 C 87.7847 1.73623 -2.6043 0
M  V30 852 C 88.2597 2.33906 -3.93767 0
M  V30 853 N 89.7507 2.41323 -3.9537 0
M  V30 854 C 90.4857 2.88888 -4.95309 0
M  V30 855 N 89.9817 3.36401 -6.05645 0
M  V30 856 N 91.7747 2.88037 -4.82692 0
M  V30 857 H 83.9257 0.0998155 -2.12165 0
M  V30 858 H 86.1887 0.106907 -0.941953 0
M  V30 859 H 85.8947 0.978739 -3.37807 0
M  V30 860 H 85.7687 2.60411 -2.72885 0
M  V30 861 H 88.1557 2.36384 -1.76655 0
M  V30 862 H 88.2367 0.733945 -2.45045 0
M  V30 863 H 87.8807 1.71776 -4.7797 0
M  V30 864 H 87.8107 3.34799 -4.06469 0
M  V30 865 H 90.3017 2.07734 -3.15682 0
M  V30 866 H 90.6147 3.71186 -6.77821 0
M  V30 867 H 88.9597 3.34427 -6.09248 0
M  V30 868 H 92.1507 2.50237 -3.95599 0
M  V30 869 H 92.3237 3.24792 -5.60726 0
M  V30 870 N 85.7298 1.2412 0.971189 0
M  V30 871 C 87.1408 1.07236 1.52831 0
M  V30 872 C 87.4918 -0.357352 1.92918 0
M  V30 873 O 86.6168 -1.24528 1.76979 0
M  V30 874 C 87.2118 1.94043 2.77728 0
M  V30 875 C 85.7708 1.81394 3.29808 0
M  V30 876 C 84.9178 1.89189 2.02738 0
M  V30 877 H 87.8688 1.37648 0.789864 0
M  V30 878 H 87.8898 1.47066 3.5093 0
M  V30 879 H 87.4018 2.98093 2.4852 0
M  V30 880 H 85.5028 0.801634 3.63874 0
M  V30 881 H 85.6158 2.65294 3.98944 0
M  V30 882 H 83.9798 1.32877 2.17292 0
M  V30 883 H 84.7628 2.94812 1.759 0
M  V30 884 N 87.2079 -1.17134 1.05439 0
M  V30 885 C 88.4539 -1.87733 0.767077 0
M  V30 886 C 88.7869 -1.8098 -0.704253 0
M  V30 887 O 88.0619 -1.21951 -1.5152 0
M  V30 888 C 88.3449 -3.37659 1.25133 0
M  V30 889 C 88.1979 -3.53149 2.78578 0
M  V30 890 C 89.5169 -4.31768 0.852324 0
M  V30 891 H 86.6359 -0.681687 0.280129 0
M  V30 892 H 89.2779 -1.37732 1.30881 0
M  V30 893 H 87.4279 -3.80373 0.790469 0
M  V30 894 H 89.0999 -3.19434 3.32806 0
M  V30 895 H 87.3429 -2.95345 3.17732 0
M  V30 896 H 88.0139 -4.58403 3.07523 0
M  V30 897 H 90.4899 -3.96909 1.24911 0
M  V30 898 H 89.3659 -5.35199 1.21873 0
M  V30 899 H 89.6269 -4.41429 -0.243485 0
M  V30 900 N 88.686 -0.835752 -1.33615 0
M  V30 901 C 89.911 -0.442389 -2.02627 0
M  V30 902 C 90.336 0.947735 -1.62479 0
M  V30 903 O 89.694 1.61907 -0.815826 0
M  V30 904 C 89.742 -0.567216 -3.56111 0
M  V30 905 O 88.846 0.407799 -4.10379 0
M  V30 906 H 88.187 -0.180278 -0.639059 0
M  V30 907 H 90.717 -1.12972 -1.70583 0
M  V30 908 H 90.727 -0.447708 -4.05536 0
M  V30 909 H 89.402 -1.58103 -3.84677 0
M  V30 910 H 87.979 0.246107 -3.72087 0
M  V30 911 N 90.1641 1.46063 -0.591896 0
M  V30 912 C 91.5751 1.85944 -0.167822 0
M  V30 913 C 91.9261 1.49429 1.27143 0
M  V30 914 O 91.0511 0.913515 1.96173 0
M  V30 915 C 91.6461 3.37489 -0.297794 0
M  V30 916 C 90.2051 3.76332 0.0714732 0
M  V30 917 C 89.3521 2.7006 -0.629509 0
M  V30 918 H 92.3031 1.37087 -0.799555 0
M  V30 919 H 92.3241 3.77532 0.474349 0
M  V30 920 H 91.8361 3.64034 -1.3454 0
M  V30 921 H 89.9371 3.55405 1.11886 0
M  V30 922 H 90.0501 4.78088 -0.311245 0
M  V30 923 H 88.4141 2.54607 -0.0687867 0
M  V30 924 H 89.1971 2.99444 -1.67894 0
M  V30 925 N 91.6422 0.330177 1.54103 0
M  V30 926 C 92.6052 -0.520144 2.2322 0
M  V30 927 C 93.6052 -1.03828 1.22786 0
M  V30 928 O 94.7952 -0.929652 1.4732 0
M  V30 929 C 91.9272 -1.72317 2.94142 0
M  V30 930 H 93.1202 0.0841605 2.99782 0
M  V30 931 H 90.6732 0.0813433 1.56088 0
M  V30 932 H 91.4082 -2.36653 2.21734 0
M  V30 933 H 91.1932 -1.35898 3.67796 0
M  V30 934 H 92.6832 -2.3266 3.46784 0
M  V30 935 N 93.1203 -1.57491 0.0584922 0
M  V30 936 C 94.3973 -1.84346 -0.653918 0
M  V30 937 C 94.7773 -0.948355 -1.88599 0
M  V30 938 O 94.1253 -0.0112403 -2.28497 0
M  V30 939 C 94.3353 -3.34239 -1.00425 0
M  V30 940 C 95.6833 -4.01431 -1.38342 0
M  V30 941 O 96.7073 -3.38907 -1.09637 0
M  V30 942 O 95.5663 -5.11683 -1.91943 0
M  V30 943 H 92.6603 -0.761112 -0.323478 0
M  V30 944 H 95.2063 -1.6947 0.0884125 0
M  V30 945 H 93.9783 -3.91089 -0.128625 0
M  V30 946 H 93.6013 -3.54329 -1.80378 0
M  V30 947 N 94.5984 0.214957 -1.56127 0
M  V30 948 C 95.5084 1.28727 -1.96129 0
M  V30 949 C 96.5244 1.50916 -0.866044 0
M  V30 950 O 97.7004 1.63918 -1.17016 0
M  V30 951 C 94.7654 2.61569 -2.27558 0
M  V30 952 C 93.8264 2.47625 -3.50685 0
M  V30 953 C 93.0594 3.74132 -3.80606 0
M  V30 954 O 93.2824 4.77438 -3.12104 0
M  V30 955 O 92.2164 3.70849 -4.74083 0
M  V30 956 H 96.0424 0.977855 -2.87527 0
M  V30 957 H 93.6274 0.418358 -1.43423 0
M  V30 958 H 95.5094 3.40012 -2.48938 0
M  V30 959 H 94.1844 2.92178 -1.39332 0
M  V30 960 H 93.0914 1.67361 -3.34576 0
M  V30 961 H 94.4244 2.21954 -4.39315 0
M  V30 962 N 96.0765 1.50051 0.48192 0
M  V30 963 C 97.3255 1.59741 1.23149 0
M  V30 964 C 97.6385 0.298163 1.93314 0
M  V30 965 O 98.8445 0.273835 2.70116 0
M  V30 966 C 97.3005 2.81926 2.23708 0
M  V30 967 C 96.9085 4.18685 1.59396 0
M  V30 968 C 98.6525 3.00956 2.99375 0
M  V30 969 C 96.5595 5.3207 2.58178 0
M  V30 970 H 95.4895 0.594838 0.46334 0
M  V30 971 H 98.1405 1.76467 0.503169 0
M  V30 972 H 96.5225 2.58736 2.99786 0
M  V30 973 H 97.6965 4.52088 0.891811 0
M  V30 974 H 96.0115 4.05171 0.960503 0
M  V30 975 H 98.6085 3.82836 3.73283 0
M  V30 976 H 98.9515 2.12258 3.58123 0
M  V30 977 H 99.4845 3.24277 2.30411 0
M  V30 978 H 96.2235 6.22888 2.04184 0
M  V30 979 H 95.7435 5.03098 3.26577 0
M  V30 980 H 97.4225 5.62196 3.20225 0
M  V30 981 N 97.5546 -0.734337 1.39446 0
M  V30 982 C 98.9706 -1.03997 1.21065 0
M  V30 983 C 99.1706 -2.01369 0.0727019 0
M  V30 984 O 98.2266 -2.45856 -0.575426 0
M  V30 985 C 99.5396 -1.60163 2.54496 0
M  V30 986 C 101.088 -1.7224 2.61347 0
M  V30 987 C 101.563 -2.31814 3.95002 0
M  V30 988 N 103.054 -2.39223 3.96644 0
M  V30 989 C 103.789 -2.86258 4.96834 0
M  V30 990 N 103.285 -3.33184 6.07421 0
M  V30 991 N 105.078 -2.85473 4.84213 0
M  V30 992 H 97.2286 -0.0885624 2.12215 0
M  V30 993 H 99.4916 -0.10191 0.942506 0
M  V30 994 H 99.1976 -0.960811 3.38321 0
M  V30 995 H 99.0716 -2.5896 2.74262 0
M  V30 996 H 101.459 -2.35443 1.77906 0
M  V30 997 H 101.54 -0.720939 2.4543 0
M  V30 998 H 101.184 -1.69238 4.78875 0
M  V30 999 H 101.114 -3.32638 4.08239 0
M  V30 1000 H 103.605 -2.06057 3.16779 0
M  V30 1001 H 103.918 -3.67586 6.7978 0
M  V30 1002 H 102.263 -3.31191 6.11013 0
M  V30 1003 H 105.454 -2.48136 3.96921 0
M  V30 1004 H 105.627 -3.21814 5.62441 0
M  V30 1005 N 99.0327 -1.24633 -0.964593 0
M  V30 1006 C 100.449 -1.01239 -1.2338 0
M  V30 1007 C 100.649 0.2769 -1.99588 0
M  V30 1008 O 99.7047 0.992241 -2.32187 0
M  V30 1009 C 101.018 -2.22937 -2.01791 0
M  V30 1010 C 102.566 -2.27594 -2.14872 0
M  V30 1011 C 103.041 -3.48921 -2.96678 0
M  V30 1012 N 104.532 -3.49257 -3.04259 0
M  V30 1013 C 105.267 -4.39795 -3.67924 0
M  V30 1014 N 104.763 -5.40591 -4.33281 0
M  V30 1015 N 106.556 -4.275 -3.64966 0
M  V30 1016 H 98.7067 -2.0748 -0.454502 0
M  V30 1017 H 100.97 -0.910647 -0.26349 0
M  V30 1018 H 100.676 -3.16587 -1.53184 0
M  V30 1019 H 100.55 -2.25306 -3.02518 0
M  V30 1020 H 102.937 -1.34473 -2.6268 0
M  V30 1021 H 103.018 -2.2925 -1.13482 0
M  V30 1022 H 102.662 -4.42359 -2.49562 0
M  V30 1023 H 102.592 -3.4451 -3.98272 0
M  V30 1024 H 105.083 -2.76337 -2.57771 0
M  V30 1025 H 105.396 -6.05904 -4.79687 0
M  V30 1026 H 103.741 -5.44475 -4.3194 0
M  V30 1027 H 106.932 -3.47987 -3.13086 0
M  V30 1028 H 107.105 -4.98258 -4.14298 0
M  V30 1029 N 100.511 1.16574 -1.06058 0
M  V30 1030 C 101.76 1.86385 -0.770944 0
M  V30 1031 C 102.073 1.82448 0.705129 0
M  V30 1032 O 103.279 2.47815 1.10905 0
M  V30 1033 C 101.735 3.34466 -1.32893 0
M  V30 1034 C 101.343 3.46883 -2.83507 0
M  V30 1035 C 103.087 4.09548 -1.11672 0
M  V30 1036 C 100.994 4.89036 -3.32562 0
M  V30 1037 H 99.9238 0.698181 -0.284709 0
M  V30 1038 H 102.575 1.31583 -1.27899 0
M  V30 1039 H 100.957 3.88859 -0.748662 0
M  V30 1040 H 102.131 3.02663 -3.47465 0
M  V30 1041 H 100.446 2.85232 -3.03368 0
M  V30 1042 H 103.043 5.14434 -1.45814 0
M  V30 1043 H 103.386 4.16264 -0.0549535 0
M  V30 1044 H 103.919 3.61387 -1.66265 0
M  V30 1045 H 100.658 4.87499 -4.38207 0
M  V30 1046 H 100.178 5.3389 -2.73351 0
M  V30 1047 H 101.857 5.57843 -3.2775 0
M  V30 1048 N 101.989 0.842826 1.3317 0
M  V30 1049 C 102.952 0.284065 2.27433 0
M  V30 1050 C 103.952 -0.54948 1.5112 0
M  V30 1051 O 105.142 -0.362699 1.70382 0
M  V30 1052 C 102.274 -0.599384 3.35589 0
M  V30 1053 H 103.467 1.11589 2.78366 0
M  V30 1054 H 101.02 0.616221 1.4364 0
M  V30 1055 H 101.755 -1.45349 2.89904 0
M  V30 1056 H 101.54 -0.00291266 3.921 0
M  V30 1057 H 103.03 -0.983488 4.05854 0
M  V30 1058 N 103.467 -1.45747 0.599634 0
M  V30 1059 C 104.878 -1.85853 0.177681 0
M  V30 1060 C 105.229 -1.50102 -1.26348 0
M  V30 1061 O 104.354 -0.923905 -1.95686 0
M  V30 1062 C 104.949 -3.37326 0.315688 0
M  V30 1063 C 103.508 -3.76365 -0.0515144 0
M  V30 1064 C 102.655 -2.69722 0.643822 0
M  V30 1065 H 105.606 -1.36661 0.806814 0
M  V30 1066 H 105.627 -3.77778 -0.454321 0
M  V30 1067 H 105.139 -3.63315 1.36468 0
M  V30 1068 H 103.24 -3.55993 -1.09999 0
M  V30 1069 H 103.353 -4.77916 0.336594 0
M  V30 1070 H 101.717 -2.54567 0.0822881 0
M  V30 1071 H 102.5 -2.98549 1.6948 0
M  V30 1072 N 104.945 -0.338344 -1.53925 0
M  V30 1073 C 105.875 0.51328 -2.27789 0
M  V30 1074 C 106.856 1.107 -1.29149 0
M  V30 1075 O 108.041 1.12937 -1.57984 0
M  V30 1076 C 105.171 1.66697 -3.04679 0
M  V30 1077 C 104.125 1.20183 -4.1078 0
M  V30 1078 C 103.451 2.44363 -4.75595 0
M  V30 1079 C 104.751 0.30605 -5.21403 0
M  V30 1080 H 106.445 -0.102883 -2.99223 0
M  V30 1081 H 103.991 -0.0509219 -1.4391 0
M  V30 1082 H 105.944 2.26915 -3.55088 0
M  V30 1083 H 104.668 2.30995 -2.30887 0
M  V30 1084 H 103.327 0.622499 -3.61276 0
M  V30 1085 H 102.975 3.07057 -3.98403 0
M  V30 1086 H 102.675 2.13925 -5.47275 0
M  V30 1087 H 104.199 3.05317 -5.28786 0
M  V30 1088 H 105.613 0.814929 -5.67478 0
M  V30 1089 H 104.01 0.0937929 -6.00027 0
M  V30 1090 H 105.08 -0.65921 -4.80398 0
M  V30 1091 N 106.423 1.57458 -0.0668435 0
M  V30 1092 C 107.353 2.15468 0.899764 0
M  V30 1093 C 108.334 1.08042 1.31381 0
M  V30 1094 O 109.519 1.36054 1.38574 0
M  V30 1095 C 106.649 2.71232 2.16911 0
M  V30 1096 C 105.603 3.83781 1.89463 0
M  V30 1097 C 104.929 4.26127 3.22986 0
M  V30 1098 C 106.229 5.08238 1.20381 0
M  V30 1099 H 107.923 2.96488 0.416529 0
M  V30 1100 H 105.469 1.4262 0.198908 0
M  V30 1101 H 107.422 3.10458 2.84945 0
M  V30 1102 H 106.146 1.87426 2.67468 0
M  V30 1103 H 104.805 3.45051 1.23836 0
M  V30 1104 H 104.453 3.39249 3.71374 0
M  V30 1105 H 104.153 5.01993 3.05413 0
M  V30 1106 H 105.677 4.67966 3.92225 0
M  V30 1107 H 107.091 5.44811 1.78475 0
M  V30 1108 H 105.488 5.89349 1.13083 0
M  V30 1109 H 106.558 4.84558 0.182153 0
M  V30 1110 N 107.901 -0.206675 1.56239 0
M  V30 1111 C 109.178 -0.954051 1.70755 0
M  V30 1112 C 109.558 -2.01841 0.618353 0
M  V30 1113 O 108.906 -2.25444 -0.372434 0
M  V30 1114 C 109.116 -1.551 3.12642 0
M  V30 1115 C 110.464 -2.03757 3.72516 0
M  V30 1116 O 111.488 -1.64965 3.15698 0
M  V30 1117 O 110.347 -2.75103 4.72208 0
M  V30 1118 H 107.441 -0.446636 0.696021 0
M  V30 1119 H 109.987 -0.197283 1.68549 0
M  V30 1120 H 108.759 -0.783212 3.83382 0
M  V30 1121 H 108.382 -2.37291 3.19028 0
M  V30 1122 N 109.379 -1.50304 -0.473955 0
M  V30 1123 C 110.342 -1.6841 -1.55469 0
M  V30 1124 C 111.342 -0.554905 -1.50922 0
M  V30 1125 O 112.532 -0.821882 -1.53593 0
M  V30 1126 C 109.664 -1.70667 -2.95102 0
M  V30 1127 H 110.857 -2.64828 -1.40733 0
M  V30 1128 H 108.41 -1.39742 -0.700132 0
M  V30 1129 H 109.145 -0.75932 -3.15285 0
M  V30 1130 H 108.93 -2.52698 -2.9981 0
M  V30 1131 H 110.42 -1.8664 -3.73571 0
M  V30 1132 N 110.857 0.726932 -1.39834 0
M  V30 1133 C 111.787 1.85405 -1.41941 0
M  V30 1134 C 112.768 1.67751 -0.281728 0
M  V30 1135 O 113.953 1.8795 -0.488717 0
M  V30 1136 C 111.083 3.23243 -1.2701 0
M  V30 1137 C 110.037 3.55549 -2.38262 0
M  V30 1138 C 109.363 4.9241 -2.08415 0
M  V30 1139 C 110.663 3.577 -3.80589 0
M  V30 1140 H 112.357 1.83899 -2.36266 0
M  V30 1141 H 109.903 0.883349 -1.13723 0
M  V30 1142 H 111.856 4.01775 -1.27103 0
M  V30 1143 H 110.58 3.25296 -0.291564 0
M  V30 1144 H 109.239 2.79351 -2.37399 0
M  V30 1145 H 108.887 4.91052 -1.0898 0
M  V30 1146 H 108.587 5.14992 -2.82943 0
M  V30 1147 H 110.111 5.73289 -2.10171 0
M  V30 1148 H 111.525 4.26293 -3.83337 0
M  V30 1149 H 109.922 3.91804 -4.54543 0
M  V30 1150 H 110.992 2.57328 -4.10987 0
M  V30 1151 N 112.336 1.25143 0.95797 0
M  V30 1152 C 113.561 1.12521 1.74223 0
M  V30 1153 C 113.986 -0.317402 1.85403 0
M  V30 1154 O 113.344 -1.2299 1.33204 0
M  V30 1155 C 113.392 1.78062 3.1357 0
M  V30 1156 O 112.496 1.058 3.98598 0
M  V30 1157 H 111.837 0.39304 0.535178 0
M  V30 1158 H 114.367 1.65641 1.201 0
M  V30 1159 H 114.377 1.84213 3.64046 0
M  V30 1160 H 113.052 2.83021 3.04749 0
M  V30 1161 H 111.629 1.07506 3.57067 0
M  V30 1162 N 113.814 -1.1601 1.06675 0
M  V30 1163 C 115.091 -1.82679 0.699114 0
M  V30 1164 C 115.471 -1.94559 -0.819137 0
M  V30 1165 O 114.819 -1.49169 -1.73092 0
M  V30 1166 C 115.029 -3.19445 1.40555 0
M  V30 1167 C 116.377 -3.95171 1.55323 0
M  V30 1168 O 117.401 -3.28976 1.36577 0
M  V30 1169 O 116.26 -5.13833 1.86112 0
M  V30 1170 H 113.354 -0.788954 0.247951 0
M  V30 1171 H 115.9 -1.23179 1.16726 0
M  V30 1172 H 114.672 -3.05856 2.44065 0
M  V30 1173 H 114.295 -3.86625 0.927733 0
M  V30 1174 N 115.292 -0.849877 -1.32721 0
M  V30 1175 C 116.224 -0.248332 -2.27851 0
M  V30 1176 C 117.237 0.577218 -1.52224 0
M  V30 1177 O 118.426 0.402489 -1.73903 0
M  V30 1178 C 115.526 0.668107 -3.32249 0
M  V30 1179 C 114.699 -0.120534 -4.37234 0
M  V30 1180 C 113.758 0.720932 -5.21238 0
M  V30 1181 O 112.784 0.156166 -5.68986 0
M  V30 1182 N 113.986 2.03647 -5.43607 0
M  V30 1183 H 116.751 -1.06575 -2.80111 0
M  V30 1184 H 114.312 -0.709395 -1.45531 0
M  V30 1185 H 116.304 1.23627 -3.85355 0
M  V30 1186 H 114.874 1.38621 -2.80184 0
M  V30 1187 H 114.094 -0.870108 -3.84477 0
M  V30 1188 H 115.382 -0.662406 -5.0447 0
M  V30 1189 H 114.78 2.51871 -5.06535 0
M  V30 1190 H 113.337 2.55287 -5.99727 0
M  V30 1191 N 116.77 1.45427 -0.607355 0
M  V30 1192 C 117.703 2.27635 0.160482 0
M  V30 1193 C 118.681 1.37122 0.873857 0
M  V30 1194 O 119.865 1.66551 0.882775 0
M  V30 1195 C 116.992 3.15486 1.23231 0
M  V30 1196 C 116.038 4.21939 0.622097 0
M  V30 1197 S 116.871 5.32459 -0.569852 0
M  V30 1198 C 118.027 6.23879 0.502577 0
M  V30 1199 H 118.26 2.9241 -0.536983 0
M  V30 1200 H 115.793 1.49265 -0.394868 0
M  V30 1201 H 117.751 3.66659 1.84585 0
M  V30 1202 H 116.412 2.49977 1.90185 0
M  V30 1203 H 115.605 4.8333 1.42856 0
M  V30 1204 H 115.207 3.73906 0.0837063 0
M  V30 1205 H 117.499 6.63261 1.38171 0
M  V30 1206 H 118.442 7.0806 -0.0751759 0
M  V30 1207 H 118.85 5.58545 0.8178 0
M  V30 1208 N 118.248 0.346503 1.53744 0
M  V30 1209 C 119.198 -0.524953 2.21874 0
M  V30 1210 C 120.182 -1.06376 1.20718 0
M  V30 1211 O 121.374 -0.996972 1.46251 0
M  V30 1212 C 118.503 -1.6739 2.99726 0
M  V30 1213 C 117.589 -1.14888 4.08242 0
M  V30 1214 N 117.98 -0.345329 5.0462 0
M  V30 1215 C 116.278 -1.4255 4.22606 0
M  V30 1216 C 116.979 -0.0600706 5.81669 0
M  V30 1217 N 115.955 -0.65252 5.39669 0
M  V30 1218 H 119.757 0.0960091 2.93743 0
M  V30 1219 H 117.271 0.15352 1.61673 0
M  V30 1220 H 119.268 -2.3102 3.47038 0
M  V30 1221 H 117.928 -2.29811 2.29384 0
M  V30 1222 H 118.939 0.0138439 5.17898 0
M  V30 1223 H 115.616 -2.05389 3.63486 0
M  V30 1224 H 117.006 0.588321 6.69319 0
M  V30 1225 N 119.726 -1.57421 0.075193 0
M  V30 1226 C 121.142 -1.57099 -0.281444 0
M  V30 1227 C 121.342 -1.08486 -1.69803 0
M  V30 1228 O 120.398 -0.752279 -2.41033 0
M  V30 1229 C 121.711 -3.00571 -0.0880041 0
M  V30 1230 C 123.259 -3.12605 -0.157281 0
M  V30 1231 C 123.734 -4.57999 0.0079207 0
M  V30 1232 N 125.225 -4.63176 -0.0475725 0
M  V30 1233 C 125.96 -5.73373 0.0557876 0
M  V30 1234 N 125.456 -6.92473 0.21286 0
M  V30 1235 N 127.249 -5.621 -0.00152098 0
M  V30 1236 H 119.4 -1.87335 1.00098 0
M  V30 1237 H 121.663 -0.86377 0.390646 0
M  V30 1238 H 121.369 -3.40262 0.889629 0
M  V30 1239 H 121.243 -3.67754 -0.838875 0
M  V30 1240 H 123.63 -2.72798 -1.1254 0
M  V30 1241 H 123.711 -2.48053 0.62475 0
M  V30 1242 H 123.355 -4.98496 0.972824 0
M  V30 1243 H 123.285 -5.20586 -0.793556 0
M  V30 1244 H 125.776 -3.7753 -0.167244 0
M  V30 1245 H 126.089 -7.72279 0.283781 0
M  V30 1246 H 124.434 -6.94556 0.248267 0
M  V30 1247 H 127.625 -4.67938 -0.122958 0
M  V30 1248 H 127.798 -6.47948 0.0824844 0
M  V30 1249 N 121.204 0.198386 -1.56346 0
M  V30 1250 C 122.45 0.920648 -1.80698 0
M  V30 1251 C 122.783 1.83045 -0.648697 0
M  V30 1252 O 122.058 1.91308 0.350925 0
M  V30 1253 C 122.341 1.73971 -3.15287 0
M  V30 1254 C 122.194 0.85485 -4.41602 0
M  V30 1255 C 123.513 2.71296 -3.46535 0
M  V30 1256 H 120.632 0.333261 -0.657348 0
M  V30 1257 H 123.274 0.188198 -1.89066 0
M  V30 1258 H 121.424 2.36416 -3.08285 0
M  V30 1259 H 123.096 0.245362 -4.60647 0
M  V30 1260 H 121.339 0.161398 -4.335 0
M  V30 1261 H 122.01 1.46286 -5.32264 0
M  V30 1262 H 124.486 2.18983 -3.53816 0
M  V30 1263 H 123.362 3.2569 -4.41834 0
M  V30 1264 H 123.623 3.5018 -2.69864 0
M  V30 1265 N 122.682 1.50554 0.465978 0
M  V30 1266 C 123.907 1.65838 1.24549 0
M  V30 1267 C 124.332 0.343486 1.84937 0
M  V30 1268 O 123.69 -0.69324 1.67523 0
M  V30 1269 C 123.738 2.75533 2.32624 0
M  V30 1270 O 122.842 2.37142 3.37398 0
M  V30 1271 H 122.183 0.553893 0.366194 0
M  V30 1272 H 124.713 1.96959 0.553927 0
M  V30 1273 H 124.723 2.98763 2.77857 0
M  V30 1274 H 123.398 3.70962 1.88043 0
M  V30 1275 H 121.975 2.24377 2.97841 0
M  V30 1276 N 124.16 -0.719506 1.40217 0
M  V30 1277 C 125.409 -1.47486 1.37589 0
M  V30 1278 C 125.722 -1.9559 -0.0201568 0
M  V30 1279 O 126.928 -2.70973 -0.169049 0
M  V30 1280 C 125.384 -2.66575 2.41796 0
M  V30 1281 C 124.992 -2.25358 3.87192 0
M  V30 1282 C 126.736 -3.4433 2.48269 0
M  V30 1283 C 124.643 -3.41262 4.83005 0
M  V30 1284 H 123.573 -0.553901 0.511576 0
M  V30 1285 H 126.224 -0.783427 1.65936 0
M  V30 1286 H 124.606 -3.3787 2.06543 0
M  V30 1287 H 125.78 -1.61509 4.31569 0
M  V30 1288 H 124.095 -1.60657 3.84159 0
M  V30 1289 H 126.692 -4.30569 3.17041 0
M  V30 1290 H 127.035 -3.87872 1.51198 0
M  V30 1291 H 127.568 -2.80076 2.82493 0
M  V30 1292 H 124.307 -3.02755 5.81394 0
M  V30 1293 H 123.827 -4.0404 4.43297 0
M  V30 1294 H 125.506 -4.07383 5.02641 0
M  V30 1295 N 125.638 -1.25649 -0.95132 0
M  V30 1296 C 126.915 -1.01361 -1.67288 0
M  V30 1297 C 127.295 0.459135 -2.06046 0
M  V30 1298 O 126.643 1.43723 -1.7764 0
M  V30 1299 C 126.853 -1.95256 -2.89268 0
M  V30 1300 C 128.201 -2.23289 -3.61147 0
M  V30 1301 O 129.225 -1.93041 -2.99355 0
M  V30 1302 O 128.084 -2.74741 -4.72419 0
M  V30 1303 H 125.178 -0.38464 -0.732107 0
M  V30 1304 H 127.724 -1.36817 -1.00395 0
M  V30 1305 H 126.496 -2.94685 -2.57442 0
M  V30 1306 H 126.119 -1.60218 -3.6389 0
M  V30 1307 N 127.117 1.15442 -1.07289 0
M  V30 1308 C 128.342 1.90638 -0.816828 0
M  V30 1309 C 128.767 1.77445 0.624083 0
M  V30 1310 O 128.125 1.10671 1.43602 0
M  V30 1311 C 128.173 3.39008 -1.22906 0
M  V30 1312 O 127.277 4.10701 -0.373975 0
M  V30 1313 H 126.618 0.593555 -0.297638 0
M  V30 1314 H 129.148 1.46198 -1.43134 0
M  V30 1315 H 129.158 3.89801 -1.20497 0
M  V30 1316 H 127.833 3.47929 -2.27856 0
M  V30 1317 H 126.41 3.70046 -0.460499 0
M  V30 1318 N 128.595 0.856903 1.32268 0
M  V30 1319 C 129.842 0.461386 1.97174 0
M  V30 1320 C 130.17 -0.983491 1.67803 0
M  V30 1321 O 129.425 -1.70541 0.959903 0
M  V30 1322 C 129.724 0.649919 3.51441 0
M  V30 1323 C 129.39 2.0656 4.00804 0
M  V30 1324 C 128.052 2.45279 4.13995 0
M  V30 1325 C 130.404 2.98947 4.26943 0
M  V30 1326 C 127.732 3.75653 4.50668 0
M  V30 1327 C 130.084 4.28822 4.65075 0
M  V30 1328 C 128.748 4.67472 4.76472 0
M  V30 1329 H 128.018 0.168833 0.72151 0
M  V30 1330 H 130.665 1.08739 1.57633 0
M  V30 1331 H 128.97 -0.0593018 3.91755 0
M  V30 1332 H 130.667 0.32391 3.9969 0
M  V30 1333 H 127.257 1.75495 3.91024 0
M  V30 1334 H 131.441 2.70265 4.16258 0
M  V30 1335 H 126.697 4.05379 4.57688 0
M  V30 1336 H 130.871 5.0047 4.84255 0
M  V30 1337 H 128.498 5.68539 5.04646 0
M  V30 1338 N 130.073 -1.45103 0.615059 0
M  V30 1339 C 131.005 -2.28786 -0.13762 0
M  V30 1340 C 132.018 -1.40376 -0.824525 0
M  V30 1341 O 133.207 -1.64681 -0.688662 0
M  V30 1342 C 130.307 -3.16322 -1.21628 0
M  V30 1343 C 129.48 -4.33054 -0.615039 0
M  V30 1344 C 128.539 -5.01743 -1.58556 0
M  V30 1345 O 127.565 -5.58293 -1.10895 0
M  V30 1346 N 128.767 -5.01714 -2.91998 0
M  V30 1347 H 131.532 -2.94025 0.580483 0
M  V30 1348 H 129.093 -1.55373 0.45507 0
M  V30 1349 H 131.085 -3.59139 -1.86552 0
M  V30 1350 H 129.655 -2.52943 -1.83681 0
M  V30 1351 H 128.875 -3.93627 0.21245 0
M  V30 1352 H 130.163 -5.08431 -0.193704 0
M  V30 1353 H 129.561 -4.57075 -3.33316 0
M  V30 1354 H 128.118 -5.48371 -3.52325 0
M  V30 1355 N 131.551 -0.354651 -1.53558 0
M  V30 1356 C 132.962 0.126902 -1.86268 0
M  V30 1357 C 133.313 1.49075 -1.27558 0
M  V30 1358 O 132.438 2.08105 -0.5934 0
M  V30 1359 C 133.033 0.237046 -3.3797 0
M  V30 1360 C 131.592 0.662842 -3.70518 0
M  V30 1361 C 130.739 -0.196652 -2.76602 0
M  V30 1362 H 133.69 -0.573849 -1.47962 0
M  V30 1363 H 133.711 1.06259 -3.65362 0
M  V30 1364 H 133.223 -0.755725 -3.80671 0
M  V30 1365 H 131.324 1.66424 -3.33367 0
M  V30 1366 H 131.437 0.445034 -4.77029 0
M  V30 1367 H 129.801 0.332763 -2.52517 0
M  V30 1368 H 130.584 -1.18676 -3.22135 0
M  V30 1369 N 133.029 1.57378 -0.0835403 0
M  V30 1370 C 133.939 2.16897 0.894021 0
M  V30 1371 C 134.955 1.13528 1.31861 0
M  V30 1372 O 136.131 1.45848 1.3889 0
M  V30 1373 C 133.196 2.72831 2.13925 0
M  V30 1374 C 132.257 3.91115 1.76997 0
M  V30 1375 C 131.49 4.44371 2.95584 0
M  V30 1376 O 131.713 3.96596 4.09961 0
M  V30 1377 O 130.647 5.35549 2.74719 0
M  V30 1378 H 134.473 3.00814 0.417679 0
M  V30 1379 H 132.058 1.48741 0.140181 0
M  V30 1380 H 133.94 3.0863 2.86924 0
M  V30 1381 H 132.615 1.91967 2.60635 0
M  V30 1382 H 131.522 3.60148 1.01214 0
M  V30 1383 H 132.855 4.73307 1.3506 0
M  V30 1384 N 134.507 -0.190092 1.56449 0
M  V30 1385 C 135.735 -0.925772 1.85033 0
M  V30 1386 C 136.15 -1.76638 0.666658 0
M  V30 1387 O 135.507 -1.78822 -0.364565 0
M  V30 1388 C 135.558 -1.81786 3.12468 0
M  V30 1389 O 135.279 -1.01118 4.26271 0
M  V30 1390 C 136.78 -2.6648 3.54265 0
M  V30 1391 H 134 -0.269872 0.614337 0
M  V30 1392 H 136.544 -0.195837 2.0356 0
M  V30 1393 H 134.699 -2.50136 2.95822 0
M  V30 1394 H 135.113 -1.61956 4.98869 0
M  V30 1395 H 136.587 -3.24722 4.46385 0
M  V30 1396 H 137.064 -3.40434 2.77491 0
M  V30 1397 H 137.67 -2.03493 3.73458 0
M  V30 1398 N 135.985 -1.50799 -0.457987 0
M  V30 1399 C 136.917 -1.66786 -1.57211 0
M  V30 1400 C 137.93 -0.548962 -1.53265 0
M  V30 1401 O 139.119 -0.8226 -1.58416 0
M  V30 1402 C 136.219 -1.64834 -2.96113 0
M  V30 1403 C 135.392 -2.92971 -3.24787 0
M  V30 1404 C 134.451 -2.83485 -4.43309 0
M  V30 1405 O 133.477 -3.5744 -4.42973 0
M  V30 1406 N 134.679 -1.97929 -5.45714 0
M  V30 1407 H 137.444 -2.62889 -1.43909 0
M  V30 1408 H 135.005 -1.48427 -0.646617 0
M  V30 1409 H 136.997 -1.56084 -3.7339 0
M  V30 1410 H 135.567 -0.764118 -3.03117 0
M  V30 1411 H 134.787 -3.15749 -2.36 0
M  V30 1412 H 136.075 -3.77834 -3.40762 0
M  V30 1413 H 135.473 -1.37182 -5.48815 0
M  V30 1414 H 134.03 -1.95073 -6.21924 0
M  V30 1415 N 137.463 0.71206 -1.40597 0
M  V30 1416 C 138.879 1.02058 -1.22704 0
M  V30 1417 C 139.079 2.01228 -0.104729 0
M  V30 1418 O 138.135 2.4674 0.53624 0
M  V30 1419 C 139.448 1.56094 -2.57012 0
M  V30 1420 C 140.996 1.6806 -2.64054 0
M  V30 1421 C 141.471 2.25501 -3.9864 0
M  V30 1422 N 142.962 2.32882 -4.004 0
M  V30 1423 C 143.697 2.78317 -5.01325 0
M  V30 1424 N 143.193 3.23478 -6.12645 0
M  V30 1425 N 144.986 2.77733 -4.88693 0
M  V30 1426 H 137.137 0.0547896 -2.12329 0
M  V30 1427 H 139.4 0.0869027 -0.944008 0
M  V30 1428 H 139.106 0.906865 -3.39807 0
M  V30 1429 H 138.98 2.54564 -2.78347 0
M  V30 1430 H 141.367 2.32583 -1.81629 0
M  V30 1431 H 141.448 0.681802 -2.46546 0
M  V30 1432 H 141.092 1.61598 -4.81506 0
M  V30 1433 H 141.022 3.26102 -4.13479 0
M  V30 1434 H 143.513 2.00991 -3.20017 0
M  V30 1435 H 143.826 3.56725 -6.85542 0
M  V30 1436 H 142.171 3.21429 -6.16205 0
M  V30 1437 H 145.362 2.4179 -4.00818 0
M  V30 1438 H 145.535 3.12826 -5.67489 0
M  V30 1439 N 138.941 1.26152 0.944643 0
M  V30 1440 C 140.171 1.14094 1.72239 0
M  V30 1441 C 140.579 -0.306931 1.86694 0
M  V30 1442 O 139.922 -1.22222 1.3714 0
M  V30 1443 C 139.984 1.73316 3.14963 0
M  V30 1444 C 139.648 3.2239 3.23904 0
M  V30 1445 C 140.645 4.19252 3.07447 0
M  V30 1446 C 138.33 3.62788 3.47405 0
M  V30 1447 C 140.324 5.54491 3.14353 0
M  V30 1448 C 138.011 4.98162 3.53947 0
M  V30 1449 C 139.009 5.93823 3.37436 0
M  V30 1450 O 138.697 7.26732 3.43679 0
M  V30 1451 H 138.429 0.398292 0.546205 0
M  V30 1452 H 140.983 1.67201 1.19301 0
M  V30 1453 H 139.213 1.14667 3.69308 0
M  V30 1454 H 140.902 1.56214 3.74636 0
M  V30 1455 H 141.668 3.8938 2.8915 0
M  V30 1456 H 137.547 2.88816 3.59313 0
M  V30 1457 H 141.091 6.29137 3.01384 0
M  V30 1458 H 136.988 5.27695 3.71763 0
M  V30 1459 H 137.756 7.3496 3.60245 0
M  V30 1460 N 140.419 -1.14872 1.07899 0
M  V30 1461 C 141.382 -2.17986 0.708161 0
M  V30 1462 C 142.382 -1.58775 -0.25442 0
M  V30 1463 O 143.572 -1.74166 -0.034645 0
M  V30 1464 C 140.704 -3.40871 0.0446929 0
M  V30 1465 H 141.897 -2.52306 1.62116 0
M  V30 1466 H 139.45 -1.2943 0.876218 0
M  V30 1467 H 140.185 -3.12124 -0.880281 0
M  V30 1468 H 139.97 -3.8511 0.737091 0
M  V30 1469 H 141.46 -4.17121 -0.19991 0
M  V30 1470 N 141.898 -0.863906 -1.31812 0
M  V30 1471 C 142.828 -0.330843 -2.31144 0
M  V30 1472 C 143.809 0.575005 -1.60087 0
M  V30 1473 O 144.994 0.493304 -1.8783 0
M  V30 1474 C 142.124 0.47374 -3.44054 0
M  V30 1475 C 141.078 -0.338481 -4.26659 0
M  V30 1476 C 140.404 0.591412 -5.31419 0
M  V30 1477 C 141.704 -1.56926 -4.98168 0
M  V30 1478 H 143.398 -1.16086 -2.75979 0
M  V30 1479 H 140.944 -0.559657 -1.32679 0
M  V30 1480 H 142.897 0.857143 -4.12591 0
M  V30 1481 H 141.621 1.33721 -2.9797 0
M  V30 1482 H 140.28 -0.703754 -3.59782 0
M  V30 1483 H 139.928 1.45199 -4.81587 0
M  V30 1484 H 139.628 0.0519022 -5.87577 0
M  V30 1485 H 141.152 0.97179 -6.02817 0
M  V30 1486 H 142.566 -1.25764 -5.59336 0
M  V30 1487 H 140.963 -2.04739 -5.64094 0
M  V30 1488 H 142.033 -2.32544 -4.25501 0
M  V30 1489 N 143.376 1.44774 -0.622745 0
M  V30 1490 C 144.323 2.30635 0.0871679 0
M  V30 1491 C 145.293 1.42994 0.845097 0
M  V30 1492 O 146.478 1.71907 0.827812 0
M  V30 1493 C 143.618 3.28144 1.06844 0
M  V30 1494 C 142.731 4.30888 0.309809 0
M  V30 1495 C 141.866 5.15494 1.28215 0
M  V30 1496 C 140.905 6.09953 0.512198 0
M  V30 1497 N 140.042 6.87287 1.43458 0
M  V30 1498 H 144.882 2.90803 -0.650974 0
M  V30 1499 H 142.419 1.43286 -0.33281 0
M  V30 1500 H 144.377 3.83157 1.65066 0
M  V30 1501 H 143.007 2.69695 1.77382 0
M  V30 1502 H 142.059 3.78414 -0.388181 0
M  V30 1503 H 143.371 4.97955 -0.290254 0
M  V30 1504 H 142.525 5.74983 1.93596 0
M  V30 1505 H 141.264 4.48481 1.91614 0
M  V30 1506 H 140.269 5.49581 -0.155151 0
M  V30 1507 H 141.494 6.78999 -0.116958 0
M  V30 1508 H 139.44 6.2295 2.05594 0
M  V30 1509 H 139.357 7.50763 0.888335 0
M  V30 1510 H 140.625 7.51306 2.07749 0
M  V30 1511 N 144.854 0.36279 1.53368 0
M  V30 1512 C 146.27 0.0116182 1.59596 0
M  V30 1513 C 146.47 -1.47012 1.37803 0
M  V30 1514 O 145.526 -2.23136 1.18181 0
M  V30 1515 C 146.839 0.465052 2.97082 0
M  V30 1516 C 148.387 0.419033 3.10182 0
M  V30 1517 C 148.862 0.848235 4.50077 0
M  V30 1518 N 150.353 0.803183 4.56183 0
M  V30 1519 C 151.088 1.107 5.62613 0
M  V30 1520 N 150.584 1.47996 6.76808 0
M  V30 1521 N 152.377 1.02998 5.52583 0
M  V30 1522 H 144.528 1.32775 1.65785 0
M  V30 1523 H 146.791 0.542518 0.777417 0
M  V30 1524 H 146.497 1.49892 3.18159 0
M  V30 1525 H 146.371 -0.149786 3.76902 0
M  V30 1526 H 148.758 -0.605696 2.88817 0
M  V30 1527 H 148.839 1.06933 2.32377 0
M  V30 1528 H 148.483 1.87107 4.7218 0
M  V30 1529 H 148.413 0.175218 5.26308 0
M  V30 1530 H 150.904 0.52838 3.74188 0
M  V30 1531 H 151.217 1.69613 7.53957 0
M  V30 1532 H 149.562 1.51859 6.78206 0
M  V30 1533 H 152.753 0.737817 4.62249 0
M  V30 1534 H 152.926 1.2701 6.35431 0
M  V30 1535 N 146.332 -1.57332 0.0918853 0
M  V30 1536 C 147.58 -1.93853 -0.571446 0
M  V30 1537 C 147.901 -0.974212 -1.6892 0
M  V30 1538 O 147.171 -0.0257254 -1.95883 0
M  V30 1539 H 145.751 -0.715666 -0.214082 0
M  V30 1540 H 148.413 -1.94287 0.154464 0
M  V30 1541 H 147.509 -2.96191 -0.983729 0
M  V30 1542 N 147.81 0.181792 -1.56548 0
M  V30 1543 C 149.056 0.901431 -1.81665 0
M  V30 1544 C 149.389 1.82347 -0.668075 0
M  V30 1545 O 148.664 1.91669 0.330615 0
M  V30 1546 C 148.947 1.70618 -3.17115 0
M  V30 1547 C 148.8 0.807964 -4.42484 0
M  V30 1548 C 150.119 2.67605 -3.49393 0
M  V30 1549 H 147.238 0.32627 -0.660846 0
M  V30 1550 H 149.88 0.168134 -1.89255 0
M  V30 1551 H 148.03 2.33133 -3.10775 0
M  V30 1552 H 149.702 0.19649 -4.60881 0
M  V30 1553 H 147.945 0.115411 -4.33646 0
M  V30 1554 H 148.616 1.40632 -5.33785 0
M  V30 1555 H 151.092 2.15218 -3.56118 0
M  V30 1556 H 149.968 3.20985 -4.45264 0
M  V30 1557 H 150.229 3.47298 -2.73563 0
M  V30 1558 N 149.288 1.51039 0.449983 0
M  V30 1559 C 150.536 1.62759 1.19808 0
M  V30 1560 C 150.857 0.339981 1.92013 0
M  V30 1561 O 150.127 -0.643606 1.85026 0
M  V30 1562 H 148.707 0.599811 0.445237 0
M  V30 1563 H 151.369 1.87914 0.517138 0
M  V30 1564 H 150.465 2.44911 1.93455 0
M  V30 1565 N 150.766 -0.704594 1.40972 0
M  V30 1566 C 151.996 -1.49138 1.42974 0
M  V30 1567 C 152.404 -1.89175 0.0308406 0
M  V30 1568 O 151.747 -1.56734 -0.958138 0
M  V30 1569 C 151.809 -2.79016 2.26694 0
M  V30 1570 C 151.473 -2.61236 3.74973 0
M  V30 1571 C 152.47 -2.27773 4.67349 0
M  V30 1572 C 150.155 -2.77158 4.18914 0
M  V30 1573 C 152.149 -2.10457 6.01653 0
M  V30 1574 C 149.836 -2.59459 5.53285 0
M  V30 1575 C 150.834 -2.26158 6.4447 0
M  V30 1576 O 150.522 -2.08605 7.76363 0
M  V30 1577 H 150.254 -0.466443 0.489292 0
M  V30 1578 H 152.808 -0.8758 1.85793 0
M  V30 1579 H 151.038 -3.42947 1.78673 0
M  V30 1580 H 152.727 -3.40782 2.20504 0
M  V30 1581 H 153.493 -2.15095 4.34694 0
M  V30 1582 H 149.372 -3.02064 3.48251 0
M  V30 1583 H 152.916 -1.84387 6.72791 0
M  V30 1584 H 148.813 -2.71725 5.85522 0
M  V30 1585 H 149.581 -2.23439 7.87412 0
M  V30 1586 N 152.244 -1.26651 -0.937939 0
M  V30 1587 C 153.174 -1.10993 -2.05433 0
M  V30 1588 C 154.155 -0.0142161 -1.70094 0
M  V30 1589 O 155.34 -0.186837 -1.93299 0
M  V30 1590 C 152.47 -0.745561 -3.39203 0
M  V30 1591 C 151.424 -1.79337 -3.88616 0
M  V30 1592 C 150.75 -1.28324 -5.19073 0
M  V30 1593 C 152.05 -3.19553 -4.13138 0
M  V30 1594 H 153.744 -2.0438 -2.1879 0
M  V30 1595 H 151.29 -0.984041 -1.05131 0
M  V30 1596 H 153.243 -0.622888 -4.16771 0
M  V30 1597 H 151.967 0.22401 -3.25831 0
M  V30 1598 H 150.626 -1.90477 -3.13231 0
M  V30 1599 H 150.274 -0.303414 -5.02084 0
M  V30 1600 H 149.974 -1.98369 -5.53103 0
M  V30 1601 H 151.498 -1.1733 -5.99221 0
M  V30 1602 H 152.912 -3.11471 -4.81309 0
M  V30 1603 H 151.309 -3.87218 -4.58457 0
M  V30 1604 H 152.379 -3.65368 -3.18801 0
M  V30 1605 N 153.722 1.14298 -1.08507 0
M  V30 1606 C 154.67 2.21483 -0.710483 0
M  V30 1607 C 155.664 1.66998 0.284234 0
M  V30 1608 O 156.87 1.79401 0.146692 0
M  V30 1609 H 153.245 0.721578 -0.211729 0
M  V30 1610 H 155.216 2.50348 -1.62384 0
M  V30 1611 C 153.965 3.4743 -0.137007 0
M  V30 1612 H 153.288 3.89686 -0.893592 0
M  V30 1613 H 154.728 4.2391 0.0872789 0
M  V30 1614 C 153.187 3.17548 1.12538 0
M  V30 1615 O 153.717 3.35437 2.21009 0
M  V30 1616 N 151.923 2.71499 1.03617 0
M  V30 1617 H 151.47 2.57143 0.153403 0
M  V30 1618 H 151.428 2.51881 1.88158 0
M  V30 1619 N 155.201 0.870884 1.31352 0
M  V30 1620 C 156.478 0.402907 1.91405 0
M  V30 1621 C 156.858 -1.11512 1.79244 0
M  V30 1622 O 156.206 -1.94411 1.2007 0
M  V30 1623 C 156.416 0.885301 3.37585 0
M  V30 1624 C 157.764 0.911971 4.14691 0
M  V30 1625 O 158.788 0.831016 3.46371 0
M  V30 1626 O 157.647 1.02927 5.3672 0
M  V30 1627 H 154.741 0.120698 0.818145 0
M  V30 1628 H 157.287 0.958857 1.40014 0
M  V30 1629 H 156.059 1.92889 3.40455 0
M  V30 1630 H 155.682 0.307714 3.96407 0
M  V30 1631 N 156.679 -1.44442 0.630414 0
M  V30 1632 C 157.928 -2.01267 0.132073 0
M  V30 1633 C 158.241 -1.50172 -1.25331 0
M  V30 1634 O 159.447 -1.9912 -1.84562 0
M  V30 1635 C 157.903 -3.59422 0.185362 0
M  V30 1636 C 157.511 -4.19514 1.57201 0
M  V30 1637 C 159.255 -4.23724 -0.256553 0
M  V30 1638 C 157.162 -5.69891 1.58045 0
M  V30 1639 H 156.092 -0.752619 0.0456092 0
M  V30 1640 H 158.743 -1.65666 0.789106 0
M  V30 1641 H 157.125 -3.92318 -0.538759 0
M  V30 1642 H 158.299 -3.98156 2.31966 0
M  V30 1643 H 156.614 -3.67496 1.95795 0
M  V30 1644 H 159.211 -5.34019 -0.269767 0
M  V30 1645 H 159.554 -3.96013 -1.28372 0
M  V30 1646 H 160.087 -3.95629 0.41505 0
M  V30 1647 H 156.826 -6.02336 2.58597 0
M  V30 1648 H 156.346 -5.93373 0.875725 0
M  V30 1649 H 158.025 -6.33515 1.31408 0
M  V30 1650 N 158.157 -0.370918 -1.53173 0
M  V30 1651 C 159.089 0.507823 -2.23503 0
M  V30 1652 C 160.102 1.04182 -1.251 0
M  V30 1653 O 161.291 0.947286 -1.5129 0
M  V30 1654 C 158.391 1.71447 -2.92334 0
M  V30 1655 C 157.564 1.31105 -4.17289 0
M  V30 1656 C 156.623 2.38035 -4.69282 0
M  V30 1657 O 155.649 2.00204 -5.32829 0
M  V30 1658 N 156.851 3.69697 -4.47554 0
M  V30 1659 H 159.616 -0.0946382 -2.99551 0
M  V30 1660 H 157.177 -0.196358 -1.60705 0
M  V30 1661 H 159.169 2.42469 -3.24023 0
M  V30 1662 H 157.739 2.22368 -2.19707 0
M  V30 1663 H 156.959 0.430462 -3.91843 0
M  V30 1664 H 158.247 1.0179 -4.98514 0
M  V30 1665 H 157.645 4.03205 -3.9679 0
M  V30 1666 H 156.202 4.36807 -4.8378 0
M  V30 1667 N 159.635 1.57281 -0.100228 0
M  V30 1668 C 160.883 1.94153 0.561157 0
M  V30 1669 C 161.204 0.983157 1.68401 0
M  V30 1670 O 160.474 0.0361132 1.95867 0
M  V30 1671 H 159.054 0.716791 0.210283 0
M  V30 1672 H 161.716 1.94202 -0.164765 0
M  V30 1673 H 160.812 2.96709 0.968008 0
M  V30 1674 N 161.113 -0.173488 1.56642 0
M  V30 1675 C 162.36 -0.890465 1.81871 0
M  V30 1676 C 162.688 -1.82339 0.67696 0
M  V30 1677 O 161.943 -1.92795 -0.335926 0
M  V30 1678 C 162.242 -1.72069 3.13252 0
M  V30 1679 C 161.908 -0.936878 4.41059 0
M  V30 1680 C 160.57 -0.720545 4.75775 0
M  V30 1681 C 162.922 -0.386919 5.19762 0
M  V30 1682 C 160.25 0.0568829 5.86672 0
M  V30 1683 C 162.602 0.37741 6.31473 0
M  V30 1684 C 161.266 0.604563 6.64757 0
M  V30 1685 H 160.536 -0.325844 0.665512 0
M  V30 1686 H 163.183 -0.155527 1.90867 0
M  V30 1687 H 161.488 -2.52496 2.99588 0
M  V30 1688 H 163.185 -2.27844 3.29982 0
M  V30 1689 H 159.775 -1.11553 4.13828 0
M  V30 1690 H 163.959 -0.541398 4.93338 0
M  V30 1691 H 159.215 0.242635 6.10918 0
M  V30 1692 H 163.389 0.810825 6.91664 0
M  V30 1693 H 161.016 1.20885 7.50527 0
M  V30 1694 N 162.591 -1.51276 -0.441967 0
M  V30 1695 C 164.002 -1.56244 -1.02199 0
M  V30 1696 C 164.353 -0.383149 -1.92422 0
M  V30 1697 O 163.478 0.500613 -2.1053 0
M  V30 1698 C 164.073 -2.83162 -1.86024 0
M  V30 1699 C 162.632 -2.90716 -2.39084 0
M  V30 1700 C 161.779 -2.50858 -1.18175 0
M  V30 1701 H 164.73 -1.5712 -0.223416 0
M  V30 1702 H 164.751 -2.66663 -2.71425 0
M  V30 1703 H 164.263 -3.68974 -1.20331 0
M  V30 1704 H 162.364 -2.09323 -3.08244 0
M  V30 1705 H 162.477 -3.94266 -2.72198 0
M  V30 1706 H 160.841 -2.03951 -1.52565 0
M  V30 1707 H 161.624 -3.3901 -0.541001 0
M  V30 1708 N 164.069 0.697108 -1.41344 0
M  V30 1709 C 165.346 1.45154 -1.31109 0
M  V30 1710 C 165.726 2.11009 0.0620449 0
M  V30 1711 O 165.074 2.01571 1.07618 0
M  V30 1712 C 165.284 2.47223 -2.46337 0
M  V30 1713 C 166.632 3.1252 -2.87431 0
M  V30 1714 O 167.656 2.57547 -2.46065 0
M  V30 1715 O 166.515 4.12083 -3.58957 0
M  V30 1716 H 163.609 0.646365 -0.515889 0
M  V30 1717 H 166.155 0.727716 -1.53305 0
M  V30 1718 H 164.927 1.97204 -3.37974 0
M  V30 1719 H 164.55 3.27116 -2.2601 0
M  V30 1720 N 165.547 1.27147 0.931209 0
M  V30 1721 C 166.958 1.12044 1.49342 0
M  V30 1722 C 167.309 -0.295795 1.93957 0
M  V30 1723 O 166.434 -1.18835 1.80852 0
M  V30 1724 C 167.029 2.02781 2.71414 0
M  V30 1725 C 165.588 1.91794 3.2387 0
M  V30 1726 C 164.735 1.95543 1.96617 0
M  V30 1727 H 167.686 1.40091 0.745672 0
M  V30 1728 H 167.707 1.58156 3.46074 0
M  V30 1729 H 167.219 3.05848 2.38911 0
M  V30 1730 H 165.32 0.916992 3.6114 0
M  V30 1731 H 165.433 2.77852 3.90302 0
M  V30 1732 H 163.797 1.39722 2.12955 0
M  V30 1733 H 164.58 3.00259 1.66432 0
M  V30 1734 N 167.025 -1.13721 1.09112 0
M  V30 1735 C 167.988 -2.17222 0.731241 0
M  V30 1736 C 168.988 -1.59035 -0.237566 0
M  V30 1737 O 170.178 -1.74192 -0.0161704 0
M  V30 1738 C 167.31 -3.40804 0.0808443 0
M  V30 1739 H 168.503 -2.50573 1.64783 0
M  V30 1740 H 166.056 -1.28493 0.889897 0
M  V30 1741 H 166.791 -3.1304 -0.847127 0
M  V30 1742 H 166.576 -3.84306 0.777896 0
M  V30 1743 H 168.066 -4.1731 -0.155657 0
M  V30 1744 N 168.503 -0.877838 -1.30888 0
M  V30 1745 C 169.433 -0.35534 -2.3078 0
M  V30 1746 C 170.414 0.557994 -1.60687 0
M  V30 1747 O 171.599 0.473355 -1.88343 0
M  V30 1748 C 168.729 0.437221 -3.44537 0
M  V30 1749 C 167.683 -0.383715 -4.26276 0
M  V30 1750 C 167.009 0.535014 -5.32017 0
M  V30 1751 C 168.309 -1.62201 -4.96476 0
M  V30 1752 H 170.003 -1.19007 -2.74732 0
M  V30 1753 H 167.549 -0.573698 -1.32078 0
M  V30 1754 H 169.502 0.813334 -4.13477 0
M  V30 1755 H 168.226 1.30553 -2.99372 0
M  V30 1756 H 166.885 -0.741874 -3.59015 0
M  V30 1757 H 166.533 1.40083 -4.831 0
M  V30 1758 H 166.233 -0.0104211 -5.87599 0
M  V30 1759 H 167.757 0.907799 -6.03814 0
M  V30 1760 H 169.171 -1.31689 -5.5797 0
M  V30 1761 H 167.568 -2.10711 -5.61891 0
M  V30 1762 H 168.638 -2.37044 -4.23011 0
M  V30 1763 N 169.982 1.44106 -0.638065 0
M  V30 1764 C 171.212 2.06037 -0.152394 0
M  V30 1765 C 171.62 1.47808 1.18108 0
M  V30 1766 O 170.963 0.598092 1.73691 0
M  V30 1767 C 171.025 3.59488 0.0293714 0
M  V30 1768 C 170.689 4.4022 -1.22702 0
M  V30 1769 C 171.686 4.73256 -2.15232 0
M  V30 1770 C 169.371 4.8048 -1.46437 0
M  V30 1771 C 171.365 5.45444 -3.29802 0
M  V30 1772 C 169.052 5.52417 -2.61303 0
M  V30 1773 C 170.05 5.84819 -3.52811 0
M  V30 1774 O 169.738 6.55289 -4.65673 0
M  V30 1775 H 169.47 0.671233 -0.0801401 0
M  V30 1776 H 172.024 1.85851 -0.874563 0
M  V30 1777 H 170.254 3.78191 0.806758 0
M  V30 1778 H 171.943 4.03164 0.470475 0
M  V30 1779 H 172.709 4.42684 -1.98131 0
M  V30 1780 H 168.588 4.54676 -0.760977 0
M  V30 1781 H 172.132 5.70653 -4.01249 0
M  V30 1782 H 168.029 5.82404 -2.78344 0
M  V30 1783 H 168.797 6.73762 -4.64744 0
M  V30 1784 N 171.46 0.379036 1.52974 0
M  V30 1785 C 172.871 -0.0972525 1.86447 0
M  V30 1786 C 173.222 -1.47027 1.29914 0
M  V30 1787 O 172.347 -2.07135 0.626433 0
M  V30 1788 C 172.942 -0.183248 3.38304 0
M  V30 1789 C 171.501 -0.603812 3.71525 0
M  V30 1790 C 170.648 0.240632 2.76254 0
M  V30 1791 H 173.599 0.597316 1.4703 0
M  V30 1792 H 173.62 -1.00432 3.67006 0
M  V30 1793 H 173.132 0.816191 3.79421 0
M  V30 1794 H 171.233 -1.61099 3.35973 0
M  V30 1795 H 171.346 -0.369086 4.77676 0
M  V30 1796 H 169.71 -0.292548 2.53014 0
M  V30 1797 H 170.493 1.23786 3.20206 0
M  V30 1798 N 172.938 -1.57226 0.108567 0
M  V30 1799 C 174.215 -1.86333 -0.594939 0
M  V30 1800 C 174.595 -1.00788 -1.85486 0
M  V30 1801 O 173.943 -0.0839293 -2.28346 0
M  V30 1802 C 174.153 -3.37265 -0.897405 0
M  V30 1803 C 175.501 -4.05629 -1.25501 0
M  V30 1804 O 176.525 -3.42224 -0.987998 0
M  V30 1805 O 175.384 -5.17531 -1.75567 0
M  V30 1806 H 172.478 -0.771018 -0.2991 0
M  V30 1807 H 175.024 -1.69102 0.142283 0
M  V30 1808 H 173.796 -3.913 -0.00413806 0
M  V30 1809 H 173.419 -3.59889 -1.69014 0
M  V30 1810 N 174.416 0.165178 -1.56732 0
M  V30 1811 C 175.665 0.879143 -1.81532 0
M  V30 1812 C 175.978 1.83144 -0.686842 0
M  V30 1813 O 177.184 2.58823 -0.819944 0
M  V30 1814 C 175.64 1.61388 -3.21686 0
M  V30 1815 C 175.248 0.704904 -4.4242 0
M  V30 1816 C 176.992 2.3157 -3.55774 0
M  V30 1817 C 174.899 1.44022 -5.73595 0
M  V30 1818 H 173.829 0.332033 -0.676957 0
M  V30 1819 H 176.48 0.132008 -1.83025 0
M  V30 1820 H 174.862 2.40599 -3.14529 0
M  V30 1821 H 176.036 -0.0506815 -4.60772 0
M  V30 1822 H 174.351 0.112419 -4.16248 0
M  V30 1823 H 176.948 2.8719 -4.51028 0
M  V30 1824 H 177.291 3.07201 -2.8095 0
M  V30 1825 H 177.824 1.59297 -3.64513 0
M  V30 1826 H 174.563 0.72612 -6.51466 0
M  V30 1827 H 174.083 2.16898 -5.5921 0
M  V30 1828 H 175.762 1.98606 -6.15764 0
M  V30 1829 N 175.894 1.51508 0.433938 0
M  V30 1830 C 176.857 1.72473 1.50949 0
M  V30 1831 C 177.857 0.594725 1.49398 0
M  V30 1832 O 179.047 0.862315 1.5136 0
M  V30 1833 C 176.179 1.78431 2.90474 0
M  V30 1834 H 177.372 2.68467 1.33662 0
M  V30 1835 H 174.925 1.41549 0.662836 0
M  V30 1836 H 175.66 0.842645 3.13161 0
M  V30 1837 H 175.445 2.60558 2.93005 0
M  V30 1838 H 176.935 1.96479 3.68491 0
M  V30 1839 N 177.372 -0.689602 1.41712 0
M  V30 1840 C 178.282 -1.83314 1.46401 0
M  V30 1841 C 179.298 -1.7036 0.35405 0
M  V30 1842 O 180.474 -1.92171 0.602692 0
M  V30 1843 C 177.539 -3.19344 1.34982 0
M  V30 1844 C 176.6 -3.44363 2.56344 0
M  V30 1845 C 175.833 -4.73904 2.45461 0
M  V30 1846 O 176.056 -5.508 1.48241 0
M  V30 1847 O 174.99 -4.99839 3.35328 0
M  V30 1848 H 178.816 -1.82314 2.42889 0
M  V30 1849 H 176.401 -0.843438 1.23315 0
M  V30 1850 H 178.283 -4.00547 1.3092 0
M  V30 1851 H 176.958 -3.21014 0.41612 0
M  V30 1852 H 175.865 -2.63067 2.65982 0
M  V30 1853 H 177.198 -3.47512 3.48563 0
M  V30 1854 N 178.85 -1.27639 -0.924453 0
M  V30 1855 C 179.813 -1.10681 -2.00705 0
M  V30 1856 C 180.813 -0.0497823 -1.60723 0
M  V30 1857 O 182.003 -0.294654 -1.7169 0
M  V30 1858 C 179.135 -0.687164 -3.33902 0
M  V30 1859 H 180.328 -2.06817 -2.17179 0
M  V30 1860 H 177.881 -1.10473 -1.10569 0
M  V30 1861 H 178.616 0.275439 -3.23128 0
M  V30 1862 H 178.401 -1.45061 -3.6428 0
M  V30 1863 H 179.891 -0.590853 -4.13399 0
M  V30 1864 N 180.328 1.1314 -1.09713 0
M  V30 1865 C 181.605 1.80762 -0.747302 0
M  V30 1866 C 181.985 1.96663 0.767265 0
M  V30 1867 O 181.333 1.53706 1.69076 0
M  V30 1868 C 181.543 3.15606 -1.48975 0
M  V30 1869 C 182.891 3.90914 -1.65746 0
M  V30 1870 O 183.915 3.25239 -1.45251 0
M  V30 1871 O 182.774 5.08718 -1.9967 0
M  V30 1872 H 179.868 0.782103 -0.268782 0
M  V30 1873 H 182.414 1.20041 -1.19951 0
M  V30 1874 H 181.186 2.99278 -2.52088 0
M  V30 1875 H 180.809 3.84029 -1.02991 0
M  V30 1876 N 181.806 0.884767 1.30421 0
M  V30 1877 C 183.046 0.509806 1.9794 0
M  V30 1878 C 183.41 -0.923736 1.68319 0
M  V30 1879 O 184.611 -1.40481 2.29169 0
M  V30 1880 C 182.882 0.776732 3.48858 0
M  V30 1881 S 184.441 0.503843 4.35898 0
M  V30 1882 H 181.259 0.189699 0.685227 0
M  V30 1883 H 183.861 1.14399 1.58535 0
M  V30 1884 H 182.565 1.81857 3.67908 0
M  V30 1885 H 182.096 0.1301 3.93185 0
M  V30 1886 H 184.111 -0.657625 4.91823 0
M  V30 1887 N 183.284 -1.43765 0.645699 0
M  V30 1888 C 184.7 -1.56509 0.312591 0
M  V30 1889 C 184.9 -1.6307 -1.18365 0
M  V30 1890 O 183.956 -1.58167 -1.96824 0
M  V30 1891 C 185.269 -2.82968 1.01733 0
M  V30 1892 C 186.817 -2.96701 0.996865 0
M  V30 1893 C 187.292 -4.25982 1.68236 0
M  V30 1894 N 188.783 -4.32829 1.64964 0
M  V30 1895 C 189.518 -5.31613 2.14885 0
M  V30 1896 N 189.014 -6.36718 2.73061 0
M  V30 1897 N 190.807 -5.23217 2.05428 0
M  V30 1898 H 182.958 -1.3775 1.61675 0
M  V30 1899 H 185.221 -0.661067 0.679481 0
M  V30 1900 H 184.927 -2.84156 2.0724 0
M  V30 1901 H 184.801 -3.72957 0.564177 0
M  V30 1902 H 187.188 -2.95058 -0.0497719 0
M  V30 1903 H 187.269 -2.08022 1.48865 0
M  V30 1904 H 186.913 -4.28386 2.72852 0
M  V30 1905 H 186.843 -5.13545 1.16529 0
M  V30 1906 H 189.334 -3.57493 1.22503 0
M  V30 1907 H 189.647 -7.08401 3.08848 0
M  V30 1908 H 187.992 -6.37362 2.77118 0
M  V30 1909 H 191.183 -4.40019 1.59689 0
M  V30 1910 H 191.356 -6.00045 2.44643 0
M  V30 1911 N 184.763 -0.387143 -1.52771 0
M  V30 1912 C 185.693 0.440551 -2.29306 0
M  V30 1913 C 186.674 1.06535 -1.32606 0
M  V30 1914 O 187.859 1.07853 -1.61497 0
M  V30 1915 C 184.989 1.56919 -3.09829 0
M  V30 1916 C 183.943 1.07054 -4.14395 0
M  V30 1917 C 183.269 2.29109 -4.83129 0
M  V30 1918 C 184.569 0.140015 -5.22112 0
M  V30 1919 H 186.263 -0.198026 -2.98744 0
M  V30 1920 H 183.809 -0.09668 -1.43675 0
M  V30 1921 H 185.762 2.15503 -3.62128 0
M  V30 1922 H 184.486 2.23532 -2.3812 0
M  V30 1923 H 183.145 0.507247 -3.63074 0
M  V30 1924 H 182.793 2.94227 -4.0797 0
M  V30 1925 H 182.493 1.96406 -5.53804 0
M  V30 1926 H 184.017 2.88339 -5.38231 0
M  V30 1927 H 185.431 0.633978 -5.69784 0
M  V30 1928 H 183.828 -0.0971485 -6.00021 0
M  V30 1929 H 184.898 -0.811711 -4.78058 0
M  V30 1930 N 186.241 1.57166 -0.116904 0
M  V30 1931 C 187.487 1.95412 0.542405 0
M  V30 1932 C 187.82 1.00019 1.66463 0
M  V30 1933 O 187.095 0.0370346 1.94465 0
M  V30 1934 C 187.378 3.43615 1.07708 0
M  V30 1935 C 187.231 4.49781 -0.0415868 0
M  V30 1936 C 188.55 3.93616 1.96861 0
M  V30 1937 H 185.669 0.710543 0.195696 0
M  V30 1938 H 188.311 1.89027 -0.192038 0
M  V30 1939 H 186.461 3.49187 1.70296 0
M  V30 1940 H 188.133 4.56308 -0.676793 0
M  V30 1941 H 186.376 4.28033 -0.705019 0
M  V30 1942 H 187.047 5.50733 0.373717 0
M  V30 1943 H 189.523 3.90335 1.44146 0
M  V30 1944 H 188.399 4.97838 2.3119 0
M  V30 1945 H 188.66 3.34188 2.89432 0
M  V30 1946 N 187.719 -0.156864 1.56817 0
M  V30 1947 C 188.965 -0.872416 1.83076 0
M  V30 1948 C 189.298 -1.81261 0.697001 0
M  V30 1949 O 188.573 -1.92171 -0.30008 0
M  V30 1950 C 188.856 -1.65551 3.19789 0
M  V30 1951 C 188.709 -0.737467 4.43713 0
M  V30 1952 C 190.028 -2.62012 3.53606 0
M  V30 1953 H 187.147 -0.315715 0.665953 0
M  V30 1954 H 189.789 -0.138004 1.89498 0
M  V30 1955 H 187.939 -2.28159 3.14445 0
M  V30 1956 H 189.611 -0.123143 4.61136 0
M  V30 1957 H 187.854 -0.0464067 4.33775 0
M  V30 1958 H 188.525 -1.32122 5.35955 0
M  V30 1959 H 191.001 -2.09525 3.59497 0
M  V30 1960 H 189.877 -3.13861 4.50314 0
M  V30 1961 H 190.138 -3.42902 2.79053 0
M  V30 1962 N 189.197 -1.51736 -0.425897 0
M  V30 1963 C 190.13 -1.68574 -1.53812 0
M  V30 1964 C 191.108 -0.53328 -1.53606 0
M  V30 1965 O 192.292 -0.758555 -1.72564 0
M  V30 1966 C 189.419 -1.70977 -2.92377 0
M  V30 1967 C 188.465 -2.92324 -3.10563 0
M  V30 1968 S 189.298 -4.52952 -2.85648 0
M  V30 1969 C 190.454 -4.58117 -4.26474 0
M  V30 1970 H 190.687 -2.62647 -1.39298 0
M  V30 1971 H 188.22 -1.41564 -0.616361 0
M  V30 1972 H 190.178 -1.73047 -3.72243 0
M  V30 1973 H 188.839 -0.78061 -3.04245 0
M  V30 1974 H 188.032 -2.90439 -4.11899 0
M  V30 1975 H 187.634 -2.88055 -2.38538 0
M  V30 1976 H 189.926 -4.34462 -5.19855 0
M  V30 1977 H 190.869 -5.59983 -4.33388 0
M  V30 1978 H 191.277 -3.8732 -4.10662 0
M  V30 1979 N 190.675 0.682077 -1.42076 0
M  V30 1980 C 191.625 1.78823 -1.41444 0
M  V30 1981 C 192.609 1.58323 -0.28681 0
M  V30 1982 O 193.801 1.68926 -0.528498 0
M  V30 1983 C 190.93 3.17232 -1.3122 0
M  V30 1984 C 190.016 3.4338 -2.489 0
M  V30 1985 N 190.407 3.40152 -3.7434 0
M  V30 1986 C 188.705 3.73986 -2.43003 0
M  V30 1987 C 189.406 3.65581 -4.52466 0
M  V30 1988 N 188.382 3.85989 -3.8277 0
M  V30 1989 H 192.184 1.7471 -2.36334 0
M  V30 1990 H 189.698 0.882622 -1.36321 0
M  V30 1991 H 191.695 3.96489 -1.2885 0
M  V30 1992 H 190.355 3.22547 -0.373263 0
M  V30 1993 H 191.366 3.20221 -4.07037 0
M  V30 1994 H 188.043 3.86591 -1.57651 0
M  V30 1995 H 189.433 3.69108 -5.61435 0
M  V30 1996 N 192.153 1.28127 0.917671 0
M  V30 1997 C 193.378 1.18007 1.70555 0
M  V30 1998 C 193.803 -0.258257 1.86319 0
M  V30 1999 O 193.161 -1.1869 1.37049 0
M  V30 2000 C 193.209 1.87948 3.07746 0
M  V30 2001 O 192.313 1.18427 3.9503 0
M  V30 2002 H 191.654 0.409867 0.522403 0
M  V30 2003 H 194.184 1.69379 1.1477 0
M  V30 2004 H 194.194 1.95701 3.58001 0
M  V30 2005 H 192.869 2.92573 2.95591 0
M  V30 2006 H 191.446 1.18811 3.53466 0
M  V30 2007 N 193.631 -1.12557 1.10312 0
M  V30 2008 C 194.594 -2.16434 0.75424 0
M  V30 2009 C 195.594 -1.59278 -0.220685 0
M  V30 2010 O 196.784 -1.742 0.00230591 0
M  V30 2011 C 193.916 -3.40699 0.116987 0
M  V30 2012 H 195.109 -2.48811 1.67431 0
M  V30 2013 H 192.662 -1.27542 0.903475 0
M  V30 2014 H 193.397 -3.13921 -0.813877 0
M  V30 2015 H 193.182 -3.83459 0.818613 0
M  V30 2016 H 194.672 -4.17451 -0.111387 0
M  V30 2017 N 195.109 -0.891671 -1.2995 0
M  V30 2018 C 196.041 -0.320695 -2.26945 0
M  V30 2019 C 197.054 0.528497 -1.53983 0
M  V30 2020 O 198.243 0.346959 -1.75096 0
M  V30 2021 C 195.343 0.562066 -3.34207 0
M  V30 2022 C 194.516 -0.259576 -4.36629 0
M  V30 2023 C 193.575 0.554739 -5.23268 0
M  V30 2024 O 192.601 -0.0249311 -5.69195 0
M  V30 2025 N 193.803 1.8625 -5.4981 0
M  V30 2026 H 196.568 -1.15432 -2.76578 0
M  V30 2027 H 194.129 -0.755336 -1.432 0
M  V30 2028 H 196.121 1.11304 -3.89093 0
M  V30 2029 H 194.691 1.29637 -2.84452 0
M  V30 2030 H 193.911 -0.991986 -3.81514 0
M  V30 2031 H 195.199 -0.822564 -5.02107 0
M  V30 2032 H 194.597 2.35628 -5.14292 0
M  V30 2033 H 193.154 2.36078 -6.07545 0
M  V30 2034 N 196.587 1.43421 -0.653314 0
M  V30 2035 C 198.003 1.56341 -0.320886 0
M  V30 2036 C 198.203 1.63696 1.17499 0
M  V30 2037 O 197.259 1.59208 1.95982 0
M  V30 2038 C 198.572 2.82424 -1.03233 0
M  V30 2039 C 200.12 2.96168 -1.01259 0
M  V30 2040 C 200.595 4.25084 -1.70492 0
M  V30 2041 N 202.086 4.31948 -1.67257 0
M  V30 2042 C 202.821 5.30466 -2.17701 0
M  V30 2043 N 202.317 6.35261 -2.76434 0
M  V30 2044 N 204.11 5.2212 -2.082 0
M  V30 2045 H 196.261 1.3689 -1.62403 0
M  V30 2046 H 198.524 0.657455 -0.682977 0
M  V30 2047 H 198.23 2.83053 -2.08744 0
M  V30 2048 H 198.104 3.72653 -0.583948 0
M  V30 2049 H 200.491 2.9508 0.0341235 0
M  V30 2050 H 200.572 2.07229 -1.49966 0
M  V30 2051 H 200.216 4.26932 -2.7512 0
M  V30 2052 H 200.146 5.1292 -1.19251 0
M  V30 2053 H 202.637 3.56838 -1.24398 0
M  V30 2054 H 202.95 7.06754 -3.12601 0
M  V30 2055 H 201.295 6.35884 -2.80495 0
M  V30 2056 H 204.486 4.39166 -1.62021 0
M  V30 2057 H 204.659 5.98739 -2.47822 0
M  V30 2058 N 198.065 0.39524 1.52563 0
M  V30 2059 C 199.342 -0.242908 1.94086 0
M  V30 2060 C 199.722 -1.63841 1.33114 0
M  V30 2061 O 199.07 -2.22928 0.501529 0
M  V30 2062 C 199.28 -0.26327 3.48006 0
M  V30 2063 C 200.628 -0.489354 4.21771 0
M  V30 2064 O 201.652 -0.343226 3.54543 0
M  V30 2065 O 200.511 -0.776169 5.4096 0
M  V30 2066 H 197.605 -0.152536 0.812811 0
M  V30 2067 H 200.151 0.450178 1.6362 0
M  V30 2068 H 198.923 0.713985 3.84731 0
M  V30 2069 H 198.546 -1.00103 3.84792 0
M  V30 2070 N 199.544 -1.57102 0.125237 0
M  V30 2071 C 200.792 -1.95021 -0.530198 0
M  V30 2072 C 201.113 -1.00982 -1.66816 0
M  V30 2073 O 200.383 -0.0672693 -1.95784 0
M  V30 2074 H 198.963 -0.720046 -0.198853 0
M  V30 2075 H 201.625 -1.93916 0.19564 0
M  V30 2076 H 200.721 -2.98211 -0.920681 0
M  V30 2077 N 201.022 0.148545 -1.56898 0
M  V30 2078 C 202.271 0.85984 -1.82454 0
M  V30 2079 C 202.584 1.82406 -0.706229 0
M  V30 2080 O 203.79 2.57938 -0.847349 0
M  V30 2081 C 202.246 1.57967 -3.2338 0
M  V30 2082 C 201.854 0.65794 -4.43142 0
M  V30 2083 C 203.598 2.27784 -3.58211 0
M  V30 2084 C 201.505 1.3793 -5.75091 0
M  V30 2085 H 200.435 0.324834 -0.68044 0
M  V30 2086 H 203.086 0.112588 -1.83154 0
M  V30 2087 H 201.468 2.37249 -3.17063 0
M  V30 2088 H 202.642 -0.0995497 -4.60692 0
M  V30 2089 H 200.957 0.0682643 -4.16344 0
M  V30 2090 H 203.554 2.8239 -4.54048 0
M  V30 2091 H 203.897 3.04204 -2.84193 0
M  V30 2092 H 204.43 1.55421 -3.66182 0
M  V30 2093 H 201.169 0.656982 -6.52199 0
M  V30 2094 H 200.689 2.10954 -5.61479 0
M  V30 2095 H 202.368 1.92063 -6.17835 0
M  V30 2096 N 202.5 1.5196 0.417844 0
M  V30 2097 C 203.463 1.74065 1.49111 0
M  V30 2098 C 204.463 0.610537 1.48758 0
M  V30 2099 O 205.653 0.87832 1.50437 0
M  V30 2100 C 202.785 1.81502 2.88565 0
M  V30 2101 H 203.978 2.69869 1.30807 0
M  V30 2102 H 201.531 1.42244 0.647785 0
M  V30 2103 H 202.266 0.875813 3.1225 0
M  V30 2104 H 202.051 2.63651 2.90225 0
M  V30 2105 H 203.541 2.00376 3.66387 0
M  V30 2106 N 203.978 -0.674533 1.42435 0
M  V30 2107 C 205.206 -1.46283 1.46317 0
M  V30 2108 C 205.621 -1.88653 0.0745836 0
M  V30 2109 O 204.978 -1.58151 -0.91074 0
M  V30 2110 C 205.029 -2.71178 2.3905 0
M  V30 2111 O 204.75 -2.30586 3.72507 0
M  V30 2112 C 206.251 -3.64738 2.51955 0
M  V30 2113 H 203.471 -0.450104 0.497642 0
M  V30 2114 H 206.015 -0.828792 1.86953 0
M  V30 2115 H 204.17 -3.3077 2.01667 0
M  V30 2116 H 204.584 -3.11241 4.22172 0
M  V30 2117 H 206.058 -4.49096 3.20962 0
M  V30 2118 H 206.535 -4.10656 1.55752 0
M  V30 2119 H 207.141 -3.11038 2.90061 0
M  V30 2120 N 205.456 -1.28612 -0.910864 0
M  V30 2121 C 206.872 -1.06381 -1.18976 0
M  V30 2122 C 207.072 0.191998 -2.00583 0
M  V30 2123 O 206.128 0.892869 -2.36187 0
M  V30 2124 C 207.441 -2.31295 -1.92154 0
M  V30 2125 C 208.989 -2.36503 -2.05025 0
M  V30 2126 C 209.464 -3.61191 -2.81612 0
M  V30 2127 N 210.955 -3.61847 -2.89172 0
M  V30 2128 C 211.69 -4.55004 -3.4894 0
M  V30 2129 N 211.186 -5.58482 -4.09963 0
M  V30 2130 N 212.979 -4.42594 -3.46506 0
M  V30 2131 H 205.13 -2.09221 -0.366094 0
M  V30 2132 H 207.393 -0.921003 -0.224629 0
M  V30 2133 H 207.099 -3.228 -1.39618 0
M  V30 2134 H 206.973 -2.37934 -2.9269 0
M  V30 2135 H 209.36 -1.45494 -2.5674 0
M  V30 2136 H 209.441 -2.33857 -1.03657 0
M  V30 2137 H 209.085 -4.52545 -2.30576 0
M  V30 2138 H 209.015 -3.61092 -3.83302 0
M  V30 2139 H 211.506 -2.87022 -2.45819 0
M  V30 2140 H 211.819 -6.25704 -4.53557 0
M  V30 2141 H 210.164 -5.62305 -4.08459 0
M  V30 2142 H 213.355 -3.60953 -2.98045 0
M  V30 2143 H 213.528 -5.15381 -3.92793 0
M  V30 2144 N 206.934 1.1197 -1.10907 0
M  V30 2145 C 208.162 1.87402 -0.876824 0
M  V30 2146 C 208.577 1.79894 0.573025 0
M  V30 2147 O 207.934 1.17629 1.39534 0
M  V30 2148 C 207.985 3.36428 -1.32282 0
M  V30 2149 O 207.706 3.43765 -2.71582 0
M  V30 2150 C 209.207 4.28783 -1.12518 0
M  V30 2151 H 206.427 0.592793 -0.314384 0
M  V30 2152 H 208.971 1.41649 -1.47499 0
M  V30 2153 H 207.126 3.79706 -0.768229 0
M  V30 2154 H 207.54 4.3652 -2.90776 0
M  V30 2155 H 209.014 5.31613 -1.48633 0
M  V30 2156 H 209.491 4.39153 -0.0642394 0
M  V30 2157 H 210.097 3.91291 -1.66648 0
M  V30 2158 N 208.412 0.89855 1.29475 0
M  V30 2159 C 209.66 0.522847 1.9522 0
M  V30 2160 C 209.981 -0.93371 1.71192 0
M  V30 2161 O 209.251 -1.65823 1.04305 0
M  V30 2162 H 207.831 0.190366 0.722336 0
M  V30 2163 H 210.493 1.14459 1.5775 0
M  V30 2164 H 209.589 0.704476 3.04045 0
M  V30 2165 N 209.89 -1.43072 0.660911 0
M  V30 2166 C 210.84 -2.27948 -0.04847 0
M  V30 2167 C 211.824 -1.40325 -0.787246 0
M  V30 2168 O 213.016 -1.63893 -0.668446 0
M  V30 2169 C 210.145 -3.28143 -1.00881 0
M  V30 2170 C 209.231 -4.23252 -0.268108 0
M  V30 2171 N 209.622 -5.00656 0.719528 0
M  V30 2172 C 207.92 -4.43092 -0.508493 0
M  V30 2173 C 208.621 -5.70019 1.15988 0
M  V30 2174 N 207.597 -5.41364 0.492584 0
M  V30 2175 H 211.399 -2.85213 0.709279 0
M  V30 2176 H 208.913 -1.54869 0.488822 0
M  V30 2177 H 210.91 -3.87736 -1.53188 0
M  V30 2178 H 209.57 -2.7244 -1.76654 0
M  V30 2179 H 210.581 -5.06115 1.09855 0
M  V30 2180 H 207.258 -3.98449 -1.24679 0
M  V30 2181 H 208.648 -6.4214 1.97751 0
M  V30 2182 N 211.368 -0.403325 -1.52352 0
M  V30 2183 C 212.298 0.416205 -2.29761 0
M  V30 2184 C 213.279 1.05123 -1.33728 0
M  V30 2185 O 214.464 1.06134 -1.62632 0
M  V30 2186 C 211.594 1.53624 -3.11475 0
M  V30 2187 C 210.548 1.02653 -4.15507 0
M  V30 2188 C 209.874 2.23971 -4.85532 0
M  V30 2189 C 211.174 0.08463 -5.22231 0
M  V30 2190 H 212.868 -0.229701 -2.98518 0
M  V30 2191 H 210.414 -0.111913 -1.43564 0
M  V30 2192 H 212.367 2.1165 -3.64393 0
M  V30 2193 H 211.091 2.20994 -2.40477 0
M  V30 2194 H 209.75 0.46871 -3.63591 0
M  V30 2195 H 209.398 2.89883 -4.11068 0
M  V30 2196 H 209.098 1.90521 -5.55856 0
M  V30 2197 H 210.622 2.82614 -5.41259 0
M  V30 2198 H 212.036 0.573509 -5.70424 0
M  V30 2199 H 210.433 -0.160783 -5.99885 0
M  V30 2200 H 211.503 -0.86237 -4.7717 0
M  V30 2201 N 212.846 1.57033 -0.133567 0
M  V30 2202 C 214.262 1.58035 0.222944 0
M  V30 2203 C 214.462 1.14713 1.6566 0
M  V30 2204 O 213.518 0.841218 2.38075 0
M  V30 2205 C 214.831 3.00691 -0.0236116 0
M  V30 2206 C 216.379 3.12973 0.0411512 0
M  V30 2207 C 216.854 4.57654 -0.177899 0
M  V30 2208 N 218.345 4.63033 -0.124365 0
M  V30 2209 C 219.08 5.72771 -0.268553 0
M  V30 2210 N 218.576 6.91206 -0.46972 0
M  V30 2211 N 220.369 5.61718 -0.2071 0
M  V30 2212 H 212.52 1.8349 -1.06981 0
M  V30 2213 H 214.783 0.848677 -0.422436 0
M  V30 2214 H 214.489 3.36726 -1.0153 0
M  V30 2215 H 214.363 3.70614 0.701808 0
M  V30 2216 H 216.75 2.76787 1.02338 0
M  V30 2217 H 216.831 2.45564 -0.716383 0
M  V30 2218 H 216.475 4.94542 -1.15717 0
M  V30 2219 H 216.405 5.23173 0.599797 0
M  V30 2220 H 218.896 3.7789 0.027011 0
M  V30 2221 H 219.209 7.70693 -0.570212 0
M  V30 2222 H 217.554 6.93156 -0.505876 0
M  V30 2223 H 220.745 4.68072 -0.0507986 0
M  V30 2224 H 220.918 6.47195 -0.322909 0
M  V30 2225 N 214.325 -0.140222 1.56975 0
M  V30 2226 C 215.736 -0.699596 1.73097 0
M  V30 2227 C 216.087 -1.8134 0.749022 0
M  V30 2228 O 215.212 -2.16241 -0.0828503 0
M  V30 2229 C 215.807 -1.27582 3.1386 0
M  V30 2230 C 214.366 -1.78169 3.31561 0
M  V30 2231 C 213.513 -0.672855 2.69013 0
M  V30 2232 H 216.464 0.0855115 1.58469 0
M  V30 2233 H 216.485 -2.14561 3.14235 0
M  V30 2234 H 215.997 -0.464955 3.85305 0
M  V30 2235 H 214.098 -2.61801 2.65124 0
M  V30 2236 H 214.211 -1.90574 4.39566 0
M  V30 2237 H 212.575 -1.10118 2.29665 0
M  V30 2238 H 213.358 0.126679 3.43066 0
M  V30 2239 N 215.803 -1.52179 -0.40978 0
M  V30 2240 C 216.713 -1.78364 -1.52392 0
M  V30 2241 C 217.729 -0.669183 -1.60617 0
M  V30 2242 O 218.905 -0.954518 -1.77344 0
M  V30 2243 C 215.97 -1.92822 -2.88133 0
M  V30 2244 C 215.031 -3.16725 -2.898 0
M  V30 2245 C 214.264 -3.30483 -4.19067 0
M  V30 2246 O 214.487 -2.49522 -5.12928 0
M  V30 2247 O 213.421 -4.2363 -4.27576 0
M  V30 2248 H 217.247 -2.72931 -1.33201 0
M  V30 2249 H 214.832 -1.37016 -0.59557 0
M  V30 2250 H 216.714 -2.04157 -3.68643 0
M  V30 2251 H 215.389 -1.01444 -3.07393 0
M  V30 2252 H 214.296 -3.10848 -2.08146 0
M  V30 2253 H 215.629 -4.07881 -2.75489 0
M  V30 2254 N 217.281 0.66697 -1.42791 0
M  V30 2255 C 218.558 1.4234 -1.34159 0
M  V30 2256 C 218.938 2.11093 0.0172729 0
M  V30 2257 O 218.286 2.03808 1.03318 0
M  V30 2258 C 218.496 2.41942 -2.51526 0
M  V30 2259 C 219.844 3.06353 -2.93995 0
M  V30 2260 O 220.868 2.52269 -2.51473 0
M  V30 2261 O 219.727 4.04376 -3.67617 0
M  V30 2262 H 216.821 0.635277 -0.529483 0
M  V30 2263 H 219.367 0.695034 -1.54814 0
M  V30 2264 H 218.139 1.89991 -3.42081 0
M  V30 2265 H 217.762 3.22249 -2.32898 0
M  V30 2266 N 218.759 1.29093 0.90403 0
M  V30 2267 C 219.722 1.1386 1.98919 0
M  V30 2268 C 220.722 0.0753457 1.60623 0
M  V30 2269 O 221.912 0.321931 1.71199 0
M  V30 2270 C 219.044 0.740198 3.32767 0
M  V30 2271 H 220.237 2.10246 2.13861 0
M  V30 2272 H 217.79 1.12218 1.08797 0
M  V30 2273 H 218.525 -0.223997 3.23525 0
M  V30 2274 H 218.31 1.50838 3.61926 0
M  V30 2275 H 219.8 0.656546 4.12407 0
M  V30 2276 N 220.237 -1.11381 1.11499 0
M  V30 2277 C 221.167 -2.19509 0.796125 0
M  V30 2278 C 222.148 -1.68458 -0.235796 0
M  V30 2279 O 223.333 -1.93947 -0.0991344 0
M  V30 2280 C 220.463 -3.46475 0.239205 0
M  V30 2281 C 219.417 -4.10744 1.20307 0
M  V30 2282 C 218.743 -5.32293 0.50683 0
M  V30 2283 C 220.043 -4.55597 2.55399 0
M  V30 2284 H 221.737 -2.46439 1.70024 0
M  V30 2285 H 219.283 -1.18446 0.818935 0
M  V30 2286 H 221.236 -4.214 0.00392006 0
M  V30 2287 H 219.96 -3.19006 -0.700206 0
M  V30 2288 H 218.619 -3.37813 1.42399 0
M  V30 2289 H 218.267 -5.01095 -0.437408 0
M  V30 2290 H 217.967 -5.76243 1.1497 0
M  V30 2291 H 219.491 -6.09956 0.280351 0
M  V30 2292 H 220.905 -5.21841 2.37391 0
M  V30 2293 H 219.302 -5.10363 3.15673 0
M  V30 2294 H 220.372 -3.69013 3.14575 0
M  V30 2295 N 221.715 -0.905404 -1.28997 0
M  V30 2296 C 222.992 -0.453513 -1.9027 0
M  V30 2297 C 223.372 1.06721 -1.82137 0
M  V30 2298 O 222.72 1.91159 -1.25182 0
M  V30 2299 C 222.93 -0.974494 -3.35119 0
M  V30 2300 C 224.278 -1.0216 -4.12127 0
M  V30 2301 O 225.302 -0.922557 -3.44046 0
M  V30 2302 O 224.161 -1.17121 -5.33802 0
M  V30 2303 H 221.255 -0.142347 -0.814657 0
M  V30 2304 H 223.801 -0.995642 -1.37423 0
M  V30 2305 H 222.573 -2.01848 -3.35221 0
M  V30 2306 H 222.196 -0.412706 -3.95452 0
M  V30 2307 N 223.193 1.4272 -0.668489 0
M  V30 2308 C 224.103 2.34596 0.0139753 0
M  V30 2309 C 225.119 1.5474 0.795703 0
M  V30 2310 O 226.295 1.87334 0.739466 0
M  V30 2311 C 223.36 3.33202 0.957982 0
M  V30 2312 C 222.421 4.28957 0.17149 0
M  V30 2313 C 221.654 5.22853 1.07053 0
M  V30 2314 O 221.877 5.21531 2.31001 0
M  V30 2315 O 220.811 5.9952 0.534727 0
M  V30 2316 H 224.637 2.9448 -0.742661 0
M  V30 2317 H 222.222 1.43117 -0.428705 0
M  V30 2318 H 224.104 3.93796 1.50008 0
M  V30 2319 H 222.779 2.758 1.69458 0
M  V30 2320 H 221.686 3.71796 -0.414558 0
M  V30 2321 H 223.019 4.89383 -0.52586 0
M  V30 2322 N 224.671 0.411399 1.52136 0
M  V30 2323 C 225.92 -0.165009 2.01024 0
M  V30 2324 C 226.233 -1.4603 1.30133 0
M  V30 2325 O 227.439 -2.1181 1.69849 0
M  V30 2326 C 225.895 -0.344618 3.58246 0
M  V30 2327 C 225.503 0.938716 4.38055 0
M  V30 2328 C 227.247 -0.876195 4.15359 0
M  V30 2329 C 225.154 0.726172 5.86925 0
M  V30 2330 H 224.084 -0.0654407 0.751155 0
M  V30 2331 H 226.735 0.537192 1.75461 0
M  V30 2332 H 225.117 -1.10921 3.80148 0
M  V30 2333 H 226.291 1.70963 4.27912 0
M  V30 2334 H 224.606 1.39688 3.92271 0
M  V30 2335 H 227.203 -1.05128 5.24263 0
M  V30 2336 H 227.546 -1.85152 3.7286 0
M  V30 2337 H 228.079 -0.170607 3.97434 0
M  V30 2338 H 224.818 1.67312 6.33788 0
M  V30 2339 H 224.338 -0.00540283 5.998 0
M  V30 2340 H 226.017 0.369231 6.45946 0
M  V30 2341 N 226.149 -1.5696 0.141893 0
M  V30 2342 C 227.395 -1.9625 -0.511248 0
M  V30 2343 C 227.728 -1.02654 -1.64851 0
M  V30 2344 O 227.003 -0.0679676 -1.94381 0
M  V30 2345 C 227.286 -3.45285 -1.02227 0
M  V30 2346 C 227.139 -4.49658 0.113138 0
M  V30 2347 C 228.458 -3.96698 -1.90574 0
M  V30 2348 H 225.577 -0.713567 -0.184367 0
M  V30 2349 H 228.219 -1.88698 0.222087 0
M  V30 2350 H 226.369 -3.51852 -1.64719 0
M  V30 2351 H 228.041 -4.55174 0.749302 0
M  V30 2352 H 226.284 -4.26857 0.773026 0
M  V30 2353 H 226.955 -5.51258 -0.286053 0
M  V30 2354 H 229.431 -3.92578 -1.37918 0
M  V30 2355 H 228.307 -5.01453 -2.2324 0
M  V30 2356 H 228.568 -3.3875 -2.84079 0
M  V30 2357 N 227.627 0.131896 -1.57047 0
M  V30 2358 C 229.043 0.485031 -1.52051 0
M  V30 2359 C 229.243 1.82563 -0.85281 0
M  V30 2360 O 228.299 2.48817 -0.429694 0
M  V30 2361 C 229.612 0.481409 -2.96821 0
M  V30 2362 C 231.16 0.565868 -3.07842 0
M  V30 2363 C 231.635 0.592762 -4.54148 0
M  V30 2364 N 233.126 0.654564 -4.58552 0
M  V30 2365 C 233.861 0.696608 -5.69153 0
M  V30 2366 N 233.357 0.697078 -6.89284 0
M  V30 2367 N 235.15 0.738639 -5.57226 0
M  V30 2368 H 227.301 -0.746664 -1.98843 0
M  V30 2369 H 229.564 -0.273999 -0.90754 0
M  V30 2370 H 229.27 -0.435731 -3.4899 0
M  V30 2371 H 229.144 1.3139 -3.53577 0
M  V30 2372 H 231.531 1.47343 -2.55684 0
M  V30 2373 H 231.612 -0.29406 -2.54104 0
M  V30 2374 H 231.256 -0.310701 -5.06949 0
M  V30 2375 H 231.186 1.46939 -5.05684 0
M  V30 2376 H 233.677 0.660887 -3.72076 0
M  V30 2377 H 233.99 0.731426 -7.69331 0
M  V30 2378 H 232.335 0.66471 -6.91814 0
M  V30 2379 H 235.526 0.735545 -4.62285 0
M  V30 2380 H 235.699 0.767938 -6.43434 0
M  V30 2381 N 229.106 1.52395 0.401703 0
M  V30 2382 C 230.353 1.66817 1.14796 0
M  V30 2383 C 230.681 0.401772 1.90305 0
M  V30 2384 O 229.936 -0.615487 1.85769 0
M  V30 2385 C 230.235 2.84578 2.16217 0
M  V30 2386 C 229.901 4.22513 1.5746 0
M  V30 2387 C 228.563 4.60029 1.41161 0
M  V30 2388 C 230.915 5.0844 1.14622 0
M  V30 2389 C 228.243 5.81144 0.80552 0
M  V30 2390 C 230.595 6.30167 0.55428 0
M  V30 2391 C 229.259 6.66426 0.378482 0
M  V30 2392 H 228.529 0.610428 0.420069 0
M  V30 2393 H 231.176 1.86512 0.434212 0
M  V30 2394 H 229.481 2.59248 2.93764 0
M  V30 2395 H 231.178 2.92933 2.73845 0
M  V30 2396 H 227.768 3.92953 1.71132 0
M  V30 2397 H 231.952 4.80034 1.26021 0
M  V30 2398 H 227.208 6.07855 0.657399 0
M  V30 2399 H 231.382 6.96071 0.213983 0
M  V30 2400 H 229.009 7.60143 -0.0932606 0
M  V30 2401 N 230.584 -0.659388 1.43143 0
M  V30 2402 C 231.831 -1.41935 1.44433 0
M  V30 2403 C 232.159 -1.94387 0.0663522 0
M  V30 2404 O 231.414 -1.72314 -0.927706 0
M  V30 2405 C 231.713 -2.62206 2.42864 0
M  V30 2406 C 231.379 -2.28208 3.88886 0
M  V30 2407 C 230.041 -2.18647 4.28657 0
M  V30 2408 C 232.393 -2.00887 4.8093 0
M  V30 2409 C 229.721 -1.79914 5.58433 0
M  V30 2410 C 232.073 -1.63653 6.11065 0
M  V30 2411 C 230.737 -1.52614 6.49819 0
M  V30 2412 H 230.007 -0.519376 0.528517 0
M  V30 2413 H 232.654 -0.750453 1.76183 0
M  V30 2414 H 230.959 -3.34199 2.04495 0
M  V30 2415 H 232.656 -3.2041 2.41119 0
M  V30 2416 H 229.246 -2.36557 3.57406 0
M  V30 2417 H 233.43 -2.07198 4.5098 0
M  V30 2418 H 228.686 -1.69948 5.87305 0
M  V30 2419 H 232.86 -1.41543 6.81864 0
M  V30 2420 H 230.487 -1.22371 7.50286 0
M  V30 2421 N 232.062 -1.29571 -0.897171 0
M  V30 2422 C 232.972 -1.16808 -2.03453 0
M  V30 2423 C 233.988 -0.0907471 -1.73763 0
M  V30 2424 O 235.164 -0.303312 -1.99103 0
M  V30 2425 C 232.229 -0.848264 -3.36163 0
M  V30 2426 C 231.29 -2.0097 -3.79354 0
M  V30 2427 C 230.523 -1.70505 -5.05731 0
M  V30 2428 O 230.746 -0.62718 -5.66941 0
M  V30 2429 O 229.68 -2.5538 -5.45036 0
M  V30 2430 H 233.506 -2.12325 -2.17144 0
M  V30 2431 H 231.091 -1.09047 -1.02123 0
M  V30 2432 H 232.973 -0.684581 -4.15802 0
M  V30 2433 H 231.648 0.0771071 -3.23608 0
M  V30 2434 H 230.555 -2.22863 -3.00471 0
M  V30 2435 H 231.888 -2.91636 -3.96496 0
M  V30 2436 N 233.54 1.10788 -1.12088 0
M  V30 2437 C 234.503 2.15207 -0.788577 0
M  V30 2438 C 235.503 1.59609 0.195317 0
M  V30 2439 O 236.693 1.74174 -0.0300193 0
M  V30 2440 C 233.825 3.4047 -0.171174 0
M  V30 2441 H 235.018 2.46116 -1.71368 0
M  V30 2442 H 232.571 1.26089 -0.923652 0
M  V30 2443 H 233.306 3.15176 0.763832 0
M  V30 2444 H 233.091 3.82109 -0.879514 0
M  V30 2445 H 234.581 4.17576 0.04496 0
M  V30 2446 N 235.018 0.912232 1.28515 0
M  V30 2447 C 236.434 0.610159 1.47476 0
M  V30 2448 C 236.634 -0.844955 1.82928 0
M  V30 2449 O 235.69 -1.62416 1.93332 0
M  V30 2450 C 237.003 1.54675 2.57868 0
M  V30 2451 C 238.551 1.55331 2.71738 0
M  V30 2452 C 239.026 2.47649 3.85272 0
M  V30 2453 N 240.517 2.45767 3.92623 0
M  V30 2454 C 241.252 3.13896 4.79851 0
M  V30 2455 N 240.748 3.9135 5.71679 0
M  V30 2456 N 242.541 3.02991 4.73448 0
M  V30 2457 H 234.692 1.85318 1.03783 0
M  V30 2458 H 236.955 0.794777 0.516753 0
M  V30 2459 H 236.661 2.5841 2.38574 0
M  V30 2460 H 236.535 1.27671 3.54937 0
M  V30 2461 H 238.922 0.52335 2.90422 0
M  V30 2462 H 239.003 1.86378 1.75205 0
M  V30 2463 H 238.647 3.50745 3.67342 0
M  V30 2464 H 238.577 2.13904 4.81199 0
M  V30 2465 H 241.068 1.89503 3.26951 0
M  V30 2466 H 241.381 4.40359 6.35062 0
M  V30 2467 H 239.726 3.95455 5.71524 0
M  V30 2468 H 242.917 2.41987 4.007 0
M  V30 2469 H 243.09 3.5636 5.41213 0
M  V30 2470 N 236.496 -1.42363 0.676048 0
M  V30 2471 C 237.742 -2.0182 0.199125 0
M  V30 2472 C 238.075 -1.53339 -1.19168 0
M  V30 2473 O 237.35 -0.736124 -1.80032 0
M  V30 2474 C 237.633 -3.59331 0.235144 0
M  V30 2475 C 237.486 -4.17989 1.66149 0
M  V30 2476 C 238.805 -4.3813 -0.41595 0
M  V30 2477 H 235.924 -0.733293 0.0738311 0
M  V30 2478 H 238.566 -1.69368 0.86107 0
M  V30 2479 H 236.716 -3.87109 -0.328487 0
M  V30 2480 H 238.388 -4.0116 2.27747 0
M  V30 2481 H 236.631 -3.7377 2.20178 0
M  V30 2482 H 237.302 -5.27126 1.63837 0
M  V30 2483 H 239.778 -4.16051 0.0638529 0
M  V30 2484 H 238.654 -5.47717 -0.360115 0
M  V30 2485 H 238.915 -4.16101 -1.49373 0
M  V30 2486 N 237.974 -0.419461 -1.51915 0
M  V30 2487 C 239.199 0.154572 -2.06823 0
M  V30 2488 C 239.624 1.3722 -1.28656 0
M  V30 2489 O 238.982 1.78461 -0.319583 0
M  V30 2490 C 239.03 0.473172 -3.57482 0
M  V30 2491 O 238.134 1.56255 -3.81652 0
M  V30 2492 H 237.475 0.0096924 -0.663929 0
M  V30 2493 H 240.005 -0.595642 -1.95738 0
M  V30 2494 H 240.015 0.728825 -4.01438 0
M  V30 2495 H 238.69 -0.416873 -4.13805 0
M  V30 2496 H 237.267 1.29825 -3.49571 0
M  V30 2497 N 239.452 1.56882 -0.150215 0
M  V30 2498 C 240.415 2.1573 0.774157 0
M  V30 2499 C 241.415 1.0999 1.17298 0
M  V30 2500 O 242.605 1.35613 1.09338 0
M  V30 2501 C 239.737 2.72302 2.05096 0
M  V30 2502 H 240.93 2.98752 0.262201 0
M  V30 2503 H 238.483 1.55985 0.099248 0
M  V30 2504 H 239.218 1.92956 2.6065 0
M  V30 2505 H 239.003 3.49665 1.77416 0
M  V30 2506 H 240.493 3.17632 2.71109 0
M  V30 2507 N 240.93 -0.123565 1.57115 0
M  V30 2508 C 241.86 -1.15309 2.03042 0
M  V30 2509 C 242.841 -1.43454 0.914061 0
M  V30 2510 O 244.026 -1.53973 1.18347 0
M  V30 2511 C 241.156 -2.48043 2.43089 0
M  V30 2512 C 240.11 -2.3437 3.58127 0
M  V30 2513 C 239.436 -3.72026 3.84059 0
M  V30 2514 C 240.736 -1.80804 4.90007 0
M  V30 2515 H 242.43 -0.771102 2.893 0
M  V30 2516 H 239.976 -0.369479 1.39179 0
M  V30 2517 H 241.929 -3.20311 2.73823 0
M  V30 2518 H 240.653 -2.88122 1.53796 0
M  V30 2519 H 239.312 -1.64551 3.27595 0
M  V30 2520 H 238.96 -4.09582 2.91979 0
M  V30 2521 H 238.66 -3.63732 4.6149 0
M  V30 2522 H 240.184 -4.45806 4.1724 0
M  V30 2523 H 241.598 -2.42886 5.19307 0
M  V30 2524 H 239.995 -1.83343 5.71407 0
M  V30 2525 H 241.065 -0.76528 4.78823 0
M  V30 2526 N 242.408 -1.52605 -0.393616 0
M  V30 2527 C 243.824 -1.41753 -0.733357 0
M  V30 2528 C 244.024 -0.534293 -1.94287 0
M  V30 2529 O 243.08 -0.0059787 -2.52499 0
M  V30 2530 C 244.393 -2.84531 -0.972772 0
M  V30 2531 C 245.941 -2.93978 -1.07453 0
M  V30 2532 C 246.416 -4.37756 -1.3466 0
M  V30 2533 N 247.907 -4.4106 -1.41492 0
M  V30 2534 C 248.642 -5.49387 -1.642 0
M  V30 2535 N 248.138 -6.67806 -1.8441 0
M  V30 2536 N 249.931 -5.36923 -1.66342 0
M  V30 2537 H 242.082 -2.08555 0.402328 0
M  V30 2538 H 244.345 -0.940654 0.117789 0
M  V30 2539 H 244.051 -3.51353 -0.156204 0
M  V30 2540 H 243.925 -3.26508 -1.88871 0
M  V30 2541 H 246.312 -2.27326 -1.88167 0
M  V30 2542 H 246.393 -2.55435 -0.136605 0
M  V30 2543 H 246.037 -5.04972 -0.544581 0
M  V30 2544 H 245.967 -4.73848 -2.2973 0
M  V30 2545 H 248.458 -3.55705 -1.27601 0
M  V30 2546 H 248.771 -7.46141 -2.01231 0
M  V30 2547 H 247.116 -6.70843 -1.81644 0
M  V30 2548 H 250.307 -4.43381 -1.50102 0
M  V30 2549 H 250.48 -6.21416 -1.837 0
M  V30 2550 N 243.887 0.651787 -1.4349 0
M  V30 2551 C 245.303 0.96762 -1.26922 0
M  V30 2552 C 245.503 2.00602 -0.189982 0
M  V30 2553 O 244.559 2.48793 0.431107 0
M  V30 2554 C 245.872 1.45052 -2.63401 0
M  V30 2555 C 247.42 1.5671 -2.70945 0
M  V30 2556 C 247.895 2.0839 -4.07845 0
M  V30 2557 N 249.386 2.1569 -4.09917 0
M  V30 2558 C 250.121 2.56804 -5.12679 0
M  V30 2559 N 249.617 2.97203 -6.25813 0
M  V30 2560 N 251.41 2.56756 -5.00033 0
M  V30 2561 H 243.561 -0.0353158 -2.12371 0
M  V30 2562 H 245.824 0.0467858 -0.946845 0
M  V30 2563 H 245.53 0.761926 -3.43348 0
M  V30 2564 H 245.404 2.42529 -2.88894 0
M  V30 2565 H 247.791 2.2467 -1.9133 0
M  V30 2566 H 247.872 0.57662 -2.49216 0
M  V30 2567 H 247.516 1.41031 -4.87927 0
M  V30 2568 H 247.446 3.08271 -4.26938 0
M  V30 2569 H 249.937 1.87237 -3.28254 0
M  V30 2570 H 250.25 3.27328 -7.00055 0
M  V30 2571 H 248.595 2.95004 -6.29283 0
M  V30 2572 H 251.786 2.24572 -4.10713 0
M  V30 2573 H 251.959 2.88475 -5.80247 0
M  V30 2574 N 245.365 1.30045 0.890287 0
M  V30 2575 C 246.59 1.21598 1.68014 0
M  V30 2576 C 247.015 -0.218678 1.86825 0
M  V30 2577 O 246.373 -1.15756 1.39536 0
M  V30 2578 C 246.421 1.94434 3.03691 0
M  V30 2579 O 245.525 1.2678 3.92429 0
M  V30 2580 H 244.866 0.420856 0.513592 0
M  V30 2581 H 247.396 1.71775 1.11151 0
M  V30 2582 H 247.406 2.03251 3.5377 0
M  V30 2583 H 246.081 2.98777 2.89318 0
M  V30 2584 H 244.658 1.26282 3.50866 0
M  V30 2585 N 246.843 -1.10192 1.12674 0
M  V30 2586 C 248.091 -1.81845 0.881861 0
M  V30 2587 C 248.412 -1.85737 -0.593867 0
M  V30 2588 O 247.682 -1.33724 -1.4316 0
M  V30 2589 H 246.262 -0.673432 0.323261 0
M  V30 2590 H 248.924 -1.33316 1.42172 0
M  V30 2591 H 248.02 -2.85288 1.2656 0
M  V30 2592 N 248.321 -0.919034 -1.28029 0
M  V30 2593 C 249.567 -0.555757 -1.95036 0
M  V30 2594 C 249.9 0.899198 -1.72128 0
M  V30 2595 O 249.175 1.64023 -1.04531 0
M  V30 2596 C 249.458 -0.872024 -3.49382 0
M  V30 2597 C 249.311 -2.3801 -3.81669 0
M  V30 2598 C 250.63 -0.37185 -4.38526 0
M  V30 2599 H 247.749 -0.203386 -0.708381 0
M  V30 2600 H 250.391 -1.14924 -1.51303 0
M  V30 2601 H 248.541 -0.366946 -3.86763 0
M  V30 2602 H 250.213 -2.9562 -3.54128 0
M  V30 2603 H 248.456 -2.83289 -3.28526 0
M  V30 2604 H 249.127 -2.55192 -4.8947 0
M  V30 2605 H 251.603 -0.804602 -4.08247 0
M  V30 2606 H 250.479 -0.622173 -5.45362 0
M  V30 2607 H 250.74 0.727934 -4.36066 0
M  V30 2608 N 249.799 1.42003 -0.683588 0
M  V30 2609 C 250.762 2.29191 -0.0198243 0
M  V30 2610 C 251.762 1.43773 0.72013 0
M  V30 2611 O 252.952 1.65061 0.556815 0
M  V30 2612 C 250.084 3.26435 0.982487 0
M  V30 2613 H 251.277 2.8938 -0.787345 0
M  V30 2614 H 248.83 1.49789 -0.446418 0
M  V30 2615 H 249.565 2.71203 1.77819 0
M  V30 2616 H 249.35 3.89449 0.455182 0
M  V30 2617 H 250.84 3.918 1.44508 0
M  V30 2618 N 251.277 0.427512 1.51691 0
M  V30 2619 C 252.24 -0.377132 2.26076 0
M  V30 2620 C 253.24 -0.958089 1.29141 0
M  V30 2621 O 254.43 -0.83408 1.52934 0
M  V30 2622 C 251.562 -1.53262 3.04506 0
M  V30 2623 H 252.755 0.27464 2.9864 0
M  V30 2624 H 250.308 0.180445 1.55255 0
M  V30 2625 H 251.043 -2.22072 2.36335 0
M  V30 2626 H 250.828 -1.12232 3.75694 0
M  V30 2627 H 252.318 -2.10135 3.60878 0
M  V30 2628 N 252.755 -1.56801 0.158532 0
M  V30 2629 C 254.032 -1.88131 -0.535357 0
M  V30 2630 C 254.412 -1.06638 -1.82186 0
M  V30 2631 O 253.76 -0.156533 -2.27963 0
M  V30 2632 C 253.97 -3.39949 -0.789653 0
M  V30 2633 C 255.318 -4.09416 -1.12533 0
M  V30 2634 O 256.342 -3.45194 -0.878622 0
M  V30 2635 O 255.201 -5.22855 -1.59014 0
M  V30 2636 H 252.295 -0.780143 -0.27442 0
M  V30 2637 H 254.841 -1.68564 0.19601 0
M  V30 2638 H 253.613 -3.91115 0.120353 0
M  V30 2639 H 253.236 -3.65084 -1.57479 0
M  V30 2640 N 254.233 0.115231 -1.57178 0
M  V30 2641 C 255.649 0.468877 -1.52557 0
M  V30 2642 C 255.849 1.81649 -0.872125 0
M  V30 2643 O 254.905 2.48347 -0.45606 0
M  V30 2644 C 256.218 0.4499 -2.97315 0
M  V30 2645 C 257.766 0.533185 -3.08425 0
M  V30 2646 C 258.241 0.54456 -4.54751 0
M  V30 2647 N 259.732 0.605892 -4.5922 0
M  V30 2648 C 260.467 0.636203 -5.6986 0
M  V30 2649 N 259.963 0.623931 -6.89985 0
M  V30 2650 N 261.756 0.679496 -5.57978 0
M  V30 2651 H 253.907 -0.767712 -1.9804 0
M  V30 2652 H 256.17 -0.283609 -0.904583 0
M  V30 2653 H 255.876 -0.472721 -3.48509 0
M  V30 2654 H 255.75 1.27632 -3.5495 0
M  V30 2655 H 258.137 1.44623 -2.57232 0
M  V30 2656 H 258.218 -0.320995 -2.53778 0
M  V30 2657 H 257.862 -0.364452 -5.06591 0
M  V30 2658 H 257.792 1.41568 -5.07214 0
M  V30 2659 H 260.283 0.621386 -3.72756 0
M  V30 2660 H 260.596 0.649787 -7.70063 0
M  V30 2661 H 258.941 0.591296 -6.9248 0
M  V30 2662 H 262.132 0.686472 -4.63039 0
M  V30 2663 H 262.305 0.69965 -6.44212 0
M  V30 2664 N 255.711 1.52812 0.385517 0
M  V30 2665 C 256.641 1.80808 1.47752 0
M  V30 2666 C 257.622 0.660318 1.5676 0
M  V30 2667 O 258.807 0.908246 1.71652 0
M  V30 2668 C 255.937 1.98008 2.85324 0
M  V30 2669 C 254.891 3.13709 2.91154 0
M  V30 2670 C 254.217 3.16169 4.31209 0
M  V30 2671 C 255.517 4.52709 2.60483 0
M  V30 2672 H 257.211 2.72253 1.24573 0
M  V30 2673 H 254.757 1.31003 0.597839 0
M  V30 2674 H 256.71 2.16176 3.61726 0
M  V30 2675 H 255.434 1.03255 3.09848 0
M  V30 2676 H 254.093 2.95329 2.17201 0
M  V30 2677 H 253.741 2.19092 4.52778 0
M  V30 2678 H 253.441 3.93894 4.36029 0
M  V30 2679 H 254.965 3.36496 5.09512 0
M  V30 2680 H 256.379 4.71173 3.26602 0
M  V30 2681 H 254.776 5.32528 2.76648 0
M  V30 2682 H 255.846 4.59186 1.55809 0
M  V30 2683 N 257.189 -0.644168 1.43834 0
M  V30 2684 C 258.438 -1.39985 1.45214 0
M  V30 2685 C 258.751 -1.95421 0.0835494 0
M  V30 2686 O 259.957 -2.71488 -0.0251748 0
M  V30 2687 C 258.413 -2.53384 2.55587 0
M  V30 2688 C 258.021 -2.04517 3.98594 0
M  V30 2689 C 259.765 -3.30685 2.66172 0
M  V30 2690 C 257.672 -3.1518 5.00416 0
M  V30 2691 H 256.602 -0.526005 0.540218 0
M  V30 2692 H 259.253 -0.694367 1.69855 0
M  V30 2693 H 257.635 -3.26446 2.24163 0
M  V30 2694 H 258.809 -1.38405 4.39523 0
M  V30 2695 H 257.124 -1.40068 3.92135 0
M  V30 2696 H 259.721 -4.13158 3.39418 0
M  V30 2697 H 260.064 -3.79312 1.71546 0
M  V30 2698 H 260.597 -2.64708 2.96942 0
M  V30 2699 H 257.336 -2.71511 5.96625 0
M  V30 2700 H 256.856 -3.79974 4.64091 0
M  V30 2701 H 258.535 -3.80166 5.23529 0
M  V30 2702 N 258.668 -1.30515 -0.883378 0
M  V30 2703 C 259.598 -1.19607 -2.00541 0
M  V30 2704 C 260.579 -0.086346 -1.69881 0
M  V30 2705 O 261.764 -0.268654 -1.92333 0
M  V30 2706 C 258.894 -0.888758 -3.35736 0
M  V30 2707 C 257.848 -1.95659 -3.8066 0
M  V30 2708 C 257.174 -1.50224 -5.13164 0
M  V30 2709 C 258.474 -3.36788 -3.99213 0
M  V30 2710 H 260.168 -2.13476 -2.09925 0
M  V30 2711 H 257.714 -1.02775 -1.00863 0
M  V30 2712 H 259.667 -0.799094 -4.13754 0
M  V30 2713 H 258.391 0.0856125 -3.26488 0
M  V30 2714 H 257.05 -2.03591 -3.04871 0
M  V30 2715 H 256.698 -0.516092 -5.00345 0
M  V30 2716 H 256.398 -2.2165 -5.44192 0
M  V30 2717 H 257.922 -1.42639 -5.93706 0
M  V30 2718 H 259.336 -3.31605 -4.67665 0
M  V30 2719 H 257.733 -4.06314 -4.41621 0
M  V30 2720 H 258.803 -3.78561 -3.03017 0
M  V30 2721 N 260.146 1.09593 -1.13257 0
M  V30 2722 C 261.423 1.78293 -0.804432 0
M  V30 2723 C 261.803 1.99004 0.70431 0
M  V30 2724 O 261.151 1.59007 1.641 0
M  V30 2725 C 261.361 3.10707 -1.5894 0
M  V30 2726 C 262.709 3.85443 -1.78099 0
M  V30 2727 O 263.733 3.20454 -1.55525 0
M  V30 2728 O 262.592 5.02108 -2.15753 0
M  V30 2729 H 259.686 0.773156 -0.293528 0
M  V30 2730 H 262.232 1.16164 -1.23709 0
M  V30 2731 H 261.004 2.91106 -2.61482 0
M  V30 2732 H 260.627 3.80558 -1.15157 0
M  V30 2733 N 261.624 0.925811 1.2754 0
M  V30 2734 C 263.035 0.610102 1.7645 0
M  V30 2735 C 263.386 -0.874723 1.75622 0
M  V30 2736 O 262.511 -1.68444 1.35851 0
M  V30 2737 C 263.106 1.10073 3.20421 0
M  V30 2738 C 261.665 0.835723 3.67005 0
M  V30 2739 C 260.812 1.26054 2.46993 0
M  V30 2740 H 263.763 1.10579 1.13833 0
M  V30 2741 H 263.784 0.447557 3.77859 0
M  V30 2742 H 263.296 2.18143 3.20991 0
M  V30 2743 H 261.397 -0.231249 3.71882 0
M  V30 2744 H 261.51 1.45193 4.56569 0
M  V30 2745 H 259.874 0.679111 2.45479 0
M  V30 2746 H 260.657 2.34984 2.50275 0
M  V30 2747 N 263.102 -1.41638 0.69111 0
M  V30 2748 C 264.35 -2.00902 0.219758 0
M  V30 2749 C 264.671 -1.54994 -1.18329 0
M  V30 2750 O 263.941 -0.778628 -1.79762 0
M  V30 2751 H 262.521 -0.74289 0.0782558 0
M  V30 2752 H 265.183 -1.73327 0.891271 0
M  V30 2753 H 264.279 -3.11224 0.233708 0
M  V30 2754 N 264.58 -0.43555 -1.51462 0
M  V30 2755 C 265.513 0.421989 -2.24264 0
M  V30 2756 C 266.491 1.02619 -1.26127 0
M  V30 2757 O 267.675 1.069 -1.55257 0
M  V30 2758 C 264.802 1.588 -2.99166 0
M  V30 2759 C 263.848 1.10465 -4.11946 0
M  V30 2760 S 264.681 0.048146 -5.35478 0
M  V30 2761 C 265.837 1.21887 -6.13917 0
M  V30 2762 H 266.07 -0.196102 -2.96653 0
M  V30 2763 H 263.603 -0.220054 -1.52824 0
M  V30 2764 H 265.561 2.25647 -3.42919 0
M  V30 2765 H 264.222 2.1775 -2.26371 0
M  V30 2766 H 263.415 1.97654 -4.63626 0
M  V30 2767 H 263.017 0.51445 -3.70445 0
M  V30 2768 H 265.309 2.13756 -6.42895 0
M  V30 2769 H 266.252 0.742076 -7.04201 0
M  V30 2770 H 266.66 1.45663 -5.45383 0
M  V30 2771 N 266.058 1.56714 -0.166846 0
M  V30 2772 C 267.306 1.96358 0.478305 0
M  V30 2773 C 267.627 1.0537 1.6408 0
M  V30 2774 O 266.897 0.119154 1.95537 0
M  V30 2775 H 265.477 0.725065 0.179692 0
M  V30 2776 H 268.139 1.93329 -0.246985 0
M  V30 2777 H 267.235 3.00547 0.841292 0
M  V30 2778 N 267.536 -0.106894 1.57237 0
M  V30 2779 C 268.783 -0.812526 1.85484 0
M  V30 2780 C 269.111 -1.79304 0.753687 0
M  V30 2781 O 268.366 -1.94047 -0.253853 0
M  V30 2782 C 268.665 -1.58628 3.20268 0
M  V30 2783 C 268.331 -0.748967 4.44636 0
M  V30 2784 C 266.993 -0.518104 4.78403 0
M  V30 2785 C 269.345 -0.166122 5.20935 0
M  V30 2786 C 266.673 0.305659 5.85903 0
M  V30 2787 C 269.025 0.644899 6.29304 0
M  V30 2788 C 267.689 0.885965 6.61594 0
M  V30 2789 H 266.959 -0.297324 0.678734 0
M  V30 2790 H 269.606 -0.0744332 1.91355 0
M  V30 2791 H 267.911 -2.39562 3.10028 0
M  V30 2792 H 269.608 -2.13643 3.39349 0
M  V30 2793 H 266.198 -0.939006 4.18187 0
M  V30 2794 H 270.382 -0.33167 4.95191 0
M  V30 2795 H 265.638 0.501528 6.0934 0
M  V30 2796 H 269.812 1.10345 6.87602 0
M  V30 2797 H 267.439 1.52609 7.44725 0
M  V30 2798 N 269.014 -1.53014 -0.377408 0
M  V30 2799 C 270.261 -1.68623 -1.12128 0
M  V30 2800 C 270.589 -0.431997 -1.89642 0
M  V30 2801 O 269.844 0.585855 -1.86725 0
M  V30 2802 C 270.143 -2.87982 -2.11663 0
M  V30 2803 C 269.809 -4.24964 -1.50719 0
M  V30 2804 C 268.471 -4.62217 -1.33825 0
M  V30 2805 C 270.823 -5.10199 -1.06519 0
M  V30 2806 C 268.151 -5.82352 -0.712963 0
M  V30 2807 C 270.503 -6.30969 -0.453955 0
M  V30 2808 C 269.167 -6.66944 -0.272411 0
M  V30 2809 H 268.437 -0.617034 -0.410305 0
M  V30 2810 H 271.084 -1.8718 -0.404484 0
M  V30 2811 H 269.389 -2.63889 -2.89603 0
M  V30 2812 H 271.086 -2.97253 -2.6915 0
M  V30 2813 H 267.676 -3.95626 -1.64858 0
M  V30 2814 H 271.86 -4.81978 -1.18368 0
M  V30 2815 H 267.116 -6.08824 -0.560611 0
M  V30 2816 H 271.29 -6.96324 -0.103217 0
M  V30 2817 H 268.917 -7.59898 0.214181 0
M  V30 2818 N 270.492 0.636531 -1.44174 0
M  V30 2819 C 271.422 1.76003 -1.53444 0
M  V30 2820 C 272.403 1.65619 -0.387841 0
M  V30 2821 O 273.588 1.84461 -0.607257 0
M  V30 2822 C 270.718 3.14511 -1.4731 0
M  V30 2823 C 269.672 3.39677 -2.60391 0
M  V30 2824 C 268.998 4.78159 -2.39308 0
M  V30 2825 C 270.298 3.32772 -4.02567 0
M  V30 2826 H 271.992 1.68501 -2.47483 0
M  V30 2827 H 269.538 0.809237 -1.19111 0
M  V30 2828 H 271.491 3.92878 -1.52397 0
M  V30 2829 H 270.215 3.22783 -0.49785 0
M  V30 2830 H 268.874 2.63688 -2.54684 0
M  V30 2831 H 268.522 4.83128 -1.39988 0
M  V30 2832 H 268.222 4.95956 -3.15122 0
M  V30 2833 H 269.746 5.58762 -2.46205 0
M  V30 2834 H 271.16 4.01051 -4.09672 0
M  V30 2835 H 269.557 3.62104 -4.7854 0
M  V30 2836 H 270.627 2.30669 -4.2652 0
M  V30 2837 N 271.97 1.30982 0.876444 0
M  V30 2838 C 273.195 1.23373 1.66715 0
M  V30 2839 C 273.62 -0.19885 1.87046 0
M  V30 2840 O 272.978 -1.1427 1.40756 0
M  V30 2841 C 273.026 1.97644 3.01611 0
M  V30 2842 O 272.13 1.30935 3.91062 0
M  V30 2843 H 271.471 0.426279 0.509099 0
M  V30 2844 H 274.001 1.72944 1.09323 0
M  V30 2845 H 274.011 2.06992 3.51594 0
M  V30 2846 H 272.686 3.01829 2.86133 0
M  V30 2847 H 271.263 1.29996 3.49507 0
M  V30 2848 N 273.449 -1.08991 1.13837 0
M  V30 2849 C 274.86 -1.62746 0.914917 0
M  V30 2850 C 275.211 -1.88403 -0.547594 0
M  V30 2851 O 274.336 -1.63706 -1.41525 0
M  V30 2852 C 274.931 -2.95662 1.65437 0
M  V30 2853 C 273.49 -3.46225 1.47666 0
M  V30 2854 C 272.637 -2.20562 1.6807 0
M  V30 2855 H 275.588 -0.922946 1.29102 0
M  V30 2856 H 275.609 -3.63825 1.11407 0
M  V30 2857 H 275.121 -2.76956 2.71877 0
M  V30 2858 H 273.222 -3.70046 0.435478 0
M  V30 2859 H 273.335 -4.23368 2.24268 0
M  V30 2860 H 271.699 -2.29439 1.10589 0
M  V30 2861 H 272.482 -2.0437 2.7584 0
M  V30 2862 N 274.927 -0.932562 -1.27047 0
M  V30 2863 C 275.89 -0.440064 -2.24936 0
M  V30 2864 C 276.89 0.444071 -1.54547 0
M  V30 2865 O 278.08 0.244465 -1.72476 0
M  V30 2866 C 275.212 0.36678 -3.38921 0
M  V30 2867 H 276.405 -1.305 -2.70018 0
M  V30 2868 H 273.958 -0.713707 -1.39054 0
M  V30 2869 H 274.693 1.25033 -2.99228 0
M  V30 2870 H 274.478 -0.267204 -3.91188 0
M  V30 2871 H 275.968 0.701567 -4.11665 0
M  V30 2872 N 276.405 1.4127 -0.698611 0
M  V30 2873 C 277.816 1.84187 -0.305289 0
M  V30 2874 C 278.167 1.58449 1.15708 0
M  V30 2875 O 277.292 1.05651 1.88856 0
M  V30 2876 C 277.887 3.3435 -0.547314 0
M  V30 2877 C 276.446 3.75826 -0.207878 0
M  V30 2878 C 275.593 2.64647 -0.828099 0
M  V30 2879 H 278.544 1.30778 -0.89904 0
M  V30 2880 H 278.565 3.8001 0.192998 0
M  V30 2881 H 278.077 3.53051 -1.61172 0
M  V30 2882 H 276.178 3.62725 0.852143 0
M  V30 2883 H 276.291 4.74462 -0.665021 0
M  V30 2884 H 274.655 2.53395 -0.257458 0
M  V30 2885 H 275.438 2.86165 -1.89643 0
M  V30 2886 N 277.883 0.443576 1.51229 0
M  V30 2887 C 278.793 -0.370721 2.31652 0
M  V30 2888 C 279.809 -1.02186 1.40833 0
M  V30 2889 O 280.985 -1.01586 1.73903 0
M  V30 2890 C 278.05 -1.45376 3.14749 0
M  V30 2891 C 277.111 -0.822099 4.21355 0
M  V30 2892 C 276.344 -1.85353 5.0048 0
M  V30 2893 O 276.567 -3.07656 4.80316 0
M  V30 2894 O 275.501 -1.4406 5.84406 0
M  V30 2895 H 279.327 0.286002 3.0235 0
M  V30 2896 H 276.912 0.20598 1.47973 0
M  V30 2897 H 278.794 -2.08173 3.66391 0
M  V30 2898 H 277.469 -2.09445 2.46809 0
M  V30 2899 H 276.376 -0.155909 3.73775 0
M  V30 2900 H 277.709 -0.224797 4.91686 0
M  V30 2901 N 279.361 -1.56624 0.175154 0
M  V30 2902 C 280.589 -2.01374 -0.474971 0
M  V30 2903 C 281.004 -1.05537 -1.56548 0
M  V30 2904 O 280.361 -0.0568668 -1.82411 0
M  V30 2905 C 280.412 -3.45923 -1.04975 0
M  V30 2906 O 280.133 -4.381 -0.00276605 0
M  V30 2907 C 281.634 -4.06093 -1.77773 0
M  V30 2908 H 278.854 -0.659962 -0.121206 0
M  V30 2909 H 281.398 -2.02601 0.27801 0
M  V30 2910 H 279.553 -3.45458 -1.75321 0
M  V30 2911 H 279.967 -5.22753 -0.427681 0
M  V30 2912 H 281.441 -5.09147 -2.13245 0
M  V30 2913 H 281.918 -3.48405 -2.67414 0
M  V30 2914 H 282.524 -4.10272 -1.12059 0
M  V30 2915 N 280.839 0.0985539 -1.57292 0
M  V30 2916 C 282.064 0.820196 -1.90493 0
M  V30 2917 C 282.489 1.71658 -0.769094 0
M  V30 2918 O 281.847 1.79133 0.279495 0
M  V30 2919 C 281.895 1.61242 -3.22542 0
M  V30 2920 O 280.999 2.72108 -3.09888 0
M  V30 2921 H 280.34 0.225547 -0.62452 0
M  V30 2922 H 282.87 0.0748159 -2.04463 0
M  V30 2923 H 282.88 1.99737 -3.55766 0
M  V30 2924 H 281.555 0.954535 -4.04798 0
M  V30 2925 H 280.132 2.36667 -2.88172 0
M  V30 2926 N 282.317 1.53212 0.369288 0
M  V30 2927 C 283.247 1.82365 1.45826 0
M  V30 2928 C 284.228 0.676907 1.56051 0
M  V30 2929 O 285.413 0.926401 1.70679 0
M  V30 2930 C 282.543 2.01023 2.83208 0
M  V30 2931 C 281.497 3.1678 2.8781 0
M  V30 2932 C 280.823 3.20724 4.27832 0
M  V30 2933 C 282.123 4.55447 2.55667 0
M  V30 2934 H 283.817 2.73559 1.21678 0
M  V30 2935 H 281.363 1.3163 0.583911 0
M  V30 2936 H 283.316 2.20001 3.59413 0
M  V30 2937 H 282.04 1.06536 3.08736 0
M  V30 2938 H 280.699 2.97616 2.14056 0
M  V30 2939 H 280.347 2.23882 4.50429 0
M  V30 2940 H 280.047 3.98496 4.31827 0
M  V30 2941 H 281.571 3.41881 5.05915 0
M  V30 2942 H 282.985 4.74611 3.21586 0
M  V30 2943 H 281.382 5.35432 2.70984 0
M  V30 2944 H 282.452 4.60812 1.5093 0
M  V30 2945 N 283.795 -0.628877 1.44509 0
M  V30 2946 C 284.745 -1.7345 1.47983 0
M  V30 2947 C 285.729 -1.5715 0.345373 0
M  V30 2948 O 286.921 -1.66848 0.590829 0
M  V30 2949 C 284.05 -3.12143 1.42904 0
M  V30 2950 C 283.136 -3.33906 2.61472 0
M  V30 2951 N 283.527 -3.26024 3.86706 0
M  V30 2952 C 281.825 -3.64709 2.56716 0
M  V30 2953 C 282.526 -3.48536 4.65722 0
M  V30 2954 N 281.502 -3.71517 3.96832 0
M  V30 2955 H 285.304 -1.65818 2.42655 0
M  V30 2956 H 282.818 -0.831419 1.39503 0
M  V30 2957 H 284.815 -3.91433 1.43476 0
M  V30 2958 H 283.475 -3.2094 0.492717 0
M  V30 2959 H 284.486 -3.04893 4.18641 0
M  V30 2960 H 281.163 -3.80473 1.71891 0
M  V30 2961 H 282.553 -3.48016 5.74747 0
M  V30 2962 N 285.273 -1.31445 -0.869486 0
M  V30 2963 C 286.519 -1.21337 -1.62496 0
M  V30 2964 C 286.852 0.227872 -1.92858 0
M  V30 2965 O 286.127 1.16094 -1.56053 0
M  V30 2966 C 286.41 -2.05814 -2.95487 0
M  V30 2967 C 286.263 -3.5824 -2.72 0
M  V30 2968 C 287.582 -1.9079 -3.96594 0
M  V30 2969 H 284.701 -0.442135 -0.589649 0
M  V30 2970 H 287.343 -1.6124 -1.00507 0
M  V30 2971 H 285.493 -1.71913 -3.48394 0
M  V30 2972 H 287.165 -4.0228 -2.25762 0
M  V30 2973 H 285.408 -3.81647 -2.06224 0
M  V30 2974 H 286.079 -4.12657 -3.66631 0
M  V30 2975 H 288.555 -2.20459 -3.52898 0
M  V30 2976 H 287.431 -2.52199 -4.87531 0
M  V30 2977 H 287.692 -0.871341 -4.33428 0
M  V30 2978 N 286.751 1.08385 -1.14413 0
M  V30 2979 C 287.681 2.17321 -0.854044 0
M  V30 2980 C 288.662 1.69024 0.191049 0
M  V30 2981 O 289.847 1.94141 0.0476779 0
M  V30 2982 C 286.977 3.45719 -0.330983 0
M  V30 2983 C 285.931 4.07409 -1.31155 0
M  V30 2984 C 285.257 5.30762 -0.64778 0
M  V30 2985 C 286.557 4.48665 -2.67388 0
M  V30 2986 H 288.251 2.41845 -1.76498 0
M  V30 2987 H 285.797 1.16233 -0.850051 0
M  V30 2988 H 287.75 4.21241 -0.115645 0
M  V30 2989 H 286.474 3.2075 0.615381 0
M  V30 2990 H 285.133 3.33919 -1.51306 0
M  V30 2991 H 284.781 5.02078 0.304398 0
M  V30 2992 H 284.481 5.72992 -1.30207 0
M  V30 2993 H 286.005 6.08998 -0.441972 0
M  V30 2994 H 287.419 5.15364 -2.51143 0
M  V30 2995 H 285.816 5.01814 -3.29093 0
M  V30 2996 H 286.886 3.60543 -3.24248 0
M  V30 2997 N 288.23 0.939286 1.26551 0
M  V30 2998 C 289.455 0.602008 1.98471 0
M  V30 2999 C 289.88 -0.815624 1.69497 0
M  V30 3000 O 289.238 -1.54912 0.941905 0
M  V30 3001 C 289.286 0.848407 3.50477 0
M  V30 3002 O 288.39 -0.0804009 4.12322 0
M  V30 3003 H 287.731 0.23049 0.622712 0
M  V30 3004 H 290.261 1.2617 1.61066 0
M  V30 3005 H 290.271 0.768553 4.00696 0
M  V30 3006 H 288.946 1.88171 3.70897 0
M  V30 3007 H 287.523 0.0503508 3.72866 0
M  V30 3008 N 289.708 -1.40897 0.706093 0
M  V30 3009 C 290.656 -2.32572 0.0361893 0
M  V30 3010 C 291.65 -1.51532 -0.757266 0
M  V30 3011 O 292.856 -1.67396 -0.661703 0
M  V30 3012 H 289.231 -0.751966 -0.00709935 0
M  V30 3013 H 291.202 -2.86733 0.826249 0
M  V30 3014 C 289.951 -3.36418 -0.87854 0
M  V30 3015 H 289.274 -3.98836 -0.277401 0
M  V30 3016 H 290.714 -4.0308 -1.3154 0
M  V30 3017 C 289.173 -2.71141 -1.99961 0
M  V30 3018 O 289.703 -2.56735 -3.0895 0
M  V30 3019 N 287.909 -2.29671 -1.78043 0
M  V30 3020 H 287.456 -2.41588 -0.894042 0
M  V30 3021 H 287.414 -1.86332 -2.53235 0
M  V30 3022 N 291.186 -0.45159 -1.50991 0
M  V30 3023 C 292.116 0.342898 -2.30969 0
M  V30 3024 C 293.097 1.00815 -1.37005 0
M  V30 3025 O 294.282 1.00907 -1.65926 0
M  V30 3026 C 291.412 1.43637 -3.16205 0
M  V30 3027 C 290.366 0.893818 -4.18563 0
M  V30 3028 C 289.692 2.08411 -4.92411 0
M  V30 3029 C 290.992 -0.0815568 -5.22236 0
M  V30 3030 H 292.686 -0.324556 -2.97636 0
M  V30 3031 H 290.232 -0.157531 -1.43136 0
M  V30 3032 H 292.185 1.9995 -3.70942 0
M  V30 3033 H 290.909 2.13232 -2.47386 0
M  V30 3034 H 289.568 0.352798 -3.64898 0
M  V30 3035 H 289.216 2.76658 -4.20082 0
M  V30 3036 H 288.916 1.72741 -5.61636 0
M  V30 3037 H 290.44 2.65251 -5.49976 0
M  V30 3038 H 291.854 0.391742 -5.7196 0
M  V30 3039 H 290.251 -0.351551 -5.99069 0
M  V30 3040 H 291.321 -1.01374 -4.74185 0
M  V30 3041 N 292.664 1.56529 -0.183458 0
M  V30 3042 C 293.596 2.15747 0.773697 0
M  V30 3043 C 294.609 1.1162 1.1851 0
M  V30 3044 O 295.798 1.3876 1.12285 0
M  V30 3045 C 292.898 2.6952 2.05456 0
M  V30 3046 C 292.071 3.98429 1.8048 0
M  V30 3047 C 291.13 4.37145 2.92901 0
M  V30 3048 O 290.156 5.04791 2.6301 0
M  V30 3049 N 291.358 3.99695 4.2098 0
M  V30 3050 H 294.123 2.98505 0.26736 0
M  V30 3051 H 291.684 1.619 -0.0010878 0
M  V30 3052 H 293.676 2.92412 2.79781 0
M  V30 3053 H 292.246 1.91282 2.47245 0
M  V30 3054 H 291.466 3.8379 0.899947 0
M  V30 3055 H 292.754 4.82597 1.61175 0
M  V30 3056 H 292.152 3.4526 4.48121 0
M  V30 3057 H 290.709 4.27562 4.9197 0
M  V30 3058 N 294.142 -0.090211 1.57342 0
M  V30 3059 C 295.089 -1.10909 2.02405 0
M  V30 3060 C 296.059 -1.39523 0.901252 0
M  V30 3061 O 297.244 -1.50903 1.1676 0
M  V30 3062 C 294.384 -2.42277 2.45755 0
M  V30 3063 C 293.497 -2.20352 3.71576 0
M  V30 3064 C 292.632 -3.45154 4.03785 0
M  V30 3065 C 291.671 -3.18512 5.22701 0
M  V30 3066 N 290.808 -4.35593 5.50639 0
M  V30 3067 H 295.648 -0.71782 2.89225 0
M  V30 3068 H 293.185 -0.342901 1.43048 0
M  V30 3069 H 295.143 -3.18951 2.68935 0
M  V30 3070 H 293.773 -2.79242 1.61938 0
M  V30 3071 H 292.825 -1.34458 3.55844 0
M  V30 3072 H 294.137 -1.96661 4.58395 0
M  V30 3073 H 293.291 -4.30233 4.27767 0
M  V30 3074 H 292.03 -3.71904 3.15498 0
M  V30 3075 H 291.035 -2.31827 4.98534 0
M  V30 3076 H 292.26 -2.93103 6.12591 0
M  V30 3077 H 290.206 -4.6241 4.6531 0
M  V30 3078 H 290.123 -4.1511 6.31838 0
M  V30 3079 H 291.391 -5.21723 5.7916 0
M  V30 3080 N 295.62 -1.53406 -0.361157 0
M  V30 3081 C 296.55 -1.83136 -1.44857 0
M  V30 3082 C 297.531 -0.685174 -1.5569 0
M  V30 3083 O 298.716 -0.93544 -1.70186 0
M  V30 3084 C 295.846 -2.02522 -2.82138 0
M  V30 3085 C 294.8 -3.18302 -2.86126 0
M  V30 3086 C 294.126 -3.22989 -4.26125 0
M  V30 3087 C 295.426 -4.56796 -2.53248 0
M  V30 3088 H 297.12 -2.74201 -1.20226 0
M  V30 3089 H 294.666 -1.31938 -0.576922 0
M  V30 3090 H 296.619 -2.21904 -3.58241 0
M  V30 3091 H 295.343 -1.08172 -3.08166 0
M  V30 3092 H 294.002 -2.98747 -2.12475 0
M  V30 3093 H 293.65 -2.26267 -4.49235 0
M  V30 3094 H 293.35 -4.00781 -4.29708 0
M  V30 3095 H 294.874 -3.44559 -5.04094 0
M  V30 3096 H 296.288 -4.7631 -3.19064 0
M  V30 3097 H 294.685 -5.36862 -2.68141 0
M  V30 3098 H 295.755 -4.61606 -1.48484 0
M  V30 3099 N 297.098 0.621204 -1.44841 0
M  V30 3100 C 298.045 1.73267 -1.5247 0
M  V30 3101 C 299.015 1.6189 -0.371611 0
M  V30 3102 O 300.2 1.81668 -0.58321 0
M  V30 3103 C 297.34 3.11545 -1.48438 0
M  V30 3104 C 296.453 3.33827 -2.74196 0
M  V30 3105 C 295.588 4.62133 -2.61929 0
M  V30 3106 C 294.627 4.77627 -3.82804 0
M  V30 3107 N 293.764 5.97219 -3.69153 0
M  V30 3108 H 298.604 1.66082 -2.47428 0
M  V30 3109 H 296.141 0.810026 -1.22788 0
M  V30 3110 H 298.099 3.91528 -1.4409 0
M  V30 3111 H 296.729 3.1772 -0.570402 0
M  V30 3112 H 295.781 2.47715 -2.88689 0
M  V30 3113 H 297.093 3.41153 -3.6389 0
M  V30 3114 H 296.247 5.50291 -2.5547 0
M  V30 3115 H 294.986 4.57182 -1.69811 0
M  V30 3116 H 293.991 3.87896 -3.89637 0
M  V30 3117 H 295.216 4.84385 -4.75971 0
M  V30 3118 H 293.162 5.93339 -2.79794 0
M  V30 3119 H 293.079 6.05644 -4.52472 0
M  V30 3120 H 294.347 6.87912 -3.66603 0
M  V30 3121 N 298.576 1.31904 0.862503 0
M  V30 3122 C 299.801 1.25135 1.65397 0
M  V30 3123 C 300.226 -0.179 1.87246 0
M  V30 3124 O 299.584 -1.1277 1.4196 0
M  V30 3125 C 299.632 2.00832 2.99498 0
M  V30 3126 O 298.736 1.35075 3.89652 0
M  V30 3127 H 298.077 0.431655 0.504549 0
M  V30 3128 H 300.607 1.74094 1.07483 0
M  V30 3129 H 300.617 2.10709 3.49379 0
M  V30 3130 H 299.292 3.04847 2.82916 0
M  V30 3131 H 297.869 1.33696 3.48109 0
M  V30 3132 N 300.054 -1.07777 1.14986 0
M  V30 3133 C 301.017 -2.13041 0.845358 0
M  V30 3134 C 302.017 -1.60071 -0.152931 0
M  V30 3135 O 303.207 -1.74033 0.0761879 0
M  V30 3136 C 300.339 -3.39896 0.261383 0
M  V30 3137 H 301.532 -2.41485 1.77834 0
M  V30 3138 H 299.085 -1.23595 0.956757 0
M  V30 3139 H 299.82 -3.17091 -0.68 0
M  V30 3140 H 299.605 -3.79642 0.980514 0
M  V30 3141 H 301.095 -4.17548 0.0657687 0
M  V30 3142 N 301.532 -0.945985 -1.26051 0
M  V30 3143 C 302.462 -0.477172 -2.28572 0
M  V30 3144 C 303.443 0.472032 -1.63419 0
M  V30 3145 O 304.628 0.372853 -1.90587 0
M  V30 3146 C 301.758 0.253975 -3.4637 0
M  V30 3147 C 300.712 -0.609135 -4.23643 0
M  V30 3148 C 300.038 0.252252 -5.34105 0
M  V30 3149 C 301.338 -1.8829 -4.8718 0
M  V30 3150 H 303.032 -1.33402 -2.68038 0
M  V30 3151 H 300.578 -0.642904 -1.28852 0
M  V30 3152 H 302.531 0.593016 -4.17207 0
M  V30 3153 H 301.255 1.145 -3.05871 0
M  V30 3154 H 299.914 -0.931138 -3.54578 0
M  V30 3155 H 299.562 1.14278 -4.89846 0
M  V30 3156 H 299.262 -0.32188 -5.86718 0
M  V30 3157 H 300.786 0.586454 -6.07777 0
M  V30 3158 H 302.2 -1.61081 -5.50205 0
M  V30 3159 H 300.597 -2.40199 -5.49931 0
M  V30 3160 H 301.667 -2.59134 -4.09851 0
M  V30 3161 N 303.011 1.40521 -0.713556 0
M  V30 3162 C 304.259 2.00527 -0.251692 0
M  V30 3163 C 304.58 1.56857 1.15848 0
M  V30 3164 O 303.85 0.807127 1.785 0
M  V30 3165 H 302.43 0.741551 -0.0900646 0
M  V30 3166 H 305.092 1.71887 -0.918733 0
M  V30 3167 H 304.188 3.10813 -0.283192 0
M  V30 3168 N 304.489 0.459591 1.5075 0
M  V30 3169 C 305.419 -0.330644 2.31147 0
M  V30 3170 C 306.4 -1.00087 1.37538 0
M  V30 3171 O 307.585 -1.00025 1.66459 0
M  V30 3172 C 304.715 -1.41958 3.16962 0
M  V30 3173 C 303.669 -0.871608 4.19031 0
M  V30 3174 C 302.995 -2.05797 4.9351 0
M  V30 3175 C 304.295 0.109251 5.22186 0
M  V30 3176 H 305.989 0.340336 2.97459 0
M  V30 3177 H 303.535 0.165119 1.4305 0
M  V30 3178 H 305.488 -1.9798 3.71997 0
M  V30 3179 H 304.212 -2.11917 2.48513 0
M  V30 3180 H 302.871 -0.333442 3.6508 0
M  V30 3181 H 302.519 -2.74427 4.21544 0
M  V30 3182 H 302.219 -1.6976 5.62544 0
M  V30 3183 H 303.743 -2.62331 5.51375 0
M  V30 3184 H 305.157 -0.361405 5.7216 0
M  V30 3185 H 303.554 0.383316 5.98875 0
M  V30 3186 H 304.624 1.03887 4.73641 0
M  V30 3187 N 305.967 -1.56429 0.191757 0
M  V30 3188 C 307.378 -1.83912 -0.321428 0
M  V30 3189 C 307.729 -1.11231 -1.61623 0
M  V30 3190 O 306.854 -0.37202 -2.13178 0
M  V30 3191 C 307.449 -3.33624 -0.589961 0
M  V30 3192 C 306.008 -3.6153 -1.04753 0
M  V30 3193 C 305.155 -2.7714 -0.0943327 0
M  V30 3194 H 308.106 -1.53161 0.415612 0
M  V30 3195 H 308.127 -3.52213 -1.43966 0
M  V30 3196 H 307.639 -3.86495 0.352588 0
M  V30 3197 H 305.74 -3.14089 -2.00447 0
M  V30 3198 H 305.853 -4.69737 -0.942549 0
M  V30 3199 H 304.217 -2.47638 -0.595589 0
M  V30 3200 H 305 -3.32799 0.842601 0
M  V30 3201 N 307.445 0.0818655 -1.57387 0
M  V30 3202 C 308.375 1.09885 -2.06028 0
M  V30 3203 C 309.356 1.4098 -0.951774 0
M  V30 3204 O 310.541 1.50781 -1.22387 0
M  V30 3205 C 307.671 2.4151 -2.4958 0
M  V30 3206 C 306.625 2.24792 -3.64215 0
M  V30 3207 C 305.951 3.61712 -3.93787 0
M  V30 3208 C 307.251 1.67749 -4.94629 0
M  V30 3209 H 308.945 0.694128 -2.91243 0
M  V30 3210 H 306.491 0.332448 -1.4011 0
M  V30 3211 H 308.444 3.12939 -2.82219 0
M  V30 3212 H 307.168 2.83943 -1.61381 0
M  V30 3213 H 305.827 1.55807 -3.31843 0
M  V30 3214 H 305.475 4.01697 -3.02735 0
M  V30 3215 H 305.175 3.51368 -4.70971 0
M  V30 3216 H 306.699 4.34587 -4.28913 0
M  V30 3217 H 308.113 2.29032 -5.25564 0
M  V30 3218 H 306.51 1.68128 -5.76067 0
M  V30 3219 H 307.58 0.638059 -4.80684 0
M  V30 3220 N 308.923 1.53595 0.353017 0
M  V30 3221 C 309.853 1.83902 1.43883 0
M  V30 3222 C 310.834 0.693421 1.55324 0
M  V30 3223 O 312.019 0.944452 1.69687 0
M  V30 3224 C 309.149 2.04016 2.8106 0
M  V30 3225 C 308.103 3.19814 2.84434 0
M  V30 3226 C 307.429 3.25244 4.24406 0
M  V30 3227 C 308.729 4.58133 2.50822 0
M  V30 3228 H 310.423 2.74835 1.1877 0
M  V30 3229 H 307.969 1.32242 0.569917 0
M  V30 3230 H 309.922 2.238 3.57059 0
M  V30 3231 H 308.646 1.09804 3.07588 0
M  V30 3232 H 307.305 2.9987 2.10887 0
M  V30 3233 H 306.953 2.28646 4.48029 0
M  V30 3234 H 306.653 4.03054 4.27576 0
M  V30 3235 H 308.177 3.47228 5.0226 0
M  V30 3236 H 309.591 4.77995 3.16534 0
M  V30 3237 H 307.988 5.38276 2.6529 0
M  V30 3238 H 309.058 4.62387 1.46034 0
M  V30 3239 N 310.401 -0.613514 1.45168 0
M  V30 3240 C 311.647 -1.37471 1.49096 0
M  V30 3241 C 311.98 -1.93765 0.129901 0
M  V30 3242 O 311.255 -1.74707 -0.854858 0
M  V30 3243 C 311.538 -2.52701 2.56542 0
M  V30 3244 C 311.391 -2.01643 4.0207 0
M  V30 3245 C 312.71 -3.54849 2.60327 0
M  V30 3246 H 309.829 -0.498502 0.54283 0
M  V30 3247 H 312.471 -0.692125 1.76945 0
M  V30 3248 H 310.621 -3.10931 2.32926 0
M  V30 3249 H 312.293 -1.48108 4.36877 0
M  V30 3250 H 310.536 -1.32688 4.13009 0
M  V30 3251 H 311.207 -2.84681 4.72928 0
M  V30 3252 H 313.683 -3.0645 2.81474 0
M  V30 3253 H 312.559 -4.32973 3.37381 0
M  V30 3254 H 312.82 -4.10079 1.6519 0
M  V30 3255 N 311.879 -1.3236 -0.855495 0
M  V30 3256 C 313.104 -1.2601 -1.64731 0
M  V30 3257 C 313.529 0.169068 -1.87339 0
M  V30 3258 O 312.887 1.12016 -1.42556 0
M  V30 3259 C 312.935 -2.02417 -2.98429 0
M  V30 3260 O 312.039 -1.3714 -3.8893 0
M  V30 3261 H 311.38 -0.434325 -0.502253 0
M  V30 3262 H 313.91 -1.74661 -1.06558 0
M  V30 3263 H 313.92 -2.12559 -3.48257 0
M  V30 3264 H 312.595 -3.06343 -2.81295 0
M  V30 3265 H 311.172 -1.3554 -3.47395 0
M  V30 3266 N 313.357 1.07166 -1.15556 0
M  V30 3267 C 314.603 1.80065 -0.932984 0
M  V30 3268 C 314.936 1.86586 0.53845 0
M  V30 3269 O 314.211 1.35098 1.39924 0
M  V30 3270 C 314.494 3.25022 -1.55025 0
M  V30 3271 C 314.347 3.26634 -3.09242 0
M  V30 3272 C 315.666 4.22341 -1.2376 0
M  V30 3273 H 312.785 0.653697 -0.340366 0
M  V30 3274 H 315.427 1.25389 -1.4275 0
M  V30 3275 H 313.577 3.71712 -1.12972 0
M  V30 3276 H 315.249 2.88173 -3.60214 0
M  V30 3277 H 313.492 2.65539 -3.43033 0
M  V30 3278 H 314.163 4.28854 -3.47546 0
M  V30 3279 H 316.639 3.8405 -1.60139 0
M  V30 3280 H 315.515 5.22053 -1.69564 0
M  V30 3281 H 315.776 4.41828 -0.154938 0
M  V30 3282 N 314.835 0.952656 1.25548 0
M  V30 3283 C 316.06 0.623025 1.97821 0
M  V30 3284 C 316.485 -0.7976 1.70352 0
M  V30 3285 O 315.843 -1.53905 0.958283 0
M  V30 3286 C 315.891 0.885532 3.49558 0
M  V30 3287 O 314.995 -0.0366641 4.12384 0
M  V30 3288 H 314.336 0.237082 0.620232 0
M  V30 3289 H 316.866 1.27871 1.59719 0
M  V30 3290 H 316.876 0.811009 3.99858 0
M  V30 3291 H 315.551 1.92094 3.6888 0
M  V30 3292 H 314.128 0.0898954 3.72792 0
M  V30 3293 N 316.313 -1.40141 0.720998 0
M  V30 3294 C 317.729 -1.54632 0.395113 0
M  V30 3295 C 317.929 -1.69115 -1.09555 0
M  V30 3296 O 316.985 -1.68377 -1.88163 0
M  V30 3297 C 318.298 -2.77177 1.1659 0
M  V30 3298 C 319.846 -2.91 1.15274 0
M  V30 3299 C 320.321 -4.16465 1.90579 0
M  V30 3300 N 321.812 -4.23476 1.87675 0
M  V30 3301 C 322.547 -5.19475 2.42762 0
M  V30 3302 N 322.043 -6.21348 3.06428 0
M  V30 3303 N 323.836 -5.11592 2.32874 0
M  V30 3304 H 315.987 -1.28986 1.68749 0
M  V30 3305 H 318.25 -0.62412 0.713567 0
M  V30 3306 H 317.956 -2.72771 2.22011 0
M  V30 3307 H 317.83 -3.69442 0.76108 0
M  V30 3308 H 320.217 -2.94907 0.106702 0
M  V30 3309 H 320.298 -1.99838 1.59682 0
M  V30 3310 H 319.942 -4.1332 2.95176 0
M  V30 3311 H 319.872 -5.06646 1.43587 0
M  V30 3312 H 322.363 -3.50497 1.41281 0
M  V30 3313 H 322.676 -6.91034 3.45965 0
M  V30 3314 H 321.021 -6.21777 3.10514 0
M  V30 3315 H 324.212 -4.30936 1.82789 0
M  V30 3316 H 324.385 -5.86233 2.76106 0
M  V30 3317 N 317.792 -0.46758 -1.50504 0
M  V30 3318 C 318.739 0.328413 -2.28452 0
M  V30 3319 C 319.709 0.990313 -1.33349 0
M  V30 3320 O 320.894 1.00343 -1.62284 0
M  V30 3321 C 318.034 1.40648 -3.15138 0
M  V30 3322 C 317.147 0.759709 -4.25267 0
M  V30 3323 C 316.282 1.81537 -4.99217 0
M  V30 3324 C 315.321 1.14866 -6.01226 0
M  V30 3325 N 314.458 2.14702 -6.68467 0
M  V30 3326 H 319.298 -0.342603 -2.96024 0
M  V30 3327 H 316.835 -0.180801 -1.45985 0
M  V30 3328 H 318.793 2.04315 -3.63746 0
M  V30 3329 H 317.423 2.04671 -2.49619 0
M  V30 3330 H 316.475 0.0105671 -3.80399 0
M  V30 3331 H 317.787 0.233243 -4.98254 0
M  V30 3332 H 316.941 2.52793 -5.51526 0
M  V30 3333 H 315.68 2.37564 -4.25928 0
M  V30 3334 H 314.685 0.42171 -5.4818 0
M  V30 3335 H 315.91 0.595334 -6.76485 0
M  V30 3336 H 313.856 2.69752 -5.97972 0
M  V30 3337 H 313.773 1.6703 -7.37317 0
M  V30 3338 H 315.041 2.85348 -7.25394 0
M  V30 3339 N 319.27 1.56325 -0.20005 0
M  V30 3340 C 320.495 2.02548 0.44597 0
M  V30 3341 C 320.92 1.07922 1.5406 0
M  V30 3342 O 320.278 0.0635775 1.81188 0
M  V30 3343 C 320.326 3.47175 0.974761 0
M  V30 3344 O 319.43 3.55671 2.08739 0
M  V30 3345 H 318.771 0.655862 0.103638 0
M  V30 3346 H 321.301 2.02201 -0.312381 0
M  V30 3347 H 321.311 3.87067 1.2901 0
M  V30 3348 H 319.986 4.15538 0.17347 0
M  V30 3349 H 318.563 3.27657 1.78032 0
M  V30 3350 N 320.748 -0.0735177 1.57428 0
M  V30 3351 C 321.995 -0.772999 1.87166 0
M  V30 3352 C 322.323 -1.77665 0.791551 0
M  V30 3353 O 321.578 -1.94541 -0.212636 0
M  V30 3354 C 321.877 -1.51799 3.23561 0
M  V30 3355 C 321.543 -0.654484 4.46125 0
M  V30 3356 C 320.205 -0.416511 4.79394 0
M  V30 3357 C 322.557 -0.0555862 5.2117 0
M  V30 3358 C 319.885 0.429869 5.85123 0
M  V30 3359 C 322.237 0.778239 6.27795 0
M  V30 3360 C 320.901 1.0261 6.59566 0
M  V30 3361 H 320.171 -0.282861 0.684888 0
M  V30 3362 H 322.818 -0.0338272 1.9147 0
M  V30 3363 H 321.123 -2.32932 3.1504 0
M  V30 3364 H 322.82 -2.06397 3.43804 0
M  V30 3365 H 319.41 -0.850091 4.20085 0
M  V30 3366 H 323.594 -0.226558 4.95783 0
M  V30 3367 H 318.85 0.630665 6.08139 0
M  V30 3368 H 323.024 1.24906 6.85107 0
M  V30 3369 H 320.651 1.68371 7.4132 0
M  V30 3370 N 322.226 -1.5378 -0.344866 0
M  V30 3371 C 323.156 -1.84662 -1.42906 0
M  V30 3372 C 324.137 -0.701648 -1.54955 0
M  V30 3373 O 325.322 -0.953438 -1.69184 0
M  V30 3374 C 322.452 -2.05503 -2.79974 0
M  V30 3375 C 321.406 -3.21318 -2.82734 0
M  V30 3376 C 320.732 -3.2749 -4.22675 0
M  V30 3377 C 322.032 -4.59456 -2.48389 0
M  V30 3378 H 323.726 -2.75461 -1.17311 0
M  V30 3379 H 321.272 -1.32542 -0.562896 0
M  V30 3380 H 323.225 -2.25691 -3.55867 0
M  V30 3381 H 321.949 -1.11434 -3.07002 0
M  V30 3382 H 320.608 -3.00984 -2.09294 0
M  V30 3383 H 320.256 -2.31019 -4.4681 0
M  V30 3384 H 319.956 -4.05316 -4.25433 0
M  V30 3385 H 321.48 -3.49887 -5.00412 0
M  V30 3386 H 322.894 -4.79667 -3.13995 0
M  V30 3387 H 321.291 -5.39675 -2.62432 0
M  V30 3388 H 322.361 -4.63155 -1.4358 0
M  V30 3389 N 323.704 0.605807 -1.45491 0
M  V30 3390 C 324.952 1.36207 -1.49305 0
M  V30 3391 C 325.273 1.94519 -0.136863 0
M  V30 3392 O 324.543 1.77261 0.833983 0
M  V30 3393 H 323.123 0.50565 -0.549843 0
M  V30 3394 H 325.785 0.711239 -1.81459 0
M  V30 3395 H 324.881 2.18058 -2.23287 0
M  V30 3396 N 325.182 1.32811 0.848464 0
M  V30 3397 C 326.145 1.22194 1.9391 0
M  V30 3398 C 327.145 0.143404 1.60159 0
M  V30 3399 O 328.335 0.394253 1.6968 0
M  V30 3400 C 325.467 0.88067 3.29328 0
M  V30 3401 H 326.66 2.19127 2.04752 0
M  V30 3402 H 324.213 1.16731 1.0394 0
M  V30 3403 H 324.948 -0.0865776 3.24184 0
M  V30 3404 H 324.733 1.66052 3.55203 0
M  V30 3405 H 326.223 0.830871 4.09251 0
M  V30 3406 N 326.66 -1.06551 1.16123 0
M  V30 3407 C 327.888 -1.83005 0.965237 0
M  V30 3408 C 328.303 -1.82423 -0.486542 0
M  V30 3409 O 327.66 -1.24152 -1.33763 0
M  V30 3410 C 327.711 -3.29733 1.48183 0
M  V30 3411 O 327.432 -3.30416 2.87674 0
M  V30 3412 C 328.933 -4.22926 1.32848 0
M  V30 3413 H 326.153 -0.577118 0.342309 0
M  V30 3414 H 328.697 -1.3445 1.54089 0
M  V30 3415 H 326.852 -3.75609 0.948517 0
M  V30 3416 H 327.266 -4.22149 3.11272 0
M  V30 3417 H 328.74 -5.23916 1.73827 0
M  V30 3418 H 329.217 -4.38346 0.273692 0
M  V30 3419 H 329.823 -3.82894 1.85127 0
M  V30 3420 N 328.138 -0.959301 -1.25041 0
M  V30 3421 C 329.384 -0.617525 -1.9317 0
M  V30 3422 C 329.717 0.843981 -1.74902 0
M  V30 3423 O 328.992 1.60615 -1.09696 0
M  V30 3424 C 329.275 -0.982736 -3.46431 0
M  V30 3425 C 329.128 -2.50032 -3.73904 0
M  V30 3426 C 330.447 -0.511176 -4.37121 0
M  V30 3427 H 327.566 -0.22582 -0.701552 0
M  V30 3428 H 330.208 -1.19679 -1.4757 0
M  V30 3429 H 328.358 -0.489806 -3.854 0
M  V30 3430 H 330.03 -3.06737 -3.44544 0
M  V30 3431 H 328.273 -2.93598 -3.19348 0
M  V30 3432 H 328.944 -2.70635 -4.81103 0
M  V30 3433 H 331.42 -0.934075 -4.0548 0
M  V30 3434 H 330.296 -0.795361 -5.43107 0
M  V30 3435 H 330.557 0.588834 -4.38161 0
M  V30 3436 N 329.616 1.39756 -0.72842 0
M  V30 3437 C 330.864 2.00248 -0.272946 0
M  V30 3438 C 331.185 1.58077 1.14178 0
M  V30 3439 O 330.455 0.826014 1.77634 0
M  V30 3440 H 329.035 0.740554 -0.0979247 0
M  V30 3441 H 331.697 1.70903 -0.936912 0
M  V30 3442 H 330.793 3.10495 -0.316142 0
M  V30 3443 N 331.094 0.475555 1.50254 0
M  V30 3444 C 332.024 -0.30611 2.31485 0
M  V30 3445 C 333.005 -0.986228 1.38591 0
M  V30 3446 O 334.19 -0.982541 1.67511 0
M  V30 3447 C 331.32 -1.38588 3.1845 0
M  V30 3448 C 330.274 -0.827115 4.19932 0
M  V30 3449 C 329.6 -2.00551 4.95665 0
M  V30 3450 C 330.9 0.16463 5.2204 0
M  V30 3451 H 332.594 0.371866 2.97082 0
M  V30 3452 H 330.14 0.180282 1.42867 0
M  V30 3453 H 332.093 -1.94023 3.74076 0
M  V30 3454 H 330.817 -2.09269 2.50747 0
M  V30 3455 H 329.476 -0.294702 3.65414 0
M  V30 3456 H 329.124 -2.6994 4.2443 0
M  V30 3457 H 328.824 -1.63784 5.64313 0
M  V30 3458 H 330.348 -2.56468 5.54127 0
M  V30 3459 H 331.762 -0.300699 5.72511 0
M  V30 3460 H 330.159 0.446813 5.98434 0
M  V30 3461 H 331.229 1.08905 4.72512 0
M  V30 3462 N 332.573 -1.56217 0.208337 0
M  V30 3463 C 333.984 -1.84243 -0.301904 0
M  V30 3464 C 334.335 -1.12939 -1.60434 0
M  V30 3465 O 333.46 -0.39461 -2.12772 0
M  V30 3466 C 334.055 -3.34231 -0.554543 0
M  V30 3467 C 332.614 -3.62621 -1.00912 0
M  V30 3468 C 331.761 -2.77224 -0.064933 0
M  V30 3469 H 334.712 -1.52712 0.431833 0
M  V30 3470 H 334.733 -3.5372 -1.40223 0
M  V30 3471 H 334.245 -3.86099 0.393561 0
M  V30 3472 H 332.346 -3.16197 -1.97104 0
M  V30 3473 H 332.459 -4.7071 -0.892674 0
M  V30 3474 H 330.823 -2.48256 -0.56929 0
M  V30 3475 H 331.606 -3.31887 0.877851 0
M  V30 3476 N 334.051 0.0651679 -1.57465 0
M  V30 3477 C 335.297 0.764193 -1.87851 0
M  V30 3478 C 335.63 1.76889 -0.801495 0
M  V30 3479 O 334.905 1.93594 0.187528 0
M  V30 3480 C 335.188 1.46625 -3.28897 0
M  V30 3481 C 335.041 0.477515 -4.47258 0
M  V30 3482 C 336.36 2.4095 -3.68281 0
M  V30 3483 H 333.479 0.276351 -0.683227 0
M  V30 3484 H 336.121 0.0272868 -1.8998 0
M  V30 3485 H 334.271 2.09438 -3.27212 0
M  V30 3486 H 335.943 -0.145922 -4.61069 0
M  V30 3487 H 334.186 -0.206576 -4.33308 0
M  V30 3488 H 334.857 1.0065 -5.42746 0
M  V30 3489 H 337.333 1.88209 -3.71102 0
M  V30 3490 H 336.209 2.87072 -4.67847 0
M  V30 3491 H 336.47 3.26049 -2.98571 0
M  V30 3492 N 335.529 1.53961 0.336706 0
M  V30 3493 C 336.476 1.82428 1.41381 0
M  V30 3494 C 337.446 0.670444 1.51968 0
M  V30 3495 O 338.631 0.915565 1.67398 0
M  V30 3496 C 335.771 2.04564 2.77934 0
M  V30 3497 C 334.884 3.32267 2.76084 0
M  V30 3498 C 334.019 3.44434 4.04399 0
M  V30 3499 C 333.058 4.66061 3.96804 0
M  V30 3500 N 332.195 4.75224 5.16823 0
M  V30 3501 H 337.035 2.74324 1.16405 0
M  V30 3502 H 334.572 1.35869 0.563752 0
M  V30 3503 H 336.53 2.15388 3.57301 0
M  V30 3504 H 335.16 1.15974 3.01247 0
M  V30 3505 H 334.212 3.3025 1.88784 0
M  V30 3506 H 335.524 4.21733 2.66351 0
M  V30 3507 H 334.678 3.54728 4.92192 0
M  V30 3508 H 333.417 2.53037 4.16921 0
M  V30 3509 H 332.422 4.55838 3.07396 0
M  V30 3510 H 333.647 5.58829 3.85858 0
M  V30 3511 H 331.593 3.86739 5.29876 0
M  V30 3512 H 331.51 5.58636 5.09374 0
M  V30 3513 H 332.778 4.89835 6.06367 0
M  V30 3514 N 337.007 -0.598083 1.45811 0
M  V30 3515 C 338.284 -1.35777 1.40797 0
M  V30 3516 C 338.664 -2.10935 0.083462 0
M  V30 3517 O 338.012 -2.08505 -0.934763 0
M  V30 3518 C 338.222 -2.29666 2.62783 0
M  V30 3519 C 339.57 -2.91977 3.08277 0
M  V30 3520 O 340.594 -2.39984 2.63223 0
M  V30 3521 O 339.453 -3.86376 3.86491 0
M  V30 3522 H 336.547 -0.609291 0.55919 0
M  V30 3523 H 339.093 -0.620379 1.57954 0
M  V30 3524 H 337.865 -1.73454 3.50756 0
M  V30 3525 H 337.488 -3.1077 2.48008 0
M  V30 3526 N 338.485 -1.33259 -0.841409 0
M  V30 3527 C 339.415 -1.25926 -1.96634 0
M  V30 3528 C 340.396 -0.140349 -1.6952 0
M  V30 3529 O 341.581 -0.329707 -1.91381 0
M  V30 3530 C 338.711 -0.99512 -3.32738 0
M  V30 3531 C 337.665 -2.0767 -3.74242 0
M  V30 3532 C 336.991 -1.66474 -5.08125 0
M  V30 3533 C 338.291 -3.49318 -3.88297 0
M  V30 3534 H 339.985 -2.20046 -2.03027 0
M  V30 3535 H 337.531 -1.05931 -0.975425 0
M  V30 3536 H 339.484 -0.930323 -4.11002 0
M  V30 3537 H 338.208 -0.0183004 -3.26595 0
M  V30 3538 H 336.867 -2.13187 -2.98239 0
M  V30 3539 H 336.515 -0.675012 -4.9845 0
M  V30 3540 H 336.215 -2.3885 -5.36865 0
M  V30 3541 H 337.739 -1.61455 -5.88867 0
M  V30 3542 H 339.153 -3.46316 -4.56879 0
M  V30 3543 H 337.55 -4.20158 -4.28471 0
M  V30 3544 H 338.62 -3.8801 -2.9082 0
M  V30 3545 N 339.963 1.05934 -1.16686 0
M  V30 3546 C 341.211 1.78447 -0.948744 0
M  V30 3547 C 341.532 1.87813 0.524523 0
M  V30 3548 O 340.802 1.38945 1.38098 0
M  V30 3549 H 339.382 0.660971 -0.348033 0
M  V30 3550 H 342.044 1.27947 -1.47022 0
M  V30 3551 H 341.14 2.80394 -1.37061 0
M  V30 3552 N 341.441 0.965919 1.2453 0
M  V30 3553 C 342.852 0.665929 1.7442 0
M  V30 3554 C 343.203 -0.818407 1.78316 0
M  V30 3555 O 342.328 -1.64037 1.41141 0
M  V30 3556 C 342.923 1.20211 3.16757 0
M  V30 3557 C 341.482 0.952059 3.6416 0
M  V30 3558 C 340.629 1.33848 2.42858 0
M  V30 3559 H 343.58 1.14144 1.10258 0
M  V30 3560 H 343.601 0.567544 3.76244 0
M  V30 3561 H 343.113 2.28244 3.13889 0
M  V30 3562 H 341.214 -0.112821 3.72429 0
M  V30 3563 H 341.327 1.59645 4.51719 0
M  V30 3564 H 339.691 0.756864 2.43195 0
M  V30 3565 H 340.474 2.42827 2.42673 0
M  V30 3566 N 342.919 -1.39368 0.735821 0
M  V30 3567 C 343.882 -2.2896 0.104874 0
M  V30 3568 C 344.882 -1.46347 -0.666274 0
M  V30 3569 O 346.072 -1.67014 -0.49517 0
M  V30 3570 C 343.204 -3.29857 -0.860656 0
M  V30 3571 H 344.397 -2.86259 0.894205 0
M  V30 3572 H 341.95 -1.48029 0.501704 0
M  V30 3573 H 342.685 -2.77615 -1.67631 0
M  V30 3574 H 342.47 -3.9087 -0.310327 0
M  V30 3575 H 343.96 -3.96893 -1.29867 0
M  V30 3576 N 344.397 -0.483516 -1.5 0
M  V30 3577 C 345.622 0.0667119 -2.07293 0
M  V30 3578 C 346.047 1.3164 -1.3436 0
M  V30 3579 O 345.405 1.76945 -0.394987 0
M  V30 3580 C 345.453 0.321126 -3.59167 0
M  V30 3581 O 344.557 1.39927 -3.87936 0
M  V30 3582 H 343.898 -0.0184758 -0.663743 0
M  V30 3583 H 346.428 -0.678125 -1.93035 0
M  V30 3584 H 346.438 0.557906 -4.04168 0
M  V30 3585 H 345.113 -0.592007 -4.11665 0
M  V30 3586 H 343.69 1.14882 -3.54763 0
M  V30 3587 N 345.875 1.56104 -0.216619 0
M  V30 3588 C 346.805 2.23063 0.690296 0
M  V30 3589 C 347.786 1.20072 1.20485 0
M  V30 3590 O 348.971 1.48643 1.24976 0
M  V30 3591 C 346.101 2.90672 1.90072 0
M  V30 3592 C 345.055 4.00092 1.5202 0
M  V30 3593 C 344.381 4.54972 2.80899 0
M  V30 3594 C 345.681 5.17398 0.71391 0
M  V30 3595 H 347.375 2.99109 0.132038 0
M  V30 3596 H 344.921 1.43866 0.0620664 0
M  V30 3597 H 346.874 3.36204 2.54057 0
M  V30 3598 H 345.598 2.12066 2.48386 0
M  V30 3599 H 344.257 3.55283 0.903839 0
M  V30 3600 H 343.905 3.73102 3.37348 0
M  V30 3601 H 343.605 5.28817 2.56176 0
M  V30 3602 H 345.129 5.0322 3.45836 0
M  V30 3603 H 346.543 5.59342 1.25735 0
M  V30 3604 H 344.94 5.97444 0.563951 0
M  V30 3605 H 346.01 4.84088 -0.280527 0
M  V30 3606 N 347.353 -0.0568162 1.57498 0
M  V30 3607 C 348.316 -1.05038 2.03715 0
M  V30 3608 C 349.316 -1.30709 0.936577 0
M  V30 3609 O 350.506 -1.26178 1.20103 0
M  V30 3610 C 347.638 -2.39034 2.43055 0
M  V30 3611 H 348.831 -0.651715 2.92733 0
M  V30 3612 H 346.384 -0.302947 1.53336 0
M  V30 3613 H 347.119 -2.83703 1.57108 0
M  V30 3614 H 346.904 -2.21739 3.2338 0
M  V30 3615 H 348.394 -3.10421 2.79336 0
M  V30 3616 N 348.832 -1.54138 -0.328536 0
M  V30 3617 C 349.795 -1.82462 -1.38709 0
M  V30 3618 C 350.795 -0.696229 -1.44946 0
M  V30 3619 O 351.985 -0.964535 -1.4506 0
M  V30 3620 C 349.117 -1.98018 -2.77492 0
M  V30 3621 H 350.31 -2.77037 -1.14851 0
M  V30 3622 H 347.863 -1.45779 -0.563751 0
M  V30 3623 H 348.598 -1.05637 -3.06613 0
M  V30 3624 H 348.383 -2.80124 -2.74359 0
M  V30 3625 H 349.873 -2.21396 -3.54081 0
M  V30 3626 N 350.31 0.590341 -1.46126 0
M  V30 3627 C 351.22 1.72793 -1.58681 0
M  V30 3628 C 352.236 1.67516 -0.470566 0
M  V30 3629 O 353.412 1.87562 -0.733642 0
M  V30 3630 C 350.477 3.09287 -1.5666 0
M  V30 3631 C 349.538 3.25886 -2.79458 0
M  V30 3632 C 348.771 4.55869 -2.77524 0
M  V30 3633 O 348.994 5.3928 -1.85832 0
M  V30 3634 O 347.928 4.75552 -3.68964 0
M  V30 3635 H 351.754 1.65149 -2.54872 0
M  V30 3636 H 349.339 0.756486 -1.28832 0
M  V30 3637 H 351.221 3.90577 -1.58202 0
M  V30 3638 H 349.896 3.17385 -0.636271 0
M  V30 3639 H 348.803 2.44119 -2.83472 0
M  V30 3640 H 350.136 3.22675 -3.71674 0
M  V30 3641 N 351.788 1.33704 0.83433 0
M  V30 3642 C 352.718 1.26967 1.95963 0
M  V30 3643 C 353.699 0.149337 1.69443 0
M  V30 3644 O 354.884 0.339852 1.91203 0
M  V30 3645 C 352.014 1.01275 3.32206 0
M  V30 3646 C 350.968 2.09652 3.73136 0
M  V30 3647 C 350.294 1.69166 5.07235 0
M  V30 3648 C 351.594 3.51372 3.86439 0
M  V30 3649 H 353.288 2.2112 2.01857 0
M  V30 3650 H 350.834 1.06447 0.969793 0
M  V30 3651 H 352.787 0.952106 4.10503 0
M  V30 3652 H 351.511 0.0356203 3.26581 0
M  V30 3653 H 350.17 2.14766 2.97104 0
M  V30 3654 H 349.818 0.701437 4.98085 0
M  V30 3655 H 349.518 2.41694 5.35591 0
M  V30 3656 H 351.042 1.64576 5.88003 0
M  V30 3657 H 352.456 3.48734 4.55036 0
M  V30 3658 H 350.853 4.22425 4.26236 0
M  V30 3659 H 351.923 3.89546 2.88759 0
M  V30 3660 N 353.266 -1.05314 1.17247 0
M  V30 3661 C 354.216 -2.11313 0.856196 0
M  V30 3662 C 355.2 -1.60013 -0.168694 0
M  V30 3663 O 356.392 -1.76968 0.0335624 0
M  V30 3664 C 353.521 -3.41301 0.369917 0
M  V30 3665 C 352.607 -3.99401 1.42616 0
M  V30 3666 N 352.998 -4.31481 2.63928 0
M  V30 3667 C 351.296 -4.27126 1.28373 0
M  V30 3668 C 351.997 -4.77799 3.31787 0
M  V30 3669 N 350.973 -4.77843 2.59166 0
M  V30 3670 H 354.775 -2.33976 1.77856 0
M  V30 3671 H 352.289 -1.2295 1.06099 0
M  V30 3672 H 354.286 -4.16713 0.124897 0
M  V30 3673 H 352.946 -3.20072 -0.546253 0
M  V30 3674 H 353.957 -4.21519 3.00902 0
M  V30 3675 H 350.634 -4.15289 0.429111 0
M  V30 3676 H 352.024 -5.11743 4.35395 0
M  V30 3677 N 354.744 -0.972509 -1.24016 0
M  V30 3678 C 355.707 -0.511403 -2.23422 0
M  V30 3679 C 356.707 0.394679 -1.55881 0
M  V30 3680 O 357.897 0.189469 -1.73167 0
M  V30 3681 C 355.029 0.258769 -3.39916 0
M  V30 3682 H 356.222 -1.39024 -2.6573 0
M  V30 3683 H 353.775 -0.757585 -1.36713 0
M  V30 3684 H 354.51 1.1545 -3.03054 0
M  V30 3685 H 354.295 -0.391522 -3.9014 0
M  V30 3686 H 355.785 0.570244 -4.13688 0
M  V30 3687 N 356.222 1.38976 -0.743202 0
M  V30 3688 C 357.471 1.99581 -0.291592 0
M  V30 3689 C 357.784 1.59656 1.13001 0
M  V30 3690 O 358.99 2.13157 1.68156 0
M  V30 3691 C 357.446 3.56813 -0.470391 0
M  V30 3692 C 357.054 4.05695 -1.90041 0
M  V30 3693 C 358.798 4.24423 -0.0809709 0
M  V30 3694 C 356.705 5.5553 -2.02832 0
M  V30 3695 H 355.635 0.746615 -0.105272 0
M  V30 3696 H 358.286 1.58872 -0.918258 0
M  V30 3697 H 356.668 3.95359 0.225299 0
M  V30 3698 H 357.842 3.78464 -2.62872 0
M  V30 3699 H 356.157 3.50775 -2.24379 0
M  V30 3700 H 358.754 5.34474 -0.155445 0
M  V30 3701 H 359.097 4.04962 0.96497 0
M  V30 3702 H 359.63 3.9108 -0.728124 0
M  V30 3703 H 356.369 5.79881 -3.05643 0
M  V30 3704 H 355.889 5.84537 -1.34448 0
M  V30 3705 H 357.568 6.21069 -1.81335 0
M  V30 3706 N 357.7 0.491464 1.49741 0
M  V30 3707 C 358.948 -0.0563141 2.02022 0
M  V30 3708 C 359.269 -1.38363 1.37407 0
M  V30 3709 O 358.539 -1.88702 0.526166 0
M  V30 3710 H 357.119 -0.0238014 0.746621 0
M  V30 3711 H 359.781 0.646533 1.83864 0
M  V30 3712 H 358.877 -0.192967 3.11503 0
M  V30 3713 N 359.178 -1.55987 0.224894 0
M  V30 3714 C 360.126 -2.21808 -0.700283 0
M  V30 3715 C 361.12 -1.19854 -1.19714 0
M  V30 3716 O 362.326 -1.37925 -1.15658 0
M  V30 3717 H 358.701 -0.711226 -0.244258 0
M  V30 3718 H 360.672 -2.98152 -0.121749 0
M  V30 3719 C 359.421 -2.91444 -1.8962 0
M  V30 3720 H 358.744 -3.69655 -1.52299 0
M  V30 3721 H 360.184 -3.40894 -2.52125 0
M  V30 3722 C 358.643 -1.94098 -2.75368 0
M  V30 3723 O 359.173 -1.46004 -3.74227 0
M  V30 3724 N 357.379 -1.61675 -2.41474 0
M  V30 3725 H 356.926 -2.00979 -1.61137 0
M  V30 3726 H 356.884 -0.968036 -2.99126 0
M  V30 3727 N 360.656 0.0484629 -1.57525 0
M  V30 3728 C 361.904 0.741657 -1.88 0
M  V30 3729 C 362.225 1.76918 -0.820054 0
M  V30 3730 O 361.495 1.95335 0.148661 0
M  V30 3731 H 360.075 0.276908 -0.69378 0
M  V30 3732 H 362.737 0.019013 -1.94891 0
M  V30 3733 H 361.833 1.24336 -2.86264 0
M  V30 3734 N 362.134 1.5431 0.320358 0
M  V30 3735 C 363.097 1.83195 1.3774 0
M  V30 3736 C 364.097 0.703906 1.44575 0
M  V30 3737 O 365.287 0.972214 1.44546 0
M  V30 3738 C 362.419 1.99487 2.76438 0
M  V30 3739 H 363.612 2.77642 1.1338 0
M  V30 3740 H 361.165 1.46076 0.556012 0
M  V30 3741 H 361.9 1.07262 3.06048 0
M  V30 3742 H 361.685 2.81575 2.7287 0
M  V30 3743 H 363.175 2.23271 3.52902 0
M  V30 3744 N 363.613 -0.582584 1.46437 0
M  V30 3745 C 364.89 -1.34276 1.4223 0
M  V30 3746 C 365.27 -2.10835 0.10583 0
M  V30 3747 O 364.618 -2.09485 -0.912596 0
M  V30 3748 C 364.828 -2.26865 2.65204 0
M  V30 3749 C 366.176 -2.88691 3.11356 0
M  V30 3750 O 367.2 -2.37178 2.65753 0
M  V30 3751 O 366.059 -3.82255 3.90568 0
M  V30 3752 H 363.153 -0.603326 0.565621 0
M  V30 3753 H 365.699 -0.603591 1.58603 0
M  V30 3754 H 364.471 -1.69724 3.52576 0
M  V30 3755 H 364.094 -3.08122 2.5129 0
M  V30 3756 N 365.091 -1.34144 -0.827227 0
M  V30 3757 C 366.321 -1.29138 -1.61267 0
M  V30 3758 C 366.729 0.137597 -1.88699 0
M  V30 3759 O 366.072 1.09379 -1.47587 0
M  V30 3760 C 366.134 -2.0097 -2.9808 0
M  V30 3761 C 365.798 -3.50242 -2.93563 0
M  V30 3762 C 366.795 -4.4523 -2.68452 0
M  V30 3763 C 364.48 -3.92592 -3.13331 0
M  V30 3764 C 366.474 -5.80542 -2.63154 0
M  V30 3765 C 364.161 -5.28005 -3.07658 0
M  V30 3766 C 365.159 -6.21792 -2.82602 0
M  V30 3767 O 364.847 -7.54723 -2.76853 0
M  V30 3768 H 364.579 -0.445851 -0.508127 0
M  V30 3769 H 367.133 -1.77263 -1.03763 0
M  V30 3770 H 365.363 -1.47451 -3.57484 0
M  V30 3771 H 367.052 -1.89309 -3.5905 0
M  V30 3772 H 367.818 -4.13832 -2.52919 0
M  V30 3773 H 363.697 -3.19994 -3.31851 0
M  V30 3774 H 367.241 -6.53717 -2.43516 0
M  V30 3775 H 363.138 -5.59023 -3.22743 0
M  V30 3776 H 363.906 -7.64409 -2.92611 0
M  V30 3777 N 366.569 1.04691 -1.17803 0
M  V30 3778 C 367.815 1.78045 -0.970969 0
M  V30 3779 C 368.148 1.87686 0.498751 0
M  V30 3780 O 367.423 1.38035 1.37027 0
M  V30 3781 C 367.706 3.2166 -1.61884 0
M  V30 3782 C 367.559 3.20001 -3.161 0
M  V30 3783 C 368.878 4.1962 -1.3269 0
M  V30 3784 H 365.997 0.64633 -0.354155 0
M  V30 3785 H 368.639 1.22333 -1.45378 0
M  V30 3786 H 366.789 3.69232 -1.20831 0
M  V30 3787 H 368.461 2.80467 -3.66246 0
M  V30 3788 H 366.704 2.58203 -3.48588 0
M  V30 3789 H 367.375 4.21386 -3.56564 0
M  V30 3790 H 369.851 3.80567 -1.68249 0
M  V30 3791 H 368.727 5.18339 -1.80599 0
M  V30 3792 H 368.988 4.414 -0.248622 0
M  V30 3793 N 368.047 0.979072 1.23499 0
M  V30 3794 C 369.463 0.687475 1.44034 0
M  V30 3795 C 369.663 -0.746801 1.8715 0
M  V30 3796 O 368.719 -1.51939 2.0167 0
M  V30 3797 C 370.032 1.68127 2.49307 0
M  V30 3798 C 371.58 1.69516 2.63122 0
M  V30 3799 C 372.055 2.67723 3.71603 0
M  V30 3800 N 373.546 2.66233 3.79044 0
M  V30 3801 C 374.281 3.38891 4.62537 0
M  V30 3802 N 373.777 4.21103 5.50131 0
M  V30 3803 N 375.57 3.27661 4.56721 0
M  V30 3804 H 367.721 1.90559 0.938135 0
M  V30 3805 H 369.984 0.821051 0.473897 0
M  V30 3806 H 369.69 2.70693 2.2454 0
M  V30 3807 H 369.564 1.46306 3.4767 0
M  V30 3808 H 371.951 0.676561 2.8724 0
M  V30 3809 H 372.032 1.95404 1.65079 0
M  V30 3810 H 371.676 3.69724 3.48233 0
M  V30 3811 H 371.606 2.39111 4.69184 0
M  V30 3812 H 374.097 2.06568 3.16446 0
M  V30 3813 H 374.41 4.73403 6.10827 0
M  V30 3814 H 372.755 4.25195 5.49759 0
M  V30 3815 H 375.946 2.62887 3.87309 0
M  V30 3816 H 376.119 3.84547 5.21562 0
M  V30 3817 N 369.525 -1.3858 0.750561 0
M  V30 3818 C 370.753 -2.04471 0.316098 0
M  V30 3819 C 371.168 -1.56606 -1.05452 0
M  V30 3820 O 370.525 -0.737784 -1.66922 0
M  V30 3821 C 370.576 -3.60025 0.326275 0
M  V30 3822 O 370.297 -4.06133 1.6428 0
M  V30 3823 C 371.798 -4.43131 -0.122429 0
M  V30 3824 H 369.018 -0.65717 0.135528 0
M  V30 3825 H 371.562 -1.77329 1.01857 0
M  V30 3826 H 369.717 -3.86014 -0.327431 0
M  V30 3827 H 370.131 -5.00547 1.56693 0
M  V30 3828 H 371.605 -5.51963 -0.0641473 0
M  V30 3829 H 372.082 -4.23333 -1.16988 0
M  V30 3830 H 372.688 -4.22323 0.50229 0
M  V30 3831 N 371.003 -0.499398 -1.49478 0
M  V30 3832 C 371.953 0.299103 -2.2603 0
M  V30 3833 C 372.937 0.936934 -1.30807 0
M  V30 3834 O 374.129 0.844798 -1.55538 0
M  V30 3835 C 371.258 1.36391 -3.15044 0
M  V30 3836 C 370.344 0.732398 -4.17728 0
M  V30 3837 N 370.735 -0.164028 -5.05534 0
M  V30 3838 C 369.033 0.993162 -4.34801 0
M  V30 3839 C 369.734 -0.525345 -5.79323 0
M  V30 3840 N 368.71 0.106348 -5.43496 0
M  V30 3841 H 372.512 -0.391003 -2.91287 0
M  V30 3842 H 370.026 -0.31537 -1.59308 0
M  V30 3843 H 372.023 1.94939 -3.68516 0
M  V30 3844 H 370.683 2.05571 -2.51338 0
M  V30 3845 H 371.694 -0.534736 -5.15132 0
M  V30 3846 H 368.371 1.67783 -3.82302 0
M  V30 3847 H 369.761 -1.25862 -6.60006 0
M  V30 3848 N 372.481 1.55866 -0.233164 0
M  V30 3849 C 373.444 2.1953 0.658715 0
M  V30 3850 C 374.444 1.16053 1.11303 0
M  V30 3851 O 375.634 1.41218 1.01996 0
M  V30 3852 C 372.766 2.82791 1.90373 0
M  V30 3853 H 373.959 2.99721 0.10347 0
M  V30 3854 H 371.512 1.56291 0.0164245 0
M  V30 3855 H 372.247 2.06501 2.50056 0
M  V30 3856 H 372.032 3.58578 1.58632 0
M  V30 3857 H 373.522 3.31556 2.53891 0
M  V30 3858 N 373.959 -0.0401083 1.57549 0
M  V30 3859 C 375.37 -0.588097 1.77196 0
M  V30 3860 C 375.721 -1.76209 0.862832 0
M  V30 3861 O 374.846 -2.16331 0.0548389 0
M  V30 3862 C 375.441 -1.07363 3.21339 0
M  V30 3863 C 374 -1.56723 3.42221 0
M  V30 3864 C 373.147 -0.50041 2.72747 0
M  V30 3865 H 376.098 0.186119 1.57605 0
M  V30 3866 H 376.119 -1.94143 3.27244 0
M  V30 3867 H 375.631 -0.218975 3.87482 0
M  V30 3868 H 373.732 -2.4441 2.81237 0
M  V30 3869 H 373.845 -1.62234 4.50796 0
M  V30 3870 H 372.209 -0.952894 2.36203 0
M  V30 3871 H 372.992 0.344599 3.41566 0
M  V30 3872 N 375.437 -1.54477 -0.31217 0
M  V30 3873 C 376.685 -1.72884 -1.04668 0
M  V30 3874 C 377.006 -0.511477 -1.88173 0
M  V30 3875 O 376.276 0.474407 -1.90069 0
M  V30 3876 H 374.856 -0.637461 -0.389425 0
M  V30 3877 H 377.518 -1.91807 -0.345852 0
M  V30 3878 H 376.614 -2.61334 -1.70619 0
M  V30 3879 N 376.915 0.57481 -1.46744 0
M  V30 3880 C 378.192 1.3352 -1.4294 0
M  V30 3881 C 378.572 2.10775 -0.117009 0
M  V30 3882 O 377.92 2.09966 0.901474 0
M  V30 3883 C 378.13 2.25456 -2.66403 0
M  V30 3884 C 379.478 2.87035 -3.12883 0
M  V30 3885 O 380.502 2.35766 -2.67007 0
M  V30 3886 O 379.361 3.80179 -3.92589 0
M  V30 3887 H 376.455 0.600318 -0.568812 0
M  V30 3888 H 379.001 0.595171 -1.58921 0
M  V30 3889 H 377.773 1.67851 -3.53471 0
M  V30 3890 H 377.396 3.06785 -2.52921 0
M  V30 3891 N 378.394 1.34581 0.820102 0
M  V30 3892 C 379.324 1.29038 1.94606 0
M  V30 3893 C 380.305 0.1673 1.69275 0
M  V30 3894 O 381.49 0.360112 1.90832 0
M  V30 3895 C 378.62 1.04793 3.31113 0
M  V30 3896 C 377.574 2.13597 3.70891 0
M  V30 3897 C 376.9 1.74537 5.05412 0
M  V30 3898 C 378.2 3.55451 3.8269 0
M  V30 3899 H 379.894 2.23248 1.99501 0
M  V30 3900 H 377.44 1.0747 0.958449 0
M  V30 3901 H 379.393 0.995592 4.0947 0
M  V30 3902 H 378.117 0.0702565 3.26524 0
M  V30 3903 H 376.776 2.17905 2.9481 0
M  V30 3904 H 376.424 0.754226 4.97313 0
M  V30 3905 H 376.124 2.47361 5.32997 0
M  V30 3906 H 377.648 1.70803 5.86224 0
M  V30 3907 H 379.062 3.5354 4.51312 0
M  V30 3908 H 377.459 4.26922 4.21732 0
M  V30 3909 H 378.529 3.92587 2.84611 0
M  V30 3910 N 379.872 -1.04064 1.18357 0
M  V30 3911 C 381.288 -1.2947 0.933258 0
M  V30 3912 C 381.488 -1.97466 -0.401169 0
M  V30 3913 O 380.544 -2.25528 -1.13549 0
M  V30 3914 C 381.857 -2.15337 2.09882 0
M  V30 3915 C 383.405 -2.28683 2.13712 0
M  V30 3916 C 383.88 -3.17917 3.29686 0
M  V30 3917 N 385.371 -3.25504 3.29547 0
M  V30 3918 C 386.106 -3.94706 4.15926 0
M  V30 3919 N 385.602 -4.66239 5.12439 0
M  V30 3920 N 387.395 -3.90986 4.0384 0
M  V30 3921 H 379.546 -0.583359 2.04232 0
M  V30 3922 H 381.809 -0.319921 0.892387 0
M  V30 3923 H 381.515 -1.72682 3.06389 0
M  V30 3924 H 381.389 -3.16015 2.05947 0
M  V30 3925 H 383.776 -2.70575 1.17784 0
M  V30 3926 H 383.857 -1.27596 2.21705 0
M  V30 3927 H 383.501 -2.76736 4.25887 0
M  V30 3928 H 383.431 -4.19036 3.1893 0
M  V30 3929 H 385.922 -2.74547 2.59677 0
M  V30 3930 H 386.235 -5.16638 5.74722 0
M  V30 3931 H 384.58 -4.65143 5.16398 0
M  V30 3932 H 387.771 -3.34234 3.27727 0
M  V30 3933 H 387.944 -4.44646 4.71375 0
M  V30 3934 N 381.35 -0.985608 -1.22978 0
M  V30 3935 C 382.575 -0.675254 -1.961 0
M  V30 3936 C 383 0.752154 -1.72407 0
M  V30 3937 O 382.358 1.5131 -0.998751 0
M  V30 3938 C 382.406 -0.977899 -3.47087 0
M  V30 3939 O 381.51 -0.072685 -4.12336 0
M  V30 3940 H 380.851 -0.253443 -0.613728 0
M  V30 3941 H 383.381 -1.32061 -1.56272 0
M  V30 3942 H 383.391 -0.916739 -3.97567 0
M  V30 3943 H 382.066 -2.01807 -3.63657 0
M  V30 3944 H 380.643 -0.188703 -3.72422 0
M  V30 3945 N 382.828 1.3818 -0.7579 0
M  V30 3946 C 383.791 2.28764 -0.141286 0
M  V30 3947 C 384.791 1.47388 0.642907 0
M  V30 3948 O 385.981 1.67781 0.468536 0
M  V30 3949 C 383.113 3.31184 0.808069 0
M  V30 3950 H 384.306 2.848 -0.939633 0
M  V30 3951 H 381.859 1.47212 -0.525191 0
M  V30 3952 H 382.594 2.80247 1.63193 0
M  V30 3953 H 382.379 3.91314 0.248104 0
M  V30 3954 H 383.869 3.98909 1.23536 0
M  V30 3955 N 384.306 0.507319 1.49211 0
M  V30 3956 C 385.555 -0.0368315 2.01666 0
M  V30 3957 C 385.868 -1.37459 1.39156 0
M  V30 3958 O 387.074 -2.00579 1.82976 0
M  V30 3959 C 385.53 -0.116089 3.59713 0
M  V30 3960 C 385.138 1.2154 4.31198 0
M  V30 3961 C 386.882 -0.610268 4.2009 0
M  V30 3962 C 384.789 1.09796 5.81119 0
M  V30 3963 H 383.719 -0.0175376 0.753796 0
M  V30 3964 H 386.37 0.647691 1.71689 0
M  V30 3965 H 384.752 -0.8652 3.86433 0
M  V30 3966 H 385.926 1.9783 4.16173 0
M  V30 3967 H 384.241 1.64352 3.82593 0
M  V30 3968 H 386.838 -0.715742 5.29888 0
M  V30 3969 H 387.181 -1.61064 3.8388 0
M  V30 3970 H 387.714 0.0824916 3.97714 0
M  V30 3971 H 384.453 2.0728 6.21864 0
M  V30 3972 H 383.973 0.376058 5.9862 0
M  V30 3973 H 385.652 0.779281 6.4229 0
M  V30 3974 N 385.784 -1.5574 0.241426 0
M  V30 3975 C 387.012 -2.03208 -0.389134 0
M  V30 3976 C 387.427 -1.12082 -1.51931 0
M  V30 3977 O 386.784 -0.134183 -1.82006 0
M  V30 3978 C 386.835 -3.50064 -0.902087 0
M  V30 3979 O 386.556 -4.37717 0.18305 0
M  V30 3980 C 388.057 -4.13268 -1.60389 0
M  V30 3981 H 385.277 -0.664509 -0.0931053 0
M  V30 3982 H 387.821 -2.0124 0.36369 0
M  V30 3983 H 385.976 -3.52583 -1.60511 0
M  V30 3984 H 386.39 -5.24097 -0.205579 0
M  V30 3985 H 387.864 -5.17733 -1.91458 0
M  V30 3986 H 388.341 -3.59434 -2.52397 0
M  V30 3987 H 388.947 -4.14655 -0.945576 0
M  V30 3988 N 387.262 0.0317525 -1.57568 0
M  V30 3989 C 388.509 0.723104 -1.89149 0
M  V30 3990 C 388.837 1.75504 -0.838377 0
M  V30 3991 O 388.092 1.95037 0.160982 0
M  V30 3992 C 388.391 1.43167 -3.27472 0
M  V30 3993 C 388.057 0.535972 -4.47703 0
M  V30 3994 C 386.719 0.289262 -4.8033 0
M  V30 3995 C 389.071 -0.0826125 -5.21135 0
M  V30 3996 C 386.399 -0.584853 -5.83778 0
M  V30 3997 C 388.751 -0.944414 -6.25511 0
M  V30 3998 C 387.415 -1.20061 -6.56614 0
M  V30 3999 H 386.685 0.264602 -0.692146 0
M  V30 4000 H 389.332 -0.0169496 -1.91492 0
M  V30 4001 H 387.637 2.24497 -3.21105 0
M  V30 4002 H 389.334 1.97209 -3.49155 0
M  V30 4003 H 385.924 0.738414 -4.22191 0
M  V30 4004 H 390.108 0.0950302 -4.96209 0
M  V30 4005 H 385.364 -0.79168 -6.06253 0
M  V30 4006 H 389.538 -1.43026 -6.81554 0
M  V30 4007 H 387.165 -1.87967 -7.36595 0
M  V30 4008 N 388.74 1.54641 0.303973 0
M  V30 4009 C 389.965 1.78092 1.06292 0
M  V30 4010 C 390.39 0.537342 1.80262 0
M  V30 4011 O 389.748 -0.511993 1.7392 0
M  V30 4012 C 389.796 2.98612 2.02147 0
M  V30 4013 O 388.9 2.71528 3.10397 0
M  V30 4014 H 388.241 0.589548 0.305497 0
M  V30 4015 H 390.771 2.01716 0.3423 0
M  V30 4016 H 390.781 3.265 2.44667 0
M  V30 4017 H 389.456 3.88785 1.47714 0
M  V30 4018 H 388.033 2.54648 2.72413 0
M  V30 4019 N 390.218 -0.567019 1.47046 0
M  V30 4020 C 391.128 -1.70247 1.6141 0
M  V30 4021 C 392.144 -1.66746 0.497157 0
M  V30 4022 O 393.32 -1.86371 0.763389 0
M  V30 4023 C 390.385 -3.06756 1.61561 0
M  V30 4024 C 389.446 -3.21399 2.84607 0
M  V30 4025 C 388.679 -4.51396 2.84741 0
M  V30 4026 O 388.902 -5.36255 1.94388 0
M  V30 4027 O 387.836 -4.69621 3.76483 0
M  V30 4028 H 391.662 -1.61073 2.57467 0
M  V30 4029 H 389.247 -0.735894 1.30019 0
M  V30 4030 H 391.129 -3.8801 1.64396 0
M  V30 4031 H 389.804 -3.16333 0.686684 0
M  V30 4032 H 388.711 -2.39579 2.8732 0
M  V30 4033 H 390.044 -3.16721 3.76761 0
M  V30 4034 N 391.696 -1.35014 -0.812953 0
M  V30 4035 C 392.924 -1.31031 -1.6012 0
M  V30 4036 C 393.339 0.113558 -1.88458 0
M  V30 4037 O 392.696 1.06363 -1.48301 0
M  V30 4038 C 392.747 -2.10872 -2.93624 0
M  V30 4039 O 392.468 -3.47706 -2.66518 0
M  V30 4040 C 393.969 -2.14401 -3.88004 0
M  V30 4041 H 391.189 -0.45037 -0.497401 0
M  V30 4042 H 393.733 -1.77775 -1.01076 0
M  V30 4043 H 391.888 -1.67744 -3.492 0
M  V30 4044 H 392.302 -3.89097 -3.51715 0
M  V30 4045 H 393.776 -2.74669 -4.78812 0
M  V30 4046 H 394.253 -1.14105 -4.24119 0
M  V30 4047 H 394.859 -2.57662 -3.38364 0
M  V30 4048 N 393.175 1.03435 -1.18907 0
M  V30 4049 C 394.105 2.13503 -0.945448 0
M  V30 4050 C 395.086 1.69682 0.119189 0
M  V30 4051 O 396.271 1.94169 -0.034707 0
M  V30 4052 C 393.401 3.44004 -0.477316 0
M  V30 4053 C 392.355 4.0148 -1.48316 0
M  V30 4054 C 391.681 5.27537 -0.872311 0
M  V30 4055 C 392.981 4.36921 -2.86177 0
M  V30 4056 H 394.675 2.34141 -1.86597 0
M  V30 4057 H 392.221 1.12523 -0.898584 0
M  V30 4058 H 394.174 4.20372 -0.294204 0
M  V30 4059 H 392.898 3.23072 0.478786 0
M  V30 4060 H 391.557 3.27201 -1.65332 0
M  V30 4061 H 391.205 5.02917 0.0911752 0
M  V30 4062 H 390.905 5.66954 -1.54393 0
M  V30 4063 H 392.429 6.06576 -0.699871 0
M  V30 4064 H 393.843 5.04248 -2.72776 0
M  V30 4065 H 392.24 4.87405 -3.50081 0
M  V30 4066 H 393.31 3.46466 -3.39248 0
M  V30 4067 N 394.653 0.992116 1.22453 0
M  V30 4068 C 395.616 0.546883 2.2258 0
M  V30 4069 C 396.616 -0.369829 1.56489 0
M  V30 4070 O 397.806 -0.161896 1.73446 0
M  V30 4071 C 394.938 -0.204659 3.40285 0
M  V30 4072 H 396.131 1.43234 2.63484 0
M  V30 4073 H 393.684 0.779239 1.3549 0
M  V30 4074 H 394.419 -1.10614 3.04853 0
M  V30 4075 H 394.204 0.45354 3.89468 0
M  V30 4076 H 395.694 -0.504358 4.14543 0
M  V30 4077 N 396.131 -1.37776 0.765217 0
M  V30 4078 C 397.078 -2.30342 0.145274 0
M  V30 4079 C 398.048 -1.5077 -0.696971 0
M  V30 4080 O 399.233 -1.79362 -0.650689 0
M  V30 4081 C 396.373 -3.37227 -0.732939 0
M  V30 4082 C 395.486 -4.31819 0.125199 0
M  V30 4083 C 394.621 -5.25777 -0.757107 0
M  V30 4084 C 393.66 -6.12012 0.103963 0
M  V30 4085 N 392.797 -6.98232 -0.735953 0
M  V30 4086 H 397.637 -2.8278 0.940195 0
M  V30 4087 H 395.174 -1.39211 0.475255 0
M  V30 4088 H 397.132 -3.97818 -1.25686 0
M  V30 4089 H 395.762 -2.86171 -1.49353 0
M  V30 4090 H 394.814 -3.7259 0.766865 0
M  V30 4091 H 396.126 -4.92509 0.789683 0
M  V30 4092 H 395.28 -5.91541 -1.34776 0
M  V30 4093 H 394.019 -4.65481 -1.45529 0
M  V30 4094 H 393.024 -5.45233 0.707197 0
M  V30 4095 H 394.249 -6.74379 0.799381 0
M  V30 4096 H 392.195 -6.40472 -1.41887 0
M  V30 4097 H 392.112 -7.55891 -0.128624 0
M  V30 4098 H 393.38 -7.68393 -1.31121 0
M  V30 4099 N 397.609 -0.515225 -1.4894 0
M  V30 4100 C 398.856 0.024215 -2.02486 0
M  V30 4101 C 399.184 1.35671 -1.39368 0
M  V30 4102 O 398.439 1.88566 -0.523574 0
M  V30 4103 C 398.738 0.210595 -3.56779 0
M  V30 4104 C 398.404 -1.04569 -4.38607 0
M  V30 4105 C 397.066 -1.39002 -4.60686 0
M  V30 4106 C 399.418 -1.88008 -4.86109 0
M  V30 4107 C 396.746 -2.568 -5.27514 0
M  V30 4108 C 399.098 -3.04972 -5.54234 0
M  V30 4109 C 397.762 -3.39768 -5.74555 0
M  V30 4110 H 397.032 0.00886088 -0.740947 0
M  V30 4111 H 399.679 -0.678263 -1.79086 0
M  V30 4112 H 397.984 0.99572 -3.78936 0
M  V30 4113 H 399.681 0.642659 -3.95817 0
M  V30 4114 H 396.271 -0.767497 -4.21672 0
M  V30 4115 H 400.455 -1.62719 -4.68867 0
M  V30 4116 H 395.711 -2.8398 -5.41447 0
M  V30 4117 H 399.885 -3.69943 -5.90013 0
M  V30 4118 H 397.512 -4.31148 -6.26112 0
M  V30 4119 N 399.087 1.5561 -0.249682 0
M  V30 4120 C 400.503 1.59254 0.105103 0
M  V30 4121 C 400.703 1.26685 1.56694 0
M  V30 4122 O 399.759 1.0155 2.31179 0
M  V30 4123 C 401.072 2.99687 -0.246592 0
M  V30 4124 C 402.62 3.12416 -0.191118 0
M  V30 4125 C 403.095 4.55074 -0.516885 0
M  V30 4126 N 404.586 4.60835 -0.467489 0
M  V30 4127 C 405.321 5.69201 -0.69268 0
M  V30 4128 N 404.817 6.85817 -0.981146 0
M  V30 4129 N 406.61 5.58635 -0.623198 0
M  V30 4130 H 398.761 1.75049 -1.20298 0
M  V30 4131 H 401.024 0.815003 -0.484225 0
M  V30 4132 H 400.73 3.28267 -1.26228 0
M  V30 4133 H 400.604 3.74798 0.424962 0
M  V30 4134 H 402.991 2.83615 0.815247 0
M  V30 4135 H 403.072 2.39573 -0.896563 0
M  V30 4136 H 402.716 4.84596 -1.52082 0
M  V30 4137 H 402.646 5.26181 0.210068 0
M  V30 4138 H 405.137 3.7705 -0.253373 0
M  V30 4139 H 405.45 7.64341 -1.14032 0
M  V30 4140 H 403.795 6.87494 -1.01865 0
M  V30 4141 H 406.986 4.66406 -0.397863 0
M  V30 4142 H 407.159 6.43017 -0.802093 0
M  V30 4143 N 400.565 -0.0233959 1.57583 0
M  V30 4144 C 401.79 -0.728376 1.94189 0
M  V30 4145 C 402.215 -1.67793 0.850119 0
M  V30 4146 O 401.573 -1.80262 -0.19371 0
M  V30 4147 C 401.621 -1.45669 3.29868 0
M  V30 4148 O 400.725 -2.57013 3.22518 0
M  V30 4149 H 400.066 -0.195493 0.63457 0
M  V30 4150 H 402.596 0.0228214 2.04587 0
M  V30 4151 H 402.606 -1.82535 3.6489 0
M  V30 4152 H 401.281 -0.760314 4.08891 0
M  V30 4153 H 399.858 -2.22648 2.99136 0
M  V30 4154 N 402.043 -1.548 -0.295768 0
M  V30 4155 C 403.459 -1.4613 -0.641722 0
M  V30 4156 C 403.659 -0.656771 -1.90496 0
M  V30 4157 O 402.715 -0.166547 -2.5195 0
M  V30 4158 C 404.028 -2.90141 -0.789852 0
M  V30 4159 C 405.576 -3.00216 -0.885396 0
M  V30 4160 C 406.051 -4.45434 -1.06548 0
M  V30 4161 N 407.542 -4.49166 -1.13156 0
M  V30 4162 C 408.277 -5.58717 -1.28929 0
M  V30 4163 N 407.773 -6.78182 -1.41567 0
M  V30 4164 N 409.566 -5.46415 -1.31859 0
M  V30 4165 H 401.717 -2.05574 0.534147 0
M  V30 4166 H 403.98 -0.931259 0.177372 0
M  V30 4167 H 403.686 -3.51635 0.0675598 0
M  V30 4168 H 403.56 -3.37859 -1.67724 0
M  V30 4169 H 405.947 -2.38833 -1.73329 0
M  V30 4170 H 406.028 -2.55787 0.0261185 0
M  V30 4171 H 405.672 -5.07413 -0.222335 0
M  V30 4172 H 405.602 -4.87499 -1.9913 0
M  V30 4173 H 408.093 -3.631 -1.04721 0
M  V30 4174 H 408.406 -7.57428 -1.53372 0
M  V30 4175 H 406.751 -6.81037 -1.38613 0
M  V30 4176 H 409.942 -4.5203 -1.21601 0
M  V30 4177 H 410.115 -6.31841 -1.43808 0
M  V30 4178 N 403.521 0.559213 -1.47345 0
M  V30 4179 C 404.798 1.31997 -1.44348 0
M  V30 4180 C 405.178 2.1064 -0.139358 0
M  V30 4181 O 404.526 2.1091 0.879153 0
M  V30 4182 C 404.736 2.22618 -2.68779 0
M  V30 4183 C 406.084 2.83701 -3.1591 0
M  V30 4184 O 407.108 2.32921 -2.69493 0
M  V30 4185 O 405.967 3.75993 -3.966 0
M  V30 4186 H 403.061 0.594251 -0.575147 0
M  V30 4187 H 405.607 0.578282 -1.59543 0
M  V30 4188 H 404.379 1.64093 -3.55231 0
M  V30 4189 H 404.002 3.04085 -2.5616 0
M  V30 4190 N 404.999 1.35443 0.805782 0
M  V30 4191 C 405.962 1.28301 1.89925 0
M  V30 4192 C 406.962 0.194285 1.59622 0
M  V30 4193 O 408.152 0.448036 1.6834 0
M  V30 4194 C 405.284 0.984997 3.2636 0
M  V30 4195 H 406.477 2.2553 1.97677 0
M  V30 4196 H 404.03 1.19979 1.00173 0
M  V30 4197 H 404.765 0.016603 3.24296 0
M  V30 4198 H 404.55 1.77269 3.4974 0
M  V30 4199 H 406.04 0.960651 4.064 0
M  V30 4200 N 406.477 -1.02803 1.19454 0
M  V30 4201 C 407.893 -1.28473 0.946937 0
M  V30 4202 C 408.093 -1.97881 -0.380202 0
M  V30 4203 O 407.149 -2.26719 -1.11151 0
M  V30 4204 C 408.462 -2.13099 2.12154 0
M  V30 4205 C 410.01 -2.26404 2.16126 0
M  V30 4206 C 410.485 -3.14402 3.33039 0
M  V30 4207 N 411.976 -3.21991 3.32981 0
M  V30 4208 C 412.711 -3.90272 4.20089 0
M  V30 4209 N 412.207 -4.60777 5.17355 0
M  V30 4210 N 414 -3.8668 4.07964 0
M  V30 4211 H 406.151 -0.561665 2.04839 0
M  V30 4212 H 408.414 -0.310438 0.89573 0
M  V30 4213 H 408.12 -1.69422 3.08203 0
M  V30 4214 H 407.994 -3.13813 2.09287 0
M  V30 4215 H 410.381 -2.69311 1.20647 0
M  V30 4216 H 410.462 -1.25237 2.23045 0
M  V30 4217 H 410.106 -2.72204 4.28798 0
M  V30 4218 H 410.036 -4.1563 3.23356 0
M  V30 4219 H 412.527 -2.71778 2.62574 0
M  V30 4220 H 412.84 -5.10513 5.80169 0
M  V30 4221 H 411.185 -4.5964 5.21302 0
M  V30 4222 H 414.376 -3.30739 3.31254 0
M  V30 4223 H 414.549 -4.39621 4.76064 0
M  V30 4224 N 407.956 -0.998596 -1.21925 0
M  V30 4225 C 409.233 -0.593401 -1.86382 0
M  V30 4226 C 409.613 0.92916 -1.89552 0
M  V30 4227 O 408.961 1.81347 -1.39017 0
M  V30 4228 C 409.171 -1.22039 -3.26967 0
M  V30 4229 C 410.519 -1.32449 -4.03413 0
M  V30 4230 O 411.543 -1.17522 -3.36254 0
M  V30 4231 O 410.402 -1.56395 -5.23644 0
M  V30 4232 H 407.496 -0.202385 -0.801854 0
M  V30 4233 H 410.042 -1.09484 -1.29659 0
M  V30 4234 H 408.814 -2.26158 -3.19325 0
M  V30 4235 H 408.437 -0.704906 -3.91301 0
M  V30 4236 N 409.434 1.37368 -0.772513 0
M  V30 4237 C 410.85 1.53059 -0.452231 0
M  V30 4238 C 411.05 1.73065 1.03203 0
M  V30 4239 O 410.106 1.75245 1.81784 0
M  V30 4240 C 411.419 2.72659 -1.26797 0
M  V30 4241 C 412.967 2.86521 -1.25995 0
M  V30 4242 C 413.442 4.09105 -2.05905 0
M  V30 4243 N 414.933 4.16219 -2.03263 0
M  V30 4244 C 415.668 5.10107 -2.61875 0
M  V30 4245 N 415.164 6.09547 -3.29278 0
M  V30 4246 N 416.957 5.02596 -2.51701 0
M  V30 4247 H 409.108 1.22634 -1.7342 0
M  V30 4248 H 411.371 0.597206 -0.736239 0
M  V30 4249 H 411.077 2.64343 -2.31982 0
M  V30 4250 H 410.951 3.66363 -0.897672 0
M  V30 4251 H 413.338 2.94308 -0.216081 0
M  V30 4252 H 413.419 1.93774 -1.66989 0
M  V30 4253 H 413.063 4.0208 -3.10313 0
M  V30 4254 H 412.993 5.00968 -1.62292 0
M  V30 4255 H 415.484 3.45012 -1.54192 0
M  V30 4256 H 415.797 6.77718 -3.71374 0
M  V30 4257 H 414.142 6.09824 -3.33377 0
M  V30 4258 H 417.333 4.23855 -1.98657 0
M  V30 4259 H 417.506 5.75582 -2.97673 0
M  V30 4260 N 410.912 0.523116 1.48665 0
M  V30 4261 C 412.16 -0.0134497 2.02096 0
M  V30 4262 C 412.481 -1.35418 1.40311 0
M  V30 4263 O 411.751 -1.87543 0.566074 0
M  V30 4264 H 410.331 -0.00795915 0.746958 0
M  V30 4265 H 412.993 0.685388 1.82451 0
M  V30 4266 H 412.089 -0.126849 3.11842 0
M  V30 4267 N 412.39 -1.55475 0.257931 0
M  V30 4268 C 413.32 -2.24815 -0.630912 0
M  V30 4269 C 414.301 -1.23224 -1.17259 0
M  V30 4270 O 415.486 -1.51904 -1.20991 0
M  V30 4271 C 412.616 -2.95609 -1.82298 0
M  V30 4272 C 411.57 -4.03982 -1.41359 0
M  V30 4273 C 410.896 -4.6226 -2.68738 0
M  V30 4274 C 412.196 -5.19109 -0.57648 0
M  V30 4275 H 413.89 -2.99354 -0.0526878 0
M  V30 4276 H 411.436 -1.4398 -0.023901 0
M  V30 4277 H 413.389 -3.42822 -2.45054 0
M  V30 4278 H 412.113 -2.18577 -2.42676 0
M  V30 4279 H 410.772 -3.57555 -0.809324 0
M  V30 4280 H 410.42 -3.81915 -3.27338 0
M  V30 4281 H 410.12 -5.35424 -2.42065 0
M  V30 4282 H 411.644 -5.12212 -3.32372 0
M  V30 4283 H 413.058 -5.62479 -1.10861 0
M  V30 4284 H 411.455 -5.98729 -0.405351 0
M  V30 4285 H 412.525 -4.83174 0.408776 0
M  V30 4286 N 413.868 0.0150385 -1.57593 0
M  V30 4287 C 415.145 0.7392 -1.81094 0
M  V30 4288 C 415.525 1.92817 -0.859344 0
M  V30 4289 O 414.873 2.28301 0.095362 0
M  V30 4290 C 415.083 1.15907 -3.29191 0
M  V30 4291 C 416.431 1.56918 -3.9454 0
M  V30 4292 O 417.455 1.25328 -3.33424 0
M  V30 4293 O 416.314 2.15604 -5.02173 0
M  V30 4294 H 413.408 0.358631 -0.745193 0
M  V30 4295 H 415.954 -0.00926156 -1.69697 0
M  V30 4296 H 414.726 0.310921 -3.90063 0
M  V30 4297 H 414.349 1.96711 -3.45529 0
M  V30 4298 N 415.346 1.54954 0.287554 0
M  V30 4299 C 416.296 1.8322 1.357 0
M  V30 4300 C 417.28 0.690152 1.45347 0
M  V30 4301 O 418.472 0.951137 1.49273 0
M  V30 4302 C 415.601 2.09481 2.71979 0
M  V30 4303 C 414.687 3.29906 2.66502 0
M  V30 4304 N 415.078 4.50154 2.30641 0
M  V30 4305 C 413.376 3.32203 2.97585 0
M  V30 4306 C 414.077 5.32209 2.34794 0
M  V30 4307 N 413.053 4.70258 2.72688 0
M  V30 4308 H 416.855 2.73746 1.0696 0
M  V30 4309 H 414.369 1.54635 0.496167 0
M  V30 4310 H 416.366 2.27882 3.49107 0
M  V30 4311 H 415.026 1.2023 3.0162 0
M  V30 4312 H 416.037 4.76515 2.02865 0
M  V30 4313 H 412.714 2.53101 3.32034 0
M  V30 4314 H 414.104 6.38321 2.09753 0
M  V30 4315 N 416.824 -0.551391 1.4764 0
M  V30 4316 C 417.787 -1.64007 1.60107 0
M  V30 4317 C 418.787 -1.53601 0.47576 0
M  V30 4318 O 419.977 -1.57655 0.740988 0
M  V30 4319 C 417.109 -3.03569 1.55108 0
M  V30 4320 H 418.302 -1.543 2.57161 0
M  V30 4321 H 415.855 -0.771776 1.35917 0
M  V30 4322 H 416.59 -3.18804 0.594519 0
M  V30 4323 H 416.375 -3.12532 2.36783 0
M  V30 4324 H 417.865 -3.82762 1.66982 0
M  V30 4325 O 418.341 -1.45728 -0.696113 0
M  V30 4326 H 419.032 -1.39109 -1.3479 0
M  V30 END ATOM
M  V30 BEGIN BOND
M  V30 END BOND
M  V30 END CTAB
M  END
$$$$
