drugbank_target|Q494W8 CHRNA7-FAM7A fusion protein (DB07494; DB07720; DB08620; DB11421)
 OpenBabel12092120443D

  0  0  0     0  0            999 V3000
M  V30 BEGIN CTAB
M  V30 COUNTS 9138 9728 0 0 0
M  V30 BEGIN ATOM
M  V30 1 H -2.588 8.49073 -0.0679273 0
M  V30 2 O -1.492 9.37262 0.0843559 0
M  V30 3 P 0 8.791 0 0
M  V30 4 O 1.422 9.31096 0.027933 0
M  V30 5 O -0.36 7.77869 -1.04071 0
M  V30 6 O -0.323 8.09533 1.41463 0
M  V30 7 C -0.483 9.0349 2.53943 0
M  V30 8 C 0.057 8.35226 3.79016 0
M  V30 9 O -0.999 7.57992 4.15078 0
M  V30 10 C 1.275 7.45087 3.67298 0
M  V30 11 O 2.013 7.27796 4.85194 0
M  V30 12 C 0.606 6.17323 3.12027 0
M  V30 13 O 1.405 5.04231 3.47188 0
M  V30 14 C -0.731 6.19961 3.81809 0
M  V30 15 H -0.699 5.58218 4.73051 0
M  V30 16 H 0.484 6.21726 2.02589 0
M  V30 17 H 1.968 7.86112 2.9231 0
M  V30 18 H 0.274 9.11627 4.55076 0
M  V30 19 H 0.084 9.9573 2.34194 0
M  V30 20 H -1.546 9.2792 2.67832 0
M  V30 21 H 1.093 4.67702 4.28772 0
M  V30 22 P 2.95057 7.39546 4.75277 0
M  V30 23 O 4.37257 7.81777 5.05738 0
M  V30 24 O 2.59057 7.1065 3.32998 0
M  V30 25 O 2.62757 6.04542 5.56673 0
M  V30 26 C 2.46757 6.22772 7.02095 0
M  V30 27 C 3.00757 4.97725 7.70406 0
M  V30 28 O 1.95157 4.13256 7.58987 0
M  V30 29 C 4.22557 4.28231 7.11815 0
M  V30 30 O 4.96357 3.49945 8.01648 0
M  V30 31 C 3.55657 3.5063 5.96244 0
M  V30 32 O 4.35557 2.36482 5.64681 0
M  V30 33 C 2.21957 3.15122 6.56374 0
M  V30 34 H 2.25157 2.13853 6.99751 0
M  V30 35 H 3.43457 4.13501 5.06559 0
M  V30 36 H 4.91857 5.03285 6.70911 0
M  V30 37 H 3.22457 5.20877 8.75697 0
M  V30 38 H 3.03457 7.11046 7.35349 0
M  V30 39 H 1.40457 6.35815 7.26986 0
M  V30 40 H 4.04357 1.61644 6.13565 0
M  V30 41 P 5.90114 3.65191 7.99657 0
M  V30 42 O 7.32314 3.8425 8.48115 0
M  V30 43 O 5.54114 4.17805 6.64342 0
M  V30 44 O 5.57814 2.07613 7.95143 0
M  V30 45 C 5.41814 1.44328 9.27336 0
M  V30 46 C 5.95814 0.0220036 9.17197 0
M  V30 47 O 4.90214 -0.626867 8.61923 0
M  V30 48 C 7.17614 -0.24586 8.30336 0
M  V30 49 O 7.91414 -1.39011 8.63583 0
M  V30 50 C 6.50714 -0.273849 6.91158 0
M  V30 51 O 7.30614 -1.06348 6.02892 0
M  V30 52 C 5.17014 -0.897649 7.22545 0
M  V30 53 H 5.20214 -1.9841 7.04286 0
M  V30 54 H 6.38514 0.739928 6.497 0
M  V30 55 H 7.86914 0.60668 8.36503 0
M  V30 56 H 6.17514 -0.352479 10.1829 0
M  V30 57 H 5.98514 2.00611 10.0304 0
M  V30 58 H 4.35514 1.41843 9.55327 0
M  V30 59 H 6.99414 -1.95734 6.03555 0
M  V30 60 P 8.85171 -1.25109 8.70152 0
M  V30 61 O 10.2527 -1.31452 9.27431 0
M  V30 62 O 8.47371 -0.0458113 7.89887 0
M  V30 63 O 8.52871 -2.55201 7.81066 0
M  V30 64 C 8.36871 -3.79939 8.58154 0
M  V30 65 C 8.90871 -4.93969 7.72701 0
M  V30 66 O 7.85271 -5.18666 6.91125 0
M  V30 67 C 10.1257 -4.69597 6.85231 0
M  V30 68 O 10.8647 -5.83832 6.51337 0
M  V30 69 C 9.45871 -3.96706 5.66633 0
M  V30 70 O 10.2567 -4.15346 4.49615 0
M  V30 71 C 8.12071 -4.66153 5.59313 0
M  V30 72 N 7.07771 -3.71582 5.24027 0
M  V30 73 C 6.04271 -4.15133 4.44901 0
M  V30 74 O 6.08171 -5.32122 4.00336 0
M  V30 75 N 5.03071 -3.30554 4.15693 0
M  V30 76 C 5.07871 -2.04701 4.61105 0
M  V30 77 C 6.17471 -1.57111 5.38655 0
M  V30 78 C 7.14071 -2.44234 5.68454 0
M  V30 79 H 8.15271 -5.47604 4.85148 0
M  V30 80 H 9.33571 -2.8955 5.86187 0
M  V30 81 H 10.8197 -4.01995 7.36197 0
M  V30 82 H 9.12571 -5.81019 8.37003 0
M  V30 83 H 8.93471 -3.73517 9.52265 0
M  V30 84 H 7.30471 -3.97122 8.80267 0
M  V30 85 H 6.22271 -0.538464 5.72373 0
M  V30 86 H 7.98671 -2.11927 6.29377 0
M  V30 87 H 10.0407 -4.98352 4.09633 0
M  V30 88 P 11.8023 -5.75688 6.64379 0
M  V30 89 O 13.2033 -6.11991 7.09136 0
M  V30 90 O 11.4243 -4.30899 6.62018 0
M  V30 91 O 11.4793 -6.36965 5.19102 0
M  V30 92 C 11.3193 -7.83578 5.16515 0
M  V30 93 C 11.8593 -8.33307 3.82977 0
M  V30 94 O 10.8033 -8.0998 3.00999 0
M  V30 95 C 13.0763 -7.65514 3.2257 0
M  V30 96 O 13.8153 -8.4329 2.32297 0
M  V30 97 C 12.4093 -6.40075 2.62207 0
M  V30 98 O 13.2073 -5.92492 1.53687 0
M  V30 99 C 11.0713 -6.9454 2.18503 0
M  V30 100 N 10.0283 -5.95905 2.39948 0
M  V30 101 C 8.99328 -5.89764 1.49837 0
M  V30 102 O 9.03228 -6.64088 0.490975 0
M  V30 103 N 7.98128 -5.02821 1.70992 0
M  V30 104 C 8.02928 -4.21498 2.77236 0
M  V30 105 N 7.01928 -3.37475 2.96465 0
M  V30 106 C 9.12528 -4.23389 3.68205 0
M  V30 107 C 10.0913 -5.12792 3.46171 0
M  V30 108 H 11.1033 -7.22964 1.12076 0
M  V30 109 H 12.2863 -5.60502 3.36589 0
M  V30 110 H 13.7703 -7.36197 4.01993 0
M  V30 111 H 12.0763 -9.41302 3.90009 0
M  V30 112 H 11.8853 -8.29056 5.99158 0
M  V30 113 H 10.2553 -8.09989 5.25828 0
M  V30 114 H 9.17328 -3.54747 4.52399 0
M  V30 115 H 10.9373 -5.18551 4.1489 0
M  V30 116 H 6.22928 -3.36058 2.30304 0
M  V30 117 H 7.02428 -2.73846 3.77171 0
M  V30 118 H 12.9913 -6.40705 0.751752 0
M  V30 119 P 14.7528 -8.4349 2.47671 0
M  V30 120 O 16.1748 -8.94167 2.5964 0
M  V30 121 O 14.3928 -7.1704 3.19006 0
M  V30 122 O 14.4298 -8.16596 0.923387 0
M  V30 123 C 14.2698 -9.38437 0.108857 0
M  V30 124 C 14.8098 -9.08175 -1.28353 0
M  V30 125 O 13.7538 -8.44229 -1.84713 0
M  V30 126 C 16.0278 -8.18386 -1.42505 0
M  V30 127 O 16.7659 -8.3501 -2.60497 0
M  V30 128 C 15.3588 -6.80225 -1.25468 0
M  V30 129 O 16.1578 -5.81621 -1.91066 0
M  V30 130 C 14.0218 -7.02416 -1.9168 0
M  V30 131 H 14.0538 -6.6888 -2.96621 0
M  V30 132 H 15.2368 -6.53617 -0.192223 0
M  V30 133 H 16.7208 -8.36622 -0.589963 0
M  V30 134 H 15.0268 -10.0291 -1.79807 0
M  V30 135 H 14.8368 -10.2138 0.558219 0
M  V30 136 H 13.2068 -9.6579 0.0444202 0
M  V30 137 H 15.8458 -5.69556 -2.79637 0
M  V30 138 P 17.7034 -8.4349 -2.47671 0
M  V30 139 O 19.1044 -8.99283 -2.62101 0
M  V30 140 O 17.3254 -7.81195 -1.16947 0
M  V30 141 O 17.3804 -7.36797 -3.63761 0
M  V30 142 C 17.2204 -7.95349 -4.982 0
M  V30 143 C 17.7604 -6.94537 -5.98908 0
M  V30 144 O 16.7044 -6.10277 -6.11744 0
M  V30 145 C 18.9774 -6.11426 -5.62335 0
M  V30 146 O 19.7164 -5.6162 -6.70584 0
M  V30 147 C 18.3104 -5.04409 -4.73308 0
M  V30 148 O 19.1084 -3.85929 -4.75106 0
M  V30 149 C 16.9724 -4.8728 -5.41006 0
M  V30 150 N 15.9294 -4.65812 -4.42377 0
M  V30 151 C 14.8944 -3.81293 -4.74224 0
M  V30 152 O 14.9334 -3.20533 -5.83679 0
M  V30 153 N 13.8824 -3.6442 -3.86349 0
M  V30 154 C 13.9304 -4.2728 -2.6824 0
M  V30 155 C 15.0264 -5.10813 -2.3217 0
M  V30 156 C 15.9924 -5.27909 -3.22647 0
M  V30 157 H 17.0044 -4.02278 -6.11074 0
M  V30 158 H 18.1874 -5.39013 -3.70026 0
M  V30 159 H 19.6714 -6.71494 -5.02675 0
M  V30 160 H 17.9774 -7.45796 -6.94223 0
M  V30 161 H 17.7864 -8.89416 -5.05237 0
M  V30 162 H 16.1564 -8.14791 -5.18355 0
M  V30 163 H 15.0744 -5.58884 -1.34755 0
M  V30 164 H 16.8384 -5.92811 -2.9934 0
M  V30 165 H 18.8924 -3.3454 -5.51577 0
M  V30 166 P 20.654 -5.75688 -6.64379 0
M  V30 167 O 22.076 -6.07627 -7.05504 0
M  V30 168 O 20.294 -5.88047 -5.19722 0
M  V30 169 O 20.331 -4.2322 -7.04443 0
M  V30 170 C 20.171 -3.99743 -8.4911 0
M  V30 171 C 20.711 -2.60516 -8.79425 0
M  V30 172 O 19.655 -1.82684 -8.4467 0
M  V30 173 C 21.929 -2.10343 -8.03628 0
M  V30 174 O 22.667 -1.09919 -8.67766 0
M  V30 175 C 21.26 -1.68446 -6.70876 0
M  V30 176 O 22.059 -0.678137 -6.08433 0
M  V30 177 C 19.923 -1.17436 -7.18567 0
M  V30 178 H 19.955 -0.0804732 -7.31656 0
M  V30 179 H 21.138 -2.54037 -6.02537 0
M  V30 180 H 22.622 -2.93881 -7.85526 0
M  V30 181 H 20.928 -2.53065 -9.86973 0
M  V30 182 H 20.738 -4.75072 -9.05887 0
M  V30 183 H 19.108 -4.05244 -8.76668 0
M  V30 184 H 21.747 0.177647 -6.34251 0
M  V30 185 P 23.6046 -1.25109 -8.70152 0
M  V30 186 O 25.0266 -1.29744 -9.22016 0
M  V30 187 O 23.2446 -2.13714 -7.55141 0
M  V30 188 O 23.2816 0.248149 -8.21425 0
M  V30 189 C 23.1216 1.22779 -9.30434 0
M  V30 190 C 23.6616 2.56293 -8.80664 0
M  V30 191 O 22.6056 3.02979 -8.09349 0
M  V30 192 C 24.8796 2.57523 -7.89775 0
M  V30 193 O 25.6176 3.7668 -7.89438 0
M  V30 194 C 24.2106 2.20997 -6.55446 0
M  V30 195 O 25.0096 2.71895 -5.48509 0
M  V30 196 C 22.8736 2.89693 -6.67988 0
M  V30 197 H 22.9056 3.88793 -6.19859 0
M  V30 198 H 24.0886 1.12046 -6.44229 0
M  V30 199 H 25.5726 1.7746 -8.19711 0
M  V30 200 H 23.8786 3.20706 -9.67112 0
M  V30 201 H 23.6886 0.901032 -10.1892 0
M  V30 202 H 22.0586 1.33049 -9.56592 0
M  V30 203 H 24.6976 3.57847 -5.23962 0
M  V30 204 P 26.5551 3.65191 -7.99657 0
M  V30 205 O 27.9771 3.89332 -8.45794 0
M  V30 206 O 26.1951 2.28472 -7.50807 0
M  V30 207 O 26.2321 4.64972 -6.77611 0
M  V30 208 C 26.0721 6.06319 -7.16352 0
M  V30 209 C 26.6121 6.91731 -6.02299 0
M  V30 210 O 25.5561 6.92449 -5.17064 0
M  V30 211 C 27.8301 6.43627 -5.25174 0
M  V30 212 O 28.5681 7.43686 -4.60469 0
M  V30 213 C 27.1611 5.40275 -4.31916 0
M  V30 214 O 27.9601 5.25279 -3.14438 0
M  V30 215 C 25.8241 6.04847 -4.05327 0
M  V30 216 H 25.8561 6.62195 -3.11261 0
M  V30 217 H 27.0391 4.42556 -4.81383 0
M  V30 218 H 28.5231 5.92458 -5.93643 0
M  V30 219 H 26.8291 7.92655 -6.402 0
M  V30 220 H 26.6391 6.26671 -8.0846 0
M  V30 221 H 25.0091 6.29101 -7.32804 0
M  V30 222 H 27.6481 5.84315 -2.47318 0
M  V30 223 P 29.5057 7.39546 -4.75277 0
M  V30 224 O 30.9277 7.84798 -5.01039 0
M  V30 225 O 29.1457 5.9812 -5.08098 0
M  V30 226 O 29.1827 7.57503 -3.1866 0
M  V30 227 C 29.0227 8.97357 -2.74833 0
M  V30 228 C 29.5627 9.07548 -1.32709 0
M  V30 229 O 28.5067 8.62072 -0.606159 0
M  V30 230 C 30.7807 8.25383 -0.938334 0
M  V30 231 O 31.5187 8.74577 0.146954 0
M  V30 232 C 30.1117 6.8802 -0.712559 0
M  V30 233 O 30.9107 6.1189 0.194655 0
M  V30 234 C 28.7747 7.27966 -0.139777 0
M  V30 235 H 28.8067 7.25354 0.961601 0
M  V30 236 H 29.9897 6.32557 -1.65702 0
M  V30 237 H 31.4737 8.19355 -1.79097 0
M  V30 238 H 29.7797 10.1294 -1.10029 0
M  V30 239 H 29.5897 9.64276 -3.41316 0
M  V30 240 H 27.9597 9.25417 -2.76357 0
M  V30 241 H 30.5987 6.25267 1.07847 0
M  V30 242 P 32.4563 8.791 -9.96115e-15 0
M  V30 243 O 33.8783 9.31096 0.027933 0
M  V30 244 O 32.0963 7.77869 -1.04071 0
M  V30 245 O 32.1333 8.09533 1.41463 0
M  V30 246 C 31.9733 9.0349 2.53943 0
M  V30 247 C 32.5133 8.35226 3.79016 0
M  V30 248 O 31.4573 7.57992 4.15078 0
M  V30 249 C 33.7313 7.45087 3.67298 0
M  V30 250 O 34.4693 7.27796 4.85194 0
M  V30 251 C 33.0623 6.17323 3.12027 0
M  V30 252 O 33.8613 5.04231 3.47188 0
M  V30 253 C 31.7253 6.19961 3.81809 0
M  V30 254 H 31.7573 5.58218 4.73051 0
M  V30 255 H 32.9403 6.21726 2.02589 0
M  V30 256 H 34.4243 7.86112 2.9231 0
M  V30 257 H 32.7303 9.11627 4.55076 0
M  V30 258 H 32.5403 9.9573 2.34194 0
M  V30 259 H 30.9103 9.2792 2.67832 0
M  V30 260 H 33.5493 4.67702 4.28772 0
M  V30 261 P 35.4068 7.39546 4.75277 0
M  V30 262 O 36.8288 7.81777 5.05738 0
M  V30 263 O 35.0468 7.1065 3.32998 0
M  V30 264 O 35.0838 6.04542 5.56673 0
M  V30 265 C 34.9238 6.22772 7.02095 0
M  V30 266 C 35.4638 4.97725 7.70406 0
M  V30 267 O 34.4078 4.13256 7.58987 0
M  V30 268 C 36.6818 4.28231 7.11815 0
M  V30 269 O 37.4198 3.49945 8.01648 0
M  V30 270 C 36.0128 3.5063 5.96244 0
M  V30 271 O 36.8118 2.36482 5.64681 0
M  V30 272 C 34.6758 3.15122 6.56374 0
M  V30 273 H 34.7078 2.13853 6.99751 0
M  V30 274 H 35.8908 4.13501 5.06559 0
M  V30 275 H 37.3748 5.03285 6.70911 0
M  V30 276 H 35.6808 5.20877 8.75697 0
M  V30 277 H 35.4908 7.11046 7.35349 0
M  V30 278 H 33.8608 6.35815 7.26986 0
M  V30 279 H 36.4998 1.61644 6.13565 0
M  V30 280 P 38.3574 3.65191 7.99657 0
M  V30 281 O 39.7794 3.8425 8.48115 0
M  V30 282 O 37.9974 4.17805 6.64342 0
M  V30 283 O 38.0344 2.07613 7.95143 0
M  V30 284 C 37.8744 1.44328 9.27336 0
M  V30 285 C 38.4144 0.0220036 9.17197 0
M  V30 286 O 37.3584 -0.626867 8.61923 0
M  V30 287 C 39.6324 -0.24586 8.30336 0
M  V30 288 O 40.3704 -1.39011 8.63583 0
M  V30 289 C 38.9634 -0.273849 6.91158 0
M  V30 290 O 39.7624 -1.06348 6.02892 0
M  V30 291 C 37.6264 -0.897649 7.22545 0
M  V30 292 H 37.6584 -1.9841 7.04286 0
M  V30 293 H 38.8414 0.739928 6.497 0
M  V30 294 H 40.3254 0.60668 8.36503 0
M  V30 295 H 38.6314 -0.352479 10.1829 0
M  V30 296 H 38.4414 2.00611 10.0304 0
M  V30 297 H 36.8114 1.41843 9.55327 0
M  V30 298 H 39.4504 -1.95734 6.03555 0
M  V30 299 P 41.308 -1.25109 8.70152 0
M  V30 300 O 42.73 -1.35274 9.21221 0
M  V30 301 O 40.948 -0.0769065 7.84762 0
M  V30 302 O 40.985 -2.55232 7.81161 0
M  V30 303 C 40.825 -3.79939 8.58154 0
M  V30 304 C 41.365 -4.94023 7.72785 0
M  V30 305 O 40.309 -5.18726 6.91205 0
M  V30 306 C 42.583 -4.69597 6.85231 0
M  V30 307 O 43.321 -5.83832 6.51337 0
M  V30 308 C 41.914 -3.96706 5.66633 0
M  V30 309 O 42.713 -4.15414 4.49689 0
M  V30 310 C 40.577 -4.66153 5.59313 0
M  V30 311 H 40.609 -5.47679 4.85214 0
M  V30 312 H 41.792 -2.89008 5.86566 0
M  V30 313 H 43.276 -4.0121 7.36511 0
M  V30 314 H 41.582 -5.80182 8.37584 0
M  V30 315 H 41.392 -3.73517 9.52265 0
M  V30 316 H 39.762 -3.97163 8.80359 0
M  V30 317 H 42.401 -4.90969 4.01921 0
M  V30 318 P 44.2585 -5.75688 6.64379 0
M  V30 319 O 45.6805 -6.11849 7.01846 0
M  V30 320 O 43.8985 -4.30744 6.56026 0
M  V30 321 O 43.9355 -6.37042 5.19165 0
M  V30 322 C 43.7755 -7.83578 5.16515 0
M  V30 323 C 44.3155 -8.33398 3.83019 0
M  V30 324 O 43.2595 -8.10074 3.01034 0
M  V30 325 C 45.5335 -7.65514 3.2257 0
M  V30 326 O 46.2715 -8.4329 2.32297 0
M  V30 327 C 44.8645 -6.40075 2.62207 0
M  V30 328 O 45.6635 -5.92589 1.53712 0
M  V30 329 C 43.5275 -6.9454 2.18503 0
M  V30 330 H 43.5595 -7.23063 1.12091 0
M  V30 331 H 44.7425 -5.6025 3.37201 0
M  V30 332 H 46.2265 -7.35707 4.02681 0
M  V30 333 H 44.5325 -9.40912 3.9095 0
M  V30 334 H 44.3425 -8.29056 5.99158 0
M  V30 335 H 42.7125 -8.10073 5.25882 0
M  V30 336 H 45.3515 -6.30324 0.726794 0
M  V30 337 P 47.2091 -8.4349 2.47671 0
M  V30 338 O 48.6311 -8.94167 2.5964 0
M  V30 339 O 46.8491 -7.1704 3.19006 0
M  V30 340 O 46.8861 -8.16596 0.923387 0
M  V30 341 C 46.7261 -9.38437 0.108857 0
M  V30 342 C 47.2661 -9.08175 -1.28353 0
M  V30 343 O 46.2101 -8.44229 -1.84713 0
M  V30 344 C 48.4841 -8.18386 -1.42505 0
M  V30 345 O 49.2221 -8.3501 -2.60497 0
M  V30 346 C 47.8151 -6.80225 -1.25468 0
M  V30 347 O 48.6141 -5.81621 -1.91066 0
M  V30 348 C 46.4781 -7.02416 -1.9168 0
M  V30 349 H 46.5101 -6.6888 -2.96621 0
M  V30 350 H 47.6931 -6.53617 -0.192223 0
M  V30 351 H 49.1771 -8.36622 -0.589963 0
M  V30 352 H 47.4831 -10.0291 -1.79807 0
M  V30 353 H 47.2931 -10.2138 0.558219 0
M  V30 354 H 45.6631 -9.6579 0.0444202 0
M  V30 355 H 48.3021 -5.69556 -2.79637 0
M  V30 356 P 50.1597 -8.4349 -2.47671 0
M  V30 357 O 51.5817 -8.92593 -2.65 0
M  V30 358 O 49.7997 -7.7568 -1.19296 0
M  V30 359 O 49.8367 -7.36886 -3.63805 0
M  V30 360 C 49.6767 -7.95349 -4.982 0
M  V30 361 C 50.2167 -6.94612 -5.98974 0
M  V30 362 O 49.1607 -6.10347 -6.11815 0
M  V30 363 C 51.4347 -6.11426 -5.62335 0
M  V30 364 O 52.1727 -5.6162 -6.70584 0
M  V30 365 C 50.7657 -5.04409 -4.73308 0
M  V30 366 O 51.5647 -3.85992 -4.75183 0
M  V30 367 C 49.4287 -4.8728 -5.41006 0
M  V30 368 H 49.4607 -4.02333 -6.11157 0
M  V30 369 H 50.6437 -5.39466 -3.69543 0
M  V30 370 H 52.1277 -6.71916 -5.01943 0
M  V30 371 H 50.4337 -7.4649 -6.93477 0
M  V30 372 H 50.2437 -8.89416 -5.05237 0
M  V30 373 H 48.6137 -8.14876 -5.18409 0
M  V30 374 H 51.2527 -3.27957 -5.4317 0
M  V30 375 P 53.1103 -5.75688 -6.64379 0
M  V30 376 O 54.5323 -6.07627 -7.05504 0
M  V30 377 O 52.7503 -5.88047 -5.19722 0
M  V30 378 O 52.7873 -4.2322 -7.04443 0
M  V30 379 C 52.6273 -3.99743 -8.4911 0
M  V30 380 C 53.1673 -2.60516 -8.79425 0
M  V30 381 O 52.1113 -1.82684 -8.4467 0
M  V30 382 C 54.3853 -2.10343 -8.03628 0
M  V30 383 O 55.1233 -1.09919 -8.67766 0
M  V30 384 C 53.7163 -1.68446 -6.70876 0
M  V30 385 O 54.5153 -0.678137 -6.08433 0
M  V30 386 C 52.3793 -1.17436 -7.18567 0
M  V30 387 H 52.4113 -0.0804732 -7.31656 0
M  V30 388 H 53.5943 -2.54037 -6.02537 0
M  V30 389 H 55.0783 -2.93881 -7.85526 0
M  V30 390 H 53.3843 -2.53065 -9.86973 0
M  V30 391 H 53.1943 -4.75072 -9.05887 0
M  V30 392 H 51.5643 -4.05244 -8.76668 0
M  V30 393 H 54.2033 0.177647 -6.34251 0
M  V30 394 P 56.0608 -1.25109 -8.70152 0
M  V30 395 O 57.4828 -1.29744 -9.22016 0
M  V30 396 O 55.7008 -2.13714 -7.55141 0
M  V30 397 O 55.7378 0.248149 -8.21425 0
M  V30 398 C 55.5778 1.22779 -9.30434 0
M  V30 399 C 56.1178 2.56293 -8.80664 0
M  V30 400 O 55.0618 3.02979 -8.09349 0
M  V30 401 C 57.3358 2.57523 -7.89775 0
M  V30 402 O 58.0738 3.7668 -7.89438 0
M  V30 403 C 56.6668 2.20997 -6.55446 0
M  V30 404 O 57.4658 2.71895 -5.48509 0
M  V30 405 C 55.3298 2.89693 -6.67988 0
M  V30 406 H 55.3618 3.88793 -6.19859 0
M  V30 407 H 56.5448 1.12046 -6.44229 0
M  V30 408 H 58.0288 1.7746 -8.19711 0
M  V30 409 H 56.3348 3.20706 -9.67112 0
M  V30 410 H 56.1448 0.901032 -10.1892 0
M  V30 411 H 54.5148 1.33049 -9.56592 0
M  V30 412 H 57.1538 3.57847 -5.23962 0
M  V30 413 P 59.0114 3.65191 -7.99657 0
M  V30 414 O 60.4334 3.89332 -8.45794 0
M  V30 415 O 58.6514 2.28472 -7.50807 0
M  V30 416 O 58.6884 4.64972 -6.77611 0
M  V30 417 C 58.5284 6.06319 -7.16352 0
M  V30 418 C 59.0684 6.91731 -6.02299 0
M  V30 419 O 58.0124 6.92449 -5.17064 0
M  V30 420 C 60.2864 6.43627 -5.25174 0
M  V30 421 O 61.0244 7.43686 -4.60469 0
M  V30 422 C 59.6174 5.40275 -4.31916 0
M  V30 423 O 60.4164 5.25279 -3.14438 0
M  V30 424 C 58.2804 6.04847 -4.05327 0
M  V30 425 H 58.3124 6.62195 -3.11261 0
M  V30 426 H 59.4954 4.42556 -4.81383 0
M  V30 427 H 60.9794 5.92458 -5.93643 0
M  V30 428 H 59.2854 7.92655 -6.402 0
M  V30 429 H 59.0954 6.26671 -8.0846 0
M  V30 430 H 57.4654 6.29101 -7.32804 0
M  V30 431 H 60.1044 5.84315 -2.47318 0
M  V30 432 P 61.962 7.39546 -4.75277 0
M  V30 433 O 63.383 7.84882 -5.01092 0
M  V30 434 O 61.602 5.9812 -5.08098 0
M  V30 435 O 61.639 7.57503 -3.1866 0
M  V30 436 C 61.478 8.97452 -2.74862 0
M  V30 437 C 62.019 9.07548 -1.32709 0
M  V30 438 O 60.964 8.61972 -0.606089 0
M  V30 439 C 63.237 8.25383 -0.938334 0
M  V30 440 O 63.975 8.74577 0.146954 0
M  V30 441 C 62.569 6.8802 -0.712559 0
M  V30 442 O 63.367 6.1181 0.188505 0
M  V30 443 C 61.231 7.27966 -0.139777 0
M  V30 444 N 60.188 6.39368 -0.623421 0
M  V30 445 C 60.357 5.71761 -1.78245 0
M  V30 446 N 59.33 4.962 -2.10491 0
M  V30 447 C 58.445 5.16158 -1.0635 0
M  V30 448 C 57.178 4.60425 -0.810266 0
M  V30 449 N 56.579 3.7057 -1.62914 0
M  V30 450 N 56.613 5.06 0.348685 0
M  V30 451 C 57.215 5.94532 1.20395 0
M  V30 452 N 58.392 6.48452 1.01191 0
M  V30 453 C 58.967 6.04423 -0.146291 0
M  V30 454 H 61.263 7.25255 0.961469 0
M  V30 455 H 62.446 6.32625 -1.65044 0
M  V30 456 H 63.929 8.19355 -1.79097 0
M  V30 457 H 62.235 10.1305 -1.09016 0
M  V30 458 H 62.045 9.64276 -3.41316 0
M  V30 459 H 60.415 9.25417 -2.76357 0
M  V30 460 H 56.679 6.21659 2.10714 0
M  V30 461 H 61.257 5.79354 -2.38959 0
M  V30 462 H 55.649 3.33174 -1.38982 0
M  V30 463 H 57.053 3.39714 -2.48836 0
M  V30 464 H 63.055 6.25169 1.0783 0
M  V30 465 P 64.9125 8.791 -3.55383e-14 0
M  V30 466 O 66.3335 9.31196 0.027936 0
M  V30 467 O 64.5525 7.77869 -1.04071 0
M  V30 468 O 64.5895 8.09533 1.41463 0
M  V30 469 C 64.4285 9.03587 2.5397 0
M  V30 470 C 64.9695 8.35226 3.79016 0
M  V30 471 O 63.9145 7.57904 4.1503 0
M  V30 472 C 66.1875 7.45087 3.67298 0
M  V30 473 O 66.9255 7.27796 4.85194 0
M  V30 474 C 65.5195 6.17323 3.12027 0
M  V30 475 O 66.3175 5.04496 3.46627 0
M  V30 476 C 64.1815 6.19961 3.81809 0
M  V30 477 N 63.1385 5.71575 2.93223 0
M  V30 478 C 63.3075 5.77362 1.59168 0
M  V30 479 N 62.2805 5.3123 0.911893 0
M  V30 480 C 61.3955 4.91717 1.89588 0
M  V30 481 C 60.1285 4.3114 1.8076 0
M  V30 482 N 59.5295 3.99821 0.632928 0
M  V30 483 N 59.5635 4.06823 3.02898 0
M  V30 484 C 60.1655 4.35062 4.22711 0
M  V30 485 N 61.3425 4.90805 4.35707 0
M  V30 486 C 61.9175 5.16382 3.14469 0
M  V30 487 H 64.2135 5.58142 4.72986 0
M  V30 488 H 65.3965 6.21428 2.0318 0
M  V30 489 H 66.8795 7.86112 2.9231 0
M  V30 490 H 65.1855 9.11171 4.55987 0
M  V30 491 H 64.9955 9.9573 2.34194 0
M  V30 492 H 63.3655 9.2792 2.67832 0
M  V30 493 H 59.6295 4.09052 5.13359 0
M  V30 494 H 64.2075 6.16575 1.12198 0
M  V30 495 H 58.5995 3.55423 0.632085 0
M  V30 496 H 60.0035 4.20317 -0.256712 0
M  V30 497 H 66.0055 4.67628 4.28704 0
M  V30 498 P 67.8631 7.39546 4.75277 0
M  V30 499 O 69.2851 7.81777 5.05738 0
M  V30 500 O 67.5031 7.1065 3.32998 0
M  V30 501 O 67.5401 6.04542 5.56673 0
M  V30 502 C 67.3801 6.22772 7.02095 0
M  V30 503 C 67.9201 4.97725 7.70406 0
M  V30 504 O 66.8641 4.13256 7.58987 0
M  V30 505 C 69.1381 4.28231 7.11815 0
M  V30 506 O 69.8761 3.49945 8.01648 0
M  V30 507 C 68.4691 3.5063 5.96244 0
M  V30 508 O 69.2681 2.36482 5.64681 0
M  V30 509 C 67.1321 3.15122 6.56374 0
M  V30 510 H 67.1641 2.13853 6.99751 0
M  V30 511 H 68.3471 4.13501 5.06559 0
M  V30 512 H 69.8311 5.03285 6.70911 0
M  V30 513 H 68.1371 5.20877 8.75697 0
M  V30 514 H 67.9471 7.11046 7.35349 0
M  V30 515 H 66.3171 6.35815 7.26986 0
M  V30 516 H 68.9561 1.61644 6.13565 0
M  V30 517 P 70.8137 3.65191 7.99657 0
M  V30 518 O 72.2147 3.90823 8.51272 0
M  V30 519 O 70.4357 4.23191 6.66972 0
M  V30 520 O 70.4907 2.07587 7.95046 0
M  V30 521 C 70.3307 1.44328 9.27336 0
M  V30 522 C 70.8707 0.0220012 9.17097 0
M  V30 523 O 69.8147 -0.626794 8.61824 0
M  V30 524 C 72.0877 -0.24586 8.30336 0
M  V30 525 O 72.8267 -1.39011 8.63583 0
M  V30 526 C 71.4207 -0.273849 6.91158 0
M  V30 527 O 72.2187 -1.06331 6.02794 0
M  V30 528 C 70.0827 -0.897649 7.22545 0
M  V30 529 N 69.0397 -0.292839 6.41732 0
M  V30 530 C 68.0047 -1.08701 5.98712 0
M  V30 531 O 68.0437 -2.31211 6.24471 0
M  V30 532 N 66.9927 -0.533391 5.28415 0
M  V30 533 C 67.0407 0.770866 4.98576 0
M  V30 534 N 66.0307 1.29482 4.30134 0
M  V30 535 C 68.1367 1.59049 5.38086 0
M  V30 536 C 69.1027 1.01866 6.10256 0
M  V30 537 H 70.1147 -1.98383 7.04189 0
M  V30 538 H 71.2977 0.733318 6.49674 0
M  V30 539 H 72.7817 0.598386 8.36663 0
M  V30 540 H 71.0877 -0.362662 10.1825 0
M  V30 541 H 70.8967 2.00611 10.0304 0
M  V30 542 H 69.2667 1.41828 9.55228 0
M  V30 543 H 68.1847 2.6415 5.10622 0
M  V30 544 H 69.9487 1.61983 6.44042 0
M  V30 545 H 65.2407 0.69888 4.01361 0
M  V30 546 H 66.0357 2.29327 4.05781 0
M  V30 547 H 72.0027 -1.97777 6.14035 0
M  V30 548 P 73.7642 -1.25109 8.70152 0
M  V30 549 O 75.1862 -1.35274 9.21221 0
M  V30 550 O 73.4042 -0.0769065 7.84762 0
M  V30 551 O 73.4412 -2.55232 7.81161 0
M  V30 552 C 73.2812 -3.79939 8.58154 0
M  V30 553 C 73.8212 -4.94023 7.72785 0
M  V30 554 O 72.7652 -5.18726 6.91205 0
M  V30 555 C 75.0392 -4.69597 6.85231 0
M  V30 556 O 75.7772 -5.83832 6.51337 0
M  V30 557 C 74.3702 -3.96706 5.66633 0
M  V30 558 O 75.1692 -4.15414 4.49689 0
M  V30 559 C 73.0332 -4.66153 5.59313 0
M  V30 560 H 73.0652 -5.47679 4.85214 0
M  V30 561 H 74.2482 -2.89008 5.86566 0
M  V30 562 H 75.7322 -4.0121 7.36511 0
M  V30 563 H 74.0382 -5.80182 8.37584 0
M  V30 564 H 73.8482 -3.73517 9.52265 0
M  V30 565 H 72.2182 -3.97163 8.80359 0
M  V30 566 H 74.8572 -4.90969 4.01921 0
M  V30 567 P 76.7148 -5.75688 6.64379 0
M  V30 568 O 78.1368 -6.11849 7.01846 0
M  V30 569 O 76.3548 -4.30744 6.56026 0
M  V30 570 O 76.3918 -6.37042 5.19165 0
M  V30 571 C 76.2318 -7.83578 5.16515 0
M  V30 572 C 76.7718 -8.33398 3.83019 0
M  V30 573 O 75.7158 -8.10074 3.01034 0
M  V30 574 C 77.9898 -7.65514 3.2257 0
M  V30 575 O 78.7278 -8.4329 2.32297 0
M  V30 576 C 77.3208 -6.40075 2.62207 0
M  V30 577 O 78.1198 -5.92589 1.53712 0
M  V30 578 C 75.9838 -6.9454 2.18503 0
M  V30 579 H 76.0158 -7.23063 1.12091 0
M  V30 580 H 77.1988 -5.6025 3.37201 0
M  V30 581 H 78.6828 -7.35707 4.02681 0
M  V30 582 H 76.9888 -9.40912 3.9095 0
M  V30 583 H 76.7988 -8.29056 5.99158 0
M  V30 584 H 75.1688 -8.10073 5.25882 0
M  V30 585 H 77.8078 -6.30324 0.726794 0
M  V30 586 P 79.6654 -8.4349 2.47671 0
M  V30 587 O 81.0864 -8.94263 2.59668 0
M  V30 588 O 79.3054 -7.1704 3.19006 0
M  V30 589 O 79.3424 -8.16596 0.923387 0
M  V30 590 C 79.1814 -9.38537 0.108869 0
M  V30 591 C 79.7224 -9.08175 -1.28353 0
M  V30 592 O 78.6674 -8.44131 -1.84692 0
M  V30 593 C 80.9404 -8.18386 -1.42505 0
M  V30 594 O 81.6784 -8.3501 -2.60497 0
M  V30 595 C 80.2724 -6.80225 -1.25468 0
M  V30 596 O 81.0704 -5.81716 -1.90454 0
M  V30 597 C 78.9344 -7.02416 -1.9168 0
M  V30 598 N 77.8914 -6.31033 -1.20314 0
M  V30 599 C 78.0604 -5.98817 0.0994088 0
M  V30 600 N 77.0334 -5.35403 0.621694 0
M  V30 601 C 76.1484 -5.25212 -0.43376 0
M  V30 602 C 74.8814 -4.64602 -0.519722 0
M  V30 603 N 74.2824 -4.01457 0.519136 0
M  V30 604 N 74.3164 -4.7568 -1.76013 0
M  V30 605 C 74.9184 -5.3653 -2.83017 0
M  V30 606 N 76.0954 -5.93676 -2.79782 0
M  V30 607 C 76.6704 -5.84061 -1.56249 0
M  V30 608 H 78.9664 -6.68789 -2.9658 0
M  V30 609 H 80.1494 -6.53498 -0.198729 0
M  V30 610 H 81.6324 -8.36622 -0.589963 0
M  V30 611 H 79.9384 -10.0273 -1.8081 0
M  V30 612 H 79.7484 -10.2138 0.558219 0
M  V30 613 H 78.1184 -9.6579 0.0444202 0
M  V30 614 H 74.3824 -5.37113 -3.77321 0
M  V30 615 H 78.9604 -6.23209 0.660562 0
M  V30 616 H 73.3524 -3.58834 0.394862 0
M  V30 617 H 74.7564 -3.96059 1.43048 0
M  V30 618 H 80.7584 -5.69466 -2.79593 0
M  V30 619 P 82.616 -8.4349 -2.47671 0
M  V30 620 O 84.038 -8.92593 -2.65 0
M  V30 621 O 82.256 -7.7568 -1.19296 0
M  V30 622 O 82.293 -7.36886 -3.63805 0
M  V30 623 C 82.133 -7.95349 -4.982 0
M  V30 624 C 82.673 -6.94612 -5.98974 0
M  V30 625 O 81.617 -6.10347 -6.11815 0
M  V30 626 C 83.891 -6.11426 -5.62335 0
M  V30 627 O 84.629 -5.6162 -6.70584 0
M  V30 628 C 83.222 -5.04409 -4.73308 0
M  V30 629 O 84.021 -3.85992 -4.75183 0
M  V30 630 C 81.885 -4.8728 -5.41006 0
M  V30 631 H 81.917 -4.02333 -6.11157 0
M  V30 632 H 83.1 -5.39466 -3.69543 0
M  V30 633 H 84.584 -6.71916 -5.01943 0
M  V30 634 H 82.89 -7.4649 -6.93477 0
M  V30 635 H 82.7 -8.89416 -5.05237 0
M  V30 636 H 81.07 -8.14876 -5.18409 0
M  V30 637 H 83.709 -3.27957 -5.4317 0
M  V30 638 P 85.5665 -5.75688 -6.64379 0
M  V30 639 O 86.9885 -6.07627 -7.05504 0
M  V30 640 O 85.2065 -5.88047 -5.19722 0
M  V30 641 O 85.2435 -4.2322 -7.04443 0
M  V30 642 C 85.0835 -3.99743 -8.4911 0
M  V30 643 C 85.6235 -2.60516 -8.79425 0
M  V30 644 O 84.5675 -1.82684 -8.4467 0
M  V30 645 C 86.8415 -2.10343 -8.03628 0
M  V30 646 O 87.5795 -1.09919 -8.67766 0
M  V30 647 C 86.1725 -1.68446 -6.70876 0
M  V30 648 O 86.9715 -0.678137 -6.08433 0
M  V30 649 C 84.8355 -1.17436 -7.18567 0
M  V30 650 H 84.8675 -0.0804732 -7.31656 0
M  V30 651 H 86.0505 -2.54037 -6.02537 0
M  V30 652 H 87.5345 -2.93881 -7.85526 0
M  V30 653 H 85.8405 -2.53065 -9.86973 0
M  V30 654 H 85.6505 -4.75072 -9.05887 0
M  V30 655 H 84.0205 -4.05244 -8.76668 0
M  V30 656 H 86.6595 0.177647 -6.34251 0
M  V30 657 P 88.5171 -1.25109 -8.70152 0
M  V30 658 O 89.9381 -1.29758 -9.22115 0
M  V30 659 O 88.1571 -2.13714 -7.55141 0
M  V30 660 O 88.1941 0.248149 -8.21425 0
M  V30 661 C 88.0331 1.22792 -9.30533 0
M  V30 662 C 88.5741 2.56293 -8.80664 0
M  V30 663 O 87.5191 3.02944 -8.09255 0
M  V30 664 C 89.7921 2.57523 -7.89775 0
M  V30 665 O 90.5301 3.7668 -7.89438 0
M  V30 666 C 89.1241 2.20997 -6.55446 0
M  V30 667 O 89.9221 2.71302 -5.48691 0
M  V30 668 C 87.7861 2.89693 -6.67988 0
M  V30 669 N 86.7431 2.08895 -6.07487 0
M  V30 670 C 86.9121 0.753809 -5.94137 0
M  V30 671 N 85.8851 0.146592 -5.38801 0
M  V30 672 C 85.0001 1.1768 -5.13693 0
M  V30 673 C 83.7331 1.17563 -4.52477 0
M  V30 674 N 83.1681 2.41918 -4.45789 0
M  V30 675 C 83.7701 3.56493 -4.90792 0
M  V30 676 N 84.9471 3.61423 -5.47817 0
M  V30 677 C 85.5221 2.37779 -5.5588 0
M  V30 678 H 89.0011 1.12673 -6.44018 0
M  V30 679 H 90.4841 1.7746 -8.19711 0
M  V30 680 H 88.7901 3.21673 -9.66791 0
M  V30 681 H 88.6001 0.901032 -10.1892 0
M  V30 682 H 86.9701 1.33049 -9.56592 0
M  V30 683 H 87.8121 0.233081 -6.26266 0
M  V30 684 H 89.6101 3.5779 -5.23879 0
M  V30 685 P 91.4677 3.65191 -7.99657 0
M  V30 686 O 92.8897 3.89332 -8.45794 0
M  V30 687 O 91.1077 2.28472 -7.50807 0
M  V30 688 O 91.1447 4.64972 -6.77611 0
M  V30 689 C 90.9847 6.06319 -7.16352 0
M  V30 690 C 91.5247 6.91731 -6.02299 0
M  V30 691 O 90.4687 6.92449 -5.17064 0
M  V30 692 C 92.7427 6.43627 -5.25174 0
M  V30 693 O 93.4807 7.43686 -4.60469 0
M  V30 694 C 92.0737 5.40275 -4.31916 0
M  V30 695 O 92.8727 5.25279 -3.14438 0
M  V30 696 C 90.7367 6.04847 -4.05327 0
M  V30 697 H 90.7687 6.62195 -3.11261 0
M  V30 698 H 91.9517 4.42556 -4.81383 0
M  V30 699 H 93.4357 5.92458 -5.93643 0
M  V30 700 H 91.7417 7.92655 -6.402 0
M  V30 701 H 91.5517 6.26671 -8.0846 0
M  V30 702 H 89.9217 6.29101 -7.32804 0
M  V30 703 H 92.5607 5.84315 -2.47318 0
M  V30 704 P 94.4182 7.39546 -4.75277 0
M  V30 705 O 95.8402 7.84798 -5.01039 0
M  V30 706 O 94.0582 5.9812 -5.08098 0
M  V30 707 O 94.0952 7.57503 -3.1866 0
M  V30 708 C 93.9352 8.97357 -2.74833 0
M  V30 709 C 94.4752 9.07548 -1.32709 0
M  V30 710 O 93.4192 8.62072 -0.606159 0
M  V30 711 C 95.6932 8.25383 -0.938334 0
M  V30 712 O 96.4312 8.74577 0.146954 0
M  V30 713 C 95.0242 6.8802 -0.712559 0
M  V30 714 O 95.8232 6.1189 0.194655 0
M  V30 715 C 93.6872 7.27966 -0.139777 0
M  V30 716 H 93.7192 7.25354 0.961601 0
M  V30 717 H 94.9022 6.32557 -1.65702 0
M  V30 718 H 96.3862 8.19355 -1.79097 0
M  V30 719 H 94.6922 10.1294 -1.10029 0
M  V30 720 H 94.5022 9.64276 -3.41316 0
M  V30 721 H 92.8722 9.25417 -2.76357 0
M  V30 722 H 95.5112 6.25267 1.07847 0
M  V30 723 P 97.3688 8.791 -6.89233e-14 0
M  V30 724 O 98.7898 9.31196 0.027936 0
M  V30 725 O 97.0088 7.77869 -1.04071 0
M  V30 726 O 97.0458 8.09533 1.41463 0
M  V30 727 C 96.8848 9.03587 2.5397 0
M  V30 728 C 97.4258 8.35226 3.79016 0
M  V30 729 O 96.3708 7.57904 4.1503 0
M  V30 730 C 98.6438 7.45087 3.67298 0
M  V30 731 O 99.3818 7.27796 4.85194 0
M  V30 732 C 97.9758 6.17323 3.12027 0
M  V30 733 O 98.7738 5.04496 3.46627 0
M  V30 734 C 96.6378 6.19961 3.81809 0
M  V30 735 N 95.5948 5.71575 2.93223 0
M  V30 736 C 95.7638 5.77362 1.59168 0
M  V30 737 N 94.7368 5.3123 0.911893 0
M  V30 738 C 93.8518 4.91717 1.89588 0
M  V30 739 C 92.5848 4.3114 1.8076 0
M  V30 740 N 91.9858 3.99821 0.632928 0
M  V30 741 N 92.0198 4.06823 3.02898 0
M  V30 742 C 92.6218 4.35062 4.22711 0
M  V30 743 N 93.7988 4.90805 4.35707 0
M  V30 744 C 94.3738 5.16382 3.14469 0
M  V30 745 H 96.6698 5.58142 4.72986 0
M  V30 746 H 97.8528 6.21428 2.0318 0
M  V30 747 H 99.3358 7.86112 2.9231 0
M  V30 748 H 97.6418 9.11171 4.55987 0
M  V30 749 H 97.4518 9.9573 2.34194 0
M  V30 750 H 95.8218 9.2792 2.67832 0
M  V30 751 H 92.0858 4.09052 5.13359 0
M  V30 752 H 96.6638 6.16575 1.12198 0
M  V30 753 H 91.0558 3.55423 0.632085 0
M  V30 754 H 92.4598 4.20317 -0.256712 0
M  V30 755 H 98.4618 4.67628 4.28704 0
M  V30 756 P 100.319 7.39546 4.75277 0
M  V30 757 O 101.741 7.81777 5.05738 0
M  V30 758 O 99.9594 7.1065 3.32998 0
M  V30 759 O 99.9964 6.04542 5.56673 0
M  V30 760 C 99.8364 6.22772 7.02095 0
M  V30 761 C 100.376 4.97725 7.70406 0
M  V30 762 O 99.3204 4.13256 7.58987 0
M  V30 763 C 101.594 4.28231 7.11815 0
M  V30 764 O 102.332 3.49945 8.01648 0
M  V30 765 C 100.925 3.5063 5.96244 0
M  V30 766 O 101.724 2.36482 5.64681 0
M  V30 767 C 99.5884 3.15122 6.56374 0
M  V30 768 H 99.6204 2.13853 6.99751 0
M  V30 769 H 100.803 4.13501 5.06559 0
M  V30 770 H 102.287 5.03285 6.70911 0
M  V30 771 H 100.593 5.20877 8.75697 0
M  V30 772 H 100.403 7.11046 7.35349 0
M  V30 773 H 98.7734 6.35815 7.26986 0
M  V30 774 H 101.412 1.61644 6.13565 0
M  V30 775 P 103.27 3.65191 7.99657 0
M  V30 776 O 104.692 3.8425 8.48115 0
M  V30 777 O 102.91 4.17805 6.64342 0
M  V30 778 O 102.947 2.07613 7.95143 0
M  V30 779 C 102.787 1.44328 9.27336 0
M  V30 780 C 103.327 0.0220036 9.17197 0
M  V30 781 O 102.271 -0.626867 8.61923 0
M  V30 782 C 104.545 -0.24586 8.30336 0
M  V30 783 O 105.283 -1.39011 8.63583 0
M  V30 784 C 103.876 -0.273849 6.91158 0
M  V30 785 O 104.675 -1.06348 6.02892 0
M  V30 786 C 102.539 -0.897649 7.22545 0
M  V30 787 H 102.571 -1.9841 7.04286 0
M  V30 788 H 103.754 0.739928 6.497 0
M  V30 789 H 105.238 0.60668 8.36503 0
M  V30 790 H 103.544 -0.352479 10.1829 0
M  V30 791 H 103.354 2.00611 10.0304 0
M  V30 792 H 101.724 1.41843 9.55327 0
M  V30 793 H 104.363 -1.95734 6.03555 0
M  V30 794 P 106.221 -1.25109 8.70152 0
M  V30 795 O 107.643 -1.35274 9.21221 0
M  V30 796 O 105.861 -0.0769065 7.84762 0
M  V30 797 O 105.898 -2.55232 7.81161 0
M  V30 798 C 105.738 -3.79939 8.58154 0
M  V30 799 C 106.278 -4.94023 7.72785 0
M  V30 800 O 105.222 -5.18726 6.91205 0
M  V30 801 C 107.496 -4.69597 6.85231 0
M  V30 802 O 108.234 -5.83832 6.51337 0
M  V30 803 C 106.827 -3.96706 5.66633 0
M  V30 804 O 107.626 -4.15414 4.49689 0
M  V30 805 C 105.49 -4.66153 5.59313 0
M  V30 806 H 105.522 -5.47679 4.85214 0
M  V30 807 H 106.705 -2.89008 5.86566 0
M  V30 808 H 108.189 -4.0121 7.36511 0
M  V30 809 H 106.495 -5.80182 8.37584 0
M  V30 810 H 106.305 -3.73517 9.52265 0
M  V30 811 H 104.675 -3.97163 8.80359 0
M  V30 812 H 107.314 -4.90969 4.01921 0
M  V30 813 P 109.171 -5.75688 6.64379 0
M  V30 814 O 110.593 -6.11849 7.01846 0
M  V30 815 O 108.811 -4.30744 6.56026 0
M  V30 816 O 108.848 -6.37042 5.19165 0
M  V30 817 C 108.688 -7.83578 5.16515 0
M  V30 818 C 109.228 -8.33398 3.83019 0
M  V30 819 O 108.172 -8.10074 3.01034 0
M  V30 820 C 110.446 -7.65514 3.2257 0
M  V30 821 O 111.184 -8.4329 2.32297 0
M  V30 822 C 109.777 -6.40075 2.62207 0
M  V30 823 O 110.576 -5.92589 1.53712 0
M  V30 824 C 108.44 -6.9454 2.18503 0
M  V30 825 H 108.472 -7.23063 1.12091 0
M  V30 826 H 109.655 -5.6025 3.37201 0
M  V30 827 H 111.139 -7.35707 4.02681 0
M  V30 828 H 109.445 -9.40912 3.9095 0
M  V30 829 H 109.255 -8.29056 5.99158 0
M  V30 830 H 107.625 -8.10073 5.25882 0
M  V30 831 H 110.264 -6.30324 0.726794 0
M  V30 832 P 112.122 -8.4349 2.47671 0
M  V30 833 O 113.544 -8.94167 2.5964 0
M  V30 834 O 111.762 -7.1704 3.19006 0
M  V30 835 O 111.799 -8.16596 0.923387 0
M  V30 836 C 111.639 -9.38437 0.108857 0
M  V30 837 C 112.179 -9.08175 -1.28353 0
M  V30 838 O 111.123 -8.44229 -1.84713 0
M  V30 839 C 113.397 -8.18386 -1.42505 0
M  V30 840 O 114.135 -8.3501 -2.60497 0
M  V30 841 C 112.728 -6.80225 -1.25468 0
M  V30 842 O 113.527 -5.81621 -1.91066 0
M  V30 843 C 111.391 -7.02416 -1.9168 0
M  V30 844 H 111.423 -6.6888 -2.96621 0
M  V30 845 H 112.606 -6.53617 -0.192223 0
M  V30 846 H 114.09 -8.36622 -0.589963 0
M  V30 847 H 112.396 -10.0291 -1.79807 0
M  V30 848 H 112.206 -10.2138 0.558219 0
M  V30 849 H 110.576 -9.6579 0.0444202 0
M  V30 850 H 113.215 -5.69556 -2.79637 0
M  V30 851 P 115.072 -8.4349 -2.47671 0
M  V30 852 O 116.494 -8.92593 -2.65 0
M  V30 853 O 114.712 -7.7568 -1.19296 0
M  V30 854 O 114.749 -7.36886 -3.63805 0
M  V30 855 C 114.589 -7.95349 -4.982 0
M  V30 856 C 115.129 -6.94612 -5.98974 0
M  V30 857 O 114.073 -6.10347 -6.11815 0
M  V30 858 C 116.347 -6.11426 -5.62335 0
M  V30 859 O 117.085 -5.6162 -6.70584 0
M  V30 860 C 115.678 -5.04409 -4.73308 0
M  V30 861 O 116.477 -3.85992 -4.75183 0
M  V30 862 C 114.341 -4.8728 -5.41006 0
M  V30 863 H 114.373 -4.02333 -6.11157 0
M  V30 864 H 115.556 -5.39466 -3.69543 0
M  V30 865 H 117.04 -6.71916 -5.01943 0
M  V30 866 H 115.346 -7.4649 -6.93477 0
M  V30 867 H 115.156 -8.89416 -5.05237 0
M  V30 868 H 113.526 -8.14876 -5.18409 0
M  V30 869 H 116.165 -3.27957 -5.4317 0
M  V30 870 P 118.023 -5.75688 -6.64379 0
M  V30 871 O 119.445 -6.07627 -7.05504 0
M  V30 872 O 117.663 -5.88047 -5.19722 0
M  V30 873 O 117.7 -4.2322 -7.04443 0
M  V30 874 C 117.54 -3.99743 -8.4911 0
M  V30 875 C 118.08 -2.60516 -8.79425 0
M  V30 876 O 117.024 -1.82684 -8.4467 0
M  V30 877 C 119.298 -2.10343 -8.03628 0
M  V30 878 O 120.036 -1.09919 -8.67766 0
M  V30 879 C 118.629 -1.68446 -6.70876 0
M  V30 880 O 119.428 -0.678137 -6.08433 0
M  V30 881 C 117.292 -1.17436 -7.18567 0
M  V30 882 H 117.324 -0.0804732 -7.31656 0
M  V30 883 H 118.507 -2.54037 -6.02537 0
M  V30 884 H 119.991 -2.93881 -7.85526 0
M  V30 885 H 118.297 -2.53065 -9.86973 0
M  V30 886 H 118.107 -4.75072 -9.05887 0
M  V30 887 H 116.477 -4.05244 -8.76668 0
M  V30 888 H 119.116 0.177647 -6.34251 0
M  V30 889 P 120.973 -1.25109 -8.70152 0
M  V30 890 O 122.395 -1.29744 -9.22016 0
M  V30 891 O 120.613 -2.13714 -7.55141 0
M  V30 892 O 120.65 0.248149 -8.21425 0
M  V30 893 C 120.49 1.22779 -9.30434 0
M  V30 894 C 121.03 2.56293 -8.80664 0
M  V30 895 O 119.974 3.02979 -8.09349 0
M  V30 896 C 122.248 2.57523 -7.89775 0
M  V30 897 O 122.986 3.7668 -7.89438 0
M  V30 898 C 121.579 2.20997 -6.55446 0
M  V30 899 O 122.378 2.71895 -5.48509 0
M  V30 900 C 120.242 2.89693 -6.67988 0
M  V30 901 H 120.274 3.88793 -6.19859 0
M  V30 902 H 121.457 1.12046 -6.44229 0
M  V30 903 H 122.941 1.7746 -8.19711 0
M  V30 904 H 121.247 3.20706 -9.67112 0
M  V30 905 H 121.057 0.901032 -10.1892 0
M  V30 906 H 119.427 1.33049 -9.56592 0
M  V30 907 H 122.066 3.57847 -5.23962 0
M  V30 908 P 123.924 3.65191 -7.99657 0
M  V30 909 O 125.346 3.89332 -8.45794 0
M  V30 910 O 123.564 2.28472 -7.50807 0
M  V30 911 O 123.601 4.64972 -6.77611 0
M  V30 912 C 123.441 6.06319 -7.16352 0
M  V30 913 C 123.981 6.91731 -6.02299 0
M  V30 914 O 122.925 6.92449 -5.17064 0
M  V30 915 C 125.199 6.43627 -5.25174 0
M  V30 916 O 125.937 7.43686 -4.60469 0
M  V30 917 C 124.53 5.40275 -4.31916 0
M  V30 918 O 125.329 5.25279 -3.14438 0
M  V30 919 C 123.193 6.04847 -4.05327 0
M  V30 920 H 123.225 6.62195 -3.11261 0
M  V30 921 H 124.408 4.42556 -4.81383 0
M  V30 922 H 125.892 5.92458 -5.93643 0
M  V30 923 H 124.198 7.92655 -6.402 0
M  V30 924 H 124.008 6.26671 -8.0846 0
M  V30 925 H 122.378 6.29101 -7.32804 0
M  V30 926 H 125.017 5.84315 -2.47318 0
M  V30 927 P 126.875 7.39546 -4.75277 0
M  V30 928 O 128.297 7.84798 -5.01039 0
M  V30 929 O 126.515 5.9812 -5.08098 0
M  V30 930 O 126.552 7.57503 -3.1866 0
M  V30 931 C 126.392 8.97357 -2.74833 0
M  V30 932 C 126.932 9.07548 -1.32709 0
M  V30 933 O 125.876 8.62072 -0.606159 0
M  V30 934 C 128.15 8.25383 -0.938334 0
M  V30 935 O 128.888 8.74577 0.146954 0
M  V30 936 C 127.481 6.8802 -0.712559 0
M  V30 937 O 128.28 6.1189 0.194655 0
M  V30 938 C 126.144 7.27966 -0.139777 0
M  V30 939 H 126.176 7.25354 0.961601 0
M  V30 940 H 127.359 6.32557 -1.65702 0
M  V30 941 H 128.843 8.19355 -1.79097 0
M  V30 942 H 127.149 10.1294 -1.10029 0
M  V30 943 H 126.959 9.64276 -3.41316 0
M  V30 944 H 125.329 9.25417 -2.76357 0
M  V30 945 H 127.968 6.25267 1.07847 0
M  V30 946 P 129.825 8.791 -1.02308e-13 0
M  V30 947 O 131.247 9.31096 0.027933 0
M  V30 948 O 129.465 7.77869 -1.04071 0
M  V30 949 O 129.502 8.09533 1.41463 0
M  V30 950 C 129.342 9.0349 2.53943 0
M  V30 951 C 129.882 8.35226 3.79016 0
M  V30 952 O 128.826 7.57992 4.15078 0
M  V30 953 C 131.1 7.45087 3.67298 0
M  V30 954 O 131.838 7.27796 4.85194 0
M  V30 955 C 130.431 6.17323 3.12027 0
M  V30 956 O 131.23 5.04231 3.47188 0
M  V30 957 C 129.094 6.19961 3.81809 0
M  V30 958 H 129.126 5.58218 4.73051 0
M  V30 959 H 130.309 6.21726 2.02589 0
M  V30 960 H 131.793 7.86112 2.9231 0
M  V30 961 H 130.099 9.11627 4.55076 0
M  V30 962 H 129.909 9.9573 2.34194 0
M  V30 963 H 128.279 9.2792 2.67832 0
M  V30 964 H 130.918 4.67702 4.28772 0
M  V30 965 P 132.776 7.39546 4.75277 0
M  V30 966 O 134.198 7.81945 5.05847 0
M  V30 967 O 132.416 7.1065 3.32998 0
M  V30 968 O 132.453 6.04542 5.56673 0
M  V30 969 C 132.293 6.22772 7.02095 0
M  V30 970 C 132.833 4.97671 7.70322 0
M  V30 971 O 131.778 4.13256 7.58987 0
M  V30 972 C 134.051 4.28231 7.11815 0
M  V30 973 O 134.789 3.49945 8.01648 0
M  V30 974 C 133.383 3.5063 5.96244 0
M  V30 975 O 134.181 2.36443 5.64589 0
M  V30 976 C 132.045 3.15122 6.56374 0
M  V30 977 N 131.002 3.22311 5.55692 0
M  V30 978 C 131.064 4.14382 4.59701 0
M  V30 979 N 130.019 4.04476 3.76958 0
M  V30 980 C 129.285 3.04892 4.26534 0
M  V30 981 C 127.979 2.57447 3.88189 0
M  V30 982 O 127.246 2.9785 2.96543 0
M  V30 983 N 127.549 1.55228 4.65922 0
M  V30 984 C 128.298 1.01152 5.73447 0
M  V30 985 N 127.701 -0.0472117 6.37783 0
M  V30 986 N 129.451 1.467 6.13813 0
M  V30 987 C 129.908 2.4931 5.38487 0
M  V30 988 H 132.077 2.13853 6.99751 0
M  V30 989 H 133.26 4.13438 5.06482 0
M  V30 990 H 134.745 5.02614 6.71414 0
M  V30 991 H 133.05 5.20877 8.75697 0
M  V30 992 H 132.86 7.11046 7.35349 0
M  V30 993 H 131.229 6.35815 7.26986 0
M  V30 994 H 126.653 1.15238 4.46468 0
M  V30 995 H 131.86 4.88312 4.49647 0
M  V30 996 H 126.79 -0.396382 6.05203 0
M  V30 997 H 128.166 -0.484997 7.18465 0
M  V30 998 H 133.87 1.61619 6.13468 0
M  V30 999 P 135.726 3.65191 7.99657 0
M  V30 1000 O 137.148 3.8425 8.48115 0
M  V30 1001 O 135.366 4.17805 6.64342 0
M  V30 1002 O 135.403 2.07613 7.95143 0
M  V30 1003 C 135.243 1.44328 9.27336 0
M  V30 1004 C 135.783 0.0220036 9.17197 0
M  V30 1005 O 134.727 -0.626867 8.61923 0
M  V30 1006 C 137.001 -0.24586 8.30336 0
M  V30 1007 O 137.739 -1.39011 8.63583 0
M  V30 1008 C 136.332 -0.273849 6.91158 0
M  V30 1009 O 137.131 -1.06348 6.02892 0
M  V30 1010 C 134.995 -0.897649 7.22545 0
M  V30 1011 H 135.027 -1.9841 7.04286 0
M  V30 1012 H 136.21 0.739928 6.497 0
M  V30 1013 H 137.694 0.60668 8.36503 0
M  V30 1014 H 136 -0.352479 10.1829 0
M  V30 1015 H 135.81 2.00611 10.0304 0
M  V30 1016 H 134.18 1.41843 9.55327 0
M  V30 1017 H 136.819 -1.95734 6.03555 0
M  V30 1018 P 138.677 -1.25109 8.70152 0
M  V30 1019 O 140.078 -1.31452 9.27431 0
M  V30 1020 O 138.299 -0.0458113 7.89887 0
M  V30 1021 O 138.354 -2.55201 7.81066 0
M  V30 1022 C 138.194 -3.79939 8.58154 0
M  V30 1023 C 138.734 -4.93969 7.72701 0
M  V30 1024 O 137.678 -5.18666 6.91125 0
M  V30 1025 C 139.951 -4.69597 6.85231 0
M  V30 1026 O 140.69 -5.83832 6.51337 0
M  V30 1027 C 139.284 -3.96706 5.66633 0
M  V30 1028 O 140.082 -4.15346 4.49615 0
M  V30 1029 C 137.946 -4.66153 5.59313 0
M  V30 1030 N 136.903 -3.71582 5.24027 0
M  V30 1031 C 135.868 -4.15133 4.44901 0
M  V30 1032 O 135.907 -5.32122 4.00336 0
M  V30 1033 N 134.856 -3.30554 4.15693 0
M  V30 1034 C 134.904 -2.04701 4.61105 0
M  V30 1035 N 133.894 -1.23621 4.31855 0
M  V30 1036 C 136 -1.57111 5.38655 0
M  V30 1037 C 136.966 -2.44234 5.68454 0
M  V30 1038 H 137.978 -5.47604 4.85148 0
M  V30 1039 H 139.161 -2.8955 5.86187 0
M  V30 1040 H 140.645 -4.01995 7.36197 0
M  V30 1041 H 138.951 -5.81019 8.37003 0
M  V30 1042 H 138.76 -3.73517 9.52265 0
M  V30 1043 H 137.13 -3.97122 8.80267 0
M  V30 1044 H 136.048 -0.538464 5.72373 0
M  V30 1045 H 137.812 -2.11927 6.29377 0
M  V30 1046 H 133.104 -1.58199 3.7543 0
M  V30 1047 H 133.899 -0.264601 4.65348 0
M  V30 1048 H 139.866 -4.98352 4.09633 0
M  V30 1049 P 141.627 -5.75688 6.64379 0
M  V30 1050 O 143.049 -6.11849 7.01846 0
M  V30 1051 O 141.267 -4.30744 6.56026 0
M  V30 1052 O 141.304 -6.37042 5.19165 0
M  V30 1053 C 141.144 -7.83578 5.16515 0
M  V30 1054 C 141.684 -8.33398 3.83019 0
M  V30 1055 O 140.628 -8.10074 3.01034 0
M  V30 1056 C 142.902 -7.65514 3.2257 0
M  V30 1057 O 143.64 -8.4329 2.32297 0
M  V30 1058 C 142.233 -6.40075 2.62207 0
M  V30 1059 O 143.032 -5.92589 1.53712 0
M  V30 1060 C 140.896 -6.9454 2.18503 0
M  V30 1061 H 140.928 -7.23063 1.12091 0
M  V30 1062 H 142.111 -5.6025 3.37201 0
M  V30 1063 H 143.595 -7.35707 4.02681 0
M  V30 1064 H 141.901 -9.40912 3.9095 0
M  V30 1065 H 141.711 -8.29056 5.99158 0
M  V30 1066 H 140.081 -8.10073 5.25882 0
M  V30 1067 H 142.72 -6.30324 0.726794 0
M  V30 1068 P 144.578 -8.4349 2.47671 0
M  V30 1069 O 145.979 -8.98227 2.65696 0
M  V30 1070 O 144.2 -7.20409 3.23964 0
M  V30 1071 O 144.255 -8.16496 0.923275 0
M  V30 1072 C 144.095 -9.38437 0.108857 0
M  V30 1073 C 144.635 -9.08076 -1.28339 0
M  V30 1074 O 143.579 -8.44131 -1.84692 0
M  V30 1075 C 145.852 -8.18386 -1.42505 0
M  V30 1076 O 146.591 -8.3501 -2.60497 0
M  V30 1077 C 145.185 -6.80225 -1.25468 0
M  V30 1078 O 145.983 -5.81526 -1.91035 0
M  V30 1079 C 143.847 -7.02416 -1.9168 0
M  V30 1080 N 142.804 -6.31033 -1.20314 0
M  V30 1081 C 141.769 -5.77149 -1.928 0
M  V30 1082 O 141.808 -5.8521 -3.17729 0
M  V30 1083 N 140.757 -5.15445 -1.27997 0
M  V30 1084 C 140.805 -5.04472 0.0534726 0
M  V30 1085 C 141.901 -5.55244 0.808522 0
M  V30 1086 C 142.867 -6.18542 0.13981 0
M  V30 1087 H 143.879 -6.68789 -2.9658 0
M  V30 1088 H 145.062 -6.53498 -0.198729 0
M  V30 1089 H 146.546 -8.36663 -0.5984 0
M  V30 1090 H 144.852 -10.0273 -1.8081 0
M  V30 1091 H 144.661 -10.2138 0.558219 0
M  V30 1092 H 143.031 -9.6569 0.0444156 0
M  V30 1093 H 141.949 -5.43017 1.88792 0
M  V30 1094 H 143.713 -6.60539 0.686773 0
M  V30 1095 H 145.767 -5.79638 -2.8315 0
M  V30 1096 P 147.528 -8.4349 -2.47671 0
M  V30 1097 O 148.95 -8.92593 -2.65 0
M  V30 1098 O 147.168 -7.7568 -1.19296 0
M  V30 1099 O 147.205 -7.36886 -3.63805 0
M  V30 1100 C 147.045 -7.95349 -4.982 0
M  V30 1101 C 147.585 -6.94612 -5.98974 0
M  V30 1102 O 146.529 -6.10347 -6.11815 0
M  V30 1103 C 148.803 -6.11426 -5.62335 0
M  V30 1104 O 149.541 -5.6162 -6.70584 0
M  V30 1105 C 148.134 -5.04409 -4.73308 0
M  V30 1106 O 148.933 -3.85992 -4.75183 0
M  V30 1107 C 146.797 -4.8728 -5.41006 0
M  V30 1108 H 146.829 -4.02333 -6.11157 0
M  V30 1109 H 148.012 -5.39466 -3.69543 0
M  V30 1110 H 149.496 -6.71916 -5.01943 0
M  V30 1111 H 147.802 -7.4649 -6.93477 0
M  V30 1112 H 147.612 -8.89416 -5.05237 0
M  V30 1113 H 145.982 -8.14876 -5.18409 0
M  V30 1114 H 148.621 -3.27957 -5.4317 0
M  V30 1115 P 150.479 -5.75688 -6.64379 0
M  V30 1116 O 151.901 -6.07627 -7.05504 0
M  V30 1117 O 150.119 -5.88047 -5.19722 0
M  V30 1118 O 150.156 -4.2322 -7.04443 0
M  V30 1119 C 149.996 -3.99743 -8.4911 0
M  V30 1120 C 150.536 -2.60516 -8.79425 0
M  V30 1121 O 149.48 -1.82684 -8.4467 0
M  V30 1122 C 151.754 -2.10343 -8.03628 0
M  V30 1123 O 152.492 -1.09919 -8.67766 0
M  V30 1124 C 151.085 -1.68446 -6.70876 0
M  V30 1125 O 151.884 -0.678137 -6.08433 0
M  V30 1126 C 149.748 -1.17436 -7.18567 0
M  V30 1127 H 149.78 -0.0804732 -7.31656 0
M  V30 1128 H 150.963 -2.54037 -6.02537 0
M  V30 1129 H 152.447 -2.93881 -7.85526 0
M  V30 1130 H 150.753 -2.53065 -9.86973 0
M  V30 1131 H 150.563 -4.75072 -9.05887 0
M  V30 1132 H 148.933 -4.05244 -8.76668 0
M  V30 1133 H 151.572 0.177647 -6.34251 0
M  V30 1134 P 153.43 -1.25109 -8.70152 0
M  V30 1135 O 154.852 -1.29744 -9.22016 0
M  V30 1136 O 153.07 -2.13714 -7.55141 0
M  V30 1137 O 153.107 0.248149 -8.21425 0
M  V30 1138 C 152.947 1.22779 -9.30434 0
M  V30 1139 C 153.487 2.56293 -8.80664 0
M  V30 1140 O 152.431 3.02979 -8.09349 0
M  V30 1141 C 154.705 2.57523 -7.89775 0
M  V30 1142 O 155.443 3.7668 -7.89438 0
M  V30 1143 C 154.036 2.20997 -6.55446 0
M  V30 1144 O 154.835 2.71895 -5.48509 0
M  V30 1145 C 152.699 2.89693 -6.67988 0
M  V30 1146 H 152.731 3.88793 -6.19859 0
M  V30 1147 H 153.914 1.12046 -6.44229 0
M  V30 1148 H 155.398 1.7746 -8.19711 0
M  V30 1149 H 153.704 3.20706 -9.67112 0
M  V30 1150 H 153.514 0.901032 -10.1892 0
M  V30 1151 H 151.884 1.33049 -9.56592 0
M  V30 1152 H 154.523 3.57847 -5.23962 0
M  V30 1153 P 156.38 3.65191 -7.99657 0
M  V30 1154 O 157.802 3.89416 -8.45976 0
M  V30 1155 O 156.02 2.28472 -7.50807 0
M  V30 1156 O 156.057 4.64972 -6.77611 0
M  V30 1157 C 155.897 6.06319 -7.16352 0
M  V30 1158 C 156.437 6.91655 -6.02234 0
M  V30 1159 O 155.382 6.92449 -5.17064 0
M  V30 1160 C 157.655 6.43627 -5.25174 0
M  V30 1161 O 158.393 7.43686 -4.60469 0
M  V30 1162 C 156.987 5.40275 -4.31916 0
M  V30 1163 O 157.785 5.25193 -3.14386 0
M  V30 1164 C 155.649 6.04847 -4.05327 0
M  V30 1165 N 154.606 5.04166 -3.98114 0
M  V30 1166 C 154.668 3.96049 -4.75587 0
M  V30 1167 N 153.623 3.15559 -4.54006 0
M  V30 1168 C 152.889 3.78802 -3.62491 0
M  V30 1169 C 151.583 3.476 -3.10071 0
M  V30 1170 O 150.85 2.51136 -3.37021 0
M  V30 1171 N 151.153 4.39088 -2.19956 0
M  V30 1172 C 151.902 5.53215 -1.81733 0
M  V30 1173 N 151.305 6.31963 -0.860928 0
M  V30 1174 N 153.055 5.86688 -2.32562 0
M  V30 1175 C 153.512 4.97525 -3.23407 0
M  V30 1176 H 155.681 6.62195 -3.11261 0
M  V30 1177 H 156.864 4.42488 -4.8131 0
M  V30 1178 H 158.349 5.93051 -5.9305 0
M  V30 1179 H 156.654 7.92655 -6.402 0
M  V30 1180 H 156.464 6.26671 -8.0846 0
M  V30 1181 H 154.833 6.29101 -7.32804 0
M  V30 1182 H 150.257 4.25523 -1.77604 0
M  V30 1183 H 155.464 3.75576 -5.47333 0
M  V30 1184 H 150.394 6.04684 -0.468946 0
M  V30 1185 H 151.77 7.18054 -0.542422 0
M  V30 1186 H 157.474 5.84223 -2.47279 0
M  V30 1187 P 159.331 7.39546 -4.75277 0
M  V30 1188 O 160.753 7.84798 -5.01039 0
M  V30 1189 O 158.971 5.9812 -5.08098 0
M  V30 1190 O 159.008 7.57503 -3.1866 0
M  V30 1191 C 158.848 8.97357 -2.74833 0
M  V30 1192 C 159.388 9.07548 -1.32709 0
M  V30 1193 O 158.332 8.62072 -0.606159 0
M  V30 1194 C 160.606 8.25383 -0.938334 0
M  V30 1195 O 161.344 8.74577 0.146954 0
M  V30 1196 C 159.937 6.8802 -0.712559 0
M  V30 1197 O 160.736 6.1189 0.194655 0
M  V30 1198 C 158.6 7.27966 -0.139777 0
M  V30 1199 H 158.632 7.25354 0.961601 0
M  V30 1200 H 159.815 6.32557 -1.65702 0
M  V30 1201 H 161.299 8.19355 -1.79097 0
M  V30 1202 H 159.605 10.1294 -1.10029 0
M  V30 1203 H 159.415 9.64276 -3.41316 0
M  V30 1204 H 157.785 9.25417 -2.76357 0
M  V30 1205 H 160.424 6.25267 1.07847 0
M  V30 1206 P 162.281 8.791 -1.35693e-13 0
M  V30 1207 O 163.703 9.31096 0.027933 0
M  V30 1208 O 161.921 7.77869 -1.04071 0
M  V30 1209 O 161.958 8.09533 1.41463 0
M  V30 1210 C 161.798 9.0349 2.53943 0
M  V30 1211 C 162.338 8.35226 3.79016 0
M  V30 1212 O 161.282 7.57992 4.15078 0
M  V30 1213 C 163.556 7.45087 3.67298 0
M  V30 1214 O 164.294 7.27796 4.85194 0
M  V30 1215 C 162.887 6.17323 3.12027 0
M  V30 1216 O 163.686 5.04231 3.47188 0
M  V30 1217 C 161.55 6.19961 3.81809 0
M  V30 1218 H 161.582 5.58218 4.73051 0
M  V30 1219 H 162.765 6.21726 2.02589 0
M  V30 1220 H 164.249 7.86112 2.9231 0
M  V30 1221 H 162.555 9.11627 4.55076 0
M  V30 1222 H 162.365 9.9573 2.34194 0
M  V30 1223 H 160.735 9.2792 2.67832 0
M  V30 1224 H 163.374 4.67702 4.28772 0
M  V30 1225 P 165.232 7.39546 4.75277 0
M  V30 1226 O 166.654 7.81777 5.05738 0
M  V30 1227 O 164.872 7.1065 3.32998 0
M  V30 1228 O 164.909 6.04542 5.56673 0
M  V30 1229 C 164.749 6.22772 7.02095 0
M  V30 1230 C 165.289 4.97725 7.70406 0
M  V30 1231 O 164.233 4.13256 7.58987 0
M  V30 1232 C 166.507 4.28231 7.11815 0
M  V30 1233 O 167.245 3.49945 8.01648 0
M  V30 1234 C 165.838 3.5063 5.96244 0
M  V30 1235 O 166.637 2.36482 5.64681 0
M  V30 1236 C 164.501 3.15122 6.56374 0
M  V30 1237 H 164.533 2.13853 6.99751 0
M  V30 1238 H 165.716 4.13501 5.06559 0
M  V30 1239 H 167.2 5.03285 6.70911 0
M  V30 1240 H 165.506 5.20877 8.75697 0
M  V30 1241 H 165.316 7.11046 7.35349 0
M  V30 1242 H 163.686 6.35815 7.26986 0
M  V30 1243 H 166.325 1.61644 6.13565 0
M  V30 1244 P 168.182 3.65191 7.99657 0
M  V30 1245 O 169.604 3.8425 8.48115 0
M  V30 1246 O 167.822 4.17805 6.64342 0
M  V30 1247 O 167.859 2.07613 7.95143 0
M  V30 1248 C 167.699 1.44328 9.27336 0
M  V30 1249 C 168.239 0.0220036 9.17197 0
M  V30 1250 O 167.183 -0.626867 8.61923 0
M  V30 1251 C 169.457 -0.24586 8.30336 0
M  V30 1252 O 170.195 -1.39011 8.63583 0
M  V30 1253 C 168.788 -0.273849 6.91158 0
M  V30 1254 O 169.587 -1.06348 6.02892 0
M  V30 1255 C 167.451 -0.897649 7.22545 0
M  V30 1256 H 167.483 -1.9841 7.04286 0
M  V30 1257 H 168.666 0.739928 6.497 0
M  V30 1258 H 170.15 0.60668 8.36503 0
M  V30 1259 H 168.456 -0.352479 10.1829 0
M  V30 1260 H 168.266 2.00611 10.0304 0
M  V30 1261 H 166.636 1.41843 9.55327 0
M  V30 1262 H 169.275 -1.95734 6.03555 0
M  V30 1263 P 171.133 -1.25109 8.70152 0
M  V30 1264 O 172.555 -1.35274 9.21221 0
M  V30 1265 O 170.773 -0.0769065 7.84762 0
M  V30 1266 O 170.81 -2.55232 7.81161 0
M  V30 1267 C 170.65 -3.79939 8.58154 0
M  V30 1268 C 171.19 -4.94023 7.72785 0
M  V30 1269 O 170.134 -5.18726 6.91205 0
M  V30 1270 C 172.408 -4.69597 6.85231 0
M  V30 1271 O 173.146 -5.83832 6.51337 0
M  V30 1272 C 171.739 -3.96706 5.66633 0
M  V30 1273 O 172.538 -4.15414 4.49689 0
M  V30 1274 C 170.402 -4.66153 5.59313 0
M  V30 1275 H 170.434 -5.47679 4.85214 0
M  V30 1276 H 171.617 -2.89008 5.86566 0
M  V30 1277 H 173.101 -4.0121 7.36511 0
M  V30 1278 H 171.407 -5.80182 8.37584 0
M  V30 1279 H 171.217 -3.73517 9.52265 0
M  V30 1280 H 169.587 -3.97163 8.80359 0
M  V30 1281 H 172.226 -4.90969 4.01921 0
M  V30 1282 P 174.084 -5.75688 6.64379 0
M  V30 1283 O 175.485 -6.11991 7.09136 0
M  V30 1284 O 173.706 -4.30899 6.62018 0
M  V30 1285 O 173.761 -6.36965 5.19102 0
M  V30 1286 C 173.601 -7.83578 5.16515 0
M  V30 1287 C 174.141 -8.33307 3.82977 0
M  V30 1288 O 173.085 -8.0998 3.00999 0
M  V30 1289 C 175.358 -7.65514 3.2257 0
M  V30 1290 O 176.097 -8.4329 2.32297 0
M  V30 1291 C 174.691 -6.40075 2.62207 0
M  V30 1292 O 175.489 -5.92492 1.53687 0
M  V30 1293 C 173.353 -6.9454 2.18503 0
M  V30 1294 N 172.31 -5.95905 2.39948 0
M  V30 1295 C 171.275 -5.89764 1.49837 0
M  V30 1296 O 171.314 -6.64088 0.490975 0
M  V30 1297 N 170.263 -5.02821 1.70992 0
M  V30 1298 C 170.311 -4.21498 2.77236 0
M  V30 1299 N 169.301 -3.37475 2.96465 0
M  V30 1300 C 171.407 -4.23389 3.68205 0
M  V30 1301 C 172.373 -5.12792 3.46171 0
M  V30 1302 H 173.385 -7.22964 1.12076 0
M  V30 1303 H 174.568 -5.60502 3.36589 0
M  V30 1304 H 176.052 -7.36197 4.01993 0
M  V30 1305 H 174.358 -9.41302 3.90009 0
M  V30 1306 H 174.167 -8.29056 5.99158 0
M  V30 1307 H 172.537 -8.09989 5.25828 0
M  V30 1308 H 171.455 -3.54747 4.52399 0
M  V30 1309 H 173.219 -5.18551 4.1489 0
M  V30 1310 H 168.511 -3.36058 2.30304 0
M  V30 1311 H 169.306 -2.73846 3.77171 0
M  V30 1312 H 175.273 -6.40705 0.751752 0
M  V30 1313 P 177.034 -8.4349 2.47671 0
M  V30 1314 O 178.435 -8.98227 2.65696 0
M  V30 1315 O 176.656 -7.20409 3.23964 0
M  V30 1316 O 176.711 -8.16496 0.923275 0
M  V30 1317 C 176.551 -9.38437 0.108857 0
M  V30 1318 C 177.091 -9.08076 -1.28339 0
M  V30 1319 O 176.035 -8.44131 -1.84692 0
M  V30 1320 C 178.308 -8.18386 -1.42505 0
M  V30 1321 O 179.047 -8.3501 -2.60497 0
M  V30 1322 C 177.641 -6.80225 -1.25468 0
M  V30 1323 O 178.439 -5.81526 -1.91035 0
M  V30 1324 C 176.303 -7.02416 -1.9168 0
M  V30 1325 N 175.26 -6.31033 -1.20314 0
M  V30 1326 C 174.225 -5.77149 -1.928 0
M  V30 1327 O 174.264 -5.8521 -3.17729 0
M  V30 1328 N 173.213 -5.15445 -1.27997 0
M  V30 1329 C 173.261 -5.04472 0.0534726 0
M  V30 1330 C 174.357 -5.55244 0.808522 0
M  V30 1331 C 175.323 -6.18542 0.13981 0
M  V30 1332 H 176.335 -6.68789 -2.9658 0
M  V30 1333 H 177.518 -6.53498 -0.198729 0
M  V30 1334 H 179.002 -8.36663 -0.5984 0
M  V30 1335 H 177.308 -10.0273 -1.8081 0
M  V30 1336 H 177.117 -10.2138 0.558219 0
M  V30 1337 H 175.487 -9.6569 0.0444156 0
M  V30 1338 H 174.405 -5.43017 1.88792 0
M  V30 1339 H 176.169 -6.60539 0.686773 0
M  V30 1340 H 178.223 -5.79638 -2.8315 0
M  V30 1341 P 179.985 -8.4349 -2.47671 0
M  V30 1342 O 181.407 -8.92593 -2.65 0
M  V30 1343 O 179.625 -7.7568 -1.19296 0
M  V30 1344 O 179.662 -7.36886 -3.63805 0
M  V30 1345 C 179.502 -7.95349 -4.982 0
M  V30 1346 C 180.042 -6.94612 -5.98974 0
M  V30 1347 O 178.986 -6.10347 -6.11815 0
M  V30 1348 C 181.26 -6.11426 -5.62335 0
M  V30 1349 O 181.998 -5.6162 -6.70584 0
M  V30 1350 C 180.591 -5.04409 -4.73308 0
M  V30 1351 O 181.39 -3.85992 -4.75183 0
M  V30 1352 C 179.254 -4.8728 -5.41006 0
M  V30 1353 H 179.286 -4.02333 -6.11157 0
M  V30 1354 H 180.469 -5.39466 -3.69543 0
M  V30 1355 H 181.953 -6.71916 -5.01943 0
M  V30 1356 H 180.259 -7.4649 -6.93477 0
M  V30 1357 H 180.069 -8.89416 -5.05237 0
M  V30 1358 H 178.439 -8.14876 -5.18409 0
M  V30 1359 H 181.078 -3.27957 -5.4317 0
M  V30 1360 P 182.935 -5.75688 -6.64379 0
M  V30 1361 O 184.357 -6.07627 -7.05504 0
M  V30 1362 O 182.575 -5.88047 -5.19722 0
M  V30 1363 O 182.612 -4.2322 -7.04443 0
M  V30 1364 C 182.452 -3.99743 -8.4911 0
M  V30 1365 C 182.992 -2.60516 -8.79425 0
M  V30 1366 O 181.936 -1.82684 -8.4467 0
M  V30 1367 C 184.21 -2.10343 -8.03628 0
M  V30 1368 O 184.948 -1.09919 -8.67766 0
M  V30 1369 C 183.541 -1.68446 -6.70876 0
M  V30 1370 O 184.34 -0.678137 -6.08433 0
M  V30 1371 C 182.204 -1.17436 -7.18567 0
M  V30 1372 H 182.236 -0.0804732 -7.31656 0
M  V30 1373 H 183.419 -2.54037 -6.02537 0
M  V30 1374 H 184.903 -2.93881 -7.85526 0
M  V30 1375 H 183.209 -2.53065 -9.86973 0
M  V30 1376 H 183.019 -4.75072 -9.05887 0
M  V30 1377 H 181.389 -4.05244 -8.76668 0
M  V30 1378 H 184.028 0.177647 -6.34251 0
M  V30 1379 P 185.886 -1.25109 -8.70152 0
M  V30 1380 O 187.308 -1.29744 -9.22016 0
M  V30 1381 O 185.526 -2.13714 -7.55141 0
M  V30 1382 O 185.563 0.248149 -8.21425 0
M  V30 1383 C 185.403 1.22779 -9.30434 0
M  V30 1384 C 185.943 2.56293 -8.80664 0
M  V30 1385 O 184.887 3.02979 -8.09349 0
M  V30 1386 C 187.161 2.57523 -7.89775 0
M  V30 1387 O 187.899 3.7668 -7.89438 0
M  V30 1388 C 186.492 2.20997 -6.55446 0
M  V30 1389 O 187.291 2.71895 -5.48509 0
M  V30 1390 C 185.155 2.89693 -6.67988 0
M  V30 1391 H 185.187 3.88793 -6.19859 0
M  V30 1392 H 186.37 1.12046 -6.44229 0
M  V30 1393 H 187.854 1.7746 -8.19711 0
M  V30 1394 H 186.16 3.20706 -9.67112 0
M  V30 1395 H 185.97 0.901032 -10.1892 0
M  V30 1396 H 184.34 1.33049 -9.56592 0
M  V30 1397 H 186.979 3.57847 -5.23962 0
M  V30 1398 P 188.836 3.65191 -7.99657 0
M  V30 1399 O 190.257 3.89374 -8.45885 0
M  V30 1400 O 188.476 2.28472 -7.50807 0
M  V30 1401 O 188.513 4.64972 -6.77611 0
M  V30 1402 C 188.352 6.06383 -7.16428 0
M  V30 1403 C 188.893 6.91731 -6.02299 0
M  V30 1404 O 187.838 6.92369 -5.17005 0
M  V30 1405 C 190.111 6.43627 -5.25174 0
M  V30 1406 O 190.849 7.43686 -4.60469 0
M  V30 1407 C 189.443 5.40275 -4.31916 0
M  V30 1408 O 190.241 5.24878 -3.14911 0
M  V30 1409 C 188.105 6.04847 -4.05327 0
M  V30 1410 N 187.062 5.04166 -3.98114 0
M  V30 1411 C 187.231 3.84629 -4.59066 0
M  V30 1412 N 186.204 3.0363 -4.45343 0
M  V30 1413 C 185.319 3.76722 -3.68523 0
M  V30 1414 C 184.052 3.43528 -3.17088 0
M  V30 1415 N 183.487 4.44526 -2.44231 0
M  V30 1416 C 184.089 5.65243 -2.20146 0
M  V30 1417 N 185.266 6.00221 -2.65453 0
M  V30 1418 C 185.841 5.00564 -3.39083 0
M  V30 1419 H 189.32 4.42969 -4.80867 0
M  V30 1420 H 190.803 5.92458 -5.93643 0
M  V30 1421 H 189.109 7.93295 -6.39407 0
M  V30 1422 H 188.919 6.26671 -8.0846 0
M  V30 1423 H 187.289 6.29101 -7.32804 0
M  V30 1424 H 188.131 3.58193 -5.14248 0
M  V30 1425 H 189.929 5.84223 -2.47279 0
M  V30 1426 P 191.787 7.39546 -4.75277 0
M  V30 1427 O 193.209 7.84798 -5.01039 0
M  V30 1428 O 191.427 5.9812 -5.08098 0
M  V30 1429 O 191.464 7.57503 -3.1866 0
M  V30 1430 C 191.304 8.97357 -2.74833 0
M  V30 1431 C 191.844 9.07548 -1.32709 0
M  V30 1432 O 190.788 8.62072 -0.606159 0
M  V30 1433 C 193.062 8.25383 -0.938334 0
M  V30 1434 O 193.8 8.74577 0.146954 0
M  V30 1435 C 192.393 6.8802 -0.712559 0
M  V30 1436 O 193.192 6.1189 0.194655 0
M  V30 1437 C 191.056 7.27966 -0.139777 0
M  V30 1438 H 191.088 7.25354 0.961601 0
M  V30 1439 H 192.271 6.32557 -1.65702 0
M  V30 1440 H 193.755 8.19355 -1.79097 0
M  V30 1441 H 192.061 10.1294 -1.10029 0
M  V30 1442 H 191.871 9.64276 -3.41316 0
M  V30 1443 H 190.241 9.25417 -2.76357 0
M  V30 1444 H 192.88 6.25267 1.07847 0
M  V30 1445 P 194.738 8.791 1.12009e-13 0
M  V30 1446 O 196.16 9.31096 0.027933 0
M  V30 1447 O 194.378 7.77869 -1.04071 0
M  V30 1448 O 194.415 8.09533 1.41463 0
M  V30 1449 C 194.255 9.0349 2.53943 0
M  V30 1450 C 194.795 8.35226 3.79016 0
M  V30 1451 O 193.739 7.57992 4.15078 0
M  V30 1452 C 196.013 7.45087 3.67298 0
M  V30 1453 O 196.751 7.27796 4.85194 0
M  V30 1454 C 195.344 6.17323 3.12027 0
M  V30 1455 O 196.143 5.04231 3.47188 0
M  V30 1456 C 194.007 6.19961 3.81809 0
M  V30 1457 H 194.039 5.58218 4.73051 0
M  V30 1458 H 195.222 6.21726 2.02589 0
M  V30 1459 H 196.706 7.86112 2.9231 0
M  V30 1460 H 195.012 9.11627 4.55076 0
M  V30 1461 H 194.822 9.9573 2.34194 0
M  V30 1462 H 193.192 9.2792 2.67832 0
M  V30 1463 H 195.831 4.67702 4.28772 0
M  V30 1464 P 197.688 7.39546 4.75277 0
M  V30 1465 O 199.11 7.81777 5.05738 0
M  V30 1466 O 197.328 7.1065 3.32998 0
M  V30 1467 O 197.365 6.04542 5.56673 0
M  V30 1468 C 197.205 6.22772 7.02095 0
M  V30 1469 C 197.745 4.97725 7.70406 0
M  V30 1470 O 196.689 4.13256 7.58987 0
M  V30 1471 C 198.963 4.28231 7.11815 0
M  V30 1472 O 199.701 3.49945 8.01648 0
M  V30 1473 C 198.294 3.5063 5.96244 0
M  V30 1474 O 199.093 2.36482 5.64681 0
M  V30 1475 C 196.957 3.15122 6.56374 0
M  V30 1476 H 196.989 2.13853 6.99751 0
M  V30 1477 H 198.172 4.13501 5.06559 0
M  V30 1478 H 199.656 5.03285 6.70911 0
M  V30 1479 H 197.962 5.20877 8.75697 0
M  V30 1480 H 197.772 7.11046 7.35349 0
M  V30 1481 H 196.142 6.35815 7.26986 0
M  V30 1482 H 198.781 1.61644 6.13565 0
M  V30 1483 P 200.639 3.65191 7.99657 0
M  V30 1484 O 202.061 3.8425 8.48115 0
M  V30 1485 O 200.279 4.17805 6.64342 0
M  V30 1486 O 200.316 2.07613 7.95143 0
M  V30 1487 C 200.156 1.44328 9.27336 0
M  V30 1488 C 200.696 0.0220036 9.17197 0
M  V30 1489 O 199.64 -0.626867 8.61923 0
M  V30 1490 C 201.914 -0.24586 8.30336 0
M  V30 1491 O 202.652 -1.39011 8.63583 0
M  V30 1492 C 201.245 -0.273849 6.91158 0
M  V30 1493 O 202.044 -1.06348 6.02892 0
M  V30 1494 C 199.908 -0.897649 7.22545 0
M  V30 1495 H 199.94 -1.9841 7.04286 0
M  V30 1496 H 201.123 0.739928 6.497 0
M  V30 1497 H 202.607 0.60668 8.36503 0
M  V30 1498 H 200.913 -0.352479 10.1829 0
M  V30 1499 H 200.723 2.00611 10.0304 0
M  V30 1500 H 199.093 1.41843 9.55327 0
M  V30 1501 H 201.732 -1.95734 6.03555 0
M  V30 1502 P 203.589 -1.25109 8.70152 0
M  V30 1503 O 205.011 -1.35274 9.21221 0
M  V30 1504 O 203.229 -0.0769065 7.84762 0
M  V30 1505 O 203.266 -2.55232 7.81161 0
M  V30 1506 C 203.106 -3.79939 8.58154 0
M  V30 1507 C 203.646 -4.94023 7.72785 0
M  V30 1508 O 202.59 -5.18726 6.91205 0
M  V30 1509 C 204.864 -4.69597 6.85231 0
M  V30 1510 O 205.602 -5.83832 6.51337 0
M  V30 1511 C 204.195 -3.96706 5.66633 0
M  V30 1512 O 204.994 -4.15414 4.49689 0
M  V30 1513 C 202.858 -4.66153 5.59313 0
M  V30 1514 H 202.89 -5.47679 4.85214 0
M  V30 1515 H 204.073 -2.89008 5.86566 0
M  V30 1516 H 205.557 -4.0121 7.36511 0
M  V30 1517 H 203.863 -5.80182 8.37584 0
M  V30 1518 H 203.673 -3.73517 9.52265 0
M  V30 1519 H 202.043 -3.97163 8.80359 0
M  V30 1520 H 204.682 -4.90969 4.01921 0
M  V30 1521 P 206.54 -5.75688 6.64379 0
M  V30 1522 O 207.962 -6.11849 7.01846 0
M  V30 1523 O 206.18 -4.30744 6.56026 0
M  V30 1524 O 206.217 -6.37042 5.19165 0
M  V30 1525 C 206.057 -7.83578 5.16515 0
M  V30 1526 C 206.597 -8.33398 3.83019 0
M  V30 1527 O 205.541 -8.10074 3.01034 0
M  V30 1528 C 207.815 -7.65514 3.2257 0
M  V30 1529 O 208.553 -8.4329 2.32297 0
M  V30 1530 C 207.146 -6.40075 2.62207 0
M  V30 1531 O 207.945 -5.92589 1.53712 0
M  V30 1532 C 205.809 -6.9454 2.18503 0
M  V30 1533 H 205.841 -7.23063 1.12091 0
M  V30 1534 H 207.024 -5.6025 3.37201 0
M  V30 1535 H 208.508 -7.35707 4.02681 0
M  V30 1536 H 206.814 -9.40912 3.9095 0
M  V30 1537 H 206.624 -8.29056 5.99158 0
M  V30 1538 H 204.994 -8.10073 5.25882 0
M  V30 1539 H 207.633 -6.30324 0.726794 0
M  V30 1540 P 209.49 -8.4349 2.47671 0
M  V30 1541 O 210.912 -8.94167 2.5964 0
M  V30 1542 O 209.13 -7.1704 3.19006 0
M  V30 1543 O 209.167 -8.16596 0.923387 0
M  V30 1544 C 209.007 -9.38437 0.108857 0
M  V30 1545 C 209.547 -9.08175 -1.28353 0
M  V30 1546 O 208.491 -8.44229 -1.84713 0
M  V30 1547 C 210.765 -8.18386 -1.42505 0
M  V30 1548 O 211.503 -8.3501 -2.60497 0
M  V30 1549 C 210.096 -6.80225 -1.25468 0
M  V30 1550 O 210.895 -5.81621 -1.91066 0
M  V30 1551 C 208.759 -7.02416 -1.9168 0
M  V30 1552 H 208.791 -6.6888 -2.96621 0
M  V30 1553 H 209.974 -6.53617 -0.192223 0
M  V30 1554 H 211.458 -8.36622 -0.589963 0
M  V30 1555 H 209.764 -10.0291 -1.79807 0
M  V30 1556 H 209.574 -10.2138 0.558219 0
M  V30 1557 H 207.944 -9.6579 0.0444202 0
M  V30 1558 H 210.583 -5.69556 -2.79637 0
M  V30 1559 P 212.441 -8.4349 -2.47671 0
M  V30 1560 O 213.863 -8.92593 -2.65 0
M  V30 1561 O 212.081 -7.7568 -1.19296 0
M  V30 1562 O 212.118 -7.36886 -3.63805 0
M  V30 1563 C 211.958 -7.95349 -4.982 0
M  V30 1564 C 212.498 -6.94612 -5.98974 0
M  V30 1565 O 211.442 -6.10347 -6.11815 0
M  V30 1566 C 213.716 -6.11426 -5.62335 0
M  V30 1567 O 214.454 -5.6162 -6.70584 0
M  V30 1568 C 213.047 -5.04409 -4.73308 0
M  V30 1569 O 213.846 -3.85992 -4.75183 0
M  V30 1570 C 211.71 -4.8728 -5.41006 0
M  V30 1571 H 211.742 -4.02333 -6.11157 0
M  V30 1572 H 212.925 -5.39466 -3.69543 0
M  V30 1573 H 214.409 -6.71916 -5.01943 0
M  V30 1574 H 212.715 -7.4649 -6.93477 0
M  V30 1575 H 212.525 -8.89416 -5.05237 0
M  V30 1576 H 210.895 -8.14876 -5.18409 0
M  V30 1577 H 213.534 -3.27957 -5.4317 0
M  V30 1578 P 215.392 -5.75688 -6.64379 0
M  V30 1579 O 216.793 -6.14823 -7.06682 0
M  V30 1580 O 215.014 -5.93957 -5.20728 0
M  V30 1581 O 215.069 -4.23169 -7.04357 0
M  V30 1582 C 214.909 -3.99743 -8.4911 0
M  V30 1583 C 215.449 -2.60487 -8.79329 0
M  V30 1584 O 214.393 -1.82663 -8.44573 0
M  V30 1585 C 216.666 -2.10343 -8.03628 0
M  V30 1586 O 217.405 -1.09919 -8.67766 0
M  V30 1587 C 215.999 -1.68446 -6.70876 0
M  V30 1588 O 216.797 -0.678026 -6.08333 0
M  V30 1589 C 214.661 -1.17436 -7.18567 0
M  V30 1590 N 213.618 -1.52699 -6.23988 0
M  V30 1591 C 212.583 -0.643793 -6.05085 0
M  V30 1592 O 212.622 0.459118 -6.64315 0
M  V30 1593 N 211.571 -0.976931 -5.22038 0
M  V30 1594 C 211.619 -2.14429 -4.56662 0
M  V30 1595 N 210.609 -2.4542 -3.76231 0
M  V30 1596 C 212.715 -3.04203 -4.71481 0
M  V30 1597 C 213.681 -2.69669 -5.56838 0
M  V30 1598 H 214.693 -0.0804622 -7.31556 0
M  V30 1599 H 215.876 -2.53396 -6.02698 0
M  V30 1600 H 217.36 -2.9313 -7.85914 0
M  V30 1601 H 215.666 -2.52078 -9.87225 0
M  V30 1602 H 215.475 -4.75072 -9.05887 0
M  V30 1603 H 213.845 -4.05202 -8.76577 0
M  V30 1604 H 212.763 -3.97309 -4.15519 0
M  V30 1605 H 214.527 -3.36869 -5.72318 0
M  V30 1606 H 209.819 -1.80133 -3.65413 0
M  V30 1607 H 210.614 -3.34359 -3.24736 0
M  V30 1608 H 216.581 0.167718 -6.44882 0
M  V30 1609 P 218.342 -1.25109 -8.70152 0
M  V30 1610 O 219.764 -1.29744 -9.22016 0
M  V30 1611 O 217.982 -2.13714 -7.55141 0
M  V30 1612 O 218.019 0.248149 -8.21425 0
M  V30 1613 C 217.859 1.22779 -9.30434 0
M  V30 1614 C 218.399 2.56293 -8.80664 0
M  V30 1615 O 217.343 3.02979 -8.09349 0
M  V30 1616 C 219.617 2.57523 -7.89775 0
M  V30 1617 O 220.355 3.7668 -7.89438 0
M  V30 1618 C 218.948 2.20997 -6.55446 0
M  V30 1619 O 219.747 2.71895 -5.48509 0
M  V30 1620 C 217.611 2.89693 -6.67988 0
M  V30 1621 H 217.643 3.88793 -6.19859 0
M  V30 1622 H 218.826 1.12046 -6.44229 0
M  V30 1623 H 220.31 1.7746 -8.19711 0
M  V30 1624 H 218.616 3.20706 -9.67112 0
M  V30 1625 H 218.426 0.901032 -10.1892 0
M  V30 1626 H 216.796 1.33049 -9.56592 0
M  V30 1627 H 219.435 3.57847 -5.23962 0
M  V30 1628 P 221.293 3.65191 -7.99657 0
M  V30 1629 O 222.715 3.89332 -8.45794 0
M  V30 1630 O 220.933 2.28472 -7.50807 0
M  V30 1631 O 220.97 4.64972 -6.77611 0
M  V30 1632 C 220.81 6.06319 -7.16352 0
M  V30 1633 C 221.35 6.91731 -6.02299 0
M  V30 1634 O 220.294 6.92449 -5.17064 0
M  V30 1635 C 222.568 6.43627 -5.25174 0
M  V30 1636 O 223.306 7.43686 -4.60469 0
M  V30 1637 C 221.899 5.40275 -4.31916 0
M  V30 1638 O 222.698 5.25279 -3.14438 0
M  V30 1639 C 220.562 6.04847 -4.05327 0
M  V30 1640 H 220.594 6.62195 -3.11261 0
M  V30 1641 H 221.777 4.42556 -4.81383 0
M  V30 1642 H 223.261 5.92458 -5.93643 0
M  V30 1643 H 221.567 7.92655 -6.402 0
M  V30 1644 H 221.377 6.26671 -8.0846 0
M  V30 1645 H 219.747 6.29101 -7.32804 0
M  V30 1646 H 222.386 5.84315 -2.47318 0
M  V30 1647 P 224.243 7.39546 -4.75277 0
M  V30 1648 O 225.665 7.84798 -5.01039 0
M  V30 1649 O 223.883 5.9812 -5.08098 0
M  V30 1650 O 223.92 7.57503 -3.1866 0
M  V30 1651 C 223.76 8.97357 -2.74833 0
M  V30 1652 C 224.3 9.07548 -1.32709 0
M  V30 1653 O 223.244 8.62072 -0.606159 0
M  V30 1654 C 225.518 8.25383 -0.938334 0
M  V30 1655 O 226.256 8.74577 0.146954 0
M  V30 1656 C 224.849 6.8802 -0.712559 0
M  V30 1657 O 225.648 6.1189 0.194655 0
M  V30 1658 C 223.512 7.27966 -0.139777 0
M  V30 1659 H 223.544 7.25354 0.961601 0
M  V30 1660 H 224.727 6.32557 -1.65702 0
M  V30 1661 H 226.211 8.19355 -1.79097 0
M  V30 1662 H 224.517 10.1294 -1.10029 0
M  V30 1663 H 224.327 9.64276 -3.41316 0
M  V30 1664 H 222.697 9.25417 -2.76357 0
M  V30 1665 H 225.336 6.25267 1.07847 0
M  V30 1666 P 227.194 8.791 4.22174e-13 0
M  V30 1667 O 228.616 9.31096 0.027933 0
M  V30 1668 O 226.834 7.77869 -1.04071 0
M  V30 1669 O 226.871 8.09533 1.41463 0
M  V30 1670 C 226.711 9.0349 2.53943 0
M  V30 1671 C 227.251 8.35226 3.79016 0
M  V30 1672 O 226.195 7.57992 4.15078 0
M  V30 1673 C 228.469 7.45087 3.67298 0
M  V30 1674 O 229.207 7.27796 4.85194 0
M  V30 1675 C 227.8 6.17323 3.12027 0
M  V30 1676 O 228.599 5.04231 3.47188 0
M  V30 1677 C 226.463 6.19961 3.81809 0
M  V30 1678 H 226.495 5.58218 4.73051 0
M  V30 1679 H 227.678 6.21726 2.02589 0
M  V30 1680 H 229.162 7.86112 2.9231 0
M  V30 1681 H 227.468 9.11627 4.55076 0
M  V30 1682 H 227.278 9.9573 2.34194 0
M  V30 1683 H 225.648 9.2792 2.67832 0
M  V30 1684 H 228.287 4.67702 4.28772 0
M  V30 1685 P 230.144 7.39546 4.75277 0
M  V30 1686 O 231.566 7.81945 5.05847 0
M  V30 1687 O 229.784 7.1065 3.32998 0
M  V30 1688 O 229.821 6.04542 5.56673 0
M  V30 1689 C 229.661 6.22772 7.02095 0
M  V30 1690 C 230.201 4.97671 7.70322 0
M  V30 1691 O 229.146 4.13256 7.58987 0
M  V30 1692 C 231.419 4.28231 7.11815 0
M  V30 1693 O 232.157 3.49945 8.01648 0
M  V30 1694 C 230.751 3.5063 5.96244 0
M  V30 1695 O 231.549 2.36443 5.64589 0
M  V30 1696 C 229.413 3.15122 6.56374 0
M  V30 1697 N 228.37 3.22311 5.55692 0
M  V30 1698 C 228.432 4.14382 4.59701 0
M  V30 1699 N 227.387 4.04476 3.76958 0
M  V30 1700 C 226.653 3.04892 4.26534 0
M  V30 1701 C 225.347 2.57447 3.88189 0
M  V30 1702 O 224.614 2.9785 2.96543 0
M  V30 1703 N 224.917 1.55228 4.65922 0
M  V30 1704 C 225.666 1.01152 5.73447 0
M  V30 1705 N 225.069 -0.0472117 6.37783 0
M  V30 1706 N 226.819 1.467 6.13813 0
M  V30 1707 C 227.276 2.4931 5.38487 0
M  V30 1708 H 229.445 2.13853 6.99751 0
M  V30 1709 H 230.628 4.13438 5.06482 0
M  V30 1710 H 232.113 5.02614 6.71414 0
M  V30 1711 H 230.418 5.20877 8.75697 0
M  V30 1712 H 230.228 7.11046 7.35349 0
M  V30 1713 H 228.597 6.35815 7.26986 0
M  V30 1714 H 224.021 1.15238 4.46468 0
M  V30 1715 H 229.228 4.88312 4.49647 0
M  V30 1716 H 224.158 -0.396382 6.05203 0
M  V30 1717 H 225.534 -0.484997 7.18465 0
M  V30 1718 H 231.238 1.61619 6.13468 0
M  V30 1719 P 233.095 3.65191 7.99657 0
M  V30 1720 O 234.517 3.8425 8.48115 0
M  V30 1721 O 232.735 4.17805 6.64342 0
M  V30 1722 O 232.772 2.07613 7.95143 0
M  V30 1723 C 232.612 1.44328 9.27336 0
M  V30 1724 C 233.152 0.0220036 9.17197 0
M  V30 1725 O 232.096 -0.626867 8.61923 0
M  V30 1726 C 234.37 -0.24586 8.30336 0
M  V30 1727 O 235.108 -1.39011 8.63583 0
M  V30 1728 C 233.701 -0.273849 6.91158 0
M  V30 1729 O 234.5 -1.06348 6.02892 0
M  V30 1730 C 232.364 -0.897649 7.22545 0
M  V30 1731 H 232.396 -1.9841 7.04286 0
M  V30 1732 H 233.579 0.739928 6.497 0
M  V30 1733 H 235.063 0.60668 8.36503 0
M  V30 1734 H 233.369 -0.352479 10.1829 0
M  V30 1735 H 233.179 2.00611 10.0304 0
M  V30 1736 H 231.549 1.41843 9.55327 0
M  V30 1737 H 234.188 -1.95734 6.03555 0
M  V30 1738 P 236.046 -1.25109 8.70152 0
M  V30 1739 O 237.468 -1.35274 9.21221 0
M  V30 1740 O 235.686 -0.0769065 7.84762 0
M  V30 1741 O 235.723 -2.55232 7.81161 0
M  V30 1742 C 235.563 -3.79939 8.58154 0
M  V30 1743 C 236.103 -4.94023 7.72785 0
M  V30 1744 O 235.047 -5.18726 6.91205 0
M  V30 1745 C 237.321 -4.69597 6.85231 0
M  V30 1746 O 238.059 -5.83832 6.51337 0
M  V30 1747 C 236.652 -3.96706 5.66633 0
M  V30 1748 O 237.451 -4.15414 4.49689 0
M  V30 1749 C 235.315 -4.66153 5.59313 0
M  V30 1750 H 235.347 -5.47679 4.85214 0
M  V30 1751 H 236.53 -2.89008 5.86566 0
M  V30 1752 H 238.014 -4.0121 7.36511 0
M  V30 1753 H 236.32 -5.80182 8.37584 0
M  V30 1754 H 236.13 -3.73517 9.52265 0
M  V30 1755 H 234.5 -3.97163 8.80359 0
M  V30 1756 H 237.139 -4.90969 4.01921 0
M  V30 1757 P 238.996 -5.75688 6.64379 0
M  V30 1758 O 240.418 -6.11849 7.01846 0
M  V30 1759 O 238.636 -4.30744 6.56026 0
M  V30 1760 O 238.673 -6.37042 5.19165 0
M  V30 1761 C 238.513 -7.83578 5.16515 0
M  V30 1762 C 239.053 -8.33398 3.83019 0
M  V30 1763 O 237.997 -8.10074 3.01034 0
M  V30 1764 C 240.271 -7.65514 3.2257 0
M  V30 1765 O 241.009 -8.4329 2.32297 0
M  V30 1766 C 239.602 -6.40075 2.62207 0
M  V30 1767 O 240.401 -5.92589 1.53712 0
M  V30 1768 C 238.265 -6.9454 2.18503 0
M  V30 1769 H 238.297 -7.23063 1.12091 0
M  V30 1770 H 239.48 -5.6025 3.37201 0
M  V30 1771 H 240.964 -7.35707 4.02681 0
M  V30 1772 H 239.27 -9.40912 3.9095 0
M  V30 1773 H 239.08 -8.29056 5.99158 0
M  V30 1774 H 237.45 -8.10073 5.25882 0
M  V30 1775 H 240.089 -6.30324 0.726794 0
M  V30 1776 P 241.947 -8.4349 2.47671 0
M  V30 1777 O 243.348 -8.98227 2.65696 0
M  V30 1778 O 241.569 -7.20409 3.23964 0
M  V30 1779 O 241.624 -8.16496 0.923275 0
M  V30 1780 C 241.464 -9.38437 0.108857 0
M  V30 1781 C 242.004 -9.08076 -1.28339 0
M  V30 1782 O 240.948 -8.44131 -1.84692 0
M  V30 1783 C 243.221 -8.18386 -1.42505 0
M  V30 1784 O 243.96 -8.3501 -2.60497 0
M  V30 1785 C 242.554 -6.80225 -1.25468 0
M  V30 1786 O 243.352 -5.81526 -1.91035 0
M  V30 1787 C 241.216 -7.02416 -1.9168 0
M  V30 1788 N 240.173 -6.31033 -1.20314 0
M  V30 1789 C 239.138 -5.77149 -1.928 0
M  V30 1790 O 239.177 -5.8521 -3.17729 0
M  V30 1791 N 238.126 -5.15445 -1.27997 0
M  V30 1792 C 238.174 -5.04472 0.0534726 0
M  V30 1793 C 239.27 -5.55244 0.808522 0
M  V30 1794 C 240.236 -6.18542 0.13981 0
M  V30 1795 H 241.248 -6.68789 -2.9658 0
M  V30 1796 H 242.431 -6.53498 -0.198729 0
M  V30 1797 H 243.915 -8.36663 -0.5984 0
M  V30 1798 H 242.221 -10.0273 -1.8081 0
M  V30 1799 H 242.03 -10.2138 0.558219 0
M  V30 1800 H 240.4 -9.6569 0.0444156 0
M  V30 1801 H 239.318 -5.43017 1.88792 0
M  V30 1802 H 241.082 -6.60539 0.686773 0
M  V30 1803 H 243.136 -5.79638 -2.8315 0
M  V30 1804 P 244.897 -8.4349 -2.47671 0
M  V30 1805 O 246.319 -8.92785 -2.65057 0
M  V30 1806 O 244.537 -7.7568 -1.19296 0
M  V30 1807 O 244.574 -7.36886 -3.63805 0
M  V30 1808 C 244.414 -7.95349 -4.982 0
M  V30 1809 C 244.954 -6.94537 -5.98908 0
M  V30 1810 O 243.899 -6.10347 -6.11815 0
M  V30 1811 C 246.172 -6.11426 -5.62335 0
M  V30 1812 O 246.91 -5.6162 -6.70584 0
M  V30 1813 C 245.504 -5.04409 -4.73308 0
M  V30 1814 O 246.302 -3.85929 -4.75106 0
M  V30 1815 C 244.166 -4.8728 -5.41006 0
M  V30 1816 N 243.123 -4.65812 -4.42377 0
M  V30 1817 C 243.185 -5.27109 -3.24335 0
M  V30 1818 N 242.14 -4.94293 -2.47735 0
M  V30 1819 C 241.406 -4.1271 -3.23359 0
M  V30 1820 C 240.1 -3.56384 -2.99934 0
M  V30 1821 O 239.367 -3.69331 -2.00616 0
M  V30 1822 N 239.67 -2.80206 -4.03316 0
M  V30 1823 C 240.419 -2.58614 -5.2172 0
M  V30 1824 N 239.822 -1.75154 -6.13278 0
M  V30 1825 N 241.572 -3.13689 -5.47619 0
M  V30 1826 C 242.029 -3.90921 -4.46436 0
M  V30 1827 H 244.198 -4.02333 -6.11157 0
M  V30 1828 H 245.381 -5.39383 -3.69487 0
M  V30 1829 H 246.866 -6.71414 -5.02615 0
M  V30 1830 H 245.171 -7.4649 -6.93477 0
M  V30 1831 H 244.981 -8.89416 -5.05237 0
M  V30 1832 H 243.35 -8.14876 -5.18409 0
M  V30 1833 H 238.774 -2.36355 -3.95916 0
M  V30 1834 H 243.981 -5.95212 -2.93859 0
M  V30 1835 H 238.911 -1.32473 -5.91856 0
M  V30 1836 H 240.287 -1.5588 -7.03026 0
M  V30 1837 H 245.991 -3.27906 -5.43085 0
M  V30 1838 P 247.848 -5.75688 -6.64379 0
M  V30 1839 O 249.27 -6.07758 -7.05656 0
M  V30 1840 O 247.488 -5.88047 -5.19722 0
M  V30 1841 O 247.525 -4.2322 -7.04443 0
M  V30 1842 C 247.365 -3.99743 -8.4911 0
M  V30 1843 C 247.905 -2.60487 -8.79329 0
M  V30 1844 O 246.85 -1.82684 -8.4467 0
M  V30 1845 C 249.123 -2.10343 -8.03628 0
M  V30 1846 O 249.861 -1.09919 -8.67766 0
M  V30 1847 C 248.455 -1.68446 -6.70876 0
M  V30 1848 O 249.253 -0.678026 -6.08333 0
M  V30 1849 C 247.117 -1.17436 -7.18567 0
M  V30 1850 N 246.074 -1.52699 -6.23988 0
M  V30 1851 C 246.136 -2.68084 -5.57824 0
M  V30 1852 N 245.091 -2.8189 -4.75643 0
M  V30 1853 C 244.357 -1.72373 -4.95155 0
M  V30 1854 C 243.051 -1.37653 -4.44996 0
M  V30 1855 O 242.318 -2.02239 -3.68445 0
M  V30 1856 N 242.621 -0.17675 -4.90782 0
M  V30 1857 C 243.37 0.645036 -5.78716 0
M  V30 1858 N 242.773 1.84214 -6.10618 0
M  V30 1859 N 244.523 0.321732 -6.30279 0
M  V30 1860 C 244.98 -0.87502 -5.86913 0
M  V30 1861 H 247.149 -0.0804732 -7.31656 0
M  V30 1862 H 248.332 -2.53998 -6.02444 0
M  V30 1863 H 249.817 -2.93095 -7.8582 0
M  V30 1864 H 248.122 -2.53065 -9.86973 0
M  V30 1865 H 247.932 -4.75072 -9.05887 0
M  V30 1866 H 246.301 -4.05244 -8.76668 0
M  V30 1867 H 241.725 0.152143 -4.60849 0
M  V30 1868 H 246.932 -3.41852 -5.69006 0
M  V30 1869 H 241.862 2.08538 -5.69521 0
M  V30 1870 H 243.238 2.4895 -6.75698 0
M  V30 1871 H 248.942 0.177619 -6.34151 0
M  V30 1872 P 250.798 -1.25109 -8.70152 0
M  V30 1873 O 252.22 -1.29744 -9.22016 0
M  V30 1874 O 250.438 -2.13714 -7.55141 0
M  V30 1875 O 250.475 0.248149 -8.21425 0
M  V30 1876 C 250.315 1.22779 -9.30434 0
M  V30 1877 C 250.855 2.56293 -8.80664 0
M  V30 1878 O 249.799 3.02979 -8.09349 0
M  V30 1879 C 252.073 2.57523 -7.89775 0
M  V30 1880 O 252.811 3.7668 -7.89438 0
M  V30 1881 C 251.404 2.20997 -6.55446 0
M  V30 1882 O 252.203 2.71895 -5.48509 0
M  V30 1883 C 250.067 2.89693 -6.67988 0
M  V30 1884 H 250.099 3.88793 -6.19859 0
M  V30 1885 H 251.282 1.12046 -6.44229 0
M  V30 1886 H 252.766 1.7746 -8.19711 0
M  V30 1887 H 251.072 3.20706 -9.67112 0
M  V30 1888 H 250.882 0.901032 -10.1892 0
M  V30 1889 H 249.252 1.33049 -9.56592 0
M  V30 1890 H 251.891 3.57847 -5.23962 0
M  V30 1891 P 253.749 3.65191 -7.99657 0
M  V30 1892 O 255.171 3.89332 -8.45794 0
M  V30 1893 O 253.389 2.28472 -7.50807 0
M  V30 1894 O 253.426 4.64972 -6.77611 0
M  V30 1895 C 253.266 6.06319 -7.16352 0
M  V30 1896 C 253.806 6.91731 -6.02299 0
M  V30 1897 O 252.75 6.92449 -5.17064 0
M  V30 1898 C 255.024 6.43627 -5.25174 0
M  V30 1899 O 255.762 7.43686 -4.60469 0
M  V30 1900 C 254.355 5.40275 -4.31916 0
M  V30 1901 O 255.154 5.25279 -3.14438 0
M  V30 1902 C 253.018 6.04847 -4.05327 0
M  V30 1903 H 253.05 6.62195 -3.11261 0
M  V30 1904 H 254.233 4.42556 -4.81383 0
M  V30 1905 H 255.717 5.92458 -5.93643 0
M  V30 1906 H 254.023 7.92655 -6.402 0
M  V30 1907 H 253.833 6.26671 -8.0846 0
M  V30 1908 H 252.203 6.29101 -7.32804 0
M  V30 1909 H 254.842 5.84315 -2.47318 0
M  V30 1910 P 256.7 7.39546 -4.75277 0
M  V30 1911 O 258.122 7.84798 -5.01039 0
M  V30 1912 O 256.34 5.9812 -5.08098 0
M  V30 1913 O 256.377 7.57503 -3.1866 0
M  V30 1914 C 256.217 8.97357 -2.74833 0
M  V30 1915 C 256.757 9.07548 -1.32709 0
M  V30 1916 O 255.701 8.62072 -0.606159 0
M  V30 1917 C 257.975 8.25383 -0.938334 0
M  V30 1918 O 258.713 8.74577 0.146954 0
M  V30 1919 C 257.306 6.8802 -0.712559 0
M  V30 1920 O 258.105 6.1189 0.194655 0
M  V30 1921 C 255.969 7.27966 -0.139777 0
M  V30 1922 H 256.001 7.25354 0.961601 0
M  V30 1923 H 257.184 6.32557 -1.65702 0
M  V30 1924 H 258.668 8.19355 -1.79097 0
M  V30 1925 H 256.974 10.1294 -1.10029 0
M  V30 1926 H 256.784 9.64276 -3.41316 0
M  V30 1927 H 255.154 9.25417 -2.76357 0
M  V30 1928 H 257.793 6.25267 1.07847 0
M  V30 1929 P 259.65 8.791 7.3234e-13 0
M  V30 1930 O 261.072 9.31096 0.027933 0
M  V30 1931 O 259.29 7.77869 -1.04071 0
M  V30 1932 O 259.327 8.09533 1.41463 0
M  V30 1933 C 259.167 9.0349 2.53943 0
M  V30 1934 C 259.707 8.35226 3.79016 0
M  V30 1935 O 258.651 7.57992 4.15078 0
M  V30 1936 C 260.925 7.45087 3.67298 0
M  V30 1937 O 261.663 7.27796 4.85194 0
M  V30 1938 C 260.256 6.17323 3.12027 0
M  V30 1939 O 261.055 5.04231 3.47188 0
M  V30 1940 C 258.919 6.19961 3.81809 0
M  V30 1941 H 258.951 5.58218 4.73051 0
M  V30 1942 H 260.134 6.21726 2.02589 0
M  V30 1943 H 261.618 7.86112 2.9231 0
M  V30 1944 H 259.924 9.11627 4.55076 0
M  V30 1945 H 259.734 9.9573 2.34194 0
M  V30 1946 H 258.104 9.2792 2.67832 0
M  V30 1947 H 260.743 4.67702 4.28772 0
M  V30 1948 P 262.601 7.39546 4.75277 0
M  V30 1949 O 264.023 7.81777 5.05738 0
M  V30 1950 O 262.241 7.1065 3.32998 0
M  V30 1951 O 262.278 6.04542 5.56673 0
M  V30 1952 C 262.118 6.22772 7.02095 0
M  V30 1953 C 262.658 4.97725 7.70406 0
M  V30 1954 O 261.602 4.13256 7.58987 0
M  V30 1955 C 263.876 4.28231 7.11815 0
M  V30 1956 O 264.614 3.49945 8.01648 0
M  V30 1957 C 263.207 3.5063 5.96244 0
M  V30 1958 O 264.006 2.36482 5.64681 0
M  V30 1959 C 261.87 3.15122 6.56374 0
M  V30 1960 H 261.902 2.13853 6.99751 0
M  V30 1961 H 263.085 4.13501 5.06559 0
M  V30 1962 H 264.569 5.03285 6.70911 0
M  V30 1963 H 262.875 5.20877 8.75697 0
M  V30 1964 H 262.685 7.11046 7.35349 0
M  V30 1965 H 261.055 6.35815 7.26986 0
M  V30 1966 H 263.694 1.61644 6.13565 0
M  V30 1967 P 265.551 3.65191 7.99657 0
M  V30 1968 O 266.973 3.8425 8.48115 0
M  V30 1969 O 265.191 4.17805 6.64342 0
M  V30 1970 O 265.228 2.07613 7.95143 0
M  V30 1971 C 265.068 1.44328 9.27336 0
M  V30 1972 C 265.608 0.0220036 9.17197 0
M  V30 1973 O 264.552 -0.626867 8.61923 0
M  V30 1974 C 266.826 -0.24586 8.30336 0
M  V30 1975 O 267.564 -1.39011 8.63583 0
M  V30 1976 C 266.157 -0.273849 6.91158 0
M  V30 1977 O 266.956 -1.06348 6.02892 0
M  V30 1978 C 264.82 -0.897649 7.22545 0
M  V30 1979 H 264.852 -1.9841 7.04286 0
M  V30 1980 H 266.035 0.739928 6.497 0
M  V30 1981 H 267.519 0.60668 8.36503 0
M  V30 1982 H 265.825 -0.352479 10.1829 0
M  V30 1983 H 265.635 2.00611 10.0304 0
M  V30 1984 H 264.005 1.41843 9.55327 0
M  V30 1985 H 266.644 -1.95734 6.03555 0
M  V30 1986 P 268.502 -1.25109 8.70152 0
M  V30 1987 O 269.924 -1.35274 9.21221 0
M  V30 1988 O 268.142 -0.0769065 7.84762 0
M  V30 1989 O 268.179 -2.55232 7.81161 0
M  V30 1990 C 268.019 -3.79939 8.58154 0
M  V30 1991 C 268.559 -4.94023 7.72785 0
M  V30 1992 O 267.503 -5.18726 6.91205 0
M  V30 1993 C 269.777 -4.69597 6.85231 0
M  V30 1994 O 270.515 -5.83832 6.51337 0
M  V30 1995 C 269.108 -3.96706 5.66633 0
M  V30 1996 O 269.907 -4.15414 4.49689 0
M  V30 1997 C 267.771 -4.66153 5.59313 0
M  V30 1998 H 267.803 -5.47679 4.85214 0
M  V30 1999 H 268.986 -2.89008 5.86566 0
M  V30 2000 H 270.47 -4.0121 7.36511 0
M  V30 2001 H 268.776 -5.80182 8.37584 0
M  V30 2002 H 268.586 -3.73517 9.52265 0
M  V30 2003 H 266.956 -3.97163 8.80359 0
M  V30 2004 H 269.595 -4.90969 4.01921 0
M  V30 2005 P 271.452 -5.75688 6.64379 0
M  V30 2006 O 272.874 -6.11849 7.01846 0
M  V30 2007 O 271.092 -4.30744 6.56026 0
M  V30 2008 O 271.129 -6.37042 5.19165 0
M  V30 2009 C 270.969 -7.83578 5.16515 0
M  V30 2010 C 271.509 -8.33398 3.83019 0
M  V30 2011 O 270.453 -8.10074 3.01034 0
M  V30 2012 C 272.727 -7.65514 3.2257 0
M  V30 2013 O 273.465 -8.4329 2.32297 0
M  V30 2014 C 272.058 -6.40075 2.62207 0
M  V30 2015 O 272.857 -5.92589 1.53712 0
M  V30 2016 C 270.721 -6.9454 2.18503 0
M  V30 2017 H 270.753 -7.23063 1.12091 0
M  V30 2018 H 271.936 -5.6025 3.37201 0
M  V30 2019 H 273.42 -7.35707 4.02681 0
M  V30 2020 H 271.726 -9.40912 3.9095 0
M  V30 2021 H 271.536 -8.29056 5.99158 0
M  V30 2022 H 269.906 -8.10073 5.25882 0
M  V30 2023 H 272.545 -6.30324 0.726794 0
M  V30 2024 P 274.403 -8.4349 2.47671 0
M  V30 2025 O 275.825 -8.94167 2.5964 0
M  V30 2026 O 274.043 -7.1704 3.19006 0
M  V30 2027 O 274.08 -8.16596 0.923387 0
M  V30 2028 C 273.92 -9.38437 0.108857 0
M  V30 2029 C 274.46 -9.08175 -1.28353 0
M  V30 2030 O 273.404 -8.44229 -1.84713 0
M  V30 2031 C 275.678 -8.18386 -1.42505 0
M  V30 2032 O 276.416 -8.3501 -2.60497 0
M  V30 2033 C 275.009 -6.80225 -1.25468 0
M  V30 2034 O 275.808 -5.81621 -1.91066 0
M  V30 2035 C 273.672 -7.02416 -1.9168 0
M  V30 2036 H 273.704 -6.6888 -2.96621 0
M  V30 2037 H 274.887 -6.53617 -0.192223 0
M  V30 2038 H 276.371 -8.36622 -0.589963 0
M  V30 2039 H 274.677 -10.0291 -1.79807 0
M  V30 2040 H 274.487 -10.2138 0.558219 0
M  V30 2041 H 272.857 -9.6579 0.0444202 0
M  V30 2042 H 275.496 -5.69556 -2.79637 0
M  V30 2043 P 277.354 -8.4349 -2.47671 0
M  V30 2044 O 278.775 -8.92689 -2.65029 0
M  V30 2045 O 276.994 -7.7568 -1.19296 0
M  V30 2046 O 277.031 -7.36886 -3.63805 0
M  V30 2047 C 276.87 -7.95433 -4.98253 0
M  V30 2048 C 277.411 -6.94612 -5.98974 0
M  V30 2049 O 276.356 -6.10277 -6.11744 0
M  V30 2050 C 278.629 -6.11426 -5.62335 0
M  V30 2051 O 279.367 -5.6162 -6.70584 0
M  V30 2052 C 277.961 -5.04409 -4.73308 0
M  V30 2053 O 278.759 -3.86404 -4.74719 0
M  V30 2054 C 276.623 -4.8728 -5.41006 0
M  V30 2055 N 275.58 -4.65812 -4.42377 0
M  V30 2056 C 275.749 -5.09132 -3.15382 0
M  V30 2057 N 274.722 -4.84021 -2.3716 0
M  V30 2058 C 273.837 -4.18386 -3.20441 0
M  V30 2059 C 272.57 -3.6275 -2.94905 0
M  V30 2060 N 271.971 -3.65794 -1.73372 0
M  V30 2061 N 272.005 -3.05008 -4.05243 0
M  V30 2062 C 272.607 -2.98348 -5.28159 0
M  V30 2063 N 273.784 -3.48171 -5.56333 0
M  V30 2064 C 274.359 -4.06869 -4.47212 0
M  V30 2065 H 276.655 -4.02278 -6.11074 0
M  V30 2066 H 277.838 -5.39013 -3.70026 0
M  V30 2067 H 279.321 -6.71916 -5.01943 0
M  V30 2068 H 277.627 -7.45796 -6.94223 0
M  V30 2069 H 277.437 -8.89416 -5.05237 0
M  V30 2070 H 275.807 -8.14876 -5.18409 0
M  V30 2071 H 272.071 -2.47853 -6.07807 0
M  V30 2072 H 276.649 -5.59989 -2.81362 0
M  V30 2073 H 271.041 -3.23218 -1.60782 0
M  V30 2074 H 272.445 -4.10523 -0.937856 0
M  V30 2075 H 278.447 -3.27906 -5.43085 0
M  V30 2076 P 280.304 -5.75688 -6.64379 0
M  V30 2077 O 281.726 -6.07627 -7.05504 0
M  V30 2078 O 279.944 -5.88047 -5.19722 0
M  V30 2079 O 279.981 -4.2322 -7.04443 0
M  V30 2080 C 279.821 -3.99743 -8.4911 0
M  V30 2081 C 280.361 -2.60516 -8.79425 0
M  V30 2082 O 279.305 -1.82684 -8.4467 0
M  V30 2083 C 281.579 -2.10343 -8.03628 0
M  V30 2084 O 282.317 -1.09919 -8.67766 0
M  V30 2085 C 280.91 -1.68446 -6.70876 0
M  V30 2086 O 281.709 -0.678137 -6.08433 0
M  V30 2087 C 279.573 -1.17436 -7.18567 0
M  V30 2088 H 279.605 -0.0804732 -7.31656 0
M  V30 2089 H 280.788 -2.54037 -6.02537 0
M  V30 2090 H 282.272 -2.93881 -7.85526 0
M  V30 2091 H 280.578 -2.53065 -9.86973 0
M  V30 2092 H 280.388 -4.75072 -9.05887 0
M  V30 2093 H 278.758 -4.05244 -8.76668 0
M  V30 2094 H 281.397 0.177647 -6.34251 0
M  V30 2095 P 283.255 -1.25109 -8.70152 0
M  V30 2096 O 284.677 -1.29744 -9.22016 0
M  V30 2097 O 282.895 -2.13714 -7.55141 0
M  V30 2098 O 282.932 0.248149 -8.21425 0
M  V30 2099 C 282.772 1.22779 -9.30434 0
M  V30 2100 C 283.312 2.56293 -8.80664 0
M  V30 2101 O 282.256 3.02979 -8.09349 0
M  V30 2102 C 284.53 2.57523 -7.89775 0
M  V30 2103 O 285.268 3.7668 -7.89438 0
M  V30 2104 C 283.861 2.20997 -6.55446 0
M  V30 2105 O 284.66 2.71895 -5.48509 0
M  V30 2106 C 282.524 2.89693 -6.67988 0
M  V30 2107 H 282.556 3.88793 -6.19859 0
M  V30 2108 H 283.739 1.12046 -6.44229 0
M  V30 2109 H 285.223 1.7746 -8.19711 0
M  V30 2110 H 283.529 3.20706 -9.67112 0
M  V30 2111 H 283.339 0.901032 -10.1892 0
M  V30 2112 H 281.709 1.33049 -9.56592 0
M  V30 2113 H 284.348 3.57847 -5.23962 0
M  V30 2114 P 286.205 3.65191 -7.99657 0
M  V30 2115 O 287.627 3.89332 -8.45794 0
M  V30 2116 O 285.845 2.28472 -7.50807 0
M  V30 2117 O 285.882 4.64972 -6.77611 0
M  V30 2118 C 285.722 6.06319 -7.16352 0
M  V30 2119 C 286.262 6.91731 -6.02299 0
M  V30 2120 O 285.206 6.92449 -5.17064 0
M  V30 2121 C 287.48 6.43627 -5.25174 0
M  V30 2122 O 288.218 7.43686 -4.60469 0
M  V30 2123 C 286.811 5.40275 -4.31916 0
M  V30 2124 O 287.61 5.25279 -3.14438 0
M  V30 2125 C 285.474 6.04847 -4.05327 0
M  V30 2126 H 285.506 6.62195 -3.11261 0
M  V30 2127 H 286.689 4.42556 -4.81383 0
M  V30 2128 H 288.173 5.92458 -5.93643 0
M  V30 2129 H 286.479 7.92655 -6.402 0
M  V30 2130 H 286.289 6.26671 -8.0846 0
M  V30 2131 H 284.659 6.29101 -7.32804 0
M  V30 2132 H 287.298 5.84315 -2.47318 0
M  V30 2133 P 289.156 7.39546 -4.75277 0
M  V30 2134 O 290.578 7.84966 -5.01146 0
M  V30 2135 O 288.796 5.9812 -5.08098 0
M  V30 2136 O 288.833 7.57503 -3.1866 0
M  V30 2137 C 288.673 8.97357 -2.74833 0
M  V30 2138 C 289.213 9.0745 -1.32694 0
M  V30 2139 O 288.158 8.62072 -0.606159 0
M  V30 2140 C 290.431 8.25383 -0.938334 0
M  V30 2141 O 291.169 8.74577 0.146954 0
M  V30 2142 C 289.763 6.8802 -0.712559 0
M  V30 2143 O 290.561 6.11791 0.194623 0
M  V30 2144 C 288.425 7.27966 -0.139777 0
M  V30 2145 N 287.382 6.39368 -0.623421 0
M  V30 2146 C 287.444 5.90299 -1.85969 0
M  V30 2147 N 286.399 5.10919 -2.1133 0
M  V30 2148 C 285.665 5.14646 -1.0015 0
M  V30 2149 C 284.359 4.60057 -0.729219 0
M  V30 2150 O 283.626 3.93476 -1.47746 0
M  V30 2151 N 283.929 4.88302 0.523505 0
M  V30 2152 C 284.678 5.63646 1.46207 0
M  V30 2153 N 284.081 5.78186 2.69239 0
M  V30 2154 N 285.831 6.19285 1.21544 0
M  V30 2155 C 286.288 5.93392 -0.0308487 0
M  V30 2156 H 288.457 7.25354 0.961601 0
M  V30 2157 H 289.64 6.3246 -1.65676 0
M  V30 2158 H 291.125 8.19533 -1.78278 0
M  V30 2159 H 289.43 10.1294 -1.10029 0
M  V30 2160 H 289.24 9.64276 -3.41316 0
M  V30 2161 H 287.609 9.25417 -2.76357 0
M  V30 2162 H 283.033 4.53993 0.806451 0
M  V30 2163 H 288.24 6.11865 -2.57394 0
M  V30 2164 H 283.17 5.34046 2.87467 0
M  V30 2165 H 284.546 6.33391 3.42578 0
M  V30 2166 H 290.25 6.25169 1.0783 0
M  V30 2167 P 292.106 8.791 1.04251e-12 0
M  V30 2168 O 293.507 9.36698 -0.018734 0
M  V30 2169 O 291.728 7.82499 -1.07878 0
M  V30 2170 O 291.783 8.09434 1.41446 0
M  V30 2171 C 291.623 9.0349 2.53943 0
M  V30 2172 C 292.163 8.35135 3.78975 0
M  V30 2173 O 291.107 7.57904 4.1503 0
M  V30 2174 C 293.38 7.45087 3.67298 0
M  V30 2175 O 294.119 7.27796 4.85194 0
M  V30 2176 C 292.713 6.17323 3.12027 0
M  V30 2177 O 293.511 5.04149 3.47132 0
M  V30 2178 C 291.375 6.19961 3.81809 0
M  V30 2179 N 290.332 5.71575 2.93223 0
M  V30 2180 C 289.297 4.99452 3.47592 0
M  V30 2181 O 289.336 4.7199 4.69732 0
M  V30 2182 N 288.285 4.58505 2.6803 0
M  V30 2183 C 288.333 4.85544 1.36995 0
M  V30 2184 C 289.429 5.55532 0.788532 0
M  V30 2185 C 290.395 5.97426 1.60849 0
M  V30 2186 H 291.407 5.58142 4.72986 0
M  V30 2187 H 292.59 6.21428 2.0318 0
M  V30 2188 H 294.074 7.85913 2.93131 0
M  V30 2189 H 292.38 9.11171 4.55987 0
M  V30 2190 H 292.189 9.9573 2.34194 0
M  V30 2191 H 290.559 9.27824 2.67805 0
M  V30 2192 H 289.477 5.7421 -0.281588 0
M  V30 2193 H 291.241 6.53132 1.202 0
M  V30 2194 H 293.295 4.76386 4.34983 0
M  V30 2195 P 295.057 7.39546 4.75277 0
M  V30 2196 O 296.479 7.81777 5.05738 0
M  V30 2197 O 294.697 7.1065 3.32998 0
M  V30 2198 O 294.734 6.04542 5.56673 0
M  V30 2199 C 294.574 6.22772 7.02095 0
M  V30 2200 C 295.114 4.97725 7.70406 0
M  V30 2201 O 294.058 4.13256 7.58987 0
M  V30 2202 C 296.332 4.28231 7.11815 0
M  V30 2203 O 297.07 3.49945 8.01648 0
M  V30 2204 C 295.663 3.5063 5.96244 0
M  V30 2205 O 296.462 2.36482 5.64681 0
M  V30 2206 C 294.326 3.15122 6.56374 0
M  V30 2207 H 294.358 2.13853 6.99751 0
M  V30 2208 H 295.541 4.13501 5.06559 0
M  V30 2209 H 297.025 5.03285 6.70911 0
M  V30 2210 H 295.331 5.20877 8.75697 0
M  V30 2211 H 295.141 7.11046 7.35349 0
M  V30 2212 H 293.511 6.35815 7.26986 0
M  V30 2213 H 296.15 1.61644 6.13565 0
M  V30 2214 P 298.008 3.65191 7.99657 0
M  V30 2215 O 299.43 3.8425 8.48115 0
M  V30 2216 O 297.648 4.17805 6.64342 0
M  V30 2217 O 297.685 2.07613 7.95143 0
M  V30 2218 C 297.525 1.44328 9.27336 0
M  V30 2219 C 298.065 0.0220036 9.17197 0
M  V30 2220 O 297.009 -0.626867 8.61923 0
M  V30 2221 C 299.283 -0.24586 8.30336 0
M  V30 2222 O 300.021 -1.39011 8.63583 0
M  V30 2223 C 298.614 -0.273849 6.91158 0
M  V30 2224 O 299.413 -1.06348 6.02892 0
M  V30 2225 C 297.277 -0.897649 7.22545 0
M  V30 2226 H 297.309 -1.9841 7.04286 0
M  V30 2227 H 298.492 0.739928 6.497 0
M  V30 2228 H 299.976 0.60668 8.36503 0
M  V30 2229 H 298.282 -0.352479 10.1829 0
M  V30 2230 H 298.092 2.00611 10.0304 0
M  V30 2231 H 296.462 1.41843 9.55327 0
M  V30 2232 H 299.101 -1.95734 6.03555 0
M  V30 2233 P 300.958 -1.25109 8.70152 0
M  V30 2234 O 302.38 -1.35274 9.21221 0
M  V30 2235 O 300.598 -0.0769065 7.84762 0
M  V30 2236 O 300.635 -2.55232 7.81161 0
M  V30 2237 C 300.475 -3.79939 8.58154 0
M  V30 2238 C 301.015 -4.94023 7.72785 0
M  V30 2239 O 299.959 -5.18726 6.91205 0
M  V30 2240 C 302.233 -4.69597 6.85231 0
M  V30 2241 O 302.971 -5.83832 6.51337 0
M  V30 2242 C 301.564 -3.96706 5.66633 0
M  V30 2243 O 302.363 -4.15414 4.49689 0
M  V30 2244 C 300.227 -4.66153 5.59313 0
M  V30 2245 H 300.259 -5.47679 4.85214 0
M  V30 2246 H 301.442 -2.89008 5.86566 0
M  V30 2247 H 302.926 -4.0121 7.36511 0
M  V30 2248 H 301.232 -5.80182 8.37584 0
M  V30 2249 H 301.042 -3.73517 9.52265 0
M  V30 2250 H 299.412 -3.97163 8.80359 0
M  V30 2251 H 302.051 -4.90969 4.01921 0
M  V30 2252 P 303.909 -5.75688 6.64379 0
M  V30 2253 O 305.331 -6.11981 7.01997 0
M  V30 2254 O 303.549 -4.30744 6.56026 0
M  V30 2255 O 303.586 -6.37042 5.19165 0
M  V30 2256 C 303.426 -7.83578 5.16515 0
M  V30 2257 C 303.966 -8.33307 3.82977 0
M  V30 2258 O 302.911 -8.10074 3.01034 0
M  V30 2259 C 305.184 -7.65514 3.2257 0
M  V30 2260 O 305.922 -8.4329 2.32297 0
M  V30 2261 C 304.516 -6.40075 2.62207 0
M  V30 2262 O 305.314 -5.92492 1.53687 0
M  V30 2263 C 303.178 -6.9454 2.18503 0
M  V30 2264 N 302.135 -5.95905 2.39948 0
M  V30 2265 C 302.197 -5.13994 3.44742 0
M  V30 2266 N 301.152 -4.30684 3.46712 0
M  V30 2267 C 300.418 -4.65583 2.41086 0
M  V30 2268 C 299.112 -4.20877 1.99581 0
M  V30 2269 O 298.379 -3.35913 2.52616 0
M  V30 2270 N 298.682 -4.83271 0.873406 0
M  V30 2271 C 299.431 -5.82006 0.185129 0
M  V30 2272 N 298.834 -6.30619 -0.95439 0
M  V30 2273 N 300.584 -6.28443 0.578524 0
M  V30 2274 C 301.041 -5.68486 1.70138 0
M  V30 2275 H 303.21 -7.23063 1.12091 0
M  V30 2276 H 304.393 -5.60165 3.3715 0
M  V30 2277 H 305.878 -7.3611 4.01946 0
M  V30 2278 H 304.183 -9.40912 3.9095 0
M  V30 2279 H 303.993 -8.29056 5.99158 0
M  V30 2280 H 302.362 -8.10073 5.25882 0
M  V30 2281 H 297.786 -4.58323 0.505262 0
M  V30 2282 H 302.993 -5.14564 4.1935 0
M  V30 2283 H 297.923 -5.93402 -1.25364 0
M  V30 2284 H 299.299 -7.0425 -1.50254 0
M  V30 2285 H 305.003 -6.30224 0.72668 0
M  V30 2286 P 306.859 -8.4349 2.47671 0
M  V30 2287 O 308.281 -8.94167 2.5964 0
M  V30 2288 O 306.499 -7.1704 3.19006 0
M  V30 2289 O 306.536 -8.16596 0.923387 0
M  V30 2290 C 306.376 -9.38437 0.108857 0
M  V30 2291 C 306.916 -9.08175 -1.28353 0
M  V30 2292 O 305.86 -8.44229 -1.84713 0
M  V30 2293 C 308.134 -8.18386 -1.42505 0
M  V30 2294 O 308.872 -8.3501 -2.60497 0
M  V30 2295 C 307.465 -6.80225 -1.25468 0
M  V30 2296 O 308.264 -5.81621 -1.91066 0
M  V30 2297 C 306.128 -7.02416 -1.9168 0
M  V30 2298 H 306.16 -6.6888 -2.96621 0
M  V30 2299 H 307.343 -6.53617 -0.192223 0
M  V30 2300 H 308.827 -8.36622 -0.589963 0
M  V30 2301 H 307.133 -10.0291 -1.79807 0
M  V30 2302 H 306.943 -10.2138 0.558219 0
M  V30 2303 H 305.313 -9.6579 0.0444202 0
M  V30 2304 H 307.952 -5.69556 -2.79637 0
M  V30 2305 P 309.81 -8.4349 -2.47671 0
M  V30 2306 O 311.232 -8.92593 -2.65 0
M  V30 2307 O 309.45 -7.7568 -1.19296 0
M  V30 2308 O 309.487 -7.36886 -3.63805 0
M  V30 2309 C 309.327 -7.95349 -4.982 0
M  V30 2310 C 309.867 -6.94612 -5.98974 0
M  V30 2311 O 308.811 -6.10347 -6.11815 0
M  V30 2312 C 311.085 -6.11426 -5.62335 0
M  V30 2313 O 311.823 -5.6162 -6.70584 0
M  V30 2314 C 310.416 -5.04409 -4.73308 0
M  V30 2315 O 311.215 -3.85992 -4.75183 0
M  V30 2316 C 309.079 -4.8728 -5.41006 0
M  V30 2317 H 309.111 -4.02333 -6.11157 0
M  V30 2318 H 310.294 -5.39466 -3.69543 0
M  V30 2319 H 311.778 -6.71916 -5.01943 0
M  V30 2320 H 310.084 -7.4649 -6.93477 0
M  V30 2321 H 309.894 -8.89416 -5.05237 0
M  V30 2322 H 308.264 -8.14876 -5.18409 0
M  V30 2323 H 310.903 -3.27957 -5.4317 0
M  V30 2324 P 312.76 -5.75688 -6.64379 0
M  V30 2325 O 314.182 -6.07627 -7.05504 0
M  V30 2326 O 312.4 -5.88047 -5.19722 0
M  V30 2327 O 312.437 -4.2322 -7.04443 0
M  V30 2328 C 312.277 -3.99743 -8.4911 0
M  V30 2329 C 312.817 -2.60516 -8.79425 0
M  V30 2330 O 311.761 -1.82684 -8.4467 0
M  V30 2331 C 314.035 -2.10343 -8.03628 0
M  V30 2332 O 314.773 -1.09919 -8.67766 0
M  V30 2333 C 313.366 -1.68446 -6.70876 0
M  V30 2334 O 314.165 -0.678137 -6.08433 0
M  V30 2335 C 312.029 -1.17436 -7.18567 0
M  V30 2336 H 312.061 -0.0804732 -7.31656 0
M  V30 2337 H 313.244 -2.54037 -6.02537 0
M  V30 2338 H 314.728 -2.93881 -7.85526 0
M  V30 2339 H 313.034 -2.53065 -9.86973 0
M  V30 2340 H 312.844 -4.75072 -9.05887 0
M  V30 2341 H 311.214 -4.05244 -8.76668 0
M  V30 2342 H 313.853 0.177647 -6.34251 0
M  V30 2343 P 315.711 -1.25109 -8.70152 0
M  V30 2344 O 317.133 -1.29744 -9.22016 0
M  V30 2345 O 315.351 -2.13714 -7.55141 0
M  V30 2346 O 315.388 0.248149 -8.21425 0
M  V30 2347 C 315.228 1.22779 -9.30434 0
M  V30 2348 C 315.768 2.56293 -8.80664 0
M  V30 2349 O 314.712 3.02979 -8.09349 0
M  V30 2350 C 316.986 2.57523 -7.89775 0
M  V30 2351 O 317.724 3.7668 -7.89438 0
M  V30 2352 C 316.317 2.20997 -6.55446 0
M  V30 2353 O 317.116 2.71895 -5.48509 0
M  V30 2354 C 314.98 2.89693 -6.67988 0
M  V30 2355 H 315.012 3.88793 -6.19859 0
M  V30 2356 H 316.195 1.12046 -6.44229 0
M  V30 2357 H 317.679 1.7746 -8.19711 0
M  V30 2358 H 315.985 3.20706 -9.67112 0
M  V30 2359 H 315.795 0.901032 -10.1892 0
M  V30 2360 H 314.165 1.33049 -9.56592 0
M  V30 2361 H 316.804 3.57847 -5.23962 0
M  V30 2362 P 318.662 3.65191 -7.99657 0
M  V30 2363 O 320.084 3.89332 -8.45794 0
M  V30 2364 O 318.302 2.28472 -7.50807 0
M  V30 2365 O 318.339 4.64972 -6.77611 0
M  V30 2366 C 318.179 6.06319 -7.16352 0
M  V30 2367 C 318.719 6.91731 -6.02299 0
M  V30 2368 O 317.663 6.92449 -5.17064 0
M  V30 2369 C 319.937 6.43627 -5.25174 0
M  V30 2370 O 320.675 7.43686 -4.60469 0
M  V30 2371 C 319.268 5.40275 -4.31916 0
M  V30 2372 O 320.067 5.25279 -3.14438 0
M  V30 2373 C 317.931 6.04847 -4.05327 0
M  V30 2374 H 317.963 6.62195 -3.11261 0
M  V30 2375 H 319.146 4.42556 -4.81383 0
M  V30 2376 H 320.63 5.92458 -5.93643 0
M  V30 2377 H 318.936 7.92655 -6.402 0
M  V30 2378 H 318.746 6.26671 -8.0846 0
M  V30 2379 H 317.116 6.29101 -7.32804 0
M  V30 2380 H 319.755 5.84315 -2.47318 0
M  V30 2381 P 321.612 7.39546 -4.75277 0
M  V30 2382 O 323.034 7.84966 -5.01146 0
M  V30 2383 O 321.252 5.9812 -5.08098 0
M  V30 2384 O 321.289 7.57503 -3.1866 0
M  V30 2385 C 321.129 8.97357 -2.74833 0
M  V30 2386 C 321.669 9.0745 -1.32694 0
M  V30 2387 O 320.614 8.62072 -0.606159 0
M  V30 2388 C 322.887 8.25383 -0.938334 0
M  V30 2389 O 323.625 8.74577 0.146954 0
M  V30 2390 C 322.219 6.8802 -0.712559 0
M  V30 2391 O 323.017 6.11791 0.194623 0
M  V30 2392 C 320.881 7.27966 -0.139777 0
M  V30 2393 N 319.838 6.39368 -0.623421 0
M  V30 2394 C 319.9 5.90299 -1.85969 0
M  V30 2395 N 318.855 5.10919 -2.1133 0
M  V30 2396 C 318.121 5.14646 -1.0015 0
M  V30 2397 C 316.815 4.60057 -0.729219 0
M  V30 2398 O 316.082 3.93476 -1.47746 0
M  V30 2399 N 316.385 4.88302 0.523505 0
M  V30 2400 C 317.134 5.63646 1.46207 0
M  V30 2401 N 316.537 5.78186 2.69239 0
M  V30 2402 N 318.287 6.19285 1.21544 0
M  V30 2403 C 318.744 5.93392 -0.0308487 0
M  V30 2404 H 320.913 7.25354 0.961601 0
M  V30 2405 H 322.096 6.3246 -1.65676 0
M  V30 2406 H 323.581 8.19533 -1.78278 0
M  V30 2407 H 321.886 10.1294 -1.10029 0
M  V30 2408 H 321.696 9.64276 -3.41316 0
M  V30 2409 H 320.065 9.25417 -2.76357 0
M  V30 2410 H 315.489 4.53993 0.806451 0
M  V30 2411 H 320.696 6.11865 -2.57394 0
M  V30 2412 H 315.626 5.34046 2.87467 0
M  V30 2413 H 317.002 6.33391 3.42578 0
M  V30 2414 H 322.706 6.25169 1.0783 0
M  V30 2415 P 324.563 8.791 1.35267e-12 0
M  V30 2416 O 325.985 9.31096 0.027933 0
M  V30 2417 O 324.203 7.77869 -1.04071 0
M  V30 2418 O 324.24 8.09533 1.41463 0
M  V30 2419 C 324.08 9.0349 2.53943 0
M  V30 2420 C 324.62 8.35226 3.79016 0
M  V30 2421 O 323.564 7.57992 4.15078 0
M  V30 2422 C 325.838 7.45087 3.67298 0
M  V30 2423 O 326.576 7.27796 4.85194 0
M  V30 2424 C 325.169 6.17323 3.12027 0
M  V30 2425 O 325.968 5.04231 3.47188 0
M  V30 2426 C 323.832 6.19961 3.81809 0
M  V30 2427 H 323.864 5.58218 4.73051 0
M  V30 2428 H 325.047 6.21726 2.02589 0
M  V30 2429 H 326.531 7.86112 2.9231 0
M  V30 2430 H 324.837 9.11627 4.55076 0
M  V30 2431 H 324.647 9.9573 2.34194 0
M  V30 2432 H 323.017 9.2792 2.67832 0
M  V30 2433 H 325.656 4.67702 4.28772 0
M  V30 2434 P 327.513 7.39546 4.75277 0
M  V30 2435 O 328.935 7.81777 5.05738 0
M  V30 2436 O 327.153 7.1065 3.32998 0
M  V30 2437 O 327.19 6.04542 5.56673 0
M  V30 2438 C 327.03 6.22772 7.02095 0
M  V30 2439 C 327.57 4.97725 7.70406 0
M  V30 2440 O 326.514 4.13256 7.58987 0
M  V30 2441 C 328.788 4.28231 7.11815 0
M  V30 2442 O 329.526 3.49945 8.01648 0
M  V30 2443 C 328.119 3.5063 5.96244 0
M  V30 2444 O 328.918 2.36482 5.64681 0
M  V30 2445 C 326.782 3.15122 6.56374 0
M  V30 2446 H 326.814 2.13853 6.99751 0
M  V30 2447 H 327.997 4.13501 5.06559 0
M  V30 2448 H 329.481 5.03285 6.70911 0
M  V30 2449 H 327.787 5.20877 8.75697 0
M  V30 2450 H 327.597 7.11046 7.35349 0
M  V30 2451 H 325.967 6.35815 7.26986 0
M  V30 2452 H 328.606 1.61644 6.13565 0
M  V30 2453 P 330.464 3.65191 7.99657 0
M  V30 2454 O 331.886 3.84333 8.48297 0
M  V30 2455 O 330.104 4.17805 6.64342 0
M  V30 2456 O 330.141 2.07613 7.95143 0
M  V30 2457 C 329.981 1.44328 9.27336 0
M  V30 2458 C 330.521 0.0220012 9.17097 0
M  V30 2459 O 329.466 -0.626867 8.61923 0
M  V30 2460 C 331.739 -0.24586 8.30336 0
M  V30 2461 O 332.477 -1.39011 8.63583 0
M  V30 2462 C 331.071 -0.273849 6.91158 0
M  V30 2463 O 331.869 -1.06331 6.02794 0
M  V30 2464 C 329.733 -0.897649 7.22545 0
M  V30 2465 N 328.69 -0.292839 6.41732 0
M  V30 2466 C 328.752 1.00068 6.10757 0
M  V30 2467 N 327.707 1.36468 5.35794 0
M  V30 2468 C 326.973 0.258894 5.2366 0
M  V30 2469 C 325.667 0.0670682 4.65752 0
M  V30 2470 O 324.934 0.902443 4.10497 0
M  V30 2471 N 325.237 -1.2131 4.75881 0
M  V30 2472 C 325.986 -2.24934 5.37101 0
M  V30 2473 N 325.389 -3.48783 5.33984 0
M  V30 2474 N 327.139 -2.0844 5.95684 0
M  V30 2475 C 327.596 -0.81395 5.87791 0
M  V30 2476 H 329.765 -1.9841 7.04286 0
M  V30 2477 H 330.948 0.739815 6.49601 0
M  V30 2478 H 332.433 0.598315 8.36563 0
M  V30 2479 H 330.738 -0.352479 10.1829 0
M  V30 2480 H 330.548 2.00611 10.0304 0
M  V30 2481 H 328.917 1.41843 9.55327 0
M  V30 2482 H 324.341 -1.44434 4.37895 0
M  V30 2483 H 329.548 1.67697 6.42268 0
M  V30 2484 H 324.478 -3.60543 4.87699 0
M  V30 2485 H 325.854 -4.29232 5.7819 0
M  V30 2486 H 331.558 -1.95704 6.0346 0
M  V30 2487 P 333.414 -1.25109 8.70152 0
M  V30 2488 O 334.836 -1.35274 9.21221 0
M  V30 2489 O 333.054 -0.0769065 7.84762 0
M  V30 2490 O 333.091 -2.55232 7.81161 0
M  V30 2491 C 332.931 -3.79939 8.58154 0
M  V30 2492 C 333.471 -4.94023 7.72785 0
M  V30 2493 O 332.415 -5.18726 6.91205 0
M  V30 2494 C 334.689 -4.69597 6.85231 0
M  V30 2495 O 335.427 -5.83832 6.51337 0
M  V30 2496 C 334.02 -3.96706 5.66633 0
M  V30 2497 O 334.819 -4.15414 4.49689 0
M  V30 2498 C 332.683 -4.66153 5.59313 0
M  V30 2499 H 332.715 -5.47679 4.85214 0
M  V30 2500 H 333.898 -2.89008 5.86566 0
M  V30 2501 H 335.382 -4.0121 7.36511 0
M  V30 2502 H 333.688 -5.80182 8.37584 0
M  V30 2503 H 333.498 -3.73517 9.52265 0
M  V30 2504 H 331.868 -3.97163 8.80359 0
M  V30 2505 H 334.507 -4.90969 4.01921 0
M  V30 2506 P 336.365 -5.75688 6.64379 0
M  V30 2507 O 337.786 -6.11915 7.01921 0
M  V30 2508 O 336.005 -4.30744 6.56026 0
M  V30 2509 O 336.042 -6.37042 5.19165 0
M  V30 2510 C 335.881 -7.83662 5.1657 0
M  V30 2511 C 336.422 -8.33398 3.83019 0
M  V30 2512 O 335.367 -8.0998 3.00999 0
M  V30 2513 C 337.64 -7.65514 3.2257 0
M  V30 2514 O 338.378 -8.4329 2.32297 0
M  V30 2515 C 336.972 -6.40075 2.62207 0
M  V30 2516 O 337.77 -5.92338 1.5428 0
M  V30 2517 C 335.634 -6.9454 2.18503 0
M  V30 2518 N 334.591 -5.95905 2.39948 0
M  V30 2519 C 334.76 -4.98383 3.32108 0
M  V30 2520 N 333.733 -4.16798 3.41761 0
M  V30 2521 C 332.848 -4.65287 2.47461 0
M  V30 2522 C 331.581 -4.18946 2.07461 0
M  V30 2523 N 331.016 -4.95327 1.09101 0
M  V30 2524 C 331.618 -6.04369 0.519812 0
M  V30 2525 N 332.795 -6.50694 0.855982 0
M  V30 2526 C 333.37 -5.75818 1.84322 0
M  V30 2527 H 336.849 -5.60502 3.36589 0
M  V30 2528 H 338.332 -7.35707 4.02681 0
M  V30 2529 H 336.638 -9.41302 3.90009 0
M  V30 2530 H 336.448 -8.29056 5.99158 0
M  V30 2531 H 334.818 -8.10073 5.25882 0
M  V30 2532 H 335.66 -4.88564 3.92502 0
M  V30 2533 H 337.458 -6.30224 0.72668 0
M  V30 2534 P 339.316 -8.4349 2.47671 0
M  V30 2535 O 340.738 -8.94167 2.5964 0
M  V30 2536 O 338.956 -7.1704 3.19006 0
M  V30 2537 O 338.993 -8.16596 0.923387 0
M  V30 2538 C 338.833 -9.38437 0.108857 0
M  V30 2539 C 339.373 -9.08175 -1.28353 0
M  V30 2540 O 338.317 -8.44229 -1.84713 0
M  V30 2541 C 340.591 -8.18386 -1.42505 0
M  V30 2542 O 341.329 -8.3501 -2.60497 0
M  V30 2543 C 339.922 -6.80225 -1.25468 0
M  V30 2544 O 340.721 -5.81621 -1.91066 0
M  V30 2545 C 338.585 -7.02416 -1.9168 0
M  V30 2546 H 338.617 -6.6888 -2.96621 0
M  V30 2547 H 339.8 -6.53617 -0.192223 0
M  V30 2548 H 341.284 -8.36622 -0.589963 0
M  V30 2549 H 339.59 -10.0291 -1.79807 0
M  V30 2550 H 339.4 -10.2138 0.558219 0
M  V30 2551 H 337.77 -9.6579 0.0444202 0
M  V30 2552 H 340.409 -5.69556 -2.79637 0
M  V30 2553 P 342.266 -8.4349 -2.47671 0
M  V30 2554 O 343.688 -8.92593 -2.65 0
M  V30 2555 O 341.906 -7.7568 -1.19296 0
M  V30 2556 O 341.943 -7.36886 -3.63805 0
M  V30 2557 C 341.783 -7.95349 -4.982 0
M  V30 2558 C 342.323 -6.94612 -5.98974 0
M  V30 2559 O 341.267 -6.10347 -6.11815 0
M  V30 2560 C 343.541 -6.11426 -5.62335 0
M  V30 2561 O 344.279 -5.6162 -6.70584 0
M  V30 2562 C 342.872 -5.04409 -4.73308 0
M  V30 2563 O 343.671 -3.85992 -4.75183 0
M  V30 2564 C 341.535 -4.8728 -5.41006 0
M  V30 2565 H 341.567 -4.02333 -6.11157 0
M  V30 2566 H 342.75 -5.39466 -3.69543 0
M  V30 2567 H 344.234 -6.71916 -5.01943 0
M  V30 2568 H 342.54 -7.4649 -6.93477 0
M  V30 2569 H 342.35 -8.89416 -5.05237 0
M  V30 2570 H 340.72 -8.14876 -5.18409 0
M  V30 2571 H 343.359 -3.27957 -5.4317 0
M  V30 2572 P 345.217 -5.75688 -6.64379 0
M  V30 2573 O 346.638 -6.07692 -7.0558 0
M  V30 2574 O 344.857 -5.88047 -5.19722 0
M  V30 2575 O 344.894 -4.2322 -7.04443 0
M  V30 2576 C 344.733 -3.99785 -8.49201 0
M  V30 2577 C 345.274 -2.60516 -8.79425 0
M  V30 2578 O 344.219 -1.82663 -8.44573 0
M  V30 2579 C 346.492 -2.10343 -8.03628 0
M  V30 2580 O 347.23 -1.09919 -8.67766 0
M  V30 2581 C 345.824 -1.68446 -6.70876 0
M  V30 2582 O 346.622 -0.684109 -6.08265 0
M  V30 2583 C 344.486 -1.17436 -7.18567 0
M  V30 2584 N 343.443 -1.52699 -6.23988 0
M  V30 2585 C 343.612 -2.578 -5.40574 0
M  V30 2586 N 342.585 -2.78966 -4.61193 0
M  V30 2587 C 341.7 -1.78725 -4.95769 0
M  V30 2588 C 340.433 -1.45727 -4.44207 0
M  V30 2589 N 339.868 -0.374977 -5.05812 0
M  V30 2590 C 340.47 0.345585 -6.05615 0
M  V30 2591 N 341.647 0.0787651 -6.56253 0
M  V30 2592 C 342.222 -1.00499 -5.96189 0
M  V30 2593 H 345.701 -2.53396 -6.02698 0
M  V30 2594 H 347.184 -2.93881 -7.85526 0
M  V30 2595 H 345.49 -2.52078 -9.87225 0
M  V30 2596 H 345.3 -4.75072 -9.05887 0
M  V30 2597 H 343.67 -4.05244 -8.76668 0
M  V30 2598 H 344.512 -3.18977 -5.3945 0
M  V30 2599 H 346.31 0.177619 -6.34151 0
M  V30 2600 P 348.167 -1.25109 -8.70152 0
M  V30 2601 O 349.589 -1.29744 -9.22016 0
M  V30 2602 O 347.807 -2.13714 -7.55141 0
M  V30 2603 O 347.844 0.248149 -8.21425 0
M  V30 2604 C 347.684 1.22779 -9.30434 0
M  V30 2605 C 348.224 2.56293 -8.80664 0
M  V30 2606 O 347.168 3.02979 -8.09349 0
M  V30 2607 C 349.442 2.57523 -7.89775 0
M  V30 2608 O 350.18 3.7668 -7.89438 0
M  V30 2609 C 348.773 2.20997 -6.55446 0
M  V30 2610 O 349.572 2.71895 -5.48509 0
M  V30 2611 C 347.436 2.89693 -6.67988 0
M  V30 2612 H 347.468 3.88793 -6.19859 0
M  V30 2613 H 348.651 1.12046 -6.44229 0
M  V30 2614 H 350.135 1.7746 -8.19711 0
M  V30 2615 H 348.441 3.20706 -9.67112 0
M  V30 2616 H 348.251 0.901032 -10.1892 0
M  V30 2617 H 346.621 1.33049 -9.56592 0
M  V30 2618 H 349.26 3.57847 -5.23962 0
M  V30 2619 P 351.118 3.65191 -7.99657 0
M  V30 2620 O 352.519 3.87414 -8.52829 0
M  V30 2621 O 350.74 2.26932 -7.566 0
M  V30 2622 O 350.795 4.64915 -6.77529 0
M  V30 2623 C 350.635 6.06319 -7.16352 0
M  V30 2624 C 351.175 6.91655 -6.02234 0
M  V30 2625 O 350.119 6.92369 -5.17005 0
M  V30 2626 C 352.392 6.43627 -5.25174 0
M  V30 2627 O 353.131 7.43686 -4.60469 0
M  V30 2628 C 351.725 5.40275 -4.31916 0
M  V30 2629 O 352.523 5.25193 -3.14386 0
M  V30 2630 C 350.387 6.04847 -4.05327 0
M  V30 2631 N 349.344 5.04166 -3.98114 0
M  V30 2632 C 348.309 5.2366 -3.09923 0
M  V30 2633 O 348.348 6.23355 -2.34204 0
M  V30 2634 N 347.297 4.34279 -3.05727 0
M  V30 2635 C 347.345 3.26317 -3.84756 0
M  V30 2636 C 348.441 3.02504 -4.72573 0
M  V30 2637 C 349.407 3.94493 -4.76618 0
M  V30 2638 H 350.419 6.62104 -3.11218 0
M  V30 2639 H 351.602 4.42969 -4.80867 0
M  V30 2640 H 353.086 5.93122 -5.93121 0
M  V30 2641 H 351.392 7.93295 -6.39407 0
M  V30 2642 H 351.201 6.26671 -8.0846 0
M  V30 2643 H 349.571 6.29036 -7.32728 0
M  V30 2644 H 348.489 2.12921 -5.34017 0
M  V30 2645 H 350.253 3.80658 -5.44176 0
M  V30 2646 H 352.307 5.93572 -2.52637 0
M  V30 2647 P 354.068 7.39546 -4.75277 0
M  V30 2648 O 355.49 7.84798 -5.01039 0
M  V30 2649 O 353.708 5.9812 -5.08098 0
M  V30 2650 O 353.745 7.57503 -3.1866 0
M  V30 2651 C 353.585 8.97357 -2.74833 0
M  V30 2652 C 354.125 9.07548 -1.32709 0
M  V30 2653 O 353.069 8.62072 -0.606159 0
M  V30 2654 C 355.343 8.25383 -0.938334 0
M  V30 2655 O 356.081 8.74577 0.146954 0
M  V30 2656 C 354.674 6.8802 -0.712559 0
M  V30 2657 O 355.473 6.1189 0.194655 0
M  V30 2658 C 353.337 7.27966 -0.139777 0
M  V30 2659 H 353.369 7.25354 0.961601 0
M  V30 2660 H 354.552 6.32557 -1.65702 0
M  V30 2661 H 356.036 8.19355 -1.79097 0
M  V30 2662 H 354.342 10.1294 -1.10029 0
M  V30 2663 H 354.152 9.64276 -3.41316 0
M  V30 2664 H 352.522 9.25417 -2.76357 0
M  V30 2665 H 355.161 6.25267 1.07847 0
M  V30 2666 P 357.019 8.791 1.66284e-12 0
M  V30 2667 O 358.42 9.36698 -0.018734 0
M  V30 2668 O 356.641 7.82499 -1.07878 0
M  V30 2669 O 356.696 8.09434 1.41446 0
M  V30 2670 C 356.536 9.0349 2.53943 0
M  V30 2671 C 357.076 8.35135 3.78975 0
M  V30 2672 O 356.02 7.57904 4.1503 0
M  V30 2673 C 358.293 7.45087 3.67298 0
M  V30 2674 O 359.032 7.27796 4.85194 0
M  V30 2675 C 357.626 6.17323 3.12027 0
M  V30 2676 O 358.424 5.04149 3.47132 0
M  V30 2677 C 356.288 6.19961 3.81809 0
M  V30 2678 N 355.245 5.71575 2.93223 0
M  V30 2679 C 354.21 4.99452 3.47592 0
M  V30 2680 O 354.249 4.7199 4.69732 0
M  V30 2681 N 353.198 4.58505 2.6803 0
M  V30 2682 C 353.246 4.85544 1.36995 0
M  V30 2683 N 352.236 4.45052 0.609031 0
M  V30 2684 C 354.342 5.55532 0.788532 0
M  V30 2685 C 355.308 5.97426 1.60849 0
M  V30 2686 H 356.32 5.58142 4.72986 0
M  V30 2687 H 357.503 6.21428 2.0318 0
M  V30 2688 H 358.987 7.85913 2.93131 0
M  V30 2689 H 357.293 9.11171 4.55987 0
M  V30 2690 H 357.102 9.9573 2.34194 0
M  V30 2691 H 355.472 9.27824 2.67805 0
M  V30 2692 H 354.39 5.7421 -0.281588 0
M  V30 2693 H 356.154 6.53132 1.202 0
M  V30 2694 H 351.446 3.94123 1.03159 0
M  V30 2695 H 352.241 4.64377 -0.400352 0
M  V30 2696 H 358.208 4.76386 4.34983 0
M  V30 2697 P 359.97 7.39546 4.75277 0
M  V30 2698 O 361.371 7.89013 5.04841 0
M  V30 2699 O 359.592 7.16603 3.32298 0
M  V30 2700 O 359.647 6.04468 5.56605 0
M  V30 2701 C 359.487 6.22772 7.02095 0
M  V30 2702 C 360.027 4.97671 7.70322 0
M  V30 2703 O 358.971 4.13208 7.58899 0
M  V30 2704 C 361.244 4.28231 7.11815 0
M  V30 2705 O 361.983 3.49945 8.01648 0
M  V30 2706 C 360.577 3.5063 5.96244 0
M  V30 2707 O 361.375 2.36443 5.64589 0
M  V30 2708 C 359.239 3.15122 6.56374 0
M  V30 2709 N 358.196 3.22311 5.55692 0
M  V30 2710 C 357.161 2.32244 5.62437 0
M  V30 2711 O 357.2 1.43107 6.50341 0
M  V30 2712 N 356.149 2.40811 4.73368 0
M  V30 2713 C 356.197 3.344 3.77753 0
M  V30 2714 N 355.187 3.41475 2.91848 0
M  V30 2715 C 357.293 4.24712 3.66679 0
M  V30 2716 C 358.259 4.15625 4.58307 0
M  V30 2717 H 359.271 2.13823 6.99656 0
M  V30 2718 H 360.454 4.12931 5.06895 0
M  V30 2719 H 361.938 5.02674 6.71494 0
M  V30 2720 H 360.244 5.20001 8.76217 0
M  V30 2721 H 360.053 7.11046 7.35349 0
M  V30 2722 H 358.423 6.35749 7.26911 0
M  V30 2723 H 357.341 4.9828 2.86753 0
M  V30 2724 H 359.105 4.84464 4.54228 0
M  V30 2725 H 354.397 2.75785 2.99862 0
M  V30 2726 H 355.192 4.12304 2.17382 0
M  V30 2727 H 361.159 1.65592 6.23485 0
M  V30 2728 P 362.92 3.65191 7.99657 0
M  V30 2729 O 364.342 3.8425 8.48115 0
M  V30 2730 O 362.56 4.17805 6.64342 0
M  V30 2731 O 362.597 2.07613 7.95143 0
M  V30 2732 C 362.437 1.44328 9.27336 0
M  V30 2733 C 362.977 0.0220036 9.17197 0
M  V30 2734 O 361.921 -0.626867 8.61923 0
M  V30 2735 C 364.195 -0.24586 8.30336 0
M  V30 2736 O 364.933 -1.39011 8.63583 0
M  V30 2737 C 363.526 -0.273849 6.91158 0
M  V30 2738 O 364.325 -1.06348 6.02892 0
M  V30 2739 C 362.189 -0.897649 7.22545 0
M  V30 2740 H 362.221 -1.9841 7.04286 0
M  V30 2741 H 363.404 0.739928 6.497 0
M  V30 2742 H 364.888 0.60668 8.36503 0
M  V30 2743 H 363.194 -0.352479 10.1829 0
M  V30 2744 H 363.004 2.00611 10.0304 0
M  V30 2745 H 361.374 1.41843 9.55327 0
M  V30 2746 H 364.013 -1.95734 6.03555 0
M  V30 2747 P 365.871 -1.25109 8.70152 0
M  V30 2748 O 367.293 -1.35274 9.21221 0
M  V30 2749 O 365.511 -0.0769065 7.84762 0
M  V30 2750 O 365.548 -2.55232 7.81161 0
M  V30 2751 C 365.388 -3.79939 8.58154 0
M  V30 2752 C 365.928 -4.94023 7.72785 0
M  V30 2753 O 364.872 -5.18726 6.91205 0
M  V30 2754 C 367.146 -4.69597 6.85231 0
M  V30 2755 O 367.884 -5.83832 6.51337 0
M  V30 2756 C 366.477 -3.96706 5.66633 0
M  V30 2757 O 367.276 -4.15414 4.49689 0
M  V30 2758 C 365.14 -4.66153 5.59313 0
M  V30 2759 H 365.172 -5.47679 4.85214 0
M  V30 2760 H 366.355 -2.89008 5.86566 0
M  V30 2761 H 367.839 -4.0121 7.36511 0
M  V30 2762 H 366.145 -5.80182 8.37584 0
M  V30 2763 H 365.955 -3.73517 9.52265 0
M  V30 2764 H 364.325 -3.97163 8.80359 0
M  V30 2765 H 366.964 -4.90969 4.01921 0
M  V30 2766 P 368.821 -5.75688 6.64379 0
M  V30 2767 O 370.243 -6.11849 7.01846 0
M  V30 2768 O 368.461 -4.30744 6.56026 0
M  V30 2769 O 368.498 -6.37042 5.19165 0
M  V30 2770 C 368.338 -7.83578 5.16515 0
M  V30 2771 C 368.878 -8.33398 3.83019 0
M  V30 2772 O 367.822 -8.10074 3.01034 0
M  V30 2773 C 370.096 -7.65514 3.2257 0
M  V30 2774 O 370.834 -8.4329 2.32297 0
M  V30 2775 C 369.427 -6.40075 2.62207 0
M  V30 2776 O 370.226 -5.92589 1.53712 0
M  V30 2777 C 368.09 -6.9454 2.18503 0
M  V30 2778 H 368.122 -7.23063 1.12091 0
M  V30 2779 H 369.305 -5.6025 3.37201 0
M  V30 2780 H 370.789 -7.35707 4.02681 0
M  V30 2781 H 369.095 -9.40912 3.9095 0
M  V30 2782 H 368.905 -8.29056 5.99158 0
M  V30 2783 H 367.275 -8.10073 5.25882 0
M  V30 2784 H 369.914 -6.30324 0.726794 0
M  V30 2785 P 371.772 -8.4349 2.47671 0
M  V30 2786 O 373.173 -8.98227 2.65696 0
M  V30 2787 O 371.394 -7.20409 3.23964 0
M  V30 2788 O 371.449 -8.16496 0.923275 0
M  V30 2789 C 371.289 -9.38437 0.108857 0
M  V30 2790 C 371.829 -9.08076 -1.28339 0
M  V30 2791 O 370.773 -8.44131 -1.84692 0
M  V30 2792 C 373.046 -8.18386 -1.42505 0
M  V30 2793 O 373.785 -8.3501 -2.60497 0
M  V30 2794 C 372.379 -6.80225 -1.25468 0
M  V30 2795 O 373.177 -5.81526 -1.91035 0
M  V30 2796 C 371.041 -7.02416 -1.9168 0
M  V30 2797 N 369.998 -6.31033 -1.20314 0
M  V30 2798 C 368.963 -5.77149 -1.928 0
M  V30 2799 O 369.002 -5.8521 -3.17729 0
M  V30 2800 N 367.951 -5.15445 -1.27997 0
M  V30 2801 C 367.999 -5.04472 0.0534726 0
M  V30 2802 C 369.095 -5.55244 0.808522 0
M  V30 2803 C 370.061 -6.18542 0.13981 0
M  V30 2804 H 371.073 -6.68789 -2.9658 0
M  V30 2805 H 372.256 -6.53498 -0.198729 0
M  V30 2806 H 373.74 -8.36663 -0.5984 0
M  V30 2807 H 372.046 -10.0273 -1.8081 0
M  V30 2808 H 371.855 -10.2138 0.558219 0
M  V30 2809 H 370.225 -9.6569 0.0444156 0
M  V30 2810 H 369.143 -5.43017 1.88792 0
M  V30 2811 H 370.907 -6.60539 0.686773 0
M  V30 2812 H 372.961 -5.79638 -2.8315 0
M  V30 2813 P 374.722 -8.4349 -2.47671 0
M  V30 2814 O 376.144 -8.92593 -2.65 0
M  V30 2815 O 374.362 -7.7568 -1.19296 0
M  V30 2816 O 374.399 -7.36886 -3.63805 0
M  V30 2817 C 374.239 -7.95349 -4.982 0
M  V30 2818 C 374.779 -6.94612 -5.98974 0
M  V30 2819 O 373.723 -6.10347 -6.11815 0
M  V30 2820 C 375.997 -6.11426 -5.62335 0
M  V30 2821 O 376.735 -5.6162 -6.70584 0
M  V30 2822 C 375.328 -5.04409 -4.73308 0
M  V30 2823 O 376.127 -3.85992 -4.75183 0
M  V30 2824 C 373.991 -4.8728 -5.41006 0
M  V30 2825 H 374.023 -4.02333 -6.11157 0
M  V30 2826 H 375.206 -5.39466 -3.69543 0
M  V30 2827 H 376.69 -6.71916 -5.01943 0
M  V30 2828 H 374.996 -7.4649 -6.93477 0
M  V30 2829 H 374.806 -8.89416 -5.05237 0
M  V30 2830 H 373.176 -8.14876 -5.18409 0
M  V30 2831 H 375.815 -3.27957 -5.4317 0
M  V30 2832 P 377.673 -5.75688 -6.64379 0
M  V30 2833 O 379.095 -6.07627 -7.05504 0
M  V30 2834 O 377.313 -5.88047 -5.19722 0
M  V30 2835 O 377.35 -4.2322 -7.04443 0
M  V30 2836 C 377.19 -3.99743 -8.4911 0
M  V30 2837 C 377.73 -2.60516 -8.79425 0
M  V30 2838 O 376.674 -1.82684 -8.4467 0
M  V30 2839 C 378.948 -2.10343 -8.03628 0
M  V30 2840 O 379.686 -1.09919 -8.67766 0
M  V30 2841 C 378.279 -1.68446 -6.70876 0
M  V30 2842 O 379.078 -0.678137 -6.08433 0
M  V30 2843 C 376.942 -1.17436 -7.18567 0
M  V30 2844 H 376.974 -0.0804732 -7.31656 0
M  V30 2845 H 378.157 -2.54037 -6.02537 0
M  V30 2846 H 379.641 -2.93881 -7.85526 0
M  V30 2847 H 377.947 -2.53065 -9.86973 0
M  V30 2848 H 377.757 -4.75072 -9.05887 0
M  V30 2849 H 376.127 -4.05244 -8.76668 0
M  V30 2850 H 378.766 0.177647 -6.34251 0
M  V30 2851 P 380.624 -1.25109 -8.70152 0
M  V30 2852 O 382.046 -1.29744 -9.22016 0
M  V30 2853 O 380.264 -2.13714 -7.55141 0
M  V30 2854 O 380.301 0.248149 -8.21425 0
M  V30 2855 C 380.141 1.22779 -9.30434 0
M  V30 2856 C 380.681 2.56293 -8.80664 0
M  V30 2857 O 379.625 3.02979 -8.09349 0
M  V30 2858 C 381.899 2.57523 -7.89775 0
M  V30 2859 O 382.637 3.7668 -7.89438 0
M  V30 2860 C 381.23 2.20997 -6.55446 0
M  V30 2861 O 382.029 2.71895 -5.48509 0
M  V30 2862 C 379.893 2.89693 -6.67988 0
M  V30 2863 H 379.925 3.88793 -6.19859 0
M  V30 2864 H 381.108 1.12046 -6.44229 0
M  V30 2865 H 382.592 1.7746 -8.19711 0
M  V30 2866 H 380.898 3.20706 -9.67112 0
M  V30 2867 H 380.708 0.901032 -10.1892 0
M  V30 2868 H 379.078 1.33049 -9.56592 0
M  V30 2869 H 381.717 3.57847 -5.23962 0
M  V30 2870 P 383.574 3.65191 -7.99657 0
M  V30 2871 O 384.996 3.89332 -8.45794 0
M  V30 2872 O 383.214 2.28472 -7.50807 0
M  V30 2873 O 383.251 4.64972 -6.77611 0
M  V30 2874 C 383.091 6.06319 -7.16352 0
M  V30 2875 C 383.631 6.91731 -6.02299 0
M  V30 2876 O 382.575 6.92449 -5.17064 0
M  V30 2877 C 384.849 6.43627 -5.25174 0
M  V30 2878 O 385.587 7.43686 -4.60469 0
M  V30 2879 C 384.18 5.40275 -4.31916 0
M  V30 2880 O 384.979 5.25279 -3.14438 0
M  V30 2881 C 382.843 6.04847 -4.05327 0
M  V30 2882 H 382.875 6.62195 -3.11261 0
M  V30 2883 H 384.058 4.42556 -4.81383 0
M  V30 2884 H 385.542 5.92458 -5.93643 0
M  V30 2885 H 383.848 7.92655 -6.402 0
M  V30 2886 H 383.658 6.26671 -8.0846 0
M  V30 2887 H 382.028 6.29101 -7.32804 0
M  V30 2888 H 384.667 5.84315 -2.47318 0
M  V30 2889 P 386.525 7.39546 -4.75277 0
M  V30 2890 O 387.947 7.84798 -5.01039 0
M  V30 2891 O 386.165 5.9812 -5.08098 0
M  V30 2892 O 386.202 7.57503 -3.1866 0
M  V30 2893 C 386.042 8.97357 -2.74833 0
M  V30 2894 C 386.582 9.07548 -1.32709 0
M  V30 2895 O 385.526 8.62072 -0.606159 0
M  V30 2896 C 387.8 8.25383 -0.938334 0
M  V30 2897 O 388.538 8.74577 0.146954 0
M  V30 2898 C 387.131 6.8802 -0.712559 0
M  V30 2899 O 387.93 6.1189 0.194655 0
M  V30 2900 C 385.794 7.27966 -0.139777 0
M  V30 2901 H 385.826 7.25354 0.961601 0
M  V30 2902 H 387.009 6.32557 -1.65702 0
M  V30 2903 H 388.493 8.19355 -1.79097 0
M  V30 2904 H 386.799 10.1294 -1.10029 0
M  V30 2905 H 386.609 9.64276 -3.41316 0
M  V30 2906 H 384.979 9.25417 -2.76357 0
M  V30 2907 H 387.618 6.25267 1.07847 0
M  V30 2908 P 389.475 8.791 1.973e-12 0
M  V30 2909 O 390.897 9.31096 0.027933 0
M  V30 2910 O 389.115 7.77869 -1.04071 0
M  V30 2911 O 389.152 8.09533 1.41463 0
M  V30 2912 C 388.992 9.0349 2.53943 0
M  V30 2913 C 389.532 8.35226 3.79016 0
M  V30 2914 O 388.476 7.57992 4.15078 0
M  V30 2915 C 390.75 7.45087 3.67298 0
M  V30 2916 O 391.488 7.27796 4.85194 0
M  V30 2917 C 390.081 6.17323 3.12027 0
M  V30 2918 O 390.88 5.04231 3.47188 0
M  V30 2919 C 388.744 6.19961 3.81809 0
M  V30 2920 H 388.776 5.58218 4.73051 0
M  V30 2921 H 389.959 6.21726 2.02589 0
M  V30 2922 H 391.443 7.86112 2.9231 0
M  V30 2923 H 389.749 9.11627 4.55076 0
M  V30 2924 H 389.559 9.9573 2.34194 0
M  V30 2925 H 387.929 9.2792 2.67832 0
M  V30 2926 H 390.568 4.67702 4.28772 0
M  V30 2927 P 392.426 7.39546 4.75277 0
M  V30 2928 O 393.848 7.81777 5.05738 0
M  V30 2929 O 392.066 7.1065 3.32998 0
M  V30 2930 O 392.103 6.04542 5.56673 0
M  V30 2931 C 391.943 6.22772 7.02095 0
M  V30 2932 C 392.483 4.97725 7.70406 0
M  V30 2933 O 391.427 4.13256 7.58987 0
M  V30 2934 C 393.701 4.28231 7.11815 0
M  V30 2935 O 394.439 3.49945 8.01648 0
M  V30 2936 C 393.032 3.5063 5.96244 0
M  V30 2937 O 393.831 2.36482 5.64681 0
M  V30 2938 C 391.695 3.15122 6.56374 0
M  V30 2939 H 391.727 2.13853 6.99751 0
M  V30 2940 H 392.91 4.13501 5.06559 0
M  V30 2941 H 394.394 5.03285 6.70911 0
M  V30 2942 H 392.7 5.20877 8.75697 0
M  V30 2943 H 392.51 7.11046 7.35349 0
M  V30 2944 H 390.88 6.35815 7.26986 0
M  V30 2945 H 393.519 1.61644 6.13565 0
M  V30 2946 P 395.376 3.65191 7.99657 0
M  V30 2947 O 396.798 3.8425 8.48115 0
M  V30 2948 O 395.016 4.17805 6.64342 0
M  V30 2949 O 395.053 2.07613 7.95143 0
M  V30 2950 C 394.893 1.44328 9.27336 0
M  V30 2951 C 395.433 0.0220036 9.17197 0
M  V30 2952 O 394.377 -0.626867 8.61923 0
M  V30 2953 C 396.651 -0.24586 8.30336 0
M  V30 2954 O 397.389 -1.39011 8.63583 0
M  V30 2955 C 395.982 -0.273849 6.91158 0
M  V30 2956 O 396.781 -1.06348 6.02892 0
M  V30 2957 C 394.645 -0.897649 7.22545 0
M  V30 2958 H 394.677 -1.9841 7.04286 0
M  V30 2959 H 395.86 0.739928 6.497 0
M  V30 2960 H 397.344 0.60668 8.36503 0
M  V30 2961 H 395.65 -0.352479 10.1829 0
M  V30 2962 H 395.46 2.00611 10.0304 0
M  V30 2963 H 393.83 1.41843 9.55327 0
M  V30 2964 H 396.469 -1.95734 6.03555 0
M  V30 2965 P 398.327 -1.25109 8.70152 0
M  V30 2966 O 399.749 -1.35274 9.21221 0
M  V30 2967 O 397.967 -0.0769065 7.84762 0
M  V30 2968 O 398.004 -2.55232 7.81161 0
M  V30 2969 C 397.844 -3.79939 8.58154 0
M  V30 2970 C 398.384 -4.94023 7.72785 0
M  V30 2971 O 397.328 -5.18726 6.91205 0
M  V30 2972 C 399.602 -4.69597 6.85231 0
M  V30 2973 O 400.34 -5.83832 6.51337 0
M  V30 2974 C 398.933 -3.96706 5.66633 0
M  V30 2975 O 399.732 -4.15414 4.49689 0
M  V30 2976 C 397.596 -4.66153 5.59313 0
M  V30 2977 H 397.628 -5.47679 4.85214 0
M  V30 2978 H 398.811 -2.89008 5.86566 0
M  V30 2979 H 400.295 -4.0121 7.36511 0
M  V30 2980 H 398.601 -5.80182 8.37584 0
M  V30 2981 H 398.411 -3.73517 9.52265 0
M  V30 2982 H 396.781 -3.97163 8.80359 0
M  V30 2983 H 399.42 -4.90969 4.01921 0
M  V30 2984 P 401.278 -5.75688 6.64379 0
M  V30 2985 O 402.699 -6.11915 7.01921 0
M  V30 2986 O 400.918 -4.30744 6.56026 0
M  V30 2987 O 400.955 -6.37042 5.19165 0
M  V30 2988 C 400.794 -7.83662 5.1657 0
M  V30 2989 C 401.335 -8.33398 3.83019 0
M  V30 2990 O 400.28 -8.0998 3.00999 0
M  V30 2991 C 402.553 -7.65514 3.2257 0
M  V30 2992 O 403.291 -8.4329 2.32297 0
M  V30 2993 C 401.885 -6.40075 2.62207 0
M  V30 2994 O 402.683 -5.92338 1.5428 0
M  V30 2995 C 400.547 -6.9454 2.18503 0
M  V30 2996 N 399.504 -5.95905 2.39948 0
M  V30 2997 C 399.673 -4.98383 3.32108 0
M  V30 2998 N 398.646 -4.16798 3.41761 0
M  V30 2999 C 397.761 -4.65287 2.47461 0
M  V30 3000 C 396.494 -4.18946 2.07461 0
M  V30 3001 N 395.929 -4.95327 1.09101 0
M  V30 3002 C 396.531 -6.04369 0.519812 0
M  V30 3003 N 397.708 -6.50694 0.855982 0
M  V30 3004 C 398.283 -5.75818 1.84322 0
M  V30 3005 H 401.762 -5.60502 3.36589 0
M  V30 3006 H 403.245 -7.35707 4.02681 0
M  V30 3007 H 401.551 -9.41302 3.90009 0
M  V30 3008 H 401.361 -8.29056 5.99158 0
M  V30 3009 H 399.731 -8.10073 5.25882 0
M  V30 3010 H 400.573 -4.88564 3.92502 0
M  V30 3011 H 402.371 -6.30224 0.72668 0
M  V30 3012 P 404.228 -8.4349 2.47671 0
M  V30 3013 O 405.649 -8.94263 2.59668 0
M  V30 3014 O 403.868 -7.1704 3.19006 0
M  V30 3015 O 403.905 -8.16596 0.923387 0
M  V30 3016 C 403.744 -9.38537 0.108869 0
M  V30 3017 C 404.285 -9.08175 -1.28353 0
M  V30 3018 O 403.23 -8.44131 -1.84692 0
M  V30 3019 C 405.503 -8.18386 -1.42505 0
M  V30 3020 O 406.241 -8.3501 -2.60497 0
M  V30 3021 C 404.835 -6.80225 -1.25468 0
M  V30 3022 O 405.633 -5.81716 -1.90454 0
M  V30 3023 C 403.497 -7.02416 -1.9168 0
M  V30 3024 N 402.454 -6.31033 -1.20314 0
M  V30 3025 C 402.623 -5.98817 0.0994088 0
M  V30 3026 N 401.596 -5.35403 0.621694 0
M  V30 3027 C 400.711 -5.25212 -0.43376 0
M  V30 3028 C 399.444 -4.64602 -0.519722 0
M  V30 3029 N 398.879 -4.7568 -1.76013 0
M  V30 3030 C 399.481 -5.3653 -2.83017 0
M  V30 3031 N 400.658 -5.93676 -2.79782 0
M  V30 3032 C 401.233 -5.84061 -1.56249 0
M  V30 3033 H 404.712 -6.53498 -0.198729 0
M  V30 3034 H 406.195 -8.36622 -0.589963 0
M  V30 3035 H 404.501 -10.0273 -1.8081 0
M  V30 3036 H 404.311 -10.2138 0.558219 0
M  V30 3037 H 402.681 -9.6579 0.0444202 0
M  V30 3038 H 403.523 -6.23209 0.660562 0
M  V30 3039 H 405.321 -5.69466 -2.79593 0
M  V30 3040 P 407.179 -8.4349 -2.47671 0
M  V30 3041 O 408.6 -8.92689 -2.65029 0
M  V30 3042 O 406.819 -7.7568 -1.19296 0
M  V30 3043 O 406.856 -7.36886 -3.63805 0
M  V30 3044 C 406.695 -7.95433 -4.98253 0
M  V30 3045 C 407.236 -6.94612 -5.98974 0
M  V30 3046 O 406.181 -6.10277 -6.11744 0
M  V30 3047 C 408.454 -6.11426 -5.62335 0
M  V30 3048 O 409.192 -5.6162 -6.70584 0
M  V30 3049 C 407.786 -5.04409 -4.73308 0
M  V30 3050 O 408.584 -3.86404 -4.74719 0
M  V30 3051 C 406.448 -4.8728 -5.41006 0
M  V30 3052 N 405.405 -4.65812 -4.42377 0
M  V30 3053 C 405.574 -5.09132 -3.15382 0
M  V30 3054 N 404.547 -4.84021 -2.3716 0
M  V30 3055 C 403.662 -4.18386 -3.20441 0
M  V30 3056 C 402.395 -3.6275 -2.94905 0
M  V30 3057 N 401.83 -3.05008 -4.05243 0
M  V30 3058 C 402.432 -2.98348 -5.28159 0
M  V30 3059 N 403.609 -3.48171 -5.56333 0
M  V30 3060 C 404.184 -4.06869 -4.47212 0
M  V30 3061 H 407.663 -5.39013 -3.70026 0
M  V30 3062 H 409.146 -6.71916 -5.01943 0
M  V30 3063 H 407.452 -7.45796 -6.94223 0
M  V30 3064 H 407.262 -8.89416 -5.05237 0
M  V30 3065 H 405.632 -8.14876 -5.18409 0
M  V30 3066 H 406.474 -5.59989 -2.81362 0
M  V30 3067 H 408.272 -3.27906 -5.43085 0
M  V30 3068 P 410.129 -5.75688 -6.64379 0
M  V30 3069 O 411.551 -6.07627 -7.05504 0
M  V30 3070 O 409.769 -5.88047 -5.19722 0
M  V30 3071 O 409.806 -4.2322 -7.04443 0
M  V30 3072 C 409.646 -3.99743 -8.4911 0
M  V30 3073 C 410.186 -2.60516 -8.79425 0
M  V30 3074 O 409.13 -1.82684 -8.4467 0
M  V30 3075 C 411.404 -2.10343 -8.03628 0
M  V30 3076 O 412.142 -1.09919 -8.67766 0
M  V30 3077 C 410.735 -1.68446 -6.70876 0
M  V30 3078 O 411.534 -0.678137 -6.08433 0
M  V30 3079 C 409.398 -1.17436 -7.18567 0
M  V30 3080 H 409.43 -0.0804732 -7.31656 0
M  V30 3081 H 410.613 -2.54037 -6.02537 0
M  V30 3082 H 412.097 -2.93881 -7.85526 0
M  V30 3083 H 410.403 -2.53065 -9.86973 0
M  V30 3084 H 410.213 -4.75072 -9.05887 0
M  V30 3085 H 408.583 -4.05244 -8.76668 0
M  V30 3086 H 411.222 0.177647 -6.34251 0
M  V30 3087 P 413.08 -1.25109 -8.70152 0
M  V30 3088 O 414.502 -1.29744 -9.22016 0
M  V30 3089 O 412.72 -2.13714 -7.55141 0
M  V30 3090 O 412.757 0.248149 -8.21425 0
M  V30 3091 C 412.597 1.22779 -9.30434 0
M  V30 3092 C 413.137 2.56293 -8.80664 0
M  V30 3093 O 412.081 3.02979 -8.09349 0
M  V30 3094 C 414.355 2.57523 -7.89775 0
M  V30 3095 O 415.093 3.7668 -7.89438 0
M  V30 3096 C 413.686 2.20997 -6.55446 0
M  V30 3097 O 414.485 2.71895 -5.48509 0
M  V30 3098 C 412.349 2.89693 -6.67988 0
M  V30 3099 H 412.381 3.88793 -6.19859 0
M  V30 3100 H 413.564 1.12046 -6.44229 0
M  V30 3101 H 415.048 1.7746 -8.19711 0
M  V30 3102 H 413.354 3.20706 -9.67112 0
M  V30 3103 H 413.164 0.901032 -10.1892 0
M  V30 3104 H 411.534 1.33049 -9.56592 0
M  V30 3105 H 414.173 3.57847 -5.23962 0
M  V30 3106 P 416.03 3.65191 -7.99657 0
M  V30 3107 O 417.431 3.87414 -8.52829 0
M  V30 3108 O 415.652 2.26932 -7.566 0
M  V30 3109 O 415.707 4.64915 -6.77529 0
M  V30 3110 C 415.547 6.06319 -7.16352 0
M  V30 3111 C 416.087 6.91655 -6.02234 0
M  V30 3112 O 415.031 6.92369 -5.17005 0
M  V30 3113 C 417.304 6.43627 -5.25174 0
M  V30 3114 O 418.043 7.43686 -4.60469 0
M  V30 3115 C 416.637 5.40275 -4.31916 0
M  V30 3116 O 417.435 5.25193 -3.14386 0
M  V30 3117 C 415.299 6.04847 -4.05327 0
M  V30 3118 N 414.256 5.04166 -3.98114 0
M  V30 3119 C 413.221 5.2366 -3.09923 0
M  V30 3120 O 413.26 6.23355 -2.34204 0
M  V30 3121 N 412.209 4.34279 -3.05727 0
M  V30 3122 C 412.257 3.26317 -3.84756 0
M  V30 3123 C 413.353 3.02504 -4.72573 0
M  V30 3124 C 414.319 3.94493 -4.76618 0
M  V30 3125 H 415.331 6.62104 -3.11218 0
M  V30 3126 H 416.514 4.42969 -4.80867 0
M  V30 3127 H 417.998 5.93122 -5.93121 0
M  V30 3128 H 416.304 7.93295 -6.39407 0
M  V30 3129 H 416.113 6.26671 -8.0846 0
M  V30 3130 H 414.483 6.29036 -7.32728 0
M  V30 3131 H 413.401 2.12921 -5.34017 0
M  V30 3132 H 415.165 3.80658 -5.44176 0
M  V30 3133 H 417.219 5.93572 -2.52637 0
M  V30 3134 P 418.981 7.39546 -4.75277 0
M  V30 3135 O 420.382 7.86988 -5.07993 0
M  V30 3136 O 418.603 5.99957 -5.13804 0
M  V30 3137 O 418.658 7.57411 -3.18621 0
M  V30 3138 C 418.498 8.97357 -2.74833 0
M  V30 3139 C 419.038 9.0745 -1.32694 0
M  V30 3140 O 417.982 8.61972 -0.606089 0
M  V30 3141 C 420.255 8.25383 -0.938334 0
M  V30 3142 O 420.994 8.74577 0.146954 0
M  V30 3143 C 419.588 6.8802 -0.712559 0
M  V30 3144 O 420.386 6.11791 0.194623 0
M  V30 3145 C 418.25 7.27966 -0.139777 0
M  V30 3146 N 417.207 6.39368 -0.623421 0
M  V30 3147 C 416.172 6.08088 0.223886 0
M  V30 3148 O 416.211 6.5102 1.39986 0
M  V30 3149 N 415.16 5.30627 -0.224051 0
M  V30 3150 C 415.208 4.82531 -1.47257 0
M  V30 3151 C 416.304 5.09974 -2.34008 0
M  V30 3152 C 417.27 5.89548 -1.87678 0
M  V30 3153 H 418.282 7.25255 0.961469 0
M  V30 3154 H 419.465 6.32625 -1.65044 0
M  V30 3155 H 420.949 8.19631 -1.78299 0
M  V30 3156 H 419.255 10.1305 -1.09016 0
M  V30 3157 H 419.064 9.64276 -3.41316 0
M  V30 3158 H 417.434 9.25321 -2.76328 0
M  V30 3159 H 416.352 4.67832 -3.3413 0
M  V30 3160 H 418.116 6.14434 -2.51991 0
M  V30 3161 H 420.17 6.35931 1.08377 0
M  V30 3162 P 421.932 8.791 2.28317e-12 0
M  V30 3163 O 423.354 9.31296 0.027939 0
M  V30 3164 O 421.572 7.77869 -1.04071 0
M  V30 3165 O 421.609 8.09533 1.41463 0
M  V30 3166 C 421.449 9.0349 2.53943 0
M  V30 3167 C 421.989 8.35135 3.78975 0
M  V30 3168 O 420.934 7.57992 4.15078 0
M  V30 3169 C 423.207 7.45087 3.67298 0
M  V30 3170 O 423.945 7.27796 4.85194 0
M  V30 3171 C 422.539 6.17323 3.12027 0
M  V30 3172 O 423.337 5.04149 3.47132 0
M  V30 3173 C 421.201 6.19961 3.81809 0
M  V30 3174 N 420.158 5.71575 2.93223 0
M  V30 3175 C 420.22 5.97133 1.62693 0
M  V30 3176 N 419.175 5.44066 0.984414 0
M  V30 3177 C 418.441 4.87093 1.93987 0
M  V30 3178 C 417.135 4.26449 1.8738 0
M  V30 3179 O 416.402 4.1089 0.884377 0
M  V30 3180 N 416.705 3.82483 3.08036 0
M  V30 3181 C 417.454 3.95124 4.27727 0
M  V30 3182 N 416.857 3.4084 5.39089 0
M  V30 3183 N 418.607 4.55264 4.3706 0
M  V30 3184 C 419.064 5.00861 3.18217 0
M  V30 3185 H 421.233 5.58218 4.73051 0
M  V30 3186 H 422.416 6.21631 2.02558 0
M  V30 3187 H 423.901 7.85819 2.93096 0
M  V30 3188 H 422.206 9.11627 4.55076 0
M  V30 3189 H 422.016 9.9573 2.34194 0
M  V30 3190 H 420.385 9.2792 2.67832 0
M  V30 3191 H 415.809 3.38323 3.1329 0
M  V30 3192 H 421.016 6.53891 1.14265 0
M  V30 3193 H 415.946 2.93852 5.30559 0
M  V30 3194 H 417.322 3.47631 6.30632 0
M  V30 3195 H 423.026 4.67628 4.28704 0
M  V30 3196 P 424.882 7.39546 4.75277 0
M  V30 3197 O 426.304 7.81777 5.05738 0
M  V30 3198 O 424.522 7.1065 3.32998 0
M  V30 3199 O 424.559 6.04542 5.56673 0
M  V30 3200 C 424.399 6.22772 7.02095 0
M  V30 3201 C 424.939 4.97725 7.70406 0
M  V30 3202 O 423.883 4.13256 7.58987 0
M  V30 3203 C 426.157 4.28231 7.11815 0
M  V30 3204 O 426.895 3.49945 8.01648 0
M  V30 3205 C 425.488 3.5063 5.96244 0
M  V30 3206 O 426.287 2.36482 5.64681 0
M  V30 3207 C 424.151 3.15122 6.56374 0
M  V30 3208 H 424.183 2.13853 6.99751 0
M  V30 3209 H 425.366 4.13501 5.06559 0
M  V30 3210 H 426.85 5.03285 6.70911 0
M  V30 3211 H 425.156 5.20877 8.75697 0
M  V30 3212 H 424.966 7.11046 7.35349 0
M  V30 3213 H 423.336 6.35815 7.26986 0
M  V30 3214 H 425.975 1.61644 6.13565 0
M  V30 3215 P 427.833 3.65191 7.99657 0
M  V30 3216 O 429.255 3.8425 8.48115 0
M  V30 3217 O 427.473 4.17805 6.64342 0
M  V30 3218 O 427.51 2.07613 7.95143 0
M  V30 3219 C 427.35 1.44328 9.27336 0
M  V30 3220 C 427.89 0.0220036 9.17197 0
M  V30 3221 O 426.834 -0.626867 8.61923 0
M  V30 3222 C 429.108 -0.24586 8.30336 0
M  V30 3223 O 429.846 -1.39011 8.63583 0
M  V30 3224 C 428.439 -0.273849 6.91158 0
M  V30 3225 O 429.238 -1.06348 6.02892 0
M  V30 3226 C 427.102 -0.897649 7.22545 0
M  V30 3227 H 427.134 -1.9841 7.04286 0
M  V30 3228 H 428.317 0.739928 6.497 0
M  V30 3229 H 429.801 0.60668 8.36503 0
M  V30 3230 H 428.107 -0.352479 10.1829 0
M  V30 3231 H 427.917 2.00611 10.0304 0
M  V30 3232 H 426.287 1.41843 9.55327 0
M  V30 3233 H 428.926 -1.95734 6.03555 0
M  V30 3234 P 430.783 -1.25109 8.70152 0
M  V30 3235 O 432.205 -1.35274 9.21221 0
M  V30 3236 O 430.423 -0.0769065 7.84762 0
M  V30 3237 O 430.46 -2.55232 7.81161 0
M  V30 3238 C 430.3 -3.79939 8.58154 0
M  V30 3239 C 430.84 -4.94023 7.72785 0
M  V30 3240 O 429.784 -5.18726 6.91205 0
M  V30 3241 C 432.058 -4.69597 6.85231 0
M  V30 3242 O 432.796 -5.83832 6.51337 0
M  V30 3243 C 431.389 -3.96706 5.66633 0
M  V30 3244 O 432.188 -4.15414 4.49689 0
M  V30 3245 C 430.052 -4.66153 5.59313 0
M  V30 3246 H 430.084 -5.47679 4.85214 0
M  V30 3247 H 431.267 -2.89008 5.86566 0
M  V30 3248 H 432.751 -4.0121 7.36511 0
M  V30 3249 H 431.057 -5.80182 8.37584 0
M  V30 3250 H 430.867 -3.73517 9.52265 0
M  V30 3251 H 429.237 -3.97163 8.80359 0
M  V30 3252 H 431.876 -4.90969 4.01921 0
M  V30 3253 P 433.734 -5.75688 6.64379 0
M  V30 3254 O 435.156 -6.11849 7.01846 0
M  V30 3255 O 433.374 -4.30744 6.56026 0
M  V30 3256 O 433.411 -6.37042 5.19165 0
M  V30 3257 C 433.251 -7.83578 5.16515 0
M  V30 3258 C 433.791 -8.33398 3.83019 0
M  V30 3259 O 432.735 -8.10074 3.01034 0
M  V30 3260 C 435.009 -7.65514 3.2257 0
M  V30 3261 O 435.747 -8.4329 2.32297 0
M  V30 3262 C 434.34 -6.40075 2.62207 0
M  V30 3263 O 435.139 -5.92589 1.53712 0
M  V30 3264 C 433.003 -6.9454 2.18503 0
M  V30 3265 H 433.035 -7.23063 1.12091 0
M  V30 3266 H 434.218 -5.6025 3.37201 0
M  V30 3267 H 435.702 -7.35707 4.02681 0
M  V30 3268 H 434.008 -9.40912 3.9095 0
M  V30 3269 H 433.818 -8.29056 5.99158 0
M  V30 3270 H 432.188 -8.10073 5.25882 0
M  V30 3271 H 434.827 -6.30324 0.726794 0
M  V30 3272 P 436.684 -8.4349 2.47671 0
M  V30 3273 O 438.106 -8.94167 2.5964 0
M  V30 3274 O 436.324 -7.1704 3.19006 0
M  V30 3275 O 436.361 -8.16596 0.923387 0
M  V30 3276 C 436.201 -9.38437 0.108857 0
M  V30 3277 C 436.741 -9.08175 -1.28353 0
M  V30 3278 O 435.685 -8.44229 -1.84713 0
M  V30 3279 C 437.959 -8.18386 -1.42505 0
M  V30 3280 O 438.697 -8.3501 -2.60497 0
M  V30 3281 C 437.29 -6.80225 -1.25468 0
M  V30 3282 O 438.089 -5.81621 -1.91066 0
M  V30 3283 C 435.953 -7.02416 -1.9168 0
M  V30 3284 H 435.985 -6.6888 -2.96621 0
M  V30 3285 H 437.168 -6.53617 -0.192223 0
M  V30 3286 H 438.652 -8.36622 -0.589963 0
M  V30 3287 H 436.958 -10.0291 -1.79807 0
M  V30 3288 H 436.768 -10.2138 0.558219 0
M  V30 3289 H 435.138 -9.6579 0.0444202 0
M  V30 3290 H 437.777 -5.69556 -2.79637 0
M  V30 3291 P 439.635 -8.4349 -2.47671 0
M  V30 3292 O 441.057 -8.92593 -2.65 0
M  V30 3293 O 439.275 -7.7568 -1.19296 0
M  V30 3294 O 439.312 -7.36886 -3.63805 0
M  V30 3295 C 439.152 -7.95349 -4.982 0
M  V30 3296 C 439.692 -6.94612 -5.98974 0
M  V30 3297 O 438.636 -6.10347 -6.11815 0
M  V30 3298 C 440.91 -6.11426 -5.62335 0
M  V30 3299 O 441.648 -5.6162 -6.70584 0
M  V30 3300 C 440.241 -5.04409 -4.73308 0
M  V30 3301 O 441.04 -3.85992 -4.75183 0
M  V30 3302 C 438.904 -4.8728 -5.41006 0
M  V30 3303 H 438.936 -4.02333 -6.11157 0
M  V30 3304 H 440.119 -5.39466 -3.69543 0
M  V30 3305 H 441.603 -6.71916 -5.01943 0
M  V30 3306 H 439.909 -7.4649 -6.93477 0
M  V30 3307 H 439.719 -8.89416 -5.05237 0
M  V30 3308 H 438.089 -8.14876 -5.18409 0
M  V30 3309 H 440.728 -3.27957 -5.4317 0
M  V30 3310 P 442.586 -5.75688 -6.64379 0
M  V30 3311 O 443.987 -6.14823 -7.06682 0
M  V30 3312 O 442.208 -5.93957 -5.20728 0
M  V30 3313 O 442.263 -4.23169 -7.04357 0
M  V30 3314 C 442.103 -3.99743 -8.4911 0
M  V30 3315 C 442.643 -2.60487 -8.79329 0
M  V30 3316 O 441.587 -1.82663 -8.44573 0
M  V30 3317 C 443.86 -2.10343 -8.03628 0
M  V30 3318 O 444.599 -1.09919 -8.67766 0
M  V30 3319 C 443.193 -1.68446 -6.70876 0
M  V30 3320 O 443.991 -0.678026 -6.08333 0
M  V30 3321 C 441.855 -1.17436 -7.18567 0
M  V30 3322 N 440.812 -1.52699 -6.23988 0
M  V30 3323 C 439.777 -0.643793 -6.05085 0
M  V30 3324 O 439.816 0.459118 -6.64315 0
M  V30 3325 N 438.765 -0.976931 -5.22038 0
M  V30 3326 C 438.813 -2.14429 -4.56662 0
M  V30 3327 N 437.803 -2.4542 -3.76231 0
M  V30 3328 C 439.909 -3.04203 -4.71481 0
M  V30 3329 C 440.875 -2.69669 -5.56838 0
M  V30 3330 H 441.887 -0.0804622 -7.31556 0
M  V30 3331 H 443.07 -2.53396 -6.02698 0
M  V30 3332 H 444.554 -2.9313 -7.85914 0
M  V30 3333 H 442.86 -2.52078 -9.87225 0
M  V30 3334 H 442.669 -4.75072 -9.05887 0
M  V30 3335 H 441.039 -4.05202 -8.76577 0
M  V30 3336 H 439.957 -3.97309 -4.15519 0
M  V30 3337 H 441.721 -3.36869 -5.72318 0
M  V30 3338 H 437.013 -1.80133 -3.65413 0
M  V30 3339 H 437.808 -3.34359 -3.24736 0
M  V30 3340 H 443.775 0.167718 -6.44882 0
M  V30 3341 P 445.536 -1.25109 -8.70152 0
M  V30 3342 O 446.958 -1.29744 -9.22016 0
M  V30 3343 O 445.176 -2.13714 -7.55141 0
M  V30 3344 O 445.213 0.248149 -8.21425 0
M  V30 3345 C 445.053 1.22779 -9.30434 0
M  V30 3346 C 445.593 2.56293 -8.80664 0
M  V30 3347 O 444.537 3.02979 -8.09349 0
M  V30 3348 C 446.811 2.57523 -7.89775 0
M  V30 3349 O 447.549 3.7668 -7.89438 0
M  V30 3350 C 446.142 2.20997 -6.55446 0
M  V30 3351 O 446.941 2.71895 -5.48509 0
M  V30 3352 C 444.805 2.89693 -6.67988 0
M  V30 3353 H 444.837 3.88793 -6.19859 0
M  V30 3354 H 446.02 1.12046 -6.44229 0
M  V30 3355 H 447.504 1.7746 -8.19711 0
M  V30 3356 H 445.81 3.20706 -9.67112 0
M  V30 3357 H 445.62 0.901032 -10.1892 0
M  V30 3358 H 443.99 1.33049 -9.56592 0
M  V30 3359 H 446.629 3.57847 -5.23962 0
M  V30 3360 P 448.487 3.65191 -7.99657 0
M  V30 3361 O 449.909 3.89332 -8.45794 0
M  V30 3362 O 448.127 2.28472 -7.50807 0
M  V30 3363 O 448.164 4.64972 -6.77611 0
M  V30 3364 C 448.004 6.06319 -7.16352 0
M  V30 3365 C 448.544 6.91731 -6.02299 0
M  V30 3366 O 447.488 6.92449 -5.17064 0
M  V30 3367 C 449.762 6.43627 -5.25174 0
M  V30 3368 O 450.5 7.43686 -4.60469 0
M  V30 3369 C 449.093 5.40275 -4.31916 0
M  V30 3370 O 449.892 5.25279 -3.14438 0
M  V30 3371 C 447.756 6.04847 -4.05327 0
M  V30 3372 H 447.788 6.62195 -3.11261 0
M  V30 3373 H 448.971 4.42556 -4.81383 0
M  V30 3374 H 450.455 5.92458 -5.93643 0
M  V30 3375 H 448.761 7.92655 -6.402 0
M  V30 3376 H 448.571 6.26671 -8.0846 0
M  V30 3377 H 446.941 6.29101 -7.32804 0
M  V30 3378 H 449.58 5.84315 -2.47318 0
M  V30 3379 P 451.437 7.39546 -4.75277 0
M  V30 3380 O 452.859 7.84798 -5.01039 0
M  V30 3381 O 451.077 5.9812 -5.08098 0
M  V30 3382 O 451.114 7.57503 -3.1866 0
M  V30 3383 C 450.954 8.97357 -2.74833 0
M  V30 3384 C 451.494 9.07548 -1.32709 0
M  V30 3385 O 450.438 8.62072 -0.606159 0
M  V30 3386 C 452.712 8.25383 -0.938334 0
M  V30 3387 O 453.45 8.74577 0.146954 0
M  V30 3388 C 452.043 6.8802 -0.712559 0
M  V30 3389 O 452.842 6.1189 0.194655 0
M  V30 3390 C 450.706 7.27966 -0.139777 0
M  V30 3391 H 450.738 7.25354 0.961601 0
M  V30 3392 H 451.921 6.32557 -1.65702 0
M  V30 3393 H 453.405 8.19355 -1.79097 0
M  V30 3394 H 451.711 10.1294 -1.10029 0
M  V30 3395 H 451.521 9.64276 -3.41316 0
M  V30 3396 H 449.891 9.25417 -2.76357 0
M  V30 3397 H 452.53 6.25267 1.07847 0
M  V30 3398 P 454.388 8.791 2.59334e-12 0
M  V30 3399 O 455.81 9.31096 0.027933 0
M  V30 3400 O 454.028 7.77869 -1.04071 0
M  V30 3401 O 454.065 8.09533 1.41463 0
M  V30 3402 C 453.905 9.0349 2.53943 0
M  V30 3403 C 454.445 8.35226 3.79016 0
M  V30 3404 O 453.389 7.57992 4.15078 0
M  V30 3405 C 455.663 7.45087 3.67298 0
M  V30 3406 O 456.401 7.27796 4.85194 0
M  V30 3407 C 454.994 6.17323 3.12027 0
M  V30 3408 O 455.793 5.04231 3.47188 0
M  V30 3409 C 453.657 6.19961 3.81809 0
M  V30 3410 H 453.689 5.58218 4.73051 0
M  V30 3411 H 454.872 6.21726 2.02589 0
M  V30 3412 H 456.356 7.86112 2.9231 0
M  V30 3413 H 454.662 9.11627 4.55076 0
M  V30 3414 H 454.472 9.9573 2.34194 0
M  V30 3415 H 452.842 9.2792 2.67832 0
M  V30 3416 H 455.481 4.67702 4.28772 0
M  V30 3417 P 457.338 7.39546 4.75277 0
M  V30 3418 O 458.759 7.81861 5.05793 0
M  V30 3419 O 456.978 7.1065 3.32998 0
M  V30 3420 O 457.015 6.04542 5.56673 0
M  V30 3421 C 456.854 6.22839 7.02169 0
M  V30 3422 C 457.395 4.97725 7.70406 0
M  V30 3423 O 456.34 4.13208 7.58899 0
M  V30 3424 C 458.613 4.28231 7.11815 0
M  V30 3425 O 459.351 3.49945 8.01648 0
M  V30 3426 C 457.945 3.5063 5.96244 0
M  V30 3427 O 458.743 2.37008 5.64352 0
M  V30 3428 C 456.607 3.15122 6.56374 0
M  V30 3429 N 455.564 3.22311 5.55692 0
M  V30 3430 C 455.733 3.99655 4.46046 0
M  V30 3431 N 454.706 3.97599 3.63918 0
M  V30 3432 C 453.821 3.11159 4.25334 0
M  V30 3433 C 452.554 2.64972 3.85157 0
M  V30 3434 N 451.955 3.02132 2.69405 0
M  V30 3435 N 451.989 1.78482 4.74759 0
M  V30 3436 C 452.591 1.37463 5.90819 0
M  V30 3437 N 453.768 1.7733 6.31889 0
M  V30 3438 C 454.343 2.64393 5.43725 0
M  V30 3439 H 456.639 2.13823 6.99656 0
M  V30 3440 H 457.822 4.12931 5.06895 0
M  V30 3441 H 459.305 5.03285 6.70911 0
M  V30 3442 H 457.611 5.20001 8.76217 0
M  V30 3443 H 457.421 7.11046 7.35349 0
M  V30 3444 H 455.791 6.35815 7.26986 0
M  V30 3445 H 452.055 0.66574 6.53015 0
M  V30 3446 H 456.633 4.58037 4.27732 0
M  V30 3447 H 451.025 2.64828 2.45331 0
M  V30 3448 H 452.429 3.67472 2.05644 0
M  V30 3449 H 458.431 1.61619 6.13468 0
M  V30 3450 P 460.289 3.65191 7.99657 0
M  V30 3451 O 461.711 3.8425 8.48115 0
M  V30 3452 O 459.929 4.17805 6.64342 0
M  V30 3453 O 459.966 2.07613 7.95143 0
M  V30 3454 C 459.806 1.44328 9.27336 0
M  V30 3455 C 460.346 0.0220036 9.17197 0
M  V30 3456 O 459.29 -0.626867 8.61923 0
M  V30 3457 C 461.564 -0.24586 8.30336 0
M  V30 3458 O 462.302 -1.39011 8.63583 0
M  V30 3459 C 460.895 -0.273849 6.91158 0
M  V30 3460 O 461.694 -1.06348 6.02892 0
M  V30 3461 C 459.558 -0.897649 7.22545 0
M  V30 3462 H 459.59 -1.9841 7.04286 0
M  V30 3463 H 460.773 0.739928 6.497 0
M  V30 3464 H 462.257 0.60668 8.36503 0
M  V30 3465 H 460.563 -0.352479 10.1829 0
M  V30 3466 H 460.373 2.00611 10.0304 0
M  V30 3467 H 458.743 1.41843 9.55327 0
M  V30 3468 H 461.382 -1.95734 6.03555 0
M  V30 3469 P 463.239 -1.25109 8.70152 0
M  V30 3470 O 464.66 -1.35288 9.2132 0
M  V30 3471 O 462.879 -0.0769065 7.84762 0
M  V30 3472 O 462.916 -2.55232 7.81161 0
M  V30 3473 C 462.755 -3.79979 8.58246 0
M  V30 3474 C 463.296 -4.94023 7.72785 0
M  V30 3475 O 462.241 -5.18666 6.91125 0
M  V30 3476 C 464.514 -4.69597 6.85231 0
M  V30 3477 O 465.252 -5.83832 6.51337 0
M  V30 3478 C 463.846 -3.96706 5.66633 0
M  V30 3479 O 464.644 -4.14896 4.5003 0
M  V30 3480 C 462.508 -4.66153 5.59313 0
M  V30 3481 N 461.465 -3.71582 5.24027 0
M  V30 3482 C 461.634 -2.39715 5.48833 0
M  V30 3483 N 460.607 -1.65863 5.12845 0
M  V30 3484 C 459.722 -2.57637 4.5973 0
M  V30 3485 C 458.455 -2.40278 4.01027 0
M  V30 3486 N 457.856 -1.19549 3.86744 0
M  V30 3487 N 457.89 -3.57711 3.59575 0
M  V30 3488 C 458.492 -4.80324 3.70476 0
M  V30 3489 N 459.669 -5.01121 4.23801 0
M  V30 3490 C 460.244 -3.84757 4.66372 0
M  V30 3491 H 462.54 -5.47604 4.85148 0
M  V30 3492 H 463.723 -2.8955 5.86187 0
M  V30 3493 H 465.206 -4.0121 7.36511 0
M  V30 3494 H 463.512 -5.81019 8.37003 0
M  V30 3495 H 463.322 -3.73517 9.52265 0
M  V30 3496 H 461.692 -3.97163 8.80359 0
M  V30 3497 H 457.956 -5.66348 3.3183 0
M  V30 3498 H 462.534 -1.98804 5.94332 0
M  V30 3499 H 456.926 -1.13147 3.4281 0
M  V30 3500 H 458.33 -0.344074 4.19692 0
M  V30 3501 H 464.332 -4.90891 4.01857 0
M  V30 3502 P 466.19 -5.75688 6.64379 0
M  V30 3503 O 467.612 -6.11849 7.01846 0
M  V30 3504 O 465.83 -4.30744 6.56026 0
M  V30 3505 O 465.867 -6.37042 5.19165 0
M  V30 3506 C 465.707 -7.83578 5.16515 0
M  V30 3507 C 466.247 -8.33398 3.83019 0
M  V30 3508 O 465.191 -8.10074 3.01034 0
M  V30 3509 C 467.465 -7.65514 3.2257 0
M  V30 3510 O 468.203 -8.4329 2.32297 0
M  V30 3511 C 466.796 -6.40075 2.62207 0
M  V30 3512 O 467.595 -5.92589 1.53712 0
M  V30 3513 C 465.459 -6.9454 2.18503 0
M  V30 3514 H 465.491 -7.23063 1.12091 0
M  V30 3515 H 466.674 -5.6025 3.37201 0
M  V30 3516 H 468.158 -7.35707 4.02681 0
M  V30 3517 H 466.464 -9.40912 3.9095 0
M  V30 3518 H 466.274 -8.29056 5.99158 0
M  V30 3519 H 464.644 -8.10073 5.25882 0
M  V30 3520 H 467.283 -6.30324 0.726794 0
M  V30 3521 P 469.141 -8.4349 2.47671 0
M  V30 3522 O 470.563 -8.94167 2.5964 0
M  V30 3523 O 468.781 -7.1704 3.19006 0
M  V30 3524 O 468.818 -8.16596 0.923387 0
M  V30 3525 C 468.658 -9.38437 0.108857 0
M  V30 3526 C 469.198 -9.08175 -1.28353 0
M  V30 3527 O 468.142 -8.44229 -1.84713 0
M  V30 3528 C 470.416 -8.18386 -1.42505 0
M  V30 3529 O 471.154 -8.3501 -2.60497 0
M  V30 3530 C 469.747 -6.80225 -1.25468 0
M  V30 3531 O 470.546 -5.81621 -1.91066 0
M  V30 3532 C 468.41 -7.02416 -1.9168 0
M  V30 3533 H 468.442 -6.6888 -2.96621 0
M  V30 3534 H 469.625 -6.53617 -0.192223 0
M  V30 3535 H 471.109 -8.36622 -0.589963 0
M  V30 3536 H 469.415 -10.0291 -1.79807 0
M  V30 3537 H 469.225 -10.2138 0.558219 0
M  V30 3538 H 467.595 -9.6579 0.0444202 0
M  V30 3539 H 470.234 -5.69556 -2.79637 0
M  V30 3540 P 472.091 -8.4349 -2.47671 0
M  V30 3541 O 473.513 -8.92593 -2.65 0
M  V30 3542 O 471.731 -7.7568 -1.19296 0
M  V30 3543 O 471.768 -7.36886 -3.63805 0
M  V30 3544 C 471.608 -7.95349 -4.982 0
M  V30 3545 C 472.148 -6.94612 -5.98974 0
M  V30 3546 O 471.092 -6.10347 -6.11815 0
M  V30 3547 C 473.366 -6.11426 -5.62335 0
M  V30 3548 O 474.104 -5.6162 -6.70584 0
M  V30 3549 C 472.697 -5.04409 -4.73308 0
M  V30 3550 O 473.496 -3.85992 -4.75183 0
M  V30 3551 C 471.36 -4.8728 -5.41006 0
M  V30 3552 H 471.392 -4.02333 -6.11157 0
M  V30 3553 H 472.575 -5.39466 -3.69543 0
M  V30 3554 H 474.059 -6.71916 -5.01943 0
M  V30 3555 H 472.365 -7.4649 -6.93477 0
M  V30 3556 H 472.175 -8.89416 -5.05237 0
M  V30 3557 H 470.545 -8.14876 -5.18409 0
M  V30 3558 H 473.184 -3.27957 -5.4317 0
M  V30 3559 P 475.042 -5.75688 -6.64379 0
M  V30 3560 O 476.464 -6.07627 -7.05504 0
M  V30 3561 O 474.682 -5.88047 -5.19722 0
M  V30 3562 O 474.719 -4.2322 -7.04443 0
M  V30 3563 C 474.559 -3.99743 -8.4911 0
M  V30 3564 C 475.099 -2.60516 -8.79425 0
M  V30 3565 O 474.043 -1.82684 -8.4467 0
M  V30 3566 C 476.317 -2.10343 -8.03628 0
M  V30 3567 O 477.055 -1.09919 -8.67766 0
M  V30 3568 C 475.648 -1.68446 -6.70876 0
M  V30 3569 O 476.447 -0.678137 -6.08433 0
M  V30 3570 C 474.311 -1.17436 -7.18567 0
M  V30 3571 H 474.343 -0.0804732 -7.31656 0
M  V30 3572 H 475.526 -2.54037 -6.02537 0
M  V30 3573 H 477.01 -2.93881 -7.85526 0
M  V30 3574 H 475.316 -2.53065 -9.86973 0
M  V30 3575 H 475.126 -4.75072 -9.05887 0
M  V30 3576 H 473.496 -4.05244 -8.76668 0
M  V30 3577 H 476.135 0.177647 -6.34251 0
M  V30 3578 P 477.992 -1.25109 -8.70152 0
M  V30 3579 O 479.414 -1.29744 -9.22016 0
M  V30 3580 O 477.632 -2.13714 -7.55141 0
M  V30 3581 O 477.669 0.248149 -8.21425 0
M  V30 3582 C 477.509 1.22779 -9.30434 0
M  V30 3583 C 478.049 2.56293 -8.80664 0
M  V30 3584 O 476.993 3.02979 -8.09349 0
M  V30 3585 C 479.267 2.57523 -7.89775 0
M  V30 3586 O 480.005 3.7668 -7.89438 0
M  V30 3587 C 478.598 2.20997 -6.55446 0
M  V30 3588 O 479.397 2.71895 -5.48509 0
M  V30 3589 C 477.261 2.89693 -6.67988 0
M  V30 3590 H 477.293 3.88793 -6.19859 0
M  V30 3591 H 478.476 1.12046 -6.44229 0
M  V30 3592 H 479.96 1.7746 -8.19711 0
M  V30 3593 H 478.266 3.20706 -9.67112 0
M  V30 3594 H 478.076 0.901032 -10.1892 0
M  V30 3595 H 476.446 1.33049 -9.56592 0
M  V30 3596 H 479.085 3.57847 -5.23962 0
M  V30 3597 P 480.943 3.65191 -7.99657 0
M  V30 3598 O 482.365 3.89332 -8.45794 0
M  V30 3599 O 480.583 2.28472 -7.50807 0
M  V30 3600 O 480.62 4.64972 -6.77611 0
M  V30 3601 C 480.46 6.06319 -7.16352 0
M  V30 3602 C 481 6.91731 -6.02299 0
M  V30 3603 O 479.944 6.92449 -5.17064 0
M  V30 3604 C 482.218 6.43627 -5.25174 0
M  V30 3605 O 482.956 7.43686 -4.60469 0
M  V30 3606 C 481.549 5.40275 -4.31916 0
M  V30 3607 O 482.348 5.25279 -3.14438 0
M  V30 3608 C 480.212 6.04847 -4.05327 0
M  V30 3609 H 480.244 6.62195 -3.11261 0
M  V30 3610 H 481.427 4.42556 -4.81383 0
M  V30 3611 H 482.911 5.92458 -5.93643 0
M  V30 3612 H 481.217 7.92655 -6.402 0
M  V30 3613 H 481.027 6.26671 -8.0846 0
M  V30 3614 H 479.397 6.29101 -7.32804 0
M  V30 3615 H 482.036 5.84315 -2.47318 0
M  V30 3616 P 483.893 7.39546 -4.75277 0
M  V30 3617 O 485.315 7.84798 -5.01039 0
M  V30 3618 O 483.533 5.9812 -5.08098 0
M  V30 3619 O 483.57 7.57503 -3.1866 0
M  V30 3620 C 483.41 8.97357 -2.74833 0
M  V30 3621 C 483.95 9.07548 -1.32709 0
M  V30 3622 O 482.894 8.62072 -0.606159 0
M  V30 3623 C 485.168 8.25383 -0.938334 0
M  V30 3624 O 485.906 8.74577 0.146954 0
M  V30 3625 C 484.499 6.8802 -0.712559 0
M  V30 3626 O 485.298 6.1189 0.194655 0
M  V30 3627 C 483.162 7.27966 -0.139777 0
M  V30 3628 H 483.194 7.25354 0.961601 0
M  V30 3629 H 484.377 6.32557 -1.65702 0
M  V30 3630 H 485.861 8.19355 -1.79097 0
M  V30 3631 H 484.167 10.1294 -1.10029 0
M  V30 3632 H 483.977 9.64276 -3.41316 0
M  V30 3633 H 482.347 9.25417 -2.76357 0
M  V30 3634 H 484.986 6.25267 1.07847 0
M  V30 3635 P 486.844 8.791 2.9035e-12 0
M  V30 3636 O 488.265 9.31196 0.027936 0
M  V30 3637 O 486.484 7.77869 -1.04071 0
M  V30 3638 O 486.521 8.09533 1.41463 0
M  V30 3639 C 486.36 9.03587 2.5397 0
M  V30 3640 C 486.901 8.35226 3.79016 0
M  V30 3641 O 485.846 7.57904 4.1503 0
M  V30 3642 C 488.119 7.45087 3.67298 0
M  V30 3643 O 488.857 7.27796 4.85194 0
M  V30 3644 C 487.451 6.17323 3.12027 0
M  V30 3645 O 488.249 5.04496 3.46627 0
M  V30 3646 C 486.113 6.19961 3.81809 0
M  V30 3647 N 485.07 5.71575 2.93223 0
M  V30 3648 C 485.239 5.77362 1.59168 0
M  V30 3649 N 484.212 5.3123 0.911893 0
M  V30 3650 C 483.327 4.91717 1.89588 0
M  V30 3651 C 482.06 4.3114 1.8076 0
M  V30 3652 N 481.461 3.99821 0.632928 0
M  V30 3653 N 481.495 4.06823 3.02898 0
M  V30 3654 C 482.097 4.35062 4.22711 0
M  V30 3655 N 483.274 4.90805 4.35707 0
M  V30 3656 C 483.849 5.16382 3.14469 0
M  V30 3657 H 486.145 5.58142 4.72986 0
M  V30 3658 H 487.328 6.21428 2.0318 0
M  V30 3659 H 488.811 7.86112 2.9231 0
M  V30 3660 H 487.117 9.11171 4.55987 0
M  V30 3661 H 486.927 9.9573 2.34194 0
M  V30 3662 H 485.297 9.2792 2.67832 0
M  V30 3663 H 481.561 4.09052 5.13359 0
M  V30 3664 H 486.139 6.16575 1.12198 0
M  V30 3665 H 480.531 3.55423 0.632085 0
M  V30 3666 H 481.935 4.20317 -0.256712 0
M  V30 3667 H 487.937 4.67628 4.28704 0
M  V30 3668 P 489.795 7.39546 4.75277 0
M  V30 3669 O 491.217 7.81777 5.05738 0
M  V30 3670 O 489.435 7.1065 3.32998 0
M  V30 3671 O 489.472 6.04542 5.56673 0
M  V30 3672 C 489.312 6.22772 7.02095 0
M  V30 3673 C 489.852 4.97725 7.70406 0
M  V30 3674 O 488.796 4.13256 7.58987 0
M  V30 3675 C 491.07 4.28231 7.11815 0
M  V30 3676 O 491.808 3.49945 8.01648 0
M  V30 3677 C 490.401 3.5063 5.96244 0
M  V30 3678 O 491.2 2.36482 5.64681 0
M  V30 3679 C 489.064 3.15122 6.56374 0
M  V30 3680 H 489.096 2.13853 6.99751 0
M  V30 3681 H 490.279 4.13501 5.06559 0
M  V30 3682 H 491.763 5.03285 6.70911 0
M  V30 3683 H 490.069 5.20877 8.75697 0
M  V30 3684 H 489.879 7.11046 7.35349 0
M  V30 3685 H 488.249 6.35815 7.26986 0
M  V30 3686 H 490.888 1.61644 6.13565 0
M  V30 3687 P 492.745 3.65191 7.99657 0
M  V30 3688 O 494.167 3.8425 8.48115 0
M  V30 3689 O 492.385 4.17805 6.64342 0
M  V30 3690 O 492.422 2.07613 7.95143 0
M  V30 3691 C 492.262 1.44328 9.27336 0
M  V30 3692 C 492.802 0.0220036 9.17197 0
M  V30 3693 O 491.746 -0.626867 8.61923 0
M  V30 3694 C 494.02 -0.24586 8.30336 0
M  V30 3695 O 494.758 -1.39011 8.63583 0
M  V30 3696 C 493.351 -0.273849 6.91158 0
M  V30 3697 O 494.15 -1.06348 6.02892 0
M  V30 3698 C 492.014 -0.897649 7.22545 0
M  V30 3699 H 492.046 -1.9841 7.04286 0
M  V30 3700 H 493.229 0.739928 6.497 0
M  V30 3701 H 494.713 0.60668 8.36503 0
M  V30 3702 H 493.019 -0.352479 10.1829 0
M  V30 3703 H 492.829 2.00611 10.0304 0
M  V30 3704 H 491.199 1.41843 9.55327 0
M  V30 3705 H 493.838 -1.95734 6.03555 0
M  V30 3706 P 495.696 -1.25109 8.70152 0
M  V30 3707 O 497.118 -1.35303 9.21419 0
M  V30 3708 O 495.336 -0.0769065 7.84762 0
M  V30 3709 O 495.373 -2.55232 7.81161 0
M  V30 3710 C 495.213 -3.79939 8.58154 0
M  V30 3711 C 495.753 -4.93969 7.72701 0
M  V30 3712 O 494.698 -5.18726 6.91205 0
M  V30 3713 C 496.971 -4.69597 6.85231 0
M  V30 3714 O 497.709 -5.83832 6.51337 0
M  V30 3715 C 496.303 -3.96706 5.66633 0
M  V30 3716 O 497.101 -4.15346 4.49615 0
M  V30 3717 C 494.965 -4.66153 5.59313 0
M  V30 3718 N 493.922 -3.71582 5.24027 0
M  V30 3719 C 493.984 -2.46018 5.67902 0
M  V30 3720 N 492.939 -1.74868 5.24518 0
M  V30 3721 C 492.205 -2.61333 4.54528 0
M  V30 3722 C 490.899 -2.46162 3.95441 0
M  V30 3723 O 490.166 -1.46013 3.94122 0
M  V30 3724 N 490.469 -3.59334 3.34752 0
M  V30 3725 C 491.218 -4.79605 3.3023 0
M  V30 3726 N 490.621 -5.82109 2.6065 0
M  V30 3727 N 492.371 -4.97402 3.8843 0
M  V30 3728 C 492.828 -3.86258 4.50476 0
M  V30 3729 H 494.997 -5.47679 4.85214 0
M  V30 3730 H 496.18 -2.88964 5.86476 0
M  V30 3731 H 497.665 -4.01947 7.36109 0
M  V30 3732 H 495.97 -5.80182 8.37584 0
M  V30 3733 H 495.78 -3.73517 9.52265 0
M  V30 3734 H 494.149 -3.97163 8.80359 0
M  V30 3735 H 489.573 -3.5825 2.90294 0
M  V30 3736 H 494.78 -2.06161 6.30974 0
M  V30 3737 H 489.71 -5.66979 2.15354 0
M  V30 3738 H 491.086 -6.73686 2.54344 0
M  V30 3739 H 496.79 -4.90891 4.01857 0
M  V30 3740 P 498.646 -5.75688 6.64379 0
M  V30 3741 O 500.068 -6.11849 7.01846 0
M  V30 3742 O 498.286 -4.30744 6.56026 0
M  V30 3743 O 498.323 -6.37042 5.19165 0
M  V30 3744 C 498.163 -7.83578 5.16515 0
M  V30 3745 C 498.703 -8.33398 3.83019 0
M  V30 3746 O 497.647 -8.10074 3.01034 0
M  V30 3747 C 499.921 -7.65514 3.2257 0
M  V30 3748 O 500.659 -8.4329 2.32297 0
M  V30 3749 C 499.252 -6.40075 2.62207 0
M  V30 3750 O 500.051 -5.92589 1.53712 0
M  V30 3751 C 497.915 -6.9454 2.18503 0
M  V30 3752 H 497.947 -7.23063 1.12091 0
M  V30 3753 H 499.13 -5.6025 3.37201 0
M  V30 3754 H 500.614 -7.35707 4.02681 0
M  V30 3755 H 498.92 -9.40912 3.9095 0
M  V30 3756 H 498.73 -8.29056 5.99158 0
M  V30 3757 H 497.1 -8.10073 5.25882 0
M  V30 3758 H 499.739 -6.30324 0.726794 0
M  V30 3759 P 501.597 -8.4349 2.47671 0
M  V30 3760 O 503.019 -8.94167 2.5964 0
M  V30 3761 O 501.237 -7.1704 3.19006 0
M  V30 3762 O 501.274 -8.16596 0.923387 0
M  V30 3763 C 501.114 -9.38437 0.108857 0
M  V30 3764 C 501.654 -9.08175 -1.28353 0
M  V30 3765 O 500.598 -8.44229 -1.84713 0
M  V30 3766 C 502.872 -8.18386 -1.42505 0
M  V30 3767 O 503.61 -8.3501 -2.60497 0
M  V30 3768 C 502.203 -6.80225 -1.25468 0
M  V30 3769 O 503.002 -5.81621 -1.91066 0
M  V30 3770 C 500.866 -7.02416 -1.9168 0
M  V30 3771 H 500.898 -6.6888 -2.96621 0
M  V30 3772 H 502.081 -6.53617 -0.192223 0
M  V30 3773 H 503.565 -8.36622 -0.589963 0
M  V30 3774 H 501.871 -10.0291 -1.79807 0
M  V30 3775 H 501.681 -10.2138 0.558219 0
M  V30 3776 H 500.051 -9.6579 0.0444202 0
M  V30 3777 H 502.69 -5.69556 -2.79637 0
M  V30 3778 P 504.547 -8.4349 -2.47671 0
M  V30 3779 O 505.969 -8.92593 -2.65 0
M  V30 3780 O 504.187 -7.7568 -1.19296 0
M  V30 3781 O 504.224 -7.36886 -3.63805 0
M  V30 3782 C 504.064 -7.95349 -4.982 0
M  V30 3783 C 504.604 -6.94612 -5.98974 0
M  V30 3784 O 503.548 -6.10347 -6.11815 0
M  V30 3785 C 505.822 -6.11426 -5.62335 0
M  V30 3786 O 506.56 -5.6162 -6.70584 0
M  V30 3787 C 505.153 -5.04409 -4.73308 0
M  V30 3788 O 505.952 -3.85992 -4.75183 0
M  V30 3789 C 503.816 -4.8728 -5.41006 0
M  V30 3790 H 503.848 -4.02333 -6.11157 0
M  V30 3791 H 505.031 -5.39466 -3.69543 0
M  V30 3792 H 506.515 -6.71916 -5.01943 0
M  V30 3793 H 504.821 -7.4649 -6.93477 0
M  V30 3794 H 504.631 -8.89416 -5.05237 0
M  V30 3795 H 503.001 -8.14876 -5.18409 0
M  V30 3796 H 505.64 -3.27957 -5.4317 0
M  V30 3797 P 507.498 -5.75688 -6.64379 0
M  V30 3798 O 508.92 -6.07627 -7.05504 0
M  V30 3799 O 507.138 -5.88047 -5.19722 0
M  V30 3800 O 507.175 -4.2322 -7.04443 0
M  V30 3801 C 507.015 -3.99743 -8.4911 0
M  V30 3802 C 507.555 -2.60516 -8.79425 0
M  V30 3803 O 506.499 -1.82684 -8.4467 0
M  V30 3804 C 508.773 -2.10343 -8.03628 0
M  V30 3805 O 509.511 -1.09919 -8.67766 0
M  V30 3806 C 508.104 -1.68446 -6.70876 0
M  V30 3807 O 508.903 -0.678137 -6.08433 0
M  V30 3808 C 506.767 -1.17436 -7.18567 0
M  V30 3809 H 506.799 -0.0804732 -7.31656 0
M  V30 3810 H 507.982 -2.54037 -6.02537 0
M  V30 3811 H 509.466 -2.93881 -7.85526 0
M  V30 3812 H 507.772 -2.53065 -9.86973 0
M  V30 3813 H 507.582 -4.75072 -9.05887 0
M  V30 3814 H 505.952 -4.05244 -8.76668 0
M  V30 3815 H 508.591 0.177647 -6.34251 0
M  V30 3816 P 510.449 -1.25109 -8.70152 0
M  V30 3817 O 511.871 -1.29744 -9.22016 0
M  V30 3818 O 510.089 -2.13714 -7.55141 0
M  V30 3819 O 510.126 0.248149 -8.21425 0
M  V30 3820 C 509.966 1.22779 -9.30434 0
M  V30 3821 C 510.506 2.56293 -8.80664 0
M  V30 3822 O 509.45 3.02979 -8.09349 0
M  V30 3823 C 511.724 2.57523 -7.89775 0
M  V30 3824 O 512.462 3.7668 -7.89438 0
M  V30 3825 C 511.055 2.20997 -6.55446 0
M  V30 3826 O 511.854 2.71895 -5.48509 0
M  V30 3827 C 509.718 2.89693 -6.67988 0
M  V30 3828 H 509.75 3.88793 -6.19859 0
M  V30 3829 H 510.933 1.12046 -6.44229 0
M  V30 3830 H 512.417 1.7746 -8.19711 0
M  V30 3831 H 510.723 3.20706 -9.67112 0
M  V30 3832 H 510.533 0.901032 -10.1892 0
M  V30 3833 H 508.903 1.33049 -9.56592 0
M  V30 3834 H 511.542 3.57847 -5.23962 0
M  V30 3835 P 513.399 3.65191 -7.99657 0
M  V30 3836 O 514.821 3.89416 -8.45976 0
M  V30 3837 O 513.039 2.28472 -7.50807 0
M  V30 3838 O 513.076 4.64972 -6.77611 0
M  V30 3839 C 512.916 6.06319 -7.16352 0
M  V30 3840 C 513.456 6.91655 -6.02234 0
M  V30 3841 O 512.401 6.92449 -5.17064 0
M  V30 3842 C 514.674 6.43627 -5.25174 0
M  V30 3843 O 515.412 7.43686 -4.60469 0
M  V30 3844 C 514.006 5.40275 -4.31916 0
M  V30 3845 O 514.804 5.25193 -3.14386 0
M  V30 3846 C 512.668 6.04847 -4.05327 0
M  V30 3847 N 511.625 5.04166 -3.98114 0
M  V30 3848 C 511.687 3.96049 -4.75587 0
M  V30 3849 N 510.642 3.15559 -4.54006 0
M  V30 3850 C 509.908 3.78802 -3.62491 0
M  V30 3851 C 508.602 3.476 -3.10071 0
M  V30 3852 O 507.869 2.51136 -3.37021 0
M  V30 3853 N 508.172 4.39088 -2.19956 0
M  V30 3854 C 508.921 5.53215 -1.81733 0
M  V30 3855 N 508.324 6.31963 -0.860928 0
M  V30 3856 N 510.074 5.86688 -2.32562 0
M  V30 3857 C 510.531 4.97525 -3.23407 0
M  V30 3858 H 512.7 6.62195 -3.11261 0
M  V30 3859 H 513.883 4.42488 -4.8131 0
M  V30 3860 H 515.368 5.93051 -5.9305 0
M  V30 3861 H 513.673 7.92655 -6.402 0
M  V30 3862 H 513.483 6.26671 -8.0846 0
M  V30 3863 H 511.852 6.29101 -7.32804 0
M  V30 3864 H 507.276 4.25523 -1.77604 0
M  V30 3865 H 512.483 3.75576 -5.47333 0
M  V30 3866 H 507.413 6.04684 -0.468946 0
M  V30 3867 H 508.789 7.18054 -0.542422 0
M  V30 3868 H 514.493 5.84223 -2.47279 0
M  V30 3869 P 516.35 7.39546 -4.75277 0
M  V30 3870 O 517.772 7.84798 -5.01039 0
M  V30 3871 O 515.99 5.9812 -5.08098 0
M  V30 3872 O 516.027 7.57503 -3.1866 0
M  V30 3873 C 515.867 8.97357 -2.74833 0
M  V30 3874 C 516.407 9.07548 -1.32709 0
M  V30 3875 O 515.351 8.62072 -0.606159 0
M  V30 3876 C 517.625 8.25383 -0.938334 0
M  V30 3877 O 518.363 8.74577 0.146954 0
M  V30 3878 C 516.956 6.8802 -0.712559 0
M  V30 3879 O 517.755 6.1189 0.194655 0
M  V30 3880 C 515.619 7.27966 -0.139777 0
M  V30 3881 H 515.651 7.25354 0.961601 0
M  V30 3882 H 516.834 6.32557 -1.65702 0
M  V30 3883 H 518.318 8.19355 -1.79097 0
M  V30 3884 H 516.624 10.1294 -1.10029 0
M  V30 3885 H 516.434 9.64276 -3.41316 0
M  V30 3886 H 514.804 9.25417 -2.76357 0
M  V30 3887 H 517.443 6.25267 1.07847 0
M  V30 3888 P 519.3 8.791 3.21367e-12 0
M  V30 3889 O 520.722 9.31096 0.027933 0
M  V30 3890 O 518.94 7.77869 -1.04071 0
M  V30 3891 O 518.977 8.09533 1.41463 0
M  V30 3892 C 518.817 9.0349 2.53943 0
M  V30 3893 C 519.357 8.35226 3.79016 0
M  V30 3894 O 518.301 7.57992 4.15078 0
M  V30 3895 C 520.575 7.45087 3.67298 0
M  V30 3896 O 521.313 7.27796 4.85194 0
M  V30 3897 C 519.906 6.17323 3.12027 0
M  V30 3898 O 520.705 5.04231 3.47188 0
M  V30 3899 C 518.569 6.19961 3.81809 0
M  V30 3900 H 518.601 5.58218 4.73051 0
M  V30 3901 H 519.784 6.21726 2.02589 0
M  V30 3902 H 521.268 7.86112 2.9231 0
M  V30 3903 H 519.574 9.11627 4.55076 0
M  V30 3904 H 519.384 9.9573 2.34194 0
M  V30 3905 H 517.754 9.2792 2.67832 0
M  V30 3906 H 520.393 4.67702 4.28772 0
M  V30 3907 P 522.251 7.39546 4.75277 0
M  V30 3908 O 523.673 7.81777 5.05738 0
M  V30 3909 O 521.891 7.1065 3.32998 0
M  V30 3910 O 521.928 6.04542 5.56673 0
M  V30 3911 C 521.768 6.22772 7.02095 0
M  V30 3912 C 522.308 4.97725 7.70406 0
M  V30 3913 O 521.252 4.13256 7.58987 0
M  V30 3914 C 523.526 4.28231 7.11815 0
M  V30 3915 O 524.264 3.49945 8.01648 0
M  V30 3916 C 522.857 3.5063 5.96244 0
M  V30 3917 O 523.656 2.36482 5.64681 0
M  V30 3918 C 521.52 3.15122 6.56374 0
M  V30 3919 H 521.552 2.13853 6.99751 0
M  V30 3920 H 522.735 4.13501 5.06559 0
M  V30 3921 H 524.219 5.03285 6.70911 0
M  V30 3922 H 522.525 5.20877 8.75697 0
M  V30 3923 H 522.335 7.11046 7.35349 0
M  V30 3924 H 520.705 6.35815 7.26986 0
M  V30 3925 H 523.344 1.61644 6.13565 0
M  V30 3926 P 525.201 3.65191 7.99657 0
M  V30 3927 O 526.623 3.8425 8.48115 0
M  V30 3928 O 524.841 4.17805 6.64342 0
M  V30 3929 O 524.878 2.07613 7.95143 0
M  V30 3930 C 524.718 1.44328 9.27336 0
M  V30 3931 C 525.258 0.0220036 9.17197 0
M  V30 3932 O 524.202 -0.626867 8.61923 0
M  V30 3933 C 526.476 -0.24586 8.30336 0
M  V30 3934 O 527.214 -1.39011 8.63583 0
M  V30 3935 C 525.807 -0.273849 6.91158 0
M  V30 3936 O 526.606 -1.06348 6.02892 0
M  V30 3937 C 524.47 -0.897649 7.22545 0
M  V30 3938 H 524.502 -1.9841 7.04286 0
M  V30 3939 H 525.685 0.739928 6.497 0
M  V30 3940 H 527.169 0.60668 8.36503 0
M  V30 3941 H 525.475 -0.352479 10.1829 0
M  V30 3942 H 525.285 2.00611 10.0304 0
M  V30 3943 H 523.655 1.41843 9.55327 0
M  V30 3944 H 526.294 -1.95734 6.03555 0
M  V30 3945 P 528.152 -1.25109 8.70152 0
M  V30 3946 O 529.574 -1.35274 9.21221 0
M  V30 3947 O 527.792 -0.0769065 7.84762 0
M  V30 3948 O 527.829 -2.55232 7.81161 0
M  V30 3949 C 527.669 -3.79939 8.58154 0
M  V30 3950 C 528.209 -4.94023 7.72785 0
M  V30 3951 O 527.153 -5.18726 6.91205 0
M  V30 3952 C 529.427 -4.69597 6.85231 0
M  V30 3953 O 530.165 -5.83832 6.51337 0
M  V30 3954 C 528.758 -3.96706 5.66633 0
M  V30 3955 O 529.557 -4.15414 4.49689 0
M  V30 3956 C 527.421 -4.66153 5.59313 0
M  V30 3957 H 527.453 -5.47679 4.85214 0
M  V30 3958 H 528.636 -2.89008 5.86566 0
M  V30 3959 H 530.12 -4.0121 7.36511 0
M  V30 3960 H 528.426 -5.80182 8.37584 0
M  V30 3961 H 528.236 -3.73517 9.52265 0
M  V30 3962 H 526.606 -3.97163 8.80359 0
M  V30 3963 H 529.245 -4.90969 4.01921 0
M  V30 3964 P 531.103 -5.75688 6.64379 0
M  V30 3965 O 532.525 -6.11849 7.01846 0
M  V30 3966 O 530.743 -4.30744 6.56026 0
M  V30 3967 O 530.78 -6.37042 5.19165 0
M  V30 3968 C 530.62 -7.83578 5.16515 0
M  V30 3969 C 531.16 -8.33398 3.83019 0
M  V30 3970 O 530.104 -8.10074 3.01034 0
M  V30 3971 C 532.378 -7.65514 3.2257 0
M  V30 3972 O 533.116 -8.4329 2.32297 0
M  V30 3973 C 531.709 -6.40075 2.62207 0
M  V30 3974 O 532.508 -5.92589 1.53712 0
M  V30 3975 C 530.372 -6.9454 2.18503 0
M  V30 3976 H 530.404 -7.23063 1.12091 0
M  V30 3977 H 531.587 -5.6025 3.37201 0
M  V30 3978 H 533.071 -7.35707 4.02681 0
M  V30 3979 H 531.377 -9.40912 3.9095 0
M  V30 3980 H 531.187 -8.29056 5.99158 0
M  V30 3981 H 529.557 -8.10073 5.25882 0
M  V30 3982 H 532.196 -6.30324 0.726794 0
M  V30 3983 P 534.053 -8.4349 2.47671 0
M  V30 3984 O 535.475 -8.94167 2.5964 0
M  V30 3985 O 533.693 -7.1704 3.19006 0
M  V30 3986 O 533.73 -8.16596 0.923387 0
M  V30 3987 C 533.57 -9.38437 0.108857 0
M  V30 3988 C 534.11 -9.08175 -1.28353 0
M  V30 3989 O 533.054 -8.44229 -1.84713 0
M  V30 3990 C 535.328 -8.18386 -1.42505 0
M  V30 3991 O 536.066 -8.3501 -2.60497 0
M  V30 3992 C 534.659 -6.80225 -1.25468 0
M  V30 3993 O 535.458 -5.81621 -1.91066 0
M  V30 3994 C 533.322 -7.02416 -1.9168 0
M  V30 3995 H 533.354 -6.6888 -2.96621 0
M  V30 3996 H 534.537 -6.53617 -0.192223 0
M  V30 3997 H 536.021 -8.36622 -0.589963 0
M  V30 3998 H 534.327 -10.0291 -1.79807 0
M  V30 3999 H 534.137 -10.2138 0.558219 0
M  V30 4000 H 532.507 -9.6579 0.0444202 0
M  V30 4001 H 535.146 -5.69556 -2.79637 0
M  V30 4002 P 537.004 -8.4349 -2.47671 0
M  V30 4003 O 538.426 -8.92593 -2.65 0
M  V30 4004 O 536.644 -7.7568 -1.19296 0
M  V30 4005 O 536.681 -7.36886 -3.63805 0
M  V30 4006 C 536.521 -7.95349 -4.982 0
M  V30 4007 C 537.061 -6.94612 -5.98974 0
M  V30 4008 O 536.005 -6.10347 -6.11815 0
M  V30 4009 C 538.279 -6.11426 -5.62335 0
M  V30 4010 O 539.017 -5.6162 -6.70584 0
M  V30 4011 C 537.61 -5.04409 -4.73308 0
M  V30 4012 O 538.409 -3.85992 -4.75183 0
M  V30 4013 C 536.273 -4.8728 -5.41006 0
M  V30 4014 H 536.305 -4.02333 -6.11157 0
M  V30 4015 H 537.488 -5.39466 -3.69543 0
M  V30 4016 H 538.972 -6.71916 -5.01943 0
M  V30 4017 H 537.278 -7.4649 -6.93477 0
M  V30 4018 H 537.088 -8.89416 -5.05237 0
M  V30 4019 H 535.458 -8.14876 -5.18409 0
M  V30 4020 H 538.097 -3.27957 -5.4317 0
M  V30 4021 P 539.954 -5.75688 -6.64379 0
M  V30 4022 O 541.376 -6.07627 -7.05504 0
M  V30 4023 O 539.594 -5.88047 -5.19722 0
M  V30 4024 O 539.631 -4.2322 -7.04443 0
M  V30 4025 C 539.471 -3.99743 -8.4911 0
M  V30 4026 C 540.011 -2.60516 -8.79425 0
M  V30 4027 O 538.955 -1.82684 -8.4467 0
M  V30 4028 C 541.229 -2.10343 -8.03628 0
M  V30 4029 O 541.967 -1.09919 -8.67766 0
M  V30 4030 C 540.56 -1.68446 -6.70876 0
M  V30 4031 O 541.359 -0.678137 -6.08433 0
M  V30 4032 C 539.223 -1.17436 -7.18567 0
M  V30 4033 H 539.255 -0.0804732 -7.31656 0
M  V30 4034 H 540.438 -2.54037 -6.02537 0
M  V30 4035 H 541.922 -2.93881 -7.85526 0
M  V30 4036 H 540.228 -2.53065 -9.86973 0
M  V30 4037 H 540.038 -4.75072 -9.05887 0
M  V30 4038 H 538.408 -4.05244 -8.76668 0
M  V30 4039 H 541.047 0.177647 -6.34251 0
M  V30 4040 P 542.905 -1.25109 -8.70152 0
M  V30 4041 O 544.327 -1.29744 -9.22016 0
M  V30 4042 O 542.545 -2.13714 -7.55141 0
M  V30 4043 O 542.582 0.248149 -8.21425 0
M  V30 4044 C 542.422 1.22779 -9.30434 0
M  V30 4045 C 542.962 2.56293 -8.80664 0
M  V30 4046 O 541.906 3.02979 -8.09349 0
M  V30 4047 C 544.18 2.57523 -7.89775 0
M  V30 4048 O 544.918 3.7668 -7.89438 0
M  V30 4049 C 543.511 2.20997 -6.55446 0
M  V30 4050 O 544.31 2.71895 -5.48509 0
M  V30 4051 C 542.174 2.89693 -6.67988 0
M  V30 4052 H 542.206 3.88793 -6.19859 0
M  V30 4053 H 543.389 1.12046 -6.44229 0
M  V30 4054 H 544.873 1.7746 -8.19711 0
M  V30 4055 H 543.179 3.20706 -9.67112 0
M  V30 4056 H 542.989 0.901032 -10.1892 0
M  V30 4057 H 541.359 1.33049 -9.56592 0
M  V30 4058 H 543.998 3.57847 -5.23962 0
M  V30 4059 P 545.855 3.65191 -7.99657 0
M  V30 4060 O 547.277 3.89332 -8.45794 0
M  V30 4061 O 545.495 2.28472 -7.50807 0
M  V30 4062 O 545.532 4.64972 -6.77611 0
M  V30 4063 C 545.372 6.06319 -7.16352 0
M  V30 4064 C 545.912 6.91731 -6.02299 0
M  V30 4065 O 544.856 6.92449 -5.17064 0
M  V30 4066 C 547.13 6.43627 -5.25174 0
M  V30 4067 O 547.868 7.43686 -4.60469 0
M  V30 4068 C 546.461 5.40275 -4.31916 0
M  V30 4069 O 547.26 5.25279 -3.14438 0
M  V30 4070 C 545.124 6.04847 -4.05327 0
M  V30 4071 H 545.156 6.62195 -3.11261 0
M  V30 4072 H 546.339 4.42556 -4.81383 0
M  V30 4073 H 547.823 5.92458 -5.93643 0
M  V30 4074 H 546.129 7.92655 -6.402 0
M  V30 4075 H 545.939 6.26671 -8.0846 0
M  V30 4076 H 544.309 6.29101 -7.32804 0
M  V30 4077 H 546.948 5.84315 -2.47318 0
M  V30 4078 P 548.806 7.39546 -4.75277 0
M  V30 4079 O 550.228 7.84798 -5.01039 0
M  V30 4080 O 548.446 5.9812 -5.08098 0
M  V30 4081 O 548.483 7.57503 -3.1866 0
M  V30 4082 C 548.323 8.97357 -2.74833 0
M  V30 4083 C 548.863 9.07548 -1.32709 0
M  V30 4084 O 547.807 8.62072 -0.606159 0
M  V30 4085 C 550.081 8.25383 -0.938334 0
M  V30 4086 O 550.819 8.74577 0.146954 0
M  V30 4087 C 549.412 6.8802 -0.712559 0
M  V30 4088 O 550.211 6.1189 0.194655 0
M  V30 4089 C 548.075 7.27966 -0.139777 0
M  V30 4090 H 548.107 7.25354 0.961601 0
M  V30 4091 H 549.29 6.32557 -1.65702 0
M  V30 4092 H 550.774 8.19355 -1.79097 0
M  V30 4093 H 549.08 10.1294 -1.10029 0
M  V30 4094 H 548.89 9.64276 -3.41316 0
M  V30 4095 H 547.26 9.25417 -2.76357 0
M  V30 4096 H 549.899 6.25267 1.07847 0
M  V30 4097 P 551.757 8.791 3.52383e-12 0
M  V30 4098 O 553.179 9.31096 0.027933 0
M  V30 4099 O 551.397 7.77869 -1.04071 0
M  V30 4100 O 551.434 8.09533 1.41463 0
M  V30 4101 C 551.274 9.0349 2.53943 0
M  V30 4102 C 551.814 8.35226 3.79016 0
M  V30 4103 O 550.758 7.57992 4.15078 0
M  V30 4104 C 553.032 7.45087 3.67298 0
M  V30 4105 O 553.77 7.27796 4.85194 0
M  V30 4106 C 552.363 6.17323 3.12027 0
M  V30 4107 O 553.162 5.04231 3.47188 0
M  V30 4108 C 551.026 6.19961 3.81809 0
M  V30 4109 H 551.058 5.58218 4.73051 0
M  V30 4110 H 552.241 6.21726 2.02589 0
M  V30 4111 H 553.725 7.86112 2.9231 0
M  V30 4112 H 552.031 9.11627 4.55076 0
M  V30 4113 H 551.841 9.9573 2.34194 0
M  V30 4114 H 550.211 9.2792 2.67832 0
M  V30 4115 H 552.85 4.67702 4.28772 0
M  V30 4116 P 554.707 7.39546 4.75277 0
M  V30 4117 O 556.129 7.81777 5.05738 0
M  V30 4118 O 554.347 7.1065 3.32998 0
M  V30 4119 O 554.384 6.04542 5.56673 0
M  V30 4120 C 554.224 6.22772 7.02095 0
M  V30 4121 C 554.764 4.97725 7.70406 0
M  V30 4122 O 553.708 4.13256 7.58987 0
M  V30 4123 C 555.982 4.28231 7.11815 0
M  V30 4124 O 556.72 3.49945 8.01648 0
M  V30 4125 C 555.313 3.5063 5.96244 0
M  V30 4126 O 556.112 2.36482 5.64681 0
M  V30 4127 C 553.976 3.15122 6.56374 0
M  V30 4128 H 554.008 2.13853 6.99751 0
M  V30 4129 H 555.191 4.13501 5.06559 0
M  V30 4130 H 556.675 5.03285 6.70911 0
M  V30 4131 H 554.981 5.20877 8.75697 0
M  V30 4132 H 554.791 7.11046 7.35349 0
M  V30 4133 H 553.161 6.35815 7.26986 0
M  V30 4134 H 555.8 1.61644 6.13565 0
M  V30 4135 P 557.658 3.65191 7.99657 0
M  V30 4136 O 559.079 3.84292 8.48206 0
M  V30 4137 O 557.298 4.17805 6.64342 0
M  V30 4138 O 557.335 2.07613 7.95143 0
M  V30 4139 C 557.174 1.44344 9.27435 0
M  V30 4140 C 557.715 0.0220036 9.17197 0
M  V30 4141 O 556.66 -0.626794 8.61824 0
M  V30 4142 C 558.933 -0.24586 8.30336 0
M  V30 4143 O 559.671 -1.39011 8.63583 0
M  V30 4144 C 558.265 -0.273849 6.91158 0
M  V30 4145 O 559.063 -1.05728 6.029 0
M  V30 4146 C 556.927 -0.897649 7.22545 0
M  V30 4147 N 555.884 -0.292839 6.41732 0
M  V30 4148 C 556.053 0.950603 5.91308 0
M  V30 4149 N 555.026 1.37732 5.21105 0
M  V30 4150 C 554.141 0.318109 5.26039 0
M  V30 4151 C 552.874 0.146766 4.6727 0
M  V30 4152 N 552.275 1.08519 3.89983 0
M  V30 4153 N 552.309 -1.06525 4.95887 0
M  V30 4154 C 552.911 -2.0378 5.71347 0
M  V30 4155 N 554.088 -1.92445 6.27451 0
M  V30 4156 C 554.663 -0.715382 6.00353 0
M  V30 4157 H 556.959 -1.98383 7.04189 0
M  V30 4158 H 558.142 0.733318 6.49674 0
M  V30 4159 H 559.625 0.60668 8.36503 0
M  V30 4160 H 557.931 -0.362662 10.1825 0
M  V30 4161 H 557.741 2.00611 10.0304 0
M  V30 4162 H 556.111 1.41843 9.55327 0
M  V30 4163 H 552.375 -2.97041 5.85344 0
M  V30 4164 H 556.953 1.54076 6.07465 0
M  V30 4165 H 551.345 0.901517 3.49562 0
M  V30 4166 H 552.749 1.97957 3.71669 0
M  V30 4167 H 558.751 -1.95704 6.0346 0
M  V30 4168 P 560.608 -1.25109 8.70152 0
M  V30 4169 O 562.03 -1.35274 9.21221 0
M  V30 4170 O 560.248 -0.0769065 7.84762 0
M  V30 4171 O 560.285 -2.55232 7.81161 0
M  V30 4172 C 560.125 -3.79939 8.58154 0
M  V30 4173 C 560.665 -4.94023 7.72785 0
M  V30 4174 O 559.609 -5.18726 6.91205 0
M  V30 4175 C 561.883 -4.69597 6.85231 0
M  V30 4176 O 562.621 -5.83832 6.51337 0
M  V30 4177 C 561.214 -3.96706 5.66633 0
M  V30 4178 O 562.013 -4.15414 4.49689 0
M  V30 4179 C 559.877 -4.66153 5.59313 0
M  V30 4180 H 559.909 -5.47679 4.85214 0
M  V30 4181 H 561.092 -2.89008 5.86566 0
M  V30 4182 H 562.576 -4.0121 7.36511 0
M  V30 4183 H 560.882 -5.80182 8.37584 0
M  V30 4184 H 560.692 -3.73517 9.52265 0
M  V30 4185 H 559.062 -3.97163 8.80359 0
M  V30 4186 H 561.701 -4.90969 4.01921 0
M  V30 4187 P 563.559 -5.75688 6.64379 0
M  V30 4188 O 564.981 -6.11849 7.01846 0
M  V30 4189 O 563.199 -4.30744 6.56026 0
M  V30 4190 O 563.236 -6.37042 5.19165 0
M  V30 4191 C 563.076 -7.83578 5.16515 0
M  V30 4192 C 563.616 -8.33398 3.83019 0
M  V30 4193 O 562.56 -8.10074 3.01034 0
M  V30 4194 C 564.834 -7.65514 3.2257 0
M  V30 4195 O 565.572 -8.4329 2.32297 0
M  V30 4196 C 564.165 -6.40075 2.62207 0
M  V30 4197 O 564.964 -5.92589 1.53712 0
M  V30 4198 C 562.828 -6.9454 2.18503 0
M  V30 4199 H 562.86 -7.23063 1.12091 0
M  V30 4200 H 564.043 -5.6025 3.37201 0
M  V30 4201 H 565.527 -7.35707 4.02681 0
M  V30 4202 H 563.833 -9.40912 3.9095 0
M  V30 4203 H 563.643 -8.29056 5.99158 0
M  V30 4204 H 562.013 -8.10073 5.25882 0
M  V30 4205 H 564.652 -6.30324 0.726794 0
M  V30 4206 P 566.509 -8.4349 2.47671 0
M  V30 4207 O 567.931 -8.94167 2.5964 0
M  V30 4208 O 566.149 -7.1704 3.19006 0
M  V30 4209 O 566.186 -8.16596 0.923387 0
M  V30 4210 C 566.026 -9.38437 0.108857 0
M  V30 4211 C 566.566 -9.08175 -1.28353 0
M  V30 4212 O 565.51 -8.44229 -1.84713 0
M  V30 4213 C 567.784 -8.18386 -1.42505 0
M  V30 4214 O 568.522 -8.3501 -2.60497 0
M  V30 4215 C 567.115 -6.80225 -1.25468 0
M  V30 4216 O 567.914 -5.81621 -1.91066 0
M  V30 4217 C 565.778 -7.02416 -1.9168 0
M  V30 4218 H 565.81 -6.6888 -2.96621 0
M  V30 4219 H 566.993 -6.53617 -0.192223 0
M  V30 4220 H 568.477 -8.36622 -0.589963 0
M  V30 4221 H 566.783 -10.0291 -1.79807 0
M  V30 4222 H 566.593 -10.2138 0.558219 0
M  V30 4223 H 564.963 -9.6579 0.0444202 0
M  V30 4224 H 567.602 -5.69556 -2.79637 0
M  V30 4225 P 569.46 -8.4349 -2.47671 0
M  V30 4226 O 570.882 -8.92593 -2.65 0
M  V30 4227 O 569.1 -7.7568 -1.19296 0
M  V30 4228 O 569.137 -7.36886 -3.63805 0
M  V30 4229 C 568.977 -7.95349 -4.982 0
M  V30 4230 C 569.517 -6.94612 -5.98974 0
M  V30 4231 O 568.461 -6.10347 -6.11815 0
M  V30 4232 C 570.735 -6.11426 -5.62335 0
M  V30 4233 O 571.473 -5.6162 -6.70584 0
M  V30 4234 C 570.066 -5.04409 -4.73308 0
M  V30 4235 O 570.865 -3.85992 -4.75183 0
M  V30 4236 C 568.729 -4.8728 -5.41006 0
M  V30 4237 H 568.761 -4.02333 -6.11157 0
M  V30 4238 H 569.944 -5.39466 -3.69543 0
M  V30 4239 H 571.428 -6.71916 -5.01943 0
M  V30 4240 H 569.734 -7.4649 -6.93477 0
M  V30 4241 H 569.544 -8.89416 -5.05237 0
M  V30 4242 H 567.914 -8.14876 -5.18409 0
M  V30 4243 H 570.553 -3.27957 -5.4317 0
M  V30 4244 P 572.411 -5.75688 -6.64379 0
M  V30 4245 O 573.832 -6.07692 -7.0558 0
M  V30 4246 O 572.051 -5.88047 -5.19722 0
M  V30 4247 O 572.088 -4.2322 -7.04443 0
M  V30 4248 C 571.927 -3.99785 -8.49201 0
M  V30 4249 C 572.468 -2.60516 -8.79425 0
M  V30 4250 O 571.413 -1.82663 -8.44573 0
M  V30 4251 C 573.686 -2.10343 -8.03628 0
M  V30 4252 O 574.424 -1.09919 -8.67766 0
M  V30 4253 C 573.018 -1.68446 -6.70876 0
M  V30 4254 O 573.816 -0.684109 -6.08265 0
M  V30 4255 C 571.68 -1.17436 -7.18567 0
M  V30 4256 N 570.637 -1.52699 -6.23988 0
M  V30 4257 C 570.806 -2.578 -5.40574 0
M  V30 4258 N 569.779 -2.78966 -4.61193 0
M  V30 4259 C 568.894 -1.78725 -4.95769 0
M  V30 4260 C 567.627 -1.45727 -4.44207 0
M  V30 4261 N 567.028 -2.13994 -3.43613 0
M  V30 4262 N 567.062 -0.374977 -5.05812 0
M  V30 4263 C 567.664 0.345585 -6.05615 0
M  V30 4264 N 568.841 0.0787651 -6.56253 0
M  V30 4265 C 569.416 -1.00499 -5.96189 0
M  V30 4266 H 571.712 -0.0804622 -7.31556 0
M  V30 4267 H 572.895 -2.53396 -6.02698 0
M  V30 4268 H 574.378 -2.93881 -7.85526 0
M  V30 4269 H 572.684 -2.52078 -9.87225 0
M  V30 4270 H 572.494 -4.75072 -9.05887 0
M  V30 4271 H 570.864 -4.05244 -8.76668 0
M  V30 4272 H 567.128 1.20098 -6.4532 0
M  V30 4273 H 571.706 -3.18977 -5.3945 0
M  V30 4274 H 566.098 -1.84983 -3.10004 0
M  V30 4275 H 567.502 -2.9465 -3.00843 0
M  V30 4276 H 573.504 0.177619 -6.34151 0
M  V30 4277 P 575.361 -1.25109 -8.70152 0
M  V30 4278 O 576.783 -1.29744 -9.22016 0
M  V30 4279 O 575.001 -2.13714 -7.55141 0
M  V30 4280 O 575.038 0.248149 -8.21425 0
M  V30 4281 C 574.878 1.22779 -9.30434 0
M  V30 4282 C 575.418 2.56293 -8.80664 0
M  V30 4283 O 574.362 3.02979 -8.09349 0
M  V30 4284 C 576.636 2.57523 -7.89775 0
M  V30 4285 O 577.374 3.7668 -7.89438 0
M  V30 4286 C 575.967 2.20997 -6.55446 0
M  V30 4287 O 576.766 2.71895 -5.48509 0
M  V30 4288 C 574.63 2.89693 -6.67988 0
M  V30 4289 H 574.662 3.88793 -6.19859 0
M  V30 4290 H 575.845 1.12046 -6.44229 0
M  V30 4291 H 577.329 1.7746 -8.19711 0
M  V30 4292 H 575.635 3.20706 -9.67112 0
M  V30 4293 H 575.445 0.901032 -10.1892 0
M  V30 4294 H 573.815 1.33049 -9.56592 0
M  V30 4295 H 576.454 3.57847 -5.23962 0
M  V30 4296 P 578.312 3.65191 -7.99657 0
M  V30 4297 O 579.734 3.89332 -8.45794 0
M  V30 4298 O 577.952 2.28472 -7.50807 0
M  V30 4299 O 577.989 4.64972 -6.77611 0
M  V30 4300 C 577.829 6.06319 -7.16352 0
M  V30 4301 C 578.369 6.91731 -6.02299 0
M  V30 4302 O 577.313 6.92449 -5.17064 0
M  V30 4303 C 579.587 6.43627 -5.25174 0
M  V30 4304 O 580.325 7.43686 -4.60469 0
M  V30 4305 C 578.918 5.40275 -4.31916 0
M  V30 4306 O 579.717 5.25279 -3.14438 0
M  V30 4307 C 577.581 6.04847 -4.05327 0
M  V30 4308 H 577.613 6.62195 -3.11261 0
M  V30 4309 H 578.796 4.42556 -4.81383 0
M  V30 4310 H 580.28 5.92458 -5.93643 0
M  V30 4311 H 578.586 7.92655 -6.402 0
M  V30 4312 H 578.396 6.26671 -8.0846 0
M  V30 4313 H 576.766 6.29101 -7.32804 0
M  V30 4314 H 579.405 5.84315 -2.47318 0
M  V30 4315 P 581.262 7.39546 -4.75277 0
M  V30 4316 O 582.684 7.84798 -5.01039 0
M  V30 4317 O 580.902 5.9812 -5.08098 0
M  V30 4318 O 580.939 7.57503 -3.1866 0
M  V30 4319 C 580.779 8.97357 -2.74833 0
M  V30 4320 C 581.319 9.07548 -1.32709 0
M  V30 4321 O 580.263 8.62072 -0.606159 0
M  V30 4322 C 582.537 8.25383 -0.938334 0
M  V30 4323 O 583.275 8.74577 0.146954 0
M  V30 4324 C 581.868 6.8802 -0.712559 0
M  V30 4325 O 582.667 6.1189 0.194655 0
M  V30 4326 C 580.531 7.27966 -0.139777 0
M  V30 4327 H 580.563 7.25354 0.961601 0
M  V30 4328 H 581.746 6.32557 -1.65702 0
M  V30 4329 H 583.23 8.19355 -1.79097 0
M  V30 4330 H 581.536 10.1294 -1.10029 0
M  V30 4331 H 581.346 9.64276 -3.41316 0
M  V30 4332 H 579.716 9.25417 -2.76357 0
M  V30 4333 H 582.355 6.25267 1.07847 0
M  V30 4334 P 584.213 8.791 3.834e-12 0
M  V30 4335 O 585.635 9.31096 0.027933 0
M  V30 4336 O 583.853 7.77869 -1.04071 0
M  V30 4337 O 583.89 8.09533 1.41463 0
M  V30 4338 C 583.73 9.0349 2.53943 0
M  V30 4339 C 584.27 8.35226 3.79016 0
M  V30 4340 O 583.214 7.57992 4.15078 0
M  V30 4341 C 585.488 7.45087 3.67298 0
M  V30 4342 O 586.226 7.27796 4.85194 0
M  V30 4343 C 584.819 6.17323 3.12027 0
M  V30 4344 O 585.618 5.04231 3.47188 0
M  V30 4345 C 583.482 6.19961 3.81809 0
M  V30 4346 H 583.514 5.58218 4.73051 0
M  V30 4347 H 584.697 6.21726 2.02589 0
M  V30 4348 H 586.181 7.86112 2.9231 0
M  V30 4349 H 584.487 9.11627 4.55076 0
M  V30 4350 H 584.297 9.9573 2.34194 0
M  V30 4351 H 582.667 9.2792 2.67832 0
M  V30 4352 H 585.306 4.67702 4.28772 0
M  V30 4353 P 587.163 7.39546 4.75277 0
M  V30 4354 O 588.585 7.81777 5.05738 0
M  V30 4355 O 586.803 7.1065 3.32998 0
M  V30 4356 O 586.84 6.04542 5.56673 0
M  V30 4357 C 586.68 6.22772 7.02095 0
M  V30 4358 C 587.22 4.97725 7.70406 0
M  V30 4359 O 586.164 4.13256 7.58987 0
M  V30 4360 C 588.438 4.28231 7.11815 0
M  V30 4361 O 589.176 3.49945 8.01648 0
M  V30 4362 C 587.769 3.5063 5.96244 0
M  V30 4363 O 588.568 2.36482 5.64681 0
M  V30 4364 C 586.432 3.15122 6.56374 0
M  V30 4365 H 586.464 2.13853 6.99751 0
M  V30 4366 H 587.647 4.13501 5.06559 0
M  V30 4367 H 589.131 5.03285 6.70911 0
M  V30 4368 H 587.437 5.20877 8.75697 0
M  V30 4369 H 587.247 7.11046 7.35349 0
M  V30 4370 H 585.617 6.35815 7.26986 0
M  V30 4371 H 588.256 1.61644 6.13565 0
M  V30 4372 P 590.114 3.65191 7.99657 0
M  V30 4373 O 591.536 3.8425 8.48115 0
M  V30 4374 O 589.754 4.17805 6.64342 0
M  V30 4375 O 589.791 2.07613 7.95143 0
M  V30 4376 C 589.631 1.44328 9.27336 0
M  V30 4377 C 590.171 0.0220036 9.17197 0
M  V30 4378 O 589.115 -0.626867 8.61923 0
M  V30 4379 C 591.389 -0.24586 8.30336 0
M  V30 4380 O 592.127 -1.39011 8.63583 0
M  V30 4381 C 590.72 -0.273849 6.91158 0
M  V30 4382 O 591.519 -1.06348 6.02892 0
M  V30 4383 C 589.383 -0.897649 7.22545 0
M  V30 4384 H 589.415 -1.9841 7.04286 0
M  V30 4385 H 590.598 0.739928 6.497 0
M  V30 4386 H 592.082 0.60668 8.36503 0
M  V30 4387 H 590.388 -0.352479 10.1829 0
M  V30 4388 H 590.198 2.00611 10.0304 0
M  V30 4389 H 588.568 1.41843 9.55327 0
M  V30 4390 H 591.207 -1.95734 6.03555 0
M  V30 4391 P 593.065 -1.25109 8.70152 0
M  V30 4392 O 594.487 -1.35274 9.21221 0
M  V30 4393 O 592.705 -0.0769065 7.84762 0
M  V30 4394 O 592.742 -2.55232 7.81161 0
M  V30 4395 C 592.582 -3.79939 8.58154 0
M  V30 4396 C 593.122 -4.94023 7.72785 0
M  V30 4397 O 592.066 -5.18726 6.91205 0
M  V30 4398 C 594.34 -4.69597 6.85231 0
M  V30 4399 O 595.078 -5.83832 6.51337 0
M  V30 4400 C 593.671 -3.96706 5.66633 0
M  V30 4401 O 594.47 -4.15414 4.49689 0
M  V30 4402 C 592.334 -4.66153 5.59313 0
M  V30 4403 H 592.366 -5.47679 4.85214 0
M  V30 4404 H 593.549 -2.89008 5.86566 0
M  V30 4405 H 595.033 -4.0121 7.36511 0
M  V30 4406 H 593.339 -5.80182 8.37584 0
M  V30 4407 H 593.149 -3.73517 9.52265 0
M  V30 4408 H 591.519 -3.97163 8.80359 0
M  V30 4409 H 594.158 -4.90969 4.01921 0
M  V30 4410 P 596.015 -5.75688 6.64379 0
M  V30 4411 O 597.437 -6.11849 7.01846 0
M  V30 4412 O 595.655 -4.30744 6.56026 0
M  V30 4413 O 595.692 -6.37042 5.19165 0
M  V30 4414 C 595.532 -7.83578 5.16515 0
M  V30 4415 C 596.072 -8.33398 3.83019 0
M  V30 4416 O 595.016 -8.10074 3.01034 0
M  V30 4417 C 597.29 -7.65514 3.2257 0
M  V30 4418 O 598.028 -8.4329 2.32297 0
M  V30 4419 C 596.621 -6.40075 2.62207 0
M  V30 4420 O 597.42 -5.92589 1.53712 0
M  V30 4421 C 595.284 -6.9454 2.18503 0
M  V30 4422 H 595.316 -7.23063 1.12091 0
M  V30 4423 H 596.499 -5.6025 3.37201 0
M  V30 4424 H 597.983 -7.35707 4.02681 0
M  V30 4425 H 596.289 -9.40912 3.9095 0
M  V30 4426 H 596.099 -8.29056 5.99158 0
M  V30 4427 H 594.469 -8.10073 5.25882 0
M  V30 4428 H 597.108 -6.30324 0.726794 0
M  V30 4429 P 598.966 -8.4349 2.47671 0
M  V30 4430 O 600.387 -8.94263 2.59668 0
M  V30 4431 O 598.606 -7.1704 3.19006 0
M  V30 4432 O 598.643 -8.16596 0.923387 0
M  V30 4433 C 598.482 -9.38537 0.108869 0
M  V30 4434 C 599.023 -9.08175 -1.28353 0
M  V30 4435 O 597.968 -8.44131 -1.84692 0
M  V30 4436 C 600.241 -8.18386 -1.42505 0
M  V30 4437 O 600.979 -8.3501 -2.60497 0
M  V30 4438 C 599.573 -6.80225 -1.25468 0
M  V30 4439 O 600.371 -5.81716 -1.90454 0
M  V30 4440 C 598.235 -7.02416 -1.9168 0
M  V30 4441 N 597.192 -6.31033 -1.20314 0
M  V30 4442 C 597.361 -5.98817 0.0994088 0
M  V30 4443 N 596.334 -5.35403 0.621694 0
M  V30 4444 C 595.449 -5.25212 -0.43376 0
M  V30 4445 C 594.182 -4.64602 -0.519722 0
M  V30 4446 N 593.583 -4.01457 0.519136 0
M  V30 4447 N 593.617 -4.7568 -1.76013 0
M  V30 4448 C 594.219 -5.3653 -2.83017 0
M  V30 4449 N 595.396 -5.93676 -2.79782 0
M  V30 4450 C 595.971 -5.84061 -1.56249 0
M  V30 4451 H 598.267 -6.68789 -2.9658 0
M  V30 4452 H 599.45 -6.53498 -0.198729 0
M  V30 4453 H 600.933 -8.36622 -0.589963 0
M  V30 4454 H 599.239 -10.0273 -1.8081 0
M  V30 4455 H 599.049 -10.2138 0.558219 0
M  V30 4456 H 597.419 -9.6579 0.0444202 0
M  V30 4457 H 593.683 -5.37113 -3.77321 0
M  V30 4458 H 598.261 -6.23209 0.660562 0
M  V30 4459 H 592.653 -3.58834 0.394862 0
M  V30 4460 H 594.057 -3.96059 1.43048 0
M  V30 4461 H 600.059 -5.69466 -2.79593 0
M  V30 4462 P 601.916 -8.4349 -2.47671 0
M  V30 4463 O 603.338 -8.92593 -2.65 0
M  V30 4464 O 601.556 -7.7568 -1.19296 0
M  V30 4465 O 601.593 -7.36886 -3.63805 0
M  V30 4466 C 601.433 -7.95349 -4.982 0
M  V30 4467 C 601.973 -6.94612 -5.98974 0
M  V30 4468 O 600.917 -6.10347 -6.11815 0
M  V30 4469 C 603.191 -6.11426 -5.62335 0
M  V30 4470 O 603.929 -5.6162 -6.70584 0
M  V30 4471 C 602.522 -5.04409 -4.73308 0
M  V30 4472 O 603.321 -3.85992 -4.75183 0
M  V30 4473 C 601.185 -4.8728 -5.41006 0
M  V30 4474 H 601.217 -4.02333 -6.11157 0
M  V30 4475 H 602.4 -5.39466 -3.69543 0
M  V30 4476 H 603.884 -6.71916 -5.01943 0
M  V30 4477 H 602.19 -7.4649 -6.93477 0
M  V30 4478 H 602 -8.89416 -5.05237 0
M  V30 4479 H 600.37 -8.14876 -5.18409 0
M  V30 4480 H 603.009 -3.27957 -5.4317 0
M  V30 4481 P 604.867 -5.75688 -6.64379 0
M  V30 4482 O 606.268 -6.14823 -7.06682 0
M  V30 4483 O 604.489 -5.93957 -5.20728 0
M  V30 4484 O 604.544 -4.23169 -7.04357 0
M  V30 4485 C 604.384 -3.99743 -8.4911 0
M  V30 4486 C 604.924 -2.60487 -8.79329 0
M  V30 4487 O 603.868 -1.82663 -8.44573 0
M  V30 4488 C 606.141 -2.10343 -8.03628 0
M  V30 4489 O 606.88 -1.09919 -8.67766 0
M  V30 4490 C 605.474 -1.68446 -6.70876 0
M  V30 4491 O 606.272 -0.678026 -6.08333 0
M  V30 4492 C 604.136 -1.17436 -7.18567 0
M  V30 4493 N 603.093 -1.52699 -6.23988 0
M  V30 4494 C 602.058 -0.643793 -6.05085 0
M  V30 4495 O 602.097 0.459118 -6.64315 0
M  V30 4496 N 601.046 -0.976931 -5.22038 0
M  V30 4497 C 601.094 -2.14429 -4.56662 0
M  V30 4498 C 602.19 -3.04203 -4.71481 0
M  V30 4499 C 603.156 -2.69669 -5.56838 0
M  V30 4500 H 604.168 -0.0804622 -7.31556 0
M  V30 4501 H 605.351 -2.53396 -6.02698 0
M  V30 4502 H 606.835 -2.9313 -7.85914 0
M  V30 4503 H 605.141 -2.52078 -9.87225 0
M  V30 4504 H 604.95 -4.75072 -9.05887 0
M  V30 4505 H 603.32 -4.05202 -8.76577 0
M  V30 4506 H 602.238 -3.97309 -4.15519 0
M  V30 4507 H 604.002 -3.36869 -5.72318 0
M  V30 4508 H 606.056 0.167718 -6.44882 0
M  V30 4509 P 607.817 -1.25109 -8.70152 0
M  V30 4510 O 609.239 -1.29744 -9.22016 0
M  V30 4511 O 607.457 -2.13714 -7.55141 0
M  V30 4512 O 607.494 0.248149 -8.21425 0
M  V30 4513 C 607.334 1.22779 -9.30434 0
M  V30 4514 C 607.874 2.56293 -8.80664 0
M  V30 4515 O 606.818 3.02979 -8.09349 0
M  V30 4516 C 609.092 2.57523 -7.89775 0
M  V30 4517 O 609.83 3.7668 -7.89438 0
M  V30 4518 C 608.423 2.20997 -6.55446 0
M  V30 4519 O 609.222 2.71895 -5.48509 0
M  V30 4520 C 607.086 2.89693 -6.67988 0
M  V30 4521 H 607.118 3.88793 -6.19859 0
M  V30 4522 H 608.301 1.12046 -6.44229 0
M  V30 4523 H 609.785 1.7746 -8.19711 0
M  V30 4524 H 608.091 3.20706 -9.67112 0
M  V30 4525 H 607.901 0.901032 -10.1892 0
M  V30 4526 H 606.271 1.33049 -9.56592 0
M  V30 4527 H 608.91 3.57847 -5.23962 0
M  V30 4528 P 610.768 3.65191 -7.99657 0
M  V30 4529 O 612.189 3.89374 -8.45885 0
M  V30 4530 O 610.408 2.28472 -7.50807 0
M  V30 4531 O 610.445 4.64972 -6.77611 0
M  V30 4532 C 610.284 6.06383 -7.16428 0
M  V30 4533 C 610.825 6.91731 -6.02299 0
M  V30 4534 O 609.77 6.92369 -5.17005 0
M  V30 4535 C 612.043 6.43627 -5.25174 0
M  V30 4536 O 612.781 7.43686 -4.60469 0
M  V30 4537 C 611.375 5.40275 -4.31916 0
M  V30 4538 O 612.173 5.24878 -3.14911 0
M  V30 4539 C 610.037 6.04847 -4.05327 0
M  V30 4540 N 608.994 5.04166 -3.98114 0
M  V30 4541 C 609.163 3.84629 -4.59066 0
M  V30 4542 N 608.136 3.0363 -4.45343 0
M  V30 4543 C 607.251 3.76722 -3.68523 0
M  V30 4544 C 605.984 3.43528 -3.17088 0
M  V30 4545 N 605.385 2.23665 -3.37397 0
M  V30 4546 N 605.419 4.44526 -2.44231 0
M  V30 4547 C 606.021 5.65243 -2.20146 0
M  V30 4548 N 607.198 6.00221 -2.65453 0
M  V30 4549 C 607.773 5.00564 -3.39083 0
M  V30 4550 H 610.069 6.62104 -3.11218 0
M  V30 4551 H 611.252 4.42969 -4.80867 0
M  V30 4552 H 612.735 5.92458 -5.93643 0
M  V30 4553 H 611.041 7.93295 -6.39407 0
M  V30 4554 H 610.851 6.26671 -8.0846 0
M  V30 4555 H 609.221 6.29101 -7.32804 0
M  V30 4556 H 605.485 6.36894 -1.5883 0
M  V30 4557 H 610.063 3.58193 -5.14248 0
M  V30 4558 H 604.455 2.05145 -2.97047 0
M  V30 4559 H 605.859 1.51255 -3.92998 0
M  V30 4560 H 611.861 5.84223 -2.47279 0
M  V30 4561 P 613.719 7.39546 -4.75277 0
M  V30 4562 O 615.141 7.84798 -5.01039 0
M  V30 4563 O 613.359 5.9812 -5.08098 0
M  V30 4564 O 613.396 7.57503 -3.1866 0
M  V30 4565 C 613.236 8.97357 -2.74833 0
M  V30 4566 C 613.776 9.07548 -1.32709 0
M  V30 4567 O 612.72 8.62072 -0.606159 0
M  V30 4568 C 614.994 8.25383 -0.938334 0
M  V30 4569 O 615.732 8.74577 0.146954 0
M  V30 4570 C 614.325 6.8802 -0.712559 0
M  V30 4571 O 615.124 6.1189 0.194655 0
M  V30 4572 C 612.988 7.27966 -0.139777 0
M  V30 4573 H 613.02 7.25354 0.961601 0
M  V30 4574 H 614.203 6.32557 -1.65702 0
M  V30 4575 H 615.687 8.19355 -1.79097 0
M  V30 4576 H 613.993 10.1294 -1.10029 0
M  V30 4577 H 613.803 9.64276 -3.41316 0
M  V30 4578 H 612.173 9.25417 -2.76357 0
M  V30 4579 H 614.812 6.25267 1.07847 0
M  V30 4580 P 616.669 8.791 4.14417e-12 0
M  V30 4581 O 618.091 9.31096 0.027933 0
M  V30 4582 O 616.309 7.77869 -1.04071 0
M  V30 4583 O 616.346 8.09533 1.41463 0
M  V30 4584 C 616.186 9.0349 2.53943 0
M  V30 4585 C 616.726 8.35226 3.79016 0
M  V30 4586 O 615.67 7.57992 4.15078 0
M  V30 4587 C 617.944 7.45087 3.67298 0
M  V30 4588 O 618.682 7.27796 4.85194 0
M  V30 4589 C 617.275 6.17323 3.12027 0
M  V30 4590 O 618.074 5.04231 3.47188 0
M  V30 4591 C 615.938 6.19961 3.81809 0
M  V30 4592 H 615.97 5.58218 4.73051 0
M  V30 4593 H 617.153 6.21726 2.02589 0
M  V30 4594 H 618.637 7.86112 2.9231 0
M  V30 4595 H 616.943 9.11627 4.55076 0
M  V30 4596 H 616.753 9.9573 2.34194 0
M  V30 4597 H 615.123 9.2792 2.67832 0
M  V30 4598 H 617.762 4.67702 4.28772 0
M  V30 4599 P 619.62 7.39546 4.75277 0
M  V30 4600 O 621.042 7.81777 5.05738 0
M  V30 4601 O 619.26 7.1065 3.32998 0
M  V30 4602 O 619.297 6.04542 5.56673 0
M  V30 4603 C 619.137 6.22772 7.02095 0
M  V30 4604 C 619.677 4.97725 7.70406 0
M  V30 4605 O 618.621 4.13256 7.58987 0
M  V30 4606 C 620.895 4.28231 7.11815 0
M  V30 4607 O 621.633 3.49945 8.01648 0
M  V30 4608 C 620.226 3.5063 5.96244 0
M  V30 4609 O 621.025 2.36482 5.64681 0
M  V30 4610 C 618.889 3.15122 6.56374 0
M  V30 4611 H 618.921 2.13853 6.99751 0
M  V30 4612 H 620.104 4.13501 5.06559 0
M  V30 4613 H 621.588 5.03285 6.70911 0
M  V30 4614 H 619.894 5.20877 8.75697 0
M  V30 4615 H 619.704 7.11046 7.35349 0
M  V30 4616 H 618.074 6.35815 7.26986 0
M  V30 4617 H 620.713 1.61644 6.13565 0
M  V30 4618 P 622.57 3.65191 7.99657 0
M  V30 4619 O 623.992 3.8425 8.48115 0
M  V30 4620 O 622.21 4.17805 6.64342 0
M  V30 4621 O 622.247 2.07613 7.95143 0
M  V30 4622 C 622.087 1.44328 9.27336 0
M  V30 4623 C 622.627 0.0220036 9.17197 0
M  V30 4624 O 621.571 -0.626867 8.61923 0
M  V30 4625 C 623.845 -0.24586 8.30336 0
M  V30 4626 O 624.583 -1.39011 8.63583 0
M  V30 4627 C 623.176 -0.273849 6.91158 0
M  V30 4628 O 623.975 -1.06348 6.02892 0
M  V30 4629 C 621.839 -0.897649 7.22545 0
M  V30 4630 H 621.871 -1.9841 7.04286 0
M  V30 4631 H 623.054 0.739928 6.497 0
M  V30 4632 H 624.538 0.60668 8.36503 0
M  V30 4633 H 622.844 -0.352479 10.1829 0
M  V30 4634 H 622.654 2.00611 10.0304 0
M  V30 4635 H 621.024 1.41843 9.55327 0
M  V30 4636 H 623.663 -1.95734 6.03555 0
M  V30 4637 P 625.521 -1.25109 8.70152 0
M  V30 4638 O 626.943 -1.35274 9.21221 0
M  V30 4639 O 625.161 -0.0769065 7.84762 0
M  V30 4640 O 625.198 -2.55232 7.81161 0
M  V30 4641 C 625.038 -3.79939 8.58154 0
M  V30 4642 C 625.578 -4.94023 7.72785 0
M  V30 4643 O 624.522 -5.18726 6.91205 0
M  V30 4644 C 626.796 -4.69597 6.85231 0
M  V30 4645 O 627.534 -5.83832 6.51337 0
M  V30 4646 C 626.127 -3.96706 5.66633 0
M  V30 4647 O 626.926 -4.15414 4.49689 0
M  V30 4648 C 624.79 -4.66153 5.59313 0
M  V30 4649 H 624.822 -5.47679 4.85214 0
M  V30 4650 H 626.005 -2.89008 5.86566 0
M  V30 4651 H 627.489 -4.0121 7.36511 0
M  V30 4652 H 625.795 -5.80182 8.37584 0
M  V30 4653 H 625.605 -3.73517 9.52265 0
M  V30 4654 H 623.975 -3.97163 8.80359 0
M  V30 4655 H 626.614 -4.90969 4.01921 0
M  V30 4656 P 628.471 -5.75688 6.64379 0
M  V30 4657 O 629.893 -6.11849 7.01846 0
M  V30 4658 O 628.111 -4.30744 6.56026 0
M  V30 4659 O 628.148 -6.37042 5.19165 0
M  V30 4660 C 627.988 -7.83578 5.16515 0
M  V30 4661 C 628.528 -8.33398 3.83019 0
M  V30 4662 O 627.472 -8.10074 3.01034 0
M  V30 4663 C 629.746 -7.65514 3.2257 0
M  V30 4664 O 630.484 -8.4329 2.32297 0
M  V30 4665 C 629.077 -6.40075 2.62207 0
M  V30 4666 O 629.876 -5.92589 1.53712 0
M  V30 4667 C 627.74 -6.9454 2.18503 0
M  V30 4668 H 627.772 -7.23063 1.12091 0
M  V30 4669 H 628.955 -5.6025 3.37201 0
M  V30 4670 H 630.439 -7.35707 4.02681 0
M  V30 4671 H 628.745 -9.40912 3.9095 0
M  V30 4672 H 628.555 -8.29056 5.99158 0
M  V30 4673 H 626.925 -8.10073 5.25882 0
M  V30 4674 H 629.564 -6.30324 0.726794 0
M  V30 4675 P 631.422 -8.4349 2.47671 0
M  V30 4676 O 632.844 -8.94359 2.59696 0
M  V30 4677 O 631.062 -7.1704 3.19006 0
M  V30 4678 O 631.099 -8.16596 0.923387 0
M  V30 4679 C 630.939 -9.38437 0.108857 0
M  V30 4680 C 631.479 -9.08076 -1.28339 0
M  V30 4681 O 630.424 -8.44229 -1.84713 0
M  V30 4682 C 632.697 -8.18386 -1.42505 0
M  V30 4683 O 633.435 -8.3501 -2.60497 0
M  V30 4684 C 632.029 -6.80225 -1.25468 0
M  V30 4685 O 632.827 -5.81526 -1.91035 0
M  V30 4686 C 630.691 -7.02416 -1.9168 0
M  V30 4687 N 629.648 -6.31033 -1.20314 0
M  V30 4688 C 629.71 -6.18781 0.121293 0
M  V30 4689 N 628.665 -5.49762 0.588272 0
M  V30 4690 C 627.931 -5.22015 -0.488988 0
M  V30 4691 C 626.625 -4.61966 -0.596448 0
M  V30 4692 O 625.892 -4.19162 0.309059 0
M  V30 4693 N 626.195 -4.53773 -1.878 0
M  V30 4694 C 626.944 -4.99623 -2.99082 0
M  V30 4695 N 626.347 -4.78912 -4.21227 0
M  V30 4696 N 628.097 -5.59957 -2.91093 0
M  V30 4697 C 628.554 -5.70225 -1.64218 0
M  V30 4698 H 630.723 -6.6888 -2.96621 0
M  V30 4699 H 631.906 -6.53517 -0.192194 0
M  V30 4700 H 633.391 -8.36563 -0.598329 0
M  V30 4701 H 631.696 -10.0291 -1.79807 0
M  V30 4702 H 631.506 -10.2138 0.558219 0
M  V30 4703 H 629.875 -9.6579 0.0444202 0
M  V30 4704 H 625.299 -4.12883 -2.05283 0
M  V30 4705 H 630.506 -6.59596 0.745856 0
M  V30 4706 H 625.436 -4.31425 -4.2628 0
M  V30 4707 H 626.812 -5.11219 -5.07148 0
M  V30 4708 H 632.516 -5.69466 -2.79593 0
M  V30 4709 P 634.373 -8.4349 -2.47671 0
M  V30 4710 O 635.795 -8.92593 -2.65 0
M  V30 4711 O 634.013 -7.7568 -1.19296 0
M  V30 4712 O 634.05 -7.36886 -3.63805 0
M  V30 4713 C 633.89 -7.95349 -4.982 0
M  V30 4714 C 634.43 -6.94612 -5.98974 0
M  V30 4715 O 633.374 -6.10347 -6.11815 0
M  V30 4716 C 635.648 -6.11426 -5.62335 0
M  V30 4717 O 636.386 -5.6162 -6.70584 0
M  V30 4718 C 634.979 -5.04409 -4.73308 0
M  V30 4719 O 635.778 -3.85992 -4.75183 0
M  V30 4720 C 633.642 -4.8728 -5.41006 0
M  V30 4721 H 633.674 -4.02333 -6.11157 0
M  V30 4722 H 634.857 -5.39466 -3.69543 0
M  V30 4723 H 636.341 -6.71916 -5.01943 0
M  V30 4724 H 634.647 -7.4649 -6.93477 0
M  V30 4725 H 634.457 -8.89416 -5.05237 0
M  V30 4726 H 632.827 -8.14876 -5.18409 0
M  V30 4727 H 635.466 -3.27957 -5.4317 0
M  V30 4728 P 637.323 -5.75688 -6.64379 0
M  V30 4729 O 638.745 -6.07627 -7.05504 0
M  V30 4730 O 636.963 -5.88047 -5.19722 0
M  V30 4731 O 637 -4.2322 -7.04443 0
M  V30 4732 C 636.84 -3.99743 -8.4911 0
M  V30 4733 C 637.38 -2.60516 -8.79425 0
M  V30 4734 O 636.324 -1.82684 -8.4467 0
M  V30 4735 C 638.598 -2.10343 -8.03628 0
M  V30 4736 O 639.336 -1.09919 -8.67766 0
M  V30 4737 C 637.929 -1.68446 -6.70876 0
M  V30 4738 O 638.728 -0.678137 -6.08433 0
M  V30 4739 C 636.592 -1.17436 -7.18567 0
M  V30 4740 H 636.624 -0.0804732 -7.31656 0
M  V30 4741 H 637.807 -2.54037 -6.02537 0
M  V30 4742 H 639.291 -2.93881 -7.85526 0
M  V30 4743 H 637.597 -2.53065 -9.86973 0
M  V30 4744 H 637.407 -4.75072 -9.05887 0
M  V30 4745 H 635.777 -4.05244 -8.76668 0
M  V30 4746 H 638.416 0.177647 -6.34251 0
M  V30 4747 P 640.274 -1.25109 -8.70152 0
M  V30 4748 O 641.696 -1.29744 -9.22016 0
M  V30 4749 O 639.914 -2.13714 -7.55141 0
M  V30 4750 O 639.951 0.248149 -8.21425 0
M  V30 4751 C 639.791 1.22779 -9.30434 0
M  V30 4752 C 640.331 2.56293 -8.80664 0
M  V30 4753 O 639.275 3.02979 -8.09349 0
M  V30 4754 C 641.549 2.57523 -7.89775 0
M  V30 4755 O 642.287 3.7668 -7.89438 0
M  V30 4756 C 640.88 2.20997 -6.55446 0
M  V30 4757 O 641.679 2.71895 -5.48509 0
M  V30 4758 C 639.543 2.89693 -6.67988 0
M  V30 4759 H 639.575 3.88793 -6.19859 0
M  V30 4760 H 640.758 1.12046 -6.44229 0
M  V30 4761 H 642.242 1.7746 -8.19711 0
M  V30 4762 H 640.548 3.20706 -9.67112 0
M  V30 4763 H 640.358 0.901032 -10.1892 0
M  V30 4764 H 638.728 1.33049 -9.56592 0
M  V30 4765 H 641.367 3.57847 -5.23962 0
M  V30 4766 P 643.224 3.65191 -7.99657 0
M  V30 4767 O 644.646 3.89332 -8.45794 0
M  V30 4768 O 642.864 2.28472 -7.50807 0
M  V30 4769 O 642.901 4.64972 -6.77611 0
M  V30 4770 C 642.741 6.06319 -7.16352 0
M  V30 4771 C 643.281 6.91731 -6.02299 0
M  V30 4772 O 642.225 6.92449 -5.17064 0
M  V30 4773 C 644.499 6.43627 -5.25174 0
M  V30 4774 O 645.237 7.43686 -4.60469 0
M  V30 4775 C 643.83 5.40275 -4.31916 0
M  V30 4776 O 644.629 5.25279 -3.14438 0
M  V30 4777 C 642.493 6.04847 -4.05327 0
M  V30 4778 H 642.525 6.62195 -3.11261 0
M  V30 4779 H 643.708 4.42556 -4.81383 0
M  V30 4780 H 645.192 5.92458 -5.93643 0
M  V30 4781 H 643.498 7.92655 -6.402 0
M  V30 4782 H 643.308 6.26671 -8.0846 0
M  V30 4783 H 641.678 6.29101 -7.32804 0
M  V30 4784 H 644.317 5.84315 -2.47318 0
M  V30 4785 P 646.175 7.39546 -4.75277 0
M  V30 4786 O 647.597 7.84798 -5.01039 0
M  V30 4787 O 645.815 5.9812 -5.08098 0
M  V30 4788 O 645.852 7.57503 -3.1866 0
M  V30 4789 C 645.692 8.97357 -2.74833 0
M  V30 4790 C 646.232 9.07548 -1.32709 0
M  V30 4791 O 645.176 8.62072 -0.606159 0
M  V30 4792 C 647.45 8.25383 -0.938334 0
M  V30 4793 O 648.188 8.74577 0.146954 0
M  V30 4794 C 646.781 6.8802 -0.712559 0
M  V30 4795 O 647.58 6.1189 0.194655 0
M  V30 4796 C 645.444 7.27966 -0.139777 0
M  V30 4797 H 645.476 7.25354 0.961601 0
M  V30 4798 H 646.659 6.32557 -1.65702 0
M  V30 4799 H 648.143 8.19355 -1.79097 0
M  V30 4800 H 646.449 10.1294 -1.10029 0
M  V30 4801 H 646.259 9.64276 -3.41316 0
M  V30 4802 H 644.629 9.25417 -2.76357 0
M  V30 4803 H 647.268 6.25267 1.07847 0
M  V30 4804 P 649.125 8.791 4.45433e-12 0
M  V30 4805 O 650.547 9.31096 0.027933 0
M  V30 4806 O 648.765 7.77869 -1.04071 0
M  V30 4807 O 648.802 8.09533 1.41463 0
M  V30 4808 C 648.642 9.0349 2.53943 0
M  V30 4809 C 649.182 8.35226 3.79016 0
M  V30 4810 O 648.126 7.57992 4.15078 0
M  V30 4811 C 650.4 7.45087 3.67298 0
M  V30 4812 O 651.138 7.27796 4.85194 0
M  V30 4813 C 649.731 6.17323 3.12027 0
M  V30 4814 O 650.53 5.04231 3.47188 0
M  V30 4815 C 648.394 6.19961 3.81809 0
M  V30 4816 H 648.426 5.58218 4.73051 0
M  V30 4817 H 649.609 6.21726 2.02589 0
M  V30 4818 H 651.093 7.86112 2.9231 0
M  V30 4819 H 649.399 9.11627 4.55076 0
M  V30 4820 H 649.209 9.9573 2.34194 0
M  V30 4821 H 647.579 9.2792 2.67832 0
M  V30 4822 H 650.218 4.67702 4.28772 0
M  V30 4823 P 652.076 7.39546 4.75277 0
M  V30 4824 O 653.498 7.81777 5.05738 0
M  V30 4825 O 651.716 7.1065 3.32998 0
M  V30 4826 O 651.753 6.04542 5.56673 0
M  V30 4827 C 651.593 6.22772 7.02095 0
M  V30 4828 C 652.133 4.97725 7.70406 0
M  V30 4829 O 651.077 4.13256 7.58987 0
M  V30 4830 C 653.351 4.28231 7.11815 0
M  V30 4831 O 654.089 3.49945 8.01648 0
M  V30 4832 C 652.682 3.5063 5.96244 0
M  V30 4833 O 653.481 2.36482 5.64681 0
M  V30 4834 C 651.345 3.15122 6.56374 0
M  V30 4835 H 651.377 2.13853 6.99751 0
M  V30 4836 H 652.56 4.13501 5.06559 0
M  V30 4837 H 654.044 5.03285 6.70911 0
M  V30 4838 H 652.35 5.20877 8.75697 0
M  V30 4839 H 652.16 7.11046 7.35349 0
M  V30 4840 H 650.53 6.35815 7.26986 0
M  V30 4841 H 653.169 1.61644 6.13565 0
M  V30 4842 P 655.027 3.65191 7.99657 0
M  V30 4843 O 656.449 3.8425 8.48115 0
M  V30 4844 O 654.667 4.17805 6.64342 0
M  V30 4845 O 654.704 2.07613 7.95143 0
M  V30 4846 C 654.544 1.44328 9.27336 0
M  V30 4847 C 655.084 0.0220036 9.17197 0
M  V30 4848 O 654.028 -0.626867 8.61923 0
M  V30 4849 C 656.302 -0.24586 8.30336 0
M  V30 4850 O 657.04 -1.39011 8.63583 0
M  V30 4851 C 655.633 -0.273849 6.91158 0
M  V30 4852 O 656.432 -1.06348 6.02892 0
M  V30 4853 C 654.296 -0.897649 7.22545 0
M  V30 4854 H 654.328 -1.9841 7.04286 0
M  V30 4855 H 655.511 0.739928 6.497 0
M  V30 4856 H 656.995 0.60668 8.36503 0
M  V30 4857 H 655.301 -0.352479 10.1829 0
M  V30 4858 H 655.111 2.00611 10.0304 0
M  V30 4859 H 653.481 1.41843 9.55327 0
M  V30 4860 H 656.12 -1.95734 6.03555 0
M  V30 4861 P 657.977 -1.25109 8.70152 0
M  V30 4862 O 659.399 -1.35274 9.21221 0
M  V30 4863 O 657.617 -0.0769065 7.84762 0
M  V30 4864 O 657.654 -2.55232 7.81161 0
M  V30 4865 C 657.494 -3.79939 8.58154 0
M  V30 4866 C 658.034 -4.94023 7.72785 0
M  V30 4867 O 656.978 -5.18726 6.91205 0
M  V30 4868 C 659.252 -4.69597 6.85231 0
M  V30 4869 O 659.99 -5.83832 6.51337 0
M  V30 4870 C 658.583 -3.96706 5.66633 0
M  V30 4871 O 659.382 -4.15414 4.49689 0
M  V30 4872 C 657.246 -4.66153 5.59313 0
M  V30 4873 H 657.278 -5.47679 4.85214 0
M  V30 4874 H 658.461 -2.89008 5.86566 0
M  V30 4875 H 659.945 -4.0121 7.36511 0
M  V30 4876 H 658.251 -5.80182 8.37584 0
M  V30 4877 H 658.061 -3.73517 9.52265 0
M  V30 4878 H 656.431 -3.97163 8.80359 0
M  V30 4879 H 659.07 -4.90969 4.01921 0
M  V30 4880 P 660.928 -5.75688 6.64379 0
M  V30 4881 O 662.35 -6.11849 7.01846 0
M  V30 4882 O 660.568 -4.30744 6.56026 0
M  V30 4883 O 660.605 -6.37042 5.19165 0
M  V30 4884 C 660.445 -7.83578 5.16515 0
M  V30 4885 C 660.985 -8.33398 3.83019 0
M  V30 4886 O 659.929 -8.10074 3.01034 0
M  V30 4887 C 662.203 -7.65514 3.2257 0
M  V30 4888 O 662.941 -8.4329 2.32297 0
M  V30 4889 C 661.534 -6.40075 2.62207 0
M  V30 4890 O 662.333 -5.92589 1.53712 0
M  V30 4891 C 660.197 -6.9454 2.18503 0
M  V30 4892 H 660.229 -7.23063 1.12091 0
M  V30 4893 H 661.412 -5.6025 3.37201 0
M  V30 4894 H 662.896 -7.35707 4.02681 0
M  V30 4895 H 661.202 -9.40912 3.9095 0
M  V30 4896 H 661.012 -8.29056 5.99158 0
M  V30 4897 H 659.382 -8.10073 5.25882 0
M  V30 4898 H 662.021 -6.30324 0.726794 0
M  V30 4899 P 663.878 -8.4349 2.47671 0
M  V30 4900 O 665.3 -8.94167 2.5964 0
M  V30 4901 O 663.518 -7.1704 3.19006 0
M  V30 4902 O 663.555 -8.16596 0.923387 0
M  V30 4903 C 663.395 -9.38437 0.108857 0
M  V30 4904 C 663.935 -9.08175 -1.28353 0
M  V30 4905 O 662.879 -8.44229 -1.84713 0
M  V30 4906 C 665.153 -8.18386 -1.42505 0
M  V30 4907 O 665.891 -8.3501 -2.60497 0
M  V30 4908 C 664.484 -6.80225 -1.25468 0
M  V30 4909 O 665.283 -5.81621 -1.91066 0
M  V30 4910 C 663.147 -7.02416 -1.9168 0
M  V30 4911 H 663.179 -6.6888 -2.96621 0
M  V30 4912 H 664.362 -6.53617 -0.192223 0
M  V30 4913 H 665.846 -8.36622 -0.589963 0
M  V30 4914 H 664.152 -10.0291 -1.79807 0
M  V30 4915 H 663.962 -10.2138 0.558219 0
M  V30 4916 H 662.332 -9.6579 0.0444202 0
M  V30 4917 H 664.971 -5.69556 -2.79637 0
M  V30 4918 P 666.829 -8.4349 -2.47671 0
M  V30 4919 O 668.23 -8.99283 -2.62101 0
M  V30 4920 O 666.451 -7.81195 -1.16947 0
M  V30 4921 O 666.506 -7.36797 -3.63761 0
M  V30 4922 C 666.346 -7.95349 -4.982 0
M  V30 4923 C 666.886 -6.94537 -5.98908 0
M  V30 4924 O 665.83 -6.10277 -6.11744 0
M  V30 4925 C 668.103 -6.11426 -5.62335 0
M  V30 4926 O 668.842 -5.6162 -6.70584 0
M  V30 4927 C 667.436 -5.04409 -4.73308 0
M  V30 4928 O 668.234 -3.85929 -4.75106 0
M  V30 4929 C 666.098 -4.8728 -5.41006 0
M  V30 4930 N 665.055 -4.65812 -4.42377 0
M  V30 4931 C 664.02 -3.81293 -4.74224 0
M  V30 4932 O 664.059 -3.20533 -5.83679 0
M  V30 4933 N 663.008 -3.6442 -3.86349 0
M  V30 4934 C 663.056 -4.2728 -2.6824 0
M  V30 4935 C 664.152 -5.10813 -2.3217 0
M  V30 4936 C 665.118 -5.27909 -3.22647 0
M  V30 4937 H 666.13 -4.02278 -6.11074 0
M  V30 4938 H 667.313 -5.39013 -3.70026 0
M  V30 4939 H 668.797 -6.71494 -5.02675 0
M  V30 4940 H 667.103 -7.45796 -6.94223 0
M  V30 4941 H 666.912 -8.89416 -5.05237 0
M  V30 4942 H 665.282 -8.14791 -5.18355 0
M  V30 4943 H 664.2 -5.58884 -1.34755 0
M  V30 4944 H 665.964 -5.92811 -2.9934 0
M  V30 4945 H 668.018 -3.3454 -5.51577 0
M  V30 4946 P 669.779 -5.75688 -6.64379 0
M  V30 4947 O 671.201 -6.07627 -7.05504 0
M  V30 4948 O 669.419 -5.88047 -5.19722 0
M  V30 4949 O 669.456 -4.2322 -7.04443 0
M  V30 4950 C 669.296 -3.99743 -8.4911 0
M  V30 4951 C 669.836 -2.60516 -8.79425 0
M  V30 4952 O 668.78 -1.82684 -8.4467 0
M  V30 4953 C 671.054 -2.10343 -8.03628 0
M  V30 4954 O 671.792 -1.09919 -8.67766 0
M  V30 4955 C 670.385 -1.68446 -6.70876 0
M  V30 4956 O 671.184 -0.678137 -6.08433 0
M  V30 4957 C 669.048 -1.17436 -7.18567 0
M  V30 4958 H 669.08 -0.0804732 -7.31656 0
M  V30 4959 H 670.263 -2.54037 -6.02537 0
M  V30 4960 H 671.747 -2.93881 -7.85526 0
M  V30 4961 H 670.053 -2.53065 -9.86973 0
M  V30 4962 H 669.863 -4.75072 -9.05887 0
M  V30 4963 H 668.233 -4.05244 -8.76668 0
M  V30 4964 H 670.872 0.177647 -6.34251 0
M  V30 4965 P 672.73 -1.25109 -8.70152 0
M  V30 4966 O 674.152 -1.29744 -9.22016 0
M  V30 4967 O 672.37 -2.13714 -7.55141 0
M  V30 4968 O 672.407 0.248149 -8.21425 0
M  V30 4969 C 672.247 1.22779 -9.30434 0
M  V30 4970 C 672.787 2.56293 -8.80664 0
M  V30 4971 O 671.731 3.02979 -8.09349 0
M  V30 4972 C 674.005 2.57523 -7.89775 0
M  V30 4973 O 674.743 3.7668 -7.89438 0
M  V30 4974 C 673.336 2.20997 -6.55446 0
M  V30 4975 O 674.135 2.71895 -5.48509 0
M  V30 4976 C 671.999 2.89693 -6.67988 0
M  V30 4977 H 672.031 3.88793 -6.19859 0
M  V30 4978 H 673.214 1.12046 -6.44229 0
M  V30 4979 H 674.698 1.7746 -8.19711 0
M  V30 4980 H 673.004 3.20706 -9.67112 0
M  V30 4981 H 672.814 0.901032 -10.1892 0
M  V30 4982 H 671.184 1.33049 -9.56592 0
M  V30 4983 H 673.823 3.57847 -5.23962 0
M  V30 4984 P 675.681 3.65191 -7.99657 0
M  V30 4985 O 677.103 3.89332 -8.45794 0
M  V30 4986 O 675.321 2.28472 -7.50807 0
M  V30 4987 O 675.358 4.64972 -6.77611 0
M  V30 4988 C 675.198 6.06319 -7.16352 0
M  V30 4989 C 675.738 6.91731 -6.02299 0
M  V30 4990 O 674.682 6.92449 -5.17064 0
M  V30 4991 C 676.956 6.43627 -5.25174 0
M  V30 4992 O 677.694 7.43686 -4.60469 0
M  V30 4993 C 676.287 5.40275 -4.31916 0
M  V30 4994 O 677.086 5.25279 -3.14438 0
M  V30 4995 C 674.95 6.04847 -4.05327 0
M  V30 4996 H 674.982 6.62195 -3.11261 0
M  V30 4997 H 676.165 4.42556 -4.81383 0
M  V30 4998 H 677.649 5.92458 -5.93643 0
M  V30 4999 H 675.955 7.92655 -6.402 0
M  V30 5000 H 675.765 6.26671 -8.0846 0
M  V30 5001 H 674.135 6.29101 -7.32804 0
M  V30 5002 H 676.774 5.84315 -2.47318 0
M  V30 5003 P 678.631 7.39546 -4.75277 0
M  V30 5004 O 680.053 7.84798 -5.01039 0
M  V30 5005 O 678.271 5.9812 -5.08098 0
M  V30 5006 O 678.308 7.57503 -3.1866 0
M  V30 5007 C 678.148 8.97357 -2.74833 0
M  V30 5008 C 678.688 9.07548 -1.32709 0
M  V30 5009 O 677.632 8.62072 -0.606159 0
M  V30 5010 C 679.906 8.25383 -0.938334 0
M  V30 5011 O 680.644 8.74577 0.146954 0
M  V30 5012 C 679.237 6.8802 -0.712559 0
M  V30 5013 O 680.036 6.1189 0.194655 0
M  V30 5014 C 677.9 7.27966 -0.139777 0
M  V30 5015 H 677.932 7.25354 0.961601 0
M  V30 5016 H 679.115 6.32557 -1.65702 0
M  V30 5017 H 680.599 8.19355 -1.79097 0
M  V30 5018 H 678.905 10.1294 -1.10029 0
M  V30 5019 H 678.715 9.64276 -3.41316 0
M  V30 5020 H 677.085 9.25417 -2.76357 0
M  V30 5021 H 679.724 6.25267 1.07847 0
M  V30 5022 P 681.582 8.791 4.7645e-12 0
M  V30 5023 O 683.004 9.31096 0.027933 0
M  V30 5024 O 681.222 7.77869 -1.04071 0
M  V30 5025 O 681.259 8.09533 1.41463 0
M  V30 5026 C 681.099 9.0349 2.53943 0
M  V30 5027 C 681.639 8.35226 3.79016 0
M  V30 5028 O 680.583 7.57992 4.15078 0
M  V30 5029 C 682.857 7.45087 3.67298 0
M  V30 5030 O 683.595 7.27796 4.85194 0
M  V30 5031 C 682.188 6.17323 3.12027 0
M  V30 5032 O 682.987 5.04231 3.47188 0
M  V30 5033 C 680.851 6.19961 3.81809 0
M  V30 5034 H 680.883 5.58218 4.73051 0
M  V30 5035 H 682.066 6.21726 2.02589 0
M  V30 5036 H 683.55 7.86112 2.9231 0
M  V30 5037 H 681.856 9.11627 4.55076 0
M  V30 5038 H 681.666 9.9573 2.34194 0
M  V30 5039 H 680.036 9.2792 2.67832 0
M  V30 5040 H 682.675 4.67702 4.28772 0
M  V30 5041 P 684.532 7.39546 4.75277 0
M  V30 5042 O 685.954 7.81777 5.05738 0
M  V30 5043 O 684.172 7.1065 3.32998 0
M  V30 5044 O 684.209 6.04542 5.56673 0
M  V30 5045 C 684.049 6.22772 7.02095 0
M  V30 5046 C 684.589 4.97725 7.70406 0
M  V30 5047 O 683.533 4.13256 7.58987 0
M  V30 5048 C 685.807 4.28231 7.11815 0
M  V30 5049 O 686.545 3.49945 8.01648 0
M  V30 5050 C 685.138 3.5063 5.96244 0
M  V30 5051 O 685.937 2.36482 5.64681 0
M  V30 5052 C 683.801 3.15122 6.56374 0
M  V30 5053 H 683.833 2.13853 6.99751 0
M  V30 5054 H 685.016 4.13501 5.06559 0
M  V30 5055 H 686.5 5.03285 6.70911 0
M  V30 5056 H 684.806 5.20877 8.75697 0
M  V30 5057 H 684.616 7.11046 7.35349 0
M  V30 5058 H 682.986 6.35815 7.26986 0
M  V30 5059 H 685.625 1.61644 6.13565 0
M  V30 5060 P 687.483 3.65191 7.99657 0
M  V30 5061 O 688.905 3.84333 8.48297 0
M  V30 5062 O 687.123 4.17805 6.64342 0
M  V30 5063 O 687.16 2.07613 7.95143 0
M  V30 5064 C 687 1.44328 9.27336 0
M  V30 5065 C 687.54 0.0220012 9.17097 0
M  V30 5066 O 686.485 -0.626867 8.61923 0
M  V30 5067 C 688.758 -0.24586 8.30336 0
M  V30 5068 O 689.496 -1.39011 8.63583 0
M  V30 5069 C 688.09 -0.273849 6.91158 0
M  V30 5070 O 688.888 -1.06331 6.02794 0
M  V30 5071 C 686.752 -0.897649 7.22545 0
M  V30 5072 N 685.709 -0.292839 6.41732 0
M  V30 5073 C 685.771 1.00068 6.10757 0
M  V30 5074 N 684.726 1.36468 5.35794 0
M  V30 5075 C 683.992 0.258894 5.2366 0
M  V30 5076 C 682.686 0.0670682 4.65752 0
M  V30 5077 O 681.953 0.902443 4.10497 0
M  V30 5078 N 682.256 -1.2131 4.75881 0
M  V30 5079 C 683.005 -2.24934 5.37101 0
M  V30 5080 N 682.408 -3.48783 5.33984 0
M  V30 5081 N 684.158 -2.0844 5.95684 0
M  V30 5082 C 684.615 -0.81395 5.87791 0
M  V30 5083 H 686.784 -1.9841 7.04286 0
M  V30 5084 H 687.967 0.739815 6.49601 0
M  V30 5085 H 689.452 0.598315 8.36563 0
M  V30 5086 H 687.757 -0.352479 10.1829 0
M  V30 5087 H 687.567 2.00611 10.0304 0
M  V30 5088 H 685.936 1.41843 9.55327 0
M  V30 5089 H 681.36 -1.44434 4.37895 0
M  V30 5090 H 686.567 1.67697 6.42268 0
M  V30 5091 H 681.497 -3.60543 4.87699 0
M  V30 5092 H 682.873 -4.29232 5.7819 0
M  V30 5093 H 688.577 -1.95704 6.0346 0
M  V30 5094 P 690.433 -1.25109 8.70152 0
M  V30 5095 O 691.855 -1.35303 9.21419 0
M  V30 5096 O 690.073 -0.0769065 7.84762 0
M  V30 5097 O 690.11 -2.55232 7.81161 0
M  V30 5098 C 689.95 -3.79939 8.58154 0
M  V30 5099 C 690.49 -4.93969 7.72701 0
M  V30 5100 O 689.435 -5.18726 6.91205 0
M  V30 5101 C 691.708 -4.69597 6.85231 0
M  V30 5102 O 692.446 -5.83832 6.51337 0
M  V30 5103 C 691.04 -3.96706 5.66633 0
M  V30 5104 O 691.838 -4.15346 4.49615 0
M  V30 5105 C 689.702 -4.66153 5.59313 0
M  V30 5106 N 688.659 -3.71582 5.24027 0
M  V30 5107 C 688.721 -2.46018 5.67902 0
M  V30 5108 N 687.676 -1.74868 5.24518 0
M  V30 5109 C 686.942 -2.61333 4.54528 0
M  V30 5110 C 685.636 -2.46162 3.95441 0
M  V30 5111 O 684.903 -1.46013 3.94122 0
M  V30 5112 N 685.206 -3.59334 3.34752 0
M  V30 5113 C 685.955 -4.79605 3.3023 0
M  V30 5114 N 685.358 -5.82109 2.6065 0
M  V30 5115 N 687.108 -4.97402 3.8843 0
M  V30 5116 C 687.565 -3.86258 4.50476 0
M  V30 5117 H 689.734 -5.47679 4.85214 0
M  V30 5118 H 690.917 -2.88964 5.86476 0
M  V30 5119 H 692.402 -4.01947 7.36109 0
M  V30 5120 H 690.707 -5.80182 8.37584 0
M  V30 5121 H 690.517 -3.73517 9.52265 0
M  V30 5122 H 688.886 -3.97163 8.80359 0
M  V30 5123 H 684.31 -3.5825 2.90294 0
M  V30 5124 H 689.517 -2.06161 6.30974 0
M  V30 5125 H 684.447 -5.66979 2.15354 0
M  V30 5126 H 685.823 -6.73686 2.54344 0
M  V30 5127 H 691.527 -4.90891 4.01857 0
M  V30 5128 P 693.384 -5.75688 6.64379 0
M  V30 5129 O 694.806 -6.11849 7.01846 0
M  V30 5130 O 693.024 -4.30744 6.56026 0
M  V30 5131 O 693.061 -6.37042 5.19165 0
M  V30 5132 C 692.901 -7.83578 5.16515 0
M  V30 5133 C 693.441 -8.33398 3.83019 0
M  V30 5134 O 692.385 -8.10074 3.01034 0
M  V30 5135 C 694.659 -7.65514 3.2257 0
M  V30 5136 O 695.397 -8.4329 2.32297 0
M  V30 5137 C 693.99 -6.40075 2.62207 0
M  V30 5138 O 694.789 -5.92589 1.53712 0
M  V30 5139 C 692.653 -6.9454 2.18503 0
M  V30 5140 H 692.685 -7.23063 1.12091 0
M  V30 5141 H 693.868 -5.6025 3.37201 0
M  V30 5142 H 695.352 -7.35707 4.02681 0
M  V30 5143 H 693.658 -9.40912 3.9095 0
M  V30 5144 H 693.468 -8.29056 5.99158 0
M  V30 5145 H 691.838 -8.10073 5.25882 0
M  V30 5146 H 694.477 -6.30324 0.726794 0
M  V30 5147 P 696.335 -8.4349 2.47671 0
M  V30 5148 O 697.757 -8.94167 2.5964 0
M  V30 5149 O 695.975 -7.1704 3.19006 0
M  V30 5150 O 696.012 -8.16596 0.923387 0
M  V30 5151 C 695.852 -9.38437 0.108857 0
M  V30 5152 C 696.392 -9.08175 -1.28353 0
M  V30 5153 O 695.336 -8.44229 -1.84713 0
M  V30 5154 C 697.61 -8.18386 -1.42505 0
M  V30 5155 O 698.348 -8.3501 -2.60497 0
M  V30 5156 C 696.941 -6.80225 -1.25468 0
M  V30 5157 O 697.74 -5.81621 -1.91066 0
M  V30 5158 C 695.604 -7.02416 -1.9168 0
M  V30 5159 H 695.636 -6.6888 -2.96621 0
M  V30 5160 H 696.819 -6.53617 -0.192223 0
M  V30 5161 H 698.303 -8.36622 -0.589963 0
M  V30 5162 H 696.609 -10.0291 -1.79807 0
M  V30 5163 H 696.419 -10.2138 0.558219 0
M  V30 5164 H 694.789 -9.6579 0.0444202 0
M  V30 5165 H 697.428 -5.69556 -2.79637 0
M  V30 5166 P 699.285 -8.4349 -2.47671 0
M  V30 5167 O 700.707 -8.92593 -2.65 0
M  V30 5168 O 698.925 -7.7568 -1.19296 0
M  V30 5169 O 698.962 -7.36886 -3.63805 0
M  V30 5170 C 698.802 -7.95349 -4.982 0
M  V30 5171 C 699.342 -6.94612 -5.98974 0
M  V30 5172 O 698.286 -6.10347 -6.11815 0
M  V30 5173 C 700.56 -6.11426 -5.62335 0
M  V30 5174 O 701.298 -5.6162 -6.70584 0
M  V30 5175 C 699.891 -5.04409 -4.73308 0
M  V30 5176 O 700.69 -3.85992 -4.75183 0
M  V30 5177 C 698.554 -4.8728 -5.41006 0
M  V30 5178 H 698.586 -4.02333 -6.11157 0
M  V30 5179 H 699.769 -5.39466 -3.69543 0
M  V30 5180 H 701.253 -6.71916 -5.01943 0
M  V30 5181 H 699.559 -7.4649 -6.93477 0
M  V30 5182 H 699.369 -8.89416 -5.05237 0
M  V30 5183 H 697.739 -8.14876 -5.18409 0
M  V30 5184 H 700.378 -3.27957 -5.4317 0
M  V30 5185 P 702.236 -5.75688 -6.64379 0
M  V30 5186 O 703.658 -6.07627 -7.05504 0
M  V30 5187 O 701.876 -5.88047 -5.19722 0
M  V30 5188 O 701.913 -4.2322 -7.04443 0
M  V30 5189 C 701.753 -3.99743 -8.4911 0
M  V30 5190 C 702.293 -2.60516 -8.79425 0
M  V30 5191 O 701.237 -1.82684 -8.4467 0
M  V30 5192 C 703.511 -2.10343 -8.03628 0
M  V30 5193 O 704.249 -1.09919 -8.67766 0
M  V30 5194 C 702.842 -1.68446 -6.70876 0
M  V30 5195 O 703.641 -0.678137 -6.08433 0
M  V30 5196 C 701.505 -1.17436 -7.18567 0
M  V30 5197 H 701.537 -0.0804732 -7.31656 0
M  V30 5198 H 702.72 -2.54037 -6.02537 0
M  V30 5199 H 704.204 -2.93881 -7.85526 0
M  V30 5200 H 702.51 -2.53065 -9.86973 0
M  V30 5201 H 702.32 -4.75072 -9.05887 0
M  V30 5202 H 700.69 -4.05244 -8.76668 0
M  V30 5203 H 703.329 0.177647 -6.34251 0
M  V30 5204 P 705.186 -1.25109 -8.70152 0
M  V30 5205 O 706.608 -1.29744 -9.22016 0
M  V30 5206 O 704.826 -2.13714 -7.55141 0
M  V30 5207 O 704.863 0.248149 -8.21425 0
M  V30 5208 C 704.703 1.22779 -9.30434 0
M  V30 5209 C 705.243 2.56293 -8.80664 0
M  V30 5210 O 704.187 3.02979 -8.09349 0
M  V30 5211 C 706.461 2.57523 -7.89775 0
M  V30 5212 O 707.199 3.7668 -7.89438 0
M  V30 5213 C 705.792 2.20997 -6.55446 0
M  V30 5214 O 706.591 2.71895 -5.48509 0
M  V30 5215 C 704.455 2.89693 -6.67988 0
M  V30 5216 H 704.487 3.88793 -6.19859 0
M  V30 5217 H 705.67 1.12046 -6.44229 0
M  V30 5218 H 707.154 1.7746 -8.19711 0
M  V30 5219 H 705.46 3.20706 -9.67112 0
M  V30 5220 H 705.27 0.901032 -10.1892 0
M  V30 5221 H 703.64 1.33049 -9.56592 0
M  V30 5222 H 706.279 3.57847 -5.23962 0
M  V30 5223 P 708.137 3.65191 -7.99657 0
M  V30 5224 O 709.559 3.89332 -8.45794 0
M  V30 5225 O 707.777 2.28472 -7.50807 0
M  V30 5226 O 707.814 4.64972 -6.77611 0
M  V30 5227 C 707.654 6.06319 -7.16352 0
M  V30 5228 C 708.194 6.91731 -6.02299 0
M  V30 5229 O 707.138 6.92449 -5.17064 0
M  V30 5230 C 709.412 6.43627 -5.25174 0
M  V30 5231 O 710.15 7.43686 -4.60469 0
M  V30 5232 C 708.743 5.40275 -4.31916 0
M  V30 5233 O 709.542 5.25279 -3.14438 0
M  V30 5234 C 707.406 6.04847 -4.05327 0
M  V30 5235 H 707.438 6.62195 -3.11261 0
M  V30 5236 H 708.621 4.42556 -4.81383 0
M  V30 5237 H 710.105 5.92458 -5.93643 0
M  V30 5238 H 708.411 7.92655 -6.402 0
M  V30 5239 H 708.221 6.26671 -8.0846 0
M  V30 5240 H 706.591 6.29101 -7.32804 0
M  V30 5241 H 709.23 5.84315 -2.47318 0
M  V30 5242 P 711.087 7.39546 -4.75277 0
M  V30 5243 O 712.508 7.84882 -5.01092 0
M  V30 5244 O 710.727 5.9812 -5.08098 0
M  V30 5245 O 710.764 7.57503 -3.1866 0
M  V30 5246 C 710.603 8.97452 -2.74862 0
M  V30 5247 C 711.144 9.07548 -1.32709 0
M  V30 5248 O 710.089 8.61972 -0.606089 0
M  V30 5249 C 712.362 8.25383 -0.938334 0
M  V30 5250 O 713.1 8.74577 0.146954 0
M  V30 5251 C 711.694 6.8802 -0.712559 0
M  V30 5252 O 712.492 6.1181 0.188505 0
M  V30 5253 C 710.356 7.27966 -0.139777 0
M  V30 5254 N 709.313 6.39368 -0.623421 0
M  V30 5255 C 709.482 5.71761 -1.78245 0
M  V30 5256 N 708.455 4.962 -2.10491 0
M  V30 5257 C 707.57 5.16158 -1.0635 0
M  V30 5258 C 706.303 4.60425 -0.810266 0
M  V30 5259 N 705.738 5.06 0.348685 0
M  V30 5260 C 706.34 5.94532 1.20395 0
M  V30 5261 N 707.517 6.48452 1.01191 0
M  V30 5262 C 708.092 6.04423 -0.146291 0
M  V30 5263 H 711.571 6.32625 -1.65044 0
M  V30 5264 H 713.054 8.19355 -1.79097 0
M  V30 5265 H 711.36 10.1305 -1.09016 0
M  V30 5266 H 711.17 9.64276 -3.41316 0
M  V30 5267 H 709.54 9.25417 -2.76357 0
M  V30 5268 H 710.382 5.79354 -2.38959 0
M  V30 5269 H 712.18 6.25169 1.0783 0
M  V30 5270 P 714.038 8.791 5.07466e-12 0
M  V30 5271 O 715.46 9.31096 0.027933 0
M  V30 5272 O 713.678 7.77869 -1.04071 0
M  V30 5273 O 713.715 8.09533 1.41463 0
M  V30 5274 C 713.555 9.0349 2.53943 0
M  V30 5275 C 714.095 8.35226 3.79016 0
M  V30 5276 O 713.039 7.57992 4.15078 0
M  V30 5277 C 715.313 7.45087 3.67298 0
M  V30 5278 O 716.051 7.27796 4.85194 0
M  V30 5279 C 714.644 6.17323 3.12027 0
M  V30 5280 O 715.443 5.04231 3.47188 0
M  V30 5281 C 713.307 6.19961 3.81809 0
M  V30 5282 H 713.339 5.58218 4.73051 0
M  V30 5283 H 714.522 6.21726 2.02589 0
M  V30 5284 H 716.006 7.86112 2.9231 0
M  V30 5285 H 714.312 9.11627 4.55076 0
M  V30 5286 H 714.122 9.9573 2.34194 0
M  V30 5287 H 712.492 9.2792 2.67832 0
M  V30 5288 H 715.131 4.67702 4.28772 0
M  V30 5289 P 716.989 7.39546 4.75277 0
M  V30 5290 O 718.411 7.81777 5.05738 0
M  V30 5291 O 716.629 7.1065 3.32998 0
M  V30 5292 O 716.666 6.04542 5.56673 0
M  V30 5293 C 716.506 6.22772 7.02095 0
M  V30 5294 C 717.046 4.97725 7.70406 0
M  V30 5295 O 715.99 4.13256 7.58987 0
M  V30 5296 C 718.264 4.28231 7.11815 0
M  V30 5297 O 719.002 3.49945 8.01648 0
M  V30 5298 C 717.595 3.5063 5.96244 0
M  V30 5299 O 718.394 2.36482 5.64681 0
M  V30 5300 C 716.258 3.15122 6.56374 0
M  V30 5301 H 716.29 2.13853 6.99751 0
M  V30 5302 H 717.473 4.13501 5.06559 0
M  V30 5303 H 718.957 5.03285 6.70911 0
M  V30 5304 H 717.263 5.20877 8.75697 0
M  V30 5305 H 717.073 7.11046 7.35349 0
M  V30 5306 H 715.443 6.35815 7.26986 0
M  V30 5307 H 718.082 1.61644 6.13565 0
M  V30 5308 P 719.939 3.65191 7.99657 0
M  V30 5309 O 721.361 3.8425 8.48115 0
M  V30 5310 O 719.579 4.17805 6.64342 0
M  V30 5311 O 719.616 2.07613 7.95143 0
M  V30 5312 C 719.456 1.44328 9.27336 0
M  V30 5313 C 719.996 0.0220036 9.17197 0
M  V30 5314 O 718.94 -0.626867 8.61923 0
M  V30 5315 C 721.214 -0.24586 8.30336 0
M  V30 5316 O 721.952 -1.39011 8.63583 0
M  V30 5317 C 720.545 -0.273849 6.91158 0
M  V30 5318 O 721.344 -1.06348 6.02892 0
M  V30 5319 C 719.208 -0.897649 7.22545 0
M  V30 5320 H 719.24 -1.9841 7.04286 0
M  V30 5321 H 720.423 0.739928 6.497 0
M  V30 5322 H 721.907 0.60668 8.36503 0
M  V30 5323 H 720.213 -0.352479 10.1829 0
M  V30 5324 H 720.023 2.00611 10.0304 0
M  V30 5325 H 718.393 1.41843 9.55327 0
M  V30 5326 H 721.032 -1.95734 6.03555 0
M  V30 5327 P 722.89 -1.25109 8.70152 0
M  V30 5328 O 724.312 -1.35274 9.21221 0
M  V30 5329 O 722.53 -0.0769065 7.84762 0
M  V30 5330 O 722.567 -2.55232 7.81161 0
M  V30 5331 C 722.407 -3.79939 8.58154 0
M  V30 5332 C 722.947 -4.94023 7.72785 0
M  V30 5333 O 721.891 -5.18726 6.91205 0
M  V30 5334 C 724.165 -4.69597 6.85231 0
M  V30 5335 O 724.903 -5.83832 6.51337 0
M  V30 5336 C 723.496 -3.96706 5.66633 0
M  V30 5337 O 724.295 -4.15414 4.49689 0
M  V30 5338 C 722.159 -4.66153 5.59313 0
M  V30 5339 H 722.191 -5.47679 4.85214 0
M  V30 5340 H 723.374 -2.89008 5.86566 0
M  V30 5341 H 724.858 -4.0121 7.36511 0
M  V30 5342 H 723.164 -5.80182 8.37584 0
M  V30 5343 H 722.974 -3.73517 9.52265 0
M  V30 5344 H 721.344 -3.97163 8.80359 0
M  V30 5345 H 723.983 -4.90969 4.01921 0
M  V30 5346 P 725.84 -5.75688 6.64379 0
M  V30 5347 O 727.262 -6.11849 7.01846 0
M  V30 5348 O 725.48 -4.30744 6.56026 0
M  V30 5349 O 725.517 -6.37042 5.19165 0
M  V30 5350 C 725.357 -7.83578 5.16515 0
M  V30 5351 C 725.897 -8.33398 3.83019 0
M  V30 5352 O 724.841 -8.10074 3.01034 0
M  V30 5353 C 727.115 -7.65514 3.2257 0
M  V30 5354 O 727.853 -8.4329 2.32297 0
M  V30 5355 C 726.446 -6.40075 2.62207 0
M  V30 5356 O 727.245 -5.92589 1.53712 0
M  V30 5357 C 725.109 -6.9454 2.18503 0
M  V30 5358 H 725.141 -7.23063 1.12091 0
M  V30 5359 H 726.324 -5.6025 3.37201 0
M  V30 5360 H 727.808 -7.35707 4.02681 0
M  V30 5361 H 726.114 -9.40912 3.9095 0
M  V30 5362 H 725.924 -8.29056 5.99158 0
M  V30 5363 H 724.294 -8.10073 5.25882 0
M  V30 5364 H 726.933 -6.30324 0.726794 0
M  V30 5365 P 728.791 -8.4349 2.47671 0
M  V30 5366 O 730.213 -8.94167 2.5964 0
M  V30 5367 O 728.431 -7.1704 3.19006 0
M  V30 5368 O 728.468 -8.16596 0.923387 0
M  V30 5369 C 728.308 -9.38437 0.108857 0
M  V30 5370 C 728.848 -9.08175 -1.28353 0
M  V30 5371 O 727.792 -8.44229 -1.84713 0
M  V30 5372 C 730.066 -8.18386 -1.42505 0
M  V30 5373 O 730.804 -8.3501 -2.60497 0
M  V30 5374 C 729.397 -6.80225 -1.25468 0
M  V30 5375 O 730.196 -5.81621 -1.91066 0
M  V30 5376 C 728.06 -7.02416 -1.9168 0
M  V30 5377 H 728.092 -6.6888 -2.96621 0
M  V30 5378 H 729.275 -6.53617 -0.192223 0
M  V30 5379 H 730.759 -8.36622 -0.589963 0
M  V30 5380 H 729.065 -10.0291 -1.79807 0
M  V30 5381 H 728.875 -10.2138 0.558219 0
M  V30 5382 H 727.245 -9.6579 0.0444202 0
M  V30 5383 H 729.884 -5.69556 -2.79637 0
M  V30 5384 P 731.741 -8.4349 -2.47671 0
M  V30 5385 O 733.142 -8.99283 -2.62101 0
M  V30 5386 O 731.363 -7.81195 -1.16947 0
M  V30 5387 O 731.418 -7.36797 -3.63761 0
M  V30 5388 C 731.258 -7.95349 -4.982 0
M  V30 5389 C 731.798 -6.94537 -5.98908 0
M  V30 5390 O 730.742 -6.10277 -6.11744 0
M  V30 5391 C 733.015 -6.11426 -5.62335 0
M  V30 5392 O 733.754 -5.6162 -6.70584 0
M  V30 5393 C 732.348 -5.04409 -4.73308 0
M  V30 5394 O 733.146 -3.85929 -4.75106 0
M  V30 5395 C 731.01 -4.8728 -5.41006 0
M  V30 5396 N 729.967 -4.65812 -4.42377 0
M  V30 5397 C 728.932 -3.81293 -4.74224 0
M  V30 5398 O 728.971 -3.20533 -5.83679 0
M  V30 5399 N 727.92 -3.6442 -3.86349 0
M  V30 5400 C 727.968 -4.2728 -2.6824 0
M  V30 5401 N 726.958 -4.09866 -1.83822 0
M  V30 5402 C 729.064 -5.10813 -2.3217 0
M  V30 5403 C 730.03 -5.27909 -3.22647 0
M  V30 5404 H 731.042 -4.02278 -6.11074 0
M  V30 5405 H 732.225 -5.39013 -3.70026 0
M  V30 5406 H 733.709 -6.71494 -5.02675 0
M  V30 5407 H 732.015 -7.45796 -6.94223 0
M  V30 5408 H 731.824 -8.89416 -5.05237 0
M  V30 5409 H 730.194 -8.14791 -5.18355 0
M  V30 5410 H 729.112 -5.58884 -1.34755 0
M  V30 5411 H 730.876 -5.92811 -2.9934 0
M  V30 5412 H 726.168 -3.49095 -2.10018 0
M  V30 5413 H 726.963 -4.56846 -0.924167 0
M  V30 5414 H 732.93 -3.3454 -5.51577 0
M  V30 5415 P 734.692 -5.75688 -6.64379 0
M  V30 5416 O 736.113 -6.07692 -7.0558 0
M  V30 5417 O 734.332 -5.88047 -5.19722 0
M  V30 5418 O 734.369 -4.2322 -7.04443 0
M  V30 5419 C 734.208 -3.99785 -8.49201 0
M  V30 5420 C 734.749 -2.60516 -8.79425 0
M  V30 5421 O 733.694 -1.82663 -8.44573 0
M  V30 5422 C 735.967 -2.10343 -8.03628 0
M  V30 5423 O 736.705 -1.09919 -8.67766 0
M  V30 5424 C 735.299 -1.68446 -6.70876 0
M  V30 5425 O 736.097 -0.684109 -6.08265 0
M  V30 5426 C 733.961 -1.17436 -7.18567 0
M  V30 5427 N 732.918 -1.52699 -6.23988 0
M  V30 5428 C 733.087 -2.578 -5.40574 0
M  V30 5429 N 732.06 -2.78966 -4.61193 0
M  V30 5430 C 731.175 -1.78725 -4.95769 0
M  V30 5431 C 729.908 -1.45727 -4.44207 0
M  V30 5432 N 729.309 -2.13994 -3.43613 0
M  V30 5433 N 729.343 -0.374977 -5.05812 0
M  V30 5434 C 729.945 0.345585 -6.05615 0
M  V30 5435 N 731.122 0.0787651 -6.56253 0
M  V30 5436 C 731.697 -1.00499 -5.96189 0
M  V30 5437 H 733.993 -0.0804622 -7.31556 0
M  V30 5438 H 735.176 -2.53396 -6.02698 0
M  V30 5439 H 736.659 -2.93881 -7.85526 0
M  V30 5440 H 734.965 -2.52078 -9.87225 0
M  V30 5441 H 734.775 -4.75072 -9.05887 0
M  V30 5442 H 733.145 -4.05244 -8.76668 0
M  V30 5443 H 729.409 1.20098 -6.4532 0
M  V30 5444 H 733.987 -3.18977 -5.3945 0
M  V30 5445 H 728.379 -1.84983 -3.10004 0
M  V30 5446 H 729.783 -2.9465 -3.00843 0
M  V30 5447 H 735.785 0.177619 -6.34151 0
M  V30 5448 P 737.643 -1.25109 -8.70152 0
M  V30 5449 O 739.065 -1.29744 -9.22016 0
M  V30 5450 O 737.283 -2.13714 -7.55141 0
M  V30 5451 O 737.32 0.248149 -8.21425 0
M  V30 5452 C 737.16 1.22779 -9.30434 0
M  V30 5453 C 737.7 2.56293 -8.80664 0
M  V30 5454 O 736.644 3.02979 -8.09349 0
M  V30 5455 C 738.918 2.57523 -7.89775 0
M  V30 5456 O 739.656 3.7668 -7.89438 0
M  V30 5457 C 738.249 2.20997 -6.55446 0
M  V30 5458 O 739.048 2.71895 -5.48509 0
M  V30 5459 C 736.912 2.89693 -6.67988 0
M  V30 5460 H 736.944 3.88793 -6.19859 0
M  V30 5461 H 738.127 1.12046 -6.44229 0
M  V30 5462 H 739.611 1.7746 -8.19711 0
M  V30 5463 H 737.917 3.20706 -9.67112 0
M  V30 5464 H 737.726 0.901032 -10.1892 0
M  V30 5465 H 736.096 1.33049 -9.56592 0
M  V30 5466 H 738.736 3.57847 -5.23962 0
M  V30 5467 P 740.593 3.65191 -7.99657 0
M  V30 5468 O 742.015 3.89332 -8.45794 0
M  V30 5469 O 740.233 2.28472 -7.50807 0
M  V30 5470 O 740.27 4.64972 -6.77611 0
M  V30 5471 C 740.11 6.06319 -7.16352 0
M  V30 5472 C 740.65 6.91731 -6.02299 0
M  V30 5473 O 739.594 6.92449 -5.17064 0
M  V30 5474 C 741.868 6.43627 -5.25174 0
M  V30 5475 O 742.606 7.43686 -4.60469 0
M  V30 5476 C 741.199 5.40275 -4.31916 0
M  V30 5477 O 741.998 5.25279 -3.14438 0
M  V30 5478 C 739.862 6.04847 -4.05327 0
M  V30 5479 H 739.894 6.62195 -3.11261 0
M  V30 5480 H 741.077 4.42556 -4.81383 0
M  V30 5481 H 742.561 5.92458 -5.93643 0
M  V30 5482 H 740.867 7.92655 -6.402 0
M  V30 5483 H 740.677 6.26671 -8.0846 0
M  V30 5484 H 739.047 6.29101 -7.32804 0
M  V30 5485 H 741.686 5.84315 -2.47318 0
M  V30 5486 P 743.544 7.39546 -4.75277 0
M  V30 5487 O 744.966 7.84798 -5.01039 0
M  V30 5488 O 743.184 5.9812 -5.08098 0
M  V30 5489 O 743.221 7.57503 -3.1866 0
M  V30 5490 C 743.061 8.97357 -2.74833 0
M  V30 5491 C 743.601 9.07548 -1.32709 0
M  V30 5492 O 742.545 8.62072 -0.606159 0
M  V30 5493 C 744.819 8.25383 -0.938334 0
M  V30 5494 O 745.557 8.74577 0.146954 0
M  V30 5495 C 744.15 6.8802 -0.712559 0
M  V30 5496 O 744.949 6.1189 0.194655 0
M  V30 5497 C 742.813 7.27966 -0.139777 0
M  V30 5498 H 742.845 7.25354 0.961601 0
M  V30 5499 H 744.028 6.32557 -1.65702 0
M  V30 5500 H 745.512 8.19355 -1.79097 0
M  V30 5501 H 743.818 10.1294 -1.10029 0
M  V30 5502 H 743.628 9.64276 -3.41316 0
M  V30 5503 H 741.998 9.25417 -2.76357 0
M  V30 5504 H 744.637 6.25267 1.07847 0
M  V30 5505 P 746.494 8.791 5.38483e-12 0
M  V30 5506 O 747.915 9.31196 0.027936 0
M  V30 5507 O 746.134 7.77869 -1.04071 0
M  V30 5508 O 746.171 8.09533 1.41463 0
M  V30 5509 C 746.01 9.03587 2.5397 0
M  V30 5510 C 746.551 8.35226 3.79016 0
M  V30 5511 O 745.496 7.57904 4.1503 0
M  V30 5512 C 747.769 7.45087 3.67298 0
M  V30 5513 O 748.507 7.27796 4.85194 0
M  V30 5514 C 747.101 6.17323 3.12027 0
M  V30 5515 O 747.899 5.04496 3.46627 0
M  V30 5516 C 745.763 6.19961 3.81809 0
M  V30 5517 N 744.72 5.71575 2.93223 0
M  V30 5518 C 744.889 5.77362 1.59168 0
M  V30 5519 N 743.862 5.3123 0.911893 0
M  V30 5520 C 742.977 4.91717 1.89588 0
M  V30 5521 C 741.71 4.3114 1.8076 0
M  V30 5522 N 741.145 4.06823 3.02898 0
M  V30 5523 C 741.747 4.35062 4.22711 0
M  V30 5524 N 742.924 4.90805 4.35707 0
M  V30 5525 C 743.499 5.16382 3.14469 0
M  V30 5526 H 746.978 6.21428 2.0318 0
M  V30 5527 H 748.461 7.86112 2.9231 0
M  V30 5528 H 746.767 9.11171 4.55987 0
M  V30 5529 H 746.577 9.9573 2.34194 0
M  V30 5530 H 744.947 9.2792 2.67832 0
M  V30 5531 H 745.789 6.16575 1.12198 0
M  V30 5532 H 747.587 4.67628 4.28704 0
M  V30 5533 P 749.445 7.39546 4.75277 0
M  V30 5534 O 750.867 7.81777 5.05738 0
M  V30 5535 O 749.085 7.1065 3.32998 0
M  V30 5536 O 749.122 6.04542 5.56673 0
M  V30 5537 C 748.962 6.22772 7.02095 0
M  V30 5538 C 749.502 4.97725 7.70406 0
M  V30 5539 O 748.446 4.13256 7.58987 0
M  V30 5540 C 750.72 4.28231 7.11815 0
M  V30 5541 O 751.458 3.49945 8.01648 0
M  V30 5542 C 750.051 3.5063 5.96244 0
M  V30 5543 O 750.85 2.36482 5.64681 0
M  V30 5544 C 748.714 3.15122 6.56374 0
M  V30 5545 H 748.746 2.13853 6.99751 0
M  V30 5546 H 749.929 4.13501 5.06559 0
M  V30 5547 H 751.413 5.03285 6.70911 0
M  V30 5548 H 749.719 5.20877 8.75697 0
M  V30 5549 H 749.529 7.11046 7.35349 0
M  V30 5550 H 747.899 6.35815 7.26986 0
M  V30 5551 H 750.538 1.61644 6.13565 0
M  V30 5552 P 752.395 3.65191 7.99657 0
M  V30 5553 O 753.817 3.8425 8.48115 0
M  V30 5554 O 752.035 4.17805 6.64342 0
M  V30 5555 O 752.072 2.07613 7.95143 0
M  V30 5556 C 751.912 1.44328 9.27336 0
M  V30 5557 C 752.452 0.0220036 9.17197 0
M  V30 5558 O 751.396 -0.626867 8.61923 0
M  V30 5559 C 753.67 -0.24586 8.30336 0
M  V30 5560 O 754.408 -1.39011 8.63583 0
M  V30 5561 C 753.001 -0.273849 6.91158 0
M  V30 5562 O 753.8 -1.06348 6.02892 0
M  V30 5563 C 751.664 -0.897649 7.22545 0
M  V30 5564 H 751.696 -1.9841 7.04286 0
M  V30 5565 H 752.879 0.739928 6.497 0
M  V30 5566 H 754.363 0.60668 8.36503 0
M  V30 5567 H 752.669 -0.352479 10.1829 0
M  V30 5568 H 752.479 2.00611 10.0304 0
M  V30 5569 H 750.849 1.41843 9.55327 0
M  V30 5570 H 753.488 -1.95734 6.03555 0
M  V30 5571 P 755.346 -1.25109 8.70152 0
M  V30 5572 O 756.767 -1.35288 9.2132 0
M  V30 5573 O 754.986 -0.0769065 7.84762 0
M  V30 5574 O 755.023 -2.55232 7.81161 0
M  V30 5575 C 754.862 -3.79979 8.58246 0
M  V30 5576 C 755.403 -4.94023 7.72785 0
M  V30 5577 O 754.348 -5.18666 6.91125 0
M  V30 5578 C 756.621 -4.69597 6.85231 0
M  V30 5579 O 757.359 -5.83832 6.51337 0
M  V30 5580 C 755.953 -3.96706 5.66633 0
M  V30 5581 O 756.751 -4.14896 4.5003 0
M  V30 5582 C 754.615 -4.66153 5.59313 0
M  V30 5583 N 753.572 -3.71582 5.24027 0
M  V30 5584 C 753.741 -2.39715 5.48833 0
M  V30 5585 N 752.714 -1.65863 5.12845 0
M  V30 5586 C 751.829 -2.57637 4.5973 0
M  V30 5587 C 750.562 -2.40278 4.01027 0
M  V30 5588 N 749.997 -3.57711 3.59575 0
M  V30 5589 C 750.599 -4.80324 3.70476 0
M  V30 5590 N 751.776 -5.01121 4.23801 0
M  V30 5591 C 752.351 -3.84757 4.66372 0
M  V30 5592 H 755.83 -2.8955 5.86187 0
M  V30 5593 H 757.313 -4.0121 7.36511 0
M  V30 5594 H 755.619 -5.81019 8.37003 0
M  V30 5595 H 755.429 -3.73517 9.52265 0
M  V30 5596 H 753.799 -3.97163 8.80359 0
M  V30 5597 H 754.641 -1.98804 5.94332 0
M  V30 5598 H 756.439 -4.90891 4.01857 0
M  V30 5599 P 758.296 -5.75688 6.64379 0
M  V30 5600 O 759.718 -6.11849 7.01846 0
M  V30 5601 O 757.936 -4.30744 6.56026 0
M  V30 5602 O 757.973 -6.37042 5.19165 0
M  V30 5603 C 757.813 -7.83578 5.16515 0
M  V30 5604 C 758.353 -8.33398 3.83019 0
M  V30 5605 O 757.297 -8.10074 3.01034 0
M  V30 5606 C 759.571 -7.65514 3.2257 0
M  V30 5607 O 760.309 -8.4329 2.32297 0
M  V30 5608 C 758.902 -6.40075 2.62207 0
M  V30 5609 O 759.701 -5.92589 1.53712 0
M  V30 5610 C 757.565 -6.9454 2.18503 0
M  V30 5611 H 757.597 -7.23063 1.12091 0
M  V30 5612 H 758.78 -5.6025 3.37201 0
M  V30 5613 H 760.264 -7.35707 4.02681 0
M  V30 5614 H 758.57 -9.40912 3.9095 0
M  V30 5615 H 758.38 -8.29056 5.99158 0
M  V30 5616 H 756.75 -8.10073 5.25882 0
M  V30 5617 H 759.389 -6.30324 0.726794 0
M  V30 5618 P 761.247 -8.4349 2.47671 0
M  V30 5619 O 762.669 -8.94359 2.59696 0
M  V30 5620 O 760.887 -7.1704 3.19006 0
M  V30 5621 O 760.924 -8.16596 0.923387 0
M  V30 5622 C 760.764 -9.38437 0.108857 0
M  V30 5623 C 761.304 -9.08076 -1.28339 0
M  V30 5624 O 760.249 -8.44229 -1.84713 0
M  V30 5625 C 762.522 -8.18386 -1.42505 0
M  V30 5626 O 763.26 -8.3501 -2.60497 0
M  V30 5627 C 761.854 -6.80225 -1.25468 0
M  V30 5628 O 762.652 -5.81526 -1.91035 0
M  V30 5629 C 760.516 -7.02416 -1.9168 0
M  V30 5630 N 759.473 -6.31033 -1.20314 0
M  V30 5631 C 759.535 -6.18781 0.121293 0
M  V30 5632 N 758.49 -5.49762 0.588272 0
M  V30 5633 C 757.756 -5.22015 -0.488988 0
M  V30 5634 C 756.45 -4.61966 -0.596448 0
M  V30 5635 O 755.717 -4.19162 0.309059 0
M  V30 5636 N 756.02 -4.53773 -1.878 0
M  V30 5637 C 756.769 -4.99623 -2.99082 0
M  V30 5638 N 756.172 -4.78912 -4.21227 0
M  V30 5639 N 757.922 -5.59957 -2.91093 0
M  V30 5640 C 758.379 -5.70225 -1.64218 0
M  V30 5641 H 760.548 -6.6888 -2.96621 0
M  V30 5642 H 761.731 -6.53517 -0.192194 0
M  V30 5643 H 763.216 -8.36563 -0.598329 0
M  V30 5644 H 761.521 -10.0291 -1.79807 0
M  V30 5645 H 761.331 -10.2138 0.558219 0
M  V30 5646 H 759.7 -9.6579 0.0444202 0
M  V30 5647 H 755.124 -4.12883 -2.05283 0
M  V30 5648 H 760.331 -6.59596 0.745856 0
M  V30 5649 H 755.261 -4.31425 -4.2628 0
M  V30 5650 H 756.637 -5.11219 -5.07148 0
M  V30 5651 H 762.341 -5.69466 -2.79593 0
M  V30 5652 P 764.198 -8.4349 -2.47671 0
M  V30 5653 O 765.62 -8.92593 -2.65 0
M  V30 5654 O 763.838 -7.7568 -1.19296 0
M  V30 5655 O 763.875 -7.36886 -3.63805 0
M  V30 5656 C 763.715 -7.95349 -4.982 0
M  V30 5657 C 764.255 -6.94612 -5.98974 0
M  V30 5658 O 763.199 -6.10347 -6.11815 0
M  V30 5659 C 765.473 -6.11426 -5.62335 0
M  V30 5660 O 766.211 -5.6162 -6.70584 0
M  V30 5661 C 764.804 -5.04409 -4.73308 0
M  V30 5662 O 765.603 -3.85992 -4.75183 0
M  V30 5663 C 763.467 -4.8728 -5.41006 0
M  V30 5664 H 763.499 -4.02333 -6.11157 0
M  V30 5665 H 764.682 -5.39466 -3.69543 0
M  V30 5666 H 766.166 -6.71916 -5.01943 0
M  V30 5667 H 764.472 -7.4649 -6.93477 0
M  V30 5668 H 764.282 -8.89416 -5.05237 0
M  V30 5669 H 762.652 -8.14876 -5.18409 0
M  V30 5670 H 765.291 -3.27957 -5.4317 0
M  V30 5671 P 767.148 -5.75688 -6.64379 0
M  V30 5672 O 768.57 -6.07627 -7.05504 0
M  V30 5673 O 766.788 -5.88047 -5.19722 0
M  V30 5674 O 766.825 -4.2322 -7.04443 0
M  V30 5675 C 766.665 -3.99743 -8.4911 0
M  V30 5676 C 767.205 -2.60516 -8.79425 0
M  V30 5677 O 766.149 -1.82684 -8.4467 0
M  V30 5678 C 768.423 -2.10343 -8.03628 0
M  V30 5679 O 769.161 -1.09919 -8.67766 0
M  V30 5680 C 767.754 -1.68446 -6.70876 0
M  V30 5681 O 768.553 -0.678137 -6.08433 0
M  V30 5682 C 766.417 -1.17436 -7.18567 0
M  V30 5683 H 766.449 -0.0804732 -7.31656 0
M  V30 5684 H 767.632 -2.54037 -6.02537 0
M  V30 5685 H 769.116 -2.93881 -7.85526 0
M  V30 5686 H 767.422 -2.53065 -9.86973 0
M  V30 5687 H 767.232 -4.75072 -9.05887 0
M  V30 5688 H 765.602 -4.05244 -8.76668 0
M  V30 5689 H 768.241 0.177647 -6.34251 0
M  V30 5690 P 770.099 -1.25109 -8.70152 0
M  V30 5691 O 771.521 -1.29744 -9.22016 0
M  V30 5692 O 769.739 -2.13714 -7.55141 0
M  V30 5693 O 769.776 0.248149 -8.21425 0
M  V30 5694 C 769.616 1.22779 -9.30434 0
M  V30 5695 C 770.156 2.56293 -8.80664 0
M  V30 5696 O 769.1 3.02979 -8.09349 0
M  V30 5697 C 771.374 2.57523 -7.89775 0
M  V30 5698 O 772.112 3.7668 -7.89438 0
M  V30 5699 C 770.705 2.20997 -6.55446 0
M  V30 5700 O 771.504 2.71895 -5.48509 0
M  V30 5701 C 769.368 2.89693 -6.67988 0
M  V30 5702 H 769.4 3.88793 -6.19859 0
M  V30 5703 H 770.583 1.12046 -6.44229 0
M  V30 5704 H 772.067 1.7746 -8.19711 0
M  V30 5705 H 770.373 3.20706 -9.67112 0
M  V30 5706 H 770.183 0.901032 -10.1892 0
M  V30 5707 H 768.553 1.33049 -9.56592 0
M  V30 5708 H 771.192 3.57847 -5.23962 0
M  V30 5709 P 773.049 3.65191 -7.99657 0
M  V30 5710 O 774.471 3.89332 -8.45794 0
M  V30 5711 O 772.689 2.28472 -7.50807 0
M  V30 5712 O 772.726 4.64972 -6.77611 0
M  V30 5713 C 772.566 6.06319 -7.16352 0
M  V30 5714 C 773.106 6.91731 -6.02299 0
M  V30 5715 O 772.05 6.92449 -5.17064 0
M  V30 5716 C 774.324 6.43627 -5.25174 0
M  V30 5717 O 775.062 7.43686 -4.60469 0
M  V30 5718 C 773.655 5.40275 -4.31916 0
M  V30 5719 O 774.454 5.25279 -3.14438 0
M  V30 5720 C 772.318 6.04847 -4.05327 0
M  V30 5721 H 772.35 6.62195 -3.11261 0
M  V30 5722 H 773.533 4.42556 -4.81383 0
M  V30 5723 H 775.017 5.92458 -5.93643 0
M  V30 5724 H 773.323 7.92655 -6.402 0
M  V30 5725 H 773.133 6.26671 -8.0846 0
M  V30 5726 H 771.503 6.29101 -7.32804 0
M  V30 5727 H 774.142 5.84315 -2.47318 0
M  V30 5728 P 776 7.39546 -4.75277 0
M  V30 5729 O 777.421 7.84882 -5.01092 0
M  V30 5730 O 775.64 5.9812 -5.08098 0
M  V30 5731 O 775.677 7.57503 -3.1866 0
M  V30 5732 C 775.516 8.97452 -2.74862 0
M  V30 5733 C 776.057 9.07548 -1.32709 0
M  V30 5734 O 775.002 8.61972 -0.606089 0
M  V30 5735 C 777.275 8.25383 -0.938334 0
M  V30 5736 O 778.013 8.74577 0.146954 0
M  V30 5737 C 776.607 6.8802 -0.712559 0
M  V30 5738 O 777.405 6.1181 0.188505 0
M  V30 5739 C 775.269 7.27966 -0.139777 0
M  V30 5740 N 774.226 6.39368 -0.623421 0
M  V30 5741 C 774.395 5.71761 -1.78245 0
M  V30 5742 N 773.368 4.962 -2.10491 0
M  V30 5743 C 772.483 5.16158 -1.0635 0
M  V30 5744 C 771.216 4.60425 -0.810266 0
M  V30 5745 N 770.651 5.06 0.348685 0
M  V30 5746 C 771.253 5.94532 1.20395 0
M  V30 5747 N 772.43 6.48452 1.01191 0
M  V30 5748 C 773.005 6.04423 -0.146291 0
M  V30 5749 H 776.484 6.32625 -1.65044 0
M  V30 5750 H 777.967 8.19355 -1.79097 0
M  V30 5751 H 776.273 10.1305 -1.09016 0
M  V30 5752 H 776.083 9.64276 -3.41316 0
M  V30 5753 H 774.453 9.25417 -2.76357 0
M  V30 5754 H 775.295 5.79354 -2.38959 0
M  V30 5755 H 777.093 6.25169 1.0783 0
M  V30 5756 P 778.95 8.791 5.69499e-12 0
M  V30 5757 O 780.372 9.31096 0.027933 0
M  V30 5758 O 778.59 7.77869 -1.04071 0
M  V30 5759 O 778.627 8.09533 1.41463 0
M  V30 5760 C 778.467 9.0349 2.53943 0
M  V30 5761 C 779.007 8.35226 3.79016 0
M  V30 5762 O 777.951 7.57992 4.15078 0
M  V30 5763 C 780.225 7.45087 3.67298 0
M  V30 5764 O 780.963 7.27796 4.85194 0
M  V30 5765 C 779.556 6.17323 3.12027 0
M  V30 5766 O 780.355 5.04231 3.47188 0
M  V30 5767 C 778.219 6.19961 3.81809 0
M  V30 5768 H 778.251 5.58218 4.73051 0
M  V30 5769 H 779.434 6.21726 2.02589 0
M  V30 5770 H 780.918 7.86112 2.9231 0
M  V30 5771 H 779.224 9.11627 4.55076 0
M  V30 5772 H 779.034 9.9573 2.34194 0
M  V30 5773 H 777.404 9.2792 2.67832 0
M  V30 5774 H 780.043 4.67702 4.28772 0
M  V30 5775 P 781.901 7.39546 4.75277 0
M  V30 5776 O 783.322 7.81861 5.05793 0
M  V30 5777 O 781.541 7.1065 3.32998 0
M  V30 5778 O 781.578 6.04542 5.56673 0
M  V30 5779 C 781.417 6.22839 7.02169 0
M  V30 5780 C 781.958 4.97725 7.70406 0
M  V30 5781 O 780.903 4.13208 7.58899 0
M  V30 5782 C 783.176 4.28231 7.11815 0
M  V30 5783 O 783.914 3.49945 8.01648 0
M  V30 5784 C 782.508 3.5063 5.96244 0
M  V30 5785 O 783.306 2.37008 5.64352 0
M  V30 5786 C 781.17 3.15122 6.56374 0
M  V30 5787 N 780.127 3.22311 5.55692 0
M  V30 5788 C 780.296 3.99655 4.46046 0
M  V30 5789 N 779.269 3.97599 3.63918 0
M  V30 5790 C 778.384 3.11159 4.25334 0
M  V30 5791 C 777.117 2.64972 3.85157 0
M  V30 5792 N 776.518 3.02132 2.69405 0
M  V30 5793 N 776.552 1.78482 4.74759 0
M  V30 5794 C 777.154 1.37463 5.90819 0
M  V30 5795 N 778.331 1.7733 6.31889 0
M  V30 5796 C 778.906 2.64393 5.43725 0
M  V30 5797 H 781.202 2.13823 6.99656 0
M  V30 5798 H 782.385 4.12931 5.06895 0
M  V30 5799 H 783.868 5.03285 6.70911 0
M  V30 5800 H 782.174 5.20001 8.76217 0
M  V30 5801 H 781.984 7.11046 7.35349 0
M  V30 5802 H 780.354 6.35815 7.26986 0
M  V30 5803 H 776.618 0.66574 6.53015 0
M  V30 5804 H 781.196 4.58037 4.27732 0
M  V30 5805 H 775.588 2.64828 2.45331 0
M  V30 5806 H 776.992 3.67472 2.05644 0
M  V30 5807 H 782.994 1.61619 6.13468 0
M  V30 5808 P 784.852 3.65191 7.99657 0
M  V30 5809 O 786.253 3.90823 8.51272 0
M  V30 5810 O 784.474 4.23191 6.66972 0
M  V30 5811 O 784.529 2.07587 7.95046 0
M  V30 5812 C 784.369 1.44328 9.27336 0
M  V30 5813 C 784.909 0.0220012 9.17097 0
M  V30 5814 O 783.853 -0.626794 8.61824 0
M  V30 5815 C 786.126 -0.24586 8.30336 0
M  V30 5816 O 786.865 -1.39011 8.63583 0
M  V30 5817 C 785.459 -0.273849 6.91158 0
M  V30 5818 O 786.257 -1.06331 6.02794 0
M  V30 5819 C 784.121 -0.897649 7.22545 0
M  V30 5820 N 783.078 -0.292839 6.41732 0
M  V30 5821 C 782.043 -1.08701 5.98712 0
M  V30 5822 O 782.082 -2.31211 6.24471 0
M  V30 5823 N 781.031 -0.533391 5.28415 0
M  V30 5824 C 781.079 0.770866 4.98576 0
M  V30 5825 N 780.069 1.29482 4.30134 0
M  V30 5826 C 782.175 1.59049 5.38086 0
M  V30 5827 C 783.141 1.01866 6.10256 0
M  V30 5828 H 784.153 -1.98383 7.04189 0
M  V30 5829 H 785.336 0.733318 6.49674 0
M  V30 5830 H 786.82 0.598386 8.36663 0
M  V30 5831 H 785.126 -0.362662 10.1825 0
M  V30 5832 H 784.935 2.00611 10.0304 0
M  V30 5833 H 783.305 1.41828 9.55228 0
M  V30 5834 H 782.223 2.6415 5.10622 0
M  V30 5835 H 783.987 1.61983 6.44042 0
M  V30 5836 H 779.279 0.69888 4.01361 0
M  V30 5837 H 780.074 2.29327 4.05781 0
M  V30 5838 H 786.041 -1.97777 6.14035 0
M  V30 5839 P 787.802 -1.25109 8.70152 0
M  V30 5840 O 789.224 -1.35274 9.21221 0
M  V30 5841 O 787.442 -0.0769065 7.84762 0
M  V30 5842 O 787.479 -2.55232 7.81161 0
M  V30 5843 C 787.319 -3.79939 8.58154 0
M  V30 5844 C 787.859 -4.94023 7.72785 0
M  V30 5845 O 786.803 -5.18726 6.91205 0
M  V30 5846 C 789.077 -4.69597 6.85231 0
M  V30 5847 O 789.815 -5.83832 6.51337 0
M  V30 5848 C 788.408 -3.96706 5.66633 0
M  V30 5849 O 789.207 -4.15414 4.49689 0
M  V30 5850 C 787.071 -4.66153 5.59313 0
M  V30 5851 H 787.103 -5.47679 4.85214 0
M  V30 5852 H 788.286 -2.89008 5.86566 0
M  V30 5853 H 789.77 -4.0121 7.36511 0
M  V30 5854 H 788.076 -5.80182 8.37584 0
M  V30 5855 H 787.886 -3.73517 9.52265 0
M  V30 5856 H 786.256 -3.97163 8.80359 0
M  V30 5857 H 788.895 -4.90969 4.01921 0
M  V30 5858 P 790.753 -5.75688 6.64379 0
M  V30 5859 O 792.175 -6.11849 7.01846 0
M  V30 5860 O 790.393 -4.30744 6.56026 0
M  V30 5861 O 790.43 -6.37042 5.19165 0
M  V30 5862 C 790.27 -7.83578 5.16515 0
M  V30 5863 C 790.81 -8.33398 3.83019 0
M  V30 5864 O 789.754 -8.10074 3.01034 0
M  V30 5865 C 792.028 -7.65514 3.2257 0
M  V30 5866 O 792.766 -8.4329 2.32297 0
M  V30 5867 C 791.359 -6.40075 2.62207 0
M  V30 5868 O 792.158 -5.92589 1.53712 0
M  V30 5869 C 790.022 -6.9454 2.18503 0
M  V30 5870 H 790.054 -7.23063 1.12091 0
M  V30 5871 H 791.237 -5.6025 3.37201 0
M  V30 5872 H 792.721 -7.35707 4.02681 0
M  V30 5873 H 791.027 -9.40912 3.9095 0
M  V30 5874 H 790.837 -8.29056 5.99158 0
M  V30 5875 H 789.207 -8.10073 5.25882 0
M  V30 5876 H 791.846 -6.30324 0.726794 0
M  V30 5877 P 793.703 -8.4349 2.47671 0
M  V30 5878 O 795.125 -8.94167 2.5964 0
M  V30 5879 O 793.343 -7.1704 3.19006 0
M  V30 5880 O 793.38 -8.16596 0.923387 0
M  V30 5881 C 793.22 -9.38437 0.108857 0
M  V30 5882 C 793.76 -9.08175 -1.28353 0
M  V30 5883 O 792.704 -8.44229 -1.84713 0
M  V30 5884 C 794.978 -8.18386 -1.42505 0
M  V30 5885 O 795.716 -8.3501 -2.60497 0
M  V30 5886 C 794.309 -6.80225 -1.25468 0
M  V30 5887 O 795.108 -5.81621 -1.91066 0
M  V30 5888 C 792.972 -7.02416 -1.9168 0
M  V30 5889 H 793.004 -6.6888 -2.96621 0
M  V30 5890 H 794.187 -6.53617 -0.192223 0
M  V30 5891 H 795.671 -8.36622 -0.589963 0
M  V30 5892 H 793.977 -10.0291 -1.79807 0
M  V30 5893 H 793.787 -10.2138 0.558219 0
M  V30 5894 H 792.157 -9.6579 0.0444202 0
M  V30 5895 H 794.796 -5.69556 -2.79637 0
M  V30 5896 P 796.654 -8.4349 -2.47671 0
M  V30 5897 O 798.076 -8.92593 -2.65 0
M  V30 5898 O 796.294 -7.7568 -1.19296 0
M  V30 5899 O 796.331 -7.36886 -3.63805 0
M  V30 5900 C 796.171 -7.95349 -4.982 0
M  V30 5901 C 796.711 -6.94612 -5.98974 0
M  V30 5902 O 795.655 -6.10347 -6.11815 0
M  V30 5903 C 797.929 -6.11426 -5.62335 0
M  V30 5904 O 798.667 -5.6162 -6.70584 0
M  V30 5905 C 797.26 -5.04409 -4.73308 0
M  V30 5906 O 798.059 -3.85992 -4.75183 0
M  V30 5907 C 795.923 -4.8728 -5.41006 0
M  V30 5908 H 795.955 -4.02333 -6.11157 0
M  V30 5909 H 797.138 -5.39466 -3.69543 0
M  V30 5910 H 798.622 -6.71916 -5.01943 0
M  V30 5911 H 796.928 -7.4649 -6.93477 0
M  V30 5912 H 796.738 -8.89416 -5.05237 0
M  V30 5913 H 795.108 -8.14876 -5.18409 0
M  V30 5914 H 797.747 -3.27957 -5.4317 0
M  V30 5915 P 799.604 -5.75688 -6.64379 0
M  V30 5916 O 801.025 -6.07692 -7.0558 0
M  V30 5917 O 799.244 -5.88047 -5.19722 0
M  V30 5918 O 799.281 -4.2322 -7.04443 0
M  V30 5919 C 799.12 -3.99785 -8.49201 0
M  V30 5920 C 799.661 -2.60516 -8.79425 0
M  V30 5921 O 798.606 -1.82663 -8.44573 0
M  V30 5922 C 800.879 -2.10343 -8.03628 0
M  V30 5923 O 801.617 -1.09919 -8.67766 0
M  V30 5924 C 800.211 -1.68446 -6.70876 0
M  V30 5925 O 801.009 -0.684109 -6.08265 0
M  V30 5926 C 798.873 -1.17436 -7.18567 0
M  V30 5927 N 797.83 -1.52699 -6.23988 0
M  V30 5928 C 797.999 -2.578 -5.40574 0
M  V30 5929 N 796.972 -2.78966 -4.61193 0
M  V30 5930 C 796.087 -1.78725 -4.95769 0
M  V30 5931 C 794.82 -1.45727 -4.44207 0
M  V30 5932 N 794.255 -0.374977 -5.05812 0
M  V30 5933 C 794.857 0.345585 -6.05615 0
M  V30 5934 N 796.034 0.0787651 -6.56253 0
M  V30 5935 C 796.609 -1.00499 -5.96189 0
M  V30 5936 H 800.088 -2.53396 -6.02698 0
M  V30 5937 H 801.571 -2.93881 -7.85526 0
M  V30 5938 H 799.877 -2.52078 -9.87225 0
M  V30 5939 H 799.687 -4.75072 -9.05887 0
M  V30 5940 H 798.057 -4.05244 -8.76668 0
M  V30 5941 H 798.899 -3.18977 -5.3945 0
M  V30 5942 H 800.697 0.177619 -6.34151 0
M  V30 5943 P 802.555 -1.25109 -8.70152 0
M  V30 5944 O 803.976 -1.29758 -9.22115 0
M  V30 5945 O 802.195 -2.13714 -7.55141 0
M  V30 5946 O 802.232 0.248149 -8.21425 0
M  V30 5947 C 802.071 1.22792 -9.30533 0
M  V30 5948 C 802.612 2.56293 -8.80664 0
M  V30 5949 O 801.557 3.02944 -8.09255 0
M  V30 5950 C 803.83 2.57523 -7.89775 0
M  V30 5951 O 804.568 3.7668 -7.89438 0
M  V30 5952 C 803.162 2.20997 -6.55446 0
M  V30 5953 O 803.96 2.71302 -5.48691 0
M  V30 5954 C 801.824 2.89693 -6.67988 0
M  V30 5955 N 800.781 2.08895 -6.07487 0
M  V30 5956 C 800.95 0.753809 -5.94137 0
M  V30 5957 N 799.923 0.146592 -5.38801 0
M  V30 5958 C 799.038 1.1768 -5.13693 0
M  V30 5959 C 797.771 1.17563 -4.52477 0
M  V30 5960 N 797.206 2.41918 -4.45789 0
M  V30 5961 C 797.808 3.56493 -4.90792 0
M  V30 5962 N 798.985 3.61423 -5.47817 0
M  V30 5963 C 799.56 2.37779 -5.5588 0
M  V30 5964 H 803.039 1.12673 -6.44018 0
M  V30 5965 H 804.522 1.7746 -8.19711 0
M  V30 5966 H 802.828 3.21673 -9.66791 0
M  V30 5967 H 802.638 0.901032 -10.1892 0
M  V30 5968 H 801.008 1.33049 -9.56592 0
M  V30 5969 H 801.85 0.233081 -6.26266 0
M  V30 5970 H 803.648 3.5779 -5.23879 0
M  V30 5971 P 805.506 3.65191 -7.99657 0
M  V30 5972 O 806.907 3.87414 -8.52829 0
M  V30 5973 O 805.128 2.26932 -7.566 0
M  V30 5974 O 805.183 4.64915 -6.77529 0
M  V30 5975 C 805.023 6.06319 -7.16352 0
M  V30 5976 C 805.563 6.91655 -6.02234 0
M  V30 5977 O 804.507 6.92369 -5.17005 0
M  V30 5978 C 806.78 6.43627 -5.25174 0
M  V30 5979 O 807.519 7.43686 -4.60469 0
M  V30 5980 C 806.113 5.40275 -4.31916 0
M  V30 5981 O 806.911 5.25193 -3.14386 0
M  V30 5982 C 804.775 6.04847 -4.05327 0
M  V30 5983 N 803.732 5.04166 -3.98114 0
M  V30 5984 C 802.697 5.2366 -3.09923 0
M  V30 5985 O 802.736 6.23355 -2.34204 0
M  V30 5986 N 801.685 4.34279 -3.05727 0
M  V30 5987 C 801.733 3.26317 -3.84756 0
M  V30 5988 N 800.723 2.40281 -3.79534 0
M  V30 5989 C 802.829 3.02504 -4.72573 0
M  V30 5990 C 803.795 3.94493 -4.76618 0
M  V30 5991 H 804.807 6.62104 -3.11218 0
M  V30 5992 H 805.99 4.42969 -4.80867 0
M  V30 5993 H 807.474 5.93122 -5.93121 0
M  V30 5994 H 805.78 7.93295 -6.39407 0
M  V30 5995 H 805.589 6.26671 -8.0846 0
M  V30 5996 H 803.959 6.29036 -7.32728 0
M  V30 5997 H 802.877 2.12921 -5.34017 0
M  V30 5998 H 804.641 3.80658 -5.44176 0
M  V30 5999 H 799.933 2.57561 -3.15653 0
M  V30 6000 H 800.728 1.56492 -4.39044 0
M  V30 6001 H 806.695 5.93572 -2.52637 0
M  V30 6002 P 808.456 7.39546 -4.75277 0
M  V30 6003 O 809.878 7.84798 -5.01039 0
M  V30 6004 O 808.096 5.9812 -5.08098 0
M  V30 6005 O 808.133 7.57503 -3.1866 0
M  V30 6006 C 807.973 8.97357 -2.74833 0
M  V30 6007 C 808.513 9.07548 -1.32709 0
M  V30 6008 O 807.457 8.62072 -0.606159 0
M  V30 6009 C 809.731 8.25383 -0.938334 0
M  V30 6010 O 810.469 8.74577 0.146954 0
M  V30 6011 C 809.062 6.8802 -0.712559 0
M  V30 6012 O 809.861 6.1189 0.194655 0
M  V30 6013 C 807.725 7.27966 -0.139777 0
M  V30 6014 H 807.757 7.25354 0.961601 0
M  V30 6015 H 808.94 6.32557 -1.65702 0
M  V30 6016 H 810.424 8.19355 -1.79097 0
M  V30 6017 H 808.73 10.1294 -1.10029 0
M  V30 6018 H 808.54 9.64276 -3.41316 0
M  V30 6019 H 806.91 9.25417 -2.76357 0
M  V30 6020 H 809.549 6.25267 1.07847 0
M  V30 6021 P 811.407 8.791 6.00516e-12 0
M  V30 6022 O 812.829 9.31096 0.027933 0
M  V30 6023 O 811.047 7.77869 -1.04071 0
M  V30 6024 O 811.084 8.09533 1.41463 0
M  V30 6025 C 810.924 9.0349 2.53943 0
M  V30 6026 C 811.464 8.35226 3.79016 0
M  V30 6027 O 810.408 7.57992 4.15078 0
M  V30 6028 C 812.682 7.45087 3.67298 0
M  V30 6029 O 813.42 7.27796 4.85194 0
M  V30 6030 C 812.013 6.17323 3.12027 0
M  V30 6031 O 812.812 5.04231 3.47188 0
M  V30 6032 C 810.676 6.19961 3.81809 0
M  V30 6033 H 810.708 5.58218 4.73051 0
M  V30 6034 H 811.891 6.21726 2.02589 0
M  V30 6035 H 813.375 7.86112 2.9231 0
M  V30 6036 H 811.681 9.11627 4.55076 0
M  V30 6037 H 811.491 9.9573 2.34194 0
M  V30 6038 H 809.861 9.2792 2.67832 0
M  V30 6039 H 812.5 4.67702 4.28772 0
M  V30 6040 P 814.357 7.39546 4.75277 0
M  V30 6041 O 815.778 7.81861 5.05793 0
M  V30 6042 O 813.997 7.1065 3.32998 0
M  V30 6043 O 814.034 6.04542 5.56673 0
M  V30 6044 C 813.873 6.22839 7.02169 0
M  V30 6045 C 814.414 4.97725 7.70406 0
M  V30 6046 O 813.359 4.13208 7.58899 0
M  V30 6047 C 815.632 4.28231 7.11815 0
M  V30 6048 O 816.37 3.49945 8.01648 0
M  V30 6049 C 814.964 3.5063 5.96244 0
M  V30 6050 O 815.762 2.37008 5.64352 0
M  V30 6051 C 813.626 3.15122 6.56374 0
M  V30 6052 N 812.583 3.22311 5.55692 0
M  V30 6053 C 812.752 3.99655 4.46046 0
M  V30 6054 N 811.725 3.97599 3.63918 0
M  V30 6055 C 810.84 3.11159 4.25334 0
M  V30 6056 C 809.573 2.64972 3.85157 0
M  V30 6057 N 808.974 3.02132 2.69405 0
M  V30 6058 N 809.008 1.78482 4.74759 0
M  V30 6059 C 809.61 1.37463 5.90819 0
M  V30 6060 N 810.787 1.7733 6.31889 0
M  V30 6061 C 811.362 2.64393 5.43725 0
M  V30 6062 H 813.658 2.13823 6.99656 0
M  V30 6063 H 814.841 4.12931 5.06895 0
M  V30 6064 H 816.324 5.03285 6.70911 0
M  V30 6065 H 814.63 5.20001 8.76217 0
M  V30 6066 H 814.44 7.11046 7.35349 0
M  V30 6067 H 812.81 6.35815 7.26986 0
M  V30 6068 H 809.074 0.66574 6.53015 0
M  V30 6069 H 813.652 4.58037 4.27732 0
M  V30 6070 H 808.044 2.64828 2.45331 0
M  V30 6071 H 809.448 3.67472 2.05644 0
M  V30 6072 H 815.45 1.61619 6.13468 0
M  V30 6073 P 817.308 3.65191 7.99657 0
M  V30 6074 O 818.73 3.8425 8.48115 0
M  V30 6075 O 816.948 4.17805 6.64342 0
M  V30 6076 O 816.985 2.07613 7.95143 0
M  V30 6077 C 816.825 1.44328 9.27336 0
M  V30 6078 C 817.365 0.0220036 9.17197 0
M  V30 6079 O 816.309 -0.626867 8.61923 0
M  V30 6080 C 818.583 -0.24586 8.30336 0
M  V30 6081 O 819.321 -1.39011 8.63583 0
M  V30 6082 C 817.914 -0.273849 6.91158 0
M  V30 6083 O 818.713 -1.06348 6.02892 0
M  V30 6084 C 816.577 -0.897649 7.22545 0
M  V30 6085 H 816.609 -1.9841 7.04286 0
M  V30 6086 H 817.792 0.739928 6.497 0
M  V30 6087 H 819.276 0.60668 8.36503 0
M  V30 6088 H 817.582 -0.352479 10.1829 0
M  V30 6089 H 817.392 2.00611 10.0304 0
M  V30 6090 H 815.762 1.41843 9.55327 0
M  V30 6091 H 818.401 -1.95734 6.03555 0
M  V30 6092 P 820.258 -1.25109 8.70152 0
M  V30 6093 O 821.68 -1.35274 9.21221 0
M  V30 6094 O 819.898 -0.0769065 7.84762 0
M  V30 6095 O 819.935 -2.55232 7.81161 0
M  V30 6096 C 819.775 -3.79939 8.58154 0
M  V30 6097 C 820.315 -4.94023 7.72785 0
M  V30 6098 O 819.259 -5.18726 6.91205 0
M  V30 6099 C 821.533 -4.69597 6.85231 0
M  V30 6100 O 822.271 -5.83832 6.51337 0
M  V30 6101 C 820.864 -3.96706 5.66633 0
M  V30 6102 O 821.663 -4.15414 4.49689 0
M  V30 6103 C 819.527 -4.66153 5.59313 0
M  V30 6104 H 819.559 -5.47679 4.85214 0
M  V30 6105 H 820.742 -2.89008 5.86566 0
M  V30 6106 H 822.226 -4.0121 7.36511 0
M  V30 6107 H 820.532 -5.80182 8.37584 0
M  V30 6108 H 820.342 -3.73517 9.52265 0
M  V30 6109 H 818.712 -3.97163 8.80359 0
M  V30 6110 H 821.351 -4.90969 4.01921 0
M  V30 6111 P 823.209 -5.75688 6.64379 0
M  V30 6112 O 824.631 -6.11849 7.01846 0
M  V30 6113 O 822.849 -4.30744 6.56026 0
M  V30 6114 O 822.886 -6.37042 5.19165 0
M  V30 6115 C 822.726 -7.83578 5.16515 0
M  V30 6116 C 823.266 -8.33398 3.83019 0
M  V30 6117 O 822.21 -8.10074 3.01034 0
M  V30 6118 C 824.484 -7.65514 3.2257 0
M  V30 6119 O 825.222 -8.4329 2.32297 0
M  V30 6120 C 823.815 -6.40075 2.62207 0
M  V30 6121 O 824.614 -5.92589 1.53712 0
M  V30 6122 C 822.478 -6.9454 2.18503 0
M  V30 6123 H 822.51 -7.23063 1.12091 0
M  V30 6124 H 823.693 -5.6025 3.37201 0
M  V30 6125 H 825.177 -7.35707 4.02681 0
M  V30 6126 H 823.483 -9.40912 3.9095 0
M  V30 6127 H 823.293 -8.29056 5.99158 0
M  V30 6128 H 821.663 -8.10073 5.25882 0
M  V30 6129 H 824.302 -6.30324 0.726794 0
M  V30 6130 P 826.16 -8.4349 2.47671 0
M  V30 6131 O 827.582 -8.94167 2.5964 0
M  V30 6132 O 825.8 -7.1704 3.19006 0
M  V30 6133 O 825.837 -8.16596 0.923387 0
M  V30 6134 C 825.677 -9.38437 0.108857 0
M  V30 6135 C 826.217 -9.08175 -1.28353 0
M  V30 6136 O 825.161 -8.44229 -1.84713 0
M  V30 6137 C 827.435 -8.18386 -1.42505 0
M  V30 6138 O 828.173 -8.3501 -2.60497 0
M  V30 6139 C 826.766 -6.80225 -1.25468 0
M  V30 6140 O 827.565 -5.81621 -1.91066 0
M  V30 6141 C 825.429 -7.02416 -1.9168 0
M  V30 6142 H 825.461 -6.6888 -2.96621 0
M  V30 6143 H 826.644 -6.53617 -0.192223 0
M  V30 6144 H 828.128 -8.36622 -0.589963 0
M  V30 6145 H 826.434 -10.0291 -1.79807 0
M  V30 6146 H 826.244 -10.2138 0.558219 0
M  V30 6147 H 824.614 -9.6579 0.0444202 0
M  V30 6148 H 827.253 -5.69556 -2.79637 0
M  V30 6149 P 829.11 -8.4349 -2.47671 0
M  V30 6150 O 830.532 -8.92593 -2.65 0
M  V30 6151 O 828.75 -7.7568 -1.19296 0
M  V30 6152 O 828.787 -7.36886 -3.63805 0
M  V30 6153 C 828.627 -7.95349 -4.982 0
M  V30 6154 C 829.167 -6.94612 -5.98974 0
M  V30 6155 O 828.111 -6.10347 -6.11815 0
M  V30 6156 C 830.385 -6.11426 -5.62335 0
M  V30 6157 O 831.123 -5.6162 -6.70584 0
M  V30 6158 C 829.716 -5.04409 -4.73308 0
M  V30 6159 O 830.515 -3.85992 -4.75183 0
M  V30 6160 C 828.379 -4.8728 -5.41006 0
M  V30 6161 H 828.411 -4.02333 -6.11157 0
M  V30 6162 H 829.594 -5.39466 -3.69543 0
M  V30 6163 H 831.078 -6.71916 -5.01943 0
M  V30 6164 H 829.384 -7.4649 -6.93477 0
M  V30 6165 H 829.194 -8.89416 -5.05237 0
M  V30 6166 H 827.564 -8.14876 -5.18409 0
M  V30 6167 H 830.203 -3.27957 -5.4317 0
M  V30 6168 P 832.061 -5.75688 -6.64379 0
M  V30 6169 O 833.482 -6.07692 -7.0558 0
M  V30 6170 O 831.701 -5.88047 -5.19722 0
M  V30 6171 O 831.738 -4.2322 -7.04443 0
M  V30 6172 C 831.577 -3.99785 -8.49201 0
M  V30 6173 C 832.118 -2.60516 -8.79425 0
M  V30 6174 O 831.063 -1.82663 -8.44573 0
M  V30 6175 C 833.336 -2.10343 -8.03628 0
M  V30 6176 O 834.074 -1.09919 -8.67766 0
M  V30 6177 C 832.668 -1.68446 -6.70876 0
M  V30 6178 O 833.466 -0.684109 -6.08265 0
M  V30 6179 C 831.33 -1.17436 -7.18567 0
M  V30 6180 N 830.287 -1.52699 -6.23988 0
M  V30 6181 C 830.456 -2.578 -5.40574 0
M  V30 6182 N 829.429 -2.78966 -4.61193 0
M  V30 6183 C 828.544 -1.78725 -4.95769 0
M  V30 6184 C 827.277 -1.45727 -4.44207 0
M  V30 6185 N 826.678 -2.13994 -3.43613 0
M  V30 6186 N 826.712 -0.374977 -5.05812 0
M  V30 6187 C 827.314 0.345585 -6.05615 0
M  V30 6188 N 828.491 0.0787651 -6.56253 0
M  V30 6189 C 829.066 -1.00499 -5.96189 0
M  V30 6190 H 831.362 -0.0804622 -7.31556 0
M  V30 6191 H 832.545 -2.53396 -6.02698 0
M  V30 6192 H 834.028 -2.93881 -7.85526 0
M  V30 6193 H 832.334 -2.52078 -9.87225 0
M  V30 6194 H 832.144 -4.75072 -9.05887 0
M  V30 6195 H 830.514 -4.05244 -8.76668 0
M  V30 6196 H 826.778 1.20098 -6.4532 0
M  V30 6197 H 831.356 -3.18977 -5.3945 0
M  V30 6198 H 825.748 -1.84983 -3.10004 0
M  V30 6199 H 827.152 -2.9465 -3.00843 0
M  V30 6200 H 833.154 0.177619 -6.34151 0
M  V30 6201 P 835.011 -1.25109 -8.70152 0
M  V30 6202 O 836.433 -1.29744 -9.22016 0
M  V30 6203 O 834.651 -2.13714 -7.55141 0
M  V30 6204 O 834.688 0.248149 -8.21425 0
M  V30 6205 C 834.528 1.22779 -9.30434 0
M  V30 6206 C 835.068 2.56293 -8.80664 0
M  V30 6207 O 834.012 3.02979 -8.09349 0
M  V30 6208 C 836.286 2.57523 -7.89775 0
M  V30 6209 O 837.024 3.7668 -7.89438 0
M  V30 6210 C 835.617 2.20997 -6.55446 0
M  V30 6211 O 836.416 2.71895 -5.48509 0
M  V30 6212 C 834.28 2.89693 -6.67988 0
M  V30 6213 H 834.312 3.88793 -6.19859 0
M  V30 6214 H 835.495 1.12046 -6.44229 0
M  V30 6215 H 836.979 1.7746 -8.19711 0
M  V30 6216 H 835.285 3.20706 -9.67112 0
M  V30 6217 H 835.095 0.901032 -10.1892 0
M  V30 6218 H 833.465 1.33049 -9.56592 0
M  V30 6219 H 836.104 3.57847 -5.23962 0
M  V30 6220 P 837.962 3.65191 -7.99657 0
M  V30 6221 O 839.383 3.89374 -8.45885 0
M  V30 6222 O 837.602 2.28472 -7.50807 0
M  V30 6223 O 837.639 4.64972 -6.77611 0
M  V30 6224 C 837.478 6.06383 -7.16428 0
M  V30 6225 C 838.019 6.91731 -6.02299 0
M  V30 6226 O 836.964 6.92369 -5.17005 0
M  V30 6227 C 839.237 6.43627 -5.25174 0
M  V30 6228 O 839.975 7.43686 -4.60469 0
M  V30 6229 C 838.569 5.40275 -4.31916 0
M  V30 6230 O 839.367 5.24878 -3.14911 0
M  V30 6231 C 837.231 6.04847 -4.05327 0
M  V30 6232 N 836.188 5.04166 -3.98114 0
M  V30 6233 C 836.357 3.84629 -4.59066 0
M  V30 6234 N 835.33 3.0363 -4.45343 0
M  V30 6235 C 834.445 3.76722 -3.68523 0
M  V30 6236 C 833.178 3.43528 -3.17088 0
M  V30 6237 N 832.579 2.23665 -3.37397 0
M  V30 6238 N 832.613 4.44526 -2.44231 0
M  V30 6239 C 833.215 5.65243 -2.20146 0
M  V30 6240 N 834.392 6.00221 -2.65453 0
M  V30 6241 C 834.967 5.00564 -3.39083 0
M  V30 6242 H 837.263 6.62104 -3.11218 0
M  V30 6243 H 838.446 4.42969 -4.80867 0
M  V30 6244 H 839.929 5.92458 -5.93643 0
M  V30 6245 H 838.235 7.93295 -6.39407 0
M  V30 6246 H 838.045 6.26671 -8.0846 0
M  V30 6247 H 836.415 6.29101 -7.32804 0
M  V30 6248 H 832.679 6.36894 -1.5883 0
M  V30 6249 H 837.257 3.58193 -5.14248 0
M  V30 6250 H 831.649 2.05145 -2.97047 0
M  V30 6251 H 833.053 1.51255 -3.92998 0
M  V30 6252 H 839.055 5.84223 -2.47279 0
M  V30 6253 P 840.912 7.39546 -4.75277 0
M  V30 6254 O 842.334 7.84798 -5.01039 0
M  V30 6255 O 840.552 5.9812 -5.08098 0
M  V30 6256 O 840.589 7.57503 -3.1866 0
M  V30 6257 C 840.429 8.97357 -2.74833 0
M  V30 6258 C 840.969 9.07548 -1.32709 0
M  V30 6259 O 839.913 8.62072 -0.606159 0
M  V30 6260 C 842.187 8.25383 -0.938334 0
M  V30 6261 O 842.925 8.74577 0.146954 0
M  V30 6262 C 841.518 6.8802 -0.712559 0
M  V30 6263 O 842.317 6.1189 0.194655 0
M  V30 6264 C 840.181 7.27966 -0.139777 0
M  V30 6265 H 840.213 7.25354 0.961601 0
M  V30 6266 H 841.396 6.32557 -1.65702 0
M  V30 6267 H 842.88 8.19355 -1.79097 0
M  V30 6268 H 841.186 10.1294 -1.10029 0
M  V30 6269 H 840.996 9.64276 -3.41316 0
M  V30 6270 H 839.366 9.25417 -2.76357 0
M  V30 6271 H 842.005 6.25267 1.07847 0
M  V30 6272 P 843.863 8.791 6.31533e-12 0
M  V30 6273 O 845.285 9.31096 0.027933 0
M  V30 6274 O 843.503 7.77869 -1.04071 0
M  V30 6275 O 843.54 8.09533 1.41463 0
M  V30 6276 C 843.38 9.0349 2.53943 0
M  V30 6277 C 843.92 8.35226 3.79016 0
M  V30 6278 O 842.864 7.57992 4.15078 0
M  V30 6279 C 845.138 7.45087 3.67298 0
M  V30 6280 O 845.876 7.27796 4.85194 0
M  V30 6281 C 844.469 6.17323 3.12027 0
M  V30 6282 O 845.268 5.04231 3.47188 0
M  V30 6283 C 843.132 6.19961 3.81809 0
M  V30 6284 H 843.164 5.58218 4.73051 0
M  V30 6285 H 844.347 6.21726 2.02589 0
M  V30 6286 H 845.831 7.86112 2.9231 0
M  V30 6287 H 844.137 9.11627 4.55076 0
M  V30 6288 H 843.947 9.9573 2.34194 0
M  V30 6289 H 842.317 9.2792 2.67832 0
M  V30 6290 H 844.956 4.67702 4.28772 0
M  V30 6291 P 846.814 7.39546 4.75277 0
M  V30 6292 O 848.236 7.81777 5.05738 0
M  V30 6293 O 846.454 7.1065 3.32998 0
M  V30 6294 O 846.491 6.04542 5.56673 0
M  V30 6295 C 846.331 6.22772 7.02095 0
M  V30 6296 C 846.871 4.97725 7.70406 0
M  V30 6297 O 845.815 4.13256 7.58987 0
M  V30 6298 C 848.089 4.28231 7.11815 0
M  V30 6299 O 848.827 3.49945 8.01648 0
M  V30 6300 C 847.42 3.5063 5.96244 0
M  V30 6301 O 848.219 2.36482 5.64681 0
M  V30 6302 C 846.083 3.15122 6.56374 0
M  V30 6303 H 846.115 2.13853 6.99751 0
M  V30 6304 H 847.298 4.13501 5.06559 0
M  V30 6305 H 848.782 5.03285 6.70911 0
M  V30 6306 H 847.088 5.20877 8.75697 0
M  V30 6307 H 846.898 7.11046 7.35349 0
M  V30 6308 H 845.268 6.35815 7.26986 0
M  V30 6309 H 847.907 1.61644 6.13565 0
M  V30 6310 P 849.764 3.65191 7.99657 0
M  V30 6311 O 851.185 3.84292 8.48206 0
M  V30 6312 O 849.404 4.17805 6.64342 0
M  V30 6313 O 849.441 2.07613 7.95143 0
M  V30 6314 C 849.28 1.44344 9.27435 0
M  V30 6315 C 849.821 0.0220036 9.17197 0
M  V30 6316 O 848.766 -0.626794 8.61824 0
M  V30 6317 C 851.039 -0.24586 8.30336 0
M  V30 6318 O 851.777 -1.39011 8.63583 0
M  V30 6319 C 850.371 -0.273849 6.91158 0
M  V30 6320 O 851.169 -1.05728 6.029 0
M  V30 6321 C 849.033 -0.897649 7.22545 0
M  V30 6322 N 847.99 -0.292839 6.41732 0
M  V30 6323 C 848.159 0.950603 5.91308 0
M  V30 6324 N 847.132 1.37732 5.21105 0
M  V30 6325 C 846.247 0.318109 5.26039 0
M  V30 6326 C 844.98 0.146766 4.6727 0
M  V30 6327 N 844.381 1.08519 3.89983 0
M  V30 6328 N 844.415 -1.06525 4.95887 0
M  V30 6329 C 845.017 -2.0378 5.71347 0
M  V30 6330 N 846.194 -1.92445 6.27451 0
M  V30 6331 C 846.769 -0.715382 6.00353 0
M  V30 6332 H 849.065 -1.98383 7.04189 0
M  V30 6333 H 850.248 0.733318 6.49674 0
M  V30 6334 H 851.731 0.60668 8.36503 0
M  V30 6335 H 850.037 -0.362662 10.1825 0
M  V30 6336 H 849.847 2.00611 10.0304 0
M  V30 6337 H 848.217 1.41843 9.55327 0
M  V30 6338 H 844.481 -2.97041 5.85344 0
M  V30 6339 H 849.059 1.54076 6.07465 0
M  V30 6340 H 843.451 0.901517 3.49562 0
M  V30 6341 H 844.855 1.97957 3.71669 0
M  V30 6342 H 850.857 -1.95704 6.0346 0
M  V30 6343 P 852.715 -1.25109 8.70152 0
M  V30 6344 O 854.137 -1.35274 9.21221 0
M  V30 6345 O 852.355 -0.0769065 7.84762 0
M  V30 6346 O 852.392 -2.55232 7.81161 0
M  V30 6347 C 852.232 -3.79939 8.58154 0
M  V30 6348 C 852.772 -4.94023 7.72785 0
M  V30 6349 O 851.716 -5.18726 6.91205 0
M  V30 6350 C 853.99 -4.69597 6.85231 0
M  V30 6351 O 854.728 -5.83832 6.51337 0
M  V30 6352 C 853.321 -3.96706 5.66633 0
M  V30 6353 O 854.12 -4.15414 4.49689 0
M  V30 6354 C 851.984 -4.66153 5.59313 0
M  V30 6355 H 852.016 -5.47679 4.85214 0
M  V30 6356 H 853.199 -2.89008 5.86566 0
M  V30 6357 H 854.683 -4.0121 7.36511 0
M  V30 6358 H 852.989 -5.80182 8.37584 0
M  V30 6359 H 852.799 -3.73517 9.52265 0
M  V30 6360 H 851.169 -3.97163 8.80359 0
M  V30 6361 H 853.808 -4.90969 4.01921 0
M  V30 6362 P 855.665 -5.75688 6.64379 0
M  V30 6363 O 857.087 -6.11849 7.01846 0
M  V30 6364 O 855.305 -4.30744 6.56026 0
M  V30 6365 O 855.342 -6.37042 5.19165 0
M  V30 6366 C 855.182 -7.83578 5.16515 0
M  V30 6367 C 855.722 -8.33398 3.83019 0
M  V30 6368 O 854.666 -8.10074 3.01034 0
M  V30 6369 C 856.94 -7.65514 3.2257 0
M  V30 6370 O 857.678 -8.4329 2.32297 0
M  V30 6371 C 856.271 -6.40075 2.62207 0
M  V30 6372 O 857.07 -5.92589 1.53712 0
M  V30 6373 C 854.934 -6.9454 2.18503 0
M  V30 6374 H 854.966 -7.23063 1.12091 0
M  V30 6375 H 856.149 -5.6025 3.37201 0
M  V30 6376 H 857.633 -7.35707 4.02681 0
M  V30 6377 H 855.939 -9.40912 3.9095 0
M  V30 6378 H 855.749 -8.29056 5.99158 0
M  V30 6379 H 854.119 -8.10073 5.25882 0
M  V30 6380 H 856.758 -6.30324 0.726794 0
M  V30 6381 P 858.616 -8.4349 2.47671 0
M  V30 6382 O 860.038 -8.94359 2.59696 0
M  V30 6383 O 858.256 -7.1704 3.19006 0
M  V30 6384 O 858.293 -8.16596 0.923387 0
M  V30 6385 C 858.133 -9.38437 0.108857 0
M  V30 6386 C 858.673 -9.08076 -1.28339 0
M  V30 6387 O 857.618 -8.44229 -1.84713 0
M  V30 6388 C 859.891 -8.18386 -1.42505 0
M  V30 6389 O 860.629 -8.3501 -2.60497 0
M  V30 6390 C 859.223 -6.80225 -1.25468 0
M  V30 6391 O 860.021 -5.81526 -1.91035 0
M  V30 6392 C 857.885 -7.02416 -1.9168 0
M  V30 6393 N 856.842 -6.31033 -1.20314 0
M  V30 6394 C 856.904 -6.18781 0.121293 0
M  V30 6395 N 855.859 -5.49762 0.588272 0
M  V30 6396 C 855.125 -5.22015 -0.488988 0
M  V30 6397 C 853.819 -4.61966 -0.596448 0
M  V30 6398 O 853.086 -4.19162 0.309059 0
M  V30 6399 N 853.389 -4.53773 -1.878 0
M  V30 6400 C 854.138 -4.99623 -2.99082 0
M  V30 6401 N 853.541 -4.78912 -4.21227 0
M  V30 6402 N 855.291 -5.59957 -2.91093 0
M  V30 6403 C 855.748 -5.70225 -1.64218 0
M  V30 6404 H 857.917 -6.6888 -2.96621 0
M  V30 6405 H 859.1 -6.53517 -0.192194 0
M  V30 6406 H 860.585 -8.36563 -0.598329 0
M  V30 6407 H 858.89 -10.0291 -1.79807 0
M  V30 6408 H 858.7 -10.2138 0.558219 0
M  V30 6409 H 857.069 -9.6579 0.0444202 0
M  V30 6410 H 852.493 -4.12883 -2.05283 0
M  V30 6411 H 857.7 -6.59596 0.745856 0
M  V30 6412 H 852.63 -4.31425 -4.2628 0
M  V30 6413 H 854.006 -5.11219 -5.07148 0
M  V30 6414 H 859.71 -5.69466 -2.79593 0
M  V30 6415 P 861.566 -8.4349 -2.47671 0
M  V30 6416 O 862.988 -8.92593 -2.65 0
M  V30 6417 O 861.206 -7.7568 -1.19296 0
M  V30 6418 O 861.243 -7.36886 -3.63805 0
M  V30 6419 C 861.083 -7.95349 -4.982 0
M  V30 6420 C 861.623 -6.94612 -5.98974 0
M  V30 6421 O 860.567 -6.10347 -6.11815 0
M  V30 6422 C 862.841 -6.11426 -5.62335 0
M  V30 6423 O 863.579 -5.6162 -6.70584 0
M  V30 6424 C 862.172 -5.04409 -4.73308 0
M  V30 6425 O 862.971 -3.85992 -4.75183 0
M  V30 6426 C 860.835 -4.8728 -5.41006 0
M  V30 6427 H 860.867 -4.02333 -6.11157 0
M  V30 6428 H 862.05 -5.39466 -3.69543 0
M  V30 6429 H 863.534 -6.71916 -5.01943 0
M  V30 6430 H 861.84 -7.4649 -6.93477 0
M  V30 6431 H 861.65 -8.89416 -5.05237 0
M  V30 6432 H 860.02 -8.14876 -5.18409 0
M  V30 6433 H 862.659 -3.27957 -5.4317 0
M  V30 6434 P 864.517 -5.75688 -6.64379 0
M  V30 6435 O 865.939 -6.07627 -7.05504 0
M  V30 6436 O 864.157 -5.88047 -5.19722 0
M  V30 6437 O 864.194 -4.2322 -7.04443 0
M  V30 6438 C 864.034 -3.99743 -8.4911 0
M  V30 6439 C 864.574 -2.60516 -8.79425 0
M  V30 6440 O 863.518 -1.82684 -8.4467 0
M  V30 6441 C 865.792 -2.10343 -8.03628 0
M  V30 6442 O 866.53 -1.09919 -8.67766 0
M  V30 6443 C 865.123 -1.68446 -6.70876 0
M  V30 6444 O 865.922 -0.678137 -6.08433 0
M  V30 6445 C 863.786 -1.17436 -7.18567 0
M  V30 6446 H 863.818 -0.0804732 -7.31656 0
M  V30 6447 H 865.001 -2.54037 -6.02537 0
M  V30 6448 H 866.485 -2.93881 -7.85526 0
M  V30 6449 H 864.791 -2.53065 -9.86973 0
M  V30 6450 H 864.601 -4.75072 -9.05887 0
M  V30 6451 H 862.971 -4.05244 -8.76668 0
M  V30 6452 H 865.61 0.177647 -6.34251 0
M  V30 6453 P 867.468 -1.25109 -8.70152 0
M  V30 6454 O 868.89 -1.29744 -9.22016 0
M  V30 6455 O 867.108 -2.13714 -7.55141 0
M  V30 6456 O 867.145 0.248149 -8.21425 0
M  V30 6457 C 866.985 1.22779 -9.30434 0
M  V30 6458 C 867.525 2.56293 -8.80664 0
M  V30 6459 O 866.469 3.02979 -8.09349 0
M  V30 6460 C 868.743 2.57523 -7.89775 0
M  V30 6461 O 869.481 3.7668 -7.89438 0
M  V30 6462 C 868.074 2.20997 -6.55446 0
M  V30 6463 O 868.873 2.71895 -5.48509 0
M  V30 6464 C 866.737 2.89693 -6.67988 0
M  V30 6465 H 866.769 3.88793 -6.19859 0
M  V30 6466 H 867.952 1.12046 -6.44229 0
M  V30 6467 H 869.436 1.7746 -8.19711 0
M  V30 6468 H 867.742 3.20706 -9.67112 0
M  V30 6469 H 867.552 0.901032 -10.1892 0
M  V30 6470 H 865.922 1.33049 -9.56592 0
M  V30 6471 H 868.561 3.57847 -5.23962 0
M  V30 6472 P 870.418 3.65191 -7.99657 0
M  V30 6473 O 871.819 3.87414 -8.52829 0
M  V30 6474 O 870.04 2.26932 -7.566 0
M  V30 6475 O 870.095 4.64915 -6.77529 0
M  V30 6476 C 869.935 6.06319 -7.16352 0
M  V30 6477 C 870.475 6.91655 -6.02234 0
M  V30 6478 O 869.419 6.92369 -5.17005 0
M  V30 6479 C 871.692 6.43627 -5.25174 0
M  V30 6480 O 872.431 7.43686 -4.60469 0
M  V30 6481 C 871.025 5.40275 -4.31916 0
M  V30 6482 O 871.823 5.25193 -3.14386 0
M  V30 6483 C 869.687 6.04847 -4.05327 0
M  V30 6484 N 868.644 5.04166 -3.98114 0
M  V30 6485 C 867.609 5.2366 -3.09923 0
M  V30 6486 O 867.648 6.23355 -2.34204 0
M  V30 6487 N 866.597 4.34279 -3.05727 0
M  V30 6488 C 866.645 3.26317 -3.84756 0
M  V30 6489 C 867.741 3.02504 -4.72573 0
M  V30 6490 C 868.707 3.94493 -4.76618 0
M  V30 6491 H 869.719 6.62104 -3.11218 0
M  V30 6492 H 870.902 4.42969 -4.80867 0
M  V30 6493 H 872.386 5.93122 -5.93121 0
M  V30 6494 H 870.692 7.93295 -6.39407 0
M  V30 6495 H 870.501 6.26671 -8.0846 0
M  V30 6496 H 868.871 6.29036 -7.32728 0
M  V30 6497 H 867.789 2.12921 -5.34017 0
M  V30 6498 H 869.553 3.80658 -5.44176 0
M  V30 6499 H 871.607 5.93572 -2.52637 0
M  V30 6500 P 873.369 7.39546 -4.75277 0
M  V30 6501 O 874.791 7.84798 -5.01039 0
M  V30 6502 O 873.009 5.9812 -5.08098 0
M  V30 6503 O 873.046 7.57503 -3.1866 0
M  V30 6504 C 872.886 8.97357 -2.74833 0
M  V30 6505 C 873.426 9.07548 -1.32709 0
M  V30 6506 O 872.37 8.62072 -0.606159 0
M  V30 6507 C 874.644 8.25383 -0.938334 0
M  V30 6508 O 875.382 8.74577 0.146954 0
M  V30 6509 C 873.975 6.8802 -0.712559 0
M  V30 6510 O 874.774 6.1189 0.194655 0
M  V30 6511 C 872.638 7.27966 -0.139777 0
M  V30 6512 H 872.67 7.25354 0.961601 0
M  V30 6513 H 873.853 6.32557 -1.65702 0
M  V30 6514 H 875.337 8.19355 -1.79097 0
M  V30 6515 H 873.643 10.1294 -1.10029 0
M  V30 6516 H 873.453 9.64276 -3.41316 0
M  V30 6517 H 871.823 9.25417 -2.76357 0
M  V30 6518 H 874.462 6.25267 1.07847 0
M  V30 6519 P 876.319 8.791 6.62549e-12 0
M  V30 6520 O 877.741 9.31296 0.027939 0
M  V30 6521 O 875.959 7.77869 -1.04071 0
M  V30 6522 O 875.996 8.09533 1.41463 0
M  V30 6523 C 875.836 9.0349 2.53943 0
M  V30 6524 C 876.376 8.35135 3.78975 0
M  V30 6525 O 875.321 7.57992 4.15078 0
M  V30 6526 C 877.594 7.45087 3.67298 0
M  V30 6527 O 878.332 7.27796 4.85194 0
M  V30 6528 C 876.926 6.17323 3.12027 0
M  V30 6529 O 877.724 5.04149 3.47132 0
M  V30 6530 C 875.588 6.19961 3.81809 0
M  V30 6531 N 874.545 5.71575 2.93223 0
M  V30 6532 C 874.607 5.97133 1.62693 0
M  V30 6533 N 873.562 5.44066 0.984414 0
M  V30 6534 C 872.828 4.87093 1.93987 0
M  V30 6535 C 871.522 4.26449 1.8738 0
M  V30 6536 O 870.789 4.1089 0.884377 0
M  V30 6537 N 871.092 3.82483 3.08036 0
M  V30 6538 C 871.841 3.95124 4.27727 0
M  V30 6539 N 871.244 3.4084 5.39089 0
M  V30 6540 N 872.994 4.55264 4.3706 0
M  V30 6541 C 873.451 5.00861 3.18217 0
M  V30 6542 H 875.62 5.58218 4.73051 0
M  V30 6543 H 876.803 6.21631 2.02558 0
M  V30 6544 H 878.288 7.85819 2.93096 0
M  V30 6545 H 876.593 9.11627 4.55076 0
M  V30 6546 H 876.403 9.9573 2.34194 0
M  V30 6547 H 874.772 9.2792 2.67832 0
M  V30 6548 H 870.196 3.38323 3.1329 0
M  V30 6549 H 875.403 6.53891 1.14265 0
M  V30 6550 H 870.333 2.93852 5.30559 0
M  V30 6551 H 871.709 3.47631 6.30632 0
M  V30 6552 H 877.413 4.67628 4.28704 0
M  V30 6553 P 879.27 7.39546 4.75277 0
M  V30 6554 O 880.692 7.81777 5.05738 0
M  V30 6555 O 878.91 7.1065 3.32998 0
M  V30 6556 O 878.947 6.04542 5.56673 0
M  V30 6557 C 878.787 6.22772 7.02095 0
M  V30 6558 C 879.327 4.97725 7.70406 0
M  V30 6559 O 878.271 4.13256 7.58987 0
M  V30 6560 C 880.545 4.28231 7.11815 0
M  V30 6561 O 881.283 3.49945 8.01648 0
M  V30 6562 C 879.876 3.5063 5.96244 0
M  V30 6563 O 880.675 2.36482 5.64681 0
M  V30 6564 C 878.539 3.15122 6.56374 0
M  V30 6565 H 878.571 2.13853 6.99751 0
M  V30 6566 H 879.754 4.13501 5.06559 0
M  V30 6567 H 881.238 5.03285 6.70911 0
M  V30 6568 H 879.544 5.20877 8.75697 0
M  V30 6569 H 879.354 7.11046 7.35349 0
M  V30 6570 H 877.724 6.35815 7.26986 0
M  V30 6571 H 880.363 1.61644 6.13565 0
M  V30 6572 P 882.22 3.65191 7.99657 0
M  V30 6573 O 883.641 3.84292 8.48206 0
M  V30 6574 O 881.86 4.17805 6.64342 0
M  V30 6575 O 881.897 2.07613 7.95143 0
M  V30 6576 C 881.736 1.44344 9.27435 0
M  V30 6577 C 882.277 0.0220036 9.17197 0
M  V30 6578 O 881.222 -0.626794 8.61824 0
M  V30 6579 C 883.495 -0.24586 8.30336 0
M  V30 6580 O 884.233 -1.39011 8.63583 0
M  V30 6581 C 882.827 -0.273849 6.91158 0
M  V30 6582 O 883.625 -1.05728 6.029 0
M  V30 6583 C 881.489 -0.897649 7.22545 0
M  V30 6584 N 880.446 -0.292839 6.41732 0
M  V30 6585 C 880.615 0.950603 5.91308 0
M  V30 6586 N 879.588 1.37732 5.21105 0
M  V30 6587 C 878.703 0.318109 5.26039 0
M  V30 6588 C 877.436 0.146766 4.6727 0
M  V30 6589 N 876.871 -1.06525 4.95887 0
M  V30 6590 C 877.473 -2.0378 5.71347 0
M  V30 6591 N 878.65 -1.92445 6.27451 0
M  V30 6592 C 879.225 -0.715382 6.00353 0
M  V30 6593 H 882.704 0.733318 6.49674 0
M  V30 6594 H 884.187 0.60668 8.36503 0
M  V30 6595 H 882.493 -0.362662 10.1825 0
M  V30 6596 H 882.303 2.00611 10.0304 0
M  V30 6597 H 880.673 1.41843 9.55327 0
M  V30 6598 H 881.515 1.54076 6.07465 0
M  V30 6599 H 883.313 -1.95704 6.0346 0
M  V30 6600 P 885.171 -1.25109 8.70152 0
M  V30 6601 O 886.593 -1.35303 9.21419 0
M  V30 6602 O 884.811 -0.0769065 7.84762 0
M  V30 6603 O 884.848 -2.55232 7.81161 0
M  V30 6604 C 884.688 -3.79939 8.58154 0
M  V30 6605 C 885.228 -4.93969 7.72701 0
M  V30 6606 O 884.173 -5.18726 6.91205 0
M  V30 6607 C 886.446 -4.69597 6.85231 0
M  V30 6608 O 887.184 -5.83832 6.51337 0
M  V30 6609 C 885.778 -3.96706 5.66633 0
M  V30 6610 O 886.576 -4.15346 4.49615 0
M  V30 6611 C 884.44 -4.66153 5.59313 0
M  V30 6612 N 883.397 -3.71582 5.24027 0
M  V30 6613 C 883.459 -2.46018 5.67902 0
M  V30 6614 N 882.414 -1.74868 5.24518 0
M  V30 6615 C 881.68 -2.61333 4.54528 0
M  V30 6616 C 880.374 -2.46162 3.95441 0
M  V30 6617 O 879.641 -1.46013 3.94122 0
M  V30 6618 N 879.944 -3.59334 3.34752 0
M  V30 6619 C 880.693 -4.79605 3.3023 0
M  V30 6620 N 880.096 -5.82109 2.6065 0
M  V30 6621 N 881.846 -4.97402 3.8843 0
M  V30 6622 C 882.303 -3.86258 4.50476 0
M  V30 6623 H 884.472 -5.47679 4.85214 0
M  V30 6624 H 885.655 -2.88964 5.86476 0
M  V30 6625 H 887.14 -4.01947 7.36109 0
M  V30 6626 H 885.445 -5.80182 8.37584 0
M  V30 6627 H 885.255 -3.73517 9.52265 0
M  V30 6628 H 883.624 -3.97163 8.80359 0
M  V30 6629 H 879.048 -3.5825 2.90294 0
M  V30 6630 H 884.255 -2.06161 6.30974 0
M  V30 6631 H 879.185 -5.66979 2.15354 0
M  V30 6632 H 880.561 -6.73686 2.54344 0
M  V30 6633 H 886.265 -4.90891 4.01857 0
M  V30 6634 P 888.122 -5.75688 6.64379 0
M  V30 6635 O 889.544 -6.11849 7.01846 0
M  V30 6636 O 887.762 -4.30744 6.56026 0
M  V30 6637 O 887.799 -6.37042 5.19165 0
M  V30 6638 C 887.639 -7.83578 5.16515 0
M  V30 6639 C 888.179 -8.33398 3.83019 0
M  V30 6640 O 887.123 -8.10074 3.01034 0
M  V30 6641 C 889.397 -7.65514 3.2257 0
M  V30 6642 O 890.135 -8.4329 2.32297 0
M  V30 6643 C 888.728 -6.40075 2.62207 0
M  V30 6644 O 889.527 -5.92589 1.53712 0
M  V30 6645 C 887.391 -6.9454 2.18503 0
M  V30 6646 H 887.423 -7.23063 1.12091 0
M  V30 6647 H 888.606 -5.6025 3.37201 0
M  V30 6648 H 890.09 -7.35707 4.02681 0
M  V30 6649 H 888.396 -9.40912 3.9095 0
M  V30 6650 H 888.206 -8.29056 5.99158 0
M  V30 6651 H 886.576 -8.10073 5.25882 0
M  V30 6652 H 889.215 -6.30324 0.726794 0
M  V30 6653 P 891.072 -8.4349 2.47671 0
M  V30 6654 O 892.494 -8.94167 2.5964 0
M  V30 6655 O 890.712 -7.1704 3.19006 0
M  V30 6656 O 890.749 -8.16596 0.923387 0
M  V30 6657 C 890.589 -9.38437 0.108857 0
M  V30 6658 C 891.129 -9.08175 -1.28353 0
M  V30 6659 O 890.073 -8.44229 -1.84713 0
M  V30 6660 C 892.347 -8.18386 -1.42505 0
M  V30 6661 O 893.085 -8.3501 -2.60497 0
M  V30 6662 C 891.678 -6.80225 -1.25468 0
M  V30 6663 O 892.477 -5.81621 -1.91066 0
M  V30 6664 C 890.341 -7.02416 -1.9168 0
M  V30 6665 H 890.373 -6.6888 -2.96621 0
M  V30 6666 H 891.556 -6.53617 -0.192223 0
M  V30 6667 H 893.04 -8.36622 -0.589963 0
M  V30 6668 H 891.346 -10.0291 -1.79807 0
M  V30 6669 H 891.156 -10.2138 0.558219 0
M  V30 6670 H 889.526 -9.6579 0.0444202 0
M  V30 6671 H 892.165 -5.69556 -2.79637 0
M  V30 6672 P 894.023 -8.4349 -2.47671 0
M  V30 6673 O 895.445 -8.92785 -2.65057 0
M  V30 6674 O 893.663 -7.7568 -1.19296 0
M  V30 6675 O 893.7 -7.36886 -3.63805 0
M  V30 6676 C 893.54 -7.95349 -4.982 0
M  V30 6677 C 894.08 -6.94537 -5.98908 0
M  V30 6678 O 893.025 -6.10347 -6.11815 0
M  V30 6679 C 895.298 -6.11426 -5.62335 0
M  V30 6680 O 896.036 -5.6162 -6.70584 0
M  V30 6681 C 894.63 -5.04409 -4.73308 0
M  V30 6682 O 895.428 -3.85929 -4.75106 0
M  V30 6683 C 893.292 -4.8728 -5.41006 0
M  V30 6684 N 892.249 -4.65812 -4.42377 0
M  V30 6685 C 892.311 -5.27109 -3.24335 0
M  V30 6686 N 891.266 -4.94293 -2.47735 0
M  V30 6687 C 890.532 -4.1271 -3.23359 0
M  V30 6688 C 889.226 -3.56384 -2.99934 0
M  V30 6689 O 888.493 -3.69331 -2.00616 0
M  V30 6690 N 888.796 -2.80206 -4.03316 0
M  V30 6691 C 889.545 -2.58614 -5.2172 0
M  V30 6692 N 888.948 -1.75154 -6.13278 0
M  V30 6693 N 890.698 -3.13689 -5.47619 0
M  V30 6694 C 891.155 -3.90921 -4.46436 0
M  V30 6695 H 893.324 -4.02333 -6.11157 0
M  V30 6696 H 894.507 -5.39383 -3.69487 0
M  V30 6697 H 895.992 -6.71414 -5.02615 0
M  V30 6698 H 894.297 -7.4649 -6.93477 0
M  V30 6699 H 894.107 -8.89416 -5.05237 0
M  V30 6700 H 892.476 -8.14876 -5.18409 0
M  V30 6701 H 887.9 -2.36355 -3.95916 0
M  V30 6702 H 893.107 -5.95212 -2.93859 0
M  V30 6703 H 888.037 -1.32473 -5.91856 0
M  V30 6704 H 889.413 -1.5588 -7.03026 0
M  V30 6705 H 895.117 -3.27906 -5.43085 0
M  V30 6706 P 896.973 -5.75688 -6.64379 0
M  V30 6707 O 898.395 -6.07627 -7.05504 0
M  V30 6708 O 896.613 -5.88047 -5.19722 0
M  V30 6709 O 896.65 -4.2322 -7.04443 0
M  V30 6710 C 896.49 -3.99743 -8.4911 0
M  V30 6711 C 897.03 -2.60516 -8.79425 0
M  V30 6712 O 895.974 -1.82684 -8.4467 0
M  V30 6713 C 898.248 -2.10343 -8.03628 0
M  V30 6714 O 898.986 -1.09919 -8.67766 0
M  V30 6715 C 897.579 -1.68446 -6.70876 0
M  V30 6716 O 898.378 -0.678137 -6.08433 0
M  V30 6717 C 896.242 -1.17436 -7.18567 0
M  V30 6718 H 896.274 -0.0804732 -7.31656 0
M  V30 6719 H 897.457 -2.54037 -6.02537 0
M  V30 6720 H 898.941 -2.93881 -7.85526 0
M  V30 6721 H 897.247 -2.53065 -9.86973 0
M  V30 6722 H 897.057 -4.75072 -9.05887 0
M  V30 6723 H 895.427 -4.05244 -8.76668 0
M  V30 6724 H 898.066 0.177647 -6.34251 0
M  V30 6725 P 899.924 -1.25109 -8.70152 0
M  V30 6726 O 901.346 -1.29744 -9.22016 0
M  V30 6727 O 899.564 -2.13714 -7.55141 0
M  V30 6728 O 899.601 0.248149 -8.21425 0
M  V30 6729 C 899.441 1.22779 -9.30434 0
M  V30 6730 C 899.981 2.56293 -8.80664 0
M  V30 6731 O 898.925 3.02979 -8.09349 0
M  V30 6732 C 901.199 2.57523 -7.89775 0
M  V30 6733 O 901.937 3.7668 -7.89438 0
M  V30 6734 C 900.53 2.20997 -6.55446 0
M  V30 6735 O 901.329 2.71895 -5.48509 0
M  V30 6736 C 899.193 2.89693 -6.67988 0
M  V30 6737 H 899.225 3.88793 -6.19859 0
M  V30 6738 H 900.408 1.12046 -6.44229 0
M  V30 6739 H 901.892 1.7746 -8.19711 0
M  V30 6740 H 900.198 3.20706 -9.67112 0
M  V30 6741 H 900.008 0.901032 -10.1892 0
M  V30 6742 H 898.378 1.33049 -9.56592 0
M  V30 6743 H 901.017 3.57847 -5.23962 0
M  V30 6744 P 902.874 3.65191 -7.99657 0
M  V30 6745 O 904.275 3.87414 -8.52829 0
M  V30 6746 O 902.496 2.26932 -7.566 0
M  V30 6747 O 902.551 4.64915 -6.77529 0
M  V30 6748 C 902.391 6.06319 -7.16352 0
M  V30 6749 C 902.931 6.91655 -6.02234 0
M  V30 6750 O 901.875 6.92369 -5.17005 0
M  V30 6751 C 904.148 6.43627 -5.25174 0
M  V30 6752 O 904.887 7.43686 -4.60469 0
M  V30 6753 C 903.481 5.40275 -4.31916 0
M  V30 6754 O 904.279 5.25193 -3.14386 0
M  V30 6755 C 902.143 6.04847 -4.05327 0
M  V30 6756 N 901.1 5.04166 -3.98114 0
M  V30 6757 C 900.065 5.2366 -3.09923 0
M  V30 6758 O 900.104 6.23355 -2.34204 0
M  V30 6759 N 899.053 4.34279 -3.05727 0
M  V30 6760 C 899.101 3.26317 -3.84756 0
M  V30 6761 N 898.091 2.40281 -3.79534 0
M  V30 6762 C 900.197 3.02504 -4.72573 0
M  V30 6763 C 901.163 3.94493 -4.76618 0
M  V30 6764 H 902.175 6.62104 -3.11218 0
M  V30 6765 H 903.358 4.42969 -4.80867 0
M  V30 6766 H 904.842 5.93122 -5.93121 0
M  V30 6767 H 903.148 7.93295 -6.39407 0
M  V30 6768 H 902.957 6.26671 -8.0846 0
M  V30 6769 H 901.327 6.29036 -7.32728 0
M  V30 6770 H 900.245 2.12921 -5.34017 0
M  V30 6771 H 902.009 3.80658 -5.44176 0
M  V30 6772 H 897.301 2.57561 -3.15653 0
M  V30 6773 H 898.096 1.56492 -4.39044 0
M  V30 6774 H 904.063 5.93572 -2.52637 0
M  V30 6775 P 905.825 7.39546 -4.75277 0
M  V30 6776 O 907.247 7.84798 -5.01039 0
M  V30 6777 O 905.465 5.9812 -5.08098 0
M  V30 6778 O 905.502 7.57503 -3.1866 0
M  V30 6779 C 905.342 8.97357 -2.74833 0
M  V30 6780 C 905.882 9.07548 -1.32709 0
M  V30 6781 O 904.826 8.62072 -0.606159 0
M  V30 6782 C 907.1 8.25383 -0.938334 0
M  V30 6783 O 907.838 8.74577 0.146954 0
M  V30 6784 C 906.431 6.8802 -0.712559 0
M  V30 6785 O 907.23 6.1189 0.194655 0
M  V30 6786 C 905.094 7.27966 -0.139777 0
M  V30 6787 H 905.126 7.25354 0.961601 0
M  V30 6788 H 906.309 6.32557 -1.65702 0
M  V30 6789 H 907.793 8.19355 -1.79097 0
M  V30 6790 H 906.099 10.1294 -1.10029 0
M  V30 6791 H 905.909 9.64276 -3.41316 0
M  V30 6792 H 904.279 9.25417 -2.76357 0
M  V30 6793 H 906.918 6.25267 1.07847 0
M  V30 6794 P 908.776 8.791 6.93566e-12 0
M  V30 6795 O 910.198 9.31096 0.027933 0
M  V30 6796 O 908.416 7.77869 -1.04071 0
M  V30 6797 O 908.453 8.09533 1.41463 0
M  V30 6798 C 908.293 9.0349 2.53943 0
M  V30 6799 C 908.833 8.35226 3.79016 0
M  V30 6800 O 907.777 7.57992 4.15078 0
M  V30 6801 C 910.051 7.45087 3.67298 0
M  V30 6802 O 910.789 7.27796 4.85194 0
M  V30 6803 C 909.382 6.17323 3.12027 0
M  V30 6804 O 910.181 5.04231 3.47188 0
M  V30 6805 C 908.045 6.19961 3.81809 0
M  V30 6806 H 908.077 5.58218 4.73051 0
M  V30 6807 H 909.26 6.21726 2.02589 0
M  V30 6808 H 910.744 7.86112 2.9231 0
M  V30 6809 H 909.05 9.11627 4.55076 0
M  V30 6810 H 908.86 9.9573 2.34194 0
M  V30 6811 H 907.23 9.2792 2.67832 0
M  V30 6812 H 909.869 4.67702 4.28772 0
M  V30 6813 P 911.726 7.39546 4.75277 0
M  V30 6814 O 913.148 7.81777 5.05738 0
M  V30 6815 O 911.366 7.1065 3.32998 0
M  V30 6816 O 911.403 6.04542 5.56673 0
M  V30 6817 C 911.243 6.22772 7.02095 0
M  V30 6818 C 911.783 4.97725 7.70406 0
M  V30 6819 O 910.727 4.13256 7.58987 0
M  V30 6820 C 913.001 4.28231 7.11815 0
M  V30 6821 O 913.739 3.49945 8.01648 0
M  V30 6822 C 912.332 3.5063 5.96244 0
M  V30 6823 O 913.131 2.36482 5.64681 0
M  V30 6824 C 910.995 3.15122 6.56374 0
M  V30 6825 H 911.027 2.13853 6.99751 0
M  V30 6826 H 912.21 4.13501 5.06559 0
M  V30 6827 H 913.694 5.03285 6.70911 0
M  V30 6828 H 912 5.20877 8.75697 0
M  V30 6829 H 911.81 7.11046 7.35349 0
M  V30 6830 H 910.18 6.35815 7.26986 0
M  V30 6831 H 912.819 1.61644 6.13565 0
M  V30 6832 P 914.677 3.65191 7.99657 0
M  V30 6833 O 916.099 3.8425 8.48115 0
M  V30 6834 O 914.317 4.17805 6.64342 0
M  V30 6835 O 914.354 2.07613 7.95143 0
M  V30 6836 C 914.194 1.44328 9.27336 0
M  V30 6837 C 914.734 0.0220036 9.17197 0
M  V30 6838 O 913.678 -0.626867 8.61923 0
M  V30 6839 C 915.952 -0.24586 8.30336 0
M  V30 6840 O 916.69 -1.39011 8.63583 0
M  V30 6841 C 915.283 -0.273849 6.91158 0
M  V30 6842 O 916.082 -1.06348 6.02892 0
M  V30 6843 C 913.946 -0.897649 7.22545 0
M  V30 6844 H 913.978 -1.9841 7.04286 0
M  V30 6845 H 915.161 0.739928 6.497 0
M  V30 6846 H 916.645 0.60668 8.36503 0
M  V30 6847 H 914.951 -0.352479 10.1829 0
M  V30 6848 H 914.761 2.00611 10.0304 0
M  V30 6849 H 913.131 1.41843 9.55327 0
M  V30 6850 H 915.77 -1.95734 6.03555 0
M  V30 6851 P 917.627 -1.25109 8.70152 0
M  V30 6852 O 919.049 -1.35274 9.21221 0
M  V30 6853 O 917.267 -0.0769065 7.84762 0
M  V30 6854 O 917.304 -2.55232 7.81161 0
M  V30 6855 C 917.144 -3.79939 8.58154 0
M  V30 6856 C 917.684 -4.94023 7.72785 0
M  V30 6857 O 916.628 -5.18726 6.91205 0
M  V30 6858 C 918.902 -4.69597 6.85231 0
M  V30 6859 O 919.64 -5.83832 6.51337 0
M  V30 6860 C 918.233 -3.96706 5.66633 0
M  V30 6861 O 919.032 -4.15414 4.49689 0
M  V30 6862 C 916.896 -4.66153 5.59313 0
M  V30 6863 H 916.928 -5.47679 4.85214 0
M  V30 6864 H 918.111 -2.89008 5.86566 0
M  V30 6865 H 919.595 -4.0121 7.36511 0
M  V30 6866 H 917.901 -5.80182 8.37584 0
M  V30 6867 H 917.711 -3.73517 9.52265 0
M  V30 6868 H 916.081 -3.97163 8.80359 0
M  V30 6869 H 918.72 -4.90969 4.01921 0
M  V30 6870 P 920.578 -5.75688 6.64379 0
M  V30 6871 O 922 -6.11849 7.01846 0
M  V30 6872 O 920.218 -4.30744 6.56026 0
M  V30 6873 O 920.255 -6.37042 5.19165 0
M  V30 6874 C 920.095 -7.83578 5.16515 0
M  V30 6875 C 920.635 -8.33398 3.83019 0
M  V30 6876 O 919.579 -8.10074 3.01034 0
M  V30 6877 C 921.853 -7.65514 3.2257 0
M  V30 6878 O 922.591 -8.4329 2.32297 0
M  V30 6879 C 921.184 -6.40075 2.62207 0
M  V30 6880 O 921.983 -5.92589 1.53712 0
M  V30 6881 C 919.847 -6.9454 2.18503 0
M  V30 6882 H 919.879 -7.23063 1.12091 0
M  V30 6883 H 921.062 -5.6025 3.37201 0
M  V30 6884 H 922.546 -7.35707 4.02681 0
M  V30 6885 H 920.852 -9.40912 3.9095 0
M  V30 6886 H 920.662 -8.29056 5.99158 0
M  V30 6887 H 919.032 -8.10073 5.25882 0
M  V30 6888 H 921.671 -6.30324 0.726794 0
M  V30 6889 P 923.528 -8.4349 2.47671 0
M  V30 6890 O 924.95 -8.94359 2.59696 0
M  V30 6891 O 923.168 -7.1704 3.19006 0
M  V30 6892 O 923.205 -8.16596 0.923387 0
M  V30 6893 C 923.045 -9.38437 0.108857 0
M  V30 6894 C 923.585 -9.08076 -1.28339 0
M  V30 6895 O 922.53 -8.44229 -1.84713 0
M  V30 6896 C 924.803 -8.18386 -1.42505 0
M  V30 6897 O 925.541 -8.3501 -2.60497 0
M  V30 6898 C 924.135 -6.80225 -1.25468 0
M  V30 6899 O 924.933 -5.81526 -1.91035 0
M  V30 6900 C 922.797 -7.02416 -1.9168 0
M  V30 6901 N 921.754 -6.31033 -1.20314 0
M  V30 6902 C 921.816 -6.18781 0.121293 0
M  V30 6903 N 920.771 -5.49762 0.588272 0
M  V30 6904 C 920.037 -5.22015 -0.488988 0
M  V30 6905 C 918.731 -4.61966 -0.596448 0
M  V30 6906 O 917.998 -4.19162 0.309059 0
M  V30 6907 N 918.301 -4.53773 -1.878 0
M  V30 6908 C 919.05 -4.99623 -2.99082 0
M  V30 6909 N 918.453 -4.78912 -4.21227 0
M  V30 6910 N 920.203 -5.59957 -2.91093 0
M  V30 6911 C 920.66 -5.70225 -1.64218 0
M  V30 6912 H 922.829 -6.6888 -2.96621 0
M  V30 6913 H 924.012 -6.53517 -0.192194 0
M  V30 6914 H 925.497 -8.36563 -0.598329 0
M  V30 6915 H 923.802 -10.0291 -1.79807 0
M  V30 6916 H 923.612 -10.2138 0.558219 0
M  V30 6917 H 921.981 -9.6579 0.0444202 0
M  V30 6918 H 917.405 -4.12883 -2.05283 0
M  V30 6919 H 922.612 -6.59596 0.745856 0
M  V30 6920 H 917.542 -4.31425 -4.2628 0
M  V30 6921 H 918.918 -5.11219 -5.07148 0
M  V30 6922 H 924.622 -5.69466 -2.79593 0
M  V30 6923 P 926.479 -8.4349 -2.47671 0
M  V30 6924 O 927.901 -8.92593 -2.65 0
M  V30 6925 O 926.119 -7.7568 -1.19296 0
M  V30 6926 O 926.156 -7.36886 -3.63805 0
M  V30 6927 C 925.996 -7.95349 -4.982 0
M  V30 6928 C 926.536 -6.94612 -5.98974 0
M  V30 6929 O 925.48 -6.10347 -6.11815 0
M  V30 6930 C 927.754 -6.11426 -5.62335 0
M  V30 6931 O 928.492 -5.6162 -6.70584 0
M  V30 6932 C 927.085 -5.04409 -4.73308 0
M  V30 6933 O 927.884 -3.85992 -4.75183 0
M  V30 6934 C 925.748 -4.8728 -5.41006 0
M  V30 6935 H 925.78 -4.02333 -6.11157 0
M  V30 6936 H 926.963 -5.39466 -3.69543 0
M  V30 6937 H 928.447 -6.71916 -5.01943 0
M  V30 6938 H 926.753 -7.4649 -6.93477 0
M  V30 6939 H 926.563 -8.89416 -5.05237 0
M  V30 6940 H 924.933 -8.14876 -5.18409 0
M  V30 6941 H 927.572 -3.27957 -5.4317 0
M  V30 6942 P 929.43 -5.75688 -6.64379 0
M  V30 6943 O 930.852 -6.07627 -7.05504 0
M  V30 6944 O 929.07 -5.88047 -5.19722 0
M  V30 6945 O 929.107 -4.2322 -7.04443 0
M  V30 6946 C 928.947 -3.99743 -8.4911 0
M  V30 6947 C 929.487 -2.60516 -8.79425 0
M  V30 6948 O 928.431 -1.82684 -8.4467 0
M  V30 6949 C 930.705 -2.10343 -8.03628 0
M  V30 6950 O 931.443 -1.09919 -8.67766 0
M  V30 6951 C 930.036 -1.68446 -6.70876 0
M  V30 6952 O 930.835 -0.678137 -6.08433 0
M  V30 6953 C 928.699 -1.17436 -7.18567 0
M  V30 6954 H 928.731 -0.0804732 -7.31656 0
M  V30 6955 H 929.914 -2.54037 -6.02537 0
M  V30 6956 H 931.398 -2.93881 -7.85526 0
M  V30 6957 H 929.704 -2.53065 -9.86973 0
M  V30 6958 H 929.514 -4.75072 -9.05887 0
M  V30 6959 H 927.884 -4.05244 -8.76668 0
M  V30 6960 H 930.523 0.177647 -6.34251 0
M  V30 6961 P 932.38 -1.25109 -8.70152 0
M  V30 6962 O 933.781 -1.3516 -9.26897 0
M  V30 6963 O 932.002 -2.18141 -7.59181 0
M  V30 6964 O 932.057 0.248118 -8.21325 0
M  V30 6965 C 931.897 1.22779 -9.30434 0
M  V30 6966 C 932.437 2.56265 -8.80568 0
M  V30 6967 O 931.381 3.02944 -8.09255 0
M  V30 6968 C 933.654 2.57523 -7.89775 0
M  V30 6969 O 934.393 3.7668 -7.89438 0
M  V30 6970 C 932.987 2.20997 -6.55446 0
M  V30 6971 O 933.785 2.71851 -5.48419 0
M  V30 6972 C 931.649 2.89693 -6.67988 0
M  V30 6973 N 930.606 2.08895 -6.07487 0
M  V30 6974 C 929.571 2.72974 -5.43836 0
M  V30 6975 O 929.61 3.97779 -5.34036 0
M  V30 6976 N 928.559 2.0005 -4.91983 0
M  V30 6977 C 928.607 0.66501 -5.00098 0
M  V30 6978 N 927.597 -0.0305439 -4.4919 0
M  V30 6979 C 929.703 -0.0100979 -5.61099 0
M  V30 6980 C 930.669 0.74189 -6.14236 0
M  V30 6981 H 931.681 3.8874 -6.19774 0
M  V30 6982 H 932.864 1.12673 -6.44018 0
M  V30 6983 H 934.348 1.783 -8.19631 0
M  V30 6984 H 932.654 3.21673 -9.66791 0
M  V30 6985 H 932.463 0.901032 -10.1892 0
M  V30 6986 H 930.833 1.33036 -9.56493 0
M  V30 6987 H 929.751 -1.09591 -5.64358 0
M  V30 6988 H 931.515 0.260263 -6.6359 0
M  V30 6989 H 926.807 0.460194 -4.04793 0
M  V30 6990 H 927.602 -1.05716 -4.53953 0
M  V30 6991 H 933.569 3.62759 -5.33442 0
M  V30 6992 P 935.331 3.65191 -7.99657 0
M  V30 6993 O 936.753 3.89416 -8.45976 0
M  V30 6994 O 934.971 2.28472 -7.50807 0
M  V30 6995 O 935.008 4.64972 -6.77611 0
M  V30 6996 C 934.848 6.06319 -7.16352 0
M  V30 6997 C 935.388 6.91655 -6.02234 0
M  V30 6998 O 934.333 6.92449 -5.17064 0
M  V30 6999 C 936.606 6.43627 -5.25174 0
M  V30 7000 O 937.344 7.43686 -4.60469 0
M  V30 7001 C 935.938 5.40275 -4.31916 0
M  V30 7002 O 936.736 5.25193 -3.14386 0
M  V30 7003 C 934.6 6.04847 -4.05327 0
M  V30 7004 N 933.557 5.04166 -3.98114 0
M  V30 7005 C 933.619 3.96049 -4.75587 0
M  V30 7006 N 932.574 3.15559 -4.54006 0
M  V30 7007 C 931.84 3.78802 -3.62491 0
M  V30 7008 C 930.534 3.476 -3.10071 0
M  V30 7009 O 929.801 2.51136 -3.37021 0
M  V30 7010 N 930.104 4.39088 -2.19956 0
M  V30 7011 C 930.853 5.53215 -1.81733 0
M  V30 7012 N 930.256 6.31963 -0.860928 0
M  V30 7013 N 932.006 5.86688 -2.32562 0
M  V30 7014 C 932.463 4.97525 -3.23407 0
M  V30 7015 H 934.632 6.62195 -3.11261 0
M  V30 7016 H 935.815 4.42488 -4.8131 0
M  V30 7017 H 937.3 5.93051 -5.9305 0
M  V30 7018 H 935.605 7.92655 -6.402 0
M  V30 7019 H 935.415 6.26671 -8.0846 0
M  V30 7020 H 933.784 6.29101 -7.32804 0
M  V30 7021 H 929.208 4.25523 -1.77604 0
M  V30 7022 H 934.415 3.75576 -5.47333 0
M  V30 7023 H 929.345 6.04684 -0.468946 0
M  V30 7024 H 930.721 7.18054 -0.542422 0
M  V30 7025 H 936.425 5.84223 -2.47279 0
M  V30 7026 P 938.281 7.39546 -4.75277 0
M  V30 7027 O 939.702 7.84882 -5.01092 0
M  V30 7028 O 937.921 5.9812 -5.08098 0
M  V30 7029 O 937.958 7.57503 -3.1866 0
M  V30 7030 C 937.797 8.97452 -2.74862 0
M  V30 7031 C 938.338 9.07548 -1.32709 0
M  V30 7032 O 937.283 8.61972 -0.606089 0
M  V30 7033 C 939.556 8.25383 -0.938334 0
M  V30 7034 O 940.294 8.74577 0.146954 0
M  V30 7035 C 938.888 6.8802 -0.712559 0
M  V30 7036 O 939.686 6.1181 0.188505 0
M  V30 7037 C 937.55 7.27966 -0.139777 0
M  V30 7038 N 936.507 6.39368 -0.623421 0
M  V30 7039 C 936.676 5.71761 -1.78245 0
M  V30 7040 N 935.649 4.962 -2.10491 0
M  V30 7041 C 934.764 5.16158 -1.0635 0
M  V30 7042 C 933.497 4.60425 -0.810266 0
M  V30 7043 N 932.932 5.06 0.348685 0
M  V30 7044 C 933.534 5.94532 1.20395 0
M  V30 7045 N 934.711 6.48452 1.01191 0
M  V30 7046 C 935.286 6.04423 -0.146291 0
M  V30 7047 H 938.765 6.32625 -1.65044 0
M  V30 7048 H 940.248 8.19355 -1.79097 0
M  V30 7049 H 938.554 10.1305 -1.09016 0
M  V30 7050 H 938.364 9.64276 -3.41316 0
M  V30 7051 H 936.734 9.25417 -2.76357 0
M  V30 7052 H 937.576 5.79354 -2.38959 0
M  V30 7053 H 939.374 6.25169 1.0783 0
M  V30 7054 P 941.232 8.791 7.24582e-12 0
M  V30 7055 O 942.654 9.31096 0.027933 0
M  V30 7056 O 940.872 7.77869 -1.04071 0
M  V30 7057 O 940.909 8.09533 1.41463 0
M  V30 7058 C 940.749 9.0349 2.53943 0
M  V30 7059 C 941.289 8.35226 3.79016 0
M  V30 7060 O 940.233 7.57992 4.15078 0
M  V30 7061 C 942.507 7.45087 3.67298 0
M  V30 7062 O 943.245 7.27796 4.85194 0
M  V30 7063 C 941.838 6.17323 3.12027 0
M  V30 7064 O 942.637 5.04231 3.47188 0
M  V30 7065 C 940.501 6.19961 3.81809 0
M  V30 7066 H 940.533 5.58218 4.73051 0
M  V30 7067 H 941.716 6.21726 2.02589 0
M  V30 7068 H 943.2 7.86112 2.9231 0
M  V30 7069 H 941.506 9.11627 4.55076 0
M  V30 7070 H 941.316 9.9573 2.34194 0
M  V30 7071 H 939.686 9.2792 2.67832 0
M  V30 7072 H 942.325 4.67702 4.28772 0
M  V30 7073 P 944.182 7.39546 4.75277 0
M  V30 7074 O 945.603 7.81861 5.05793 0
M  V30 7075 O 943.822 7.1065 3.32998 0
M  V30 7076 O 943.859 6.04542 5.56673 0
M  V30 7077 C 943.698 6.22839 7.02169 0
M  V30 7078 C 944.239 4.97725 7.70406 0
M  V30 7079 O 943.184 4.13208 7.58899 0
M  V30 7080 C 945.457 4.28231 7.11815 0
M  V30 7081 O 946.195 3.49945 8.01648 0
M  V30 7082 C 944.789 3.5063 5.96244 0
M  V30 7083 O 945.587 2.37008 5.64352 0
M  V30 7084 C 943.451 3.15122 6.56374 0
M  V30 7085 N 942.408 3.22311 5.55692 0
M  V30 7086 C 942.577 3.99655 4.46046 0
M  V30 7087 N 941.55 3.97599 3.63918 0
M  V30 7088 C 940.665 3.11159 4.25334 0
M  V30 7089 C 939.398 2.64972 3.85157 0
M  V30 7090 N 938.799 3.02132 2.69405 0
M  V30 7091 N 938.833 1.78482 4.74759 0
M  V30 7092 C 939.435 1.37463 5.90819 0
M  V30 7093 N 940.612 1.7733 6.31889 0
M  V30 7094 C 941.187 2.64393 5.43725 0
M  V30 7095 H 943.483 2.13823 6.99656 0
M  V30 7096 H 944.666 4.12931 5.06895 0
M  V30 7097 H 946.149 5.03285 6.70911 0
M  V30 7098 H 944.455 5.20001 8.76217 0
M  V30 7099 H 944.265 7.11046 7.35349 0
M  V30 7100 H 942.635 6.35815 7.26986 0
M  V30 7101 H 938.899 0.66574 6.53015 0
M  V30 7102 H 943.477 4.58037 4.27732 0
M  V30 7103 H 937.869 2.64828 2.45331 0
M  V30 7104 H 939.273 3.67472 2.05644 0
M  V30 7105 H 945.275 1.61619 6.13468 0
M  V30 7106 P 947.133 3.65191 7.99657 0
M  V30 7107 O 948.534 3.90823 8.51272 0
M  V30 7108 O 946.755 4.23191 6.66972 0
M  V30 7109 O 946.81 2.07587 7.95046 0
M  V30 7110 C 946.65 1.44328 9.27336 0
M  V30 7111 C 947.19 0.0220012 9.17097 0
M  V30 7112 O 946.134 -0.626794 8.61824 0
M  V30 7113 C 948.407 -0.24586 8.30336 0
M  V30 7114 O 949.146 -1.39011 8.63583 0
M  V30 7115 C 947.74 -0.273849 6.91158 0
M  V30 7116 O 948.538 -1.06331 6.02794 0
M  V30 7117 C 946.402 -0.897649 7.22545 0
M  V30 7118 N 945.359 -0.292839 6.41732 0
M  V30 7119 C 944.324 -1.08701 5.98712 0
M  V30 7120 O 944.363 -2.31211 6.24471 0
M  V30 7121 N 943.312 -0.533391 5.28415 0
M  V30 7122 C 943.36 0.770866 4.98576 0
M  V30 7123 N 942.35 1.29482 4.30134 0
M  V30 7124 C 944.456 1.59049 5.38086 0
M  V30 7125 C 945.422 1.01866 6.10256 0
M  V30 7126 H 946.434 -1.98383 7.04189 0
M  V30 7127 H 947.617 0.733318 6.49674 0
M  V30 7128 H 949.101 0.598386 8.36663 0
M  V30 7129 H 947.407 -0.362662 10.1825 0
M  V30 7130 H 947.216 2.00611 10.0304 0
M  V30 7131 H 945.586 1.41828 9.55228 0
M  V30 7132 H 944.504 2.6415 5.10622 0
M  V30 7133 H 946.268 1.61983 6.44042 0
M  V30 7134 H 941.56 0.69888 4.01361 0
M  V30 7135 H 942.355 2.29327 4.05781 0
M  V30 7136 H 948.322 -1.97777 6.14035 0
M  V30 7137 P 950.084 -1.25109 8.70152 0
M  V30 7138 O 951.506 -1.35274 9.21221 0
M  V30 7139 O 949.724 -0.0769065 7.84762 0
M  V30 7140 O 949.761 -2.55232 7.81161 0
M  V30 7141 C 949.601 -3.79939 8.58154 0
M  V30 7142 C 950.141 -4.94023 7.72785 0
M  V30 7143 O 949.085 -5.18726 6.91205 0
M  V30 7144 C 951.359 -4.69597 6.85231 0
M  V30 7145 O 952.097 -5.83832 6.51337 0
M  V30 7146 C 950.69 -3.96706 5.66633 0
M  V30 7147 O 951.489 -4.15414 4.49689 0
M  V30 7148 C 949.353 -4.66153 5.59313 0
M  V30 7149 H 949.385 -5.47679 4.85214 0
M  V30 7150 H 950.568 -2.89008 5.86566 0
M  V30 7151 H 952.052 -4.0121 7.36511 0
M  V30 7152 H 950.358 -5.80182 8.37584 0
M  V30 7153 H 950.168 -3.73517 9.52265 0
M  V30 7154 H 948.538 -3.97163 8.80359 0
M  V30 7155 H 951.177 -4.90969 4.01921 0
M  V30 7156 P 953.034 -5.75688 6.64379 0
M  V30 7157 O 954.456 -6.11849 7.01846 0
M  V30 7158 O 952.674 -4.30744 6.56026 0
M  V30 7159 O 952.711 -6.37042 5.19165 0
M  V30 7160 C 952.551 -7.83578 5.16515 0
M  V30 7161 C 953.091 -8.33398 3.83019 0
M  V30 7162 O 952.035 -8.10074 3.01034 0
M  V30 7163 C 954.309 -7.65514 3.2257 0
M  V30 7164 O 955.047 -8.4329 2.32297 0
M  V30 7165 C 953.64 -6.40075 2.62207 0
M  V30 7166 O 954.439 -5.92589 1.53712 0
M  V30 7167 C 952.303 -6.9454 2.18503 0
M  V30 7168 H 952.335 -7.23063 1.12091 0
M  V30 7169 H 953.518 -5.6025 3.37201 0
M  V30 7170 H 955.002 -7.35707 4.02681 0
M  V30 7171 H 953.308 -9.40912 3.9095 0
M  V30 7172 H 953.118 -8.29056 5.99158 0
M  V30 7173 H 951.488 -8.10073 5.25882 0
M  V30 7174 H 954.127 -6.30324 0.726794 0
M  V30 7175 P 955.985 -8.4349 2.47671 0
M  V30 7176 O 957.407 -8.94167 2.5964 0
M  V30 7177 O 955.625 -7.1704 3.19006 0
M  V30 7178 O 955.662 -8.16596 0.923387 0
M  V30 7179 C 955.502 -9.38437 0.108857 0
M  V30 7180 C 956.042 -9.08175 -1.28353 0
M  V30 7181 O 954.986 -8.44229 -1.84713 0
M  V30 7182 C 957.26 -8.18386 -1.42505 0
M  V30 7183 O 957.998 -8.3501 -2.60497 0
M  V30 7184 C 956.591 -6.80225 -1.25468 0
M  V30 7185 O 957.39 -5.81621 -1.91066 0
M  V30 7186 C 955.254 -7.02416 -1.9168 0
M  V30 7187 H 955.286 -6.6888 -2.96621 0
M  V30 7188 H 956.469 -6.53617 -0.192223 0
M  V30 7189 H 957.953 -8.36622 -0.589963 0
M  V30 7190 H 956.259 -10.0291 -1.79807 0
M  V30 7191 H 956.069 -10.2138 0.558219 0
M  V30 7192 H 954.439 -9.6579 0.0444202 0
M  V30 7193 H 957.078 -5.69556 -2.79637 0
M  V30 7194 P 958.935 -8.4349 -2.47671 0
M  V30 7195 O 960.357 -8.92593 -2.65 0
M  V30 7196 O 958.575 -7.7568 -1.19296 0
M  V30 7197 O 958.612 -7.36886 -3.63805 0
M  V30 7198 C 958.452 -7.95349 -4.982 0
M  V30 7199 C 958.992 -6.94612 -5.98974 0
M  V30 7200 O 957.936 -6.10347 -6.11815 0
M  V30 7201 C 960.21 -6.11426 -5.62335 0
M  V30 7202 O 960.948 -5.6162 -6.70584 0
M  V30 7203 C 959.541 -5.04409 -4.73308 0
M  V30 7204 O 960.34 -3.85992 -4.75183 0
M  V30 7205 C 958.204 -4.8728 -5.41006 0
M  V30 7206 H 958.236 -4.02333 -6.11157 0
M  V30 7207 H 959.419 -5.39466 -3.69543 0
M  V30 7208 H 960.903 -6.71916 -5.01943 0
M  V30 7209 H 959.209 -7.4649 -6.93477 0
M  V30 7210 H 959.019 -8.89416 -5.05237 0
M  V30 7211 H 957.389 -8.14876 -5.18409 0
M  V30 7212 H 960.028 -3.27957 -5.4317 0
M  V30 7213 P 961.886 -5.75688 -6.64379 0
M  V30 7214 O 963.308 -6.07627 -7.05504 0
M  V30 7215 O 961.526 -5.88047 -5.19722 0
M  V30 7216 O 961.563 -4.2322 -7.04443 0
M  V30 7217 C 961.403 -3.99743 -8.4911 0
M  V30 7218 C 961.943 -2.60516 -8.79425 0
M  V30 7219 O 960.887 -1.82684 -8.4467 0
M  V30 7220 C 963.161 -2.10343 -8.03628 0
M  V30 7221 O 963.899 -1.09919 -8.67766 0
M  V30 7222 C 962.492 -1.68446 -6.70876 0
M  V30 7223 O 963.291 -0.678137 -6.08433 0
M  V30 7224 C 961.155 -1.17436 -7.18567 0
M  V30 7225 H 961.187 -0.0804732 -7.31656 0
M  V30 7226 H 962.37 -2.54037 -6.02537 0
M  V30 7227 H 963.854 -2.93881 -7.85526 0
M  V30 7228 H 962.16 -2.53065 -9.86973 0
M  V30 7229 H 961.97 -4.75072 -9.05887 0
M  V30 7230 H 960.34 -4.05244 -8.76668 0
M  V30 7231 H 962.979 0.177647 -6.34251 0
M  V30 7232 P 964.836 -1.25109 -8.70152 0
M  V30 7233 O 966.258 -1.29744 -9.22016 0
M  V30 7234 O 964.476 -2.13714 -7.55141 0
M  V30 7235 O 964.513 0.248149 -8.21425 0
M  V30 7236 C 964.353 1.22779 -9.30434 0
M  V30 7237 C 964.893 2.56293 -8.80664 0
M  V30 7238 O 963.837 3.02979 -8.09349 0
M  V30 7239 C 966.111 2.57523 -7.89775 0
M  V30 7240 O 966.849 3.7668 -7.89438 0
M  V30 7241 C 965.442 2.20997 -6.55446 0
M  V30 7242 O 966.241 2.71895 -5.48509 0
M  V30 7243 C 964.105 2.89693 -6.67988 0
M  V30 7244 H 964.137 3.88793 -6.19859 0
M  V30 7245 H 965.32 1.12046 -6.44229 0
M  V30 7246 H 966.804 1.7746 -8.19711 0
M  V30 7247 H 965.11 3.20706 -9.67112 0
M  V30 7248 H 964.92 0.901032 -10.1892 0
M  V30 7249 H 963.29 1.33049 -9.56592 0
M  V30 7250 H 965.929 3.57847 -5.23962 0
M  V30 7251 P 967.787 3.65191 -7.99657 0
M  V30 7252 O 969.209 3.89332 -8.45794 0
M  V30 7253 O 967.427 2.28472 -7.50807 0
M  V30 7254 O 967.464 4.64972 -6.77611 0
M  V30 7255 C 967.304 6.06319 -7.16352 0
M  V30 7256 C 967.844 6.91731 -6.02299 0
M  V30 7257 O 966.788 6.92449 -5.17064 0
M  V30 7258 C 969.062 6.43627 -5.25174 0
M  V30 7259 O 969.8 7.43686 -4.60469 0
M  V30 7260 C 968.393 5.40275 -4.31916 0
M  V30 7261 O 969.192 5.25279 -3.14438 0
M  V30 7262 C 967.056 6.04847 -4.05327 0
M  V30 7263 H 967.088 6.62195 -3.11261 0
M  V30 7264 H 968.271 4.42556 -4.81383 0
M  V30 7265 H 969.755 5.92458 -5.93643 0
M  V30 7266 H 968.061 7.92655 -6.402 0
M  V30 7267 H 967.871 6.26671 -8.0846 0
M  V30 7268 H 966.241 6.29101 -7.32804 0
M  V30 7269 H 968.88 5.84315 -2.47318 0
M  V30 7270 P 970.738 7.39546 -4.75277 0
M  V30 7271 O 972.16 7.84798 -5.01039 0
M  V30 7272 O 970.378 5.9812 -5.08098 0
M  V30 7273 O 970.415 7.57503 -3.1866 0
M  V30 7274 C 970.255 8.97357 -2.74833 0
M  V30 7275 C 970.795 9.07548 -1.32709 0
M  V30 7276 O 969.739 8.62072 -0.606159 0
M  V30 7277 C 972.013 8.25383 -0.938334 0
M  V30 7278 O 972.751 8.74577 0.146954 0
M  V30 7279 C 971.344 6.8802 -0.712559 0
M  V30 7280 O 972.143 6.1189 0.194655 0
M  V30 7281 C 970.007 7.27966 -0.139777 0
M  V30 7282 H 970.039 7.25354 0.961601 0
M  V30 7283 H 971.222 6.32557 -1.65702 0
M  V30 7284 H 972.706 8.19355 -1.79097 0
M  V30 7285 H 971.012 10.1294 -1.10029 0
M  V30 7286 H 970.822 9.64276 -3.41316 0
M  V30 7287 H 969.192 9.25417 -2.76357 0
M  V30 7288 H 971.831 6.25267 1.07847 0
M  V30 7289 P 973.688 8.791 7.55599e-12 0
M  V30 7290 O 975.11 9.31096 0.027933 0
M  V30 7291 O 973.328 7.77869 -1.04071 0
M  V30 7292 O 973.365 8.09533 1.41463 0
M  V30 7293 C 973.205 9.0349 2.53943 0
M  V30 7294 C 973.745 8.35226 3.79016 0
M  V30 7295 O 972.689 7.57992 4.15078 0
M  V30 7296 C 974.963 7.45087 3.67298 0
M  V30 7297 O 975.701 7.27796 4.85194 0
M  V30 7298 C 974.294 6.17323 3.12027 0
M  V30 7299 O 975.093 5.04231 3.47188 0
M  V30 7300 C 972.957 6.19961 3.81809 0
M  V30 7301 H 972.989 5.58218 4.73051 0
M  V30 7302 H 974.172 6.21726 2.02589 0
M  V30 7303 H 975.656 7.86112 2.9231 0
M  V30 7304 H 973.962 9.11627 4.55076 0
M  V30 7305 H 973.772 9.9573 2.34194 0
M  V30 7306 H 972.142 9.2792 2.67832 0
M  V30 7307 H 974.781 4.67702 4.28772 0
M  V30 7308 P 976.639 7.39546 4.75277 0
M  V30 7309 O 978.061 7.81777 5.05738 0
M  V30 7310 O 976.279 7.1065 3.32998 0
M  V30 7311 O 976.316 6.04542 5.56673 0
M  V30 7312 C 976.156 6.22772 7.02095 0
M  V30 7313 C 976.696 4.97725 7.70406 0
M  V30 7314 O 975.64 4.13256 7.58987 0
M  V30 7315 C 977.914 4.28231 7.11815 0
M  V30 7316 O 978.652 3.49945 8.01648 0
M  V30 7317 C 977.245 3.5063 5.96244 0
M  V30 7318 O 978.044 2.36482 5.64681 0
M  V30 7319 C 975.908 3.15122 6.56374 0
M  V30 7320 H 975.94 2.13853 6.99751 0
M  V30 7321 H 977.123 4.13501 5.06559 0
M  V30 7322 H 978.607 5.03285 6.70911 0
M  V30 7323 H 976.913 5.20877 8.75697 0
M  V30 7324 H 976.723 7.11046 7.35349 0
M  V30 7325 H 975.093 6.35815 7.26986 0
M  V30 7326 H 977.732 1.61644 6.13565 0
M  V30 7327 P 979.589 3.65191 7.99657 0
M  V30 7328 O 981.011 3.84333 8.48297 0
M  V30 7329 O 979.229 4.17805 6.64342 0
M  V30 7330 O 979.266 2.07613 7.95143 0
M  V30 7331 C 979.106 1.44328 9.27336 0
M  V30 7332 C 979.646 0.0220012 9.17097 0
M  V30 7333 O 978.591 -0.626867 8.61923 0
M  V30 7334 C 980.864 -0.24586 8.30336 0
M  V30 7335 O 981.602 -1.39011 8.63583 0
M  V30 7336 C 980.196 -0.273849 6.91158 0
M  V30 7337 O 980.994 -1.06331 6.02794 0
M  V30 7338 C 978.858 -0.897649 7.22545 0
M  V30 7339 N 977.815 -0.292839 6.41732 0
M  V30 7340 C 977.877 1.00068 6.10757 0
M  V30 7341 N 976.832 1.36468 5.35794 0
M  V30 7342 C 976.098 0.258894 5.2366 0
M  V30 7343 C 974.792 0.0670682 4.65752 0
M  V30 7344 O 974.059 0.902443 4.10497 0
M  V30 7345 N 974.362 -1.2131 4.75881 0
M  V30 7346 C 975.111 -2.24934 5.37101 0
M  V30 7347 N 974.514 -3.48783 5.33984 0
M  V30 7348 N 976.264 -2.0844 5.95684 0
M  V30 7349 C 976.721 -0.81395 5.87791 0
M  V30 7350 H 978.89 -1.9841 7.04286 0
M  V30 7351 H 980.073 0.739815 6.49601 0
M  V30 7352 H 981.558 0.598315 8.36563 0
M  V30 7353 H 979.863 -0.352479 10.1829 0
M  V30 7354 H 979.673 2.00611 10.0304 0
M  V30 7355 H 978.042 1.41843 9.55327 0
M  V30 7356 H 973.466 -1.44434 4.37895 0
M  V30 7357 H 978.673 1.67697 6.42268 0
M  V30 7358 H 973.603 -3.60543 4.87699 0
M  V30 7359 H 974.979 -4.29232 5.7819 0
M  V30 7360 H 980.683 -1.95704 6.0346 0
M  V30 7361 P 982.54 -1.25109 8.70152 0
M  V30 7362 O 983.962 -1.35303 9.21419 0
M  V30 7363 O 982.18 -0.0769065 7.84762 0
M  V30 7364 O 982.217 -2.55232 7.81161 0
M  V30 7365 C 982.057 -3.79939 8.58154 0
M  V30 7366 C 982.597 -4.93969 7.72701 0
M  V30 7367 O 981.542 -5.18726 6.91205 0
M  V30 7368 C 983.815 -4.69597 6.85231 0
M  V30 7369 O 984.553 -5.83832 6.51337 0
M  V30 7370 C 983.147 -3.96706 5.66633 0
M  V30 7371 O 983.945 -4.15346 4.49615 0
M  V30 7372 C 981.809 -4.66153 5.59313 0
M  V30 7373 N 980.766 -3.71582 5.24027 0
M  V30 7374 C 980.828 -2.46018 5.67902 0
M  V30 7375 N 979.783 -1.74868 5.24518 0
M  V30 7376 C 979.049 -2.61333 4.54528 0
M  V30 7377 C 977.743 -2.46162 3.95441 0
M  V30 7378 O 977.01 -1.46013 3.94122 0
M  V30 7379 N 977.313 -3.59334 3.34752 0
M  V30 7380 C 978.062 -4.79605 3.3023 0
M  V30 7381 N 977.465 -5.82109 2.6065 0
M  V30 7382 N 979.215 -4.97402 3.8843 0
M  V30 7383 C 979.672 -3.86258 4.50476 0
M  V30 7384 H 981.841 -5.47679 4.85214 0
M  V30 7385 H 983.024 -2.88964 5.86476 0
M  V30 7386 H 984.509 -4.01947 7.36109 0
M  V30 7387 H 982.814 -5.80182 8.37584 0
M  V30 7388 H 982.624 -3.73517 9.52265 0
M  V30 7389 H 980.993 -3.97163 8.80359 0
M  V30 7390 H 976.417 -3.5825 2.90294 0
M  V30 7391 H 981.624 -2.06161 6.30974 0
M  V30 7392 H 976.554 -5.66979 2.15354 0
M  V30 7393 H 977.93 -6.73686 2.54344 0
M  V30 7394 H 983.634 -4.90891 4.01857 0
M  V30 7395 P 985.49 -5.75688 6.64379 0
M  V30 7396 O 986.912 -6.11849 7.01846 0
M  V30 7397 O 985.13 -4.30744 6.56026 0
M  V30 7398 O 985.167 -6.37042 5.19165 0
M  V30 7399 C 985.007 -7.83578 5.16515 0
M  V30 7400 C 985.547 -8.33398 3.83019 0
M  V30 7401 O 984.491 -8.10074 3.01034 0
M  V30 7402 C 986.765 -7.65514 3.2257 0
M  V30 7403 O 987.503 -8.4329 2.32297 0
M  V30 7404 C 986.096 -6.40075 2.62207 0
M  V30 7405 O 986.895 -5.92589 1.53712 0
M  V30 7406 C 984.759 -6.9454 2.18503 0
M  V30 7407 H 984.791 -7.23063 1.12091 0
M  V30 7408 H 985.974 -5.6025 3.37201 0
M  V30 7409 H 987.458 -7.35707 4.02681 0
M  V30 7410 H 985.764 -9.40912 3.9095 0
M  V30 7411 H 985.574 -8.29056 5.99158 0
M  V30 7412 H 983.944 -8.10073 5.25882 0
M  V30 7413 H 986.583 -6.30324 0.726794 0
M  V30 7414 P 988.441 -8.4349 2.47671 0
M  V30 7415 O 989.863 -8.94167 2.5964 0
M  V30 7416 O 988.081 -7.1704 3.19006 0
M  V30 7417 O 988.118 -8.16596 0.923387 0
M  V30 7418 C 987.958 -9.38437 0.108857 0
M  V30 7419 C 988.498 -9.08175 -1.28353 0
M  V30 7420 O 987.442 -8.44229 -1.84713 0
M  V30 7421 C 989.716 -8.18386 -1.42505 0
M  V30 7422 O 990.454 -8.3501 -2.60497 0
M  V30 7423 C 989.047 -6.80225 -1.25468 0
M  V30 7424 O 989.846 -5.81621 -1.91066 0
M  V30 7425 C 987.71 -7.02416 -1.9168 0
M  V30 7426 H 987.742 -6.6888 -2.96621 0
M  V30 7427 H 988.925 -6.53617 -0.192223 0
M  V30 7428 H 990.409 -8.36622 -0.589963 0
M  V30 7429 H 988.715 -10.0291 -1.79807 0
M  V30 7430 H 988.525 -10.2138 0.558219 0
M  V30 7431 H 986.895 -9.6579 0.0444202 0
M  V30 7432 H 989.534 -5.69556 -2.79637 0
M  V30 7433 P 991.392 -8.4349 -2.47671 0
M  V30 7434 O 992.814 -8.92593 -2.65 0
M  V30 7435 O 991.032 -7.7568 -1.19296 0
M  V30 7436 O 991.069 -7.36886 -3.63805 0
M  V30 7437 C 990.909 -7.95349 -4.982 0
M  V30 7438 C 991.449 -6.94612 -5.98974 0
M  V30 7439 O 990.393 -6.10347 -6.11815 0
M  V30 7440 C 992.667 -6.11426 -5.62335 0
M  V30 7441 O 993.405 -5.6162 -6.70584 0
M  V30 7442 C 991.998 -5.04409 -4.73308 0
M  V30 7443 O 992.797 -3.85992 -4.75183 0
M  V30 7444 C 990.661 -4.8728 -5.41006 0
M  V30 7445 H 990.693 -4.02333 -6.11157 0
M  V30 7446 H 991.876 -5.39466 -3.69543 0
M  V30 7447 H 993.36 -6.71916 -5.01943 0
M  V30 7448 H 991.666 -7.4649 -6.93477 0
M  V30 7449 H 991.476 -8.89416 -5.05237 0
M  V30 7450 H 989.846 -8.14876 -5.18409 0
M  V30 7451 H 992.485 -3.27957 -5.4317 0
M  V30 7452 P 994.342 -5.75688 -6.64379 0
M  V30 7453 O 995.764 -6.07627 -7.05504 0
M  V30 7454 O 993.982 -5.88047 -5.19722 0
M  V30 7455 O 994.019 -4.2322 -7.04443 0
M  V30 7456 C 993.859 -3.99743 -8.4911 0
M  V30 7457 C 994.399 -2.60516 -8.79425 0
M  V30 7458 O 993.343 -1.82684 -8.4467 0
M  V30 7459 C 995.617 -2.10343 -8.03628 0
M  V30 7460 O 996.355 -1.09919 -8.67766 0
M  V30 7461 C 994.948 -1.68446 -6.70876 0
M  V30 7462 O 995.747 -0.678137 -6.08433 0
M  V30 7463 C 993.611 -1.17436 -7.18567 0
M  V30 7464 H 993.643 -0.0804732 -7.31656 0
M  V30 7465 H 994.826 -2.54037 -6.02537 0
M  V30 7466 H 996.31 -2.93881 -7.85526 0
M  V30 7467 H 994.616 -2.53065 -9.86973 0
M  V30 7468 H 994.426 -4.75072 -9.05887 0
M  V30 7469 H 992.796 -4.05244 -8.76668 0
M  V30 7470 H 995.435 0.177647 -6.34251 0
M  V30 7471 P 997.293 -1.25109 -8.70152 0
M  V30 7472 O 998.715 -1.29772 -9.22214 0
M  V30 7473 O 996.933 -2.13714 -7.55141 0
M  V30 7474 O 996.97 0.248149 -8.21425 0
M  V30 7475 C 996.81 1.22779 -9.30434 0
M  V30 7476 C 997.35 2.56265 -8.80568 0
M  V30 7477 O 996.295 3.02979 -8.09349 0
M  V30 7478 C 998.568 2.57523 -7.89775 0
M  V30 7479 O 999.306 3.7668 -7.89438 0
M  V30 7480 C 997.9 2.20997 -6.55446 0
M  V30 7481 O 998.698 2.71851 -5.48419 0
M  V30 7482 C 996.562 2.89693 -6.67988 0
M  V30 7483 N 995.519 2.08895 -6.07487 0
M  V30 7484 C 995.581 0.760559 -6.14209 0
M  V30 7485 N 994.536 0.200108 -5.52538 0
M  V30 7486 C 993.802 1.22692 -5.09742 0
M  V30 7487 C 992.496 1.24782 -4.48775 0
M  V30 7488 O 991.763 0.290617 -4.19294 0
M  V30 7489 N 992.066 2.50468 -4.22428 0
M  V30 7490 C 992.815 3.67142 -4.51974 0
M  V30 7491 N 992.218 4.85096 -4.14091 0
M  V30 7492 N 993.968 3.67821 -5.12831 0
M  V30 7493 C 994.425 2.43698 -5.4105 0
M  V30 7494 H 996.594 3.88793 -6.19859 0
M  V30 7495 H 997.777 1.12029 -6.4413 0
M  V30 7496 H 999.262 1.78279 -8.19533 0
M  V30 7497 H 997.567 3.20706 -9.67112 0
M  V30 7498 H 997.377 0.901032 -10.1892 0
M  V30 7499 H 995.746 1.33049 -9.56592 0
M  V30 7500 H 991.17 2.61953 -3.79465 0
M  V30 7501 H 996.377 0.200439 -6.63497 0
M  V30 7502 H 991.307 4.8334 -3.66367 0
M  V30 7503 H 992.683 5.7474 -4.33841 0
M  V30 7504 H 998.387 3.5779 -5.23879 0
M  V30 7505 P 1000.24 3.65191 -7.99657 0
M  V30 7506 O 1001.67 3.89332 -8.45794 0
M  V30 7507 O 999.883 2.28472 -7.50807 0
M  V30 7508 O 999.92 4.64972 -6.77611 0
M  V30 7509 C 999.76 6.06319 -7.16352 0
M  V30 7510 C 1000.3 6.91731 -6.02299 0
M  V30 7511 O 999.244 6.92449 -5.17064 0
M  V30 7512 C 1001.52 6.43627 -5.25174 0
M  V30 7513 O 1002.26 7.43686 -4.60469 0
M  V30 7514 C 1000.85 5.40275 -4.31916 0
M  V30 7515 O 1001.65 5.25279 -3.14438 0
M  V30 7516 C 999.512 6.04847 -4.05327 0
M  V30 7517 H 999.544 6.62195 -3.11261 0
M  V30 7518 H 1000.73 4.42556 -4.81383 0
M  V30 7519 H 1002.21 5.92458 -5.93643 0
M  V30 7520 H 1000.52 7.92655 -6.402 0
M  V30 7521 H 1000.33 6.26671 -8.0846 0
M  V30 7522 H 998.697 6.29101 -7.32804 0
M  V30 7523 H 1001.34 5.84315 -2.47318 0
M  V30 7524 P 1003.19 7.39546 -4.75277 0
M  V30 7525 O 1004.62 7.84798 -5.01039 0
M  V30 7526 O 1002.83 5.9812 -5.08098 0
M  V30 7527 O 1002.87 7.57503 -3.1866 0
M  V30 7528 C 1002.71 8.97357 -2.74833 0
M  V30 7529 C 1003.25 9.07548 -1.32709 0
M  V30 7530 O 1002.19 8.62072 -0.606159 0
M  V30 7531 C 1004.47 8.25383 -0.938334 0
M  V30 7532 O 1005.21 8.74577 0.146954 0
M  V30 7533 C 1003.8 6.8802 -0.712559 0
M  V30 7534 O 1004.6 6.1189 0.194655 0
M  V30 7535 C 1002.46 7.27966 -0.139777 0
M  V30 7536 H 1002.49 7.25354 0.961601 0
M  V30 7537 H 1003.68 6.32557 -1.65702 0
M  V30 7538 H 1005.16 8.19355 -1.79097 0
M  V30 7539 H 1003.47 10.1294 -1.10029 0
M  V30 7540 H 1003.28 9.64276 -3.41316 0
M  V30 7541 H 1001.65 9.25417 -2.76357 0
M  V30 7542 H 1004.29 6.25267 1.07847 0
M  V30 7543 P 1006.14 8.791 7.86616e-12 0
M  V30 7544 O 1007.57 9.31096 0.027933 0
M  V30 7545 O 1005.78 7.77869 -1.04071 0
M  V30 7546 O 1005.82 8.09533 1.41463 0
M  V30 7547 C 1005.66 9.0349 2.53943 0
M  V30 7548 C 1006.2 8.35226 3.79016 0
M  V30 7549 O 1005.15 7.57992 4.15078 0
M  V30 7550 C 1007.42 7.45087 3.67298 0
M  V30 7551 O 1008.16 7.27796 4.85194 0
M  V30 7552 C 1006.75 6.17323 3.12027 0
M  V30 7553 O 1007.55 5.04231 3.47188 0
M  V30 7554 C 1005.41 6.19961 3.81809 0
M  V30 7555 H 1005.45 5.58218 4.73051 0
M  V30 7556 H 1006.63 6.21726 2.02589 0
M  V30 7557 H 1008.11 7.86112 2.9231 0
M  V30 7558 H 1006.42 9.11627 4.55076 0
M  V30 7559 H 1006.23 9.9573 2.34194 0
M  V30 7560 H 1004.6 9.2792 2.67832 0
M  V30 7561 H 1007.24 4.67702 4.28772 0
M  V30 7562 P 1009.09 7.39546 4.75277 0
M  V30 7563 O 1010.52 7.81777 5.05738 0
M  V30 7564 O 1008.73 7.1065 3.32998 0
M  V30 7565 O 1008.77 6.04542 5.56673 0
M  V30 7566 C 1008.61 6.22772 7.02095 0
M  V30 7567 C 1009.15 4.97725 7.70406 0
M  V30 7568 O 1008.1 4.13256 7.58987 0
M  V30 7569 C 1010.37 4.28231 7.11815 0
M  V30 7570 O 1011.11 3.49945 8.01648 0
M  V30 7571 C 1009.7 3.5063 5.96244 0
M  V30 7572 O 1010.5 2.36482 5.64681 0
M  V30 7573 C 1008.36 3.15122 6.56374 0
M  V30 7574 H 1008.4 2.13853 6.99751 0
M  V30 7575 H 1009.58 4.13501 5.06559 0
M  V30 7576 H 1011.06 5.03285 6.70911 0
M  V30 7577 H 1009.37 5.20877 8.75697 0
M  V30 7578 H 1009.18 7.11046 7.35349 0
M  V30 7579 H 1007.55 6.35815 7.26986 0
M  V30 7580 H 1010.19 1.61644 6.13565 0
M  V30 7581 P 1012.05 3.65191 7.99657 0
M  V30 7582 O 1013.47 3.84292 8.48206 0
M  V30 7583 O 1011.69 4.17805 6.64342 0
M  V30 7584 O 1011.72 2.07613 7.95143 0
M  V30 7585 C 1011.56 1.44344 9.27435 0
M  V30 7586 C 1012.1 0.0220036 9.17197 0
M  V30 7587 O 1011.05 -0.626794 8.61824 0
M  V30 7588 C 1013.32 -0.24586 8.30336 0
M  V30 7589 O 1014.06 -1.39011 8.63583 0
M  V30 7590 C 1012.65 -0.273849 6.91158 0
M  V30 7591 O 1013.45 -1.05728 6.029 0
M  V30 7592 C 1011.31 -0.897649 7.22545 0
M  V30 7593 N 1010.27 -0.292839 6.41732 0
M  V30 7594 C 1010.44 0.950603 5.91308 0
M  V30 7595 N 1009.41 1.37732 5.21105 0
M  V30 7596 C 1008.53 0.318109 5.26039 0
M  V30 7597 C 1007.26 0.146766 4.6727 0
M  V30 7598 N 1006.66 1.08519 3.89983 0
M  V30 7599 N 1006.7 -1.06525 4.95887 0
M  V30 7600 C 1007.3 -2.0378 5.71347 0
M  V30 7601 N 1008.48 -1.92445 6.27451 0
M  V30 7602 C 1009.05 -0.715382 6.00353 0
M  V30 7603 H 1011.35 -1.98383 7.04189 0
M  V30 7604 H 1012.53 0.733318 6.49674 0
M  V30 7605 H 1014.01 0.60668 8.36503 0
M  V30 7606 H 1012.32 -0.362662 10.1825 0
M  V30 7607 H 1012.13 2.00611 10.0304 0
M  V30 7608 H 1010.5 1.41843 9.55327 0
M  V30 7609 H 1006.76 -2.97041 5.85344 0
M  V30 7610 H 1011.34 1.54076 6.07465 0
M  V30 7611 H 1005.73 0.901517 3.49562 0
M  V30 7612 H 1007.14 1.97957 3.71669 0
M  V30 7613 H 1013.14 -1.95704 6.0346 0
M  V30 7614 P 1015 -1.25109 8.70152 0
M  V30 7615 O 1016.42 -1.35274 9.21221 0
M  V30 7616 O 1014.64 -0.0769065 7.84762 0
M  V30 7617 O 1014.67 -2.55232 7.81161 0
M  V30 7618 C 1014.51 -3.79939 8.58154 0
M  V30 7619 C 1015.05 -4.94023 7.72785 0
M  V30 7620 O 1014 -5.18726 6.91205 0
M  V30 7621 C 1016.27 -4.69597 6.85231 0
M  V30 7622 O 1017.01 -5.83832 6.51337 0
M  V30 7623 C 1015.6 -3.96706 5.66633 0
M  V30 7624 O 1016.4 -4.15414 4.49689 0
M  V30 7625 C 1014.27 -4.66153 5.59313 0
M  V30 7626 H 1014.3 -5.47679 4.85214 0
M  V30 7627 H 1015.48 -2.89008 5.86566 0
M  V30 7628 H 1016.96 -4.0121 7.36511 0
M  V30 7629 H 1015.27 -5.80182 8.37584 0
M  V30 7630 H 1015.08 -3.73517 9.52265 0
M  V30 7631 H 1013.45 -3.97163 8.80359 0
M  V30 7632 H 1016.09 -4.90969 4.01921 0
M  V30 7633 P 1017.95 -5.75688 6.64379 0
M  V30 7634 O 1019.37 -6.11849 7.01846 0
M  V30 7635 O 1017.59 -4.30744 6.56026 0
M  V30 7636 O 1017.62 -6.37042 5.19165 0
M  V30 7637 C 1017.46 -7.83578 5.16515 0
M  V30 7638 C 1018 -8.33398 3.83019 0
M  V30 7639 O 1016.95 -8.10074 3.01034 0
M  V30 7640 C 1019.22 -7.65514 3.2257 0
M  V30 7641 O 1019.96 -8.4329 2.32297 0
M  V30 7642 C 1018.55 -6.40075 2.62207 0
M  V30 7643 O 1019.35 -5.92589 1.53712 0
M  V30 7644 C 1017.22 -6.9454 2.18503 0
M  V30 7645 H 1017.25 -7.23063 1.12091 0
M  V30 7646 H 1018.43 -5.6025 3.37201 0
M  V30 7647 H 1019.91 -7.35707 4.02681 0
M  V30 7648 H 1018.22 -9.40912 3.9095 0
M  V30 7649 H 1018.03 -8.29056 5.99158 0
M  V30 7650 H 1016.4 -8.10073 5.25882 0
M  V30 7651 H 1019.04 -6.30324 0.726794 0
M  V30 7652 P 1020.9 -8.4349 2.47671 0
M  V30 7653 O 1022.32 -8.94167 2.5964 0
M  V30 7654 O 1020.54 -7.1704 3.19006 0
M  V30 7655 O 1020.57 -8.16596 0.923387 0
M  V30 7656 C 1020.41 -9.38437 0.108857 0
M  V30 7657 C 1020.95 -9.08175 -1.28353 0
M  V30 7658 O 1019.9 -8.44229 -1.84713 0
M  V30 7659 C 1022.17 -8.18386 -1.42505 0
M  V30 7660 O 1022.91 -8.3501 -2.60497 0
M  V30 7661 C 1021.5 -6.80225 -1.25468 0
M  V30 7662 O 1022.3 -5.81621 -1.91066 0
M  V30 7663 C 1020.17 -7.02416 -1.9168 0
M  V30 7664 H 1020.2 -6.6888 -2.96621 0
M  V30 7665 H 1021.38 -6.53617 -0.192223 0
M  V30 7666 H 1022.87 -8.36622 -0.589963 0
M  V30 7667 H 1021.17 -10.0291 -1.79807 0
M  V30 7668 H 1020.98 -10.2138 0.558219 0
M  V30 7669 H 1019.35 -9.6579 0.0444202 0
M  V30 7670 H 1021.99 -5.69556 -2.79637 0
M  V30 7671 P 1023.85 -8.4349 -2.47671 0
M  V30 7672 O 1025.27 -8.92593 -2.65 0
M  V30 7673 O 1023.49 -7.7568 -1.19296 0
M  V30 7674 O 1023.52 -7.36886 -3.63805 0
M  V30 7675 C 1023.36 -7.95349 -4.982 0
M  V30 7676 C 1023.9 -6.94612 -5.98974 0
M  V30 7677 O 1022.85 -6.10347 -6.11815 0
M  V30 7678 C 1025.12 -6.11426 -5.62335 0
M  V30 7679 O 1025.86 -5.6162 -6.70584 0
M  V30 7680 C 1024.45 -5.04409 -4.73308 0
M  V30 7681 O 1025.25 -3.85992 -4.75183 0
M  V30 7682 C 1023.12 -4.8728 -5.41006 0
M  V30 7683 H 1023.15 -4.02333 -6.11157 0
M  V30 7684 H 1024.33 -5.39466 -3.69543 0
M  V30 7685 H 1025.82 -6.71916 -5.01943 0
M  V30 7686 H 1024.12 -7.4649 -6.93477 0
M  V30 7687 H 1023.93 -8.89416 -5.05237 0
M  V30 7688 H 1022.3 -8.14876 -5.18409 0
M  V30 7689 H 1024.94 -3.27957 -5.4317 0
M  V30 7690 P 1026.8 -5.75688 -6.64379 0
M  V30 7691 O 1028.22 -6.07627 -7.05504 0
M  V30 7692 O 1026.44 -5.88047 -5.19722 0
M  V30 7693 O 1026.48 -4.2322 -7.04443 0
M  V30 7694 C 1026.32 -3.99743 -8.4911 0
M  V30 7695 C 1026.86 -2.60516 -8.79425 0
M  V30 7696 O 1025.8 -1.82684 -8.4467 0
M  V30 7697 C 1028.07 -2.10343 -8.03628 0
M  V30 7698 O 1028.81 -1.09919 -8.67766 0
M  V30 7699 C 1027.4 -1.68446 -6.70876 0
M  V30 7700 O 1028.2 -0.678137 -6.08433 0
M  V30 7701 C 1026.07 -1.17436 -7.18567 0
M  V30 7702 H 1026.1 -0.0804732 -7.31656 0
M  V30 7703 H 1027.28 -2.54037 -6.02537 0
M  V30 7704 H 1028.77 -2.93881 -7.85526 0
M  V30 7705 H 1027.07 -2.53065 -9.86973 0
M  V30 7706 H 1026.88 -4.75072 -9.05887 0
M  V30 7707 H 1025.25 -4.05244 -8.76668 0
M  V30 7708 H 1027.89 0.177647 -6.34251 0
M  V30 7709 P 1029.75 -1.25109 -8.70152 0
M  V30 7710 O 1031.17 -1.29744 -9.22016 0
M  V30 7711 O 1029.39 -2.13714 -7.55141 0
M  V30 7712 O 1029.43 0.248149 -8.21425 0
M  V30 7713 C 1029.27 1.22779 -9.30434 0
M  V30 7714 C 1029.81 2.56293 -8.80664 0
M  V30 7715 O 1028.75 3.02979 -8.09349 0
M  V30 7716 C 1031.02 2.57523 -7.89775 0
M  V30 7717 O 1031.76 3.7668 -7.89438 0
M  V30 7718 C 1030.35 2.20997 -6.55446 0
M  V30 7719 O 1031.15 2.71895 -5.48509 0
M  V30 7720 C 1029.02 2.89693 -6.67988 0
M  V30 7721 H 1029.05 3.88793 -6.19859 0
M  V30 7722 H 1030.23 1.12046 -6.44229 0
M  V30 7723 H 1031.72 1.7746 -8.19711 0
M  V30 7724 H 1030.02 3.20706 -9.67112 0
M  V30 7725 H 1029.83 0.901032 -10.1892 0
M  V30 7726 H 1028.2 1.33049 -9.56592 0
M  V30 7727 H 1030.84 3.57847 -5.23962 0
M  V30 7728 P 1032.7 3.65191 -7.99657 0
M  V30 7729 O 1034.12 3.89374 -8.45885 0
M  V30 7730 O 1032.34 2.28472 -7.50807 0
M  V30 7731 O 1032.38 4.64972 -6.77611 0
M  V30 7732 C 1032.22 6.06383 -7.16428 0
M  V30 7733 C 1032.76 6.91731 -6.02299 0
M  V30 7734 O 1031.7 6.92369 -5.17005 0
M  V30 7735 C 1033.97 6.43627 -5.25174 0
M  V30 7736 O 1034.71 7.43686 -4.60469 0
M  V30 7737 C 1033.31 5.40275 -4.31916 0
M  V30 7738 O 1034.1 5.24878 -3.14911 0
M  V30 7739 C 1031.97 6.04847 -4.05327 0
M  V30 7740 N 1030.93 5.04166 -3.98114 0
M  V30 7741 C 1031.09 3.84629 -4.59066 0
M  V30 7742 N 1030.07 3.0363 -4.45343 0
M  V30 7743 C 1029.18 3.76722 -3.68523 0
M  V30 7744 C 1027.92 3.43528 -3.17088 0
M  V30 7745 N 1027.35 4.44526 -2.44231 0
M  V30 7746 C 1027.95 5.65243 -2.20146 0
M  V30 7747 N 1029.13 6.00221 -2.65453 0
M  V30 7748 C 1029.7 5.00564 -3.39083 0
M  V30 7749 H 1033.18 4.42969 -4.80867 0
M  V30 7750 H 1034.67 5.92458 -5.93643 0
M  V30 7751 H 1032.97 7.93295 -6.39407 0
M  V30 7752 H 1032.78 6.26671 -8.0846 0
M  V30 7753 H 1031.15 6.29101 -7.32804 0
M  V30 7754 H 1031.99 3.58193 -5.14248 0
M  V30 7755 H 1033.79 5.84223 -2.47279 0
M  V30 7756 P 1035.65 7.39546 -4.75277 0
M  V30 7757 O 1037.05 7.86988 -5.07993 0
M  V30 7758 O 1035.27 5.99957 -5.13804 0
M  V30 7759 O 1035.33 7.57411 -3.18621 0
M  V30 7760 C 1035.17 8.97357 -2.74833 0
M  V30 7761 C 1035.71 9.0745 -1.32694 0
M  V30 7762 O 1034.65 8.61972 -0.606089 0
M  V30 7763 C 1036.92 8.25383 -0.938334 0
M  V30 7764 O 1037.66 8.74577 0.146954 0
M  V30 7765 C 1036.26 6.8802 -0.712559 0
M  V30 7766 O 1037.06 6.11791 0.194623 0
M  V30 7767 C 1034.92 7.27966 -0.139777 0
M  V30 7768 N 1033.88 6.39368 -0.623421 0
M  V30 7769 C 1032.84 6.08088 0.223886 0
M  V30 7770 O 1032.88 6.5102 1.39986 0
M  V30 7771 N 1031.83 5.30627 -0.224051 0
M  V30 7772 C 1031.88 4.82531 -1.47257 0
M  V30 7773 C 1032.97 5.09974 -2.34008 0
M  V30 7774 C 1033.94 5.89548 -1.87678 0
M  V30 7775 H 1034.95 7.25255 0.961469 0
M  V30 7776 H 1036.13 6.32625 -1.65044 0
M  V30 7777 H 1037.62 8.19631 -1.78299 0
M  V30 7778 H 1035.92 10.1305 -1.09016 0
M  V30 7779 H 1035.73 9.64276 -3.41316 0
M  V30 7780 H 1034.1 9.25321 -2.76328 0
M  V30 7781 H 1033.02 4.67832 -3.3413 0
M  V30 7782 H 1034.79 6.14434 -2.51991 0
M  V30 7783 H 1036.84 6.35931 1.08377 0
M  V30 7784 P 1038.6 8.791 8.17632e-12 0
M  V30 7785 O 1040.02 9.31096 0.027933 0
M  V30 7786 O 1038.24 7.77869 -1.04071 0
M  V30 7787 O 1038.28 8.09533 1.41463 0
M  V30 7788 C 1038.12 9.0349 2.53943 0
M  V30 7789 C 1038.66 8.35226 3.79016 0
M  V30 7790 O 1037.6 7.57992 4.15078 0
M  V30 7791 C 1039.88 7.45087 3.67298 0
M  V30 7792 O 1040.61 7.27796 4.85194 0
M  V30 7793 C 1039.21 6.17323 3.12027 0
M  V30 7794 O 1040.01 5.04231 3.47188 0
M  V30 7795 C 1037.87 6.19961 3.81809 0
M  V30 7796 H 1037.9 5.58218 4.73051 0
M  V30 7797 H 1039.08 6.21726 2.02589 0
M  V30 7798 H 1040.57 7.86112 2.9231 0
M  V30 7799 H 1038.87 9.11627 4.55076 0
M  V30 7800 H 1038.68 9.9573 2.34194 0
M  V30 7801 H 1037.05 9.2792 2.67832 0
M  V30 7802 H 1039.69 4.67702 4.28772 0
M  V30 7803 P 1041.55 7.39546 4.75277 0
M  V30 7804 O 1042.97 7.81861 5.05793 0
M  V30 7805 O 1041.19 7.1065 3.32998 0
M  V30 7806 O 1041.23 6.04542 5.56673 0
M  V30 7807 C 1041.07 6.22839 7.02169 0
M  V30 7808 C 1041.61 4.97725 7.70406 0
M  V30 7809 O 1040.55 4.13208 7.58899 0
M  V30 7810 C 1042.83 4.28231 7.11815 0
M  V30 7811 O 1043.56 3.49945 8.01648 0
M  V30 7812 C 1042.16 3.5063 5.96244 0
M  V30 7813 O 1042.96 2.37008 5.64352 0
M  V30 7814 C 1040.82 3.15122 6.56374 0
M  V30 7815 N 1039.78 3.22311 5.55692 0
M  V30 7816 C 1039.95 3.99655 4.46046 0
M  V30 7817 N 1038.92 3.97599 3.63918 0
M  V30 7818 C 1038.03 3.11159 4.25334 0
M  V30 7819 C 1036.77 2.64972 3.85157 0
M  V30 7820 N 1036.17 3.02132 2.69405 0
M  V30 7821 N 1036.2 1.78482 4.74759 0
M  V30 7822 C 1036.8 1.37463 5.90819 0
M  V30 7823 N 1037.98 1.7733 6.31889 0
M  V30 7824 C 1038.56 2.64393 5.43725 0
M  V30 7825 H 1040.85 2.13823 6.99656 0
M  V30 7826 H 1042.04 4.12931 5.06895 0
M  V30 7827 H 1043.52 5.03285 6.70911 0
M  V30 7828 H 1041.82 5.20001 8.76217 0
M  V30 7829 H 1041.63 7.11046 7.35349 0
M  V30 7830 H 1040 6.35815 7.26986 0
M  V30 7831 H 1036.27 0.66574 6.53015 0
M  V30 7832 H 1040.85 4.58037 4.27732 0
M  V30 7833 H 1035.24 2.64828 2.45331 0
M  V30 7834 H 1036.64 3.67472 2.05644 0
M  V30 7835 H 1042.64 1.61619 6.13468 0
M  V30 7836 P 1044.5 3.65191 7.99657 0
M  V30 7837 O 1045.92 3.8425 8.48115 0
M  V30 7838 O 1044.14 4.17805 6.64342 0
M  V30 7839 O 1044.18 2.07613 7.95143 0
M  V30 7840 C 1044.02 1.44328 9.27336 0
M  V30 7841 C 1044.56 0.0220036 9.17197 0
M  V30 7842 O 1043.5 -0.626867 8.61923 0
M  V30 7843 C 1045.78 -0.24586 8.30336 0
M  V30 7844 O 1046.51 -1.39011 8.63583 0
M  V30 7845 C 1045.11 -0.273849 6.91158 0
M  V30 7846 O 1045.91 -1.06348 6.02892 0
M  V30 7847 C 1043.77 -0.897649 7.22545 0
M  V30 7848 H 1043.8 -1.9841 7.04286 0
M  V30 7849 H 1044.99 0.739928 6.497 0
M  V30 7850 H 1046.47 0.60668 8.36503 0
M  V30 7851 H 1044.78 -0.352479 10.1829 0
M  V30 7852 H 1044.59 2.00611 10.0304 0
M  V30 7853 H 1042.96 1.41843 9.55327 0
M  V30 7854 H 1045.59 -1.95734 6.03555 0
M  V30 7855 P 1047.45 -1.25109 8.70152 0
M  V30 7856 O 1048.87 -1.35288 9.2132 0
M  V30 7857 O 1047.09 -0.0769065 7.84762 0
M  V30 7858 O 1047.13 -2.55232 7.81161 0
M  V30 7859 C 1046.97 -3.79979 8.58246 0
M  V30 7860 C 1047.51 -4.94023 7.72785 0
M  V30 7861 O 1046.45 -5.18666 6.91125 0
M  V30 7862 C 1048.73 -4.69597 6.85231 0
M  V30 7863 O 1049.47 -5.83832 6.51337 0
M  V30 7864 C 1048.06 -3.96706 5.66633 0
M  V30 7865 O 1048.86 -4.14896 4.5003 0
M  V30 7866 C 1046.72 -4.66153 5.59313 0
M  V30 7867 N 1045.68 -3.71582 5.24027 0
M  V30 7868 C 1045.85 -2.39715 5.48833 0
M  V30 7869 N 1044.82 -1.65863 5.12845 0
M  V30 7870 C 1043.94 -2.57637 4.5973 0
M  V30 7871 C 1042.67 -2.40278 4.01027 0
M  V30 7872 N 1042.1 -3.57711 3.59575 0
M  V30 7873 C 1042.71 -4.80324 3.70476 0
M  V30 7874 N 1043.88 -5.01121 4.23801 0
M  V30 7875 C 1044.46 -3.84757 4.66372 0
M  V30 7876 H 1047.94 -2.8955 5.86187 0
M  V30 7877 H 1049.42 -4.0121 7.36511 0
M  V30 7878 H 1047.73 -5.81019 8.37003 0
M  V30 7879 H 1047.54 -3.73517 9.52265 0
M  V30 7880 H 1045.91 -3.97163 8.80359 0
M  V30 7881 H 1046.75 -1.98804 5.94332 0
M  V30 7882 H 1048.55 -4.90891 4.01857 0
M  V30 7883 P 1050.4 -5.75688 6.64379 0
M  V30 7884 O 1051.82 -6.11849 7.01846 0
M  V30 7885 O 1050.04 -4.30744 6.56026 0
M  V30 7886 O 1050.08 -6.37042 5.19165 0
M  V30 7887 C 1049.92 -7.83578 5.16515 0
M  V30 7888 C 1050.46 -8.33398 3.83019 0
M  V30 7889 O 1049.4 -8.10074 3.01034 0
M  V30 7890 C 1051.68 -7.65514 3.2257 0
M  V30 7891 O 1052.42 -8.4329 2.32297 0
M  V30 7892 C 1051.01 -6.40075 2.62207 0
M  V30 7893 O 1051.81 -5.92589 1.53712 0
M  V30 7894 C 1049.67 -6.9454 2.18503 0
M  V30 7895 H 1049.7 -7.23063 1.12091 0
M  V30 7896 H 1050.89 -5.6025 3.37201 0
M  V30 7897 H 1052.37 -7.35707 4.02681 0
M  V30 7898 H 1050.68 -9.40912 3.9095 0
M  V30 7899 H 1050.49 -8.29056 5.99158 0
M  V30 7900 H 1048.86 -8.10073 5.25882 0
M  V30 7901 H 1051.5 -6.30324 0.726794 0
M  V30 7902 P 1053.35 -8.4349 2.47671 0
M  V30 7903 O 1054.77 -8.94263 2.59668 0
M  V30 7904 O 1052.99 -7.1704 3.19006 0
M  V30 7905 O 1053.03 -8.16596 0.923387 0
M  V30 7906 C 1052.87 -9.38537 0.108869 0
M  V30 7907 C 1053.41 -9.08175 -1.28353 0
M  V30 7908 O 1052.36 -8.44131 -1.84692 0
M  V30 7909 C 1054.63 -8.18386 -1.42505 0
M  V30 7910 O 1055.37 -8.3501 -2.60497 0
M  V30 7911 C 1053.96 -6.80225 -1.25468 0
M  V30 7912 O 1054.76 -5.81716 -1.90454 0
M  V30 7913 C 1052.62 -7.02416 -1.9168 0
M  V30 7914 N 1051.58 -6.31033 -1.20314 0
M  V30 7915 C 1051.75 -5.98817 0.0994088 0
M  V30 7916 N 1050.72 -5.35403 0.621694 0
M  V30 7917 C 1049.84 -5.25212 -0.43376 0
M  V30 7918 C 1048.57 -4.64602 -0.519722 0
M  V30 7919 N 1048 -4.7568 -1.76013 0
M  V30 7920 C 1048.61 -5.3653 -2.83017 0
M  V30 7921 N 1049.78 -5.93676 -2.79782 0
M  V30 7922 C 1050.36 -5.84061 -1.56249 0
M  V30 7923 H 1053.84 -6.53498 -0.198729 0
M  V30 7924 H 1055.32 -8.36622 -0.589963 0
M  V30 7925 H 1053.63 -10.0273 -1.8081 0
M  V30 7926 H 1053.44 -10.2138 0.558219 0
M  V30 7927 H 1051.81 -9.6579 0.0444202 0
M  V30 7928 H 1052.65 -6.23209 0.660562 0
M  V30 7929 H 1054.45 -5.69466 -2.79593 0
M  V30 7930 P 1056.3 -8.4349 -2.47671 0
M  V30 7931 O 1057.71 -8.99283 -2.62101 0
M  V30 7932 O 1055.93 -7.81195 -1.16947 0
M  V30 7933 O 1055.98 -7.36797 -3.63761 0
M  V30 7934 C 1055.82 -7.95349 -4.982 0
M  V30 7935 C 1056.36 -6.94537 -5.98908 0
M  V30 7936 O 1055.31 -6.10277 -6.11744 0
M  V30 7937 C 1057.58 -6.11426 -5.62335 0
M  V30 7938 O 1058.32 -5.6162 -6.70584 0
M  V30 7939 C 1056.91 -5.04409 -4.73308 0
M  V30 7940 O 1057.71 -3.85929 -4.75106 0
M  V30 7941 C 1055.57 -4.8728 -5.41006 0
M  V30 7942 N 1054.53 -4.65812 -4.42377 0
M  V30 7943 C 1053.5 -3.81293 -4.74224 0
M  V30 7944 O 1053.53 -3.20533 -5.83679 0
M  V30 7945 N 1052.48 -3.6442 -3.86349 0
M  V30 7946 C 1052.53 -4.2728 -2.6824 0
M  V30 7947 N 1051.52 -4.09866 -1.83822 0
M  V30 7948 C 1053.63 -5.10813 -2.3217 0
M  V30 7949 C 1054.59 -5.27909 -3.22647 0
M  V30 7950 H 1055.61 -4.02278 -6.11074 0
M  V30 7951 H 1056.79 -5.39013 -3.70026 0
M  V30 7952 H 1058.27 -6.71494 -5.02675 0
M  V30 7953 H 1056.58 -7.45796 -6.94223 0
M  V30 7954 H 1056.39 -8.89416 -5.05237 0
M  V30 7955 H 1054.76 -8.14791 -5.18355 0
M  V30 7956 H 1053.68 -5.58884 -1.34755 0
M  V30 7957 H 1055.44 -5.92811 -2.9934 0
M  V30 7958 H 1050.73 -3.49095 -2.10018 0
M  V30 7959 H 1051.53 -4.56846 -0.924167 0
M  V30 7960 H 1057.49 -3.3454 -5.51577 0
M  V30 7961 P 1059.25 -5.75688 -6.64379 0
M  V30 7962 O 1060.68 -6.07627 -7.05504 0
M  V30 7963 O 1058.89 -5.88047 -5.19722 0
M  V30 7964 O 1058.93 -4.2322 -7.04443 0
M  V30 7965 C 1058.77 -3.99743 -8.4911 0
M  V30 7966 C 1059.31 -2.60516 -8.79425 0
M  V30 7967 O 1058.26 -1.82684 -8.4467 0
M  V30 7968 C 1060.53 -2.10343 -8.03628 0
M  V30 7969 O 1061.27 -1.09919 -8.67766 0
M  V30 7970 C 1059.86 -1.68446 -6.70876 0
M  V30 7971 O 1060.66 -0.678137 -6.08433 0
M  V30 7972 C 1058.52 -1.17436 -7.18567 0
M  V30 7973 H 1058.56 -0.0804732 -7.31656 0
M  V30 7974 H 1059.74 -2.54037 -6.02537 0
M  V30 7975 H 1061.22 -2.93881 -7.85526 0
M  V30 7976 H 1059.53 -2.53065 -9.86973 0
M  V30 7977 H 1059.34 -4.75072 -9.05887 0
M  V30 7978 H 1057.71 -4.05244 -8.76668 0
M  V30 7979 H 1060.35 0.177647 -6.34251 0
M  V30 7980 P 1062.21 -1.25109 -8.70152 0
M  V30 7981 O 1063.63 -1.29744 -9.22016 0
M  V30 7982 O 1061.85 -2.13714 -7.55141 0
M  V30 7983 O 1061.88 0.248149 -8.21425 0
M  V30 7984 C 1061.72 1.22779 -9.30434 0
M  V30 7985 C 1062.26 2.56293 -8.80664 0
M  V30 7986 O 1061.21 3.02979 -8.09349 0
M  V30 7987 C 1063.48 2.57523 -7.89775 0
M  V30 7988 O 1064.22 3.7668 -7.89438 0
M  V30 7989 C 1062.81 2.20997 -6.55446 0
M  V30 7990 O 1063.61 2.71895 -5.48509 0
M  V30 7991 C 1061.47 2.89693 -6.67988 0
M  V30 7992 H 1061.51 3.88793 -6.19859 0
M  V30 7993 H 1062.69 1.12046 -6.44229 0
M  V30 7994 H 1064.17 1.7746 -8.19711 0
M  V30 7995 H 1062.48 3.20706 -9.67112 0
M  V30 7996 H 1062.29 0.901032 -10.1892 0
M  V30 7997 H 1060.66 1.33049 -9.56592 0
M  V30 7998 H 1063.3 3.57847 -5.23962 0
M  V30 7999 P 1065.16 3.65191 -7.99657 0
M  V30 8000 O 1066.58 3.89332 -8.45794 0
M  V30 8001 O 1064.8 2.28472 -7.50807 0
M  V30 8002 O 1064.83 4.64972 -6.77611 0
M  V30 8003 C 1064.67 6.06319 -7.16352 0
M  V30 8004 C 1065.21 6.91731 -6.02299 0
M  V30 8005 O 1064.16 6.92449 -5.17064 0
M  V30 8006 C 1066.43 6.43627 -5.25174 0
M  V30 8007 O 1067.17 7.43686 -4.60469 0
M  V30 8008 C 1065.76 5.40275 -4.31916 0
M  V30 8009 O 1066.56 5.25279 -3.14438 0
M  V30 8010 C 1064.42 6.04847 -4.05327 0
M  V30 8011 H 1064.46 6.62195 -3.11261 0
M  V30 8012 H 1065.64 4.42556 -4.81383 0
M  V30 8013 H 1067.12 5.92458 -5.93643 0
M  V30 8014 H 1065.43 7.92655 -6.402 0
M  V30 8015 H 1065.24 6.26671 -8.0846 0
M  V30 8016 H 1063.61 6.29101 -7.32804 0
M  V30 8017 H 1066.25 5.84315 -2.47318 0
M  V30 8018 P 1068.11 7.39546 -4.75277 0
M  V30 8019 O 1069.53 7.84798 -5.01039 0
M  V30 8020 O 1067.75 5.9812 -5.08098 0
M  V30 8021 O 1067.78 7.57503 -3.1866 0
M  V30 8022 C 1067.62 8.97357 -2.74833 0
M  V30 8023 C 1068.16 9.07548 -1.32709 0
M  V30 8024 O 1067.11 8.62072 -0.606159 0
M  V30 8025 C 1069.38 8.25383 -0.938334 0
M  V30 8026 O 1070.12 8.74577 0.146954 0
M  V30 8027 C 1068.71 6.8802 -0.712559 0
M  V30 8028 O 1069.51 6.1189 0.194655 0
M  V30 8029 C 1067.38 7.27966 -0.139777 0
M  V30 8030 H 1067.41 7.25354 0.961601 0
M  V30 8031 H 1068.59 6.32557 -1.65702 0
M  V30 8032 H 1070.07 8.19355 -1.79097 0
M  V30 8033 H 1068.38 10.1294 -1.10029 0
M  V30 8034 H 1068.19 9.64276 -3.41316 0
M  V30 8035 H 1066.56 9.25417 -2.76357 0
M  V30 8036 H 1069.2 6.25267 1.07847 0
M  V30 8037 P 1071.06 8.791 8.48649e-12 0
M  V30 8038 O 1072.48 9.31096 0.027933 0
M  V30 8039 O 1070.7 7.77869 -1.04071 0
M  V30 8040 O 1070.73 8.09533 1.41463 0
M  V30 8041 C 1070.57 9.0349 2.53943 0
M  V30 8042 C 1071.11 8.35226 3.79016 0
M  V30 8043 O 1070.06 7.57992 4.15078 0
M  V30 8044 C 1072.33 7.45087 3.67298 0
M  V30 8045 O 1073.07 7.27796 4.85194 0
M  V30 8046 C 1071.66 6.17323 3.12027 0
M  V30 8047 O 1072.46 5.04231 3.47188 0
M  V30 8048 C 1070.33 6.19961 3.81809 0
M  V30 8049 H 1070.36 5.58218 4.73051 0
M  V30 8050 H 1071.54 6.21726 2.02589 0
M  V30 8051 H 1073.02 7.86112 2.9231 0
M  V30 8052 H 1071.33 9.11627 4.55076 0
M  V30 8053 H 1071.14 9.9573 2.34194 0
M  V30 8054 H 1069.51 9.2792 2.67832 0
M  V30 8055 H 1072.15 4.67702 4.28772 0
M  V30 8056 P 1074.01 7.39546 4.75277 0
M  V30 8057 O 1075.43 7.81861 5.05793 0
M  V30 8058 O 1073.65 7.1065 3.32998 0
M  V30 8059 O 1073.68 6.04542 5.56673 0
M  V30 8060 C 1073.52 6.22839 7.02169 0
M  V30 8061 C 1074.06 4.97725 7.70406 0
M  V30 8062 O 1073.01 4.13208 7.58899 0
M  V30 8063 C 1075.28 4.28231 7.11815 0
M  V30 8064 O 1076.02 3.49945 8.01648 0
M  V30 8065 C 1074.61 3.5063 5.96244 0
M  V30 8066 O 1075.41 2.37008 5.64352 0
M  V30 8067 C 1073.28 3.15122 6.56374 0
M  V30 8068 N 1072.23 3.22311 5.55692 0
M  V30 8069 C 1072.4 3.99655 4.46046 0
M  V30 8070 N 1071.38 3.97599 3.63918 0
M  V30 8071 C 1070.49 3.11159 4.25334 0
M  V30 8072 C 1069.22 2.64972 3.85157 0
M  V30 8073 N 1068.62 3.02132 2.69405 0
M  V30 8074 N 1068.66 1.78482 4.74759 0
M  V30 8075 C 1069.26 1.37463 5.90819 0
M  V30 8076 N 1070.44 1.7733 6.31889 0
M  V30 8077 C 1071.01 2.64393 5.43725 0
M  V30 8078 H 1073.31 2.13823 6.99656 0
M  V30 8079 H 1074.49 4.12931 5.06895 0
M  V30 8080 H 1075.97 5.03285 6.70911 0
M  V30 8081 H 1074.28 5.20001 8.76217 0
M  V30 8082 H 1074.09 7.11046 7.35349 0
M  V30 8083 H 1072.46 6.35815 7.26986 0
M  V30 8084 H 1068.72 0.66574 6.53015 0
M  V30 8085 H 1073.3 4.58037 4.27732 0
M  V30 8086 H 1067.69 2.64828 2.45331 0
M  V30 8087 H 1069.1 3.67472 2.05644 0
M  V30 8088 H 1075.1 1.61619 6.13468 0
M  V30 8089 P 1076.96 3.65191 7.99657 0
M  V30 8090 O 1078.38 3.8425 8.48115 0
M  V30 8091 O 1076.6 4.17805 6.64342 0
M  V30 8092 O 1076.64 2.07613 7.95143 0
M  V30 8093 C 1076.48 1.44328 9.27336 0
M  V30 8094 C 1077.02 0.0220036 9.17197 0
M  V30 8095 O 1075.96 -0.626867 8.61923 0
M  V30 8096 C 1078.23 -0.24586 8.30336 0
M  V30 8097 O 1078.97 -1.39011 8.63583 0
M  V30 8098 C 1077.56 -0.273849 6.91158 0
M  V30 8099 O 1078.36 -1.06348 6.02892 0
M  V30 8100 C 1076.23 -0.897649 7.22545 0
M  V30 8101 H 1076.26 -1.9841 7.04286 0
M  V30 8102 H 1077.44 0.739928 6.497 0
M  V30 8103 H 1078.93 0.60668 8.36503 0
M  V30 8104 H 1077.23 -0.352479 10.1829 0
M  V30 8105 H 1077.04 2.00611 10.0304 0
M  V30 8106 H 1075.41 1.41843 9.55327 0
M  V30 8107 H 1078.05 -1.95734 6.03555 0
M  V30 8108 P 1079.91 -1.25109 8.70152 0
M  V30 8109 O 1081.31 -1.31452 9.27431 0
M  V30 8110 O 1079.53 -0.0458113 7.89887 0
M  V30 8111 O 1079.59 -2.55201 7.81066 0
M  V30 8112 C 1079.43 -3.79939 8.58154 0
M  V30 8113 C 1079.97 -4.93969 7.72701 0
M  V30 8114 O 1078.91 -5.18666 6.91125 0
M  V30 8115 C 1081.18 -4.69597 6.85231 0
M  V30 8116 O 1081.92 -5.83832 6.51337 0
M  V30 8117 C 1080.52 -3.96706 5.66633 0
M  V30 8118 O 1081.31 -4.15346 4.49615 0
M  V30 8119 C 1079.18 -4.66153 5.59313 0
M  V30 8120 N 1078.13 -3.71582 5.24027 0
M  V30 8121 C 1077.1 -4.15133 4.44901 0
M  V30 8122 O 1077.14 -5.32122 4.00336 0
M  V30 8123 N 1076.09 -3.30554 4.15693 0
M  V30 8124 C 1076.14 -2.04701 4.61105 0
M  V30 8125 N 1075.13 -1.23621 4.31855 0
M  V30 8126 C 1077.23 -1.57111 5.38655 0
M  V30 8127 C 1078.2 -2.44234 5.68454 0
M  V30 8128 H 1079.21 -5.47604 4.85148 0
M  V30 8129 H 1080.39 -2.8955 5.86187 0
M  V30 8130 H 1081.88 -4.01995 7.36197 0
M  V30 8131 H 1080.18 -5.81019 8.37003 0
M  V30 8132 H 1079.99 -3.73517 9.52265 0
M  V30 8133 H 1078.36 -3.97122 8.80267 0
M  V30 8134 H 1077.28 -0.538464 5.72373 0
M  V30 8135 H 1079.04 -2.11927 6.29377 0
M  V30 8136 H 1074.34 -1.58199 3.7543 0
M  V30 8137 H 1075.13 -0.264601 4.65348 0
M  V30 8138 H 1081.1 -4.98352 4.09633 0
M  V30 8139 P 1082.86 -5.75688 6.64379 0
M  V30 8140 O 1084.28 -6.11849 7.01846 0
M  V30 8141 O 1082.5 -4.30744 6.56026 0
M  V30 8142 O 1082.54 -6.37042 5.19165 0
M  V30 8143 C 1082.38 -7.83578 5.16515 0
M  V30 8144 C 1082.92 -8.33398 3.83019 0
M  V30 8145 O 1081.86 -8.10074 3.01034 0
M  V30 8146 C 1084.13 -7.65514 3.2257 0
M  V30 8147 O 1084.87 -8.4329 2.32297 0
M  V30 8148 C 1083.47 -6.40075 2.62207 0
M  V30 8149 O 1084.26 -5.92589 1.53712 0
M  V30 8150 C 1082.13 -6.9454 2.18503 0
M  V30 8151 H 1082.16 -7.23063 1.12091 0
M  V30 8152 H 1083.34 -5.6025 3.37201 0
M  V30 8153 H 1084.83 -7.35707 4.02681 0
M  V30 8154 H 1083.13 -9.40912 3.9095 0
M  V30 8155 H 1082.94 -8.29056 5.99158 0
M  V30 8156 H 1081.31 -8.10073 5.25882 0
M  V30 8157 H 1083.95 -6.30324 0.726794 0
M  V30 8158 P 1085.81 -8.4349 2.47671 0
M  V30 8159 O 1087.23 -8.94167 2.5964 0
M  V30 8160 O 1085.45 -7.1704 3.19006 0
M  V30 8161 O 1085.49 -8.16596 0.923387 0
M  V30 8162 C 1085.33 -9.38437 0.108857 0
M  V30 8163 C 1085.87 -9.08175 -1.28353 0
M  V30 8164 O 1084.81 -8.44229 -1.84713 0
M  V30 8165 C 1087.08 -8.18386 -1.42505 0
M  V30 8166 O 1087.82 -8.3501 -2.60497 0
M  V30 8167 C 1086.42 -6.80225 -1.25468 0
M  V30 8168 O 1087.21 -5.81621 -1.91066 0
M  V30 8169 C 1085.08 -7.02416 -1.9168 0
M  V30 8170 H 1085.11 -6.6888 -2.96621 0
M  V30 8171 H 1086.29 -6.53617 -0.192223 0
M  V30 8172 H 1087.78 -8.36622 -0.589963 0
M  V30 8173 H 1086.08 -10.0291 -1.79807 0
M  V30 8174 H 1085.89 -10.2138 0.558219 0
M  V30 8175 H 1084.26 -9.6579 0.0444202 0
M  V30 8176 H 1086.9 -5.69556 -2.79637 0
M  V30 8177 P 1088.76 -8.4349 -2.47671 0
M  V30 8178 O 1090.18 -8.92593 -2.65 0
M  V30 8179 O 1088.4 -7.7568 -1.19296 0
M  V30 8180 O 1088.44 -7.36886 -3.63805 0
M  V30 8181 C 1088.28 -7.95349 -4.982 0
M  V30 8182 C 1088.82 -6.94612 -5.98974 0
M  V30 8183 O 1087.76 -6.10347 -6.11815 0
M  V30 8184 C 1090.04 -6.11426 -5.62335 0
M  V30 8185 O 1090.77 -5.6162 -6.70584 0
M  V30 8186 C 1089.37 -5.04409 -4.73308 0
M  V30 8187 O 1090.17 -3.85992 -4.75183 0
M  V30 8188 C 1088.03 -4.8728 -5.41006 0
M  V30 8189 H 1088.06 -4.02333 -6.11157 0
M  V30 8190 H 1089.24 -5.39466 -3.69543 0
M  V30 8191 H 1090.73 -6.71916 -5.01943 0
M  V30 8192 H 1089.03 -7.4649 -6.93477 0
M  V30 8193 H 1088.84 -8.89416 -5.05237 0
M  V30 8194 H 1087.21 -8.14876 -5.18409 0
M  V30 8195 H 1089.85 -3.27957 -5.4317 0
M  V30 8196 P 1091.71 -5.75688 -6.64379 0
M  V30 8197 O 1093.13 -6.07627 -7.05504 0
M  V30 8198 O 1091.35 -5.88047 -5.19722 0
M  V30 8199 O 1091.39 -4.2322 -7.04443 0
M  V30 8200 C 1091.23 -3.99743 -8.4911 0
M  V30 8201 C 1091.77 -2.60516 -8.79425 0
M  V30 8202 O 1090.71 -1.82684 -8.4467 0
M  V30 8203 C 1092.99 -2.10343 -8.03628 0
M  V30 8204 O 1093.72 -1.09919 -8.67766 0
M  V30 8205 C 1092.32 -1.68446 -6.70876 0
M  V30 8206 O 1093.12 -0.678137 -6.08433 0
M  V30 8207 C 1090.98 -1.17436 -7.18567 0
M  V30 8208 H 1091.01 -0.0804732 -7.31656 0
M  V30 8209 H 1092.19 -2.54037 -6.02537 0
M  V30 8210 H 1093.68 -2.93881 -7.85526 0
M  V30 8211 H 1091.98 -2.53065 -9.86973 0
M  V30 8212 H 1091.79 -4.75072 -9.05887 0
M  V30 8213 H 1090.16 -4.05244 -8.76668 0
M  V30 8214 H 1092.8 0.177647 -6.34251 0
M  V30 8215 P 1094.66 -1.25109 -8.70152 0
M  V30 8216 O 1096.08 -1.29744 -9.22016 0
M  V30 8217 O 1094.3 -2.13714 -7.55141 0
M  V30 8218 O 1094.34 0.248149 -8.21425 0
M  V30 8219 C 1094.18 1.22779 -9.30434 0
M  V30 8220 C 1094.72 2.56293 -8.80664 0
M  V30 8221 O 1093.66 3.02979 -8.09349 0
M  V30 8222 C 1095.94 2.57523 -7.89775 0
M  V30 8223 O 1096.67 3.7668 -7.89438 0
M  V30 8224 C 1095.27 2.20997 -6.55446 0
M  V30 8225 O 1096.07 2.71895 -5.48509 0
M  V30 8226 C 1093.93 2.89693 -6.67988 0
M  V30 8227 H 1093.96 3.88793 -6.19859 0
M  V30 8228 H 1095.15 1.12046 -6.44229 0
M  V30 8229 H 1096.63 1.7746 -8.19711 0
M  V30 8230 H 1094.94 3.20706 -9.67112 0
M  V30 8231 H 1094.75 0.901032 -10.1892 0
M  V30 8232 H 1093.12 1.33049 -9.56592 0
M  V30 8233 H 1095.75 3.57847 -5.23962 0
M  V30 8234 P 1097.61 3.65191 -7.99657 0
M  V30 8235 O 1099.03 3.89374 -8.45885 0
M  V30 8236 O 1097.25 2.28472 -7.50807 0
M  V30 8237 O 1097.29 4.64972 -6.77611 0
M  V30 8238 C 1097.13 6.06383 -7.16428 0
M  V30 8239 C 1097.67 6.91731 -6.02299 0
M  V30 8240 O 1096.61 6.92369 -5.17005 0
M  V30 8241 C 1098.89 6.43627 -5.25174 0
M  V30 8242 O 1099.63 7.43686 -4.60469 0
M  V30 8243 C 1098.22 5.40275 -4.31916 0
M  V30 8244 O 1099.02 5.24878 -3.14911 0
M  V30 8245 C 1096.88 6.04847 -4.05327 0
M  V30 8246 N 1095.84 5.04166 -3.98114 0
M  V30 8247 C 1096.01 3.84629 -4.59066 0
M  V30 8248 N 1094.98 3.0363 -4.45343 0
M  V30 8249 C 1094.1 3.76722 -3.68523 0
M  V30 8250 C 1092.83 3.43528 -3.17088 0
M  V30 8251 N 1092.23 2.23665 -3.37397 0
M  V30 8252 N 1092.26 4.44526 -2.44231 0
M  V30 8253 C 1092.87 5.65243 -2.20146 0
M  V30 8254 N 1094.04 6.00221 -2.65453 0
M  V30 8255 C 1094.62 5.00564 -3.39083 0
M  V30 8256 H 1096.91 6.62104 -3.11218 0
M  V30 8257 H 1098.1 4.42969 -4.80867 0
M  V30 8258 H 1099.58 5.92458 -5.93643 0
M  V30 8259 H 1097.89 7.93295 -6.39407 0
M  V30 8260 H 1097.7 6.26671 -8.0846 0
M  V30 8261 H 1096.07 6.29101 -7.32804 0
M  V30 8262 H 1092.33 6.36894 -1.5883 0
M  V30 8263 H 1096.91 3.58193 -5.14248 0
M  V30 8264 H 1091.3 2.05145 -2.97047 0
M  V30 8265 H 1092.7 1.51255 -3.92998 0
M  V30 8266 H 1098.71 5.84223 -2.47279 0
M  V30 8267 P 1100.56 7.39546 -4.75277 0
M  V30 8268 O 1101.98 7.84882 -5.01092 0
M  V30 8269 O 1100.2 5.9812 -5.08098 0
M  V30 8270 O 1100.24 7.57503 -3.1866 0
M  V30 8271 C 1100.08 8.97452 -2.74862 0
M  V30 8272 C 1100.62 9.07548 -1.32709 0
M  V30 8273 O 1099.56 8.61972 -0.606089 0
M  V30 8274 C 1101.84 8.25383 -0.938334 0
M  V30 8275 O 1102.58 8.74577 0.146954 0
M  V30 8276 C 1101.17 6.8802 -0.712559 0
M  V30 8277 O 1101.97 6.1181 0.188505 0
M  V30 8278 C 1099.83 7.27966 -0.139777 0
M  V30 8279 N 1098.79 6.39368 -0.623421 0
M  V30 8280 C 1098.96 5.71761 -1.78245 0
M  V30 8281 N 1097.93 4.962 -2.10491 0
M  V30 8282 C 1097.05 5.16158 -1.0635 0
M  V30 8283 C 1095.78 4.60425 -0.810266 0
M  V30 8284 N 1095.18 3.7057 -1.62914 0
M  V30 8285 N 1095.21 5.06 0.348685 0
M  V30 8286 C 1095.82 5.94532 1.20395 0
M  V30 8287 N 1096.99 6.48452 1.01191 0
M  V30 8288 C 1097.57 6.04423 -0.146291 0
M  V30 8289 H 1099.86 7.25255 0.961469 0
M  V30 8290 H 1101.05 6.32625 -1.65044 0
M  V30 8291 H 1102.53 8.19355 -1.79097 0
M  V30 8292 H 1100.84 10.1305 -1.09016 0
M  V30 8293 H 1100.65 9.64276 -3.41316 0
M  V30 8294 H 1099.02 9.25417 -2.76357 0
M  V30 8295 H 1095.28 6.21659 2.10714 0
M  V30 8296 H 1099.86 5.79354 -2.38959 0
M  V30 8297 H 1094.25 3.33174 -1.38982 0
M  V30 8298 H 1095.65 3.39714 -2.48836 0
M  V30 8299 H 1101.66 6.25169 1.0783 0
M  V30 8300 P 1103.51 8.791 8.79665e-12 0
M  V30 8301 O 1104.91 9.36698 -0.018734 0
M  V30 8302 O 1103.14 7.82499 -1.07878 0
M  V30 8303 O 1103.19 8.09434 1.41446 0
M  V30 8304 C 1103.03 9.0349 2.53943 0
M  V30 8305 C 1103.57 8.35135 3.78975 0
M  V30 8306 O 1102.51 7.57904 4.1503 0
M  V30 8307 C 1104.79 7.45087 3.67298 0
M  V30 8308 O 1105.53 7.27796 4.85194 0
M  V30 8309 C 1104.12 6.17323 3.12027 0
M  V30 8310 O 1104.92 5.04149 3.47132 0
M  V30 8311 C 1102.78 6.19961 3.81809 0
M  V30 8312 N 1101.74 5.71575 2.93223 0
M  V30 8313 C 1100.7 4.99452 3.47592 0
M  V30 8314 O 1100.74 4.7199 4.69732 0
M  V30 8315 N 1099.69 4.58505 2.6803 0
M  V30 8316 C 1099.74 4.85544 1.36995 0
M  V30 8317 N 1098.73 4.45052 0.609031 0
M  V30 8318 C 1100.84 5.55532 0.788532 0
M  V30 8319 C 1101.8 5.97426 1.60849 0
M  V30 8320 H 1102.81 5.58142 4.72986 0
M  V30 8321 H 1104 6.21428 2.0318 0
M  V30 8322 H 1105.48 7.85913 2.93131 0
M  V30 8323 H 1103.79 9.11171 4.55987 0
M  V30 8324 H 1103.6 9.9573 2.34194 0
M  V30 8325 H 1101.97 9.27824 2.67805 0
M  V30 8326 H 1100.88 5.7421 -0.281588 0
M  V30 8327 H 1102.65 6.53132 1.202 0
M  V30 8328 H 1097.94 3.94123 1.03159 0
M  V30 8329 H 1098.74 4.64377 -0.400352 0
M  V30 8330 H 1104.7 4.76386 4.34983 0
M  V30 8331 P 1106.46 7.39546 4.75277 0
M  V30 8332 O 1107.89 7.81777 5.05738 0
M  V30 8333 O 1106.1 7.1065 3.32998 0
M  V30 8334 O 1106.14 6.04542 5.56673 0
M  V30 8335 C 1105.98 6.22772 7.02095 0
M  V30 8336 C 1106.52 4.97725 7.70406 0
M  V30 8337 O 1105.46 4.13256 7.58987 0
M  V30 8338 C 1107.74 4.28231 7.11815 0
M  V30 8339 O 1108.48 3.49945 8.01648 0
M  V30 8340 C 1107.07 3.5063 5.96244 0
M  V30 8341 O 1107.87 2.36482 5.64681 0
M  V30 8342 C 1105.73 3.15122 6.56374 0
M  V30 8343 H 1105.76 2.13853 6.99751 0
M  V30 8344 H 1106.95 4.13501 5.06559 0
M  V30 8345 H 1108.43 5.03285 6.70911 0
M  V30 8346 H 1106.74 5.20877 8.75697 0
M  V30 8347 H 1106.55 7.11046 7.35349 0
M  V30 8348 H 1104.92 6.35815 7.26986 0
M  V30 8349 H 1107.56 1.61644 6.13565 0
M  V30 8350 P 1109.41 3.65191 7.99657 0
M  V30 8351 O 1110.84 3.8425 8.48115 0
M  V30 8352 O 1109.05 4.17805 6.64342 0
M  V30 8353 O 1109.09 2.07613 7.95143 0
M  V30 8354 C 1108.93 1.44328 9.27336 0
M  V30 8355 C 1109.47 0.0220036 9.17197 0
M  V30 8356 O 1108.42 -0.626867 8.61923 0
M  V30 8357 C 1110.69 -0.24586 8.30336 0
M  V30 8358 O 1111.43 -1.39011 8.63583 0
M  V30 8359 C 1110.02 -0.273849 6.91158 0
M  V30 8360 O 1110.82 -1.06348 6.02892 0
M  V30 8361 C 1108.68 -0.897649 7.22545 0
M  V30 8362 H 1108.72 -1.9841 7.04286 0
M  V30 8363 H 1109.9 0.739928 6.497 0
M  V30 8364 H 1111.38 0.60668 8.36503 0
M  V30 8365 H 1109.69 -0.352479 10.1829 0
M  V30 8366 H 1109.5 2.00611 10.0304 0
M  V30 8367 H 1107.87 1.41843 9.55327 0
M  V30 8368 H 1110.51 -1.95734 6.03555 0
M  V30 8369 P 1112.36 -1.25109 8.70152 0
M  V30 8370 O 1113.79 -1.35274 9.21221 0
M  V30 8371 O 1112 -0.0769065 7.84762 0
M  V30 8372 O 1112.04 -2.55232 7.81161 0
M  V30 8373 C 1111.88 -3.79939 8.58154 0
M  V30 8374 C 1112.42 -4.94023 7.72785 0
M  V30 8375 O 1111.37 -5.18726 6.91205 0
M  V30 8376 C 1113.64 -4.69597 6.85231 0
M  V30 8377 O 1114.38 -5.83832 6.51337 0
M  V30 8378 C 1112.97 -3.96706 5.66633 0
M  V30 8379 O 1113.77 -4.15414 4.49689 0
M  V30 8380 C 1111.63 -4.66153 5.59313 0
M  V30 8381 H 1111.67 -5.47679 4.85214 0
M  V30 8382 H 1112.85 -2.89008 5.86566 0
M  V30 8383 H 1114.33 -4.0121 7.36511 0
M  V30 8384 H 1112.64 -5.80182 8.37584 0
M  V30 8385 H 1112.45 -3.73517 9.52265 0
M  V30 8386 H 1110.82 -3.97163 8.80359 0
M  V30 8387 H 1113.46 -4.90969 4.01921 0
M  V30 8388 P 1115.32 -5.75688 6.64379 0
M  V30 8389 O 1116.74 -6.11915 7.01921 0
M  V30 8390 O 1114.96 -4.30744 6.56026 0
M  V30 8391 O 1114.99 -6.37042 5.19165 0
M  V30 8392 C 1114.83 -7.83662 5.1657 0
M  V30 8393 C 1115.37 -8.33398 3.83019 0
M  V30 8394 O 1114.32 -8.0998 3.00999 0
M  V30 8395 C 1116.59 -7.65514 3.2257 0
M  V30 8396 O 1117.33 -8.4329 2.32297 0
M  V30 8397 C 1115.92 -6.40075 2.62207 0
M  V30 8398 O 1116.72 -5.92338 1.5428 0
M  V30 8399 C 1114.58 -6.9454 2.18503 0
M  V30 8400 N 1113.54 -5.95905 2.39948 0
M  V30 8401 C 1113.71 -4.98383 3.32108 0
M  V30 8402 N 1112.68 -4.16798 3.41761 0
M  V30 8403 C 1111.8 -4.65287 2.47461 0
M  V30 8404 C 1110.53 -4.18946 2.07461 0
M  V30 8405 N 1109.97 -4.95327 1.09101 0
M  V30 8406 C 1110.57 -6.04369 0.519812 0
M  V30 8407 N 1111.75 -6.50694 0.855982 0
M  V30 8408 C 1112.32 -5.75818 1.84322 0
M  V30 8409 H 1115.8 -5.60502 3.36589 0
M  V30 8410 H 1117.28 -7.35707 4.02681 0
M  V30 8411 H 1115.59 -9.41302 3.90009 0
M  V30 8412 H 1115.4 -8.29056 5.99158 0
M  V30 8413 H 1113.77 -8.10073 5.25882 0
M  V30 8414 H 1114.61 -4.88564 3.92502 0
M  V30 8415 H 1116.41 -6.30224 0.72668 0
M  V30 8416 P 1118.27 -8.4349 2.47671 0
M  V30 8417 O 1119.69 -8.94167 2.5964 0
M  V30 8418 O 1117.91 -7.1704 3.19006 0
M  V30 8419 O 1117.94 -8.16596 0.923387 0
M  V30 8420 C 1117.78 -9.38437 0.108857 0
M  V30 8421 C 1118.32 -9.08175 -1.28353 0
M  V30 8422 O 1117.27 -8.44229 -1.84713 0
M  V30 8423 C 1119.54 -8.18386 -1.42505 0
M  V30 8424 O 1120.28 -8.3501 -2.60497 0
M  V30 8425 C 1118.87 -6.80225 -1.25468 0
M  V30 8426 O 1119.67 -5.81621 -1.91066 0
M  V30 8427 C 1117.54 -7.02416 -1.9168 0
M  V30 8428 H 1117.57 -6.6888 -2.96621 0
M  V30 8429 H 1118.75 -6.53617 -0.192223 0
M  V30 8430 H 1120.23 -8.36622 -0.589963 0
M  V30 8431 H 1118.54 -10.0291 -1.79807 0
M  V30 8432 H 1118.35 -10.2138 0.558219 0
M  V30 8433 H 1116.72 -9.6579 0.0444202 0
M  V30 8434 H 1119.36 -5.69556 -2.79637 0
M  V30 8435 P 1121.22 -8.4349 -2.47671 0
M  V30 8436 O 1122.62 -8.99283 -2.62101 0
M  V30 8437 O 1120.84 -7.81195 -1.16947 0
M  V30 8438 O 1120.89 -7.36797 -3.63761 0
M  V30 8439 C 1120.73 -7.95349 -4.982 0
M  V30 8440 C 1121.27 -6.94537 -5.98908 0
M  V30 8441 O 1120.22 -6.10277 -6.11744 0
M  V30 8442 C 1122.49 -6.11426 -5.62335 0
M  V30 8443 O 1123.23 -5.6162 -6.70584 0
M  V30 8444 C 1121.82 -5.04409 -4.73308 0
M  V30 8445 O 1122.62 -3.85929 -4.75106 0
M  V30 8446 C 1120.49 -4.8728 -5.41006 0
M  V30 8447 N 1119.44 -4.65812 -4.42377 0
M  V30 8448 C 1118.41 -3.81293 -4.74224 0
M  V30 8449 O 1118.45 -3.20533 -5.83679 0
M  V30 8450 N 1117.4 -3.6442 -3.86349 0
M  V30 8451 C 1117.44 -4.2728 -2.6824 0
M  V30 8452 N 1116.43 -4.09866 -1.83822 0
M  V30 8453 C 1118.54 -5.10813 -2.3217 0
M  V30 8454 C 1119.51 -5.27909 -3.22647 0
M  V30 8455 H 1120.52 -4.02278 -6.11074 0
M  V30 8456 H 1121.7 -5.39013 -3.70026 0
M  V30 8457 H 1123.18 -6.71494 -5.02675 0
M  V30 8458 H 1121.49 -7.45796 -6.94223 0
M  V30 8459 H 1121.3 -8.89416 -5.05237 0
M  V30 8460 H 1119.67 -8.14791 -5.18355 0
M  V30 8461 H 1118.59 -5.58884 -1.34755 0
M  V30 8462 H 1120.35 -5.92811 -2.9934 0
M  V30 8463 H 1115.64 -3.49095 -2.10018 0
M  V30 8464 H 1116.44 -4.56846 -0.924167 0
M  V30 8465 H 1122.41 -3.3454 -5.51577 0
M  V30 8466 P 1124.17 -5.75688 -6.64379 0
M  V30 8467 O 1125.59 -6.07627 -7.05504 0
M  V30 8468 O 1123.81 -5.88047 -5.19722 0
M  V30 8469 O 1123.84 -4.2322 -7.04443 0
M  V30 8470 C 1123.68 -3.99743 -8.4911 0
M  V30 8471 C 1124.22 -2.60516 -8.79425 0
M  V30 8472 O 1123.17 -1.82684 -8.4467 0
M  V30 8473 C 1125.44 -2.10343 -8.03628 0
M  V30 8474 O 1126.18 -1.09919 -8.67766 0
M  V30 8475 C 1124.77 -1.68446 -6.70876 0
M  V30 8476 O 1125.57 -0.678137 -6.08433 0
M  V30 8477 C 1123.44 -1.17436 -7.18567 0
M  V30 8478 H 1123.47 -0.0804732 -7.31656 0
M  V30 8479 H 1124.65 -2.54037 -6.02537 0
M  V30 8480 H 1126.14 -2.93881 -7.85526 0
M  V30 8481 H 1124.44 -2.53065 -9.86973 0
M  V30 8482 H 1124.25 -4.75072 -9.05887 0
M  V30 8483 H 1122.62 -4.05244 -8.76668 0
M  V30 8484 H 1125.26 0.177647 -6.34251 0
M  V30 8485 P 1127.12 -1.25109 -8.70152 0
M  V30 8486 O 1128.54 -1.29744 -9.22016 0
M  V30 8487 O 1126.76 -2.13714 -7.55141 0
M  V30 8488 O 1126.79 0.248149 -8.21425 0
M  V30 8489 C 1126.63 1.22779 -9.30434 0
M  V30 8490 C 1127.17 2.56293 -8.80664 0
M  V30 8491 O 1126.12 3.02979 -8.09349 0
M  V30 8492 C 1128.39 2.57523 -7.89775 0
M  V30 8493 O 1129.13 3.7668 -7.89438 0
M  V30 8494 C 1127.72 2.20997 -6.55446 0
M  V30 8495 O 1128.52 2.71895 -5.48509 0
M  V30 8496 C 1126.39 2.89693 -6.67988 0
M  V30 8497 H 1126.42 3.88793 -6.19859 0
M  V30 8498 H 1127.6 1.12046 -6.44229 0
M  V30 8499 H 1129.09 1.7746 -8.19711 0
M  V30 8500 H 1127.39 3.20706 -9.67112 0
M  V30 8501 H 1127.2 0.901032 -10.1892 0
M  V30 8502 H 1125.57 1.33049 -9.56592 0
M  V30 8503 H 1128.21 3.57847 -5.23962 0
M  V30 8504 P 1130.07 3.65191 -7.99657 0
M  V30 8505 O 1131.49 3.89374 -8.45885 0
M  V30 8506 O 1129.71 2.28472 -7.50807 0
M  V30 8507 O 1129.75 4.64972 -6.77611 0
M  V30 8508 C 1129.58 6.06383 -7.16428 0
M  V30 8509 C 1130.13 6.91731 -6.02299 0
M  V30 8510 O 1129.07 6.92369 -5.17005 0
M  V30 8511 C 1131.34 6.43627 -5.25174 0
M  V30 8512 O 1132.08 7.43686 -4.60469 0
M  V30 8513 C 1130.68 5.40275 -4.31916 0
M  V30 8514 O 1131.47 5.24878 -3.14911 0
M  V30 8515 C 1129.34 6.04847 -4.05327 0
M  V30 8516 N 1128.29 5.04166 -3.98114 0
M  V30 8517 C 1128.46 3.84629 -4.59066 0
M  V30 8518 N 1127.44 3.0363 -4.45343 0
M  V30 8519 C 1126.55 3.76722 -3.68523 0
M  V30 8520 C 1125.28 3.43528 -3.17088 0
M  V30 8521 N 1124.69 2.23665 -3.37397 0
M  V30 8522 N 1124.72 4.44526 -2.44231 0
M  V30 8523 C 1125.32 5.65243 -2.20146 0
M  V30 8524 N 1126.5 6.00221 -2.65453 0
M  V30 8525 C 1127.07 5.00564 -3.39083 0
M  V30 8526 H 1129.37 6.62104 -3.11218 0
M  V30 8527 H 1130.55 4.42969 -4.80867 0
M  V30 8528 H 1132.04 5.92458 -5.93643 0
M  V30 8529 H 1130.34 7.93295 -6.39407 0
M  V30 8530 H 1130.15 6.26671 -8.0846 0
M  V30 8531 H 1128.52 6.29101 -7.32804 0
M  V30 8532 H 1124.79 6.36894 -1.5883 0
M  V30 8533 H 1129.36 3.58193 -5.14248 0
M  V30 8534 H 1123.76 2.05145 -2.97047 0
M  V30 8535 H 1125.16 1.51255 -3.92998 0
M  V30 8536 H 1131.16 5.84223 -2.47279 0
M  V30 8537 P 1133.02 7.39546 -4.75277 0
M  V30 8538 O 1134.44 7.84798 -5.01039 0
M  V30 8539 O 1132.66 5.9812 -5.08098 0
M  V30 8540 O 1132.7 7.57503 -3.1866 0
M  V30 8541 C 1132.54 8.97357 -2.74833 0
M  V30 8542 C 1133.08 9.07548 -1.32709 0
M  V30 8543 O 1132.02 8.62072 -0.606159 0
M  V30 8544 C 1134.29 8.25383 -0.938334 0
M  V30 8545 O 1135.03 8.74577 0.146954 0
M  V30 8546 C 1133.62 6.8802 -0.712559 0
M  V30 8547 O 1134.42 6.1189 0.194655 0
M  V30 8548 C 1132.29 7.27966 -0.139777 0
M  V30 8549 H 1132.32 7.25354 0.961601 0
M  V30 8550 H 1133.5 6.32557 -1.65702 0
M  V30 8551 H 1134.99 8.19355 -1.79097 0
M  V30 8552 H 1133.29 10.1294 -1.10029 0
M  V30 8553 H 1133.1 9.64276 -3.41316 0
M  V30 8554 H 1131.47 9.25417 -2.76357 0
M  V30 8555 H 1134.11 6.25267 1.07847 0
M  V30 8556 P 1135.97 8.791 9.10682e-12 0
M  V30 8557 O 1137.39 9.31096 0.027933 0
M  V30 8558 O 1135.61 7.77869 -1.04071 0
M  V30 8559 O 1135.65 8.09533 1.41463 0
M  V30 8560 C 1135.49 9.0349 2.53943 0
M  V30 8561 C 1136.03 8.35226 3.79016 0
M  V30 8562 O 1134.97 7.57992 4.15078 0
M  V30 8563 C 1137.24 7.45087 3.67298 0
M  V30 8564 O 1137.98 7.27796 4.85194 0
M  V30 8565 C 1136.58 6.17323 3.12027 0
M  V30 8566 O 1137.37 5.04231 3.47188 0
M  V30 8567 C 1135.24 6.19961 3.81809 0
M  V30 8568 H 1135.27 5.58218 4.73051 0
M  V30 8569 H 1136.45 6.21726 2.02589 0
M  V30 8570 H 1137.94 7.86112 2.9231 0
M  V30 8571 H 1136.24 9.11627 4.55076 0
M  V30 8572 H 1136.05 9.9573 2.34194 0
M  V30 8573 H 1134.42 9.2792 2.67832 0
M  V30 8574 H 1137.06 4.67702 4.28772 0
M  V30 8575 P 1138.92 7.39546 4.75277 0
M  V30 8576 O 1140.34 7.81777 5.05738 0
M  V30 8577 O 1138.56 7.1065 3.32998 0
M  V30 8578 O 1138.6 6.04542 5.56673 0
M  V30 8579 C 1138.44 6.22772 7.02095 0
M  V30 8580 C 1138.98 4.97725 7.70406 0
M  V30 8581 O 1137.92 4.13256 7.58987 0
M  V30 8582 C 1140.2 4.28231 7.11815 0
M  V30 8583 O 1140.93 3.49945 8.01648 0
M  V30 8584 C 1139.53 3.5063 5.96244 0
M  V30 8585 O 1140.33 2.36482 5.64681 0
M  V30 8586 C 1138.19 3.15122 6.56374 0
M  V30 8587 H 1138.22 2.13853 6.99751 0
M  V30 8588 H 1139.4 4.13501 5.06559 0
M  V30 8589 H 1140.89 5.03285 6.70911 0
M  V30 8590 H 1139.19 5.20877 8.75697 0
M  V30 8591 H 1139 7.11046 7.35349 0
M  V30 8592 H 1137.37 6.35815 7.26986 0
M  V30 8593 H 1140.01 1.61644 6.13565 0
M  V30 8594 P 1141.87 3.65191 7.99657 0
M  V30 8595 O 1143.29 3.8425 8.48115 0
M  V30 8596 O 1141.51 4.17805 6.64342 0
M  V30 8597 O 1141.55 2.07613 7.95143 0
M  V30 8598 C 1141.39 1.44328 9.27336 0
M  V30 8599 C 1141.93 0.0220036 9.17197 0
M  V30 8600 O 1140.87 -0.626867 8.61923 0
M  V30 8601 C 1143.15 -0.24586 8.30336 0
M  V30 8602 O 1143.88 -1.39011 8.63583 0
M  V30 8603 C 1142.48 -0.273849 6.91158 0
M  V30 8604 O 1143.28 -1.06348 6.02892 0
M  V30 8605 C 1141.14 -0.897649 7.22545 0
M  V30 8606 H 1141.17 -1.9841 7.04286 0
M  V30 8607 H 1142.35 0.739928 6.497 0
M  V30 8608 H 1143.84 0.60668 8.36503 0
M  V30 8609 H 1142.14 -0.352479 10.1829 0
M  V30 8610 H 1141.95 2.00611 10.0304 0
M  V30 8611 H 1140.32 1.41843 9.55327 0
M  V30 8612 H 1142.96 -1.95734 6.03555 0
M  V30 8613 P 1144.82 -1.25109 8.70152 0
M  V30 8614 O 1146.24 -1.35274 9.21221 0
M  V30 8615 O 1144.46 -0.0769065 7.84762 0
M  V30 8616 O 1144.5 -2.55232 7.81161 0
M  V30 8617 C 1144.34 -3.79939 8.58154 0
M  V30 8618 C 1144.88 -4.94023 7.72785 0
M  V30 8619 O 1143.82 -5.18726 6.91205 0
M  V30 8620 C 1146.1 -4.69597 6.85231 0
M  V30 8621 O 1146.83 -5.83832 6.51337 0
M  V30 8622 C 1145.43 -3.96706 5.66633 0
M  V30 8623 O 1146.23 -4.15414 4.49689 0
M  V30 8624 C 1144.09 -4.66153 5.59313 0
M  V30 8625 H 1144.12 -5.47679 4.85214 0
M  V30 8626 H 1145.31 -2.89008 5.86566 0
M  V30 8627 H 1146.79 -4.0121 7.36511 0
M  V30 8628 H 1145.1 -5.80182 8.37584 0
M  V30 8629 H 1144.91 -3.73517 9.52265 0
M  V30 8630 H 1143.28 -3.97163 8.80359 0
M  V30 8631 H 1145.91 -4.90969 4.01921 0
M  V30 8632 P 1147.77 -5.75688 6.64379 0
M  V30 8633 O 1149.19 -6.11849 7.01846 0
M  V30 8634 O 1147.41 -4.30744 6.56026 0
M  V30 8635 O 1147.45 -6.37042 5.19165 0
M  V30 8636 C 1147.29 -7.83578 5.16515 0
M  V30 8637 C 1147.83 -8.33398 3.83019 0
M  V30 8638 O 1146.77 -8.10074 3.01034 0
M  V30 8639 C 1149.05 -7.65514 3.2257 0
M  V30 8640 O 1149.78 -8.4329 2.32297 0
M  V30 8641 C 1148.38 -6.40075 2.62207 0
M  V30 8642 O 1149.18 -5.92589 1.53712 0
M  V30 8643 C 1147.04 -6.9454 2.18503 0
M  V30 8644 H 1147.07 -7.23063 1.12091 0
M  V30 8645 H 1148.26 -5.6025 3.37201 0
M  V30 8646 H 1149.74 -7.35707 4.02681 0
M  V30 8647 H 1148.05 -9.40912 3.9095 0
M  V30 8648 H 1147.86 -8.29056 5.99158 0
M  V30 8649 H 1146.23 -8.10073 5.25882 0
M  V30 8650 H 1148.86 -6.30324 0.726794 0
M  V30 8651 P 1150.72 -8.4349 2.47671 0
M  V30 8652 O 1152.14 -8.94167 2.5964 0
M  V30 8653 O 1150.36 -7.1704 3.19006 0
M  V30 8654 O 1150.4 -8.16596 0.923387 0
M  V30 8655 C 1150.24 -9.38437 0.108857 0
M  V30 8656 C 1150.78 -9.08175 -1.28353 0
M  V30 8657 O 1149.72 -8.44229 -1.84713 0
M  V30 8658 C 1152 -8.18386 -1.42505 0
M  V30 8659 O 1152.74 -8.3501 -2.60497 0
M  V30 8660 C 1151.33 -6.80225 -1.25468 0
M  V30 8661 O 1152.13 -5.81621 -1.91066 0
M  V30 8662 C 1149.99 -7.02416 -1.9168 0
M  V30 8663 H 1150.02 -6.6888 -2.96621 0
M  V30 8664 H 1151.21 -6.53617 -0.192223 0
M  V30 8665 H 1152.69 -8.36622 -0.589963 0
M  V30 8666 H 1151 -10.0291 -1.79807 0
M  V30 8667 H 1150.81 -10.2138 0.558219 0
M  V30 8668 H 1149.18 -9.6579 0.0444202 0
M  V30 8669 H 1151.82 -5.69556 -2.79637 0
M  V30 8670 P 1153.67 -8.4349 -2.47671 0
M  V30 8671 O 1155.07 -8.99283 -2.62101 0
M  V30 8672 O 1153.29 -7.81195 -1.16947 0
M  V30 8673 O 1153.35 -7.36797 -3.63761 0
M  V30 8674 C 1153.19 -7.95349 -4.982 0
M  V30 8675 C 1153.73 -6.94537 -5.98908 0
M  V30 8676 O 1152.67 -6.10277 -6.11744 0
M  V30 8677 C 1154.95 -6.11426 -5.62335 0
M  V30 8678 O 1155.69 -5.6162 -6.70584 0
M  V30 8679 C 1154.28 -5.04409 -4.73308 0
M  V30 8680 O 1155.08 -3.85929 -4.75106 0
M  V30 8681 C 1152.94 -4.8728 -5.41006 0
M  V30 8682 N 1151.9 -4.65812 -4.42377 0
M  V30 8683 C 1150.86 -3.81293 -4.74224 0
M  V30 8684 O 1150.9 -3.20533 -5.83679 0
M  V30 8685 N 1149.85 -3.6442 -3.86349 0
M  V30 8686 C 1149.9 -4.2728 -2.6824 0
M  V30 8687 N 1148.89 -4.09866 -1.83822 0
M  V30 8688 C 1151 -5.10813 -2.3217 0
M  V30 8689 C 1151.96 -5.27909 -3.22647 0
M  V30 8690 H 1152.97 -4.02278 -6.11074 0
M  V30 8691 H 1154.16 -5.39013 -3.70026 0
M  V30 8692 H 1155.64 -6.71494 -5.02675 0
M  V30 8693 H 1153.95 -7.45796 -6.94223 0
M  V30 8694 H 1153.76 -8.89416 -5.05237 0
M  V30 8695 H 1152.13 -8.14791 -5.18355 0
M  V30 8696 H 1151.04 -5.58884 -1.34755 0
M  V30 8697 H 1152.81 -5.92811 -2.9934 0
M  V30 8698 H 1148.1 -3.49095 -2.10018 0
M  V30 8699 H 1148.89 -4.56846 -0.924167 0
M  V30 8700 H 1154.86 -3.3454 -5.51577 0
M  V30 8701 P 1156.62 -5.75688 -6.64379 0
M  V30 8702 O 1158.05 -6.07627 -7.05504 0
M  V30 8703 O 1156.26 -5.88047 -5.19722 0
M  V30 8704 O 1156.3 -4.2322 -7.04443 0
M  V30 8705 C 1156.14 -3.99743 -8.4911 0
M  V30 8706 C 1156.68 -2.60516 -8.79425 0
M  V30 8707 O 1155.62 -1.82684 -8.4467 0
M  V30 8708 C 1157.9 -2.10343 -8.03628 0
M  V30 8709 O 1158.64 -1.09919 -8.67766 0
M  V30 8710 C 1157.23 -1.68446 -6.70876 0
M  V30 8711 O 1158.03 -0.678137 -6.08433 0
M  V30 8712 C 1155.89 -1.17436 -7.18567 0
M  V30 8713 H 1155.92 -0.0804732 -7.31656 0
M  V30 8714 H 1157.11 -2.54037 -6.02537 0
M  V30 8715 H 1158.59 -2.93881 -7.85526 0
M  V30 8716 H 1156.9 -2.53065 -9.86973 0
M  V30 8717 H 1156.71 -4.75072 -9.05887 0
M  V30 8718 H 1155.08 -4.05244 -8.76668 0
M  V30 8719 H 1157.72 0.177647 -6.34251 0
M  V30 8720 P 1159.57 -1.25109 -8.70152 0
M  V30 8721 O 1161 -1.29744 -9.22016 0
M  V30 8722 O 1159.21 -2.13714 -7.55141 0
M  V30 8723 O 1159.25 0.248149 -8.21425 0
M  V30 8724 C 1159.09 1.22779 -9.30434 0
M  V30 8725 C 1159.63 2.56293 -8.80664 0
M  V30 8726 O 1158.58 3.02979 -8.09349 0
M  V30 8727 C 1160.85 2.57523 -7.89775 0
M  V30 8728 O 1161.59 3.7668 -7.89438 0
M  V30 8729 C 1160.18 2.20997 -6.55446 0
M  V30 8730 O 1160.98 2.71895 -5.48509 0
M  V30 8731 C 1158.84 2.89693 -6.67988 0
M  V30 8732 H 1158.88 3.88793 -6.19859 0
M  V30 8733 H 1160.06 1.12046 -6.44229 0
M  V30 8734 H 1161.54 1.7746 -8.19711 0
M  V30 8735 H 1159.85 3.20706 -9.67112 0
M  V30 8736 H 1159.66 0.901032 -10.1892 0
M  V30 8737 H 1158.03 1.33049 -9.56592 0
M  V30 8738 H 1160.67 3.57847 -5.23962 0
M  V30 8739 P 1162.52 3.65191 -7.99657 0
M  V30 8740 O 1163.95 3.89416 -8.45976 0
M  V30 8741 O 1162.16 2.28472 -7.50807 0
M  V30 8742 O 1162.2 4.64972 -6.77611 0
M  V30 8743 C 1162.04 6.06319 -7.16352 0
M  V30 8744 C 1162.58 6.91655 -6.02234 0
M  V30 8745 O 1161.53 6.92449 -5.17064 0
M  V30 8746 C 1163.8 6.43627 -5.25174 0
M  V30 8747 O 1164.54 7.43686 -4.60469 0
M  V30 8748 C 1163.13 5.40275 -4.31916 0
M  V30 8749 O 1163.93 5.25193 -3.14386 0
M  V30 8750 C 1161.79 6.04847 -4.05327 0
M  V30 8751 N 1160.75 5.04166 -3.98114 0
M  V30 8752 C 1160.81 3.96049 -4.75587 0
M  V30 8753 N 1159.77 3.15559 -4.54006 0
M  V30 8754 C 1159.03 3.78802 -3.62491 0
M  V30 8755 C 1157.73 3.476 -3.10071 0
M  V30 8756 O 1156.99 2.51136 -3.37021 0
M  V30 8757 N 1157.3 4.39088 -2.19956 0
M  V30 8758 C 1158.05 5.53215 -1.81733 0
M  V30 8759 N 1157.45 6.31963 -0.860928 0
M  V30 8760 N 1159.2 5.86688 -2.32562 0
M  V30 8761 C 1159.66 4.97525 -3.23407 0
M  V30 8762 H 1161.83 6.62195 -3.11261 0
M  V30 8763 H 1163.01 4.42488 -4.8131 0
M  V30 8764 H 1164.49 5.93051 -5.9305 0
M  V30 8765 H 1162.8 7.92655 -6.402 0
M  V30 8766 H 1162.61 6.26671 -8.0846 0
M  V30 8767 H 1160.98 6.29101 -7.32804 0
M  V30 8768 H 1156.4 4.25523 -1.77604 0
M  V30 8769 H 1161.61 3.75576 -5.47333 0
M  V30 8770 H 1156.54 6.04684 -0.468946 0
M  V30 8771 H 1157.91 7.18054 -0.542422 0
M  V30 8772 H 1163.62 5.84223 -2.47279 0
M  V30 8773 P 1165.48 7.39546 -4.75277 0
M  V30 8774 O 1166.9 7.84798 -5.01039 0
M  V30 8775 O 1165.12 5.9812 -5.08098 0
M  V30 8776 O 1165.15 7.57503 -3.1866 0
M  V30 8777 C 1164.99 8.97357 -2.74833 0
M  V30 8778 C 1165.53 9.07548 -1.32709 0
M  V30 8779 O 1164.48 8.62072 -0.606159 0
M  V30 8780 C 1166.75 8.25383 -0.938334 0
M  V30 8781 O 1167.49 8.74577 0.146954 0
M  V30 8782 C 1166.08 6.8802 -0.712559 0
M  V30 8783 O 1166.88 6.1189 0.194655 0
M  V30 8784 C 1164.74 7.27966 -0.139777 0
M  V30 8785 H 1164.78 7.25354 0.961601 0
M  V30 8786 H 1165.96 6.32557 -1.65702 0
M  V30 8787 H 1167.44 8.19355 -1.79097 0
M  V30 8788 H 1165.75 10.1294 -1.10029 0
M  V30 8789 H 1165.56 9.64276 -3.41316 0
M  V30 8790 H 1163.93 9.25417 -2.76357 0
M  V30 8791 H 1166.57 6.25267 1.07847 0
M  V30 8792 P 1168.43 8.791 9.41699e-12 0
M  V30 8793 O 1169.85 9.31096 0.027933 0
M  V30 8794 O 1168.07 7.77869 -1.04071 0
M  V30 8795 O 1168.1 8.09533 1.41463 0
M  V30 8796 C 1167.94 9.0349 2.53943 0
M  V30 8797 C 1168.48 8.35226 3.79016 0
M  V30 8798 O 1167.43 7.57992 4.15078 0
M  V30 8799 C 1169.7 7.45087 3.67298 0
M  V30 8800 O 1170.44 7.27796 4.85194 0
M  V30 8801 C 1169.03 6.17323 3.12027 0
M  V30 8802 O 1169.83 5.04231 3.47188 0
M  V30 8803 C 1167.69 6.19961 3.81809 0
M  V30 8804 H 1167.73 5.58218 4.73051 0
M  V30 8805 H 1168.91 6.21726 2.02589 0
M  V30 8806 H 1170.39 7.86112 2.9231 0
M  V30 8807 H 1168.7 9.11627 4.55076 0
M  V30 8808 H 1168.51 9.9573 2.34194 0
M  V30 8809 H 1166.88 9.2792 2.67832 0
M  V30 8810 H 1169.52 4.67702 4.28772 0
M  V30 8811 P 1171.38 7.39546 4.75277 0
M  V30 8812 O 1172.8 7.81777 5.05738 0
M  V30 8813 O 1171.02 7.1065 3.32998 0
M  V30 8814 O 1171.05 6.04542 5.56673 0
M  V30 8815 C 1170.89 6.22772 7.02095 0
M  V30 8816 C 1171.43 4.97725 7.70406 0
M  V30 8817 O 1170.38 4.13256 7.58987 0
M  V30 8818 C 1172.65 4.28231 7.11815 0
M  V30 8819 O 1173.39 3.49945 8.01648 0
M  V30 8820 C 1171.98 3.5063 5.96244 0
M  V30 8821 O 1172.78 2.36482 5.64681 0
M  V30 8822 C 1170.65 3.15122 6.56374 0
M  V30 8823 H 1170.68 2.13853 6.99751 0
M  V30 8824 H 1171.86 4.13501 5.06559 0
M  V30 8825 H 1173.34 5.03285 6.70911 0
M  V30 8826 H 1171.65 5.20877 8.75697 0
M  V30 8827 H 1171.46 7.11046 7.35349 0
M  V30 8828 H 1169.83 6.35815 7.26986 0
M  V30 8829 H 1172.47 1.61644 6.13565 0
M  V30 8830 P 1174.33 3.65191 7.99657 0
M  V30 8831 O 1175.75 3.8425 8.48115 0
M  V30 8832 O 1173.97 4.17805 6.64342 0
M  V30 8833 O 1174 2.07613 7.95143 0
M  V30 8834 C 1173.84 1.44328 9.27336 0
M  V30 8835 C 1174.38 0.0220036 9.17197 0
M  V30 8836 O 1173.33 -0.626867 8.61923 0
M  V30 8837 C 1175.6 -0.24586 8.30336 0
M  V30 8838 O 1176.34 -1.39011 8.63583 0
M  V30 8839 C 1174.93 -0.273849 6.91158 0
M  V30 8840 O 1175.73 -1.06348 6.02892 0
M  V30 8841 C 1173.6 -0.897649 7.22545 0
M  V30 8842 H 1173.63 -1.9841 7.04286 0
M  V30 8843 H 1174.81 0.739928 6.497 0
M  V30 8844 H 1176.29 0.60668 8.36503 0
M  V30 8845 H 1174.6 -0.352479 10.1829 0
M  V30 8846 H 1174.41 2.00611 10.0304 0
M  V30 8847 H 1172.78 1.41843 9.55327 0
M  V30 8848 H 1175.42 -1.95734 6.03555 0
M  V30 8849 P 1177.28 -1.25109 8.70152 0
M  V30 8850 O 1178.7 -1.35288 9.2132 0
M  V30 8851 O 1176.92 -0.0769065 7.84762 0
M  V30 8852 O 1176.95 -2.55232 7.81161 0
M  V30 8853 C 1176.79 -3.79979 8.58246 0
M  V30 8854 C 1177.33 -4.94023 7.72785 0
M  V30 8855 O 1176.28 -5.18666 6.91125 0
M  V30 8856 C 1178.55 -4.69597 6.85231 0
M  V30 8857 O 1179.29 -5.83832 6.51337 0
M  V30 8858 C 1177.88 -3.96706 5.66633 0
M  V30 8859 O 1178.68 -4.14896 4.5003 0
M  V30 8860 C 1176.55 -4.66153 5.59313 0
M  V30 8861 N 1175.5 -3.71582 5.24027 0
M  V30 8862 C 1175.67 -2.39715 5.48833 0
M  V30 8863 N 1174.65 -1.65863 5.12845 0
M  V30 8864 C 1173.76 -2.57637 4.5973 0
M  V30 8865 C 1172.49 -2.40278 4.01027 0
M  V30 8866 N 1171.89 -1.19549 3.86744 0
M  V30 8867 N 1171.93 -3.57711 3.59575 0
M  V30 8868 C 1172.53 -4.80324 3.70476 0
M  V30 8869 N 1173.71 -5.01121 4.23801 0
M  V30 8870 C 1174.28 -3.84757 4.66372 0
M  V30 8871 H 1176.58 -5.47604 4.85148 0
M  V30 8872 H 1177.76 -2.8955 5.86187 0
M  V30 8873 H 1179.24 -4.0121 7.36511 0
M  V30 8874 H 1177.55 -5.81019 8.37003 0
M  V30 8875 H 1177.36 -3.73517 9.52265 0
M  V30 8876 H 1175.73 -3.97163 8.80359 0
M  V30 8877 H 1171.99 -5.66348 3.3183 0
M  V30 8878 H 1176.57 -1.98804 5.94332 0
M  V30 8879 H 1170.96 -1.13147 3.4281 0
M  V30 8880 H 1172.37 -0.344074 4.19692 0
M  V30 8881 H 1178.37 -4.90891 4.01857 0
M  V30 8882 P 1180.23 -5.75688 6.64379 0
M  V30 8883 O 1181.65 -6.11849 7.01846 0
M  V30 8884 O 1179.87 -4.30744 6.56026 0
M  V30 8885 O 1179.9 -6.37042 5.19165 0
M  V30 8886 C 1179.74 -7.83578 5.16515 0
M  V30 8887 C 1180.28 -8.33398 3.83019 0
M  V30 8888 O 1179.23 -8.10074 3.01034 0
M  V30 8889 C 1181.5 -7.65514 3.2257 0
M  V30 8890 O 1182.24 -8.4329 2.32297 0
M  V30 8891 C 1180.83 -6.40075 2.62207 0
M  V30 8892 O 1181.63 -5.92589 1.53712 0
M  V30 8893 C 1179.5 -6.9454 2.18503 0
M  V30 8894 H 1179.53 -7.23063 1.12091 0
M  V30 8895 H 1180.71 -5.6025 3.37201 0
M  V30 8896 H 1182.2 -7.35707 4.02681 0
M  V30 8897 H 1180.5 -9.40912 3.9095 0
M  V30 8898 H 1180.31 -8.29056 5.99158 0
M  V30 8899 H 1178.68 -8.10073 5.25882 0
M  V30 8900 H 1181.32 -6.30324 0.726794 0
M  V30 8901 P 1183.18 -8.4349 2.47671 0
M  V30 8902 O 1184.6 -8.94167 2.5964 0
M  V30 8903 O 1182.82 -7.1704 3.19006 0
M  V30 8904 O 1182.86 -8.16596 0.923387 0
M  V30 8905 C 1182.7 -9.38437 0.108857 0
M  V30 8906 C 1183.24 -9.08175 -1.28353 0
M  V30 8907 O 1182.18 -8.44229 -1.84713 0
M  V30 8908 C 1184.45 -8.18386 -1.42505 0
M  V30 8909 O 1185.19 -8.3501 -2.60497 0
M  V30 8910 C 1183.78 -6.80225 -1.25468 0
M  V30 8911 O 1184.58 -5.81621 -1.91066 0
M  V30 8912 C 1182.45 -7.02416 -1.9168 0
M  V30 8913 H 1182.48 -6.6888 -2.96621 0
M  V30 8914 H 1183.66 -6.53617 -0.192223 0
M  V30 8915 H 1185.15 -8.36622 -0.589963 0
M  V30 8916 H 1183.45 -10.0291 -1.79807 0
M  V30 8917 H 1183.26 -10.2138 0.558219 0
M  V30 8918 H 1181.63 -9.6579 0.0444202 0
M  V30 8919 H 1184.27 -5.69556 -2.79637 0
M  V30 8920 P 1186.13 -8.4349 -2.47671 0
M  V30 8921 O 1187.55 -8.92593 -2.65 0
M  V30 8922 O 1185.77 -7.7568 -1.19296 0
M  V30 8923 O 1185.81 -7.36886 -3.63805 0
M  V30 8924 C 1185.65 -7.95349 -4.982 0
M  V30 8925 C 1186.19 -6.94612 -5.98974 0
M  V30 8926 O 1185.13 -6.10347 -6.11815 0
M  V30 8927 C 1187.4 -6.11426 -5.62335 0
M  V30 8928 O 1188.14 -5.6162 -6.70584 0
M  V30 8929 C 1186.74 -5.04409 -4.73308 0
M  V30 8930 O 1187.53 -3.85992 -4.75183 0
M  V30 8931 C 1185.4 -4.8728 -5.41006 0
M  V30 8932 H 1185.43 -4.02333 -6.11157 0
M  V30 8933 H 1186.61 -5.39466 -3.69543 0
M  V30 8934 H 1188.1 -6.71916 -5.01943 0
M  V30 8935 H 1186.4 -7.4649 -6.93477 0
M  V30 8936 H 1186.21 -8.89416 -5.05237 0
M  V30 8937 H 1184.58 -8.14876 -5.18409 0
M  V30 8938 H 1187.22 -3.27957 -5.4317 0
M  V30 8939 P 1189.08 -5.75688 -6.64379 0
M  V30 8940 O 1190.5 -6.07627 -7.05504 0
M  V30 8941 O 1188.72 -5.88047 -5.19722 0
M  V30 8942 O 1188.76 -4.2322 -7.04443 0
M  V30 8943 C 1188.6 -3.99743 -8.4911 0
M  V30 8944 C 1189.14 -2.60516 -8.79425 0
M  V30 8945 O 1188.08 -1.82684 -8.4467 0
M  V30 8946 C 1190.35 -2.10343 -8.03628 0
M  V30 8947 O 1191.09 -1.09919 -8.67766 0
M  V30 8948 C 1189.69 -1.68446 -6.70876 0
M  V30 8949 O 1190.48 -0.678137 -6.08433 0
M  V30 8950 C 1188.35 -1.17436 -7.18567 0
M  V30 8951 H 1188.38 -0.0804732 -7.31656 0
M  V30 8952 H 1189.56 -2.54037 -6.02537 0
M  V30 8953 H 1191.05 -2.93881 -7.85526 0
M  V30 8954 H 1189.35 -2.53065 -9.86973 0
M  V30 8955 H 1189.16 -4.75072 -9.05887 0
M  V30 8956 H 1187.53 -4.05244 -8.76668 0
M  V30 8957 H 1190.17 0.177647 -6.34251 0
M  V30 8958 P 1192.03 -1.25109 -8.70152 0
M  V30 8959 O 1193.45 -1.29744 -9.22016 0
M  V30 8960 O 1191.67 -2.13714 -7.55141 0
M  V30 8961 O 1191.71 0.248149 -8.21425 0
M  V30 8962 C 1191.55 1.22779 -9.30434 0
M  V30 8963 C 1192.09 2.56293 -8.80664 0
M  V30 8964 O 1191.03 3.02979 -8.09349 0
M  V30 8965 C 1193.31 2.57523 -7.89775 0
M  V30 8966 O 1194.04 3.7668 -7.89438 0
M  V30 8967 C 1192.64 2.20997 -6.55446 0
M  V30 8968 O 1193.44 2.71895 -5.48509 0
M  V30 8969 C 1191.3 2.89693 -6.67988 0
M  V30 8970 H 1191.33 3.88793 -6.19859 0
M  V30 8971 H 1192.51 1.12046 -6.44229 0
M  V30 8972 H 1194 1.7746 -8.19711 0
M  V30 8973 H 1192.3 3.20706 -9.67112 0
M  V30 8974 H 1192.11 0.901032 -10.1892 0
M  V30 8975 H 1190.48 1.33049 -9.56592 0
M  V30 8976 H 1193.12 3.57847 -5.23962 0
M  V30 8977 P 1194.98 3.65191 -7.99657 0
M  V30 8978 O 1196.4 3.89374 -8.45885 0
M  V30 8979 O 1194.62 2.28472 -7.50807 0
M  V30 8980 O 1194.66 4.64972 -6.77611 0
M  V30 8981 C 1194.5 6.06383 -7.16428 0
M  V30 8982 C 1195.04 6.91731 -6.02299 0
M  V30 8983 O 1193.98 6.92369 -5.17005 0
M  V30 8984 C 1196.26 6.43627 -5.25174 0
M  V30 8985 O 1196.99 7.43686 -4.60469 0
M  V30 8986 C 1195.59 5.40275 -4.31916 0
M  V30 8987 O 1196.39 5.24878 -3.14911 0
M  V30 8988 C 1194.25 6.04847 -4.05327 0
M  V30 8989 N 1193.21 5.04166 -3.98114 0
M  V30 8990 C 1193.38 3.84629 -4.59066 0
M  V30 8991 N 1192.35 3.0363 -4.45343 0
M  V30 8992 C 1191.46 3.76722 -3.68523 0
M  V30 8993 C 1190.2 3.43528 -3.17088 0
M  V30 8994 N 1189.6 2.23665 -3.37397 0
M  V30 8995 N 1189.63 4.44526 -2.44231 0
M  V30 8996 C 1190.23 5.65243 -2.20146 0
M  V30 8997 N 1191.41 6.00221 -2.65453 0
M  V30 8998 C 1191.99 5.00564 -3.39083 0
M  V30 8999 H 1194.28 6.62104 -3.11218 0
M  V30 9000 H 1195.46 4.42969 -4.80867 0
M  V30 9001 H 1196.95 5.92458 -5.93643 0
M  V30 9002 H 1195.25 7.93295 -6.39407 0
M  V30 9003 H 1195.06 6.26671 -8.0846 0
M  V30 9004 H 1193.43 6.29101 -7.32804 0
M  V30 9005 H 1189.7 6.36894 -1.5883 0
M  V30 9006 H 1194.28 3.58193 -5.14248 0
M  V30 9007 H 1188.67 2.05145 -2.97047 0
M  V30 9008 H 1190.07 1.51255 -3.92998 0
M  V30 9009 H 1196.07 5.84223 -2.47279 0
M  V30 9010 P 1197.93 7.39546 -4.75277 0
M  V30 9011 O 1199.35 7.84798 -5.01039 0
M  V30 9012 O 1197.57 5.9812 -5.08098 0
M  V30 9013 O 1197.61 7.57503 -3.1866 0
M  V30 9014 C 1197.45 8.97357 -2.74833 0
M  V30 9015 C 1197.99 9.07548 -1.32709 0
M  V30 9016 O 1196.93 8.62072 -0.606159 0
M  V30 9017 C 1199.21 8.25383 -0.938334 0
M  V30 9018 O 1199.94 8.74577 0.146954 0
M  V30 9019 C 1198.54 6.8802 -0.712559 0
M  V30 9020 O 1199.34 6.1189 0.194655 0
M  V30 9021 C 1197.2 7.27966 -0.139777 0
M  V30 9022 H 1197.23 7.25354 0.961601 0
M  V30 9023 H 1198.42 6.32557 -1.65702 0
M  V30 9024 H 1199.9 8.19355 -1.79097 0
M  V30 9025 H 1198.21 10.1294 -1.10029 0
M  V30 9026 H 1198.02 9.64276 -3.41316 0
M  V30 9027 H 1196.39 9.25417 -2.76357 0
M  V30 9028 H 1199.02 6.25267 1.07847 0
M  V30 9029 P 1200.88 8.791 9.72715e-12 0
M  V30 9030 O 1202.3 9.31096 0.027933 0
M  V30 9031 O 1200.52 7.77869 -1.04071 0
M  V30 9032 O 1200.56 8.09533 1.41463 0
M  V30 9033 C 1200.4 9.0349 2.53943 0
M  V30 9034 C 1200.94 8.35226 3.79016 0
M  V30 9035 O 1199.88 7.57992 4.15078 0
M  V30 9036 C 1202.16 7.45087 3.67298 0
M  V30 9037 O 1202.89 7.27796 4.85194 0
M  V30 9038 C 1201.49 6.17323 3.12027 0
M  V30 9039 O 1202.29 5.04231 3.47188 0
M  V30 9040 C 1200.15 6.19961 3.81809 0
M  V30 9041 H 1200.18 5.58218 4.73051 0
M  V30 9042 H 1201.37 6.21726 2.02589 0
M  V30 9043 H 1202.85 7.86112 2.9231 0
M  V30 9044 H 1201.16 9.11627 4.55076 0
M  V30 9045 H 1200.97 9.9573 2.34194 0
M  V30 9046 H 1199.34 9.2792 2.67832 0
M  V30 9047 H 1201.97 4.67702 4.28772 0
M  V30 9048 P 1203.83 7.39546 4.75277 0
M  V30 9049 O 1205.25 7.81777 5.05738 0
M  V30 9050 O 1203.47 7.1065 3.32998 0
M  V30 9051 O 1203.51 6.04542 5.56673 0
M  V30 9052 C 1203.35 6.22772 7.02095 0
M  V30 9053 C 1203.89 4.97725 7.70406 0
M  V30 9054 O 1202.83 4.13256 7.58987 0
M  V30 9055 C 1205.11 4.28231 7.11815 0
M  V30 9056 O 1205.85 3.49945 8.01648 0
M  V30 9057 C 1204.44 3.5063 5.96244 0
M  V30 9058 O 1205.24 2.36482 5.64681 0
M  V30 9059 C 1203.1 3.15122 6.56374 0
M  V30 9060 H 1203.13 2.13853 6.99751 0
M  V30 9061 H 1204.32 4.13501 5.06559 0
M  V30 9062 H 1205.8 5.03285 6.70911 0
M  V30 9063 H 1204.11 5.20877 8.75697 0
M  V30 9064 H 1203.92 7.11046 7.35349 0
M  V30 9065 H 1202.29 6.35815 7.26986 0
M  V30 9066 H 1204.93 1.61644 6.13565 0
M  V30 9067 P 1206.78 3.65191 7.99657 0
M  V30 9068 O 1208.21 3.8425 8.48115 0
M  V30 9069 O 1206.42 4.17805 6.64342 0
M  V30 9070 O 1206.46 2.07613 7.95143 0
M  V30 9071 C 1206.3 1.44328 9.27336 0
M  V30 9072 C 1206.84 0.0220036 9.17197 0
M  V30 9073 O 1205.78 -0.626867 8.61923 0
M  V30 9074 C 1208.06 -0.24586 8.30336 0
M  V30 9075 O 1208.8 -1.39011 8.63583 0
M  V30 9076 C 1207.39 -0.273849 6.91158 0
M  V30 9077 O 1208.19 -1.06348 6.02892 0
M  V30 9078 C 1206.05 -0.897649 7.22545 0
M  V30 9079 H 1206.08 -1.9841 7.04286 0
M  V30 9080 H 1207.27 0.739928 6.497 0
M  V30 9081 H 1208.75 0.60668 8.36503 0
M  V30 9082 H 1207.06 -0.352479 10.1829 0
M  V30 9083 H 1206.87 2.00611 10.0304 0
M  V30 9084 H 1205.24 1.41843 9.55327 0
M  V30 9085 H 1207.88 -1.95734 6.03555 0
M  V30 9086 P 1209.73 -1.25109 8.70152 0
M  V30 9087 O 1211.16 -1.35274 9.21221 0
M  V30 9088 O 1209.37 -0.0769065 7.84762 0
M  V30 9089 O 1209.41 -2.55232 7.81161 0
M  V30 9090 C 1209.25 -3.79939 8.58154 0
M  V30 9091 C 1209.79 -4.94023 7.72785 0
M  V30 9092 O 1208.73 -5.18726 6.91205 0
M  V30 9093 C 1211.01 -4.69597 6.85231 0
M  V30 9094 O 1211.75 -5.83832 6.51337 0
M  V30 9095 C 1210.34 -3.96706 5.66633 0
M  V30 9096 O 1211.14 -4.15414 4.49689 0
M  V30 9097 C 1209 -4.66153 5.59313 0
M  V30 9098 H 1209.03 -5.47679 4.85214 0
M  V30 9099 H 1210.22 -2.89008 5.86566 0
M  V30 9100 H 1211.7 -4.0121 7.36511 0
M  V30 9101 H 1210.01 -5.80182 8.37584 0
M  V30 9102 H 1209.82 -3.73517 9.52265 0
M  V30 9103 H 1208.19 -3.97163 8.80359 0
M  V30 9104 H 1210.83 -4.90969 4.01921 0
M  V30 9105 P 1212.68 -5.75688 6.64379 0
M  V30 9106 O 1214.11 -6.11915 7.01921 0
M  V30 9107 O 1212.32 -4.30744 6.56026 0
M  V30 9108 O 1212.36 -6.37042 5.19165 0
M  V30 9109 C 1212.2 -7.83662 5.1657 0
M  V30 9110 C 1212.74 -8.33398 3.83019 0
M  V30 9111 O 1211.69 -8.0998 3.00999 0
M  V30 9112 C 1213.96 -7.65514 3.2257 0
M  V30 9113 O 1214.7 -8.4329 2.32297 0
M  V30 9114 C 1213.29 -6.40075 2.62207 0
M  V30 9115 O 1214.09 -5.92338 1.5428 0
M  V30 9116 C 1211.95 -6.9454 2.18503 0
M  V30 9117 N 1210.91 -5.95905 2.39948 0
M  V30 9118 C 1211.08 -4.98383 3.32108 0
M  V30 9119 N 1210.05 -4.16798 3.41761 0
M  V30 9120 C 1209.17 -4.65287 2.47461 0
M  V30 9121 C 1207.9 -4.18946 2.07461 0
M  V30 9122 N 1207.3 -3.09661 2.60717 0
M  V30 9123 N 1207.34 -4.95327 1.09101 0
M  V30 9124 C 1207.94 -6.04369 0.519812 0
M  V30 9125 N 1209.11 -6.50694 0.855982 0
M  V30 9126 C 1209.69 -5.75818 1.84322 0
M  V30 9127 H 1211.99 -7.22964 1.12076 0
M  V30 9128 H 1213.17 -5.60502 3.36589 0
M  V30 9129 H 1214.65 -7.35707 4.02681 0
M  V30 9130 H 1212.96 -9.41302 3.90009 0
M  V30 9131 H 1212.77 -8.29056 5.99158 0
M  V30 9132 H 1211.14 -8.10073 5.25882 0
M  V30 9133 H 1207.4 -6.55843 -0.270373 0
M  V30 9134 H 1211.98 -4.88564 3.92502 0
M  V30 9135 H 1206.37 -2.80523 2.27218 0
M  V30 9136 H 1207.78 -2.55848 3.34465 0
M  V30 9137 H 1213.78 -6.30224 0.72668 0
M  V30 9138 H 1216.33 -7.89832 2.35522 0
M  V30 END ATOM
M  V30 BEGIN BOND
M  V30 END BOND
M  V30 END CTAB
M  END
$$$$
