drugbank_target|Q4L5E3 Phenylalanine--tRNA ligase alpha subunit (DB07817)
 OpenBabel12092120463D

  0  0  0     0  0            999 V3000
M  V30 BEGIN CTAB
M  V30 COUNTS 7634 8121 0 0 0
M  V30 BEGIN ATOM
M  V30 1 H -2.588 8.49073 -0.0679273 0
M  V30 2 O -1.492 9.37262 0.0843559 0
M  V30 3 P 0 8.791 0 0
M  V30 4 O 1.422 9.31096 0.027933 0
M  V30 5 O -0.36 7.77869 -1.04071 0
M  V30 6 O -0.323 8.09533 1.41463 0
M  V30 7 C -0.483 9.0349 2.53943 0
M  V30 8 C 0.057 8.35226 3.79016 0
M  V30 9 O -0.999 7.57992 4.15078 0
M  V30 10 C 1.275 7.45087 3.67298 0
M  V30 11 O 2.013 7.27796 4.85194 0
M  V30 12 C 0.606 6.17323 3.12027 0
M  V30 13 O 1.405 5.04231 3.47188 0
M  V30 14 C -0.731 6.19961 3.81809 0
M  V30 15 H -0.699 5.58218 4.73051 0
M  V30 16 H 0.484 6.21726 2.02589 0
M  V30 17 H 1.968 7.86112 2.9231 0
M  V30 18 H 0.274 9.11627 4.55076 0
M  V30 19 H 0.084 9.9573 2.34194 0
M  V30 20 H -1.546 9.2792 2.67832 0
M  V30 21 H 1.093 4.67702 4.28772 0
M  V30 22 P 2.95057 7.39546 4.75277 0
M  V30 23 O 4.37257 7.81777 5.05738 0
M  V30 24 O 2.59057 7.1065 3.32998 0
M  V30 25 O 2.62757 6.04542 5.56673 0
M  V30 26 C 2.46757 6.22772 7.02095 0
M  V30 27 C 3.00757 4.97725 7.70406 0
M  V30 28 O 1.95157 4.13256 7.58987 0
M  V30 29 C 4.22557 4.28231 7.11815 0
M  V30 30 O 4.96357 3.49945 8.01648 0
M  V30 31 C 3.55657 3.5063 5.96244 0
M  V30 32 O 4.35557 2.36482 5.64681 0
M  V30 33 C 2.21957 3.15122 6.56374 0
M  V30 34 H 2.25157 2.13853 6.99751 0
M  V30 35 H 3.43457 4.13501 5.06559 0
M  V30 36 H 4.91857 5.03285 6.70911 0
M  V30 37 H 3.22457 5.20877 8.75697 0
M  V30 38 H 3.03457 7.11046 7.35349 0
M  V30 39 H 1.40457 6.35815 7.26986 0
M  V30 40 H 4.04357 1.61644 6.13565 0
M  V30 41 P 5.90114 3.65191 7.99657 0
M  V30 42 O 7.32314 3.8425 8.48115 0
M  V30 43 O 5.54114 4.17805 6.64342 0
M  V30 44 O 5.57814 2.07613 7.95143 0
M  V30 45 C 5.41814 1.44328 9.27336 0
M  V30 46 C 5.95814 0.0220036 9.17197 0
M  V30 47 O 4.90214 -0.626867 8.61923 0
M  V30 48 C 7.17614 -0.24586 8.30336 0
M  V30 49 O 7.91414 -1.39011 8.63583 0
M  V30 50 C 6.50714 -0.273849 6.91158 0
M  V30 51 O 7.30614 -1.06348 6.02892 0
M  V30 52 C 5.17014 -0.897649 7.22545 0
M  V30 53 H 5.20214 -1.9841 7.04286 0
M  V30 54 H 6.38514 0.739928 6.497 0
M  V30 55 H 7.86914 0.60668 8.36503 0
M  V30 56 H 6.17514 -0.352479 10.1829 0
M  V30 57 H 5.98514 2.00611 10.0304 0
M  V30 58 H 4.35514 1.41843 9.55327 0
M  V30 59 H 6.99414 -1.95734 6.03555 0
M  V30 60 P 8.85171 -1.25109 8.70152 0
M  V30 61 O 10.2737 -1.35274 9.21221 0
M  V30 62 O 8.49171 -0.0769065 7.84762 0
M  V30 63 O 8.52871 -2.55232 7.81161 0
M  V30 64 C 8.36871 -3.79939 8.58154 0
M  V30 65 C 8.90871 -4.94023 7.72785 0
M  V30 66 O 7.85271 -5.18726 6.91205 0
M  V30 67 C 10.1267 -4.69597 6.85231 0
M  V30 68 O 10.8647 -5.83832 6.51337 0
M  V30 69 C 9.45771 -3.96706 5.66633 0
M  V30 70 O 10.2567 -4.15414 4.49689 0
M  V30 71 C 8.12071 -4.66153 5.59313 0
M  V30 72 H 8.15271 -5.47679 4.85214 0
M  V30 73 H 9.33571 -2.89008 5.86566 0
M  V30 74 H 10.8197 -4.0121 7.36511 0
M  V30 75 H 9.12571 -5.80182 8.37584 0
M  V30 76 H 8.93571 -3.73517 9.52265 0
M  V30 77 H 7.30571 -3.97163 8.80359 0
M  V30 78 H 9.94471 -4.90969 4.01921 0
M  V30 79 P 11.8023 -5.75688 6.64379 0
M  V30 80 O 13.2243 -6.11849 7.01846 0
M  V30 81 O 11.4423 -4.30744 6.56026 0
M  V30 82 O 11.4793 -6.37042 5.19165 0
M  V30 83 C 11.3193 -7.83578 5.16515 0
M  V30 84 C 11.8593 -8.33398 3.83019 0
M  V30 85 O 10.8033 -8.10074 3.01034 0
M  V30 86 C 13.0773 -7.65514 3.2257 0
M  V30 87 O 13.8153 -8.4329 2.32297 0
M  V30 88 C 12.4083 -6.40075 2.62207 0
M  V30 89 O 13.2073 -5.92589 1.53712 0
M  V30 90 C 11.0713 -6.9454 2.18503 0
M  V30 91 H 11.1033 -7.23063 1.12091 0
M  V30 92 H 12.2863 -5.6025 3.37201 0
M  V30 93 H 13.7703 -7.35707 4.02681 0
M  V30 94 H 12.0763 -9.40912 3.9095 0
M  V30 95 H 11.8863 -8.29056 5.99158 0
M  V30 96 H 10.2563 -8.10073 5.25882 0
M  V30 97 H 12.8953 -6.30324 0.726794 0
M  V30 98 P 14.7528 -8.4349 2.47671 0
M  V30 99 O 16.1748 -8.94167 2.5964 0
M  V30 100 O 14.3928 -7.1704 3.19006 0
M  V30 101 O 14.4298 -8.16596 0.923387 0
M  V30 102 C 14.2698 -9.38437 0.108857 0
M  V30 103 C 14.8098 -9.08175 -1.28353 0
M  V30 104 O 13.7538 -8.44229 -1.84713 0
M  V30 105 C 16.0278 -8.18386 -1.42505 0
M  V30 106 O 16.7659 -8.3501 -2.60497 0
M  V30 107 C 15.3588 -6.80225 -1.25468 0
M  V30 108 O 16.1578 -5.81621 -1.91066 0
M  V30 109 C 14.0218 -7.02416 -1.9168 0
M  V30 110 H 14.0538 -6.6888 -2.96621 0
M  V30 111 H 15.2368 -6.53617 -0.192223 0
M  V30 112 H 16.7208 -8.36622 -0.589963 0
M  V30 113 H 15.0268 -10.0291 -1.79807 0
M  V30 114 H 14.8368 -10.2138 0.558219 0
M  V30 115 H 13.2068 -9.6579 0.0444202 0
M  V30 116 H 15.8458 -5.69556 -2.79637 0
M  V30 117 P 17.7034 -8.4349 -2.47671 0
M  V30 118 O 19.1254 -8.92593 -2.65 0
M  V30 119 O 17.3434 -7.7568 -1.19296 0
M  V30 120 O 17.3804 -7.36886 -3.63805 0
M  V30 121 C 17.2204 -7.95349 -4.982 0
M  V30 122 C 17.7604 -6.94612 -5.98974 0
M  V30 123 O 16.7044 -6.10347 -6.11815 0
M  V30 124 C 18.9784 -6.11426 -5.62335 0
M  V30 125 O 19.7164 -5.6162 -6.70584 0
M  V30 126 C 18.3094 -5.04409 -4.73308 0
M  V30 127 O 19.1084 -3.85992 -4.75183 0
M  V30 128 C 16.9724 -4.8728 -5.41006 0
M  V30 129 H 17.0044 -4.02333 -6.11157 0
M  V30 130 H 18.1874 -5.39466 -3.69543 0
M  V30 131 H 19.6714 -6.71916 -5.01943 0
M  V30 132 H 17.9774 -7.4649 -6.93477 0
M  V30 133 H 17.7874 -8.89416 -5.05237 0
M  V30 134 H 16.1574 -8.14876 -5.18409 0
M  V30 135 H 18.7964 -3.27957 -5.4317 0
M  V30 136 P 20.654 -5.75688 -6.64379 0
M  V30 137 O 22.075 -6.07692 -7.0558 0
M  V30 138 O 20.294 -5.88047 -5.19722 0
M  V30 139 O 20.331 -4.2322 -7.04443 0
M  V30 140 C 20.17 -3.99785 -8.49201 0
M  V30 141 C 20.711 -2.60516 -8.79425 0
M  V30 142 O 19.656 -1.82663 -8.44573 0
M  V30 143 C 21.929 -2.10343 -8.03628 0
M  V30 144 O 22.667 -1.09919 -8.67766 0
M  V30 145 C 21.261 -1.68446 -6.70876 0
M  V30 146 O 22.059 -0.684109 -6.08265 0
M  V30 147 C 19.923 -1.17436 -7.18567 0
M  V30 148 N 18.88 -1.52699 -6.23988 0
M  V30 149 C 19.049 -2.578 -5.40574 0
M  V30 150 N 18.022 -2.78966 -4.61193 0
M  V30 151 C 17.137 -1.78725 -4.95769 0
M  V30 152 C 15.87 -1.45727 -4.44207 0
M  V30 153 N 15.271 -2.13994 -3.43613 0
M  V30 154 N 15.305 -0.374977 -5.05812 0
M  V30 155 C 15.907 0.345585 -6.05615 0
M  V30 156 N 17.084 0.0787651 -6.56253 0
M  V30 157 C 17.659 -1.00499 -5.96189 0
M  V30 158 H 19.955 -0.0804622 -7.31556 0
M  V30 159 H 21.138 -2.53396 -6.02698 0
M  V30 160 H 22.621 -2.93881 -7.85526 0
M  V30 161 H 20.927 -2.52078 -9.87225 0
M  V30 162 H 20.737 -4.75072 -9.05887 0
M  V30 163 H 19.107 -4.05244 -8.76668 0
M  V30 164 H 15.371 1.20098 -6.4532 0
M  V30 165 H 19.949 -3.18977 -5.3945 0
M  V30 166 H 14.341 -1.84983 -3.10004 0
M  V30 167 H 15.745 -2.9465 -3.00843 0
M  V30 168 H 21.747 0.177619 -6.34151 0
M  V30 169 P 23.6046 -1.25109 -8.70152 0
M  V30 170 O 25.0266 -1.29744 -9.22016 0
M  V30 171 O 23.2446 -2.13714 -7.55141 0
M  V30 172 O 23.2816 0.248149 -8.21425 0
M  V30 173 C 23.1216 1.22779 -9.30434 0
M  V30 174 C 23.6616 2.56293 -8.80664 0
M  V30 175 O 22.6056 3.02979 -8.09349 0
M  V30 176 C 24.8796 2.57523 -7.89775 0
M  V30 177 O 25.6176 3.7668 -7.89438 0
M  V30 178 C 24.2106 2.20997 -6.55446 0
M  V30 179 O 25.0096 2.71895 -5.48509 0
M  V30 180 C 22.8736 2.89693 -6.67988 0
M  V30 181 H 22.9056 3.88793 -6.19859 0
M  V30 182 H 24.0886 1.12046 -6.44229 0
M  V30 183 H 25.5726 1.7746 -8.19711 0
M  V30 184 H 23.8786 3.20706 -9.67112 0
M  V30 185 H 23.6886 0.901032 -10.1892 0
M  V30 186 H 22.0586 1.33049 -9.56592 0
M  V30 187 H 24.6976 3.57847 -5.23962 0
M  V30 188 P 26.5551 3.65191 -7.99657 0
M  V30 189 O 27.9771 3.89332 -8.45794 0
M  V30 190 O 26.1951 2.28472 -7.50807 0
M  V30 191 O 26.2321 4.64972 -6.77611 0
M  V30 192 C 26.0721 6.06319 -7.16352 0
M  V30 193 C 26.6121 6.91731 -6.02299 0
M  V30 194 O 25.5561 6.92449 -5.17064 0
M  V30 195 C 27.8301 6.43627 -5.25174 0
M  V30 196 O 28.5681 7.43686 -4.60469 0
M  V30 197 C 27.1611 5.40275 -4.31916 0
M  V30 198 O 27.9601 5.25279 -3.14438 0
M  V30 199 C 25.8241 6.04847 -4.05327 0
M  V30 200 H 25.8561 6.62195 -3.11261 0
M  V30 201 H 27.0391 4.42556 -4.81383 0
M  V30 202 H 28.5231 5.92458 -5.93643 0
M  V30 203 H 26.8291 7.92655 -6.402 0
M  V30 204 H 26.6391 6.26671 -8.0846 0
M  V30 205 H 25.0091 6.29101 -7.32804 0
M  V30 206 H 27.6481 5.84315 -2.47318 0
M  V30 207 P 29.5057 7.39546 -4.75277 0
M  V30 208 O 30.9277 7.84798 -5.01039 0
M  V30 209 O 29.1457 5.9812 -5.08098 0
M  V30 210 O 29.1827 7.57503 -3.1866 0
M  V30 211 C 29.0227 8.97357 -2.74833 0
M  V30 212 C 29.5627 9.07548 -1.32709 0
M  V30 213 O 28.5067 8.62072 -0.606159 0
M  V30 214 C 30.7807 8.25383 -0.938334 0
M  V30 215 O 31.5187 8.74577 0.146954 0
M  V30 216 C 30.1117 6.8802 -0.712559 0
M  V30 217 O 30.9107 6.1189 0.194655 0
M  V30 218 C 28.7747 7.27966 -0.139777 0
M  V30 219 H 28.8067 7.25354 0.961601 0
M  V30 220 H 29.9897 6.32557 -1.65702 0
M  V30 221 H 31.4737 8.19355 -1.79097 0
M  V30 222 H 29.7797 10.1294 -1.10029 0
M  V30 223 H 29.5897 9.64276 -3.41316 0
M  V30 224 H 27.9597 9.25417 -2.76357 0
M  V30 225 H 30.5987 6.25267 1.07847 0
M  V30 226 P 32.4563 8.791 -9.96115e-15 0
M  V30 227 O 33.8783 9.31096 0.027933 0
M  V30 228 O 32.0963 7.77869 -1.04071 0
M  V30 229 O 32.1333 8.09533 1.41463 0
M  V30 230 C 31.9733 9.0349 2.53943 0
M  V30 231 C 32.5133 8.35226 3.79016 0
M  V30 232 O 31.4573 7.57992 4.15078 0
M  V30 233 C 33.7313 7.45087 3.67298 0
M  V30 234 O 34.4693 7.27796 4.85194 0
M  V30 235 C 33.0623 6.17323 3.12027 0
M  V30 236 O 33.8613 5.04231 3.47188 0
M  V30 237 C 31.7253 6.19961 3.81809 0
M  V30 238 H 31.7573 5.58218 4.73051 0
M  V30 239 H 32.9403 6.21726 2.02589 0
M  V30 240 H 34.4243 7.86112 2.9231 0
M  V30 241 H 32.7303 9.11627 4.55076 0
M  V30 242 H 32.5403 9.9573 2.34194 0
M  V30 243 H 30.9103 9.2792 2.67832 0
M  V30 244 H 33.5493 4.67702 4.28772 0
M  V30 245 P 35.4068 7.39546 4.75277 0
M  V30 246 O 36.8288 7.81777 5.05738 0
M  V30 247 O 35.0468 7.1065 3.32998 0
M  V30 248 O 35.0838 6.04542 5.56673 0
M  V30 249 C 34.9238 6.22772 7.02095 0
M  V30 250 C 35.4638 4.97725 7.70406 0
M  V30 251 O 34.4078 4.13256 7.58987 0
M  V30 252 C 36.6818 4.28231 7.11815 0
M  V30 253 O 37.4198 3.49945 8.01648 0
M  V30 254 C 36.0128 3.5063 5.96244 0
M  V30 255 O 36.8118 2.36482 5.64681 0
M  V30 256 C 34.6758 3.15122 6.56374 0
M  V30 257 H 34.7078 2.13853 6.99751 0
M  V30 258 H 35.8908 4.13501 5.06559 0
M  V30 259 H 37.3748 5.03285 6.70911 0
M  V30 260 H 35.6808 5.20877 8.75697 0
M  V30 261 H 35.4908 7.11046 7.35349 0
M  V30 262 H 33.8608 6.35815 7.26986 0
M  V30 263 H 36.4998 1.61644 6.13565 0
M  V30 264 P 38.3574 3.65191 7.99657 0
M  V30 265 O 39.7784 3.84292 8.48206 0
M  V30 266 O 37.9974 4.17805 6.64342 0
M  V30 267 O 38.0344 2.07613 7.95143 0
M  V30 268 C 37.8734 1.44344 9.27435 0
M  V30 269 C 38.4144 0.0220036 9.17197 0
M  V30 270 O 37.3594 -0.626794 8.61824 0
M  V30 271 C 39.6324 -0.24586 8.30336 0
M  V30 272 O 40.3704 -1.39011 8.63583 0
M  V30 273 C 38.9644 -0.273849 6.91158 0
M  V30 274 O 39.7624 -1.05728 6.029 0
M  V30 275 C 37.6264 -0.897649 7.22545 0
M  V30 276 N 36.5834 -0.292839 6.41732 0
M  V30 277 C 36.7524 0.950603 5.91308 0
M  V30 278 N 35.7254 1.37732 5.21105 0
M  V30 279 C 34.8404 0.318109 5.26039 0
M  V30 280 C 33.5734 0.146766 4.6727 0
M  V30 281 N 32.9744 1.08519 3.89983 0
M  V30 282 N 33.0084 -1.06525 4.95887 0
M  V30 283 C 33.6104 -2.0378 5.71347 0
M  V30 284 N 34.7874 -1.92445 6.27451 0
M  V30 285 C 35.3624 -0.715382 6.00353 0
M  V30 286 H 37.6584 -1.98383 7.04189 0
M  V30 287 H 38.8414 0.733318 6.49674 0
M  V30 288 H 40.3244 0.60668 8.36503 0
M  V30 289 H 38.6304 -0.362662 10.1825 0
M  V30 290 H 38.4404 2.00611 10.0304 0
M  V30 291 H 36.8104 1.41843 9.55327 0
M  V30 292 H 33.0744 -2.97041 5.85344 0
M  V30 293 H 37.6524 1.54076 6.07465 0
M  V30 294 H 32.0444 0.901517 3.49562 0
M  V30 295 H 33.4484 1.97957 3.71669 0
M  V30 296 H 39.4504 -1.95704 6.0346 0
M  V30 297 P 41.308 -1.25109 8.70152 0
M  V30 298 O 42.73 -1.35274 9.21221 0
M  V30 299 O 40.948 -0.0769065 7.84762 0
M  V30 300 O 40.985 -2.55232 7.81161 0
M  V30 301 C 40.825 -3.79939 8.58154 0
M  V30 302 C 41.365 -4.94023 7.72785 0
M  V30 303 O 40.309 -5.18726 6.91205 0
M  V30 304 C 42.583 -4.69597 6.85231 0
M  V30 305 O 43.321 -5.83832 6.51337 0
M  V30 306 C 41.914 -3.96706 5.66633 0
M  V30 307 O 42.713 -4.15414 4.49689 0
M  V30 308 C 40.577 -4.66153 5.59313 0
M  V30 309 H 40.609 -5.47679 4.85214 0
M  V30 310 H 41.792 -2.89008 5.86566 0
M  V30 311 H 43.276 -4.0121 7.36511 0
M  V30 312 H 41.582 -5.80182 8.37584 0
M  V30 313 H 41.392 -3.73517 9.52265 0
M  V30 314 H 39.762 -3.97163 8.80359 0
M  V30 315 H 42.401 -4.90969 4.01921 0
M  V30 316 P 44.2585 -5.75688 6.64379 0
M  V30 317 O 45.6805 -6.11849 7.01846 0
M  V30 318 O 43.8985 -4.30744 6.56026 0
M  V30 319 O 43.9355 -6.37042 5.19165 0
M  V30 320 C 43.7755 -7.83578 5.16515 0
M  V30 321 C 44.3155 -8.33398 3.83019 0
M  V30 322 O 43.2595 -8.10074 3.01034 0
M  V30 323 C 45.5335 -7.65514 3.2257 0
M  V30 324 O 46.2715 -8.4329 2.32297 0
M  V30 325 C 44.8645 -6.40075 2.62207 0
M  V30 326 O 45.6635 -5.92589 1.53712 0
M  V30 327 C 43.5275 -6.9454 2.18503 0
M  V30 328 H 43.5595 -7.23063 1.12091 0
M  V30 329 H 44.7425 -5.6025 3.37201 0
M  V30 330 H 46.2265 -7.35707 4.02681 0
M  V30 331 H 44.5325 -9.40912 3.9095 0
M  V30 332 H 44.3425 -8.29056 5.99158 0
M  V30 333 H 42.7125 -8.10073 5.25882 0
M  V30 334 H 45.3515 -6.30324 0.726794 0
M  V30 335 P 47.2091 -8.4349 2.47671 0
M  V30 336 O 48.6311 -8.94167 2.5964 0
M  V30 337 O 46.8491 -7.1704 3.19006 0
M  V30 338 O 46.8861 -8.16596 0.923387 0
M  V30 339 C 46.7261 -9.38437 0.108857 0
M  V30 340 C 47.2661 -9.08175 -1.28353 0
M  V30 341 O 46.2101 -8.44229 -1.84713 0
M  V30 342 C 48.4841 -8.18386 -1.42505 0
M  V30 343 O 49.2221 -8.3501 -2.60497 0
M  V30 344 C 47.8151 -6.80225 -1.25468 0
M  V30 345 O 48.6141 -5.81621 -1.91066 0
M  V30 346 C 46.4781 -7.02416 -1.9168 0
M  V30 347 H 46.5101 -6.6888 -2.96621 0
M  V30 348 H 47.6931 -6.53617 -0.192223 0
M  V30 349 H 49.1771 -8.36622 -0.589963 0
M  V30 350 H 47.4831 -10.0291 -1.79807 0
M  V30 351 H 47.2931 -10.2138 0.558219 0
M  V30 352 H 45.6631 -9.6579 0.0444202 0
M  V30 353 H 48.3021 -5.69556 -2.79637 0
M  V30 354 P 50.1597 -8.4349 -2.47671 0
M  V30 355 O 51.5817 -8.92593 -2.65 0
M  V30 356 O 49.7997 -7.7568 -1.19296 0
M  V30 357 O 49.8367 -7.36886 -3.63805 0
M  V30 358 C 49.6767 -7.95349 -4.982 0
M  V30 359 C 50.2167 -6.94612 -5.98974 0
M  V30 360 O 49.1607 -6.10347 -6.11815 0
M  V30 361 C 51.4347 -6.11426 -5.62335 0
M  V30 362 O 52.1727 -5.6162 -6.70584 0
M  V30 363 C 50.7657 -5.04409 -4.73308 0
M  V30 364 O 51.5647 -3.85992 -4.75183 0
M  V30 365 C 49.4287 -4.8728 -5.41006 0
M  V30 366 H 49.4607 -4.02333 -6.11157 0
M  V30 367 H 50.6437 -5.39466 -3.69543 0
M  V30 368 H 52.1277 -6.71916 -5.01943 0
M  V30 369 H 50.4337 -7.4649 -6.93477 0
M  V30 370 H 50.2437 -8.89416 -5.05237 0
M  V30 371 H 48.6137 -8.14876 -5.18409 0
M  V30 372 H 51.2527 -3.27957 -5.4317 0
M  V30 373 P 53.1103 -5.75688 -6.64379 0
M  V30 374 O 54.5323 -6.07627 -7.05504 0
M  V30 375 O 52.7503 -5.88047 -5.19722 0
M  V30 376 O 52.7873 -4.2322 -7.04443 0
M  V30 377 C 52.6273 -3.99743 -8.4911 0
M  V30 378 C 53.1673 -2.60516 -8.79425 0
M  V30 379 O 52.1113 -1.82684 -8.4467 0
M  V30 380 C 54.3853 -2.10343 -8.03628 0
M  V30 381 O 55.1233 -1.09919 -8.67766 0
M  V30 382 C 53.7163 -1.68446 -6.70876 0
M  V30 383 O 54.5153 -0.678137 -6.08433 0
M  V30 384 C 52.3793 -1.17436 -7.18567 0
M  V30 385 H 52.4113 -0.0804732 -7.31656 0
M  V30 386 H 53.5943 -2.54037 -6.02537 0
M  V30 387 H 55.0783 -2.93881 -7.85526 0
M  V30 388 H 53.3843 -2.53065 -9.86973 0
M  V30 389 H 53.1943 -4.75072 -9.05887 0
M  V30 390 H 51.5643 -4.05244 -8.76668 0
M  V30 391 H 54.2033 0.177647 -6.34251 0
M  V30 392 P 56.0608 -1.25109 -8.70152 0
M  V30 393 O 57.4828 -1.29744 -9.22016 0
M  V30 394 O 55.7008 -2.13714 -7.55141 0
M  V30 395 O 55.7378 0.248149 -8.21425 0
M  V30 396 C 55.5778 1.22779 -9.30434 0
M  V30 397 C 56.1178 2.56293 -8.80664 0
M  V30 398 O 55.0618 3.02979 -8.09349 0
M  V30 399 C 57.3358 2.57523 -7.89775 0
M  V30 400 O 58.0738 3.7668 -7.89438 0
M  V30 401 C 56.6668 2.20997 -6.55446 0
M  V30 402 O 57.4658 2.71895 -5.48509 0
M  V30 403 C 55.3298 2.89693 -6.67988 0
M  V30 404 H 55.3618 3.88793 -6.19859 0
M  V30 405 H 56.5448 1.12046 -6.44229 0
M  V30 406 H 58.0288 1.7746 -8.19711 0
M  V30 407 H 56.3348 3.20706 -9.67112 0
M  V30 408 H 56.1448 0.901032 -10.1892 0
M  V30 409 H 54.5148 1.33049 -9.56592 0
M  V30 410 H 57.1538 3.57847 -5.23962 0
M  V30 411 P 59.0114 3.65191 -7.99657 0
M  V30 412 O 60.4324 3.89374 -8.45885 0
M  V30 413 O 58.6514 2.28472 -7.50807 0
M  V30 414 O 58.6884 4.64972 -6.77611 0
M  V30 415 C 58.5274 6.06383 -7.16428 0
M  V30 416 C 59.0684 6.91731 -6.02299 0
M  V30 417 O 58.0134 6.92369 -5.17005 0
M  V30 418 C 60.2864 6.43627 -5.25174 0
M  V30 419 O 61.0244 7.43686 -4.60469 0
M  V30 420 C 59.6184 5.40275 -4.31916 0
M  V30 421 O 60.4164 5.24878 -3.14911 0
M  V30 422 C 58.2804 6.04847 -4.05327 0
M  V30 423 N 57.2374 5.04166 -3.98114 0
M  V30 424 C 57.4064 3.84629 -4.59066 0
M  V30 425 N 56.3794 3.0363 -4.45343 0
M  V30 426 C 55.4944 3.76722 -3.68523 0
M  V30 427 C 54.2274 3.43528 -3.17088 0
M  V30 428 N 53.6284 2.23665 -3.37397 0
M  V30 429 N 53.6624 4.44526 -2.44231 0
M  V30 430 C 54.2644 5.65243 -2.20146 0
M  V30 431 N 55.4414 6.00221 -2.65453 0
M  V30 432 C 56.0164 5.00564 -3.39083 0
M  V30 433 H 58.3124 6.62104 -3.11218 0
M  V30 434 H 59.4954 4.42969 -4.80867 0
M  V30 435 H 60.9784 5.92458 -5.93643 0
M  V30 436 H 59.2844 7.93295 -6.39407 0
M  V30 437 H 59.0944 6.26671 -8.0846 0
M  V30 438 H 57.4644 6.29101 -7.32804 0
M  V30 439 H 53.7284 6.36894 -1.5883 0
M  V30 440 H 58.3064 3.58193 -5.14248 0
M  V30 441 H 52.6984 2.05145 -2.97047 0
M  V30 442 H 54.1024 1.51255 -3.92998 0
M  V30 443 H 60.1044 5.84223 -2.47279 0
M  V30 444 P 61.962 7.39546 -4.75277 0
M  V30 445 O 63.384 7.84798 -5.01039 0
M  V30 446 O 61.602 5.9812 -5.08098 0
M  V30 447 O 61.639 7.57503 -3.1866 0
M  V30 448 C 61.479 8.97357 -2.74833 0
M  V30 449 C 62.019 9.07548 -1.32709 0
M  V30 450 O 60.963 8.62072 -0.606159 0
M  V30 451 C 63.237 8.25383 -0.938334 0
M  V30 452 O 63.975 8.74577 0.146954 0
M  V30 453 C 62.568 6.8802 -0.712559 0
M  V30 454 O 63.367 6.1189 0.194655 0
M  V30 455 C 61.231 7.27966 -0.139777 0
M  V30 456 H 61.263 7.25354 0.961601 0
M  V30 457 H 62.446 6.32557 -1.65702 0
M  V30 458 H 63.93 8.19355 -1.79097 0
M  V30 459 H 62.236 10.1294 -1.10029 0
M  V30 460 H 62.046 9.64276 -3.41316 0
M  V30 461 H 60.416 9.25417 -2.76357 0
M  V30 462 H 63.055 6.25267 1.07847 0
M  V30 463 P 64.9125 8.791 -3.55383e-14 0
M  V30 464 O 66.3345 9.31096 0.027933 0
M  V30 465 O 64.5525 7.77869 -1.04071 0
M  V30 466 O 64.5895 8.09533 1.41463 0
M  V30 467 C 64.4295 9.0349 2.53943 0
M  V30 468 C 64.9695 8.35226 3.79016 0
M  V30 469 O 63.9135 7.57992 4.15078 0
M  V30 470 C 66.1875 7.45087 3.67298 0
M  V30 471 O 66.9255 7.27796 4.85194 0
M  V30 472 C 65.5185 6.17323 3.12027 0
M  V30 473 O 66.3175 5.04231 3.47188 0
M  V30 474 C 64.1815 6.19961 3.81809 0
M  V30 475 H 64.2135 5.58218 4.73051 0
M  V30 476 H 65.3965 6.21726 2.02589 0
M  V30 477 H 66.8805 7.86112 2.9231 0
M  V30 478 H 65.1865 9.11627 4.55076 0
M  V30 479 H 64.9965 9.9573 2.34194 0
M  V30 480 H 63.3665 9.2792 2.67832 0
M  V30 481 H 66.0055 4.67702 4.28772 0
M  V30 482 P 67.8631 7.39546 4.75277 0
M  V30 483 O 69.2851 7.81777 5.05738 0
M  V30 484 O 67.5031 7.1065 3.32998 0
M  V30 485 O 67.5401 6.04542 5.56673 0
M  V30 486 C 67.3801 6.22772 7.02095 0
M  V30 487 C 67.9201 4.97725 7.70406 0
M  V30 488 O 66.8641 4.13256 7.58987 0
M  V30 489 C 69.1381 4.28231 7.11815 0
M  V30 490 O 69.8761 3.49945 8.01648 0
M  V30 491 C 68.4691 3.5063 5.96244 0
M  V30 492 O 69.2681 2.36482 5.64681 0
M  V30 493 C 67.1321 3.15122 6.56374 0
M  V30 494 H 67.1641 2.13853 6.99751 0
M  V30 495 H 68.3471 4.13501 5.06559 0
M  V30 496 H 69.8311 5.03285 6.70911 0
M  V30 497 H 68.1371 5.20877 8.75697 0
M  V30 498 H 67.9471 7.11046 7.35349 0
M  V30 499 H 66.3171 6.35815 7.26986 0
M  V30 500 H 68.9561 1.61644 6.13565 0
M  V30 501 P 70.8137 3.65191 7.99657 0
M  V30 502 O 72.2347 3.84292 8.48206 0
M  V30 503 O 70.4537 4.17805 6.64342 0
M  V30 504 O 70.4907 2.07613 7.95143 0
M  V30 505 C 70.3297 1.44344 9.27435 0
M  V30 506 C 70.8707 0.0220036 9.17197 0
M  V30 507 O 69.8157 -0.626794 8.61824 0
M  V30 508 C 72.0887 -0.24586 8.30336 0
M  V30 509 O 72.8267 -1.39011 8.63583 0
M  V30 510 C 71.4207 -0.273849 6.91158 0
M  V30 511 O 72.2187 -1.05728 6.029 0
M  V30 512 C 70.0827 -0.897649 7.22545 0
M  V30 513 N 69.0397 -0.292839 6.41732 0
M  V30 514 C 69.2087 0.950603 5.91308 0
M  V30 515 N 68.1817 1.37732 5.21105 0
M  V30 516 C 67.2967 0.318109 5.26039 0
M  V30 517 C 66.0297 0.146766 4.6727 0
M  V30 518 N 65.4647 -1.06525 4.95887 0
M  V30 519 C 66.0667 -2.0378 5.71347 0
M  V30 520 N 67.2437 -1.92445 6.27451 0
M  V30 521 C 67.8187 -0.715382 6.00353 0
M  V30 522 H 71.2977 0.733318 6.49674 0
M  V30 523 H 72.7807 0.60668 8.36503 0
M  V30 524 H 71.0867 -0.362662 10.1825 0
M  V30 525 H 70.8967 2.00611 10.0304 0
M  V30 526 H 69.2667 1.41843 9.55327 0
M  V30 527 H 70.1087 1.54076 6.07465 0
M  V30 528 H 71.9067 -1.95704 6.0346 0
M  V30 529 P 73.7642 -1.25109 8.70152 0
M  V30 530 O 75.1862 -1.35274 9.21221 0
M  V30 531 O 73.4042 -0.0769065 7.84762 0
M  V30 532 O 73.4412 -2.55232 7.81161 0
M  V30 533 C 73.2812 -3.79939 8.58154 0
M  V30 534 C 73.8212 -4.94023 7.72785 0
M  V30 535 O 72.7652 -5.18726 6.91205 0
M  V30 536 C 75.0392 -4.69597 6.85231 0
M  V30 537 O 75.7772 -5.83832 6.51337 0
M  V30 538 C 74.3702 -3.96706 5.66633 0
M  V30 539 O 75.1692 -4.15414 4.49689 0
M  V30 540 C 73.0332 -4.66153 5.59313 0
M  V30 541 H 73.0652 -5.47679 4.85214 0
M  V30 542 H 74.2482 -2.89008 5.86566 0
M  V30 543 H 75.7322 -4.0121 7.36511 0
M  V30 544 H 74.0382 -5.80182 8.37584 0
M  V30 545 H 73.8482 -3.73517 9.52265 0
M  V30 546 H 72.2182 -3.97163 8.80359 0
M  V30 547 H 74.8572 -4.90969 4.01921 0
M  V30 548 P 76.7148 -5.75688 6.64379 0
M  V30 549 O 78.1368 -6.11849 7.01846 0
M  V30 550 O 76.3548 -4.30744 6.56026 0
M  V30 551 O 76.3918 -6.37042 5.19165 0
M  V30 552 C 76.2318 -7.83578 5.16515 0
M  V30 553 C 76.7718 -8.33398 3.83019 0
M  V30 554 O 75.7158 -8.10074 3.01034 0
M  V30 555 C 77.9898 -7.65514 3.2257 0
M  V30 556 O 78.7278 -8.4329 2.32297 0
M  V30 557 C 77.3208 -6.40075 2.62207 0
M  V30 558 O 78.1198 -5.92589 1.53712 0
M  V30 559 C 75.9838 -6.9454 2.18503 0
M  V30 560 H 76.0158 -7.23063 1.12091 0
M  V30 561 H 77.1988 -5.6025 3.37201 0
M  V30 562 H 78.6828 -7.35707 4.02681 0
M  V30 563 H 76.9888 -9.40912 3.9095 0
M  V30 564 H 76.7988 -8.29056 5.99158 0
M  V30 565 H 75.1688 -8.10073 5.25882 0
M  V30 566 H 77.8078 -6.30324 0.726794 0
M  V30 567 P 79.6654 -8.4349 2.47671 0
M  V30 568 O 81.0874 -8.94167 2.5964 0
M  V30 569 O 79.3054 -7.1704 3.19006 0
M  V30 570 O 79.3424 -8.16596 0.923387 0
M  V30 571 C 79.1824 -9.38437 0.108857 0
M  V30 572 C 79.7224 -9.08175 -1.28353 0
M  V30 573 O 78.6664 -8.44229 -1.84713 0
M  V30 574 C 80.9404 -8.18386 -1.42505 0
M  V30 575 O 81.6784 -8.3501 -2.60497 0
M  V30 576 C 80.2714 -6.80225 -1.25468 0
M  V30 577 O 81.0704 -5.81621 -1.91066 0
M  V30 578 C 78.9344 -7.02416 -1.9168 0
M  V30 579 H 78.9664 -6.6888 -2.96621 0
M  V30 580 H 80.1494 -6.53617 -0.192223 0
M  V30 581 H 81.6334 -8.36622 -0.589963 0
M  V30 582 H 79.9394 -10.0291 -1.79807 0
M  V30 583 H 79.7494 -10.2138 0.558219 0
M  V30 584 H 78.1194 -9.6579 0.0444202 0
M  V30 585 H 80.7584 -5.69556 -2.79637 0
M  V30 586 P 82.616 -8.4349 -2.47671 0
M  V30 587 O 84.038 -8.92593 -2.65 0
M  V30 588 O 82.256 -7.7568 -1.19296 0
M  V30 589 O 82.293 -7.36886 -3.63805 0
M  V30 590 C 82.133 -7.95349 -4.982 0
M  V30 591 C 82.673 -6.94612 -5.98974 0
M  V30 592 O 81.617 -6.10347 -6.11815 0
M  V30 593 C 83.891 -6.11426 -5.62335 0
M  V30 594 O 84.629 -5.6162 -6.70584 0
M  V30 595 C 83.222 -5.04409 -4.73308 0
M  V30 596 O 84.021 -3.85992 -4.75183 0
M  V30 597 C 81.885 -4.8728 -5.41006 0
M  V30 598 H 81.917 -4.02333 -6.11157 0
M  V30 599 H 83.1 -5.39466 -3.69543 0
M  V30 600 H 84.584 -6.71916 -5.01943 0
M  V30 601 H 82.89 -7.4649 -6.93477 0
M  V30 602 H 82.7 -8.89416 -5.05237 0
M  V30 603 H 81.07 -8.14876 -5.18409 0
M  V30 604 H 83.709 -3.27957 -5.4317 0
M  V30 605 P 85.5665 -5.75688 -6.64379 0
M  V30 606 O 86.9885 -6.07627 -7.05504 0
M  V30 607 O 85.2065 -5.88047 -5.19722 0
M  V30 608 O 85.2435 -4.2322 -7.04443 0
M  V30 609 C 85.0835 -3.99743 -8.4911 0
M  V30 610 C 85.6235 -2.60516 -8.79425 0
M  V30 611 O 84.5675 -1.82684 -8.4467 0
M  V30 612 C 86.8415 -2.10343 -8.03628 0
M  V30 613 O 87.5795 -1.09919 -8.67766 0
M  V30 614 C 86.1725 -1.68446 -6.70876 0
M  V30 615 O 86.9715 -0.678137 -6.08433 0
M  V30 616 C 84.8355 -1.17436 -7.18567 0
M  V30 617 H 84.8675 -0.0804732 -7.31656 0
M  V30 618 H 86.0505 -2.54037 -6.02537 0
M  V30 619 H 87.5345 -2.93881 -7.85526 0
M  V30 620 H 85.8405 -2.53065 -9.86973 0
M  V30 621 H 85.6505 -4.75072 -9.05887 0
M  V30 622 H 84.0205 -4.05244 -8.76668 0
M  V30 623 H 86.6595 0.177647 -6.34251 0
M  V30 624 P 88.5171 -1.25109 -8.70152 0
M  V30 625 O 89.9391 -1.29744 -9.22016 0
M  V30 626 O 88.1571 -2.13714 -7.55141 0
M  V30 627 O 88.1941 0.248149 -8.21425 0
M  V30 628 C 88.0341 1.22779 -9.30434 0
M  V30 629 C 88.5741 2.56293 -8.80664 0
M  V30 630 O 87.5181 3.02979 -8.09349 0
M  V30 631 C 89.7921 2.57523 -7.89775 0
M  V30 632 O 90.5301 3.7668 -7.89438 0
M  V30 633 C 89.1231 2.20997 -6.55446 0
M  V30 634 O 89.9221 2.71895 -5.48509 0
M  V30 635 C 87.7861 2.89693 -6.67988 0
M  V30 636 H 87.8181 3.88793 -6.19859 0
M  V30 637 H 89.0011 1.12046 -6.44229 0
M  V30 638 H 90.4851 1.7746 -8.19711 0
M  V30 639 H 88.7911 3.20706 -9.67112 0
M  V30 640 H 88.6011 0.901032 -10.1892 0
M  V30 641 H 86.9711 1.33049 -9.56592 0
M  V30 642 H 89.6101 3.57847 -5.23962 0
M  V30 643 P 91.4677 3.65191 -7.99657 0
M  V30 644 O 92.8897 3.89332 -8.45794 0
M  V30 645 O 91.1077 2.28472 -7.50807 0
M  V30 646 O 91.1447 4.64972 -6.77611 0
M  V30 647 C 90.9847 6.06319 -7.16352 0
M  V30 648 C 91.5247 6.91731 -6.02299 0
M  V30 649 O 90.4687 6.92449 -5.17064 0
M  V30 650 C 92.7427 6.43627 -5.25174 0
M  V30 651 O 93.4807 7.43686 -4.60469 0
M  V30 652 C 92.0737 5.40275 -4.31916 0
M  V30 653 O 92.8727 5.25279 -3.14438 0
M  V30 654 C 90.7367 6.04847 -4.05327 0
M  V30 655 H 90.7687 6.62195 -3.11261 0
M  V30 656 H 91.9517 4.42556 -4.81383 0
M  V30 657 H 93.4357 5.92458 -5.93643 0
M  V30 658 H 91.7417 7.92655 -6.402 0
M  V30 659 H 91.5517 6.26671 -8.0846 0
M  V30 660 H 89.9217 6.29101 -7.32804 0
M  V30 661 H 92.5607 5.84315 -2.47318 0
M  V30 662 P 94.4182 7.39546 -4.75277 0
M  V30 663 O 95.8402 7.84798 -5.01039 0
M  V30 664 O 94.0582 5.9812 -5.08098 0
M  V30 665 O 94.0952 7.57503 -3.1866 0
M  V30 666 C 93.9352 8.97357 -2.74833 0
M  V30 667 C 94.4752 9.07548 -1.32709 0
M  V30 668 O 93.4192 8.62072 -0.606159 0
M  V30 669 C 95.6932 8.25383 -0.938334 0
M  V30 670 O 96.4312 8.74577 0.146954 0
M  V30 671 C 95.0242 6.8802 -0.712559 0
M  V30 672 O 95.8232 6.1189 0.194655 0
M  V30 673 C 93.6872 7.27966 -0.139777 0
M  V30 674 H 93.7192 7.25354 0.961601 0
M  V30 675 H 94.9022 6.32557 -1.65702 0
M  V30 676 H 96.3862 8.19355 -1.79097 0
M  V30 677 H 94.6922 10.1294 -1.10029 0
M  V30 678 H 94.5022 9.64276 -3.41316 0
M  V30 679 H 92.8722 9.25417 -2.76357 0
M  V30 680 H 95.5112 6.25267 1.07847 0
M  V30 681 P 97.3688 8.791 -6.89233e-14 0
M  V30 682 O 98.7698 9.36698 -0.018734 0
M  V30 683 O 96.9908 7.82499 -1.07878 0
M  V30 684 O 97.0458 8.09434 1.41446 0
M  V30 685 C 96.8858 9.0349 2.53943 0
M  V30 686 C 97.4258 8.35135 3.78975 0
M  V30 687 O 96.3698 7.57904 4.1503 0
M  V30 688 C 98.6428 7.45087 3.67298 0
M  V30 689 O 99.3818 7.27796 4.85194 0
M  V30 690 C 97.9758 6.17323 3.12027 0
M  V30 691 O 98.7738 5.04149 3.47132 0
M  V30 692 C 96.6378 6.19961 3.81809 0
M  V30 693 N 95.5948 5.71575 2.93223 0
M  V30 694 C 94.5598 4.99452 3.47592 0
M  V30 695 O 94.5988 4.7199 4.69732 0
M  V30 696 N 93.5478 4.58505 2.6803 0
M  V30 697 C 93.5958 4.85544 1.36995 0
M  V30 698 C 94.6918 5.55532 0.788532 0
M  V30 699 C 95.6578 5.97426 1.60849 0
M  V30 700 H 96.6698 5.58142 4.72986 0
M  V30 701 H 97.8528 6.21428 2.0318 0
M  V30 702 H 99.3368 7.85913 2.93131 0
M  V30 703 H 97.6428 9.11171 4.55987 0
M  V30 704 H 97.4518 9.9573 2.34194 0
M  V30 705 H 95.8218 9.27824 2.67805 0
M  V30 706 H 94.7398 5.7421 -0.281588 0
M  V30 707 H 96.5038 6.53132 1.202 0
M  V30 708 H 98.5578 4.76386 4.34983 0
M  V30 709 P 100.319 7.39546 4.75277 0
M  V30 710 O 101.741 7.81777 5.05738 0
M  V30 711 O 99.9594 7.1065 3.32998 0
M  V30 712 O 99.9964 6.04542 5.56673 0
M  V30 713 C 99.8364 6.22772 7.02095 0
M  V30 714 C 100.376 4.97725 7.70406 0
M  V30 715 O 99.3204 4.13256 7.58987 0
M  V30 716 C 101.594 4.28231 7.11815 0
M  V30 717 O 102.332 3.49945 8.01648 0
M  V30 718 C 100.925 3.5063 5.96244 0
M  V30 719 O 101.724 2.36482 5.64681 0
M  V30 720 C 99.5884 3.15122 6.56374 0
M  V30 721 H 99.6204 2.13853 6.99751 0
M  V30 722 H 100.803 4.13501 5.06559 0
M  V30 723 H 102.287 5.03285 6.70911 0
M  V30 724 H 100.593 5.20877 8.75697 0
M  V30 725 H 100.403 7.11046 7.35349 0
M  V30 726 H 98.7734 6.35815 7.26986 0
M  V30 727 H 101.412 1.61644 6.13565 0
M  V30 728 P 103.27 3.65191 7.99657 0
M  V30 729 O 104.692 3.84333 8.48297 0
M  V30 730 O 102.91 4.17805 6.64342 0
M  V30 731 O 102.947 2.07613 7.95143 0
M  V30 732 C 102.787 1.44328 9.27336 0
M  V30 733 C 103.327 0.0220012 9.17097 0
M  V30 734 O 102.272 -0.626867 8.61923 0
M  V30 735 C 104.545 -0.24586 8.30336 0
M  V30 736 O 105.283 -1.39011 8.63583 0
M  V30 737 C 103.877 -0.273849 6.91158 0
M  V30 738 O 104.675 -1.06331 6.02794 0
M  V30 739 C 102.539 -0.897649 7.22545 0
M  V30 740 N 101.496 -0.292839 6.41732 0
M  V30 741 C 101.558 1.00068 6.10757 0
M  V30 742 N 100.513 1.36468 5.35794 0
M  V30 743 C 99.7789 0.258894 5.2366 0
M  V30 744 C 98.4729 0.0670682 4.65752 0
M  V30 745 O 97.7399 0.902443 4.10497 0
M  V30 746 N 98.0429 -1.2131 4.75881 0
M  V30 747 C 98.7919 -2.24934 5.37101 0
M  V30 748 N 98.1949 -3.48783 5.33984 0
M  V30 749 N 99.9449 -2.0844 5.95684 0
M  V30 750 C 100.402 -0.81395 5.87791 0
M  V30 751 H 102.571 -1.9841 7.04286 0
M  V30 752 H 103.754 0.739815 6.49601 0
M  V30 753 H 105.239 0.598315 8.36563 0
M  V30 754 H 103.544 -0.352479 10.1829 0
M  V30 755 H 103.354 2.00611 10.0304 0
M  V30 756 H 101.723 1.41843 9.55327 0
M  V30 757 H 97.1469 -1.44434 4.37895 0
M  V30 758 H 102.354 1.67697 6.42268 0
M  V30 759 H 97.2839 -3.60543 4.87699 0
M  V30 760 H 98.6599 -4.29232 5.7819 0
M  V30 761 H 104.364 -1.95704 6.0346 0
M  V30 762 P 106.221 -1.25109 8.70152 0
M  V30 763 O 107.643 -1.35274 9.21221 0
M  V30 764 O 105.861 -0.0769065 7.84762 0
M  V30 765 O 105.898 -2.55232 7.81161 0
M  V30 766 C 105.738 -3.79939 8.58154 0
M  V30 767 C 106.278 -4.94023 7.72785 0
M  V30 768 O 105.222 -5.18726 6.91205 0
M  V30 769 C 107.496 -4.69597 6.85231 0
M  V30 770 O 108.234 -5.83832 6.51337 0
M  V30 771 C 106.827 -3.96706 5.66633 0
M  V30 772 O 107.626 -4.15414 4.49689 0
M  V30 773 C 105.49 -4.66153 5.59313 0
M  V30 774 H 105.522 -5.47679 4.85214 0
M  V30 775 H 106.705 -2.89008 5.86566 0
M  V30 776 H 108.189 -4.0121 7.36511 0
M  V30 777 H 106.495 -5.80182 8.37584 0
M  V30 778 H 106.305 -3.73517 9.52265 0
M  V30 779 H 104.675 -3.97163 8.80359 0
M  V30 780 H 107.314 -4.90969 4.01921 0
M  V30 781 P 109.171 -5.75688 6.64379 0
M  V30 782 O 110.593 -6.11849 7.01846 0
M  V30 783 O 108.811 -4.30744 6.56026 0
M  V30 784 O 108.848 -6.37042 5.19165 0
M  V30 785 C 108.688 -7.83578 5.16515 0
M  V30 786 C 109.228 -8.33398 3.83019 0
M  V30 787 O 108.172 -8.10074 3.01034 0
M  V30 788 C 110.446 -7.65514 3.2257 0
M  V30 789 O 111.184 -8.4329 2.32297 0
M  V30 790 C 109.777 -6.40075 2.62207 0
M  V30 791 O 110.576 -5.92589 1.53712 0
M  V30 792 C 108.44 -6.9454 2.18503 0
M  V30 793 H 108.472 -7.23063 1.12091 0
M  V30 794 H 109.655 -5.6025 3.37201 0
M  V30 795 H 111.139 -7.35707 4.02681 0
M  V30 796 H 109.445 -9.40912 3.9095 0
M  V30 797 H 109.255 -8.29056 5.99158 0
M  V30 798 H 107.625 -8.10073 5.25882 0
M  V30 799 H 110.264 -6.30324 0.726794 0
M  V30 800 P 112.122 -8.4349 2.47671 0
M  V30 801 O 113.544 -8.94359 2.59696 0
M  V30 802 O 111.762 -7.1704 3.19006 0
M  V30 803 O 111.799 -8.16596 0.923387 0
M  V30 804 C 111.639 -9.38437 0.108857 0
M  V30 805 C 112.179 -9.08076 -1.28339 0
M  V30 806 O 111.124 -8.44229 -1.84713 0
M  V30 807 C 113.397 -8.18386 -1.42505 0
M  V30 808 O 114.135 -8.3501 -2.60497 0
M  V30 809 C 112.729 -6.80225 -1.25468 0
M  V30 810 O 113.527 -5.81526 -1.91035 0
M  V30 811 C 111.391 -7.02416 -1.9168 0
M  V30 812 N 110.348 -6.31033 -1.20314 0
M  V30 813 C 110.41 -6.18781 0.121293 0
M  V30 814 N 109.365 -5.49762 0.588272 0
M  V30 815 C 108.631 -5.22015 -0.488988 0
M  V30 816 C 107.325 -4.61966 -0.596448 0
M  V30 817 O 106.592 -4.19162 0.309059 0
M  V30 818 N 106.895 -4.53773 -1.878 0
M  V30 819 C 107.644 -4.99623 -2.99082 0
M  V30 820 N 107.047 -4.78912 -4.21227 0
M  V30 821 N 108.797 -5.59957 -2.91093 0
M  V30 822 C 109.254 -5.70225 -1.64218 0
M  V30 823 H 111.423 -6.6888 -2.96621 0
M  V30 824 H 112.606 -6.53517 -0.192194 0
M  V30 825 H 114.091 -8.36563 -0.598329 0
M  V30 826 H 112.396 -10.0291 -1.79807 0
M  V30 827 H 112.206 -10.2138 0.558219 0
M  V30 828 H 110.575 -9.6579 0.0444202 0
M  V30 829 H 105.999 -4.12883 -2.05283 0
M  V30 830 H 111.206 -6.59596 0.745856 0
M  V30 831 H 106.136 -4.31425 -4.2628 0
M  V30 832 H 107.512 -5.11219 -5.07148 0
M  V30 833 H 113.216 -5.69466 -2.79593 0
M  V30 834 P 115.072 -8.4349 -2.47671 0
M  V30 835 O 116.494 -8.92593 -2.65 0
M  V30 836 O 114.712 -7.7568 -1.19296 0
M  V30 837 O 114.749 -7.36886 -3.63805 0
M  V30 838 C 114.589 -7.95349 -4.982 0
M  V30 839 C 115.129 -6.94612 -5.98974 0
M  V30 840 O 114.073 -6.10347 -6.11815 0
M  V30 841 C 116.347 -6.11426 -5.62335 0
M  V30 842 O 117.085 -5.6162 -6.70584 0
M  V30 843 C 115.678 -5.04409 -4.73308 0
M  V30 844 O 116.477 -3.85992 -4.75183 0
M  V30 845 C 114.341 -4.8728 -5.41006 0
M  V30 846 H 114.373 -4.02333 -6.11157 0
M  V30 847 H 115.556 -5.39466 -3.69543 0
M  V30 848 H 117.04 -6.71916 -5.01943 0
M  V30 849 H 115.346 -7.4649 -6.93477 0
M  V30 850 H 115.156 -8.89416 -5.05237 0
M  V30 851 H 113.526 -8.14876 -5.18409 0
M  V30 852 H 116.165 -3.27957 -5.4317 0
M  V30 853 P 118.023 -5.75688 -6.64379 0
M  V30 854 O 119.445 -6.07627 -7.05504 0
M  V30 855 O 117.663 -5.88047 -5.19722 0
M  V30 856 O 117.7 -4.2322 -7.04443 0
M  V30 857 C 117.54 -3.99743 -8.4911 0
M  V30 858 C 118.08 -2.60516 -8.79425 0
M  V30 859 O 117.024 -1.82684 -8.4467 0
M  V30 860 C 119.298 -2.10343 -8.03628 0
M  V30 861 O 120.036 -1.09919 -8.67766 0
M  V30 862 C 118.629 -1.68446 -6.70876 0
M  V30 863 O 119.428 -0.678137 -6.08433 0
M  V30 864 C 117.292 -1.17436 -7.18567 0
M  V30 865 H 117.324 -0.0804732 -7.31656 0
M  V30 866 H 118.507 -2.54037 -6.02537 0
M  V30 867 H 119.991 -2.93881 -7.85526 0
M  V30 868 H 118.297 -2.53065 -9.86973 0
M  V30 869 H 118.107 -4.75072 -9.05887 0
M  V30 870 H 116.477 -4.05244 -8.76668 0
M  V30 871 H 119.116 0.177647 -6.34251 0
M  V30 872 P 120.973 -1.25109 -8.70152 0
M  V30 873 O 122.395 -1.29744 -9.22016 0
M  V30 874 O 120.613 -2.13714 -7.55141 0
M  V30 875 O 120.65 0.248149 -8.21425 0
M  V30 876 C 120.49 1.22779 -9.30434 0
M  V30 877 C 121.03 2.56293 -8.80664 0
M  V30 878 O 119.974 3.02979 -8.09349 0
M  V30 879 C 122.248 2.57523 -7.89775 0
M  V30 880 O 122.986 3.7668 -7.89438 0
M  V30 881 C 121.579 2.20997 -6.55446 0
M  V30 882 O 122.378 2.71895 -5.48509 0
M  V30 883 C 120.242 2.89693 -6.67988 0
M  V30 884 H 120.274 3.88793 -6.19859 0
M  V30 885 H 121.457 1.12046 -6.44229 0
M  V30 886 H 122.941 1.7746 -8.19711 0
M  V30 887 H 121.247 3.20706 -9.67112 0
M  V30 888 H 121.057 0.901032 -10.1892 0
M  V30 889 H 119.427 1.33049 -9.56592 0
M  V30 890 H 122.066 3.57847 -5.23962 0
M  V30 891 P 123.924 3.65191 -7.99657 0
M  V30 892 O 125.346 3.89416 -8.45976 0
M  V30 893 O 123.564 2.28472 -7.50807 0
M  V30 894 O 123.601 4.64972 -6.77611 0
M  V30 895 C 123.441 6.06319 -7.16352 0
M  V30 896 C 123.981 6.91655 -6.02234 0
M  V30 897 O 122.926 6.92449 -5.17064 0
M  V30 898 C 125.199 6.43627 -5.25174 0
M  V30 899 O 125.937 7.43686 -4.60469 0
M  V30 900 C 124.531 5.40275 -4.31916 0
M  V30 901 O 125.329 5.25193 -3.14386 0
M  V30 902 C 123.193 6.04847 -4.05327 0
M  V30 903 N 122.15 5.04166 -3.98114 0
M  V30 904 C 122.212 3.96049 -4.75587 0
M  V30 905 N 121.167 3.15559 -4.54006 0
M  V30 906 C 120.433 3.78802 -3.62491 0
M  V30 907 C 119.127 3.476 -3.10071 0
M  V30 908 O 118.394 2.51136 -3.37021 0
M  V30 909 N 118.697 4.39088 -2.19956 0
M  V30 910 C 119.446 5.53215 -1.81733 0
M  V30 911 N 118.849 6.31963 -0.860928 0
M  V30 912 N 120.599 5.86688 -2.32562 0
M  V30 913 C 121.056 4.97525 -3.23407 0
M  V30 914 H 123.225 6.62195 -3.11261 0
M  V30 915 H 124.408 4.42488 -4.8131 0
M  V30 916 H 125.893 5.93051 -5.9305 0
M  V30 917 H 124.198 7.92655 -6.402 0
M  V30 918 H 124.008 6.26671 -8.0846 0
M  V30 919 H 122.377 6.29101 -7.32804 0
M  V30 920 H 117.801 4.25523 -1.77604 0
M  V30 921 H 123.008 3.75576 -5.47333 0
M  V30 922 H 117.938 6.04684 -0.468946 0
M  V30 923 H 119.314 7.18054 -0.542422 0
M  V30 924 H 125.018 5.84223 -2.47279 0
M  V30 925 P 126.875 7.39546 -4.75277 0
M  V30 926 O 128.297 7.84798 -5.01039 0
M  V30 927 O 126.515 5.9812 -5.08098 0
M  V30 928 O 126.552 7.57503 -3.1866 0
M  V30 929 C 126.392 8.97357 -2.74833 0
M  V30 930 C 126.932 9.07548 -1.32709 0
M  V30 931 O 125.876 8.62072 -0.606159 0
M  V30 932 C 128.15 8.25383 -0.938334 0
M  V30 933 O 128.888 8.74577 0.146954 0
M  V30 934 C 127.481 6.8802 -0.712559 0
M  V30 935 O 128.28 6.1189 0.194655 0
M  V30 936 C 126.144 7.27966 -0.139777 0
M  V30 937 H 126.176 7.25354 0.961601 0
M  V30 938 H 127.359 6.32557 -1.65702 0
M  V30 939 H 128.843 8.19355 -1.79097 0
M  V30 940 H 127.149 10.1294 -1.10029 0
M  V30 941 H 126.959 9.64276 -3.41316 0
M  V30 942 H 125.329 9.25417 -2.76357 0
M  V30 943 H 127.968 6.25267 1.07847 0
M  V30 944 P 129.825 8.791 -1.02308e-13 0
M  V30 945 O 131.247 9.31096 0.027933 0
M  V30 946 O 129.465 7.77869 -1.04071 0
M  V30 947 O 129.502 8.09533 1.41463 0
M  V30 948 C 129.342 9.0349 2.53943 0
M  V30 949 C 129.882 8.35226 3.79016 0
M  V30 950 O 128.826 7.57992 4.15078 0
M  V30 951 C 131.1 7.45087 3.67298 0
M  V30 952 O 131.838 7.27796 4.85194 0
M  V30 953 C 130.431 6.17323 3.12027 0
M  V30 954 O 131.23 5.04231 3.47188 0
M  V30 955 C 129.094 6.19961 3.81809 0
M  V30 956 H 129.126 5.58218 4.73051 0
M  V30 957 H 130.309 6.21726 2.02589 0
M  V30 958 H 131.793 7.86112 2.9231 0
M  V30 959 H 130.099 9.11627 4.55076 0
M  V30 960 H 129.909 9.9573 2.34194 0
M  V30 961 H 128.279 9.2792 2.67832 0
M  V30 962 H 130.918 4.67702 4.28772 0
M  V30 963 P 132.776 7.39546 4.75277 0
M  V30 964 O 134.198 7.81777 5.05738 0
M  V30 965 O 132.416 7.1065 3.32998 0
M  V30 966 O 132.453 6.04542 5.56673 0
M  V30 967 C 132.293 6.22772 7.02095 0
M  V30 968 C 132.833 4.97725 7.70406 0
M  V30 969 O 131.777 4.13256 7.58987 0
M  V30 970 C 134.051 4.28231 7.11815 0
M  V30 971 O 134.789 3.49945 8.01648 0
M  V30 972 C 133.382 3.5063 5.96244 0
M  V30 973 O 134.181 2.36482 5.64681 0
M  V30 974 C 132.045 3.15122 6.56374 0
M  V30 975 H 132.077 2.13853 6.99751 0
M  V30 976 H 133.26 4.13501 5.06559 0
M  V30 977 H 134.744 5.03285 6.70911 0
M  V30 978 H 133.05 5.20877 8.75697 0
M  V30 979 H 132.86 7.11046 7.35349 0
M  V30 980 H 131.23 6.35815 7.26986 0
M  V30 981 H 133.869 1.61644 6.13565 0
M  V30 982 P 135.726 3.65191 7.99657 0
M  V30 983 O 137.148 3.8425 8.48115 0
M  V30 984 O 135.366 4.17805 6.64342 0
M  V30 985 O 135.403 2.07613 7.95143 0
M  V30 986 C 135.243 1.44328 9.27336 0
M  V30 987 C 135.783 0.0220036 9.17197 0
M  V30 988 O 134.727 -0.626867 8.61923 0
M  V30 989 C 137.001 -0.24586 8.30336 0
M  V30 990 O 137.739 -1.39011 8.63583 0
M  V30 991 C 136.332 -0.273849 6.91158 0
M  V30 992 O 137.131 -1.06348 6.02892 0
M  V30 993 C 134.995 -0.897649 7.22545 0
M  V30 994 H 135.027 -1.9841 7.04286 0
M  V30 995 H 136.21 0.739928 6.497 0
M  V30 996 H 137.694 0.60668 8.36503 0
M  V30 997 H 136 -0.352479 10.1829 0
M  V30 998 H 135.81 2.00611 10.0304 0
M  V30 999 H 134.18 1.41843 9.55327 0
M  V30 1000 H 136.819 -1.95734 6.03555 0
M  V30 1001 P 138.677 -1.25109 8.70152 0
M  V30 1002 O 140.099 -1.35274 9.21221 0
M  V30 1003 O 138.317 -0.0769065 7.84762 0
M  V30 1004 O 138.354 -2.55232 7.81161 0
M  V30 1005 C 138.194 -3.79939 8.58154 0
M  V30 1006 C 138.734 -4.94023 7.72785 0
M  V30 1007 O 137.678 -5.18726 6.91205 0
M  V30 1008 C 139.952 -4.69597 6.85231 0
M  V30 1009 O 140.69 -5.83832 6.51337 0
M  V30 1010 C 139.283 -3.96706 5.66633 0
M  V30 1011 O 140.082 -4.15414 4.49689 0
M  V30 1012 C 137.946 -4.66153 5.59313 0
M  V30 1013 H 137.978 -5.47679 4.85214 0
M  V30 1014 H 139.161 -2.89008 5.86566 0
M  V30 1015 H 140.645 -4.0121 7.36511 0
M  V30 1016 H 138.951 -5.80182 8.37584 0
M  V30 1017 H 138.761 -3.73517 9.52265 0
M  V30 1018 H 137.131 -3.97163 8.80359 0
M  V30 1019 H 139.77 -4.90969 4.01921 0
M  V30 1020 P 141.627 -5.75688 6.64379 0
M  V30 1021 O 143.049 -6.11849 7.01846 0
M  V30 1022 O 141.267 -4.30744 6.56026 0
M  V30 1023 O 141.304 -6.37042 5.19165 0
M  V30 1024 C 141.144 -7.83578 5.16515 0
M  V30 1025 C 141.684 -8.33398 3.83019 0
M  V30 1026 O 140.628 -8.10074 3.01034 0
M  V30 1027 C 142.902 -7.65514 3.2257 0
M  V30 1028 O 143.64 -8.4329 2.32297 0
M  V30 1029 C 142.233 -6.40075 2.62207 0
M  V30 1030 O 143.032 -5.92589 1.53712 0
M  V30 1031 C 140.896 -6.9454 2.18503 0
M  V30 1032 H 140.928 -7.23063 1.12091 0
M  V30 1033 H 142.111 -5.6025 3.37201 0
M  V30 1034 H 143.595 -7.35707 4.02681 0
M  V30 1035 H 141.901 -9.40912 3.9095 0
M  V30 1036 H 141.711 -8.29056 5.99158 0
M  V30 1037 H 140.081 -8.10073 5.25882 0
M  V30 1038 H 142.72 -6.30324 0.726794 0
M  V30 1039 P 144.578 -8.4349 2.47671 0
M  V30 1040 O 146 -8.94167 2.5964 0
M  V30 1041 O 144.218 -7.1704 3.19006 0
M  V30 1042 O 144.255 -8.16596 0.923387 0
M  V30 1043 C 144.095 -9.38437 0.108857 0
M  V30 1044 C 144.635 -9.08175 -1.28353 0
M  V30 1045 O 143.579 -8.44229 -1.84713 0
M  V30 1046 C 145.853 -8.18386 -1.42505 0
M  V30 1047 O 146.591 -8.3501 -2.60497 0
M  V30 1048 C 145.184 -6.80225 -1.25468 0
M  V30 1049 O 145.983 -5.81621 -1.91066 0
M  V30 1050 C 143.847 -7.02416 -1.9168 0
M  V30 1051 H 143.879 -6.6888 -2.96621 0
M  V30 1052 H 145.062 -6.53617 -0.192223 0
M  V30 1053 H 146.546 -8.36622 -0.589963 0
M  V30 1054 H 144.852 -10.0291 -1.79807 0
M  V30 1055 H 144.662 -10.2138 0.558219 0
M  V30 1056 H 143.032 -9.6579 0.0444202 0
M  V30 1057 H 145.671 -5.69556 -2.79637 0
M  V30 1058 P 147.528 -8.4349 -2.47671 0
M  V30 1059 O 148.95 -8.92593 -2.65 0
M  V30 1060 O 147.168 -7.7568 -1.19296 0
M  V30 1061 O 147.205 -7.36886 -3.63805 0
M  V30 1062 C 147.045 -7.95349 -4.982 0
M  V30 1063 C 147.585 -6.94612 -5.98974 0
M  V30 1064 O 146.529 -6.10347 -6.11815 0
M  V30 1065 C 148.803 -6.11426 -5.62335 0
M  V30 1066 O 149.541 -5.6162 -6.70584 0
M  V30 1067 C 148.134 -5.04409 -4.73308 0
M  V30 1068 O 148.933 -3.85992 -4.75183 0
M  V30 1069 C 146.797 -4.8728 -5.41006 0
M  V30 1070 H 146.829 -4.02333 -6.11157 0
M  V30 1071 H 148.012 -5.39466 -3.69543 0
M  V30 1072 H 149.496 -6.71916 -5.01943 0
M  V30 1073 H 147.802 -7.4649 -6.93477 0
M  V30 1074 H 147.612 -8.89416 -5.05237 0
M  V30 1075 H 145.982 -8.14876 -5.18409 0
M  V30 1076 H 148.621 -3.27957 -5.4317 0
M  V30 1077 P 150.479 -5.75688 -6.64379 0
M  V30 1078 O 151.901 -6.07627 -7.05504 0
M  V30 1079 O 150.119 -5.88047 -5.19722 0
M  V30 1080 O 150.156 -4.2322 -7.04443 0
M  V30 1081 C 149.996 -3.99743 -8.4911 0
M  V30 1082 C 150.536 -2.60516 -8.79425 0
M  V30 1083 O 149.48 -1.82684 -8.4467 0
M  V30 1084 C 151.754 -2.10343 -8.03628 0
M  V30 1085 O 152.492 -1.09919 -8.67766 0
M  V30 1086 C 151.085 -1.68446 -6.70876 0
M  V30 1087 O 151.884 -0.678137 -6.08433 0
M  V30 1088 C 149.748 -1.17436 -7.18567 0
M  V30 1089 H 149.78 -0.0804732 -7.31656 0
M  V30 1090 H 150.963 -2.54037 -6.02537 0
M  V30 1091 H 152.447 -2.93881 -7.85526 0
M  V30 1092 H 150.753 -2.53065 -9.86973 0
M  V30 1093 H 150.563 -4.75072 -9.05887 0
M  V30 1094 H 148.933 -4.05244 -8.76668 0
M  V30 1095 H 151.572 0.177647 -6.34251 0
M  V30 1096 P 153.43 -1.25109 -8.70152 0
M  V30 1097 O 154.852 -1.29744 -9.22016 0
M  V30 1098 O 153.07 -2.13714 -7.55141 0
M  V30 1099 O 153.107 0.248149 -8.21425 0
M  V30 1100 C 152.947 1.22779 -9.30434 0
M  V30 1101 C 153.487 2.56293 -8.80664 0
M  V30 1102 O 152.431 3.02979 -8.09349 0
M  V30 1103 C 154.705 2.57523 -7.89775 0
M  V30 1104 O 155.443 3.7668 -7.89438 0
M  V30 1105 C 154.036 2.20997 -6.55446 0
M  V30 1106 O 154.835 2.71895 -5.48509 0
M  V30 1107 C 152.699 2.89693 -6.67988 0
M  V30 1108 H 152.731 3.88793 -6.19859 0
M  V30 1109 H 153.914 1.12046 -6.44229 0
M  V30 1110 H 155.398 1.7746 -8.19711 0
M  V30 1111 H 153.704 3.20706 -9.67112 0
M  V30 1112 H 153.514 0.901032 -10.1892 0
M  V30 1113 H 151.884 1.33049 -9.56592 0
M  V30 1114 H 154.523 3.57847 -5.23962 0
M  V30 1115 P 156.38 3.65191 -7.99657 0
M  V30 1116 O 157.802 3.89332 -8.45794 0
M  V30 1117 O 156.02 2.28472 -7.50807 0
M  V30 1118 O 156.057 4.64972 -6.77611 0
M  V30 1119 C 155.897 6.06319 -7.16352 0
M  V30 1120 C 156.437 6.91731 -6.02299 0
M  V30 1121 O 155.381 6.92449 -5.17064 0
M  V30 1122 C 157.655 6.43627 -5.25174 0
M  V30 1123 O 158.393 7.43686 -4.60469 0
M  V30 1124 C 156.986 5.40275 -4.31916 0
M  V30 1125 O 157.785 5.25279 -3.14438 0
M  V30 1126 C 155.649 6.04847 -4.05327 0
M  V30 1127 H 155.681 6.62195 -3.11261 0
M  V30 1128 H 156.864 4.42556 -4.81383 0
M  V30 1129 H 158.348 5.92458 -5.93643 0
M  V30 1130 H 156.654 7.92655 -6.402 0
M  V30 1131 H 156.464 6.26671 -8.0846 0
M  V30 1132 H 154.834 6.29101 -7.32804 0
M  V30 1133 H 157.473 5.84315 -2.47318 0
M  V30 1134 P 159.331 7.39546 -4.75277 0
M  V30 1135 O 160.753 7.84798 -5.01039 0
M  V30 1136 O 158.971 5.9812 -5.08098 0
M  V30 1137 O 159.008 7.57503 -3.1866 0
M  V30 1138 C 158.848 8.97357 -2.74833 0
M  V30 1139 C 159.388 9.07548 -1.32709 0
M  V30 1140 O 158.332 8.62072 -0.606159 0
M  V30 1141 C 160.606 8.25383 -0.938334 0
M  V30 1142 O 161.344 8.74577 0.146954 0
M  V30 1143 C 159.937 6.8802 -0.712559 0
M  V30 1144 O 160.736 6.1189 0.194655 0
M  V30 1145 C 158.6 7.27966 -0.139777 0
M  V30 1146 H 158.632 7.25354 0.961601 0
M  V30 1147 H 159.815 6.32557 -1.65702 0
M  V30 1148 H 161.299 8.19355 -1.79097 0
M  V30 1149 H 159.605 10.1294 -1.10029 0
M  V30 1150 H 159.415 9.64276 -3.41316 0
M  V30 1151 H 157.785 9.25417 -2.76357 0
M  V30 1152 H 160.424 6.25267 1.07847 0
M  V30 1153 P 162.281 8.791 -1.35693e-13 0
M  V30 1154 O 163.703 9.31096 0.027933 0
M  V30 1155 O 161.921 7.77869 -1.04071 0
M  V30 1156 O 161.958 8.09533 1.41463 0
M  V30 1157 C 161.798 9.0349 2.53943 0
M  V30 1158 C 162.338 8.35226 3.79016 0
M  V30 1159 O 161.282 7.57992 4.15078 0
M  V30 1160 C 163.556 7.45087 3.67298 0
M  V30 1161 O 164.294 7.27796 4.85194 0
M  V30 1162 C 162.887 6.17323 3.12027 0
M  V30 1163 O 163.686 5.04231 3.47188 0
M  V30 1164 C 161.55 6.19961 3.81809 0
M  V30 1165 H 161.582 5.58218 4.73051 0
M  V30 1166 H 162.765 6.21726 2.02589 0
M  V30 1167 H 164.249 7.86112 2.9231 0
M  V30 1168 H 162.555 9.11627 4.55076 0
M  V30 1169 H 162.365 9.9573 2.34194 0
M  V30 1170 H 160.735 9.2792 2.67832 0
M  V30 1171 H 163.374 4.67702 4.28772 0
M  V30 1172 P 165.232 7.39546 4.75277 0
M  V30 1173 O 166.654 7.81777 5.05738 0
M  V30 1174 O 164.872 7.1065 3.32998 0
M  V30 1175 O 164.909 6.04542 5.56673 0
M  V30 1176 C 164.749 6.22772 7.02095 0
M  V30 1177 C 165.289 4.97725 7.70406 0
M  V30 1178 O 164.233 4.13256 7.58987 0
M  V30 1179 C 166.507 4.28231 7.11815 0
M  V30 1180 O 167.245 3.49945 8.01648 0
M  V30 1181 C 165.838 3.5063 5.96244 0
M  V30 1182 O 166.637 2.36482 5.64681 0
M  V30 1183 C 164.501 3.15122 6.56374 0
M  V30 1184 H 164.533 2.13853 6.99751 0
M  V30 1185 H 165.716 4.13501 5.06559 0
M  V30 1186 H 167.2 5.03285 6.70911 0
M  V30 1187 H 165.506 5.20877 8.75697 0
M  V30 1188 H 165.316 7.11046 7.35349 0
M  V30 1189 H 163.686 6.35815 7.26986 0
M  V30 1190 H 166.325 1.61644 6.13565 0
M  V30 1191 P 168.182 3.65191 7.99657 0
M  V30 1192 O 169.603 3.84292 8.48206 0
M  V30 1193 O 167.822 4.17805 6.64342 0
M  V30 1194 O 167.859 2.07613 7.95143 0
M  V30 1195 C 167.698 1.44344 9.27435 0
M  V30 1196 C 168.239 0.0220036 9.17197 0
M  V30 1197 O 167.184 -0.626794 8.61824 0
M  V30 1198 C 169.457 -0.24586 8.30336 0
M  V30 1199 O 170.195 -1.39011 8.63583 0
M  V30 1200 C 168.789 -0.273849 6.91158 0
M  V30 1201 O 169.587 -1.05728 6.029 0
M  V30 1202 C 167.451 -0.897649 7.22545 0
M  V30 1203 N 166.408 -0.292839 6.41732 0
M  V30 1204 C 166.577 0.950603 5.91308 0
M  V30 1205 N 165.55 1.37732 5.21105 0
M  V30 1206 C 164.665 0.318109 5.26039 0
M  V30 1207 C 163.398 0.146766 4.6727 0
M  V30 1208 N 162.799 1.08519 3.89983 0
M  V30 1209 N 162.833 -1.06525 4.95887 0
M  V30 1210 C 163.435 -2.0378 5.71347 0
M  V30 1211 N 164.612 -1.92445 6.27451 0
M  V30 1212 C 165.187 -0.715382 6.00353 0
M  V30 1213 H 167.483 -1.98383 7.04189 0
M  V30 1214 H 168.666 0.733318 6.49674 0
M  V30 1215 H 170.149 0.60668 8.36503 0
M  V30 1216 H 168.455 -0.362662 10.1825 0
M  V30 1217 H 168.265 2.00611 10.0304 0
M  V30 1218 H 166.635 1.41843 9.55327 0
M  V30 1219 H 162.899 -2.97041 5.85344 0
M  V30 1220 H 167.477 1.54076 6.07465 0
M  V30 1221 H 161.869 0.901517 3.49562 0
M  V30 1222 H 163.273 1.97957 3.71669 0
M  V30 1223 H 169.275 -1.95704 6.0346 0
M  V30 1224 P 171.133 -1.25109 8.70152 0
M  V30 1225 O 172.534 -1.31452 9.27431 0
M  V30 1226 O 170.755 -0.0458113 7.89887 0
M  V30 1227 O 170.81 -2.55201 7.81066 0
M  V30 1228 C 170.65 -3.79939 8.58154 0
M  V30 1229 C 171.19 -4.93969 7.72701 0
M  V30 1230 O 170.134 -5.18666 6.91125 0
M  V30 1231 C 172.407 -4.69597 6.85231 0
M  V30 1232 O 173.146 -5.83832 6.51337 0
M  V30 1233 C 171.74 -3.96706 5.66633 0
M  V30 1234 O 172.538 -4.15346 4.49615 0
M  V30 1235 C 170.402 -4.66153 5.59313 0
M  V30 1236 N 169.359 -3.71582 5.24027 0
M  V30 1237 C 168.324 -4.15133 4.44901 0
M  V30 1238 O 168.363 -5.32122 4.00336 0
M  V30 1239 N 167.312 -3.30554 4.15693 0
M  V30 1240 C 167.36 -2.04701 4.61105 0
M  V30 1241 C 168.456 -1.57111 5.38655 0
M  V30 1242 C 169.422 -2.44234 5.68454 0
M  V30 1243 H 170.434 -5.47604 4.85148 0
M  V30 1244 H 171.617 -2.8955 5.86187 0
M  V30 1245 H 173.101 -4.01995 7.36197 0
M  V30 1246 H 171.407 -5.81019 8.37003 0
M  V30 1247 H 171.216 -3.73517 9.52265 0
M  V30 1248 H 169.586 -3.97122 8.80267 0
M  V30 1249 H 168.504 -0.538464 5.72373 0
M  V30 1250 H 170.268 -2.11927 6.29377 0
M  V30 1251 H 172.322 -4.98352 4.09633 0
M  V30 1252 P 174.084 -5.75688 6.64379 0
M  V30 1253 O 175.506 -6.11981 7.01997 0
M  V30 1254 O 173.724 -4.30744 6.56026 0
M  V30 1255 O 173.761 -6.37042 5.19165 0
M  V30 1256 C 173.601 -7.83578 5.16515 0
M  V30 1257 C 174.141 -8.33307 3.82977 0
M  V30 1258 O 173.086 -8.10074 3.01034 0
M  V30 1259 C 175.359 -7.65514 3.2257 0
M  V30 1260 O 176.097 -8.4329 2.32297 0
M  V30 1261 C 174.691 -6.40075 2.62207 0
M  V30 1262 O 175.489 -5.92492 1.53687 0
M  V30 1263 C 173.353 -6.9454 2.18503 0
M  V30 1264 N 172.31 -5.95905 2.39948 0
M  V30 1265 C 172.372 -5.13994 3.44742 0
M  V30 1266 N 171.327 -4.30684 3.46712 0
M  V30 1267 C 170.593 -4.65583 2.41086 0
M  V30 1268 C 169.287 -4.20877 1.99581 0
M  V30 1269 O 168.554 -3.35913 2.52616 0
M  V30 1270 N 168.857 -4.83271 0.873406 0
M  V30 1271 C 169.606 -5.82006 0.185129 0
M  V30 1272 N 169.009 -6.30619 -0.95439 0
M  V30 1273 N 170.759 -6.28443 0.578524 0
M  V30 1274 C 171.216 -5.68486 1.70138 0
M  V30 1275 H 173.385 -7.23063 1.12091 0
M  V30 1276 H 174.568 -5.60165 3.3715 0
M  V30 1277 H 176.053 -7.3611 4.01946 0
M  V30 1278 H 174.358 -9.40912 3.9095 0
M  V30 1279 H 174.168 -8.29056 5.99158 0
M  V30 1280 H 172.537 -8.10073 5.25882 0
M  V30 1281 H 167.961 -4.58323 0.505262 0
M  V30 1282 H 173.168 -5.14564 4.1935 0
M  V30 1283 H 168.098 -5.93402 -1.25364 0
M  V30 1284 H 169.474 -7.0425 -1.50254 0
M  V30 1285 H 175.178 -6.30224 0.72668 0
M  V30 1286 P 177.034 -8.4349 2.47671 0
M  V30 1287 O 178.456 -8.94167 2.5964 0
M  V30 1288 O 176.674 -7.1704 3.19006 0
M  V30 1289 O 176.711 -8.16596 0.923387 0
M  V30 1290 C 176.551 -9.38437 0.108857 0
M  V30 1291 C 177.091 -9.08175 -1.28353 0
M  V30 1292 O 176.035 -8.44229 -1.84713 0
M  V30 1293 C 178.309 -8.18386 -1.42505 0
M  V30 1294 O 179.047 -8.3501 -2.60497 0
M  V30 1295 C 177.64 -6.80225 -1.25468 0
M  V30 1296 O 178.439 -5.81621 -1.91066 0
M  V30 1297 C 176.303 -7.02416 -1.9168 0
M  V30 1298 H 176.335 -6.6888 -2.96621 0
M  V30 1299 H 177.518 -6.53617 -0.192223 0
M  V30 1300 H 179.002 -8.36622 -0.589963 0
M  V30 1301 H 177.308 -10.0291 -1.79807 0
M  V30 1302 H 177.118 -10.2138 0.558219 0
M  V30 1303 H 175.488 -9.6579 0.0444202 0
M  V30 1304 H 178.127 -5.69556 -2.79637 0
M  V30 1305 P 179.985 -8.4349 -2.47671 0
M  V30 1306 O 181.407 -8.92593 -2.65 0
M  V30 1307 O 179.625 -7.7568 -1.19296 0
M  V30 1308 O 179.662 -7.36886 -3.63805 0
M  V30 1309 C 179.502 -7.95349 -4.982 0
M  V30 1310 C 180.042 -6.94612 -5.98974 0
M  V30 1311 O 178.986 -6.10347 -6.11815 0
M  V30 1312 C 181.26 -6.11426 -5.62335 0
M  V30 1313 O 181.998 -5.6162 -6.70584 0
M  V30 1314 C 180.591 -5.04409 -4.73308 0
M  V30 1315 O 181.39 -3.85992 -4.75183 0
M  V30 1316 C 179.254 -4.8728 -5.41006 0
M  V30 1317 H 179.286 -4.02333 -6.11157 0
M  V30 1318 H 180.469 -5.39466 -3.69543 0
M  V30 1319 H 181.953 -6.71916 -5.01943 0
M  V30 1320 H 180.259 -7.4649 -6.93477 0
M  V30 1321 H 180.069 -8.89416 -5.05237 0
M  V30 1322 H 178.439 -8.14876 -5.18409 0
M  V30 1323 H 181.078 -3.27957 -5.4317 0
M  V30 1324 P 182.935 -5.75688 -6.64379 0
M  V30 1325 O 184.357 -6.07627 -7.05504 0
M  V30 1326 O 182.575 -5.88047 -5.19722 0
M  V30 1327 O 182.612 -4.2322 -7.04443 0
M  V30 1328 C 182.452 -3.99743 -8.4911 0
M  V30 1329 C 182.992 -2.60516 -8.79425 0
M  V30 1330 O 181.936 -1.82684 -8.4467 0
M  V30 1331 C 184.21 -2.10343 -8.03628 0
M  V30 1332 O 184.948 -1.09919 -8.67766 0
M  V30 1333 C 183.541 -1.68446 -6.70876 0
M  V30 1334 O 184.34 -0.678137 -6.08433 0
M  V30 1335 C 182.204 -1.17436 -7.18567 0
M  V30 1336 H 182.236 -0.0804732 -7.31656 0
M  V30 1337 H 183.419 -2.54037 -6.02537 0
M  V30 1338 H 184.903 -2.93881 -7.85526 0
M  V30 1339 H 183.209 -2.53065 -9.86973 0
M  V30 1340 H 183.019 -4.75072 -9.05887 0
M  V30 1341 H 181.389 -4.05244 -8.76668 0
M  V30 1342 H 184.028 0.177647 -6.34251 0
M  V30 1343 P 185.886 -1.25109 -8.70152 0
M  V30 1344 O 187.308 -1.29744 -9.22016 0
M  V30 1345 O 185.526 -2.13714 -7.55141 0
M  V30 1346 O 185.563 0.248149 -8.21425 0
M  V30 1347 C 185.403 1.22779 -9.30434 0
M  V30 1348 C 185.943 2.56293 -8.80664 0
M  V30 1349 O 184.887 3.02979 -8.09349 0
M  V30 1350 C 187.161 2.57523 -7.89775 0
M  V30 1351 O 187.899 3.7668 -7.89438 0
M  V30 1352 C 186.492 2.20997 -6.55446 0
M  V30 1353 O 187.291 2.71895 -5.48509 0
M  V30 1354 C 185.155 2.89693 -6.67988 0
M  V30 1355 H 185.187 3.88793 -6.19859 0
M  V30 1356 H 186.37 1.12046 -6.44229 0
M  V30 1357 H 187.854 1.7746 -8.19711 0
M  V30 1358 H 186.16 3.20706 -9.67112 0
M  V30 1359 H 185.97 0.901032 -10.1892 0
M  V30 1360 H 184.34 1.33049 -9.56592 0
M  V30 1361 H 186.979 3.57847 -5.23962 0
M  V30 1362 P 188.836 3.65191 -7.99657 0
M  V30 1363 O 190.258 3.89332 -8.45794 0
M  V30 1364 O 188.476 2.28472 -7.50807 0
M  V30 1365 O 188.513 4.64972 -6.77611 0
M  V30 1366 C 188.353 6.06319 -7.16352 0
M  V30 1367 C 188.893 6.91731 -6.02299 0
M  V30 1368 O 187.837 6.92449 -5.17064 0
M  V30 1369 C 190.111 6.43627 -5.25174 0
M  V30 1370 O 190.849 7.43686 -4.60469 0
M  V30 1371 C 189.442 5.40275 -4.31916 0
M  V30 1372 O 190.241 5.25279 -3.14438 0
M  V30 1373 C 188.105 6.04847 -4.05327 0
M  V30 1374 H 188.137 6.62195 -3.11261 0
M  V30 1375 H 189.32 4.42556 -4.81383 0
M  V30 1376 H 190.804 5.92458 -5.93643 0
M  V30 1377 H 189.11 7.92655 -6.402 0
M  V30 1378 H 188.92 6.26671 -8.0846 0
M  V30 1379 H 187.29 6.29101 -7.32804 0
M  V30 1380 H 189.929 5.84315 -2.47318 0
M  V30 1381 P 191.787 7.39546 -4.75277 0
M  V30 1382 O 193.209 7.84798 -5.01039 0
M  V30 1383 O 191.427 5.9812 -5.08098 0
M  V30 1384 O 191.464 7.57503 -3.1866 0
M  V30 1385 C 191.304 8.97357 -2.74833 0
M  V30 1386 C 191.844 9.07548 -1.32709 0
M  V30 1387 O 190.788 8.62072 -0.606159 0
M  V30 1388 C 193.062 8.25383 -0.938334 0
M  V30 1389 O 193.8 8.74577 0.146954 0
M  V30 1390 C 192.393 6.8802 -0.712559 0
M  V30 1391 O 193.192 6.1189 0.194655 0
M  V30 1392 C 191.056 7.27966 -0.139777 0
M  V30 1393 H 191.088 7.25354 0.961601 0
M  V30 1394 H 192.271 6.32557 -1.65702 0
M  V30 1395 H 193.755 8.19355 -1.79097 0
M  V30 1396 H 192.061 10.1294 -1.10029 0
M  V30 1397 H 191.871 9.64276 -3.41316 0
M  V30 1398 H 190.241 9.25417 -2.76357 0
M  V30 1399 H 192.88 6.25267 1.07847 0
M  V30 1400 P 194.738 8.791 1.12009e-13 0
M  V30 1401 O 196.159 9.31196 0.027936 0
M  V30 1402 O 194.378 7.77869 -1.04071 0
M  V30 1403 O 194.415 8.09533 1.41463 0
M  V30 1404 C 194.254 9.03587 2.5397 0
M  V30 1405 C 194.795 8.35226 3.79016 0
M  V30 1406 O 193.74 7.57904 4.1503 0
M  V30 1407 C 196.013 7.45087 3.67298 0
M  V30 1408 O 196.751 7.27796 4.85194 0
M  V30 1409 C 195.345 6.17323 3.12027 0
M  V30 1410 O 196.143 5.04496 3.46627 0
M  V30 1411 C 194.007 6.19961 3.81809 0
M  V30 1412 N 192.964 5.71575 2.93223 0
M  V30 1413 C 193.133 5.77362 1.59168 0
M  V30 1414 N 192.106 5.3123 0.911893 0
M  V30 1415 C 191.221 4.91717 1.89588 0
M  V30 1416 C 189.954 4.3114 1.8076 0
M  V30 1417 N 189.389 4.06823 3.02898 0
M  V30 1418 C 189.991 4.35062 4.22711 0
M  V30 1419 N 191.168 4.90805 4.35707 0
M  V30 1420 C 191.743 5.16382 3.14469 0
M  V30 1421 H 195.222 6.21428 2.0318 0
M  V30 1422 H 196.705 7.86112 2.9231 0
M  V30 1423 H 195.011 9.11171 4.55987 0
M  V30 1424 H 194.821 9.9573 2.34194 0
M  V30 1425 H 193.191 9.2792 2.67832 0
M  V30 1426 H 194.033 6.16575 1.12198 0
M  V30 1427 H 195.831 4.67628 4.28704 0
M  V30 1428 P 197.688 7.39546 4.75277 0
M  V30 1429 O 199.11 7.81777 5.05738 0
M  V30 1430 O 197.328 7.1065 3.32998 0
M  V30 1431 O 197.365 6.04542 5.56673 0
M  V30 1432 C 197.205 6.22772 7.02095 0
M  V30 1433 C 197.745 4.97725 7.70406 0
M  V30 1434 O 196.689 4.13256 7.58987 0
M  V30 1435 C 198.963 4.28231 7.11815 0
M  V30 1436 O 199.701 3.49945 8.01648 0
M  V30 1437 C 198.294 3.5063 5.96244 0
M  V30 1438 O 199.093 2.36482 5.64681 0
M  V30 1439 C 196.957 3.15122 6.56374 0
M  V30 1440 H 196.989 2.13853 6.99751 0
M  V30 1441 H 198.172 4.13501 5.06559 0
M  V30 1442 H 199.656 5.03285 6.70911 0
M  V30 1443 H 197.962 5.20877 8.75697 0
M  V30 1444 H 197.772 7.11046 7.35349 0
M  V30 1445 H 196.142 6.35815 7.26986 0
M  V30 1446 H 198.781 1.61644 6.13565 0
M  V30 1447 P 200.639 3.65191 7.99657 0
M  V30 1448 O 202.061 3.8425 8.48115 0
M  V30 1449 O 200.279 4.17805 6.64342 0
M  V30 1450 O 200.316 2.07613 7.95143 0
M  V30 1451 C 200.156 1.44328 9.27336 0
M  V30 1452 C 200.696 0.0220036 9.17197 0
M  V30 1453 O 199.64 -0.626867 8.61923 0
M  V30 1454 C 201.914 -0.24586 8.30336 0
M  V30 1455 O 202.652 -1.39011 8.63583 0
M  V30 1456 C 201.245 -0.273849 6.91158 0
M  V30 1457 O 202.044 -1.06348 6.02892 0
M  V30 1458 C 199.908 -0.897649 7.22545 0
M  V30 1459 H 199.94 -1.9841 7.04286 0
M  V30 1460 H 201.123 0.739928 6.497 0
M  V30 1461 H 202.607 0.60668 8.36503 0
M  V30 1462 H 200.913 -0.352479 10.1829 0
M  V30 1463 H 200.723 2.00611 10.0304 0
M  V30 1464 H 199.093 1.41843 9.55327 0
M  V30 1465 H 201.732 -1.95734 6.03555 0
M  V30 1466 P 203.589 -1.25109 8.70152 0
M  V30 1467 O 205.011 -1.35274 9.21221 0
M  V30 1468 O 203.229 -0.0769065 7.84762 0
M  V30 1469 O 203.266 -2.55232 7.81161 0
M  V30 1470 C 203.106 -3.79939 8.58154 0
M  V30 1471 C 203.646 -4.94023 7.72785 0
M  V30 1472 O 202.59 -5.18726 6.91205 0
M  V30 1473 C 204.864 -4.69597 6.85231 0
M  V30 1474 O 205.602 -5.83832 6.51337 0
M  V30 1475 C 204.195 -3.96706 5.66633 0
M  V30 1476 O 204.994 -4.15414 4.49689 0
M  V30 1477 C 202.858 -4.66153 5.59313 0
M  V30 1478 H 202.89 -5.47679 4.85214 0
M  V30 1479 H 204.073 -2.89008 5.86566 0
M  V30 1480 H 205.557 -4.0121 7.36511 0
M  V30 1481 H 203.863 -5.80182 8.37584 0
M  V30 1482 H 203.673 -3.73517 9.52265 0
M  V30 1483 H 202.043 -3.97163 8.80359 0
M  V30 1484 H 204.682 -4.90969 4.01921 0
M  V30 1485 P 206.54 -5.75688 6.64379 0
M  V30 1486 O 207.962 -6.11849 7.01846 0
M  V30 1487 O 206.18 -4.30744 6.56026 0
M  V30 1488 O 206.217 -6.37042 5.19165 0
M  V30 1489 C 206.057 -7.83578 5.16515 0
M  V30 1490 C 206.597 -8.33398 3.83019 0
M  V30 1491 O 205.541 -8.10074 3.01034 0
M  V30 1492 C 207.815 -7.65514 3.2257 0
M  V30 1493 O 208.553 -8.4329 2.32297 0
M  V30 1494 C 207.146 -6.40075 2.62207 0
M  V30 1495 O 207.945 -5.92589 1.53712 0
M  V30 1496 C 205.809 -6.9454 2.18503 0
M  V30 1497 H 205.841 -7.23063 1.12091 0
M  V30 1498 H 207.024 -5.6025 3.37201 0
M  V30 1499 H 208.508 -7.35707 4.02681 0
M  V30 1500 H 206.814 -9.40912 3.9095 0
M  V30 1501 H 206.624 -8.29056 5.99158 0
M  V30 1502 H 204.994 -8.10073 5.25882 0
M  V30 1503 H 207.633 -6.30324 0.726794 0
M  V30 1504 P 209.49 -8.4349 2.47671 0
M  V30 1505 O 210.912 -8.94167 2.5964 0
M  V30 1506 O 209.13 -7.1704 3.19006 0
M  V30 1507 O 209.167 -8.16596 0.923387 0
M  V30 1508 C 209.007 -9.38437 0.108857 0
M  V30 1509 C 209.547 -9.08175 -1.28353 0
M  V30 1510 O 208.491 -8.44229 -1.84713 0
M  V30 1511 C 210.765 -8.18386 -1.42505 0
M  V30 1512 O 211.503 -8.3501 -2.60497 0
M  V30 1513 C 210.096 -6.80225 -1.25468 0
M  V30 1514 O 210.895 -5.81621 -1.91066 0
M  V30 1515 C 208.759 -7.02416 -1.9168 0
M  V30 1516 H 208.791 -6.6888 -2.96621 0
M  V30 1517 H 209.974 -6.53617 -0.192223 0
M  V30 1518 H 211.458 -8.36622 -0.589963 0
M  V30 1519 H 209.764 -10.0291 -1.79807 0
M  V30 1520 H 209.574 -10.2138 0.558219 0
M  V30 1521 H 207.944 -9.6579 0.0444202 0
M  V30 1522 H 210.583 -5.69556 -2.79637 0
M  V30 1523 P 212.441 -8.4349 -2.47671 0
M  V30 1524 O 213.863 -8.92593 -2.65 0
M  V30 1525 O 212.081 -7.7568 -1.19296 0
M  V30 1526 O 212.118 -7.36886 -3.63805 0
M  V30 1527 C 211.958 -7.95349 -4.982 0
M  V30 1528 C 212.498 -6.94612 -5.98974 0
M  V30 1529 O 211.442 -6.10347 -6.11815 0
M  V30 1530 C 213.716 -6.11426 -5.62335 0
M  V30 1531 O 214.454 -5.6162 -6.70584 0
M  V30 1532 C 213.047 -5.04409 -4.73308 0
M  V30 1533 O 213.846 -3.85992 -4.75183 0
M  V30 1534 C 211.71 -4.8728 -5.41006 0
M  V30 1535 H 211.742 -4.02333 -6.11157 0
M  V30 1536 H 212.925 -5.39466 -3.69543 0
M  V30 1537 H 214.409 -6.71916 -5.01943 0
M  V30 1538 H 212.715 -7.4649 -6.93477 0
M  V30 1539 H 212.525 -8.89416 -5.05237 0
M  V30 1540 H 210.895 -8.14876 -5.18409 0
M  V30 1541 H 213.534 -3.27957 -5.4317 0
M  V30 1542 P 215.392 -5.75688 -6.64379 0
M  V30 1543 O 216.814 -6.07627 -7.05504 0
M  V30 1544 O 215.032 -5.88047 -5.19722 0
M  V30 1545 O 215.069 -4.2322 -7.04443 0
M  V30 1546 C 214.909 -3.99743 -8.4911 0
M  V30 1547 C 215.449 -2.60516 -8.79425 0
M  V30 1548 O 214.393 -1.82684 -8.4467 0
M  V30 1549 C 216.667 -2.10343 -8.03628 0
M  V30 1550 O 217.405 -1.09919 -8.67766 0
M  V30 1551 C 215.998 -1.68446 -6.70876 0
M  V30 1552 O 216.797 -0.678137 -6.08433 0
M  V30 1553 C 214.661 -1.17436 -7.18567 0
M  V30 1554 H 214.693 -0.0804732 -7.31656 0
M  V30 1555 H 215.876 -2.54037 -6.02537 0
M  V30 1556 H 217.36 -2.93881 -7.85526 0
M  V30 1557 H 215.666 -2.53065 -9.86973 0
M  V30 1558 H 215.476 -4.75072 -9.05887 0
M  V30 1559 H 213.846 -4.05244 -8.76668 0
M  V30 1560 H 216.485 0.177647 -6.34251 0
M  V30 1561 P 218.342 -1.25109 -8.70152 0
M  V30 1562 O 219.764 -1.29744 -9.22016 0
M  V30 1563 O 217.982 -2.13714 -7.55141 0
M  V30 1564 O 218.019 0.248149 -8.21425 0
M  V30 1565 C 217.859 1.22779 -9.30434 0
M  V30 1566 C 218.399 2.56293 -8.80664 0
M  V30 1567 O 217.343 3.02979 -8.09349 0
M  V30 1568 C 219.617 2.57523 -7.89775 0
M  V30 1569 O 220.355 3.7668 -7.89438 0
M  V30 1570 C 218.948 2.20997 -6.55446 0
M  V30 1571 O 219.747 2.71895 -5.48509 0
M  V30 1572 C 217.611 2.89693 -6.67988 0
M  V30 1573 H 217.643 3.88793 -6.19859 0
M  V30 1574 H 218.826 1.12046 -6.44229 0
M  V30 1575 H 220.31 1.7746 -8.19711 0
M  V30 1576 H 218.616 3.20706 -9.67112 0
M  V30 1577 H 218.426 0.901032 -10.1892 0
M  V30 1578 H 216.796 1.33049 -9.56592 0
M  V30 1579 H 219.435 3.57847 -5.23962 0
M  V30 1580 P 221.293 3.65191 -7.99657 0
M  V30 1581 O 222.715 3.89332 -8.45794 0
M  V30 1582 O 220.933 2.28472 -7.50807 0
M  V30 1583 O 220.97 4.64972 -6.77611 0
M  V30 1584 C 220.81 6.06319 -7.16352 0
M  V30 1585 C 221.35 6.91731 -6.02299 0
M  V30 1586 O 220.294 6.92449 -5.17064 0
M  V30 1587 C 222.568 6.43627 -5.25174 0
M  V30 1588 O 223.306 7.43686 -4.60469 0
M  V30 1589 C 221.899 5.40275 -4.31916 0
M  V30 1590 O 222.698 5.25279 -3.14438 0
M  V30 1591 C 220.562 6.04847 -4.05327 0
M  V30 1592 H 220.594 6.62195 -3.11261 0
M  V30 1593 H 221.777 4.42556 -4.81383 0
M  V30 1594 H 223.261 5.92458 -5.93643 0
M  V30 1595 H 221.567 7.92655 -6.402 0
M  V30 1596 H 221.377 6.26671 -8.0846 0
M  V30 1597 H 219.747 6.29101 -7.32804 0
M  V30 1598 H 222.386 5.84315 -2.47318 0
M  V30 1599 P 224.243 7.39546 -4.75277 0
M  V30 1600 O 225.665 7.84798 -5.01039 0
M  V30 1601 O 223.883 5.9812 -5.08098 0
M  V30 1602 O 223.92 7.57503 -3.1866 0
M  V30 1603 C 223.76 8.97357 -2.74833 0
M  V30 1604 C 224.3 9.07548 -1.32709 0
M  V30 1605 O 223.244 8.62072 -0.606159 0
M  V30 1606 C 225.518 8.25383 -0.938334 0
M  V30 1607 O 226.256 8.74577 0.146954 0
M  V30 1608 C 224.849 6.8802 -0.712559 0
M  V30 1609 O 225.648 6.1189 0.194655 0
M  V30 1610 C 223.512 7.27966 -0.139777 0
M  V30 1611 H 223.544 7.25354 0.961601 0
M  V30 1612 H 224.727 6.32557 -1.65702 0
M  V30 1613 H 226.211 8.19355 -1.79097 0
M  V30 1614 H 224.517 10.1294 -1.10029 0
M  V30 1615 H 224.327 9.64276 -3.41316 0
M  V30 1616 H 222.697 9.25417 -2.76357 0
M  V30 1617 H 225.336 6.25267 1.07847 0
M  V30 1618 P 227.194 8.791 4.22174e-13 0
M  V30 1619 O 228.616 9.31096 0.027933 0
M  V30 1620 O 226.834 7.77869 -1.04071 0
M  V30 1621 O 226.871 8.09533 1.41463 0
M  V30 1622 C 226.711 9.0349 2.53943 0
M  V30 1623 C 227.251 8.35226 3.79016 0
M  V30 1624 O 226.195 7.57992 4.15078 0
M  V30 1625 C 228.469 7.45087 3.67298 0
M  V30 1626 O 229.207 7.27796 4.85194 0
M  V30 1627 C 227.8 6.17323 3.12027 0
M  V30 1628 O 228.599 5.04231 3.47188 0
M  V30 1629 C 226.463 6.19961 3.81809 0
M  V30 1630 H 226.495 5.58218 4.73051 0
M  V30 1631 H 227.678 6.21726 2.02589 0
M  V30 1632 H 229.162 7.86112 2.9231 0
M  V30 1633 H 227.468 9.11627 4.55076 0
M  V30 1634 H 227.278 9.9573 2.34194 0
M  V30 1635 H 225.648 9.2792 2.67832 0
M  V30 1636 H 228.287 4.67702 4.28772 0
M  V30 1637 P 230.144 7.39546 4.75277 0
M  V30 1638 O 231.566 7.81777 5.05738 0
M  V30 1639 O 229.784 7.1065 3.32998 0
M  V30 1640 O 229.821 6.04542 5.56673 0
M  V30 1641 C 229.661 6.22772 7.02095 0
M  V30 1642 C 230.201 4.97725 7.70406 0
M  V30 1643 O 229.145 4.13256 7.58987 0
M  V30 1644 C 231.419 4.28231 7.11815 0
M  V30 1645 O 232.157 3.49945 8.01648 0
M  V30 1646 C 230.75 3.5063 5.96244 0
M  V30 1647 O 231.549 2.36482 5.64681 0
M  V30 1648 C 229.413 3.15122 6.56374 0
M  V30 1649 H 229.445 2.13853 6.99751 0
M  V30 1650 H 230.628 4.13501 5.06559 0
M  V30 1651 H 232.112 5.03285 6.70911 0
M  V30 1652 H 230.418 5.20877 8.75697 0
M  V30 1653 H 230.228 7.11046 7.35349 0
M  V30 1654 H 228.598 6.35815 7.26986 0
M  V30 1655 H 231.237 1.61644 6.13565 0
M  V30 1656 P 233.095 3.65191 7.99657 0
M  V30 1657 O 234.517 3.8425 8.48115 0
M  V30 1658 O 232.735 4.17805 6.64342 0
M  V30 1659 O 232.772 2.07613 7.95143 0
M  V30 1660 C 232.612 1.44328 9.27336 0
M  V30 1661 C 233.152 0.0220036 9.17197 0
M  V30 1662 O 232.096 -0.626867 8.61923 0
M  V30 1663 C 234.37 -0.24586 8.30336 0
M  V30 1664 O 235.108 -1.39011 8.63583 0
M  V30 1665 C 233.701 -0.273849 6.91158 0
M  V30 1666 O 234.5 -1.06348 6.02892 0
M  V30 1667 C 232.364 -0.897649 7.22545 0
M  V30 1668 H 232.396 -1.9841 7.04286 0
M  V30 1669 H 233.579 0.739928 6.497 0
M  V30 1670 H 235.063 0.60668 8.36503 0
M  V30 1671 H 233.369 -0.352479 10.1829 0
M  V30 1672 H 233.179 2.00611 10.0304 0
M  V30 1673 H 231.549 1.41843 9.55327 0
M  V30 1674 H 234.188 -1.95734 6.03555 0
M  V30 1675 P 236.046 -1.25109 8.70152 0
M  V30 1676 O 237.468 -1.35274 9.21221 0
M  V30 1677 O 235.686 -0.0769065 7.84762 0
M  V30 1678 O 235.723 -2.55232 7.81161 0
M  V30 1679 C 235.563 -3.79939 8.58154 0
M  V30 1680 C 236.103 -4.94023 7.72785 0
M  V30 1681 O 235.047 -5.18726 6.91205 0
M  V30 1682 C 237.321 -4.69597 6.85231 0
M  V30 1683 O 238.059 -5.83832 6.51337 0
M  V30 1684 C 236.652 -3.96706 5.66633 0
M  V30 1685 O 237.451 -4.15414 4.49689 0
M  V30 1686 C 235.315 -4.66153 5.59313 0
M  V30 1687 H 235.347 -5.47679 4.85214 0
M  V30 1688 H 236.53 -2.89008 5.86566 0
M  V30 1689 H 238.014 -4.0121 7.36511 0
M  V30 1690 H 236.32 -5.80182 8.37584 0
M  V30 1691 H 236.13 -3.73517 9.52265 0
M  V30 1692 H 234.5 -3.97163 8.80359 0
M  V30 1693 H 237.139 -4.90969 4.01921 0
M  V30 1694 P 238.996 -5.75688 6.64379 0
M  V30 1695 O 240.418 -6.11849 7.01846 0
M  V30 1696 O 238.636 -4.30744 6.56026 0
M  V30 1697 O 238.673 -6.37042 5.19165 0
M  V30 1698 C 238.513 -7.83578 5.16515 0
M  V30 1699 C 239.053 -8.33398 3.83019 0
M  V30 1700 O 237.997 -8.10074 3.01034 0
M  V30 1701 C 240.271 -7.65514 3.2257 0
M  V30 1702 O 241.009 -8.4329 2.32297 0
M  V30 1703 C 239.602 -6.40075 2.62207 0
M  V30 1704 O 240.401 -5.92589 1.53712 0
M  V30 1705 C 238.265 -6.9454 2.18503 0
M  V30 1706 H 238.297 -7.23063 1.12091 0
M  V30 1707 H 239.48 -5.6025 3.37201 0
M  V30 1708 H 240.964 -7.35707 4.02681 0
M  V30 1709 H 239.27 -9.40912 3.9095 0
M  V30 1710 H 239.08 -8.29056 5.99158 0
M  V30 1711 H 237.45 -8.10073 5.25882 0
M  V30 1712 H 240.089 -6.30324 0.726794 0
M  V30 1713 P 241.947 -8.4349 2.47671 0
M  V30 1714 O 243.369 -8.94167 2.5964 0
M  V30 1715 O 241.587 -7.1704 3.19006 0
M  V30 1716 O 241.624 -8.16596 0.923387 0
M  V30 1717 C 241.464 -9.38437 0.108857 0
M  V30 1718 C 242.004 -9.08175 -1.28353 0
M  V30 1719 O 240.948 -8.44229 -1.84713 0
M  V30 1720 C 243.222 -8.18386 -1.42505 0
M  V30 1721 O 243.96 -8.3501 -2.60497 0
M  V30 1722 C 242.553 -6.80225 -1.25468 0
M  V30 1723 O 243.352 -5.81621 -1.91066 0
M  V30 1724 C 241.216 -7.02416 -1.9168 0
M  V30 1725 H 241.248 -6.6888 -2.96621 0
M  V30 1726 H 242.431 -6.53617 -0.192223 0
M  V30 1727 H 243.915 -8.36622 -0.589963 0
M  V30 1728 H 242.221 -10.0291 -1.79807 0
M  V30 1729 H 242.031 -10.2138 0.558219 0
M  V30 1730 H 240.401 -9.6579 0.0444202 0
M  V30 1731 H 243.04 -5.69556 -2.79637 0
M  V30 1732 P 244.897 -8.4349 -2.47671 0
M  V30 1733 O 246.319 -8.92593 -2.65 0
M  V30 1734 O 244.537 -7.7568 -1.19296 0
M  V30 1735 O 244.574 -7.36886 -3.63805 0
M  V30 1736 C 244.414 -7.95349 -4.982 0
M  V30 1737 C 244.954 -6.94612 -5.98974 0
M  V30 1738 O 243.898 -6.10347 -6.11815 0
M  V30 1739 C 246.172 -6.11426 -5.62335 0
M  V30 1740 O 246.91 -5.6162 -6.70584 0
M  V30 1741 C 245.503 -5.04409 -4.73308 0
M  V30 1742 O 246.302 -3.85992 -4.75183 0
M  V30 1743 C 244.166 -4.8728 -5.41006 0
M  V30 1744 H 244.198 -4.02333 -6.11157 0
M  V30 1745 H 245.381 -5.39466 -3.69543 0
M  V30 1746 H 246.865 -6.71916 -5.01943 0
M  V30 1747 H 245.171 -7.4649 -6.93477 0
M  V30 1748 H 244.981 -8.89416 -5.05237 0
M  V30 1749 H 243.351 -8.14876 -5.18409 0
M  V30 1750 H 245.99 -3.27957 -5.4317 0
M  V30 1751 P 247.848 -5.75688 -6.64379 0
M  V30 1752 O 249.27 -6.07627 -7.05504 0
M  V30 1753 O 247.488 -5.88047 -5.19722 0
M  V30 1754 O 247.525 -4.2322 -7.04443 0
M  V30 1755 C 247.365 -3.99743 -8.4911 0
M  V30 1756 C 247.905 -2.60516 -8.79425 0
M  V30 1757 O 246.849 -1.82684 -8.4467 0
M  V30 1758 C 249.123 -2.10343 -8.03628 0
M  V30 1759 O 249.861 -1.09919 -8.67766 0
M  V30 1760 C 248.454 -1.68446 -6.70876 0
M  V30 1761 O 249.253 -0.678137 -6.08433 0
M  V30 1762 C 247.117 -1.17436 -7.18567 0
M  V30 1763 H 247.149 -0.0804732 -7.31656 0
M  V30 1764 H 248.332 -2.54037 -6.02537 0
M  V30 1765 H 249.816 -2.93881 -7.85526 0
M  V30 1766 H 248.122 -2.53065 -9.86973 0
M  V30 1767 H 247.932 -4.75072 -9.05887 0
M  V30 1768 H 246.302 -4.05244 -8.76668 0
M  V30 1769 H 248.941 0.177647 -6.34251 0
M  V30 1770 P 250.798 -1.25109 -8.70152 0
M  V30 1771 O 252.22 -1.29744 -9.22016 0
M  V30 1772 O 250.438 -2.13714 -7.55141 0
M  V30 1773 O 250.475 0.248149 -8.21425 0
M  V30 1774 C 250.315 1.22779 -9.30434 0
M  V30 1775 C 250.855 2.56293 -8.80664 0
M  V30 1776 O 249.799 3.02979 -8.09349 0
M  V30 1777 C 252.073 2.57523 -7.89775 0
M  V30 1778 O 252.811 3.7668 -7.89438 0
M  V30 1779 C 251.404 2.20997 -6.55446 0
M  V30 1780 O 252.203 2.71895 -5.48509 0
M  V30 1781 C 250.067 2.89693 -6.67988 0
M  V30 1782 H 250.099 3.88793 -6.19859 0
M  V30 1783 H 251.282 1.12046 -6.44229 0
M  V30 1784 H 252.766 1.7746 -8.19711 0
M  V30 1785 H 251.072 3.20706 -9.67112 0
M  V30 1786 H 250.882 0.901032 -10.1892 0
M  V30 1787 H 249.252 1.33049 -9.56592 0
M  V30 1788 H 251.891 3.57847 -5.23962 0
M  V30 1789 P 253.749 3.65191 -7.99657 0
M  V30 1790 O 255.171 3.89332 -8.45794 0
M  V30 1791 O 253.389 2.28472 -7.50807 0
M  V30 1792 O 253.426 4.64972 -6.77611 0
M  V30 1793 C 253.266 6.06319 -7.16352 0
M  V30 1794 C 253.806 6.91731 -6.02299 0
M  V30 1795 O 252.75 6.92449 -5.17064 0
M  V30 1796 C 255.024 6.43627 -5.25174 0
M  V30 1797 O 255.762 7.43686 -4.60469 0
M  V30 1798 C 254.355 5.40275 -4.31916 0
M  V30 1799 O 255.154 5.25279 -3.14438 0
M  V30 1800 C 253.018 6.04847 -4.05327 0
M  V30 1801 H 253.05 6.62195 -3.11261 0
M  V30 1802 H 254.233 4.42556 -4.81383 0
M  V30 1803 H 255.717 5.92458 -5.93643 0
M  V30 1804 H 254.023 7.92655 -6.402 0
M  V30 1805 H 253.833 6.26671 -8.0846 0
M  V30 1806 H 252.203 6.29101 -7.32804 0
M  V30 1807 H 254.842 5.84315 -2.47318 0
M  V30 1808 P 256.7 7.39546 -4.75277 0
M  V30 1809 O 258.122 7.84798 -5.01039 0
M  V30 1810 O 256.34 5.9812 -5.08098 0
M  V30 1811 O 256.377 7.57503 -3.1866 0
M  V30 1812 C 256.217 8.97357 -2.74833 0
M  V30 1813 C 256.757 9.07548 -1.32709 0
M  V30 1814 O 255.701 8.62072 -0.606159 0
M  V30 1815 C 257.975 8.25383 -0.938334 0
M  V30 1816 O 258.713 8.74577 0.146954 0
M  V30 1817 C 257.306 6.8802 -0.712559 0
M  V30 1818 O 258.105 6.1189 0.194655 0
M  V30 1819 C 255.969 7.27966 -0.139777 0
M  V30 1820 H 256.001 7.25354 0.961601 0
M  V30 1821 H 257.184 6.32557 -1.65702 0
M  V30 1822 H 258.668 8.19355 -1.79097 0
M  V30 1823 H 256.974 10.1294 -1.10029 0
M  V30 1824 H 256.784 9.64276 -3.41316 0
M  V30 1825 H 255.154 9.25417 -2.76357 0
M  V30 1826 H 257.793 6.25267 1.07847 0
M  V30 1827 P 259.65 8.791 7.3234e-13 0
M  V30 1828 O 261.072 9.31096 0.027933 0
M  V30 1829 O 259.29 7.77869 -1.04071 0
M  V30 1830 O 259.327 8.09533 1.41463 0
M  V30 1831 C 259.167 9.0349 2.53943 0
M  V30 1832 C 259.707 8.35226 3.79016 0
M  V30 1833 O 258.651 7.57992 4.15078 0
M  V30 1834 C 260.925 7.45087 3.67298 0
M  V30 1835 O 261.663 7.27796 4.85194 0
M  V30 1836 C 260.256 6.17323 3.12027 0
M  V30 1837 O 261.055 5.04231 3.47188 0
M  V30 1838 C 258.919 6.19961 3.81809 0
M  V30 1839 H 258.951 5.58218 4.73051 0
M  V30 1840 H 260.134 6.21726 2.02589 0
M  V30 1841 H 261.618 7.86112 2.9231 0
M  V30 1842 H 259.924 9.11627 4.55076 0
M  V30 1843 H 259.734 9.9573 2.34194 0
M  V30 1844 H 258.104 9.2792 2.67832 0
M  V30 1845 H 260.743 4.67702 4.28772 0
M  V30 1846 P 262.601 7.39546 4.75277 0
M  V30 1847 O 264.023 7.81777 5.05738 0
M  V30 1848 O 262.241 7.1065 3.32998 0
M  V30 1849 O 262.278 6.04542 5.56673 0
M  V30 1850 C 262.118 6.22772 7.02095 0
M  V30 1851 C 262.658 4.97725 7.70406 0
M  V30 1852 O 261.602 4.13256 7.58987 0
M  V30 1853 C 263.876 4.28231 7.11815 0
M  V30 1854 O 264.614 3.49945 8.01648 0
M  V30 1855 C 263.207 3.5063 5.96244 0
M  V30 1856 O 264.006 2.36482 5.64681 0
M  V30 1857 C 261.87 3.15122 6.56374 0
M  V30 1858 H 261.902 2.13853 6.99751 0
M  V30 1859 H 263.085 4.13501 5.06559 0
M  V30 1860 H 264.569 5.03285 6.70911 0
M  V30 1861 H 262.875 5.20877 8.75697 0
M  V30 1862 H 262.685 7.11046 7.35349 0
M  V30 1863 H 261.055 6.35815 7.26986 0
M  V30 1864 H 263.694 1.61644 6.13565 0
M  V30 1865 P 265.551 3.65191 7.99657 0
M  V30 1866 O 266.972 3.84292 8.48206 0
M  V30 1867 O 265.191 4.17805 6.64342 0
M  V30 1868 O 265.228 2.07613 7.95143 0
M  V30 1869 C 265.067 1.44344 9.27435 0
M  V30 1870 C 265.608 0.0220036 9.17197 0
M  V30 1871 O 264.553 -0.626794 8.61824 0
M  V30 1872 C 266.826 -0.24586 8.30336 0
M  V30 1873 O 267.564 -1.39011 8.63583 0
M  V30 1874 C 266.158 -0.273849 6.91158 0
M  V30 1875 O 266.956 -1.05728 6.029 0
M  V30 1876 C 264.82 -0.897649 7.22545 0
M  V30 1877 N 263.777 -0.292839 6.41732 0
M  V30 1878 C 263.946 0.950603 5.91308 0
M  V30 1879 N 262.919 1.37732 5.21105 0
M  V30 1880 C 262.034 0.318109 5.26039 0
M  V30 1881 C 260.767 0.146766 4.6727 0
M  V30 1882 N 260.168 1.08519 3.89983 0
M  V30 1883 N 260.202 -1.06525 4.95887 0
M  V30 1884 C 260.804 -2.0378 5.71347 0
M  V30 1885 N 261.981 -1.92445 6.27451 0
M  V30 1886 C 262.556 -0.715382 6.00353 0
M  V30 1887 H 264.852 -1.98383 7.04189 0
M  V30 1888 H 266.035 0.733318 6.49674 0
M  V30 1889 H 267.518 0.60668 8.36503 0
M  V30 1890 H 265.824 -0.362662 10.1825 0
M  V30 1891 H 265.634 2.00611 10.0304 0
M  V30 1892 H 264.004 1.41843 9.55327 0
M  V30 1893 H 260.268 -2.97041 5.85344 0
M  V30 1894 H 264.846 1.54076 6.07465 0
M  V30 1895 H 259.238 0.901517 3.49562 0
M  V30 1896 H 260.642 1.97957 3.71669 0
M  V30 1897 H 266.644 -1.95704 6.0346 0
M  V30 1898 P 268.502 -1.25109 8.70152 0
M  V30 1899 O 269.924 -1.35274 9.21221 0
M  V30 1900 O 268.142 -0.0769065 7.84762 0
M  V30 1901 O 268.179 -2.55232 7.81161 0
M  V30 1902 C 268.019 -3.79939 8.58154 0
M  V30 1903 C 268.559 -4.94023 7.72785 0
M  V30 1904 O 267.503 -5.18726 6.91205 0
M  V30 1905 C 269.777 -4.69597 6.85231 0
M  V30 1906 O 270.515 -5.83832 6.51337 0
M  V30 1907 C 269.108 -3.96706 5.66633 0
M  V30 1908 O 269.907 -4.15414 4.49689 0
M  V30 1909 C 267.771 -4.66153 5.59313 0
M  V30 1910 H 267.803 -5.47679 4.85214 0
M  V30 1911 H 268.986 -2.89008 5.86566 0
M  V30 1912 H 270.47 -4.0121 7.36511 0
M  V30 1913 H 268.776 -5.80182 8.37584 0
M  V30 1914 H 268.586 -3.73517 9.52265 0
M  V30 1915 H 266.956 -3.97163 8.80359 0
M  V30 1916 H 269.595 -4.90969 4.01921 0
M  V30 1917 P 271.452 -5.75688 6.64379 0
M  V30 1918 O 272.874 -6.11849 7.01846 0
M  V30 1919 O 271.092 -4.30744 6.56026 0
M  V30 1920 O 271.129 -6.37042 5.19165 0
M  V30 1921 C 270.969 -7.83578 5.16515 0
M  V30 1922 C 271.509 -8.33398 3.83019 0
M  V30 1923 O 270.453 -8.10074 3.01034 0
M  V30 1924 C 272.727 -7.65514 3.2257 0
M  V30 1925 O 273.465 -8.4329 2.32297 0
M  V30 1926 C 272.058 -6.40075 2.62207 0
M  V30 1927 O 272.857 -5.92589 1.53712 0
M  V30 1928 C 270.721 -6.9454 2.18503 0
M  V30 1929 H 270.753 -7.23063 1.12091 0
M  V30 1930 H 271.936 -5.6025 3.37201 0
M  V30 1931 H 273.42 -7.35707 4.02681 0
M  V30 1932 H 271.726 -9.40912 3.9095 0
M  V30 1933 H 271.536 -8.29056 5.99158 0
M  V30 1934 H 269.906 -8.10073 5.25882 0
M  V30 1935 H 272.545 -6.30324 0.726794 0
M  V30 1936 P 274.403 -8.4349 2.47671 0
M  V30 1937 O 275.825 -8.94167 2.5964 0
M  V30 1938 O 274.043 -7.1704 3.19006 0
M  V30 1939 O 274.08 -8.16596 0.923387 0
M  V30 1940 C 273.92 -9.38437 0.108857 0
M  V30 1941 C 274.46 -9.08175 -1.28353 0
M  V30 1942 O 273.404 -8.44229 -1.84713 0
M  V30 1943 C 275.678 -8.18386 -1.42505 0
M  V30 1944 O 276.416 -8.3501 -2.60497 0
M  V30 1945 C 275.009 -6.80225 -1.25468 0
M  V30 1946 O 275.808 -5.81621 -1.91066 0
M  V30 1947 C 273.672 -7.02416 -1.9168 0
M  V30 1948 H 273.704 -6.6888 -2.96621 0
M  V30 1949 H 274.887 -6.53617 -0.192223 0
M  V30 1950 H 276.371 -8.36622 -0.589963 0
M  V30 1951 H 274.677 -10.0291 -1.79807 0
M  V30 1952 H 274.487 -10.2138 0.558219 0
M  V30 1953 H 272.857 -9.6579 0.0444202 0
M  V30 1954 H 275.496 -5.69556 -2.79637 0
M  V30 1955 P 277.354 -8.4349 -2.47671 0
M  V30 1956 O 278.776 -8.92593 -2.65 0
M  V30 1957 O 276.994 -7.7568 -1.19296 0
M  V30 1958 O 277.031 -7.36886 -3.63805 0
M  V30 1959 C 276.871 -7.95349 -4.982 0
M  V30 1960 C 277.411 -6.94612 -5.98974 0
M  V30 1961 O 276.355 -6.10347 -6.11815 0
M  V30 1962 C 278.629 -6.11426 -5.62335 0
M  V30 1963 O 279.367 -5.6162 -6.70584 0
M  V30 1964 C 277.96 -5.04409 -4.73308 0
M  V30 1965 O 278.759 -3.85992 -4.75183 0
M  V30 1966 C 276.623 -4.8728 -5.41006 0
M  V30 1967 H 276.655 -4.02333 -6.11157 0
M  V30 1968 H 277.838 -5.39466 -3.69543 0
M  V30 1969 H 279.322 -6.71916 -5.01943 0
M  V30 1970 H 277.628 -7.4649 -6.93477 0
M  V30 1971 H 277.438 -8.89416 -5.05237 0
M  V30 1972 H 275.808 -8.14876 -5.18409 0
M  V30 1973 H 278.447 -3.27957 -5.4317 0
M  V30 1974 P 280.304 -5.75688 -6.64379 0
M  V30 1975 O 281.726 -6.07627 -7.05504 0
M  V30 1976 O 279.944 -5.88047 -5.19722 0
M  V30 1977 O 279.981 -4.2322 -7.04443 0
M  V30 1978 C 279.821 -3.99743 -8.4911 0
M  V30 1979 C 280.361 -2.60516 -8.79425 0
M  V30 1980 O 279.305 -1.82684 -8.4467 0
M  V30 1981 C 281.579 -2.10343 -8.03628 0
M  V30 1982 O 282.317 -1.09919 -8.67766 0
M  V30 1983 C 280.91 -1.68446 -6.70876 0
M  V30 1984 O 281.709 -0.678137 -6.08433 0
M  V30 1985 C 279.573 -1.17436 -7.18567 0
M  V30 1986 H 279.605 -0.0804732 -7.31656 0
M  V30 1987 H 280.788 -2.54037 -6.02537 0
M  V30 1988 H 282.272 -2.93881 -7.85526 0
M  V30 1989 H 280.578 -2.53065 -9.86973 0
M  V30 1990 H 280.388 -4.75072 -9.05887 0
M  V30 1991 H 278.758 -4.05244 -8.76668 0
M  V30 1992 H 281.397 0.177647 -6.34251 0
M  V30 1993 P 283.255 -1.25109 -8.70152 0
M  V30 1994 O 284.677 -1.29744 -9.22016 0
M  V30 1995 O 282.895 -2.13714 -7.55141 0
M  V30 1996 O 282.932 0.248149 -8.21425 0
M  V30 1997 C 282.772 1.22779 -9.30434 0
M  V30 1998 C 283.312 2.56293 -8.80664 0
M  V30 1999 O 282.256 3.02979 -8.09349 0
M  V30 2000 C 284.53 2.57523 -7.89775 0
M  V30 2001 O 285.268 3.7668 -7.89438 0
M  V30 2002 C 283.861 2.20997 -6.55446 0
M  V30 2003 O 284.66 2.71895 -5.48509 0
M  V30 2004 C 282.524 2.89693 -6.67988 0
M  V30 2005 H 282.556 3.88793 -6.19859 0
M  V30 2006 H 283.739 1.12046 -6.44229 0
M  V30 2007 H 285.223 1.7746 -8.19711 0
M  V30 2008 H 283.529 3.20706 -9.67112 0
M  V30 2009 H 283.339 0.901032 -10.1892 0
M  V30 2010 H 281.709 1.33049 -9.56592 0
M  V30 2011 H 284.348 3.57847 -5.23962 0
M  V30 2012 P 286.205 3.65191 -7.99657 0
M  V30 2013 O 287.627 3.89332 -8.45794 0
M  V30 2014 O 285.845 2.28472 -7.50807 0
M  V30 2015 O 285.882 4.64972 -6.77611 0
M  V30 2016 C 285.722 6.06319 -7.16352 0
M  V30 2017 C 286.262 6.91731 -6.02299 0
M  V30 2018 O 285.206 6.92449 -5.17064 0
M  V30 2019 C 287.48 6.43627 -5.25174 0
M  V30 2020 O 288.218 7.43686 -4.60469 0
M  V30 2021 C 286.811 5.40275 -4.31916 0
M  V30 2022 O 287.61 5.25279 -3.14438 0
M  V30 2023 C 285.474 6.04847 -4.05327 0
M  V30 2024 H 285.506 6.62195 -3.11261 0
M  V30 2025 H 286.689 4.42556 -4.81383 0
M  V30 2026 H 288.173 5.92458 -5.93643 0
M  V30 2027 H 286.479 7.92655 -6.402 0
M  V30 2028 H 286.289 6.26671 -8.0846 0
M  V30 2029 H 284.659 6.29101 -7.32804 0
M  V30 2030 H 287.298 5.84315 -2.47318 0
M  V30 2031 P 289.156 7.39546 -4.75277 0
M  V30 2032 O 290.578 7.84798 -5.01039 0
M  V30 2033 O 288.796 5.9812 -5.08098 0
M  V30 2034 O 288.833 7.57503 -3.1866 0
M  V30 2035 C 288.673 8.97357 -2.74833 0
M  V30 2036 C 289.213 9.07548 -1.32709 0
M  V30 2037 O 288.157 8.62072 -0.606159 0
M  V30 2038 C 290.431 8.25383 -0.938334 0
M  V30 2039 O 291.169 8.74577 0.146954 0
M  V30 2040 C 289.762 6.8802 -0.712559 0
M  V30 2041 O 290.561 6.1189 0.194655 0
M  V30 2042 C 288.425 7.27966 -0.139777 0
M  V30 2043 H 288.457 7.25354 0.961601 0
M  V30 2044 H 289.64 6.32557 -1.65702 0
M  V30 2045 H 291.124 8.19355 -1.79097 0
M  V30 2046 H 289.43 10.1294 -1.10029 0
M  V30 2047 H 289.24 9.64276 -3.41316 0
M  V30 2048 H 287.61 9.25417 -2.76357 0
M  V30 2049 H 290.249 6.25267 1.07847 0
M  V30 2050 P 292.106 8.791 1.04251e-12 0
M  V30 2051 O 293.528 9.31096 0.027933 0
M  V30 2052 O 291.746 7.77869 -1.04071 0
M  V30 2053 O 291.783 8.09533 1.41463 0
M  V30 2054 C 291.623 9.0349 2.53943 0
M  V30 2055 C 292.163 8.35226 3.79016 0
M  V30 2056 O 291.107 7.57992 4.15078 0
M  V30 2057 C 293.381 7.45087 3.67298 0
M  V30 2058 O 294.119 7.27796 4.85194 0
M  V30 2059 C 292.712 6.17323 3.12027 0
M  V30 2060 O 293.511 5.04231 3.47188 0
M  V30 2061 C 291.375 6.19961 3.81809 0
M  V30 2062 H 291.407 5.58218 4.73051 0
M  V30 2063 H 292.59 6.21726 2.02589 0
M  V30 2064 H 294.074 7.86112 2.9231 0
M  V30 2065 H 292.38 9.11627 4.55076 0
M  V30 2066 H 292.19 9.9573 2.34194 0
M  V30 2067 H 290.56 9.2792 2.67832 0
M  V30 2068 H 293.199 4.67702 4.28772 0
M  V30 2069 P 295.057 7.39546 4.75277 0
M  V30 2070 O 296.479 7.81777 5.05738 0
M  V30 2071 O 294.697 7.1065 3.32998 0
M  V30 2072 O 294.734 6.04542 5.56673 0
M  V30 2073 C 294.574 6.22772 7.02095 0
M  V30 2074 C 295.114 4.97725 7.70406 0
M  V30 2075 O 294.058 4.13256 7.58987 0
M  V30 2076 C 296.332 4.28231 7.11815 0
M  V30 2077 O 297.07 3.49945 8.01648 0
M  V30 2078 C 295.663 3.5063 5.96244 0
M  V30 2079 O 296.462 2.36482 5.64681 0
M  V30 2080 C 294.326 3.15122 6.56374 0
M  V30 2081 H 294.358 2.13853 6.99751 0
M  V30 2082 H 295.541 4.13501 5.06559 0
M  V30 2083 H 297.025 5.03285 6.70911 0
M  V30 2084 H 295.331 5.20877 8.75697 0
M  V30 2085 H 295.141 7.11046 7.35349 0
M  V30 2086 H 293.511 6.35815 7.26986 0
M  V30 2087 H 296.15 1.61644 6.13565 0
M  V30 2088 P 298.008 3.65191 7.99657 0
M  V30 2089 O 299.429 3.84292 8.48206 0
M  V30 2090 O 297.648 4.17805 6.64342 0
M  V30 2091 O 297.685 2.07613 7.95143 0
M  V30 2092 C 297.524 1.44344 9.27435 0
M  V30 2093 C 298.065 0.0220036 9.17197 0
M  V30 2094 O 297.01 -0.626794 8.61824 0
M  V30 2095 C 299.283 -0.24586 8.30336 0
M  V30 2096 O 300.021 -1.39011 8.63583 0
M  V30 2097 C 298.615 -0.273849 6.91158 0
M  V30 2098 O 299.413 -1.05728 6.029 0
M  V30 2099 C 297.277 -0.897649 7.22545 0
M  V30 2100 N 296.234 -0.292839 6.41732 0
M  V30 2101 C 296.403 0.950603 5.91308 0
M  V30 2102 N 295.376 1.37732 5.21105 0
M  V30 2103 C 294.491 0.318109 5.26039 0
M  V30 2104 C 293.224 0.146766 4.6727 0
M  V30 2105 N 292.659 -1.06525 4.95887 0
M  V30 2106 C 293.261 -2.0378 5.71347 0
M  V30 2107 N 294.438 -1.92445 6.27451 0
M  V30 2108 C 295.013 -0.715382 6.00353 0
M  V30 2109 H 298.492 0.733318 6.49674 0
M  V30 2110 H 299.975 0.60668 8.36503 0
M  V30 2111 H 298.281 -0.362662 10.1825 0
M  V30 2112 H 298.091 2.00611 10.0304 0
M  V30 2113 H 296.461 1.41843 9.55327 0
M  V30 2114 H 297.303 1.54076 6.07465 0
M  V30 2115 H 299.101 -1.95704 6.0346 0
M  V30 2116 P 300.958 -1.25109 8.70152 0
M  V30 2117 O 302.38 -1.35274 9.21221 0
M  V30 2118 O 300.598 -0.0769065 7.84762 0
M  V30 2119 O 300.635 -2.55232 7.81161 0
M  V30 2120 C 300.475 -3.79939 8.58154 0
M  V30 2121 C 301.015 -4.94023 7.72785 0
M  V30 2122 O 299.959 -5.18726 6.91205 0
M  V30 2123 C 302.233 -4.69597 6.85231 0
M  V30 2124 O 302.971 -5.83832 6.51337 0
M  V30 2125 C 301.564 -3.96706 5.66633 0
M  V30 2126 O 302.363 -4.15414 4.49689 0
M  V30 2127 C 300.227 -4.66153 5.59313 0
M  V30 2128 H 300.259 -5.47679 4.85214 0
M  V30 2129 H 301.442 -2.89008 5.86566 0
M  V30 2130 H 302.926 -4.0121 7.36511 0
M  V30 2131 H 301.232 -5.80182 8.37584 0
M  V30 2132 H 301.042 -3.73517 9.52265 0
M  V30 2133 H 299.412 -3.97163 8.80359 0
M  V30 2134 H 302.051 -4.90969 4.01921 0
M  V30 2135 P 303.909 -5.75688 6.64379 0
M  V30 2136 O 305.331 -6.11849 7.01846 0
M  V30 2137 O 303.549 -4.30744 6.56026 0
M  V30 2138 O 303.586 -6.37042 5.19165 0
M  V30 2139 C 303.426 -7.83578 5.16515 0
M  V30 2140 C 303.966 -8.33398 3.83019 0
M  V30 2141 O 302.91 -8.10074 3.01034 0
M  V30 2142 C 305.184 -7.65514 3.2257 0
M  V30 2143 O 305.922 -8.4329 2.32297 0
M  V30 2144 C 304.515 -6.40075 2.62207 0
M  V30 2145 O 305.314 -5.92589 1.53712 0
M  V30 2146 C 303.178 -6.9454 2.18503 0
M  V30 2147 H 303.21 -7.23063 1.12091 0
M  V30 2148 H 304.393 -5.6025 3.37201 0
M  V30 2149 H 305.877 -7.35707 4.02681 0
M  V30 2150 H 304.183 -9.40912 3.9095 0
M  V30 2151 H 303.993 -8.29056 5.99158 0
M  V30 2152 H 302.363 -8.10073 5.25882 0
M  V30 2153 H 305.002 -6.30324 0.726794 0
M  V30 2154 P 306.859 -8.4349 2.47671 0
M  V30 2155 O 308.281 -8.94167 2.5964 0
M  V30 2156 O 306.499 -7.1704 3.19006 0
M  V30 2157 O 306.536 -8.16596 0.923387 0
M  V30 2158 C 306.376 -9.38437 0.108857 0
M  V30 2159 C 306.916 -9.08175 -1.28353 0
M  V30 2160 O 305.86 -8.44229 -1.84713 0
M  V30 2161 C 308.134 -8.18386 -1.42505 0
M  V30 2162 O 308.872 -8.3501 -2.60497 0
M  V30 2163 C 307.465 -6.80225 -1.25468 0
M  V30 2164 O 308.264 -5.81621 -1.91066 0
M  V30 2165 C 306.128 -7.02416 -1.9168 0
M  V30 2166 H 306.16 -6.6888 -2.96621 0
M  V30 2167 H 307.343 -6.53617 -0.192223 0
M  V30 2168 H 308.827 -8.36622 -0.589963 0
M  V30 2169 H 307.133 -10.0291 -1.79807 0
M  V30 2170 H 306.943 -10.2138 0.558219 0
M  V30 2171 H 305.313 -9.6579 0.0444202 0
M  V30 2172 H 307.952 -5.69556 -2.79637 0
M  V30 2173 P 309.81 -8.4349 -2.47671 0
M  V30 2174 O 311.232 -8.92593 -2.65 0
M  V30 2175 O 309.45 -7.7568 -1.19296 0
M  V30 2176 O 309.487 -7.36886 -3.63805 0
M  V30 2177 C 309.327 -7.95349 -4.982 0
M  V30 2178 C 309.867 -6.94612 -5.98974 0
M  V30 2179 O 308.811 -6.10347 -6.11815 0
M  V30 2180 C 311.085 -6.11426 -5.62335 0
M  V30 2181 O 311.823 -5.6162 -6.70584 0
M  V30 2182 C 310.416 -5.04409 -4.73308 0
M  V30 2183 O 311.215 -3.85992 -4.75183 0
M  V30 2184 C 309.079 -4.8728 -5.41006 0
M  V30 2185 H 309.111 -4.02333 -6.11157 0
M  V30 2186 H 310.294 -5.39466 -3.69543 0
M  V30 2187 H 311.778 -6.71916 -5.01943 0
M  V30 2188 H 310.084 -7.4649 -6.93477 0
M  V30 2189 H 309.894 -8.89416 -5.05237 0
M  V30 2190 H 308.264 -8.14876 -5.18409 0
M  V30 2191 H 310.903 -3.27957 -5.4317 0
M  V30 2192 P 312.76 -5.75688 -6.64379 0
M  V30 2193 O 314.182 -6.07758 -7.05656 0
M  V30 2194 O 312.4 -5.88047 -5.19722 0
M  V30 2195 O 312.437 -4.2322 -7.04443 0
M  V30 2196 C 312.277 -3.99743 -8.4911 0
M  V30 2197 C 312.817 -2.60487 -8.79329 0
M  V30 2198 O 311.762 -1.82684 -8.4467 0
M  V30 2199 C 314.035 -2.10343 -8.03628 0
M  V30 2200 O 314.773 -1.09919 -8.67766 0
M  V30 2201 C 313.367 -1.68446 -6.70876 0
M  V30 2202 O 314.165 -0.678026 -6.08333 0
M  V30 2203 C 312.029 -1.17436 -7.18567 0
M  V30 2204 N 310.986 -1.52699 -6.23988 0
M  V30 2205 C 311.048 -2.68084 -5.57824 0
M  V30 2206 N 310.003 -2.8189 -4.75643 0
M  V30 2207 C 309.269 -1.72373 -4.95155 0
M  V30 2208 C 307.963 -1.37653 -4.44996 0
M  V30 2209 O 307.23 -2.02239 -3.68445 0
M  V30 2210 N 307.533 -0.17675 -4.90782 0
M  V30 2211 C 308.282 0.645036 -5.78716 0
M  V30 2212 N 307.685 1.84214 -6.10618 0
M  V30 2213 N 309.435 0.321732 -6.30279 0
M  V30 2214 C 309.892 -0.87502 -5.86913 0
M  V30 2215 H 312.061 -0.0804732 -7.31656 0
M  V30 2216 H 313.244 -2.53998 -6.02444 0
M  V30 2217 H 314.729 -2.93095 -7.8582 0
M  V30 2218 H 313.034 -2.53065 -9.86973 0
M  V30 2219 H 312.844 -4.75072 -9.05887 0
M  V30 2220 H 311.213 -4.05244 -8.76668 0
M  V30 2221 H 306.637 0.152143 -4.60849 0
M  V30 2222 H 311.844 -3.41852 -5.69006 0
M  V30 2223 H 306.774 2.08538 -5.69521 0
M  V30 2224 H 308.15 2.4895 -6.75698 0
M  V30 2225 H 313.854 0.177619 -6.34151 0
M  V30 2226 P 315.711 -1.25109 -8.70152 0
M  V30 2227 O 317.133 -1.29744 -9.22016 0
M  V30 2228 O 315.351 -2.13714 -7.55141 0
M  V30 2229 O 315.388 0.248149 -8.21425 0
M  V30 2230 C 315.228 1.22779 -9.30434 0
M  V30 2231 C 315.768 2.56293 -8.80664 0
M  V30 2232 O 314.712 3.02979 -8.09349 0
M  V30 2233 C 316.986 2.57523 -7.89775 0
M  V30 2234 O 317.724 3.7668 -7.89438 0
M  V30 2235 C 316.317 2.20997 -6.55446 0
M  V30 2236 O 317.116 2.71895 -5.48509 0
M  V30 2237 C 314.98 2.89693 -6.67988 0
M  V30 2238 H 315.012 3.88793 -6.19859 0
M  V30 2239 H 316.195 1.12046 -6.44229 0
M  V30 2240 H 317.679 1.7746 -8.19711 0
M  V30 2241 H 315.985 3.20706 -9.67112 0
M  V30 2242 H 315.795 0.901032 -10.1892 0
M  V30 2243 H 314.165 1.33049 -9.56592 0
M  V30 2244 H 316.804 3.57847 -5.23962 0
M  V30 2245 P 318.662 3.65191 -7.99657 0
M  V30 2246 O 320.084 3.89332 -8.45794 0
M  V30 2247 O 318.302 2.28472 -7.50807 0
M  V30 2248 O 318.339 4.64972 -6.77611 0
M  V30 2249 C 318.179 6.06319 -7.16352 0
M  V30 2250 C 318.719 6.91731 -6.02299 0
M  V30 2251 O 317.663 6.92449 -5.17064 0
M  V30 2252 C 319.937 6.43627 -5.25174 0
M  V30 2253 O 320.675 7.43686 -4.60469 0
M  V30 2254 C 319.268 5.40275 -4.31916 0
M  V30 2255 O 320.067 5.25279 -3.14438 0
M  V30 2256 C 317.931 6.04847 -4.05327 0
M  V30 2257 H 317.963 6.62195 -3.11261 0
M  V30 2258 H 319.146 4.42556 -4.81383 0
M  V30 2259 H 320.63 5.92458 -5.93643 0
M  V30 2260 H 318.936 7.92655 -6.402 0
M  V30 2261 H 318.746 6.26671 -8.0846 0
M  V30 2262 H 317.116 6.29101 -7.32804 0
M  V30 2263 H 319.755 5.84315 -2.47318 0
M  V30 2264 P 321.612 7.39546 -4.75277 0
M  V30 2265 O 323.034 7.84798 -5.01039 0
M  V30 2266 O 321.252 5.9812 -5.08098 0
M  V30 2267 O 321.289 7.57503 -3.1866 0
M  V30 2268 C 321.129 8.97357 -2.74833 0
M  V30 2269 C 321.669 9.07548 -1.32709 0
M  V30 2270 O 320.613 8.62072 -0.606159 0
M  V30 2271 C 322.887 8.25383 -0.938334 0
M  V30 2272 O 323.625 8.74577 0.146954 0
M  V30 2273 C 322.218 6.8802 -0.712559 0
M  V30 2274 O 323.017 6.1189 0.194655 0
M  V30 2275 C 320.881 7.27966 -0.139777 0
M  V30 2276 H 320.913 7.25354 0.961601 0
M  V30 2277 H 322.096 6.32557 -1.65702 0
M  V30 2278 H 323.58 8.19355 -1.79097 0
M  V30 2279 H 321.886 10.1294 -1.10029 0
M  V30 2280 H 321.696 9.64276 -3.41316 0
M  V30 2281 H 320.066 9.25417 -2.76357 0
M  V30 2282 H 322.705 6.25267 1.07847 0
M  V30 2283 P 324.563 8.791 1.35267e-12 0
M  V30 2284 O 325.985 9.31096 0.027933 0
M  V30 2285 O 324.203 7.77869 -1.04071 0
M  V30 2286 O 324.24 8.09533 1.41463 0
M  V30 2287 C 324.08 9.0349 2.53943 0
M  V30 2288 C 324.62 8.35226 3.79016 0
M  V30 2289 O 323.564 7.57992 4.15078 0
M  V30 2290 C 325.838 7.45087 3.67298 0
M  V30 2291 O 326.576 7.27796 4.85194 0
M  V30 2292 C 325.169 6.17323 3.12027 0
M  V30 2293 O 325.968 5.04231 3.47188 0
M  V30 2294 C 323.832 6.19961 3.81809 0
M  V30 2295 H 323.864 5.58218 4.73051 0
M  V30 2296 H 325.047 6.21726 2.02589 0
M  V30 2297 H 326.531 7.86112 2.9231 0
M  V30 2298 H 324.837 9.11627 4.55076 0
M  V30 2299 H 324.647 9.9573 2.34194 0
M  V30 2300 H 323.017 9.2792 2.67832 0
M  V30 2301 H 325.656 4.67702 4.28772 0
M  V30 2302 P 327.513 7.39546 4.75277 0
M  V30 2303 O 328.935 7.81777 5.05738 0
M  V30 2304 O 327.153 7.1065 3.32998 0
M  V30 2305 O 327.19 6.04542 5.56673 0
M  V30 2306 C 327.03 6.22772 7.02095 0
M  V30 2307 C 327.57 4.97725 7.70406 0
M  V30 2308 O 326.514 4.13256 7.58987 0
M  V30 2309 C 328.788 4.28231 7.11815 0
M  V30 2310 O 329.526 3.49945 8.01648 0
M  V30 2311 C 328.119 3.5063 5.96244 0
M  V30 2312 O 328.918 2.36482 5.64681 0
M  V30 2313 C 326.782 3.15122 6.56374 0
M  V30 2314 H 326.814 2.13853 6.99751 0
M  V30 2315 H 327.997 4.13501 5.06559 0
M  V30 2316 H 329.481 5.03285 6.70911 0
M  V30 2317 H 327.787 5.20877 8.75697 0
M  V30 2318 H 327.597 7.11046 7.35349 0
M  V30 2319 H 325.967 6.35815 7.26986 0
M  V30 2320 H 328.606 1.61644 6.13565 0
M  V30 2321 P 330.464 3.65191 7.99657 0
M  V30 2322 O 331.886 3.8425 8.48115 0
M  V30 2323 O 330.104 4.17805 6.64342 0
M  V30 2324 O 330.141 2.07613 7.95143 0
M  V30 2325 C 329.981 1.44328 9.27336 0
M  V30 2326 C 330.521 0.0220036 9.17197 0
M  V30 2327 O 329.465 -0.626867 8.61923 0
M  V30 2328 C 331.739 -0.24586 8.30336 0
M  V30 2329 O 332.477 -1.39011 8.63583 0
M  V30 2330 C 331.07 -0.273849 6.91158 0
M  V30 2331 O 331.869 -1.06348 6.02892 0
M  V30 2332 C 329.733 -0.897649 7.22545 0
M  V30 2333 H 329.765 -1.9841 7.04286 0
M  V30 2334 H 330.948 0.739928 6.497 0
M  V30 2335 H 332.432 0.60668 8.36503 0
M  V30 2336 H 330.738 -0.352479 10.1829 0
M  V30 2337 H 330.548 2.00611 10.0304 0
M  V30 2338 H 328.918 1.41843 9.55327 0
M  V30 2339 H 331.557 -1.95734 6.03555 0
M  V30 2340 P 333.414 -1.25109 8.70152 0
M  V30 2341 O 334.835 -1.35288 9.2132 0
M  V30 2342 O 333.054 -0.0769065 7.84762 0
M  V30 2343 O 333.091 -2.55232 7.81161 0
M  V30 2344 C 332.93 -3.79979 8.58246 0
M  V30 2345 C 333.471 -4.94023 7.72785 0
M  V30 2346 O 332.416 -5.18666 6.91125 0
M  V30 2347 C 334.689 -4.69597 6.85231 0
M  V30 2348 O 335.427 -5.83832 6.51337 0
M  V30 2349 C 334.021 -3.96706 5.66633 0
M  V30 2350 O 334.819 -4.14896 4.5003 0
M  V30 2351 C 332.683 -4.66153 5.59313 0
M  V30 2352 N 331.64 -3.71582 5.24027 0
M  V30 2353 C 331.809 -2.39715 5.48833 0
M  V30 2354 N 330.782 -1.65863 5.12845 0
M  V30 2355 C 329.897 -2.57637 4.5973 0
M  V30 2356 C 328.63 -2.40278 4.01027 0
M  V30 2357 N 328.065 -3.57711 3.59575 0
M  V30 2358 C 328.667 -4.80324 3.70476 0
M  V30 2359 N 329.844 -5.01121 4.23801 0
M  V30 2360 C 330.419 -3.84757 4.66372 0
M  V30 2361 H 333.898 -2.8955 5.86187 0
M  V30 2362 H 335.381 -4.0121 7.36511 0
M  V30 2363 H 333.687 -5.81019 8.37003 0
M  V30 2364 H 333.497 -3.73517 9.52265 0
M  V30 2365 H 331.867 -3.97163 8.80359 0
M  V30 2366 H 332.709 -1.98804 5.94332 0
M  V30 2367 H 334.507 -4.90891 4.01857 0
M  V30 2368 P 336.365 -5.75688 6.64379 0
M  V30 2369 O 337.787 -6.11849 7.01846 0
M  V30 2370 O 336.005 -4.30744 6.56026 0
M  V30 2371 O 336.042 -6.37042 5.19165 0
M  V30 2372 C 335.882 -7.83578 5.16515 0
M  V30 2373 C 336.422 -8.33398 3.83019 0
M  V30 2374 O 335.366 -8.10074 3.01034 0
M  V30 2375 C 337.64 -7.65514 3.2257 0
M  V30 2376 O 338.378 -8.4329 2.32297 0
M  V30 2377 C 336.971 -6.40075 2.62207 0
M  V30 2378 O 337.77 -5.92589 1.53712 0
M  V30 2379 C 335.634 -6.9454 2.18503 0
M  V30 2380 H 335.666 -7.23063 1.12091 0
M  V30 2381 H 336.849 -5.6025 3.37201 0
M  V30 2382 H 338.333 -7.35707 4.02681 0
M  V30 2383 H 336.639 -9.40912 3.9095 0
M  V30 2384 H 336.449 -8.29056 5.99158 0
M  V30 2385 H 334.819 -8.10073 5.25882 0
M  V30 2386 H 337.458 -6.30324 0.726794 0
M  V30 2387 P 339.316 -8.4349 2.47671 0
M  V30 2388 O 340.738 -8.94167 2.5964 0
M  V30 2389 O 338.956 -7.1704 3.19006 0
M  V30 2390 O 338.993 -8.16596 0.923387 0
M  V30 2391 C 338.833 -9.38437 0.108857 0
M  V30 2392 C 339.373 -9.08175 -1.28353 0
M  V30 2393 O 338.317 -8.44229 -1.84713 0
M  V30 2394 C 340.591 -8.18386 -1.42505 0
M  V30 2395 O 341.329 -8.3501 -2.60497 0
M  V30 2396 C 339.922 -6.80225 -1.25468 0
M  V30 2397 O 340.721 -5.81621 -1.91066 0
M  V30 2398 C 338.585 -7.02416 -1.9168 0
M  V30 2399 H 338.617 -6.6888 -2.96621 0
M  V30 2400 H 339.8 -6.53617 -0.192223 0
M  V30 2401 H 341.284 -8.36622 -0.589963 0
M  V30 2402 H 339.59 -10.0291 -1.79807 0
M  V30 2403 H 339.4 -10.2138 0.558219 0
M  V30 2404 H 337.77 -9.6579 0.0444202 0
M  V30 2405 H 340.409 -5.69556 -2.79637 0
M  V30 2406 P 342.266 -8.4349 -2.47671 0
M  V30 2407 O 343.688 -8.92593 -2.65 0
M  V30 2408 O 341.906 -7.7568 -1.19296 0
M  V30 2409 O 341.943 -7.36886 -3.63805 0
M  V30 2410 C 341.783 -7.95349 -4.982 0
M  V30 2411 C 342.323 -6.94612 -5.98974 0
M  V30 2412 O 341.267 -6.10347 -6.11815 0
M  V30 2413 C 343.541 -6.11426 -5.62335 0
M  V30 2414 O 344.279 -5.6162 -6.70584 0
M  V30 2415 C 342.872 -5.04409 -4.73308 0
M  V30 2416 O 343.671 -3.85992 -4.75183 0
M  V30 2417 C 341.535 -4.8728 -5.41006 0
M  V30 2418 H 341.567 -4.02333 -6.11157 0
M  V30 2419 H 342.75 -5.39466 -3.69543 0
M  V30 2420 H 344.234 -6.71916 -5.01943 0
M  V30 2421 H 342.54 -7.4649 -6.93477 0
M  V30 2422 H 342.35 -8.89416 -5.05237 0
M  V30 2423 H 340.72 -8.14876 -5.18409 0
M  V30 2424 H 343.359 -3.27957 -5.4317 0
M  V30 2425 P 345.217 -5.75688 -6.64379 0
M  V30 2426 O 346.639 -6.07627 -7.05504 0
M  V30 2427 O 344.857 -5.88047 -5.19722 0
M  V30 2428 O 344.894 -4.2322 -7.04443 0
M  V30 2429 C 344.734 -3.99743 -8.4911 0
M  V30 2430 C 345.274 -2.60516 -8.79425 0
M  V30 2431 O 344.218 -1.82684 -8.4467 0
M  V30 2432 C 346.492 -2.10343 -8.03628 0
M  V30 2433 O 347.23 -1.09919 -8.67766 0
M  V30 2434 C 345.823 -1.68446 -6.70876 0
M  V30 2435 O 346.622 -0.678137 -6.08433 0
M  V30 2436 C 344.486 -1.17436 -7.18567 0
M  V30 2437 H 344.518 -0.0804732 -7.31656 0
M  V30 2438 H 345.701 -2.54037 -6.02537 0
M  V30 2439 H 347.185 -2.93881 -7.85526 0
M  V30 2440 H 345.491 -2.53065 -9.86973 0
M  V30 2441 H 345.301 -4.75072 -9.05887 0
M  V30 2442 H 343.671 -4.05244 -8.76668 0
M  V30 2443 H 346.31 0.177647 -6.34251 0
M  V30 2444 P 348.167 -1.25109 -8.70152 0
M  V30 2445 O 349.589 -1.29744 -9.22016 0
M  V30 2446 O 347.807 -2.13714 -7.55141 0
M  V30 2447 O 347.844 0.248149 -8.21425 0
M  V30 2448 C 347.684 1.22779 -9.30434 0
M  V30 2449 C 348.224 2.56293 -8.80664 0
M  V30 2450 O 347.168 3.02979 -8.09349 0
M  V30 2451 C 349.442 2.57523 -7.89775 0
M  V30 2452 O 350.18 3.7668 -7.89438 0
M  V30 2453 C 348.773 2.20997 -6.55446 0
M  V30 2454 O 349.572 2.71895 -5.48509 0
M  V30 2455 C 347.436 2.89693 -6.67988 0
M  V30 2456 H 347.468 3.88793 -6.19859 0
M  V30 2457 H 348.651 1.12046 -6.44229 0
M  V30 2458 H 350.135 1.7746 -8.19711 0
M  V30 2459 H 348.441 3.20706 -9.67112 0
M  V30 2460 H 348.251 0.901032 -10.1892 0
M  V30 2461 H 346.621 1.33049 -9.56592 0
M  V30 2462 H 349.26 3.57847 -5.23962 0
M  V30 2463 P 351.118 3.65191 -7.99657 0
M  V30 2464 O 352.54 3.89332 -8.45794 0
M  V30 2465 O 350.758 2.28472 -7.50807 0
M  V30 2466 O 350.795 4.64972 -6.77611 0
M  V30 2467 C 350.635 6.06319 -7.16352 0
M  V30 2468 C 351.175 6.91731 -6.02299 0
M  V30 2469 O 350.119 6.92449 -5.17064 0
M  V30 2470 C 352.393 6.43627 -5.25174 0
M  V30 2471 O 353.131 7.43686 -4.60469 0
M  V30 2472 C 351.724 5.40275 -4.31916 0
M  V30 2473 O 352.523 5.25279 -3.14438 0
M  V30 2474 C 350.387 6.04847 -4.05327 0
M  V30 2475 H 350.419 6.62195 -3.11261 0
M  V30 2476 H 351.602 4.42556 -4.81383 0
M  V30 2477 H 353.086 5.92458 -5.93643 0
M  V30 2478 H 351.392 7.92655 -6.402 0
M  V30 2479 H 351.202 6.26671 -8.0846 0
M  V30 2480 H 349.572 6.29101 -7.32804 0
M  V30 2481 H 352.211 5.84315 -2.47318 0
M  V30 2482 P 354.068 7.39546 -4.75277 0
M  V30 2483 O 355.49 7.84798 -5.01039 0
M  V30 2484 O 353.708 5.9812 -5.08098 0
M  V30 2485 O 353.745 7.57503 -3.1866 0
M  V30 2486 C 353.585 8.97357 -2.74833 0
M  V30 2487 C 354.125 9.07548 -1.32709 0
M  V30 2488 O 353.069 8.62072 -0.606159 0
M  V30 2489 C 355.343 8.25383 -0.938334 0
M  V30 2490 O 356.081 8.74577 0.146954 0
M  V30 2491 C 354.674 6.8802 -0.712559 0
M  V30 2492 O 355.473 6.1189 0.194655 0
M  V30 2493 C 353.337 7.27966 -0.139777 0
M  V30 2494 H 353.369 7.25354 0.961601 0
M  V30 2495 H 354.552 6.32557 -1.65702 0
M  V30 2496 H 356.036 8.19355 -1.79097 0
M  V30 2497 H 354.342 10.1294 -1.10029 0
M  V30 2498 H 354.152 9.64276 -3.41316 0
M  V30 2499 H 352.522 9.25417 -2.76357 0
M  V30 2500 H 355.161 6.25267 1.07847 0
M  V30 2501 P 357.019 8.791 1.66284e-12 0
M  V30 2502 O 358.441 9.31096 0.027933 0
M  V30 2503 O 356.659 7.77869 -1.04071 0
M  V30 2504 O 356.696 8.09533 1.41463 0
M  V30 2505 C 356.536 9.0349 2.53943 0
M  V30 2506 C 357.076 8.35226 3.79016 0
M  V30 2507 O 356.02 7.57992 4.15078 0
M  V30 2508 C 358.294 7.45087 3.67298 0
M  V30 2509 O 359.032 7.27796 4.85194 0
M  V30 2510 C 357.625 6.17323 3.12027 0
M  V30 2511 O 358.424 5.04231 3.47188 0
M  V30 2512 C 356.288 6.19961 3.81809 0
M  V30 2513 H 356.32 5.58218 4.73051 0
M  V30 2514 H 357.503 6.21726 2.02589 0
M  V30 2515 H 358.987 7.86112 2.9231 0
M  V30 2516 H 357.293 9.11627 4.55076 0
M  V30 2517 H 357.103 9.9573 2.34194 0
M  V30 2518 H 355.473 9.2792 2.67832 0
M  V30 2519 H 358.112 4.67702 4.28772 0
M  V30 2520 P 359.97 7.39546 4.75277 0
M  V30 2521 O 361.392 7.81777 5.05738 0
M  V30 2522 O 359.61 7.1065 3.32998 0
M  V30 2523 O 359.647 6.04542 5.56673 0
M  V30 2524 C 359.487 6.22772 7.02095 0
M  V30 2525 C 360.027 4.97725 7.70406 0
M  V30 2526 O 358.971 4.13256 7.58987 0
M  V30 2527 C 361.245 4.28231 7.11815 0
M  V30 2528 O 361.983 3.49945 8.01648 0
M  V30 2529 C 360.576 3.5063 5.96244 0
M  V30 2530 O 361.375 2.36482 5.64681 0
M  V30 2531 C 359.239 3.15122 6.56374 0
M  V30 2532 H 359.271 2.13853 6.99751 0
M  V30 2533 H 360.454 4.13501 5.06559 0
M  V30 2534 H 361.938 5.03285 6.70911 0
M  V30 2535 H 360.244 5.20877 8.75697 0
M  V30 2536 H 360.054 7.11046 7.35349 0
M  V30 2537 H 358.424 6.35815 7.26986 0
M  V30 2538 H 361.063 1.61644 6.13565 0
M  V30 2539 P 362.92 3.65191 7.99657 0
M  V30 2540 O 364.342 3.8425 8.48115 0
M  V30 2541 O 362.56 4.17805 6.64342 0
M  V30 2542 O 362.597 2.07613 7.95143 0
M  V30 2543 C 362.437 1.44328 9.27336 0
M  V30 2544 C 362.977 0.0220036 9.17197 0
M  V30 2545 O 361.921 -0.626867 8.61923 0
M  V30 2546 C 364.195 -0.24586 8.30336 0
M  V30 2547 O 364.933 -1.39011 8.63583 0
M  V30 2548 C 363.526 -0.273849 6.91158 0
M  V30 2549 O 364.325 -1.06348 6.02892 0
M  V30 2550 C 362.189 -0.897649 7.22545 0
M  V30 2551 H 362.221 -1.9841 7.04286 0
M  V30 2552 H 363.404 0.739928 6.497 0
M  V30 2553 H 364.888 0.60668 8.36503 0
M  V30 2554 H 363.194 -0.352479 10.1829 0
M  V30 2555 H 363.004 2.00611 10.0304 0
M  V30 2556 H 361.374 1.41843 9.55327 0
M  V30 2557 H 364.013 -1.95734 6.03555 0
M  V30 2558 P 365.871 -1.25109 8.70152 0
M  V30 2559 O 367.293 -1.35303 9.21419 0
M  V30 2560 O 365.511 -0.0769065 7.84762 0
M  V30 2561 O 365.548 -2.55232 7.81161 0
M  V30 2562 C 365.388 -3.79939 8.58154 0
M  V30 2563 C 365.928 -4.93969 7.72701 0
M  V30 2564 O 364.873 -5.18726 6.91205 0
M  V30 2565 C 367.146 -4.69597 6.85231 0
M  V30 2566 O 367.884 -5.83832 6.51337 0
M  V30 2567 C 366.478 -3.96706 5.66633 0
M  V30 2568 O 367.276 -4.15346 4.49615 0
M  V30 2569 C 365.14 -4.66153 5.59313 0
M  V30 2570 N 364.097 -3.71582 5.24027 0
M  V30 2571 C 364.159 -2.46018 5.67902 0
M  V30 2572 N 363.114 -1.74868 5.24518 0
M  V30 2573 C 362.38 -2.61333 4.54528 0
M  V30 2574 C 361.074 -2.46162 3.95441 0
M  V30 2575 O 360.341 -1.46013 3.94122 0
M  V30 2576 N 360.644 -3.59334 3.34752 0
M  V30 2577 C 361.393 -4.79605 3.3023 0
M  V30 2578 N 360.796 -5.82109 2.6065 0
M  V30 2579 N 362.546 -4.97402 3.8843 0
M  V30 2580 C 363.003 -3.86258 4.50476 0
M  V30 2581 H 365.172 -5.47679 4.85214 0
M  V30 2582 H 366.355 -2.88964 5.86476 0
M  V30 2583 H 367.84 -4.01947 7.36109 0
M  V30 2584 H 366.145 -5.80182 8.37584 0
M  V30 2585 H 365.955 -3.73517 9.52265 0
M  V30 2586 H 364.324 -3.97163 8.80359 0
M  V30 2587 H 359.748 -3.5825 2.90294 0
M  V30 2588 H 364.955 -2.06161 6.30974 0
M  V30 2589 H 359.885 -5.66979 2.15354 0
M  V30 2590 H 361.261 -6.73686 2.54344 0
M  V30 2591 H 366.965 -4.90891 4.01857 0
M  V30 2592 P 368.821 -5.75688 6.64379 0
M  V30 2593 O 370.243 -6.11849 7.01846 0
M  V30 2594 O 368.461 -4.30744 6.56026 0
M  V30 2595 O 368.498 -6.37042 5.19165 0
M  V30 2596 C 368.338 -7.83578 5.16515 0
M  V30 2597 C 368.878 -8.33398 3.83019 0
M  V30 2598 O 367.822 -8.10074 3.01034 0
M  V30 2599 C 370.096 -7.65514 3.2257 0
M  V30 2600 O 370.834 -8.4329 2.32297 0
M  V30 2601 C 369.427 -6.40075 2.62207 0
M  V30 2602 O 370.226 -5.92589 1.53712 0
M  V30 2603 C 368.09 -6.9454 2.18503 0
M  V30 2604 H 368.122 -7.23063 1.12091 0
M  V30 2605 H 369.305 -5.6025 3.37201 0
M  V30 2606 H 370.789 -7.35707 4.02681 0
M  V30 2607 H 369.095 -9.40912 3.9095 0
M  V30 2608 H 368.905 -8.29056 5.99158 0
M  V30 2609 H 367.275 -8.10073 5.25882 0
M  V30 2610 H 369.914 -6.30324 0.726794 0
M  V30 2611 P 371.772 -8.4349 2.47671 0
M  V30 2612 O 373.194 -8.94359 2.59696 0
M  V30 2613 O 371.412 -7.1704 3.19006 0
M  V30 2614 O 371.449 -8.16596 0.923387 0
M  V30 2615 C 371.289 -9.38437 0.108857 0
M  V30 2616 C 371.829 -9.08076 -1.28339 0
M  V30 2617 O 370.774 -8.44229 -1.84713 0
M  V30 2618 C 373.047 -8.18386 -1.42505 0
M  V30 2619 O 373.785 -8.3501 -2.60497 0
M  V30 2620 C 372.379 -6.80225 -1.25468 0
M  V30 2621 O 373.177 -5.81526 -1.91035 0
M  V30 2622 C 371.041 -7.02416 -1.9168 0
M  V30 2623 N 369.998 -6.31033 -1.20314 0
M  V30 2624 C 370.06 -6.18781 0.121293 0
M  V30 2625 N 369.015 -5.49762 0.588272 0
M  V30 2626 C 368.281 -5.22015 -0.488988 0
M  V30 2627 C 366.975 -4.61966 -0.596448 0
M  V30 2628 O 366.242 -4.19162 0.309059 0
M  V30 2629 N 366.545 -4.53773 -1.878 0
M  V30 2630 C 367.294 -4.99623 -2.99082 0
M  V30 2631 N 366.697 -4.78912 -4.21227 0
M  V30 2632 N 368.447 -5.59957 -2.91093 0
M  V30 2633 C 368.904 -5.70225 -1.64218 0
M  V30 2634 H 371.073 -6.6888 -2.96621 0
M  V30 2635 H 372.256 -6.53517 -0.192194 0
M  V30 2636 H 373.741 -8.36563 -0.598329 0
M  V30 2637 H 372.046 -10.0291 -1.79807 0
M  V30 2638 H 371.856 -10.2138 0.558219 0
M  V30 2639 H 370.225 -9.6579 0.0444202 0
M  V30 2640 H 365.649 -4.12883 -2.05283 0
M  V30 2641 H 370.856 -6.59596 0.745856 0
M  V30 2642 H 365.786 -4.31425 -4.2628 0
M  V30 2643 H 367.162 -5.11219 -5.07148 0
M  V30 2644 H 372.866 -5.69466 -2.79593 0
M  V30 2645 P 374.722 -8.4349 -2.47671 0
M  V30 2646 O 376.123 -8.99283 -2.62101 0
M  V30 2647 O 374.344 -7.81195 -1.16947 0
M  V30 2648 O 374.399 -7.36797 -3.63761 0
M  V30 2649 C 374.239 -7.95349 -4.982 0
M  V30 2650 C 374.779 -6.94537 -5.98908 0
M  V30 2651 O 373.723 -6.10277 -6.11744 0
M  V30 2652 C 375.996 -6.11426 -5.62335 0
M  V30 2653 O 376.735 -5.6162 -6.70584 0
M  V30 2654 C 375.329 -5.04409 -4.73308 0
M  V30 2655 O 376.127 -3.85929 -4.75106 0
M  V30 2656 C 373.991 -4.8728 -5.41006 0
M  V30 2657 N 372.948 -4.65812 -4.42377 0
M  V30 2658 C 371.913 -3.81293 -4.74224 0
M  V30 2659 O 371.952 -3.20533 -5.83679 0
M  V30 2660 N 370.901 -3.6442 -3.86349 0
M  V30 2661 C 370.949 -4.2728 -2.6824 0
M  V30 2662 C 372.045 -5.10813 -2.3217 0
M  V30 2663 C 373.011 -5.27909 -3.22647 0
M  V30 2664 H 374.023 -4.02278 -6.11074 0
M  V30 2665 H 375.206 -5.39013 -3.70026 0
M  V30 2666 H 376.69 -6.71494 -5.02675 0
M  V30 2667 H 374.996 -7.45796 -6.94223 0
M  V30 2668 H 374.805 -8.89416 -5.05237 0
M  V30 2669 H 373.175 -8.14791 -5.18355 0
M  V30 2670 H 372.093 -5.58884 -1.34755 0
M  V30 2671 H 373.857 -5.92811 -2.9934 0
M  V30 2672 H 375.911 -3.3454 -5.51577 0
M  V30 2673 P 377.673 -5.75688 -6.64379 0
M  V30 2674 O 379.095 -6.07627 -7.05504 0
M  V30 2675 O 377.313 -5.88047 -5.19722 0
M  V30 2676 O 377.35 -4.2322 -7.04443 0
M  V30 2677 C 377.19 -3.99743 -8.4911 0
M  V30 2678 C 377.73 -2.60516 -8.79425 0
M  V30 2679 O 376.674 -1.82684 -8.4467 0
M  V30 2680 C 378.948 -2.10343 -8.03628 0
M  V30 2681 O 379.686 -1.09919 -8.67766 0
M  V30 2682 C 378.279 -1.68446 -6.70876 0
M  V30 2683 O 379.078 -0.678137 -6.08433 0
M  V30 2684 C 376.942 -1.17436 -7.18567 0
M  V30 2685 H 376.974 -0.0804732 -7.31656 0
M  V30 2686 H 378.157 -2.54037 -6.02537 0
M  V30 2687 H 379.641 -2.93881 -7.85526 0
M  V30 2688 H 377.947 -2.53065 -9.86973 0
M  V30 2689 H 377.757 -4.75072 -9.05887 0
M  V30 2690 H 376.127 -4.05244 -8.76668 0
M  V30 2691 H 378.766 0.177647 -6.34251 0
M  V30 2692 P 380.624 -1.25109 -8.70152 0
M  V30 2693 O 382.046 -1.29744 -9.22016 0
M  V30 2694 O 380.264 -2.13714 -7.55141 0
M  V30 2695 O 380.301 0.248149 -8.21425 0
M  V30 2696 C 380.141 1.22779 -9.30434 0
M  V30 2697 C 380.681 2.56293 -8.80664 0
M  V30 2698 O 379.625 3.02979 -8.09349 0
M  V30 2699 C 381.899 2.57523 -7.89775 0
M  V30 2700 O 382.637 3.7668 -7.89438 0
M  V30 2701 C 381.23 2.20997 -6.55446 0
M  V30 2702 O 382.029 2.71895 -5.48509 0
M  V30 2703 C 379.893 2.89693 -6.67988 0
M  V30 2704 H 379.925 3.88793 -6.19859 0
M  V30 2705 H 381.108 1.12046 -6.44229 0
M  V30 2706 H 382.592 1.7746 -8.19711 0
M  V30 2707 H 380.898 3.20706 -9.67112 0
M  V30 2708 H 380.708 0.901032 -10.1892 0
M  V30 2709 H 379.078 1.33049 -9.56592 0
M  V30 2710 H 381.717 3.57847 -5.23962 0
M  V30 2711 P 383.574 3.65191 -7.99657 0
M  V30 2712 O 384.996 3.89332 -8.45794 0
M  V30 2713 O 383.214 2.28472 -7.50807 0
M  V30 2714 O 383.251 4.64972 -6.77611 0
M  V30 2715 C 383.091 6.06319 -7.16352 0
M  V30 2716 C 383.631 6.91731 -6.02299 0
M  V30 2717 O 382.575 6.92449 -5.17064 0
M  V30 2718 C 384.849 6.43627 -5.25174 0
M  V30 2719 O 385.587 7.43686 -4.60469 0
M  V30 2720 C 384.18 5.40275 -4.31916 0
M  V30 2721 O 384.979 5.25279 -3.14438 0
M  V30 2722 C 382.843 6.04847 -4.05327 0
M  V30 2723 H 382.875 6.62195 -3.11261 0
M  V30 2724 H 384.058 4.42556 -4.81383 0
M  V30 2725 H 385.542 5.92458 -5.93643 0
M  V30 2726 H 383.848 7.92655 -6.402 0
M  V30 2727 H 383.658 6.26671 -8.0846 0
M  V30 2728 H 382.028 6.29101 -7.32804 0
M  V30 2729 H 384.667 5.84315 -2.47318 0
M  V30 2730 P 386.525 7.39546 -4.75277 0
M  V30 2731 O 387.947 7.84798 -5.01039 0
M  V30 2732 O 386.165 5.9812 -5.08098 0
M  V30 2733 O 386.202 7.57503 -3.1866 0
M  V30 2734 C 386.042 8.97357 -2.74833 0
M  V30 2735 C 386.582 9.07548 -1.32709 0
M  V30 2736 O 385.526 8.62072 -0.606159 0
M  V30 2737 C 387.8 8.25383 -0.938334 0
M  V30 2738 O 388.538 8.74577 0.146954 0
M  V30 2739 C 387.131 6.8802 -0.712559 0
M  V30 2740 O 387.93 6.1189 0.194655 0
M  V30 2741 C 385.794 7.27966 -0.139777 0
M  V30 2742 H 385.826 7.25354 0.961601 0
M  V30 2743 H 387.009 6.32557 -1.65702 0
M  V30 2744 H 388.493 8.19355 -1.79097 0
M  V30 2745 H 386.799 10.1294 -1.10029 0
M  V30 2746 H 386.609 9.64276 -3.41316 0
M  V30 2747 H 384.979 9.25417 -2.76357 0
M  V30 2748 H 387.618 6.25267 1.07847 0
M  V30 2749 P 389.475 8.791 1.973e-12 0
M  V30 2750 O 390.897 9.31296 0.027939 0
M  V30 2751 O 389.115 7.77869 -1.04071 0
M  V30 2752 O 389.152 8.09533 1.41463 0
M  V30 2753 C 388.992 9.0349 2.53943 0
M  V30 2754 C 389.532 8.35135 3.78975 0
M  V30 2755 O 388.477 7.57992 4.15078 0
M  V30 2756 C 390.75 7.45087 3.67298 0
M  V30 2757 O 391.488 7.27796 4.85194 0
M  V30 2758 C 390.082 6.17323 3.12027 0
M  V30 2759 O 390.88 5.04149 3.47132 0
M  V30 2760 C 388.744 6.19961 3.81809 0
M  V30 2761 N 387.701 5.71575 2.93223 0
M  V30 2762 C 387.763 5.97133 1.62693 0
M  V30 2763 N 386.718 5.44066 0.984414 0
M  V30 2764 C 385.984 4.87093 1.93987 0
M  V30 2765 C 384.678 4.26449 1.8738 0
M  V30 2766 O 383.945 4.1089 0.884377 0
M  V30 2767 N 384.248 3.82483 3.08036 0
M  V30 2768 C 384.997 3.95124 4.27727 0
M  V30 2769 N 384.4 3.4084 5.39089 0
M  V30 2770 N 386.15 4.55264 4.3706 0
M  V30 2771 C 386.607 5.00861 3.18217 0
M  V30 2772 H 388.776 5.58218 4.73051 0
M  V30 2773 H 389.959 6.21631 2.02558 0
M  V30 2774 H 391.444 7.85819 2.93096 0
M  V30 2775 H 389.749 9.11627 4.55076 0
M  V30 2776 H 389.559 9.9573 2.34194 0
M  V30 2777 H 387.928 9.2792 2.67832 0
M  V30 2778 H 383.352 3.38323 3.1329 0
M  V30 2779 H 388.559 6.53891 1.14265 0
M  V30 2780 H 383.489 2.93852 5.30559 0
M  V30 2781 H 384.865 3.47631 6.30632 0
M  V30 2782 H 390.569 4.67628 4.28704 0
M  V30 2783 P 392.426 7.39546 4.75277 0
M  V30 2784 O 393.827 7.89013 5.04841 0
M  V30 2785 O 392.048 7.16603 3.32298 0
M  V30 2786 O 392.103 6.04468 5.56605 0
M  V30 2787 C 391.943 6.22772 7.02095 0
M  V30 2788 C 392.483 4.97671 7.70322 0
M  V30 2789 O 391.427 4.13208 7.58899 0
M  V30 2790 C 393.7 4.28231 7.11815 0
M  V30 2791 O 394.439 3.49945 8.01648 0
M  V30 2792 C 393.033 3.5063 5.96244 0
M  V30 2793 O 393.831 2.36443 5.64589 0
M  V30 2794 C 391.695 3.15122 6.56374 0
M  V30 2795 N 390.652 3.22311 5.55692 0
M  V30 2796 C 389.617 2.32244 5.62437 0
M  V30 2797 O 389.656 1.43107 6.50341 0
M  V30 2798 N 388.605 2.40811 4.73368 0
M  V30 2799 C 388.653 3.344 3.77753 0
M  V30 2800 C 389.749 4.24712 3.66679 0
M  V30 2801 C 390.715 4.15625 4.58307 0
M  V30 2802 H 391.727 2.13823 6.99656 0
M  V30 2803 H 392.91 4.12931 5.06895 0
M  V30 2804 H 394.394 5.02674 6.71494 0
M  V30 2805 H 392.7 5.20001 8.76217 0
M  V30 2806 H 392.509 7.11046 7.35349 0
M  V30 2807 H 390.879 6.35749 7.26911 0
M  V30 2808 H 389.797 4.9828 2.86753 0
M  V30 2809 H 391.561 4.84464 4.54228 0
M  V30 2810 H 393.615 1.65592 6.23485 0
M  V30 2811 P 395.376 3.65191 7.99657 0
M  V30 2812 O 396.798 3.8425 8.48115 0
M  V30 2813 O 395.016 4.17805 6.64342 0
M  V30 2814 O 395.053 2.07613 7.95143 0
M  V30 2815 C 394.893 1.44328 9.27336 0
M  V30 2816 C 395.433 0.0220036 9.17197 0
M  V30 2817 O 394.377 -0.626867 8.61923 0
M  V30 2818 C 396.651 -0.24586 8.30336 0
M  V30 2819 O 397.389 -1.39011 8.63583 0
M  V30 2820 C 395.982 -0.273849 6.91158 0
M  V30 2821 O 396.781 -1.06348 6.02892 0
M  V30 2822 C 394.645 -0.897649 7.22545 0
M  V30 2823 H 394.677 -1.9841 7.04286 0
M  V30 2824 H 395.86 0.739928 6.497 0
M  V30 2825 H 397.344 0.60668 8.36503 0
M  V30 2826 H 395.65 -0.352479 10.1829 0
M  V30 2827 H 395.46 2.00611 10.0304 0
M  V30 2828 H 393.83 1.41843 9.55327 0
M  V30 2829 H 396.469 -1.95734 6.03555 0
M  V30 2830 P 398.327 -1.25109 8.70152 0
M  V30 2831 O 399.749 -1.35274 9.21221 0
M  V30 2832 O 397.967 -0.0769065 7.84762 0
M  V30 2833 O 398.004 -2.55232 7.81161 0
M  V30 2834 C 397.844 -3.79939 8.58154 0
M  V30 2835 C 398.384 -4.94023 7.72785 0
M  V30 2836 O 397.328 -5.18726 6.91205 0
M  V30 2837 C 399.602 -4.69597 6.85231 0
M  V30 2838 O 400.34 -5.83832 6.51337 0
M  V30 2839 C 398.933 -3.96706 5.66633 0
M  V30 2840 O 399.732 -4.15414 4.49689 0
M  V30 2841 C 397.596 -4.66153 5.59313 0
M  V30 2842 H 397.628 -5.47679 4.85214 0
M  V30 2843 H 398.811 -2.89008 5.86566 0
M  V30 2844 H 400.295 -4.0121 7.36511 0
M  V30 2845 H 398.601 -5.80182 8.37584 0
M  V30 2846 H 398.411 -3.73517 9.52265 0
M  V30 2847 H 396.781 -3.97163 8.80359 0
M  V30 2848 H 399.42 -4.90969 4.01921 0
M  V30 2849 P 401.278 -5.75688 6.64379 0
M  V30 2850 O 402.7 -6.11849 7.01846 0
M  V30 2851 O 400.918 -4.30744 6.56026 0
M  V30 2852 O 400.955 -6.37042 5.19165 0
M  V30 2853 C 400.795 -7.83578 5.16515 0
M  V30 2854 C 401.335 -8.33398 3.83019 0
M  V30 2855 O 400.279 -8.10074 3.01034 0
M  V30 2856 C 402.553 -7.65514 3.2257 0
M  V30 2857 O 403.291 -8.4329 2.32297 0
M  V30 2858 C 401.884 -6.40075 2.62207 0
M  V30 2859 O 402.683 -5.92589 1.53712 0
M  V30 2860 C 400.547 -6.9454 2.18503 0
M  V30 2861 H 400.579 -7.23063 1.12091 0
M  V30 2862 H 401.762 -5.6025 3.37201 0
M  V30 2863 H 403.246 -7.35707 4.02681 0
M  V30 2864 H 401.552 -9.40912 3.9095 0
M  V30 2865 H 401.362 -8.29056 5.99158 0
M  V30 2866 H 399.732 -8.10073 5.25882 0
M  V30 2867 H 402.371 -6.30324 0.726794 0
M  V30 2868 P 404.228 -8.4349 2.47671 0
M  V30 2869 O 405.65 -8.94167 2.5964 0
M  V30 2870 O 403.868 -7.1704 3.19006 0
M  V30 2871 O 403.905 -8.16596 0.923387 0
M  V30 2872 C 403.745 -9.38437 0.108857 0
M  V30 2873 C 404.285 -9.08175 -1.28353 0
M  V30 2874 O 403.229 -8.44229 -1.84713 0
M  V30 2875 C 405.503 -8.18386 -1.42505 0
M  V30 2876 O 406.241 -8.3501 -2.60497 0
M  V30 2877 C 404.834 -6.80225 -1.25468 0
M  V30 2878 O 405.633 -5.81621 -1.91066 0
M  V30 2879 C 403.497 -7.02416 -1.9168 0
M  V30 2880 H 403.529 -6.6888 -2.96621 0
M  V30 2881 H 404.712 -6.53617 -0.192223 0
M  V30 2882 H 406.196 -8.36622 -0.589963 0
M  V30 2883 H 404.502 -10.0291 -1.79807 0
M  V30 2884 H 404.312 -10.2138 0.558219 0
M  V30 2885 H 402.682 -9.6579 0.0444202 0
M  V30 2886 H 405.321 -5.69556 -2.79637 0
M  V30 2887 P 407.179 -8.4349 -2.47671 0
M  V30 2888 O 408.601 -8.92593 -2.65 0
M  V30 2889 O 406.819 -7.7568 -1.19296 0
M  V30 2890 O 406.856 -7.36886 -3.63805 0
M  V30 2891 C 406.696 -7.95349 -4.982 0
M  V30 2892 C 407.236 -6.94612 -5.98974 0
M  V30 2893 O 406.18 -6.10347 -6.11815 0
M  V30 2894 C 408.454 -6.11426 -5.62335 0
M  V30 2895 O 409.192 -5.6162 -6.70584 0
M  V30 2896 C 407.785 -5.04409 -4.73308 0
M  V30 2897 O 408.584 -3.85992 -4.75183 0
M  V30 2898 C 406.448 -4.8728 -5.41006 0
M  V30 2899 H 406.48 -4.02333 -6.11157 0
M  V30 2900 H 407.663 -5.39466 -3.69543 0
M  V30 2901 H 409.147 -6.71916 -5.01943 0
M  V30 2902 H 407.453 -7.4649 -6.93477 0
M  V30 2903 H 407.263 -8.89416 -5.05237 0
M  V30 2904 H 405.633 -8.14876 -5.18409 0
M  V30 2905 H 408.272 -3.27957 -5.4317 0
M  V30 2906 P 410.129 -5.75688 -6.64379 0
M  V30 2907 O 411.53 -6.14823 -7.06682 0
M  V30 2908 O 409.751 -5.93957 -5.20728 0
M  V30 2909 O 409.806 -4.23169 -7.04357 0
M  V30 2910 C 409.646 -3.99743 -8.4911 0
M  V30 2911 C 410.186 -2.60487 -8.79329 0
M  V30 2912 O 409.13 -1.82663 -8.44573 0
M  V30 2913 C 411.403 -2.10343 -8.03628 0
M  V30 2914 O 412.142 -1.09919 -8.67766 0
M  V30 2915 C 410.736 -1.68446 -6.70876 0
M  V30 2916 O 411.534 -0.678026 -6.08333 0
M  V30 2917 C 409.398 -1.17436 -7.18567 0
M  V30 2918 N 408.355 -1.52699 -6.23988 0
M  V30 2919 C 407.32 -0.643793 -6.05085 0
M  V30 2920 O 407.359 0.459118 -6.64315 0
M  V30 2921 N 406.308 -0.976931 -5.22038 0
M  V30 2922 C 406.356 -2.14429 -4.56662 0
M  V30 2923 C 407.452 -3.04203 -4.71481 0
M  V30 2924 C 408.418 -2.69669 -5.56838 0
M  V30 2925 H 409.43 -0.0804622 -7.31556 0
M  V30 2926 H 410.613 -2.53396 -6.02698 0
M  V30 2927 H 412.097 -2.9313 -7.85914 0
M  V30 2928 H 410.403 -2.52078 -9.87225 0
M  V30 2929 H 410.212 -4.75072 -9.05887 0
M  V30 2930 H 408.582 -4.05202 -8.76577 0
M  V30 2931 H 407.5 -3.97309 -4.15519 0
M  V30 2932 H 409.264 -3.36869 -5.72318 0
M  V30 2933 H 411.318 0.167718 -6.44882 0
M  V30 2934 P 413.08 -1.25109 -8.70152 0
M  V30 2935 O 414.481 -1.3516 -9.26897 0
M  V30 2936 O 412.702 -2.18141 -7.59181 0
M  V30 2937 O 412.757 0.248118 -8.21325 0
M  V30 2938 C 412.597 1.22779 -9.30434 0
M  V30 2939 C 413.137 2.56265 -8.80568 0
M  V30 2940 O 412.081 3.02944 -8.09255 0
M  V30 2941 C 414.354 2.57523 -7.89775 0
M  V30 2942 O 415.093 3.7668 -7.89438 0
M  V30 2943 C 413.687 2.20997 -6.55446 0
M  V30 2944 O 414.485 2.71851 -5.48419 0
M  V30 2945 C 412.349 2.89693 -6.67988 0
M  V30 2946 N 411.306 2.08895 -6.07487 0
M  V30 2947 C 410.271 2.72974 -5.43836 0
M  V30 2948 O 410.31 3.97779 -5.34036 0
M  V30 2949 N 409.259 2.0005 -4.91983 0
M  V30 2950 C 409.307 0.66501 -5.00098 0
M  V30 2951 C 410.403 -0.0100979 -5.61099 0
M  V30 2952 C 411.369 0.74189 -6.14236 0
M  V30 2953 H 412.381 3.8874 -6.19774 0
M  V30 2954 H 413.564 1.12673 -6.44018 0
M  V30 2955 H 415.048 1.783 -8.19631 0
M  V30 2956 H 413.354 3.21673 -9.66791 0
M  V30 2957 H 413.163 0.901032 -10.1892 0
M  V30 2958 H 411.533 1.33036 -9.56493 0
M  V30 2959 H 410.451 -1.09591 -5.64358 0
M  V30 2960 H 412.215 0.260263 -6.6359 0
M  V30 2961 H 414.269 3.62759 -5.33442 0
M  V30 2962 P 416.03 3.65191 -7.99657 0
M  V30 2963 O 417.452 3.89332 -8.45794 0
M  V30 2964 O 415.67 2.28472 -7.50807 0
M  V30 2965 O 415.707 4.64972 -6.77611 0
M  V30 2966 C 415.547 6.06319 -7.16352 0
M  V30 2967 C 416.087 6.91731 -6.02299 0
M  V30 2968 O 415.031 6.92449 -5.17064 0
M  V30 2969 C 417.305 6.43627 -5.25174 0
M  V30 2970 O 418.043 7.43686 -4.60469 0
M  V30 2971 C 416.636 5.40275 -4.31916 0
M  V30 2972 O 417.435 5.25279 -3.14438 0
M  V30 2973 C 415.299 6.04847 -4.05327 0
M  V30 2974 H 415.331 6.62195 -3.11261 0
M  V30 2975 H 416.514 4.42556 -4.81383 0
M  V30 2976 H 417.998 5.92458 -5.93643 0
M  V30 2977 H 416.304 7.92655 -6.402 0
M  V30 2978 H 416.114 6.26671 -8.0846 0
M  V30 2979 H 414.484 6.29101 -7.32804 0
M  V30 2980 H 417.123 5.84315 -2.47318 0
M  V30 2981 P 418.981 7.39546 -4.75277 0
M  V30 2982 O 420.403 7.84798 -5.01039 0
M  V30 2983 O 418.621 5.9812 -5.08098 0
M  V30 2984 O 418.658 7.57503 -3.1866 0
M  V30 2985 C 418.498 8.97357 -2.74833 0
M  V30 2986 C 419.038 9.07548 -1.32709 0
M  V30 2987 O 417.982 8.62072 -0.606159 0
M  V30 2988 C 420.256 8.25383 -0.938334 0
M  V30 2989 O 420.994 8.74577 0.146954 0
M  V30 2990 C 419.587 6.8802 -0.712559 0
M  V30 2991 O 420.386 6.1189 0.194655 0
M  V30 2992 C 418.25 7.27966 -0.139777 0
M  V30 2993 H 418.282 7.25354 0.961601 0
M  V30 2994 H 419.465 6.32557 -1.65702 0
M  V30 2995 H 420.949 8.19355 -1.79097 0
M  V30 2996 H 419.255 10.1294 -1.10029 0
M  V30 2997 H 419.065 9.64276 -3.41316 0
M  V30 2998 H 417.435 9.25417 -2.76357 0
M  V30 2999 H 420.074 6.25267 1.07847 0
M  V30 3000 P 421.932 8.791 2.28317e-12 0
M  V30 3001 O 423.354 9.31096 0.027933 0
M  V30 3002 O 421.572 7.77869 -1.04071 0
M  V30 3003 O 421.609 8.09533 1.41463 0
M  V30 3004 C 421.449 9.0349 2.53943 0
M  V30 3005 C 421.989 8.35226 3.79016 0
M  V30 3006 O 420.933 7.57992 4.15078 0
M  V30 3007 C 423.207 7.45087 3.67298 0
M  V30 3008 O 423.945 7.27796 4.85194 0
M  V30 3009 C 422.538 6.17323 3.12027 0
M  V30 3010 O 423.337 5.04231 3.47188 0
M  V30 3011 C 421.201 6.19961 3.81809 0
M  V30 3012 H 421.233 5.58218 4.73051 0
M  V30 3013 H 422.416 6.21726 2.02589 0
M  V30 3014 H 423.9 7.86112 2.9231 0
M  V30 3015 H 422.206 9.11627 4.55076 0
M  V30 3016 H 422.016 9.9573 2.34194 0
M  V30 3017 H 420.386 9.2792 2.67832 0
M  V30 3018 H 423.025 4.67702 4.28772 0
M  V30 3019 P 424.882 7.39546 4.75277 0
M  V30 3020 O 426.303 7.81861 5.05793 0
M  V30 3021 O 424.522 7.1065 3.32998 0
M  V30 3022 O 424.559 6.04542 5.56673 0
M  V30 3023 C 424.398 6.22839 7.02169 0
M  V30 3024 C 424.939 4.97725 7.70406 0
M  V30 3025 O 423.884 4.13208 7.58899 0
M  V30 3026 C 426.157 4.28231 7.11815 0
M  V30 3027 O 426.895 3.49945 8.01648 0
M  V30 3028 C 425.489 3.5063 5.96244 0
M  V30 3029 O 426.287 2.37008 5.64352 0
M  V30 3030 C 424.151 3.15122 6.56374 0
M  V30 3031 N 423.108 3.22311 5.55692 0
M  V30 3032 C 423.277 3.99655 4.46046 0
M  V30 3033 N 422.25 3.97599 3.63918 0
M  V30 3034 C 421.365 3.11159 4.25334 0
M  V30 3035 C 420.098 2.64972 3.85157 0
M  V30 3036 N 419.499 3.02132 2.69405 0
M  V30 3037 N 419.533 1.78482 4.74759 0
M  V30 3038 C 420.135 1.37463 5.90819 0
M  V30 3039 N 421.312 1.7733 6.31889 0
M  V30 3040 C 421.887 2.64393 5.43725 0
M  V30 3041 H 424.183 2.13823 6.99656 0
M  V30 3042 H 425.366 4.12931 5.06895 0
M  V30 3043 H 426.849 5.03285 6.70911 0
M  V30 3044 H 425.155 5.20001 8.76217 0
M  V30 3045 H 424.965 7.11046 7.35349 0
M  V30 3046 H 423.335 6.35815 7.26986 0
M  V30 3047 H 419.599 0.66574 6.53015 0
M  V30 3048 H 424.177 4.58037 4.27732 0
M  V30 3049 H 418.569 2.64828 2.45331 0
M  V30 3050 H 419.973 3.67472 2.05644 0
M  V30 3051 H 425.975 1.61619 6.13468 0
M  V30 3052 P 427.833 3.65191 7.99657 0
M  V30 3053 O 429.255 3.8425 8.48115 0
M  V30 3054 O 427.473 4.17805 6.64342 0
M  V30 3055 O 427.51 2.07613 7.95143 0
M  V30 3056 C 427.35 1.44328 9.27336 0
M  V30 3057 C 427.89 0.0220036 9.17197 0
M  V30 3058 O 426.834 -0.626867 8.61923 0
M  V30 3059 C 429.108 -0.24586 8.30336 0
M  V30 3060 O 429.846 -1.39011 8.63583 0
M  V30 3061 C 428.439 -0.273849 6.91158 0
M  V30 3062 O 429.238 -1.06348 6.02892 0
M  V30 3063 C 427.102 -0.897649 7.22545 0
M  V30 3064 H 427.134 -1.9841 7.04286 0
M  V30 3065 H 428.317 0.739928 6.497 0
M  V30 3066 H 429.801 0.60668 8.36503 0
M  V30 3067 H 428.107 -0.352479 10.1829 0
M  V30 3068 H 427.917 2.00611 10.0304 0
M  V30 3069 H 426.287 1.41843 9.55327 0
M  V30 3070 H 428.926 -1.95734 6.03555 0
M  V30 3071 P 430.783 -1.25109 8.70152 0
M  V30 3072 O 432.205 -1.35274 9.21221 0
M  V30 3073 O 430.423 -0.0769065 7.84762 0
M  V30 3074 O 430.46 -2.55232 7.81161 0
M  V30 3075 C 430.3 -3.79939 8.58154 0
M  V30 3076 C 430.84 -4.94023 7.72785 0
M  V30 3077 O 429.784 -5.18726 6.91205 0
M  V30 3078 C 432.058 -4.69597 6.85231 0
M  V30 3079 O 432.796 -5.83832 6.51337 0
M  V30 3080 C 431.389 -3.96706 5.66633 0
M  V30 3081 O 432.188 -4.15414 4.49689 0
M  V30 3082 C 430.052 -4.66153 5.59313 0
M  V30 3083 H 430.084 -5.47679 4.85214 0
M  V30 3084 H 431.267 -2.89008 5.86566 0
M  V30 3085 H 432.751 -4.0121 7.36511 0
M  V30 3086 H 431.057 -5.80182 8.37584 0
M  V30 3087 H 430.867 -3.73517 9.52265 0
M  V30 3088 H 429.237 -3.97163 8.80359 0
M  V30 3089 H 431.876 -4.90969 4.01921 0
M  V30 3090 P 433.734 -5.75688 6.64379 0
M  V30 3091 O 435.156 -6.11849 7.01846 0
M  V30 3092 O 433.374 -4.30744 6.56026 0
M  V30 3093 O 433.411 -6.37042 5.19165 0
M  V30 3094 C 433.251 -7.83578 5.16515 0
M  V30 3095 C 433.791 -8.33398 3.83019 0
M  V30 3096 O 432.735 -8.10074 3.01034 0
M  V30 3097 C 435.009 -7.65514 3.2257 0
M  V30 3098 O 435.747 -8.4329 2.32297 0
M  V30 3099 C 434.34 -6.40075 2.62207 0
M  V30 3100 O 435.139 -5.92589 1.53712 0
M  V30 3101 C 433.003 -6.9454 2.18503 0
M  V30 3102 H 433.035 -7.23063 1.12091 0
M  V30 3103 H 434.218 -5.6025 3.37201 0
M  V30 3104 H 435.702 -7.35707 4.02681 0
M  V30 3105 H 434.008 -9.40912 3.9095 0
M  V30 3106 H 433.818 -8.29056 5.99158 0
M  V30 3107 H 432.188 -8.10073 5.25882 0
M  V30 3108 H 434.827 -6.30324 0.726794 0
M  V30 3109 P 436.684 -8.4349 2.47671 0
M  V30 3110 O 438.106 -8.94167 2.5964 0
M  V30 3111 O 436.324 -7.1704 3.19006 0
M  V30 3112 O 436.361 -8.16596 0.923387 0
M  V30 3113 C 436.201 -9.38437 0.108857 0
M  V30 3114 C 436.741 -9.08175 -1.28353 0
M  V30 3115 O 435.685 -8.44229 -1.84713 0
M  V30 3116 C 437.959 -8.18386 -1.42505 0
M  V30 3117 O 438.697 -8.3501 -2.60497 0
M  V30 3118 C 437.29 -6.80225 -1.25468 0
M  V30 3119 O 438.089 -5.81621 -1.91066 0
M  V30 3120 C 435.953 -7.02416 -1.9168 0
M  V30 3121 H 435.985 -6.6888 -2.96621 0
M  V30 3122 H 437.168 -6.53617 -0.192223 0
M  V30 3123 H 438.652 -8.36622 -0.589963 0
M  V30 3124 H 436.958 -10.0291 -1.79807 0
M  V30 3125 H 436.768 -10.2138 0.558219 0
M  V30 3126 H 435.138 -9.6579 0.0444202 0
M  V30 3127 H 437.777 -5.69556 -2.79637 0
M  V30 3128 P 439.635 -8.4349 -2.47671 0
M  V30 3129 O 441.057 -8.92593 -2.65 0
M  V30 3130 O 439.275 -7.7568 -1.19296 0
M  V30 3131 O 439.312 -7.36886 -3.63805 0
M  V30 3132 C 439.152 -7.95349 -4.982 0
M  V30 3133 C 439.692 -6.94612 -5.98974 0
M  V30 3134 O 438.636 -6.10347 -6.11815 0
M  V30 3135 C 440.91 -6.11426 -5.62335 0
M  V30 3136 O 441.648 -5.6162 -6.70584 0
M  V30 3137 C 440.241 -5.04409 -4.73308 0
M  V30 3138 O 441.04 -3.85992 -4.75183 0
M  V30 3139 C 438.904 -4.8728 -5.41006 0
M  V30 3140 H 438.936 -4.02333 -6.11157 0
M  V30 3141 H 440.119 -5.39466 -3.69543 0
M  V30 3142 H 441.603 -6.71916 -5.01943 0
M  V30 3143 H 439.909 -7.4649 -6.93477 0
M  V30 3144 H 439.719 -8.89416 -5.05237 0
M  V30 3145 H 438.089 -8.14876 -5.18409 0
M  V30 3146 H 440.728 -3.27957 -5.4317 0
M  V30 3147 P 442.586 -5.75688 -6.64379 0
M  V30 3148 O 444.008 -6.07627 -7.05504 0
M  V30 3149 O 442.226 -5.88047 -5.19722 0
M  V30 3150 O 442.263 -4.2322 -7.04443 0
M  V30 3151 C 442.103 -3.99743 -8.4911 0
M  V30 3152 C 442.643 -2.60516 -8.79425 0
M  V30 3153 O 441.587 -1.82684 -8.4467 0
M  V30 3154 C 443.861 -2.10343 -8.03628 0
M  V30 3155 O 444.599 -1.09919 -8.67766 0
M  V30 3156 C 443.192 -1.68446 -6.70876 0
M  V30 3157 O 443.991 -0.678137 -6.08433 0
M  V30 3158 C 441.855 -1.17436 -7.18567 0
M  V30 3159 H 441.887 -0.0804732 -7.31656 0
M  V30 3160 H 443.07 -2.54037 -6.02537 0
M  V30 3161 H 444.554 -2.93881 -7.85526 0
M  V30 3162 H 442.86 -2.53065 -9.86973 0
M  V30 3163 H 442.67 -4.75072 -9.05887 0
M  V30 3164 H 441.04 -4.05244 -8.76668 0
M  V30 3165 H 443.679 0.177647 -6.34251 0
M  V30 3166 P 445.536 -1.25109 -8.70152 0
M  V30 3167 O 446.958 -1.29744 -9.22016 0
M  V30 3168 O 445.176 -2.13714 -7.55141 0
M  V30 3169 O 445.213 0.248149 -8.21425 0
M  V30 3170 C 445.053 1.22779 -9.30434 0
M  V30 3171 C 445.593 2.56293 -8.80664 0
M  V30 3172 O 444.537 3.02979 -8.09349 0
M  V30 3173 C 446.811 2.57523 -7.89775 0
M  V30 3174 O 447.549 3.7668 -7.89438 0
M  V30 3175 C 446.142 2.20997 -6.55446 0
M  V30 3176 O 446.941 2.71895 -5.48509 0
M  V30 3177 C 444.805 2.89693 -6.67988 0
M  V30 3178 H 444.837 3.88793 -6.19859 0
M  V30 3179 H 446.02 1.12046 -6.44229 0
M  V30 3180 H 447.504 1.7746 -8.19711 0
M  V30 3181 H 445.81 3.20706 -9.67112 0
M  V30 3182 H 445.62 0.901032 -10.1892 0
M  V30 3183 H 443.99 1.33049 -9.56592 0
M  V30 3184 H 446.629 3.57847 -5.23962 0
M  V30 3185 P 448.487 3.65191 -7.99657 0
M  V30 3186 O 449.909 3.89332 -8.45794 0
M  V30 3187 O 448.127 2.28472 -7.50807 0
M  V30 3188 O 448.164 4.64972 -6.77611 0
M  V30 3189 C 448.004 6.06319 -7.16352 0
M  V30 3190 C 448.544 6.91731 -6.02299 0
M  V30 3191 O 447.488 6.92449 -5.17064 0
M  V30 3192 C 449.762 6.43627 -5.25174 0
M  V30 3193 O 450.5 7.43686 -4.60469 0
M  V30 3194 C 449.093 5.40275 -4.31916 0
M  V30 3195 O 449.892 5.25279 -3.14438 0
M  V30 3196 C 447.756 6.04847 -4.05327 0
M  V30 3197 H 447.788 6.62195 -3.11261 0
M  V30 3198 H 448.971 4.42556 -4.81383 0
M  V30 3199 H 450.455 5.92458 -5.93643 0
M  V30 3200 H 448.761 7.92655 -6.402 0
M  V30 3201 H 448.571 6.26671 -8.0846 0
M  V30 3202 H 446.941 6.29101 -7.32804 0
M  V30 3203 H 449.58 5.84315 -2.47318 0
M  V30 3204 P 451.437 7.39546 -4.75277 0
M  V30 3205 O 452.858 7.84882 -5.01092 0
M  V30 3206 O 451.077 5.9812 -5.08098 0
M  V30 3207 O 451.114 7.57503 -3.1866 0
M  V30 3208 C 450.953 8.97452 -2.74862 0
M  V30 3209 C 451.494 9.07548 -1.32709 0
M  V30 3210 O 450.439 8.61972 -0.606089 0
M  V30 3211 C 452.712 8.25383 -0.938334 0
M  V30 3212 O 453.45 8.74577 0.146954 0
M  V30 3213 C 452.044 6.8802 -0.712559 0
M  V30 3214 O 452.842 6.1181 0.188505 0
M  V30 3215 C 450.706 7.27966 -0.139777 0
M  V30 3216 N 449.663 6.39368 -0.623421 0
M  V30 3217 C 449.832 5.71761 -1.78245 0
M  V30 3218 N 448.805 4.962 -2.10491 0
M  V30 3219 C 447.92 5.16158 -1.0635 0
M  V30 3220 C 446.653 4.60425 -0.810266 0
M  V30 3221 N 446.054 3.7057 -1.62914 0
M  V30 3222 N 446.088 5.06 0.348685 0
M  V30 3223 C 446.69 5.94532 1.20395 0
M  V30 3224 N 447.867 6.48452 1.01191 0
M  V30 3225 C 448.442 6.04423 -0.146291 0
M  V30 3226 H 450.738 7.25255 0.961469 0
M  V30 3227 H 451.921 6.32625 -1.65044 0
M  V30 3228 H 453.404 8.19355 -1.79097 0
M  V30 3229 H 451.71 10.1305 -1.09016 0
M  V30 3230 H 451.52 9.64276 -3.41316 0
M  V30 3231 H 449.89 9.25417 -2.76357 0
M  V30 3232 H 446.154 6.21659 2.10714 0
M  V30 3233 H 450.732 5.79354 -2.38959 0
M  V30 3234 H 445.124 3.33174 -1.38982 0
M  V30 3235 H 446.528 3.39714 -2.48836 0
M  V30 3236 H 452.53 6.25169 1.0783 0
M  V30 3237 P 454.388 8.791 2.59334e-12 0
M  V30 3238 O 455.809 9.31196 0.027936 0
M  V30 3239 O 454.028 7.77869 -1.04071 0
M  V30 3240 O 454.065 8.09533 1.41463 0
M  V30 3241 C 453.904 9.03587 2.5397 0
M  V30 3242 C 454.445 8.35226 3.79016 0
M  V30 3243 O 453.39 7.57904 4.1503 0
M  V30 3244 C 455.663 7.45087 3.67298 0
M  V30 3245 O 456.401 7.27796 4.85194 0
M  V30 3246 C 454.995 6.17323 3.12027 0
M  V30 3247 O 455.793 5.04496 3.46627 0
M  V30 3248 C 453.657 6.19961 3.81809 0
M  V30 3249 N 452.614 5.71575 2.93223 0
M  V30 3250 C 452.783 5.77362 1.59168 0
M  V30 3251 N 451.756 5.3123 0.911893 0
M  V30 3252 C 450.871 4.91717 1.89588 0
M  V30 3253 C 449.604 4.3114 1.8076 0
M  V30 3254 N 449.039 4.06823 3.02898 0
M  V30 3255 C 449.641 4.35062 4.22711 0
M  V30 3256 N 450.818 4.90805 4.35707 0
M  V30 3257 C 451.393 5.16382 3.14469 0
M  V30 3258 H 454.872 6.21428 2.0318 0
M  V30 3259 H 456.355 7.86112 2.9231 0
M  V30 3260 H 454.661 9.11171 4.55987 0
M  V30 3261 H 454.471 9.9573 2.34194 0
M  V30 3262 H 452.841 9.2792 2.67832 0
M  V30 3263 H 453.683 6.16575 1.12198 0
M  V30 3264 H 455.481 4.67628 4.28704 0
M  V30 3265 P 457.338 7.39546 4.75277 0
M  V30 3266 O 458.76 7.81777 5.05738 0
M  V30 3267 O 456.978 7.1065 3.32998 0
M  V30 3268 O 457.015 6.04542 5.56673 0
M  V30 3269 C 456.855 6.22772 7.02095 0
M  V30 3270 C 457.395 4.97725 7.70406 0
M  V30 3271 O 456.339 4.13256 7.58987 0
M  V30 3272 C 458.613 4.28231 7.11815 0
M  V30 3273 O 459.351 3.49945 8.01648 0
M  V30 3274 C 457.944 3.5063 5.96244 0
M  V30 3275 O 458.743 2.36482 5.64681 0
M  V30 3276 C 456.607 3.15122 6.56374 0
M  V30 3277 H 456.639 2.13853 6.99751 0
M  V30 3278 H 457.822 4.13501 5.06559 0
M  V30 3279 H 459.306 5.03285 6.70911 0
M  V30 3280 H 457.612 5.20877 8.75697 0
M  V30 3281 H 457.422 7.11046 7.35349 0
M  V30 3282 H 455.792 6.35815 7.26986 0
M  V30 3283 H 458.431 1.61644 6.13565 0
M  V30 3284 P 460.289 3.65191 7.99657 0
M  V30 3285 O 461.711 3.8425 8.48115 0
M  V30 3286 O 459.929 4.17805 6.64342 0
M  V30 3287 O 459.966 2.07613 7.95143 0
M  V30 3288 C 459.806 1.44328 9.27336 0
M  V30 3289 C 460.346 0.0220036 9.17197 0
M  V30 3290 O 459.29 -0.626867 8.61923 0
M  V30 3291 C 461.564 -0.24586 8.30336 0
M  V30 3292 O 462.302 -1.39011 8.63583 0
M  V30 3293 C 460.895 -0.273849 6.91158 0
M  V30 3294 O 461.694 -1.06348 6.02892 0
M  V30 3295 C 459.558 -0.897649 7.22545 0
M  V30 3296 H 459.59 -1.9841 7.04286 0
M  V30 3297 H 460.773 0.739928 6.497 0
M  V30 3298 H 462.257 0.60668 8.36503 0
M  V30 3299 H 460.563 -0.352479 10.1829 0
M  V30 3300 H 460.373 2.00611 10.0304 0
M  V30 3301 H 458.743 1.41843 9.55327 0
M  V30 3302 H 461.382 -1.95734 6.03555 0
M  V30 3303 P 463.239 -1.25109 8.70152 0
M  V30 3304 O 464.661 -1.35274 9.21221 0
M  V30 3305 O 462.879 -0.0769065 7.84762 0
M  V30 3306 O 462.916 -2.55232 7.81161 0
M  V30 3307 C 462.756 -3.79939 8.58154 0
M  V30 3308 C 463.296 -4.94023 7.72785 0
M  V30 3309 O 462.24 -5.18726 6.91205 0
M  V30 3310 C 464.514 -4.69597 6.85231 0
M  V30 3311 O 465.252 -5.83832 6.51337 0
M  V30 3312 C 463.845 -3.96706 5.66633 0
M  V30 3313 O 464.644 -4.15414 4.49689 0
M  V30 3314 C 462.508 -4.66153 5.59313 0
M  V30 3315 H 462.54 -5.47679 4.85214 0
M  V30 3316 H 463.723 -2.89008 5.86566 0
M  V30 3317 H 465.207 -4.0121 7.36511 0
M  V30 3318 H 463.513 -5.80182 8.37584 0
M  V30 3319 H 463.323 -3.73517 9.52265 0
M  V30 3320 H 461.693 -3.97163 8.80359 0
M  V30 3321 H 464.332 -4.90969 4.01921 0
M  V30 3322 P 466.19 -5.75688 6.64379 0
M  V30 3323 O 467.612 -6.11849 7.01846 0
M  V30 3324 O 465.83 -4.30744 6.56026 0
M  V30 3325 O 465.867 -6.37042 5.19165 0
M  V30 3326 C 465.707 -7.83578 5.16515 0
M  V30 3327 C 466.247 -8.33398 3.83019 0
M  V30 3328 O 465.191 -8.10074 3.01034 0
M  V30 3329 C 467.465 -7.65514 3.2257 0
M  V30 3330 O 468.203 -8.4329 2.32297 0
M  V30 3331 C 466.796 -6.40075 2.62207 0
M  V30 3332 O 467.595 -5.92589 1.53712 0
M  V30 3333 C 465.459 -6.9454 2.18503 0
M  V30 3334 H 465.491 -7.23063 1.12091 0
M  V30 3335 H 466.674 -5.6025 3.37201 0
M  V30 3336 H 468.158 -7.35707 4.02681 0
M  V30 3337 H 466.464 -9.40912 3.9095 0
M  V30 3338 H 466.274 -8.29056 5.99158 0
M  V30 3339 H 464.644 -8.10073 5.25882 0
M  V30 3340 H 467.283 -6.30324 0.726794 0
M  V30 3341 P 469.141 -8.4349 2.47671 0
M  V30 3342 O 470.563 -8.94167 2.5964 0
M  V30 3343 O 468.781 -7.1704 3.19006 0
M  V30 3344 O 468.818 -8.16596 0.923387 0
M  V30 3345 C 468.658 -9.38437 0.108857 0
M  V30 3346 C 469.198 -9.08175 -1.28353 0
M  V30 3347 O 468.142 -8.44229 -1.84713 0
M  V30 3348 C 470.416 -8.18386 -1.42505 0
M  V30 3349 O 471.154 -8.3501 -2.60497 0
M  V30 3350 C 469.747 -6.80225 -1.25468 0
M  V30 3351 O 470.546 -5.81621 -1.91066 0
M  V30 3352 C 468.41 -7.02416 -1.9168 0
M  V30 3353 H 468.442 -6.6888 -2.96621 0
M  V30 3354 H 469.625 -6.53617 -0.192223 0
M  V30 3355 H 471.109 -8.36622 -0.589963 0
M  V30 3356 H 469.415 -10.0291 -1.79807 0
M  V30 3357 H 469.225 -10.2138 0.558219 0
M  V30 3358 H 467.595 -9.6579 0.0444202 0
M  V30 3359 H 470.234 -5.69556 -2.79637 0
M  V30 3360 P 472.091 -8.4349 -2.47671 0
M  V30 3361 O 473.513 -8.92593 -2.65 0
M  V30 3362 O 471.731 -7.7568 -1.19296 0
M  V30 3363 O 471.768 -7.36886 -3.63805 0
M  V30 3364 C 471.608 -7.95349 -4.982 0
M  V30 3365 C 472.148 -6.94612 -5.98974 0
M  V30 3366 O 471.092 -6.10347 -6.11815 0
M  V30 3367 C 473.366 -6.11426 -5.62335 0
M  V30 3368 O 474.104 -5.6162 -6.70584 0
M  V30 3369 C 472.697 -5.04409 -4.73308 0
M  V30 3370 O 473.496 -3.85992 -4.75183 0
M  V30 3371 C 471.36 -4.8728 -5.41006 0
M  V30 3372 H 471.392 -4.02333 -6.11157 0
M  V30 3373 H 472.575 -5.39466 -3.69543 0
M  V30 3374 H 474.059 -6.71916 -5.01943 0
M  V30 3375 H 472.365 -7.4649 -6.93477 0
M  V30 3376 H 472.175 -8.89416 -5.05237 0
M  V30 3377 H 470.545 -8.14876 -5.18409 0
M  V30 3378 H 473.184 -3.27957 -5.4317 0
M  V30 3379 P 475.042 -5.75688 -6.64379 0
M  V30 3380 O 476.443 -6.14823 -7.06682 0
M  V30 3381 O 474.664 -5.93957 -5.20728 0
M  V30 3382 O 474.719 -4.23169 -7.04357 0
M  V30 3383 C 474.559 -3.99743 -8.4911 0
M  V30 3384 C 475.099 -2.60487 -8.79329 0
M  V30 3385 O 474.043 -1.82663 -8.44573 0
M  V30 3386 C 476.316 -2.10343 -8.03628 0
M  V30 3387 O 477.055 -1.09919 -8.67766 0
M  V30 3388 C 475.649 -1.68446 -6.70876 0
M  V30 3389 O 476.447 -0.678026 -6.08333 0
M  V30 3390 C 474.311 -1.17436 -7.18567 0
M  V30 3391 N 473.268 -1.52699 -6.23988 0
M  V30 3392 C 472.233 -0.643793 -6.05085 0
M  V30 3393 O 472.272 0.459118 -6.64315 0
M  V30 3394 N 471.221 -0.976931 -5.22038 0
M  V30 3395 C 471.269 -2.14429 -4.56662 0
M  V30 3396 C 472.365 -3.04203 -4.71481 0
M  V30 3397 C 473.331 -2.69669 -5.56838 0
M  V30 3398 H 474.343 -0.0804622 -7.31556 0
M  V30 3399 H 475.526 -2.53396 -6.02698 0
M  V30 3400 H 477.01 -2.9313 -7.85914 0
M  V30 3401 H 475.316 -2.52078 -9.87225 0
M  V30 3402 H 475.125 -4.75072 -9.05887 0
M  V30 3403 H 473.495 -4.05202 -8.76577 0
M  V30 3404 H 472.413 -3.97309 -4.15519 0
M  V30 3405 H 474.177 -3.36869 -5.72318 0
M  V30 3406 H 476.231 0.167718 -6.44882 0
M  V30 3407 P 477.992 -1.25109 -8.70152 0
M  V30 3408 O 479.414 -1.29744 -9.22016 0
M  V30 3409 O 477.632 -2.13714 -7.55141 0
M  V30 3410 O 477.669 0.248149 -8.21425 0
M  V30 3411 C 477.509 1.22779 -9.30434 0
M  V30 3412 C 478.049 2.56293 -8.80664 0
M  V30 3413 O 476.993 3.02979 -8.09349 0
M  V30 3414 C 479.267 2.57523 -7.89775 0
M  V30 3415 O 480.005 3.7668 -7.89438 0
M  V30 3416 C 478.598 2.20997 -6.55446 0
M  V30 3417 O 479.397 2.71895 -5.48509 0
M  V30 3418 C 477.261 2.89693 -6.67988 0
M  V30 3419 H 477.293 3.88793 -6.19859 0
M  V30 3420 H 478.476 1.12046 -6.44229 0
M  V30 3421 H 479.96 1.7746 -8.19711 0
M  V30 3422 H 478.266 3.20706 -9.67112 0
M  V30 3423 H 478.076 0.901032 -10.1892 0
M  V30 3424 H 476.446 1.33049 -9.56592 0
M  V30 3425 H 479.085 3.57847 -5.23962 0
M  V30 3426 P 480.943 3.65191 -7.99657 0
M  V30 3427 O 482.365 3.89332 -8.45794 0
M  V30 3428 O 480.583 2.28472 -7.50807 0
M  V30 3429 O 480.62 4.64972 -6.77611 0
M  V30 3430 C 480.46 6.06319 -7.16352 0
M  V30 3431 C 481 6.91731 -6.02299 0
M  V30 3432 O 479.944 6.92449 -5.17064 0
M  V30 3433 C 482.218 6.43627 -5.25174 0
M  V30 3434 O 482.956 7.43686 -4.60469 0
M  V30 3435 C 481.549 5.40275 -4.31916 0
M  V30 3436 O 482.348 5.25279 -3.14438 0
M  V30 3437 C 480.212 6.04847 -4.05327 0
M  V30 3438 H 480.244 6.62195 -3.11261 0
M  V30 3439 H 481.427 4.42556 -4.81383 0
M  V30 3440 H 482.911 5.92458 -5.93643 0
M  V30 3441 H 481.217 7.92655 -6.402 0
M  V30 3442 H 481.027 6.26671 -8.0846 0
M  V30 3443 H 479.397 6.29101 -7.32804 0
M  V30 3444 H 482.036 5.84315 -2.47318 0
M  V30 3445 P 483.893 7.39546 -4.75277 0
M  V30 3446 O 485.315 7.84798 -5.01039 0
M  V30 3447 O 483.533 5.9812 -5.08098 0
M  V30 3448 O 483.57 7.57503 -3.1866 0
M  V30 3449 C 483.41 8.97357 -2.74833 0
M  V30 3450 C 483.95 9.07548 -1.32709 0
M  V30 3451 O 482.894 8.62072 -0.606159 0
M  V30 3452 C 485.168 8.25383 -0.938334 0
M  V30 3453 O 485.906 8.74577 0.146954 0
M  V30 3454 C 484.499 6.8802 -0.712559 0
M  V30 3455 O 485.298 6.1189 0.194655 0
M  V30 3456 C 483.162 7.27966 -0.139777 0
M  V30 3457 H 483.194 7.25354 0.961601 0
M  V30 3458 H 484.377 6.32557 -1.65702 0
M  V30 3459 H 485.861 8.19355 -1.79097 0
M  V30 3460 H 484.167 10.1294 -1.10029 0
M  V30 3461 H 483.977 9.64276 -3.41316 0
M  V30 3462 H 482.347 9.25417 -2.76357 0
M  V30 3463 H 484.986 6.25267 1.07847 0
M  V30 3464 P 486.844 8.791 2.9035e-12 0
M  V30 3465 O 488.266 9.31096 0.027933 0
M  V30 3466 O 486.484 7.77869 -1.04071 0
M  V30 3467 O 486.521 8.09533 1.41463 0
M  V30 3468 C 486.361 9.0349 2.53943 0
M  V30 3469 C 486.901 8.35226 3.79016 0
M  V30 3470 O 485.845 7.57992 4.15078 0
M  V30 3471 C 488.119 7.45087 3.67298 0
M  V30 3472 O 488.857 7.27796 4.85194 0
M  V30 3473 C 487.45 6.17323 3.12027 0
M  V30 3474 O 488.249 5.04231 3.47188 0
M  V30 3475 C 486.113 6.19961 3.81809 0
M  V30 3476 H 486.145 5.58218 4.73051 0
M  V30 3477 H 487.328 6.21726 2.02589 0
M  V30 3478 H 488.812 7.86112 2.9231 0
M  V30 3479 H 487.118 9.11627 4.55076 0
M  V30 3480 H 486.928 9.9573 2.34194 0
M  V30 3481 H 485.298 9.2792 2.67832 0
M  V30 3482 H 487.937 4.67702 4.28772 0
M  V30 3483 P 489.795 7.39546 4.75277 0
M  V30 3484 O 491.217 7.81777 5.05738 0
M  V30 3485 O 489.435 7.1065 3.32998 0
M  V30 3486 O 489.472 6.04542 5.56673 0
M  V30 3487 C 489.312 6.22772 7.02095 0
M  V30 3488 C 489.852 4.97725 7.70406 0
M  V30 3489 O 488.796 4.13256 7.58987 0
M  V30 3490 C 491.07 4.28231 7.11815 0
M  V30 3491 O 491.808 3.49945 8.01648 0
M  V30 3492 C 490.401 3.5063 5.96244 0
M  V30 3493 O 491.2 2.36482 5.64681 0
M  V30 3494 C 489.064 3.15122 6.56374 0
M  V30 3495 H 489.096 2.13853 6.99751 0
M  V30 3496 H 490.279 4.13501 5.06559 0
M  V30 3497 H 491.763 5.03285 6.70911 0
M  V30 3498 H 490.069 5.20877 8.75697 0
M  V30 3499 H 489.879 7.11046 7.35349 0
M  V30 3500 H 488.249 6.35815 7.26986 0
M  V30 3501 H 490.888 1.61644 6.13565 0
M  V30 3502 P 492.745 3.65191 7.99657 0
M  V30 3503 O 494.167 3.8425 8.48115 0
M  V30 3504 O 492.385 4.17805 6.64342 0
M  V30 3505 O 492.422 2.07613 7.95143 0
M  V30 3506 C 492.262 1.44328 9.27336 0
M  V30 3507 C 492.802 0.0220036 9.17197 0
M  V30 3508 O 491.746 -0.626867 8.61923 0
M  V30 3509 C 494.02 -0.24586 8.30336 0
M  V30 3510 O 494.758 -1.39011 8.63583 0
M  V30 3511 C 493.351 -0.273849 6.91158 0
M  V30 3512 O 494.15 -1.06348 6.02892 0
M  V30 3513 C 492.014 -0.897649 7.22545 0
M  V30 3514 H 492.046 -1.9841 7.04286 0
M  V30 3515 H 493.229 0.739928 6.497 0
M  V30 3516 H 494.713 0.60668 8.36503 0
M  V30 3517 H 493.019 -0.352479 10.1829 0
M  V30 3518 H 492.829 2.00611 10.0304 0
M  V30 3519 H 491.199 1.41843 9.55327 0
M  V30 3520 H 493.838 -1.95734 6.03555 0
M  V30 3521 P 495.696 -1.25109 8.70152 0
M  V30 3522 O 497.118 -1.35274 9.21221 0
M  V30 3523 O 495.336 -0.0769065 7.84762 0
M  V30 3524 O 495.373 -2.55232 7.81161 0
M  V30 3525 C 495.213 -3.79939 8.58154 0
M  V30 3526 C 495.753 -4.94023 7.72785 0
M  V30 3527 O 494.697 -5.18726 6.91205 0
M  V30 3528 C 496.971 -4.69597 6.85231 0
M  V30 3529 O 497.709 -5.83832 6.51337 0
M  V30 3530 C 496.302 -3.96706 5.66633 0
M  V30 3531 O 497.101 -4.15414 4.49689 0
M  V30 3532 C 494.965 -4.66153 5.59313 0
M  V30 3533 H 494.997 -5.47679 4.85214 0
M  V30 3534 H 496.18 -2.89008 5.86566 0
M  V30 3535 H 497.664 -4.0121 7.36511 0
M  V30 3536 H 495.97 -5.80182 8.37584 0
M  V30 3537 H 495.78 -3.73517 9.52265 0
M  V30 3538 H 494.15 -3.97163 8.80359 0
M  V30 3539 H 496.789 -4.90969 4.01921 0
M  V30 3540 P 498.646 -5.75688 6.64379 0
M  V30 3541 O 500.067 -6.11915 7.01921 0
M  V30 3542 O 498.286 -4.30744 6.56026 0
M  V30 3543 O 498.323 -6.37042 5.19165 0
M  V30 3544 C 498.162 -7.83662 5.1657 0
M  V30 3545 C 498.703 -8.33398 3.83019 0
M  V30 3546 O 497.648 -8.0998 3.00999 0
M  V30 3547 C 499.921 -7.65514 3.2257 0
M  V30 3548 O 500.659 -8.4329 2.32297 0
M  V30 3549 C 499.253 -6.40075 2.62207 0
M  V30 3550 O 500.051 -5.92338 1.5428 0
M  V30 3551 C 497.915 -6.9454 2.18503 0
M  V30 3552 N 496.872 -5.95905 2.39948 0
M  V30 3553 C 497.041 -4.98383 3.32108 0
M  V30 3554 N 496.014 -4.16798 3.41761 0
M  V30 3555 C 495.129 -4.65287 2.47461 0
M  V30 3556 C 493.862 -4.18946 2.07461 0
M  V30 3557 N 493.297 -4.95327 1.09101 0
M  V30 3558 C 493.899 -6.04369 0.519812 0
M  V30 3559 N 495.076 -6.50694 0.855982 0
M  V30 3560 C 495.651 -5.75818 1.84322 0
M  V30 3561 H 499.13 -5.60502 3.36589 0
M  V30 3562 H 500.613 -7.35707 4.02681 0
M  V30 3563 H 498.919 -9.41302 3.90009 0
M  V30 3564 H 498.729 -8.29056 5.99158 0
M  V30 3565 H 497.099 -8.10073 5.25882 0
M  V30 3566 H 497.941 -4.88564 3.92502 0
M  V30 3567 H 499.739 -6.30224 0.72668 0
M  V30 3568 P 501.597 -8.4349 2.47671 0
M  V30 3569 O 503.019 -8.94167 2.5964 0
M  V30 3570 O 501.237 -7.1704 3.19006 0
M  V30 3571 O 501.274 -8.16596 0.923387 0
M  V30 3572 C 501.114 -9.38437 0.108857 0
M  V30 3573 C 501.654 -9.08175 -1.28353 0
M  V30 3574 O 500.598 -8.44229 -1.84713 0
M  V30 3575 C 502.872 -8.18386 -1.42505 0
M  V30 3576 O 503.61 -8.3501 -2.60497 0
M  V30 3577 C 502.203 -6.80225 -1.25468 0
M  V30 3578 O 503.002 -5.81621 -1.91066 0
M  V30 3579 C 500.866 -7.02416 -1.9168 0
M  V30 3580 H 500.898 -6.6888 -2.96621 0
M  V30 3581 H 502.081 -6.53617 -0.192223 0
M  V30 3582 H 503.565 -8.36622 -0.589963 0
M  V30 3583 H 501.871 -10.0291 -1.79807 0
M  V30 3584 H 501.681 -10.2138 0.558219 0
M  V30 3585 H 500.051 -9.6579 0.0444202 0
M  V30 3586 H 502.69 -5.69556 -2.79637 0
M  V30 3587 P 504.547 -8.4349 -2.47671 0
M  V30 3588 O 505.969 -8.92593 -2.65 0
M  V30 3589 O 504.187 -7.7568 -1.19296 0
M  V30 3590 O 504.224 -7.36886 -3.63805 0
M  V30 3591 C 504.064 -7.95349 -4.982 0
M  V30 3592 C 504.604 -6.94612 -5.98974 0
M  V30 3593 O 503.548 -6.10347 -6.11815 0
M  V30 3594 C 505.822 -6.11426 -5.62335 0
M  V30 3595 O 506.56 -5.6162 -6.70584 0
M  V30 3596 C 505.153 -5.04409 -4.73308 0
M  V30 3597 O 505.952 -3.85992 -4.75183 0
M  V30 3598 C 503.816 -4.8728 -5.41006 0
M  V30 3599 H 503.848 -4.02333 -6.11157 0
M  V30 3600 H 505.031 -5.39466 -3.69543 0
M  V30 3601 H 506.515 -6.71916 -5.01943 0
M  V30 3602 H 504.821 -7.4649 -6.93477 0
M  V30 3603 H 504.631 -8.89416 -5.05237 0
M  V30 3604 H 503.001 -8.14876 -5.18409 0
M  V30 3605 H 505.64 -3.27957 -5.4317 0
M  V30 3606 P 507.498 -5.75688 -6.64379 0
M  V30 3607 O 508.92 -6.07627 -7.05504 0
M  V30 3608 O 507.138 -5.88047 -5.19722 0
M  V30 3609 O 507.175 -4.2322 -7.04443 0
M  V30 3610 C 507.015 -3.99743 -8.4911 0
M  V30 3611 C 507.555 -2.60516 -8.79425 0
M  V30 3612 O 506.499 -1.82684 -8.4467 0
M  V30 3613 C 508.773 -2.10343 -8.03628 0
M  V30 3614 O 509.511 -1.09919 -8.67766 0
M  V30 3615 C 508.104 -1.68446 -6.70876 0
M  V30 3616 O 508.903 -0.678137 -6.08433 0
M  V30 3617 C 506.767 -1.17436 -7.18567 0
M  V30 3618 H 506.799 -0.0804732 -7.31656 0
M  V30 3619 H 507.982 -2.54037 -6.02537 0
M  V30 3620 H 509.466 -2.93881 -7.85526 0
M  V30 3621 H 507.772 -2.53065 -9.86973 0
M  V30 3622 H 507.582 -4.75072 -9.05887 0
M  V30 3623 H 505.952 -4.05244 -8.76668 0
M  V30 3624 H 508.591 0.177647 -6.34251 0
M  V30 3625 P 510.449 -1.25109 -8.70152 0
M  V30 3626 O 511.871 -1.29744 -9.22016 0
M  V30 3627 O 510.089 -2.13714 -7.55141 0
M  V30 3628 O 510.126 0.248149 -8.21425 0
M  V30 3629 C 509.966 1.22779 -9.30434 0
M  V30 3630 C 510.506 2.56293 -8.80664 0
M  V30 3631 O 509.45 3.02979 -8.09349 0
M  V30 3632 C 511.724 2.57523 -7.89775 0
M  V30 3633 O 512.462 3.7668 -7.89438 0
M  V30 3634 C 511.055 2.20997 -6.55446 0
M  V30 3635 O 511.854 2.71895 -5.48509 0
M  V30 3636 C 509.718 2.89693 -6.67988 0
M  V30 3637 H 509.75 3.88793 -6.19859 0
M  V30 3638 H 510.933 1.12046 -6.44229 0
M  V30 3639 H 512.417 1.7746 -8.19711 0
M  V30 3640 H 510.723 3.20706 -9.67112 0
M  V30 3641 H 510.533 0.901032 -10.1892 0
M  V30 3642 H 508.903 1.33049 -9.56592 0
M  V30 3643 H 511.542 3.57847 -5.23962 0
M  V30 3644 P 513.399 3.65191 -7.99657 0
M  V30 3645 O 514.821 3.89332 -8.45794 0
M  V30 3646 O 513.039 2.28472 -7.50807 0
M  V30 3647 O 513.076 4.64972 -6.77611 0
M  V30 3648 C 512.916 6.06319 -7.16352 0
M  V30 3649 C 513.456 6.91731 -6.02299 0
M  V30 3650 O 512.4 6.92449 -5.17064 0
M  V30 3651 C 514.674 6.43627 -5.25174 0
M  V30 3652 O 515.412 7.43686 -4.60469 0
M  V30 3653 C 514.005 5.40275 -4.31916 0
M  V30 3654 O 514.804 5.25279 -3.14438 0
M  V30 3655 C 512.668 6.04847 -4.05327 0
M  V30 3656 H 512.7 6.62195 -3.11261 0
M  V30 3657 H 513.883 4.42556 -4.81383 0
M  V30 3658 H 515.367 5.92458 -5.93643 0
M  V30 3659 H 513.673 7.92655 -6.402 0
M  V30 3660 H 513.483 6.26671 -8.0846 0
M  V30 3661 H 511.853 6.29101 -7.32804 0
M  V30 3662 H 514.492 5.84315 -2.47318 0
M  V30 3663 P 516.35 7.39546 -4.75277 0
M  V30 3664 O 517.772 7.84798 -5.01039 0
M  V30 3665 O 515.99 5.9812 -5.08098 0
M  V30 3666 O 516.027 7.57503 -3.1866 0
M  V30 3667 C 515.867 8.97357 -2.74833 0
M  V30 3668 C 516.407 9.07548 -1.32709 0
M  V30 3669 O 515.351 8.62072 -0.606159 0
M  V30 3670 C 517.625 8.25383 -0.938334 0
M  V30 3671 O 518.363 8.74577 0.146954 0
M  V30 3672 C 516.956 6.8802 -0.712559 0
M  V30 3673 O 517.755 6.1189 0.194655 0
M  V30 3674 C 515.619 7.27966 -0.139777 0
M  V30 3675 H 515.651 7.25354 0.961601 0
M  V30 3676 H 516.834 6.32557 -1.65702 0
M  V30 3677 H 518.318 8.19355 -1.79097 0
M  V30 3678 H 516.624 10.1294 -1.10029 0
M  V30 3679 H 516.434 9.64276 -3.41316 0
M  V30 3680 H 514.804 9.25417 -2.76357 0
M  V30 3681 H 517.443 6.25267 1.07847 0
M  V30 3682 P 519.3 8.791 3.21367e-12 0
M  V30 3683 O 520.722 9.31096 0.027933 0
M  V30 3684 O 518.94 7.77869 -1.04071 0
M  V30 3685 O 518.977 8.09533 1.41463 0
M  V30 3686 C 518.817 9.0349 2.53943 0
M  V30 3687 C 519.357 8.35226 3.79016 0
M  V30 3688 O 518.301 7.57992 4.15078 0
M  V30 3689 C 520.575 7.45087 3.67298 0
M  V30 3690 O 521.313 7.27796 4.85194 0
M  V30 3691 C 519.906 6.17323 3.12027 0
M  V30 3692 O 520.705 5.04231 3.47188 0
M  V30 3693 C 518.569 6.19961 3.81809 0
M  V30 3694 H 518.601 5.58218 4.73051 0
M  V30 3695 H 519.784 6.21726 2.02589 0
M  V30 3696 H 521.268 7.86112 2.9231 0
M  V30 3697 H 519.574 9.11627 4.55076 0
M  V30 3698 H 519.384 9.9573 2.34194 0
M  V30 3699 H 517.754 9.2792 2.67832 0
M  V30 3700 H 520.393 4.67702 4.28772 0
M  V30 3701 P 522.251 7.39546 4.75277 0
M  V30 3702 O 523.672 7.81861 5.05793 0
M  V30 3703 O 521.891 7.1065 3.32998 0
M  V30 3704 O 521.928 6.04542 5.56673 0
M  V30 3705 C 521.767 6.22839 7.02169 0
M  V30 3706 C 522.308 4.97725 7.70406 0
M  V30 3707 O 521.253 4.13208 7.58899 0
M  V30 3708 C 523.526 4.28231 7.11815 0
M  V30 3709 O 524.264 3.49945 8.01648 0
M  V30 3710 C 522.858 3.5063 5.96244 0
M  V30 3711 O 523.656 2.37008 5.64352 0
M  V30 3712 C 521.52 3.15122 6.56374 0
M  V30 3713 N 520.477 3.22311 5.55692 0
M  V30 3714 C 520.646 3.99655 4.46046 0
M  V30 3715 N 519.619 3.97599 3.63918 0
M  V30 3716 C 518.734 3.11159 4.25334 0
M  V30 3717 C 517.467 2.64972 3.85157 0
M  V30 3718 N 516.868 3.02132 2.69405 0
M  V30 3719 N 516.902 1.78482 4.74759 0
M  V30 3720 C 517.504 1.37463 5.90819 0
M  V30 3721 N 518.681 1.7733 6.31889 0
M  V30 3722 C 519.256 2.64393 5.43725 0
M  V30 3723 H 521.552 2.13823 6.99656 0
M  V30 3724 H 522.735 4.12931 5.06895 0
M  V30 3725 H 524.218 5.03285 6.70911 0
M  V30 3726 H 522.524 5.20001 8.76217 0
M  V30 3727 H 522.334 7.11046 7.35349 0
M  V30 3728 H 520.704 6.35815 7.26986 0
M  V30 3729 H 516.968 0.66574 6.53015 0
M  V30 3730 H 521.546 4.58037 4.27732 0
M  V30 3731 H 515.938 2.64828 2.45331 0
M  V30 3732 H 517.342 3.67472 2.05644 0
M  V30 3733 H 523.344 1.61619 6.13468 0
M  V30 3734 P 525.201 3.65191 7.99657 0
M  V30 3735 O 526.622 3.84292 8.48206 0
M  V30 3736 O 524.841 4.17805 6.64342 0
M  V30 3737 O 524.878 2.07613 7.95143 0
M  V30 3738 C 524.717 1.44344 9.27435 0
M  V30 3739 C 525.258 0.0220036 9.17197 0
M  V30 3740 O 524.203 -0.626794 8.61824 0
M  V30 3741 C 526.476 -0.24586 8.30336 0
M  V30 3742 O 527.214 -1.39011 8.63583 0
M  V30 3743 C 525.808 -0.273849 6.91158 0
M  V30 3744 O 526.606 -1.05728 6.029 0
M  V30 3745 C 524.47 -0.897649 7.22545 0
M  V30 3746 N 523.427 -0.292839 6.41732 0
M  V30 3747 C 523.596 0.950603 5.91308 0
M  V30 3748 N 522.569 1.37732 5.21105 0
M  V30 3749 C 521.684 0.318109 5.26039 0
M  V30 3750 C 520.417 0.146766 4.6727 0
M  V30 3751 N 519.852 -1.06525 4.95887 0
M  V30 3752 C 520.454 -2.0378 5.71347 0
M  V30 3753 N 521.631 -1.92445 6.27451 0
M  V30 3754 C 522.206 -0.715382 6.00353 0
M  V30 3755 H 525.685 0.733318 6.49674 0
M  V30 3756 H 527.168 0.60668 8.36503 0
M  V30 3757 H 525.474 -0.362662 10.1825 0
M  V30 3758 H 525.284 2.00611 10.0304 0
M  V30 3759 H 523.654 1.41843 9.55327 0
M  V30 3760 H 524.496 1.54076 6.07465 0
M  V30 3761 H 526.294 -1.95704 6.0346 0
M  V30 3762 P 528.152 -1.25109 8.70152 0
M  V30 3763 O 529.574 -1.35274 9.21221 0
M  V30 3764 O 527.792 -0.0769065 7.84762 0
M  V30 3765 O 527.829 -2.55232 7.81161 0
M  V30 3766 C 527.669 -3.79939 8.58154 0
M  V30 3767 C 528.209 -4.94023 7.72785 0
M  V30 3768 O 527.153 -5.18726 6.91205 0
M  V30 3769 C 529.427 -4.69597 6.85231 0
M  V30 3770 O 530.165 -5.83832 6.51337 0
M  V30 3771 C 528.758 -3.96706 5.66633 0
M  V30 3772 O 529.557 -4.15414 4.49689 0
M  V30 3773 C 527.421 -4.66153 5.59313 0
M  V30 3774 H 527.453 -5.47679 4.85214 0
M  V30 3775 H 528.636 -2.89008 5.86566 0
M  V30 3776 H 530.12 -4.0121 7.36511 0
M  V30 3777 H 528.426 -5.80182 8.37584 0
M  V30 3778 H 528.236 -3.73517 9.52265 0
M  V30 3779 H 526.606 -3.97163 8.80359 0
M  V30 3780 H 529.245 -4.90969 4.01921 0
M  V30 3781 P 531.103 -5.75688 6.64379 0
M  V30 3782 O 532.525 -6.11849 7.01846 0
M  V30 3783 O 530.743 -4.30744 6.56026 0
M  V30 3784 O 530.78 -6.37042 5.19165 0
M  V30 3785 C 530.62 -7.83578 5.16515 0
M  V30 3786 C 531.16 -8.33398 3.83019 0
M  V30 3787 O 530.104 -8.10074 3.01034 0
M  V30 3788 C 532.378 -7.65514 3.2257 0
M  V30 3789 O 533.116 -8.4329 2.32297 0
M  V30 3790 C 531.709 -6.40075 2.62207 0
M  V30 3791 O 532.508 -5.92589 1.53712 0
M  V30 3792 C 530.372 -6.9454 2.18503 0
M  V30 3793 H 530.404 -7.23063 1.12091 0
M  V30 3794 H 531.587 -5.6025 3.37201 0
M  V30 3795 H 533.071 -7.35707 4.02681 0
M  V30 3796 H 531.377 -9.40912 3.9095 0
M  V30 3797 H 531.187 -8.29056 5.99158 0
M  V30 3798 H 529.557 -8.10073 5.25882 0
M  V30 3799 H 532.196 -6.30324 0.726794 0
M  V30 3800 P 534.053 -8.4349 2.47671 0
M  V30 3801 O 535.475 -8.94167 2.5964 0
M  V30 3802 O 533.693 -7.1704 3.19006 0
M  V30 3803 O 533.73 -8.16596 0.923387 0
M  V30 3804 C 533.57 -9.38437 0.108857 0
M  V30 3805 C 534.11 -9.08175 -1.28353 0
M  V30 3806 O 533.054 -8.44229 -1.84713 0
M  V30 3807 C 535.328 -8.18386 -1.42505 0
M  V30 3808 O 536.066 -8.3501 -2.60497 0
M  V30 3809 C 534.659 -6.80225 -1.25468 0
M  V30 3810 O 535.458 -5.81621 -1.91066 0
M  V30 3811 C 533.322 -7.02416 -1.9168 0
M  V30 3812 H 533.354 -6.6888 -2.96621 0
M  V30 3813 H 534.537 -6.53617 -0.192223 0
M  V30 3814 H 536.021 -8.36622 -0.589963 0
M  V30 3815 H 534.327 -10.0291 -1.79807 0
M  V30 3816 H 534.137 -10.2138 0.558219 0
M  V30 3817 H 532.507 -9.6579 0.0444202 0
M  V30 3818 H 535.146 -5.69556 -2.79637 0
M  V30 3819 P 537.004 -8.4349 -2.47671 0
M  V30 3820 O 538.426 -8.92593 -2.65 0
M  V30 3821 O 536.644 -7.7568 -1.19296 0
M  V30 3822 O 536.681 -7.36886 -3.63805 0
M  V30 3823 C 536.521 -7.95349 -4.982 0
M  V30 3824 C 537.061 -6.94612 -5.98974 0
M  V30 3825 O 536.005 -6.10347 -6.11815 0
M  V30 3826 C 538.279 -6.11426 -5.62335 0
M  V30 3827 O 539.017 -5.6162 -6.70584 0
M  V30 3828 C 537.61 -5.04409 -4.73308 0
M  V30 3829 O 538.409 -3.85992 -4.75183 0
M  V30 3830 C 536.273 -4.8728 -5.41006 0
M  V30 3831 H 536.305 -4.02333 -6.11157 0
M  V30 3832 H 537.488 -5.39466 -3.69543 0
M  V30 3833 H 538.972 -6.71916 -5.01943 0
M  V30 3834 H 537.278 -7.4649 -6.93477 0
M  V30 3835 H 537.088 -8.89416 -5.05237 0
M  V30 3836 H 535.458 -8.14876 -5.18409 0
M  V30 3837 H 538.097 -3.27957 -5.4317 0
M  V30 3838 P 539.954 -5.75688 -6.64379 0
M  V30 3839 O 541.375 -6.07692 -7.0558 0
M  V30 3840 O 539.594 -5.88047 -5.19722 0
M  V30 3841 O 539.631 -4.2322 -7.04443 0
M  V30 3842 C 539.47 -3.99785 -8.49201 0
M  V30 3843 C 540.011 -2.60516 -8.79425 0
M  V30 3844 O 538.956 -1.82663 -8.44573 0
M  V30 3845 C 541.229 -2.10343 -8.03628 0
M  V30 3846 O 541.967 -1.09919 -8.67766 0
M  V30 3847 C 540.561 -1.68446 -6.70876 0
M  V30 3848 O 541.359 -0.684109 -6.08265 0
M  V30 3849 C 539.223 -1.17436 -7.18567 0
M  V30 3850 N 538.18 -1.52699 -6.23988 0
M  V30 3851 C 538.349 -2.578 -5.40574 0
M  V30 3852 N 537.322 -2.78966 -4.61193 0
M  V30 3853 C 536.437 -1.78725 -4.95769 0
M  V30 3854 C 535.17 -1.45727 -4.44207 0
M  V30 3855 N 534.605 -0.374977 -5.05812 0
M  V30 3856 C 535.207 0.345585 -6.05615 0
M  V30 3857 N 536.384 0.0787651 -6.56253 0
M  V30 3858 C 536.959 -1.00499 -5.96189 0
M  V30 3859 H 540.438 -2.53396 -6.02698 0
M  V30 3860 H 541.921 -2.93881 -7.85526 0
M  V30 3861 H 540.227 -2.52078 -9.87225 0
M  V30 3862 H 540.037 -4.75072 -9.05887 0
M  V30 3863 H 538.407 -4.05244 -8.76668 0
M  V30 3864 H 539.249 -3.18977 -5.3945 0
M  V30 3865 H 541.047 0.177619 -6.34151 0
M  V30 3866 P 542.905 -1.25109 -8.70152 0
M  V30 3867 O 544.327 -1.29744 -9.22016 0
M  V30 3868 O 542.545 -2.13714 -7.55141 0
M  V30 3869 O 542.582 0.248149 -8.21425 0
M  V30 3870 C 542.422 1.22779 -9.30434 0
M  V30 3871 C 542.962 2.56293 -8.80664 0
M  V30 3872 O 541.906 3.02979 -8.09349 0
M  V30 3873 C 544.18 2.57523 -7.89775 0
M  V30 3874 O 544.918 3.7668 -7.89438 0
M  V30 3875 C 543.511 2.20997 -6.55446 0
M  V30 3876 O 544.31 2.71895 -5.48509 0
M  V30 3877 C 542.174 2.89693 -6.67988 0
M  V30 3878 H 542.206 3.88793 -6.19859 0
M  V30 3879 H 543.389 1.12046 -6.44229 0
M  V30 3880 H 544.873 1.7746 -8.19711 0
M  V30 3881 H 543.179 3.20706 -9.67112 0
M  V30 3882 H 542.989 0.901032 -10.1892 0
M  V30 3883 H 541.359 1.33049 -9.56592 0
M  V30 3884 H 543.998 3.57847 -5.23962 0
M  V30 3885 P 545.855 3.65191 -7.99657 0
M  V30 3886 O 547.277 3.89416 -8.45976 0
M  V30 3887 O 545.495 2.28472 -7.50807 0
M  V30 3888 O 545.532 4.64972 -6.77611 0
M  V30 3889 C 545.372 6.06319 -7.16352 0
M  V30 3890 C 545.912 6.91655 -6.02234 0
M  V30 3891 O 544.857 6.92449 -5.17064 0
M  V30 3892 C 547.13 6.43627 -5.25174 0
M  V30 3893 O 547.868 7.43686 -4.60469 0
M  V30 3894 C 546.462 5.40275 -4.31916 0
M  V30 3895 O 547.26 5.25193 -3.14386 0
M  V30 3896 C 545.124 6.04847 -4.05327 0
M  V30 3897 N 544.081 5.04166 -3.98114 0
M  V30 3898 C 544.143 3.96049 -4.75587 0
M  V30 3899 N 543.098 3.15559 -4.54006 0
M  V30 3900 C 542.364 3.78802 -3.62491 0
M  V30 3901 C 541.058 3.476 -3.10071 0
M  V30 3902 O 540.325 2.51136 -3.37021 0
M  V30 3903 N 540.628 4.39088 -2.19956 0
M  V30 3904 C 541.377 5.53215 -1.81733 0
M  V30 3905 N 540.78 6.31963 -0.860928 0
M  V30 3906 N 542.53 5.86688 -2.32562 0
M  V30 3907 C 542.987 4.97525 -3.23407 0
M  V30 3908 H 545.156 6.62195 -3.11261 0
M  V30 3909 H 546.339 4.42488 -4.8131 0
M  V30 3910 H 547.824 5.93051 -5.9305 0
M  V30 3911 H 546.129 7.92655 -6.402 0
M  V30 3912 H 545.939 6.26671 -8.0846 0
M  V30 3913 H 544.308 6.29101 -7.32804 0
M  V30 3914 H 539.732 4.25523 -1.77604 0
M  V30 3915 H 544.939 3.75576 -5.47333 0
M  V30 3916 H 539.869 6.04684 -0.468946 0
M  V30 3917 H 541.245 7.18054 -0.542422 0
M  V30 3918 H 546.949 5.84223 -2.47279 0
M  V30 3919 P 548.806 7.39546 -4.75277 0
M  V30 3920 O 550.228 7.84798 -5.01039 0
M  V30 3921 O 548.446 5.9812 -5.08098 0
M  V30 3922 O 548.483 7.57503 -3.1866 0
M  V30 3923 C 548.323 8.97357 -2.74833 0
M  V30 3924 C 548.863 9.07548 -1.32709 0
M  V30 3925 O 547.807 8.62072 -0.606159 0
M  V30 3926 C 550.081 8.25383 -0.938334 0
M  V30 3927 O 550.819 8.74577 0.146954 0
M  V30 3928 C 549.412 6.8802 -0.712559 0
M  V30 3929 O 550.211 6.1189 0.194655 0
M  V30 3930 C 548.075 7.27966 -0.139777 0
M  V30 3931 H 548.107 7.25354 0.961601 0
M  V30 3932 H 549.29 6.32557 -1.65702 0
M  V30 3933 H 550.774 8.19355 -1.79097 0
M  V30 3934 H 549.08 10.1294 -1.10029 0
M  V30 3935 H 548.89 9.64276 -3.41316 0
M  V30 3936 H 547.26 9.25417 -2.76357 0
M  V30 3937 H 549.899 6.25267 1.07847 0
M  V30 3938 P 551.757 8.791 3.52383e-12 0
M  V30 3939 O 553.179 9.31296 0.027939 0
M  V30 3940 O 551.397 7.77869 -1.04071 0
M  V30 3941 O 551.434 8.09533 1.41463 0
M  V30 3942 C 551.274 9.0349 2.53943 0
M  V30 3943 C 551.814 8.35135 3.78975 0
M  V30 3944 O 550.759 7.57992 4.15078 0
M  V30 3945 C 553.032 7.45087 3.67298 0
M  V30 3946 O 553.77 7.27796 4.85194 0
M  V30 3947 C 552.364 6.17323 3.12027 0
M  V30 3948 O 553.162 5.04149 3.47132 0
M  V30 3949 C 551.026 6.19961 3.81809 0
M  V30 3950 N 549.983 5.71575 2.93223 0
M  V30 3951 C 550.045 5.97133 1.62693 0
M  V30 3952 N 549 5.44066 0.984414 0
M  V30 3953 C 548.266 4.87093 1.93987 0
M  V30 3954 C 546.96 4.26449 1.8738 0
M  V30 3955 O 546.227 4.1089 0.884377 0
M  V30 3956 N 546.53 3.82483 3.08036 0
M  V30 3957 C 547.279 3.95124 4.27727 0
M  V30 3958 N 546.682 3.4084 5.39089 0
M  V30 3959 N 548.432 4.55264 4.3706 0
M  V30 3960 C 548.889 5.00861 3.18217 0
M  V30 3961 H 551.058 5.58218 4.73051 0
M  V30 3962 H 552.241 6.21631 2.02558 0
M  V30 3963 H 553.726 7.85819 2.93096 0
M  V30 3964 H 552.031 9.11627 4.55076 0
M  V30 3965 H 551.841 9.9573 2.34194 0
M  V30 3966 H 550.21 9.2792 2.67832 0
M  V30 3967 H 545.634 3.38323 3.1329 0
M  V30 3968 H 550.841 6.53891 1.14265 0
M  V30 3969 H 545.771 2.93852 5.30559 0
M  V30 3970 H 547.147 3.47631 6.30632 0
M  V30 3971 H 552.851 4.67628 4.28704 0
M  V30 3972 P 554.707 7.39546 4.75277 0
M  V30 3973 O 556.129 7.81777 5.05738 0
M  V30 3974 O 554.347 7.1065 3.32998 0
M  V30 3975 O 554.384 6.04542 5.56673 0
M  V30 3976 C 554.224 6.22772 7.02095 0
M  V30 3977 C 554.764 4.97725 7.70406 0
M  V30 3978 O 553.708 4.13256 7.58987 0
M  V30 3979 C 555.982 4.28231 7.11815 0
M  V30 3980 O 556.72 3.49945 8.01648 0
M  V30 3981 C 555.313 3.5063 5.96244 0
M  V30 3982 O 556.112 2.36482 5.64681 0
M  V30 3983 C 553.976 3.15122 6.56374 0
M  V30 3984 H 554.008 2.13853 6.99751 0
M  V30 3985 H 555.191 4.13501 5.06559 0
M  V30 3986 H 556.675 5.03285 6.70911 0
M  V30 3987 H 554.981 5.20877 8.75697 0
M  V30 3988 H 554.791 7.11046 7.35349 0
M  V30 3989 H 553.161 6.35815 7.26986 0
M  V30 3990 H 555.8 1.61644 6.13565 0
M  V30 3991 P 557.658 3.65191 7.99657 0
M  V30 3992 O 559.08 3.8425 8.48115 0
M  V30 3993 O 557.298 4.17805 6.64342 0
M  V30 3994 O 557.335 2.07613 7.95143 0
M  V30 3995 C 557.175 1.44328 9.27336 0
M  V30 3996 C 557.715 0.0220036 9.17197 0
M  V30 3997 O 556.659 -0.626867 8.61923 0
M  V30 3998 C 558.933 -0.24586 8.30336 0
M  V30 3999 O 559.671 -1.39011 8.63583 0
M  V30 4000 C 558.264 -0.273849 6.91158 0
M  V30 4001 O 559.063 -1.06348 6.02892 0
M  V30 4002 C 556.927 -0.897649 7.22545 0
M  V30 4003 H 556.959 -1.9841 7.04286 0
M  V30 4004 H 558.142 0.739928 6.497 0
M  V30 4005 H 559.626 0.60668 8.36503 0
M  V30 4006 H 557.932 -0.352479 10.1829 0
M  V30 4007 H 557.742 2.00611 10.0304 0
M  V30 4008 H 556.112 1.41843 9.55327 0
M  V30 4009 H 558.751 -1.95734 6.03555 0
M  V30 4010 P 560.608 -1.25109 8.70152 0
M  V30 4011 O 562.03 -1.35274 9.21221 0
M  V30 4012 O 560.248 -0.0769065 7.84762 0
M  V30 4013 O 560.285 -2.55232 7.81161 0
M  V30 4014 C 560.125 -3.79939 8.58154 0
M  V30 4015 C 560.665 -4.94023 7.72785 0
M  V30 4016 O 559.609 -5.18726 6.91205 0
M  V30 4017 C 561.883 -4.69597 6.85231 0
M  V30 4018 O 562.621 -5.83832 6.51337 0
M  V30 4019 C 561.214 -3.96706 5.66633 0
M  V30 4020 O 562.013 -4.15414 4.49689 0
M  V30 4021 C 559.877 -4.66153 5.59313 0
M  V30 4022 H 559.909 -5.47679 4.85214 0
M  V30 4023 H 561.092 -2.89008 5.86566 0
M  V30 4024 H 562.576 -4.0121 7.36511 0
M  V30 4025 H 560.882 -5.80182 8.37584 0
M  V30 4026 H 560.692 -3.73517 9.52265 0
M  V30 4027 H 559.062 -3.97163 8.80359 0
M  V30 4028 H 561.701 -4.90969 4.01921 0
M  V30 4029 P 563.559 -5.75688 6.64379 0
M  V30 4030 O 564.981 -6.11849 7.01846 0
M  V30 4031 O 563.199 -4.30744 6.56026 0
M  V30 4032 O 563.236 -6.37042 5.19165 0
M  V30 4033 C 563.076 -7.83578 5.16515 0
M  V30 4034 C 563.616 -8.33398 3.83019 0
M  V30 4035 O 562.56 -8.10074 3.01034 0
M  V30 4036 C 564.834 -7.65514 3.2257 0
M  V30 4037 O 565.572 -8.4329 2.32297 0
M  V30 4038 C 564.165 -6.40075 2.62207 0
M  V30 4039 O 564.964 -5.92589 1.53712 0
M  V30 4040 C 562.828 -6.9454 2.18503 0
M  V30 4041 H 562.86 -7.23063 1.12091 0
M  V30 4042 H 564.043 -5.6025 3.37201 0
M  V30 4043 H 565.527 -7.35707 4.02681 0
M  V30 4044 H 563.833 -9.40912 3.9095 0
M  V30 4045 H 563.643 -8.29056 5.99158 0
M  V30 4046 H 562.013 -8.10073 5.25882 0
M  V30 4047 H 564.652 -6.30324 0.726794 0
M  V30 4048 P 566.509 -8.4349 2.47671 0
M  V30 4049 O 567.931 -8.94167 2.5964 0
M  V30 4050 O 566.149 -7.1704 3.19006 0
M  V30 4051 O 566.186 -8.16596 0.923387 0
M  V30 4052 C 566.026 -9.38437 0.108857 0
M  V30 4053 C 566.566 -9.08175 -1.28353 0
M  V30 4054 O 565.51 -8.44229 -1.84713 0
M  V30 4055 C 567.784 -8.18386 -1.42505 0
M  V30 4056 O 568.522 -8.3501 -2.60497 0
M  V30 4057 C 567.115 -6.80225 -1.25468 0
M  V30 4058 O 567.914 -5.81621 -1.91066 0
M  V30 4059 C 565.778 -7.02416 -1.9168 0
M  V30 4060 H 565.81 -6.6888 -2.96621 0
M  V30 4061 H 566.993 -6.53617 -0.192223 0
M  V30 4062 H 568.477 -8.36622 -0.589963 0
M  V30 4063 H 566.783 -10.0291 -1.79807 0
M  V30 4064 H 566.593 -10.2138 0.558219 0
M  V30 4065 H 564.963 -9.6579 0.0444202 0
M  V30 4066 H 567.602 -5.69556 -2.79637 0
M  V30 4067 P 569.46 -8.4349 -2.47671 0
M  V30 4068 O 570.861 -8.99283 -2.62101 0
M  V30 4069 O 569.082 -7.81195 -1.16947 0
M  V30 4070 O 569.137 -7.36797 -3.63761 0
M  V30 4071 C 568.977 -7.95349 -4.982 0
M  V30 4072 C 569.517 -6.94537 -5.98908 0
M  V30 4073 O 568.461 -6.10277 -6.11744 0
M  V30 4074 C 570.734 -6.11426 -5.62335 0
M  V30 4075 O 571.473 -5.6162 -6.70584 0
M  V30 4076 C 570.067 -5.04409 -4.73308 0
M  V30 4077 O 570.865 -3.85929 -4.75106 0
M  V30 4078 C 568.729 -4.8728 -5.41006 0
M  V30 4079 N 567.686 -4.65812 -4.42377 0
M  V30 4080 C 566.651 -3.81293 -4.74224 0
M  V30 4081 O 566.69 -3.20533 -5.83679 0
M  V30 4082 N 565.639 -3.6442 -3.86349 0
M  V30 4083 C 565.687 -4.2728 -2.6824 0
M  V30 4084 N 564.677 -4.09866 -1.83822 0
M  V30 4085 C 566.783 -5.10813 -2.3217 0
M  V30 4086 C 567.749 -5.27909 -3.22647 0
M  V30 4087 H 568.761 -4.02278 -6.11074 0
M  V30 4088 H 569.944 -5.39013 -3.70026 0
M  V30 4089 H 571.428 -6.71494 -5.02675 0
M  V30 4090 H 569.734 -7.45796 -6.94223 0
M  V30 4091 H 569.543 -8.89416 -5.05237 0
M  V30 4092 H 567.913 -8.14791 -5.18355 0
M  V30 4093 H 566.831 -5.58884 -1.34755 0
M  V30 4094 H 568.595 -5.92811 -2.9934 0
M  V30 4095 H 563.887 -3.49095 -2.10018 0
M  V30 4096 H 564.682 -4.56846 -0.924167 0
M  V30 4097 H 570.649 -3.3454 -5.51577 0
M  V30 4098 P 572.411 -5.75688 -6.64379 0
M  V30 4099 O 573.833 -6.07627 -7.05504 0
M  V30 4100 O 572.051 -5.88047 -5.19722 0
M  V30 4101 O 572.088 -4.2322 -7.04443 0
M  V30 4102 C 571.928 -3.99743 -8.4911 0
M  V30 4103 C 572.468 -2.60516 -8.79425 0
M  V30 4104 O 571.412 -1.82684 -8.4467 0
M  V30 4105 C 573.686 -2.10343 -8.03628 0
M  V30 4106 O 574.424 -1.09919 -8.67766 0
M  V30 4107 C 573.017 -1.68446 -6.70876 0
M  V30 4108 O 573.816 -0.678137 -6.08433 0
M  V30 4109 C 571.68 -1.17436 -7.18567 0
M  V30 4110 H 571.712 -0.0804732 -7.31656 0
M  V30 4111 H 572.895 -2.54037 -6.02537 0
M  V30 4112 H 574.379 -2.93881 -7.85526 0
M  V30 4113 H 572.685 -2.53065 -9.86973 0
M  V30 4114 H 572.495 -4.75072 -9.05887 0
M  V30 4115 H 570.865 -4.05244 -8.76668 0
M  V30 4116 H 573.504 0.177647 -6.34251 0
M  V30 4117 P 575.361 -1.25109 -8.70152 0
M  V30 4118 O 576.783 -1.29772 -9.22214 0
M  V30 4119 O 575.001 -2.13714 -7.55141 0
M  V30 4120 O 575.038 0.248149 -8.21425 0
M  V30 4121 C 574.878 1.22779 -9.30434 0
M  V30 4122 C 575.418 2.56265 -8.80568 0
M  V30 4123 O 574.363 3.02979 -8.09349 0
M  V30 4124 C 576.636 2.57523 -7.89775 0
M  V30 4125 O 577.374 3.7668 -7.89438 0
M  V30 4126 C 575.968 2.20997 -6.55446 0
M  V30 4127 O 576.766 2.71851 -5.48419 0
M  V30 4128 C 574.63 2.89693 -6.67988 0
M  V30 4129 N 573.587 2.08895 -6.07487 0
M  V30 4130 C 573.649 0.760559 -6.14209 0
M  V30 4131 N 572.604 0.200108 -5.52538 0
M  V30 4132 C 571.87 1.22692 -5.09742 0
M  V30 4133 C 570.564 1.24782 -4.48775 0
M  V30 4134 O 569.831 0.290617 -4.19294 0
M  V30 4135 N 570.134 2.50468 -4.22428 0
M  V30 4136 C 570.883 3.67142 -4.51974 0
M  V30 4137 N 570.286 4.85096 -4.14091 0
M  V30 4138 N 572.036 3.67821 -5.12831 0
M  V30 4139 C 572.493 2.43698 -5.4105 0
M  V30 4140 H 574.662 3.88793 -6.19859 0
M  V30 4141 H 575.845 1.12029 -6.4413 0
M  V30 4142 H 577.33 1.78279 -8.19533 0
M  V30 4143 H 575.635 3.20706 -9.67112 0
M  V30 4144 H 575.445 0.901032 -10.1892 0
M  V30 4145 H 573.814 1.33049 -9.56592 0
M  V30 4146 H 569.238 2.61953 -3.79465 0
M  V30 4147 H 574.445 0.200439 -6.63497 0
M  V30 4148 H 569.375 4.8334 -3.66367 0
M  V30 4149 H 570.751 5.7474 -4.33841 0
M  V30 4150 H 576.455 3.5779 -5.23879 0
M  V30 4151 P 578.312 3.65191 -7.99657 0
M  V30 4152 O 579.734 3.89332 -8.45794 0
M  V30 4153 O 577.952 2.28472 -7.50807 0
M  V30 4154 O 577.989 4.64972 -6.77611 0
M  V30 4155 C 577.829 6.06319 -7.16352 0
M  V30 4156 C 578.369 6.91731 -6.02299 0
M  V30 4157 O 577.313 6.92449 -5.17064 0
M  V30 4158 C 579.587 6.43627 -5.25174 0
M  V30 4159 O 580.325 7.43686 -4.60469 0
M  V30 4160 C 578.918 5.40275 -4.31916 0
M  V30 4161 O 579.717 5.25279 -3.14438 0
M  V30 4162 C 577.581 6.04847 -4.05327 0
M  V30 4163 H 577.613 6.62195 -3.11261 0
M  V30 4164 H 578.796 4.42556 -4.81383 0
M  V30 4165 H 580.28 5.92458 -5.93643 0
M  V30 4166 H 578.586 7.92655 -6.402 0
M  V30 4167 H 578.396 6.26671 -8.0846 0
M  V30 4168 H 576.766 6.29101 -7.32804 0
M  V30 4169 H 579.405 5.84315 -2.47318 0
M  V30 4170 P 581.262 7.39546 -4.75277 0
M  V30 4171 O 582.684 7.84798 -5.01039 0
M  V30 4172 O 580.902 5.9812 -5.08098 0
M  V30 4173 O 580.939 7.57503 -3.1866 0
M  V30 4174 C 580.779 8.97357 -2.74833 0
M  V30 4175 C 581.319 9.07548 -1.32709 0
M  V30 4176 O 580.263 8.62072 -0.606159 0
M  V30 4177 C 582.537 8.25383 -0.938334 0
M  V30 4178 O 583.275 8.74577 0.146954 0
M  V30 4179 C 581.868 6.8802 -0.712559 0
M  V30 4180 O 582.667 6.1189 0.194655 0
M  V30 4181 C 580.531 7.27966 -0.139777 0
M  V30 4182 H 580.563 7.25354 0.961601 0
M  V30 4183 H 581.746 6.32557 -1.65702 0
M  V30 4184 H 583.23 8.19355 -1.79097 0
M  V30 4185 H 581.536 10.1294 -1.10029 0
M  V30 4186 H 581.346 9.64276 -3.41316 0
M  V30 4187 H 579.716 9.25417 -2.76357 0
M  V30 4188 H 582.355 6.25267 1.07847 0
M  V30 4189 P 584.213 8.791 3.834e-12 0
M  V30 4190 O 585.614 9.36698 -0.018734 0
M  V30 4191 O 583.835 7.82499 -1.07878 0
M  V30 4192 O 583.89 8.09434 1.41446 0
M  V30 4193 C 583.73 9.0349 2.53943 0
M  V30 4194 C 584.27 8.35135 3.78975 0
M  V30 4195 O 583.214 7.57904 4.1503 0
M  V30 4196 C 585.487 7.45087 3.67298 0
M  V30 4197 O 586.226 7.27796 4.85194 0
M  V30 4198 C 584.82 6.17323 3.12027 0
M  V30 4199 O 585.618 5.04149 3.47132 0
M  V30 4200 C 583.482 6.19961 3.81809 0
M  V30 4201 N 582.439 5.71575 2.93223 0
M  V30 4202 C 581.404 4.99452 3.47592 0
M  V30 4203 O 581.443 4.7199 4.69732 0
M  V30 4204 N 580.392 4.58505 2.6803 0
M  V30 4205 C 580.44 4.85544 1.36995 0
M  V30 4206 C 581.536 5.55532 0.788532 0
M  V30 4207 C 582.502 5.97426 1.60849 0
M  V30 4208 H 583.514 5.58142 4.72986 0
M  V30 4209 H 584.697 6.21428 2.0318 0
M  V30 4210 H 586.181 7.85913 2.93131 0
M  V30 4211 H 584.487 9.11171 4.55987 0
M  V30 4212 H 584.296 9.9573 2.34194 0
M  V30 4213 H 582.666 9.27824 2.67805 0
M  V30 4214 H 581.584 5.7421 -0.281588 0
M  V30 4215 H 583.348 6.53132 1.202 0
M  V30 4216 H 585.402 4.76386 4.34983 0
M  V30 4217 P 587.163 7.39546 4.75277 0
M  V30 4218 O 588.584 7.81861 5.05793 0
M  V30 4219 O 586.803 7.1065 3.32998 0
M  V30 4220 O 586.84 6.04542 5.56673 0
M  V30 4221 C 586.679 6.22839 7.02169 0
M  V30 4222 C 587.22 4.97725 7.70406 0
M  V30 4223 O 586.165 4.13208 7.58899 0
M  V30 4224 C 588.438 4.28231 7.11815 0
M  V30 4225 O 589.176 3.49945 8.01648 0
M  V30 4226 C 587.77 3.5063 5.96244 0
M  V30 4227 O 588.568 2.37008 5.64352 0
M  V30 4228 C 586.432 3.15122 6.56374 0
M  V30 4229 N 585.389 3.22311 5.55692 0
M  V30 4230 C 585.558 3.99655 4.46046 0
M  V30 4231 N 584.531 3.97599 3.63918 0
M  V30 4232 C 583.646 3.11159 4.25334 0
M  V30 4233 C 582.379 2.64972 3.85157 0
M  V30 4234 N 581.814 1.78482 4.74759 0
M  V30 4235 C 582.416 1.37463 5.90819 0
M  V30 4236 N 583.593 1.7733 6.31889 0
M  V30 4237 C 584.168 2.64393 5.43725 0
M  V30 4238 H 587.647 4.12931 5.06895 0
M  V30 4239 H 589.13 5.03285 6.70911 0
M  V30 4240 H 587.436 5.20001 8.76217 0
M  V30 4241 H 587.246 7.11046 7.35349 0
M  V30 4242 H 585.616 6.35815 7.26986 0
M  V30 4243 H 586.458 4.58037 4.27732 0
M  V30 4244 H 588.256 1.61619 6.13468 0
M  V30 4245 P 590.114 3.65191 7.99657 0
M  V30 4246 O 591.535 3.84292 8.48206 0
M  V30 4247 O 589.754 4.17805 6.64342 0
M  V30 4248 O 589.791 2.07613 7.95143 0
M  V30 4249 C 589.63 1.44344 9.27435 0
M  V30 4250 C 590.171 0.0220036 9.17197 0
M  V30 4251 O 589.116 -0.626794 8.61824 0
M  V30 4252 C 591.389 -0.24586 8.30336 0
M  V30 4253 O 592.127 -1.39011 8.63583 0
M  V30 4254 C 590.721 -0.273849 6.91158 0
M  V30 4255 O 591.519 -1.05728 6.029 0
M  V30 4256 C 589.383 -0.897649 7.22545 0
M  V30 4257 N 588.34 -0.292839 6.41732 0
M  V30 4258 C 588.509 0.950603 5.91308 0
M  V30 4259 N 587.482 1.37732 5.21105 0
M  V30 4260 C 586.597 0.318109 5.26039 0
M  V30 4261 C 585.33 0.146766 4.6727 0
M  V30 4262 N 584.765 -1.06525 4.95887 0
M  V30 4263 C 585.367 -2.0378 5.71347 0
M  V30 4264 N 586.544 -1.92445 6.27451 0
M  V30 4265 C 587.119 -0.715382 6.00353 0
M  V30 4266 H 590.598 0.733318 6.49674 0
M  V30 4267 H 592.081 0.60668 8.36503 0
M  V30 4268 H 590.387 -0.362662 10.1825 0
M  V30 4269 H 590.197 2.00611 10.0304 0
M  V30 4270 H 588.567 1.41843 9.55327 0
M  V30 4271 H 589.409 1.54076 6.07465 0
M  V30 4272 H 591.207 -1.95704 6.0346 0
M  V30 4273 P 593.065 -1.25109 8.70152 0
M  V30 4274 O 594.487 -1.35274 9.21221 0
M  V30 4275 O 592.705 -0.0769065 7.84762 0
M  V30 4276 O 592.742 -2.55232 7.81161 0
M  V30 4277 C 592.582 -3.79939 8.58154 0
M  V30 4278 C 593.122 -4.94023 7.72785 0
M  V30 4279 O 592.066 -5.18726 6.91205 0
M  V30 4280 C 594.34 -4.69597 6.85231 0
M  V30 4281 O 595.078 -5.83832 6.51337 0
M  V30 4282 C 593.671 -3.96706 5.66633 0
M  V30 4283 O 594.47 -4.15414 4.49689 0
M  V30 4284 C 592.334 -4.66153 5.59313 0
M  V30 4285 H 592.366 -5.47679 4.85214 0
M  V30 4286 H 593.549 -2.89008 5.86566 0
M  V30 4287 H 595.033 -4.0121 7.36511 0
M  V30 4288 H 593.339 -5.80182 8.37584 0
M  V30 4289 H 593.149 -3.73517 9.52265 0
M  V30 4290 H 591.519 -3.97163 8.80359 0
M  V30 4291 H 594.158 -4.90969 4.01921 0
M  V30 4292 P 596.015 -5.75688 6.64379 0
M  V30 4293 O 597.437 -6.11849 7.01846 0
M  V30 4294 O 595.655 -4.30744 6.56026 0
M  V30 4295 O 595.692 -6.37042 5.19165 0
M  V30 4296 C 595.532 -7.83578 5.16515 0
M  V30 4297 C 596.072 -8.33398 3.83019 0
M  V30 4298 O 595.016 -8.10074 3.01034 0
M  V30 4299 C 597.29 -7.65514 3.2257 0
M  V30 4300 O 598.028 -8.4329 2.32297 0
M  V30 4301 C 596.621 -6.40075 2.62207 0
M  V30 4302 O 597.42 -5.92589 1.53712 0
M  V30 4303 C 595.284 -6.9454 2.18503 0
M  V30 4304 H 595.316 -7.23063 1.12091 0
M  V30 4305 H 596.499 -5.6025 3.37201 0
M  V30 4306 H 597.983 -7.35707 4.02681 0
M  V30 4307 H 596.289 -9.40912 3.9095 0
M  V30 4308 H 596.099 -8.29056 5.99158 0
M  V30 4309 H 594.469 -8.10073 5.25882 0
M  V30 4310 H 597.108 -6.30324 0.726794 0
M  V30 4311 P 598.966 -8.4349 2.47671 0
M  V30 4312 O 600.388 -8.94167 2.5964 0
M  V30 4313 O 598.606 -7.1704 3.19006 0
M  V30 4314 O 598.643 -8.16596 0.923387 0
M  V30 4315 C 598.483 -9.38437 0.108857 0
M  V30 4316 C 599.023 -9.08175 -1.28353 0
M  V30 4317 O 597.967 -8.44229 -1.84713 0
M  V30 4318 C 600.241 -8.18386 -1.42505 0
M  V30 4319 O 600.979 -8.3501 -2.60497 0
M  V30 4320 C 599.572 -6.80225 -1.25468 0
M  V30 4321 O 600.371 -5.81621 -1.91066 0
M  V30 4322 C 598.235 -7.02416 -1.9168 0
M  V30 4323 H 598.267 -6.6888 -2.96621 0
M  V30 4324 H 599.45 -6.53617 -0.192223 0
M  V30 4325 H 600.934 -8.36622 -0.589963 0
M  V30 4326 H 599.24 -10.0291 -1.79807 0
M  V30 4327 H 599.05 -10.2138 0.558219 0
M  V30 4328 H 597.42 -9.6579 0.0444202 0
M  V30 4329 H 600.059 -5.69556 -2.79637 0
M  V30 4330 P 601.916 -8.4349 -2.47671 0
M  V30 4331 O 603.338 -8.92593 -2.65 0
M  V30 4332 O 601.556 -7.7568 -1.19296 0
M  V30 4333 O 601.593 -7.36886 -3.63805 0
M  V30 4334 C 601.433 -7.95349 -4.982 0
M  V30 4335 C 601.973 -6.94612 -5.98974 0
M  V30 4336 O 600.917 -6.10347 -6.11815 0
M  V30 4337 C 603.191 -6.11426 -5.62335 0
M  V30 4338 O 603.929 -5.6162 -6.70584 0
M  V30 4339 C 602.522 -5.04409 -4.73308 0
M  V30 4340 O 603.321 -3.85992 -4.75183 0
M  V30 4341 C 601.185 -4.8728 -5.41006 0
M  V30 4342 H 601.217 -4.02333 -6.11157 0
M  V30 4343 H 602.4 -5.39466 -3.69543 0
M  V30 4344 H 603.884 -6.71916 -5.01943 0
M  V30 4345 H 602.19 -7.4649 -6.93477 0
M  V30 4346 H 602 -8.89416 -5.05237 0
M  V30 4347 H 600.37 -8.14876 -5.18409 0
M  V30 4348 H 603.009 -3.27957 -5.4317 0
M  V30 4349 P 604.867 -5.75688 -6.64379 0
M  V30 4350 O 606.288 -6.07692 -7.0558 0
M  V30 4351 O 604.507 -5.88047 -5.19722 0
M  V30 4352 O 604.544 -4.2322 -7.04443 0
M  V30 4353 C 604.383 -3.99785 -8.49201 0
M  V30 4354 C 604.924 -2.60516 -8.79425 0
M  V30 4355 O 603.869 -1.82663 -8.44573 0
M  V30 4356 C 606.142 -2.10343 -8.03628 0
M  V30 4357 O 606.88 -1.09919 -8.67766 0
M  V30 4358 C 605.474 -1.68446 -6.70876 0
M  V30 4359 O 606.272 -0.684109 -6.08265 0
M  V30 4360 C 604.136 -1.17436 -7.18567 0
M  V30 4361 N 603.093 -1.52699 -6.23988 0
M  V30 4362 C 603.262 -2.578 -5.40574 0
M  V30 4363 N 602.235 -2.78966 -4.61193 0
M  V30 4364 C 601.35 -1.78725 -4.95769 0
M  V30 4365 C 600.083 -1.45727 -4.44207 0
M  V30 4366 N 599.484 -2.13994 -3.43613 0
M  V30 4367 N 599.518 -0.374977 -5.05812 0
M  V30 4368 C 600.12 0.345585 -6.05615 0
M  V30 4369 N 601.297 0.0787651 -6.56253 0
M  V30 4370 C 601.872 -1.00499 -5.96189 0
M  V30 4371 H 604.168 -0.0804622 -7.31556 0
M  V30 4372 H 605.351 -2.53396 -6.02698 0
M  V30 4373 H 606.834 -2.93881 -7.85526 0
M  V30 4374 H 605.14 -2.52078 -9.87225 0
M  V30 4375 H 604.95 -4.75072 -9.05887 0
M  V30 4376 H 603.32 -4.05244 -8.76668 0
M  V30 4377 H 599.584 1.20098 -6.4532 0
M  V30 4378 H 604.162 -3.18977 -5.3945 0
M  V30 4379 H 598.554 -1.84983 -3.10004 0
M  V30 4380 H 599.958 -2.9465 -3.00843 0
M  V30 4381 H 605.96 0.177619 -6.34151 0
M  V30 4382 P 607.817 -1.25109 -8.70152 0
M  V30 4383 O 609.239 -1.29744 -9.22016 0
M  V30 4384 O 607.457 -2.13714 -7.55141 0
M  V30 4385 O 607.494 0.248149 -8.21425 0
M  V30 4386 C 607.334 1.22779 -9.30434 0
M  V30 4387 C 607.874 2.56293 -8.80664 0
M  V30 4388 O 606.818 3.02979 -8.09349 0
M  V30 4389 C 609.092 2.57523 -7.89775 0
M  V30 4390 O 609.83 3.7668 -7.89438 0
M  V30 4391 C 608.423 2.20997 -6.55446 0
M  V30 4392 O 609.222 2.71895 -5.48509 0
M  V30 4393 C 607.086 2.89693 -6.67988 0
M  V30 4394 H 607.118 3.88793 -6.19859 0
M  V30 4395 H 608.301 1.12046 -6.44229 0
M  V30 4396 H 609.785 1.7746 -8.19711 0
M  V30 4397 H 608.091 3.20706 -9.67112 0
M  V30 4398 H 607.901 0.901032 -10.1892 0
M  V30 4399 H 606.271 1.33049 -9.56592 0
M  V30 4400 H 608.91 3.57847 -5.23962 0
M  V30 4401 P 610.768 3.65191 -7.99657 0
M  V30 4402 O 612.19 3.89332 -8.45794 0
M  V30 4403 O 610.408 2.28472 -7.50807 0
M  V30 4404 O 610.445 4.64972 -6.77611 0
M  V30 4405 C 610.285 6.06319 -7.16352 0
M  V30 4406 C 610.825 6.91731 -6.02299 0
M  V30 4407 O 609.769 6.92449 -5.17064 0
M  V30 4408 C 612.043 6.43627 -5.25174 0
M  V30 4409 O 612.781 7.43686 -4.60469 0
M  V30 4410 C 611.374 5.40275 -4.31916 0
M  V30 4411 O 612.173 5.25279 -3.14438 0
M  V30 4412 C 610.037 6.04847 -4.05327 0
M  V30 4413 H 610.069 6.62195 -3.11261 0
M  V30 4414 H 611.252 4.42556 -4.81383 0
M  V30 4415 H 612.736 5.92458 -5.93643 0
M  V30 4416 H 611.042 7.92655 -6.402 0
M  V30 4417 H 610.852 6.26671 -8.0846 0
M  V30 4418 H 609.222 6.29101 -7.32804 0
M  V30 4419 H 611.861 5.84315 -2.47318 0
M  V30 4420 P 613.719 7.39546 -4.75277 0
M  V30 4421 O 615.141 7.84798 -5.01039 0
M  V30 4422 O 613.359 5.9812 -5.08098 0
M  V30 4423 O 613.396 7.57503 -3.1866 0
M  V30 4424 C 613.236 8.97357 -2.74833 0
M  V30 4425 C 613.776 9.07548 -1.32709 0
M  V30 4426 O 612.72 8.62072 -0.606159 0
M  V30 4427 C 614.994 8.25383 -0.938334 0
M  V30 4428 O 615.732 8.74577 0.146954 0
M  V30 4429 C 614.325 6.8802 -0.712559 0
M  V30 4430 O 615.124 6.1189 0.194655 0
M  V30 4431 C 612.988 7.27966 -0.139777 0
M  V30 4432 H 613.02 7.25354 0.961601 0
M  V30 4433 H 614.203 6.32557 -1.65702 0
M  V30 4434 H 615.687 8.19355 -1.79097 0
M  V30 4435 H 613.993 10.1294 -1.10029 0
M  V30 4436 H 613.803 9.64276 -3.41316 0
M  V30 4437 H 612.173 9.25417 -2.76357 0
M  V30 4438 H 614.812 6.25267 1.07847 0
M  V30 4439 P 616.669 8.791 4.14417e-12 0
M  V30 4440 O 618.091 9.31096 0.027933 0
M  V30 4441 O 616.309 7.77869 -1.04071 0
M  V30 4442 O 616.346 8.09533 1.41463 0
M  V30 4443 C 616.186 9.0349 2.53943 0
M  V30 4444 C 616.726 8.35226 3.79016 0
M  V30 4445 O 615.67 7.57992 4.15078 0
M  V30 4446 C 617.944 7.45087 3.67298 0
M  V30 4447 O 618.682 7.27796 4.85194 0
M  V30 4448 C 617.275 6.17323 3.12027 0
M  V30 4449 O 618.074 5.04231 3.47188 0
M  V30 4450 C 615.938 6.19961 3.81809 0
M  V30 4451 H 615.97 5.58218 4.73051 0
M  V30 4452 H 617.153 6.21726 2.02589 0
M  V30 4453 H 618.637 7.86112 2.9231 0
M  V30 4454 H 616.943 9.11627 4.55076 0
M  V30 4455 H 616.753 9.9573 2.34194 0
M  V30 4456 H 615.123 9.2792 2.67832 0
M  V30 4457 H 617.762 4.67702 4.28772 0
M  V30 4458 P 619.62 7.39546 4.75277 0
M  V30 4459 O 621.042 7.81777 5.05738 0
M  V30 4460 O 619.26 7.1065 3.32998 0
M  V30 4461 O 619.297 6.04542 5.56673 0
M  V30 4462 C 619.137 6.22772 7.02095 0
M  V30 4463 C 619.677 4.97725 7.70406 0
M  V30 4464 O 618.621 4.13256 7.58987 0
M  V30 4465 C 620.895 4.28231 7.11815 0
M  V30 4466 O 621.633 3.49945 8.01648 0
M  V30 4467 C 620.226 3.5063 5.96244 0
M  V30 4468 O 621.025 2.36482 5.64681 0
M  V30 4469 C 618.889 3.15122 6.56374 0
M  V30 4470 H 618.921 2.13853 6.99751 0
M  V30 4471 H 620.104 4.13501 5.06559 0
M  V30 4472 H 621.588 5.03285 6.70911 0
M  V30 4473 H 619.894 5.20877 8.75697 0
M  V30 4474 H 619.704 7.11046 7.35349 0
M  V30 4475 H 618.074 6.35815 7.26986 0
M  V30 4476 H 620.713 1.61644 6.13565 0
M  V30 4477 P 622.57 3.65191 7.99657 0
M  V30 4478 O 623.992 3.8425 8.48115 0
M  V30 4479 O 622.21 4.17805 6.64342 0
M  V30 4480 O 622.247 2.07613 7.95143 0
M  V30 4481 C 622.087 1.44328 9.27336 0
M  V30 4482 C 622.627 0.0220036 9.17197 0
M  V30 4483 O 621.571 -0.626867 8.61923 0
M  V30 4484 C 623.845 -0.24586 8.30336 0
M  V30 4485 O 624.583 -1.39011 8.63583 0
M  V30 4486 C 623.176 -0.273849 6.91158 0
M  V30 4487 O 623.975 -1.06348 6.02892 0
M  V30 4488 C 621.839 -0.897649 7.22545 0
M  V30 4489 H 621.871 -1.9841 7.04286 0
M  V30 4490 H 623.054 0.739928 6.497 0
M  V30 4491 H 624.538 0.60668 8.36503 0
M  V30 4492 H 622.844 -0.352479 10.1829 0
M  V30 4493 H 622.654 2.00611 10.0304 0
M  V30 4494 H 621.024 1.41843 9.55327 0
M  V30 4495 H 623.663 -1.95734 6.03555 0
M  V30 4496 P 625.521 -1.25109 8.70152 0
M  V30 4497 O 626.943 -1.35274 9.21221 0
M  V30 4498 O 625.161 -0.0769065 7.84762 0
M  V30 4499 O 625.198 -2.55232 7.81161 0
M  V30 4500 C 625.038 -3.79939 8.58154 0
M  V30 4501 C 625.578 -4.94023 7.72785 0
M  V30 4502 O 624.522 -5.18726 6.91205 0
M  V30 4503 C 626.796 -4.69597 6.85231 0
M  V30 4504 O 627.534 -5.83832 6.51337 0
M  V30 4505 C 626.127 -3.96706 5.66633 0
M  V30 4506 O 626.926 -4.15414 4.49689 0
M  V30 4507 C 624.79 -4.66153 5.59313 0
M  V30 4508 H 624.822 -5.47679 4.85214 0
M  V30 4509 H 626.005 -2.89008 5.86566 0
M  V30 4510 H 627.489 -4.0121 7.36511 0
M  V30 4511 H 625.795 -5.80182 8.37584 0
M  V30 4512 H 625.605 -3.73517 9.52265 0
M  V30 4513 H 623.975 -3.97163 8.80359 0
M  V30 4514 H 626.614 -4.90969 4.01921 0
M  V30 4515 P 628.471 -5.75688 6.64379 0
M  V30 4516 O 629.893 -6.11849 7.01846 0
M  V30 4517 O 628.111 -4.30744 6.56026 0
M  V30 4518 O 628.148 -6.37042 5.19165 0
M  V30 4519 C 627.988 -7.83578 5.16515 0
M  V30 4520 C 628.528 -8.33398 3.83019 0
M  V30 4521 O 627.472 -8.10074 3.01034 0
M  V30 4522 C 629.746 -7.65514 3.2257 0
M  V30 4523 O 630.484 -8.4329 2.32297 0
M  V30 4524 C 629.077 -6.40075 2.62207 0
M  V30 4525 O 629.876 -5.92589 1.53712 0
M  V30 4526 C 627.74 -6.9454 2.18503 0
M  V30 4527 H 627.772 -7.23063 1.12091 0
M  V30 4528 H 628.955 -5.6025 3.37201 0
M  V30 4529 H 630.439 -7.35707 4.02681 0
M  V30 4530 H 628.745 -9.40912 3.9095 0
M  V30 4531 H 628.555 -8.29056 5.99158 0
M  V30 4532 H 626.925 -8.10073 5.25882 0
M  V30 4533 H 629.564 -6.30324 0.726794 0
M  V30 4534 P 631.422 -8.4349 2.47671 0
M  V30 4535 O 632.844 -8.94167 2.5964 0
M  V30 4536 O 631.062 -7.1704 3.19006 0
M  V30 4537 O 631.099 -8.16596 0.923387 0
M  V30 4538 C 630.939 -9.38437 0.108857 0
M  V30 4539 C 631.479 -9.08175 -1.28353 0
M  V30 4540 O 630.423 -8.44229 -1.84713 0
M  V30 4541 C 632.697 -8.18386 -1.42505 0
M  V30 4542 O 633.435 -8.3501 -2.60497 0
M  V30 4543 C 632.028 -6.80225 -1.25468 0
M  V30 4544 O 632.827 -5.81621 -1.91066 0
M  V30 4545 C 630.691 -7.02416 -1.9168 0
M  V30 4546 H 630.723 -6.6888 -2.96621 0
M  V30 4547 H 631.906 -6.53617 -0.192223 0
M  V30 4548 H 633.39 -8.36622 -0.589963 0
M  V30 4549 H 631.696 -10.0291 -1.79807 0
M  V30 4550 H 631.506 -10.2138 0.558219 0
M  V30 4551 H 629.876 -9.6579 0.0444202 0
M  V30 4552 H 632.515 -5.69556 -2.79637 0
M  V30 4553 P 634.373 -8.4349 -2.47671 0
M  V30 4554 O 635.795 -8.92593 -2.65 0
M  V30 4555 O 634.013 -7.7568 -1.19296 0
M  V30 4556 O 634.05 -7.36886 -3.63805 0
M  V30 4557 C 633.89 -7.95349 -4.982 0
M  V30 4558 C 634.43 -6.94612 -5.98974 0
M  V30 4559 O 633.374 -6.10347 -6.11815 0
M  V30 4560 C 635.648 -6.11426 -5.62335 0
M  V30 4561 O 636.386 -5.6162 -6.70584 0
M  V30 4562 C 634.979 -5.04409 -4.73308 0
M  V30 4563 O 635.778 -3.85992 -4.75183 0
M  V30 4564 C 633.642 -4.8728 -5.41006 0
M  V30 4565 H 633.674 -4.02333 -6.11157 0
M  V30 4566 H 634.857 -5.39466 -3.69543 0
M  V30 4567 H 636.341 -6.71916 -5.01943 0
M  V30 4568 H 634.647 -7.4649 -6.93477 0
M  V30 4569 H 634.457 -8.89416 -5.05237 0
M  V30 4570 H 632.827 -8.14876 -5.18409 0
M  V30 4571 H 635.466 -3.27957 -5.4317 0
M  V30 4572 P 637.323 -5.75688 -6.64379 0
M  V30 4573 O 638.745 -6.07758 -7.05656 0
M  V30 4574 O 636.963 -5.88047 -5.19722 0
M  V30 4575 O 637 -4.2322 -7.04443 0
M  V30 4576 C 636.84 -3.99743 -8.4911 0
M  V30 4577 C 637.38 -2.60487 -8.79329 0
M  V30 4578 O 636.325 -1.82684 -8.4467 0
M  V30 4579 C 638.598 -2.10343 -8.03628 0
M  V30 4580 O 639.336 -1.09919 -8.67766 0
M  V30 4581 C 637.93 -1.68446 -6.70876 0
M  V30 4582 O 638.728 -0.678026 -6.08333 0
M  V30 4583 C 636.592 -1.17436 -7.18567 0
M  V30 4584 N 635.549 -1.52699 -6.23988 0
M  V30 4585 C 635.611 -2.68084 -5.57824 0
M  V30 4586 N 634.566 -2.8189 -4.75643 0
M  V30 4587 C 633.832 -1.72373 -4.95155 0
M  V30 4588 C 632.526 -1.37653 -4.44996 0
M  V30 4589 O 631.793 -2.02239 -3.68445 0
M  V30 4590 N 632.096 -0.17675 -4.90782 0
M  V30 4591 C 632.845 0.645036 -5.78716 0
M  V30 4592 N 632.248 1.84214 -6.10618 0
M  V30 4593 N 633.998 0.321732 -6.30279 0
M  V30 4594 C 634.455 -0.87502 -5.86913 0
M  V30 4595 H 636.624 -0.0804732 -7.31656 0
M  V30 4596 H 637.807 -2.53998 -6.02444 0
M  V30 4597 H 639.292 -2.93095 -7.8582 0
M  V30 4598 H 637.597 -2.53065 -9.86973 0
M  V30 4599 H 637.407 -4.75072 -9.05887 0
M  V30 4600 H 635.776 -4.05244 -8.76668 0
M  V30 4601 H 631.2 0.152143 -4.60849 0
M  V30 4602 H 636.407 -3.41852 -5.69006 0
M  V30 4603 H 631.337 2.08538 -5.69521 0
M  V30 4604 H 632.713 2.4895 -6.75698 0
M  V30 4605 H 638.417 0.177619 -6.34151 0
M  V30 4606 P 640.274 -1.25109 -8.70152 0
M  V30 4607 O 641.696 -1.29744 -9.22016 0
M  V30 4608 O 639.914 -2.13714 -7.55141 0
M  V30 4609 O 639.951 0.248149 -8.21425 0
M  V30 4610 C 639.791 1.22779 -9.30434 0
M  V30 4611 C 640.331 2.56293 -8.80664 0
M  V30 4612 O 639.275 3.02979 -8.09349 0
M  V30 4613 C 641.549 2.57523 -7.89775 0
M  V30 4614 O 642.287 3.7668 -7.89438 0
M  V30 4615 C 640.88 2.20997 -6.55446 0
M  V30 4616 O 641.679 2.71895 -5.48509 0
M  V30 4617 C 639.543 2.89693 -6.67988 0
M  V30 4618 H 639.575 3.88793 -6.19859 0
M  V30 4619 H 640.758 1.12046 -6.44229 0
M  V30 4620 H 642.242 1.7746 -8.19711 0
M  V30 4621 H 640.548 3.20706 -9.67112 0
M  V30 4622 H 640.358 0.901032 -10.1892 0
M  V30 4623 H 638.728 1.33049 -9.56592 0
M  V30 4624 H 641.367 3.57847 -5.23962 0
M  V30 4625 P 643.224 3.65191 -7.99657 0
M  V30 4626 O 644.646 3.89332 -8.45794 0
M  V30 4627 O 642.864 2.28472 -7.50807 0
M  V30 4628 O 642.901 4.64972 -6.77611 0
M  V30 4629 C 642.741 6.06319 -7.16352 0
M  V30 4630 C 643.281 6.91731 -6.02299 0
M  V30 4631 O 642.225 6.92449 -5.17064 0
M  V30 4632 C 644.499 6.43627 -5.25174 0
M  V30 4633 O 645.237 7.43686 -4.60469 0
M  V30 4634 C 643.83 5.40275 -4.31916 0
M  V30 4635 O 644.629 5.25279 -3.14438 0
M  V30 4636 C 642.493 6.04847 -4.05327 0
M  V30 4637 H 642.525 6.62195 -3.11261 0
M  V30 4638 H 643.708 4.42556 -4.81383 0
M  V30 4639 H 645.192 5.92458 -5.93643 0
M  V30 4640 H 643.498 7.92655 -6.402 0
M  V30 4641 H 643.308 6.26671 -8.0846 0
M  V30 4642 H 641.678 6.29101 -7.32804 0
M  V30 4643 H 644.317 5.84315 -2.47318 0
M  V30 4644 P 646.175 7.39546 -4.75277 0
M  V30 4645 O 647.597 7.84798 -5.01039 0
M  V30 4646 O 645.815 5.9812 -5.08098 0
M  V30 4647 O 645.852 7.57503 -3.1866 0
M  V30 4648 C 645.692 8.97357 -2.74833 0
M  V30 4649 C 646.232 9.07548 -1.32709 0
M  V30 4650 O 645.176 8.62072 -0.606159 0
M  V30 4651 C 647.45 8.25383 -0.938334 0
M  V30 4652 O 648.188 8.74577 0.146954 0
M  V30 4653 C 646.781 6.8802 -0.712559 0
M  V30 4654 O 647.58 6.1189 0.194655 0
M  V30 4655 C 645.444 7.27966 -0.139777 0
M  V30 4656 H 645.476 7.25354 0.961601 0
M  V30 4657 H 646.659 6.32557 -1.65702 0
M  V30 4658 H 648.143 8.19355 -1.79097 0
M  V30 4659 H 646.449 10.1294 -1.10029 0
M  V30 4660 H 646.259 9.64276 -3.41316 0
M  V30 4661 H 644.629 9.25417 -2.76357 0
M  V30 4662 H 647.268 6.25267 1.07847 0
M  V30 4663 P 649.125 8.791 4.45433e-12 0
M  V30 4664 O 650.547 9.31096 0.027933 0
M  V30 4665 O 648.765 7.77869 -1.04071 0
M  V30 4666 O 648.802 8.09533 1.41463 0
M  V30 4667 C 648.642 9.0349 2.53943 0
M  V30 4668 C 649.182 8.35226 3.79016 0
M  V30 4669 O 648.126 7.57992 4.15078 0
M  V30 4670 C 650.4 7.45087 3.67298 0
M  V30 4671 O 651.138 7.27796 4.85194 0
M  V30 4672 C 649.731 6.17323 3.12027 0
M  V30 4673 O 650.53 5.04231 3.47188 0
M  V30 4674 C 648.394 6.19961 3.81809 0
M  V30 4675 H 648.426 5.58218 4.73051 0
M  V30 4676 H 649.609 6.21726 2.02589 0
M  V30 4677 H 651.093 7.86112 2.9231 0
M  V30 4678 H 649.399 9.11627 4.55076 0
M  V30 4679 H 649.209 9.9573 2.34194 0
M  V30 4680 H 647.579 9.2792 2.67832 0
M  V30 4681 H 650.218 4.67702 4.28772 0
M  V30 4682 P 652.076 7.39546 4.75277 0
M  V30 4683 O 653.498 7.81777 5.05738 0
M  V30 4684 O 651.716 7.1065 3.32998 0
M  V30 4685 O 651.753 6.04542 5.56673 0
M  V30 4686 C 651.593 6.22772 7.02095 0
M  V30 4687 C 652.133 4.97725 7.70406 0
M  V30 4688 O 651.077 4.13256 7.58987 0
M  V30 4689 C 653.351 4.28231 7.11815 0
M  V30 4690 O 654.089 3.49945 8.01648 0
M  V30 4691 C 652.682 3.5063 5.96244 0
M  V30 4692 O 653.481 2.36482 5.64681 0
M  V30 4693 C 651.345 3.15122 6.56374 0
M  V30 4694 H 651.377 2.13853 6.99751 0
M  V30 4695 H 652.56 4.13501 5.06559 0
M  V30 4696 H 654.044 5.03285 6.70911 0
M  V30 4697 H 652.35 5.20877 8.75697 0
M  V30 4698 H 652.16 7.11046 7.35349 0
M  V30 4699 H 650.53 6.35815 7.26986 0
M  V30 4700 H 653.169 1.61644 6.13565 0
M  V30 4701 P 655.027 3.65191 7.99657 0
M  V30 4702 O 656.449 3.8425 8.48115 0
M  V30 4703 O 654.667 4.17805 6.64342 0
M  V30 4704 O 654.704 2.07613 7.95143 0
M  V30 4705 C 654.544 1.44328 9.27336 0
M  V30 4706 C 655.084 0.0220036 9.17197 0
M  V30 4707 O 654.028 -0.626867 8.61923 0
M  V30 4708 C 656.302 -0.24586 8.30336 0
M  V30 4709 O 657.04 -1.39011 8.63583 0
M  V30 4710 C 655.633 -0.273849 6.91158 0
M  V30 4711 O 656.432 -1.06348 6.02892 0
M  V30 4712 C 654.296 -0.897649 7.22545 0
M  V30 4713 H 654.328 -1.9841 7.04286 0
M  V30 4714 H 655.511 0.739928 6.497 0
M  V30 4715 H 656.995 0.60668 8.36503 0
M  V30 4716 H 655.301 -0.352479 10.1829 0
M  V30 4717 H 655.111 2.00611 10.0304 0
M  V30 4718 H 653.481 1.41843 9.55327 0
M  V30 4719 H 656.12 -1.95734 6.03555 0
M  V30 4720 P 657.977 -1.25109 8.70152 0
M  V30 4721 O 659.399 -1.35274 9.21221 0
M  V30 4722 O 657.617 -0.0769065 7.84762 0
M  V30 4723 O 657.654 -2.55232 7.81161 0
M  V30 4724 C 657.494 -3.79939 8.58154 0
M  V30 4725 C 658.034 -4.94023 7.72785 0
M  V30 4726 O 656.978 -5.18726 6.91205 0
M  V30 4727 C 659.252 -4.69597 6.85231 0
M  V30 4728 O 659.99 -5.83832 6.51337 0
M  V30 4729 C 658.583 -3.96706 5.66633 0
M  V30 4730 O 659.382 -4.15414 4.49689 0
M  V30 4731 C 657.246 -4.66153 5.59313 0
M  V30 4732 H 657.278 -5.47679 4.85214 0
M  V30 4733 H 658.461 -2.89008 5.86566 0
M  V30 4734 H 659.945 -4.0121 7.36511 0
M  V30 4735 H 658.251 -5.80182 8.37584 0
M  V30 4736 H 658.061 -3.73517 9.52265 0
M  V30 4737 H 656.431 -3.97163 8.80359 0
M  V30 4738 H 659.07 -4.90969 4.01921 0
M  V30 4739 P 660.928 -5.75688 6.64379 0
M  V30 4740 O 662.35 -6.11849 7.01846 0
M  V30 4741 O 660.568 -4.30744 6.56026 0
M  V30 4742 O 660.605 -6.37042 5.19165 0
M  V30 4743 C 660.445 -7.83578 5.16515 0
M  V30 4744 C 660.985 -8.33398 3.83019 0
M  V30 4745 O 659.929 -8.10074 3.01034 0
M  V30 4746 C 662.203 -7.65514 3.2257 0
M  V30 4747 O 662.941 -8.4329 2.32297 0
M  V30 4748 C 661.534 -6.40075 2.62207 0
M  V30 4749 O 662.333 -5.92589 1.53712 0
M  V30 4750 C 660.197 -6.9454 2.18503 0
M  V30 4751 H 660.229 -7.23063 1.12091 0
M  V30 4752 H 661.412 -5.6025 3.37201 0
M  V30 4753 H 662.896 -7.35707 4.02681 0
M  V30 4754 H 661.202 -9.40912 3.9095 0
M  V30 4755 H 661.012 -8.29056 5.99158 0
M  V30 4756 H 659.382 -8.10073 5.25882 0
M  V30 4757 H 662.021 -6.30324 0.726794 0
M  V30 4758 P 663.878 -8.4349 2.47671 0
M  V30 4759 O 665.3 -8.94167 2.5964 0
M  V30 4760 O 663.518 -7.1704 3.19006 0
M  V30 4761 O 663.555 -8.16596 0.923387 0
M  V30 4762 C 663.395 -9.38437 0.108857 0
M  V30 4763 C 663.935 -9.08175 -1.28353 0
M  V30 4764 O 662.879 -8.44229 -1.84713 0
M  V30 4765 C 665.153 -8.18386 -1.42505 0
M  V30 4766 O 665.891 -8.3501 -2.60497 0
M  V30 4767 C 664.484 -6.80225 -1.25468 0
M  V30 4768 O 665.283 -5.81621 -1.91066 0
M  V30 4769 C 663.147 -7.02416 -1.9168 0
M  V30 4770 H 663.179 -6.6888 -2.96621 0
M  V30 4771 H 664.362 -6.53617 -0.192223 0
M  V30 4772 H 665.846 -8.36622 -0.589963 0
M  V30 4773 H 664.152 -10.0291 -1.79807 0
M  V30 4774 H 663.962 -10.2138 0.558219 0
M  V30 4775 H 662.332 -9.6579 0.0444202 0
M  V30 4776 H 664.971 -5.69556 -2.79637 0
M  V30 4777 P 666.829 -8.4349 -2.47671 0
M  V30 4778 O 668.251 -8.92593 -2.65 0
M  V30 4779 O 666.469 -7.7568 -1.19296 0
M  V30 4780 O 666.506 -7.36886 -3.63805 0
M  V30 4781 C 666.346 -7.95349 -4.982 0
M  V30 4782 C 666.886 -6.94612 -5.98974 0
M  V30 4783 O 665.83 -6.10347 -6.11815 0
M  V30 4784 C 668.104 -6.11426 -5.62335 0
M  V30 4785 O 668.842 -5.6162 -6.70584 0
M  V30 4786 C 667.435 -5.04409 -4.73308 0
M  V30 4787 O 668.234 -3.85992 -4.75183 0
M  V30 4788 C 666.098 -4.8728 -5.41006 0
M  V30 4789 H 666.13 -4.02333 -6.11157 0
M  V30 4790 H 667.313 -5.39466 -3.69543 0
M  V30 4791 H 668.797 -6.71916 -5.01943 0
M  V30 4792 H 667.103 -7.4649 -6.93477 0
M  V30 4793 H 666.913 -8.89416 -5.05237 0
M  V30 4794 H 665.283 -8.14876 -5.18409 0
M  V30 4795 H 667.922 -3.27957 -5.4317 0
M  V30 4796 P 669.779 -5.75688 -6.64379 0
M  V30 4797 O 671.201 -6.07627 -7.05504 0
M  V30 4798 O 669.419 -5.88047 -5.19722 0
M  V30 4799 O 669.456 -4.2322 -7.04443 0
M  V30 4800 C 669.296 -3.99743 -8.4911 0
M  V30 4801 C 669.836 -2.60516 -8.79425 0
M  V30 4802 O 668.78 -1.82684 -8.4467 0
M  V30 4803 C 671.054 -2.10343 -8.03628 0
M  V30 4804 O 671.792 -1.09919 -8.67766 0
M  V30 4805 C 670.385 -1.68446 -6.70876 0
M  V30 4806 O 671.184 -0.678137 -6.08433 0
M  V30 4807 C 669.048 -1.17436 -7.18567 0
M  V30 4808 H 669.08 -0.0804732 -7.31656 0
M  V30 4809 H 670.263 -2.54037 -6.02537 0
M  V30 4810 H 671.747 -2.93881 -7.85526 0
M  V30 4811 H 670.053 -2.53065 -9.86973 0
M  V30 4812 H 669.863 -4.75072 -9.05887 0
M  V30 4813 H 668.233 -4.05244 -8.76668 0
M  V30 4814 H 670.872 0.177647 -6.34251 0
M  V30 4815 P 672.73 -1.25109 -8.70152 0
M  V30 4816 O 674.152 -1.29744 -9.22016 0
M  V30 4817 O 672.37 -2.13714 -7.55141 0
M  V30 4818 O 672.407 0.248149 -8.21425 0
M  V30 4819 C 672.247 1.22779 -9.30434 0
M  V30 4820 C 672.787 2.56293 -8.80664 0
M  V30 4821 O 671.731 3.02979 -8.09349 0
M  V30 4822 C 674.005 2.57523 -7.89775 0
M  V30 4823 O 674.743 3.7668 -7.89438 0
M  V30 4824 C 673.336 2.20997 -6.55446 0
M  V30 4825 O 674.135 2.71895 -5.48509 0
M  V30 4826 C 671.999 2.89693 -6.67988 0
M  V30 4827 H 672.031 3.88793 -6.19859 0
M  V30 4828 H 673.214 1.12046 -6.44229 0
M  V30 4829 H 674.698 1.7746 -8.19711 0
M  V30 4830 H 673.004 3.20706 -9.67112 0
M  V30 4831 H 672.814 0.901032 -10.1892 0
M  V30 4832 H 671.184 1.33049 -9.56592 0
M  V30 4833 H 673.823 3.57847 -5.23962 0
M  V30 4834 P 675.681 3.65191 -7.99657 0
M  V30 4835 O 677.103 3.89332 -8.45794 0
M  V30 4836 O 675.321 2.28472 -7.50807 0
M  V30 4837 O 675.358 4.64972 -6.77611 0
M  V30 4838 C 675.198 6.06319 -7.16352 0
M  V30 4839 C 675.738 6.91731 -6.02299 0
M  V30 4840 O 674.682 6.92449 -5.17064 0
M  V30 4841 C 676.956 6.43627 -5.25174 0
M  V30 4842 O 677.694 7.43686 -4.60469 0
M  V30 4843 C 676.287 5.40275 -4.31916 0
M  V30 4844 O 677.086 5.25279 -3.14438 0
M  V30 4845 C 674.95 6.04847 -4.05327 0
M  V30 4846 H 674.982 6.62195 -3.11261 0
M  V30 4847 H 676.165 4.42556 -4.81383 0
M  V30 4848 H 677.649 5.92458 -5.93643 0
M  V30 4849 H 675.955 7.92655 -6.402 0
M  V30 4850 H 675.765 6.26671 -8.0846 0
M  V30 4851 H 674.135 6.29101 -7.32804 0
M  V30 4852 H 676.774 5.84315 -2.47318 0
M  V30 4853 P 678.631 7.39546 -4.75277 0
M  V30 4854 O 680.053 7.84966 -5.01146 0
M  V30 4855 O 678.271 5.9812 -5.08098 0
M  V30 4856 O 678.308 7.57503 -3.1866 0
M  V30 4857 C 678.148 8.97357 -2.74833 0
M  V30 4858 C 678.688 9.0745 -1.32694 0
M  V30 4859 O 677.633 8.62072 -0.606159 0
M  V30 4860 C 679.906 8.25383 -0.938334 0
M  V30 4861 O 680.644 8.74577 0.146954 0
M  V30 4862 C 679.238 6.8802 -0.712559 0
M  V30 4863 O 680.036 6.11791 0.194623 0
M  V30 4864 C 677.9 7.27966 -0.139777 0
M  V30 4865 N 676.857 6.39368 -0.623421 0
M  V30 4866 C 676.919 5.90299 -1.85969 0
M  V30 4867 N 675.874 5.10919 -2.1133 0
M  V30 4868 C 675.14 5.14646 -1.0015 0
M  V30 4869 C 673.834 4.60057 -0.729219 0
M  V30 4870 O 673.101 3.93476 -1.47746 0
M  V30 4871 N 673.404 4.88302 0.523505 0
M  V30 4872 C 674.153 5.63646 1.46207 0
M  V30 4873 N 673.556 5.78186 2.69239 0
M  V30 4874 N 675.306 6.19285 1.21544 0
M  V30 4875 C 675.763 5.93392 -0.0308487 0
M  V30 4876 H 677.932 7.25354 0.961601 0
M  V30 4877 H 679.115 6.3246 -1.65676 0
M  V30 4878 H 680.6 8.19533 -1.78278 0
M  V30 4879 H 678.905 10.1294 -1.10029 0
M  V30 4880 H 678.715 9.64276 -3.41316 0
M  V30 4881 H 677.084 9.25417 -2.76357 0
M  V30 4882 H 672.508 4.53993 0.806451 0
M  V30 4883 H 677.715 6.11865 -2.57394 0
M  V30 4884 H 672.645 5.34046 2.87467 0
M  V30 4885 H 674.021 6.33391 3.42578 0
M  V30 4886 H 679.725 6.25169 1.0783 0
M  V30 4887 P 681.582 8.791 4.7645e-12 0
M  V30 4888 O 683.004 9.31096 0.027933 0
M  V30 4889 O 681.222 7.77869 -1.04071 0
M  V30 4890 O 681.259 8.09533 1.41463 0
M  V30 4891 C 681.099 9.0349 2.53943 0
M  V30 4892 C 681.639 8.35226 3.79016 0
M  V30 4893 O 680.583 7.57992 4.15078 0
M  V30 4894 C 682.857 7.45087 3.67298 0
M  V30 4895 O 683.595 7.27796 4.85194 0
M  V30 4896 C 682.188 6.17323 3.12027 0
M  V30 4897 O 682.987 5.04231 3.47188 0
M  V30 4898 C 680.851 6.19961 3.81809 0
M  V30 4899 H 680.883 5.58218 4.73051 0
M  V30 4900 H 682.066 6.21726 2.02589 0
M  V30 4901 H 683.55 7.86112 2.9231 0
M  V30 4902 H 681.856 9.11627 4.55076 0
M  V30 4903 H 681.666 9.9573 2.34194 0
M  V30 4904 H 680.036 9.2792 2.67832 0
M  V30 4905 H 682.675 4.67702 4.28772 0
M  V30 4906 P 684.532 7.39546 4.75277 0
M  V30 4907 O 685.954 7.81777 5.05738 0
M  V30 4908 O 684.172 7.1065 3.32998 0
M  V30 4909 O 684.209 6.04542 5.56673 0
M  V30 4910 C 684.049 6.22772 7.02095 0
M  V30 4911 C 684.589 4.97725 7.70406 0
M  V30 4912 O 683.533 4.13256 7.58987 0
M  V30 4913 C 685.807 4.28231 7.11815 0
M  V30 4914 O 686.545 3.49945 8.01648 0
M  V30 4915 C 685.138 3.5063 5.96244 0
M  V30 4916 O 685.937 2.36482 5.64681 0
M  V30 4917 C 683.801 3.15122 6.56374 0
M  V30 4918 H 683.833 2.13853 6.99751 0
M  V30 4919 H 685.016 4.13501 5.06559 0
M  V30 4920 H 686.5 5.03285 6.70911 0
M  V30 4921 H 684.806 5.20877 8.75697 0
M  V30 4922 H 684.616 7.11046 7.35349 0
M  V30 4923 H 682.986 6.35815 7.26986 0
M  V30 4924 H 685.625 1.61644 6.13565 0
M  V30 4925 P 687.483 3.65191 7.99657 0
M  V30 4926 O 688.905 3.8425 8.48115 0
M  V30 4927 O 687.123 4.17805 6.64342 0
M  V30 4928 O 687.16 2.07613 7.95143 0
M  V30 4929 C 687 1.44328 9.27336 0
M  V30 4930 C 687.54 0.0220036 9.17197 0
M  V30 4931 O 686.484 -0.626867 8.61923 0
M  V30 4932 C 688.758 -0.24586 8.30336 0
M  V30 4933 O 689.496 -1.39011 8.63583 0
M  V30 4934 C 688.089 -0.273849 6.91158 0
M  V30 4935 O 688.888 -1.06348 6.02892 0
M  V30 4936 C 686.752 -0.897649 7.22545 0
M  V30 4937 H 686.784 -1.9841 7.04286 0
M  V30 4938 H 687.967 0.739928 6.497 0
M  V30 4939 H 689.451 0.60668 8.36503 0
M  V30 4940 H 687.757 -0.352479 10.1829 0
M  V30 4941 H 687.567 2.00611 10.0304 0
M  V30 4942 H 685.937 1.41843 9.55327 0
M  V30 4943 H 688.576 -1.95734 6.03555 0
M  V30 4944 P 690.433 -1.25109 8.70152 0
M  V30 4945 O 691.855 -1.35274 9.21221 0
M  V30 4946 O 690.073 -0.0769065 7.84762 0
M  V30 4947 O 690.11 -2.55232 7.81161 0
M  V30 4948 C 689.95 -3.79939 8.58154 0
M  V30 4949 C 690.49 -4.94023 7.72785 0
M  V30 4950 O 689.434 -5.18726 6.91205 0
M  V30 4951 C 691.708 -4.69597 6.85231 0
M  V30 4952 O 692.446 -5.83832 6.51337 0
M  V30 4953 C 691.039 -3.96706 5.66633 0
M  V30 4954 O 691.838 -4.15414 4.49689 0
M  V30 4955 C 689.702 -4.66153 5.59313 0
M  V30 4956 H 689.734 -5.47679 4.85214 0
M  V30 4957 H 690.917 -2.89008 5.86566 0
M  V30 4958 H 692.401 -4.0121 7.36511 0
M  V30 4959 H 690.707 -5.80182 8.37584 0
M  V30 4960 H 690.517 -3.73517 9.52265 0
M  V30 4961 H 688.887 -3.97163 8.80359 0
M  V30 4962 H 691.526 -4.90969 4.01921 0
M  V30 4963 P 693.384 -5.75688 6.64379 0
M  V30 4964 O 694.806 -6.11849 7.01846 0
M  V30 4965 O 693.024 -4.30744 6.56026 0
M  V30 4966 O 693.061 -6.37042 5.19165 0
M  V30 4967 C 692.901 -7.83578 5.16515 0
M  V30 4968 C 693.441 -8.33398 3.83019 0
M  V30 4969 O 692.385 -8.10074 3.01034 0
M  V30 4970 C 694.659 -7.65514 3.2257 0
M  V30 4971 O 695.397 -8.4329 2.32297 0
M  V30 4972 C 693.99 -6.40075 2.62207 0
M  V30 4973 O 694.789 -5.92589 1.53712 0
M  V30 4974 C 692.653 -6.9454 2.18503 0
M  V30 4975 H 692.685 -7.23063 1.12091 0
M  V30 4976 H 693.868 -5.6025 3.37201 0
M  V30 4977 H 695.352 -7.35707 4.02681 0
M  V30 4978 H 693.658 -9.40912 3.9095 0
M  V30 4979 H 693.468 -8.29056 5.99158 0
M  V30 4980 H 691.838 -8.10073 5.25882 0
M  V30 4981 H 694.477 -6.30324 0.726794 0
M  V30 4982 P 696.335 -8.4349 2.47671 0
M  V30 4983 O 697.756 -8.94263 2.59668 0
M  V30 4984 O 695.975 -7.1704 3.19006 0
M  V30 4985 O 696.012 -8.16596 0.923387 0
M  V30 4986 C 695.851 -9.38537 0.108869 0
M  V30 4987 C 696.392 -9.08175 -1.28353 0
M  V30 4988 O 695.337 -8.44131 -1.84692 0
M  V30 4989 C 697.61 -8.18386 -1.42505 0
M  V30 4990 O 698.348 -8.3501 -2.60497 0
M  V30 4991 C 696.942 -6.80225 -1.25468 0
M  V30 4992 O 697.74 -5.81716 -1.90454 0
M  V30 4993 C 695.604 -7.02416 -1.9168 0
M  V30 4994 N 694.561 -6.31033 -1.20314 0
M  V30 4995 C 694.73 -5.98817 0.0994088 0
M  V30 4996 N 693.703 -5.35403 0.621694 0
M  V30 4997 C 692.818 -5.25212 -0.43376 0
M  V30 4998 C 691.551 -4.64602 -0.519722 0
M  V30 4999 N 690.952 -4.01457 0.519136 0
M  V30 5000 N 690.986 -4.7568 -1.76013 0
M  V30 5001 C 691.588 -5.3653 -2.83017 0
M  V30 5002 N 692.765 -5.93676 -2.79782 0
M  V30 5003 C 693.34 -5.84061 -1.56249 0
M  V30 5004 H 695.636 -6.68789 -2.9658 0
M  V30 5005 H 696.819 -6.53498 -0.198729 0
M  V30 5006 H 698.302 -8.36622 -0.589963 0
M  V30 5007 H 696.608 -10.0273 -1.8081 0
M  V30 5008 H 696.418 -10.2138 0.558219 0
M  V30 5009 H 694.788 -9.6579 0.0444202 0
M  V30 5010 H 691.052 -5.37113 -3.77321 0
M  V30 5011 H 695.63 -6.23209 0.660562 0
M  V30 5012 H 690.022 -3.58834 0.394862 0
M  V30 5013 H 691.426 -3.96059 1.43048 0
M  V30 5014 H 697.428 -5.69466 -2.79593 0
M  V30 5015 P 699.285 -8.4349 -2.47671 0
M  V30 5016 O 700.707 -8.92593 -2.65 0
M  V30 5017 O 698.925 -7.7568 -1.19296 0
M  V30 5018 O 698.962 -7.36886 -3.63805 0
M  V30 5019 C 698.802 -7.95349 -4.982 0
M  V30 5020 C 699.342 -6.94612 -5.98974 0
M  V30 5021 O 698.286 -6.10347 -6.11815 0
M  V30 5022 C 700.56 -6.11426 -5.62335 0
M  V30 5023 O 701.298 -5.6162 -6.70584 0
M  V30 5024 C 699.891 -5.04409 -4.73308 0
M  V30 5025 O 700.69 -3.85992 -4.75183 0
M  V30 5026 C 698.554 -4.8728 -5.41006 0
M  V30 5027 H 698.586 -4.02333 -6.11157 0
M  V30 5028 H 699.769 -5.39466 -3.69543 0
M  V30 5029 H 701.253 -6.71916 -5.01943 0
M  V30 5030 H 699.559 -7.4649 -6.93477 0
M  V30 5031 H 699.369 -8.89416 -5.05237 0
M  V30 5032 H 697.739 -8.14876 -5.18409 0
M  V30 5033 H 700.378 -3.27957 -5.4317 0
M  V30 5034 P 702.236 -5.75688 -6.64379 0
M  V30 5035 O 703.658 -6.07627 -7.05504 0
M  V30 5036 O 701.876 -5.88047 -5.19722 0
M  V30 5037 O 701.913 -4.2322 -7.04443 0
M  V30 5038 C 701.753 -3.99743 -8.4911 0
M  V30 5039 C 702.293 -2.60516 -8.79425 0
M  V30 5040 O 701.237 -1.82684 -8.4467 0
M  V30 5041 C 703.511 -2.10343 -8.03628 0
M  V30 5042 O 704.249 -1.09919 -8.67766 0
M  V30 5043 C 702.842 -1.68446 -6.70876 0
M  V30 5044 O 703.641 -0.678137 -6.08433 0
M  V30 5045 C 701.505 -1.17436 -7.18567 0
M  V30 5046 H 701.537 -0.0804732 -7.31656 0
M  V30 5047 H 702.72 -2.54037 -6.02537 0
M  V30 5048 H 704.204 -2.93881 -7.85526 0
M  V30 5049 H 702.51 -2.53065 -9.86973 0
M  V30 5050 H 702.32 -4.75072 -9.05887 0
M  V30 5051 H 700.69 -4.05244 -8.76668 0
M  V30 5052 H 703.329 0.177647 -6.34251 0
M  V30 5053 P 705.186 -1.25109 -8.70152 0
M  V30 5054 O 706.608 -1.29744 -9.22016 0
M  V30 5055 O 704.826 -2.13714 -7.55141 0
M  V30 5056 O 704.863 0.248149 -8.21425 0
M  V30 5057 C 704.703 1.22779 -9.30434 0
M  V30 5058 C 705.243 2.56293 -8.80664 0
M  V30 5059 O 704.187 3.02979 -8.09349 0
M  V30 5060 C 706.461 2.57523 -7.89775 0
M  V30 5061 O 707.199 3.7668 -7.89438 0
M  V30 5062 C 705.792 2.20997 -6.55446 0
M  V30 5063 O 706.591 2.71895 -5.48509 0
M  V30 5064 C 704.455 2.89693 -6.67988 0
M  V30 5065 H 704.487 3.88793 -6.19859 0
M  V30 5066 H 705.67 1.12046 -6.44229 0
M  V30 5067 H 707.154 1.7746 -8.19711 0
M  V30 5068 H 705.46 3.20706 -9.67112 0
M  V30 5069 H 705.27 0.901032 -10.1892 0
M  V30 5070 H 703.64 1.33049 -9.56592 0
M  V30 5071 H 706.279 3.57847 -5.23962 0
M  V30 5072 P 708.137 3.65191 -7.99657 0
M  V30 5073 O 709.559 3.89332 -8.45794 0
M  V30 5074 O 707.777 2.28472 -7.50807 0
M  V30 5075 O 707.814 4.64972 -6.77611 0
M  V30 5076 C 707.654 6.06319 -7.16352 0
M  V30 5077 C 708.194 6.91731 -6.02299 0
M  V30 5078 O 707.138 6.92449 -5.17064 0
M  V30 5079 C 709.412 6.43627 -5.25174 0
M  V30 5080 O 710.15 7.43686 -4.60469 0
M  V30 5081 C 708.743 5.40275 -4.31916 0
M  V30 5082 O 709.542 5.25279 -3.14438 0
M  V30 5083 C 707.406 6.04847 -4.05327 0
M  V30 5084 H 707.438 6.62195 -3.11261 0
M  V30 5085 H 708.621 4.42556 -4.81383 0
M  V30 5086 H 710.105 5.92458 -5.93643 0
M  V30 5087 H 708.411 7.92655 -6.402 0
M  V30 5088 H 708.221 6.26671 -8.0846 0
M  V30 5089 H 706.591 6.29101 -7.32804 0
M  V30 5090 H 709.23 5.84315 -2.47318 0
M  V30 5091 P 711.087 7.39546 -4.75277 0
M  V30 5092 O 712.509 7.84966 -5.01146 0
M  V30 5093 O 710.727 5.9812 -5.08098 0
M  V30 5094 O 710.764 7.57503 -3.1866 0
M  V30 5095 C 710.604 8.97357 -2.74833 0
M  V30 5096 C 711.144 9.0745 -1.32694 0
M  V30 5097 O 710.089 8.62072 -0.606159 0
M  V30 5098 C 712.362 8.25383 -0.938334 0
M  V30 5099 O 713.1 8.74577 0.146954 0
M  V30 5100 C 711.694 6.8802 -0.712559 0
M  V30 5101 O 712.492 6.11791 0.194623 0
M  V30 5102 C 710.356 7.27966 -0.139777 0
M  V30 5103 N 709.313 6.39368 -0.623421 0
M  V30 5104 C 709.375 5.90299 -1.85969 0
M  V30 5105 N 708.33 5.10919 -2.1133 0
M  V30 5106 C 707.596 5.14646 -1.0015 0
M  V30 5107 C 706.29 4.60057 -0.729219 0
M  V30 5108 O 705.557 3.93476 -1.47746 0
M  V30 5109 N 705.86 4.88302 0.523505 0
M  V30 5110 C 706.609 5.63646 1.46207 0
M  V30 5111 N 706.012 5.78186 2.69239 0
M  V30 5112 N 707.762 6.19285 1.21544 0
M  V30 5113 C 708.219 5.93392 -0.0308487 0
M  V30 5114 H 710.388 7.25354 0.961601 0
M  V30 5115 H 711.571 6.3246 -1.65676 0
M  V30 5116 H 713.056 8.19533 -1.78278 0
M  V30 5117 H 711.361 10.1294 -1.10029 0
M  V30 5118 H 711.171 9.64276 -3.41316 0
M  V30 5119 H 709.54 9.25417 -2.76357 0
M  V30 5120 H 704.964 4.53993 0.806451 0
M  V30 5121 H 710.171 6.11865 -2.57394 0
M  V30 5122 H 705.101 5.34046 2.87467 0
M  V30 5123 H 706.477 6.33391 3.42578 0
M  V30 5124 H 712.181 6.25169 1.0783 0
M  V30 5125 P 714.038 8.791 5.07466e-12 0
M  V30 5126 O 715.459 9.31196 0.027936 0
M  V30 5127 O 713.678 7.77869 -1.04071 0
M  V30 5128 O 713.715 8.09533 1.41463 0
M  V30 5129 C 713.554 9.03587 2.5397 0
M  V30 5130 C 714.095 8.35226 3.79016 0
M  V30 5131 O 713.04 7.57904 4.1503 0
M  V30 5132 C 715.313 7.45087 3.67298 0
M  V30 5133 O 716.051 7.27796 4.85194 0
M  V30 5134 C 714.645 6.17323 3.12027 0
M  V30 5135 O 715.443 5.04496 3.46627 0
M  V30 5136 C 713.307 6.19961 3.81809 0
M  V30 5137 N 712.264 5.71575 2.93223 0
M  V30 5138 C 712.433 5.77362 1.59168 0
M  V30 5139 N 711.406 5.3123 0.911893 0
M  V30 5140 C 710.521 4.91717 1.89588 0
M  V30 5141 C 709.254 4.3114 1.8076 0
M  V30 5142 N 708.655 3.99821 0.632928 0
M  V30 5143 N 708.689 4.06823 3.02898 0
M  V30 5144 C 709.291 4.35062 4.22711 0
M  V30 5145 N 710.468 4.90805 4.35707 0
M  V30 5146 C 711.043 5.16382 3.14469 0
M  V30 5147 H 713.339 5.58142 4.72986 0
M  V30 5148 H 714.522 6.21428 2.0318 0
M  V30 5149 H 716.005 7.86112 2.9231 0
M  V30 5150 H 714.311 9.11171 4.55987 0
M  V30 5151 H 714.121 9.9573 2.34194 0
M  V30 5152 H 712.491 9.2792 2.67832 0
M  V30 5153 H 708.755 4.09052 5.13359 0
M  V30 5154 H 713.333 6.16575 1.12198 0
M  V30 5155 H 707.725 3.55423 0.632085 0
M  V30 5156 H 709.129 4.20317 -0.256712 0
M  V30 5157 H 715.131 4.67628 4.28704 0
M  V30 5158 P 716.989 7.39546 4.75277 0
M  V30 5159 O 718.411 7.81777 5.05738 0
M  V30 5160 O 716.629 7.1065 3.32998 0
M  V30 5161 O 716.666 6.04542 5.56673 0
M  V30 5162 C 716.506 6.22772 7.02095 0
M  V30 5163 C 717.046 4.97725 7.70406 0
M  V30 5164 O 715.99 4.13256 7.58987 0
M  V30 5165 C 718.264 4.28231 7.11815 0
M  V30 5166 O 719.002 3.49945 8.01648 0
M  V30 5167 C 717.595 3.5063 5.96244 0
M  V30 5168 O 718.394 2.36482 5.64681 0
M  V30 5169 C 716.258 3.15122 6.56374 0
M  V30 5170 H 716.29 2.13853 6.99751 0
M  V30 5171 H 717.473 4.13501 5.06559 0
M  V30 5172 H 718.957 5.03285 6.70911 0
M  V30 5173 H 717.263 5.20877 8.75697 0
M  V30 5174 H 717.073 7.11046 7.35349 0
M  V30 5175 H 715.443 6.35815 7.26986 0
M  V30 5176 H 718.082 1.61644 6.13565 0
M  V30 5177 P 719.939 3.65191 7.99657 0
M  V30 5178 O 721.36 3.84292 8.48206 0
M  V30 5179 O 719.579 4.17805 6.64342 0
M  V30 5180 O 719.616 2.07613 7.95143 0
M  V30 5181 C 719.455 1.44344 9.27435 0
M  V30 5182 C 719.996 0.0220036 9.17197 0
M  V30 5183 O 718.941 -0.626794 8.61824 0
M  V30 5184 C 721.214 -0.24586 8.30336 0
M  V30 5185 O 721.952 -1.39011 8.63583 0
M  V30 5186 C 720.546 -0.273849 6.91158 0
M  V30 5187 O 721.344 -1.05728 6.029 0
M  V30 5188 C 719.208 -0.897649 7.22545 0
M  V30 5189 N 718.165 -0.292839 6.41732 0
M  V30 5190 C 718.334 0.950603 5.91308 0
M  V30 5191 N 717.307 1.37732 5.21105 0
M  V30 5192 C 716.422 0.318109 5.26039 0
M  V30 5193 C 715.155 0.146766 4.6727 0
M  V30 5194 N 714.59 -1.06525 4.95887 0
M  V30 5195 C 715.192 -2.0378 5.71347 0
M  V30 5196 N 716.369 -1.92445 6.27451 0
M  V30 5197 C 716.944 -0.715382 6.00353 0
M  V30 5198 H 720.423 0.733318 6.49674 0
M  V30 5199 H 721.906 0.60668 8.36503 0
M  V30 5200 H 720.212 -0.362662 10.1825 0
M  V30 5201 H 720.022 2.00611 10.0304 0
M  V30 5202 H 718.392 1.41843 9.55327 0
M  V30 5203 H 719.234 1.54076 6.07465 0
M  V30 5204 H 721.032 -1.95704 6.0346 0
M  V30 5205 P 722.89 -1.25109 8.70152 0
M  V30 5206 O 724.312 -1.35274 9.21221 0
M  V30 5207 O 722.53 -0.0769065 7.84762 0
M  V30 5208 O 722.567 -2.55232 7.81161 0
M  V30 5209 C 722.407 -3.79939 8.58154 0
M  V30 5210 C 722.947 -4.94023 7.72785 0
M  V30 5211 O 721.891 -5.18726 6.91205 0
M  V30 5212 C 724.165 -4.69597 6.85231 0
M  V30 5213 O 724.903 -5.83832 6.51337 0
M  V30 5214 C 723.496 -3.96706 5.66633 0
M  V30 5215 O 724.295 -4.15414 4.49689 0
M  V30 5216 C 722.159 -4.66153 5.59313 0
M  V30 5217 H 722.191 -5.47679 4.85214 0
M  V30 5218 H 723.374 -2.89008 5.86566 0
M  V30 5219 H 724.858 -4.0121 7.36511 0
M  V30 5220 H 723.164 -5.80182 8.37584 0
M  V30 5221 H 722.974 -3.73517 9.52265 0
M  V30 5222 H 721.344 -3.97163 8.80359 0
M  V30 5223 H 723.983 -4.90969 4.01921 0
M  V30 5224 P 725.84 -5.75688 6.64379 0
M  V30 5225 O 727.262 -6.11849 7.01846 0
M  V30 5226 O 725.48 -4.30744 6.56026 0
M  V30 5227 O 725.517 -6.37042 5.19165 0
M  V30 5228 C 725.357 -7.83578 5.16515 0
M  V30 5229 C 725.897 -8.33398 3.83019 0
M  V30 5230 O 724.841 -8.10074 3.01034 0
M  V30 5231 C 727.115 -7.65514 3.2257 0
M  V30 5232 O 727.853 -8.4329 2.32297 0
M  V30 5233 C 726.446 -6.40075 2.62207 0
M  V30 5234 O 727.245 -5.92589 1.53712 0
M  V30 5235 C 725.109 -6.9454 2.18503 0
M  V30 5236 H 725.141 -7.23063 1.12091 0
M  V30 5237 H 726.324 -5.6025 3.37201 0
M  V30 5238 H 727.808 -7.35707 4.02681 0
M  V30 5239 H 726.114 -9.40912 3.9095 0
M  V30 5240 H 725.924 -8.29056 5.99158 0
M  V30 5241 H 724.294 -8.10073 5.25882 0
M  V30 5242 H 726.933 -6.30324 0.726794 0
M  V30 5243 P 728.791 -8.4349 2.47671 0
M  V30 5244 O 730.212 -8.94263 2.59668 0
M  V30 5245 O 728.431 -7.1704 3.19006 0
M  V30 5246 O 728.468 -8.16596 0.923387 0
M  V30 5247 C 728.307 -9.38537 0.108869 0
M  V30 5248 C 728.848 -9.08175 -1.28353 0
M  V30 5249 O 727.793 -8.44131 -1.84692 0
M  V30 5250 C 730.066 -8.18386 -1.42505 0
M  V30 5251 O 730.804 -8.3501 -2.60497 0
M  V30 5252 C 729.398 -6.80225 -1.25468 0
M  V30 5253 O 730.196 -5.81716 -1.90454 0
M  V30 5254 C 728.06 -7.02416 -1.9168 0
M  V30 5255 N 727.017 -6.31033 -1.20314 0
M  V30 5256 C 727.186 -5.98817 0.0994088 0
M  V30 5257 N 726.159 -5.35403 0.621694 0
M  V30 5258 C 725.274 -5.25212 -0.43376 0
M  V30 5259 C 724.007 -4.64602 -0.519722 0
M  V30 5260 N 723.442 -4.7568 -1.76013 0
M  V30 5261 C 724.044 -5.3653 -2.83017 0
M  V30 5262 N 725.221 -5.93676 -2.79782 0
M  V30 5263 C 725.796 -5.84061 -1.56249 0
M  V30 5264 H 729.275 -6.53498 -0.198729 0
M  V30 5265 H 730.758 -8.36622 -0.589963 0
M  V30 5266 H 729.064 -10.0273 -1.8081 0
M  V30 5267 H 728.874 -10.2138 0.558219 0
M  V30 5268 H 727.244 -9.6579 0.0444202 0
M  V30 5269 H 728.086 -6.23209 0.660562 0
M  V30 5270 H 729.884 -5.69466 -2.79593 0
M  V30 5271 P 731.741 -8.4349 -2.47671 0
M  V30 5272 O 733.163 -8.92593 -2.65 0
M  V30 5273 O 731.381 -7.7568 -1.19296 0
M  V30 5274 O 731.418 -7.36886 -3.63805 0
M  V30 5275 C 731.258 -7.95349 -4.982 0
M  V30 5276 C 731.798 -6.94612 -5.98974 0
M  V30 5277 O 730.742 -6.10347 -6.11815 0
M  V30 5278 C 733.016 -6.11426 -5.62335 0
M  V30 5279 O 733.754 -5.6162 -6.70584 0
M  V30 5280 C 732.347 -5.04409 -4.73308 0
M  V30 5281 O 733.146 -3.85992 -4.75183 0
M  V30 5282 C 731.01 -4.8728 -5.41006 0
M  V30 5283 H 731.042 -4.02333 -6.11157 0
M  V30 5284 H 732.225 -5.39466 -3.69543 0
M  V30 5285 H 733.709 -6.71916 -5.01943 0
M  V30 5286 H 732.015 -7.4649 -6.93477 0
M  V30 5287 H 731.825 -8.89416 -5.05237 0
M  V30 5288 H 730.195 -8.14876 -5.18409 0
M  V30 5289 H 732.834 -3.27957 -5.4317 0
M  V30 5290 P 734.692 -5.75688 -6.64379 0
M  V30 5291 O 736.113 -6.07692 -7.0558 0
M  V30 5292 O 734.332 -5.88047 -5.19722 0
M  V30 5293 O 734.369 -4.2322 -7.04443 0
M  V30 5294 C 734.208 -3.99785 -8.49201 0
M  V30 5295 C 734.749 -2.60516 -8.79425 0
M  V30 5296 O 733.694 -1.82663 -8.44573 0
M  V30 5297 C 735.967 -2.10343 -8.03628 0
M  V30 5298 O 736.705 -1.09919 -8.67766 0
M  V30 5299 C 735.299 -1.68446 -6.70876 0
M  V30 5300 O 736.097 -0.684109 -6.08265 0
M  V30 5301 C 733.961 -1.17436 -7.18567 0
M  V30 5302 N 732.918 -1.52699 -6.23988 0
M  V30 5303 C 733.087 -2.578 -5.40574 0
M  V30 5304 N 732.06 -2.78966 -4.61193 0
M  V30 5305 C 731.175 -1.78725 -4.95769 0
M  V30 5306 C 729.908 -1.45727 -4.44207 0
M  V30 5307 N 729.343 -0.374977 -5.05812 0
M  V30 5308 C 729.945 0.345585 -6.05615 0
M  V30 5309 N 731.122 0.0787651 -6.56253 0
M  V30 5310 C 731.697 -1.00499 -5.96189 0
M  V30 5311 H 735.176 -2.53396 -6.02698 0
M  V30 5312 H 736.659 -2.93881 -7.85526 0
M  V30 5313 H 734.965 -2.52078 -9.87225 0
M  V30 5314 H 734.775 -4.75072 -9.05887 0
M  V30 5315 H 733.145 -4.05244 -8.76668 0
M  V30 5316 H 733.987 -3.18977 -5.3945 0
M  V30 5317 H 735.785 0.177619 -6.34151 0
M  V30 5318 P 737.643 -1.25109 -8.70152 0
M  V30 5319 O 739.065 -1.29744 -9.22016 0
M  V30 5320 O 737.283 -2.13714 -7.55141 0
M  V30 5321 O 737.32 0.248149 -8.21425 0
M  V30 5322 C 737.16 1.22779 -9.30434 0
M  V30 5323 C 737.7 2.56293 -8.80664 0
M  V30 5324 O 736.644 3.02979 -8.09349 0
M  V30 5325 C 738.918 2.57523 -7.89775 0
M  V30 5326 O 739.656 3.7668 -7.89438 0
M  V30 5327 C 738.249 2.20997 -6.55446 0
M  V30 5328 O 739.048 2.71895 -5.48509 0
M  V30 5329 C 736.912 2.89693 -6.67988 0
M  V30 5330 H 736.944 3.88793 -6.19859 0
M  V30 5331 H 738.127 1.12046 -6.44229 0
M  V30 5332 H 739.611 1.7746 -8.19711 0
M  V30 5333 H 737.917 3.20706 -9.67112 0
M  V30 5334 H 737.726 0.901032 -10.1892 0
M  V30 5335 H 736.096 1.33049 -9.56592 0
M  V30 5336 H 738.736 3.57847 -5.23962 0
M  V30 5337 P 740.593 3.65191 -7.99657 0
M  V30 5338 O 742.015 3.89332 -8.45794 0
M  V30 5339 O 740.233 2.28472 -7.50807 0
M  V30 5340 O 740.27 4.64972 -6.77611 0
M  V30 5341 C 740.11 6.06319 -7.16352 0
M  V30 5342 C 740.65 6.91731 -6.02299 0
M  V30 5343 O 739.594 6.92449 -5.17064 0
M  V30 5344 C 741.868 6.43627 -5.25174 0
M  V30 5345 O 742.606 7.43686 -4.60469 0
M  V30 5346 C 741.199 5.40275 -4.31916 0
M  V30 5347 O 741.998 5.25279 -3.14438 0
M  V30 5348 C 739.862 6.04847 -4.05327 0
M  V30 5349 H 739.894 6.62195 -3.11261 0
M  V30 5350 H 741.077 4.42556 -4.81383 0
M  V30 5351 H 742.561 5.92458 -5.93643 0
M  V30 5352 H 740.867 7.92655 -6.402 0
M  V30 5353 H 740.677 6.26671 -8.0846 0
M  V30 5354 H 739.047 6.29101 -7.32804 0
M  V30 5355 H 741.686 5.84315 -2.47318 0
M  V30 5356 P 743.544 7.39546 -4.75277 0
M  V30 5357 O 744.945 7.86988 -5.07993 0
M  V30 5358 O 743.166 5.99957 -5.13804 0
M  V30 5359 O 743.221 7.57411 -3.18621 0
M  V30 5360 C 743.061 8.97357 -2.74833 0
M  V30 5361 C 743.601 9.0745 -1.32694 0
M  V30 5362 O 742.545 8.61972 -0.606089 0
M  V30 5363 C 744.818 8.25383 -0.938334 0
M  V30 5364 O 745.557 8.74577 0.146954 0
M  V30 5365 C 744.151 6.8802 -0.712559 0
M  V30 5366 O 744.949 6.11791 0.194623 0
M  V30 5367 C 742.813 7.27966 -0.139777 0
M  V30 5368 N 741.77 6.39368 -0.623421 0
M  V30 5369 C 740.735 6.08088 0.223886 0
M  V30 5370 O 740.774 6.5102 1.39986 0
M  V30 5371 N 739.723 5.30627 -0.224051 0
M  V30 5372 C 739.771 4.82531 -1.47257 0
M  V30 5373 C 740.867 5.09974 -2.34008 0
M  V30 5374 C 741.833 5.89548 -1.87678 0
M  V30 5375 H 742.845 7.25255 0.961469 0
M  V30 5376 H 744.028 6.32625 -1.65044 0
M  V30 5377 H 745.512 8.19631 -1.78299 0
M  V30 5378 H 743.818 10.1305 -1.09016 0
M  V30 5379 H 743.627 9.64276 -3.41316 0
M  V30 5380 H 741.997 9.25321 -2.76328 0
M  V30 5381 H 740.915 4.67832 -3.3413 0
M  V30 5382 H 742.679 6.14434 -2.51991 0
M  V30 5383 H 744.733 6.35931 1.08377 0
M  V30 5384 P 746.494 8.791 5.38483e-12 0
M  V30 5385 O 747.916 9.31096 0.027933 0
M  V30 5386 O 746.134 7.77869 -1.04071 0
M  V30 5387 O 746.171 8.09533 1.41463 0
M  V30 5388 C 746.011 9.0349 2.53943 0
M  V30 5389 C 746.551 8.35226 3.79016 0
M  V30 5390 O 745.495 7.57992 4.15078 0
M  V30 5391 C 747.769 7.45087 3.67298 0
M  V30 5392 O 748.507 7.27796 4.85194 0
M  V30 5393 C 747.1 6.17323 3.12027 0
M  V30 5394 O 747.899 5.04231 3.47188 0
M  V30 5395 C 745.763 6.19961 3.81809 0
M  V30 5396 H 745.795 5.58218 4.73051 0
M  V30 5397 H 746.978 6.21726 2.02589 0
M  V30 5398 H 748.462 7.86112 2.9231 0
M  V30 5399 H 746.768 9.11627 4.55076 0
M  V30 5400 H 746.578 9.9573 2.34194 0
M  V30 5401 H 744.948 9.2792 2.67832 0
M  V30 5402 H 747.587 4.67702 4.28772 0
M  V30 5403 P 749.445 7.39546 4.75277 0
M  V30 5404 O 750.867 7.81777 5.05738 0
M  V30 5405 O 749.085 7.1065 3.32998 0
M  V30 5406 O 749.122 6.04542 5.56673 0
M  V30 5407 C 748.962 6.22772 7.02095 0
M  V30 5408 C 749.502 4.97725 7.70406 0
M  V30 5409 O 748.446 4.13256 7.58987 0
M  V30 5410 C 750.72 4.28231 7.11815 0
M  V30 5411 O 751.458 3.49945 8.01648 0
M  V30 5412 C 750.051 3.5063 5.96244 0
M  V30 5413 O 750.85 2.36482 5.64681 0
M  V30 5414 C 748.714 3.15122 6.56374 0
M  V30 5415 H 748.746 2.13853 6.99751 0
M  V30 5416 H 749.929 4.13501 5.06559 0
M  V30 5417 H 751.413 5.03285 6.70911 0
M  V30 5418 H 749.719 5.20877 8.75697 0
M  V30 5419 H 749.529 7.11046 7.35349 0
M  V30 5420 H 747.899 6.35815 7.26986 0
M  V30 5421 H 750.538 1.61644 6.13565 0
M  V30 5422 P 752.395 3.65191 7.99657 0
M  V30 5423 O 753.817 3.8425 8.48115 0
M  V30 5424 O 752.035 4.17805 6.64342 0
M  V30 5425 O 752.072 2.07613 7.95143 0
M  V30 5426 C 751.912 1.44328 9.27336 0
M  V30 5427 C 752.452 0.0220036 9.17197 0
M  V30 5428 O 751.396 -0.626867 8.61923 0
M  V30 5429 C 753.67 -0.24586 8.30336 0
M  V30 5430 O 754.408 -1.39011 8.63583 0
M  V30 5431 C 753.001 -0.273849 6.91158 0
M  V30 5432 O 753.8 -1.06348 6.02892 0
M  V30 5433 C 751.664 -0.897649 7.22545 0
M  V30 5434 H 751.696 -1.9841 7.04286 0
M  V30 5435 H 752.879 0.739928 6.497 0
M  V30 5436 H 754.363 0.60668 8.36503 0
M  V30 5437 H 752.669 -0.352479 10.1829 0
M  V30 5438 H 752.479 2.00611 10.0304 0
M  V30 5439 H 750.849 1.41843 9.55327 0
M  V30 5440 H 753.488 -1.95734 6.03555 0
M  V30 5441 P 755.346 -1.25109 8.70152 0
M  V30 5442 O 756.768 -1.35274 9.21221 0
M  V30 5443 O 754.986 -0.0769065 7.84762 0
M  V30 5444 O 755.023 -2.55232 7.81161 0
M  V30 5445 C 754.863 -3.79939 8.58154 0
M  V30 5446 C 755.403 -4.94023 7.72785 0
M  V30 5447 O 754.347 -5.18726 6.91205 0
M  V30 5448 C 756.621 -4.69597 6.85231 0
M  V30 5449 O 757.359 -5.83832 6.51337 0
M  V30 5450 C 755.952 -3.96706 5.66633 0
M  V30 5451 O 756.751 -4.15414 4.49689 0
M  V30 5452 C 754.615 -4.66153 5.59313 0
M  V30 5453 H 754.647 -5.47679 4.85214 0
M  V30 5454 H 755.83 -2.89008 5.86566 0
M  V30 5455 H 757.314 -4.0121 7.36511 0
M  V30 5456 H 755.62 -5.80182 8.37584 0
M  V30 5457 H 755.43 -3.73517 9.52265 0
M  V30 5458 H 753.8 -3.97163 8.80359 0
M  V30 5459 H 756.439 -4.90969 4.01921 0
M  V30 5460 P 758.296 -5.75688 6.64379 0
M  V30 5461 O 759.718 -6.11849 7.01846 0
M  V30 5462 O 757.936 -4.30744 6.56026 0
M  V30 5463 O 757.973 -6.37042 5.19165 0
M  V30 5464 C 757.813 -7.83578 5.16515 0
M  V30 5465 C 758.353 -8.33398 3.83019 0
M  V30 5466 O 757.297 -8.10074 3.01034 0
M  V30 5467 C 759.571 -7.65514 3.2257 0
M  V30 5468 O 760.309 -8.4329 2.32297 0
M  V30 5469 C 758.902 -6.40075 2.62207 0
M  V30 5470 O 759.701 -5.92589 1.53712 0
M  V30 5471 C 757.565 -6.9454 2.18503 0
M  V30 5472 H 757.597 -7.23063 1.12091 0
M  V30 5473 H 758.78 -5.6025 3.37201 0
M  V30 5474 H 760.264 -7.35707 4.02681 0
M  V30 5475 H 758.57 -9.40912 3.9095 0
M  V30 5476 H 758.38 -8.29056 5.99158 0
M  V30 5477 H 756.75 -8.10073 5.25882 0
M  V30 5478 H 759.389 -6.30324 0.726794 0
M  V30 5479 P 761.247 -8.4349 2.47671 0
M  V30 5480 O 762.669 -8.94167 2.5964 0
M  V30 5481 O 760.887 -7.1704 3.19006 0
M  V30 5482 O 760.924 -8.16596 0.923387 0
M  V30 5483 C 760.764 -9.38437 0.108857 0
M  V30 5484 C 761.304 -9.08175 -1.28353 0
M  V30 5485 O 760.248 -8.44229 -1.84713 0
M  V30 5486 C 762.522 -8.18386 -1.42505 0
M  V30 5487 O 763.26 -8.3501 -2.60497 0
M  V30 5488 C 761.853 -6.80225 -1.25468 0
M  V30 5489 O 762.652 -5.81621 -1.91066 0
M  V30 5490 C 760.516 -7.02416 -1.9168 0
M  V30 5491 H 760.548 -6.6888 -2.96621 0
M  V30 5492 H 761.731 -6.53617 -0.192223 0
M  V30 5493 H 763.215 -8.36622 -0.589963 0
M  V30 5494 H 761.521 -10.0291 -1.79807 0
M  V30 5495 H 761.331 -10.2138 0.558219 0
M  V30 5496 H 759.701 -9.6579 0.0444202 0
M  V30 5497 H 762.34 -5.69556 -2.79637 0
M  V30 5498 P 764.198 -8.4349 -2.47671 0
M  V30 5499 O 765.62 -8.92593 -2.65 0
M  V30 5500 O 763.838 -7.7568 -1.19296 0
M  V30 5501 O 763.875 -7.36886 -3.63805 0
M  V30 5502 C 763.715 -7.95349 -4.982 0
M  V30 5503 C 764.255 -6.94612 -5.98974 0
M  V30 5504 O 763.199 -6.10347 -6.11815 0
M  V30 5505 C 765.473 -6.11426 -5.62335 0
M  V30 5506 O 766.211 -5.6162 -6.70584 0
M  V30 5507 C 764.804 -5.04409 -4.73308 0
M  V30 5508 O 765.603 -3.85992 -4.75183 0
M  V30 5509 C 763.467 -4.8728 -5.41006 0
M  V30 5510 H 763.499 -4.02333 -6.11157 0
M  V30 5511 H 764.682 -5.39466 -3.69543 0
M  V30 5512 H 766.166 -6.71916 -5.01943 0
M  V30 5513 H 764.472 -7.4649 -6.93477 0
M  V30 5514 H 764.282 -8.89416 -5.05237 0
M  V30 5515 H 762.652 -8.14876 -5.18409 0
M  V30 5516 H 765.291 -3.27957 -5.4317 0
M  V30 5517 P 767.148 -5.75688 -6.64379 0
M  V30 5518 O 768.57 -6.07627 -7.05504 0
M  V30 5519 O 766.788 -5.88047 -5.19722 0
M  V30 5520 O 766.825 -4.2322 -7.04443 0
M  V30 5521 C 766.665 -3.99743 -8.4911 0
M  V30 5522 C 767.205 -2.60516 -8.79425 0
M  V30 5523 O 766.149 -1.82684 -8.4467 0
M  V30 5524 C 768.423 -2.10343 -8.03628 0
M  V30 5525 O 769.161 -1.09919 -8.67766 0
M  V30 5526 C 767.754 -1.68446 -6.70876 0
M  V30 5527 O 768.553 -0.678137 -6.08433 0
M  V30 5528 C 766.417 -1.17436 -7.18567 0
M  V30 5529 H 766.449 -0.0804732 -7.31656 0
M  V30 5530 H 767.632 -2.54037 -6.02537 0
M  V30 5531 H 769.116 -2.93881 -7.85526 0
M  V30 5532 H 767.422 -2.53065 -9.86973 0
M  V30 5533 H 767.232 -4.75072 -9.05887 0
M  V30 5534 H 765.602 -4.05244 -8.76668 0
M  V30 5535 H 768.241 0.177647 -6.34251 0
M  V30 5536 P 770.099 -1.25109 -8.70152 0
M  V30 5537 O 771.521 -1.29744 -9.22016 0
M  V30 5538 O 769.739 -2.13714 -7.55141 0
M  V30 5539 O 769.776 0.248149 -8.21425 0
M  V30 5540 C 769.616 1.22779 -9.30434 0
M  V30 5541 C 770.156 2.56293 -8.80664 0
M  V30 5542 O 769.1 3.02979 -8.09349 0
M  V30 5543 C 771.374 2.57523 -7.89775 0
M  V30 5544 O 772.112 3.7668 -7.89438 0
M  V30 5545 C 770.705 2.20997 -6.55446 0
M  V30 5546 O 771.504 2.71895 -5.48509 0
M  V30 5547 C 769.368 2.89693 -6.67988 0
M  V30 5548 H 769.4 3.88793 -6.19859 0
M  V30 5549 H 770.583 1.12046 -6.44229 0
M  V30 5550 H 772.067 1.7746 -8.19711 0
M  V30 5551 H 770.373 3.20706 -9.67112 0
M  V30 5552 H 770.183 0.901032 -10.1892 0
M  V30 5553 H 768.553 1.33049 -9.56592 0
M  V30 5554 H 771.192 3.57847 -5.23962 0
M  V30 5555 P 773.049 3.65191 -7.99657 0
M  V30 5556 O 774.471 3.89332 -8.45794 0
M  V30 5557 O 772.689 2.28472 -7.50807 0
M  V30 5558 O 772.726 4.64972 -6.77611 0
M  V30 5559 C 772.566 6.06319 -7.16352 0
M  V30 5560 C 773.106 6.91731 -6.02299 0
M  V30 5561 O 772.05 6.92449 -5.17064 0
M  V30 5562 C 774.324 6.43627 -5.25174 0
M  V30 5563 O 775.062 7.43686 -4.60469 0
M  V30 5564 C 773.655 5.40275 -4.31916 0
M  V30 5565 O 774.454 5.25279 -3.14438 0
M  V30 5566 C 772.318 6.04847 -4.05327 0
M  V30 5567 H 772.35 6.62195 -3.11261 0
M  V30 5568 H 773.533 4.42556 -4.81383 0
M  V30 5569 H 775.017 5.92458 -5.93643 0
M  V30 5570 H 773.323 7.92655 -6.402 0
M  V30 5571 H 773.133 6.26671 -8.0846 0
M  V30 5572 H 771.503 6.29101 -7.32804 0
M  V30 5573 H 774.142 5.84315 -2.47318 0
M  V30 5574 P 776 7.39546 -4.75277 0
M  V30 5575 O 777.422 7.84798 -5.01039 0
M  V30 5576 O 775.64 5.9812 -5.08098 0
M  V30 5577 O 775.677 7.57503 -3.1866 0
M  V30 5578 C 775.517 8.97357 -2.74833 0
M  V30 5579 C 776.057 9.07548 -1.32709 0
M  V30 5580 O 775.001 8.62072 -0.606159 0
M  V30 5581 C 777.275 8.25383 -0.938334 0
M  V30 5582 O 778.013 8.74577 0.146954 0
M  V30 5583 C 776.606 6.8802 -0.712559 0
M  V30 5584 O 777.405 6.1189 0.194655 0
M  V30 5585 C 775.269 7.27966 -0.139777 0
M  V30 5586 H 775.301 7.25354 0.961601 0
M  V30 5587 H 776.484 6.32557 -1.65702 0
M  V30 5588 H 777.968 8.19355 -1.79097 0
M  V30 5589 H 776.274 10.1294 -1.10029 0
M  V30 5590 H 776.084 9.64276 -3.41316 0
M  V30 5591 H 774.454 9.25417 -2.76357 0
M  V30 5592 H 777.093 6.25267 1.07847 0
M  V30 5593 P 778.95 8.791 5.69499e-12 0
M  V30 5594 O 780.372 9.31096 0.027933 0
M  V30 5595 O 778.59 7.77869 -1.04071 0
M  V30 5596 O 778.627 8.09533 1.41463 0
M  V30 5597 C 778.467 9.0349 2.53943 0
M  V30 5598 C 779.007 8.35226 3.79016 0
M  V30 5599 O 777.951 7.57992 4.15078 0
M  V30 5600 C 780.225 7.45087 3.67298 0
M  V30 5601 O 780.963 7.27796 4.85194 0
M  V30 5602 C 779.556 6.17323 3.12027 0
M  V30 5603 O 780.355 5.04231 3.47188 0
M  V30 5604 C 778.219 6.19961 3.81809 0
M  V30 5605 H 778.251 5.58218 4.73051 0
M  V30 5606 H 779.434 6.21726 2.02589 0
M  V30 5607 H 780.918 7.86112 2.9231 0
M  V30 5608 H 779.224 9.11627 4.55076 0
M  V30 5609 H 779.034 9.9573 2.34194 0
M  V30 5610 H 777.404 9.2792 2.67832 0
M  V30 5611 H 780.043 4.67702 4.28772 0
M  V30 5612 P 781.901 7.39546 4.75277 0
M  V30 5613 O 783.323 7.81777 5.05738 0
M  V30 5614 O 781.541 7.1065 3.32998 0
M  V30 5615 O 781.578 6.04542 5.56673 0
M  V30 5616 C 781.418 6.22772 7.02095 0
M  V30 5617 C 781.958 4.97725 7.70406 0
M  V30 5618 O 780.902 4.13256 7.58987 0
M  V30 5619 C 783.176 4.28231 7.11815 0
M  V30 5620 O 783.914 3.49945 8.01648 0
M  V30 5621 C 782.507 3.5063 5.96244 0
M  V30 5622 O 783.306 2.36482 5.64681 0
M  V30 5623 C 781.17 3.15122 6.56374 0
M  V30 5624 H 781.202 2.13853 6.99751 0
M  V30 5625 H 782.385 4.13501 5.06559 0
M  V30 5626 H 783.869 5.03285 6.70911 0
M  V30 5627 H 782.175 5.20877 8.75697 0
M  V30 5628 H 781.985 7.11046 7.35349 0
M  V30 5629 H 780.355 6.35815 7.26986 0
M  V30 5630 H 782.994 1.61644 6.13565 0
M  V30 5631 P 784.852 3.65191 7.99657 0
M  V30 5632 O 786.253 3.90823 8.51272 0
M  V30 5633 O 784.474 4.23191 6.66972 0
M  V30 5634 O 784.529 2.07587 7.95046 0
M  V30 5635 C 784.369 1.44328 9.27336 0
M  V30 5636 C 784.909 0.0220012 9.17097 0
M  V30 5637 O 783.853 -0.626794 8.61824 0
M  V30 5638 C 786.126 -0.24586 8.30336 0
M  V30 5639 O 786.865 -1.39011 8.63583 0
M  V30 5640 C 785.459 -0.273849 6.91158 0
M  V30 5641 O 786.257 -1.06331 6.02794 0
M  V30 5642 C 784.121 -0.897649 7.22545 0
M  V30 5643 N 783.078 -0.292839 6.41732 0
M  V30 5644 C 782.043 -1.08701 5.98712 0
M  V30 5645 O 782.082 -2.31211 6.24471 0
M  V30 5646 N 781.031 -0.533391 5.28415 0
M  V30 5647 C 781.079 0.770866 4.98576 0
M  V30 5648 N 780.069 1.29482 4.30134 0
M  V30 5649 C 782.175 1.59049 5.38086 0
M  V30 5650 C 783.141 1.01866 6.10256 0
M  V30 5651 H 784.153 -1.98383 7.04189 0
M  V30 5652 H 785.336 0.733318 6.49674 0
M  V30 5653 H 786.82 0.598386 8.36663 0
M  V30 5654 H 785.126 -0.362662 10.1825 0
M  V30 5655 H 784.935 2.00611 10.0304 0
M  V30 5656 H 783.305 1.41828 9.55228 0
M  V30 5657 H 782.223 2.6415 5.10622 0
M  V30 5658 H 783.987 1.61983 6.44042 0
M  V30 5659 H 779.279 0.69888 4.01361 0
M  V30 5660 H 780.074 2.29327 4.05781 0
M  V30 5661 H 786.041 -1.97777 6.14035 0
M  V30 5662 P 787.802 -1.25109 8.70152 0
M  V30 5663 O 789.224 -1.35274 9.21221 0
M  V30 5664 O 787.442 -0.0769065 7.84762 0
M  V30 5665 O 787.479 -2.55232 7.81161 0
M  V30 5666 C 787.319 -3.79939 8.58154 0
M  V30 5667 C 787.859 -4.94023 7.72785 0
M  V30 5668 O 786.803 -5.18726 6.91205 0
M  V30 5669 C 789.077 -4.69597 6.85231 0
M  V30 5670 O 789.815 -5.83832 6.51337 0
M  V30 5671 C 788.408 -3.96706 5.66633 0
M  V30 5672 O 789.207 -4.15414 4.49689 0
M  V30 5673 C 787.071 -4.66153 5.59313 0
M  V30 5674 H 787.103 -5.47679 4.85214 0
M  V30 5675 H 788.286 -2.89008 5.86566 0
M  V30 5676 H 789.77 -4.0121 7.36511 0
M  V30 5677 H 788.076 -5.80182 8.37584 0
M  V30 5678 H 787.886 -3.73517 9.52265 0
M  V30 5679 H 786.256 -3.97163 8.80359 0
M  V30 5680 H 788.895 -4.90969 4.01921 0
M  V30 5681 P 790.753 -5.75688 6.64379 0
M  V30 5682 O 792.175 -6.11849 7.01846 0
M  V30 5683 O 790.393 -4.30744 6.56026 0
M  V30 5684 O 790.43 -6.37042 5.19165 0
M  V30 5685 C 790.27 -7.83578 5.16515 0
M  V30 5686 C 790.81 -8.33398 3.83019 0
M  V30 5687 O 789.754 -8.10074 3.01034 0
M  V30 5688 C 792.028 -7.65514 3.2257 0
M  V30 5689 O 792.766 -8.4329 2.32297 0
M  V30 5690 C 791.359 -6.40075 2.62207 0
M  V30 5691 O 792.158 -5.92589 1.53712 0
M  V30 5692 C 790.022 -6.9454 2.18503 0
M  V30 5693 H 790.054 -7.23063 1.12091 0
M  V30 5694 H 791.237 -5.6025 3.37201 0
M  V30 5695 H 792.721 -7.35707 4.02681 0
M  V30 5696 H 791.027 -9.40912 3.9095 0
M  V30 5697 H 790.837 -8.29056 5.99158 0
M  V30 5698 H 789.207 -8.10073 5.25882 0
M  V30 5699 H 791.846 -6.30324 0.726794 0
M  V30 5700 P 793.703 -8.4349 2.47671 0
M  V30 5701 O 795.104 -8.98227 2.65696 0
M  V30 5702 O 793.325 -7.20409 3.23964 0
M  V30 5703 O 793.38 -8.16496 0.923275 0
M  V30 5704 C 793.22 -9.38437 0.108857 0
M  V30 5705 C 793.76 -9.08076 -1.28339 0
M  V30 5706 O 792.704 -8.44131 -1.84692 0
M  V30 5707 C 794.977 -8.18386 -1.42505 0
M  V30 5708 O 795.716 -8.3501 -2.60497 0
M  V30 5709 C 794.31 -6.80225 -1.25468 0
M  V30 5710 O 795.108 -5.81526 -1.91035 0
M  V30 5711 C 792.972 -7.02416 -1.9168 0
M  V30 5712 N 791.929 -6.31033 -1.20314 0
M  V30 5713 C 790.894 -5.77149 -1.928 0
M  V30 5714 O 790.933 -5.8521 -3.17729 0
M  V30 5715 N 789.882 -5.15445 -1.27997 0
M  V30 5716 C 789.93 -5.04472 0.0534726 0
M  V30 5717 N 788.92 -4.44183 0.669496 0
M  V30 5718 C 791.026 -5.55244 0.808522 0
M  V30 5719 C 791.992 -6.18542 0.13981 0
M  V30 5720 H 793.004 -6.68789 -2.9658 0
M  V30 5721 H 794.187 -6.53498 -0.198729 0
M  V30 5722 H 795.671 -8.36663 -0.5984 0
M  V30 5723 H 793.977 -10.0273 -1.8081 0
M  V30 5724 H 793.786 -10.2138 0.558219 0
M  V30 5725 H 792.156 -9.6569 0.0444156 0
M  V30 5726 H 791.074 -5.43017 1.88792 0
M  V30 5727 H 792.838 -6.60539 0.686773 0
M  V30 5728 H 788.13 -4.07222 0.12057 0
M  V30 5729 H 788.925 -4.34288 1.69244 0
M  V30 5730 H 794.892 -5.79638 -2.8315 0
M  V30 5731 P 796.654 -8.4349 -2.47671 0
M  V30 5732 O 798.076 -8.92593 -2.65 0
M  V30 5733 O 796.294 -7.7568 -1.19296 0
M  V30 5734 O 796.331 -7.36886 -3.63805 0
M  V30 5735 C 796.171 -7.95349 -4.982 0
M  V30 5736 C 796.711 -6.94612 -5.98974 0
M  V30 5737 O 795.655 -6.10347 -6.11815 0
M  V30 5738 C 797.929 -6.11426 -5.62335 0
M  V30 5739 O 798.667 -5.6162 -6.70584 0
M  V30 5740 C 797.26 -5.04409 -4.73308 0
M  V30 5741 O 798.059 -3.85992 -4.75183 0
M  V30 5742 C 795.923 -4.8728 -5.41006 0
M  V30 5743 H 795.955 -4.02333 -6.11157 0
M  V30 5744 H 797.138 -5.39466 -3.69543 0
M  V30 5745 H 798.622 -6.71916 -5.01943 0
M  V30 5746 H 796.928 -7.4649 -6.93477 0
M  V30 5747 H 796.738 -8.89416 -5.05237 0
M  V30 5748 H 795.108 -8.14876 -5.18409 0
M  V30 5749 H 797.747 -3.27957 -5.4317 0
M  V30 5750 P 799.604 -5.75688 -6.64379 0
M  V30 5751 O 801.026 -6.07758 -7.05656 0
M  V30 5752 O 799.244 -5.88047 -5.19722 0
M  V30 5753 O 799.281 -4.2322 -7.04443 0
M  V30 5754 C 799.121 -3.99743 -8.4911 0
M  V30 5755 C 799.661 -2.60487 -8.79329 0
M  V30 5756 O 798.606 -1.82684 -8.4467 0
M  V30 5757 C 800.879 -2.10343 -8.03628 0
M  V30 5758 O 801.617 -1.09919 -8.67766 0
M  V30 5759 C 800.211 -1.68446 -6.70876 0
M  V30 5760 O 801.009 -0.678026 -6.08333 0
M  V30 5761 C 798.873 -1.17436 -7.18567 0
M  V30 5762 N 797.83 -1.52699 -6.23988 0
M  V30 5763 C 797.892 -2.68084 -5.57824 0
M  V30 5764 N 796.847 -2.8189 -4.75643 0
M  V30 5765 C 796.113 -1.72373 -4.95155 0
M  V30 5766 C 794.807 -1.37653 -4.44996 0
M  V30 5767 O 794.074 -2.02239 -3.68445 0
M  V30 5768 N 794.377 -0.17675 -4.90782 0
M  V30 5769 C 795.126 0.645036 -5.78716 0
M  V30 5770 N 794.529 1.84214 -6.10618 0
M  V30 5771 N 796.279 0.321732 -6.30279 0
M  V30 5772 C 796.736 -0.87502 -5.86913 0
M  V30 5773 H 798.905 -0.0804732 -7.31656 0
M  V30 5774 H 800.088 -2.53998 -6.02444 0
M  V30 5775 H 801.573 -2.93095 -7.8582 0
M  V30 5776 H 799.878 -2.53065 -9.86973 0
M  V30 5777 H 799.688 -4.75072 -9.05887 0
M  V30 5778 H 798.057 -4.05244 -8.76668 0
M  V30 5779 H 793.481 0.152143 -4.60849 0
M  V30 5780 H 798.688 -3.41852 -5.69006 0
M  V30 5781 H 793.618 2.08538 -5.69521 0
M  V30 5782 H 794.994 2.4895 -6.75698 0
M  V30 5783 H 800.698 0.177619 -6.34151 0
M  V30 5784 P 802.555 -1.25109 -8.70152 0
M  V30 5785 O 803.977 -1.29744 -9.22016 0
M  V30 5786 O 802.195 -2.13714 -7.55141 0
M  V30 5787 O 802.232 0.248149 -8.21425 0
M  V30 5788 C 802.072 1.22779 -9.30434 0
M  V30 5789 C 802.612 2.56293 -8.80664 0
M  V30 5790 O 801.556 3.02979 -8.09349 0
M  V30 5791 C 803.83 2.57523 -7.89775 0
M  V30 5792 O 804.568 3.7668 -7.89438 0
M  V30 5793 C 803.161 2.20997 -6.55446 0
M  V30 5794 O 803.96 2.71895 -5.48509 0
M  V30 5795 C 801.824 2.89693 -6.67988 0
M  V30 5796 H 801.856 3.88793 -6.19859 0
M  V30 5797 H 803.039 1.12046 -6.44229 0
M  V30 5798 H 804.523 1.7746 -8.19711 0
M  V30 5799 H 802.829 3.20706 -9.67112 0
M  V30 5800 H 802.639 0.901032 -10.1892 0
M  V30 5801 H 801.009 1.33049 -9.56592 0
M  V30 5802 H 803.648 3.57847 -5.23962 0
M  V30 5803 P 805.506 3.65191 -7.99657 0
M  V30 5804 O 806.928 3.89416 -8.45976 0
M  V30 5805 O 805.146 2.28472 -7.50807 0
M  V30 5806 O 805.183 4.64972 -6.77611 0
M  V30 5807 C 805.023 6.06319 -7.16352 0
M  V30 5808 C 805.563 6.91655 -6.02234 0
M  V30 5809 O 804.508 6.92449 -5.17064 0
M  V30 5810 C 806.781 6.43627 -5.25174 0
M  V30 5811 O 807.519 7.43686 -4.60469 0
M  V30 5812 C 806.113 5.40275 -4.31916 0
M  V30 5813 O 806.911 5.25193 -3.14386 0
M  V30 5814 C 804.775 6.04847 -4.05327 0
M  V30 5815 N 803.732 5.04166 -3.98114 0
M  V30 5816 C 803.794 3.96049 -4.75587 0
M  V30 5817 N 802.749 3.15559 -4.54006 0
M  V30 5818 C 802.015 3.78802 -3.62491 0
M  V30 5819 C 800.709 3.476 -3.10071 0
M  V30 5820 O 799.976 2.51136 -3.37021 0
M  V30 5821 N 800.279 4.39088 -2.19956 0
M  V30 5822 C 801.028 5.53215 -1.81733 0
M  V30 5823 N 800.431 6.31963 -0.860928 0
M  V30 5824 N 802.181 5.86688 -2.32562 0
M  V30 5825 C 802.638 4.97525 -3.23407 0
M  V30 5826 H 804.807 6.62195 -3.11261 0
M  V30 5827 H 805.99 4.42488 -4.8131 0
M  V30 5828 H 807.475 5.93051 -5.9305 0
M  V30 5829 H 805.78 7.92655 -6.402 0
M  V30 5830 H 805.59 6.26671 -8.0846 0
M  V30 5831 H 803.959 6.29101 -7.32804 0
M  V30 5832 H 799.383 4.25523 -1.77604 0
M  V30 5833 H 804.59 3.75576 -5.47333 0
M  V30 5834 H 799.52 6.04684 -0.468946 0
M  V30 5835 H 800.896 7.18054 -0.542422 0
M  V30 5836 H 806.6 5.84223 -2.47279 0
M  V30 5837 P 808.456 7.39546 -4.75277 0
M  V30 5838 O 809.857 7.86988 -5.07993 0
M  V30 5839 O 808.078 5.99957 -5.13804 0
M  V30 5840 O 808.133 7.57411 -3.18621 0
M  V30 5841 C 807.973 8.97357 -2.74833 0
M  V30 5842 C 808.513 9.0745 -1.32694 0
M  V30 5843 O 807.457 8.61972 -0.606089 0
M  V30 5844 C 809.73 8.25383 -0.938334 0
M  V30 5845 O 810.469 8.74577 0.146954 0
M  V30 5846 C 809.063 6.8802 -0.712559 0
M  V30 5847 O 809.861 6.11791 0.194623 0
M  V30 5848 C 807.725 7.27966 -0.139777 0
M  V30 5849 N 806.682 6.39368 -0.623421 0
M  V30 5850 C 805.647 6.08088 0.223886 0
M  V30 5851 O 805.686 6.5102 1.39986 0
M  V30 5852 N 804.635 5.30627 -0.224051 0
M  V30 5853 C 804.683 4.82531 -1.47257 0
M  V30 5854 N 803.673 4.07328 -1.89378 0
M  V30 5855 C 805.779 5.09974 -2.34008 0
M  V30 5856 C 806.745 5.89548 -1.87678 0
M  V30 5857 H 807.757 7.25255 0.961469 0
M  V30 5858 H 808.94 6.32625 -1.65044 0
M  V30 5859 H 810.424 8.19631 -1.78299 0
M  V30 5860 H 808.73 10.1305 -1.09016 0
M  V30 5861 H 808.539 9.64276 -3.41316 0
M  V30 5862 H 806.909 9.25321 -2.76328 0
M  V30 5863 H 805.827 4.67832 -3.3413 0
M  V30 5864 H 807.591 6.14434 -2.51991 0
M  V30 5865 H 802.883 3.87329 -1.26296 0
M  V30 5866 H 803.678 3.69014 -2.84741 0
M  V30 5867 H 809.645 6.35931 1.08377 0
M  V30 5868 P 811.407 8.791 6.00516e-12 0
M  V30 5869 O 812.829 9.31096 0.027933 0
M  V30 5870 O 811.047 7.77869 -1.04071 0
M  V30 5871 O 811.084 8.09533 1.41463 0
M  V30 5872 C 810.924 9.0349 2.53943 0
M  V30 5873 C 811.464 8.35226 3.79016 0
M  V30 5874 O 810.408 7.57992 4.15078 0
M  V30 5875 C 812.682 7.45087 3.67298 0
M  V30 5876 O 813.42 7.27796 4.85194 0
M  V30 5877 C 812.013 6.17323 3.12027 0
M  V30 5878 O 812.812 5.04231 3.47188 0
M  V30 5879 C 810.676 6.19961 3.81809 0
M  V30 5880 H 810.708 5.58218 4.73051 0
M  V30 5881 H 811.891 6.21726 2.02589 0
M  V30 5882 H 813.375 7.86112 2.9231 0
M  V30 5883 H 811.681 9.11627 4.55076 0
M  V30 5884 H 811.491 9.9573 2.34194 0
M  V30 5885 H 809.861 9.2792 2.67832 0
M  V30 5886 H 812.5 4.67702 4.28772 0
M  V30 5887 P 814.357 7.39546 4.75277 0
M  V30 5888 O 815.779 7.81777 5.05738 0
M  V30 5889 O 813.997 7.1065 3.32998 0
M  V30 5890 O 814.034 6.04542 5.56673 0
M  V30 5891 C 813.874 6.22772 7.02095 0
M  V30 5892 C 814.414 4.97725 7.70406 0
M  V30 5893 O 813.358 4.13256 7.58987 0
M  V30 5894 C 815.632 4.28231 7.11815 0
M  V30 5895 O 816.37 3.49945 8.01648 0
M  V30 5896 C 814.963 3.5063 5.96244 0
M  V30 5897 O 815.762 2.36482 5.64681 0
M  V30 5898 C 813.626 3.15122 6.56374 0
M  V30 5899 H 813.658 2.13853 6.99751 0
M  V30 5900 H 814.841 4.13501 5.06559 0
M  V30 5901 H 816.325 5.03285 6.70911 0
M  V30 5902 H 814.631 5.20877 8.75697 0
M  V30 5903 H 814.441 7.11046 7.35349 0
M  V30 5904 H 812.811 6.35815 7.26986 0
M  V30 5905 H 815.45 1.61644 6.13565 0
M  V30 5906 P 817.308 3.65191 7.99657 0
M  V30 5907 O 818.709 3.90823 8.51272 0
M  V30 5908 O 816.93 4.23191 6.66972 0
M  V30 5909 O 816.985 2.07587 7.95046 0
M  V30 5910 C 816.825 1.44328 9.27336 0
M  V30 5911 C 817.365 0.0220012 9.17097 0
M  V30 5912 O 816.309 -0.626794 8.61824 0
M  V30 5913 C 818.582 -0.24586 8.30336 0
M  V30 5914 O 819.321 -1.39011 8.63583 0
M  V30 5915 C 817.915 -0.273849 6.91158 0
M  V30 5916 O 818.713 -1.06331 6.02794 0
M  V30 5917 C 816.577 -0.897649 7.22545 0
M  V30 5918 N 815.534 -0.292839 6.41732 0
M  V30 5919 C 814.499 -1.08701 5.98712 0
M  V30 5920 O 814.538 -2.31211 6.24471 0
M  V30 5921 N 813.487 -0.533391 5.28415 0
M  V30 5922 C 813.535 0.770866 4.98576 0
M  V30 5923 N 812.525 1.29482 4.30134 0
M  V30 5924 C 814.631 1.59049 5.38086 0
M  V30 5925 C 815.597 1.01866 6.10256 0
M  V30 5926 H 816.609 -1.98383 7.04189 0
M  V30 5927 H 817.792 0.733318 6.49674 0
M  V30 5928 H 819.276 0.598386 8.36663 0
M  V30 5929 H 817.582 -0.362662 10.1825 0
M  V30 5930 H 817.391 2.00611 10.0304 0
M  V30 5931 H 815.761 1.41828 9.55228 0
M  V30 5932 H 814.679 2.6415 5.10622 0
M  V30 5933 H 816.443 1.61983 6.44042 0
M  V30 5934 H 811.735 0.69888 4.01361 0
M  V30 5935 H 812.53 2.29327 4.05781 0
M  V30 5936 H 818.497 -1.97777 6.14035 0
M  V30 5937 P 820.258 -1.25109 8.70152 0
M  V30 5938 O 821.68 -1.35274 9.21221 0
M  V30 5939 O 819.898 -0.0769065 7.84762 0
M  V30 5940 O 819.935 -2.55232 7.81161 0
M  V30 5941 C 819.775 -3.79939 8.58154 0
M  V30 5942 C 820.315 -4.94023 7.72785 0
M  V30 5943 O 819.259 -5.18726 6.91205 0
M  V30 5944 C 821.533 -4.69597 6.85231 0
M  V30 5945 O 822.271 -5.83832 6.51337 0
M  V30 5946 C 820.864 -3.96706 5.66633 0
M  V30 5947 O 821.663 -4.15414 4.49689 0
M  V30 5948 C 819.527 -4.66153 5.59313 0
M  V30 5949 H 819.559 -5.47679 4.85214 0
M  V30 5950 H 820.742 -2.89008 5.86566 0
M  V30 5951 H 822.226 -4.0121 7.36511 0
M  V30 5952 H 820.532 -5.80182 8.37584 0
M  V30 5953 H 820.342 -3.73517 9.52265 0
M  V30 5954 H 818.712 -3.97163 8.80359 0
M  V30 5955 H 821.351 -4.90969 4.01921 0
M  V30 5956 P 823.209 -5.75688 6.64379 0
M  V30 5957 O 824.631 -6.11849 7.01846 0
M  V30 5958 O 822.849 -4.30744 6.56026 0
M  V30 5959 O 822.886 -6.37042 5.19165 0
M  V30 5960 C 822.726 -7.83578 5.16515 0
M  V30 5961 C 823.266 -8.33398 3.83019 0
M  V30 5962 O 822.21 -8.10074 3.01034 0
M  V30 5963 C 824.484 -7.65514 3.2257 0
M  V30 5964 O 825.222 -8.4329 2.32297 0
M  V30 5965 C 823.815 -6.40075 2.62207 0
M  V30 5966 O 824.614 -5.92589 1.53712 0
M  V30 5967 C 822.478 -6.9454 2.18503 0
M  V30 5968 H 822.51 -7.23063 1.12091 0
M  V30 5969 H 823.693 -5.6025 3.37201 0
M  V30 5970 H 825.177 -7.35707 4.02681 0
M  V30 5971 H 823.483 -9.40912 3.9095 0
M  V30 5972 H 823.293 -8.29056 5.99158 0
M  V30 5973 H 821.663 -8.10073 5.25882 0
M  V30 5974 H 824.302 -6.30324 0.726794 0
M  V30 5975 P 826.16 -8.4349 2.47671 0
M  V30 5976 O 827.582 -8.94167 2.5964 0
M  V30 5977 O 825.8 -7.1704 3.19006 0
M  V30 5978 O 825.837 -8.16596 0.923387 0
M  V30 5979 C 825.677 -9.38437 0.108857 0
M  V30 5980 C 826.217 -9.08175 -1.28353 0
M  V30 5981 O 825.161 -8.44229 -1.84713 0
M  V30 5982 C 827.435 -8.18386 -1.42505 0
M  V30 5983 O 828.173 -8.3501 -2.60497 0
M  V30 5984 C 826.766 -6.80225 -1.25468 0
M  V30 5985 O 827.565 -5.81621 -1.91066 0
M  V30 5986 C 825.429 -7.02416 -1.9168 0
M  V30 5987 H 825.461 -6.6888 -2.96621 0
M  V30 5988 H 826.644 -6.53617 -0.192223 0
M  V30 5989 H 828.128 -8.36622 -0.589963 0
M  V30 5990 H 826.434 -10.0291 -1.79807 0
M  V30 5991 H 826.244 -10.2138 0.558219 0
M  V30 5992 H 824.614 -9.6579 0.0444202 0
M  V30 5993 H 827.253 -5.69556 -2.79637 0
M  V30 5994 P 829.11 -8.4349 -2.47671 0
M  V30 5995 O 830.532 -8.92785 -2.65057 0
M  V30 5996 O 828.75 -7.7568 -1.19296 0
M  V30 5997 O 828.787 -7.36886 -3.63805 0
M  V30 5998 C 828.627 -7.95349 -4.982 0
M  V30 5999 C 829.167 -6.94537 -5.98908 0
M  V30 6000 O 828.112 -6.10347 -6.11815 0
M  V30 6001 C 830.385 -6.11426 -5.62335 0
M  V30 6002 O 831.123 -5.6162 -6.70584 0
M  V30 6003 C 829.717 -5.04409 -4.73308 0
M  V30 6004 O 830.515 -3.85929 -4.75106 0
M  V30 6005 C 828.379 -4.8728 -5.41006 0
M  V30 6006 N 827.336 -4.65812 -4.42377 0
M  V30 6007 C 827.398 -5.27109 -3.24335 0
M  V30 6008 N 826.353 -4.94293 -2.47735 0
M  V30 6009 C 825.619 -4.1271 -3.23359 0
M  V30 6010 C 824.313 -3.56384 -2.99934 0
M  V30 6011 O 823.58 -3.69331 -2.00616 0
M  V30 6012 N 823.883 -2.80206 -4.03316 0
M  V30 6013 C 824.632 -2.58614 -5.2172 0
M  V30 6014 N 824.035 -1.75154 -6.13278 0
M  V30 6015 N 825.785 -3.13689 -5.47619 0
M  V30 6016 C 826.242 -3.90921 -4.46436 0
M  V30 6017 H 828.411 -4.02333 -6.11157 0
M  V30 6018 H 829.594 -5.39383 -3.69487 0
M  V30 6019 H 831.079 -6.71414 -5.02615 0
M  V30 6020 H 829.384 -7.4649 -6.93477 0
M  V30 6021 H 829.194 -8.89416 -5.05237 0
M  V30 6022 H 827.563 -8.14876 -5.18409 0
M  V30 6023 H 822.987 -2.36355 -3.95916 0
M  V30 6024 H 828.194 -5.95212 -2.93859 0
M  V30 6025 H 823.124 -1.32473 -5.91856 0
M  V30 6026 H 824.5 -1.5588 -7.03026 0
M  V30 6027 H 830.204 -3.27906 -5.43085 0
M  V30 6028 P 832.061 -5.75688 -6.64379 0
M  V30 6029 O 833.483 -6.07627 -7.05504 0
M  V30 6030 O 831.701 -5.88047 -5.19722 0
M  V30 6031 O 831.738 -4.2322 -7.04443 0
M  V30 6032 C 831.578 -3.99743 -8.4911 0
M  V30 6033 C 832.118 -2.60516 -8.79425 0
M  V30 6034 O 831.062 -1.82684 -8.4467 0
M  V30 6035 C 833.336 -2.10343 -8.03628 0
M  V30 6036 O 834.074 -1.09919 -8.67766 0
M  V30 6037 C 832.667 -1.68446 -6.70876 0
M  V30 6038 O 833.466 -0.678137 -6.08433 0
M  V30 6039 C 831.33 -1.17436 -7.18567 0
M  V30 6040 H 831.362 -0.0804732 -7.31656 0
M  V30 6041 H 832.545 -2.54037 -6.02537 0
M  V30 6042 H 834.029 -2.93881 -7.85526 0
M  V30 6043 H 832.335 -2.53065 -9.86973 0
M  V30 6044 H 832.145 -4.75072 -9.05887 0
M  V30 6045 H 830.515 -4.05244 -8.76668 0
M  V30 6046 H 833.154 0.177647 -6.34251 0
M  V30 6047 P 835.011 -1.25109 -8.70152 0
M  V30 6048 O 836.433 -1.29744 -9.22016 0
M  V30 6049 O 834.651 -2.13714 -7.55141 0
M  V30 6050 O 834.688 0.248149 -8.21425 0
M  V30 6051 C 834.528 1.22779 -9.30434 0
M  V30 6052 C 835.068 2.56293 -8.80664 0
M  V30 6053 O 834.012 3.02979 -8.09349 0
M  V30 6054 C 836.286 2.57523 -7.89775 0
M  V30 6055 O 837.024 3.7668 -7.89438 0
M  V30 6056 C 835.617 2.20997 -6.55446 0
M  V30 6057 O 836.416 2.71895 -5.48509 0
M  V30 6058 C 834.28 2.89693 -6.67988 0
M  V30 6059 H 834.312 3.88793 -6.19859 0
M  V30 6060 H 835.495 1.12046 -6.44229 0
M  V30 6061 H 836.979 1.7746 -8.19711 0
M  V30 6062 H 835.285 3.20706 -9.67112 0
M  V30 6063 H 835.095 0.901032 -10.1892 0
M  V30 6064 H 833.465 1.33049 -9.56592 0
M  V30 6065 H 836.104 3.57847 -5.23962 0
M  V30 6066 P 837.962 3.65191 -7.99657 0
M  V30 6067 O 839.384 3.89332 -8.45794 0
M  V30 6068 O 837.602 2.28472 -7.50807 0
M  V30 6069 O 837.639 4.64972 -6.77611 0
M  V30 6070 C 837.479 6.06319 -7.16352 0
M  V30 6071 C 838.019 6.91731 -6.02299 0
M  V30 6072 O 836.963 6.92449 -5.17064 0
M  V30 6073 C 839.237 6.43627 -5.25174 0
M  V30 6074 O 839.975 7.43686 -4.60469 0
M  V30 6075 C 838.568 5.40275 -4.31916 0
M  V30 6076 O 839.367 5.25279 -3.14438 0
M  V30 6077 C 837.231 6.04847 -4.05327 0
M  V30 6078 H 837.263 6.62195 -3.11261 0
M  V30 6079 H 838.446 4.42556 -4.81383 0
M  V30 6080 H 839.93 5.92458 -5.93643 0
M  V30 6081 H 838.236 7.92655 -6.402 0
M  V30 6082 H 838.046 6.26671 -8.0846 0
M  V30 6083 H 836.416 6.29101 -7.32804 0
M  V30 6084 H 839.055 5.84315 -2.47318 0
M  V30 6085 P 840.912 7.39546 -4.75277 0
M  V30 6086 O 842.334 7.84798 -5.01039 0
M  V30 6087 O 840.552 5.9812 -5.08098 0
M  V30 6088 O 840.589 7.57503 -3.1866 0
M  V30 6089 C 840.429 8.97357 -2.74833 0
M  V30 6090 C 840.969 9.07548 -1.32709 0
M  V30 6091 O 839.913 8.62072 -0.606159 0
M  V30 6092 C 842.187 8.25383 -0.938334 0
M  V30 6093 O 842.925 8.74577 0.146954 0
M  V30 6094 C 841.518 6.8802 -0.712559 0
M  V30 6095 O 842.317 6.1189 0.194655 0
M  V30 6096 C 840.181 7.27966 -0.139777 0
M  V30 6097 H 840.213 7.25354 0.961601 0
M  V30 6098 H 841.396 6.32557 -1.65702 0
M  V30 6099 H 842.88 8.19355 -1.79097 0
M  V30 6100 H 841.186 10.1294 -1.10029 0
M  V30 6101 H 840.996 9.64276 -3.41316 0
M  V30 6102 H 839.366 9.25417 -2.76357 0
M  V30 6103 H 842.005 6.25267 1.07847 0
M  V30 6104 P 843.863 8.791 6.31533e-12 0
M  V30 6105 O 845.285 9.31096 0.027933 0
M  V30 6106 O 843.503 7.77869 -1.04071 0
M  V30 6107 O 843.54 8.09533 1.41463 0
M  V30 6108 C 843.38 9.0349 2.53943 0
M  V30 6109 C 843.92 8.35226 3.79016 0
M  V30 6110 O 842.864 7.57992 4.15078 0
M  V30 6111 C 845.138 7.45087 3.67298 0
M  V30 6112 O 845.876 7.27796 4.85194 0
M  V30 6113 C 844.469 6.17323 3.12027 0
M  V30 6114 O 845.268 5.04231 3.47188 0
M  V30 6115 C 843.132 6.19961 3.81809 0
M  V30 6116 H 843.164 5.58218 4.73051 0
M  V30 6117 H 844.347 6.21726 2.02589 0
M  V30 6118 H 845.831 7.86112 2.9231 0
M  V30 6119 H 844.137 9.11627 4.55076 0
M  V30 6120 H 843.947 9.9573 2.34194 0
M  V30 6121 H 842.317 9.2792 2.67832 0
M  V30 6122 H 844.956 4.67702 4.28772 0
M  V30 6123 P 846.814 7.39546 4.75277 0
M  V30 6124 O 848.236 7.81945 5.05847 0
M  V30 6125 O 846.454 7.1065 3.32998 0
M  V30 6126 O 846.491 6.04542 5.56673 0
M  V30 6127 C 846.331 6.22772 7.02095 0
M  V30 6128 C 846.871 4.97671 7.70322 0
M  V30 6129 O 845.816 4.13256 7.58987 0
M  V30 6130 C 848.089 4.28231 7.11815 0
M  V30 6131 O 848.827 3.49945 8.01648 0
M  V30 6132 C 847.421 3.5063 5.96244 0
M  V30 6133 O 848.219 2.36443 5.64589 0
M  V30 6134 C 846.083 3.15122 6.56374 0
M  V30 6135 N 845.04 3.22311 5.55692 0
M  V30 6136 C 845.102 4.14382 4.59701 0
M  V30 6137 N 844.057 4.04476 3.76958 0
M  V30 6138 C 843.323 3.04892 4.26534 0
M  V30 6139 C 842.017 2.57447 3.88189 0
M  V30 6140 O 841.284 2.9785 2.96543 0
M  V30 6141 N 841.587 1.55228 4.65922 0
M  V30 6142 C 842.336 1.01152 5.73447 0
M  V30 6143 N 841.739 -0.0472117 6.37783 0
M  V30 6144 N 843.489 1.467 6.13813 0
M  V30 6145 C 843.946 2.4931 5.38487 0
M  V30 6146 H 846.115 2.13853 6.99751 0
M  V30 6147 H 847.298 4.13438 5.06482 0
M  V30 6148 H 848.783 5.02614 6.71414 0
M  V30 6149 H 847.088 5.20877 8.75697 0
M  V30 6150 H 846.898 7.11046 7.35349 0
M  V30 6151 H 845.267 6.35815 7.26986 0
M  V30 6152 H 840.691 1.15238 4.46468 0
M  V30 6153 H 845.898 4.88312 4.49647 0
M  V30 6154 H 840.828 -0.396382 6.05203 0
M  V30 6155 H 842.204 -0.484997 7.18465 0
M  V30 6156 H 847.908 1.61619 6.13468 0
M  V30 6157 P 849.764 3.65191 7.99657 0
M  V30 6158 O 851.185 3.84292 8.48206 0
M  V30 6159 O 849.404 4.17805 6.64342 0
M  V30 6160 O 849.441 2.07613 7.95143 0
M  V30 6161 C 849.28 1.44344 9.27435 0
M  V30 6162 C 849.821 0.0220036 9.17197 0
M  V30 6163 O 848.766 -0.626794 8.61824 0
M  V30 6164 C 851.039 -0.24586 8.30336 0
M  V30 6165 O 851.777 -1.39011 8.63583 0
M  V30 6166 C 850.371 -0.273849 6.91158 0
M  V30 6167 O 851.169 -1.05728 6.029 0
M  V30 6168 C 849.033 -0.897649 7.22545 0
M  V30 6169 N 847.99 -0.292839 6.41732 0
M  V30 6170 C 848.159 0.950603 5.91308 0
M  V30 6171 N 847.132 1.37732 5.21105 0
M  V30 6172 C 846.247 0.318109 5.26039 0
M  V30 6173 C 844.98 0.146766 4.6727 0
M  V30 6174 N 844.381 1.08519 3.89983 0
M  V30 6175 N 844.415 -1.06525 4.95887 0
M  V30 6176 C 845.017 -2.0378 5.71347 0
M  V30 6177 N 846.194 -1.92445 6.27451 0
M  V30 6178 C 846.769 -0.715382 6.00353 0
M  V30 6179 H 849.065 -1.98383 7.04189 0
M  V30 6180 H 850.248 0.733318 6.49674 0
M  V30 6181 H 851.731 0.60668 8.36503 0
M  V30 6182 H 850.037 -0.362662 10.1825 0
M  V30 6183 H 849.847 2.00611 10.0304 0
M  V30 6184 H 848.217 1.41843 9.55327 0
M  V30 6185 H 844.481 -2.97041 5.85344 0
M  V30 6186 H 849.059 1.54076 6.07465 0
M  V30 6187 H 843.451 0.901517 3.49562 0
M  V30 6188 H 844.855 1.97957 3.71669 0
M  V30 6189 H 850.857 -1.95704 6.0346 0
M  V30 6190 P 852.715 -1.25109 8.70152 0
M  V30 6191 O 854.137 -1.35303 9.21419 0
M  V30 6192 O 852.355 -0.0769065 7.84762 0
M  V30 6193 O 852.392 -2.55232 7.81161 0
M  V30 6194 C 852.232 -3.79939 8.58154 0
M  V30 6195 C 852.772 -4.93969 7.72701 0
M  V30 6196 O 851.717 -5.18726 6.91205 0
M  V30 6197 C 853.99 -4.69597 6.85231 0
M  V30 6198 O 854.728 -5.83832 6.51337 0
M  V30 6199 C 853.322 -3.96706 5.66633 0
M  V30 6200 O 854.12 -4.15346 4.49615 0
M  V30 6201 C 851.984 -4.66153 5.59313 0
M  V30 6202 N 850.941 -3.71582 5.24027 0
M  V30 6203 C 851.003 -2.46018 5.67902 0
M  V30 6204 N 849.958 -1.74868 5.24518 0
M  V30 6205 C 849.224 -2.61333 4.54528 0
M  V30 6206 C 847.918 -2.46162 3.95441 0
M  V30 6207 O 847.185 -1.46013 3.94122 0
M  V30 6208 N 847.488 -3.59334 3.34752 0
M  V30 6209 C 848.237 -4.79605 3.3023 0
M  V30 6210 N 847.64 -5.82109 2.6065 0
M  V30 6211 N 849.39 -4.97402 3.8843 0
M  V30 6212 C 849.847 -3.86258 4.50476 0
M  V30 6213 H 852.016 -5.47679 4.85214 0
M  V30 6214 H 853.199 -2.88964 5.86476 0
M  V30 6215 H 854.684 -4.01947 7.36109 0
M  V30 6216 H 852.989 -5.80182 8.37584 0
M  V30 6217 H 852.799 -3.73517 9.52265 0
M  V30 6218 H 851.168 -3.97163 8.80359 0
M  V30 6219 H 846.592 -3.5825 2.90294 0
M  V30 6220 H 851.799 -2.06161 6.30974 0
M  V30 6221 H 846.729 -5.66979 2.15354 0
M  V30 6222 H 848.105 -6.73686 2.54344 0
M  V30 6223 H 853.809 -4.90891 4.01857 0
M  V30 6224 P 855.665 -5.75688 6.64379 0
M  V30 6225 O 857.087 -6.11849 7.01846 0
M  V30 6226 O 855.305 -4.30744 6.56026 0
M  V30 6227 O 855.342 -6.37042 5.19165 0
M  V30 6228 C 855.182 -7.83578 5.16515 0
M  V30 6229 C 855.722 -8.33398 3.83019 0
M  V30 6230 O 854.666 -8.10074 3.01034 0
M  V30 6231 C 856.94 -7.65514 3.2257 0
M  V30 6232 O 857.678 -8.4329 2.32297 0
M  V30 6233 C 856.271 -6.40075 2.62207 0
M  V30 6234 O 857.07 -5.92589 1.53712 0
M  V30 6235 C 854.934 -6.9454 2.18503 0
M  V30 6236 H 854.966 -7.23063 1.12091 0
M  V30 6237 H 856.149 -5.6025 3.37201 0
M  V30 6238 H 857.633 -7.35707 4.02681 0
M  V30 6239 H 855.939 -9.40912 3.9095 0
M  V30 6240 H 855.749 -8.29056 5.99158 0
M  V30 6241 H 854.119 -8.10073 5.25882 0
M  V30 6242 H 856.758 -6.30324 0.726794 0
M  V30 6243 P 858.616 -8.4349 2.47671 0
M  V30 6244 O 860.038 -8.94167 2.5964 0
M  V30 6245 O 858.256 -7.1704 3.19006 0
M  V30 6246 O 858.293 -8.16596 0.923387 0
M  V30 6247 C 858.133 -9.38437 0.108857 0
M  V30 6248 C 858.673 -9.08175 -1.28353 0
M  V30 6249 O 857.617 -8.44229 -1.84713 0
M  V30 6250 C 859.891 -8.18386 -1.42505 0
M  V30 6251 O 860.629 -8.3501 -2.60497 0
M  V30 6252 C 859.222 -6.80225 -1.25468 0
M  V30 6253 O 860.021 -5.81621 -1.91066 0
M  V30 6254 C 857.885 -7.02416 -1.9168 0
M  V30 6255 H 857.917 -6.6888 -2.96621 0
M  V30 6256 H 859.1 -6.53617 -0.192223 0
M  V30 6257 H 860.584 -8.36622 -0.589963 0
M  V30 6258 H 858.89 -10.0291 -1.79807 0
M  V30 6259 H 858.7 -10.2138 0.558219 0
M  V30 6260 H 857.07 -9.6579 0.0444202 0
M  V30 6261 H 859.709 -5.69556 -2.79637 0
M  V30 6262 P 861.566 -8.4349 -2.47671 0
M  V30 6263 O 862.988 -8.92593 -2.65 0
M  V30 6264 O 861.206 -7.7568 -1.19296 0
M  V30 6265 O 861.243 -7.36886 -3.63805 0
M  V30 6266 C 861.083 -7.95349 -4.982 0
M  V30 6267 C 861.623 -6.94612 -5.98974 0
M  V30 6268 O 860.567 -6.10347 -6.11815 0
M  V30 6269 C 862.841 -6.11426 -5.62335 0
M  V30 6270 O 863.579 -5.6162 -6.70584 0
M  V30 6271 C 862.172 -5.04409 -4.73308 0
M  V30 6272 O 862.971 -3.85992 -4.75183 0
M  V30 6273 C 860.835 -4.8728 -5.41006 0
M  V30 6274 H 860.867 -4.02333 -6.11157 0
M  V30 6275 H 862.05 -5.39466 -3.69543 0
M  V30 6276 H 863.534 -6.71916 -5.01943 0
M  V30 6277 H 861.84 -7.4649 -6.93477 0
M  V30 6278 H 861.65 -8.89416 -5.05237 0
M  V30 6279 H 860.02 -8.14876 -5.18409 0
M  V30 6280 H 862.659 -3.27957 -5.4317 0
M  V30 6281 P 864.517 -5.75688 -6.64379 0
M  V30 6282 O 865.939 -6.07627 -7.05504 0
M  V30 6283 O 864.157 -5.88047 -5.19722 0
M  V30 6284 O 864.194 -4.2322 -7.04443 0
M  V30 6285 C 864.034 -3.99743 -8.4911 0
M  V30 6286 C 864.574 -2.60516 -8.79425 0
M  V30 6287 O 863.518 -1.82684 -8.4467 0
M  V30 6288 C 865.792 -2.10343 -8.03628 0
M  V30 6289 O 866.53 -1.09919 -8.67766 0
M  V30 6290 C 865.123 -1.68446 -6.70876 0
M  V30 6291 O 865.922 -0.678137 -6.08433 0
M  V30 6292 C 863.786 -1.17436 -7.18567 0
M  V30 6293 H 863.818 -0.0804732 -7.31656 0
M  V30 6294 H 865.001 -2.54037 -6.02537 0
M  V30 6295 H 866.485 -2.93881 -7.85526 0
M  V30 6296 H 864.791 -2.53065 -9.86973 0
M  V30 6297 H 864.601 -4.75072 -9.05887 0
M  V30 6298 H 862.971 -4.05244 -8.76668 0
M  V30 6299 H 865.61 0.177647 -6.34251 0
M  V30 6300 P 867.468 -1.25109 -8.70152 0
M  V30 6301 O 868.89 -1.29744 -9.22016 0
M  V30 6302 O 867.108 -2.13714 -7.55141 0
M  V30 6303 O 867.145 0.248149 -8.21425 0
M  V30 6304 C 866.985 1.22779 -9.30434 0
M  V30 6305 C 867.525 2.56293 -8.80664 0
M  V30 6306 O 866.469 3.02979 -8.09349 0
M  V30 6307 C 868.743 2.57523 -7.89775 0
M  V30 6308 O 869.481 3.7668 -7.89438 0
M  V30 6309 C 868.074 2.20997 -6.55446 0
M  V30 6310 O 868.873 2.71895 -5.48509 0
M  V30 6311 C 866.737 2.89693 -6.67988 0
M  V30 6312 H 866.769 3.88793 -6.19859 0
M  V30 6313 H 867.952 1.12046 -6.44229 0
M  V30 6314 H 869.436 1.7746 -8.19711 0
M  V30 6315 H 867.742 3.20706 -9.67112 0
M  V30 6316 H 867.552 0.901032 -10.1892 0
M  V30 6317 H 865.922 1.33049 -9.56592 0
M  V30 6318 H 868.561 3.57847 -5.23962 0
M  V30 6319 P 870.418 3.65191 -7.99657 0
M  V30 6320 O 871.84 3.89332 -8.45794 0
M  V30 6321 O 870.058 2.28472 -7.50807 0
M  V30 6322 O 870.095 4.64972 -6.77611 0
M  V30 6323 C 869.935 6.06319 -7.16352 0
M  V30 6324 C 870.475 6.91731 -6.02299 0
M  V30 6325 O 869.419 6.92449 -5.17064 0
M  V30 6326 C 871.693 6.43627 -5.25174 0
M  V30 6327 O 872.431 7.43686 -4.60469 0
M  V30 6328 C 871.024 5.40275 -4.31916 0
M  V30 6329 O 871.823 5.25279 -3.14438 0
M  V30 6330 C 869.687 6.04847 -4.05327 0
M  V30 6331 H 869.719 6.62195 -3.11261 0
M  V30 6332 H 870.902 4.42556 -4.81383 0
M  V30 6333 H 872.386 5.92458 -5.93643 0
M  V30 6334 H 870.692 7.92655 -6.402 0
M  V30 6335 H 870.502 6.26671 -8.0846 0
M  V30 6336 H 868.872 6.29101 -7.32804 0
M  V30 6337 H 871.511 5.84315 -2.47318 0
M  V30 6338 P 873.369 7.39546 -4.75277 0
M  V30 6339 O 874.791 7.84798 -5.01039 0
M  V30 6340 O 873.009 5.9812 -5.08098 0
M  V30 6341 O 873.046 7.57503 -3.1866 0
M  V30 6342 C 872.886 8.97357 -2.74833 0
M  V30 6343 C 873.426 9.07548 -1.32709 0
M  V30 6344 O 872.37 8.62072 -0.606159 0
M  V30 6345 C 874.644 8.25383 -0.938334 0
M  V30 6346 O 875.382 8.74577 0.146954 0
M  V30 6347 C 873.975 6.8802 -0.712559 0
M  V30 6348 O 874.774 6.1189 0.194655 0
M  V30 6349 C 872.638 7.27966 -0.139777 0
M  V30 6350 H 872.67 7.25354 0.961601 0
M  V30 6351 H 873.853 6.32557 -1.65702 0
M  V30 6352 H 875.337 8.19355 -1.79097 0
M  V30 6353 H 873.643 10.1294 -1.10029 0
M  V30 6354 H 873.453 9.64276 -3.41316 0
M  V30 6355 H 871.823 9.25417 -2.76357 0
M  V30 6356 H 874.462 6.25267 1.07847 0
M  V30 6357 P 876.319 8.791 6.62549e-12 0
M  V30 6358 O 877.741 9.31096 0.027933 0
M  V30 6359 O 875.959 7.77869 -1.04071 0
M  V30 6360 O 875.996 8.09533 1.41463 0
M  V30 6361 C 875.836 9.0349 2.53943 0
M  V30 6362 C 876.376 8.35226 3.79016 0
M  V30 6363 O 875.32 7.57992 4.15078 0
M  V30 6364 C 877.594 7.45087 3.67298 0
M  V30 6365 O 878.332 7.27796 4.85194 0
M  V30 6366 C 876.925 6.17323 3.12027 0
M  V30 6367 O 877.724 5.04231 3.47188 0
M  V30 6368 C 875.588 6.19961 3.81809 0
M  V30 6369 H 875.62 5.58218 4.73051 0
M  V30 6370 H 876.803 6.21726 2.02589 0
M  V30 6371 H 878.287 7.86112 2.9231 0
M  V30 6372 H 876.593 9.11627 4.55076 0
M  V30 6373 H 876.403 9.9573 2.34194 0
M  V30 6374 H 874.773 9.2792 2.67832 0
M  V30 6375 H 877.412 4.67702 4.28772 0
M  V30 6376 P 879.27 7.39546 4.75277 0
M  V30 6377 O 880.692 7.81777 5.05738 0
M  V30 6378 O 878.91 7.1065 3.32998 0
M  V30 6379 O 878.947 6.04542 5.56673 0
M  V30 6380 C 878.787 6.22772 7.02095 0
M  V30 6381 C 879.327 4.97725 7.70406 0
M  V30 6382 O 878.271 4.13256 7.58987 0
M  V30 6383 C 880.545 4.28231 7.11815 0
M  V30 6384 O 881.283 3.49945 8.01648 0
M  V30 6385 C 879.876 3.5063 5.96244 0
M  V30 6386 O 880.675 2.36482 5.64681 0
M  V30 6387 C 878.539 3.15122 6.56374 0
M  V30 6388 H 878.571 2.13853 6.99751 0
M  V30 6389 H 879.754 4.13501 5.06559 0
M  V30 6390 H 881.238 5.03285 6.70911 0
M  V30 6391 H 879.544 5.20877 8.75697 0
M  V30 6392 H 879.354 7.11046 7.35349 0
M  V30 6393 H 877.724 6.35815 7.26986 0
M  V30 6394 H 880.363 1.61644 6.13565 0
M  V30 6395 P 882.22 3.65191 7.99657 0
M  V30 6396 O 883.641 3.84292 8.48206 0
M  V30 6397 O 881.86 4.17805 6.64342 0
M  V30 6398 O 881.897 2.07613 7.95143 0
M  V30 6399 C 881.736 1.44344 9.27435 0
M  V30 6400 C 882.277 0.0220036 9.17197 0
M  V30 6401 O 881.222 -0.626794 8.61824 0
M  V30 6402 C 883.495 -0.24586 8.30336 0
M  V30 6403 O 884.233 -1.39011 8.63583 0
M  V30 6404 C 882.827 -0.273849 6.91158 0
M  V30 6405 O 883.625 -1.05728 6.029 0
M  V30 6406 C 881.489 -0.897649 7.22545 0
M  V30 6407 N 880.446 -0.292839 6.41732 0
M  V30 6408 C 880.615 0.950603 5.91308 0
M  V30 6409 N 879.588 1.37732 5.21105 0
M  V30 6410 C 878.703 0.318109 5.26039 0
M  V30 6411 C 877.436 0.146766 4.6727 0
M  V30 6412 N 876.837 1.08519 3.89983 0
M  V30 6413 N 876.871 -1.06525 4.95887 0
M  V30 6414 C 877.473 -2.0378 5.71347 0
M  V30 6415 N 878.65 -1.92445 6.27451 0
M  V30 6416 C 879.225 -0.715382 6.00353 0
M  V30 6417 H 881.521 -1.98383 7.04189 0
M  V30 6418 H 882.704 0.733318 6.49674 0
M  V30 6419 H 884.187 0.60668 8.36503 0
M  V30 6420 H 882.493 -0.362662 10.1825 0
M  V30 6421 H 882.303 2.00611 10.0304 0
M  V30 6422 H 880.673 1.41843 9.55327 0
M  V30 6423 H 876.937 -2.97041 5.85344 0
M  V30 6424 H 881.515 1.54076 6.07465 0
M  V30 6425 H 875.907 0.901517 3.49562 0
M  V30 6426 H 877.311 1.97957 3.71669 0
M  V30 6427 H 883.313 -1.95704 6.0346 0
M  V30 6428 P 885.171 -1.25109 8.70152 0
M  V30 6429 O 886.593 -1.35303 9.21419 0
M  V30 6430 O 884.811 -0.0769065 7.84762 0
M  V30 6431 O 884.848 -2.55232 7.81161 0
M  V30 6432 C 884.688 -3.79939 8.58154 0
M  V30 6433 C 885.228 -4.93969 7.72701 0
M  V30 6434 O 884.173 -5.18726 6.91205 0
M  V30 6435 C 886.446 -4.69597 6.85231 0
M  V30 6436 O 887.184 -5.83832 6.51337 0
M  V30 6437 C 885.778 -3.96706 5.66633 0
M  V30 6438 O 886.576 -4.15346 4.49615 0
M  V30 6439 C 884.44 -4.66153 5.59313 0
M  V30 6440 N 883.397 -3.71582 5.24027 0
M  V30 6441 C 883.459 -2.46018 5.67902 0
M  V30 6442 N 882.414 -1.74868 5.24518 0
M  V30 6443 C 881.68 -2.61333 4.54528 0
M  V30 6444 C 880.374 -2.46162 3.95441 0
M  V30 6445 O 879.641 -1.46013 3.94122 0
M  V30 6446 N 879.944 -3.59334 3.34752 0
M  V30 6447 C 880.693 -4.79605 3.3023 0
M  V30 6448 N 880.096 -5.82109 2.6065 0
M  V30 6449 N 881.846 -4.97402 3.8843 0
M  V30 6450 C 882.303 -3.86258 4.50476 0
M  V30 6451 H 884.472 -5.47679 4.85214 0
M  V30 6452 H 885.655 -2.88964 5.86476 0
M  V30 6453 H 887.14 -4.01947 7.36109 0
M  V30 6454 H 885.445 -5.80182 8.37584 0
M  V30 6455 H 885.255 -3.73517 9.52265 0
M  V30 6456 H 883.624 -3.97163 8.80359 0
M  V30 6457 H 879.048 -3.5825 2.90294 0
M  V30 6458 H 884.255 -2.06161 6.30974 0
M  V30 6459 H 879.185 -5.66979 2.15354 0
M  V30 6460 H 880.561 -6.73686 2.54344 0
M  V30 6461 H 886.265 -4.90891 4.01857 0
M  V30 6462 P 888.122 -5.75688 6.64379 0
M  V30 6463 O 889.544 -6.11849 7.01846 0
M  V30 6464 O 887.762 -4.30744 6.56026 0
M  V30 6465 O 887.799 -6.37042 5.19165 0
M  V30 6466 C 887.639 -7.83578 5.16515 0
M  V30 6467 C 888.179 -8.33398 3.83019 0
M  V30 6468 O 887.123 -8.10074 3.01034 0
M  V30 6469 C 889.397 -7.65514 3.2257 0
M  V30 6470 O 890.135 -8.4329 2.32297 0
M  V30 6471 C 888.728 -6.40075 2.62207 0
M  V30 6472 O 889.527 -5.92589 1.53712 0
M  V30 6473 C 887.391 -6.9454 2.18503 0
M  V30 6474 H 887.423 -7.23063 1.12091 0
M  V30 6475 H 888.606 -5.6025 3.37201 0
M  V30 6476 H 890.09 -7.35707 4.02681 0
M  V30 6477 H 888.396 -9.40912 3.9095 0
M  V30 6478 H 888.206 -8.29056 5.99158 0
M  V30 6479 H 886.576 -8.10073 5.25882 0
M  V30 6480 H 889.215 -6.30324 0.726794 0
M  V30 6481 P 891.072 -8.4349 2.47671 0
M  V30 6482 O 892.494 -8.94167 2.5964 0
M  V30 6483 O 890.712 -7.1704 3.19006 0
M  V30 6484 O 890.749 -8.16596 0.923387 0
M  V30 6485 C 890.589 -9.38437 0.108857 0
M  V30 6486 C 891.129 -9.08175 -1.28353 0
M  V30 6487 O 890.073 -8.44229 -1.84713 0
M  V30 6488 C 892.347 -8.18386 -1.42505 0
M  V30 6489 O 893.085 -8.3501 -2.60497 0
M  V30 6490 C 891.678 -6.80225 -1.25468 0
M  V30 6491 O 892.477 -5.81621 -1.91066 0
M  V30 6492 C 890.341 -7.02416 -1.9168 0
M  V30 6493 H 890.373 -6.6888 -2.96621 0
M  V30 6494 H 891.556 -6.53617 -0.192223 0
M  V30 6495 H 893.04 -8.36622 -0.589963 0
M  V30 6496 H 891.346 -10.0291 -1.79807 0
M  V30 6497 H 891.156 -10.2138 0.558219 0
M  V30 6498 H 889.526 -9.6579 0.0444202 0
M  V30 6499 H 892.165 -5.69556 -2.79637 0
M  V30 6500 P 894.023 -8.4349 -2.47671 0
M  V30 6501 O 895.445 -8.92593 -2.65 0
M  V30 6502 O 893.663 -7.7568 -1.19296 0
M  V30 6503 O 893.7 -7.36886 -3.63805 0
M  V30 6504 C 893.54 -7.95349 -4.982 0
M  V30 6505 C 894.08 -6.94612 -5.98974 0
M  V30 6506 O 893.024 -6.10347 -6.11815 0
M  V30 6507 C 895.298 -6.11426 -5.62335 0
M  V30 6508 O 896.036 -5.6162 -6.70584 0
M  V30 6509 C 894.629 -5.04409 -4.73308 0
M  V30 6510 O 895.428 -3.85992 -4.75183 0
M  V30 6511 C 893.292 -4.8728 -5.41006 0
M  V30 6512 H 893.324 -4.02333 -6.11157 0
M  V30 6513 H 894.507 -5.39466 -3.69543 0
M  V30 6514 H 895.991 -6.71916 -5.01943 0
M  V30 6515 H 894.297 -7.4649 -6.93477 0
M  V30 6516 H 894.107 -8.89416 -5.05237 0
M  V30 6517 H 892.477 -8.14876 -5.18409 0
M  V30 6518 H 895.116 -3.27957 -5.4317 0
M  V30 6519 P 896.973 -5.75688 -6.64379 0
M  V30 6520 O 898.395 -6.07627 -7.05504 0
M  V30 6521 O 896.613 -5.88047 -5.19722 0
M  V30 6522 O 896.65 -4.2322 -7.04443 0
M  V30 6523 C 896.49 -3.99743 -8.4911 0
M  V30 6524 C 897.03 -2.60516 -8.79425 0
M  V30 6525 O 895.974 -1.82684 -8.4467 0
M  V30 6526 C 898.248 -2.10343 -8.03628 0
M  V30 6527 O 898.986 -1.09919 -8.67766 0
M  V30 6528 C 897.579 -1.68446 -6.70876 0
M  V30 6529 O 898.378 -0.678137 -6.08433 0
M  V30 6530 C 896.242 -1.17436 -7.18567 0
M  V30 6531 H 896.274 -0.0804732 -7.31656 0
M  V30 6532 H 897.457 -2.54037 -6.02537 0
M  V30 6533 H 898.941 -2.93881 -7.85526 0
M  V30 6534 H 897.247 -2.53065 -9.86973 0
M  V30 6535 H 897.057 -4.75072 -9.05887 0
M  V30 6536 H 895.427 -4.05244 -8.76668 0
M  V30 6537 H 898.066 0.177647 -6.34251 0
M  V30 6538 P 899.924 -1.25109 -8.70152 0
M  V30 6539 O 901.346 -1.29744 -9.22016 0
M  V30 6540 O 899.564 -2.13714 -7.55141 0
M  V30 6541 O 899.601 0.248149 -8.21425 0
M  V30 6542 C 899.441 1.22779 -9.30434 0
M  V30 6543 C 899.981 2.56293 -8.80664 0
M  V30 6544 O 898.925 3.02979 -8.09349 0
M  V30 6545 C 901.199 2.57523 -7.89775 0
M  V30 6546 O 901.937 3.7668 -7.89438 0
M  V30 6547 C 900.53 2.20997 -6.55446 0
M  V30 6548 O 901.329 2.71895 -5.48509 0
M  V30 6549 C 899.193 2.89693 -6.67988 0
M  V30 6550 H 899.225 3.88793 -6.19859 0
M  V30 6551 H 900.408 1.12046 -6.44229 0
M  V30 6552 H 901.892 1.7746 -8.19711 0
M  V30 6553 H 900.198 3.20706 -9.67112 0
M  V30 6554 H 900.008 0.901032 -10.1892 0
M  V30 6555 H 898.378 1.33049 -9.56592 0
M  V30 6556 H 901.017 3.57847 -5.23962 0
M  V30 6557 P 902.874 3.65191 -7.99657 0
M  V30 6558 O 904.275 3.87414 -8.52829 0
M  V30 6559 O 902.496 2.26932 -7.566 0
M  V30 6560 O 902.551 4.64915 -6.77529 0
M  V30 6561 C 902.391 6.06319 -7.16352 0
M  V30 6562 C 902.931 6.91655 -6.02234 0
M  V30 6563 O 901.875 6.92369 -5.17005 0
M  V30 6564 C 904.148 6.43627 -5.25174 0
M  V30 6565 O 904.887 7.43686 -4.60469 0
M  V30 6566 C 903.481 5.40275 -4.31916 0
M  V30 6567 O 904.279 5.25193 -3.14386 0
M  V30 6568 C 902.143 6.04847 -4.05327 0
M  V30 6569 N 901.1 5.04166 -3.98114 0
M  V30 6570 C 900.065 5.2366 -3.09923 0
M  V30 6571 O 900.104 6.23355 -2.34204 0
M  V30 6572 N 899.053 4.34279 -3.05727 0
M  V30 6573 C 899.101 3.26317 -3.84756 0
M  V30 6574 C 900.197 3.02504 -4.72573 0
M  V30 6575 C 901.163 3.94493 -4.76618 0
M  V30 6576 H 902.175 6.62104 -3.11218 0
M  V30 6577 H 903.358 4.42969 -4.80867 0
M  V30 6578 H 904.842 5.93122 -5.93121 0
M  V30 6579 H 903.148 7.93295 -6.39407 0
M  V30 6580 H 902.957 6.26671 -8.0846 0
M  V30 6581 H 901.327 6.29036 -7.32728 0
M  V30 6582 H 900.245 2.12921 -5.34017 0
M  V30 6583 H 902.009 3.80658 -5.44176 0
M  V30 6584 H 904.063 5.93572 -2.52637 0
M  V30 6585 P 905.825 7.39546 -4.75277 0
M  V30 6586 O 907.247 7.84798 -5.01039 0
M  V30 6587 O 905.465 5.9812 -5.08098 0
M  V30 6588 O 905.502 7.57503 -3.1866 0
M  V30 6589 C 905.342 8.97357 -2.74833 0
M  V30 6590 C 905.882 9.07548 -1.32709 0
M  V30 6591 O 904.826 8.62072 -0.606159 0
M  V30 6592 C 907.1 8.25383 -0.938334 0
M  V30 6593 O 907.838 8.74577 0.146954 0
M  V30 6594 C 906.431 6.8802 -0.712559 0
M  V30 6595 O 907.23 6.1189 0.194655 0
M  V30 6596 C 905.094 7.27966 -0.139777 0
M  V30 6597 H 905.126 7.25354 0.961601 0
M  V30 6598 H 906.309 6.32557 -1.65702 0
M  V30 6599 H 907.793 8.19355 -1.79097 0
M  V30 6600 H 906.099 10.1294 -1.10029 0
M  V30 6601 H 905.909 9.64276 -3.41316 0
M  V30 6602 H 904.279 9.25417 -2.76357 0
M  V30 6603 H 906.918 6.25267 1.07847 0
M  V30 6604 P 908.776 8.791 6.93566e-12 0
M  V30 6605 O 910.198 9.31296 0.027939 0
M  V30 6606 O 908.416 7.77869 -1.04071 0
M  V30 6607 O 908.453 8.09533 1.41463 0
M  V30 6608 C 908.293 9.0349 2.53943 0
M  V30 6609 C 908.833 8.35135 3.78975 0
M  V30 6610 O 907.778 7.57992 4.15078 0
M  V30 6611 C 910.051 7.45087 3.67298 0
M  V30 6612 O 910.789 7.27796 4.85194 0
M  V30 6613 C 909.383 6.17323 3.12027 0
M  V30 6614 O 910.181 5.04149 3.47132 0
M  V30 6615 C 908.045 6.19961 3.81809 0
M  V30 6616 N 907.002 5.71575 2.93223 0
M  V30 6617 C 907.064 5.97133 1.62693 0
M  V30 6618 N 906.019 5.44066 0.984414 0
M  V30 6619 C 905.285 4.87093 1.93987 0
M  V30 6620 C 903.979 4.26449 1.8738 0
M  V30 6621 O 903.246 4.1089 0.884377 0
M  V30 6622 N 903.549 3.82483 3.08036 0
M  V30 6623 C 904.298 3.95124 4.27727 0
M  V30 6624 N 903.701 3.4084 5.39089 0
M  V30 6625 N 905.451 4.55264 4.3706 0
M  V30 6626 C 905.908 5.00861 3.18217 0
M  V30 6627 H 908.077 5.58218 4.73051 0
M  V30 6628 H 909.26 6.21631 2.02558 0
M  V30 6629 H 910.745 7.85819 2.93096 0
M  V30 6630 H 909.05 9.11627 4.55076 0
M  V30 6631 H 908.86 9.9573 2.34194 0
M  V30 6632 H 907.229 9.2792 2.67832 0
M  V30 6633 H 902.653 3.38323 3.1329 0
M  V30 6634 H 907.86 6.53891 1.14265 0
M  V30 6635 H 902.79 2.93852 5.30559 0
M  V30 6636 H 904.166 3.47631 6.30632 0
M  V30 6637 H 909.87 4.67628 4.28704 0
M  V30 6638 P 911.726 7.39546 4.75277 0
M  V30 6639 O 913.148 7.81777 5.05738 0
M  V30 6640 O 911.366 7.1065 3.32998 0
M  V30 6641 O 911.403 6.04542 5.56673 0
M  V30 6642 C 911.243 6.22772 7.02095 0
M  V30 6643 C 911.783 4.97725 7.70406 0
M  V30 6644 O 910.727 4.13256 7.58987 0
M  V30 6645 C 913.001 4.28231 7.11815 0
M  V30 6646 O 913.739 3.49945 8.01648 0
M  V30 6647 C 912.332 3.5063 5.96244 0
M  V30 6648 O 913.131 2.36482 5.64681 0
M  V30 6649 C 910.995 3.15122 6.56374 0
M  V30 6650 H 911.027 2.13853 6.99751 0
M  V30 6651 H 912.21 4.13501 5.06559 0
M  V30 6652 H 913.694 5.03285 6.70911 0
M  V30 6653 H 912 5.20877 8.75697 0
M  V30 6654 H 911.81 7.11046 7.35349 0
M  V30 6655 H 910.18 6.35815 7.26986 0
M  V30 6656 H 912.819 1.61644 6.13565 0
M  V30 6657 P 914.677 3.65191 7.99657 0
M  V30 6658 O 916.098 3.84292 8.48206 0
M  V30 6659 O 914.317 4.17805 6.64342 0
M  V30 6660 O 914.354 2.07613 7.95143 0
M  V30 6661 C 914.193 1.44344 9.27435 0
M  V30 6662 C 914.734 0.0220036 9.17197 0
M  V30 6663 O 913.679 -0.626794 8.61824 0
M  V30 6664 C 915.952 -0.24586 8.30336 0
M  V30 6665 O 916.69 -1.39011 8.63583 0
M  V30 6666 C 915.284 -0.273849 6.91158 0
M  V30 6667 O 916.082 -1.05728 6.029 0
M  V30 6668 C 913.946 -0.897649 7.22545 0
M  V30 6669 N 912.903 -0.292839 6.41732 0
M  V30 6670 C 913.072 0.950603 5.91308 0
M  V30 6671 N 912.045 1.37732 5.21105 0
M  V30 6672 C 911.16 0.318109 5.26039 0
M  V30 6673 C 909.893 0.146766 4.6727 0
M  V30 6674 N 909.294 1.08519 3.89983 0
M  V30 6675 N 909.328 -1.06525 4.95887 0
M  V30 6676 C 909.93 -2.0378 5.71347 0
M  V30 6677 N 911.107 -1.92445 6.27451 0
M  V30 6678 C 911.682 -0.715382 6.00353 0
M  V30 6679 H 913.978 -1.98383 7.04189 0
M  V30 6680 H 915.161 0.733318 6.49674 0
M  V30 6681 H 916.644 0.60668 8.36503 0
M  V30 6682 H 914.95 -0.362662 10.1825 0
M  V30 6683 H 914.76 2.00611 10.0304 0
M  V30 6684 H 913.13 1.41843 9.55327 0
M  V30 6685 H 909.394 -2.97041 5.85344 0
M  V30 6686 H 913.972 1.54076 6.07465 0
M  V30 6687 H 908.364 0.901517 3.49562 0
M  V30 6688 H 909.768 1.97957 3.71669 0
M  V30 6689 H 915.77 -1.95704 6.0346 0
M  V30 6690 P 917.627 -1.25109 8.70152 0
M  V30 6691 O 919.049 -1.35274 9.21221 0
M  V30 6692 O 917.267 -0.0769065 7.84762 0
M  V30 6693 O 917.304 -2.55232 7.81161 0
M  V30 6694 C 917.144 -3.79939 8.58154 0
M  V30 6695 C 917.684 -4.94023 7.72785 0
M  V30 6696 O 916.628 -5.18726 6.91205 0
M  V30 6697 C 918.902 -4.69597 6.85231 0
M  V30 6698 O 919.64 -5.83832 6.51337 0
M  V30 6699 C 918.233 -3.96706 5.66633 0
M  V30 6700 O 919.032 -4.15414 4.49689 0
M  V30 6701 C 916.896 -4.66153 5.59313 0
M  V30 6702 H 916.928 -5.47679 4.85214 0
M  V30 6703 H 918.111 -2.89008 5.86566 0
M  V30 6704 H 919.595 -4.0121 7.36511 0
M  V30 6705 H 917.901 -5.80182 8.37584 0
M  V30 6706 H 917.711 -3.73517 9.52265 0
M  V30 6707 H 916.081 -3.97163 8.80359 0
M  V30 6708 H 918.72 -4.90969 4.01921 0
M  V30 6709 P 920.578 -5.75688 6.64379 0
M  V30 6710 O 922 -6.11981 7.01997 0
M  V30 6711 O 920.218 -4.30744 6.56026 0
M  V30 6712 O 920.255 -6.37042 5.19165 0
M  V30 6713 C 920.095 -7.83578 5.16515 0
M  V30 6714 C 920.635 -8.33307 3.82977 0
M  V30 6715 O 919.58 -8.10074 3.01034 0
M  V30 6716 C 921.853 -7.65514 3.2257 0
M  V30 6717 O 922.591 -8.4329 2.32297 0
M  V30 6718 C 921.185 -6.40075 2.62207 0
M  V30 6719 O 921.983 -5.92492 1.53687 0
M  V30 6720 C 919.847 -6.9454 2.18503 0
M  V30 6721 N 918.804 -5.95905 2.39948 0
M  V30 6722 C 918.866 -5.13994 3.44742 0
M  V30 6723 N 917.821 -4.30684 3.46712 0
M  V30 6724 C 917.087 -4.65583 2.41086 0
M  V30 6725 C 915.781 -4.20877 1.99581 0
M  V30 6726 O 915.048 -3.35913 2.52616 0
M  V30 6727 N 915.351 -4.83271 0.873406 0
M  V30 6728 C 916.1 -5.82006 0.185129 0
M  V30 6729 N 915.503 -6.30619 -0.95439 0
M  V30 6730 N 917.253 -6.28443 0.578524 0
M  V30 6731 C 917.71 -5.68486 1.70138 0
M  V30 6732 H 919.879 -7.23063 1.12091 0
M  V30 6733 H 921.062 -5.60165 3.3715 0
M  V30 6734 H 922.547 -7.3611 4.01946 0
M  V30 6735 H 920.852 -9.40912 3.9095 0
M  V30 6736 H 920.662 -8.29056 5.99158 0
M  V30 6737 H 919.031 -8.10073 5.25882 0
M  V30 6738 H 914.455 -4.58323 0.505262 0
M  V30 6739 H 919.662 -5.14564 4.1935 0
M  V30 6740 H 914.592 -5.93402 -1.25364 0
M  V30 6741 H 915.968 -7.0425 -1.50254 0
M  V30 6742 H 921.672 -6.30224 0.72668 0
M  V30 6743 P 923.528 -8.4349 2.47671 0
M  V30 6744 O 924.95 -8.94167 2.5964 0
M  V30 6745 O 923.168 -7.1704 3.19006 0
M  V30 6746 O 923.205 -8.16596 0.923387 0
M  V30 6747 C 923.045 -9.38437 0.108857 0
M  V30 6748 C 923.585 -9.08175 -1.28353 0
M  V30 6749 O 922.529 -8.44229 -1.84713 0
M  V30 6750 C 924.803 -8.18386 -1.42505 0
M  V30 6751 O 925.541 -8.3501 -2.60497 0
M  V30 6752 C 924.134 -6.80225 -1.25468 0
M  V30 6753 O 924.933 -5.81621 -1.91066 0
M  V30 6754 C 922.797 -7.02416 -1.9168 0
M  V30 6755 H 922.829 -6.6888 -2.96621 0
M  V30 6756 H 924.012 -6.53617 -0.192223 0
M  V30 6757 H 925.496 -8.36622 -0.589963 0
M  V30 6758 H 923.802 -10.0291 -1.79807 0
M  V30 6759 H 923.612 -10.2138 0.558219 0
M  V30 6760 H 921.982 -9.6579 0.0444202 0
M  V30 6761 H 924.621 -5.69556 -2.79637 0
M  V30 6762 P 926.479 -8.4349 -2.47671 0
M  V30 6763 O 927.901 -8.92785 -2.65057 0
M  V30 6764 O 926.119 -7.7568 -1.19296 0
M  V30 6765 O 926.156 -7.36886 -3.63805 0
M  V30 6766 C 925.996 -7.95349 -4.982 0
M  V30 6767 C 926.536 -6.94537 -5.98908 0
M  V30 6768 O 925.481 -6.10347 -6.11815 0
M  V30 6769 C 927.754 -6.11426 -5.62335 0
M  V30 6770 O 928.492 -5.6162 -6.70584 0
M  V30 6771 C 927.086 -5.04409 -4.73308 0
M  V30 6772 O 927.884 -3.85929 -4.75106 0
M  V30 6773 C 925.748 -4.8728 -5.41006 0
M  V30 6774 N 924.705 -4.65812 -4.42377 0
M  V30 6775 C 924.767 -5.27109 -3.24335 0
M  V30 6776 N 923.722 -4.94293 -2.47735 0
M  V30 6777 C 922.988 -4.1271 -3.23359 0
M  V30 6778 C 921.682 -3.56384 -2.99934 0
M  V30 6779 O 920.949 -3.69331 -2.00616 0
M  V30 6780 N 921.252 -2.80206 -4.03316 0
M  V30 6781 C 922.001 -2.58614 -5.2172 0
M  V30 6782 N 921.404 -1.75154 -6.13278 0
M  V30 6783 N 923.154 -3.13689 -5.47619 0
M  V30 6784 C 923.611 -3.90921 -4.46436 0
M  V30 6785 H 925.78 -4.02333 -6.11157 0
M  V30 6786 H 926.963 -5.39383 -3.69487 0
M  V30 6787 H 928.448 -6.71414 -5.02615 0
M  V30 6788 H 926.753 -7.4649 -6.93477 0
M  V30 6789 H 926.563 -8.89416 -5.05237 0
M  V30 6790 H 924.932 -8.14876 -5.18409 0
M  V30 6791 H 920.356 -2.36355 -3.95916 0
M  V30 6792 H 925.563 -5.95212 -2.93859 0
M  V30 6793 H 920.493 -1.32473 -5.91856 0
M  V30 6794 H 921.869 -1.5588 -7.03026 0
M  V30 6795 H 927.573 -3.27906 -5.43085 0
M  V30 6796 P 929.43 -5.75688 -6.64379 0
M  V30 6797 O 930.852 -6.07627 -7.05504 0
M  V30 6798 O 929.07 -5.88047 -5.19722 0
M  V30 6799 O 929.107 -4.2322 -7.04443 0
M  V30 6800 C 928.947 -3.99743 -8.4911 0
M  V30 6801 C 929.487 -2.60516 -8.79425 0
M  V30 6802 O 928.431 -1.82684 -8.4467 0
M  V30 6803 C 930.705 -2.10343 -8.03628 0
M  V30 6804 O 931.443 -1.09919 -8.67766 0
M  V30 6805 C 930.036 -1.68446 -6.70876 0
M  V30 6806 O 930.835 -0.678137 -6.08433 0
M  V30 6807 C 928.699 -1.17436 -7.18567 0
M  V30 6808 H 928.731 -0.0804732 -7.31656 0
M  V30 6809 H 929.914 -2.54037 -6.02537 0
M  V30 6810 H 931.398 -2.93881 -7.85526 0
M  V30 6811 H 929.704 -2.53065 -9.86973 0
M  V30 6812 H 929.514 -4.75072 -9.05887 0
M  V30 6813 H 927.884 -4.05244 -8.76668 0
M  V30 6814 H 930.523 0.177647 -6.34251 0
M  V30 6815 P 932.38 -1.25109 -8.70152 0
M  V30 6816 O 933.802 -1.29744 -9.22016 0
M  V30 6817 O 932.02 -2.13714 -7.55141 0
M  V30 6818 O 932.057 0.248149 -8.21425 0
M  V30 6819 C 931.897 1.22779 -9.30434 0
M  V30 6820 C 932.437 2.56293 -8.80664 0
M  V30 6821 O 931.381 3.02979 -8.09349 0
M  V30 6822 C 933.655 2.57523 -7.89775 0
M  V30 6823 O 934.393 3.7668 -7.89438 0
M  V30 6824 C 932.986 2.20997 -6.55446 0
M  V30 6825 O 933.785 2.71895 -5.48509 0
M  V30 6826 C 931.649 2.89693 -6.67988 0
M  V30 6827 H 931.681 3.88793 -6.19859 0
M  V30 6828 H 932.864 1.12046 -6.44229 0
M  V30 6829 H 934.348 1.7746 -8.19711 0
M  V30 6830 H 932.654 3.20706 -9.67112 0
M  V30 6831 H 932.464 0.901032 -10.1892 0
M  V30 6832 H 930.834 1.33049 -9.56592 0
M  V30 6833 H 933.473 3.57847 -5.23962 0
M  V30 6834 P 935.331 3.65191 -7.99657 0
M  V30 6835 O 936.752 3.89374 -8.45885 0
M  V30 6836 O 934.971 2.28472 -7.50807 0
M  V30 6837 O 935.008 4.64972 -6.77611 0
M  V30 6838 C 934.847 6.06383 -7.16428 0
M  V30 6839 C 935.388 6.91731 -6.02299 0
M  V30 6840 O 934.333 6.92369 -5.17005 0
M  V30 6841 C 936.606 6.43627 -5.25174 0
M  V30 6842 O 937.344 7.43686 -4.60469 0
M  V30 6843 C 935.938 5.40275 -4.31916 0
M  V30 6844 O 936.736 5.24878 -3.14911 0
M  V30 6845 C 934.6 6.04847 -4.05327 0
M  V30 6846 N 933.557 5.04166 -3.98114 0
M  V30 6847 C 933.726 3.84629 -4.59066 0
M  V30 6848 N 932.699 3.0363 -4.45343 0
M  V30 6849 C 931.814 3.76722 -3.68523 0
M  V30 6850 C 930.547 3.43528 -3.17088 0
M  V30 6851 N 929.982 4.44526 -2.44231 0
M  V30 6852 C 930.584 5.65243 -2.20146 0
M  V30 6853 N 931.761 6.00221 -2.65453 0
M  V30 6854 C 932.336 5.00564 -3.39083 0
M  V30 6855 H 935.815 4.42969 -4.80867 0
M  V30 6856 H 937.298 5.92458 -5.93643 0
M  V30 6857 H 935.604 7.93295 -6.39407 0
M  V30 6858 H 935.414 6.26671 -8.0846 0
M  V30 6859 H 933.784 6.29101 -7.32804 0
M  V30 6860 H 934.626 3.58193 -5.14248 0
M  V30 6861 H 936.424 5.84223 -2.47279 0
M  V30 6862 P 938.281 7.39546 -4.75277 0
M  V30 6863 O 939.703 7.84798 -5.01039 0
M  V30 6864 O 937.921 5.9812 -5.08098 0
M  V30 6865 O 937.958 7.57503 -3.1866 0
M  V30 6866 C 937.798 8.97357 -2.74833 0
M  V30 6867 C 938.338 9.07548 -1.32709 0
M  V30 6868 O 937.282 8.62072 -0.606159 0
M  V30 6869 C 939.556 8.25383 -0.938334 0
M  V30 6870 O 940.294 8.74577 0.146954 0
M  V30 6871 C 938.887 6.8802 -0.712559 0
M  V30 6872 O 939.686 6.1189 0.194655 0
M  V30 6873 C 937.55 7.27966 -0.139777 0
M  V30 6874 H 937.582 7.25354 0.961601 0
M  V30 6875 H 938.765 6.32557 -1.65702 0
M  V30 6876 H 940.249 8.19355 -1.79097 0
M  V30 6877 H 938.555 10.1294 -1.10029 0
M  V30 6878 H 938.365 9.64276 -3.41316 0
M  V30 6879 H 936.735 9.25417 -2.76357 0
M  V30 6880 H 939.374 6.25267 1.07847 0
M  V30 6881 P 941.232 8.791 7.24582e-12 0
M  V30 6882 O 942.653 9.31196 0.027936 0
M  V30 6883 O 940.872 7.77869 -1.04071 0
M  V30 6884 O 940.909 8.09533 1.41463 0
M  V30 6885 C 940.748 9.03587 2.5397 0
M  V30 6886 C 941.289 8.35226 3.79016 0
M  V30 6887 O 940.234 7.57904 4.1503 0
M  V30 6888 C 942.507 7.45087 3.67298 0
M  V30 6889 O 943.245 7.27796 4.85194 0
M  V30 6890 C 941.839 6.17323 3.12027 0
M  V30 6891 O 942.637 5.04496 3.46627 0
M  V30 6892 C 940.501 6.19961 3.81809 0
M  V30 6893 N 939.458 5.71575 2.93223 0
M  V30 6894 C 939.627 5.77362 1.59168 0
M  V30 6895 N 938.6 5.3123 0.911893 0
M  V30 6896 C 937.715 4.91717 1.89588 0
M  V30 6897 C 936.448 4.3114 1.8076 0
M  V30 6898 N 935.849 3.99821 0.632928 0
M  V30 6899 N 935.883 4.06823 3.02898 0
M  V30 6900 C 936.485 4.35062 4.22711 0
M  V30 6901 N 937.662 4.90805 4.35707 0
M  V30 6902 C 938.237 5.16382 3.14469 0
M  V30 6903 H 940.533 5.58142 4.72986 0
M  V30 6904 H 941.716 6.21428 2.0318 0
M  V30 6905 H 943.199 7.86112 2.9231 0
M  V30 6906 H 941.505 9.11171 4.55987 0
M  V30 6907 H 941.315 9.9573 2.34194 0
M  V30 6908 H 939.685 9.2792 2.67832 0
M  V30 6909 H 935.949 4.09052 5.13359 0
M  V30 6910 H 940.527 6.16575 1.12198 0
M  V30 6911 H 934.919 3.55423 0.632085 0
M  V30 6912 H 936.323 4.20317 -0.256712 0
M  V30 6913 H 942.325 4.67628 4.28704 0
M  V30 6914 P 944.182 7.39546 4.75277 0
M  V30 6915 O 945.604 7.81777 5.05738 0
M  V30 6916 O 943.822 7.1065 3.32998 0
M  V30 6917 O 943.859 6.04542 5.56673 0
M  V30 6918 C 943.699 6.22772 7.02095 0
M  V30 6919 C 944.239 4.97725 7.70406 0
M  V30 6920 O 943.183 4.13256 7.58987 0
M  V30 6921 C 945.457 4.28231 7.11815 0
M  V30 6922 O 946.195 3.49945 8.01648 0
M  V30 6923 C 944.788 3.5063 5.96244 0
M  V30 6924 O 945.587 2.36482 5.64681 0
M  V30 6925 C 943.451 3.15122 6.56374 0
M  V30 6926 H 943.483 2.13853 6.99751 0
M  V30 6927 H 944.666 4.13501 5.06559 0
M  V30 6928 H 946.15 5.03285 6.70911 0
M  V30 6929 H 944.456 5.20877 8.75697 0
M  V30 6930 H 944.266 7.11046 7.35349 0
M  V30 6931 H 942.636 6.35815 7.26986 0
M  V30 6932 H 945.275 1.61644 6.13565 0
M  V30 6933 P 947.133 3.65191 7.99657 0
M  V30 6934 O 948.555 3.8425 8.48115 0
M  V30 6935 O 946.773 4.17805 6.64342 0
M  V30 6936 O 946.81 2.07613 7.95143 0
M  V30 6937 C 946.65 1.44328 9.27336 0
M  V30 6938 C 947.19 0.0220036 9.17197 0
M  V30 6939 O 946.134 -0.626867 8.61923 0
M  V30 6940 C 948.408 -0.24586 8.30336 0
M  V30 6941 O 949.146 -1.39011 8.63583 0
M  V30 6942 C 947.739 -0.273849 6.91158 0
M  V30 6943 O 948.538 -1.06348 6.02892 0
M  V30 6944 C 946.402 -0.897649 7.22545 0
M  V30 6945 H 946.434 -1.9841 7.04286 0
M  V30 6946 H 947.617 0.739928 6.497 0
M  V30 6947 H 949.101 0.60668 8.36503 0
M  V30 6948 H 947.407 -0.352479 10.1829 0
M  V30 6949 H 947.217 2.00611 10.0304 0
M  V30 6950 H 945.587 1.41843 9.55327 0
M  V30 6951 H 948.226 -1.95734 6.03555 0
M  V30 6952 P 950.084 -1.25109 8.70152 0
M  V30 6953 O 951.506 -1.35274 9.21221 0
M  V30 6954 O 949.724 -0.0769065 7.84762 0
M  V30 6955 O 949.761 -2.55232 7.81161 0
M  V30 6956 C 949.601 -3.79939 8.58154 0
M  V30 6957 C 950.141 -4.94023 7.72785 0
M  V30 6958 O 949.085 -5.18726 6.91205 0
M  V30 6959 C 951.359 -4.69597 6.85231 0
M  V30 6960 O 952.097 -5.83832 6.51337 0
M  V30 6961 C 950.69 -3.96706 5.66633 0
M  V30 6962 O 951.489 -4.15414 4.49689 0
M  V30 6963 C 949.353 -4.66153 5.59313 0
M  V30 6964 H 949.385 -5.47679 4.85214 0
M  V30 6965 H 950.568 -2.89008 5.86566 0
M  V30 6966 H 952.052 -4.0121 7.36511 0
M  V30 6967 H 950.358 -5.80182 8.37584 0
M  V30 6968 H 950.168 -3.73517 9.52265 0
M  V30 6969 H 948.538 -3.97163 8.80359 0
M  V30 6970 H 951.177 -4.90969 4.01921 0
M  V30 6971 P 953.034 -5.75688 6.64379 0
M  V30 6972 O 954.435 -6.11991 7.09136 0
M  V30 6973 O 952.656 -4.30899 6.62018 0
M  V30 6974 O 952.711 -6.36965 5.19102 0
M  V30 6975 C 952.551 -7.83578 5.16515 0
M  V30 6976 C 953.091 -8.33307 3.82977 0
M  V30 6977 O 952.035 -8.0998 3.00999 0
M  V30 6978 C 954.308 -7.65514 3.2257 0
M  V30 6979 O 955.047 -8.4329 2.32297 0
M  V30 6980 C 953.641 -6.40075 2.62207 0
M  V30 6981 O 954.439 -5.92492 1.53687 0
M  V30 6982 C 952.303 -6.9454 2.18503 0
M  V30 6983 N 951.26 -5.95905 2.39948 0
M  V30 6984 C 950.225 -5.89764 1.49837 0
M  V30 6985 O 950.264 -6.64088 0.490975 0
M  V30 6986 N 949.213 -5.02821 1.70992 0
M  V30 6987 C 949.261 -4.21498 2.77236 0
M  V30 6988 C 950.357 -4.23389 3.68205 0
M  V30 6989 C 951.323 -5.12792 3.46171 0
M  V30 6990 H 952.335 -7.22964 1.12076 0
M  V30 6991 H 953.518 -5.60502 3.36589 0
M  V30 6992 H 955.002 -7.36197 4.01993 0
M  V30 6993 H 953.308 -9.41302 3.90009 0
M  V30 6994 H 953.117 -8.29056 5.99158 0
M  V30 6995 H 951.487 -8.09989 5.25828 0
M  V30 6996 H 950.405 -3.54747 4.52399 0
M  V30 6997 H 952.169 -5.18551 4.1489 0
M  V30 6998 H 954.223 -6.40705 0.751752 0
M  V30 6999 P 955.985 -8.4349 2.47671 0
M  V30 7000 O 957.407 -8.94359 2.59696 0
M  V30 7001 O 955.625 -7.1704 3.19006 0
M  V30 7002 O 955.662 -8.16596 0.923387 0
M  V30 7003 C 955.502 -9.38437 0.108857 0
M  V30 7004 C 956.042 -9.08076 -1.28339 0
M  V30 7005 O 954.987 -8.44229 -1.84713 0
M  V30 7006 C 957.26 -8.18386 -1.42505 0
M  V30 7007 O 957.998 -8.3501 -2.60497 0
M  V30 7008 C 956.592 -6.80225 -1.25468 0
M  V30 7009 O 957.39 -5.81526 -1.91035 0
M  V30 7010 C 955.254 -7.02416 -1.9168 0
M  V30 7011 N 954.211 -6.31033 -1.20314 0
M  V30 7012 C 954.273 -6.18781 0.121293 0
M  V30 7013 N 953.228 -5.49762 0.588272 0
M  V30 7014 C 952.494 -5.22015 -0.488988 0
M  V30 7015 C 951.188 -4.61966 -0.596448 0
M  V30 7016 O 950.455 -4.19162 0.309059 0
M  V30 7017 N 950.758 -4.53773 -1.878 0
M  V30 7018 C 951.507 -4.99623 -2.99082 0
M  V30 7019 N 950.91 -4.78912 -4.21227 0
M  V30 7020 N 952.66 -5.59957 -2.91093 0
M  V30 7021 C 953.117 -5.70225 -1.64218 0
M  V30 7022 H 955.286 -6.6888 -2.96621 0
M  V30 7023 H 956.469 -6.53517 -0.192194 0
M  V30 7024 H 957.954 -8.36563 -0.598329 0
M  V30 7025 H 956.259 -10.0291 -1.79807 0
M  V30 7026 H 956.069 -10.2138 0.558219 0
M  V30 7027 H 954.438 -9.6579 0.0444202 0
M  V30 7028 H 949.862 -4.12883 -2.05283 0
M  V30 7029 H 955.069 -6.59596 0.745856 0
M  V30 7030 H 949.999 -4.31425 -4.2628 0
M  V30 7031 H 951.375 -5.11219 -5.07148 0
M  V30 7032 H 957.079 -5.69466 -2.79593 0
M  V30 7033 P 958.935 -8.4349 -2.47671 0
M  V30 7034 O 960.357 -8.92593 -2.65 0
M  V30 7035 O 958.575 -7.7568 -1.19296 0
M  V30 7036 O 958.612 -7.36886 -3.63805 0
M  V30 7037 C 958.452 -7.95349 -4.982 0
M  V30 7038 C 958.992 -6.94612 -5.98974 0
M  V30 7039 O 957.936 -6.10347 -6.11815 0
M  V30 7040 C 960.21 -6.11426 -5.62335 0
M  V30 7041 O 960.948 -5.6162 -6.70584 0
M  V30 7042 C 959.541 -5.04409 -4.73308 0
M  V30 7043 O 960.34 -3.85992 -4.75183 0
M  V30 7044 C 958.204 -4.8728 -5.41006 0
M  V30 7045 H 958.236 -4.02333 -6.11157 0
M  V30 7046 H 959.419 -5.39466 -3.69543 0
M  V30 7047 H 960.903 -6.71916 -5.01943 0
M  V30 7048 H 959.209 -7.4649 -6.93477 0
M  V30 7049 H 959.019 -8.89416 -5.05237 0
M  V30 7050 H 957.389 -8.14876 -5.18409 0
M  V30 7051 H 960.028 -3.27957 -5.4317 0
M  V30 7052 P 961.886 -5.75688 -6.64379 0
M  V30 7053 O 963.308 -6.07627 -7.05504 0
M  V30 7054 O 961.526 -5.88047 -5.19722 0
M  V30 7055 O 961.563 -4.2322 -7.04443 0
M  V30 7056 C 961.403 -3.99743 -8.4911 0
M  V30 7057 C 961.943 -2.60516 -8.79425 0
M  V30 7058 O 960.887 -1.82684 -8.4467 0
M  V30 7059 C 963.161 -2.10343 -8.03628 0
M  V30 7060 O 963.899 -1.09919 -8.67766 0
M  V30 7061 C 962.492 -1.68446 -6.70876 0
M  V30 7062 O 963.291 -0.678137 -6.08433 0
M  V30 7063 C 961.155 -1.17436 -7.18567 0
M  V30 7064 H 961.187 -0.0804732 -7.31656 0
M  V30 7065 H 962.37 -2.54037 -6.02537 0
M  V30 7066 H 963.854 -2.93881 -7.85526 0
M  V30 7067 H 962.16 -2.53065 -9.86973 0
M  V30 7068 H 961.97 -4.75072 -9.05887 0
M  V30 7069 H 960.34 -4.05244 -8.76668 0
M  V30 7070 H 962.979 0.177647 -6.34251 0
M  V30 7071 P 964.836 -1.25109 -8.70152 0
M  V30 7072 O 966.258 -1.29744 -9.22016 0
M  V30 7073 O 964.476 -2.13714 -7.55141 0
M  V30 7074 O 964.513 0.248149 -8.21425 0
M  V30 7075 C 964.353 1.22779 -9.30434 0
M  V30 7076 C 964.893 2.56293 -8.80664 0
M  V30 7077 O 963.837 3.02979 -8.09349 0
M  V30 7078 C 966.111 2.57523 -7.89775 0
M  V30 7079 O 966.849 3.7668 -7.89438 0
M  V30 7080 C 965.442 2.20997 -6.55446 0
M  V30 7081 O 966.241 2.71895 -5.48509 0
M  V30 7082 C 964.105 2.89693 -6.67988 0
M  V30 7083 H 964.137 3.88793 -6.19859 0
M  V30 7084 H 965.32 1.12046 -6.44229 0
M  V30 7085 H 966.804 1.7746 -8.19711 0
M  V30 7086 H 965.11 3.20706 -9.67112 0
M  V30 7087 H 964.92 0.901032 -10.1892 0
M  V30 7088 H 963.29 1.33049 -9.56592 0
M  V30 7089 H 965.929 3.57847 -5.23962 0
M  V30 7090 P 967.787 3.65191 -7.99657 0
M  V30 7091 O 969.209 3.89332 -8.45794 0
M  V30 7092 O 967.427 2.28472 -7.50807 0
M  V30 7093 O 967.464 4.64972 -6.77611 0
M  V30 7094 C 967.304 6.06319 -7.16352 0
M  V30 7095 C 967.844 6.91731 -6.02299 0
M  V30 7096 O 966.788 6.92449 -5.17064 0
M  V30 7097 C 969.062 6.43627 -5.25174 0
M  V30 7098 O 969.8 7.43686 -4.60469 0
M  V30 7099 C 968.393 5.40275 -4.31916 0
M  V30 7100 O 969.192 5.25279 -3.14438 0
M  V30 7101 C 967.056 6.04847 -4.05327 0
M  V30 7102 H 967.088 6.62195 -3.11261 0
M  V30 7103 H 968.271 4.42556 -4.81383 0
M  V30 7104 H 969.755 5.92458 -5.93643 0
M  V30 7105 H 968.061 7.92655 -6.402 0
M  V30 7106 H 967.871 6.26671 -8.0846 0
M  V30 7107 H 966.241 6.29101 -7.32804 0
M  V30 7108 H 968.88 5.84315 -2.47318 0
M  V30 7109 P 970.738 7.39546 -4.75277 0
M  V30 7110 O 972.159 7.84882 -5.01092 0
M  V30 7111 O 970.378 5.9812 -5.08098 0
M  V30 7112 O 970.415 7.57503 -3.1866 0
M  V30 7113 C 970.254 8.97452 -2.74862 0
M  V30 7114 C 970.795 9.07548 -1.32709 0
M  V30 7115 O 969.74 8.61972 -0.606089 0
M  V30 7116 C 972.013 8.25383 -0.938334 0
M  V30 7117 O 972.751 8.74577 0.146954 0
M  V30 7118 C 971.345 6.8802 -0.712559 0
M  V30 7119 O 972.143 6.1181 0.188505 0
M  V30 7120 C 970.007 7.27966 -0.139777 0
M  V30 7121 N 968.964 6.39368 -0.623421 0
M  V30 7122 C 969.133 5.71761 -1.78245 0
M  V30 7123 N 968.106 4.962 -2.10491 0
M  V30 7124 C 967.221 5.16158 -1.0635 0
M  V30 7125 C 965.954 4.60425 -0.810266 0
M  V30 7126 N 965.389 5.06 0.348685 0
M  V30 7127 C 965.991 5.94532 1.20395 0
M  V30 7128 N 967.168 6.48452 1.01191 0
M  V30 7129 C 967.743 6.04423 -0.146291 0
M  V30 7130 H 971.222 6.32625 -1.65044 0
M  V30 7131 H 972.705 8.19355 -1.79097 0
M  V30 7132 H 971.011 10.1305 -1.09016 0
M  V30 7133 H 970.821 9.64276 -3.41316 0
M  V30 7134 H 969.191 9.25417 -2.76357 0
M  V30 7135 H 970.033 5.79354 -2.38959 0
M  V30 7136 H 971.831 6.25169 1.0783 0
M  V30 7137 P 973.688 8.791 7.55599e-12 0
M  V30 7138 O 975.089 9.36698 -0.018734 0
M  V30 7139 O 973.31 7.82499 -1.07878 0
M  V30 7140 O 973.365 8.09434 1.41446 0
M  V30 7141 C 973.205 9.0349 2.53943 0
M  V30 7142 C 973.745 8.35135 3.78975 0
M  V30 7143 O 972.689 7.57904 4.1503 0
M  V30 7144 C 974.962 7.45087 3.67298 0
M  V30 7145 O 975.701 7.27796 4.85194 0
M  V30 7146 C 974.295 6.17323 3.12027 0
M  V30 7147 O 975.093 5.04149 3.47132 0
M  V30 7148 C 972.957 6.19961 3.81809 0
M  V30 7149 N 971.914 5.71575 2.93223 0
M  V30 7150 C 970.879 4.99452 3.47592 0
M  V30 7151 O 970.918 4.7199 4.69732 0
M  V30 7152 N 969.867 4.58505 2.6803 0
M  V30 7153 C 969.915 4.85544 1.36995 0
M  V30 7154 C 971.011 5.55532 0.788532 0
M  V30 7155 C 971.977 5.97426 1.60849 0
M  V30 7156 H 972.989 5.58142 4.72986 0
M  V30 7157 H 974.172 6.21428 2.0318 0
M  V30 7158 H 975.656 7.85913 2.93131 0
M  V30 7159 H 973.962 9.11171 4.55987 0
M  V30 7160 H 973.771 9.9573 2.34194 0
M  V30 7161 H 972.141 9.27824 2.67805 0
M  V30 7162 H 971.059 5.7421 -0.281588 0
M  V30 7163 H 972.823 6.53132 1.202 0
M  V30 7164 H 974.877 4.76386 4.34983 0
M  V30 7165 P 976.639 7.39546 4.75277 0
M  V30 7166 O 978.061 7.81777 5.05738 0
M  V30 7167 O 976.279 7.1065 3.32998 0
M  V30 7168 O 976.316 6.04542 5.56673 0
M  V30 7169 C 976.156 6.22772 7.02095 0
M  V30 7170 C 976.696 4.97725 7.70406 0
M  V30 7171 O 975.64 4.13256 7.58987 0
M  V30 7172 C 977.914 4.28231 7.11815 0
M  V30 7173 O 978.652 3.49945 8.01648 0
M  V30 7174 C 977.245 3.5063 5.96244 0
M  V30 7175 O 978.044 2.36482 5.64681 0
M  V30 7176 C 975.908 3.15122 6.56374 0
M  V30 7177 H 975.94 2.13853 6.99751 0
M  V30 7178 H 977.123 4.13501 5.06559 0
M  V30 7179 H 978.607 5.03285 6.70911 0
M  V30 7180 H 976.913 5.20877 8.75697 0
M  V30 7181 H 976.723 7.11046 7.35349 0
M  V30 7182 H 975.093 6.35815 7.26986 0
M  V30 7183 H 977.732 1.61644 6.13565 0
M  V30 7184 P 979.589 3.65191 7.99657 0
M  V30 7185 O 980.99 3.90823 8.51272 0
M  V30 7186 O 979.211 4.23191 6.66972 0
M  V30 7187 O 979.266 2.07587 7.95046 0
M  V30 7188 C 979.106 1.44328 9.27336 0
M  V30 7189 C 979.646 0.0220012 9.17097 0
M  V30 7190 O 978.59 -0.626794 8.61824 0
M  V30 7191 C 980.863 -0.24586 8.30336 0
M  V30 7192 O 981.602 -1.39011 8.63583 0
M  V30 7193 C 980.196 -0.273849 6.91158 0
M  V30 7194 O 980.994 -1.06331 6.02794 0
M  V30 7195 C 978.858 -0.897649 7.22545 0
M  V30 7196 N 977.815 -0.292839 6.41732 0
M  V30 7197 C 976.78 -1.08701 5.98712 0
M  V30 7198 O 976.819 -2.31211 6.24471 0
M  V30 7199 N 975.768 -0.533391 5.28415 0
M  V30 7200 C 975.816 0.770866 4.98576 0
M  V30 7201 C 976.912 1.59049 5.38086 0
M  V30 7202 C 977.878 1.01866 6.10256 0
M  V30 7203 H 978.89 -1.98383 7.04189 0
M  V30 7204 H 980.073 0.733318 6.49674 0
M  V30 7205 H 981.557 0.598386 8.36663 0
M  V30 7206 H 979.863 -0.362662 10.1825 0
M  V30 7207 H 979.672 2.00611 10.0304 0
M  V30 7208 H 978.042 1.41828 9.55228 0
M  V30 7209 H 976.96 2.6415 5.10622 0
M  V30 7210 H 978.724 1.61983 6.44042 0
M  V30 7211 H 980.778 -1.97777 6.14035 0
M  V30 7212 P 982.54 -1.25109 8.70152 0
M  V30 7213 O 983.962 -1.35274 9.21221 0
M  V30 7214 O 982.18 -0.0769065 7.84762 0
M  V30 7215 O 982.217 -2.55232 7.81161 0
M  V30 7216 C 982.057 -3.79939 8.58154 0
M  V30 7217 C 982.597 -4.94023 7.72785 0
M  V30 7218 O 981.541 -5.18726 6.91205 0
M  V30 7219 C 983.815 -4.69597 6.85231 0
M  V30 7220 O 984.553 -5.83832 6.51337 0
M  V30 7221 C 983.146 -3.96706 5.66633 0
M  V30 7222 O 983.945 -4.15414 4.49689 0
M  V30 7223 C 981.809 -4.66153 5.59313 0
M  V30 7224 H 981.841 -5.47679 4.85214 0
M  V30 7225 H 983.024 -2.89008 5.86566 0
M  V30 7226 H 984.508 -4.0121 7.36511 0
M  V30 7227 H 982.814 -5.80182 8.37584 0
M  V30 7228 H 982.624 -3.73517 9.52265 0
M  V30 7229 H 980.994 -3.97163 8.80359 0
M  V30 7230 H 983.633 -4.90969 4.01921 0
M  V30 7231 P 985.49 -5.75688 6.64379 0
M  V30 7232 O 986.912 -6.11849 7.01846 0
M  V30 7233 O 985.13 -4.30744 6.56026 0
M  V30 7234 O 985.167 -6.37042 5.19165 0
M  V30 7235 C 985.007 -7.83578 5.16515 0
M  V30 7236 C 985.547 -8.33398 3.83019 0
M  V30 7237 O 984.491 -8.10074 3.01034 0
M  V30 7238 C 986.765 -7.65514 3.2257 0
M  V30 7239 O 987.503 -8.4329 2.32297 0
M  V30 7240 C 986.096 -6.40075 2.62207 0
M  V30 7241 O 986.895 -5.92589 1.53712 0
M  V30 7242 C 984.759 -6.9454 2.18503 0
M  V30 7243 H 984.791 -7.23063 1.12091 0
M  V30 7244 H 985.974 -5.6025 3.37201 0
M  V30 7245 H 987.458 -7.35707 4.02681 0
M  V30 7246 H 985.764 -9.40912 3.9095 0
M  V30 7247 H 985.574 -8.29056 5.99158 0
M  V30 7248 H 983.944 -8.10073 5.25882 0
M  V30 7249 H 986.583 -6.30324 0.726794 0
M  V30 7250 P 988.441 -8.4349 2.47671 0
M  V30 7251 O 989.863 -8.94167 2.5964 0
M  V30 7252 O 988.081 -7.1704 3.19006 0
M  V30 7253 O 988.118 -8.16596 0.923387 0
M  V30 7254 C 987.958 -9.38437 0.108857 0
M  V30 7255 C 988.498 -9.08175 -1.28353 0
M  V30 7256 O 987.442 -8.44229 -1.84713 0
M  V30 7257 C 989.716 -8.18386 -1.42505 0
M  V30 7258 O 990.454 -8.3501 -2.60497 0
M  V30 7259 C 989.047 -6.80225 -1.25468 0
M  V30 7260 O 989.846 -5.81621 -1.91066 0
M  V30 7261 C 987.71 -7.02416 -1.9168 0
M  V30 7262 H 987.742 -6.6888 -2.96621 0
M  V30 7263 H 988.925 -6.53617 -0.192223 0
M  V30 7264 H 990.409 -8.36622 -0.589963 0
M  V30 7265 H 988.715 -10.0291 -1.79807 0
M  V30 7266 H 988.525 -10.2138 0.558219 0
M  V30 7267 H 986.895 -9.6579 0.0444202 0
M  V30 7268 H 989.534 -5.69556 -2.79637 0
M  V30 7269 P 991.392 -8.4349 -2.47671 0
M  V30 7270 O 992.814 -8.92593 -2.65 0
M  V30 7271 O 991.032 -7.7568 -1.19296 0
M  V30 7272 O 991.069 -7.36886 -3.63805 0
M  V30 7273 C 990.909 -7.95349 -4.982 0
M  V30 7274 C 991.449 -6.94612 -5.98974 0
M  V30 7275 O 990.393 -6.10347 -6.11815 0
M  V30 7276 C 992.667 -6.11426 -5.62335 0
M  V30 7277 O 993.405 -5.6162 -6.70584 0
M  V30 7278 C 991.998 -5.04409 -4.73308 0
M  V30 7279 O 992.797 -3.85992 -4.75183 0
M  V30 7280 C 990.661 -4.8728 -5.41006 0
M  V30 7281 H 990.693 -4.02333 -6.11157 0
M  V30 7282 H 991.876 -5.39466 -3.69543 0
M  V30 7283 H 993.36 -6.71916 -5.01943 0
M  V30 7284 H 991.666 -7.4649 -6.93477 0
M  V30 7285 H 991.476 -8.89416 -5.05237 0
M  V30 7286 H 989.846 -8.14876 -5.18409 0
M  V30 7287 H 992.485 -3.27957 -5.4317 0
M  V30 7288 P 994.342 -5.75688 -6.64379 0
M  V30 7289 O 995.763 -6.07692 -7.0558 0
M  V30 7290 O 993.982 -5.88047 -5.19722 0
M  V30 7291 O 994.019 -4.2322 -7.04443 0
M  V30 7292 C 993.858 -3.99785 -8.49201 0
M  V30 7293 C 994.399 -2.60516 -8.79425 0
M  V30 7294 O 993.344 -1.82663 -8.44573 0
M  V30 7295 C 995.617 -2.10343 -8.03628 0
M  V30 7296 O 996.355 -1.09919 -8.67766 0
M  V30 7297 C 994.949 -1.68446 -6.70876 0
M  V30 7298 O 995.747 -0.684109 -6.08265 0
M  V30 7299 C 993.611 -1.17436 -7.18567 0
M  V30 7300 N 992.568 -1.52699 -6.23988 0
M  V30 7301 C 992.737 -2.578 -5.40574 0
M  V30 7302 N 991.71 -2.78966 -4.61193 0
M  V30 7303 C 990.825 -1.78725 -4.95769 0
M  V30 7304 C 989.558 -1.45727 -4.44207 0
M  V30 7305 N 988.993 -0.374977 -5.05812 0
M  V30 7306 C 989.595 0.345585 -6.05615 0
M  V30 7307 N 990.772 0.0787651 -6.56253 0
M  V30 7308 C 991.347 -1.00499 -5.96189 0
M  V30 7309 H 994.826 -2.53396 -6.02698 0
M  V30 7310 H 996.309 -2.93881 -7.85526 0
M  V30 7311 H 994.615 -2.52078 -9.87225 0
M  V30 7312 H 994.425 -4.75072 -9.05887 0
M  V30 7313 H 992.795 -4.05244 -8.76668 0
M  V30 7314 H 993.637 -3.18977 -5.3945 0
M  V30 7315 H 995.435 0.177619 -6.34151 0
M  V30 7316 P 997.293 -1.25109 -8.70152 0
M  V30 7317 O 998.715 -1.29744 -9.22016 0
M  V30 7318 O 996.933 -2.13714 -7.55141 0
M  V30 7319 O 996.97 0.248149 -8.21425 0
M  V30 7320 C 996.81 1.22779 -9.30434 0
M  V30 7321 C 997.35 2.56293 -8.80664 0
M  V30 7322 O 996.294 3.02979 -8.09349 0
M  V30 7323 C 998.568 2.57523 -7.89775 0
M  V30 7324 O 999.306 3.7668 -7.89438 0
M  V30 7325 C 997.899 2.20997 -6.55446 0
M  V30 7326 O 998.698 2.71895 -5.48509 0
M  V30 7327 C 996.562 2.89693 -6.67988 0
M  V30 7328 H 996.594 3.88793 -6.19859 0
M  V30 7329 H 997.777 1.12046 -6.44229 0
M  V30 7330 H 999.261 1.7746 -8.19711 0
M  V30 7331 H 997.567 3.20706 -9.67112 0
M  V30 7332 H 997.377 0.901032 -10.1892 0
M  V30 7333 H 995.747 1.33049 -9.56592 0
M  V30 7334 H 998.386 3.57847 -5.23962 0
M  V30 7335 P 1000.24 3.65191 -7.99657 0
M  V30 7336 O 1001.67 3.89332 -8.45794 0
M  V30 7337 O 999.883 2.28472 -7.50807 0
M  V30 7338 O 999.92 4.64972 -6.77611 0
M  V30 7339 C 999.76 6.06319 -7.16352 0
M  V30 7340 C 1000.3 6.91731 -6.02299 0
M  V30 7341 O 999.244 6.92449 -5.17064 0
M  V30 7342 C 1001.52 6.43627 -5.25174 0
M  V30 7343 O 1002.26 7.43686 -4.60469 0
M  V30 7344 C 1000.85 5.40275 -4.31916 0
M  V30 7345 O 1001.65 5.25279 -3.14438 0
M  V30 7346 C 999.512 6.04847 -4.05327 0
M  V30 7347 H 999.544 6.62195 -3.11261 0
M  V30 7348 H 1000.73 4.42556 -4.81383 0
M  V30 7349 H 1002.21 5.92458 -5.93643 0
M  V30 7350 H 1000.52 7.92655 -6.402 0
M  V30 7351 H 1000.33 6.26671 -8.0846 0
M  V30 7352 H 998.697 6.29101 -7.32804 0
M  V30 7353 H 1001.34 5.84315 -2.47318 0
M  V30 7354 P 1003.19 7.39546 -4.75277 0
M  V30 7355 O 1004.62 7.84798 -5.01039 0
M  V30 7356 O 1002.83 5.9812 -5.08098 0
M  V30 7357 O 1002.87 7.57503 -3.1866 0
M  V30 7358 C 1002.71 8.97357 -2.74833 0
M  V30 7359 C 1003.25 9.07548 -1.32709 0
M  V30 7360 O 1002.19 8.62072 -0.606159 0
M  V30 7361 C 1004.47 8.25383 -0.938334 0
M  V30 7362 O 1005.21 8.74577 0.146954 0
M  V30 7363 C 1003.8 6.8802 -0.712559 0
M  V30 7364 O 1004.6 6.1189 0.194655 0
M  V30 7365 C 1002.46 7.27966 -0.139777 0
M  V30 7366 H 1002.49 7.25354 0.961601 0
M  V30 7367 H 1003.68 6.32557 -1.65702 0
M  V30 7368 H 1005.16 8.19355 -1.79097 0
M  V30 7369 H 1003.47 10.1294 -1.10029 0
M  V30 7370 H 1003.28 9.64276 -3.41316 0
M  V30 7371 H 1001.65 9.25417 -2.76357 0
M  V30 7372 H 1004.29 6.25267 1.07847 0
M  V30 7373 P 1006.14 8.791 7.86616e-12 0
M  V30 7374 O 1007.57 9.31096 0.027933 0
M  V30 7375 O 1005.78 7.77869 -1.04071 0
M  V30 7376 O 1005.82 8.09533 1.41463 0
M  V30 7377 C 1005.66 9.0349 2.53943 0
M  V30 7378 C 1006.2 8.35226 3.79016 0
M  V30 7379 O 1005.15 7.57992 4.15078 0
M  V30 7380 C 1007.42 7.45087 3.67298 0
M  V30 7381 O 1008.16 7.27796 4.85194 0
M  V30 7382 C 1006.75 6.17323 3.12027 0
M  V30 7383 O 1007.55 5.04231 3.47188 0
M  V30 7384 C 1005.41 6.19961 3.81809 0
M  V30 7385 H 1005.45 5.58218 4.73051 0
M  V30 7386 H 1006.63 6.21726 2.02589 0
M  V30 7387 H 1008.11 7.86112 2.9231 0
M  V30 7388 H 1006.42 9.11627 4.55076 0
M  V30 7389 H 1006.23 9.9573 2.34194 0
M  V30 7390 H 1004.6 9.2792 2.67832 0
M  V30 7391 H 1007.24 4.67702 4.28772 0
M  V30 7392 P 1009.09 7.39546 4.75277 0
M  V30 7393 O 1010.52 7.81777 5.05738 0
M  V30 7394 O 1008.73 7.1065 3.32998 0
M  V30 7395 O 1008.77 6.04542 5.56673 0
M  V30 7396 C 1008.61 6.22772 7.02095 0
M  V30 7397 C 1009.15 4.97725 7.70406 0
M  V30 7398 O 1008.1 4.13256 7.58987 0
M  V30 7399 C 1010.37 4.28231 7.11815 0
M  V30 7400 O 1011.11 3.49945 8.01648 0
M  V30 7401 C 1009.7 3.5063 5.96244 0
M  V30 7402 O 1010.5 2.36482 5.64681 0
M  V30 7403 C 1008.36 3.15122 6.56374 0
M  V30 7404 H 1008.4 2.13853 6.99751 0
M  V30 7405 H 1009.58 4.13501 5.06559 0
M  V30 7406 H 1011.06 5.03285 6.70911 0
M  V30 7407 H 1009.37 5.20877 8.75697 0
M  V30 7408 H 1009.18 7.11046 7.35349 0
M  V30 7409 H 1007.55 6.35815 7.26986 0
M  V30 7410 H 1010.19 1.61644 6.13565 0
M  V30 7411 P 1012.05 3.65191 7.99657 0
M  V30 7412 O 1013.47 3.8425 8.48115 0
M  V30 7413 O 1011.69 4.17805 6.64342 0
M  V30 7414 O 1011.72 2.07613 7.95143 0
M  V30 7415 C 1011.56 1.44328 9.27336 0
M  V30 7416 C 1012.1 0.0220036 9.17197 0
M  V30 7417 O 1011.05 -0.626867 8.61923 0
M  V30 7418 C 1013.32 -0.24586 8.30336 0
M  V30 7419 O 1014.06 -1.39011 8.63583 0
M  V30 7420 C 1012.65 -0.273849 6.91158 0
M  V30 7421 O 1013.45 -1.06348 6.02892 0
M  V30 7422 C 1011.31 -0.897649 7.22545 0
M  V30 7423 H 1011.35 -1.9841 7.04286 0
M  V30 7424 H 1012.53 0.739928 6.497 0
M  V30 7425 H 1014.01 0.60668 8.36503 0
M  V30 7426 H 1012.32 -0.352479 10.1829 0
M  V30 7427 H 1012.13 2.00611 10.0304 0
M  V30 7428 H 1010.5 1.41843 9.55327 0
M  V30 7429 H 1013.14 -1.95734 6.03555 0
M  V30 7430 P 1015 -1.25109 8.70152 0
M  V30 7431 O 1016.42 -1.35288 9.2132 0
M  V30 7432 O 1014.64 -0.0769065 7.84762 0
M  V30 7433 O 1014.67 -2.55232 7.81161 0
M  V30 7434 C 1014.51 -3.79979 8.58246 0
M  V30 7435 C 1015.05 -4.94023 7.72785 0
M  V30 7436 O 1014 -5.18666 6.91125 0
M  V30 7437 C 1016.27 -4.69597 6.85231 0
M  V30 7438 O 1017.01 -5.83832 6.51337 0
M  V30 7439 C 1015.6 -3.96706 5.66633 0
M  V30 7440 O 1016.4 -4.14896 4.5003 0
M  V30 7441 C 1014.27 -4.66153 5.59313 0
M  V30 7442 N 1013.22 -3.71582 5.24027 0
M  V30 7443 C 1013.39 -2.39715 5.48833 0
M  V30 7444 N 1012.36 -1.65863 5.12845 0
M  V30 7445 C 1011.48 -2.57637 4.5973 0
M  V30 7446 C 1010.21 -2.40278 4.01027 0
M  V30 7447 N 1009.61 -1.19549 3.86744 0
M  V30 7448 N 1009.65 -3.57711 3.59575 0
M  V30 7449 C 1010.25 -4.80324 3.70476 0
M  V30 7450 N 1011.43 -5.01121 4.23801 0
M  V30 7451 C 1012 -3.84757 4.66372 0
M  V30 7452 H 1014.3 -5.47604 4.85148 0
M  V30 7453 H 1015.48 -2.8955 5.86187 0
M  V30 7454 H 1016.96 -4.0121 7.36511 0
M  V30 7455 H 1015.27 -5.81019 8.37003 0
M  V30 7456 H 1015.08 -3.73517 9.52265 0
M  V30 7457 H 1013.45 -3.97163 8.80359 0
M  V30 7458 H 1009.71 -5.66348 3.3183 0
M  V30 7459 H 1014.29 -1.98804 5.94332 0
M  V30 7460 H 1008.68 -1.13147 3.4281 0
M  V30 7461 H 1010.09 -0.344074 4.19692 0
M  V30 7462 H 1016.09 -4.90891 4.01857 0
M  V30 7463 P 1017.95 -5.75688 6.64379 0
M  V30 7464 O 1019.37 -6.11849 7.01846 0
M  V30 7465 O 1017.59 -4.30744 6.56026 0
M  V30 7466 O 1017.62 -6.37042 5.19165 0
M  V30 7467 C 1017.46 -7.83578 5.16515 0
M  V30 7468 C 1018 -8.33398 3.83019 0
M  V30 7469 O 1016.95 -8.10074 3.01034 0
M  V30 7470 C 1019.22 -7.65514 3.2257 0
M  V30 7471 O 1019.96 -8.4329 2.32297 0
M  V30 7472 C 1018.55 -6.40075 2.62207 0
M  V30 7473 O 1019.35 -5.92589 1.53712 0
M  V30 7474 C 1017.22 -6.9454 2.18503 0
M  V30 7475 H 1017.25 -7.23063 1.12091 0
M  V30 7476 H 1018.43 -5.6025 3.37201 0
M  V30 7477 H 1019.91 -7.35707 4.02681 0
M  V30 7478 H 1018.22 -9.40912 3.9095 0
M  V30 7479 H 1018.03 -8.29056 5.99158 0
M  V30 7480 H 1016.4 -8.10073 5.25882 0
M  V30 7481 H 1019.04 -6.30324 0.726794 0
M  V30 7482 P 1020.9 -8.4349 2.47671 0
M  V30 7483 O 1022.32 -8.94167 2.5964 0
M  V30 7484 O 1020.54 -7.1704 3.19006 0
M  V30 7485 O 1020.57 -8.16596 0.923387 0
M  V30 7486 C 1020.41 -9.38437 0.108857 0
M  V30 7487 C 1020.95 -9.08175 -1.28353 0
M  V30 7488 O 1019.9 -8.44229 -1.84713 0
M  V30 7489 C 1022.17 -8.18386 -1.42505 0
M  V30 7490 O 1022.91 -8.3501 -2.60497 0
M  V30 7491 C 1021.5 -6.80225 -1.25468 0
M  V30 7492 O 1022.3 -5.81621 -1.91066 0
M  V30 7493 C 1020.17 -7.02416 -1.9168 0
M  V30 7494 H 1020.2 -6.6888 -2.96621 0
M  V30 7495 H 1021.38 -6.53617 -0.192223 0
M  V30 7496 H 1022.87 -8.36622 -0.589963 0
M  V30 7497 H 1021.17 -10.0291 -1.79807 0
M  V30 7498 H 1020.98 -10.2138 0.558219 0
M  V30 7499 H 1019.35 -9.6579 0.0444202 0
M  V30 7500 H 1021.99 -5.69556 -2.79637 0
M  V30 7501 P 1023.85 -8.4349 -2.47671 0
M  V30 7502 O 1025.27 -8.92593 -2.65 0
M  V30 7503 O 1023.49 -7.7568 -1.19296 0
M  V30 7504 O 1023.52 -7.36886 -3.63805 0
M  V30 7505 C 1023.36 -7.95349 -4.982 0
M  V30 7506 C 1023.9 -6.94612 -5.98974 0
M  V30 7507 O 1022.85 -6.10347 -6.11815 0
M  V30 7508 C 1025.12 -6.11426 -5.62335 0
M  V30 7509 O 1025.86 -5.6162 -6.70584 0
M  V30 7510 C 1024.45 -5.04409 -4.73308 0
M  V30 7511 O 1025.25 -3.85992 -4.75183 0
M  V30 7512 C 1023.12 -4.8728 -5.41006 0
M  V30 7513 H 1023.15 -4.02333 -6.11157 0
M  V30 7514 H 1024.33 -5.39466 -3.69543 0
M  V30 7515 H 1025.82 -6.71916 -5.01943 0
M  V30 7516 H 1024.12 -7.4649 -6.93477 0
M  V30 7517 H 1023.93 -8.89416 -5.05237 0
M  V30 7518 H 1022.3 -8.14876 -5.18409 0
M  V30 7519 H 1024.94 -3.27957 -5.4317 0
M  V30 7520 P 1026.8 -5.75688 -6.64379 0
M  V30 7521 O 1028.22 -6.07692 -7.0558 0
M  V30 7522 O 1026.44 -5.88047 -5.19722 0
M  V30 7523 O 1026.48 -4.2322 -7.04443 0
M  V30 7524 C 1026.31 -3.99785 -8.49201 0
M  V30 7525 C 1026.86 -2.60516 -8.79425 0
M  V30 7526 O 1025.8 -1.82663 -8.44573 0
M  V30 7527 C 1028.07 -2.10343 -8.03628 0
M  V30 7528 O 1028.81 -1.09919 -8.67766 0
M  V30 7529 C 1027.41 -1.68446 -6.70876 0
M  V30 7530 O 1028.2 -0.684109 -6.08265 0
M  V30 7531 C 1026.07 -1.17436 -7.18567 0
M  V30 7532 N 1025.02 -1.52699 -6.23988 0
M  V30 7533 C 1025.19 -2.578 -5.40574 0
M  V30 7534 N 1024.17 -2.78966 -4.61193 0
M  V30 7535 C 1023.28 -1.78725 -4.95769 0
M  V30 7536 C 1022.01 -1.45727 -4.44207 0
M  V30 7537 N 1021.45 -0.374977 -5.05812 0
M  V30 7538 C 1022.05 0.345585 -6.05615 0
M  V30 7539 N 1023.23 0.0787651 -6.56253 0
M  V30 7540 C 1023.8 -1.00499 -5.96189 0
M  V30 7541 H 1027.28 -2.53396 -6.02698 0
M  V30 7542 H 1028.77 -2.93881 -7.85526 0
M  V30 7543 H 1027.07 -2.52078 -9.87225 0
M  V30 7544 H 1026.88 -4.75072 -9.05887 0
M  V30 7545 H 1025.25 -4.05244 -8.76668 0
M  V30 7546 H 1026.09 -3.18977 -5.3945 0
M  V30 7547 H 1027.89 0.177619 -6.34151 0
M  V30 7548 P 1029.75 -1.25109 -8.70152 0
M  V30 7549 O 1031.17 -1.29772 -9.22214 0
M  V30 7550 O 1029.39 -2.13714 -7.55141 0
M  V30 7551 O 1029.43 0.248149 -8.21425 0
M  V30 7552 C 1029.27 1.22779 -9.30434 0
M  V30 7553 C 1029.81 2.56265 -8.80568 0
M  V30 7554 O 1028.75 3.02979 -8.09349 0
M  V30 7555 C 1031.02 2.57523 -7.89775 0
M  V30 7556 O 1031.76 3.7668 -7.89438 0
M  V30 7557 C 1030.36 2.20997 -6.55446 0
M  V30 7558 O 1031.15 2.71851 -5.48419 0
M  V30 7559 C 1029.02 2.89693 -6.67988 0
M  V30 7560 N 1027.97 2.08895 -6.07487 0
M  V30 7561 C 1028.04 0.760559 -6.14209 0
M  V30 7562 N 1026.99 0.200108 -5.52538 0
M  V30 7563 C 1026.26 1.22692 -5.09742 0
M  V30 7564 C 1024.95 1.24782 -4.48775 0
M  V30 7565 O 1024.22 0.290617 -4.19294 0
M  V30 7566 N 1024.52 2.50468 -4.22428 0
M  V30 7567 C 1025.27 3.67142 -4.51974 0
M  V30 7568 N 1024.67 4.85096 -4.14091 0
M  V30 7569 N 1026.42 3.67821 -5.12831 0
M  V30 7570 C 1026.88 2.43698 -5.4105 0
M  V30 7571 H 1029.05 3.88793 -6.19859 0
M  V30 7572 H 1030.23 1.12029 -6.4413 0
M  V30 7573 H 1031.72 1.78279 -8.19533 0
M  V30 7574 H 1030.02 3.20706 -9.67112 0
M  V30 7575 H 1029.83 0.901032 -10.1892 0
M  V30 7576 H 1028.2 1.33049 -9.56592 0
M  V30 7577 H 1023.63 2.61953 -3.79465 0
M  V30 7578 H 1028.83 0.200439 -6.63497 0
M  V30 7579 H 1023.76 4.8334 -3.66367 0
M  V30 7580 H 1025.14 5.7474 -4.33841 0
M  V30 7581 H 1030.84 3.5779 -5.23879 0
M  V30 7582 P 1032.7 3.65191 -7.99657 0
M  V30 7583 O 1034.12 3.89332 -8.45794 0
M  V30 7584 O 1032.34 2.28472 -7.50807 0
M  V30 7585 O 1032.38 4.64972 -6.77611 0
M  V30 7586 C 1032.22 6.06319 -7.16352 0
M  V30 7587 C 1032.76 6.91731 -6.02299 0
M  V30 7588 O 1031.7 6.92449 -5.17064 0
M  V30 7589 C 1033.97 6.43627 -5.25174 0
M  V30 7590 O 1034.71 7.43686 -4.60469 0
M  V30 7591 C 1033.31 5.40275 -4.31916 0
M  V30 7592 O 1034.1 5.25279 -3.14438 0
M  V30 7593 C 1031.97 6.04847 -4.05327 0
M  V30 7594 H 1032 6.62195 -3.11261 0
M  V30 7595 H 1033.18 4.42556 -4.81383 0
M  V30 7596 H 1034.67 5.92458 -5.93643 0
M  V30 7597 H 1032.97 7.92655 -6.402 0
M  V30 7598 H 1032.78 6.26671 -8.0846 0
M  V30 7599 H 1031.15 6.29101 -7.32804 0
M  V30 7600 H 1033.79 5.84315 -2.47318 0
M  V30 7601 P 1035.65 7.39546 -4.75277 0
M  V30 7602 O 1037.07 7.84882 -5.01092 0
M  V30 7603 O 1035.29 5.9812 -5.08098 0
M  V30 7604 O 1035.33 7.57503 -3.1866 0
M  V30 7605 C 1035.17 8.97452 -2.74862 0
M  V30 7606 C 1035.71 9.07548 -1.32709 0
M  V30 7607 O 1034.65 8.61972 -0.606089 0
M  V30 7608 C 1036.93 8.25383 -0.938334 0
M  V30 7609 O 1037.66 8.74577 0.146954 0
M  V30 7610 C 1036.26 6.8802 -0.712559 0
M  V30 7611 O 1037.06 6.1181 0.188505 0
M  V30 7612 C 1034.92 7.27966 -0.139777 0
M  V30 7613 N 1033.88 6.39368 -0.623421 0
M  V30 7614 C 1034.05 5.71761 -1.78245 0
M  V30 7615 N 1033.02 4.962 -2.10491 0
M  V30 7616 C 1032.13 5.16158 -1.0635 0
M  V30 7617 C 1030.87 4.60425 -0.810266 0
M  V30 7618 N 1030.27 3.7057 -1.62914 0
M  V30 7619 N 1030.3 5.06 0.348685 0
M  V30 7620 C 1030.9 5.94532 1.20395 0
M  V30 7621 N 1032.08 6.48452 1.01191 0
M  V30 7622 C 1032.66 6.04423 -0.146291 0
M  V30 7623 H 1034.95 7.25255 0.961469 0
M  V30 7624 H 1036.13 6.32625 -1.65044 0
M  V30 7625 H 1037.62 8.19355 -1.79097 0
M  V30 7626 H 1035.92 10.1305 -1.09016 0
M  V30 7627 H 1035.73 9.64276 -3.41316 0
M  V30 7628 H 1034.1 9.25417 -2.76357 0
M  V30 7629 H 1030.37 6.21659 2.10714 0
M  V30 7630 H 1034.95 5.79354 -2.38959 0
M  V30 7631 H 1029.34 3.33174 -1.38982 0
M  V30 7632 H 1030.74 3.39714 -2.48836 0
M  V30 7633 H 1036.74 6.25169 1.0783 0
M  V30 7634 H 1039.3 8.24193 -0.0346053 0
M  V30 END ATOM
M  V30 BEGIN BOND
M  V30 END BOND
M  V30 END CTAB
M  END
$$$$
