drugbank_target|Q4U2R8 Solute carrier family 22 member 6 (DB00493; DB01032; DB01212)
 OpenBabel12092119473D

  0  0  0     0  0            999 V3000
M  V30 BEGIN CTAB
M  V30 COUNTS 8763 8866 0 0 0
M  V30 BEGIN ATOM
M  V30 1 H -0.908 1.98254 -0.117106 0
M  V30 2 N 0 1.576 0 0
M  V30 3 C 0.933 2.03868 1.02534 0
M  V30 4 C 1.911 0.928543 1.3348 0
M  V30 5 O 3.095 1.19667 1.45644 0
M  V30 6 C 0.222 2.43627 2.35294 0
M  V30 7 C -0.732 3.65373 2.2001 0
M  V30 8 S 0.101 5.13292 1.52614 0
M  V30 9 C 1.257 5.56322 2.86805 0
M  V30 10 H 1.49 2.90518 0.631377 0
M  V30 11 H -0.977 1.52953 0.210867 0
M  V30 12 H 0.981 2.67203 3.11629 0
M  V30 13 H -0.358 1.57376 2.7183 0
M  V30 14 H -1.165 3.90944 3.18086 0
M  V30 15 H -1.563 3.418 1.51819 0
M  V30 16 H 0.729 5.58782 3.83104 0
M  V30 17 H 1.672 6.56266 2.65933 0
M  V30 18 H 2.08 4.83886 2.90714 0
M  V30 19 N 1.4781 -0.272755 1.55222 0
M  V30 20 C 2.4411 -1.32041 1.87344 0
M  V30 21 C 3.4411 -1.42342 0.74803 0
M  V30 22 O 4.6311 -1.41488 1.0162 0
M  V30 23 C 1.7631 -2.70173 2.07893 0
M  V30 24 H 2.9561 -1.04789 2.80997 0
M  V30 25 H 0.5091 -0.51083 1.47717 0
M  V30 26 H 1.2441 -3.02605 1.16622 0
M  V30 27 H 1.0291 -2.64082 2.89833 0
M  V30 28 H 2.5191 -3.45869 2.34017 0
M  V30 29 N 2.9562 -1.48159 -0.537278 0
M  V30 30 C 4.2032 -1.55804 -1.29349 0
M  V30 31 C 4.5312 -0.228802 -1.9315 0
M  V30 32 O 3.7862 0.780242 -1.79473 0
M  V30 33 C 4.0852 -2.63956 -2.40961 0
M  V30 34 C 3.7512 -4.0662 -1.94861 0
M  V30 35 C 2.4132 -4.45452 -1.82006 0
M  V30 36 C 4.7652 -4.96055 -1.59933 0
M  V30 37 C 2.0932 -5.71531 -1.32547 0
M  V30 38 C 4.4452 -6.22617 -1.11939 0
M  V30 39 C 3.1092 -6.60312 -0.976951 0
M  V30 40 H 2.3792 -0.570129 -0.473322 0
M  V30 41 H 5.0262 -1.81845 -0.600372 0
M  V30 42 H 3.3312 -2.31747 -3.15912 0
M  V30 43 H 5.0282 -2.67089 -2.99107 0
M  V30 44 H 1.6182 -3.75949 -2.05815 0
M  V30 45 H 5.8022 -4.66738 -1.68728 0
M  V30 46 H 1.0582 -5.99468 -1.202 0
M  V30 47 H 5.2322 -6.91318 -0.839811 0
M  V30 48 H 2.8592 -7.57895 -0.591501 0
M  V30 49 N 4.4343 0.785586 -1.36625 0
M  V30 50 C 5.3823 1.91978 -1.31329 0
M  V30 51 C 6.3763 1.68162 -0.204416 0
M  V30 52 O 7.5823 1.76122 -0.371645 0
M  V30 53 H 3.9573 0.631087 -0.408942 0
M  V30 54 H 5.9283 1.93562 -2.27104 0
M  V30 55 C 4.6773 3.29055 -1.12329 0
M  V30 56 H 4.0003 3.4795 -1.96903 0
M  V30 57 H 5.4403 4.08756 -1.12671 0
M  V30 58 C 3.8993 3.36461 0.171861 0
M  V30 59 O 4.4293 3.84576 1.16035 0
M  V30 60 N 2.6353 2.89782 0.217846 0
M  V30 61 H 2.1823 2.50819 -0.587183 0
M  V30 62 H 2.1403 2.95119 1.08408 0
M  V30 63 N 5.9124 1.20967 1.01018 0
M  V30 64 C 7.1894 0.93264 1.71934 0
M  V30 65 C 7.5694 -0.55692 2.03621 0
M  V30 66 O 6.9174 -1.52035 1.7058 0
M  V30 67 C 7.1274 1.81233 2.98254 0
M  V30 68 C 8.4754 2.05804 3.71389 0
M  V30 69 O 9.4994 1.78539 3.08225 0
M  V30 70 O 8.3584 2.51888 4.84989 0
M  V30 71 H 5.4524 0.349272 0.749625 0
M  V30 72 H 7.9984 1.31871 1.06808 0
M  V30 73 H 6.7704 2.82067 2.71208 0
M  V30 74 H 6.3934 1.42674 3.7112 0
M  V30 75 N 7.3905 -1.2043 1.01659 0
M  V30 76 C 8.3205 -2.25466 0.607226 0
M  V30 77 C 9.3015 -1.65853 -0.377716 0
M  V30 78 O 10.4865 -1.92409 -0.263149 0
M  V30 79 C 7.6165 -3.47256 -0.0552949 0
M  V30 80 C 6.5705 -4.19462 0.850632 0
M  V30 81 C 5.8965 -5.34673 0.0538859 0
M  V30 82 C 7.1965 -4.75603 2.15868 0
M  V30 83 H 8.8905 -2.59962 1.48526 0
M  V30 84 H 6.4365 -1.2496 0.715605 0
M  V30 85 H 8.3895 -4.19917 -0.353233 0
M  V30 86 H 7.1135 -3.11924 -0.968045 0
M  V30 87 H 5.7725 -3.48667 1.13257 0
M  V30 88 H 5.4205 -4.95585 -0.860514 0
M  V30 89 H 5.1205 -5.83913 0.657192 0
M  V30 90 H 6.6445 -6.10138 -0.237598 0
M  V30 91 H 8.0585 -5.40083 1.92311 0
M  V30 92 H 6.4555 -5.3528 2.71284 0
M  V30 93 H 7.5255 -3.94346 2.82169 0
M  V30 94 N 8.8686 -0.792821 -1.36206 0
M  V30 95 C 9.7986 -0.207853 -2.32573 0
M  V30 96 C 10.7796 0.659055 -1.56813 0
M  V30 97 O 11.9646 0.592176 -1.84951 0
M  V30 98 C 9.0946 0.655449 -3.41059 0
M  V30 99 C 8.0486 -0.111842 -4.27854 0
M  V30 100 C 7.3746 0.872274 -5.27537 0
M  V30 101 C 8.6746 -1.30299 -5.05786 0
M  V30 102 H 10.3686 -1.01294 -2.81744 0
M  V30 103 H 7.9146 -0.48854 -1.3546 0
M  V30 104 H 9.8676 1.07464 -4.07467 0
M  V30 105 H 8.5916 1.49328 -2.90463 0
M  V30 106 H 7.2506 -0.512053 -3.63006 0
M  V30 107 H 6.8986 1.70523 -4.73214 0
M  V30 108 H 6.5986 0.363291 -5.86476 0
M  V30 109 H 8.1226 1.28996 -5.96818 0
M  V30 110 H 9.5366 -0.959379 -5.65216 0
M  V30 111 H 7.9336 -1.7455 -5.74154 0
M  V30 112 H 9.0036 -2.09663 -4.37229 0
M  V30 113 N 10.3467 1.47872 -0.545128 0
M  V30 114 C 11.2787 2.27869 0.246621 0
M  V30 115 C 12.2917 1.36282 0.890561 0
M  V30 116 O 13.4807 1.61207 0.766449 0
M  V30 117 C 10.5807 3.10159 1.36582 0
M  V30 118 C 9.7537 4.29627 0.820954 0
M  V30 119 C 8.8127 4.93607 1.82314 0
M  V30 120 O 7.8387 5.52366 1.37406 0
M  V30 121 N 9.0407 4.87211 3.15603 0
M  V30 122 H 11.8057 2.96459 -0.439539 0
M  V30 123 H 9.3667 1.57367 -0.380421 0
M  V30 124 H 11.3587 3.49829 2.03474 0
M  V30 125 H 9.9287 2.43891 1.9554 0
M  V30 126 H 9.1487 3.94192 -0.0244032 0
M  V30 127 H 10.4367 5.06928 0.436063 0
M  V30 128 H 9.8347 4.40651 3.54744 0
M  V30 129 H 8.3917 5.30937 3.78087 0
M  V30 130 N 11.8248 0.280983 1.55075 0
M  V30 131 C 12.7568 -0.637268 2.20163 0
M  V30 132 C 13.7698 -1.11298 1.18813 0
M  V30 133 O 14.9588 -1.03388 1.4551 0
M  V30 134 C 12.0588 -1.88199 2.81841 0
M  V30 135 C 11.2318 -1.55211 4.08936 0
M  V30 136 C 10.2908 -2.64991 4.54606 0
M  V30 137 O 9.3168 -2.30929 5.2025 0
M  V30 138 N 10.5188 -3.95161 4.25238 0
M  V30 139 H 13.2838 -0.0801694 2.99593 0
M  V30 140 H 10.8448 0.102329 1.61576 0
M  V30 141 H 12.8368 -2.60948 3.09335 0
M  V30 142 H 11.4068 -2.34799 2.06369 0
M  V30 143 H 10.6268 -0.658185 3.88666 0
M  V30 144 H 11.9148 -1.30681 4.91732 0
M  V30 145 H 11.3128 -4.25653 3.72607 0
M  V30 146 H 9.8698 -4.6427 4.5749 0
M  V30 147 N 13.3029 -1.57598 0.00835791 0
M  V30 148 C 14.5489 -1.91211 -0.675732 0
M  V30 149 C 14.8819 -0.883139 -1.72958 0
M  V30 150 O 14.1569 0.097016 -1.94258 0
M  V30 151 C 14.4399 -3.35379 -1.31123 0
M  V30 152 C 14.2929 -4.48999 -0.268356 0
M  V30 153 C 15.6119 -3.7912 -2.23508 0
M  V30 154 H 12.7309 -0.695374 -0.244179 0
M  V30 155 H 15.3729 -1.89901 0.0613655 0
M  V30 156 H 13.5229 -3.36626 -1.93946 0
M  V30 157 H 15.1949 -4.59887 0.360844 0
M  V30 158 H 13.4379 -4.31873 0.408482 0
M  V30 159 H 14.1089 -5.46851 -0.752218 0
M  V30 160 H 16.5849 -3.79477 -1.70693 0
M  V30 161 H 15.4609 -4.80729 -2.64936 0
M  V30 162 H 15.7219 -3.13455 -3.11766 0
M  V30 163 N 14.781 0.264519 -1.55364 0
M  V30 164 C 16.029 0.993021 -1.76021 0
M  V30 165 C 16.35 1.86511 -0.569099 0
M  V30 166 O 15.62 1.91438 0.415735 0
M  V30 167 H 14.2 0.369639 -0.649135 0
M  V30 168 H 16.862 0.286707 -1.9278 0
M  V30 169 H 15.958 1.62502 -2.66457 0
M  V30 170 N 16.2591 1.48442 0.529413 0
M  V30 171 C 17.5071 1.56179 1.28267 0
M  V30 172 C 17.8281 0.237721 1.93546 0
M  V30 173 O 17.0981 -0.740779 1.81354 0
M  V30 174 H 15.6781 0.575367 0.476405 0
M  V30 175 H 18.3401 1.84909 0.61602 0
M  V30 176 H 17.4361 2.34312 2.06165 0
M  V30 177 N 17.7372 -0.778329 1.37039 0
M  V30 178 C 18.9832 -1.53892 1.32079 0
M  V30 179 C 19.3162 -1.9396 -0.0965386 0
M  V30 180 O 18.5912 -1.63568 -1.05242 0
M  V30 181 C 18.8742 -2.80847 2.25382 0
M  V30 182 C 18.7272 -2.47076 3.75864 0
M  V30 183 C 20.0462 -3.82741 2.1725 0
M  V30 184 H 17.1652 -0.558303 0.48111 0
M  V30 185 H 19.8072 -0.893397 1.67685 0
M  V30 186 H 17.9572 -3.35931 1.95148 0
M  V30 187 H 19.6292 -1.97957 4.16666 0
M  V30 188 H 17.8722 -1.79863 3.94755 0
M  V30 189 H 18.5432 -3.37798 4.36574 0
M  V30 190 H 21.0192 -3.37133 2.43887 0
M  V30 191 H 19.8952 -4.69303 2.84686 0
M  V30 192 H 20.1562 -4.2652 1.16331 0
M  V30 193 N 19.2153 -1.21501 -1.00376 0
M  V30 194 C 20.4633 -1.03095 -1.73827 0
M  V30 195 C 20.7843 0.436341 -1.90055 0
M  V30 196 O 20.0543 1.31466 -1.45236 0
M  V30 197 H 18.6343 -0.378487 -0.644016 0
M  V30 198 H 21.2963 -1.52831 -1.20949 0
M  V30 199 H 20.3923 -1.49991 -2.73695 0
M  V30 200 N 20.6934 1.19889 -1.02296 0
M  V30 201 C 22.1094 1.41462 -0.738954 0
M  V30 202 C 22.3094 1.89721 0.678846 0
M  V30 203 O 21.3654 2.07016 1.4457 0
M  V30 204 C 22.6784 2.43083 -1.77005 0
M  V30 205 C 24.2264 2.5684 -1.78892 0
M  V30 206 C 24.7014 3.61709 -2.80945 0
M  V30 207 N 26.1924 3.69199 -2.79725 0
M  V30 208 C 26.9274 4.50019 -3.55345 0
M  V30 209 N 26.4234 5.34592 -4.40662 0
M  V30 210 N 28.2164 4.44612 -3.43914 0
M  V30 211 H 20.3674 0.868827 -1.93817 0
M  V30 212 H 22.6304 0.44399 -0.837602 0
M  V30 213 H 22.3364 2.14636 -2.78612 0
M  V30 214 H 22.2104 3.4217 -1.58744 0
M  V30 215 H 24.5974 2.84614 -0.779674 0
M  V30 216 H 24.6784 1.57927 -2.01228 0
M  V30 217 H 24.3224 3.34678 -3.82038 0
M  V30 218 H 24.2524 4.60259 -2.5587 0
M  V30 219 H 26.7434 3.08794 -2.17842 0
M  V30 220 H 27.0564 5.93363 -4.95116 0
M  V30 221 H 25.4014 5.34073 -4.44737 0
M  V30 222 H 28.5924 3.7758 -2.76679 0
M  V30 223 H 28.7654 5.0736 -4.031 0
M  V30 224 N 22.1715 0.800033 1.35784 0
M  V30 225 C 23.4185 0.377342 1.98953 0
M  V30 226 C 23.7465 -1.05378 1.6348 0
M  V30 227 O 23.0015 -1.74459 0.886707 0
M  V30 228 C 23.3005 0.500276 3.53881 0
M  V30 229 C 22.9665 1.89375 4.09204 0
M  V30 230 C 21.6285 2.27499 4.24025 0
M  V30 231 C 23.9805 2.8057 4.39238 0
M  V30 232 C 21.3085 3.562 4.66195 0
M  V30 233 C 23.6605 4.0871 4.82844 0
M  V30 234 C 22.3245 4.46843 4.95871 0
M  V30 235 H 21.5945 0.138079 0.728021 0
M  V30 236 H 24.2415 1.01955 1.62103 0
M  V30 237 H 22.5465 -0.225405 3.91151 0
M  V30 238 H 24.2435 0.154097 4.00704 0
M  V30 239 H 20.8335 1.58753 3.98115 0
M  V30 240 H 25.0175 2.52367 4.27346 0
M  V30 241 H 20.2735 3.85602 4.74469 0
M  V30 242 H 24.4475 4.79481 5.05046 0
M  V30 243 H 22.0745 5.46623 5.28306 0
M  V30 244 N 23.6496 -1.47581 0.552962 0
M  V30 245 C 24.5816 -2.27997 -0.234533 0
M  V30 246 C 25.5946 -1.36753 -0.883321 0
M  V30 247 O 26.7836 -1.61612 -0.757889 0
M  V30 248 C 23.8836 -3.10879 -1.34935 0
M  V30 249 C 23.0566 -4.30056 -0.798158 0
M  V30 250 C 22.1156 -4.94567 -1.79694 0
M  V30 251 O 21.1416 -5.53087 -1.34474 0
M  V30 252 N 22.3436 -4.88878 -3.13015 0
M  V30 253 H 25.1086 -2.96222 0.455255 0
M  V30 254 H 22.6696 -1.57163 0.388761 0
M  V30 255 H 24.6616 -3.50903 -2.01616 0
M  V30 256 H 23.2316 -2.44924 -1.94244 0
M  V30 257 H 22.4516 -3.94174 0.0453079 0
M  V30 258 H 23.7396 -5.07152 -0.409173 0
M  V30 259 H 23.1376 -4.42526 -3.52402 0
M  V30 260 H 21.6946 -5.32934 -3.75266 0
M  V30 261 N 25.1277 -0.289203 -1.54924 0
M  V30 262 C 26.0597 0.625583 -2.20497 0
M  V30 263 C 27.0727 1.10667 -1.19402 0
M  V30 264 O 28.2617 1.02615 -1.46056 0
M  V30 265 C 25.3617 1.86702 -2.82835 0
M  V30 266 C 24.5347 1.5304 -4.09753 0
M  V30 267 C 23.5937 2.62576 -4.56005 0
M  V30 268 O 22.6197 2.28167 -5.21468 0
M  V30 269 N 23.8217 3.92901 -4.27328 0
M  V30 270 H 26.5867 0.0642801 -2.99631 0
M  V30 271 H 24.1477 -0.110896 -1.6152 0
M  V30 272 H 26.1397 2.59304 -3.10715 0
M  V30 273 H 24.7097 2.33702 -2.07611 0
M  V30 274 H 23.9297 0.637564 -3.8901 0
M  V30 275 H 25.2177 1.28072 -4.92418 0
M  V30 276 H 24.6157 4.23671 -3.74859 0
M  V30 277 H 23.1727 4.61837 -4.59946 0
M  V30 278 N 26.6058 1.57591 -0.0167156 0
M  V30 279 C 27.8548 1.90461 0.663877 0
M  V30 280 C 28.1678 0.893515 1.73999 0
M  V30 281 O 29.3738 1.11302 2.47637 0
M  V30 282 C 27.8298 3.38155 1.23204 0
M  V30 283 C 27.4378 4.47597 0.189866 0
M  V30 284 C 29.1818 3.80111 1.88986 0
M  V30 285 C 27.0888 5.86379 0.768964 0
M  V30 286 H 26.0188 0.710738 0.251729 0
M  V30 287 H 28.6698 1.83326 -0.0799926 0
M  V30 288 H 27.0518 3.40182 2.02712 0
M  V30 289 H 28.2258 4.57112 -0.581846 0
M  V30 290 H 26.5408 4.14766 -0.368475 0
M  V30 291 H 29.1378 4.81145 2.33247 0
M  V30 292 H 29.4808 3.14511 2.72743 0
M  V30 293 H 30.0138 3.80454 1.16187 0
M  V30 294 H 26.7528 6.55493 -0.0301957 0
M  V30 295 H 26.2728 5.80496 1.50945 0
M  V30 296 H 27.9518 6.34563 1.26251 0
M  V30 297 N 28.0839 -0.256276 1.55502 0
M  V30 298 C 29.0159 -1.33981 1.85962 0
M  V30 299 C 30.0289 -1.44743 0.745212 0
M  V30 300 O 31.2179 -1.4626 1.02324 0
M  V30 301 C 28.3179 -2.7194 2.02242 0
M  V30 302 C 27.4909 -2.83562 3.33033 0
M  V30 303 C 26.5499 -4.02304 3.39172 0
M  V30 304 O 25.5759 -3.92273 4.12444 0
M  V30 305 N 26.7779 -5.15045 2.67784 0
M  V30 306 H 29.5429 -1.08191 2.7949 0
M  V30 307 H 27.1039 -0.446388 1.55624 0
M  V30 308 H 29.0959 -3.49697 2.03701 0
M  V30 309 H 27.6659 -2.90479 1.15502 0
M  V30 310 H 26.8859 -1.92555 3.43971 0
M  V30 311 H 28.1739 -2.88271 4.19258 0
M  V30 312 H 27.5719 -5.26085 2.07968 0
M  V30 313 H 26.1289 -5.90972 2.74947 0
M  V30 314 N 29.562 -1.4872 -0.521534 0
M  V30 315 C 30.808 -1.574 -1.27879 0
M  V30 316 C 31.141 -0.250817 -1.92573 0
M  V30 317 O 30.416 0.743934 -1.79711 0
M  V30 318 C 30.699 -2.71843 -2.36164 0
M  V30 319 C 30.552 -4.13893 -1.76105 0
M  V30 320 C 31.871 -2.82008 -3.37875 0
M  V30 321 H 28.99 -0.572941 -0.463581 0
M  V30 322 H 31.632 -1.80927 -0.580119 0
M  V30 323 H 29.782 -2.51914 -2.95756 0
M  V30 324 H 31.454 -4.45284 -1.20499 0
M  V30 325 H 29.697 -4.20498 -1.06601 0
M  V30 326 H 30.368 -4.89804 -2.5455 0
M  V30 327 H 32.844 -3.00086 -2.88249 0
M  V30 328 H 31.72 -3.63796 -4.11028 0
M  V30 329 H 31.981 -1.90511 -3.98946 0
M  V30 330 N 31.0401 0.771051 -1.3745 0
M  V30 331 C 32.2681 1.56015 -1.35893 0
M  V30 332 C 32.6831 1.88718 0.0555523 0
M  V30 333 O 32.0401 1.51502 1.01752 0
M  V30 334 C 32.0911 2.87001 -2.19801 0
M  V30 335 O 31.8121 2.557 -3.55738 0
M  V30 336 C 33.3131 3.81228 -2.26231 0
M  V30 337 H 30.5331 0.483317 -0.465453 0
M  V30 338 H 33.0771 0.955611 -1.80799 0
M  V30 339 H 31.2321 3.43877 -1.78402 0
M  V30 340 H 31.6461 3.39584 -3.99729 0
M  V30 341 H 33.1201 4.70139 -2.89263 0
M  V30 342 H 33.5971 4.20409 -1.27093 0
M  V30 343 H 34.2031 3.30281 -2.67945 0
M  V30 344 N 32.5182 1.22032 0.997298 0
M  V30 345 C 33.4482 1.01065 2.10495 0
M  V30 346 C 34.4292 -0.0669542 1.69968 0
M  V30 347 O 35.6142 0.0943987 1.9397 0
M  V30 348 C 32.7442 0.582874 3.42374 0
M  V30 349 C 31.6982 1.60592 3.96729 0
M  V30 350 C 31.0242 1.03412 5.24605 0
M  V30 351 C 32.3242 2.99478 4.27914 0
M  V30 352 H 34.0182 1.93708 2.28292 0
M  V30 353 H 31.5642 0.932761 1.09707 0
M  V30 354 H 33.5172 0.423332 4.19268 0
M  V30 355 H 32.2412 -0.379213 3.24391 0
M  V30 356 H 30.9002 1.75316 3.21963 0
M  V30 357 H 30.5482 0.063518 5.0296 0
M  V30 358 H 30.2482 1.71754 5.61938 0
M  V30 359 H 31.7722 0.886066 6.04137 0
M  V30 360 H 33.1862 2.88153 4.95622 0
M  V30 361 H 31.5832 3.64903 4.76409 0
M  V30 362 H 32.6532 3.49742 3.3587 0
M  V30 363 N 33.9963 -1.19345 1.0293 0
M  V30 364 C 35.2423 -1.89318 0.727083 0
M  V30 365 C 35.5753 -1.79446 -0.742483 0
M  V30 366 O 34.8503 -1.1871 -1.54072 0
M  V30 367 C 35.1333 -3.40238 1.17942 0
M  V30 368 C 34.9863 -3.58979 2.71024 0
M  V30 369 C 36.3053 -4.33479 0.760548 0
M  V30 370 H 33.4243 -0.687475 0.265606 0
M  V30 371 H 36.0663 -1.40477 1.2793 0
M  V30 372 H 34.2163 -3.81964 0.709608 0
M  V30 373 H 35.8883 -3.26421 3.25955 0
M  V30 374 H 34.1313 -3.02018 3.11396 0
M  V30 375 H 34.8023 -4.64823 2.9773 0
M  V30 376 H 37.2783 -3.99469 1.16464 0
M  V30 377 H 36.1543 -5.37664 1.10493 0
M  V30 378 H 36.4153 -4.40813 -0.337063 0
M  V30 379 N 35.4744 -0.807222 -1.35358 0
M  V30 380 C 36.7204 -0.388463 -1.99045 0
M  V30 381 C 37.0534 1.04184 -1.63888 0
M  V30 382 O 36.3284 1.72292 -0.902535 0
M  V30 383 C 36.6114 -0.572783 -3.55515 0
M  V30 384 C 36.4644 -2.04807 -4.00468 0
M  V30 385 C 37.7834 0.00114064 -4.401 0
M  V30 386 H 34.9024 -0.142619 -0.723069 0
M  V30 387 H 37.5444 -1.01687 -1.60498 0
M  V30 388 H 35.6944 -0.0378425 -3.88482 0
M  V30 389 H 37.3664 -2.64544 -3.77908 0
M  V30 390 H 35.6094 -2.54427 -3.51353 0
M  V30 391 H 36.2804 -2.12792 -5.09337 0
M  V30 392 H 38.7564 -0.455716 -4.13597 0
M  V30 393 H 37.6324 -0.157737 -5.48673 0
M  V30 394 H 37.8934 1.09488 -4.28328 0
M  V30 395 N 36.9525 1.47285 -0.560781 0
M  V30 396 C 37.8825 2.32857 0.173105 0
M  V30 397 C 38.8635 1.44009 0.905281 0
M  V30 398 O 40.0485 1.7286 0.885046 0
M  V30 399 C 37.1785 3.25861 1.20133 0
M  V30 400 C 36.1325 4.23978 0.585388 0
M  V30 401 C 35.4585 5.06332 1.7185 0
M  V30 402 C 36.7585 5.20242 -0.463178 0
M  V30 403 H 38.4525 2.94466 -0.541307 0
M  V30 404 H 35.9985 1.41601 -0.261764 0
M  V30 405 H 37.9515 3.84569 1.72293 0
M  V30 406 H 36.6755 2.62315 1.94573 0
M  V30 407 H 35.3345 3.66501 0.085054 0
M  V30 408 H 34.9825 4.39186 2.45203 0
M  V30 409 H 34.6825 5.72762 1.31213 0
M  V30 410 H 36.2065 5.67899 2.24329 0
M  V30 411 H 37.6205 5.73293 -0.027502 0
M  V30 412 H 36.0175 5.94896 -0.788627 0
M  V30 413 H 37.0875 4.65504 -1.35773 0
M  V30 414 N 38.4306 0.297415 1.54768 0
M  V30 415 C 39.8416 -0.195947 1.85669 0
M  V30 416 C 40.1926 -1.53707 1.21937 0
M  V30 417 O 39.3176 -2.10164 0.515754 0
M  V30 418 C 39.9126 -0.362318 3.36857 0
M  V30 419 C 38.4716 -0.799901 3.67802 0
M  V30 420 C 37.6186 0.0938578 2.77141 0
M  V30 421 H 40.5696 0.518538 1.4999 0
M  V30 422 H 40.5906 -1.19745 3.61167 0
M  V30 423 H 40.1026 0.613921 3.83214 0
M  V30 424 H 38.2036 -1.78682 3.26961 0
M  V30 425 H 38.3166 -0.621773 4.75048 0
M  V30 426 H 36.6806 -0.426254 2.51108 0
M  V30 427 H 37.4636 1.06639 3.26318 0
M  V30 428 N 39.9087 -1.5758 0.0250728 0
M  V30 429 C 40.8387 -2.13007 -0.956575 0
M  V30 430 C 41.8197 -1.0452 -1.342 0
M  V30 431 O 43.0047 -1.32332 -1.42133 0
M  V30 432 C 40.1347 -2.65386 -2.24026 0
M  V30 433 C 39.0887 -3.78623 -1.99571 0
M  V30 434 C 38.4147 -4.17414 -3.3417 0
M  V30 435 C 39.7147 -5.04867 -1.33814 0
M  V30 436 H 41.4087 -2.9528 -0.494991 0
M  V30 437 H 38.9547 -1.42042 -0.236651 0
M  V30 438 H 40.9077 -3.02794 -2.93076 0
M  V30 439 H 39.6317 -1.80268 -2.72343 0
M  V30 440 H 38.2907 -3.41646 -1.32941 0
M  V30 441 H 37.9387 -3.29284 -3.80238 0
M  V30 442 H 37.6387 -4.93719 -3.18615 0
M  V30 443 H 39.1627 -4.57402 -4.04495 0
M  V30 444 H 40.5767 -5.39888 -1.92857 0
M  V30 445 H 38.9737 -5.86144 -1.28669 0
M  V30 446 H 40.0437 -4.83904 -0.310561 0
M  V30 447 N 41.3868 0.248026 -1.55636 0
M  V30 448 C 42.3168 1.31079 -1.93237 0
M  V30 449 C 43.2978 1.50264 -0.797174 0
M  V30 450 O 44.4828 1.62891 -1.05737 0
M  V30 451 C 41.6128 2.66575 -2.22609 0
M  V30 452 C 40.5668 2.62087 -3.3837 0
M  V30 453 C 39.8928 4.01369 -3.53281 0
M  V30 454 C 41.1928 2.19171 -4.7409 0
M  V30 455 H 42.8868 0.998556 -2.82257 0
M  V30 456 H 40.4328 0.47891 -1.35803 0
M  V30 457 H 42.3858 3.41057 -2.47503 0
M  V30 458 H 41.1098 2.99432 -1.30414 0
M  V30 459 H 39.7688 1.90063 -3.13483 0
M  V30 460 H 39.4168 4.31489 -2.58508 0
M  V30 461 H 39.1168 3.99254 -4.31127 0
M  V30 462 H 40.6408 4.77552 -3.80495 0
M  V30 463 H 42.0548 2.83384 -4.98363 0
M  V30 464 H 40.4518 2.2817 -5.5503 0
M  V30 465 H 41.5218 1.14336 -4.71227 0
M  V30 466 N 42.8649 1.48995 0.513639 0
M  V30 467 C 43.7949 1.67636 1.62544 0
M  V30 468 C 44.7759 0.525087 1.61793 0
M  V30 469 O 45.9609 0.759502 1.78732 0
M  V30 470 C 43.0909 1.73114 3.01079 0
M  V30 471 C 42.0449 2.87905 3.16693 0
M  V30 472 C 41.3709 2.78486 4.56453 0
M  V30 473 C 42.6709 4.29005 2.97913 0
M  V30 474 H 44.3649 2.60716 1.47198 0
M  V30 475 H 41.9109 1.25465 0.706714 0
M  V30 476 H 43.8639 1.84742 3.78746 0
M  V30 477 H 42.5879 0.766241 3.17484 0
M  V30 478 H 41.2469 2.75859 2.41448 0
M  V30 479 H 40.8949 1.7993 4.69717 0
M  V30 480 H 40.5949 3.55523 4.67843 0
M  V30 481 H 42.1189 2.92104 5.36197 0
M  V30 482 H 43.5329 4.41798 3.65359 0
M  V30 483 H 41.9299 5.07166 3.20785 0
M  V30 484 H 42.9999 4.44329 1.94165 0
M  V30 485 N 44.343 -0.763751 1.37857 0
M  V30 486 C 45.276 -1.88486 1.28639 0
M  V30 487 C 46.254 -1.61757 0.165363 0
M  V30 488 O 47.438 -1.85391 0.340948 0
M  V30 489 C 44.565 -3.23884 0.990811 0
M  V30 490 C 43.611 -3.69514 2.12983 0
M  V30 491 S 44.444 -3.82244 3.75033 0
M  V30 492 C 45.6 -5.20477 3.47641 0
M  V30 493 H 45.833 -1.96017 2.23527 0
M  V30 494 H 43.366 -0.925684 1.23574 0
M  V30 495 H 45.324 -4.02081 0.827101 0
M  V30 496 H 43.985 -3.14044 0.0592832 0
M  V30 497 H 43.178 -4.67696 1.87821 0
M  V30 498 H 42.78 -2.98441 2.25408 0
M  V30 499 H 45.072 -6.05905 3.03125 0
M  V30 500 H 46.015 -5.50655 4.4518 0
M  V30 501 H 46.423 -4.88793 2.82385 0
M  V30 502 N 45.8211 -1.22559 -0.990812 0
M  V30 503 C 46.7841 -0.998863 -2.0629 0
M  V30 504 C 47.7841 0.0354834 -1.60761 0
M  V30 505 O 48.9741 -0.203231 -1.7301 0
M  V30 506 C 46.1061 -0.509203 -3.37076 0
M  V30 507 H 47.2991 -1.95014 -2.27837 0
M  V30 508 H 44.8521 -1.04456 -1.16269 0
M  V30 509 H 45.5871 0.446335 -3.21214 0
M  V30 510 H 45.3721 -1.25547 -3.71457 0
M  V30 511 H 46.8621 -0.370888 -4.1595 0
M  V30 512 N 47.2992 1.18797 -1.03562 0
M  V30 513 C 48.5242 1.9314 -0.755764 0
M  V30 514 C 48.9492 1.7537 0.68022 0
M  V30 515 O 48.3072 1.06046 1.47051 0
M  V30 516 C 48.3552 3.42747 -1.12058 0
M  V30 517 O 47.4592 4.11683 -0.243124 0
M  V30 518 H 46.8002 0.602724 -0.278604 0
M  V30 519 H 49.3302 1.50678 -1.3841 0
M  V30 520 H 49.3402 3.93437 -1.08035 0
M  V30 521 H 48.0152 3.55002 -2.16672 0
M  V30 522 H 46.5922 3.71323 -0.342539 0
M  V30 523 N 48.7773 0.814389 1.34928 0
M  V30 524 C 49.7273 0.202752 2.27097 0
M  V30 525 C 50.7113 -0.62799 1.48139 0
M  V30 526 O 51.9033 -0.483969 1.70255 0
M  V30 527 C 49.0323 -0.64146 3.37254 0
M  V30 528 C 48.1183 0.19944 4.23631 0
M  V30 529 N 48.5093 1.26628 4.89693 0
M  V30 530 C 46.8073 -0.0176433 4.45997 0
M  V30 531 C 47.5083 1.78031 5.53787 0
M  V30 532 N 46.4843 1.08553 5.32651 0
M  V30 533 H 50.2863 1.01893 2.75672 0
M  V30 534 H 47.8003 0.656332 1.48546 0
M  V30 535 H 49.7973 -1.09575 4.02243 0
M  V30 536 H 48.4573 -1.4559 2.9023 0
M  V30 537 H 49.4683 1.64901 4.90946 0
M  V30 538 H 46.1453 -0.800601 4.09752 0
M  V30 539 H 47.5353 2.67236 6.16469 0
M  V30 540 N 50.2554 -1.46986 0.568584 0
M  V30 541 C 51.2034 -2.31858 -0.185649 0
M  V30 542 C 52.1974 -1.43624 -0.898249 0
M  V30 543 O 53.4034 -1.60327 -0.818242 0
M  V30 544 H 49.7784 -0.747866 -0.0787399 0
M  V30 545 H 51.7494 -2.93303 0.549191 0
M  V30 546 C 50.4984 -3.26513 -1.19519 0
M  V30 547 H 49.8214 -3.94377 -0.656285 0
M  V30 548 H 51.2614 -3.88707 -1.6936 0
M  V30 549 C 49.7204 -2.50847 -2.24894 0
M  V30 550 O 50.2504 -2.26119 -3.32014 0
M  V30 551 N 48.4564 -2.11656 -1.99124 0
M  V30 552 H 48.0034 -2.31966 -1.12024 0
M  V30 553 H 47.9614 -1.61347 -2.69842 0
M  V30 554 N 51.7335 -0.305618 -1.54608 0
M  V30 555 C 52.9615 0.304775 -2.04643 0
M  V30 556 C 53.3765 1.47167 -1.18268 0
M  V30 557 O 52.7335 1.81296 -0.209328 0
M  V30 558 C 52.7845 0.756564 -3.53495 0
M  V30 559 O 52.5055 -0.36389 -4.36586 0
M  V30 560 C 54.0065 1.43163 -4.19546 0
M  V30 561 H 51.2265 0.0655481 -0.667791 0
M  V30 562 H 53.7705 -0.446592 -1.99564 0
M  V30 563 H 51.9255 1.45794 -3.58919 0
M  V30 564 H 52.3395 -0.0113121 -5.24499 0
M  V30 565 H 53.8135 1.69886 -5.25207 0
M  V30 566 H 54.2905 2.37318 -3.69563 0
M  V30 567 H 54.8965 0.773307 -4.18211 0
M  V30 568 N 53.2116 1.57565 -0.0334293 0
M  V30 569 C 54.1416 2.13511 0.945265 0
M  V30 570 C 55.1226 1.05231 1.33643 0
M  V30 571 O 56.3076 1.33084 1.41429 0
M  V30 572 C 53.4376 2.6657 2.22616 0
M  V30 573 C 52.3916 3.79676 1.97561 0
M  V30 574 C 51.7176 4.1918 3.31952 0
M  V30 575 C 53.0176 5.0557 1.31135 0
M  V30 576 H 54.7116 2.95538 0.479325 0
M  V30 577 H 52.2576 1.42166 0.229115 0
M  V30 578 H 54.2106 3.04344 2.91466 0
M  V30 579 H 52.9346 1.8171 2.71384 0
M  V30 580 H 51.5936 3.42347 1.31127 0
M  V30 581 H 51.2416 3.31296 3.78487 0
M  V30 582 H 50.9416 4.95402 3.15992 0
M  V30 583 H 52.4656 4.59541 4.02063 0
M  V30 584 H 53.8796 5.40903 1.89992 0
M  V30 585 H 52.2766 5.86818 1.25559 0
M  V30 586 H 53.3466 4.84062 0.284894 0
M  V30 587 N 54.6897 -0.239769 1.55765 0
M  V30 588 C 55.6217 -1.32001 1.87372 0
M  V30 589 C 56.6347 -1.43944 0.760522 0
M  V30 590 O 57.8237 -1.45167 1.0387 0
M  V30 591 C 54.9237 -2.69779 2.05115 0
M  V30 592 C 54.0967 -2.80014 3.36022 0
M  V30 593 C 53.1557 -3.98684 3.4342 0
M  V30 594 O 52.1817 -3.87877 4.16582 0
M  V30 595 N 53.3837 -5.12176 2.73232 0
M  V30 596 H 56.1487 -1.0522 2.80622 0
M  V30 597 H 53.7097 -0.429857 1.56089 0
M  V30 598 H 55.7017 -3.47517 2.07399 0
M  V30 599 H 54.2717 -2.89237 1.18577 0
M  V30 600 H 53.4917 -1.88896 3.45994 0
M  V30 601 H 54.7797 -2.83808 4.22292 0
M  V30 602 H 54.1777 -5.2385 2.13536 0
M  V30 603 H 52.7347 -5.88022 2.81199 0
M  V30 604 N 56.1678 -1.49265 -0.50573 0
M  V30 605 C 57.1158 -1.66065 -1.62866 0
M  V30 606 C 58.1098 -0.526636 -1.61006 0
M  V30 607 O 59.3158 -0.706126 -1.65571 0
M  V30 608 H 55.6908 -0.52356 -0.539805 0
M  V30 609 H 57.6618 -2.60329 -1.45848 0
M  V30 610 C 56.4108 -1.74008 -3.01026 0
M  V30 611 H 55.7338 -2.6064 -3.03161 0
M  V30 612 H 57.1738 -1.89798 -3.79147 0
M  V30 613 C 55.6328 -0.483868 -3.33407 0
M  V30 614 O 56.1628 0.392548 -3.99777 0
M  V30 615 N 54.3688 -0.348236 -2.88506 0
M  V30 616 H 53.9158 -1.06242 -2.34671 0
M  V30 617 H 53.8738 0.491204 -3.10539 0
M  V30 618 N 57.6459 0.756429 -1.3826 0
M  V30 619 C 58.8929 1.51547 -1.34312 0
M  V30 620 C 59.2209 1.94382 0.0677144 0
M  V30 621 O 58.4759 1.65514 1.04421 0
M  V30 622 C 58.7749 2.78313 -2.24224 0
M  V30 623 C 58.4409 2.54455 -3.72241 0
M  V30 624 C 57.1029 2.47657 -4.12576 0
M  V30 625 C 59.4549 2.3354 -4.65949 0
M  V30 626 C 56.7829 2.17956 -5.44713 0
M  V30 627 C 59.1349 2.05359 -5.9834 0
M  V30 628 C 57.7989 1.97016 -6.37762 0
M  V30 629 H 57.0689 0.55455 -0.491482 0
M  V30 630 H 59.7159 0.870039 -1.70595 0
M  V30 631 H 58.0209 3.47492 -1.80987 0
M  V30 632 H 59.7179 3.36259 -2.18474 0
M  V30 633 H 56.3079 2.60616 -3.40261 0
M  V30 634 H 60.4919 2.37772 -4.35635 0
M  V30 635 H 55.7479 2.10003 -5.74203 0
M  V30 636 H 59.9219 1.88179 -6.70494 0
M  V30 637 H 57.5489 1.73766 -7.40074 0
M  V30 638 N 59.124 1.23083 0.984299 0
M  V30 639 C 60.352 1.08714 1.76037 0
M  V30 640 C 60.767 -0.361691 1.85303 0
M  V30 641 O 60.124 -1.25034 1.32939 0
M  V30 642 C 60.175 1.70206 3.18923 0
M  V30 643 O 59.896 3.09423 3.10144 0
M  V30 644 C 61.397 1.61227 4.12941 0
M  V30 645 H 58.617 0.380664 0.552572 0
M  V30 646 H 61.161 1.62853 1.23689 0
M  V30 647 H 59.316 1.20109 3.6831 0
M  V30 648 H 59.73 3.39188 4.00065 0
M  V30 649 H 61.204 2.08962 5.10919 0
M  V30 650 H 61.681 0.570375 4.35481 0
M  V30 651 H 62.287 2.10671 3.69456 0
M  V30 652 N 60.6021 -1.18246 1.0419 0
M  V30 653 C 61.5651 -2.20128 0.638452 0
M  V30 654 C 62.5651 -1.57885 -0.304805 0
M  V30 655 O 63.7551 -1.73967 -0.0900369 0
M  V30 656 C 60.8871 -3.4084 -0.0637751 0
M  V30 657 H 62.0801 -2.57336 1.54007 0
M  V30 658 H 59.6331 -1.32152 0.834598 0
M  V30 659 H 60.3681 -3.09166 -0.979136 0
M  V30 660 H 60.1531 -3.8726 0.614198 0
M  V30 661 H 61.6431 -4.16274 -0.332512 0
M  V30 662 N 62.0802 -0.821533 -1.34494 0
M  V30 663 C 63.0432 -0.247847 -2.27856 0
M  V30 664 C 64.0432 0.573453 -1.50227 0
M  V30 665 O 65.2332 0.389759 -1.69784 0
M  V30 666 C 62.3652 0.652698 -3.34593 0
M  V30 667 H 63.5582 -1.07146 -2.80107 0
M  V30 668 H 61.1112 -0.593291 -1.44602 0
M  V30 669 H 61.8462 1.49943 -2.87555 0
M  V30 670 H 61.6312 0.065292 -3.92046 0
M  V30 671 H 63.1212 1.04793 -4.04238 0
M  V30 672 N 63.5583 1.46682 -0.576371 0
M  V30 673 C 64.8073 2.01619 -0.0572825 0
M  V30 674 C 65.1203 1.45417 1.30818 0
M  V30 675 O 66.3263 1.92133 1.91825 0
M  V30 676 C 64.7823 3.59863 -0.0518371 0
M  V30 677 C 64.3903 4.25059 -1.41523 0
M  V30 678 C 66.1343 4.2248 0.413639 0
M  V30 679 C 64.0413 5.75364 -1.36785 0
M  V30 680 H 62.9713 0.753794 -0.0176448 0
M  V30 681 H 65.6223 1.68481 -0.727076 0
M  V30 682 H 64.0043 3.90048 0.683994 0
M  V30 683 H 65.1783 4.06491 -2.17029 0
M  V30 684 H 63.4933 3.7451 -1.8202 0
M  V30 685 H 66.0903 5.3265 0.467779 0
M  V30 686 H 66.4333 3.90976 1.42982 0
M  V30 687 H 66.9663 3.96897 -0.267929 0
M  V30 688 H 63.7053 6.11518 -2.36063 0
M  V30 689 H 63.2253 5.96214 -0.654895 0
M  V30 690 H 64.9043 6.37955 -1.07805 0
M  V30 691 N 65.0364 0.313813 1.54444 0
M  V30 692 C 66.4474 -0.176243 1.85866 0
M  V30 693 C 66.7984 -1.52405 1.23561 0
M  V30 694 O 65.9234 -2.09605 0.538016 0
M  V30 695 C 66.5184 -0.32657 3.37222 0
M  V30 696 C 65.0774 -0.760846 3.6863 0
M  V30 697 C 64.2244 0.123247 2.77026 0
M  V30 698 H 67.1754 0.534418 1.49431 0
M  V30 699 H 67.1964 -1.15908 3.62416 0
M  V30 700 H 66.7084 0.654531 3.82541 0
M  V30 701 H 64.8094 -1.75204 3.28838 0
M  V30 702 H 64.9224 -0.571353 4.75681 0
M  V30 703 H 63.2864 -0.399597 2.51546 0
M  V30 704 H 64.0694 1.10094 3.25168 0
M  V30 705 N 66.5145 -1.57545 0.0417849 0
M  V30 706 C 67.7425 -1.96624 -0.643928 0
M  V30 707 C 68.1575 -0.918897 -1.64929 0
M  V30 708 O 67.5145 0.0979323 -1.82237 0
M  V30 709 C 67.5655 -3.35781 -1.33914 0
M  V30 710 O 67.2865 -4.365 -0.374048 0
M  V30 711 C 68.7875 -3.89566 -2.1155 0
M  V30 712 H 66.0075 -0.647316 -0.176702 0
M  V30 713 H 68.5515 -2.04229 0.105304 0
M  V30 714 H 66.7065 -3.29357 -2.03968 0
M  V30 715 H 67.1205 -5.17248 -0.869179 0
M  V30 716 H 68.5945 -4.89242 -2.55628 0
M  V30 717 H 69.0715 -3.24488 -2.9598 0
M  V30 718 H 69.6775 -3.99298 -1.46427 0
M  V30 719 N 67.9926 0.231505 -1.5589 0
M  V30 720 C 68.9426 1.29007 -1.87993 0
M  V30 721 C 69.9266 1.42764 -0.742102 0
M  V30 722 O 71.1186 1.45747 -1.00433 0
M  V30 723 C 68.2476 2.6425 -2.1915 0
M  V30 724 C 67.3336 2.54435 -3.39299 0
M  V30 725 N 67.7246 2.14262 -4.58176 0
M  V30 726 C 66.0226 2.85416 -3.42715 0
M  V30 727 C 66.7236 2.15455 -5.40328 0
M  V30 728 N 65.6996 2.55558 -4.79783 0
M  V30 729 H 69.5016 0.970213 -2.77424 0
M  V30 730 H 67.0156 0.440097 -1.56323 0
M  V30 731 H 69.0126 3.40665 -2.40319 0
M  V30 732 H 67.6726 2.9709 -1.31025 0
M  V30 733 H 68.6836 1.85554 -4.83518 0
M  V30 734 H 65.3606 3.22693 -2.64906 0
M  V30 735 H 66.7506 1.86605 -6.45467 0
M  V30 736 N 69.4707 1.49531 0.497807 0
M  V30 737 C 70.4207 1.62829 1.59596 0
M  V30 738 C 71.4047 0.483824 1.53453 0
M  V30 739 O 72.5967 0.736937 1.60929 0
M  V30 740 C 69.7257 1.7011 2.98191 0
M  V30 741 C 68.8117 2.90144 3.09317 0
M  V30 742 N 69.2027 4.1418 2.90324 0
M  V30 743 C 67.5007 2.88148 3.40422 0
M  V30 744 C 68.2017 4.94886 3.05717 0
M  V30 745 N 67.1777 4.28314 3.34736 0
M  V30 746 H 70.9797 2.56446 1.4357 0
M  V30 747 H 68.4937 1.46347 0.704001 0
M  V30 748 H 70.4907 1.77735 3.77115 0
M  V30 749 H 69.1507 0.776315 3.15283 0
M  V30 750 H 70.1617 4.44109 2.66436 0
M  V30 751 H 66.8387 2.05061 3.63671 0
M  V30 752 H 68.2287 6.03432 2.95499 0
M  V30 753 N 70.9488 -0.749086 1.3866 0
M  V30 754 C 72.1888 -1.52112 1.36534 0
M  V30 755 C 72.5528 -1.91951 -0.0432316 0
M  V30 756 O 73.7538 -2.68132 -0.189396 0
M  V30 757 C 72.0248 -2.73704 2.29828 0
M  V30 758 S 73.5838 -3.63519 2.45763 0
M  V30 759 H 70.4018 -0.520482 0.484375 0
M  V30 760 H 73.0038 -0.878963 1.74627 0
M  V30 761 H 71.7078 -2.42552 3.31054 0
M  V30 762 H 71.2388 -3.4286 1.929 0
M  V30 763 H 73.2538 -4.66712 1.68505 0
M  V30 764 N 72.4269 -1.23603 -0.977757 0
M  V30 765 C 73.8429 -0.999251 -1.24447 0
M  V30 766 C 74.0429 0.298053 -1.99283 0
M  V30 767 O 73.0989 1.01681 -2.31122 0
M  V30 768 C 74.4119 -2.20784 -2.04144 0
M  V30 769 C 75.9599 -2.25303 -2.17273 0
M  V30 770 C 76.4349 -3.45755 -3.00362 0
M  V30 771 N 77.9259 -3.4601 -3.07947 0
M  V30 772 C 78.6609 -4.35868 -3.72568 0
M  V30 773 N 78.1569 -5.35966 -4.38991 0
M  V30 774 N 79.9499 -4.23605 -3.6948 0
M  V30 775 H 72.1009 -2.06986 -0.476483 0
M  V30 776 H 74.3639 -0.907801 -0.273134 0
M  V30 777 H 74.0699 -3.14945 -1.56533 0
M  V30 778 H 73.9439 -2.22085 -3.04891 0
M  V30 779 H 76.3309 -1.3168 -2.64092 0
M  V30 780 H 76.4119 -2.28033 -1.15907 0
M  V30 781 H 76.0559 -4.39687 -2.5424 0
M  V30 782 H 75.9859 -3.40266 -4.01904 0
M  V30 783 H 78.4769 -2.73588 -2.60688 0
M  V30 784 H 78.7899 -6.00783 -4.86086 0
M  V30 785 H 77.1349 -5.39863 -4.37691 0
M  V30 786 H 80.3259 -3.44647 -3.16759 0
M  V30 787 H 80.4989 -4.93836 -4.1956 0
M  V30 788 N 73.905 1.17692 -1.04816 0
M  V30 789 C 75.316 1.69501 -0.782698 0
M  V30 790 C 75.667 1.83456 0.695577 0
M  V30 791 O 74.792 1.51942 1.54086 0
M  V30 792 C 75.387 3.07874 -1.41419 0
M  V30 793 C 73.946 3.56864 -1.19686 0
M  V30 794 C 73.093 2.3322 -1.50012 0
M  V30 795 H 76.044 1.02262 -1.2136 0
M  V30 796 H 76.065 3.71528 -0.821428 0
M  V30 797 H 75.577 2.97685 -2.49009 0
M  V30 798 H 73.678 3.72337 -0.140043 0
M  V30 799 H 73.791 4.39851 -1.89916 0
M  V30 800 H 72.155 2.37501 -0.920071 0
M  V30 801 H 72.938 2.25644 -2.58727 0
M  V30 802 N 75.3831 0.828654 1.34056 0
M  V30 803 C 76.7941 0.477534 1.8049 0
M  V30 804 C 77.1451 -1.00258 1.6865 0
M  V30 805 O 76.2701 -1.78057 1.22982 0
M  V30 806 C 76.8651 0.860018 3.27703 0
M  V30 807 C 75.4241 0.561185 3.72193 0
M  V30 808 C 74.5711 1.07385 2.55663 0
M  V30 809 H 77.5221 1.0183 1.21722 0
M  V30 810 H 77.5431 0.166038 3.80138 0
M  V30 811 H 77.0551 1.93731 3.36288 0
M  V30 812 H 75.1561 -0.506465 3.69142 0
M  V30 813 H 75.2691 1.10926 4.66082 0
M  V30 814 H 73.6331 0.495149 2.49841 0
M  V30 815 H 74.4161 2.15771 2.67016 0
M  V30 816 N 76.8612 -1.46375 0.584142 0
M  V30 817 C 77.8242 -2.28784 -0.138108 0
M  V30 818 C 78.8242 -1.38471 -0.817462 0
M  V30 819 O 80.0142 -1.60833 -0.669199 0
M  V30 820 C 77.1462 -3.18892 -1.20503 0
M  V30 821 H 78.3392 -2.94117 0.586127 0
M  V30 822 H 75.8922 -1.52509 0.342171 0
M  V30 823 H 76.6272 -2.58309 -1.96079 0
M  V30 824 H 76.4122 -3.85388 -0.722384 0
M  V30 825 H 77.9022 -3.80914 -1.71155 0
M  V30 826 N 78.3393 -0.321999 -1.54275 0
M  V30 827 C 79.6163 0.335232 -1.92706 0
M  V30 828 C 79.9963 1.70006 -1.25145 0
M  V30 829 O 79.3443 2.25067 -0.394596 0
M  V30 830 C 79.5543 0.429008 -3.46353 0
M  V30 831 C 80.9023 0.690029 -4.18956 0
M  V30 832 O 81.9263 0.511992 -3.52501 0
M  V30 833 O 80.7853 1.03338 -5.36641 0
M  V30 834 H 77.8793 0.191143 -0.804608 0
M  V30 835 H 80.4253 -0.3716 -1.65581 0
M  V30 836 H 79.1973 -0.529611 -3.87699 0
M  V30 837 H 78.8203 1.18348 -3.79578 0
M  V30 838 N 79.8174 1.5752 -0.0501392 0
M  V30 839 C 80.7804 2.1037 0.909786 0
M  V30 840 C 81.7804 1.02308 1.24056 0
M  V30 841 O 82.9704 1.28385 1.17741 0
M  V30 842 C 80.1024 2.58708 2.21998 0
M  V30 843 H 81.2954 2.96479 0.451665 0
M  V30 844 H 78.8484 1.55038 0.198248 0
M  V30 845 H 79.5834 1.75989 2.72394 0
M  V30 846 H 79.3684 3.37675 1.99295 0
M  V30 847 H 80.8584 2.99747 2.9076 0
M  V30 848 N 81.2955 -0.223234 1.56011 0
M  V30 849 C 82.2435 -1.29627 1.93131 0
M  V30 850 C 83.2375 -1.48608 0.813146 0
M  V30 851 O 84.4435 -1.49802 0.997966 0
M  V30 852 H 80.8185 -0.434563 0.613726 0
M  V30 853 H 82.7895 -0.955995 2.82672 0
M  V30 854 C 81.5385 -2.63983 2.26292 0
M  V30 855 H 80.8615 -2.50185 3.11846 0
M  V30 856 H 82.3015 -3.3788 2.56151 0
M  V30 857 C 80.7605 -3.18866 1.08747 0
M  V30 858 O 81.2905 -4.00192 0.347727 0
M  V30 859 N 79.4965 -2.77217 0.871743 0
M  V30 860 H 79.0435 -2.1119 1.47501 0
M  V30 861 H 79.0015 -3.1428 0.0869905 0
M  V30 862 N 82.7736 -1.49793 -0.48987 0
M  V30 863 C 83.7036 -1.70201 -1.59856 0
M  V30 864 C 84.6846 -0.55076 -1.60937 0
M  V30 865 O 85.8696 -0.787841 -1.77501 0
M  V30 866 C 82.9996 -1.77882 -2.98287 0
M  V30 867 C 81.9536 -2.92907 -3.12073 0
M  V30 868 C 81.2796 -2.85712 -4.51965 0
M  V30 869 C 82.5796 -4.3369 -2.91051 0
M  V30 870 H 84.2736 -2.63025 -1.43032 0
M  V30 871 H 81.8196 -1.26574 -0.686664 0
M  V30 872 H 83.7726 -1.90744 -3.75759 0
M  V30 873 H 82.4966 -0.816653 -3.16225 0
M  V30 874 H 81.1556 -2.79665 -2.37029 0
M  V30 875 H 80.8036 -1.8738 -4.66795 0
M  V30 876 H 80.5036 -3.62921 -4.62128 0
M  V30 877 H 82.0276 -3.00598 -5.31482 0
M  V30 878 H 83.4416 -4.47555 -3.58284 0
M  V30 879 H 81.8386 -5.12205 -3.12675 0
M  V30 880 H 82.9086 -4.47362 -1.87071 0
M  V30 881 N 84.2517 0.741722 -1.39055 0
M  V30 882 C 85.4767 1.53607 -1.39354 0
M  V30 883 C 85.9017 1.88096 0.0116905 0
M  V30 884 O 85.2597 1.5143 0.996924 0
M  V30 885 C 85.3077 2.80441 -2.26682 0
M  V30 886 O 84.4117 3.76088 -1.69208 0
M  V30 887 H 83.7527 0.464142 -0.474835 0
M  V30 888 H 86.2827 0.915665 -1.82967 0
M  V30 889 H 86.2927 3.29246 -2.40959 0
M  V30 890 H 84.9677 2.5467 -3.2881 0
M  V30 891 H 83.5447 3.34833 -1.64138 0
M  V30 892 N 85.7298 1.2412 0.971189 0
M  V30 893 C 86.6768 1.0305 2.06517 0
M  V30 894 C 87.6468 -0.0550666 1.66009 0
M  V30 895 O 88.8318 0.0988688 1.90544 0
M  V30 896 C 85.9718 0.637653 3.39158 0
M  V30 897 C 85.0848 1.79633 3.92882 0
M  V30 898 C 84.2198 1.34939 5.13775 0
M  V30 899 C 83.2588 2.47823 5.59687 0
M  V30 900 N 82.3958 2.04022 6.71803 0
M  V30 901 H 87.2358 1.96685 2.23873 0
M  V30 902 H 84.7728 0.979694 1.09729 0
M  V30 903 H 86.7308 0.390931 4.15364 0
M  V30 904 H 85.3608 -0.261693 3.21737 0
M  V30 905 H 84.4128 2.15681 3.13346 0
M  V30 906 H 85.7248 2.64466 4.22918 0
M  V30 907 H 84.8788 1.06134 5.97345 0
M  V30 908 H 83.6178 0.471557 4.85415 0
M  V30 909 H 82.6228 2.77392 4.74693 0
M  V30 910 H 83.8478 3.36158 5.90063 0
M  V30 911 H 81.7938 1.18632 6.45184 0
M  V30 912 H 81.7108 2.82409 7.01271 0
M  V30 913 H 82.9788 1.78347 7.58823 0
M  V30 914 N 87.2079 -1.17134 1.05439 0
M  V30 915 C 88.1559 -2.23289 0.651511 0
M  V30 916 C 89.1499 -1.66186 -0.328411 0
M  V30 917 O 90.3559 -1.78949 -0.194206 0
M  V30 918 H 86.7309 -0.726938 0.192523 0
M  V30 919 H 88.7019 -2.54565 1.55689 0
M  V30 920 C 87.4509 -3.47671 0.0448436 0
M  V30 921 H 86.7739 -3.91918 0.78996 0
M  V30 922 H 88.2139 -4.2353 -0.19964 0
M  V30 923 C 86.6729 -3.14453 -1.20918 0
M  V30 924 O 87.2029 -3.29459 -2.29825 0
M  V30 925 N 85.4089 -2.68657 -1.10779 0
M  V30 926 H 84.9559 -2.56646 -0.221526 0
M  V30 927 H 84.9139 -2.46804 -1.9477 0
M  V30 928 N 88.686 -0.835752 -1.33615 0
M  V30 929 C 89.934 -0.429109 -1.97492 0
M  V30 930 C 90.255 1.01433 -1.66543 0
M  V30 931 O 89.525 1.70611 -0.962744 0
M  V30 932 H 88.105 -0.155686 -0.730596 0
M  V30 933 H 90.767 -1.06802 -1.63031 0
M  V30 934 H 89.863 -0.55861 -3.0706 0
M  V30 935 N 90.1641 1.46063 -0.591896 0
M  V30 936 C 91.4121 2.01938 -0.0808391 0
M  V30 937 C 91.7331 1.46475 1.28725 0
M  V30 938 O 91.0031 0.652944 1.84698 0
M  V30 939 H 89.5831 0.746516 -0.0268938 0
M  V30 940 H 92.2451 1.79055 -0.769752 0
M  V30 941 H 91.3411 3.12094 -0.0187578 0
M  V30 942 N 91.6422 0.330177 1.54103 0
M  V30 943 C 92.5722 -0.525353 2.27513 0
M  V30 944 C 93.5532 -1.11383 1.2856 0
M  V30 945 O 94.7382 -1.13773 1.57383 0
M  V30 946 C 91.8682 -1.6831 3.03791 0
M  V30 947 C 90.8222 -1.2236 4.10137 0
M  V30 948 C 90.1482 -2.46882 4.74293 0
M  V30 949 C 91.4482 -0.333697 5.21233 0
M  V30 950 H 93.1422 0.087013 2.99274 0
M  V30 951 H 90.6882 0.0432893 1.43935 0
M  V30 952 H 92.6412 -2.28795 3.5388 0
M  V30 953 H 91.3652 -2.32216 2.29659 0
M  V30 954 H 90.0242 -0.64165 3.60941 0
M  V30 955 H 89.6722 -3.09165 3.96769 0
M  V30 956 H 89.3722 -2.16825 5.46133 0
M  V30 957 H 90.8962 -3.08117 5.27159 0
M  V30 958 H 92.3102 -0.845013 5.67038 0
M  V30 959 H 90.7072 -0.125612 5.99969 0
M  V30 960 H 91.7772 0.633724 4.80741 0
M  V30 961 N 93.1203 -1.57491 0.0584922 0
M  V30 962 C 94.0303 -2.15448 -0.928414 0
M  V30 963 C 95.0463 -1.11416 -1.3365 0
M  V30 964 O 96.2223 -1.4362 -1.41193 0
M  V30 965 C 93.2873 -2.69393 -2.18239 0
M  V30 966 C 92.3483 -3.88249 -1.83196 0
M  V30 967 C 91.5813 -4.39613 -3.02616 0
M  V30 968 O 91.8043 -3.90023 -4.16219 0
M  V30 969 O 90.7383 -5.31111 -2.83204 0
M  V30 970 H 94.5643 -3.00112 -0.465483 0
M  V30 971 H 92.1493 -1.48499 -0.163826 0
M  V30 972 H 94.0313 -3.04026 -2.91798 0
M  V30 973 H 92.7063 -1.87796 -2.63656 0
M  V30 974 H 91.6133 -3.58492 -1.06931 0
M  V30 975 H 92.9463 -4.71098 -1.42573 0
M  V30 976 N 94.5984 0.214957 -1.56127 0
M  V30 977 C 95.8444 0.939762 -1.79712 0
M  V30 978 C 96.1774 1.83723 -0.629247 0
M  V30 979 O 95.4524 1.90925 0.371197 0
M  V30 980 C 95.7354 1.77306 -3.13424 0
M  V30 981 C 95.5884 0.90164 -4.40671 0
M  V30 982 C 96.9074 2.74956 -3.43638 0
M  V30 983 H 94.0264 0.340214 -0.653776 0
M  V30 984 H 96.6684 0.20824 -1.88855 0
M  V30 985 H 94.8184 2.39673 -3.0576 0
M  V30 986 H 96.4904 0.294206 -4.60361 0
M  V30 987 H 94.7334 0.207368 -4.33304 0
M  V30 988 H 95.4044 1.51923 -5.30682 0
M  V30 989 H 97.8804 2.22724 -3.51473 0
M  V30 990 H 96.7564 3.30358 -4.38355 0
M  V30 991 H 97.0174 3.53023 -2.66134 0
M  V30 992 N 96.0765 1.50051 0.48192 0
M  V30 993 C 97.3225 1.61706 1.2338 0
M  V30 994 C 97.6775 0.308488 1.89911 0
M  V30 995 O 96.9705 -0.692798 1.78636 0
M  V30 996 C 97.1645 2.72717 2.30998 0
M  V30 997 C 96.9935 4.14242 1.75024 0
M  V30 998 C 95.7635 4.80786 1.55476 0
M  V30 999 C 97.9615 4.98846 1.25128 0
M  V30 1000 N 95.9435 6.06563 0.946311 0
M  V30 1001 C 97.3145 6.15258 0.765382 0
M  V30 1002 C 99.3695 4.84702 1.13881 0
M  V30 1003 C 98.0725 7.19079 0.178113 0
M  V30 1004 C 100.098 5.8869 0.565486 0
M  V30 1005 C 99.4605 7.04343 0.0899105 0
M  V30 1006 H 95.5595 0.645958 0.440753 0
M  V30 1007 H 98.1435 1.8713 0.537624 0
M  V30 1008 H 96.3145 2.49033 2.98055 0
M  V30 1009 H 98.0465 2.73789 2.9803 0
M  V30 1010 H 94.8015 4.37899 1.80392 0
M  V30 1011 H 95.2255 6.73767 0.660812 0
M  V30 1012 H 99.8675 3.95583 1.49244 0
M  V30 1013 H 97.5855 8.07882 -0.187749 0
M  V30 1014 H 101.171 5.79808 0.480974 0
M  V30 1015 H 100.051 7.83433 -0.346782 0
M  V30 1016 N 97.5546 -0.734337 1.39446 0
M  V30 1017 C 98.4846 -1.86155 1.40955 0
M  V30 1018 C 99.4656 -1.67898 0.272827 0
M  V30 1019 O 100.651 -1.88207 0.478743 0
M  V30 1020 C 97.7806 -3.23912 1.25294 0
M  V30 1021 C 96.7346 -3.56808 2.36373 0
M  V30 1022 C 96.0606 -4.93508 2.058 0
M  V30 1023 C 97.3606 -3.59713 3.78687 0
M  V30 1024 H 99.0546 -1.8515 2.35287 0
M  V30 1025 H 96.6006 -0.889367 1.13253 0
M  V30 1026 H 98.5536 -4.02443 1.2497 0
M  V30 1027 H 97.2776 -3.25446 0.274308 0
M  V30 1028 H 95.9366 -2.80606 2.35914 0
M  V30 1029 H 95.5846 -4.91623 1.06374 0
M  V30 1030 H 95.2846 -5.16486 2.80208 0
M  V30 1031 H 96.8086 -5.74396 2.07128 0
M  V30 1032 H 98.2226 -4.2832 3.81071 0
M  V30 1033 H 96.6196 -3.94209 4.52459 0
M  V30 1034 H 97.6896 -2.59504 4.09617 0
M  V30 1035 N 99.0327 -1.24633 -0.964593 0
M  V30 1036 C 100.444 -1.08045 -1.5226 0
M  V30 1037 C 100.795 0.347116 -1.93105 0
M  V30 1038 O 99.9197 1.23588 -1.77637 0
M  V30 1039 C 100.515 -1.95514 -2.76695 0
M  V30 1040 C 99.0737 -1.8314 -3.28841 0
M  V30 1041 C 98.2207 -1.90262 -2.01732 0
M  V30 1042 H 101.172 -1.38064 -0.782553 0
M  V30 1043 H 101.193 -1.48925 -3.50145 0
M  V30 1044 H 100.705 -2.99407 -2.46936 0
M  V30 1045 H 98.8057 -0.82092 -3.63444 0
M  V30 1046 H 98.9187 -2.67406 -3.97531 0
M  V30 1047 H 97.2827 -1.34027 -2.16584 0
M  V30 1048 H 98.0657 -2.9574 -1.74334 0
M  V30 1049 N 100.511 1.16574 -1.06058 0
M  V30 1050 C 101.927 1.3904 -0.783585 0
M  V30 1051 C 102.127 1.91784 0.618145 0
M  V30 1052 O 101.183 2.11511 1.37911 0
M  V30 1053 C 102.496 2.37329 -1.84649 0
M  V30 1054 C 104.044 2.51018 -1.86973 0
M  V30 1055 C 104.519 3.52588 -2.92311 0
M  V30 1056 N 106.01 3.60113 -2.91329 0
M  V30 1057 C 106.745 4.38486 -3.69482 0
M  V30 1058 N 106.241 5.20302 -4.57447 0
M  V30 1059 N 108.034 4.33446 -3.57885 0
M  V30 1060 H 100.185 0.806725 -1.96483 0
M  V30 1061 H 102.448 0.417117 -0.851303 0
M  V30 1062 H 102.154 2.05663 -2.85299 0
M  V30 1063 H 102.028 3.36946 -1.6955 0
M  V30 1064 H 104.415 2.81989 -0.869827 0
M  V30 1065 H 104.496 1.51445 -2.0615 0
M  V30 1066 H 104.14 3.22354 -3.92492 0
M  V30 1067 H 104.07 4.51886 -2.70383 0
M  V30 1068 H 106.561 3.01707 -2.27555 0
M  V30 1069 H 106.874 5.77311 -5.13743 0
M  V30 1070 H 105.219 5.19653 -4.61503 0
M  V30 1071 H 108.41 3.68586 -2.88551 0
M  V30 1072 H 108.583 4.94279 -4.19037 0
M  V30 1073 N 101.989 0.842826 1.3317 0
M  V30 1074 C 103.266 0.362216 1.92217 0
M  V30 1075 C 103.646 -1.15289 1.76838 0
M  V30 1076 O 102.994 -1.96914 1.15919 0
M  V30 1077 C 103.204 0.813495 3.39387 0
M  V30 1078 C 104.552 0.823804 4.16532 0
M  V30 1079 O 105.576 0.757358 3.48055 0
M  V30 1080 O 104.435 0.915193 5.38782 0
M  V30 1081 H 101.529 0.103317 0.820521 0
M  V30 1082 H 104.075 0.928942 1.42017 0
M  V30 1083 H 102.847 1.85624 3.4447 0
M  V30 1084 H 102.47 0.223561 3.96971 0
M  V30 1085 N 103.467 -1.45747 0.599634 0
M  V30 1086 C 104.883 -1.57424 0.26264 0
M  V30 1087 C 105.083 -1.59222 -1.23493 0
M  V30 1088 O 104.139 -1.51825 -2.01756 0
M  V30 1089 C 105.452 -2.86061 0.926795 0
M  V30 1090 C 107 -2.99722 0.901967 0
M  V30 1091 C 107.475 -4.31119 1.54598 0
M  V30 1092 N 108.966 -4.37858 1.5111 0
M  V30 1093 C 109.701 -5.3818 1.97863 0
M  V30 1094 N 109.197 -6.45083 2.52666 0
M  V30 1095 N 110.99 -5.29487 1.88679 0
M  V30 1096 H 103.141 -1.42823 1.57211 0
M  V30 1097 H 105.404 -0.68235 0.658105 0
M  V30 1098 H 105.11 -2.90605 1.98095 0
M  V30 1099 H 104.984 -3.74563 0.445238 0
M  V30 1100 H 107.371 -2.9475 -0.143617 0
M  V30 1101 H 107.452 -2.12652 1.42171 0
M  V30 1102 H 107.096 -4.36849 2.59085 0
M  V30 1103 H 107.026 -5.16992 1.00132 0
M  V30 1104 H 109.517 -3.61209 1.11068 0
M  V30 1105 H 109.83 -7.17869 2.86155 0
M  V30 1106 H 108.175 -6.45856 2.56701 0
M  V30 1107 H 111.366 -4.44877 1.4561 0
M  V30 1108 H 111.539 -6.07524 2.25429 0
M  V30 1109 N 104.945 -0.338344 -1.53925 0
M  V30 1110 C 105.877 0.555117 -2.22376 0
M  V30 1111 C 106.89 1.06812 -1.22862 0
M  V30 1112 O 108.079 0.979163 -1.49247 0
M  V30 1113 C 105.179 1.77609 -2.88631 0
M  V30 1114 C 104.352 1.39927 -4.14414 0
M  V30 1115 C 103.411 2.47936 -4.64127 0
M  V30 1116 O 102.437 2.11461 -5.28463 0
M  V30 1117 N 103.639 3.79107 -4.39612 0
M  V30 1118 H 106.404 -0.0310778 -2.99684 0
M  V30 1119 H 103.965 -0.162226 -1.61085 0
M  V30 1120 H 105.957 2.49287 -3.18807 0
M  V30 1121 H 104.527 2.26978 -2.14941 0
M  V30 1122 H 103.747 0.513481 -3.90841 0
M  V30 1123 H 105.035 1.12341 -4.96243 0
M  V30 1124 H 104.433 4.11531 -3.88148 0
M  V30 1125 H 102.99 4.4697 -4.74406 0
M  V30 1126 N 106.423 1.57458 -0.0668435 0
M  V30 1127 C 107.671 1.92919 0.602214 0
M  V30 1128 C 107.992 0.947215 1.70449 0
M  V30 1129 O 107.262 -0.00544117 1.95899 0
M  V30 1130 H 105.842 0.71217 0.22544 0
M  V30 1131 H 108.504 1.94508 -0.123535 0
M  V30 1132 H 107.6 2.94589 1.03073 0
M  V30 1133 N 107.901 -0.206675 1.56239 0
M  V30 1134 C 108.833 -1.27997 1.9013 0
M  V30 1135 C 109.846 -1.42299 0.790883 0
M  V30 1136 O 111.035 -1.42931 1.06925 0
M  V30 1137 C 108.135 -2.65368 2.10792 0
M  V30 1138 C 107.308 -2.72824 3.41886 0
M  V30 1139 C 106.367 -3.9131 3.51799 0
M  V30 1140 O 105.393 -3.78953 4.24716 0
M  V30 1141 N 106.595 -5.06265 2.84035 0
M  V30 1142 H 109.36 -0.992444 2.82791 0
M  V30 1143 H 106.921 -0.396652 1.56966 0
M  V30 1144 H 108.913 -3.43039 2.14724 0
M  V30 1145 H 107.483 -2.86657 1.24685 0
M  V30 1146 H 106.703 -1.81515 3.49923 0
M  V30 1147 H 107.991 -2.74786 4.28217 0
M  V30 1148 H 107.389 -5.19203 2.246 0
M  V30 1149 H 105.946 -5.81925 2.93609 0
M  V30 1150 N 109.379 -1.50304 -0.473955 0
M  V30 1151 C 110.79 -1.54042 -1.0549 0
M  V30 1152 C 111.141 -0.342248 -1.93192 0
M  V30 1153 O 110.266 0.545157 -2.09421 0
M  V30 1154 C 110.861 -2.79152 -1.91989 0
M  V30 1155 C 109.42 -2.8558 -2.45196 0
M  V30 1156 C 108.567 -2.48295 -1.2347 0
M  V30 1157 H 111.518 -1.5661 -0.256693 0
M  V30 1158 H 111.539 -2.60845 -2.7702 0
M  V30 1159 H 111.051 -3.66339 -1.28131 0
M  V30 1160 H 109.152 -2.02738 -3.12615 0
M  V30 1161 H 109.265 -3.88403 -2.80499 0
M  V30 1162 H 107.629 -2.00669 -1.56856 0
M  V30 1163 H 108.412 -3.37787 -0.612789 0
M  V30 1164 N 110.857 0.726932 -1.39834 0
M  V30 1165 C 111.767 1.87131 -1.41489 0
M  V30 1166 C 112.783 1.71239 -0.308757 0
M  V30 1167 O 113.959 1.93701 -0.551529 0
M  V30 1168 C 111.024 3.22811 -1.26468 0
M  V30 1169 C 110.085 3.51039 -2.47124 0
M  V30 1170 C 109.318 4.80245 -2.3281 0
M  V30 1171 O 109.541 5.54537 -1.33585 0
M  V30 1172 O 108.475 5.08554 -3.21957 0
M  V30 1173 H 112.301 1.8869 -2.3797 0
M  V30 1174 H 109.886 0.875837 -1.21035 0
M  V30 1175 H 111.768 4.03877 -1.20255 0
M  V30 1176 H 110.443 3.22005 -0.330862 0
M  V30 1177 H 109.35 2.70027 -2.58914 0
M  V30 1178 H 110.683 3.56632 -3.39227 0
M  V30 1179 N 112.336 1.25143 0.95797 0
M  V30 1180 C 113.561 1.12521 1.74223 0
M  V30 1181 C 113.986 -0.317402 1.85403 0
M  V30 1182 O 113.344 -1.2299 1.33204 0
M  V30 1183 C 113.392 1.78062 3.1357 0
M  V30 1184 O 112.496 1.058 3.98598 0
M  V30 1185 H 111.837 0.39304 0.535178 0
M  V30 1186 H 114.367 1.65641 1.201 0
M  V30 1187 H 114.377 1.84213 3.64046 0
M  V30 1188 H 113.052 2.83021 3.04749 0
M  V30 1189 H 111.629 1.07506 3.57067 0
M  V30 1190 N 113.814 -1.1601 1.06675 0
M  V30 1191 C 115.054 -1.88304 0.795037 0
M  V30 1192 C 115.418 -1.80062 -0.666466 0
M  V30 1193 O 116.619 -2.47319 -1.05293 0
M  V30 1194 C 114.89 -3.33664 1.28076 0
M  V30 1195 S 116.449 -4.23768 1.13868 0
M  V30 1196 H 113.267 -0.649928 0.288296 0
M  V30 1197 H 115.869 -1.4001 1.36445 0
M  V30 1198 H 114.573 -3.37203 2.33927 0
M  V30 1199 H 114.104 -3.87009 0.706253 0
M  V30 1200 H 116.119 -4.96148 0.0719668 0
M  V30 1201 N 115.292 -0.849877 -1.32721 0
M  V30 1202 C 116.222 -0.306308 -2.31482 0
M  V30 1203 C 117.203 0.591952 -1.59468 0
M  V30 1204 O 118.388 0.513199 -1.87296 0
M  V30 1205 C 115.518 0.510204 -3.43532 0
M  V30 1206 C 114.472 -0.293209 -4.26994 0
M  V30 1207 C 113.798 0.647743 -5.30762 0
M  V30 1208 C 115.098 -1.51634 -4.99804 0
M  V30 1209 H 116.792 -1.13153 -2.77195 0
M  V30 1210 H 114.338 -0.545553 -1.33266 0
M  V30 1211 H 116.291 0.900856 -4.11658 0
M  V30 1212 H 115.015 1.36874 -2.96535 0
M  V30 1213 H 113.674 -0.665555 -3.60508 0
M  V30 1214 H 113.322 1.50299 -4.8002 0
M  V30 1215 H 113.022 0.11422 -5.87489 0
M  V30 1216 H 114.546 1.03567 -6.01753 0
M  V30 1217 H 115.96 -1.19824 -5.60638 0
M  V30 1218 H 114.357 -1.98745 -5.66234 0
M  V30 1219 H 115.427 -2.28018 -4.27943 0
M  V30 1220 N 116.77 1.45427 -0.607355 0
M  V30 1221 C 118.186 1.57283 -0.270985 0
M  V30 1222 C 118.386 1.59875 1.22647 0
M  V30 1223 O 117.442 1.52893 2.00948 0
M  V30 1224 C 118.755 2.85566 -0.941952 0
M  V30 1225 C 120.303 2.9924 -0.917849 0
M  V30 1226 C 120.778 4.30293 -1.56882 0
M  V30 1227 N 122.269 4.37051 -1.5343 0
M  V30 1228 C 123.004 5.37123 -2.00715 0
M  V30 1229 N 122.5 6.43734 -2.56084 0
M  V30 1230 N 124.293 5.28479 -1.91484 0
M  V30 1231 H 116.444 1.41988 -1.57966 0
M  V30 1232 H 118.707 0.67885 -0.661715 0
M  V30 1233 H 118.413 2.8955 -1.99633 0
M  V30 1234 H 118.287 3.74322 -0.465096 0
M  V30 1235 H 120.674 2.94822 0.127984 0
M  V30 1236 H 120.755 2.11895 -1.43297 0
M  V30 1237 H 120.399 4.35469 -2.61398 0
M  V30 1238 H 120.329 5.16454 -1.02873 0
M  V30 1239 H 122.82 3.60615 -1.12982 0
M  V30 1240 H 123.133 7.16341 -2.89958 0
M  V30 1241 H 121.478 6.44485 -2.60122 0
M  V30 1242 H 124.669 4.44098 -1.47967 0
M  V30 1243 H 124.842 6.0632 -2.28648 0
M  V30 1244 N 118.248 0.346503 1.53744 0
M  V30 1245 C 119.495 -0.249104 2.00962 0
M  V30 1246 C 119.823 -1.5032 1.23426 0
M  V30 1247 O 119.078 -1.93217 0.310761 0
M  V30 1248 C 119.377 -0.605809 3.52228 0
M  V30 1249 C 119.043 0.551747 4.47512 0
M  V30 1250 C 117.705 0.86941 4.73281 0
M  V30 1251 C 120.057 1.32818 5.03993 0
M  V30 1252 C 117.385 1.96582 5.52786 0
M  V30 1253 C 119.737 2.41486 5.84694 0
M  V30 1254 C 118.401 2.73808 6.08757 0
M  V30 1255 H 117.671 -0.0911538 0.735372 0
M  V30 1256 H 120.318 0.475027 1.85515 0
M  V30 1257 H 118.623 -1.4107 3.65522 0
M  V30 1258 H 120.32 -1.07858 3.86222 0
M  V30 1259 H 116.91 0.294102 4.2759 0
M  V30 1260 H 121.094 1.09602 4.84047 0
M  V30 1261 H 116.35 2.22045 5.69654 0
M  V30 1262 H 120.524 3.02078 6.27473 0
M  V30 1263 H 118.151 3.58892 6.7015 0
M  V30 1264 N 119.726 -1.57421 0.075193 0
M  V30 1265 C 120.954 -1.97946 -0.602076 0
M  V30 1266 C 121.369 -0.953674 -1.62943 0
M  V30 1267 O 120.726 0.0592551 -1.82404 0
M  V30 1268 C 120.777 -3.38546 -1.26762 0
M  V30 1269 O 120.498 -4.37195 -0.281376 0
M  V30 1270 C 121.999 -3.93966 -2.03239 0
M  V30 1271 H 119.219 -0.650918 -0.162931 0
M  V30 1272 H 121.763 -2.03959 0.148601 0
M  V30 1273 H 119.918 -3.33609 -1.96936 0
M  V30 1274 H 120.332 -5.18975 -0.759267 0
M  V30 1275 H 121.806 -4.94555 -2.45193 0
M  V30 1276 H 122.283 -3.30693 -2.8903 0
M  V30 1277 H 122.889 -4.02315 -1.37924 0
M  V30 1278 N 121.204 0.198386 -1.56346 0
M  V30 1279 C 122.429 0.939682 -1.84891 0
M  V30 1280 C 122.854 1.76202 -0.658369 0
M  V30 1281 O 122.212 1.76993 0.392851 0
M  V30 1282 C 122.26 1.81428 -3.11635 0
M  V30 1283 O 121.364 2.91265 -2.91956 0
M  V30 1284 H 120.705 0.264807 -0.608912 0
M  V30 1285 H 123.235 0.204695 -2.03573 0
M  V30 1286 H 123.245 2.21958 -3.42343 0
M  V30 1287 H 121.92 1.21004 -3.97908 0
M  V30 1288 H 120.497 2.54514 -2.72538 0
M  V30 1289 N 122.682 1.50554 0.465978 0
M  V30 1290 C 124.093 1.54599 1.04671 0
M  V30 1291 C 124.444 0.352488 1.93008 0
M  V30 1292 O 123.569 -0.534044 2.09707 0
M  V30 1293 C 124.164 2.80166 1.90505 0
M  V30 1294 C 122.723 2.86876 2.43678 0
M  V30 1295 C 121.87 2.48947 1.22151 0
M  V30 1296 H 124.821 1.56744 0.248384 0
M  V30 1297 H 124.842 2.62311 2.75633 0
M  V30 1298 H 124.354 3.67013 1.26186 0
M  V30 1299 H 122.455 2.04393 3.11536 0
M  V30 1300 H 122.568 3.89885 2.78436 0
M  V30 1301 H 120.932 2.01498 1.5579 0
M  V30 1302 H 121.715 3.38107 0.594866 0
M  V30 1303 N 124.16 -0.719506 1.40217 0
M  V30 1304 C 125.092 -1.84428 1.36084 0
M  V30 1305 C 126.105 -1.60597 0.266913 0
M  V30 1306 O 127.294 -1.70544 0.526983 0
M  V30 1307 C 124.394 -3.20757 1.094 0
M  V30 1308 C 123.567 -3.71817 2.30372 0
M  V30 1309 C 122.626 -4.86748 1.99907 0
M  V30 1310 O 121.652 -4.99603 2.72737 0
M  V30 1311 N 122.854 -5.7226 0.974635 0
M  V30 1312 H 125.619 -1.88473 2.33019 0
M  V30 1313 H 123.18 -0.900885 1.3452 0
M  V30 1314 H 125.172 -3.95235 0.870116 0
M  V30 1315 H 123.742 -3.11884 0.211452 0
M  V30 1316 H 122.962 -2.88514 2.68614 0
M  V30 1317 H 124.25 -4.02666 3.11026 0
M  V30 1318 H 123.648 -5.6448 0.371368 0
M  V30 1319 H 122.205 -6.46739 0.810656 0
M  V30 1320 N 125.638 -1.25649 -0.95132 0
M  V30 1321 C 126.884 -1.11766 -1.69941 0
M  V30 1322 C 127.239 0.33735 -1.89419 0
M  V30 1323 O 126.532 1.24491 -1.45645 0
M  V30 1324 C 126.726 -1.80909 -3.08231 0
M  V30 1325 C 126.555 -3.32984 -3.02245 0
M  V30 1326 C 125.325 -4.02247 -3.05819 0
M  V30 1327 C 127.523 -4.29332 -2.83157 0
M  V30 1328 N 125.505 -5.41072 -2.90024 0
M  V30 1329 C 126.876 -5.55265 -2.75828 0
M  V30 1330 C 128.931 -4.19707 -2.67863 0
M  V30 1331 C 127.634 -6.72671 -2.54767 0
M  V30 1332 C 129.66 -5.36809 -2.48173 0
M  V30 1333 C 129.022 -6.61683 -2.41567 0
M  V30 1334 H 125.121 -0.463708 -0.629682 0
M  V30 1335 H 127.705 -1.58796 -1.12659 0
M  V30 1336 H 125.876 -1.36369 -3.63673 0
M  V30 1337 H 127.608 -1.59739 -3.71841 0
M  V30 1338 H 124.363 -3.53531 -3.15139 0
M  V30 1339 H 124.787 -6.13938 -2.85323 0
M  V30 1340 H 129.429 -3.23907 -2.71743 0
M  V30 1341 H 127.147 -7.68577 -2.49629 0
M  V30 1342 H 130.733 -5.31224 -2.37259 0
M  V30 1343 H 129.613 -7.50768 -2.26531 0
M  V30 1344 N 127.117 1.15442 -1.07289 0
M  V30 1345 C 128.365 1.85845 -0.794096 0
M  V30 1346 C 128.686 1.82692 0.681809 0
M  V30 1347 O 127.956 1.26741 1.49377 0
M  V30 1348 H 126.536 0.688089 -0.290763 0
M  V30 1349 H 129.198 1.39947 -1.3565 0
M  V30 1350 H 128.294 2.91001 -1.12804 0
M  V30 1351 N 128.595 0.856903 1.32268 0
M  V30 1352 C 129.525 0.31858 2.31316 0
M  V30 1353 C 130.506 -0.583487 1.59779 0
M  V30 1354 O 131.691 -0.503259 1.87566 0
M  V30 1355 C 128.821 -0.491979 3.43798 0
M  V30 1356 C 127.775 0.315849 4.26833 0
M  V30 1357 C 127.101 -0.619586 5.31098 0
M  V30 1358 C 128.401 1.54282 4.98993 0
M  V30 1359 H 130.095 1.14621 2.76591 0
M  V30 1360 H 127.641 0.552613 1.32974 0
M  V30 1361 H 129.594 -0.879012 4.1213 0
M  V30 1362 H 128.318 -1.35299 2.97257 0
M  V30 1363 H 126.977 0.684664 3.6015 0
M  V30 1364 H 126.625 -1.47751 4.8081 0
M  V30 1365 H 126.325 -0.0830621 5.87541 0
M  V30 1366 H 127.849 -1.00375 6.02293 0
M  V30 1367 H 129.263 1.22796 5.59995 0
M  V30 1368 H 127.66 2.01745 5.65172 0
M  V30 1369 H 128.73 2.30285 4.26728 0
M  V30 1370 N 130.073 -1.45103 0.615059 0
M  V30 1371 C 131.484 -1.85654 0.197383 0
M  V30 1372 C 131.835 -1.51433 -1.24749 0
M  V30 1373 O 130.96 -0.944608 -1.94695 0
M  V30 1374 C 131.555 -3.36972 0.351448 0
M  V30 1375 C 130.114 -3.76398 -0.011593 0
M  V30 1376 C 129.261 -2.69024 0.672394 0
M  V30 1377 H 132.212 -1.35797 0.821263 0
M  V30 1378 H 132.233 -3.78239 -0.414227 0
M  V30 1379 H 131.745 -3.61847 1.40314 0
M  V30 1380 H 129.846 -3.5714 -1.06217 0
M  V30 1381 H 129.959 -4.77532 0.387265 0
M  V30 1382 H 128.323 -2.54465 0.109284 0
M  V30 1383 H 129.106 -2.96735 1.72636 0
M  V30 1384 N 131.551 -0.354651 -1.53558 0
M  V30 1385 C 132.798 0.238443 -2.01091 0
M  V30 1386 C 133.126 1.49663 -1.24222 0
M  V30 1387 O 132.381 1.93049 -0.321003 0
M  V30 1388 C 132.68 0.587121 -3.52545 0
M  V30 1389 C 132.346 -0.575472 -4.47213 0
M  V30 1390 C 131.008 -0.894497 -4.72813 0
M  V30 1391 C 133.36 -1.35489 -5.03281 0
M  V30 1392 C 130.688 -1.99511 -5.51736 0
M  V30 1393 C 133.04 -2.44583 -5.83405 0
M  V30 1394 C 131.704 -2.77033 -6.07296 0
M  V30 1395 H 130.974 0.0872526 -0.735845 0
M  V30 1396 H 133.621 -0.484859 -1.8526 0
M  V30 1397 H 131.926 1.39129 -3.66265 0
M  V30 1398 H 133.623 1.05809 -3.86789 0
M  V30 1399 H 130.213 -0.316774 -4.27428 0
M  V30 1400 H 134.397 -1.12167 -4.83459 0
M  V30 1401 H 129.653 -2.25063 -5.68469 0
M  V30 1402 H 133.827 -3.05401 -6.25862 0
M  V30 1403 H 131.454 -3.6244 -6.68237 0
M  V30 1404 N 133.029 1.57378 -0.0835403 0
M  V30 1405 C 133.959 2.1641 0.87686 0
M  V30 1406 C 134.94 1.09429 1.30228 0
M  V30 1407 O 136.125 1.37516 1.37124 0
M  V30 1408 C 133.255 2.73517 2.14022 0
M  V30 1409 C 132.209 3.85769 1.85381 0
M  V30 1410 C 131.535 4.29529 3.18448 0
M  V30 1411 C 132.835 5.09486 1.14984 0
M  V30 1412 H 134.529 2.96914 0.385059 0
M  V30 1413 H 132.075 1.42823 0.18377 0
M  V30 1414 H 134.028 3.13463 2.81636 0
M  V30 1415 H 132.752 1.90252 2.65465 0
M  V30 1416 H 131.411 3.46345 1.20169 0
M  V30 1417 H 131.059 3.43169 3.67755 0
M  V30 1418 H 130.759 5.05204 3.00071 0
M  V30 1419 H 132.283 4.72099 3.8724 0
M  V30 1420 H 133.697 5.46674 1.72687 0
M  V30 1421 H 132.094 5.90515 1.06826 0
M  V30 1422 H 133.164 4.84724 0.130749 0
M  V30 1423 N 134.507 -0.190092 1.56449 0
M  V30 1424 C 135.455 -1.25501 1.95837 0
M  V30 1425 C 136.449 -1.4685 0.844485 0
M  V30 1426 O 137.655 -1.47651 1.02952 0
M  V30 1427 H 134.03 -0.421447 0.622805 0
M  V30 1428 H 136.001 -0.895821 2.84636 0
M  V30 1429 C 134.75 -2.59124 2.31841 0
M  V30 1430 H 134.073 -2.43514 3.17082 0
M  V30 1431 H 135.513 -3.32371 2.6326 0
M  V30 1432 C 133.972 -3.16488 1.15486 0
M  V30 1433 O 134.502 -3.99365 0.432535 0
M  V30 1434 N 132.708 -2.75305 0.930349 0
M  V30 1435 H 132.255 -2.08013 1.51948 0
M  V30 1436 H 132.213 -3.14024 0.153634 0
M  V30 1437 N 135.985 -1.50799 -0.457987 0
M  V30 1438 C 137.233 -1.62121 -1.2067 0
M  V30 1439 C 137.554 -0.329793 -1.92191 0
M  V30 1440 O 136.824 0.653409 -1.84682 0
M  V30 1441 H 135.404 -0.597441 -0.448411 0
M  V30 1442 H 138.066 -1.87637 -0.527096 0
M  V30 1443 H 137.162 -2.43882 -1.94751 0
M  V30 1444 N 137.463 0.71206 -1.40597 0
M  V30 1445 C 138.691 1.50111 -1.42388 0
M  V30 1446 C 139.106 1.88784 -0.0245395 0
M  V30 1447 O 138.463 1.55681 0.952351 0
M  V30 1448 C 138.514 2.7742 -2.31776 0
M  V30 1449 O 138.235 2.40382 -3.66262 0
M  V30 1450 C 139.736 3.7129 -2.42196 0
M  V30 1451 H 136.956 0.46314 -0.485533 0
M  V30 1452 H 139.5 0.878068 -1.8469 0
M  V30 1453 H 137.655 3.36001 -1.92827 0
M  V30 1454 H 138.069 3.22324 -4.13772 0
M  V30 1455 H 139.543 4.57448 -3.08943 0
M  V30 1456 H 140.02 4.14641 -1.44809 0
M  V30 1457 H 140.626 3.18619 -2.81712 0
M  V30 1458 N 138.941 1.26152 0.944643 0
M  V30 1459 C 139.851 1.09176 2.07648 0
M  V30 1460 C 140.867 0.0261935 1.7398 0
M  V30 1461 O 142.043 0.229208 2.00091 0
M  V30 1462 C 139.108 0.722915 3.39079 0
M  V30 1463 C 138.169 1.86752 3.86552 0
M  V30 1464 C 137.402 1.51617 5.11711 0
M  V30 1465 O 137.625 0.416331 5.68879 0
M  V30 1466 O 136.559 2.34975 5.54139 0
M  V30 1467 H 140.385 2.0412 2.24875 0
M  V30 1468 H 137.97 1.05182 1.061 0
M  V30 1469 H 139.852 0.529787 4.18056 0
M  V30 1470 H 138.527 -0.197159 3.23099 0
M  V30 1471 H 137.434 2.11558 3.08535 0
M  V30 1472 H 138.767 2.76719 4.07047 0
M  V30 1473 N 140.419 -1.14872 1.07899 0
M  V30 1474 C 141.382 -2.17986 0.708161 0
M  V30 1475 C 142.382 -1.58775 -0.25442 0
M  V30 1476 O 143.572 -1.74166 -0.034645 0
M  V30 1477 C 140.704 -3.40871 0.0446929 0
M  V30 1478 H 141.897 -2.52306 1.62116 0
M  V30 1479 H 139.45 -1.2943 0.876218 0
M  V30 1480 H 140.185 -3.12124 -0.880281 0
M  V30 1481 H 139.97 -3.8511 0.737091 0
M  V30 1482 H 141.46 -4.17121 -0.19991 0
M  V30 1483 N 141.898 -0.863906 -1.31812 0
M  V30 1484 C 142.846 -0.30422 -2.30602 0
M  V30 1485 C 143.84 0.577419 -1.59255 0
M  V30 1486 O 145.046 0.464194 -1.73912 0
M  V30 1487 H 141.421 -0.0796877 -0.747766 0
M  V30 1488 H 143.392 -1.15148 -2.75288 0
M  V30 1489 C 142.141 0.484617 -3.44306 0
M  V30 1490 H 141.464 -0.18451 -3.99374 0
M  V30 1491 H 142.904 0.841664 -4.15562 0
M  V30 1492 C 141.363 1.6735 -2.92396 0
M  V30 1493 O 141.893 2.77273 -2.90659 0
M  V30 1494 N 140.099 1.50362 -2.48676 0
M  V30 1495 H 139.646 0.609402 -2.50288 0
M  V30 1496 H 139.604 2.30051 -2.14299 0
M  V30 1497 N 143.376 1.44774 -0.622745 0
M  V30 1498 C 144.624 2.01721 -0.123655 0
M  V30 1499 C 144.945 1.49172 1.25589 0
M  V30 1500 O 144.215 0.691974 1.83272 0
M  V30 1501 H 142.795 0.745777 -0.0427225 0
M  V30 1502 H 145.457 1.77382 -0.807559 0
M  V30 1503 H 144.553 3.11984 -0.0849534 0
M  V30 1504 N 144.854 0.36279 1.53368 0
M  V30 1505 C 146.082 -0.228613 2.05633 0
M  V30 1506 C 146.497 -1.42676 1.23649 0
M  V30 1507 O 145.854 -1.80394 0.27647 0
M  V30 1508 C 145.905 -0.624845 3.56059 0
M  V30 1509 O 145.626 0.525675 4.34935 0
M  V30 1510 C 147.127 -1.27493 4.24571 0
M  V30 1511 H 144.347 -0.0407183 0.669763 0
M  V30 1512 H 146.891 0.520352 1.97769 0
M  V30 1513 H 145.046 -1.32373 3.64083 0
M  V30 1514 H 145.46 0.205969 5.24095 0
M  V30 1515 H 146.934 -1.50277 5.31151 0
M  V30 1516 H 147.411 -2.23439 3.78116 0
M  V30 1517 H 148.017 -0.617558 4.20792 0
M  V30 1518 N 146.332 -1.57332 0.0918853 0
M  V30 1519 C 147.58 -1.93853 -0.571446 0
M  V30 1520 C 147.901 -0.974212 -1.6892 0
M  V30 1521 O 147.171 -0.0257254 -1.95883 0
M  V30 1522 H 145.751 -0.715666 -0.214082 0
M  V30 1523 H 148.413 -1.94287 0.154464 0
M  V30 1524 H 147.509 -2.96191 -0.983729 0
M  V30 1525 N 147.81 0.181792 -1.56548 0
M  V30 1526 C 148.773 1.20894 -1.94724 0
M  V30 1527 C 149.773 1.37738 -0.829747 0
M  V30 1528 O 150.963 1.35323 -1.09697 0
M  V30 1529 C 148.095 2.57593 -2.23291 0
M  V30 1530 H 149.288 0.882275 -2.86629 0
M  V30 1531 H 146.841 0.423838 -1.50444 0
M  V30 1532 H 147.576 2.95291 -1.34067 0
M  V30 1533 H 147.361 2.46735 -3.04736 0
M  V30 1534 H 148.851 3.31637 -2.53785 0
M  V30 1535 N 149.288 1.51039 0.449983 0
M  V30 1536 C 150.516 1.66869 1.2232 0
M  V30 1537 C 150.931 0.360727 1.85322 0
M  V30 1538 O 150.288 -0.659531 1.70166 0
M  V30 1539 C 150.339 2.77524 2.31652 0
M  V30 1540 O 150.06 4.03252 1.7123 0
M  V30 1541 C 151.561 3.04512 3.2216 0
M  V30 1542 H 148.781 0.560326 0.369155 0
M  V30 1543 H 151.325 1.97385 0.534719 0
M  V30 1544 H 149.48 2.49642 2.96239 0
M  V30 1545 H 149.894 4.64609 2.43389 0
M  V30 1546 H 151.368 3.85551 3.95038 0
M  V30 1547 H 151.845 2.16415 3.8218 0
M  V30 1548 H 152.451 3.34005 2.63288 0
M  V30 1549 N 150.766 -0.704594 1.40972 0
M  V30 1550 C 151.676 -1.84856 1.44448 0
M  V30 1551 C 152.692 -1.70726 0.335961 0
M  V30 1552 O 153.868 -1.92799 0.582276 0
M  V30 1553 C 150.933 -3.20758 1.31587 0
M  V30 1554 C 149.994 -3.47063 2.52677 0
M  V30 1555 C 149.227 -4.76481 2.4042 0
M  V30 1556 O 149.45 -5.52341 1.42391 0
M  V30 1557 O 148.384 -5.03367 3.30007 0
M  V30 1558 H 152.21 -1.8488 2.40942 0
M  V30 1559 H 149.795 -0.85647 1.22413 0
M  V30 1560 H 151.677 -4.01913 1.26665 0
M  V30 1561 H 150.352 -3.21438 0.382049 0
M  V30 1562 H 149.259 -2.65873 2.63177 0
M  V30 1563 H 150.592 -3.5119 3.44858 0
M  V30 1564 N 152.244 -1.26651 -0.937939 0
M  V30 1565 C 153.655 -1.1125 -1.49934 0
M  V30 1566 C 154.006 0.306077 -1.93798 0
M  V30 1567 O 153.131 1.19792 -1.80219 0
M  V30 1568 C 153.726 -2.01339 -2.72485 0
M  V30 1569 C 152.285 -1.90074 -3.24883 0
M  V30 1570 C 151.432 -1.94498 -1.97651 0
M  V30 1571 H 154.383 -1.39693 -0.753091 0
M  V30 1572 H 154.404 -1.56319 -3.46907 0
M  V30 1573 H 153.916 -3.04577 -2.40529 0
M  V30 1574 H 152.017 -0.897827 -3.61621 0
M  V30 1575 H 152.13 -2.75778 -3.9177 0
M  V30 1576 H 150.494 -1.38591 -2.13693 0
M  V30 1577 H 151.277 -2.99372 -1.68022 0
M  V30 1578 N 153.722 1.14298 -1.08507 0
M  V30 1579 C 154.962 1.87016 -0.824894 0
M  V30 1580 C 155.326 1.81099 0.637735 0
M  V30 1581 O 156.527 2.48963 1.01345 0
M  V30 1582 C 154.798 3.31584 -1.33368 0
M  V30 1583 S 156.357 4.21903 -1.20596 0
M  V30 1584 H 153.175 0.645259 -0.2986 0
M  V30 1585 H 155.777 1.37822 -1.38656 0
M  V30 1586 H 154.481 3.33439 -2.39262 0
M  V30 1587 H 154.012 3.85836 -0.767734 0
M  V30 1588 H 156.027 4.95971 -0.150891 0
M  V30 1589 N 155.201 0.870884 1.31352 0
M  V30 1590 C 156.429 0.49677 2.00848 0
M  V30 1591 C 156.844 -0.910998 1.65367 0
M  V30 1592 O 156.201 -1.59696 0.883374 0
M  V30 1593 C 156.252 0.645308 3.55694 0
M  V30 1594 O 155.973 1.99764 3.89905 0
M  V30 1595 C 157.474 0.272326 4.42463 0
M  V30 1596 H 154.694 0.193462 0.642506 0
M  V30 1597 H 157.238 1.1723 1.67563 0
M  V30 1598 H 155.393 0.0173176 3.87396 0
M  V30 1599 H 155.807 2.00607 4.84621 0
M  V30 1600 H 157.281 0.427208 5.50344 0
M  V30 1601 H 157.758 -0.788587 4.32062 0
M  V30 1602 H 158.364 0.876054 4.1618 0
M  V30 1603 N 156.679 -1.44442 0.630414 0
M  V30 1604 C 157.956 -1.9549 0.0655657 0
M  V30 1605 C 158.336 -1.5724 -1.40851 0
M  V30 1606 O 157.684 -0.846116 -2.12257 0
M  V30 1607 C 157.894 -3.47812 0.287691 0
M  V30 1608 C 159.242 -4.24216 0.180513 0
M  V30 1609 O 160.266 -3.55526 0.219019 0
M  V30 1610 O 159.125 -5.46434 0.0848493 0
M  V30 1611 H 156.219 -0.826688 -0.0227177 0
M  V30 1612 H 158.765 -1.54496 0.702068 0
M  V30 1613 H 157.537 -3.687 1.31056 0
M  V30 1614 H 157.16 -3.95751 -0.382984 0
M  V30 1615 N 158.157 -0.370918 -1.53173 0
M  V30 1616 C 159.405 0.216673 -2.00935 0
M  V30 1617 C 159.726 1.48845 -1.25977 0
M  V30 1618 O 158.996 1.92286 -0.374551 0
M  V30 1619 H 157.576 0.0830565 -0.742368 0
M  V30 1620 H 160.238 -0.49838 -1.8842 0
M  V30 1621 H 159.334 0.439893 -3.08984 0
M  V30 1622 N 159.635 1.57281 -0.100228 0
M  V30 1623 C 160.881 1.95626 0.556946 0
M  V30 1624 C 161.236 0.981655 1.65473 0
M  V30 1625 O 160.529 0.00849847 1.91598 0
M  V30 1626 C 160.723 3.38305 1.15259 0
M  V30 1627 C 160.552 4.49555 0.114035 0
M  V30 1628 C 159.322 5.0434 -0.311266 0
M  V30 1629 C 161.52 5.10051 -0.659768 0
M  V30 1630 N 159.502 5.99152 -1.33755 0
M  V30 1631 C 160.873 6.00628 -1.53774 0
M  V30 1632 C 162.928 4.92772 -0.712723 0
M  V30 1633 C 161.631 6.7578 -2.46403 0
M  V30 1634 C 163.657 5.6859 -1.62663 0
M  V30 1635 C 163.019 6.58838 -2.49222 0
M  V30 1636 H 159.118 0.7624 0.173982 0
M  V30 1637 H 161.702 1.93829 -0.183988 0
M  V30 1638 H 159.873 3.40786 1.86332 0
M  V30 1639 H 161.605 3.63817 1.77254 0
M  V30 1640 H 158.36 4.73537 0.0774812 0
M  V30 1641 H 158.784 6.5126 -1.84905 0
M  V30 1642 H 163.426 4.22761 -0.0576648 0
M  V30 1643 H 161.144 7.4505 -3.12931 0
M  V30 1644 H 164.73 5.57233 -1.67281 0
M  V30 1645 H 163.61 7.16479 -3.18791 0
M  V30 1646 N 161.113 -0.173488 1.56642 0
M  V30 1647 C 162.362 -0.888758 1.81063 0
M  V30 1648 C 162.675 -1.83506 0.67712 0
M  V30 1649 O 163.881 -2.59254 0.806206 0
M  V30 1650 C 162.337 -1.63091 3.20826 0
M  V30 1651 C 161.945 -0.728357 4.4204 0
M  V30 1652 C 163.689 -2.33454 3.54541 0
M  V30 1653 C 161.596 -1.47062 5.72823 0
M  V30 1654 H 160.526 -0.335618 0.675186 0
M  V30 1655 H 163.177 -0.141712 1.82952 0
M  V30 1656 H 161.559 -2.42263 3.13248 0
M  V30 1657 H 162.733 0.0262449 4.60793 0
M  V30 1658 H 161.048 -0.134492 4.16183 0
M  V30 1659 H 163.645 -2.89578 4.49498 0
M  V30 1660 H 163.988 -3.08687 2.79317 0
M  V30 1661 H 164.521 -1.61227 3.63663 0
M  V30 1662 H 161.26 -0.760658 6.51072 0
M  V30 1663 H 160.78 -2.1986 5.58052 0
M  V30 1664 H 162.459 -2.01868 6.14702 0
M  V30 1665 N 162.591 -1.51276 -0.441967 0
M  V30 1666 C 163.821 -1.67273 -1.21257 0
M  V30 1667 C 164.229 -0.367624 -1.85594 0
M  V30 1668 O 163.572 0.663349 -1.71305 0
M  V30 1669 C 163.634 -2.72807 -2.34129 0
M  V30 1670 C 163.298 -4.1554 -1.90198 0
M  V30 1671 C 164.295 -5.00471 -1.40801 0
M  V30 1672 C 161.98 -4.61616 -1.9803 0
M  V30 1673 C 163.974 -6.29536 -0.998174 0
M  V30 1674 C 161.661 -5.90679 -1.56658 0
M  V30 1675 C 162.659 -6.74466 -1.07633 0
M  V30 1676 O 162.347 -8.01116 -0.668459 0
M  V30 1677 H 162.079 -0.564614 -0.371734 0
M  V30 1678 H 164.633 -1.9843 -0.530521 0
M  V30 1679 H 162.863 -2.36954 -3.05597 0
M  V30 1680 H 164.552 -2.77729 -2.96009 0
M  V30 1681 H 165.318 -4.66079 -1.34148 0
M  V30 1682 H 161.197 -3.96526 -2.35135 0
M  V30 1683 H 164.741 -6.94885 -0.61482 0
M  V30 1684 H 160.638 -6.24586 -1.62979 0
M  V30 1685 H 161.406 -8.14633 -0.794722 0
M  V30 1686 N 164.069 0.697108 -1.41344 0
M  V30 1687 C 165.346 1.45154 -1.31109 0
M  V30 1688 C 165.726 2.11009 0.0620449 0
M  V30 1689 O 165.074 2.01571 1.07618 0
M  V30 1690 C 165.284 2.47223 -2.46337 0
M  V30 1691 C 166.632 3.1252 -2.87431 0
M  V30 1692 O 167.656 2.57547 -2.46065 0
M  V30 1693 O 166.515 4.12083 -3.58957 0
M  V30 1694 H 163.609 0.646365 -0.515889 0
M  V30 1695 H 166.155 0.727716 -1.53305 0
M  V30 1696 H 164.927 1.97204 -3.37974 0
M  V30 1697 H 164.55 3.27116 -2.2601 0
M  V30 1698 N 165.547 1.27147 0.931209 0
M  V30 1699 C 166.495 1.09398 2.05268 0
M  V30 1700 C 167.489 0.0180591 1.6939 0
M  V30 1701 O 168.695 0.17551 1.79142 0
M  V30 1702 H 165.07 0.336986 0.672268 0
M  V30 1703 H 167.041 2.04416 2.17386 0
M  V30 1704 C 165.79 0.75424 3.39421 0
M  V30 1705 H 165.113 1.57404 3.67511 0
M  V30 1706 H 166.553 0.669903 4.18674 0
M  V30 1707 C 165.012 -0.541197 3.32525 0
M  V30 1708 O 165.542 -1.57664 3.69466 0
M  V30 1709 N 163.748 -0.535517 2.85623 0
M  V30 1710 H 163.295 0.307511 2.55758 0
M  V30 1711 H 163.253 -1.40236 2.81392 0
M  V30 1712 N 167.025 -1.13721 1.09112 0
M  V30 1713 C 168.25 -1.89314 0.847053 0
M  V30 1714 C 168.675 -1.78416 -0.595774 0
M  V30 1715 O 168.033 -1.12942 -1.41823 0
M  V30 1716 C 168.081 -3.3701 1.28284 0
M  V30 1717 O 167.185 -4.10054 0.439267 0
M  V30 1718 H 166.526 -0.588745 0.307044 0
M  V30 1719 H 169.056 -1.43902 1.45442 0
M  V30 1720 H 169.066 -3.87834 1.26683 0
M  V30 1721 H 167.741 -3.4426 2.33363 0
M  V30 1722 H 166.318 -3.69266 0.519312 0
M  V30 1723 N 168.503 -0.877838 -1.30888 0
M  V30 1724 C 169.731 -0.507414 -2.00581 0
M  V30 1725 C 170.146 0.902216 -1.65848 0
M  V30 1726 O 169.503 1.59225 -0.891831 0
M  V30 1727 C 169.554 -0.664162 -3.55347 0
M  V30 1728 O 169.275 -2.01829 -3.8884 0
M  V30 1729 C 170.776 -0.295787 -4.42312 0
M  V30 1730 H 167.996 -0.196866 -0.641471 0
M  V30 1731 H 170.54 -1.18117 -1.66939 0
M  V30 1732 H 168.695 -0.0378619 -3.87381 0
M  V30 1733 H 169.109 -2.03174 -4.8355 0
M  V30 1734 H 170.583 -0.456388 -5.5011 0
M  V30 1735 H 171.06 0.765663 -4.32475 0
M  V30 1736 H 171.666 -0.898113 -4.15709 0
M  V30 1737 N 169.982 1.44106 -0.638065 0
M  V30 1738 C 171.229 2.01978 -0.14533 0
M  V30 1739 C 171.557 1.50234 1.23532 0
M  V30 1740 O 170.812 0.679548 1.83523 0
M  V30 1741 C 171.111 3.5729 -0.0887327 0
M  V30 1742 C 170.777 4.28317 -1.40909 0
M  V30 1743 C 169.439 4.47437 -1.77069 0
M  V30 1744 C 171.791 4.6867 -2.28031 0
M  V30 1745 C 169.119 5.04171 -3.00047 0
M  V30 1746 C 171.471 5.26766 -3.50286 0
M  V30 1747 C 170.135 5.44104 -3.86661 0
M  V30 1748 H 169.405 0.739089 -0.0531801 0
M  V30 1749 H 172.052 1.72781 -0.825761 0
M  V30 1750 H 170.357 3.8594 0.675095 0
M  V30 1751 H 172.054 3.99807 0.309145 0
M  V30 1752 H 168.644 4.1377 -1.1177 0
M  V30 1753 H 172.828 4.53604 -2.01388 0
M  V30 1754 H 168.084 5.15782 -3.28298 0
M  V30 1755 H 172.258 5.56983 -4.18023 0
M  V30 1756 H 169.885 5.87832 -4.82034 0
M  V30 1757 N 171.46 0.379036 1.52974 0
M  V30 1758 C 172.871 -0.0972525 1.86447 0
M  V30 1759 C 173.222 -1.47027 1.29914 0
M  V30 1760 O 172.347 -2.07135 0.626433 0
M  V30 1761 C 172.942 -0.183248 3.38304 0
M  V30 1762 C 171.501 -0.603812 3.71525 0
M  V30 1763 C 170.648 0.240632 2.76254 0
M  V30 1764 H 173.599 0.597316 1.4703 0
M  V30 1765 H 173.62 -1.00432 3.67006 0
M  V30 1766 H 173.132 0.816191 3.79421 0
M  V30 1767 H 171.233 -1.61099 3.35973 0
M  V30 1768 H 171.346 -0.369086 4.77676 0
M  V30 1769 H 169.71 -0.292548 2.53014 0
M  V30 1770 H 170.493 1.23786 3.20206 0
M  V30 1771 N 172.938 -1.57226 0.108567 0
M  V30 1772 C 174.163 -1.99604 -0.563303 0
M  V30 1773 C 174.588 -0.987563 -1.6009 0
M  V30 1774 O 173.946 0.0421687 -1.81251 0
M  V30 1775 C 173.994 -3.40902 -1.17552 0
M  V30 1776 O 173.098 -3.42896 -2.2912 0
M  V30 1777 H 172.439 -0.648704 -0.1417 0
M  V30 1778 H 174.969 -2.03679 0.193961 0
M  V30 1779 H 174.979 -3.78886 -1.51357 0
M  V30 1780 H 173.654 -4.1382 -0.415445 0
M  V30 1781 H 172.231 -3.1672 -1.96832 0
M  V30 1782 N 174.416 0.165178 -1.56732 0
M  V30 1783 C 175.644 0.896218 -1.86482 0
M  V30 1784 C 176.059 1.75555 -0.694675 0
M  V30 1785 O 175.416 1.79379 0.33607 0
M  V30 1786 C 175.467 1.76792 -3.1532 0
M  V30 1787 O 175.188 0.943239 -4.27825 0
M  V30 1788 C 176.689 2.6081 -3.58459 0
M  V30 1789 H 173.909 0.260064 -0.618553 0
M  V30 1790 H 176.453 0.163428 -2.03846 0
M  V30 1791 H 174.608 2.45398 -2.99764 0
M  V30 1792 H 175.022 1.53998 -5.01383 0
M  V30 1793 H 176.496 3.17579 -4.51495 0
M  V30 1794 H 176.973 3.35977 -2.82872 0
M  V30 1795 H 177.579 1.97526 -3.76648 0
M  V30 1796 N 175.894 1.51508 0.433938 0
M  V30 1797 C 177.143 1.63578 1.18005 0
M  V30 1798 C 177.456 0.359514 1.92268 0
M  V30 1799 O 178.662 0.359632 2.69108 0
M  V30 1800 C 177.118 2.88901 2.14626 0
M  V30 1801 C 176.726 4.23544 1.45995 0
M  V30 1802 C 178.47 3.10328 2.89649 0
M  V30 1803 C 176.377 5.40014 2.4112 0
M  V30 1804 H 175.307 0.609277 0.444182 0
M  V30 1805 H 177.958 1.77978 0.446773 0
M  V30 1806 H 176.34 2.68142 2.91403 0
M  V30 1807 H 177.514 4.54696 0.747532 0
M  V30 1808 H 175.829 4.08021 0.831115 0
M  V30 1809 H 178.426 3.94518 3.60915 0
M  V30 1810 H 178.769 2.23544 3.51189 0
M  V30 1811 H 179.302 3.31443 2.19978 0
M  V30 1812 H 176.041 6.29068 1.84264 0
M  V30 1813 H 175.561 5.13233 3.10406 0
M  V30 1814 H 177.24 5.72099 3.02177 0
M  V30 1815 N 177.372 -0.689602 1.41712 0
M  V30 1816 C 178.618 -1.45181 1.41599 0
M  V30 1817 C 178.951 -1.94181 0.0270081 0
M  V30 1818 O 178.226 -1.6993 -0.946265 0
M  V30 1819 C 178.509 -2.65945 2.42787 0
M  V30 1820 C 178.362 -2.22672 3.90816 0
M  V30 1821 C 179.681 -3.68149 2.41151 0
M  V30 1822 H 176.8 -0.526576 0.515642 0
M  V30 1823 H 179.442 -0.784947 1.73028 0
M  V30 1824 H 177.592 -3.2284 2.16116 0
M  V30 1825 H 179.264 -1.71058 4.28412 0
M  V30 1826 H 177.507 -1.54394 4.05395 0
M  V30 1827 H 178.178 -3.0935 4.57172 0
M  V30 1828 H 180.654 -3.2094 2.64834 0
M  V30 1829 H 179.53 -4.50248 3.13955 0
M  V30 1830 H 179.791 -4.18259 1.43221 0
M  V30 1831 N 178.85 -1.27639 -0.924453 0
M  V30 1832 C 180.078 -1.16989 -1.70649 0
M  V30 1833 C 180.493 0.272869 -1.86818 0
M  V30 1834 O 179.85 1.18549 -1.38753 0
M  V30 1835 C 179.901 -1.85229 -3.10439 0
M  V30 1836 O 179.622 -3.23868 -2.95028 0
M  V30 1837 C 181.123 -1.80746 -4.04779 0
M  V30 1838 H 178.343 -0.406595 -0.53378 0
M  V30 1839 H 180.887 -1.68569 -1.15778 0
M  V30 1840 H 179.042 -1.37545 -3.6216 0
M  V30 1841 H 179.456 -3.57889 -3.83426 0
M  V30 1842 H 180.93 -2.33101 -5.00368 0
M  V30 1843 H 181.407 -0.777499 -4.32263 0
M  V30 1844 H 182.013 -2.28059 -3.58984 0
M  V30 1845 N 180.328 1.1314 -1.09713 0
M  V30 1846 C 181.238 2.22242 -0.751367 0
M  V30 1847 C 182.254 1.72224 0.247938 0
M  V30 1848 O 183.43 2.01205 0.0885463 0
M  V30 1849 C 180.495 3.46231 -0.180274 0
M  V30 1850 C 179.556 4.11125 -1.2359 0
M  V30 1851 C 178.789 5.29195 -0.691966 0
M  V30 1852 O 179.012 5.68342 0.48414 0
M  V30 1853 O 177.946 5.84214 -1.44838 0
M  V30 1854 H 181.772 2.54197 -1.66186 0
M  V30 1855 H 179.357 1.21331 -0.871735 0
M  V30 1856 H 181.239 4.21185 0.134739 0
M  V30 1857 H 179.914 3.1597 0.703185 0
M  V30 1858 H 178.821 3.37985 -1.60366 0
M  V30 1859 H 180.154 4.45524 -2.09211 0
M  V30 1860 N 181.806 0.884767 1.30421 0
M  V30 1861 C 183.052 0.513218 1.96819 0
M  V30 1862 C 183.407 -0.927347 1.68577 0
M  V30 1863 O 182.7 -1.64644 0.979941 0
M  V30 1864 C 182.894 0.724318 3.49983 0
M  V30 1865 C 182.723 2.18385 3.93113 0
M  V30 1866 C 181.493 2.82839 4.18725 0
M  V30 1867 C 183.691 3.15763 4.05953 0
M  V30 1868 N 181.673 4.1939 4.48314 0
M  V30 1869 C 183.044 4.37387 4.39423 0
M  V30 1870 C 185.099 3.11555 3.88379 0
M  V30 1871 C 183.802 5.55343 4.5715 0
M  V30 1872 C 185.828 4.28782 4.07308 0
M  V30 1873 C 185.19 5.49172 4.41123 0
M  V30 1874 H 181.289 0.237123 0.745182 0
M  V30 1875 H 183.873 1.14246 1.57658 0
M  V30 1876 H 182.044 0.124565 3.882 0
M  V30 1877 H 183.776 0.31969 4.03435 0
M  V30 1878 H 180.531 2.33708 4.11919 0
M  V30 1879 H 180.955 4.89911 4.67243 0
M  V30 1880 H 185.597 2.19576 3.61312 0
M  V30 1881 H 183.315 6.47826 4.8306 0
M  V30 1882 H 186.901 4.26995 3.95179 0
M  V30 1883 H 185.781 6.38371 4.55469 0
M  V30 1884 N 183.284 -1.43765 0.645699 0
M  V30 1885 C 184.561 -1.9541 0.0862963 0
M  V30 1886 C 184.941 -1.58725 -1.39175 0
M  V30 1887 O 184.289 -0.868581 -2.11348 0
M  V30 1888 C 184.499 -3.47488 0.324565 0
M  V30 1889 C 185.847 -4.24001 0.225497 0
M  V30 1890 O 186.871 -3.55274 0.256715 0
M  V30 1891 O 185.73 -5.46313 0.142801 0
M  V30 1892 H 182.824 -0.826882 -0.0139483 0
M  V30 1893 H 185.37 -1.53743 0.718415 0
M  V30 1894 H 184.142 -3.67289 1.3496 0
M  V30 1895 H 183.765 -3.96135 -0.340987 0
M  V30 1896 N 184.763 -0.387143 -1.52771 0
M  V30 1897 C 185.693 0.440551 -2.29306 0
M  V30 1898 C 186.674 1.06535 -1.32606 0
M  V30 1899 O 187.859 1.07853 -1.61497 0
M  V30 1900 C 184.989 1.56919 -3.09829 0
M  V30 1901 C 183.943 1.07054 -4.14395 0
M  V30 1902 C 183.269 2.29109 -4.83129 0
M  V30 1903 C 184.569 0.140015 -5.22112 0
M  V30 1904 H 186.263 -0.198026 -2.98744 0
M  V30 1905 H 183.809 -0.09668 -1.43675 0
M  V30 1906 H 185.762 2.15503 -3.62128 0
M  V30 1907 H 184.486 2.23532 -2.3812 0
M  V30 1908 H 183.145 0.507247 -3.63074 0
M  V30 1909 H 182.793 2.94227 -4.0797 0
M  V30 1910 H 182.493 1.96406 -5.53804 0
M  V30 1911 H 184.017 2.88339 -5.38231 0
M  V30 1912 H 185.431 0.633978 -5.69784 0
M  V30 1913 H 183.828 -0.0971485 -6.00021 0
M  V30 1914 H 184.898 -0.811711 -4.78058 0
M  V30 1915 N 186.241 1.57166 -0.116904 0
M  V30 1916 C 187.487 1.95412 0.542405 0
M  V30 1917 C 187.82 1.00019 1.66463 0
M  V30 1918 O 187.095 0.0370346 1.94465 0
M  V30 1919 C 187.378 3.43615 1.07708 0
M  V30 1920 C 187.231 4.49781 -0.0415868 0
M  V30 1921 C 188.55 3.93616 1.96861 0
M  V30 1922 H 185.669 0.710543 0.195696 0
M  V30 1923 H 188.311 1.89027 -0.192038 0
M  V30 1924 H 186.461 3.49187 1.70296 0
M  V30 1925 H 188.133 4.56308 -0.676793 0
M  V30 1926 H 186.376 4.28033 -0.705019 0
M  V30 1927 H 187.047 5.50733 0.373717 0
M  V30 1928 H 189.523 3.90335 1.44146 0
M  V30 1929 H 188.399 4.97838 2.3119 0
M  V30 1930 H 188.66 3.34188 2.89432 0
M  V30 1931 N 187.719 -0.156864 1.56817 0
M  V30 1932 C 188.959 -0.877453 1.84608 0
M  V30 1933 C 189.323 -1.78791 0.699845 0
M  V30 1934 O 190.524 -2.5472 0.858553 0
M  V30 1935 C 188.795 -1.63992 3.17555 0
M  V30 1936 S 190.354 -2.40729 3.66872 0
M  V30 1937 H 187.172 -0.293612 0.647544 0
M  V30 1938 H 189.774 -0.138099 1.95012 0
M  V30 1939 H 188.478 -0.962363 3.98957 0
M  V30 1940 H 188.009 -2.42038 3.10131 0
M  V30 1941 H 190.024 -3.65725 3.3535 0
M  V30 1942 N 189.197 -1.51736 -0.425897 0
M  V30 1943 C 190.422 -1.69082 -1.20108 0
M  V30 1944 C 190.847 -0.392398 -1.83962 0
M  V30 1945 O 190.205 0.64858 -1.69302 0
M  V30 1946 C 190.253 -2.81604 -2.25237 0
M  V30 1947 O 189.357 -2.46004 -3.30992 0
M  V30 1948 H 188.698 -0.563408 -0.35138 0
M  V30 1949 H 191.228 -1.98358 -0.501512 0
M  V30 1950 H 191.238 -3.06025 -2.69838 0
M  V30 1951 H 189.913 -3.75817 -1.78142 0
M  V30 1952 H 188.49 -2.32195 -2.91787 0
M  V30 1953 N 190.675 0.682077 -1.42076 0
M  V30 1954 C 191.625 1.78823 -1.41444 0
M  V30 1955 C 192.609 1.58323 -0.28681 0
M  V30 1956 O 193.801 1.68926 -0.528498 0
M  V30 1957 C 190.93 3.17232 -1.3122 0
M  V30 1958 C 190.016 3.4338 -2.489 0
M  V30 1959 N 190.407 3.40152 -3.7434 0
M  V30 1960 C 188.705 3.73986 -2.43003 0
M  V30 1961 C 189.406 3.65581 -4.52466 0
M  V30 1962 N 188.382 3.85989 -3.8277 0
M  V30 1963 H 192.184 1.7471 -2.36334 0
M  V30 1964 H 189.698 0.882622 -1.36321 0
M  V30 1965 H 191.695 3.96489 -1.2885 0
M  V30 1966 H 190.355 3.22547 -0.373263 0
M  V30 1967 H 191.366 3.20221 -4.07037 0
M  V30 1968 H 188.043 3.86591 -1.57651 0
M  V30 1969 H 189.433 3.69108 -5.61435 0
M  V30 1970 N 192.153 1.28127 0.917671 0
M  V30 1971 C 193.569 1.05749 1.19538 0
M  V30 1972 C 193.769 -0.202633 2.00479 0
M  V30 1973 O 192.825 -0.905382 2.3571 0
M  V30 1974 C 194.138 2.30273 1.93378 0
M  V30 1975 C 195.686 2.35412 2.06277 0
M  V30 1976 C 196.161 3.59692 2.83524 0
M  V30 1977 N 197.652 3.60309 2.91087 0
M  V30 1978 C 198.387 4.53147 3.51348 0
M  V30 1979 N 197.883 5.563 4.12919 0
M  V30 1980 N 199.676 4.40751 3.48849 0
M  V30 1981 H 191.827 2.09024 0.377184 0
M  V30 1982 H 194.09 0.919798 0.22951 0
M  V30 1983 H 193.796 3.22055 1.41328 0
M  V30 1984 H 193.67 2.36378 2.93947 0
M  V30 1985 H 196.057 1.4413 2.57508 0
M  V30 1986 H 196.138 2.33304 1.04895 0
M  V30 1987 H 195.782 4.51316 2.32973 0
M  V30 1988 H 195.712 3.59054 3.85211 0
M  V30 1989 H 198.203 2.85714 2.47338 0
M  V30 1990 H 198.516 6.2329 4.56869 0
M  V30 1991 H 196.861 5.60131 4.11435 0
M  V30 1992 H 200.052 3.59367 2.99955 0
M  V30 1993 H 200.225 5.13291 3.9552 0
M  V30 1994 N 193.631 -1.12557 1.10312 0
M  V30 1995 C 194.594 -2.16434 0.75424 0
M  V30 1996 C 195.594 -1.59278 -0.220685 0
M  V30 1997 O 196.784 -1.742 0.00230591 0
M  V30 1998 C 193.916 -3.40699 0.116987 0
M  V30 1999 H 195.109 -2.48811 1.67431 0
M  V30 2000 H 192.662 -1.27542 0.903475 0
M  V30 2001 H 193.397 -3.13921 -0.813877 0
M  V30 2002 H 193.182 -3.83459 0.818613 0
M  V30 2003 H 194.672 -4.17451 -0.111387 0
M  V30 2004 N 195.109 -0.891671 -1.2995 0
M  V30 2005 C 196.039 -0.379797 -2.30391 0
M  V30 2006 C 197.02 0.540919 -1.6127 0
M  V30 2007 O 198.205 0.453352 -1.88834 0
M  V30 2008 C 195.335 0.400654 -3.44981 0
M  V30 2009 C 194.289 -0.428905 -4.25846 0
M  V30 2010 C 193.615 0.478557 -5.32554 0
M  V30 2011 C 194.915 -1.67458 -4.94727 0
M  V30 2012 H 196.609 -1.21914 -2.73454 0
M  V30 2013 H 194.155 -0.587675 -1.31462 0
M  V30 2014 H 196.108 0.769434 -4.14316 0
M  V30 2015 H 194.832 1.27371 -3.0074 0
M  V30 2016 H 193.491 -0.779911 -3.58208 0
M  V30 2017 H 193.139 1.34951 -4.84559 0
M  V30 2018 H 192.839 -0.0727433 -5.87555 0
M  V30 2019 H 194.363 0.843705 -6.04743 0
M  V30 2020 H 195.777 -1.376 -5.56542 0
M  V30 2021 H 194.174 -2.16659 -5.59624 0
M  V30 2022 H 195.244 -2.41518 -4.20473 0
M  V30 2023 N 196.587 1.43421 -0.653314 0
M  V30 2024 C 198.003 1.56341 -0.320886 0
M  V30 2025 C 198.203 1.63696 1.17499 0
M  V30 2026 O 197.259 1.59208 1.95982 0
M  V30 2027 C 198.572 2.82424 -1.03233 0
M  V30 2028 C 200.12 2.96168 -1.01259 0
M  V30 2029 C 200.595 4.25084 -1.70492 0
M  V30 2030 N 202.086 4.31948 -1.67257 0
M  V30 2031 C 202.821 5.30466 -2.17701 0
M  V30 2032 N 202.317 6.35261 -2.76434 0
M  V30 2033 N 204.11 5.2212 -2.082 0
M  V30 2034 H 196.261 1.3689 -1.62403 0
M  V30 2035 H 198.524 0.657455 -0.682977 0
M  V30 2036 H 198.23 2.83053 -2.08744 0
M  V30 2037 H 198.104 3.72653 -0.583948 0
M  V30 2038 H 200.491 2.9508 0.0341235 0
M  V30 2039 H 200.572 2.07229 -1.49966 0
M  V30 2040 H 200.216 4.26932 -2.7512 0
M  V30 2041 H 200.146 5.1292 -1.19251 0
M  V30 2042 H 202.637 3.56838 -1.24398 0
M  V30 2043 H 202.95 7.06754 -3.12601 0
M  V30 2044 H 201.295 6.35884 -2.80495 0
M  V30 2045 H 204.486 4.39166 -1.62021 0
M  V30 2046 H 204.659 5.98739 -2.47822 0
M  V30 2047 N 198.065 0.39524 1.52563 0
M  V30 2048 C 198.997 -0.472201 2.24283 0
M  V30 2049 C 200.01 -1.02178 1.26742 0
M  V30 2050 O 201.199 -0.923097 1.52778 0
M  V30 2051 C 198.299 -1.66775 2.95024 0
M  V30 2052 C 197.472 -1.2445 4.19322 0
M  V30 2053 C 196.531 -2.30539 4.7301 0
M  V30 2054 O 195.557 -1.91702 5.35947 0
M  V30 2055 N 196.759 -3.6253 4.53379 0
M  V30 2056 H 199.524 0.142282 2.99362 0
M  V30 2057 H 197.085 0.2219 1.60372 0
M  V30 2058 H 199.077 -2.37283 3.27839 0
M  V30 2059 H 197.647 -2.18845 2.23217 0
M  V30 2060 H 196.867 -0.368069 3.92478 0
M  V30 2061 H 198.155 -0.938457 5.0007 0
M  V30 2062 H 197.553 -3.96841 4.03154 0
M  V30 2063 H 196.11 -4.29055 4.90668 0
M  V30 2064 N 199.544 -1.57102 0.125237 0
M  V30 2065 C 200.474 -2.18659 -0.819174 0
M  V30 2066 C 201.455 -1.12843 -1.27281 0
M  V30 2067 O 202.64 -1.41104 -1.33429 0
M  V30 2068 C 199.77 -2.79096 -2.06695 0
M  V30 2069 C 198.724 -3.90548 -1.75088 0
M  V30 2070 C 198.05 -4.37821 -3.06948 0
M  V30 2071 C 199.35 -5.12356 -1.01435 0
M  V30 2072 H 201.044 -2.9783 -0.306202 0
M  V30 2073 H 198.59 -1.4326 -0.145839 0
M  V30 2074 H 200.543 -3.2082 -2.73226 0
M  V30 2075 H 199.267 -1.97223 -2.60328 0
M  V30 2076 H 197.926 -3.49409 -1.10944 0
M  V30 2077 H 197.574 -3.52799 -3.58527 0
M  V30 2078 H 197.274 -5.12982 -2.86571 0
M  V30 2079 H 198.798 -4.822 -3.74587 0
M  V30 2080 H 200.212 -5.5106 -1.58132 0
M  V30 2081 H 198.609 -5.9314 -0.911319 0
M  V30 2082 H 199.679 -4.849 -0.00218681 0
M  V30 2083 N 201.022 0.148545 -1.56898 0
M  V30 2084 C 201.985 1.16736 -1.97244 0
M  V30 2085 C 202.985 1.35947 -0.858777 0
M  V30 2086 O 204.175 1.32966 -1.12542 0
M  V30 2087 C 201.307 2.52798 -2.28705 0
M  V30 2088 H 202.5 0.821279 -2.88435 0
M  V30 2089 H 200.053 0.391831 -1.51309 0
M  V30 2090 H 200.788 2.92381 -1.403 0
M  V30 2091 H 200.573 2.40216 -3.09901 0
M  V30 2092 H 202.063 3.26179 -2.60762 0
M  V30 2093 N 202.5 1.5196 0.417844 0
M  V30 2094 C 203.432 1.70895 1.52733 0
M  V30 2095 C 204.445 0.589405 1.51756 0
M  V30 2096 O 205.634 0.864312 1.56179 0
M  V30 2097 C 202.734 1.72627 2.91639 0
M  V30 2098 C 201.907 3.01479 3.16905 0
M  V30 2099 C 200.966 2.95139 4.35637 0
M  V30 2100 O 199.992 3.69059 4.3334 0
M  V30 2101 N 201.194 2.12328 5.40275 0
M  V30 2102 H 203.959 2.66612 1.36888 0
M  V30 2103 H 201.52 1.50089 0.607037 0
M  V30 2104 H 203.512 1.65928 3.6912 0
M  V30 2105 H 202.082 0.844216 3.00985 0
M  V30 2106 H 201.302 3.21895 2.27546 0
M  V30 2107 H 202.59 3.86736 3.30625 0
M  V30 2108 H 201.988 1.51685 5.44985 0
M  V30 2109 H 200.545 2.11494 6.16534 0
M  V30 2110 N 203.978 -0.674533 1.42435 0
M  V30 2111 C 205.203 -1.46784 1.46524 0
M  V30 2112 C 205.628 -1.87938 0.078066 0
M  V30 2113 O 204.986 -1.56014 -0.92354 0
M  V30 2114 C 205.034 -2.69307 2.39805 0
M  V30 2115 O 204.138 -3.67587 1.86959 0
M  V30 2116 H 203.479 -0.440959 0.496439 0
M  V30 2117 H 206.009 -0.827326 1.87127 0
M  V30 2118 H 206.019 -3.17374 2.56393 0
M  V30 2119 H 204.694 -2.38692 3.40586 0
M  V30 2120 H 203.271 -3.2662 1.79927 0
M  V30 2121 N 205.456 -1.28612 -0.910864 0
M  V30 2122 C 206.386 -1.15326 -2.03032 0
M  V30 2123 C 207.367 -0.0502924 -1.70026 0
M  V30 2124 O 208.552 -0.227797 -1.92859 0
M  V30 2125 C 205.682 -0.817343 -3.37545 0
M  V30 2126 C 204.636 -1.8754 -3.84724 0
M  V30 2127 C 203.962 -1.39305 -5.16235 0
M  V30 2128 C 205.262 -3.28244 -4.06267 0
M  V30 2129 H 206.956 -2.08975 -2.14406 0
M  V30 2130 H 204.502 -1.00612 -1.03021 0
M  V30 2131 H 206.455 -0.711151 -4.15356 0
M  V30 2132 H 205.179 0.154846 -3.26233 0
M  V30 2133 H 203.838 -1.97079 -3.09121 0
M  V30 2134 H 203.486 -0.409846 -5.01328 0
M  V30 2135 H 203.186 -2.10057 -5.48771 0
M  V30 2136 H 204.71 -1.30014 -5.96598 0
M  V30 2137 H 206.124 -3.21611 -4.74594 0
M  V30 2138 H 204.521 -3.96855 -4.5014 0
M  V30 2139 H 205.591 -3.72048 -3.10979 0
M  V30 2140 N 206.934 1.1197 -1.10907 0
M  V30 2141 C 208.164 1.8713 -0.875553 0
M  V30 2142 C 208.572 1.8016 0.577843 0
M  V30 2143 O 207.915 1.17699 1.41042 0
M  V30 2144 C 207.977 3.37005 -1.2517 0
M  V30 2145 C 207.641 3.67748 -2.71313 0
M  V30 2146 C 208.638 3.65698 -3.69542 0
M  V30 2147 C 206.323 3.96928 -3.07821 0
M  V30 2148 C 208.317 3.92395 -5.023 0
M  V30 2149 C 206.004 4.23284 -4.40765 0
M  V30 2150 C 207.002 4.21005 -5.37814 0
M  V30 2151 O 206.69 4.46704 -6.68364 0
M  V30 2152 H 206.422 0.598786 -0.313737 0
M  V30 2153 H 208.976 1.42568 -1.47863 0
M  V30 2154 H 207.206 3.82146 -0.591741 0
M  V30 2155 H 208.895 3.93519 -0.994877 0
M  V30 2156 H 209.661 3.43211 -3.42682 0
M  V30 2157 H 205.54 3.97841 -2.32902 0
M  V30 2158 H 209.084 3.90531 -5.78041 0
M  V30 2159 H 204.981 4.45246 -4.67361 0
M  V30 2160 H 205.749 4.64299 -6.74069 0
M  V30 2161 N 208.412 0.89855 1.29475 0
M  V30 2162 C 209.345 0.319981 2.25945 0
M  V30 2163 C 210.323 -0.567189 1.52387 0
M  V30 2164 O 211.507 -0.514254 1.8135 0
M  V30 2165 C 208.634 -0.544013 3.34303 0
M  V30 2166 C 207.68 0.275682 4.25608 0
M  V30 2167 S 208.513 1.67272 5.08704 0
M  V30 2168 C 209.669 0.815621 6.20563 0
M  V30 2169 H 209.902 1.13767 2.74671 0
M  V30 2170 H 207.435 0.69882 1.3768 0
M  V30 2171 H 209.393 -1.03673 3.97193 0
M  V30 2172 H 208.054 -1.33593 2.84274 0
M  V30 2173 H 207.247 -0.384263 5.02533 0
M  V30 2174 H 206.849 0.701496 3.67362 0
M  V30 2175 H 209.141 0.0385042 6.77489 0
M  V30 2176 H 210.084 1.55691 6.90772 0
M  V30 2177 H 210.492 0.370516 5.63283 0
M  V30 2178 N 209.89 -1.43072 0.660911 0
M  V30 2179 C 211.136 -2.0202 0.177708 0
M  V30 2180 C 211.469 -1.52066 -1.20787 0
M  V30 2181 O 210.744 -0.716987 -1.80802 0
M  V30 2182 C 211.027 -3.59561 0.197019 0
M  V30 2183 C 210.88 -4.19727 1.61706 0
M  V30 2184 C 212.199 -4.37664 -0.462396 0
M  V30 2185 H 209.318 -0.734034 0.0660494 0
M  V30 2186 H 211.96 -1.70272 0.843058 0
M  V30 2187 H 210.11 -3.86739 -0.369527 0
M  V30 2188 H 211.782 -4.03553 2.23479 0
M  V30 2189 H 210.025 -3.76084 2.16201 0
M  V30 2190 H 210.696 -5.28834 1.58237 0
M  V30 2191 H 213.172 -4.16095 0.0197215 0
M  V30 2192 H 212.048 -5.47305 -0.418188 0
M  V30 2193 H 212.309 -4.14493 -1.53778 0
M  V30 2194 N 211.368 -0.403325 -1.52352 0
M  V30 2195 C 212.616 0.174003 -2.0135 0
M  V30 2196 C 212.937 1.46139 -1.29106 0
M  V30 2197 O 212.207 1.91448 -0.415253 0
M  V30 2198 H 210.787 0.0672911 -0.743963 0
M  V30 2199 H 213.449 -0.538235 -1.87321 0
M  V30 2200 H 212.545 0.374254 -3.09848 0
M  V30 2201 N 212.846 1.57033 -0.133567 0
M  V30 2202 C 214.092 1.95976 0.521649 0
M  V30 2203 C 214.425 1.01779 1.65393 0
M  V30 2204 O 213.7 0.0576581 1.94415 0
M  V30 2205 C 213.983 3.44738 1.04057 0
M  V30 2206 C 213.836 4.49711 -0.0892897 0
M  V30 2207 C 215.155 3.95682 1.92675 0
M  V30 2208 H 212.274 0.712579 0.188149 0
M  V30 2209 H 214.916 1.88813 -0.212076 0
M  V30 2210 H 213.066 3.50973 1.66583 0
M  V30 2211 H 214.738 4.55565 -0.725152 0
M  V30 2212 H 212.981 4.27261 -0.750378 0
M  V30 2213 H 213.652 5.51099 0.315284 0
M  V30 2214 H 216.128 3.91841 1.39998 0
M  V30 2215 H 215.004 5.00262 2.25897 0
M  V30 2216 H 215.265 3.37239 2.85872 0
M  V30 2217 N 214.325 -0.140222 1.56975 0
M  V30 2218 C 215.255 -1.17456 2.01808 0
M  V30 2219 C 216.236 -1.44415 0.898794 0
M  V30 2220 O 217.421 -1.5522 1.16707 0
M  V30 2221 C 214.551 -2.50607 2.40444 0
M  V30 2222 C 213.505 -2.38155 3.55621 0
M  V30 2223 C 212.831 -3.76078 3.80091 0
M  V30 2224 C 214.131 -1.85991 4.88062 0
M  V30 2225 H 215.825 -0.801743 2.88466 0
M  V30 2226 H 213.371 -0.38422 1.38779 0
M  V30 2227 H 215.324 -3.23197 2.7041 0
M  V30 2228 H 214.048 -2.89737 1.50732 0
M  V30 2229 H 212.707 -1.68016 3.25832 0
M  V30 2230 H 212.355 -4.12656 2.87618 0
M  V30 2231 H 212.055 -3.68606 4.57606 0
M  V30 2232 H 213.579 -4.50206 4.12488 0
M  V30 2233 H 214.993 -2.4838 5.16701 0
M  V30 2234 H 213.39 -1.89393 5.6943 0
M  V30 2235 H 214.46 -0.816023 4.77984 0
M  V30 2236 N 215.803 -1.52179 -0.40978 0
M  V30 2237 C 216.733 -1.78435 -1.5061 0
M  V30 2238 C 217.714 -0.635295 -1.57791 0
M  V30 2239 O 218.899 -0.880823 -1.73076 0
M  V30 2240 C 216.029 -1.93444 -2.88439 0
M  V30 2241 C 214.983 -3.09038 -2.96108 0
M  V30 2242 C 214.309 -3.09268 -4.36185 0
M  V30 2243 C 215.609 -4.48508 -2.67652 0
M  V30 2244 H 217.303 -2.70237 -1.28889 0
M  V30 2245 H 214.849 -1.30036 -0.618605 0
M  V30 2246 H 216.802 -2.10394 -3.65119 0
M  V30 2247 H 215.526 -0.983129 -3.11452 0
M  V30 2248 H 214.185 -2.91837 -2.21872 0
M  V30 2249 H 213.833 -2.11861 -4.56206 0
M  V30 2250 H 213.533 -3.86907 -4.42241 0
M  V30 2251 H 215.057 -3.28348 -5.14801 0
M  V30 2252 H 216.471 -4.65918 -3.34056 0
M  V30 2253 H 214.868 -5.28059 -2.85085 0
M  V30 2254 H 215.938 -4.56649 -1.63095 0
M  V30 2255 N 217.281 0.66697 -1.42791 0
M  V30 2256 C 218.529 1.42417 -1.43394 0
M  V30 2257 C 218.85 1.94925 -0.0542373 0
M  V30 2258 O 218.12 1.73564 0.908415 0
M  V30 2259 H 216.7 0.528515 -0.527902 0
M  V30 2260 H 219.362 0.787562 -1.78279 0
M  V30 2261 H 218.458 2.27333 -2.13837 0
M  V30 2262 N 218.759 1.29093 0.90403 0
M  V30 2263 C 219.722 1.1386 1.98919 0
M  V30 2264 C 220.722 0.0753457 1.60623 0
M  V30 2265 O 221.912 0.321931 1.71199 0
M  V30 2266 C 219.044 0.740198 3.32767 0
M  V30 2267 H 220.237 2.10246 2.13861 0
M  V30 2268 H 217.79 1.12218 1.08797 0
M  V30 2269 H 218.525 -0.223997 3.23525 0
M  V30 2270 H 218.31 1.50838 3.61926 0
M  V30 2271 H 219.8 0.656546 4.12407 0
M  V30 2272 N 220.237 -1.11381 1.11499 0
M  V30 2273 C 221.17 -2.16621 0.71769 0
M  V30 2274 C 222.148 -1.60058 -0.286413 0
M  V30 2275 O 223.332 -1.87613 -0.182689 0
M  V30 2276 C 220.459 -3.38646 0.0607265 0
M  V30 2277 C 219.505 -4.13874 1.03008 0
M  V30 2278 S 220.338 -4.70731 2.55289 0
M  V30 2279 C 221.494 -5.96079 1.90895 0
M  V30 2280 H 221.727 -2.49987 1.60915 0
M  V30 2281 H 219.26 -1.23015 0.933092 0
M  V30 2282 H 221.218 -4.09313 -0.311965 0
M  V30 2283 H 219.879 -3.03537 -0.807702 0
M  V30 2284 H 219.072 -5.01333 0.517853 0
M  V30 2285 H 218.674 -3.4897 1.34522 0
M  V30 2286 H 220.966 -6.65948 1.24577 0
M  V30 2287 H 221.909 -6.51946 2.76354 0
M  V30 2288 H 222.317 -5.47652 1.36885 0
M  V30 2289 N 221.715 -0.905404 -1.28997 0
M  V30 2290 C 222.961 -0.535039 -1.95615 0
M  V30 2291 C 223.294 0.917404 -1.71165 0
M  V30 2292 O 222.569 1.65123 -1.02785 0
M  V30 2293 C 222.852 -0.834918 -3.50287 0
M  V30 2294 C 222.705 -2.33948 -3.84172 0
M  V30 2295 C 224.024 -0.325318 -4.38896 0
M  V30 2296 H 221.143 -0.195861 -0.710498 0
M  V30 2297 H 223.785 -1.13313 -1.52513 0
M  V30 2298 H 221.935 -0.325904 -3.87131 0
M  V30 2299 H 223.607 -2.91847 -3.57243 0
M  V30 2300 H 221.85 -2.79789 -3.31513 0
M  V30 2301 H 222.521 -2.49987 -4.92149 0
M  V30 2302 H 224.997 -0.761256 -4.09077 0
M  V30 2303 H 223.873 -0.564295 -5.45992 0
M  V30 2304 H 224.134 0.774144 -4.35269 0
M  V30 2305 N 223.193 1.4272 -0.668489 0
M  V30 2306 C 224.44 2.01624 -0.18814 0
M  V30 2307 C 224.768 1.5282 1.20317 0
M  V30 2308 O 224.023 0.718323 1.8204 0
M  V30 2309 C 224.322 3.57021 -0.164499 0
M  V30 2310 C 223.988 4.25232 -1.49962 0
M  V30 2311 C 222.65 4.4358 -1.8652 0
M  V30 2312 C 225.002 4.63727 -2.37921 0
M  V30 2313 C 222.33 4.97694 -3.10674 0
M  V30 2314 C 224.682 5.19218 -3.6138 0
M  V30 2315 C 223.346 5.3578 -3.98115 0
M  V30 2316 H 222.616 0.737795 -0.0688454 0
M  V30 2317 H 225.263 1.70991 -0.862225 0
M  V30 2318 H 223.568 3.87285 0.593079 0
M  V30 2319 H 225.265 4.00372 0.224271 0
M  V30 2320 H 221.855 4.11306 -1.20522 0
M  V30 2321 H 226.039 4.4923 -2.10964 0
M  V30 2322 H 221.295 5.08702 -3.39164 0
M  V30 2323 H 225.469 5.4799 -4.29743 0
M  V30 2324 H 223.096 5.77475 -4.94395 0
M  V30 2325 N 224.671 0.411399 1.52136 0
M  V30 2326 C 225.919 -0.163322 2.01439 0
M  V30 2327 C 226.24 -1.45453 1.29879 0
M  V30 2328 O 225.51 -1.91225 0.4254 0
M  V30 2329 H 224.09 -0.0633447 0.744309 0
M  V30 2330 H 226.752 0.548161 1.87033 0
M  V30 2331 H 225.848 -0.357817 3.10042 0
M  V30 2332 N 226.149 -1.5696 0.141893 0
M  V30 2333 C 227.379 -2.00031 -0.516828 0
M  V30 2334 C 227.787 -1.02091 -1.59293 0
M  V30 2335 O 227.13 -0.00909657 -1.83698 0
M  V30 2336 C 227.192 -3.39534 -1.1814 0
M  V30 2337 C 226.856 -4.56313 -0.250513 0
M  V30 2338 C 227.853 -5.17295 0.519839 0
M  V30 2339 C 225.538 -5.02061 -0.154907 0
M  V30 2340 C 227.532 -6.2243 1.3733 0
M  V30 2341 C 225.219 -6.07053 0.702161 0
M  V30 2342 C 226.217 -6.67106 1.46487 0
M  V30 2343 O 225.905 -7.70066 2.30767 0
M  V30 2344 H 225.637 -0.661451 -0.139493 0
M  V30 2345 H 228.191 -2.04086 0.231926 0
M  V30 2346 H 226.421 -3.32302 -1.97769 0
M  V30 2347 H 228.11 -3.66745 -1.73933 0
M  V30 2348 H 228.876 -4.82852 0.45598 0
M  V30 2349 H 224.755 -4.5505 -0.7383 0
M  V30 2350 H 228.299 -6.69233 1.96909 0
M  V30 2351 H 224.196 -6.40923 0.76733 0
M  V30 2352 H 224.964 -7.87264 2.23959 0
M  V30 2353 N 227.627 0.131896 -1.57047 0
M  V30 2354 C 228.557 1.16384 -2.02428 0
M  V30 2355 C 229.538 1.43936 -0.90644 0
M  V30 2356 O 230.723 1.54599 -1.17528 0
M  V30 2357 C 227.853 2.49328 -2.4177 0
M  V30 2358 C 226.807 2.36266 -3.56879 0
M  V30 2359 C 226.133 3.74057 -3.8208 0
M  V30 2360 C 227.433 1.834 -4.89042 0
M  V30 2361 H 229.127 0.786433 -2.88887 0
M  V30 2362 H 226.673 0.376855 -1.38981 0
M  V30 2363 H 228.626 3.21759 -2.7212 0
M  V30 2364 H 227.35 2.88934 -1.52266 0
M  V30 2365 H 226.009 1.66286 -3.26718 0
M  V30 2366 H 225.657 4.11125 -2.89803 0
M  V30 2367 H 225.357 3.66174 -4.59554 0
M  V30 2368 H 226.881 4.48012 -4.1487 0
M  V30 2369 H 228.295 2.45636 -5.18011 0
M  V30 2370 H 226.692 1.8637 -5.70426 0
M  V30 2371 H 227.762 0.790662 -4.7841 0
M  V30 2372 N 229.106 1.52395 0.401703 0
M  V30 2373 C 230.069 1.75636 1.47257 0
M  V30 2374 C 231.069 0.62628 1.48103 0
M  V30 2375 O 232.259 0.894227 1.49497 0
M  V30 2376 C 229.391 1.84553 2.86624 0
M  V30 2377 H 230.584 2.71241 1.27938 0
M  V30 2378 H 228.137 1.42923 0.632662 0
M  V30 2379 H 228.872 0.908882 3.11303 0
M  V30 2380 H 228.657 2.66715 2.87412 0
M  V30 2381 H 230.147 2.04251 3.64241 0
M  V30 2382 N 230.584 -0.659388 1.43143 0
M  V30 2383 C 231.861 -1.41627 1.34912 0
M  V30 2384 C 232.241 -2.11099 -0.00607785 0
M  V30 2385 O 231.589 -2.04353 -1.02236 0
M  V30 2386 C 231.799 -2.40604 2.52805 0
M  V30 2387 C 233.147 -3.04789 2.95616 0
M  V30 2388 O 234.171 -2.50932 2.52807 0
M  V30 2389 O 233.03 -4.02421 3.69756 0
M  V30 2390 H 230.124 -0.63246 0.532844 0
M  V30 2391 H 232.67 -0.686814 1.5518 0
M  V30 2392 H 231.442 -1.88174 3.43083 0
M  V30 2393 H 231.065 -3.21009 2.34604 0
M  V30 2394 N 232.062 -1.29571 -0.897171 0
M  V30 2395 C 233.478 -1.07637 -1.17841 0
M  V30 2396 C 233.678 0.170713 -2.00776 0
M  V30 2397 O 232.734 0.867768 -2.3712 0
M  V30 2398 C 234.047 -2.3332 -1.8969 0
M  V30 2399 C 235.595 -2.38664 -2.02505 0
M  V30 2400 C 236.07 -3.64157 -2.77765 0
M  V30 2401 N 237.561 -3.64894 -2.85318 0
M  V30 2402 C 238.296 -4.58679 -3.44094 0
M  V30 2403 N 237.792 -5.62799 -4.04017 0
M  V30 2404 N 239.585 -4.46245 -3.41793 0
M  V30 2405 H 231.736 -2.09598 -0.343883 0
M  V30 2406 H 233.999 -0.923333 -0.214848 0
M  V30 2407 H 233.705 -3.24262 -1.36187 0
M  V30 2408 H 233.579 -2.41025 -2.9015 0
M  V30 2409 H 235.966 -1.48208 -2.55183 0
M  V30 2410 H 236.047 -2.34943 -1.01171 0
M  V30 2411 H 235.691 -4.54965 -2.25763 0
M  V30 2412 H 235.621 -3.65137 -3.7945 0
M  V30 2413 H 238.112 -2.89613 -2.42761 0
M  V30 2414 H 238.425 -6.3048 -4.46895 0
M  V30 2415 H 236.77 -5.66605 -4.02472 0
M  V30 2416 H 239.961 -3.64094 -2.94199 0
M  V30 2417 H 240.134 -5.19518 -3.87304 0
M  V30 2418 N 233.54 1.10788 -1.12088 0
M  V30 2419 C 234.47 2.19083 -0.807755 0
M  V30 2420 C 235.451 1.6858 0.226859 0
M  V30 2421 O 236.636 1.93997 0.0888475 0
M  V30 2422 C 233.766 3.46344 -0.257576 0
M  V30 2423 C 232.72 4.101 -1.22483 0
M  V30 2424 C 232.046 5.32016 -0.535052 0
M  V30 2425 C 233.346 4.54236 -2.57811 0
M  V30 2426 H 235.04 2.45534 -1.71328 0
M  V30 2427 H 232.586 1.1801 -0.825205 0
M  V30 2428 H 234.539 4.21392 -0.0262679 0
M  V30 2429 H 233.263 3.19373 0.683278 0
M  V30 2430 H 231.922 3.37054 -1.44189 0
M  V30 2431 H 231.57 5.01319 0.410827 0
M  V30 2432 H 231.27 5.75625 -1.18024 0
M  V30 2433 H 232.794 6.09799 -0.312695 0
M  V30 2434 H 234.208 5.20575 -2.40155 0
M  V30 2435 H 232.605 5.08682 -3.18375 0
M  V30 2436 H 233.675 3.6734 -3.16528 0
M  V30 2437 N 235.018 0.912232 1.28515 0
M  V30 2438 C 236.266 0.543523 1.94654 0
M  V30 2439 C 236.587 -0.9155 1.72173 0
M  V30 2440 O 235.857 -1.64708 1.06058 0
M  V30 2441 H 234.437 0.198017 0.720277 0
M  V30 2442 H 237.099 1.16126 1.56527 0
M  V30 2443 H 236.195 0.736684 3.03281 0
M  V30 2444 N 236.496 -1.42363 0.676048 0
M  V30 2445 C 237.912 -1.55811 0.345718 0
M  V30 2446 C 238.112 -1.65544 -1.14879 0
M  V30 2447 O 237.168 -1.62306 -1.93424 0
M  V30 2448 C 238.481 -2.80746 1.07713 0
M  V30 2449 C 240.029 -2.9452 1.05958 0
M  V30 2450 C 240.504 -4.22318 1.77233 0
M  V30 2451 N 241.995 -4.29233 1.74108 0
M  V30 2452 C 242.73 -5.26935 2.26113 0
M  V30 2453 N 242.226 -6.30783 2.86505 0
M  V30 2454 N 244.019 -5.18741 2.1648 0
M  V30 2455 H 236.17 -1.34289 1.6456 0
M  V30 2456 H 238.433 -0.646506 0.69335 0
M  V30 2457 H 238.139 -2.79696 2.13221 0
M  V30 2458 H 238.013 -3.71676 0.64316 0
M  V30 2459 H 240.4 -2.95097 0.0128255 0
M  V30 2460 H 240.481 -2.04817 1.53244 0
M  V30 2461 H 240.125 -4.22502 2.81877 0
M  V30 2462 H 240.055 -5.10958 1.27396 0
M  V30 2463 H 242.546 -3.54814 1.30059 0
M  V30 2464 H 242.859 -7.01691 3.23805 0
M  V30 2465 H 241.204 -6.31341 2.90575 0
M  V30 2466 H 244.395 -4.36533 1.68987 0
M  V30 2467 H 244.568 -5.94721 2.57316 0
M  V30 2468 N 237.974 -0.419461 -1.51915 0
M  V30 2469 C 239.39 -0.0708431 -1.59443 0
M  V30 2470 C 239.59 1.41796 -1.43164 0
M  V30 2471 O 238.646 2.18596 -1.26381 0
M  V30 2472 C 239.959 -0.574991 -2.95151 0
M  V30 2473 C 241.507 -0.533867 -3.08413 0
M  V30 2474 C 241.982 -1.01469 -4.46618 0
M  V30 2475 N 243.473 -0.971939 -4.52888 0
M  V30 2476 C 244.208 -1.31505 -5.58116 0
M  V30 2477 N 243.704 -1.73014 -6.70849 0
M  V30 2478 N 245.497 -1.23436 -5.48379 0
M  V30 2479 H 237.648 -1.38836 -1.60743 0
M  V30 2480 H 239.911 -0.570998 -0.756747 0
M  V30 2481 H 239.617 -1.61597 -3.12377 0
M  V30 2482 H 239.491 0.00979777 -3.77199 0
M  V30 2483 H 241.878 0.498086 -2.90866 0
M  V30 2484 H 241.959 -1.15484 -2.28248 0
M  V30 2485 H 241.603 -2.04502 -4.6491 0
M  V30 2486 H 241.533 -0.370433 -5.25295 0
M  V30 2487 H 244.024 -0.666893 -3.71969 0
M  V30 2488 H 244.337 -1.97479 -7.47143 0
M  V30 2489 H 242.682 -1.76926 -6.72103 0
M  V30 2490 H 245.873 -0.908869 -4.59192 0
M  V30 2491 H 246.046 -1.50506 -6.30279 0
M  V30 2492 N 239.452 1.56882 -0.150215 0
M  V30 2493 C 240.399 2.16922 0.788244 0
M  V30 2494 C 241.369 1.10303 1.24187 0
M  V30 2495 O 242.554 1.38359 1.31383 0
M  V30 2496 C 239.694 2.79754 2.02068 0
M  V30 2497 C 238.807 4.00775 1.61257 0
M  V30 2498 C 237.942 4.51595 2.79705 0
M  V30 2499 C 236.981 5.65074 2.35282 0
M  V30 2500 N 236.118 6.10499 3.4675 0
M  V30 2501 H 240.958 2.96779 0.269444 0
M  V30 2502 H 238.495 1.46599 0.12128 0
M  V30 2503 H 240.453 3.14329 2.74323 0
M  V30 2504 H 239.083 2.02536 2.51354 0
M  V30 2505 H 238.135 3.72158 0.787553 0
M  V30 2506 H 239.447 4.82978 1.24633 0
M  V30 2507 H 238.601 4.88242 3.60145 0
M  V30 2508 H 237.34 3.68406 3.19576 0
M  V30 2509 H 236.345 5.28 1.53283 0
M  V30 2510 H 237.57 6.50052 1.96493 0
M  V30 2511 H 235.516 5.30243 3.86236 0
M  V30 2512 H 235.433 6.87637 3.14152 0
M  V30 2513 H 236.701 6.51791 4.27537 0
M  V30 2514 N 240.93 -0.123565 1.57115 0
M  V30 2515 C 242.176 -0.833386 1.84885 0
M  V30 2516 C 242.509 -1.79742 0.735292 0
M  V30 2517 O 241.784 -1.92764 -0.25925 0
M  V30 2518 C 242.067 -1.5873 3.23228 0
M  V30 2519 C 241.92 -0.643183 4.45178 0
M  V30 2520 C 243.239 -2.54453 3.59085 0
M  V30 2521 H 240.358 -0.301518 0.6725 0
M  V30 2522 H 243 -0.097778 1.89748 0
M  V30 2523 H 241.15 -2.21438 3.19214 0
M  V30 2524 H 242.822 -0.0253015 4.61293 0
M  V30 2525 H 241.065 0.0456139 4.33776 0
M  V30 2526 H 241.736 -1.20724 5.38637 0
M  V30 2527 H 244.212 -2.01853 3.63861 0
M  V30 2528 H 243.088 -3.04238 4.5687 0
M  V30 2529 H 243.349 -3.36906 2.86264 0
M  V30 2530 N 242.408 -1.52605 -0.393616 0
M  V30 2531 C 243.338 -1.80022 -1.48709 0
M  V30 2532 C 244.319 -0.651995 -1.57108 0
M  V30 2533 O 245.504 -0.89913 -1.72132 0
M  V30 2534 C 242.634 -1.96492 -2.86371 0
M  V30 2535 C 241.588 -3.12161 -2.92813 0
M  V30 2536 C 240.914 -3.13877 -4.3288 0
M  V30 2537 C 242.214 -4.51322 -2.6288 0
M  V30 2538 H 243.908 -2.71589 -1.26015 0
M  V30 2539 H 241.454 -1.30684 -0.604778 0
M  V30 2540 H 243.407 -2.14255 -3.62867 0
M  V30 2541 H 242.131 -1.01611 -3.10391 0
M  V30 2542 H 240.79 -2.94173 -2.18764 0
M  V30 2543 H 240.438 -2.16687 -4.53933 0
M  V30 2544 H 240.138 -3.91576 -4.38112 0
M  V30 2545 H 241.662 -3.33789 -5.1129 0
M  V30 2546 H 243.076 -4.69435 -3.29096 0
M  V30 2547 H 241.473 -5.31053 -2.79468 0
M  V30 2548 H 242.543 -4.58353 -1.58242 0
M  V30 2549 N 243.887 0.651787 -1.4349 0
M  V30 2550 C 245.136 1.40754 -1.44469 0
M  V30 2551 C 245.449 1.95463 -0.0731845 0
M  V30 2552 O 246.655 2.71471 0.0395721 0
M  V30 2553 C 245.111 2.54735 -2.5424 0
M  V30 2554 C 244.719 2.06628 -3.97504 0
M  V30 2555 C 246.463 3.32092 -2.64414 0
M  V30 2556 C 244.37 3.17829 -4.98737 0
M  V30 2557 H 243.3 0.528862 -0.53742 0
M  V30 2558 H 245.951 0.703365 -1.69485 0
M  V30 2559 H 244.333 3.2763 -2.22428 0
M  V30 2560 H 245.507 1.40734 -4.38783 0
M  V30 2561 H 243.822 1.42146 -3.91387 0
M  V30 2562 H 246.419 4.14952 -3.37223 0
M  V30 2563 H 246.762 3.80217 -1.69532 0
M  V30 2564 H 247.295 2.66279 -2.95534 0
M  V30 2565 H 244.034 2.74671 -5.95177 0
M  V30 2566 H 243.554 3.82429 -4.62069 0
M  V30 2567 H 245.233 3.82937 -5.21505 0
M  V30 2568 N 245.365 1.30045 0.890287 0
M  V30 2569 C 246.295 1.18541 2.01172 0
M  V30 2570 C 247.276 0.0773356 1.69924 0
M  V30 2571 O 248.461 0.25845 1.92473 0
M  V30 2572 C 245.591 0.870941 3.36202 0
M  V30 2573 C 244.545 1.93637 3.81692 0
M  V30 2574 C 243.871 1.475 5.13953 0
M  V30 2575 C 245.171 3.34666 4.00994 0
M  V30 2576 H 246.865 2.12359 2.11054 0
M  V30 2577 H 244.411 1.02238 1.01407 0
M  V30 2578 H 246.364 0.777141 4.14172 0
M  V30 2579 H 245.088 -0.102926 3.26438 0
M  V30 2580 H 243.747 2.01972 3.05946 0
M  V30 2581 H 243.395 0.489551 5.00612 0
M  V30 2582 H 243.095 2.1876 5.4536 0
M  V30 2583 H 244.619 1.39489 5.94454 0
M  V30 2584 H 246.033 3.2912 4.69417 0
M  V30 2585 H 244.43 4.03966 4.43769 0
M  V30 2586 H 245.5 3.76949 3.05021 0
M  V30 2587 N 246.843 -1.10192 1.12674 0
M  V30 2588 C 247.791 -2.18694 0.792196 0
M  V30 2589 C 248.785 -1.67938 -0.222058 0
M  V30 2590 O 249.991 -1.79822 -0.0800074 0
M  V30 2591 H 246.366 -0.713223 0.238364 0
M  V30 2592 H 248.337 -2.44149 1.71564 0
M  V30 2593 C 247.086 -3.46682 0.265859 0
M  V30 2594 H 246.409 -3.86101 1.03761 0
M  V30 2595 H 247.849 -4.23942 0.0701128 0
M  V30 2596 C 246.308 -3.21506 -1.00675 0
M  V30 2597 O 246.838 -3.43408 -2.08408 0
M  V30 2598 N 245.044 -2.75158 -0.934692 0
M  V30 2599 H 244.591 -2.57535 -0.0578604 0
M  V30 2600 H 244.549 -2.58691 -1.7868 0
M  V30 2601 N 248.321 -0.919034 -1.28029 0
M  V30 2602 C 249.551 -0.570143 -1.98577 0
M  V30 2603 C 249.959 0.854172 -1.68821 0
M  V30 2604 O 249.302 1.57807 -0.940351 0
M  V30 2605 C 249.364 -0.705734 -3.52505 0
M  V30 2606 C 249.028 -2.10057 -4.05863 0
M  V30 2607 C 250.025 -3.07385 -4.19298 0
M  V30 2608 C 247.71 -2.41517 -4.40426 0
M  V30 2609 C 249.704 -4.34287 -4.66555 0
M  V30 2610 C 247.391 -3.68657 -4.87376 0
M  V30 2611 C 248.389 -4.64856 -5.00398 0
M  V30 2612 O 248.077 -5.89735 -5.46322 0
M  V30 2613 H 247.809 -0.215592 -0.6407 0
M  V30 2614 H 250.363 -1.23583 -1.64062 0
M  V30 2615 H 248.593 0.0170414 -3.86696 0
M  V30 2616 H 250.282 -0.363172 -4.04272 0
M  V30 2617 H 251.048 -2.84398 -3.92865 0
M  V30 2618 H 246.927 -1.67389 -4.29537 0
M  V30 2619 H 250.471 -5.09377 -4.76635 0
M  V30 2620 H 246.368 -3.91466 -5.13249 0
M  V30 2621 H 247.136 -5.92599 -5.64596 0
M  V30 2622 N 249.799 1.42003 -0.683588 0
M  V30 2623 C 250.729 2.33487 -0.024866 0
M  V30 2624 C 251.71 1.51163 0.779975 0
M  V30 2625 O 252.895 1.79739 0.735362 0
M  V30 2626 C 250.025 3.3487 0.920836 0
M  V30 2627 C 248.979 4.27414 0.223958 0
M  V30 2628 C 248.305 5.19074 1.2832 0
M  V30 2629 C 249.605 5.14445 -0.90242 0
M  V30 2630 H 251.299 2.88819 -0.788921 0
M  V30 2631 H 248.845 1.38873 -0.38083 0
M  V30 2632 H 250.798 3.97787 1.39081 0
M  V30 2633 H 249.522 2.77861 1.71642 0
M  V30 2634 H 248.181 3.65904 -0.225864 0
M  V30 2635 H 247.829 4.58387 2.071 0
M  V30 2636 H 247.529 5.81822 0.821995 0
M  V30 2637 H 249.053 5.84867 1.75392 0
M  V30 2638 H 250.467 5.70998 -0.513272 0
M  V30 2639 H 248.864 5.86072 -1.28997 0
M  V30 2640 H 249.934 4.52322 -1.74737 0
M  V30 2641 N 251.277 0.427512 1.51691 0
M  V30 2642 C 252.209 -0.424521 2.25234 0
M  V30 2643 C 253.222 -0.994671 1.2888 0
M  V30 2644 O 254.411 -0.890483 1.54702 0
M  V30 2645 C 251.511 -1.60479 2.98496 0
M  V30 2646 C 250.684 -1.15527 4.21868 0
M  V30 2647 C 249.743 -2.20454 4.77793 0
M  V30 2648 O 248.769 -1.8029 5.39893 0
M  V30 2649 N 249.971 -3.52831 4.60967 0
M  V30 2650 H 252.736 0.205749 2.98993 0
M  V30 2651 H 250.297 0.255867 1.59865 0
M  V30 2652 H 252.289 -2.30276 3.32799 0
M  V30 2653 H 250.859 -2.14061 2.27809 0
M  V30 2654 H 250.079 -0.284736 3.9317 0
M  V30 2655 H 251.367 -0.832173 5.01949 0
M  V30 2656 H 250.765 -3.88201 4.11481 0
M  V30 2657 H 249.322 -4.18551 4.99658 0
M  V30 2658 N 252.755 -1.56801 0.158532 0
M  V30 2659 C 253.983 -2.00859 -0.496303 0
M  V30 2660 C 254.398 -1.03871 -1.57659 0
M  V30 2661 O 253.755 -0.0375165 -1.82461 0
M  V30 2662 C 253.806 -3.4479 -1.08638 0
M  V30 2663 O 253.527 -4.38072 -0.0492322 0
M  V30 2664 C 255.028 -4.04185 -1.8207 0
M  V30 2665 H 252.248 -0.65864 -0.128199 0
M  V30 2666 H 254.792 -2.02885 0.256506 0
M  V30 2667 H 252.947 -3.43579 -1.78975 0
M  V30 2668 H 253.361 -5.2227 -0.483102 0
M  V30 2669 H 254.835 -5.06857 -2.18633 0
M  V30 2670 H 255.312 -3.45549 -2.71095 0
M  V30 2671 H 255.918 -4.0906 -1.16405 0
M  V30 2672 N 254.233 0.115231 -1.57178 0
M  V30 2673 C 255.196 1.12526 -1.99676 0
M  V30 2674 C 256.196 1.34095 -0.88742 0
M  V30 2675 O 257.386 1.30548 -1.15337 0
M  V30 2676 C 254.518 2.4789 -2.34015 0
M  V30 2677 H 255.711 0.759912 -2.90113 0
M  V30 2678 H 253.264 0.359648 -1.52106 0
M  V30 2679 H 253.999 2.89339 -1.4647 0
M  V30 2680 H 253.784 2.33588 -3.14927 0
M  V30 2681 H 255.274 3.20575 -2.67622 0
M  V30 2682 N 255.711 1.52812 0.385517 0
M  V30 2683 C 256.957 1.68275 1.13188 0
M  V30 2684 C 257.29 0.423179 1.89533 0
M  V30 2685 O 256.565 -0.579113 1.85679 0
M  V30 2686 C 256.848 2.92001 2.1073 0
M  V30 2687 C 256.701 4.28067 1.38125 0
M  V30 2688 C 258.02 3.11283 3.11113 0
M  V30 2689 H 255.139 0.612352 0.410115 0
M  V30 2690 H 257.781 1.85415 0.414869 0
M  V30 2691 H 255.931 2.77519 2.71874 0
M  V30 2692 H 257.603 4.54324 0.799187 0
M  V30 2693 H 255.846 4.28388 0.683092 0
M  V30 2694 H 256.517 5.10733 2.09417 0
M  V30 2695 H 258.993 3.2482 2.6006 0
M  V30 2696 H 257.869 3.99325 3.76605 0
M  V30 2697 H 258.13 2.25656 3.80173 0
M  V30 2698 N 257.189 -0.644168 1.43834 0
M  V30 2699 C 258.414 -1.43642 1.49605 0
M  V30 2700 C 258.839 -1.8773 0.117913 0
M  V30 2701 O 258.197 -1.57938 -0.890239 0
M  V30 2702 C 258.245 -2.6416 2.45463 0
M  V30 2703 O 257.349 -3.63538 1.94714 0
M  V30 2704 H 256.69 -0.430329 0.50568 0
M  V30 2705 H 259.22 -0.787448 1.8884 0
M  V30 2706 H 259.23 -3.11864 2.63068 0
M  V30 2707 H 257.905 -2.31414 3.45572 0
M  V30 2708 H 256.482 -3.2273 1.86814 0
M  V30 2709 N 258.668 -1.30515 -0.883378 0
M  V30 2710 C 259.916 -1.19194 -1.63209 0
M  V30 2711 C 260.237 0.253205 -1.93349 0
M  V30 2712 O 259.507 1.17025 -1.57105 0
M  V30 2713 H 258.087 -0.438148 -0.605009 0
M  V30 2714 H 260.749 -1.63663 -1.05832 0
M  V30 2715 H 259.845 -1.75396 -2.58153 0
M  V30 2716 N 260.146 1.09593 -1.13257 0
M  V30 2717 C 261.374 1.855 -0.916378 0
M  V30 2718 C 261.789 1.81069 0.534738 0
M  V30 2719 O 261.146 1.20562 1.37007 0
M  V30 2720 C 261.197 3.33546 -1.39388 0
M  V30 2721 O 260.918 3.37927 -2.78813 0
M  V30 2722 C 262.419 4.26299 -1.21588 0
M  V30 2723 H 259.639 0.585991 -0.326887 0
M  V30 2724 H 262.183 1.38488 -1.5047 0
M  V30 2725 H 260.338 3.77992 -0.848597 0
M  V30 2726 H 260.752 4.30254 -2.9997 0
M  V30 2727 H 262.226 5.28341 -1.59876 0
M  V30 2728 H 262.703 4.38918 -0.157376 0
M  V30 2729 H 263.309 3.87668 -1.7491 0
M  V30 2730 N 261.624 0.925811 1.2754 0
M  V30 2731 C 262.864 0.572521 1.96218 0
M  V30 2732 C 263.228 -0.869719 1.71172 0
M  V30 2733 O 264.429 -1.33119 2.33523 0
M  V30 2734 C 262.7 0.887325 3.4621 0
M  V30 2735 S 264.259 0.642266 4.34074 0
M  V30 2736 H 261.077 0.211403 0.678845 0
M  V30 2737 H 263.679 1.19384 1.54815 0
M  V30 2738 H 262.383 1.93469 3.61936 0
M  V30 2739 H 261.914 0.255123 3.92572 0
M  V30 2740 H 263.929 -0.500822 4.93666 0
M  V30 2741 N 263.102 -1.41638 0.69111 0
M  V30 2742 C 264.065 -2.29178 0.0319786 0
M  V30 2743 C 265.065 -1.44153 -0.712496 0
M  V30 2744 O 266.255 -1.65354 -0.548053 0
M  V30 2745 C 263.387 -3.26952 -0.965161 0
M  V30 2746 H 264.58 -2.88959 0.802681 0
M  V30 2747 H 262.133 -1.4955 0.454356 0
M  V30 2748 H 262.868 -2.72142 -1.76378 0
M  V30 2749 H 262.653 -3.89685 -0.434522 0
M  V30 2750 H 264.143 -3.92561 -1.42428 0
M  V30 2751 N 264.58 -0.43555 -1.51462 0
M  V30 2752 C 265.543 0.365137 -2.26273 0
M  V30 2753 C 266.543 0.951227 -1.29647 0
M  V30 2754 O 267.733 0.825958 -1.53374 0
M  V30 2755 C 264.865 1.51645 -3.05314 0
M  V30 2756 H 266.058 -0.290474 -2.9849 0
M  V30 2757 H 263.611 -0.188676 -1.55157 0
M  V30 2758 H 264.346 2.20816 -2.3751 0
M  V30 2759 H 264.131 1.10238 -3.76284 0
M  V30 2760 H 265.621 2.08218 -3.61987 0
M  V30 2761 N 266.058 1.56714 -0.166846 0
M  V30 2762 C 267.305 1.96747 0.479252 0
M  V30 2763 C 267.633 1.05263 1.63554 0
M  V30 2764 O 266.888 0.0858098 1.95512 0
M  V30 2765 C 267.187 3.42889 1.00806 0
M  V30 2766 C 266.853 4.50889 -0.0318574 0
M  V30 2767 C 265.515 4.8015 -0.317675 0
M  V30 2768 C 267.867 5.15949 -0.737956 0
M  V30 2769 C 265.195 5.71772 -1.31506 0
M  V30 2770 C 267.547 6.08647 -1.72429 0
M  V30 2771 C 266.211 6.36277 -2.0176 0
M  V30 2772 H 265.481 0.719949 0.175371 0
M  V30 2773 H 268.128 1.89756 -0.257864 0
M  V30 2774 H 266.433 3.4681 1.82291 0
M  V30 2775 H 268.13 3.71203 1.51689 0
M  V30 2776 H 264.72 4.28128 0.201088 0
M  V30 2777 H 268.904 4.93458 -0.530351 0
M  V30 2778 H 264.16 5.91465 -1.54853 0
M  V30 2779 H 268.334 6.58129 -2.27682 0
M  V30 2780 H 265.961 7.07075 -2.79194 0
M  V30 2781 N 267.536 -0.106894 1.57237 0
M  V30 2782 C 268.499 -1.11466 2.0027 0
M  V30 2783 C 269.499 -1.33623 0.894519 0
M  V30 2784 O 270.689 -1.29935 1.16028 0
M  V30 2785 C 267.821 -2.46646 2.35327 0
M  V30 2786 H 269.014 -0.744516 2.90512 0
M  V30 2787 H 266.567 -0.351576 1.52295 0
M  V30 2788 H 267.302 -2.88558 1.48003 0
M  V30 2789 H 267.087 -2.31915 3.16161 0
M  V30 2790 H 268.577 -3.19151 2.69318 0
M  V30 2791 N 269.014 -1.53014 -0.377408 0
M  V30 2792 C 270.425 -1.60438 -0.954798 0
M  V30 2793 C 270.776 -0.464418 -1.90624 0
M  V30 2794 O 269.901 0.41087 -2.12464 0
M  V30 2795 C 270.496 -2.90797 -1.73847 0
M  V30 2796 C 269.055 -3.00595 -2.26538 0
M  V30 2797 C 268.202 -2.55645 -1.07429 0
M  V30 2798 H 271.153 -1.57926 -0.156575 0
M  V30 2799 H 271.174 -2.77935 -2.5987 0
M  V30 2800 H 270.686 -3.73746 -1.04574 0
M  V30 2801 H 268.787 -2.22208 -2.99089 0
M  V30 2802 H 268.9 -4.05456 -2.5523 0
M  V30 2803 H 267.264 -2.10239 -1.43777 0
M  V30 2804 H 268.047 -3.41 -0.396728 0
M  V30 2805 N 270.492 0.636531 -1.44174 0
M  V30 2806 C 271.44 1.76995 -1.50915 0
M  V30 2807 C 272.434 1.65053 -0.381295 0
M  V30 2808 O 273.64 1.71197 -0.55601 0
M  V30 2809 H 270.015 0.584247 -0.473455 0
M  V30 2810 H 271.986 1.68432 -2.4632 0
M  V30 2811 C 270.735 3.15314 -1.46534 0
M  V30 2812 H 270.058 3.25149 -2.32633 0
M  V30 2813 H 271.498 3.9453 -1.55312 0
M  V30 2814 C 269.957 3.3639 -0.185305 0
M  V30 2815 O 270.487 3.94699 0.746688 0
M  V30 2816 N 268.693 2.9046 -0.0901606 0
M  V30 2817 H 268.24 2.43193 -0.849416 0
M  V30 2818 H 268.198 3.04937 0.765553 0
M  V30 2819 N 271.97 1.30982 0.876444 0
M  V30 2820 C 273.217 1.20296 1.62896 0
M  V30 2821 C 273.545 -0.240395 1.93009 0
M  V30 2822 O 272.8 -1.18733 1.55567 0
M  V30 2823 C 273.099 1.98572 2.9716 0
M  V30 2824 C 272.765 3.48125 2.86566 0
M  V30 2825 C 271.427 3.88905 2.83383 0
M  V30 2826 C 273.779 4.43322 2.74071 0
M  V30 2827 C 271.107 5.2316 2.65556 0
M  V30 2828 C 273.459 5.77695 2.57781 0
M  V30 2829 C 272.123 6.17704 2.52979 0
M  V30 2830 H 271.393 0.440193 0.59608 0
M  V30 2831 H 274.04 1.62177 1.01837 0
M  V30 2832 H 272.345 1.49352 3.62217 0
M  V30 2833 H 274.042 1.8769 3.54364 0
M  V30 2834 H 270.632 3.15723 2.89856 0
M  V30 2835 H 274.816 4.12752 2.75589 0
M  V30 2836 H 270.072 5.53241 2.60259 0
M  V30 2837 H 274.246 6.51091 2.47089 0
M  V30 2838 H 271.873 7.21678 2.38924 0
M  V30 2839 N 273.449 -1.08991 1.13837 0
M  V30 2840 C 274.86 -1.62746 0.914917 0
M  V30 2841 C 275.211 -1.88403 -0.547594 0
M  V30 2842 O 274.336 -1.63706 -1.41525 0
M  V30 2843 C 274.931 -2.95662 1.65437 0
M  V30 2844 C 273.49 -3.46225 1.47666 0
M  V30 2845 C 272.637 -2.20562 1.6807 0
M  V30 2846 H 275.588 -0.922946 1.29102 0
M  V30 2847 H 275.609 -3.63825 1.11407 0
M  V30 2848 H 275.121 -2.76956 2.71877 0
M  V30 2849 H 273.222 -3.70046 0.435478 0
M  V30 2850 H 273.335 -4.23368 2.24268 0
M  V30 2851 H 271.699 -2.29439 1.10589 0
M  V30 2852 H 272.482 -2.0437 2.7584 0
M  V30 2853 N 274.927 -0.932562 -1.27047 0
M  V30 2854 C 276.176 -0.571351 -1.93439 0
M  V30 2855 C 276.489 0.892467 -1.74053 0
M  V30 2856 O 277.695 1.36267 -2.34826 0
M  V30 2857 C 276.151 -0.97106 -3.46552 0
M  V30 2858 C 275.759 -2.4559 -3.74686 0
M  V30 2859 C 277.503 -0.681333 -4.18997 0
M  V30 2860 C 275.41 -2.79475 -5.21198 0
M  V30 2861 H 274.34 -0.209966 -0.724176 0
M  V30 2862 H 276.991 -1.13403 -1.44263 0
M  V30 2863 H 275.373 -0.336983 -3.94564 0
M  V30 2864 H 276.547 -3.13829 -3.37414 0
M  V30 2865 H 274.862 -2.71802 -3.15456 0
M  V30 2866 H 277.459 -0.910939 -5.26883 0
M  V30 2867 H 277.802 0.381628 -4.14547 0
M  V30 2868 H 278.335 -1.27473 -3.76823 0
M  V30 2869 H 275.074 -3.847 -5.30741 0
M  V30 2870 H 274.594 -2.1589 -5.596 0
M  V30 2871 H 276.273 -2.67478 -5.89122 0
M  V30 2872 N 276.405 1.4127 -0.698611 0
M  V30 2873 C 277.635 2.05205 -0.239644 0
M  V30 2874 C 278.043 1.52684 1.11733 0
M  V30 2875 O 277.386 0.671222 1.70998 0
M  V30 2876 C 277.448 3.59289 -0.123126 0
M  V30 2877 C 277.112 4.34619 -1.41263 0
M  V30 2878 C 278.109 4.63701 -2.35111 0
M  V30 2879 C 275.794 4.73837 -1.66684 0
M  V30 2880 C 277.788 5.30966 -3.52639 0
M  V30 2881 C 275.475 5.40837 -2.84498 0
M  V30 2882 C 276.473 5.69329 -3.77298 0
M  V30 2883 O 276.161 6.34949 -4.93047 0
M  V30 2884 H 275.893 0.66723 -0.108537 0
M  V30 2885 H 278.447 1.81974 -0.952602 0
M  V30 2886 H 276.677 3.81272 0.645628 0
M  V30 2887 H 278.366 4.04797 0.299056 0
M  V30 2888 H 279.132 4.33882 -2.16729 0
M  V30 2889 H 275.011 4.51039 -0.953135 0
M  V30 2890 H 278.555 5.53121 -4.25091 0
M  V30 2891 H 274.452 5.70075 -3.02795 0
M  V30 2892 H 275.22 6.53445 -4.92902 0
M  V30 2893 N 277.883 0.443576 1.51229 0
M  V30 2894 C 279.123 -0.119889 2.04048 0
M  V30 2895 C 279.487 -1.39418 1.32009 0
M  V30 2896 O 280.688 -2.03829 1.75235 0
M  V30 2897 C 278.959 -0.327233 3.55899 0
M  V30 2898 S 280.518 -0.853208 4.30425 0
M  V30 2899 H 277.336 -0.028921 0.710412 0
M  V30 2900 H 279.938 0.604413 1.85922 0
M  V30 2901 H 278.642 0.606445 4.05895 0
M  V30 2902 H 278.173 -1.07844 3.7833 0
M  V30 2903 H 280.188 -2.13005 4.48155 0
M  V30 2904 N 279.361 -1.56624 0.175154 0
M  V30 2905 C 280.324 -2.16934 -0.739738 0
M  V30 2906 C 281.324 -1.11842 -1.15533 0
M  V30 2907 O 282.514 -1.37335 -1.07167 0
M  V30 2908 C 279.646 -2.75531 -2.00738 0
M  V30 2909 H 280.839 -2.99131 -0.214639 0
M  V30 2910 H 278.392 -1.56123 -0.0744197 0
M  V30 2911 H 279.127 -1.97078 -2.57548 0
M  V30 2912 H 278.912 -3.52444 -1.71831 0
M  V30 2913 H 280.402 -3.21904 -2.66021 0
M  V30 2914 N 280.839 0.0985539 -1.57292 0
M  V30 2915 C 282.086 0.802678 -1.85912 0
M  V30 2916 C 282.414 1.78901 -0.763186 0
M  V30 2917 O 281.669 1.94178 0.243559 0
M  V30 2918 C 281.968 1.56927 -3.21105 0
M  V30 2919 C 281.634 0.725376 -4.45027 0
M  V30 2920 C 280.296 0.492726 -4.78671 0
M  V30 2921 C 282.648 0.138493 -5.21016 0
M  V30 2922 C 279.976 -0.336727 -5.85733 0
M  V30 2923 C 282.328 -0.678264 -6.28953 0
M  V30 2924 C 280.992 -0.921039 -6.61115 0
M  V30 2925 H 280.262 0.293721 -0.680301 0
M  V30 2926 H 282.909 0.0642841 -1.91392 0
M  V30 2927 H 281.214 2.37914 -3.11294 0
M  V30 2928 H 282.911 2.11841 -3.40477 0
M  V30 2929 H 279.501 0.916815 -4.18679 0
M  V30 2930 H 283.685 0.305404 -4.95359 0
M  V30 2931 H 278.941 -0.533836 -6.09065 0
M  V30 2932 H 283.115 -1.1399 -6.87007 0
M  V30 2933 H 280.742 -1.56556 -7.43905 0
M  V30 2934 N 282.317 1.53212 0.369288 0
M  V30 2935 C 283.733 1.42902 0.710712 0
M  V30 2936 C 283.933 0.565135 1.93413 0
M  V30 2937 O 282.989 0.0461484 2.52458 0
M  V30 2938 C 284.302 2.86042 0.927382 0
M  V30 2939 C 285.85 2.9565 1.02762 0
M  V30 2940 C 286.325 4.39843 1.27679 0
M  V30 2941 N 287.816 4.43256 1.34457 0
M  V30 2942 C 288.551 5.51929 1.55439 0
M  V30 2943 N 288.047 6.70655 1.73762 0
M  V30 2944 N 289.84 5.39502 1.57779 0
M  V30 2945 H 281.991 2.07888 -0.435457 0
M  V30 2946 H 284.254 0.938661 -0.132739 0
M  V30 2947 H 283.96 3.51557 0.100287 0
M  V30 2948 H 283.834 3.29472 1.83653 0
M  V30 2949 H 286.221 2.30291 1.84527 0
M  V30 2950 H 286.302 2.5562 0.0959504 0
M  V30 2951 H 285.946 5.05774 0.464175 0
M  V30 2952 H 285.876 4.77443 2.22162 0
M  V30 2953 H 288.367 3.5769 1.21926 0
M  V30 2954 H 288.68 7.49248 1.89335 0
M  V30 2955 H 287.025 6.73648 1.70948 0
M  V30 2956 H 290.216 4.45713 1.43029 0
M  V30 2957 H 290.389 6.2426 1.7379 0
M  V30 2958 N 283.795 -0.628877 1.44509 0
M  V30 2959 C 284.725 -1.75187 1.54376 0
M  V30 2960 C 285.706 -1.65411 0.396618 0
M  V30 2961 O 286.891 -1.84137 0.617031 0
M  V30 2962 C 284.021 -3.13725 1.48976 0
M  V30 2963 C 282.975 -3.38291 2.62189 0
M  V30 2964 C 282.301 -4.76883 2.41841 0
M  V30 2965 C 283.601 -3.30632 4.04326 0
M  V30 2966 H 285.295 -1.67187 2.48373 0
M  V30 2967 H 282.841 -0.802909 1.19538 0
M  V30 2968 H 284.794 -3.92064 1.54478 0
M  V30 2969 H 283.518 -3.22515 0.514961 0
M  V30 2970 H 282.177 -2.62334 2.56079 0
M  V30 2971 H 281.825 -4.82378 1.42548 0
M  V30 2972 H 281.525 -4.94278 3.17747 0
M  V30 2973 H 283.049 -5.57449 2.49165 0
M  V30 2974 H 284.463 -3.98873 4.11793 0
M  V30 2975 H 282.86 -3.59561 4.80454 0
M  V30 2976 H 283.93 -2.28404 4.27738 0
M  V30 2977 N 285.273 -1.31445 -0.869486 0
M  V30 2978 C 286.203 -1.21727 -1.99261 0
M  V30 2979 C 287.184 -0.104359 -1.6978 0
M  V30 2980 O 288.369 -0.289038 -1.92037 0
M  V30 2981 C 285.499 -0.924317 -3.34774 0
M  V30 2982 C 284.453 -1.99685 -3.78563 0
M  V30 2983 C 283.779 -1.55658 -5.11541 0
M  V30 2984 C 285.079 -3.41003 -3.95619 0
M  V30 2985 H 286.773 -2.1569 -2.07649 0
M  V30 2986 H 284.319 -1.03839 -0.997675 0
M  V30 2987 H 286.272 -0.842934 -4.12883 0
M  V30 2988 H 284.996 0.0509793 -3.2656 0
M  V30 2989 H 283.655 -2.06813 -3.02694 0
M  V30 2990 H 283.303 -0.569132 -4.9977 0
M  V30 2991 H 283.003 -2.27409 -5.41811 0
M  V30 2992 H 284.527 -1.48928 -5.92159 0
M  V30 2993 H 285.941 -3.36547 -4.64122 0
M  V30 2994 H 284.338 -4.10975 -4.37286 0
M  V30 2995 H 285.408 -3.81754 -2.98985 0
M  V30 2996 N 286.751 1.08385 -1.14413 0
M  V30 2997 C 287.976 1.85057 -0.936413 0
M  V30 2998 C 288.401 1.81055 0.509971 0
M  V30 2999 O 287.759 1.1958 1.36273 0
M  V30 3000 C 287.807 3.30505 -1.44217 0
M  V30 3001 O 286.911 4.07491 -0.634409 0
M  V30 3002 H 286.252 0.573425 -0.334784 0
M  V30 3003 H 288.782 1.36799 -1.52142 0
M  V30 3004 H 288.792 3.81348 -1.45043 0
M  V30 3005 H 287.467 3.32734 -2.49522 0
M  V30 3006 H 286.044 3.66368 -0.694902 0
M  V30 3007 N 288.23 0.939286 1.26551 0
M  V30 3008 C 289.478 0.58469 1.93457 0
M  V30 3009 C 289.799 -0.878774 1.74076 0
M  V30 3010 O 289.069 -1.62421 1.09528 0
M  V30 3011 H 287.649 0.21325 0.715914 0
M  V30 3012 H 290.311 1.1942 1.54029 0
M  V30 3013 H 289.407 0.800849 3.0165 0
M  V30 3014 N 289.708 -1.40897 0.706093 0
M  V30 3015 C 290.641 -2.282 -0.00328781 0
M  V30 3016 C 291.619 -1.42816 -0.77732 0
M  V30 3017 O 292.803 -1.72237 -0.765944 0
M  V30 3018 C 289.93 -3.23226 -1.01205 0
M  V30 3019 C 288.976 -4.25222 -0.329955 0
M  V30 3020 S 289.809 -5.27269 0.935298 0
M  V30 3021 C 290.965 -6.25859 -0.0716061 0
M  V30 3022 H 291.198 -2.88016 0.737143 0
M  V30 3023 H 288.731 -1.46191 0.496756 0
M  V30 3024 H 290.689 -3.78503 -1.58888 0
M  V30 3025 H 289.35 -2.62485 -1.72513 0
M  V30 3026 H 288.543 -4.92023 -1.09221 0
M  V30 3027 H 288.145 -3.73595 0.174069 0
M  V30 3028 H 290.437 -6.71204 -0.921521 0
M  V30 3029 H 291.38 -7.0586 0.562765 0
M  V30 3030 H 291.788 -5.62852 -0.431088 0
M  V30 3031 N 291.186 -0.45159 -1.50991 0
M  V30 3032 C 292.149 0.341117 -2.26647 0
M  V30 3033 C 293.149 0.937422 -1.30649 0
M  V30 3034 O 294.339 0.809644 -1.54241 0
M  V30 3035 C 291.471 1.48398 -3.06905 0
M  V30 3036 H 292.664 -0.322117 -2.98165 0
M  V30 3037 H 290.217 -0.205122 -1.54948 0
M  V30 3038 H 290.952 2.18284 -2.39838 0
M  V30 3039 H 290.737 1.06241 -3.77432 0
M  V30 3040 H 292.227 2.04367 -3.64176 0
M  V30 3041 N 292.664 1.56529 -0.183458 0
M  V30 3042 C 293.594 2.21549 0.737456 0
M  V30 3043 C 294.575 1.17489 1.23005 0
M  V30 3044 O 295.76 1.45959 1.281 0
M  V30 3045 C 292.89 2.86575 1.96194 0
M  V30 3046 C 291.844 3.96778 1.60473 0
M  V30 3047 C 291.17 4.48911 2.90487 0
M  V30 3048 C 292.47 5.15767 0.823497 0
M  V30 3049 H 294.164 2.98761 0.195453 0
M  V30 3050 H 291.71 1.43702 0.0925686 0
M  V30 3051 H 293.663 3.30739 2.61131 0
M  V30 3052 H 292.387 2.06749 2.52828 0
M  V30 3053 H 291.046 3.53286 0.978997 0
M  V30 3054 H 290.694 3.65862 3.45186 0
M  V30 3055 H 290.394 5.23265 2.67335 0
M  V30 3056 H 291.918 4.95771 3.56432 0
M  V30 3057 H 293.332 5.56549 1.37571 0
M  V30 3058 H 291.729 5.96114 0.690551 0
M  V30 3059 H 292.799 4.84574 -0.177782 0
M  V30 3060 N 294.142 -0.090211 1.57342 0
M  V30 3061 C 295.105 -1.09335 2.01441 0
M  V30 3062 C 296.105 -1.32666 0.908641 0
M  V30 3063 O 297.295 -1.28697 1.174 0
M  V30 3064 C 294.427 -2.44136 2.3793 0
M  V30 3065 H 295.62 -0.713662 2.91285 0
M  V30 3066 H 293.173 -0.335404 1.52659 0
M  V30 3067 H 293.908 -2.86972 1.51055 0
M  V30 3068 H 293.693 -2.28548 3.18603 0
M  V30 3069 H 295.183 -3.16277 2.72688 0
M  V30 3070 N 295.62 -1.53406 -0.361157 0
M  V30 3071 C 296.868 -1.69467 -1.10115 0
M  V30 3072 C 297.189 -0.451352 -1.89705 0
M  V30 3073 O 296.459 0.534636 -1.88463 0
M  V30 3074 H 295.039 -0.624749 -0.409508 0
M  V30 3075 H 297.701 -1.90609 -0.406699 0
M  V30 3076 H 296.797 -2.55774 -1.78847 0
M  V30 3077 N 297.098 0.621204 -1.44841 0
M  V30 3078 C 298.347 1.37658 -1.47422 0
M  V30 3079 C 298.66 1.95264 -0.114629 0
M  V30 3080 O 299.866 2.71494 -0.0180199 0
M  V30 3081 C 298.322 2.49285 -2.59586 0
M  V30 3082 C 297.93 1.98149 -4.01797 0
M  V30 3083 C 299.674 3.26409 -2.71399 0
M  V30 3084 C 297.581 3.07178 -5.05367 0
M  V30 3085 H 296.511 0.517344 -0.548517 0
M  V30 3086 H 299.162 0.667257 -1.70938 0
M  V30 3087 H 297.544 3.22839 -2.29328 0
M  V30 3088 H 298.718 1.31395 -4.41669 0
M  V30 3089 H 297.033 1.33812 -3.94314 0
M  V30 3090 H 299.63 4.07706 -3.45948 0
M  V30 3091 H 299.973 3.76535 -1.77559 0
M  V30 3092 H 300.506 2.5995 -3.01116 0
M  V30 3093 H 297.245 2.61985 -6.00869 0
M  V30 3094 H 296.765 3.72542 -4.70077 0
M  V30 3095 H 298.444 3.71789 -5.29511 0
M  V30 3096 N 298.576 1.31904 0.862503 0
M  V30 3097 C 299.801 1.25135 1.65397 0
M  V30 3098 C 300.226 -0.179 1.87246 0
M  V30 3099 O 299.584 -1.1277 1.4196 0
M  V30 3100 C 299.632 2.00832 2.99498 0
M  V30 3101 O 298.736 1.35075 3.89652 0
M  V30 3102 H 298.077 0.431655 0.504549 0
M  V30 3103 H 300.607 1.74094 1.07483 0
M  V30 3104 H 300.617 2.10709 3.49379 0
M  V30 3105 H 299.292 3.04847 2.82916 0
M  V30 3106 H 297.869 1.33696 3.48109 0
M  V30 3107 N 300.054 -1.07777 1.14986 0
M  V30 3108 C 300.984 -2.16865 0.865557 0
M  V30 3109 C 301.965 -1.69123 -0.182083 0
M  V30 3110 O 303.15 -1.94164 -0.0373815 0
M  V30 3111 C 300.28 -3.45539 0.349313 0
M  V30 3112 C 299.234 -4.06708 1.33313 0
M  V30 3113 C 298.56 -5.30411 0.675918 0
M  V30 3114 C 299.86 -4.47241 2.69764 0
M  V30 3115 H 301.554 -2.40905 1.77778 0
M  V30 3116 H 299.1 -1.15781 0.856203 0
M  V30 3117 H 301.053 -4.21174 0.137983 0
M  V30 3118 H 299.777 -3.21072 -0.598362 0
M  V30 3119 H 298.436 -3.33112 1.53075 0
M  V30 3120 H 298.084 -5.02232 -0.277767 0
M  V30 3121 H 297.784 -5.72293 1.33244 0
M  V30 3122 H 299.308 -6.08755 0.474262 0
M  V30 3123 H 300.722 -5.14025 2.53873 0
M  V30 3124 H 299.119 -5.00062 3.3175 0
M  V30 3125 H 300.189 -3.58818 3.26156 0
M  V30 3126 N 301.532 -0.945985 -1.26051 0
M  V30 3127 C 302.48 -0.450259 -2.282 0
M  V30 3128 C 303.474 0.47497 -1.62605 0
M  V30 3129 O 304.68 0.352653 -1.76512 0
M  V30 3130 H 301.055 -0.127081 -0.741184 0
M  V30 3131 H 303.026 -1.32422 -2.67408 0
M  V30 3132 C 301.775 0.26467 -3.46691 0
M  V30 3133 H 301.098 -0.438123 -3.97392 0
M  V30 3134 H 302.538 0.575678 -4.20074 0
M  V30 3135 C 300.997 1.48416 -3.02447 0
M  V30 3136 O 301.527 2.58227 -3.07704 0
M  V30 3137 N 299.733 1.34243 -2.57735 0
M  V30 3138 H 299.28 0.448994 -2.53657 0
M  V30 3139 H 299.238 2.15957 -2.28495 0
M  V30 3140 N 303.011 1.40521 -0.713556 0
M  V30 3141 C 304.251 2.02783 -0.256584 0
M  V30 3142 C 304.615 1.55352 1.12827 0
M  V30 3143 O 305.816 2.09663 1.68211 0
M  V30 3144 C 304.087 3.5586 -0.331414 0
M  V30 3145 S 305.646 4.38773 0.0488703 0
M  V30 3146 H 302.464 0.703655 -0.101934 0
M  V30 3147 H 305.066 1.71674 -0.935325 0
M  V30 3148 H 303.77 3.87874 -1.34098 0
M  V30 3149 H 303.301 3.91695 0.365873 0
M  V30 3150 H 305.316 4.79633 1.2715 0
M  V30 3151 N 304.489 0.459591 1.5075 0
M  V30 3152 C 305.422 -0.386257 2.24907 0
M  V30 3153 C 306.4 -1.006 1.27744 0
M  V30 3154 O 307.584 -1.04416 1.56938 0
M  V30 3155 C 304.711 -1.54021 3.01654 0
M  V30 3156 C 303.757 -1.03898 4.13651 0
M  V30 3157 S 304.59 0.0370501 5.35487 0
M  V30 3158 C 305.746 -1.12105 6.15779 0
M  V30 3159 H 305.979 0.243272 2.96303 0
M  V30 3160 H 303.512 0.244339 1.52454 0
M  V30 3161 H 305.47 -2.20163 3.46466 0
M  V30 3162 H 304.131 -2.14121 2.29806 0
M  V30 3163 H 303.324 -1.90254 4.66711 0
M  V30 3164 H 302.926 -0.45545 3.71216 0
M  V30 3165 H 305.218 -2.03501 6.46215 0
M  V30 3166 H 306.161 -0.62995 7.05292 0
M  V30 3167 H 306.569 -1.36967 5.47631 0
M  V30 3168 N 305.967 -1.56429 0.191757 0
M  V30 3169 C 307.195 -2.01867 -0.453586 0
M  V30 3170 C 307.61 -1.07191 -1.5542 0
M  V30 3171 O 306.967 -0.0762108 -1.82341 0
M  V30 3172 C 307.018 -3.47017 -1.013 0
M  V30 3173 O 306.739 -4.38078 0.0437005 0
M  V30 3174 C 308.24 -4.07956 -1.73456 0
M  V30 3175 H 305.46 -0.661211 -0.114199 0
M  V30 3176 H 308.004 -2.02295 0.299483 0
M  V30 3177 H 306.159 -3.47298 -1.71647 0
M  V30 3178 H 306.573 -5.23178 -0.372212 0
M  V30 3179 H 308.047 -5.1138 -2.07833 0
M  V30 3180 H 308.524 -3.51222 -2.63704 0
M  V30 3181 H 309.13 -4.11437 -1.07702 0
M  V30 3182 N 307.445 0.0818655 -1.57387 0
M  V30 3183 C 308.375 1.09885 -2.06028 0
M  V30 3184 C 309.356 1.4098 -0.951774 0
M  V30 3185 O 310.541 1.50781 -1.22387 0
M  V30 3186 C 307.671 2.4151 -2.4958 0
M  V30 3187 C 306.625 2.24792 -3.64215 0
M  V30 3188 C 305.951 3.61712 -3.93787 0
M  V30 3189 C 307.251 1.67749 -4.94629 0
M  V30 3190 H 308.945 0.694128 -2.91243 0
M  V30 3191 H 306.491 0.332448 -1.4011 0
M  V30 3192 H 308.444 3.12939 -2.82219 0
M  V30 3193 H 307.168 2.83943 -1.61381 0
M  V30 3194 H 305.827 1.55807 -3.31843 0
M  V30 3195 H 305.475 4.01697 -3.02735 0
M  V30 3196 H 305.175 3.51368 -4.70971 0
M  V30 3197 H 306.699 4.34587 -4.28913 0
M  V30 3198 H 308.113 2.29032 -5.25564 0
M  V30 3199 H 306.51 1.68128 -5.76067 0
M  V30 3200 H 307.58 0.638059 -4.80684 0
M  V30 3201 N 308.923 1.53595 0.353017 0
M  V30 3202 C 309.871 1.81605 1.45335 0
M  V30 3203 C 310.865 0.685923 1.54892 0
M  V30 3204 O 312.071 0.869095 1.57628 0
M  V30 3205 H 308.446 0.575204 0.484401 0
M  V30 3206 H 310.417 2.73679 1.18921 0
M  V30 3207 C 309.166 2.03406 2.81995 0
M  V30 3208 H 308.489 2.89814 2.75405 0
M  V30 3209 H 309.929 2.26975 3.58132 0
M  V30 3210 C 308.388 0.816794 3.26849 0
M  V30 3211 O 308.918 0.0115856 4.01698 0
M  V30 3212 N 307.124 0.636682 2.8354 0
M  V30 3213 H 306.671 1.2931 2.22793 0
M  V30 3214 H 306.629 -0.176336 3.13905 0
M  V30 3215 N 310.401 -0.613514 1.45168 0
M  V30 3216 C 311.647 -1.37471 1.49096 0
M  V30 3217 C 311.98 -1.93765 0.129901 0
M  V30 3218 O 311.255 -1.74707 -0.854858 0
M  V30 3219 C 311.538 -2.52701 2.56542 0
M  V30 3220 C 311.391 -2.01643 4.0207 0
M  V30 3221 C 312.71 -3.54849 2.60327 0
M  V30 3222 H 309.829 -0.498502 0.54283 0
M  V30 3223 H 312.471 -0.692125 1.76945 0
M  V30 3224 H 310.621 -3.10931 2.32926 0
M  V30 3225 H 312.293 -1.48108 4.36877 0
M  V30 3226 H 310.536 -1.32688 4.13009 0
M  V30 3227 H 311.207 -2.84681 4.72928 0
M  V30 3228 H 313.683 -3.0645 2.81474 0
M  V30 3229 H 312.559 -4.32973 3.37381 0
M  V30 3230 H 312.82 -4.10079 1.6519 0
M  V30 3231 N 311.879 -1.3236 -0.855495 0
M  V30 3232 C 312.789 -1.23221 -1.99634 0
M  V30 3233 C 313.805 -0.145983 -1.73387 0
M  V30 3234 O 314.981 -0.366502 -1.98037 0
M  V30 3235 C 312.046 -0.954782 -3.33294 0
M  V30 3236 C 311.107 -2.12937 -3.72769 0
M  V30 3237 C 310.34 -1.86508 -5.00051 0
M  V30 3238 O 310.563 -0.807231 -5.64659 0
M  V30 3239 O 309.497 -2.72591 -5.36636 0
M  V30 3240 H 313.323 -2.19126 -2.1028 0
M  V30 3241 H 310.908 -1.12241 -0.986018 0
M  V30 3242 H 312.79 -0.816519 -4.13414 0
M  V30 3243 H 311.465 -0.0258854 -3.2369 0
M  V30 3244 H 310.372 -2.3231 -2.93228 0
M  V30 3245 H 311.705 -3.04102 -3.87018 0
M  V30 3246 N 313.357 1.07166 -1.15556 0
M  V30 3247 C 314.603 1.80222 -0.942961 0
M  V30 3248 C 314.958 1.85121 0.524209 0
M  V30 3249 O 314.251 1.32531 1.38369 0
M  V30 3250 C 314.445 3.24707 -1.49332 0
M  V30 3251 C 314.274 3.33887 -3.01247 0
M  V30 3252 C 313.044 3.44337 -3.69811 0
M  V30 3253 C 315.242 3.24484 -3.99017 0
M  V30 3254 N 313.224 3.42439 -5.09518 0
M  V30 3255 C 314.595 3.29726 -5.25053 0
M  V30 3256 C 316.65 3.08307 -3.90962 0
M  V30 3257 C 315.353 3.20455 -6.43973 0
M  V30 3258 C 317.379 3.00371 -5.09442 0
M  V30 3259 C 316.741 3.06227 -6.34354 0
M  V30 3260 H 312.84 0.672709 -0.398731 0
M  V30 3261 H 315.424 1.27905 -1.46794 0
M  V30 3262 H 313.595 3.7544 -0.994946 0
M  V30 3263 H 315.327 3.85894 -1.21935 0
M  V30 3264 H 312.082 3.48762 -3.20409 0
M  V30 3265 H 312.506 3.45013 -5.8249 0
M  V30 3266 H 317.148 3.02633 -2.95251 0
M  V30 3267 H 314.866 3.24888 -7.39914 0
M  V30 3268 H 318.452 2.88955 -5.04971 0
M  V30 3269 H 317.332 3.00132 -7.24493 0
M  V30 3270 N 314.835 0.952656 1.25548 0
M  V30 3271 C 315.768 0.415525 2.24385 0
M  V30 3272 C 316.746 -0.502046 1.54655 0
M  V30 3273 O 317.93 -0.436875 1.83368 0
M  V30 3274 C 315.057 -0.401734 3.36309 0
M  V30 3275 C 314.103 0.455949 4.24056 0
M  V30 3276 S 314.936 1.88698 5.01152 0
M  V30 3277 C 316.092 1.07809 6.16545 0
M  V30 3278 H 316.325 1.25315 2.69599 0
M  V30 3279 H 313.858 0.756587 1.34592 0
M  V30 3280 H 315.816 -0.867329 4.01233 0
M  V30 3281 H 314.477 -1.21416 2.89684 0
M  V30 3282 H 313.67 -0.170776 5.03711 0
M  V30 3283 H 313.272 0.856675 3.64056 0
M  V30 3284 H 315.564 0.325816 6.76716 0
M  V30 3285 H 316.507 1.84849 6.83547 0
M  V30 3286 H 316.915 0.60909 5.61204 0
M  V30 3287 N 316.313 -1.40141 0.720998 0
M  V30 3288 C 317.724 -1.83678 0.334553 0
M  V30 3289 C 318.075 -1.6027 -1.13173 0
M  V30 3290 O 317.2 -1.08643 -1.87152 0
M  V30 3291 C 317.795 -3.33437 0.600437 0
M  V30 3292 C 316.354 -3.75447 0.267642 0
M  V30 3293 C 315.501 -2.63296 0.870097 0
M  V30 3294 H 318.452 -1.29331 0.919732 0
M  V30 3295 H 318.473 -3.80269 -0.132517 0
M  V30 3296 H 317.985 -3.50442 1.66768 0
M  V30 3297 H 316.086 -3.64035 -0.794329 0
M  V30 3298 H 316.199 -4.73344 0.74042 0
M  V30 3299 H 314.563 -2.52954 0.297739 0
M  V30 3300 H 315.346 -2.83112 1.94172 0
M  V30 3301 N 317.792 -0.46758 -1.50504 0
M  V30 3302 C 319.041 0.0902868 -2.01498 0
M  V30 3303 C 319.354 1.411 -1.35463 0
M  V30 3304 O 320.56 2.0536 -1.77594 0
M  V30 3305 C 319.016 0.21142 -3.59278 0
M  V30 3306 C 318.624 -1.10065 -4.34269 0
M  V30 3307 C 320.368 0.721433 -4.18325 0
M  V30 3308 C 318.275 -0.943505 -5.83825 0
M  V30 3309 H 317.205 0.037517 -0.753066 0
M  V30 3310 H 319.856 -0.601943 -1.73346 0
M  V30 3311 H 318.238 0.967352 -3.84003 0
M  V30 3312 H 319.412 -1.86726 -4.21272 0
M  V30 3313 H 317.727 -1.5415 -3.86816 0
M  V30 3314 H 320.324 0.85598 -5.27804 0
M  V30 3315 H 320.667 1.71186 -3.79475 0
M  V30 3316 H 321.2 0.0229843 -3.97793 0
M  V30 3317 H 317.939 -1.90719 -6.27141 0
M  V30 3318 H 317.459 -0.217213 -5.99407 0
M  V30 3319 H 319.138 -0.608715 -6.4413 0
M  V30 3320 N 319.27 1.56325 -0.20005 0
M  V30 3321 C 320.22 2.15939 0.731743 0
M  V30 3322 C 321.204 1.10154 1.17281 0
M  V30 3323 O 322.396 1.36203 1.13038 0
M  V30 3324 C 319.525 2.82614 1.94895 0
M  V30 3325 C 318.611 3.95596 1.52855 0
M  V30 3326 N 319.002 4.99118 0.819418 0
M  V30 3327 C 317.3 4.07288 1.81748 0
M  V30 3328 C 318.001 5.78513 0.608053 0
M  V30 3329 N 316.977 5.31117 1.15828 0
M  V30 3330 H 320.779 2.9334 0.181285 0
M  V30 3331 H 318.293 1.624 -0.000452172 0
M  V30 3332 H 320.29 3.23718 2.62702 0
M  V30 3333 H 318.95 2.06702 2.50408 0
M  V30 3334 H 319.961 5.15723 0.47436 0
M  V30 3335 H 316.638 3.42509 2.38734 0
M  V30 3336 H 318.028 6.71885 0.0451619 0
M  V30 3337 N 320.748 -0.0735177 1.57428 0
M  V30 3338 C 321.976 -0.785969 1.9139 0
M  V30 3339 C 322.391 -1.71207 0.795847 0
M  V30 3340 O 321.748 -1.81033 -0.230915 0
M  V30 3341 C 321.799 -1.58107 3.25091 0
M  V30 3342 O 321.52 -0.6922 4.32597 0
M  V30 3343 C 323.021 -2.39467 3.73055 0
M  V30 3344 H 320.241 -0.223558 0.632663 0
M  V30 3345 H 322.785 -0.044302 2.04452 0
M  V30 3346 H 320.94 -2.27503 3.13562 0
M  V30 3347 H 321.354 -1.24504 5.09508 0
M  V30 3348 H 322.828 -2.90716 4.69242 0
M  V30 3349 H 323.305 -3.18913 3.01979 0
M  V30 3350 H 323.911 -1.7523 3.87523 0
M  V30 3351 N 322.226 -1.5378 -0.344866 0
M  V30 3352 C 323.642 -1.44015 -0.687888 0
M  V30 3353 C 323.842 -0.595834 -1.92489 0
M  V30 3354 O 322.898 -0.0863064 -2.52352 0
M  V30 3355 C 324.211 -2.87481 -0.881758 0
M  V30 3356 C 325.759 -2.97247 -0.980459 0
M  V30 3357 C 326.234 -4.41819 -1.20665 0
M  V30 3358 N 327.725 -4.45339 -1.27389 0
M  V30 3359 C 328.46 -5.54333 -1.46639 0
M  V30 3360 N 327.956 -6.73335 -1.63071 0
M  V30 3361 N 329.749 -5.41944 -1.49176 0
M  V30 3362 H 321.9 -2.07169 0.468475 0
M  V30 3363 H 324.163 -0.93643 0.147655 0
M  V30 3364 H 323.869 -3.51672 -0.0443444 0
M  V30 3365 H 323.743 -3.32352 -1.78388 0
M  V30 3366 H 326.13 -2.33197 -1.8084 0
M  V30 3367 H 326.211 -2.5574 -0.0552713 0
M  V30 3368 H 325.855 -5.06449 -0.383652 0
M  V30 3369 H 325.785 -4.80917 -2.14539 0
M  V30 3370 H 328.276 -3.59585 -1.1622 0
M  V30 3371 H 328.589 -7.52165 -1.77391 0
M  V30 3372 H 326.934 -6.76282 -1.60209 0
M  V30 3373 H 330.125 -4.47932 -1.3592 0
M  V30 3374 H 330.298 -6.26946 -1.63837 0
M  V30 3375 N 323.704 0.605807 -1.45491 0
M  V30 3376 C 324.667 1.69836 -1.5391 0
M  V30 3377 C 325.667 1.55261 -0.418424 0
M  V30 3378 O 326.857 1.60296 -0.681965 0
M  V30 3379 C 323.989 3.09117 -1.43734 0
M  V30 3380 H 325.182 1.63738 -2.51257 0
M  V30 3381 H 322.735 0.821689 -1.32959 0
M  V30 3382 H 323.47 3.20791 -0.475788 0
M  V30 3383 H 323.255 3.21104 -2.25021 0
M  V30 3384 H 324.745 3.88696 -1.52661 0
M  V30 3385 N 325.182 1.32811 0.848464 0
M  V30 3386 C 326.422 1.25046 1.61687 0
M  V30 3387 C 326.786 -0.183464 1.91121 0
M  V30 3388 O 327.987 -0.384937 2.66029 0
M  V30 3389 C 326.258 2.09201 2.89775 0
M  V30 3390 S 327.817 2.18526 3.80515 0
M  V30 3391 H 324.635 0.445023 0.554505 0
M  V30 3392 H 327.237 1.67733 1.00429 0
M  V30 3393 H 325.941 3.12433 2.66108 0
M  V30 3394 H 325.472 1.67315 3.56047 0
M  V30 3395 H 327.487 1.3393 4.77784 0
M  V30 3396 N 326.66 -1.06551 1.16123 0
M  V30 3397 C 327.906 -1.79567 0.94252 0
M  V30 3398 C 328.239 -1.86869 -0.528547 0
M  V30 3399 O 327.514 -1.35838 -1.39206 0
M  V30 3400 C 327.797 -3.24195 1.56747 0
M  V30 3401 C 327.65 -3.24989 3.10969 0
M  V30 3402 C 328.969 -4.21678 1.25998 0
M  V30 3403 H 326.088 -0.651883 0.343828 0
M  V30 3404 H 328.73 -1.2463 1.43413 0
M  V30 3405 H 326.88 -3.71107 1.14942 0
M  V30 3406 H 328.552 -2.86258 3.61737 0
M  V30 3407 H 326.795 -2.63716 3.44436 0
M  V30 3408 H 327.466 -4.27005 3.49815 0
M  V30 3409 H 329.942 -3.83196 1.62174 0
M  V30 3410 H 328.818 -5.21146 1.7233 0
M  V30 3411 H 329.079 -4.4174 0.178367 0
M  V30 3412 N 328.138 -0.959301 -1.25041 0
M  V30 3413 C 329.386 -0.615393 -1.92503 0
M  V30 3414 C 329.707 0.850969 -1.75452 0
M  V30 3415 O 328.977 1.60658 -1.12098 0
M  V30 3416 H 327.557 -0.224613 -0.712431 0
M  V30 3417 H 330.219 -1.21855 -1.5211 0
M  V30 3418 H 329.315 -0.848738 -3.00338 0
M  V30 3419 N 329.616 1.39756 -0.72842 0
M  V30 3420 C 330.844 2.04948 -0.283528 0
M  V30 3421 C 331.259 1.54908 1.0793 0
M  V30 3422 O 330.616 0.711135 1.68075 0
M  V30 3423 C 330.667 3.60498 -0.268957 0
M  V30 3424 O 330.388 4.08695 -1.57798 0
M  V30 3425 C 331.889 4.4288 0.192912 0
M  V30 3426 H 329.109 0.659243 -0.125056 0
M  V30 3427 H 331.653 1.78927 -0.990226 0
M  V30 3428 H 329.808 3.85444 0.388801 0
M  V30 3429 H 330.222 5.02977 -1.48709 0
M  V30 3430 H 331.696 5.51791 0.151952 0
M  V30 3431 H 332.173 4.21418 1.23708 0
M  V30 3432 H 332.779 4.23069 -0.435039 0
M  V30 3433 N 331.094 0.475555 1.50254 0
M  V30 3434 C 332.024 -0.30611 2.31485 0
M  V30 3435 C 333.005 -0.986228 1.38591 0
M  V30 3436 O 334.19 -0.982541 1.67511 0
M  V30 3437 C 331.32 -1.38588 3.1845 0
M  V30 3438 C 330.274 -0.827115 4.19932 0
M  V30 3439 C 329.6 -2.00551 4.95665 0
M  V30 3440 C 330.9 0.16463 5.2204 0
M  V30 3441 H 332.594 0.371866 2.97082 0
M  V30 3442 H 330.14 0.180282 1.42867 0
M  V30 3443 H 332.093 -1.94023 3.74076 0
M  V30 3444 H 330.817 -2.09269 2.50747 0
M  V30 3445 H 329.476 -0.294702 3.65414 0
M  V30 3446 H 329.124 -2.6994 4.2443 0
M  V30 3447 H 328.824 -1.63784 5.64313 0
M  V30 3448 H 330.348 -2.56468 5.54127 0
M  V30 3449 H 331.762 -0.300699 5.72511 0
M  V30 3450 H 330.159 0.446813 5.98434 0
M  V30 3451 H 331.229 1.08905 4.72512 0
M  V30 3452 N 332.573 -1.56217 0.208337 0
M  V30 3453 C 333.822 -1.97124 -0.427204 0
M  V30 3454 C 334.135 -1.09859 -1.61835 0
M  V30 3455 O 335.341 -1.40606 -2.32255 0
M  V30 3456 C 333.797 -3.50633 -0.811442 0
M  V30 3457 C 333.405 -4.46582 0.35615 0
M  V30 3458 C 335.149 -4.00282 -1.41332 0
M  V30 3459 C 333.056 -5.91379 -0.0497852 0
M  V30 3460 H 331.986 -0.736086 -0.163381 0
M  V30 3461 H 334.637 -1.8099 0.302456 0
M  V30 3462 H 333.019 -3.62319 -1.59815 0
M  V30 3463 H 334.193 -4.46636 1.1337 0
M  V30 3464 H 332.508 -4.07202 0.870396 0
M  V30 3465 H 335.105 -5.0595 -1.72972 0
M  V30 3466 H 335.448 -3.45359 -2.32449 0
M  V30 3467 H 335.981 -3.91764 -0.690323 0
M  V30 3468 H 332.72 -6.50255 0.827529 0
M  V30 3469 H 332.24 -5.94549 -0.791926 0
M  V30 3470 H 333.919 -6.45209 -0.481042 0
M  V30 3471 N 334.051 0.0651679 -1.57465 0
M  V30 3472 C 335.299 0.761555 -1.87202 0
M  V30 3473 C 335.62 1.77778 -0.801243 0
M  V30 3474 O 334.89 1.95166 0.16937 0
M  V30 3475 H 333.47 0.284251 -0.690804 0
M  V30 3476 H 336.132 0.0396827 -1.9486 0
M  V30 3477 H 335.228 1.27365 -2.84929 0
M  V30 3478 N 335.529 1.53961 0.336706 0
M  V30 3479 C 336.759 1.75229 1.09446 0
M  V30 3480 C 337.167 0.494602 1.82621 0
M  V30 3481 O 336.51 -0.543764 1.75468 0
M  V30 3482 C 336.572 2.88288 2.1478 0
M  V30 3483 C 336.236 4.27656 1.6112 0
M  V30 3484 C 337.233 5.08981 1.0599 0
M  V30 3485 C 334.918 4.74161 1.6576 0
M  V30 3486 C 336.912 6.34916 0.562129 0
M  V30 3487 C 334.599 6.00067 1.15595 0
M  V30 3488 C 335.597 6.80278 0.609147 0
M  V30 3489 O 335.285 8.03818 0.114999 0
M  V30 3490 H 335.017 0.588881 0.331956 0
M  V30 3491 H 337.571 2.01614 0.392566 0
M  V30 3492 H 335.801 2.57443 2.88548 0
M  V30 3493 H 337.49 2.97461 2.76174 0
M  V30 3494 H 338.256 4.74213 1.01722 0
M  V30 3495 H 334.135 4.11781 2.07261 0
M  V30 3496 H 337.679 6.9747 0.134668 0
M  V30 3497 H 333.576 6.3433 1.19566 0
M  V30 3498 H 334.344 8.18172 0.231651 0
M  V30 3499 N 337.007 -0.598083 1.45811 0
M  V30 3500 C 338.253 -1.35882 1.50545 0
M  V30 3501 C 338.586 -1.93616 0.150445 0
M  V30 3502 O 337.861 -1.75604 -0.83628 0
M  V30 3503 C 338.144 -2.49966 2.59208 0
M  V30 3504 C 337.997 -1.97367 4.04186 0
M  V30 3505 C 339.316 -3.52068 2.64076 0
M  V30 3506 H 336.435 -0.492717 0.548087 0
M  V30 3507 H 339.077 -0.673319 1.77669 0
M  V30 3508 H 337.227 -3.08443 2.3621 0
M  V30 3509 H 338.899 -1.43466 4.38423 0
M  V30 3510 H 337.142 -1.283 4.14393 0
M  V30 3511 H 337.813 -2.79649 4.75921 0
M  V30 3512 H 340.289 -3.03448 2.84708 0
M  V30 3513 H 339.165 -4.2937 3.41954 0
M  V30 3514 H 339.426 -4.08304 1.69531 0
M  V30 3515 N 338.485 -1.33259 -0.841409 0
M  V30 3516 C 339.715 -1.2742 -1.62628 0
M  V30 3517 C 340.123 0.157604 -1.88542 0
M  V30 3518 O 339.466 1.10938 -1.46419 0
M  V30 3519 C 339.528 -1.97797 -3.00194 0
M  V30 3520 C 339.192 -3.47109 -2.97261 0
M  V30 3521 C 340.189 -4.42358 -2.73159 0
M  V30 3522 C 337.874 -3.89247 -3.17478 0
M  V30 3523 C 339.868 -5.77718 -2.69296 0
M  V30 3524 C 337.555 -5.24713 -3.13241 0
M  V30 3525 C 338.553 -6.1876 -2.89181 0
M  V30 3526 O 338.241 -7.51745 -2.84843 0
M  V30 3527 H 337.973 -0.440436 -0.512827 0
M  V30 3528 H 340.527 -1.76153 -1.05638 0
M  V30 3529 H 338.757 -1.43652 -3.59028 0
M  V30 3530 H 340.446 -1.8549 -3.61038 0
M  V30 3531 H 341.212 -4.11127 -2.57294 0
M  V30 3532 H 337.091 -3.16456 -3.35226 0
M  V30 3533 H 340.635 -6.51097 -2.50436 0
M  V30 3534 H 336.532 -5.55569 -3.28654 0
M  V30 3535 H 337.3 -7.61262 -3.00702 0
M  V30 3536 N 339.963 1.05934 -1.16686 0
M  V30 3537 C 341.188 1.83029 -0.975455 0
M  V30 3538 C 341.613 1.82096 0.471452 0
M  V30 3539 O 340.971 1.22443 1.33706 0
M  V30 3540 C 341.019 3.27372 -1.51195 0
M  V30 3541 O 340.123 4.06054 -0.720701 0
M  V30 3542 H 339.464 0.566194 -0.346872 0
M  V30 3543 H 341.994 1.33541 -1.55009 0
M  V30 3544 H 342.004 3.78186 -1.53099 0
M  V30 3545 H 340.679 3.27366 -2.56523 0
M  V30 3546 H 339.256 3.64812 -0.772458 0
M  V30 3547 N 341.441 0.965919 1.2453 0
M  V30 3548 C 342.371 0.513476 2.27784 0
M  V30 3549 C 343.352 -0.445974 1.6415 0
M  V30 3550 O 344.537 -0.342485 1.91156 0
M  V30 3551 C 341.667 -0.198839 3.4673 0
M  V30 3552 C 340.621 0.676456 4.2262 0
M  V30 3553 C 339.947 -0.167248 5.34438 0
M  V30 3554 C 341.247 1.96017 4.84123 0
M  V30 3555 H 342.941 1.3765 2.65881 0
M  V30 3556 H 340.487 0.663321 1.27813 0
M  V30 3557 H 342.44 -0.526567 4.18097 0
M  V30 3558 H 341.164 -1.0962 3.07654 0
M  V30 3559 H 339.823 0.98743 3.53052 0
M  V30 3560 H 339.471 -1.0647 4.91603 0
M  V30 3561 H 339.171 0.415181 5.86131 0
M  V30 3562 H 340.695 -0.489688 6.08633 0
M  V30 3563 H 342.109 1.69814 5.47573 0
M  V30 3564 H 340.506 2.48918 5.4604 0
M  V30 3565 H 341.576 2.65622 4.05676 0
M  V30 3566 N 342.919 -1.39368 0.735821 0
M  V30 3567 C 344.167 -2.00101 0.283562 0
M  V30 3568 C 344.488 -1.5868 -1.13338 0
M  V30 3569 O 343.758 -0.835423 -1.77193 0
M  V30 3570 H 342.338 -0.740024 0.101851 0
M  V30 3571 H 345 -1.70404 0.945962 0
M  V30 3572 H 344.096 -3.10323 0.332604 0
M  V30 3573 N 344.397 -0.483516 -1.5 0
M  V30 3574 C 345.329 0.340634 -2.26655 0
M  V30 3575 C 346.342 0.946152 -1.32483 0
M  V30 3576 O 347.531 0.832453 -1.579 0
M  V30 3577 C 344.631 1.4929 -3.04246 0
M  V30 3578 C 343.804 0.997903 -4.25865 0
M  V30 3579 C 342.863 2.02569 -4.85646 0
M  V30 3580 O 341.889 1.60128 -5.46212 0
M  V30 3581 N 343.091 3.3548 -4.73744 0
M  V30 3582 H 345.856 -0.316577 -2.98023 0
M  V30 3583 H 343.417 -0.315024 -1.58806 0
M  V30 3584 H 345.409 2.17766 -3.41116 0
M  V30 3585 H 343.979 2.05458 -2.35597 0
M  V30 3586 H 343.199 0.138617 -3.93956 0
M  V30 3587 H 344.487 0.645305 -5.04691 0
M  V30 3588 H 343.885 3.72661 -4.25605 0
M  V30 3589 H 342.442 3.99718 -5.14848 0
M  V30 3590 N 345.875 1.56104 -0.216619 0
M  V30 3591 C 347.122 1.98172 0.416416 0
M  V30 3592 C 347.45 1.10413 1.60122 0
M  V30 3593 O 346.705 0.147967 1.9514 0
M  V30 3594 C 347.004 3.45923 0.898464 0
M  V30 3595 C 346.67 4.50559 -0.175288 0
M  V30 3596 C 345.332 4.78897 -0.470271 0
M  V30 3597 C 347.684 5.1334 -0.901728 0
M  V30 3598 C 345.012 5.67299 -1.4963 0
M  V30 3599 C 347.364 6.02853 -1.91705 0
M  V30 3600 C 346.028 6.29537 -2.21901 0
M  V30 3601 H 345.298 0.725164 0.152377 0
M  V30 3602 H 347.945 1.88839 -0.318103 0
M  V30 3603 H 346.25 3.52434 1.71165 0
M  V30 3604 H 347.947 3.75841 1.39803 0
M  V30 3605 H 344.537 4.28551 0.0647806 0
M  V30 3606 H 348.721 4.91521 -0.687072 0
M  V30 3607 H 343.977 5.86239 -1.73592 0
M  V30 3608 H 348.151 6.50552 -2.48505 0
M  V30 3609 H 345.778 6.97835 -3.01548 0
M  V30 3610 N 347.353 -0.0568162 1.57498 0
M  V30 3611 C 348.283 -1.06593 2.0775 0
M  V30 3612 C 349.264 -1.39448 0.974082 0
M  V30 3613 O 350.449 -1.48815 1.24771 0
M  V30 3614 C 347.579 -2.37509 2.5339 0
M  V30 3615 C 346.533 -2.1897 3.67745 0
M  V30 3616 C 345.859 -3.55402 3.99492 0
M  V30 3617 C 347.159 -1.59859 4.97235 0
M  V30 3618 H 348.853 -0.647706 2.9231 0
M  V30 3619 H 346.399 -0.310116 1.40621 0
M  V30 3620 H 348.352 -3.08409 2.87162 0
M  V30 3621 H 347.076 -2.8134 1.65878 0
M  V30 3622 H 345.735 -1.50508 3.3428 0
M  V30 3623 H 345.383 -3.9683 3.09088 0
M  V30 3624 H 345.083 -3.43831 4.76502 0
M  V30 3625 H 346.607 -4.27708 4.35773 0
M  V30 3626 H 348.021 -2.20642 5.29141 0
M  V30 3627 H 346.418 -1.58942 5.78669 0
M  V30 3628 H 347.488 -0.561506 4.81638 0
M  V30 3629 N 348.832 -1.54138 -0.328536 0
M  V30 3630 C 349.762 -1.86167 -1.40939 0
M  V30 3631 C 350.743 -0.718044 -1.54202 0
M  V30 3632 O 351.928 -0.971328 -1.68163 0
M  V30 3633 C 349.058 -2.08461 -2.77779 0
M  V30 3634 C 348.012 -3.24299 -2.7931 0
M  V30 3635 C 347.338 -3.31955 -4.19178 0
M  V30 3636 C 348.638 -4.62065 -2.43502 0
M  V30 3637 H 350.332 -2.76689 -1.14383 0
M  V30 3638 H 347.878 -1.33132 -0.548806 0
M  V30 3639 H 349.831 -2.29453 -3.53454 0
M  V30 3640 H 348.555 -1.14684 -3.05802 0
M  V30 3641 H 347.214 -3.03187 -2.0609 0
M  V30 3642 H 346.862 -2.35745 -4.44335 0
M  V30 3643 H 346.562 -4.09805 -4.2111 0
M  V30 3644 H 348.086 -3.55175 -4.96672 0
M  V30 3645 H 349.5 -4.8297 -3.08889 0
M  V30 3646 H 347.897 -5.42429 -2.56693 0
M  V30 3647 H 348.967 -4.64652 -1.38659 0
M  V30 3648 N 350.31 0.590341 -1.46126 0
M  V30 3649 C 351.273 1.68194 -1.55703 0
M  V30 3650 C 352.273 1.54808 -0.434868 0
M  V30 3651 O 353.463 1.59564 -0.698928 0
M  V30 3652 C 350.595 3.07575 -1.47005 0
M  V30 3653 H 351.788 1.61064 -2.52979 0
M  V30 3654 H 349.341 0.807541 -1.33823 0
M  V30 3655 H 350.076 3.20268 -0.509785 0
M  V30 3656 H 349.861 3.187 -2.28414 0
M  V30 3657 H 351.351 3.87055 -1.56776 0
M  V30 3658 N 351.788 1.33704 0.83433 0
M  V30 3659 C 353.036 1.25169 1.58673 0
M  V30 3660 C 353.357 -0.18127 1.94156 0
M  V30 3661 O 352.627 -1.11113 1.6134 0
M  V30 3662 H 351.207 0.4603 0.58833 0
M  V30 3663 H 353.869 1.67478 0.996847 0
M  V30 3664 H 352.965 1.84856 2.51465 0
M  V30 3665 N 353.266 -1.05314 1.17247 0
M  V30 3666 C 354.512 -1.78557 0.961513 0
M  V30 3667 C 354.845 -1.87419 -0.508697 0
M  V30 3668 O 354.12 -1.37307 -1.37757 0
M  V30 3669 C 354.403 -3.22514 1.60176 0
M  V30 3670 C 354.256 -3.21673 3.14399 0
M  V30 3671 C 355.575 -4.20318 1.30463 0
M  V30 3672 H 352.694 -0.6482 0.350723 0
M  V30 3673 H 355.336 -1.23102 1.44727 0
M  V30 3674 H 353.486 -3.69867 1.18871 0
M  V30 3675 H 355.158 -2.82405 3.64753 0
M  V30 3676 H 353.401 -2.60048 3.47214 0
M  V30 3677 H 354.072 -4.23271 3.54324 0
M  V30 3678 H 356.548 -3.81454 1.66229 0
M  V30 3679 H 355.424 -5.19289 1.77848 0
M  V30 3680 H 355.685 -4.41526 0.22521 0
M  V30 3681 N 354.744 -0.972509 -1.24016 0
M  V30 3682 C 355.707 -0.511403 -2.23422 0
M  V30 3683 C 356.707 0.394679 -1.55881 0
M  V30 3684 O 357.897 0.189469 -1.73167 0
M  V30 3685 C 355.029 0.258769 -3.39916 0
M  V30 3686 H 356.222 -1.39024 -2.6573 0
M  V30 3687 H 353.775 -0.757585 -1.36713 0
M  V30 3688 H 354.51 1.1545 -3.03054 0
M  V30 3689 H 354.295 -0.391522 -3.9014 0
M  V30 3690 H 355.785 0.570244 -4.13688 0
M  V30 3691 N 356.222 1.38976 -0.743202 0
M  V30 3692 C 357.452 2.04339 -0.304807 0
M  V30 3693 C 357.86 1.56162 1.06819 0
M  V30 3694 O 357.203 0.725284 1.68776 0
M  V30 3695 C 357.265 3.58716 -0.237369 0
M  V30 3696 C 356.929 4.29905 -1.55018 0
M  V30 3697 C 357.926 4.55987 -2.49744 0
M  V30 3698 C 355.611 4.68294 -1.81675 0
M  V30 3699 C 357.605 5.19478 -3.69353 0
M  V30 3700 C 355.292 5.31512 -3.0156 0
M  V30 3701 C 356.29 5.57037 -3.9522 0
M  V30 3702 O 355.978 6.18941 -5.12998 0
M  V30 3703 H 355.71 0.663439 -0.12971 0
M  V30 3704 H 358.264 1.78852 -1.01001 0
M  V30 3705 H 356.494 3.83133 0.524003 0
M  V30 3706 H 358.183 4.05543 0.170121 0
M  V30 3707 H 358.949 4.26767 -2.30423 0
M  V30 3708 H 354.828 4.47779 -1.09615 0
M  V30 3709 H 358.372 5.39318 -4.42473 0
M  V30 3710 H 354.269 5.60153 -3.20778 0
M  V30 3711 H 355.037 6.37433 -5.13441 0
M  V30 3712 N 357.7 0.491464 1.49741 0
M  V30 3713 C 358.663 -0.280906 2.27472 0
M  V30 3714 C 359.663 -0.902454 1.33088 0
M  V30 3715 O 360.853 -0.768465 1.56334 0
M  V30 3716 C 357.985 -1.40209 3.10732 0
M  V30 3717 H 359.178 0.401056 2.97206 0
M  V30 3718 H 356.731 0.246131 1.5435 0
M  V30 3719 H 357.466 -2.11849 2.45541 0
M  V30 3720 H 357.251 -0.961969 3.80117 0
M  V30 3721 H 358.741 -1.9464 3.69466 0
M  V30 3722 N 359.178 -1.55987 0.224894 0
M  V30 3723 C 360.424 -1.98684 -0.406502 0
M  V30 3724 C 360.757 -1.11248 -1.59177 0
M  V30 3725 O 360.032 -0.170909 -1.93748 0
M  V30 3726 C 360.315 -3.50218 -0.837808 0
M  V30 3727 C 360.168 -4.48426 0.351332 0
M  V30 3728 C 361.487 -4.06243 -1.69278 0
M  V30 3729 H 358.606 -0.722337 -0.146283 0
M  V30 3730 H 361.248 -1.87255 0.321799 0
M  V30 3731 H 359.398 -3.60089 -1.45837 0
M  V30 3732 H 361.07 -4.50562 0.989526 0
M  V30 3733 H 359.313 -4.22159 0.998207 0
M  V30 3734 H 359.984 -5.52 0.00655905 0
M  V30 3735 H 362.46 -3.99337 -1.16914 0
M  V30 3736 H 361.336 -5.12581 -1.96346 0
M  V30 3737 H 361.597 -3.53332 -2.65723 0
M  V30 3738 N 360.656 0.0484629 -1.57525 0
M  V30 3739 C 362.067 0.597486 -1.76881 0
M  V30 3740 C 362.418 1.76664 -0.853475 0
M  V30 3741 O 361.543 2.16357 -0.0433656 0
M  V30 3742 C 362.138 1.09066 -3.20765 0
M  V30 3743 C 360.697 1.58535 -3.41385 0
M  V30 3744 C 359.844 0.514868 -2.72478 0
M  V30 3745 H 362.795 -0.177758 -1.57701 0
M  V30 3746 H 362.816 1.95875 -3.2621 0
M  V30 3747 H 362.328 0.239521 -3.8736 0
M  V30 3748 H 360.429 2.45898 -2.79937 0
M  V30 3749 H 360.542 1.64622 -4.49929 0
M  V30 3750 H 358.906 0.965407 -2.35695 0
M  V30 3751 H 359.689 -0.32648 -3.41744 0
M  V30 3752 N 362.134 1.5431 0.320358 0
M  V30 3753 C 363.084 1.803 1.39556 0
M  V30 3754 C 364.068 0.659166 1.46778 0
M  V30 3755 O 365.26 0.91926 1.51257 0
M  V30 3756 C 362.389 2.03665 2.76361 0
M  V30 3757 C 361.475 3.24178 2.73439 0
M  V30 3758 N 361.866 4.4516 2.40137 0
M  V30 3759 C 360.164 3.25816 3.04565 0
M  V30 3760 C 360.865 5.27109 2.4603 0
M  V30 3761 N 359.841 4.64368 2.82601 0
M  V30 3762 H 363.643 2.71416 1.12742 0
M  V30 3763 H 361.157 1.53548 0.528856 0
M  V30 3764 H 363.154 2.20425 3.53862 0
M  V30 3765 H 361.814 1.13805 3.04103 0
M  V30 3766 H 362.825 4.72104 2.12927 0
M  V30 3767 H 359.502 2.46001 3.37328 0
M  V30 3768 H 360.892 6.33728 2.23246 0
M  V30 3769 N 363.613 -0.582584 1.46437 0
M  V30 3770 C 364.859 -1.34064 1.52965 0
M  V30 3771 C 365.214 -1.91566 0.178968 0
M  V30 3772 O 364.507 -1.73526 -0.812365 0
M  V30 3773 C 364.701 -2.48964 2.56421 0
M  V30 3774 C 364.53 -2.02717 4.01417 0
M  V30 3775 C 363.3 -1.87728 4.69134 0
M  V30 3776 C 365.498 -1.58675 4.8921 0
M  V30 3777 N 363.48 -1.35554 5.98747 0
M  V30 3778 C 364.851 -1.18093 6.08649 0
M  V30 3779 C 366.906 -1.46494 4.75861 0
M  V30 3780 C 365.609 -0.665427 7.16215 0
M  V30 3781 C 367.635 -0.96347 5.83499 0
M  V30 3782 C 366.997 -0.567432 7.02111 0
M  V30 3783 H 363.096 -0.483551 0.614575 0
M  V30 3784 H 365.68 -0.663309 1.83053 0
M  V30 3785 H 363.851 -3.1426 2.28244 0
M  V30 3786 H 365.583 -3.15913 2.52944 0
M  V30 3787 H 362.338 -2.09678 4.24655 0
M  V30 3788 H 362.762 -1.11628 6.67734 0
M  V30 3789 H 367.404 -1.75731 3.8455 0
M  V30 3790 H 365.122 -0.360639 8.07295 0
M  V30 3791 H 368.708 -0.873129 5.75211 0
M  V30 3792 H 367.588 -0.185389 7.83981 0
M  V30 3793 N 365.091 -1.34144 -0.827227 0
M  V30 3794 C 366.507 -1.13732 -1.11969 0
M  V30 3795 C 366.707 0.0640463 -2.01398 0
M  V30 3796 O 365.763 0.740856 -2.41387 0
M  V30 3797 C 367.076 -2.43047 -1.77055 0
M  V30 3798 C 368.624 -2.49063 -1.89569 0
M  V30 3799 C 369.099 -3.78369 -2.58072 0
M  V30 3800 N 370.59 -3.79505 -2.65575 0
M  V30 3801 C 371.325 -4.76274 -3.19297 0
M  V30 3802 N 370.821 -5.83424 -3.73616 0
M  V30 3803 N 372.614 -4.63735 -3.17658 0
M  V30 3804 H 364.765 -2.11126 -0.232296 0
M  V30 3805 H 367.028 -0.933424 -0.165602 0
M  V30 3806 H 366.734 -3.31025 -1.18807 0
M  V30 3807 H 366.608 -2.56066 -2.76966 0
M  V30 3808 H 368.995 -1.61527 -2.46968 0
M  V30 3809 H 369.076 -2.39975 -0.885745 0
M  V30 3810 H 368.72 -4.66293 -2.01329 0
M  V30 3811 H 368.65 -3.84737 -3.59562 0
M  V30 3812 H 371.141 -3.02074 -2.27068 0
M  V30 3813 H 371.454 -6.53282 -4.12846 0
M  V30 3814 H 369.799 -5.87143 -3.71871 0
M  V30 3815 H 372.99 -3.79177 -2.74486 0
M  V30 3816 H 373.163 -5.39318 -3.59221 0
M  V30 3817 N 366.569 1.04691 -1.17803 0
M  V30 3818 C 367.519 2.10856 -0.867391 0
M  V30 3819 C 368.503 1.601 0.160206 0
M  V30 3820 O 369.695 1.76948 -0.042947 0
M  V30 3821 C 366.824 3.411 -0.388012 0
M  V30 3822 C 365.91 3.9864 -1.44732 0
M  V30 3823 N 366.301 4.30075 -2.66212 0
M  V30 3824 C 364.599 4.26439 -1.30637 0
M  V30 3825 C 365.3 4.76033 -3.34317 0
M  V30 3826 N 364.276 4.76462 -2.61696 0
M  V30 3827 H 368.078 2.33029 -1.79094 0
M  V30 3828 H 365.592 1.22386 -1.0675 0
M  V30 3829 H 367.589 4.16641 -0.146994 0
M  V30 3830 H 366.249 3.20357 0.529271 0
M  V30 3831 H 367.26 4.19917 -3.03134 0
M  V30 3832 H 363.937 4.15056 -0.451129 0
M  V30 3833 H 365.327 5.09427 -4.38103 0
M  V30 3834 N 368.047 0.979072 1.23499 0
M  V30 3835 C 368.977 0.537606 2.27227 0
M  V30 3836 C 369.958 -0.428539 1.64613 0
M  V30 3837 O 371.143 -0.322191 1.91509 0
M  V30 3838 C 368.273 -0.162052 3.46922 0
M  V30 3839 C 367.227 0.721242 4.21879 0
M  V30 3840 C 366.553 -0.110555 5.34586 0
M  V30 3841 C 367.853 2.01141 4.82016 0
M  V30 3842 H 369.547 1.40462 2.64406 0
M  V30 3843 H 367.093 0.67684 1.27102 0
M  V30 3844 H 369.046 -0.482192 4.18632 0
M  V30 3845 H 367.77 -1.06351 3.08799 0
M  V30 3846 H 366.429 1.02482 3.51984 0
M  V30 3847 H 366.077 -1.0125 4.92704 0
M  V30 3848 H 365.777 0.477325 5.85658 0
M  V30 3849 H 367.301 -0.425107 6.09118 0
M  V30 3850 H 368.715 1.75612 5.45741 0
M  V30 3851 H 367.112 2.54695 5.43369 0
M  V30 3852 H 368.182 2.69909 4.02836 0
M  V30 3853 N 369.525 -1.3858 0.750561 0
M  V30 3854 C 370.457 -2.29057 0.0810714 0
M  V30 3855 C 371.47 -1.47596 -0.686973 0
M  V30 3856 O 372.659 -1.70495 -0.528563 0
M  V30 3857 C 369.759 -3.26475 -0.909247 0
M  V30 3858 C 368.932 -4.36945 -0.199478 0
M  V30 3859 C 367.991 -5.14572 -1.10011 0
M  V30 3860 O 367.017 -5.66321 -0.57177 0
M  V30 3861 N 368.219 -5.27262 -2.42849 0
M  V30 3862 H 370.984 -2.87153 0.858087 0
M  V30 3863 H 368.545 -1.50328 0.60109 0
M  V30 3864 H 370.537 -3.75285 -1.51471 0
M  V30 3865 H 369.107 -2.69298 -1.58736 0
M  V30 3866 H 368.327 -3.8981 0.586664 0
M  V30 3867 H 369.615 -5.07963 0.291783 0
M  V30 3868 H 369.013 -4.86763 -2.88233 0
M  V30 3869 H 367.57 -5.79456 -2.98453 0
M  V30 3870 N 371.003 -0.499398 -1.49478 0
M  V30 3871 C 371.933 0.269244 -2.31943 0
M  V30 3872 C 372.914 0.964054 -1.40143 0
M  V30 3873 O 374.099 0.955767 -1.69052 0
M  V30 3874 C 371.229 1.33504 -3.20615 0
M  V30 3875 C 370.183 0.760202 -4.21195 0
M  V30 3876 C 369.509 1.9264 -4.98792 0
M  V30 3877 C 370.809 -0.247661 -5.21712 0
M  V30 3878 H 372.503 -0.419082 -2.96452 0
M  V30 3879 H 370.049 -0.202988 -1.42562 0
M  V30 3880 H 372.002 1.88048 -3.77115 0
M  V30 3881 H 370.726 2.05253 -2.54045 0
M  V30 3882 H 369.385 0.23653 -3.65836 0
M  V30 3883 H 369.033 2.63154 -4.28671 0
M  V30 3884 H 368.733 1.54785 -5.66847 0
M  V30 3885 H 370.257 2.4762 -5.58137 0
M  V30 3886 H 371.671 0.209579 -5.72917 0
M  V30 3887 H 370.068 -0.541962 -5.97648 0
M  V30 3888 H 371.138 -1.16409 -4.7072 0
M  V30 3889 N 372.481 1.55866 -0.233164 0
M  V30 3890 C 373.411 2.23783 0.666599 0
M  V30 3891 C 374.392 1.21343 1.19205 0
M  V30 3892 O 375.577 1.4996 1.23392 0
M  V30 3893 C 372.707 2.92671 1.86978 0
M  V30 3894 C 371.661 4.01682 1.47768 0
M  V30 3895 C 370.987 4.57926 2.76058 0
M  V30 3896 C 372.287 5.18126 0.658993 0
M  V30 3897 H 373.981 2.99232 0.100306 0
M  V30 3898 H 371.527 1.43924 0.046804 0
M  V30 3899 H 373.48 3.3888 2.50476 0
M  V30 3900 H 372.204 2.14688 2.46123 0
M  V30 3901 H 370.863 3.56222 0.866106 0
M  V30 3902 H 370.511 3.76659 3.33372 0
M  V30 3903 H 370.211 5.31505 2.50552 0
M  V30 3904 H 371.735 5.06859 3.40479 0
M  V30 3905 H 373.149 5.60644 1.19795 0
M  V30 3906 H 371.546 5.98009 0.500552 0
M  V30 3907 H 372.616 4.83763 -0.331856 0
M  V30 3908 N 373.959 -0.0401083 1.57549 0
M  V30 3909 C 375.205 -0.734211 1.89043 0
M  V30 3910 C 375.538 -1.75591 0.829535 0
M  V30 3911 O 374.813 -1.93868 -0.156706 0
M  V30 3912 C 375.096 -1.41374 3.31188 0
M  V30 3913 C 374.949 -0.406299 4.47961 0
M  V30 3914 C 376.268 -2.35061 3.72068 0
M  V30 3915 H 373.387 -0.265447 0.687537 0
M  V30 3916 H 376.029 0.00294087 1.9 0
M  V30 3917 H 374.179 -2.04206 3.30503 0
M  V30 3918 H 375.851 0.219255 4.60779 0
M  V30 3919 H 374.094 0.275485 4.32924 0
M  V30 3920 H 374.765 -0.920022 5.44279 0
M  V30 3921 H 377.241 -1.82282 3.74049 0
M  V30 3922 H 376.117 -2.79593 4.72355 0
M  V30 3923 H 376.378 -3.21258 3.0372 0
M  V30 3924 N 375.437 -1.54477 -0.31217 0
M  V30 3925 C 376.662 -1.77526 -1.07235 0
M  V30 3926 C 377.087 -0.527775 -1.80544 0
M  V30 3927 O 376.445 0.52121 -1.73646 0
M  V30 3928 C 376.493 -2.97535 -2.03728 0
M  V30 3929 O 375.597 -2.69878 -3.11833 0
M  V30 3930 H 374.938 -0.58792 -0.30862 0
M  V30 3931 H 377.468 -2.01532 -0.352993 0
M  V30 3932 H 377.478 -3.25198 -2.46395 0
M  V30 3933 H 376.153 -3.87996 -1.49774 0
M  V30 3934 H 374.73 -2.53199 -2.7376 0
M  V30 3935 N 376.915 0.57481 -1.46744 0
M  V30 3936 C 377.878 1.66533 -1.57478 0
M  V30 3937 C 378.878 1.54338 -0.451263 0
M  V30 3938 O 380.068 1.58814 -0.715813 0
M  V30 3939 C 377.2 3.05999 -1.50259 0
M  V30 3940 H 378.393 1.58372 -2.54673 0
M  V30 3941 H 375.946 0.793301 -1.34672 0
M  V30 3942 H 376.681 3.19709 -0.543725 0
M  V30 3943 H 376.466 3.16259 -2.31781 0
M  V30 3944 H 377.956 3.8537 -1.60872 0
M  V30 3945 N 378.394 1.34581 0.820102 0
M  V30 3946 C 379.805 1.24298 1.39309 0
M  V30 3947 C 380.156 -0.130351 1.95767 0
M  V30 3948 O 379.281 -1.0308 1.90272 0
M  V30 3949 C 379.876 2.25054 2.53251 0
M  V30 3950 C 378.435 2.18552 3.0645 0
M  V30 3951 C 377.582 2.11503 1.79337 0
M  V30 3952 H 380.533 1.45906 0.624262 0
M  V30 3953 H 380.554 1.86917 3.31425 0
M  V30 3954 H 380.066 3.24996 2.1213 0
M  V30 3955 H 378.167 1.21976 3.52069 0
M  V30 3956 H 378.28 3.0993 3.65349 0
M  V30 3957 H 376.644 1.57268 2.00347 0
M  V30 3958 H 377.427 3.13284 1.40386 0
M  V30 3959 N 379.872 -1.04064 1.18357 0
M  V30 3960 C 381.119 -1.77265 0.978947 0
M  V30 3961 C 381.447 -1.88189 -0.491428 0
M  V30 3962 O 380.702 -1.38653 -1.38108 0
M  V30 3963 C 381.001 -3.20634 1.57888 0
M  V30 3964 C 380.667 -3.29743 3.07539 0
M  V30 3965 C 379.329 -3.31937 3.48384 0
M  V30 3966 C 381.681 -3.29841 4.03552 0
M  V30 3967 C 379.009 -3.3187 4.83818 0
M  V30 3968 C 381.361 -3.31313 5.38901 0
M  V30 3969 C 380.025 -3.31799 5.79194 0
M  V30 3970 H 379.295 -0.648659 0.358222 0
M  V30 3971 H 381.942 -1.22225 1.47422 0
M  V30 3972 H 380.247 -3.78675 1.00561 0
M  V30 3973 H 381.944 -3.75917 1.39598 0
M  V30 3974 H 378.534 -3.28757 2.74986 0
M  V30 3975 H 382.718 -3.27337 3.73047 0
M  V30 3976 H 377.974 -3.30562 5.14333 0
M  V30 3977 H 382.148 -3.30338 6.13066 0
M  V30 3978 H 379.775 -3.315 6.84114 0
M  V30 3979 N 381.35 -0.985608 -1.22978 0
M  V30 3980 C 382.597 -0.657386 -1.91532 0
M  V30 3981 C 382.925 0.809707 -1.76845 0
M  V30 3982 O 382.18 1.60021 -1.12658 0
M  V30 3983 C 382.479 -1.00014 -3.43121 0
M  V30 3984 C 382.145 -2.4583 -3.77993 0
M  V30 3985 C 380.807 -2.85679 -3.87222 0
M  V30 3986 C 383.159 -3.40378 -3.94705 0
M  V30 3987 C 380.487 -4.19081 -4.10595 0
M  V30 3988 C 382.839 -4.73429 -4.1958 0
M  V30 3989 C 381.503 -5.1303 -4.27032 0
M  V30 3990 H 380.773 -0.240555 -0.700867 0
M  V30 3991 H 383.42 -1.24044 -1.45895 0
M  V30 3992 H 381.725 -0.335072 -3.90365 0
M  V30 3993 H 383.422 -0.724322 -3.94404 0
M  V30 3994 H 380.012 -2.13939 -3.71387 0
M  V30 3995 H 384.196 -3.10766 -3.8696 0
M  V30 3996 H 379.452 -4.49362 -4.14589 0
M  V30 3997 H 383.626 -5.46644 -4.31455 0
M  V30 3998 H 381.253 -6.16418 -4.44896 0
M  V30 3999 N 382.828 1.3818 -0.7579 0
M  V30 4000 C 383.791 2.28764 -0.141286 0
M  V30 4001 C 384.791 1.47388 0.642907 0
M  V30 4002 O 385.981 1.67781 0.468536 0
M  V30 4003 C 383.113 3.31184 0.808069 0
M  V30 4004 H 384.306 2.848 -0.939633 0
M  V30 4005 H 381.859 1.47212 -0.525191 0
M  V30 4006 H 382.594 2.80247 1.63193 0
M  V30 4007 H 382.379 3.91314 0.248104 0
M  V30 4008 H 383.869 3.98909 1.23536 0
M  V30 4009 N 384.306 0.507319 1.49211 0
M  V30 4010 C 385.553 -0.0349529 2.0247 0
M  V30 4011 C 385.881 -1.36409 1.38647 0
M  V30 4012 O 385.136 -1.88841 0.513566 0
M  V30 4013 C 385.435 -0.229513 3.56662 0
M  V30 4014 C 385.101 1.02241 4.39156 0
M  V30 4015 C 383.763 1.36557 4.61417 0
M  V30 4016 C 386.115 1.85428 4.871 0
M  V30 4017 C 383.443 2.53999 5.28868 0
M  V30 4018 C 385.795 3.02028 5.55843 0
M  V30 4019 C 384.459 3.36717 5.76349 0
M  V30 4020 H 383.729 -0.0127902 0.74089 0
M  V30 4021 H 386.376 0.668756 1.79443 0
M  V30 4022 H 384.681 -1.0158 3.78403 0
M  V30 4023 H 386.378 -0.663641 3.9547 0
M  V30 4024 H 382.968 0.745124 4.22073 0
M  V30 4025 H 387.152 1.6023 4.69723 0
M  V30 4026 H 382.408 2.81105 5.42946 0
M  V30 4027 H 386.582 3.66808 5.91967 0
M  V30 4028 H 384.209 4.27821 6.28389 0
M  V30 4029 N 385.784 -1.5574 0.241426 0
M  V30 4030 C 387.031 -1.9881 -0.384836 0
M  V30 4031 C 387.359 -1.12947 -1.58346 0
M  V30 4032 O 386.614 -0.178993 -1.9488 0
M  V30 4033 C 386.913 -3.47308 -0.843317 0
M  V30 4034 C 386.579 -4.50223 0.246946 0
M  V30 4035 C 385.241 -4.78088 0.546399 0
M  V30 4036 C 387.593 -5.11841 0.983282 0
M  V30 4037 C 384.921 -5.64846 1.58636 0
M  V30 4038 C 387.273 -5.99727 2.01272 0
M  V30 4039 C 385.937 -6.25927 2.31888 0
M  V30 4040 H 385.207 -0.727496 -0.140821 0
M  V30 4041 H 387.854 -1.8831 0.348106 0
M  V30 4042 H 386.159 -3.55112 -1.65537 0
M  V30 4043 H 387.856 -3.78017 -1.33806 0
M  V30 4044 H 384.446 -4.286 0.00340639 0
M  V30 4045 H 388.63 -4.90366 0.765182 0
M  V30 4046 H 383.886 -5.83403 1.82896 0
M  V30 4047 H 388.06 -6.46517 2.58823 0
M  V30 4048 H 385.687 -6.92949 3.12611 0
M  V30 4049 N 387.262 0.0317525 -1.57568 0
M  V30 4050 C 388.511 0.722131 -1.8833 0
M  V30 4051 C 388.824 1.76664 -0.839587 0
M  V30 4052 O 390.03 2.50942 -1.03635 0
M  V30 4053 C 388.486 1.33544 -3.34207 0
M  V30 4054 C 388.094 0.327415 -4.46802 0
M  V30 4055 C 389.838 2.00585 -3.7412 0
M  V30 4056 C 387.745 0.948915 -5.83738 0
M  V30 4057 H 386.675 0.273466 -0.702661 0
M  V30 4058 H 389.326 -0.0235811 -1.83485 0
M  V30 4059 H 387.708 2.13077 -3.33788 0
M  V30 4060 H 388.882 -0.441006 -4.58685 0
M  V30 4061 H 387.197 -0.240758 -4.15703 0
M  V30 4062 H 389.794 2.47932 -4.73744 0
M  V30 4063 H 390.137 2.82285 -3.05975 0
M  V30 4064 H 390.67 1.27831 -3.76702 0
M  V30 4065 H 387.409 0.171387 -6.55276 0
M  V30 4066 H 386.929 1.68724 -5.7558 0
M  V30 4067 H 388.608 1.45705 -6.3038 0
M  V30 4068 N 388.74 1.54641 0.303973 0
M  V30 4069 C 389.97 1.77511 1.05705 0
M  V30 4070 C 390.378 0.533228 1.81531 0
M  V30 4071 O 389.721 -0.506423 1.76582 0
M  V30 4072 C 389.783 2.92779 2.08617 0
M  V30 4073 C 389.447 4.30977 1.52013 0
M  V30 4074 C 390.444 5.11115 0.9517 0
M  V30 4075 C 388.129 4.77571 1.55665 0
M  V30 4076 C 390.123 6.35966 0.427327 0
M  V30 4077 C 387.81 6.02384 1.02841 0
M  V30 4078 C 388.808 6.81417 0.464713 0
M  V30 4079 O 388.496 8.03881 -0.0555283 0
M  V30 4080 H 388.228 0.59579 0.319391 0
M  V30 4081 H 390.782 2.02401 0.349712 0
M  V30 4082 H 389.012 2.63506 2.83022 0
M  V30 4083 H 390.701 3.03252 2.69802 0
M  V30 4084 H 391.467 4.76264 0.916407 0
M  V30 4085 H 387.346 4.16085 1.9848 0
M  V30 4086 H 390.89 6.97599 -0.0133062 0
M  V30 4087 H 386.787 6.36723 1.06084 0
M  V30 4088 H 387.555 8.18479 0.0580522 0
M  V30 4089 N 390.218 -0.567019 1.47046 0
M  V30 4090 C 391.443 -1.3551 1.57009 0
M  V30 4091 C 391.868 -1.86841 0.217259 0
M  V30 4092 O 391.226 -1.62435 -0.805268 0
M  V30 4093 C 391.274 -2.50777 2.5912 0
M  V30 4094 O 390.378 -3.52706 2.13711 0
M  V30 4095 H 389.719 -0.402919 0.52778 0
M  V30 4096 H 392.249 -0.686241 1.92748 0
M  V30 4097 H 392.259 -2.97481 2.79229 0
M  V30 4098 H 390.934 -2.12771 3.57353 0
M  V30 4099 H 389.511 -3.12374 2.03659 0
M  V30 4100 N 391.696 -1.35014 -0.812953 0
M  V30 4101 C 392.942 -1.29129 -1.57154 0
M  V30 4102 C 393.297 0.134922 -1.91926 0
M  V30 4103 O 392.59 1.08373 -1.58006 0
M  V30 4104 C 392.784 -2.12524 -2.87347 0
M  V30 4105 C 392.613 -3.6311 -2.65294 0
M  V30 4106 C 391.383 -4.32363 -2.61516 0
M  V30 4107 C 393.581 -4.56897 -2.36114 0
M  V30 4108 N 391.563 -5.68735 -2.31113 0
M  V30 4109 C 392.934 -5.81345 -2.15494 0
M  V30 4110 C 394.989 -4.45706 -2.21925 0
M  V30 4111 C 393.692 -6.95862 -1.82122 0
M  V30 4112 C 395.718 -5.60066 -1.89948 0
M  V30 4113 C 395.08 -6.83539 -1.7016 0
M  V30 4114 H 391.179 -0.527764 -0.577052 0
M  V30 4115 H 393.763 -1.6983 -0.952146 0
M  V30 4116 H 391.934 -1.74104 -3.47192 0
M  V30 4117 H 393.666 -1.98207 -3.5284 0
M  V30 4118 H 390.421 -3.84907 -2.75941 0
M  V30 4119 H 390.845 -6.40694 -2.18724 0
M  V30 4120 H 395.487 -3.50855 -2.35925 0
M  V30 4121 H 393.205 -7.90685 -1.6686 0
M  V30 4122 H 396.791 -5.53357 -1.79687 0
M  V30 4123 H 395.671 -7.70531 -1.45777 0
M  V30 4124 N 393.175 1.03435 -1.18907 0
M  V30 4125 C 394.422 1.76743 -0.988334 0
M  V30 4126 C 394.75 1.88447 0.481441 0
M  V30 4127 O 394.005 1.39383 1.37371 0
M  V30 4128 C 394.304 3.19792 -1.59586 0
M  V30 4129 C 393.97 3.28108 -3.09283 0
M  V30 4130 C 392.632 3.30084 -3.5014 0
M  V30 4131 C 394.984 3.27696 -4.05296 0
M  V30 4132 C 392.312 3.29299 -4.85571 0
M  V30 4133 C 394.664 3.28451 -5.4065 0
M  V30 4134 C 393.328 3.28723 -5.80946 0
M  V30 4135 H 392.598 0.64675 -0.361657 0
M  V30 4136 H 395.245 1.21442 -1.48068 0
M  V30 4137 H 393.55 3.78136 -1.02568 0
M  V30 4138 H 395.247 3.75171 -1.41589 0
M  V30 4139 H 391.837 3.27294 -2.76725 0
M  V30 4140 H 396.021 3.25354 -3.74778 0
M  V30 4141 H 391.277 3.2783 -5.16079 0
M  V30 4142 H 395.451 3.27082 -6.14809 0
M  V30 4143 H 393.078 3.27868 -6.85862 0
M  V30 4144 N 394.653 0.992116 1.22453 0
M  V30 4145 C 395.9 0.667534 1.91181 0
M  V30 4146 C 396.228 -0.800317 1.77271 0
M  V30 4147 O 395.483 -1.59421 1.13505 0
M  V30 4148 C 395.782 1.01832 3.42586 0
M  V30 4149 C 395.448 2.47831 3.76684 0
M  V30 4150 C 394.11 2.87729 3.85701 0
M  V30 4151 C 396.462 3.42466 3.92895 0
M  V30 4152 C 393.79 4.21252 4.08367 0
M  V30 4153 C 396.142 4.75648 4.17064 0
M  V30 4154 C 394.806 5.15288 4.24305 0
M  V30 4155 H 394.076 0.244268 0.699581 0
M  V30 4156 H 396.723 1.24816 1.45235 0
M  V30 4157 H 395.028 0.355769 3.90181 0
M  V30 4158 H 396.725 0.745228 3.94014 0
M  V30 4159 H 393.315 2.15905 3.70247 0
M  V30 4160 H 397.499 3.12814 3.85307 0
M  V30 4161 H 392.755 4.51554 4.122 0
M  V30 4162 H 396.929 5.48924 4.2855 0
M  V30 4163 H 394.556 6.18769 4.41621 0
M  V30 4164 N 396.131 -1.37776 0.765217 0
M  V30 4165 C 397.38 -1.99092 0.323307 0
M  V30 4166 C 397.693 -1.61434 -1.10446 0
M  V30 4167 O 398.899 -2.15805 -1.64743 0
M  V30 4168 C 397.355 -3.56019 0.527098 0
M  V30 4169 C 396.963 -4.0262 1.96471 0
M  V30 4170 C 398.707 -4.2424 0.148483 0
M  V30 4171 C 396.614 -5.52233 2.11644 0
M  V30 4172 H 395.544 -0.744846 0.117137 0
M  V30 4173 H 398.195 -1.57391 0.943417 0
M  V30 4174 H 396.577 -3.95667 -0.162372 0
M  V30 4175 H 397.751 -3.74234 2.68859 0
M  V30 4176 H 396.066 -3.47161 2.29931 0
M  V30 4177 H 398.663 -5.34159 0.240456 0
M  V30 4178 H 399.006 -4.06446 -0.900422 0
M  V30 4179 H 399.539 -3.89872 0.79025 0
M  V30 4180 H 396.278 -5.74945 3.1483 0
M  V30 4181 H 395.798 -5.82324 1.4373 0
M  V30 4182 H 397.477 -6.18106 1.91193 0
M  V30 4183 N 397.609 -0.515225 -1.4894 0
M  V30 4184 C 398.519 0.259774 -2.33157 0
M  V30 4185 C 399.535 0.953501 -1.45548 0
M  V30 4186 O 400.711 0.931735 -1.78552 0
M  V30 4187 C 397.776 1.30193 -3.21326 0
M  V30 4188 C 396.837 0.620129 -4.24797 0
M  V30 4189 C 396.07 1.61263 -5.08753 0
M  V30 4190 O 396.293 2.84389 -4.94448 0
M  V30 4191 O 395.227 1.16013 -5.90614 0
M  V30 4192 H 399.053 -0.429932 -3.00641 0
M  V30 4193 H 396.638 -0.276346 -1.46822 0
M  V30 4194 H 398.52 1.90455 -3.75905 0
M  V30 4195 H 397.195 1.97431 -2.56521 0
M  V30 4196 H 396.102 -0.0226019 -3.74093 0
M  V30 4197 H 397.435 -0.0100493 -4.92199 0
M  V30 4198 N 399.087 1.5561 -0.249682 0
M  V30 4199 C 400.312 2.03865 0.381305 0
M  V30 4200 C 400.737 1.12769 1.50548 0
M  V30 4201 O 400.095 0.121189 1.80895 0
M  V30 4202 C 400.143 3.50101 0.863816 0
M  V30 4203 O 399.247 3.62132 1.97318 0
M  V30 4204 H 398.588 0.658827 0.0827194 0
M  V30 4205 H 401.118 2.01105 -0.376552 0
M  V30 4206 H 401.128 3.90975 1.1663 0
M  V30 4207 H 399.803 4.1588 0.0411816 0
M  V30 4208 H 398.38 3.33155 1.67517 0
M  V30 4209 N 400.565 -0.0233959 1.57583 0
M  V30 4210 C 401.528 -1.00693 2.05897 0
M  V30 4211 C 402.528 -1.28693 0.964092 0
M  V30 4212 O 403.718 -1.23602 1.22753 0
M  V30 4213 C 400.85 -2.33825 2.4807 0
M  V30 4214 H 402.043 -0.589476 2.9405 0
M  V30 4215 H 399.596 -0.270354 1.53944 0
M  V30 4216 H 400.331 -2.80307 1.6309 0
M  V30 4217 H 400.116 -2.1483 3.2801 0
M  V30 4218 H 401.606 -3.04426 2.85857 0
M  V30 4219 N 402.043 -1.548 -0.295768 0
M  V30 4220 C 403.459 -1.4613 -0.641722 0
M  V30 4221 C 403.659 -0.656771 -1.90496 0
M  V30 4222 O 402.715 -0.166547 -2.5195 0
M  V30 4223 C 404.028 -2.90141 -0.789852 0
M  V30 4224 C 405.576 -3.00216 -0.885396 0
M  V30 4225 C 406.051 -4.45434 -1.06548 0
M  V30 4226 N 407.542 -4.49166 -1.13156 0
M  V30 4227 C 408.277 -5.58717 -1.28929 0
M  V30 4228 N 407.773 -6.78182 -1.41567 0
M  V30 4229 N 409.566 -5.46415 -1.31859 0
M  V30 4230 H 401.717 -2.05574 0.534147 0
M  V30 4231 H 403.98 -0.931259 0.177372 0
M  V30 4232 H 403.686 -3.51635 0.0675598 0
M  V30 4233 H 403.56 -3.37859 -1.67724 0
M  V30 4234 H 405.947 -2.38833 -1.73329 0
M  V30 4235 H 406.028 -2.55787 0.0261185 0
M  V30 4236 H 405.672 -5.07413 -0.222335 0
M  V30 4237 H 405.602 -4.87499 -1.9913 0
M  V30 4238 H 408.093 -3.631 -1.04721 0
M  V30 4239 H 408.406 -7.57428 -1.53372 0
M  V30 4240 H 406.751 -6.81037 -1.38613 0
M  V30 4241 H 409.942 -4.5203 -1.21601 0
M  V30 4242 H 410.115 -6.31841 -1.43808 0
M  V30 4243 N 403.521 0.559213 -1.47345 0
M  V30 4244 C 404.767 1.31614 -1.55079 0
M  V30 4245 C 405.122 1.91257 -0.209422 0
M  V30 4246 O 404.415 1.74796 0.784656 0
M  V30 4247 C 404.609 2.44853 -2.6035 0
M  V30 4248 C 404.438 1.96305 -4.04591 0
M  V30 4249 C 403.208 1.8024 -4.72061 0
M  V30 4250 C 405.406 1.50872 -4.91673 0
M  V30 4251 N 403.388 1.26011 -6.00828 0
M  V30 4252 C 404.759 1.08395 -6.10451 0
M  V30 4253 C 406.814 1.38905 -4.78132 0
M  V30 4254 C 405.517 0.551399 -7.17183 0
M  V30 4255 C 407.543 0.870518 -5.84958 0
M  V30 4256 C 406.905 0.455661 -7.02925 0
M  V30 4257 H 403.004 0.473712 -0.62219 0
M  V30 4258 H 405.588 0.634103 -1.84085 0
M  V30 4259 H 403.759 3.10589 -2.33215 0
M  V30 4260 H 405.491 3.11849 -2.57938 0
M  V30 4261 H 402.246 2.02895 -4.27937 0
M  V30 4262 H 402.67 1.00991 -6.69425 0
M  V30 4263 H 407.312 1.69591 -3.87297 0
M  V30 4264 H 405.03 0.232159 -8.07766 0
M  V30 4265 H 408.616 0.781507 -5.76527 0
M  V30 4266 H 407.496 0.0606414 -7.84177 0
M  V30 4267 N 404.999 1.35443 0.805782 0
M  V30 4268 C 405.949 1.24972 1.90699 0
M  V30 4269 C 406.933 0.144806 1.60247 0
M  V30 4270 O 408.125 0.376102 1.72958 0
M  V30 4271 C 405.254 1.02475 3.27649 0
M  V30 4272 C 404.34 2.17361 3.64164 0
M  V30 4273 N 404.731 3.42591 3.72109 0
M  V30 4274 C 403.029 2.08765 3.94123 0
M  V30 4275 C 403.73 4.18144 4.04389 0
M  V30 4276 N 402.706 3.4691 4.18515 0
M  V30 4277 H 406.508 2.19852 1.95044 0
M  V30 4278 H 404.022 1.27928 1.00041 0
M  V30 4279 H 406.019 0.930617 4.06381 0
M  V30 4280 H 404.679 0.0848009 3.24589 0
M  V30 4281 H 405.69 3.76932 3.55166 0
M  V30 4282 H 402.367 1.22629 3.99084 0
M  V30 4283 H 403.757 5.26367 4.17597 0
M  V30 4284 N 406.477 -1.02803 1.19454 0
M  V30 4285 C 407.702 -1.80378 1.02364 0
M  V30 4286 C 408.127 -1.83282 -0.423007 0
M  V30 4287 O 407.485 -1.25945 -1.30413 0
M  V30 4288 C 407.533 -3.23248 1.59821 0
M  V30 4289 O 406.637 -4.04 0.828105 0
M  V30 4290 H 405.978 -0.556799 0.361761 0
M  V30 4291 H 408.508 -1.29385 1.58495 0
M  V30 4292 H 408.518 -3.73994 1.63073 0
M  V30 4293 H 407.193 -3.2045 2.65113 0
M  V30 4294 H 405.77 -3.62635 0.86891 0
M  V30 4295 N 407.956 -0.998596 -1.21925 0
M  V30 4296 C 409.181 -0.696015 -1.95372 0
M  V30 4297 C 409.606 0.733826 -1.73195 0
M  V30 4298 O 408.964 1.50242 -1.01474 0
M  V30 4299 C 409.012 -1.01466 -3.4603 0
M  V30 4300 O 408.116 -0.116415 -4.12236 0
M  V30 4301 H 407.457 -0.259938 -0.611006 0
M  V30 4302 H 409.987 -1.33711 -1.54863 0
M  V30 4303 H 409.997 -0.958855 -3.96573 0
M  V30 4304 H 408.672 -2.05653 -3.61497 0
M  V30 4305 H 407.249 -0.228193 -3.72201 0
M  V30 4306 N 409.434 1.37368 -0.772513 0
M  V30 4307 C 410.659 2.0447 -0.347386 0
M  V30 4308 C 411.084 1.57882 1.0225 0
M  V30 4309 O 410.442 0.73941 1.65537 0
M  V30 4310 C 410.49 3.58369 -0.400479 0
M  V30 4311 O 409.594 4.0803 0.598789 0
M  V30 4312 H 408.935 0.646773 -0.15027 0
M  V30 4313 H 411.465 1.75667 -1.04892 0
M  V30 4314 H 411.475 4.07183 -0.258045 0
M  V30 4315 H 410.15 3.91633 -1.39986 0
M  V30 4316 H 408.727 3.70534 0.419411 0
M  V30 4317 N 410.912 0.523116 1.48665 0
M  V30 4318 C 412.16 -0.0134497 2.02096 0
M  V30 4319 C 412.481 -1.35418 1.40311 0
M  V30 4320 O 411.751 -1.87543 0.566074 0
M  V30 4321 H 410.331 -0.00795915 0.746958 0
M  V30 4322 H 412.993 0.685388 1.82451 0
M  V30 4323 H 412.089 -0.126849 3.11842 0
M  V30 4324 N 412.39 -1.55475 0.257931 0
M  V30 4325 C 413.806 -1.59307 -0.0966563 0
M  V30 4326 C 414.006 -1.27514 -1.5602 0
M  V30 4327 O 413.062 -1.02774 -2.30637 0
M  V30 4328 C 414.375 -2.99552 0.262481 0
M  V30 4329 C 415.923 -3.1231 0.207683 0
M  V30 4330 C 416.398 -4.54793 0.541012 0
M  V30 4331 N 417.889 -4.6058 0.491921 0
M  V30 4332 C 418.624 -5.68825 0.722857 0
M  V30 4333 N 418.12 -6.85287 1.0175 0
M  V30 4334 N 419.913 -5.58296 0.652815 0
M  V30 4335 H 412.064 -1.74409 1.21224 0
M  V30 4336 H 414.327 -0.812424 0.48854 0
M  V30 4337 H 414.033 -3.27593 1.27967 0
M  V30 4338 H 413.907 -3.75019 -0.40508 0
M  V30 4339 H 416.294 -2.84044 -0.800195 0
M  V30 4340 H 416.375 -2.39095 0.909255 0
M  V30 4341 H 416.019 -4.83783 1.5465 0
M  V30 4342 H 415.949 -5.26285 -0.18216 0
M  V30 4343 H 418.44 -3.7691 0.273366 0
M  V30 4344 H 418.753 -7.63725 1.18084 0
M  V30 4345 H 417.098 -6.86945 1.05509 0
M  V30 4346 H 420.289 -4.66189 0.422592 0
M  V30 4347 H 420.462 -6.42582 0.836182 0
M  V30 4348 N 413.868 0.0150385 -1.57593 0
M  V30 4349 C 414.798 1.01047 -2.10503 0
M  V30 4350 C 415.779 1.36816 -1.01071 0
M  V30 4351 O 416.964 1.45455 -1.28672 0
M  V30 4352 C 414.094 2.30708 -2.59598 0
M  V30 4353 C 413.048 2.09142 -3.73421 0
M  V30 4354 C 412.374 3.44685 -4.08774 0
M  V30 4355 C 413.674 1.46619 -5.01298 0
M  V30 4356 H 415.368 0.569978 -2.93925 0
M  V30 4357 H 412.914 0.272724 -1.41394 0
M  V30 4358 H 414.867 3.00687 -2.95238 0
M  V30 4359 H 413.591 2.76843 -1.73279 0
M  V30 4360 H 412.25 1.41592 -3.38153 0
M  V30 4361 H 411.898 3.88495 -3.195 0
M  V30 4362 H 411.598 3.31077 -4.8545 0
M  V30 4363 H 413.122 4.16004 -4.4696 0
M  V30 4364 H 414.536 2.06535 -5.34805 0
M  V30 4365 H 412.933 1.43544 -5.82679 0
M  V30 4366 H 414.003 0.433611 -4.82957 0
M  V30 4367 N 415.346 1.54954 0.287554 0
M  V30 4368 C 416.623 1.65569 1.04146 0
M  V30 4369 C 417.003 0.512672 2.0478 0
M  V30 4370 O 416.351 -0.489038 2.23205 0
M  V30 4371 C 416.561 3.04163 1.71131 0
M  V30 4372 C 417.909 3.61429 2.22832 0
M  V30 4373 O 418.933 3.06702 1.81141 0
M  V30 4374 O 417.792 4.57281 2.9926 0
M  V30 4375 H 414.886 0.671881 0.482188 0
M  V30 4376 H 417.432 1.67297 0.28457 0
M  V30 4377 H 416.204 3.78796 0.981303 0
M  V30 4378 H 415.827 3.06271 2.53543 0
M  V30 4379 N 416.824 -0.551391 1.4764 0
M  V30 4380 C 417.754 -1.66757 1.63445 0
M  V30 4381 C 418.735 -1.63077 0.483742 0
M  V30 4382 O 419.92 -1.80607 0.71377 0
M  V30 4383 C 417.05 -3.05387 1.65396 0
M  V30 4384 C 416.004 -3.23918 2.79752 0
M  V30 4385 C 415.33 -4.63393 2.66779 0
M  V30 4386 C 416.63 -3.08735 4.21284 0
M  V30 4387 H 418.324 -1.53786 2.56886 0
M  V30 4388 H 415.87 -0.738415 1.23626 0
M  V30 4389 H 417.823 -3.83325 1.75043 0
M  V30 4390 H 416.547 -3.19332 0.685195 0
M  V30 4391 H 415.206 -2.48391 2.69625 0
M  V30 4392 H 414.854 -4.74144 1.67918 0
M  V30 4393 H 414.554 -4.7674 3.43501 0
M  V30 4394 H 416.078 -5.43458 2.78364 0
M  V30 4395 H 417.492 -3.76484 4.32357 0
M  V30 4396 H 415.889 -3.33588 4.98838 0
M  V30 4397 H 416.959 -2.0541 4.39243 0
M  V30 4398 N 418.302 -1.35869 -0.798587 0
M  V30 4399 C 419.53 -1.32722 -1.58722 0
M  V30 4400 C 419.945 0.0935631 -1.88568 0
M  V30 4401 O 419.302 1.04784 -1.49421 0
M  V30 4402 C 419.353 -2.13974 -2.91371 0
M  V30 4403 O 419.074 -3.50514 -2.62815 0
M  V30 4404 C 420.575 -2.18504 -3.85708 0
M  V30 4405 H 417.795 -0.45562 -0.492596 0
M  V30 4406 H 420.339 -1.78837 -0.991843 0
M  V30 4407 H 418.494 -1.71438 -3.47402 0
M  V30 4408 H 418.908 -3.92806 -3.47568 0
M  V30 4409 H 420.382 -2.79732 -4.75872 0
M  V30 4410 H 420.859 -1.18597 -4.22885 0
M  V30 4411 H 421.465 -2.61236 -3.35612 0
M  V30 4412 N 419.78 1.02168 -1.19998 0
M  V30 4413 C 420.71 2.12488 -0.96804 0
M  V30 4414 C 421.691 1.69799 0.101185 0
M  V30 4415 O 422.876 1.94121 -0.0552993 0
M  V30 4416 C 420.006 3.43479 -0.513776 0
M  V30 4417 C 418.96 3.99884 -1.52566 0
M  V30 4418 C 418.286 5.26582 -0.928214 0
M  V30 4419 C 419.586 4.33861 -2.90795 0
M  V30 4420 H 421.28 2.32149 -1.89069 0
M  V30 4421 H 418.826 1.11564 -0.910468 0
M  V30 4422 H 420.779 4.20036 -0.338774 0
M  V30 4423 H 419.503 3.23561 0.444493 0
M  V30 4424 H 418.162 3.25429 -1.68794 0
M  V30 4425 H 417.81 5.02986 0.0378289 0
M  V30 4426 H 417.51 5.65284 -1.60397 0
M  V30 4427 H 419.034 6.05799 -0.764167 0
M  V30 4428 H 420.448 5.01327 -2.78109 0
M  V30 4429 H 418.845 4.83664 -3.55231 0
M  V30 4430 H 419.915 3.42848 -3.42904 0
M  V30 4431 N 421.258 1.00505 1.21394 0
M  V30 4432 C 422.674 0.717873 1.42544 0
M  V30 4433 C 422.874 -0.706936 1.88692 0
M  V30 4434 O 421.93 -1.47627 2.04847 0
M  V30 4435 C 423.243 1.73377 2.45684 0
M  V30 4436 C 424.791 1.75059 2.59467 0
M  V30 4437 C 425.266 2.75545 3.6584 0
M  V30 4438 N 426.757 2.74213 3.73311 0
M  V30 4439 C 427.492 3.48626 4.55245 0
M  V30 4440 N 426.988 4.32678 5.41075 0
M  V30 4441 N 428.781 3.37276 4.49668 0
M  V30 4442 H 420.932 1.92506 0.897503 0
M  V30 4443 H 423.195 0.830919 0.456375 0
M  V30 4444 H 422.901 2.75395 2.18748 0
M  V30 4445 H 422.775 1.53647 3.44489 0
M  V30 4446 H 425.162 0.737337 2.8574 0
M  V30 4447 H 425.243 1.98861 1.60897 0
M  V30 4448 H 424.887 3.77028 3.40313 0
M  V30 4449 H 424.817 2.49009 4.64007 0
M  V30 4450 H 427.308 2.13234 3.11993 0
M  V30 4451 H 427.621 4.86253 6.00648 0
M  V30 4452 H 425.966 4.3676 5.40616 0
M  V30 4453 H 429.157 2.71043 3.81646 0
M  V30 4454 H 429.33 3.95524 5.13288 0
M  V30 4455 N 422.737 -1.36956 0.779787 0
M  V30 4456 C 423.7 -2.2851 0.177662 0
M  V30 4457 C 424.7 -1.48393 -0.619377 0
M  V30 4458 O 425.89 -1.68505 -0.441785 0
M  V30 4459 C 423.022 -3.32428 -0.755279 0
M  V30 4460 H 424.215 -2.83269 0.984823 0
M  V30 4461 H 421.768 -1.46358 0.548544 0
M  V30 4462 H 422.503 -2.82808 -1.58714 0
M  V30 4463 H 422.288 -3.91659 -0.185817 0
M  V30 4464 H 423.778 -4.00824 -1.17174 0
M  V30 4465 N 424.215 -0.530993 -1.48385 0
M  V30 4466 C 425.145 0.219985 -2.32461 0
M  V30 4467 C 426.126 0.934111 -1.42156 0
M  V30 4468 O 427.311 0.919694 -1.71042 0
M  V30 4469 C 424.441 1.26674 -3.23375 0
M  V30 4470 C 423.395 0.67069 -4.22712 0
M  V30 4471 C 422.721 1.82017 -5.02766 0
M  V30 4472 C 424.021 -0.358268 -5.2107 0
M  V30 4473 H 425.715 -0.48187 -2.95497 0
M  V30 4474 H 423.261 -0.233182 -1.42099 0
M  V30 4475 H 425.214 1.80006 -3.81019 0
M  V30 4476 H 423.938 1.99818 -2.58341 0
M  V30 4477 H 422.597 0.158878 -3.66256 0
M  V30 4478 H 422.245 2.54002 -4.34157 0
M  V30 4479 H 421.945 1.42727 -5.70003 0
M  V30 4480 H 423.469 2.35725 -5.63264 0
M  V30 4481 H 424.883 0.0880081 -5.73232 0
M  V30 4482 H 423.28 -0.66861 -5.96364 0
M  V30 4483 H 424.35 -1.26367 -4.68145 0
M  V30 4484 N 425.693 1.55336 -0.266172 0
M  V30 4485 C 426.625 2.19544 0.658247 0
M  V30 4486 C 427.638 1.17746 1.12427 0
M  V30 4487 O 428.827 1.44517 1.04772 0
M  V30 4488 C 425.927 2.80032 1.9088 0
M  V30 4489 C 425.1 4.07436 1.59106 0
M  V30 4490 C 424.159 4.52056 2.69317 0
M  V30 4491 O 423.185 5.18023 2.35883 0
M  V30 4492 N 424.387 4.21448 3.99201 0
M  V30 4493 H 427.152 2.99503 0.108754 0
M  V30 4494 H 424.713 1.61667 -0.0869059 0
M  V30 4495 H 426.705 3.06831 2.63888 0
M  V30 4496 H 425.275 2.04119 2.36758 0
M  V30 4497 H 424.495 3.88021 0.695243 0
M  V30 4498 H 425.783 4.90462 1.35367 0
M  V30 4499 H 425.181 3.68528 4.29189 0
M  V30 4500 H 423.738 4.53039 4.68614 0
M  V30 4501 N 427.171 -0.0066808 1.57599 0
M  V30 4502 C 428.587 -0.36267 1.55425 0
M  V30 4503 C 428.787 -1.75209 0.995187 0
M  V30 4504 O 427.843 -2.44616 0.626058 0
M  V30 4505 C 429.156 -0.244017 2.99708 0
M  V30 4506 C 430.704 -0.319451 3.11366 0
M  V30 4507 C 431.179 -0.229998 4.57422 0
M  V30 4508 N 432.67 -0.288105 4.62303 0
M  V30 4509 C 433.405 -0.242127 5.72889 0
M  V30 4510 N 432.901 -0.147133 6.92644 0
M  V30 4511 N 434.694 -0.293502 5.61333 0
M  V30 4512 H 426.845 0.902314 1.92281 0
M  V30 4513 H 429.108 0.34525 0.882896 0
M  V30 4514 H 428.814 0.711678 3.44424 0
M  V30 4515 H 428.688 -1.02877 3.629 0
M  V30 4516 H 431.075 -1.26559 2.66584 0
M  V30 4517 H 431.156 0.495055 2.50964 0
M  V30 4518 H 430.8 0.712566 5.02877 0
M  V30 4519 H 430.73 -1.0629 5.15761 0
M  V30 4520 H 433.221 -0.363126 3.76151 0
M  V30 4521 H 433.534 -0.117763 7.7271 0
M  V30 4522 H 431.879 -0.112857 6.94908 0
M  V30 4523 H 435.07 -0.365864 4.66668 0
M  V30 4524 H 435.243 -0.254204 6.47501 0
M  V30 4525 N 428.649 -1.55105 -0.279332 0
M  V30 4526 C 429.895 -1.75672 -1.01327 0
M  V30 4527 C 430.228 -0.552739 -1.86168 0
M  V30 4528 O 429.503 0.449827 -1.89227 0
M  V30 4529 C 429.786 -3.05825 -1.90114 0
M  V30 4530 C 429.639 -4.36565 -1.08309 0
M  V30 4531 C 430.958 -3.31975 -2.8893 0
M  V30 4532 H 428.077 -0.639149 -0.366957 0
M  V30 4533 H 430.719 -1.87833 -0.286154 0
M  V30 4534 H 428.869 -2.95588 -2.52111 0
M  V30 4535 H 430.541 -4.58751 -0.484314 0
M  V30 4536 H 428.784 -4.32076 -0.386362 0
M  V30 4537 H 429.455 -5.23946 -1.73737 0
M  V30 4538 H 431.931 -3.41963 -2.37067 0
M  V30 4539 H 430.807 -4.2432 -3.48201 0
M  V30 4540 H 431.068 -2.51309 -3.63725 0
M  V30 4541 N 430.127 0.543554 -1.4793 0
M  V30 4542 C 431.09 1.63156 -1.60975 0
M  V30 4543 C 432.09 1.53346 -0.483899 0
M  V30 4544 O 433.28 1.5726 -0.749339 0
M  V30 4545 C 430.412 3.02743 -1.56716 0
M  V30 4546 H 431.605 1.52934 -2.57975 0
M  V30 4547 H 429.158 0.764557 -1.36324 0
M  V30 4548 H 429.893 3.18484 -0.611418 0
M  V30 4549 H 429.678 3.11272 -2.38438 0
M  V30 4550 H 431.168 3.81871 -1.6901 0
M  V30 4551 N 431.605 1.3629 0.791371 0
M  V30 4552 C 433.021 1.16661 1.08914 0
M  V30 4553 C 433.221 -0.0106266 2.01497 0
M  V30 4554 O 432.277 -0.676596 2.43266 0
M  V30 4555 C 433.59 2.47656 1.70549 0
M  V30 4556 C 435.138 2.54002 1.82899 0
M  V30 4557 C 435.613 3.85078 2.47949 0
M  V30 4558 N 437.104 3.86413 2.5542 0
M  V30 4559 C 437.839 4.84572 3.06557 0
M  V30 4560 N 437.335 5.93124 3.58016 0
M  V30 4561 N 439.128 4.71994 3.05251 0
M  V30 4562 H 431.279 2.11668 0.176238 0
M  V30 4563 H 433.542 0.937486 0.140796 0
M  V30 4564 H 433.248 3.34059 1.09989 0
M  V30 4565 H 433.122 2.63319 2.70079 0
M  V30 4566 H 435.509 1.68018 2.42598 0
M  V30 4567 H 435.59 2.42239 0.821808 0
M  V30 4568 H 435.234 4.71467 1.88895 0
M  V30 4569 H 435.164 3.94135 3.49235 0
M  V30 4570 H 437.655 3.07988 2.18979 0
M  V30 4571 H 437.968 6.63999 3.95381 0
M  V30 4572 H 436.313 5.96796 3.56173 0
M  V30 4573 H 439.504 3.86321 2.64336 0
M  V30 4574 H 439.677 5.48653 3.44796 0
M  V30 4575 N 433.083 -1.0153 1.20538 0
M  V30 4576 C 434.332 -1.74558 1.01057 0
M  V30 4577 C 434.645 -1.90168 -0.457756 0
M  V30 4578 O 435.851 -2.60301 -0.771722 0
M  V30 4579 C 434.307 -3.13963 1.75941 0
M  V30 4580 C 433.915 -3.06361 3.26875 0
M  V30 4581 C 435.659 -3.91191 1.64832 0
M  V30 4582 C 433.566 -4.40782 3.94291 0
M  V30 4583 H 432.496 -0.654417 0.374505 0
M  V30 4584 H 435.147 -1.13521 1.44171 0
M  V30 4585 H 433.529 -3.75549 1.25614 0
M  V30 4586 H 434.703 -2.54074 3.84425 0
M  V30 4587 H 433.018 -2.42625 3.38411 0
M  V30 4588 H 435.615 -4.90644 2.12539 0
M  V30 4589 H 435.958 -4.11884 0.604745 0
M  V30 4590 H 436.491 -3.36236 2.12579 0
M  V30 4591 H 433.23 -4.25292 4.98805 0
M  V30 4592 H 432.75 -4.9307 3.41529 0
M  V30 4593 H 434.429 -5.09621 3.98617 0
M  V30 4594 N 434.561 -1.01147 -1.20859 0
M  V30 4595 C 435.509 -0.57059 -2.25493 0
M  V30 4596 C 436.503 0.388109 -1.64894 0
M  V30 4597 O 437.709 0.258592 -1.78133 0
M  V30 4598 H 434.084 -0.166191 -0.733406 0
M  V30 4599 H 436.055 -1.46411 -2.60012 0
M  V30 4600 C 434.804 0.0805241 -3.47607 0
M  V30 4601 H 434.127 -0.648156 -3.94511 0
M  V30 4602 H 435.567 0.352197 -4.22535 0
M  V30 4603 C 434.026 1.32175 -3.09889 0
M  V30 4604 O 434.556 2.41553 -3.20959 0
M  V30 4605 N 432.762 1.20392 -2.64488 0
M  V30 4606 H 432.309 0.313905 -2.5568 0
M  V30 4607 H 432.267 2.03541 -2.39621 0
M  V30 4608 N 436.039 1.36541 -0.78704 0
M  V30 4609 C 437.287 1.98911 -0.357633 0
M  V30 4610 C 437.608 1.62778 1.07371 0
M  V30 4611 O 436.878 0.900612 1.73971 0
M  V30 4612 H 435.458 0.735734 -0.129246 0
M  V30 4613 H 438.12 1.66776 -1.00855 0
M  V30 4614 H 437.216 3.08874 -0.447549 0
M  V30 4615 N 437.518 0.538854 1.48102 0
M  V30 4616 C 438.465 -0.219042 2.29758 0
M  V30 4617 C 439.435 -0.925562 1.37922 0
M  V30 4618 O 440.62 -0.924855 1.66886 0
M  V30 4619 C 437.76 -1.25452 3.2149 0
M  V30 4620 C 436.873 -0.555943 4.28408 0
M  V30 4621 C 436.008 -1.57512 5.0731 0
M  V30 4622 C 435.047 -0.860498 6.06021 0
M  V30 4623 N 434.184 -1.82564 6.77949 0
M  V30 4624 H 439.024 0.483449 2.94052 0
M  V30 4625 H 436.561 0.250247 1.44956 0
M  V30 4626 H 438.519 -1.86727 3.7308 0
M  V30 4627 H 437.149 -1.92528 2.591 0
M  V30 4628 H 436.201 0.170938 3.80016 0
M  V30 4629 H 437.513 0.00474616 4.988 0
M  V30 4630 H 436.667 -2.26191 5.62959 0
M  V30 4631 H 435.406 -2.16972 4.36778 0
M  V30 4632 H 434.411 -0.159686 5.49568 0
M  V30 4633 H 435.636 -0.271897 6.78555 0
M  V30 4634 H 433.582 -2.40915 6.10161 0
M  V30 4635 H 433.499 -1.31662 7.44447 0
M  V30 4636 H 434.767 -2.50414 7.38182 0
M  V30 4637 N 438.996 -1.55193 0.274407 0
M  V30 4638 C 440.412 -1.59401 -0.0797543 0
M  V30 4639 C 440.612 -1.29162 -1.54659 0
M  V30 4640 O 439.668 -1.05215 -2.29534 0
M  V30 4641 C 440.981 -2.99257 0.294238 0
M  V30 4642 C 442.529 -3.12072 0.240796 0
M  V30 4643 C 443.004 -4.54194 0.589218 0
M  V30 4644 N 444.495 -4.60033 0.540744 0
M  V30 4645 C 445.23 -5.68027 0.783147 0
M  V30 4646 N 444.726 -6.8417 1.09013 0
M  V30 4647 N 446.519 -5.57572 0.711993 0
M  V30 4648 H 438.67 -1.73113 1.23067 0
M  V30 4649 H 440.933 -0.807197 0.497129 0
M  V30 4650 H 440.639 -3.26217 1.31435 0
M  V30 4651 H 440.513 -3.75427 -0.365281 0
M  V30 4652 H 442.9 -2.84877 -0.770024 0
M  V30 4653 H 442.981 -2.38117 0.934563 0
M  V30 4654 H 442.625 -4.82115 1.59772 0
M  V30 4655 H 442.555 -5.26448 -0.126331 0
M  V30 4656 H 445.046 -3.76599 0.313327 0
M  V30 4657 H 445.359 -7.6243 1.26178 0
M  V30 4658 H 443.704 -6.85787 1.12789 0
M  V30 4659 H 446.895 -4.65714 0.472014 0
M  V30 4660 H 447.068 -6.41659 0.90429 0
M  V30 4661 N 440.474 -0.00167713 -1.576 0
M  V30 4662 C 441.384 1.00548 -2.1196 0
M  V30 4663 C 442.4 1.3758 -1.06526 0
M  V30 4664 O 443.576 1.46278 -1.38436 0
M  V30 4665 C 440.641 2.27809 -2.6135 0
M  V30 4666 C 439.702 1.97074 -3.81393 0
M  V30 4667 C 438.935 3.18267 -4.28417 0
M  V30 4668 O 439.158 4.30009 -3.74765 0
M  V30 4669 O 438.092 3.02167 -5.20556 0
M  V30 4670 H 441.918 0.573373 -2.98238 0
M  V30 4671 H 439.503 0.217255 -1.47812 0
M  V30 4672 H 441.385 3.02568 -2.93309 0
M  V30 4673 H 440.06 2.70254 -1.78169 0
M  V30 4674 H 438.967 1.19785 -3.54404 0
M  V30 4675 H 440.3 1.59464 -4.65652 0
M  V30 4676 N 441.952 1.55251 0.271103 0
M  V30 4677 C 442.862 1.9136 1.35714 0
M  V30 4678 C 443.878 0.811075 1.5394 0
M  V30 4679 O 445.054 1.11031 1.6803 0
M  V30 4680 C 442.119 2.1798 2.69603 0
M  V30 4681 C 441.18 3.4153 2.60107 0
M  V30 4682 C 440.413 3.66871 3.8761 0
M  V30 4683 O 440.636 2.94689 4.8838 0
M  V30 4684 O 439.57 4.60405 3.87699 0
M  V30 4685 H 443.396 2.83815 1.08088 0
M  V30 4686 H 440.981 1.41821 0.469792 0
M  V30 4687 H 442.863 2.36518 3.48765 0
M  V30 4688 H 441.538 1.28708 2.97012 0
M  V30 4689 H 440.445 3.28325 1.79314 0
M  V30 4690 H 441.778 4.31027 2.37647 0
M  V30 4691 N 443.43 -0.535701 1.48216 0
M  V30 4692 C 444.678 -1.28928 1.55634 0
M  V30 4693 C 444.999 -1.93645 0.229514 0
M  V30 4694 O 444.269 -1.81038 -0.74846 0
M  V30 4695 H 442.849 -0.47884 0.573342 0
M  V30 4696 H 445.511 -0.623853 1.84646 0
M  V30 4697 H 444.607 -2.07157 2.33436 0
M  V30 4698 N 444.908 -1.36708 -0.784132 0
M  V30 4699 C 445.871 -1.31307 -1.87859 0
M  V30 4700 C 446.871 -0.219654 -1.59293 0
M  V30 4701 O 448.061 -0.47476 -1.67606 0
M  V30 4702 C 445.193 -1.03679 -3.24751 0
M  V30 4703 H 446.386 -2.28647 -1.94064 0
M  V30 4704 H 443.939 -1.21558 -0.98252 0
M  V30 4705 H 444.674 -0.0681936 -3.24228 0
M  V30 4706 H 444.459 -1.82811 -3.46876 0
M  V30 4707 H 445.949 -1.02518 -4.04821 0
M  V30 4708 N 446.386 1.0089 -1.21074 0
M  V30 4709 C 447.333 2.09588 -0.966512 0
M  V30 4710 C 448.303 1.65761 0.106089 0
M  V30 4711 O 449.488 1.90758 -0.0402287 0
M  V30 4712 C 446.628 3.40958 -0.533058 0
M  V30 4713 C 445.741 3.9822 -1.67467 0
M  V30 4714 C 444.876 5.17682 -1.19076 0
M  V30 4715 C 443.915 5.67043 -2.30496 0
M  V30 4716 N 443.052 6.77759 -1.83267 0
M  V30 4717 H 447.892 2.29815 -1.89708 0
M  V30 4718 H 445.429 1.12689 -0.945489 0
M  V30 4719 H 447.387 4.1637 -0.263019 0
M  V30 4720 H 446.017 3.20781 0.360505 0
M  V30 4721 H 445.069 3.1983 -2.05944 0
M  V30 4722 H 446.381 4.3085 -2.51336 0
M  V30 4723 H 445.535 6.00326 -0.877151 0
M  V30 4724 H 444.274 4.86635 -0.322066 0
M  V30 4725 H 443.279 4.82999 -2.62664 0
M  V30 4726 H 444.504 6.00121 -3.17855 0
M  V30 4727 H 442.45 6.48527 -0.987356 0
M  V30 4728 H 442.367 7.09624 -2.60711 0
M  V30 4729 H 443.635 7.63949 -1.54928 0
M  V30 4730 N 447.864 1.01787 1.20321 0
M  V30 4731 C 448.794 0.609625 2.25401 0
M  V30 4732 C 449.775 -0.375951 1.65893 0
M  V30 4733 O 450.96 -0.261101 1.92437 0
M  V30 4734 C 448.09 -0.0515995 3.47262 0
M  V30 4735 C 447.044 0.855095 4.19371 0
M  V30 4736 C 446.37 0.0595757 5.34667 0
M  V30 4737 C 447.67 2.16374 4.75373 0
M  V30 4738 H 449.364 1.48803 2.59804 0
M  V30 4739 H 446.91 0.716934 1.24884 0
M  V30 4740 H 448.863 -0.348764 4.19954 0
M  V30 4741 H 447.587 -0.964726 3.12027 0
M  V30 4742 H 446.246 1.13628 3.48546 0
M  V30 4743 H 445.894 -0.85524 4.95676 0
M  V30 4744 H 445.594 0.663406 5.83843 0
M  V30 4745 H 447.118 -0.231105 6.10162 0
M  V30 4746 H 448.532 1.92885 5.39878 0
M  V30 4747 H 446.929 2.71853 5.34991 0
M  V30 4748 H 447.999 2.82589 3.94045 0
M  V30 4749 N 449.342 -1.36122 0.79427 0
M  V30 4750 C 450.567 -2.03891 0.379871 0
M  V30 4751 C 450.992 -1.59488 -0.997251 0
M  V30 4752 O 450.35 -0.765652 -1.64339 0
M  V30 4753 C 450.398 -3.57687 0.457442 0
M  V30 4754 O 449.502 -4.08931 -0.5338 0
M  V30 4755 H 448.843 -0.6443 0.160541 0
M  V30 4756 H 451.373 -1.73976 1.07673 0
M  V30 4757 H 451.383 -4.06721 0.322792 0
M  V30 4758 H 450.058 -3.89357 1.46199 0
M  V30 4759 H 448.635 -3.71154 -0.360409 0
M  V30 4760 N 450.82 -0.546701 -1.47814 0
M  V30 4761 C 451.753 0.254472 -2.26777 0
M  V30 4762 C 452.731 0.929809 -1.33392 0
M  V30 4763 O 453.915 0.950889 -1.62759 0
M  V30 4764 C 451.042 1.36171 -3.10121 0
M  V30 4765 C 450.088 0.796038 -4.19005 0
M  V30 4766 S 450.921 -0.349191 -5.3436 0
M  V30 4767 C 452.077 0.760122 -6.21267 0
M  V30 4768 H 452.31 -0.415612 -2.94381 0
M  V30 4769 H 449.843 -0.332809 -1.5077 0
M  V30 4770 H 451.801 1.99588 -3.58713 0
M  V30 4771 H 450.462 2.00359 -2.41899 0
M  V30 4772 H 449.655 1.62719 -4.7701 0
M  V30 4773 H 449.257 0.238246 -3.7324 0
M  V30 4774 H 451.549 1.65479 -6.5698 0
M  V30 4775 H 452.492 0.217673 -7.07765 0
M  V30 4776 H 452.9 1.04806 -5.54685 0
M  V30 4777 N 452.299 1.55045 -0.282633 0
M  V30 4778 C 453.209 2.26491 0.61147 0
M  V30 4779 C 454.225 1.29348 1.16384 0
M  V30 4780 O 455.401 1.62298 1.19253 0
M  V30 4781 C 452.466 2.97779 1.77563 0
M  V30 4782 C 451.527 4.10418 1.25919 0
M  V30 4783 C 450.76 4.78297 2.36786 0
M  V30 4784 O 450.983 4.45426 3.56303 0
M  V30 4785 O 449.917 5.66089 2.04517 0
M  V30 4786 H 453.743 3.03683 0.0324615 0
M  V30 4787 H 451.328 1.49317 -0.0497576 0
M  V30 4788 H 453.21 3.42554 2.45427 0
M  V30 4789 H 451.885 2.23498 2.34159 0
M  V30 4790 H 450.792 3.70082 0.546797 0
M  V30 4791 H 452.125 4.86622 0.738887 0
M  V30 4792 N 453.777 0.010035 1.57597 0
M  V30 4793 C 455.023 -0.673697 1.91283 0
M  V30 4794 C 455.356 -1.72863 0.884979 0
M  V30 4795 O 454.631 -1.94268 -0.0949487 0
M  V30 4796 C 454.914 -1.30766 3.35518 0
M  V30 4797 C 454.767 -0.263578 4.49027 0
M  V30 4798 C 456.086 -2.23105 3.79358 0
M  V30 4799 H 453.205 -0.243439 0.695634 0
M  V30 4800 H 455.847 0.0633864 1.89894 0
M  V30 4801 H 453.997 -1.93588 3.36832 0
M  V30 4802 H 455.669 0.365738 4.59848 0
M  V30 4803 H 453.912 0.413077 4.31829 0
M  V30 4804 H 454.583 -0.746398 5.4693 0
M  V30 4805 H 457.059 -1.70289 3.79659 0
M  V30 4806 H 455.935 -2.64424 4.81011 0
M  V30 4807 H 456.196 -3.11433 3.13787 0
M  V30 4808 N 455.255 -1.55392 -0.262866 0
M  V30 4809 C 456.185 -1.91978 -1.32917 0
M  V30 4810 C 457.166 -0.7828 -1.51017 0
M  V30 4811 O 458.351 -1.04178 -1.63892 0
M  V30 4812 C 455.481 -2.20055 -2.68687 0
M  V30 4813 C 454.435 -3.35854 -2.65304 0
M  V30 4814 C 453.761 -3.49435 -4.04721 0
M  V30 4815 C 455.061 -4.71977 -2.23685 0
M  V30 4816 H 456.755 -2.81292 -1.02544 0
M  V30 4817 H 454.301 -1.3534 -0.491846 0
M  V30 4818 H 456.254 -2.44237 -3.43404 0
M  V30 4819 H 454.978 -1.27551 -3.00663 0
M  V30 4820 H 453.637 -3.11655 -1.93045 0
M  V30 4821 H 453.285 -2.54379 -4.33936 0
M  V30 4822 H 452.985 -4.27297 -4.0335 0
M  V30 4823 H 454.509 -3.7592 -4.81161 0
M  V30 4824 H 455.923 -4.95637 -2.88127 0
M  V30 4825 H 454.32 -5.52828 -2.33456 0
M  V30 4826 H 455.39 -4.70115 -1.18827 0
M  V30 4827 N 456.733 0.527833 -1.48498 0
M  V30 4828 C 458.149 0.856571 -1.34666 0
M  V30 4829 C 458.349 1.98271 -0.35931 0
M  V30 4830 O 457.405 2.51551 0.218703 0
M  V30 4831 C 458.718 1.22207 -2.74747 0
M  V30 4832 C 460.266 1.33183 -2.83251 0
M  V30 4833 C 460.741 1.73075 -4.24039 0
M  V30 4834 N 462.232 1.80174 -4.26722 0
M  V30 4835 C 462.967 2.1243 -5.32598 0
M  V30 4836 N 462.463 2.43096 -6.4875 0
M  V30 4837 N 464.256 2.13454 -5.19994 0
M  V30 4838 H 456.407 -0.215174 -2.11307 0
M  V30 4839 H 458.67 -0.0336281 -0.947403 0
M  V30 4840 H 458.376 0.468195 -3.4857 0
M  V30 4841 H 458.25 2.17173 -3.08409 0
M  V30 4842 H 460.637 2.07647 -2.09683 0
M  V30 4843 H 460.718 0.363333 -2.53206 0
M  V30 4844 H 460.362 0.991712 -4.98124 0
M  V30 4845 H 460.292 2.70979 -4.51529 0
M  V30 4846 H 462.783 1.58744 -3.42942 0
M  V30 4847 H 463.096 2.6682 -7.25277 0
M  V30 4848 H 461.441 2.40611 -6.52021 0
M  V30 4849 H 464.632 1.88956 -4.28268 0
M  V30 4850 H 464.805 2.38261 -6.02608 0
M  V30 4851 N 458.211 1.37122 0.776871 0
M  V30 4852 C 459.174 1.32301 1.8716 0
M  V30 4853 C 460.174 0.228099 1.59174 0
M  V30 4854 O 461.364 0.483642 1.67352 0
M  V30 4855 C 458.496 1.054 3.24197 0
M  V30 4856 H 459.689 2.29673 1.92848 0
M  V30 4857 H 457.242 1.22077 0.97606 0
M  V30 4858 H 457.977 0.0853872 3.24188 0
M  V30 4859 H 457.762 1.84648 3.45901 0
M  V30 4860 H 459.252 1.04664 4.04271 0
M  V30 4861 N 459.689 -1.00246 1.21608 0
M  V30 4862 C 460.914 -1.78167 1.06167 0
M  V30 4863 C 461.339 -1.84138 -0.384035 0
M  V30 4864 O 460.697 -1.28683 -1.27712 0
M  V30 4865 C 460.745 -3.19786 1.66642 0
M  V30 4866 O 459.849 -4.02153 0.913613 0
M  V30 4867 H 459.19 -0.549 0.37349 0
M  V30 4868 H 461.72 -1.25994 1.61204 0
M  V30 4869 H 461.73 -3.70451 1.70969 0
M  V30 4870 H 460.405 -3.14754 2.7185 0
M  V30 4871 H 458.982 -3.60711 0.945635 0
M  V30 4872 N 461.167 -1.02423 -1.1978 0
M  V30 4873 C 462.097 -0.62157 -2.25075 0
M  V30 4874 C 463.078 0.367148 -1.6609 0
M  V30 4875 O 464.263 0.250892 -1.92573 0
M  V30 4876 C 461.393 0.0331826 -3.47284 0
M  V30 4877 C 460.347 -0.877323 -4.18912 0
M  V30 4878 C 459.673 -0.0879296 -5.34628 0
M  V30 4879 C 460.973 -2.18892 -4.74219 0
M  V30 4880 H 462.667 -1.50179 -2.59011 0
M  V30 4881 H 460.213 -0.723547 -1.24502 0
M  V30 4882 H 462.166 0.326488 -4.20133 0
M  V30 4883 H 460.89 0.948164 -3.12534 0
M  V30 4884 H 459.549 -1.15475 -3.47938 0
M  V30 4885 H 459.197 0.828941 -4.96123 0
M  V30 4886 H 458.897 -0.694359 -5.83483 0
M  V30 4887 H 460.421 0.198743 -6.10276 0
M  V30 4888 H 461.835 -1.95746 -5.38847 0
M  V30 4889 H 460.232 -2.74686 -5.33542 0
M  V30 4890 H 461.302 -2.84674 -3.92541 0
M  V30 4891 N 462.645 1.35699 -0.801477 0
M  V30 4892 C 463.577 2.28598 -0.166028 0
M  V30 4893 C 464.59 1.50044 0.631721 0
M  V30 4894 O 465.779 1.72339 0.464921 0
M  V30 4895 C 462.879 3.29625 0.787451 0
M  V30 4896 C 462.052 4.37384 0.037171 0
M  V30 4897 C 461.111 5.183 0.908375 0
M  V30 4898 O 460.137 5.68053 0.361189 0
M  V30 4899 N 461.339 5.35912 2.23112 0
M  V30 4900 H 464.104 2.83771 -0.964071 0
M  V30 4901 H 461.665 1.47994 -0.656469 0
M  V30 4902 H 463.657 3.80648 1.37439 0
M  V30 4903 H 462.227 2.75004 1.48632 0
M  V30 4904 H 461.447 3.87364 -0.730935 0
M  V30 4905 H 462.735 5.0653 -0.480109 0
M  V30 4906 H 462.133 4.97125 2.69968 0
M  V30 4907 H 460.69 5.90133 2.76741 0
M  V30 4908 N 464.123 0.554532 1.47522 0
M  V30 4909 C 465.07 -0.19466 2.29978 0
M  V30 4910 C 466.04 -0.910882 1.38896 0
M  V30 4911 O 467.225 -0.907102 1.67858 0
M  V30 4912 C 464.365 -1.22035 3.22802 0
M  V30 4913 C 463.478 -0.510474 4.28973 0
M  V30 4914 C 462.613 -1.52123 5.08952 0
M  V30 4915 C 461.652 -0.796173 6.069 0
M  V30 4916 N 460.789 -1.75363 6.79847 0
M  V30 4917 H 465.629 0.51461 2.93523 0
M  V30 4918 H 463.166 0.265607 1.44682 0
M  V30 4919 H 465.124 -1.8276 3.7504 0
M  V30 4920 H 463.754 -1.89769 2.61127 0
M  V30 4921 H 462.806 0.211234 3.79813 0
M  V30 4922 H 464.118 0.0576503 4.98767 0
M  V30 4923 H 463.272 -2.20207 5.65326 0
M  V30 4924 H 462.011 -2.12327 4.39054 0
M  V30 4925 H 461.016 -0.101388 5.49707 0
M  V30 4926 H 462.241 -0.199911 6.78806 0
M  V30 4927 H 460.187 -2.3443 6.12682 0
M  V30 4928 H 460.104 -1.23759 7.45801 0
M  V30 4929 H 461.372 -2.4257 7.40797 0
M  V30 4930 N 465.601 -1.54893 0.290851 0
M  V30 4931 C 466.511 -2.26812 -0.59945 0
M  V30 4932 C 467.527 -1.29963 -1.15696 0
M  V30 4933 O 468.703 -1.62928 -1.18391 0
M  V30 4934 C 465.768 -2.98716 -1.75982 0
M  V30 4935 C 464.829 -4.1108 -1.2374 0
M  V30 4936 C 464.062 -4.79546 -2.34246 0
M  V30 4937 O 464.285 -4.47309 -3.53936 0
M  V30 4938 O 463.219 -5.67165 -2.01512 0
M  V30 4939 H 467.045 -3.03696 -0.0163561 0
M  V30 4940 H 464.63 -1.49289 0.0576755 0
M  V30 4941 H 466.512 -3.43851 -2.43607 0
M  V30 4942 H 465.187 -2.24737 -2.3297 0
M  V30 4943 H 464.094 -3.70367 -0.527163 0
M  V30 4944 H 465.427 -4.87007 -0.71307 0
M  V30 4945 N 467.08 -0.0183926 -1.57589 0
M  V30 4946 C 468.01 0.965596 -2.12599 0
M  V30 4947 C 468.991 1.34641 -1.0395 0
M  V30 4948 O 470.176 1.42693 -1.31729 0
M  V30 4949 C 467.306 2.25149 -2.64434 0
M  V30 4950 C 466.26 2.01175 -3.77773 0
M  V30 4951 C 465.586 3.35937 -4.15994 0
M  V30 4952 C 466.886 1.35953 -5.04296 0
M  V30 4953 H 468.58 0.507504 -2.95067 0
M  V30 4954 H 466.126 0.242671 -1.41941 0
M  V30 4955 H 468.079 2.94357 -3.01549 0
M  V30 4956 H 466.803 2.73105 -1.79112 0
M  V30 4957 H 465.462 1.34388 -3.4108 0
M  V30 4958 H 465.11 3.81631 -3.27669 0
M  V30 4959 H 464.81 3.20705 -4.92364 0
M  V30 4960 H 466.334 4.0643 -4.55683 0
M  V30 4961 H 467.748 1.95144 -5.39065 0
M  V30 4962 H 466.145 1.31152 -5.85593 0
M  V30 4963 H 467.215 0.331071 -4.83768 0
M  V30 4964 N 468.558 1.5553 0.254621 0
M  V30 4965 C 469.786 1.81046 1.00149 0
M  V30 4966 C 470.201 0.593047 1.79244 0
M  V30 4967 O 469.558 -0.438196 1.77161 0
M  V30 4968 C 469.609 3.04684 1.94551 0
M  V30 4969 O 469.33 4.21725 1.18658 0
M  V30 4970 C 470.831 3.42943 2.80901 0
M  V30 4971 H 468.051 0.602653 0.295044 0
M  V30 4972 H 470.595 2.02576 0.279842 0
M  V30 4973 H 468.75 2.85226 2.62154 0
M  V30 4974 H 469.164 4.91746 1.82445 0
M  V30 4975 H 470.638 4.32576 3.42902 0
M  V30 4976 H 471.115 2.63176 3.51617 0
M  V30 4977 H 471.721 3.64724 2.18762 0
M  V30 4978 N 470.036 -0.519951 1.48776 0
M  V30 4979 C 470.969 -1.64053 1.58625 0
M  V30 4980 C 471.947 -1.5664 0.43618 0
M  V30 4981 O 473.131 -1.76969 0.649159 0
M  V30 4982 C 470.258 -3.02497 1.52359 0
M  V30 4983 C 469.304 -3.28235 2.72331 0
M  V30 4984 S 470.137 -3.13414 4.34203 0
M  V30 4985 C 471.293 -4.54287 4.30551 0
M  V30 4986 H 471.526 -1.5545 2.53422 0
M  V30 4987 H 469.059 -0.703681 1.37433 0
M  V30 4988 H 471.017 -3.82336 1.4943 0
M  V30 4989 H 469.678 -3.08531 0.588824 0
M  V30 4990 H 468.871 -4.29256 2.64113 0
M  V30 4991 H 468.473 -2.56085 2.72574 0
M  V30 4992 H 470.765 -5.46006 4.01103 0
M  V30 4993 H 471.708 -4.67558 5.31785 0
M  V30 4994 H 472.116 -4.34079 3.60881 0
M  V30 4995 N 471.514 -1.37532 -0.769588 0
M  V30 4996 C 472.762 -1.32597 -1.5252 0
M  V30 4997 C 473.083 0.0884294 -1.94799 0
M  V30 4998 O 472.353 1.03289 -1.66458 0
M  V30 4999 H 470.933 -0.487846 -0.565699 0
M  V30 5000 H 473.595 -1.72044 -0.915806 0
M  V30 5001 H 472.691 -1.96643 -2.42359 0
M  V30 5002 N 472.992 0.995999 -1.22138 0
M  V30 5003 C 473.939 2.08551 -0.988687 0
M  V30 5004 C 474.909 1.65864 0.0885021 0
M  V30 5005 O 476.094 1.90704 -0.0604589 0
M  V30 5006 C 473.234 3.40374 -0.569191 0
M  V30 5007 C 472.347 3.96421 -1.71681 0
M  V30 5008 C 471.482 5.1639 -1.2456 0
M  V30 5009 C 470.521 5.64567 -2.36497 0
M  V30 5010 N 469.658 6.75777 -1.90445 0
M  V30 5011 H 474.498 2.2779 -1.92135 0
M  V30 5012 H 472.035 1.1168 -0.957388 0
M  V30 5013 H 473.993 4.16068 -0.307166 0
M  V30 5014 H 472.623 3.21145 0.326462 0
M  V30 5015 H 471.675 3.17628 -2.09324 0
M  V30 5016 H 472.987 4.2816 -2.55891 0
M  V30 5017 H 472.141 5.99362 -0.940774 0
M  V30 5018 H 470.88 4.86266 -0.373662 0
M  V30 5019 H 469.885 4.80185 -2.67772 0
M  V30 5020 H 471.11 5.96716 -3.24202 0
M  V30 5021 H 469.056 6.47443 -1.05609 0
M  V30 5022 H 468.973 7.06818 -2.68223 0
M  V30 5023 H 470.241 7.62262 -1.63022 0
M  V30 5024 N 474.47 1.03057 1.19235 0
M  V30 5025 C 475.718 0.726581 1.88587 0
M  V30 5026 C 476.039 -0.747227 1.80115 0
M  V30 5027 O 475.309 -1.53849 1.21274 0
M  V30 5028 H 473.889 0.265768 0.698124 0
M  V30 5029 H 476.551 1.30516 1.44746 0
M  V30 5030 H 475.647 1.0224 2.94879 0
M  V30 5031 N 475.948 -1.35272 0.808662 0
M  V30 5032 C 476.88 -2.28507 0.178149 0
M  V30 5033 C 477.893 -1.50377 -0.623754 0
M  V30 5034 O 479.082 -1.72583 -0.455774 0
M  V30 5035 C 476.182 -3.30038 -0.769959 0
M  V30 5036 C 475.355 -4.37398 -0.0139749 0
M  V30 5037 C 474.414 -5.18775 -0.880875 0
M  V30 5038 O 473.44 -5.68236 -0.331059 0
M  V30 5039 N 474.642 -5.37087 -2.20267 0
M  V30 5040 H 477.407 -2.83255 0.979106 0
M  V30 5041 H 474.968 -1.47643 0.664308 0
M  V30 5042 H 476.96 -3.81371 -1.35418 0
M  V30 5043 H 475.53 -2.75789 -1.47171 0
M  V30 5044 H 474.75 -3.86971 0.751468 0
M  V30 5045 H 476.038 -5.06268 0.506965 0
M  V30 5046 H 475.436 -4.9855 -2.67328 0
M  V30 5047 H 473.993 -5.91593 -2.73608 0
M  V30 5048 N 477.426 -0.562348 -1.47226 0
M  V30 5049 C 478.389 0.172056 -2.28553 0
M  V30 5050 C 479.389 0.837928 -1.37242 0
M  V30 5051 O 480.579 0.693001 -1.59822 0
M  V30 5052 C 477.711 1.25223 -3.17068 0
M  V30 5053 H 478.904 -0.542401 -2.94954 0
M  V30 5054 H 476.457 -0.319493 -1.53 0
M  V30 5055 H 477.192 1.99892 -2.55369 0
M  V30 5056 H 476.977 0.779515 -3.84273 0
M  V30 5057 H 478.467 1.76791 -3.78332 0
M  V30 5058 N 478.904 1.54736 -0.299062 0
M  V30 5059 C 480.129 2.04975 0.316254 0
M  V30 5060 C 480.554 1.17501 1.46885 0
M  V30 5061 O 479.912 0.178678 1.80417 0
M  V30 5062 C 479.96 3.52672 0.751997 0
M  V30 5063 O 479.064 3.68226 1.85697 0
M  V30 5064 H 478.405 0.661126 0.0617175 0
M  V30 5065 H 480.935 1.99805 -0.440341 0
M  V30 5066 H 480.945 3.94488 1.04133 0
M  V30 5067 H 479.62 4.158 -0.0911482 0
M  V30 5068 H 478.197 3.38316 1.56834 0
M  V30 5069 N 480.382 0.0267497 1.57577 0
M  V30 5070 C 481.345 -0.940916 2.08996 0
M  V30 5071 C 482.345 -1.25561 1.00455 0
M  V30 5072 O 483.535 -1.19634 1.26623 0
M  V30 5073 C 480.667 -2.25814 2.55384 0
M  V30 5074 H 481.86 -0.495628 2.95776 0
M  V30 5075 H 479.413 -0.221241 1.54726 0
M  V30 5076 H 480.148 -2.74976 1.71926 0
M  V30 5077 H 479.933 -2.04285 3.34679 0
M  V30 5078 H 481.423 -2.95178 2.95398 0
M  V30 5079 N 481.861 -1.55662 -0.24637 0
M  V30 5080 C 482.794 -1.85332 -1.33143 0
M  V30 5081 C 483.772 -0.708464 -1.46354 0
M  V30 5082 O 484.956 -0.954274 -1.6256 0
M  V30 5083 C 482.083 -2.0385 -2.70487 0
M  V30 5084 C 481.129 -3.26488 -2.74423 0
M  V30 5085 S 481.962 -4.83124 -2.30979 0
M  V30 5086 C 483.118 -5.04647 -3.70246 0
M  V30 5087 H 483.351 -2.77077 -1.07777 0
M  V30 5088 H 480.884 -1.47776 -0.44738 0
M  V30 5089 H 482.842 -2.15202 -3.49569 0
M  V30 5090 H 481.503 -1.12947 -2.9309 0
M  V30 5091 H 480.696 -3.36413 -3.7529 0
M  V30 5092 H 480.298 -3.13864 -2.03385 0
M  V30 5093 H 482.59 -4.92023 -4.65746 0
M  V30 5094 H 483.533 -6.06625 -3.65255 0
M  V30 5095 H 483.941 -4.32491 -3.62784 0
M  V30 5096 N 483.339 0.512053 -1.4905 0
M  V30 5097 C 484.249 1.64139 -1.67617 0
M  V30 5098 C 485.265 1.64786 -0.558701 0
M  V30 5099 O 486.441 1.8341 -0.832034 0
M  V30 5100 C 483.506 3.00548 -1.72835 0
M  V30 5101 C 482.567 3.10615 -2.96339 0
M  V30 5102 C 481.8 4.40517 -3.01298 0
M  V30 5103 O 482.023 5.28671 -2.14157 0
M  V30 5104 O 480.957 4.55325 -3.93653 0
M  V30 5105 H 484.783 1.51407 -2.63267 0
M  V30 5106 H 482.368 0.687131 -1.32661 0
M  V30 5107 H 484.25 3.81641 -1.78683 0
M  V30 5108 H 482.925 3.13566 -0.803616 0
M  V30 5109 H 481.832 2.2875 -2.96014 0
M  V30 5110 H 483.165 3.0252 -3.88256 0
M  V30 5111 N 484.817 1.37938 0.762283 0
M  V30 5112 C 485.747 1.37176 1.88958 0
M  V30 5113 C 486.728 0.238945 1.68413 0
M  V30 5114 O 487.913 0.440726 1.89133 0
M  V30 5115 C 485.043 1.18742 3.2637 0
M  V30 5116 C 483.997 2.29136 3.61498 0
M  V30 5117 C 483.323 1.95816 4.97554 0
M  V30 5118 C 484.623 3.71363 3.6727 0
M  V30 5119 H 486.317 2.31509 1.89853 0
M  V30 5120 H 483.863 1.11438 0.912005 0
M  V30 5121 H 485.816 1.16837 4.04879 0
M  V30 5122 H 484.54 0.208683 3.25933 0
M  V30 5123 H 483.199 2.30213 2.85303 0
M  V30 5124 H 482.847 0.964475 4.93667 0
M  V30 5125 H 482.547 2.69745 5.22026 0
M  V30 5126 H 484.071 1.95513 5.78452 0
M  V30 5127 H 485.485 3.72364 4.35911 0
M  V30 5128 H 483.882 4.44425 4.03245 0
M  V30 5129 H 484.952 4.04305 2.67704 0
M  V30 5130 N 486.295 -0.989507 1.22664 0
M  V30 5131 C 487.225 -2.09847 1.02404 0
M  V30 5132 C 488.206 -1.70007 -0.0561303 0
M  V30 5133 O 489.391 -1.93906 0.106748 0
M  V30 5134 C 486.521 -3.41996 0.604663 0
M  V30 5135 C 485.475 -3.95699 1.63115 0
M  V30 5136 C 484.801 -5.23936 1.0675 0
M  V30 5137 C 486.101 -4.25999 3.02196 0
M  V30 5138 H 487.795 -2.27054 1.95158 0
M  V30 5139 H 485.341 -1.09111 0.939727 0
M  V30 5140 H 487.294 -4.1899 0.45002 0
M  V30 5141 H 486.018 -3.24626 -0.35855 0
M  V30 5142 H 484.677 -3.2084 1.77362 0
M  V30 5143 H 484.325 -5.02909 0.0955422 0
M  V30 5144 H 484.025 -5.60833 1.75328 0
M  V30 5145 H 485.549 -6.0356 0.924516 0
M  V30 5146 H 486.963 -4.93777 2.91303 0
M  V30 5147 H 485.36 -4.74076 3.67929 0
M  V30 5148 H 486.43 -3.33636 3.51873 0
M  V30 5149 N 487.773 -1.03688 -1.18687 0
M  V30 5150 C 489.189 -0.755413 -1.4059 0
M  V30 5151 C 489.389 0.656659 -1.905 0
M  V30 5152 O 488.445 1.42144 -2.08689 0
M  V30 5153 C 489.758 -1.7983 -2.41001 0
M  V30 5154 C 491.306 -1.81877 -2.54735 0
M  V30 5155 C 491.781 -2.85148 -3.58406 0
M  V30 5156 N 493.272 -2.84015 -3.6591 0
M  V30 5157 C 494.007 -3.60573 -4.45841 0
M  V30 5158 N 493.503 -4.46871 -5.29413 0
M  V30 5159 N 495.296 -3.49079 -4.40568 0
M  V30 5160 H 487.447 -1.94818 -0.846148 0
M  V30 5161 H 489.71 -0.842727 -0.434184 0
M  V30 5162 H 489.416 -2.81097 -2.1137 0
M  V30 5163 H 489.29 -1.62727 -3.40294 0
M  V30 5164 H 491.677 -0.812836 -2.83685 0
M  V30 5165 H 491.758 -2.03057 -1.55568 0
M  V30 5166 H 491.402 -3.85918 -3.30197 0
M  V30 5167 H 491.332 -2.61224 -4.57241 0
M  V30 5168 H 493.823 -2.21431 -3.0623 0
M  V30 5169 H 494.136 -5.02007 -5.87545 0
M  V30 5170 H 492.481 -4.5094 -5.28846 0
M  V30 5171 H 495.672 -2.81066 -3.74325 0
M  V30 5172 H 495.845 -4.08994 -5.02621 0
M  V30 5173 N 489.251 1.34841 -0.815825 0
M  V30 5174 C 490.491 2.00321 -0.406297 0
M  V30 5175 C 490.855 1.63293 1.00992 0
M  V30 5176 O 492.056 2.21563 1.52195 0
M  V30 5177 C 490.327 3.52421 -0.594469 0
M  V30 5178 S 491.886 4.37926 -0.276735 0
M  V30 5179 H 488.704 0.694155 -0.153848 0
M  V30 5180 H 491.306 1.64263 -1.06009 0
M  V30 5181 H 490.01 3.76858 -1.625 0
M  V30 5182 H 489.541 3.9333 0.0743157 0
M  V30 5183 H 491.556 4.87743 0.912215 0
M  V30 5184 N 490.729 0.570148 1.46925 0
M  V30 5185 C 492.14 0.1402 1.86173 0
M  V30 5186 C 492.491 -1.29347 1.47526 0
M  V30 5187 O 491.616 -1.97508 0.884292 0
M  V30 5188 C 492.211 0.247661 3.37894 0
M  V30 5189 C 490.77 -0.127332 3.76185 0
M  V30 5190 C 489.917 0.589349 2.70965 0
M  V30 5191 H 492.868 0.779117 1.38259 0
M  V30 5192 H 492.889 -0.530341 3.76786 0
M  V30 5193 H 492.401 1.29121 3.65991 0
M  V30 5194 H 490.502 -1.17149 3.53704 0
M  V30 5195 H 490.615 0.240238 4.78497 0
M  V30 5196 H 488.979 0.0309824 2.54681 0
M  V30 5197 H 489.762 1.6343 3.01903 0
M  V30 5198 N 492.207 -1.54576 0.307264 0
M  V30 5199 C 493.435 -2.04675 -0.302597 0
M  V30 5200 C 493.85 -1.18425 -1.47041 0
M  V30 5201 O 493.207 -0.211257 -1.81273 0
M  V30 5202 C 493.258 -3.53575 -0.752801 0
M  V30 5203 O 492.979 -4.36547 0.368536 0
M  V30 5204 C 494.48 -4.19699 -1.42717 0
M  V30 5205 H 491.7 -0.66786 -0.0648374 0
M  V30 5206 H 494.244 -1.99516 0.448716 0
M  V30 5207 H 492.399 -3.59074 -1.45412 0
M  V30 5208 H 492.813 -5.24497 0.0168937 0
M  V30 5209 H 494.287 -5.25388 -1.69327 0
M  V30 5210 H 494.764 -3.69815 -2.36925 0
M  V30 5211 H 495.37 -4.18293 -0.768856 0
M  V30 5212 N 493.685 -0.035106 -1.57561 0
M  V30 5213 C 494.615 0.942993 -2.13612 0
M  V30 5214 C 495.596 1.33531 -1.05373 0
M  V30 5215 O 496.781 1.41287 -1.33235 0
M  V30 5216 C 493.911 2.22332 -2.66807 0
M  V30 5217 C 492.865 1.97156 -3.79886 0
M  V30 5218 C 492.191 3.31506 -4.19533 0
M  V30 5219 C 493.491 1.30596 -5.05709 0
M  V30 5220 H 495.185 0.476179 -2.95589 0
M  V30 5221 H 492.731 0.227602 -1.4219 0
M  V30 5222 H 494.684 2.91142 -3.04654 0
M  V30 5223 H 493.408 2.7119 -1.81999 0
M  V30 5224 H 492.067 1.30763 -3.42486 0
M  V30 5225 H 491.715 3.78134 -3.31698 0
M  V30 5226 H 491.415 3.15465 -4.95738 0
M  V30 5227 H 492.939 4.01574 -4.59968 0
M  V30 5228 H 494.353 1.89416 -5.41105 0
M  V30 5229 H 492.75 1.24934 -5.86951 0
M  V30 5230 H 493.82 0.279742 -4.84092 0
M  V30 5231 N 495.163 1.55791 0.238111 0
M  V30 5232 C 496.579 1.48411 0.587045 0
M  V30 5233 C 496.779 0.72702 1.87927 0
M  V30 5234 O 495.835 0.259942 2.51158 0
M  V30 5235 C 497.148 2.92873 0.681623 0
M  V30 5236 C 498.696 3.03295 0.773363 0
M  V30 5237 C 499.171 4.49082 0.899428 0
M  V30 5238 N 500.662 4.53056 0.964075 0
M  V30 5239 C 501.397 5.63117 1.08104 0
M  V30 5240 N 500.893 6.82969 1.16299 0
M  V30 5241 N 502.686 5.50933 1.11488 0
M  V30 5242 H 494.837 2.0345 -0.610076 0
M  V30 5243 H 497.1 0.924034 -0.211813 0
M  V30 5244 H 496.806 3.51142 -0.19802 0
M  V30 5245 H 496.68 3.43851 1.55069 0
M  V30 5246 H 499.067 2.45101 1.64346 0
M  V30 5247 H 499.148 2.55513 -0.121034 0
M  V30 5248 H 498.792 5.07889 0.0338586 0
M  V30 5249 H 498.722 4.94553 1.809 0
M  V30 5250 H 501.213 3.66737 0.91173 0
M  V30 5251 H 501.526 7.62598 1.25155 0
M  V30 5252 H 499.871 6.85712 1.13241 0
M  V30 5253 H 503.062 4.56231 1.0474 0
M  V30 5254 H 503.235 6.36743 1.20259 0
M  V30 5255 N 496.642 -0.504142 1.49319 0
M  V30 5256 C 497.592 -1.60284 1.62151 0
M  V30 5257 C 498.576 -1.53657 0.477315 0
M  V30 5258 O 499.768 -1.6124 0.730108 0
M  V30 5259 C 496.897 -2.98909 1.68844 0
M  V30 5260 C 495.983 -3.10544 2.8883 0
M  V30 5261 N 496.374 -2.92078 4.12946 0
M  V30 5262 C 494.672 -3.4164 2.86702 0
M  V30 5263 C 495.373 -3.07812 4.93585 0
M  V30 5264 N 494.349 -3.36549 4.26891 0
M  V30 5265 H 498.151 -1.44656 2.55835 0
M  V30 5266 H 495.665 -0.710198 1.46048 0
M  V30 5267 H 497.662 -3.77865 1.76134 0
M  V30 5268 H 496.322 -3.15609 0.762943 0
M  V30 5269 H 497.333 -2.68316 4.42975 0
M  V30 5270 H 494.01 -3.64537 2.03517 0
M  V30 5271 H 495.4 -2.98054 6.02174 0
M  V30 5272 N 498.12 -1.38341 -0.754957 0
M  V30 5273 C 499.05 -1.38176 -1.88227 0
M  V30 5274 C 500.031 -0.247873 -1.68284 0
M  V30 5275 O 501.216 -0.45075 -1.88896 0
M  V30 5276 C 498.346 -1.20471 -3.25736 0
M  V30 5277 C 497.3 -2.3105 -3.60278 0
M  V30 5278 C 496.626 -1.98452 -4.96509 0
M  V30 5279 C 497.926 -3.73305 -3.65295 0
M  V30 5280 H 499.62 -2.32512 -1.88622 0
M  V30 5281 H 497.166 -1.1192 -0.906082 0
M  V30 5282 H 499.119 -1.18982 -4.04254 0
M  V30 5283 H 497.843 -0.225965 -3.25817 0
M  V30 5284 H 496.502 -2.31723 -2.84078 0
M  V30 5285 H 496.15 -0.990641 -4.93148 0
M  V30 5286 H 495.85 -2.7251 -5.20588 0
M  V30 5287 H 497.374 -1.98578 -5.77407 0
M  V30 5288 H 498.788 -3.7467 -4.3393 0
M  V30 5289 H 497.185 -4.46557 -4.00883 0
M  V30 5290 H 498.255 -4.05719 -2.65556 0
M  V30 5291 N 499.598 0.982988 -1.23187 0
M  V30 5292 C 500.845 1.72392 -1.06241 0
M  V30 5293 C 501.173 1.9032 0.40108 0
M  V30 5294 O 500.428 1.45084 1.31336 0
M  V30 5295 C 500.727 3.12736 -1.73006 0
M  V30 5296 C 500.393 3.14695 -3.22921 0
M  V30 5297 C 499.055 3.14937 -3.63824 0
M  V30 5298 C 501.407 3.10211 -4.1883 0
M  V30 5299 C 498.735 3.08408 -4.99101 0
M  V30 5300 C 501.087 3.05224 -5.54095 0
M  V30 5301 C 499.751 3.03787 -5.94365 0
M  V30 5302 H 499.021 0.630829 -0.388762 0
M  V30 5303 H 501.668 1.15053 -1.53085 0
M  V30 5304 H 499.973 3.73446 -1.18514 0
M  V30 5305 H 501.67 3.68828 -1.57374 0
M  V30 5306 H 498.26 3.15262 -2.90358 0
M  V30 5307 H 502.444 3.09166 -3.8824 0
M  V30 5308 H 497.7 3.05646 -5.29519 0
M  V30 5309 H 501.874 3.00712 -6.28128 0
M  V30 5310 H 499.501 2.98483 -6.99151 0
M  V30 5311 N 501.076 1.04316 1.18135 0
M  V30 5312 C 502.006 0.657299 2.24058 0
M  V30 5313 C 502.987 -0.340678 1.66654 0
M  V30 5314 O 504.172 -0.220223 1.92947 0
M  V30 5315 C 501.302 0.0220715 3.47293 0
M  V30 5316 C 500.256 0.943857 4.17463 0
M  V30 5317 C 499.582 0.172973 5.3442 0
M  V30 5318 C 500.882 2.26409 4.70677 0
M  V30 5319 H 502.576 1.5428 2.56589 0
M  V30 5320 H 500.122 0.743263 1.23335 0
M  V30 5321 H 502.075 -0.259607 4.206 0
M  V30 5322 H 500.799 -0.898323 3.14003 0
M  V30 5323 H 499.458 1.20996 3.46057 0
M  V30 5324 H 499.106 -0.749907 4.97379 0
M  V30 5325 H 498.806 0.787098 5.82304 0
M  V30 5326 H 500.33 -0.101628 6.10515 0
M  V30 5327 H 501.744 2.04294 5.35665 0
M  V30 5328 H 500.141 2.8314 5.29105 0
M  V30 5329 H 501.211 2.90883 3.87962 0
M  V30 5330 N 502.554 -1.34406 0.822964 0
M  V30 5331 C 503.794 -2.00103 0.416915 0
M  V30 5332 C 504.158 -1.63826 -1.00125 0
M  V30 5333 O 505.359 -2.22367 -1.51018 0
M  V30 5334 C 503.63 -3.52101 0.613151 0
M  V30 5335 S 505.189 -4.37774 0.299956 0
M  V30 5336 H 502.007 -0.69333 0.157527 0
M  V30 5337 H 504.609 -1.63698 1.06879 0
M  V30 5338 H 503.313 -3.75991 1.64496 0
M  V30 5339 H 502.844 -3.93364 -0.0534554 0
M  V30 5340 H 504.859 -4.8822 -0.886336 0
M  V30 5341 N 504.032 -0.577932 -1.46621 0
M  V30 5342 C 504.962 0.145917 -2.33044 0
M  V30 5343 C 505.943 0.888412 -1.45056 0
M  V30 5344 O 507.128 0.864812 -1.73881 0
M  V30 5345 C 504.258 1.16322 -3.27241 0
M  V30 5346 C 503.212 0.535868 -4.24632 0
M  V30 5347 C 502.538 1.65929 -5.08303 0
M  V30 5348 C 503.838 -0.523861 -5.19666 0
M  V30 5349 H 505.532 -0.575636 -2.93814 0
M  V30 5350 H 503.078 -0.278272 -1.41286 0
M  V30 5351 H 505.031 1.67793 -3.86553 0
M  V30 5352 H 503.755 1.91498 -2.64567 0
M  V30 5353 H 502.414 0.0422759 -3.66576 0
M  V30 5354 H 502.062 2.40061 -4.42018 0
M  V30 5355 H 501.762 1.2452 -5.74255 0
M  V30 5356 H 503.286 2.17686 -5.70478 0
M  V30 5357 H 504.7 -0.0944059 -5.73222 0
M  V30 5358 H 503.097 -0.858 -5.93935 0
M  V30 5359 H 504.167 -1.41197 -4.63887 0
M  V30 5360 N 505.51 1.54411 -0.315457 0
M  V30 5361 C 506.735 2.05299 0.294496 0
M  V30 5362 C 507.16 1.19052 1.4563 0
M  V30 5363 O 506.518 0.197804 1.80218 0
M  V30 5364 C 506.566 3.5345 0.714549 0
M  V30 5365 O 505.67 3.70175 1.81781 0
M  V30 5366 H 505.011 0.661743 0.0547019 0
M  V30 5367 H 507.541 1.99327 -0.461508 0
M  V30 5368 H 507.551 3.9557 0.999426 0
M  V30 5369 H 506.226 4.1568 -0.135244 0
M  V30 5370 H 504.803 3.3996 1.53236 0
M  V30 5371 N 506.988 0.0434614 1.5754 0
M  V30 5372 C 507.921 -0.968729 2.06618 0
M  V30 5373 C 508.899 -1.30868 0.965 0
M  V30 5374 O 510.083 -1.42288 1.23638 0
M  V30 5375 C 507.21 -2.28486 2.50023 0
M  V30 5376 C 506.256 -2.09851 3.71302 0
M  V30 5377 S 507.089 -1.38401 5.17306 0
M  V30 5378 C 508.245 -2.71354 5.64019 0
M  V30 5379 H 508.478 -0.551021 2.92149 0
M  V30 5380 H 506.011 -0.168607 1.53477 0
M  V30 5381 H 507.969 -3.04142 2.75695 0
M  V30 5382 H 506.63 -2.67387 1.64812 0
M  V30 5383 H 505.823 -3.07184 3.99567 0
M  V30 5384 H 505.425 -1.42336 3.45856 0
M  V30 5385 H 507.717 -3.67549 5.69134 0
M  V30 5386 H 508.66 -2.47734 6.6335 0
M  V30 5387 H 509.068 -2.77259 4.91719 0
M  V30 5388 N 508.466 -1.55915 -0.229846 0
M  V30 5389 C 509.396 -1.94754 -1.28815 0
M  V30 5390 C 510.377 -0.814657 -1.49323 0
M  V30 5391 O 511.562 -1.07631 -1.61645 0
M  V30 5392 C 508.692 -2.25705 -2.63959 0
M  V30 5393 C 507.646 -3.41406 -2.5812 0
M  V30 5394 C 506.972 -3.57941 -3.97218 0
M  V30 5395 C 508.272 -4.76616 -2.13623 0
M  V30 5396 H 509.966 -2.83404 -0.965547 0
M  V30 5397 H 507.512 -1.36353 -0.463028 0
M  V30 5398 H 509.465 -2.51467 -3.38146 0
M  V30 5399 H 508.189 -1.339 -2.9789 0
M  V30 5400 H 506.848 -3.1568 -1.86391 0
M  V30 5401 H 506.496 -2.63526 -4.28443 0
M  V30 5402 H 506.196 -4.35757 -3.94195 0
M  V30 5403 H 507.72 -3.86042 -4.73079 0
M  V30 5404 H 509.134 -5.01637 -2.77549 0
M  V30 5405 H 507.531 -5.57655 -2.21677 0
M  V30 5406 H 508.601 -4.7253 -1.08829 0
M  V30 5407 N 509.944 0.496216 -1.49584 0
M  V30 5408 C 511.19 1.24918 -1.60521 0
M  V30 5409 C 511.545 1.90197 -0.290352 0
M  V30 5410 O 510.838 1.77967 0.709813 0
M  V30 5411 C 511.032 2.3359 -2.705 0
M  V30 5412 C 510.861 1.78969 -4.12553 0
M  V30 5413 C 509.631 1.60057 -4.79281 0
M  V30 5414 C 511.829 1.29883 -4.97629 0
M  V30 5415 N 509.811 1.00415 -6.05632 0
M  V30 5416 C 511.182 0.824057 -6.14499 0
M  V30 5417 C 513.237 1.18501 -4.83593 0
M  V30 5418 C 511.94 0.246721 -7.18877 0
M  V30 5419 C 513.966 0.621634 -5.88124 0
M  V30 5420 C 513.328 0.157116 -7.04225 0
M  V30 5421 H 509.427 0.446896 -0.641722 0
M  V30 5422 H 512.011 0.555456 -1.86609 0
M  V30 5423 H 510.182 3.00418 -2.46178 0
M  V30 5424 H 511.914 3.00628 -2.70933 0
M  V30 5425 H 508.669 1.84562 -4.36158 0
M  V30 5426 H 509.093 0.725074 -6.73106 0
M  V30 5427 H 513.735 1.53012 -3.94141 0
M  V30 5428 H 511.453 -0.110651 -8.08024 0
M  V30 5429 H 515.039 0.536279 -5.79323 0
M  V30 5430 H 513.919 -0.272009 -7.83728 0
M  V30 5431 N 511.423 1.38739 0.74761 0
M  V30 5432 C 512.67 1.35274 1.50689 0
M  V30 5433 C 512.998 -0.0553359 1.94421 0
M  V30 5434 O 512.253 -1.03365 1.66175 0
M  V30 5435 C 512.552 2.25992 2.7688 0
M  V30 5436 C 512.218 3.73854 2.5208 0
M  V30 5437 C 510.88 4.14145 2.45025 0
M  V30 5438 C 513.232 4.67427 2.30568 0
M  V30 5439 C 510.56 5.4609 2.14483 0
M  V30 5440 C 512.912 5.99635 2.01545 0
M  V30 5441 C 511.576 6.39004 1.92951 0
M  V30 5442 H 510.846 0.495003 0.55141 0
M  V30 5443 H 513.493 1.71145 0.859158 0
M  V30 5444 H 511.798 1.83196 3.46333 0
M  V30 5445 H 513.495 2.20611 3.34861 0
M  V30 5446 H 510.085 3.41913 2.58444 0
M  V30 5447 H 514.269 4.3714 2.34994 0
M  V30 5448 H 509.525 5.75528 2.06342 0
M  V30 5449 H 513.699 6.71678 1.83906 0
M  V30 5450 H 511.326 7.41165 1.6905 0
M  V30 5451 N 512.901 -0.976442 1.23707 0
M  V30 5452 C 513.864 -2.0511 1.02287 0
M  V30 5453 C 514.864 -1.60791 -0.0167195 0
M  V30 5454 O 516.054 -1.72761 0.223408 0
M  V30 5455 C 513.186 -3.36458 0.548507 0
M  V30 5456 H 514.379 -2.25545 1.9766 0
M  V30 5457 H 511.932 -1.15042 1.05806 0
M  V30 5458 H 512.667 -3.21713 -0.408818 0
M  V30 5459 H 512.452 -3.69967 1.29874 0
M  V30 5460 H 513.942 -4.15489 0.419406 0
M  V30 5461 N 514.379 -1.04941 -1.1758 0
M  V30 5462 C 515.607 -0.778294 -1.91703 0
M  V30 5463 C 516.022 0.665697 -1.76675 0
M  V30 5464 O 515.379 1.45456 -1.10222 0
M  V30 5465 C 515.43 -1.14628 -3.42845 0
M  V30 5466 O 515.151 -2.53359 -3.57409 0
M  V30 5467 C 516.652 -0.900931 -4.34049 0
M  V30 5468 H 513.872 -0.283167 -0.608323 0
M  V30 5469 H 516.416 -1.39942 -1.49119 0
M  V30 5470 H 514.571 -0.569953 -3.83184 0
M  V30 5471 H 514.985 -2.67709 -4.51035 0
M  V30 5472 H 516.459 -1.20817 -5.38616 0
M  V30 5473 H 516.936 0.163966 -4.38894 0
M  V30 5474 H 517.542 -1.46097 -3.99419 0
M  V30 5475 N 515.857 1.33968 -0.830081 0
M  V30 5476 C 517.082 2.02813 -0.433796 0
M  V30 5477 C 517.507 1.62076 0.954614 0
M  V30 5478 O 516.865 0.808955 1.62252 0
M  V30 5479 C 516.913 3.56348 -0.552115 0
M  V30 5480 O 516.017 4.10202 0.425191 0
M  V30 5481 H 515.358 0.639817 -0.177567 0
M  V30 5482 H 517.888 1.7106 -1.12248 0
M  V30 5483 H 517.898 4.05722 -0.430513 0
M  V30 5484 H 516.573 3.85344 -1.56471 0
M  V30 5485 H 515.15 3.71979 0.261878 0
M  V30 5486 N 517.335 0.585699 1.46312 0
M  V30 5487 C 518.582 0.0724211 2.0237 0
M  V30 5488 C 518.91 -1.28868 1.45683 0
M  V30 5489 O 518.165 -1.85853 0.612945 0
M  V30 5490 C 518.464 -0.0401312 3.57377 0
M  V30 5491 C 518.13 1.25376 4.33119 0
M  V30 5492 C 516.792 1.60824 4.5353 0
M  V30 5493 C 519.144 2.10987 4.76586 0
M  V30 5494 C 516.472 2.81676 5.14661 0
M  V30 5495 C 518.824 3.31068 5.39052 0
M  V30 5496 C 517.488 3.66794 5.5769 0
M  V30 5497 H 516.758 0.0265007 0.740526 0
M  V30 5498 H 519.405 0.762935 1.75646 0
M  V30 5499 H 517.71 -0.813791 3.83255 0
M  V30 5500 H 519.407 -0.453078 3.98432 0
M  V30 5501 H 515.997 0.967808 4.1753 0
M  V30 5502 H 520.181 1.84904 4.60569 0
M  V30 5503 H 515.437 3.0949 5.27282 0
M  V30 5504 H 519.611 3.97672 5.71691 0
M  V30 5505 H 517.238 4.60529 6.04828 0
M  V30 5506 N 518.813 -1.54241 0.323641 0
M  V30 5507 C 519.776 -2.22997 -0.529602 0
M  V30 5508 C 520.776 -1.22345 -1.04347 0
M  V30 5509 O 521.966 -1.46924 -0.935889 0
M  V30 5510 C 519.098 -2.93409 -1.73562 0
M  V30 5511 H 520.291 -2.99815 0.0714518 0
M  V30 5512 H 517.844 -1.56121 0.0747258 0
M  V30 5513 H 518.579 -2.20729 -2.37591 0
M  V30 5514 H 518.364 -3.67217 -1.37456 0
M  V30 5515 H 519.854 -3.45794 -2.34128 0
M  V30 5516 N 520.291 -0.0518155 -1.57515 0
M  V30 5517 C 521.521 0.63048 -1.96745 0
M  V30 5518 C 521.929 1.64875 -0.928054 0
M  V30 5519 O 521.272 1.83449 0.0960678 0
M  V30 5520 C 521.334 1.37381 -3.32215 0
M  V30 5521 C 520.998 0.511298 -4.54131 0
M  V30 5522 C 521.995 -0.222884 -5.19422 0
M  V30 5523 C 519.68 0.442035 -5.00351 0
M  V30 5524 C 521.674 -1.01476 -6.2927 0
M  V30 5525 C 519.361 -0.35353 -6.10077 0
M  V30 5526 C 520.359 -1.08062 -6.74397 0
M  V30 5527 O 520.047 -1.8631 -7.82013 0
M  V30 5528 H 519.779 0.177126 -0.652382 0
M  V30 5529 H 522.333 -0.114726 -2.05079 0
M  V30 5530 H 520.563 2.16466 -3.20436 0
M  V30 5531 H 522.252 1.9464 -3.56188 0
M  V30 5532 H 523.018 -0.178846 -4.8467 0
M  V30 5533 H 518.897 0.997562 -4.50077 0
M  V30 5534 H 522.441 -1.58279 -6.79407 0
M  V30 5535 H 518.338 -0.399205 -6.44264 0
M  V30 5536 H 519.106 -1.78528 -7.98793 0
M  V30 5537 N 521.769 1.56035 0.221574 0
M  V30 5538 C 522.999 1.82864 0.961468 0
M  V30 5539 C 523.407 0.628703 1.78449 0
M  V30 5540 O 522.75 -0.412109 1.79018 0
M  V30 5541 C 522.812 3.03425 1.92804 0
M  V30 5542 C 522.476 4.38429 1.28954 0
M  V30 5543 C 523.473 5.15441 0.679431 0
M  V30 5544 C 521.158 4.85151 1.30131 0
M  V30 5545 C 523.152 6.37337 0.0896148 0
M  V30 5546 C 520.839 6.06989 0.707651 0
M  V30 5547 C 521.837 6.82923 0.102855 0
M  V30 5548 O 521.525 8.02456 -0.48157 0
M  V30 5549 H 521.257 0.611883 0.28736 0
M  V30 5550 H 523.811 2.0397 0.241932 0
M  V30 5551 H 522.041 2.78138 2.68656 0
M  V30 5552 H 523.73 3.17127 2.53348 0
M  V30 5553 H 524.496 4.80452 0.662661 0
M  V30 5554 H 520.375 4.26021 1.76145 0
M  V30 5555 H 523.919 6.96547 -0.383069 0
M  V30 5556 H 519.816 6.41451 0.721834 0
M  V30 5557 H 520.584 8.17636 -0.375887 0
M  V30 5558 N 523.247 -0.488276 1.49845 0
M  V30 5559 C 524.495 -1.23911 1.59657 0
M  V30 5560 C 524.816 -1.92816 0.291005 0
M  V30 5561 O 524.086 -1.83328 -0.690485 0
M  V30 5562 H 522.666 -0.460357 0.588286 0
M  V30 5563 H 525.328 -0.564794 1.86537 0
M  V30 5564 H 524.424 -1.99625 2.39909 0
M  V30 5565 N 524.725 -1.39134 -0.740242 0
M  V30 5566 C 525.655 -1.40165 -1.86751 0
M  V30 5567 C 526.636 -0.265708 -1.68012 0
M  V30 5568 O 527.821 -0.47076 -1.88408 0
M  V30 5569 C 524.951 -1.2392 -3.2444 0
M  V30 5570 C 523.905 -2.34858 -3.57807 0
M  V30 5571 C 523.231 -2.03707 -4.94376 0
M  V30 5572 C 524.531 -3.77159 -3.61315 0
M  V30 5573 H 526.225 -2.345 -1.86145 0
M  V30 5574 H 523.771 -1.12875 -0.89416 0
M  V30 5575 H 525.724 -1.23263 -4.02969 0
M  V30 5576 H 524.448 -0.26051 -3.25559 0
M  V30 5577 H 523.107 -2.34723 -2.81604 0
M  V30 5578 H 522.755 -1.04289 -4.9207 0
M  V30 5579 H 522.455 -2.78016 -5.17669 0
M  V30 5580 H 523.979 -2.04691 -5.75268 0
M  V30 5581 H 525.393 -3.79252 -4.29931 0
M  V30 5582 H 523.79 -4.50784 -3.96124 0
M  V30 5583 H 524.86 -4.08513 -2.61238 0
M  V30 5584 N 526.204 0.969867 -1.24223 0
M  V30 5585 C 527.45 1.7151 -1.08223 0
M  V30 5586 C 527.783 1.90478 0.37838 0
M  V30 5587 O 527.058 1.4647 1.27971 0
M  V30 5588 C 527.341 3.10714 -1.82013 0
M  V30 5589 C 527.194 2.9925 -3.35811 0
M  V30 5590 C 528.513 4.10332 -1.59108 0
M  V30 5591 H 525.632 0.622499 -0.394543 0
M  V30 5592 H 528.274 1.1284 -1.52863 0
M  V30 5593 H 526.424 3.608 -1.44068 0
M  V30 5594 H 528.096 2.56608 -3.83341 0
M  V30 5595 H 526.339 2.35512 -3.64303 0
M  V30 5596 H 527.01 3.97857 -3.82641 0
M  V30 5597 H 529.486 3.69097 -1.92111 0
M  V30 5598 H 528.362 5.05804 -2.13198 0
M  V30 5599 H 528.623 4.38926 -0.528832 0
M  V30 5600 N 527.682 1.05563 1.17022 0
M  V30 5601 C 528.615 0.604197 2.20056 0
M  V30 5602 C 529.593 -0.369169 1.58354 0
M  V30 5603 O 530.777 -0.279898 1.8641 0
M  V30 5604 C 527.904 -0.115265 3.38504 0
M  V30 5605 C 526.95 0.813698 4.18666 0
M  V30 5606 S 527.783 2.30492 4.83357 0
M  V30 5607 C 528.939 1.59674 6.0519 0
M  V30 5608 H 529.172 1.47713 2.58008 0
M  V30 5609 H 526.705 0.867932 1.27696 0
M  V30 5610 H 528.663 -0.524162 4.0714 0
M  V30 5611 H 527.324 -0.964284 2.98932 0
M  V30 5612 H 526.517 0.256736 5.03346 0
M  V30 5613 H 526.119 1.16213 3.55486 0
M  V30 5614 H 528.411 0.898164 6.7152 0
M  V30 5615 H 529.354 2.42115 6.65422 0
M  V30 5616 H 529.762 1.08252 5.54023 0
M  V30 5617 N 529.16 -1.33526 0.837174 0
M  V30 5618 C 530.437 -1.92369 0.354065 0
M  V30 5619 C 530.817 -1.76348 -1.16038 0
M  V30 5620 O 530.165 -1.15083 -1.97403 0
M  V30 5621 C 530.375 -3.39728 0.799101 0
M  V30 5622 C 531.723 -4.16877 0.806139 0
M  V30 5623 O 532.747 -3.48373 0.742597 0
M  V30 5624 O 531.606 -5.39166 0.892345 0
M  V30 5625 H 528.7 -0.820952 0.0998378 0
M  V30 5626 H 531.246 -1.42409 0.922913 0
M  V30 5627 H 530.018 -3.45254 1.84162 0
M  V30 5628 H 529.641 -3.97062 0.206731 0
M  V30 5629 N 530.638 -0.59345 -1.46 0
M  V30 5630 C 531.568 0.121192 -2.33185 0
M  V30 5631 C 532.549 0.872977 -1.4599 0
M  V30 5632 O 533.734 0.846321 -1.74789 0
M  V30 5633 C 530.864 1.12844 -3.28456 0
M  V30 5634 C 529.818 0.4908 -4.25177 0
M  V30 5635 C 529.144 1.60529 -5.10034 0
M  V30 5636 C 530.444 -0.578949 -5.19081 0
M  V30 5637 H 532.138 -0.606767 -2.93187 0
M  V30 5638 H 529.684 -0.293242 -1.40983 0
M  V30 5639 H 531.637 1.63684 -3.88311 0
M  V30 5640 H 530.361 1.88681 -2.66584 0
M  V30 5641 H 529.02 0.00339328 -3.666 0
M  V30 5642 H 528.668 2.35359 -4.44539 0
M  V30 5643 H 528.368 1.18422 -5.75543 0
M  V30 5644 H 529.892 2.11623 -5.72755 0
M  V30 5645 H 531.306 -0.155199 -5.7309 0
M  V30 5646 H 529.703 -0.920947 -5.92991 0
M  V30 5647 H 530.773 -1.46109 -4.62364 0
M  V30 5648 N 532.116 1.54067 -0.331816 0
M  V30 5649 C 533.048 2.22139 0.564538 0
M  V30 5650 C 534.061 1.22408 1.07332 0
M  V30 5651 O 535.25 1.4883 0.985481 0
M  V30 5652 C 532.35 2.87876 1.78831 0
M  V30 5653 C 531.523 4.13817 1.41682 0
M  V30 5654 C 530.582 4.63072 2.49901 0
M  V30 5655 O 529.608 5.27562 2.13699 0
M  V30 5656 N 530.81 4.38001 3.80967 0
M  V30 5657 H 533.575 2.99694 -0.0183736 0
M  V30 5658 H 531.136 1.61153 -0.155396 0
M  V30 5659 H 533.128 3.17747 2.50637 0
M  V30 5660 H 531.698 2.13977 2.27887 0
M  V30 5661 H 530.918 3.9062 0.530044 0
M  V30 5662 H 532.206 4.95762 1.14443 0
M  V30 5663 H 531.604 3.864 4.13173 0
M  V30 5664 H 530.161 4.72507 4.48977 0
M  V30 5665 N 533.594 0.0601682 1.57485 0
M  V30 5666 C 534.842 -0.610386 1.92662 0
M  V30 5667 C 535.163 -1.70849 0.939981 0
M  V30 5668 O 534.433 -1.95895 -0.0137455 0
M  V30 5669 H 533.013 -0.228457 0.711208 0
M  V30 5670 H 535.675 0.115288 1.94559 0
M  V30 5671 H 534.771 -1.0432 2.94149 0
M  V30 5672 N 535.072 -1.5615 -0.213296 0
M  V30 5673 C 536.319 -1.79546 -0.936462 0
M  V30 5674 C 536.647 -0.630337 -1.84003 0
M  V30 5675 O 535.902 0.384883 -1.91878 0
M  V30 5676 C 536.201 -3.08772 -1.79985 0
M  V30 5677 C 535.867 -4.38532 -1.04882 0
M  V30 5678 C 534.529 -4.73787 -0.841393 0
M  V30 5679 C 536.881 -5.18609 -0.51907 0
M  V30 5680 C 534.209 -5.86627 -0.0924403 0
M  V30 5681 C 536.561 -6.32229 0.216581 0
M  V30 5682 C 535.225 -6.6608 0.435191 0
M  V30 5683 H 534.495 -0.657004 -0.342676 0
M  V30 5684 H 537.142 -1.9041 -0.204051 0
M  V30 5685 H 535.447 -2.93065 -2.60038 0
M  V30 5686 H 537.144 -3.24077 -2.36168 0
M  V30 5687 H 533.734 -4.10855 -1.22048 0
M  V30 5688 H 537.918 -4.91801 -0.666775 0
M  V30 5689 H 533.174 -6.11338 0.087081 0
M  V30 5690 H 537.348 -6.93503 0.634538 0
M  V30 5691 H 534.975 -7.5336 1.01746 0
M  V30 5692 N 536.55 0.480323 -1.50102 0
M  V30 5693 C 537.798 1.23063 -1.60312 0
M  V30 5694 C 538.119 1.92659 -0.301226 0
M  V30 5695 O 537.389 1.83691 0.680753 0
M  V30 5696 H 535.969 0.457231 -0.590719 0
M  V30 5697 H 538.631 0.554893 -1.86834 0
M  V30 5698 H 537.727 1.9835 -2.40964 0
M  V30 5699 N 538.028 1.39524 0.732853 0
M  V30 5700 C 539.274 1.37068 1.49467 0
M  V30 5701 C 539.607 -0.0327166 1.94172 0
M  V30 5702 O 538.882 -0.998071 1.66939 0
M  V30 5703 C 539.165 2.34494 2.73285 0
M  V30 5704 C 539.018 3.83784 2.34585 0
M  V30 5705 C 540.337 2.29717 3.75391 0
M  V30 5706 H 537.456 0.499206 0.542183 0
M  V30 5707 H 540.098 1.70532 0.837783 0
M  V30 5708 H 538.248 2.06087 3.29333 0
M  V30 5709 H 539.92 4.22949 1.84151 0
M  V30 5710 H 538.163 4.00455 1.66787 0
M  V30 5711 H 538.834 4.47444 3.23262 0
M  V30 5712 H 541.31 2.54839 3.28932 0
M  V30 5713 H 540.186 2.99962 4.59689 0
M  V30 5714 H 540.447 1.30291 4.22465 0
M  V30 5715 N 539.506 -0.963266 1.24736 0
M  V30 5716 C 540.731 -1.74699 1.11781 0
M  V30 5717 C 541.156 -1.85267 -0.325258 0
M  V30 5718 O 540.514 -1.32681 -1.23553 0
M  V30 5719 C 540.562 -3.14322 1.76731 0
M  V30 5720 O 539.666 -3.99043 1.04109 0
M  V30 5721 H 539.007 -0.53684 0.390767 0
M  V30 5722 H 541.537 -1.20801 1.65131 0
M  V30 5723 H 541.547 -3.64824 1.82668 0
M  V30 5724 H 540.222 -3.05946 2.81726 0
M  V30 5725 H 538.799 -3.5752 1.05991 0
M  V30 5726 N 540.985 -1.06182 -1.16461 0
M  V30 5727 C 542.234 -0.772927 -1.86303 0
M  V30 5728 C 542.547 0.703187 -1.82523 0
M  V30 5729 O 543.753 1.10641 -2.47933 0
M  V30 5730 C 542.209 -1.33249 -3.34324 0
M  V30 5731 C 541.817 -2.83876 -3.46581 0
M  V30 5732 C 543.561 -1.12108 -4.09429 0
M  V30 5733 C 541.468 -3.33082 -4.88682 0
M  V30 5734 H 540.398 -0.285452 -0.697878 0
M  V30 5735 H 543.049 -1.28039 -1.31447 0
M  V30 5736 H 541.431 -0.7528 -3.88779 0
M  V30 5737 H 542.605 -3.47786 -3.02293 0
M  V30 5738 H 540.92 -3.03671 -2.84909 0
M  V30 5739 H 543.517 -1.46361 -5.14279 0
M  V30 5740 H 543.86 -0.0593832 -4.16258 0
M  V30 5741 H 544.393 -1.6665 -3.6121 0
M  V30 5742 H 541.132 -4.38726 -4.87032 0
M  V30 5743 H 540.652 -2.73919 -5.33599 0
M  V30 5744 H 542.331 -3.28344 -5.57494 0
M  V30 5745 N 542.463 1.3308 -0.844243 0
M  V30 5746 C 543.693 2.01515 -0.455541 0
M  V30 5747 C 544.101 1.63655 0.949406 0
M  V30 5748 O 543.444 0.84848 1.62931 0
M  V30 5749 C 543.506 3.55967 -0.502801 0
M  V30 5750 C 543.17 4.17222 -1.86481 0
M  V30 5751 C 544.167 4.36205 -2.8288 0
M  V30 5752 C 541.852 4.53528 -2.15911 0
M  V30 5753 C 543.846 4.90649 -4.06869 0
M  V30 5754 C 541.533 5.07679 -3.40155 0
M  V30 5755 C 542.531 5.26186 -4.35451 0
M  V30 5756 O 542.219 5.79183 -5.57496 0
M  V30 5757 H 541.951 0.65199 -0.178565 0
M  V30 5758 H 544.505 1.70867 -1.1399 0
M  V30 5759 H 542.735 3.85965 0.23836 0
M  V30 5760 H 544.424 4.05688 -0.131169 0
M  V30 5761 H 545.19 4.085 -2.61444 0
M  V30 5762 H 541.069 4.38414 -1.42528 0
M  V30 5763 H 544.613 5.0501 -4.81259 0
M  V30 5764 H 540.51 5.34815 -3.61446 0
M  V30 5765 H 541.278 5.97591 -5.5931 0
M  V30 5766 N 543.941 0.601185 1.45683 0
M  V30 5767 C 544.871 -0.108824 2.33246 0
M  V30 5768 C 545.852 -0.865223 1.46451 0
M  V30 5769 O 547.037 -0.83704 1.75235 0
M  V30 5770 C 544.167 -1.11101 3.2905 0
M  V30 5771 C 543.121 -0.468244 4.25431 0
M  V30 5772 C 542.447 -1.57822 5.10878 0
M  V30 5773 C 543.747 0.606469 5.18767 0
M  V30 5774 H 545.441 0.622306 2.92861 0
M  V30 5775 H 542.987 0.300714 1.40825 0
M  V30 5776 H 544.94 -1.61622 3.89174 0
M  V30 5777 H 543.664 -1.87265 2.67581 0
M  V30 5778 H 542.323 0.0160484 3.66596 0
M  V30 5779 H 541.971 -2.32998 4.45781 0
M  V30 5780 H 541.671 -1.15369 5.76163 0
M  V30 5781 H 543.195 -2.08583 5.73869 0
M  V30 5782 H 544.609 0.185589 5.73 0
M  V30 5783 H 543.006 0.952381 5.92494 0
M  V30 5784 H 544.076 1.48559 4.61582 0
M  V30 5785 N 545.419 -1.53889 0.339982 0
M  V30 5786 C 546.668 -2.00035 -0.258604 0
M  V30 5787 C 546.981 -1.23179 -1.51942 0
M  V30 5788 O 548.187 -1.59784 -2.19503 0
M  V30 5789 C 546.643 -3.56249 -0.511359 0
M  V30 5790 C 546.251 -4.41957 0.733349 0
M  V30 5791 C 547.995 -4.1082 -1.069 0
M  V30 5792 C 545.902 -5.89673 0.451591 0
M  V30 5793 H 544.832 -0.747284 -0.10041 0
M  V30 5794 H 547.483 -1.77776 0.454758 0
M  V30 5795 H 545.865 -3.7456 -1.28533 0
M  V30 5796 H 547.039 -4.35421 1.50815 0
M  V30 5797 H 545.354 -3.9836 1.21237 0
M  V30 5798 H 547.951 -5.18789 -1.2947 0
M  V30 5799 H 548.294 -3.63817 -2.02343 0
M  V30 5800 H 548.827 -3.96205 -0.355817 0
M  V30 5801 H 545.566 -6.40903 1.37565 0
M  V30 5802 H 545.086 -5.99122 -0.285193 0
M  V30 5803 H 546.765 -6.46965 0.0675067 0
M  V30 5804 N 546.897 -0.0685191 -1.57451 0
M  V30 5805 C 547.829 0.929372 -2.09512 0
M  V30 5806 C 548.842 1.26354 -1.02657 0
M  V30 5807 O 550.031 1.2213 -1.30179 0
M  V30 5808 C 547.131 2.24612 -2.53777 0
M  V30 5809 C 546.304 2.09128 -3.84167 0
M  V30 5810 C 545.363 3.24079 -4.14559 0
M  V30 5811 O 544.389 2.99215 -4.8421 0
M  V30 5812 N 545.591 4.49077 -3.67845 0
M  V30 5813 H 548.356 0.484901 -2.95751 0
M  V30 5814 H 545.917 0.11729 -1.61475 0
M  V30 5815 H 547.909 3.00412 -2.71172 0
M  V30 5816 H 546.479 2.60569 -1.72692 0
M  V30 5817 H 545.699 1.17815 -3.76182 0
M  V30 5818 H 546.987 1.9603 -4.69521 0
M  V30 5819 H 546.385 4.72165 -3.11571 0
M  V30 5820 H 544.942 5.21915 -3.90446 0
M  V30 5821 N 548.375 1.56261 0.205012 0
M  V30 5822 C 549.621 1.80306 0.9283 0
M  V30 5823 C 549.954 0.640932 1.83319 0
M  V30 5824 O 549.229 -0.359032 1.91158 0
M  V30 5825 C 549.512 3.14547 1.75306 0
M  V30 5826 C 549.365 4.41236 0.873562 0
M  V30 5827 C 550.684 3.45382 2.72762 0
M  V30 5828 H 547.803 0.655929 0.336044 0
M  V30 5829 H 550.445 1.88984 0.196211 0
M  V30 5830 H 548.595 3.0728 2.37721 0
M  V30 5831 H 550.267 4.60539 0.264887 0
M  V30 5832 H 548.51 4.33427 0.179773 0
M  V30 5833 H 549.181 5.31639 1.48541 0
M  V30 5834 H 551.657 3.52884 2.20481 0
M  V30 5835 H 550.533 4.40449 3.2756 0
M  V30 5836 H 550.794 2.68377 3.51321 0
M  V30 5837 N 549.853 -0.472356 1.50355 0
M  V30 5838 C 551.102 -1.2213 1.60522 0
M  V30 5839 C 551.415 -1.9312 0.310466 0
M  V30 5840 O 552.621 -2.69936 0.291029 0
M  V30 5841 C 551.077 -2.21909 2.83345 0
M  V30 5842 C 550.685 -1.56727 4.19691 0
M  V30 5843 C 552.429 -2.97453 3.02856 0
M  V30 5844 C 550.336 -2.54785 5.33703 0
M  V30 5845 H 549.266 -0.459543 0.597776 0
M  V30 5846 H 551.917 -0.491922 1.76783 0
M  V30 5847 H 550.299 -2.98133 2.60639 0
M  V30 5848 H 551.473 -0.863007 4.52646 0
M  V30 5849 H 549.788 -0.934685 4.05774 0
M  V30 5850 H 552.385 -3.70838 3.85205 0
M  V30 5851 H 552.728 -3.56764 2.14534 0
M  V30 5852 H 553.261 -2.28342 3.25737 0
M  V30 5853 H 550 -2.00214 6.24175 0
M  V30 5854 H 549.52 -3.23367 5.05167 0
M  V30 5855 H 551.199 -3.16639 5.64224 0
M  V30 5856 N 551.331 -1.39911 -0.725443 0
M  V30 5857 C 552.578 -1.37654 -1.48518 0
M  V30 5858 C 552.906 0.0243982 -1.94485 0
M  V30 5859 O 552.161 1.00708 -1.67799 0
M  V30 5860 C 552.46 -2.30368 -2.7325 0
M  V30 5861 C 552.126 -3.77817 -2.461 0
M  V30 5862 C 550.788 -4.17991 -2.38405 0
M  V30 5863 C 553.14 -4.71036 -2.23103 0
M  V30 5864 C 550.468 -5.49433 -2.05768 0
M  V30 5865 C 552.82 -6.02766 -1.9198 0
M  V30 5866 C 551.484 -6.41993 -1.82761 0
M  V30 5867 H 550.754 -0.503713 -0.543465 0
M  V30 5868 H 553.401 -1.7249 -0.831822 0
M  V30 5869 H 551.706 -1.88683 -3.43375 0
M  V30 5870 H 553.403 -2.2591 -3.31309 0
M  V30 5871 H 549.993 -3.45982 -2.52972 0
M  V30 5872 H 554.177 -4.40823 -2.2801 0
M  V30 5873 H 549.433 -5.78738 -1.9716 0
M  V30 5874 H 553.607 -6.74519 -1.73197 0
M  V30 5875 H 551.234 -7.43761 -1.57237 0
M  V30 5876 N 552.809 0.956637 -1.25245 0
M  V30 5877 C 554.057 1.69764 -1.09657 0
M  V30 5878 C 554.378 1.91583 0.363464 0
M  V30 5879 O 553.648 1.50149 1.25825 0
M  V30 5880 H 552.228 0.629097 -0.402798 0
M  V30 5881 H 554.89 1.15026 -1.57337 0
M  V30 5882 H 553.986 2.67769 -1.60331 0
M  V30 5883 N 554.287 1.06798 1.15896 0
M  V30 5884 C 555.25 0.687328 2.18651 0
M  V30 5885 C 556.25 -0.269559 1.58524 0
M  V30 5886 O 557.44 -0.0512627 1.74125 0
M  V30 5887 C 554.572 0.0121642 3.40898 0
M  V30 5888 H 555.765 1.59701 2.53842 0
M  V30 5889 H 553.318 0.863828 1.3026 0
M  V30 5890 H 554.053 -0.910025 3.1127 0
M  V30 5891 H 553.838 0.700309 3.85795 0
M  V30 5892 H 555.328 -0.239703 4.16911 0
M  V30 5893 N 555.766 -1.3263 0.851289 0
M  V30 5894 C 557.012 -1.9766 0.453694 0
M  V30 5895 C 557.345 -1.67225 -0.987396 0
M  V30 5896 O 556.62 -0.958693 -1.69232 0
M  V30 5897 C 556.903 -3.5344 0.68936 0
M  V30 5898 C 556.756 -3.93517 2.17862 0
M  V30 5899 C 558.075 -4.39866 0.143555 0
M  V30 5900 H 555.194 -0.717989 0.166314 0
M  V30 5901 H 557.836 -1.57068 1.06909 0
M  V30 5902 H 555.986 -3.88147 0.165546 0
M  V30 5903 H 557.658 -3.69006 2.76826 0
M  V30 5904 H 555.901 -3.42798 2.65841 0
M  V30 5905 H 556.572 -5.02065 2.29422 0
M  V30 5906 H 559.048 -4.11875 0.591451 0
M  V30 5907 H 557.924 -5.47858 0.338043 0
M  V30 5908 H 558.185 -4.31696 -0.953466 0
M  V30 5909 N 557.244 -0.608902 -1.45362 0
M  V30 5910 C 558.521 -0.0365378 -1.95566 0
M  V30 5911 C 558.901 1.43169 -1.55131 0
M  V30 5912 O 558.249 2.1349 -0.814513 0
M  V30 5913 C 558.459 -0.236026 -3.48201 0
M  V30 5914 C 559.807 -0.117518 -4.24437 0
M  V30 5915 O 560.831 -0.166217 -3.55812 0
M  V30 5916 O 559.69 -0.00372127 -5.465 0
M  V30 5917 H 556.784 0.0349874 -0.82626 0
M  V30 5918 H 559.33 -0.679055 -1.55521 0
M  V30 5919 H 558.102 -1.25569 -3.70605 0
M  V30 5920 H 557.725 0.441691 -3.95139 0
M  V30 5921 N 558.722 1.53707 -0.348139 0
M  V30 5922 C 559.652 2.28111 0.498766 0
M  V30 5923 C 560.633 1.29851 1.09876 0
M  V30 5924 O 561.818 1.587 1.11928 0
M  V30 5925 C 558.948 3.05735 1.64753 0
M  V30 5926 C 557.902 4.11537 1.17565 0
M  V30 5927 C 557.228 4.77142 2.4133 0
M  V30 5928 C 558.528 5.21587 0.272844 0
M  V30 5929 H 560.222 2.99152 -0.121934 0
M  V30 5930 H 557.768 1.43875 -0.0600842 0
M  V30 5931 H 559.721 3.56526 2.24649 0
M  V30 5932 H 558.445 2.32354 2.2952 0
M  V30 5933 H 557.104 3.61665 0.599483 0
M  V30 5934 H 556.752 4.0035 3.04514 0
M  V30 5935 H 556.452 5.48626 2.10436 0
M  V30 5936 H 557.976 5.30719 3.01943 0
M  V30 5937 H 559.39 5.67986 0.778779 0
M  V30 5938 H 557.787 6.00074 0.0555849 0
M  V30 5939 H 558.857 4.79969 -0.689785 0
M  V30 5940 N 560.2 0.0768682 1.57412 0
M  V30 5941 C 561.611 -0.455037 1.8107 0
M  V30 5942 C 561.962 -1.69323 0.991162 0
M  V30 5943 O 561.087 -2.15328 0.215156 0
M  V30 5944 C 561.682 -0.832316 3.28417 0
M  V30 5945 C 560.241 -1.30906 3.52903 0
M  V30 5946 C 559.388 -0.296714 2.75708 0
M  V30 5947 H 562.339 0.302514 1.5579 0
M  V30 5948 H 562.36 -1.69333 3.40744 0
M  V30 5949 H 561.872 0.0690532 3.88039 0
M  V30 5950 H 559.973 -2.22875 2.98592 0
M  V30 5951 H 560.086 -1.28348 4.61588 0
M  V30 5952 H 558.45 -0.775059 2.42621 0
M  V30 5953 H 559.233 0.597015 3.38069 0
M  V30 5954 N 561.678 -1.56367 -0.196722 0
M  V30 5955 C 562.641 -1.93561 -1.22746 0
M  V30 5956 C 563.641 -0.816566 -1.38524 0
M  V30 5957 O 564.831 -1.084 -1.36363 0
M  V30 5958 C 561.963 -2.20823 -2.59712 0
M  V30 5959 H 563.156 -2.85774 -0.909586 0
M  V30 5960 H 560.709 -1.50032 -0.438174 0
M  V30 5961 H 561.444 -1.31243 -2.96557 0
M  V30 5962 H 561.229 -3.02368 -2.49632 0
M  V30 5963 H 562.719 -2.50608 -3.34044 0
M  V30 5964 N 563.156 0.464375 -1.50603 0
M  V30 5965 C 564.103 1.56152 -1.69956 0
M  V30 5966 C 565.073 1.57046 -0.54091 0
M  V30 5967 O 566.258 1.74473 -0.772258 0
M  V30 5968 C 563.398 2.94079 -1.80586 0
M  V30 5969 C 562.511 3.02923 -3.07996 0
M  V30 5970 C 561.646 4.31806 -3.09382 0
M  V30 5971 C 560.685 4.34417 -4.31218 0
M  V30 5972 N 559.822 5.54782 -4.30304 0
M  V30 5973 H 564.662 1.38955 -2.6362 0
M  V30 5974 H 562.199 0.675482 -1.30674 0
M  V30 5975 H 564.157 3.74073 -1.8473 0
M  V30 5976 H 562.787 3.09896 -0.903556 0
M  V30 5977 H 561.839 2.1576 -3.13292 0
M  V30 5978 H 563.151 3.00712 -3.97962 0
M  V30 5979 H 562.305 5.20153 -3.12292 0
M  V30 5980 H 561.044 4.36636 -2.17257 0
M  V30 5981 H 560.049 3.44467 -4.28512 0
M  V30 5982 H 561.274 4.31273 -5.24576 0
M  V30 5983 H 559.22 5.60384 -3.41037 0
M  V30 5984 H 559.137 5.54339 -5.14047 0
M  V30 5985 H 560.405 6.45235 -4.3737 0
M  V30 5986 N 564.634 1.40294 0.718013 0
M  V30 5987 C 565.564 1.43118 1.84498 0
M  V30 5988 C 566.545 0.292403 1.67568 0
M  V30 5989 O 567.73 0.500675 1.87635 0
M  V30 5990 C 564.86 1.29065 3.22427 0
M  V30 5991 C 563.814 2.40521 3.54025 0
M  V30 5992 C 563.14 2.11546 4.91073 0
M  V30 5993 C 564.44 3.82859 3.55269 0
M  V30 5994 H 566.134 2.37432 1.82391 0
M  V30 5995 H 563.68 1.14283 0.87609 0
M  V30 5996 H 565.633 1.29658 4.00957 0
M  V30 5997 H 564.357 0.312271 3.25104 0
M  V30 5998 H 563.016 2.39173 2.77834 0
M  V30 5999 H 562.664 1.12104 4.90348 0
M  V30 6000 H 562.364 2.86216 5.1318 0
M  V30 6001 H 563.888 2.13817 5.71939 0
M  V30 6002 H 565.302 3.86044 4.23843 0
M  V30 6003 H 563.699 4.57029 3.88902 0
M  V30 6004 H 564.769 4.12617 2.54706 0
M  V30 6005 N 566.112 -0.949982 1.2575 0
M  V30 6006 C 567.358 -1.69766 1.10938 0
M  V30 6007 C 567.691 -1.91056 -0.348028 0
M  V30 6008 O 566.966 -1.48488 -1.25625 0
M  V30 6009 C 567.249 -3.07779 1.86933 0
M  V30 6010 C 567.102 -2.9387 3.4053 0
M  V30 6011 C 568.421 -4.07749 1.65616 0
M  V30 6012 H 565.54 -0.616144 0.404396 0
M  V30 6013 H 568.182 -1.10394 1.54639 0
M  V30 6014 H 566.332 -3.58462 1.4979 0
M  V30 6015 H 568.004 -2.50476 3.87375 0
M  V30 6016 H 566.247 -2.29686 3.68004 0
M  V30 6017 H 566.918 -3.91719 3.88922 0
M  V30 6018 H 569.394 -3.65994 1.97959 0
M  V30 6019 H 568.27 -5.02348 2.21218 0
M  V30 6020 H 568.531 -4.38029 0.598595 0
M  V30 6021 N 567.59 -1.07411 -1.15328 0
M  V30 6022 C 568.838 -0.796073 -1.85761 0
M  V30 6023 C 569.159 0.679864 -1.82764 0
M  V30 6024 O 568.429 1.49242 -1.269 0
M  V30 6025 H 567.009 -0.291495 -0.687779 0
M  V30 6026 H 569.671 -1.35799 -1.39802 0
M  V30 6027 H 568.767 -1.13114 -2.90881 0
M  V30 6028 N 569.068 1.32177 -0.85831 0
M  V30 6029 C 570.315 1.97125 -0.463484 0
M  V30 6030 C 570.643 1.67907 0.981705 0
M  V30 6031 O 569.898 0.961717 1.70439 0
M  V30 6032 C 570.197 3.51372 -0.653658 0
M  V30 6033 C 569.863 4.00584 -2.06987 0
M  V30 6034 C 568.525 4.13733 -2.4572 0
M  V30 6035 C 570.877 4.26624 -2.99402 0
M  V30 6036 C 568.205 4.50268 -3.76132 0
M  V30 6037 C 570.557 4.64618 -4.29316 0
M  V30 6038 C 569.221 4.75975 -4.67979 0
M  V30 6039 H 568.491 0.72133 -0.169601 0
M  V30 6040 H 571.138 1.57517 -1.08907 0
M  V30 6041 H 569.443 3.91761 0.0551328 0
M  V30 6042 H 571.14 3.99655 -0.328163 0
M  V30 6043 H 567.73 3.90837 -1.75911 0
M  V30 6044 H 571.914 4.1597 -2.70708 0
M  V30 6045 H 567.17 4.57256 -4.05865 0
M  V30 6046 H 571.344 4.83722 -5.00985 0
M  V30 6047 H 568.971 5.04041 -5.69076 0
M  V30 6048 N 570.547 0.616602 1.45037 0
M  V30 6049 C 571.477 -0.0840787 2.33349 0
M  V30 6050 C 572.458 -0.849641 1.4736 0
M  V30 6051 O 573.643 -0.818407 1.76113 0
M  V30 6052 C 570.773 -1.07604 3.3021 0
M  V30 6053 C 569.727 -0.423096 4.25904 0
M  V30 6054 C 569.053 -1.52394 5.12523 0
M  V30 6055 C 570.353 0.661457 5.18095 0
M  V30 6056 H 572.047 0.653333 2.92185 0
M  V30 6057 H 569.593 0.315634 1.40498 0
M  V30 6058 H 571.546 -1.57485 3.90866 0
M  V30 6059 H 570.27 -1.84416 2.69552 0
M  V30 6060 H 568.929 0.05493 3.66559 0
M  V30 6061 H 568.577 -2.28257 4.48227 0
M  V30 6062 H 568.277 -1.09251 5.77354 0
M  V30 6063 H 569.801 -2.02485 5.76049 0
M  V30 6064 H 571.215 0.246353 5.7277 0
M  V30 6065 H 569.612 1.01517 5.91451 0
M  V30 6066 H 570.682 1.53446 4.59981 0
M  V30 6067 N 572.025 -1.5352 0.356285 0
M  V30 6068 C 573.271 -2.01414 -0.236653 0
M  V30 6069 C 573.604 -1.24339 -1.49176 0
M  V30 6070 O 572.879 -0.334496 -1.91602 0
M  V30 6071 C 573.162 -3.56059 -0.537982 0
M  V30 6072 C 573.015 -4.43835 0.730112 0
M  V30 6073 C 574.334 -4.19127 -1.34239 0
M  V30 6074 H 571.453 -0.732135 -0.0845386 0
M  V30 6075 H 574.095 -1.83854 0.479341 0
M  V30 6076 H 572.245 -3.71153 -1.14795 0
M  V30 6077 H 573.917 -4.40555 1.36782 0
M  V30 6078 H 572.16 -4.1218 1.3524 0
M  V30 6079 H 572.831 -5.49958 0.474358 0
M  V30 6080 H 575.307 -4.07809 -0.826498 0
M  V30 6081 H 574.183 -5.27378 -1.52198 0
M  V30 6082 H 574.444 -3.74581 -2.34822 0
M  V30 6083 N 573.503 -0.0852151 -1.57369 0
M  V30 6084 C 574.752 0.580443 -1.93168 0
M  V30 6085 C 575.065 1.6995 -0.968319 0
M  V30 6086 O 576.271 2.42564 -1.21963 0
M  V30 6087 C 574.727 1.08386 -3.43192 0
M  V30 6088 C 574.335 -0.00491388 -4.48 0
M  V30 6089 C 576.079 1.72281 -3.87968 0
M  V30 6090 C 573.986 0.513299 -5.89168 0
M  V30 6091 H 572.916 0.22059 -0.72101 0
M  V30 6092 H 575.567 -0.159621 -1.82804 0
M  V30 6093 H 573.949 1.8773 -3.48674 0
M  V30 6094 H 575.123 -0.780032 -4.5415 0
M  V30 6095 H 573.438 -0.548453 -4.12772 0
M  V30 6096 H 576.035 2.12108 -4.9083 0
M  V30 6097 H 576.378 2.58811 -3.26071 0
M  V30 6098 H 576.911 0.995359 -3.85146 0
M  V30 6099 H 573.65 -0.315153 -6.54742 0
M  V30 6100 H 573.17 1.25564 -5.8651 0
M  V30 6101 H 574.849 0.985433 -6.39451 0
M  V30 6102 N 574.981 1.5647 0.188427 0
M  V30 6103 C 575.929 1.95971 1.25293 0
M  V30 6104 C 576.923 0.846047 1.4676 0
M  V30 6105 O 578.129 1.03109 1.47542 0
M  V30 6106 H 574.504 0.623253 0.420784 0
M  V30 6107 H 576.475 2.84731 0.892792 0
M  V30 6108 C 575.224 2.32116 2.58877 0
M  V30 6109 H 574.547 3.17341 2.43176 0
M  V30 6110 H 575.987 2.63613 3.3209 0
M  V30 6111 C 574.446 1.15823 3.16365 0
M  V30 6112 O 574.976 0.436785 3.99318 0
M  V30 6113 N 573.182 0.933278 2.75206 0
M  V30 6114 H 572.729 1.52169 2.07852 0
M  V30 6115 H 572.687 0.156976 3.14008 0
M  V30 6116 N 576.459 -0.456382 1.50847 0
M  V30 6117 C 577.684 -1.2349 1.66628 0
M  V30 6118 C 578.109 -1.84715 0.355254 0
M  V30 6119 O 577.467 -1.67961 -0.682559 0
M  V30 6120 C 577.515 -2.30865 2.77009 0
M  V30 6121 O 576.619 -3.35882 2.39285 0
M  V30 6122 H 575.96 -0.36266 0.556214 0
M  V30 6123 H 578.49 -0.541374 1.97308 0
M  V30 6124 H 578.5 -2.75949 3.00526 0
M  V30 6125 H 577.175 -1.85677 3.72152 0
M  V30 6126 H 575.752 -2.96406 2.26269 0
M  V30 6127 N 577.937 -1.40673 -0.710563 0
M  V30 6128 C 578.867 -1.44095 -1.83736 0
M  V30 6129 C 579.848 -0.301286 -1.67411 0
M  V30 6130 O 581.033 -0.510618 -1.87367 0
M  V30 6131 C 578.163 -1.30773 -3.21738 0
M  V30 6132 C 577.117 -2.42395 -3.52745 0
M  V30 6133 C 576.443 -2.14147 -4.89944 0
M  V30 6134 C 577.743 -3.84738 -3.53234 0
M  V30 6135 H 579.437 -2.38396 -1.81129 0
M  V30 6136 H 576.983 -1.14746 -0.870017 0
M  V30 6137 H 578.936 -1.31783 -4.00264 0
M  V30 6138 H 577.66 -0.329507 -3.24934 0
M  V30 6139 H 576.319 -2.40643 -2.76562 0
M  V30 6140 H 575.967 -1.14703 -4.89747 0
M  V30 6141 H 575.667 -2.88934 -5.11655 0
M  V30 6142 H 577.191 -2.16848 -5.70797 0
M  V30 6143 H 578.605 -3.88286 -4.2179 0
M  V30 6144 H 577.002 -4.59085 -3.86473 0
M  V30 6145 H 578.072 -4.13962 -2.52514 0
M  V30 6146 N 579.415 0.9433 -1.26252 0
M  V30 6147 C 580.663 1.68592 -1.11451 0
M  V30 6148 C 580.984 1.91957 0.343123 0
M  V30 6149 O 580.254 1.51475 1.24226 0
M  V30 6150 H 578.834 0.624789 -0.409448 0
M  V30 6151 H 581.496 1.13351 -1.58548 0
M  V30 6152 H 580.592 2.66054 -1.63162 0
M  V30 6153 N 580.893 1.08022 1.14757 0
M  V30 6154 C 582.309 0.807072 1.3769 0
M  V30 6155 C 582.509 -0.585504 1.92806 0
M  V30 6156 O 581.565 -1.34301 2.13821 0
M  V30 6157 C 582.878 1.88651 2.34161 0
M  V30 6158 C 584.426 1.91206 2.47809 0
M  V30 6159 C 584.901 2.98253 3.47576 0
M  V30 6160 N 586.392 2.974 3.55117 0
M  V30 6161 C 587.127 3.76872 4.32152 0
M  V30 6162 N 586.623 4.66212 5.12463 0
M  V30 6163 N 588.416 3.6519 4.27309 0
M  V30 6164 H 580.567 1.97824 0.77326 0
M  V30 6165 H 582.83 0.85826 0.402608 0
M  V30 6166 H 582.536 2.88749 2.00791 0
M  V30 6167 H 582.41 1.75244 3.3402 0
M  V30 6168 H 584.797 0.917564 2.80472 0
M  V30 6169 H 584.878 2.08691 1.47925 0
M  V30 6170 H 584.522 3.97907 3.15646 0
M  V30 6171 H 584.452 2.78014 4.47231 0
M  V30 6172 H 586.943 2.32643 2.97801 0
M  V30 6173 H 587.256 5.23468 5.68508 0
M  V30 6174 H 585.601 4.70257 5.11745 0
M  V30 6175 H 588.792 2.94765 3.63636 0
M  V30 6176 H 588.965 4.27366 4.87095 0
M  V30 6177 N 582.371 -1.3172 0.865308 0
M  V30 6178 C 583.787 -1.4958 0.556596 0
M  V30 6179 C 583.987 -1.79763 -0.910353 0
M  V30 6180 O 583.043 -1.87351 -1.6928 0
M  V30 6181 C 584.356 -2.63277 1.45279 0
M  V30 6182 C 585.904 -2.77161 1.45433 0
M  V30 6183 C 586.379 -3.93949 2.33598 0
M  V30 6184 N 587.87 -4.01228 2.31453 0
M  V30 6185 C 588.605 -4.90855 2.96393 0
M  V30 6186 N 588.101 -5.85416 3.70486 0
M  V30 6187 N 589.894 -4.84063 2.85726 0
M  V30 6188 H 582.045 -1.10396 1.81456 0
M  V30 6189 H 584.308 -0.54507 0.775631 0
M  V30 6190 H 584.014 -2.47734 2.49641 0
M  V30 6191 H 583.888 -3.59309 1.14792 0
M  V30 6192 H 586.275 -2.9212 0.41831 0
M  V30 6193 H 586.356 -1.8181 1.79941 0
M  V30 6194 H 586 -3.79748 3.37274 0
M  V30 6195 H 585.93 -4.88598 1.96417 0
M  V30 6196 H 588.421 -3.3357 1.77593 0
M  V30 6197 H 588.734 -6.50525 4.17178 0
M  V30 6198 H 587.079 -5.85409 3.74594 0
M  V30 6199 H 590.27 -4.09163 2.27384 0
M  V30 6200 H 590.443 -5.53708 3.36617 0
M  V30 6201 N 583.85 -0.624285 -1.44708 0
M  V30 6202 C 585.26 -0.2092 -1.85524 0
M  V30 6203 C 585.611 1.23783 -1.52225 0
M  V30 6204 O 584.736 1.94089 -0.956986 0
M  V30 6205 C 585.332 -0.372897 -3.36742 0
M  V30 6206 C 583.891 -0.012374 -3.76398 0
M  V30 6207 C 583.038 -0.68951 -2.68591 0
M  V30 6208 H 585.989 -0.829894 -1.35272 0
M  V30 6209 H 586.01 0.390134 -3.78495 0
M  V30 6210 H 585.522 -1.42615 -3.60947 0
M  V30 6211 H 583.623 1.03941 -3.57809 0
M  V30 6212 H 583.736 -0.417663 -4.77276 0
M  V30 6213 H 582.1 -0.125484 -2.54391 0
M  V30 6214 H 582.883 -1.74522 -2.9563 0
M  V30 6215 N 585.328 1.53329 -0.364422 0
M  V30 6216 C 586.291 2.24323 0.470292 0
M  V30 6217 C 587.291 1.25068 1.01067 0
M  V30 6218 O 588.481 1.49354 0.896605 0
M  V30 6219 C 585.613 2.97908 1.65722 0
M  V30 6220 H 586.806 2.9952 -0.150917 0
M  V30 6221 H 584.359 1.55868 -0.116092 0
M  V30 6222 H 585.094 2.2695 2.31655 0
M  V30 6223 H 584.879 3.70732 1.27671 0
M  V30 6224 H 586.369 3.5188 2.24878 0
M  V30 6225 N 586.806 0.0935595 1.57322 0
M  V30 6226 C 587.738 -0.895923 2.10964 0
M  V30 6227 C 588.751 -1.24705 1.04654 0
M  V30 6228 O 589.94 -1.20044 1.32105 0
M  V30 6229 C 587.04 -2.20546 2.57318 0
M  V30 6230 C 586.213 -2.0299 3.87445 0
M  V30 6231 C 585.272 -3.17443 4.19662 0
M  V30 6232 O 584.298 -2.91474 4.88909 0
M  V30 6233 N 585.5 -4.43168 3.74943 0
M  V30 6234 H 588.265 -0.437788 2.96485 0
M  V30 6235 H 585.826 -0.0915863 1.61641 0
M  V30 6236 H 587.818 -2.9606 2.75917 0
M  V30 6237 H 586.388 -2.57789 1.76816 0
M  V30 6238 H 585.608 -1.11815 3.78009 0
M  V30 6239 H 586.896 -1.88535 4.7258 0
M  V30 6240 H 586.294 -4.67149 3.19043 0
M  V30 6241 H 584.851 -5.15637 3.987 0
M  V30 6242 N 588.284 -1.56567 -0.180126 0
M  V30 6243 C 589.217 -1.90813 -1.25163 0
M  V30 6244 C 590.195 -0.7699 -1.43218 0
M  V30 6245 O 591.379 -1.02236 -1.58367 0
M  V30 6246 C 588.506 -2.15138 -2.61597 0
M  V30 6247 C 587.552 -3.37834 -2.60328 0
M  V30 6248 S 588.385 -4.92486 -2.1028 0
M  V30 6249 C 589.541 -5.19896 -3.48509 0
M  V30 6250 H 589.774 -2.81398 -0.959283 0
M  V30 6251 H 587.307 -1.49541 -0.3843 0
M  V30 6252 H 589.265 -2.29835 -3.40127 0
M  V30 6253 H 587.926 -1.25276 -2.88036 0
M  V30 6254 H 587.119 -3.52027 -3.60684 0
M  V30 6255 H 586.721 -3.22208 -1.8989 0
M  V30 6256 H 589.013 -5.11334 -4.44459 0
M  V30 6257 H 589.956 -6.21571 -3.39198 0
M  V30 6258 H 590.364 -4.47489 -3.44114 0
M  V30 6259 N 589.762 0.448376 -1.51087 0
M  V30 6260 C 590.725 1.52588 -1.71025 0
M  V30 6261 C 591.725 1.49958 -0.580442 0
M  V30 6262 O 592.915 1.52176 -0.847833 0
M  V30 6263 C 590.047 2.92163 -1.75652 0
M  V30 6264 H 591.24 1.36218 -2.67179 0
M  V30 6265 H 588.793 0.676313 -1.4091 0
M  V30 6266 H 589.528 3.13951 -0.812724 0
M  V30 6267 H 589.313 2.95478 -2.57751 0
M  V30 6268 H 590.803 3.70349 -1.92953 0
M  V30 6269 N 591.24 1.41047 0.703093 0
M  V30 6270 C 592.203 1.42036 1.79884 0
M  V30 6271 C 593.203 0.312153 1.57741 0
M  V30 6272 O 594.393 0.571672 1.64553 0
M  V30 6273 C 591.525 1.22437 3.18154 0
M  V30 6274 H 592.718 2.39572 1.80403 0
M  V30 6275 H 590.271 1.27079 0.909977 0
M  V30 6276 H 591.006 0.257112 3.23279 0
M  V30 6277 H 590.791 2.02723 3.35627 0
M  V30 6278 H 592.281 1.25946 3.98155 0
M  V30 6279 N 592.718 -0.936591 1.26751 0
M  V30 6280 C 593.648 -2.05315 1.11212 0
M  V30 6281 C 594.629 -1.70092 0.0160262 0
M  V30 6282 O 595.814 -1.93279 0.188894 0
M  V30 6283 C 592.944 -3.39123 0.749171 0
M  V30 6284 C 591.898 -3.88425 1.79751 0
M  V30 6285 C 591.224 -5.18936 1.28876 0
M  V30 6286 C 592.524 -4.12798 3.19992 0
M  V30 6287 H 594.218 -2.18573 2.04613 0
M  V30 6288 H 591.764 -1.05027 0.985159 0
M  V30 6289 H 593.717 -4.16704 0.627323 0
M  V30 6290 H 592.441 -3.25855 -0.220543 0
M  V30 6291 H 591.1 -3.13028 1.90811 0
M  V30 6292 H 590.748 -5.02051 0.308757 0
M  V30 6293 H 590.448 -5.52892 1.98958 0
M  V30 6294 H 591.972 -5.99096 1.17967 0
M  V30 6295 H 593.386 -4.80977 3.11983 0
M  V30 6296 H 591.783 -4.58044 3.87705 0
M  V30 6297 H 592.853 -3.18412 3.65707 0
M  V30 6298 N 594.196 -1.08629 -1.14182 0
M  V30 6299 C 595.126 -0.740003 -2.21464 0
M  V30 6300 C 596.107 0.278591 -1.67803 0
M  V30 6301 O 597.292 0.148461 -1.93632 0
M  V30 6302 C 594.422 -0.150952 -3.46972 0
M  V30 6303 C 593.376 -1.09815 -4.13672 0
M  V30 6304 C 592.702 -0.3712 -5.3341 0
M  V30 6305 C 594.002 -2.43722 -4.61949 0
M  V30 6306 H 595.696 -1.63697 -2.50686 0
M  V30 6307 H 593.242 -0.788526 -1.20492 0
M  V30 6308 H 595.195 0.103325 -4.21273 0
M  V30 6309 H 593.919 0.781164 -3.1712 0
M  V30 6310 H 592.578 -1.33756 -3.41328 0
M  V30 6311 H 592.226 0.564792 -4.99819 0
M  V30 6312 H 591.926 -1.00267 -5.78982 0
M  V30 6313 H 593.45 -0.12503 -6.10472 0
M  V30 6314 H 594.864 -2.24034 -5.27714 0
M  V30 6315 H 593.261 -3.02582 -5.18232 0
M  V30 6316 H 594.331 -3.05082 -3.76899 0
M  V30 6317 N 595.674 1.31259 -0.872281 0
M  V30 6318 C 596.604 2.30929 -0.345554 0
M  V30 6319 C 597.585 1.60449 0.5648 0
M  V30 6320 O 598.77 1.8814 0.481335 0
M  V30 6321 C 595.9 3.44348 0.451823 0
M  V30 6322 C 594.854 4.26435 -0.365641 0
M  V30 6323 C 594.18 5.31785 0.557562 0
M  V30 6324 C 595.48 4.97159 -1.60095 0
M  V30 6325 H 597.174 2.75234 -1.17841 0
M  V30 6326 H 594.72 1.3232 -0.568094 0
M  V30 6327 H 596.673 4.13128 0.830854 0
M  V30 6328 H 595.397 2.98816 1.31821 0
M  V30 6329 H 594.056 3.59326 -0.726649 0
M  V30 6330 H 593.704 4.82502 1.4213 0
M  V30 6331 H 593.404 5.87598 0.0144878 0
M  V30 6332 H 594.928 6.03424 0.933387 0
M  V30 6333 H 596.342 5.58523 -1.29323 0
M  V30 6334 H 594.739 5.62779 -2.08327 0
M  V30 6335 H 595.809 4.24012 -2.35249 0
M  V30 6336 N 597.152 0.631951 1.44375 0
M  V30 6337 C 598.115 -0.0628142 2.29114 0
M  V30 6338 C 599.115 -0.771494 1.41084 0
M  V30 6339 O 600.305 -0.615959 1.62947 0
M  V30 6340 C 597.437 -1.09953 3.22681 0
M  V30 6341 H 598.63 0.682509 2.92031 0
M  V30 6342 H 596.183 0.392128 1.51301 0
M  V30 6343 H 596.918 -1.87481 2.64616 0
M  V30 6344 H 596.703 -0.595286 3.87555 0
M  V30 6345 H 598.193 -1.58538 3.86336 0
M  V30 6346 N 598.631 -1.53133 0.372548 0
M  V30 6347 C 599.879 -2.00958 -0.214534 0
M  V30 6348 C 600.2 -1.26135 -1.48711 0
M  V30 6349 O 599.47 -0.376597 -1.92246 0
M  V30 6350 H 598.05 -0.742456 -0.0822664 0
M  V30 6351 H 600.712 -1.88367 0.500385 0
M  V30 6352 H 599.808 -3.09031 -0.436605 0
M  V30 6353 N 600.109 -0.101901 -1.5727 0
M  V30 6354 C 601.358 0.559922 -1.93772 0
M  V30 6355 C 601.671 1.68913 -0.98629 0
M  V30 6356 O 602.877 2.41256 -1.24529 0
M  V30 6357 C 601.333 1.04739 -3.44322 0
M  V30 6358 C 600.941 -0.05243 -4.47969 0
M  V30 6359 C 602.685 1.68157 -3.89774 0
M  V30 6360 C 600.592 0.450781 -5.8968 0
M  V30 6361 H 599.522 0.212931 -0.723309 0
M  V30 6362 H 602.173 -0.179001 -1.82625 0
M  V30 6363 H 600.555 1.84021 -3.50645 0
M  V30 6364 H 601.729 -0.828157 -4.53297 0
M  V30 6365 H 600.044 -0.592202 -4.12167 0
M  V30 6366 H 602.641 2.0689 -4.93052 0
M  V30 6367 H 602.984 2.55338 -3.28798 0
M  V30 6368 H 603.517 0.954453 -3.8618 0
M  V30 6369 H 600.256 -0.38458 -6.54371 0
M  V30 6370 H 599.776 1.19336 -5.87809 0
M  V30 6371 H 601.455 0.917555 -6.40461 0
M  V30 6372 N 601.587 1.56661 0.17182 0
M  V30 6373 C 602.827 1.83762 0.895029 0
M  V30 6374 C 603.191 0.682752 1.79451 0
M  V30 6375 O 604.392 0.834208 2.55528 0
M  V30 6376 C 602.663 3.15976 1.67015 0
M  V30 6377 S 604.222 3.64558 2.44219 0
M  V30 6378 H 601.04 0.644713 0.299778 0
M  V30 6379 H 603.642 1.94871 0.156701 0
M  V30 6380 H 602.346 3.98021 1.00039 0
M  V30 6381 H 601.877 3.07807 2.44986 0
M  V30 6382 H 603.892 3.31845 3.68909 0
M  V30 6383 N 603.065 -0.440357 1.51323 0
M  V30 6384 C 604.314 -1.18697 1.63076 0
M  V30 6385 C 604.627 -1.92418 0.35136 0
M  V30 6386 O 605.833 -2.69258 0.348221 0
M  V30 6387 C 604.289 -2.15849 2.87988 0
M  V30 6388 C 603.897 -1.47789 4.22921 0
M  V30 6389 C 605.641 -2.90962 3.09098 0
M  V30 6390 C 603.548 -2.43407 5.38987 0
M  V30 6391 H 602.478 -0.44676 0.607389 0
M  V30 6392 H 605.129 -0.454313 1.77787 0
M  V30 6393 H 603.511 -2.92537 2.66905 0
M  V30 6394 H 604.685 -0.7668 4.54375 0
M  V30 6395 H 603 -0.848404 4.07665 0
M  V30 6396 H 605.597 -3.62584 3.92985 0
M  V30 6397 H 605.94 -3.52133 2.22053 0
M  V30 6398 H 606.473 -2.21381 3.30507 0
M  V30 6399 H 603.212 -1.86929 6.28282 0
M  V30 6400 H 602.732 -3.12579 5.11913 0
M  V30 6401 H 604.411 -3.046 5.70813 0
M  V30 6402 N 604.543 -1.41418 -0.695603 0
M  V30 6403 C 605.473 -1.46035 -1.82197 0
M  V30 6404 C 606.454 -0.319025 -1.67082 0
M  V30 6405 O 607.639 -0.530462 -1.86815 0
M  V30 6406 C 604.769 -1.34179 -3.20333 0
M  V30 6407 C 603.723 -2.46123 -3.50154 0
M  V30 6408 C 603.049 -2.19332 -4.87645 0
M  V30 6409 C 604.349 -3.88463 -3.49133 0
M  V30 6410 H 606.043 -2.40303 -1.78591 0
M  V30 6411 H 603.589 -1.15663 -0.857797 0
M  V30 6412 H 605.542 -1.36021 -3.98844 0
M  V30 6413 H 604.266 -0.363952 -3.24566 0
M  V30 6414 H 602.925 -2.43563 -2.73994 0
M  V30 6415 H 602.573 -1.19891 -4.88503 0
M  V30 6416 H 602.273 -2.94344 -5.08562 0
M  V30 6417 H 603.797 -2.22889 -5.68465 0
M  V30 6418 H 605.211 -3.92738 -4.17648 0
M  V30 6419 H 603.608 -4.63158 -3.81582 0
M  V30 6420 H 604.678 -4.16617 -2.48109 0
M  V30 6421 N 606.021 0.929856 -1.27246 0
M  V30 6422 C 606.951 2.04722 -1.12299 0
M  V30 6423 C 607.932 1.70082 -0.0250464 0
M  V30 6424 O 609.117 1.93176 -0.199141 0
M  V30 6425 C 606.247 3.38721 -0.767145 0
M  V30 6426 C 605.201 3.87466 -1.81808 0
M  V30 6427 C 604.527 5.18246 -1.31626 0
M  V30 6428 C 605.827 4.11095 -3.22177 0
M  V30 6429 H 607.521 2.17485 -2.05769 0
M  V30 6430 H 605.067 1.04503 -0.990715 0
M  V30 6431 H 607.02 4.16366 -0.649413 0
M  V30 6432 H 605.744 3.25967 0.203259 0
M  V30 6433 H 604.403 3.12012 -1.92468 0
M  V30 6434 H 604.051 5.01881 -0.335378 0
M  V30 6435 H 603.751 5.51829 -2.01887 0
M  V30 6436 H 605.275 5.98462 -1.21143 0
M  V30 6437 H 606.689 4.79316 -3.1453 0
M  V30 6438 H 605.086 4.55982 -3.90129 0
M  V30 6439 H 606.156 3.16468 -3.67391 0
M  V30 6440 N 607.499 1.09233 1.13605 0
M  V30 6441 C 608.447 0.724572 2.21027 0
M  V30 6442 C 609.441 -0.273595 1.67176 0
M  V30 6443 O 610.647 -0.135266 1.79491 0
M  V30 6444 H 607.022 0.216319 0.720215 0
M  V30 6445 H 608.993 1.63975 2.49309 0
M  V30 6446 C 607.742 0.159126 3.47336 0
M  V30 6447 H 607.065 0.918387 3.89109 0
M  V30 6448 H 608.505 -0.0602851 4.23957 0
M  V30 6449 C 606.964 -1.10514 3.18258 0
M  V30 6450 O 607.494 -2.18869 3.36837 0
M  V30 6451 N 605.7 -1.01886 2.72154 0
M  V30 6452 H 605.247 -0.137027 2.57235 0
M  V30 6453 H 605.205 -1.8655 2.53074 0
M  V30 6454 N 608.977 -1.30795 0.87923 0
M  V30 6455 C 610.225 -1.95974 0.493809 0
M  V30 6456 C 610.546 -1.69787 -0.959021 0
M  V30 6457 O 609.816 -1.01832 -1.67353 0
M  V30 6458 H 608.396 -0.725083 0.179622 0
M  V30 6459 H 611.058 -1.59432 1.12105 0
M  V30 6460 H 610.154 -3.05058 0.659263 0
M  V30 6461 N 610.455 -0.639598 -1.44038 0
M  V30 6462 C 611.701 -0.147698 -2.02261 0
M  V30 6463 C 612.034 1.23031 -1.50256 0
M  V30 6464 O 611.309 1.81847 -0.690068 0
M  V30 6465 C 611.592 -0.14362 -3.59813 0
M  V30 6466 C 611.445 -1.55458 -4.22082 0
M  V30 6467 C 612.764 0.527317 -4.36929 0
M  V30 6468 H 609.883 -0.0551453 -0.734934 0
M  V30 6469 H 612.525 -0.817688 -1.71505 0
M  V30 6470 H 610.675 0.426898 -3.86147 0
M  V30 6471 H 612.347 -2.17464 -4.06826 0
M  V30 6472 H 610.59 -2.10594 -3.79253 0
M  V30 6473 H 611.261 -1.50369 -5.31124 0
M  V30 6474 H 613.737 0.0420504 -4.16079 0
M  V30 6475 H 612.613 0.499389 -5.46624 0
M  V30 6476 H 612.874 1.59914 -4.12165 0
M  V30 6477 N 611.933 1.52934 -0.380664 0
M  V30 6478 C 613.182 2.00651 0.205477 0
M  V30 6479 C 613.495 1.27164 1.48623 0
M  V30 6480 O 614.701 1.65547 2.15189 0
M  V30 6481 C 613.157 3.57479 0.416726 0
M  V30 6482 C 612.765 4.39857 -0.850268 0
M  V30 6483 C 614.509 4.13509 0.959702 0
M  V30 6484 C 612.416 5.88269 -0.607773 0
M  V30 6485 H 611.346 0.749684 0.0805614 0
M  V30 6486 H 613.997 1.76508 -0.501732 0
M  V30 6487 H 612.379 3.77836 1.18557 0
M  V30 6488 H 613.553 4.31269 -1.62307 0
M  V30 6489 H 611.868 3.95005 -1.31756 0
M  V30 6490 H 614.465 5.22039 1.15669 0
M  V30 6491 H 614.808 3.69054 1.92626 0
M  V30 6492 H 615.341 3.9701 0.250645 0
M  V30 6493 H 612.08 6.3703 -1.54509 0
M  V30 6494 H 611.6 5.99667 0.126247 0
M  V30 6495 H 613.279 6.46558 -0.239014 0
M  V30 6496 N 613.412 0.11024 1.57214 0
M  V30 6497 C 614.823 -0.416527 1.81994 0
M  V30 6498 C 615.174 -1.67183 1.02686 0
M  V30 6499 O 614.299 -2.14823 0.260782 0
M  V30 6500 C 614.894 -0.762466 3.30109 0
M  V30 6501 C 613.453 -1.23391 3.556 0
M  V30 6502 C 612.6 -0.238166 2.76275 0
M  V30 6503 H 615.551 0.335491 1.55113 0
M  V30 6504 H 615.572 -1.62068 3.44259 0
M  V30 6505 H 615.084 0.151346 3.87805 0
M  V30 6506 H 613.185 -2.16492 3.03253 0
M  V30 6507 H 613.298 -1.18528 4.64207 0
M  V30 6508 H 611.662 -0.723421 2.4421 0
M  V30 6509 H 612.445 0.668591 3.36727 0
M  V30 6510 N 614.89 -1.56749 -0.16351 0
M  V30 6511 C 615.822 -1.93587 -1.22705 0
M  V30 6512 C 616.835 -0.829824 -1.40063 0
M  V30 6513 O 618.024 -1.10826 -1.39928 0
M  V30 6514 C 615.124 -2.1803 -2.59454 0
M  V30 6515 C 614.297 -3.4928 -2.63292 0
M  V30 6516 C 613.356 -3.62457 -3.8146 0
M  V30 6517 O 612.382 -4.35004 -3.67096 0
M  V30 6518 N 613.584 -2.97888 -4.9824 0
M  V30 6519 H 616.349 -2.8542 -0.914081 0
M  V30 6520 H 613.91 -1.58 -0.353214 0
M  V30 6521 H 615.902 -2.24102 -3.36987 0
M  V30 6522 H 614.472 -1.32543 -2.8311 0
M  V30 6523 H 613.692 -3.54795 -1.71796 0
M  V30 6524 H 614.98 -4.35632 -2.62873 0
M  V30 6525 H 614.378 -2.38833 -5.12811 0
M  V30 6526 H 612.935 -3.09545 -5.73607 0
M  V30 6527 N 616.368 0.432326 -1.51554 0
M  V30 6528 C 617.645 1.19288 -1.55015 0
M  V30 6529 C 618.025 2.08701 -0.317375 0
M  V30 6530 O 617.373 2.17602 0.697243 0
M  V30 6531 C 617.583 1.99037 -2.86679 0
M  V30 6532 C 618.931 2.55907 -3.38817 0
M  V30 6533 O 619.955 2.09243 -2.88263 0
M  V30 6534 O 618.814 3.41029 -4.27038 0
M  V30 6535 H 615.908 0.543369 -0.623441 0
M  V30 6536 H 618.454 0.440988 -1.6387 0
M  V30 6537 H 617.226 1.33397 -3.6786 0
M  V30 6538 H 616.849 2.81281 -2.8101 0
M  V30 6539 N 617.846 1.41785 0.688094 0
M  V30 6540 C 618.778 1.40159 1.81351 0
M  V30 6541 C 619.791 0.30262 1.59963 0
M  V30 6542 O 620.98 0.564841 1.69327 0
M  V30 6543 C 618.08 1.16517 3.1824 0
M  V30 6544 C 617.253 2.38597 3.66593 0
M  V30 6545 C 616.312 2.10699 4.82174 0
M  V30 6546 O 615.338 2.83798 4.93404 0
M  V30 6547 N 616.54 1.10187 5.69947 0
M  V30 6548 H 619.305 2.3716 1.83236 0
M  V30 6549 H 616.866 1.36494 0.870697 0
M  V30 6550 H 618.858 0.957941 3.93199 0
M  V30 6551 H 617.428 0.280873 3.11336 0
M  V30 6552 H 616.648 2.74974 2.82459 0
M  V30 6553 H 617.936 3.19919 3.95638 0
M  V30 6554 H 617.334 0.497016 5.63512 0
M  V30 6555 H 615.891 0.954518 6.44773 0
M  V30 6556 N 619.324 -0.923095 1.27737 0
M  V30 6557 C 620.549 -1.71054 1.17283 0
M  V30 6558 C 620.974 -1.86208 -0.266153 0
M  V30 6559 O 620.332 -1.36545 -1.1927 0
M  V30 6560 C 620.38 -3.0854 1.86642 0
M  V30 6561 O 619.484 -3.95528 1.16752 0
M  V30 6562 H 618.825 -0.524136 0.407649 0
M  V30 6563 H 621.355 -1.15487 1.6889 0
M  V30 6564 H 621.365 -3.58828 1.94182 0
M  V30 6565 H 620.04 -2.96828 2.91317 0
M  V30 6566 H 618.617 -3.53967 1.17312 0
M  V30 6567 N 620.802 -1.09834 -1.13024 0
M  V30 6568 C 622.051 -0.831806 -1.83749 0
M  V30 6569 C 622.364 0.644763 -1.84668 0
M  V30 6570 O 623.57 1.02697 -2.51327 0
M  V30 6571 C 622.026 -1.43817 -3.29916 0
M  V30 6572 C 621.634 -2.94759 -3.37374 0
M  V30 6573 C 623.378 -1.25077 -4.05655 0
M  V30 6574 C 621.285 -3.48461 -4.77838 0
M  V30 6575 H 620.215 -0.30751 -0.688443 0
M  V30 6576 H 622.866 -1.32156 -1.27307 0
M  V30 6577 H 621.248 -0.876106 -3.86187 0
M  V30 6578 H 622.422 -3.57228 -2.91076 0
M  V30 6579 H 620.737 -3.12581 -2.75103 0
M  V30 6580 H 623.334 -1.62649 -5.09362 0
M  V30 6581 H 623.677 -0.191782 -4.15858 0
M  V30 6582 H 624.21 -1.78057 -3.55725 0
M  V30 6583 H 620.949 -4.53998 -4.72828 0
M  V30 6584 H 620.469 -2.90757 -5.24615 0
M  V30 6585 H 622.148 -3.45914 -5.46766 0
M  V30 6586 N 622.28 1.30327 -0.886154 0
M  V30 6587 C 623.526 1.96388 -0.505941 0
M  V30 6588 C 623.859 1.69784 0.942712 0
M  V30 6589 O 623.134 1.00322 1.6663 0
M  V30 6590 C 623.417 3.51488 -0.782826 0
M  V30 6591 C 623.27 3.87603 -2.28219 0
M  V30 6592 C 624.589 4.39331 -0.260128 0
M  V30 6593 H 621.708 0.713327 -0.185292 0
M  V30 6594 H 624.35 1.54178 -1.11036 0
M  V30 6595 H 622.5 3.87572 -0.268399 0
M  V30 6596 H 624.172 3.61537 -2.86512 0
M  V30 6597 H 622.415 3.3563 -2.74837 0
M  V30 6598 H 623.086 4.95806 -2.42653 0
M  V30 6599 H 625.562 4.10162 -0.700444 0
M  V30 6600 H 624.438 5.46769 -0.483179 0
M  V30 6601 H 624.699 4.34072 0.838674 0
M  V30 6602 N 623.758 0.647228 1.43697 0
M  V30 6603 C 625.174 0.314256 1.56476 0
M  V30 6604 C 625.374 -1.18191 1.63196 0
M  V30 6605 O 624.43 -1.96655 1.58376 0
M  V30 6606 C 625.743 1.02034 2.82859 0
M  V30 6607 C 627.291 1.00002 2.96595 0
M  V30 6608 C 627.766 1.68689 4.25803 0
M  V30 6609 N 629.257 1.65424 4.32654 0
M  V30 6610 C 629.992 2.1545 5.31384 0
M  V30 6611 N 629.488 2.73738 6.36427 0
M  V30 6612 N 631.281 2.05985 5.22998 0
M  V30 6613 H 623.432 1.61821 1.37578 0
M  V30 6614 H 625.695 0.680184 0.660344 0
M  V30 6615 H 625.401 2.07542 2.83935 0
M  V30 6616 H 625.275 0.568146 3.72897 0
M  V30 6617 H 627.662 -0.0466319 2.95063 0
M  V30 6618 H 627.743 1.49086 2.07863 0
M  V30 6619 H 627.387 2.73308 4.28095 0
M  V30 6620 H 627.317 1.17076 5.13421 0
M  V30 6621 H 629.808 1.22884 3.57363 0
M  V30 6622 H 630.121 3.09602 7.08072 0
M  V30 6623 H 628.466 2.77796 6.37067 0
M  V30 6624 H 631.657 1.60157 4.39849 0
M  V30 6625 H 631.83 2.45281 5.99784 0
M  V30 6626 N 625.236 -1.5273 0.388769 0
M  V30 6627 C 626.464 -2.05992 -0.193677 0
M  V30 6628 C 626.879 -1.26053 -1.40557 0
M  V30 6629 O 626.236 -0.307049 -1.79898 0
M  V30 6630 C 626.287 -3.57068 -0.564321 0
M  V30 6631 O 626.008 -4.3398 0.599422 0
M  V30 6632 C 627.509 -4.26674 -1.20269 0
M  V30 6633 H 624.729 -0.670358 -0.0293445 0
M  V30 6634 H 627.273 -1.96857 0.553844 0
M  V30 6635 H 625.428 -3.66277 -1.26174 0
M  V30 6636 H 625.842 -5.2367 0.294895 0
M  V30 6637 H 627.316 -5.33625 -1.4124 0
M  V30 6638 H 627.793 -3.81854 -2.16989 0
M  V30 6639 H 628.399 -4.2178 -0.546047 0
M  V30 6640 N 626.714 -0.118576 -1.57153 0
M  V30 6641 C 627.939 0.550582 -1.99958 0
M  V30 6642 C 628.364 1.59458 -0.997736 0
M  V30 6643 O 627.722 1.81274 0.0306269 0
M  V30 6644 C 627.77 1.15379 -3.41643 0
M  V30 6645 O 626.874 2.26932 -3.44348 0
M  V30 6646 H 626.215 0.137567 -0.649593 0
M  V30 6647 H 628.745 -0.206926 -2.03551 0
M  V30 6648 H 628.755 1.48942 -3.79843 0
M  V30 6649 H 627.43 0.389087 -4.14076 0
M  V30 6650 H 626.007 1.94812 -3.17967 0
M  V30 6651 N 628.193 1.56834 0.155195 0
M  V30 6652 C 629.123 2.00678 1.19376 0
M  V30 6653 C 630.104 0.884973 1.45266 0
M  V30 6654 O 631.289 1.1522 1.56326 0
M  V30 6655 C 628.419 2.38042 2.5289 0
M  V30 6656 C 627.373 3.53332 2.41538 0
M  V30 6657 C 626.699 3.76485 3.79688 0
M  V30 6658 C 627.999 4.86265 1.9064 0
M  V30 6659 H 629.693 2.87688 0.829232 0
M  V30 6660 H 627.239 1.38407 0.397445 0
M  V30 6661 H 629.192 2.67314 3.25763 0
M  V30 6662 H 627.916 1.4796 2.91162 0
M  V30 6663 H 626.575 3.24213 1.71117 0
M  V30 6664 H 626.223 2.83667 4.15382 0
M  V30 6665 H 625.923 4.54068 3.72956 0
M  V30 6666 H 627.447 4.08174 4.54122 0
M  V30 6667 H 628.861 5.14308 2.53299 0
M  V30 6668 H 627.258 5.67597 1.94818 0
M  V30 6669 H 628.328 4.77184 0.861596 0
M  V30 6670 N 629.671 -0.424282 1.51781 0
M  V30 6671 C 630.634 -1.49848 1.73431 0
M  V30 6672 C 631.634 -1.49016 0.604225 0
M  V30 6673 O 632.824 -1.50808 0.871935 0
M  V30 6674 C 629.956 -2.89332 1.80277 0
M  V30 6675 H 631.149 -1.3195 2.69312 0
M  V30 6676 H 628.702 -0.653809 1.41968 0
M  V30 6677 H 629.437 -3.12618 0.862568 0
M  V30 6678 H 629.222 -2.9134 2.62419 0
M  V30 6679 H 630.712 -3.67233 1.98821 0
M  V30 6680 N 631.149 -1.42148 -0.680565 0
M  V30 6681 C 632.395 -1.42521 -1.44277 0
M  V30 6682 C 632.728 -0.0393718 -1.9416 0
M  V30 6683 O 632.003 0.935425 -1.70529 0
M  V30 6684 C 632.286 -2.44475 -2.64394 0
M  V30 6685 C 632.139 -3.92226 -2.20179 0
M  V30 6686 C 633.458 -2.43491 -3.66606 0
M  V30 6687 H 630.577 -0.518985 -0.523282 0
M  V30 6688 H 633.219 -1.73524 -0.773914 0
M  V30 6689 H 631.369 -2.18168 -3.21458 0
M  V30 6690 H 633.041 -4.29493 -1.68327 0
M  V30 6691 H 631.284 -4.0637 -1.5181 0
M  V30 6692 H 631.955 -4.59133 -3.06433 0
M  V30 6693 H 634.431 -2.66872 -3.19247 0
M  V30 6694 H 633.307 -3.16816 -4.4824 0
M  V30 6695 H 633.568 -1.45881 -4.17338 0
M  V30 6696 N 632.627 0.916307 -1.28225 0
M  V30 6697 C 633.557 2.0352 -1.14464 0
M  V30 6698 C 634.538 1.70045 -0.0430844 0
M  V30 6699 O 635.723 1.92954 -0.219619 0
M  V30 6700 C 632.853 3.37889 -0.803027 0
M  V30 6701 C 631.807 3.85516 -1.85908 0
M  V30 6702 C 631.133 5.1682 -1.37116 0
M  V30 6703 C 632.433 4.07655 -3.26519 0
M  V30 6704 H 634.127 2.1529 -2.08064 0
M  V30 6705 H 631.673 1.03446 -1.00174 0
M  V30 6706 H 633.626 4.15654 -0.693537 0
M  V30 6707 H 632.35 3.26164 0.168674 0
M  V30 6708 H 631.009 3.09953 -1.95767 0
M  V30 6709 H 630.657 5.01497 -0.38859 0
M  V30 6710 H 630.357 5.49657 -2.07728 0
M  V30 6711 H 631.881 5.97143 -1.27484 0
M  V30 6712 H 633.295 4.75953 -3.19596 0
M  V30 6713 H 631.692 4.51818 -3.94943 0
M  V30 6714 H 632.762 3.12553 -3.70727 0
M  V30 6715 N 634.105 1.10431 1.1244 0
M  V30 6716 C 635.353 0.845045 1.83585 0
M  V30 6717 C 635.674 -0.631168 1.84503 0
M  V30 6718 O 634.944 -1.45825 1.30813 0
M  V30 6719 H 633.524 0.309628 0.679809 0
M  V30 6720 H 636.186 1.39458 1.36153 0
M  V30 6721 H 635.282 1.20786 2.8778 0
M  V30 6722 N 635.583 -1.29855 0.893053 0
M  V30 6723 C 636.53 -2.27909 0.364161 0
M  V30 6724 C 637.5 -1.56726 -0.550093 0
M  V30 6725 O 638.685 -1.84747 -0.47677 0
M  V30 6726 C 635.825 -3.42678 -0.408178 0
M  V30 6727 C 634.938 -4.28659 0.536212 0
M  V30 6728 C 634.073 -5.30599 -0.252521 0
M  V30 6729 C 633.112 -6.08234 0.686822 0
M  V30 6730 N 632.249 -7.02068 -0.0670902 0
M  V30 6731 H 637.089 -2.72531 1.20544 0
M  V30 6732 H 634.626 -1.34047 0.605779 0
M  V30 6733 H 636.584 -4.07986 -0.871962 0
M  V30 6734 H 635.214 -2.99103 -1.21397 0
M  V30 6735 H 634.266 -3.63584 1.1185 0
M  V30 6736 H 635.578 -4.8274 1.25552 0
M  V30 6737 H 634.732 -6.01694 -0.777801 0
M  V30 6738 H 633.471 -4.77233 -1.005 0
M  V30 6739 H 632.476 -5.3601 1.22366 0
M  V30 6740 H 633.701 -6.63689 1.43852 0
M  V30 6741 H 631.647 -6.5108 -0.801955 0
M  V30 6742 H 631.564 -7.53675 0.59243 0
M  V30 6743 H 632.832 -7.77392 -0.572851 0
M  V30 6744 N 637.061 -0.65484 -1.43351 0
M  V30 6745 C 638.309 -0.168559 -2.01396 0
M  V30 6746 C 638.63 1.22235 -1.51933 0
M  V30 6747 O 637.9 1.81685 -0.732627 0
M  V30 6748 H 636.48 -0.0593244 -0.744641 0
M  V30 6749 H 639.142 -0.846871 -1.75539 0
M  V30 6750 H 638.238 -0.154428 -3.11718 0
M  V30 6751 N 638.539 1.52521 -0.396863 0
M  V30 6752 C 639.779 2.03583 0.182578 0
M  V30 6753 C 640.143 1.2766 1.43412 0
M  V30 6754 O 641.344 1.68884 2.09121 0
M  V30 6755 C 639.615 3.54724 0.436519 0
M  V30 6756 S 641.174 4.27598 0.985163 0
M  V30 6757 H 637.992 0.709186 0.0507529 0
M  V30 6758 H 640.594 1.87693 -0.546955 0
M  V30 6759 H 639.298 4.07567 -0.481343 0
M  V30 6760 H 638.829 3.74834 1.19427 0
M  V30 6761 H 640.844 4.41393 2.26686 0
M  V30 6762 N 640.017 0.126909 1.57088 0
M  V30 6763 C 640.947 -0.816847 2.18746 0
M  V30 6764 C 641.928 -1.27161 1.12979 0
M  V30 6765 O 643.113 -1.33279 1.41246 0
M  V30 6766 C 640.243 -2.06398 2.79315 0
M  V30 6767 C 639.197 -1.74673 3.90735 0
M  V30 6768 C 638.523 -3.06482 4.38147 0
M  V30 6769 C 639.823 -1.0089 5.12463 0
M  V30 6770 H 641.517 -0.303032 2.97863 0
M  V30 6771 H 639.063 -0.144314 1.43275 0
M  V30 6772 H 641.016 -2.72885 3.2111 0
M  V30 6773 H 639.74 -2.60118 1.975 0
M  V30 6774 H 638.399 -1.10572 3.49527 0
M  V30 6775 H 638.047 -3.58152 3.5318 0
M  V30 6776 H 637.747 -2.86025 5.13287 0
M  V30 6777 H 639.271 -3.74073 4.82599 0
M  V30 6778 H 640.685 -1.57546 5.51228 0
M  V30 6779 H 639.082 -0.905006 5.93237 0
M  V30 6780 H 640.152 0.00297335 4.849 0
M  V30 6781 N 641.495 -1.56914 -0.146875 0
M  V30 6782 C 642.458 -1.97368 -1.16526 0
M  V30 6783 C 643.458 -0.860223 -1.35856 0
M  V30 6784 O 644.648 -1.12684 -1.32846 0
M  V30 6785 C 641.78 -2.28974 -2.52555 0
M  V30 6786 H 642.973 -2.88523 -0.818209 0
M  V30 6787 H 640.526 -1.5135 -0.390221 0
M  V30 6788 H 641.261 -1.40611 -2.92231 0
M  V30 6789 H 641.046 -3.10157 -2.39886 0
M  V30 6790 H 642.536 -2.61109 -3.25902 0
M  V30 6791 N 642.974 0.416227 -1.52004 0
M  V30 6792 C 643.937 1.48926 -1.74223 0
M  V30 6793 C 644.937 1.48693 -0.612119 0
M  V30 6794 O 646.127 1.50343 -0.879921 0
M  V30 6795 C 643.259 2.88372 -1.81809 0
M  V30 6796 H 644.452 1.3052 -2.70008 0
M  V30 6797 H 642.005 0.646271 -1.42313 0
M  V30 6798 H 642.74 3.12157 -0.879135 0
M  V30 6799 H 642.525 2.89944 -2.6396 0
M  V30 6800 H 644.015 3.66173 -2.00766 0
M  V30 6801 N 644.452 1.42507 0.673017 0
M  V30 6802 C 645.677 1.4668 1.46627 0
M  V30 6803 C 646.102 0.080066 1.8793 0
M  V30 6804 O 645.46 -0.921879 1.56112 0
M  V30 6805 C 645.508 2.40091 2.69051 0
M  V30 6806 O 644.612 1.8735 3.67387 0
M  V30 6807 H 643.953 0.496908 0.44043 0
M  V30 6808 H 646.483 1.87215 0.825334 0
M  V30 6809 H 646.493 2.56731 3.17101 0
M  V30 6810 H 645.168 3.4084 2.3833 0
M  V30 6811 H 643.745 1.80274 3.26429 0
M  V30 6812 N 645.93 -0.909495 1.28709 0
M  V30 6813 C 647.177 -1.65905 1.16111 0
M  V30 6814 C 647.505 -1.92334 -0.289436 0
M  V30 6815 O 646.76 -1.52495 -1.22653 0
M  V30 6816 C 647.059 -3.02117 1.90945 0
M  V30 6817 C 646.725 -2.95332 3.40719 0
M  V30 6818 C 645.387 -2.93189 3.81567 0
M  V30 6819 C 647.739 -2.85264 4.36204 0
M  V30 6820 C 645.067 -2.78784 5.16233 0
M  V30 6821 C 647.419 -2.724 5.70948 0
M  V30 6822 C 646.083 -2.68617 6.11066 0
M  V30 6823 H 645.353 -0.60709 0.42488 0
M  V30 6824 H 648 -1.05932 1.59533 0
M  V30 6825 H 646.305 -3.65901 1.40085 0
M  V30 6826 H 648.002 -3.59026 1.7861 0
M  V30 6827 H 644.592 -2.97797 3.08245 0
M  V30 6828 H 648.776 -2.86005 4.05605 0
M  V30 6829 H 644.032 -2.74254 5.46438 0
M  V30 6830 H 648.206 -2.63579 6.44592 0
M  V30 6831 H 645.833 -2.57213 7.15364 0
M  V30 6832 N 647.408 -1.11026 -1.11852 0
M  V30 6833 C 648.356 -0.759643 -2.19846 0
M  V30 6834 C 649.35 0.246964 -1.6759 0
M  V30 6835 O 650.556 0.106693 -1.79684 0
M  V30 6836 H 646.931 -0.22775 -0.716683 0
M  V30 6837 H 648.902 -1.6792 -2.46669 0
M  V30 6838 C 647.651 -0.214364 -3.47039 0
M  V30 6839 H 646.974 -0.980175 -3.87599 0
M  V30 6840 H 648.414 -0.00717047 -4.23999 0
M  V30 6841 C 646.873 1.05436 -3.19976 0
M  V30 6842 O 647.403 2.13483 -3.40276 0
M  V30 6843 N 645.609 0.975436 -2.7374 0
M  V30 6844 H 645.156 0.0960853 -2.57421 0
M  V30 6845 H 645.114 1.82501 -2.5601 0
M  V30 6846 N 648.886 1.2938 -0.899927 0
M  V30 6847 C 650.126 1.97332 -0.532871 0
M  V30 6848 C 650.49 1.69385 0.904029 0
M  V30 6849 O 651.691 2.30793 1.37797 0
M  V30 6850 C 649.962 3.47927 -0.817393 0
M  V30 6851 S 651.521 4.3528 -0.55468 0
M  V30 6852 H 648.339 0.682966 -0.197683 0
M  V30 6853 H 650.941 1.57189 -1.16241 0
M  V30 6854 H 649.645 3.65761 -1.86138 0
M  V30 6855 H 649.176 3.93006 -0.175978 0
M  V30 6856 H 651.191 4.92557 0.600182 0
M  V30 6857 N 650.364 0.662433 1.43002 0
M  V30 6858 C 651.613 0.176873 2.00923 0
M  V30 6859 C 651.926 -1.21954 1.52927 0
M  V30 6860 O 653.132 -1.80081 2.03182 0
M  V30 6861 C 651.588 0.265379 3.5892 0
M  V30 6862 C 651.196 1.66507 4.15908 0
M  V30 6863 C 652.94 -0.162103 4.2419 0
M  V30 6864 C 650.847 1.707 5.66229 0
M  V30 6865 H 649.777 0.0623627 0.751417 0
M  V30 6866 H 652.428 0.825813 1.63868 0
M  V30 6867 H 650.81 -0.451235 3.93421 0
M  V30 6868 H 651.984 2.40777 3.92891 0
M  V30 6869 H 650.299 2.03932 3.63044 0
M  V30 6870 H 652.896 -0.150745 5.34487 0
M  V30 6871 H 653.239 -1.19519 3.98774 0
M  V30 6872 H 653.772 0.503075 3.94606 0
M  V30 6873 H 650.511 2.7195 5.96426 0
M  V30 6874 H 650.031 1.00768 5.91275 0
M  V30 6875 H 651.71 1.45487 6.3043 0
M  V30 6876 N 651.842 -1.52309 0.404946 0
M  V30 6877 C 653.089 -2.01767 -0.1722 0
M  V30 6878 C 653.417 -1.29075 -1.45498 0
M  V30 6879 O 652.672 -0.3843 -1.9189 0
M  V30 6880 C 652.971 -3.54284 -0.470895 0
M  V30 6881 C 652.637 -4.45079 0.722194 0
M  V30 6882 C 651.299 -4.69617 1.04946 0
M  V30 6883 C 653.651 -4.98555 1.51962 0
M  V30 6884 C 650.979 -5.44878 2.17543 0
M  V30 6885 C 653.331 -5.75049 2.63632 0
M  V30 6886 C 651.995 -5.9786 2.9685 0
M  V30 6887 H 651.265 -0.738316 -0.0630125 0
M  V30 6888 H 653.912 -1.83566 0.545506 0
M  V30 6889 H 652.217 -3.70642 -1.27012 0
M  V30 6890 H 653.914 -3.90058 -0.930346 0
M  V30 6891 H 650.504 -4.26155 0.457131 0
M  V30 6892 H 654.688 -4.79509 1.28002 0
M  V30 6893 H 649.944 -5.60762 2.43631 0
M  V30 6894 H 654.118 -6.15483 3.25813 0
M  V30 6895 H 651.745 -6.5596 3.84215 0
M  V30 6896 N 653.32 -0.135238 -1.57019 0
M  V30 6897 C 654.25 0.805235 -2.19176 0
M  V30 6898 C 655.231 1.2656 -1.13651 0
M  V30 6899 O 656.416 1.32528 -1.4195 0
M  V30 6900 C 653.546 2.04914 -2.80406 0
M  V30 6901 C 652.5 1.72598 -3.91655 0
M  V30 6902 C 651.826 3.04154 -4.39766 0
M  V30 6903 C 653.126 0.981709 -5.12991 0
M  V30 6904 H 654.82 0.287232 -2.98019 0
M  V30 6905 H 652.366 0.136714 -1.4335 0
M  V30 6906 H 654.319 2.71178 -3.22553 0
M  V30 6907 H 653.043 2.59067 -1.98877 0
M  V30 6908 H 651.702 1.08717 -3.50109 0
M  V30 6909 H 651.35 3.56274 -3.55075 0
M  V30 6910 H 651.05 2.83299 -5.14796 0
M  V30 6911 H 652.574 3.71509 -4.84576 0
M  V30 6912 H 653.988 1.5462 -5.52056 0
M  V30 6913 H 652.385 0.873533 -5.93708 0
M  V30 6914 H 653.455 -0.0286887 -4.84892 0
M  V30 6915 N 654.798 1.5699 0.138552 0
M  V30 6916 C 656.028 1.87704 0.863184 0
M  V30 6917 C 656.436 0.722411 1.74865 0
M  V30 6918 O 655.779 -0.316636 1.80951 0
M  V30 6919 C 655.841 3.13219 1.76449 0
M  V30 6920 C 655.505 4.44648 1.05532 0
M  V30 6921 C 656.502 5.18318 0.405252 0
M  V30 6922 C 654.187 4.91367 1.04231 0
M  V30 6923 C 656.181 6.36916 -0.24835 0
M  V30 6924 C 653.868 6.09887 0.384904 0
M  V30 6925 C 654.866 6.82508 -0.259292 0
M  V30 6926 O 654.554 7.98775 -0.906258 0
M  V30 6927 H 654.286 0.626255 0.254521 0
M  V30 6928 H 656.84 2.04966 0.133472 0
M  V30 6929 H 655.07 2.91988 2.53535 0
M  V30 6930 H 656.759 3.30111 2.36181 0
M  V30 6931 H 657.525 4.83289 0.407053 0
M  V30 6932 H 653.404 4.34759 1.53315 0
M  V30 6933 H 656.948 6.93538 -0.751755 0
M  V30 6934 H 652.845 6.44376 0.380799 0
M  V30 6935 H 653.613 8.14494 -0.80877 0
M  V30 6936 N 656.276 -0.40816 1.52223 0
M  V30 6937 C 657.504 -1.17672 1.70179 0
M  V30 6938 C 657.919 -1.84257 0.411696 0
M  V30 6939 O 657.276 -1.7192 -0.612354 0
M  V30 6940 C 657.327 -2.23911 2.83806 0
M  V30 6941 O 657.048 -1.60044 4.0782 0
M  V30 6942 C 658.549 -3.1364 3.13281 0
M  V30 6943 H 655.769 -0.353562 0.570293 0
M  V30 6944 H 658.313 -0.480083 1.98785 0
M  V30 6945 H 656.468 -2.89242 2.57717 0
M  V30 6946 H 656.882 -2.30484 4.71145 0
M  V30 6947 H 658.356 -3.84255 3.96298 0
M  V30 6948 H 658.833 -3.76066 2.26872 0
M  V30 6949 H 659.439 -2.53977 3.41139 0
M  V30 6950 N 657.755 -1.42862 -0.66545 0
M  V30 6951 C 659.003 -1.43546 -1.42264 0
M  V30 6952 C 659.324 -0.0563116 -1.94919 0
M  V30 6953 O 658.594 0.906568 -1.73661 0
M  V30 6954 H 657.174 -0.528464 -0.527953 0
M  V30 6955 H 659.836 -1.78363 -0.785665 0
M  V30 6956 H 658.932 -2.14079 -2.27105 0
M  V30 6957 N 659.233 0.902656 -1.29189 0
M  V30 6958 C 660.143 2.03946 -1.15944 0
M  V30 6959 C 661.159 1.738 -0.0833803 0
M  V30 6960 O 662.335 1.9923 -0.29487 0
M  V30 6961 C 659.4 3.36519 -0.834006 0
M  V30 6962 C 658.461 3.80203 -1.9936 0
M  V30 6963 C 657.694 5.06449 -1.68359 0
M  V30 6964 O 657.917 5.67202 -0.603141 0
M  V30 6965 O 656.851 5.46114 -2.53067 0
M  V30 6966 H 660.677 2.18043 -2.11403 0
M  V30 6967 H 658.262 1.02584 -1.08613 0
M  V30 6968 H 660.144 4.16089 -0.666949 0
M  V30 6969 H 658.819 3.23573 0.0908245 0
M  V30 6970 H 657.726 3.01413 -2.21588 0
M  V30 6971 H 659.059 3.97729 -2.89952 0
M  V30 6972 N 660.711 1.11618 1.11262 0
M  V30 6973 C 661.641 0.79846 2.19424 0
M  V30 6974 C 662.622 -0.234003 1.68483 0
M  V30 6975 O 663.807 -0.0970704 1.93957 0
M  V30 6976 C 660.937 0.242892 3.4645 0
M  V30 6977 C 659.891 1.20744 4.10615 0
M  V30 6978 C 659.217 0.512494 5.32238 0
M  V30 6979 C 660.517 2.55884 4.55325 0
M  V30 6980 H 662.211 1.70286 2.46258 0
M  V30 6981 H 659.757 0.820195 1.18359 0
M  V30 6982 H 661.71 0.00840447 4.21399 0
M  V30 6983 H 660.434 -0.696811 3.1908 0
M  V30 6984 H 659.093 1.42759 3.37662 0
M  V30 6985 H 658.741 -0.432075 5.01141 0
M  V30 6986 H 658.441 1.15583 5.7612 0
M  V30 6987 H 659.965 0.286842 6.09926 0
M  V30 6988 H 661.379 2.37946 5.21588 0
M  V30 6989 H 659.776 3.16216 5.10027 0
M  V30 6990 H 660.846 3.14968 3.68678 0
M  V30 6991 N 662.189 -1.289 0.906776 0
M  V30 6992 C 663.419 -1.99112 0.551168 0
M  V30 6993 C 663.827 -1.67998 -0.870243 0
M  V30 6994 O 663.17 -0.92525 -1.58697 0
M  V30 6995 C 663.232 -3.53162 0.672065 0
M  V30 6996 C 662.896 -4.07849 2.06174 0
M  V30 6997 C 663.893 -4.22212 3.0337 0
M  V30 6998 C 661.578 -4.4271 2.37304 0
M  V30 6999 C 663.572 -4.70678 4.29815 0
M  V30 7000 C 661.259 -4.90871 3.6399 0
M  V30 7001 C 662.257 -5.04811 4.6006 0
M  V30 7002 O 661.945 -5.51925 5.84495 0
M  V30 7003 H 661.677 -0.642728 0.209469 0
M  V30 7004 H 664.231 -1.65234 1.22012 0
M  V30 7005 H 662.461 -3.86662 -0.05394 0
M  V30 7006 H 664.15 -4.046 0.324579 0
M  V30 7007 H 664.916 -3.9556 2.80637 0
M  V30 7008 H 660.795 -4.31114 1.63283 0
M  V30 7009 H 664.339 -4.81474 5.04806 0
M  V30 7010 H 660.236 -5.16961 3.86551 0
M  V30 7011 H 661.004 -5.70225 5.87185 0
M  V30 7012 N 663.667 -0.670007 -1.42649 0
M  V30 7013 C 665.078 -0.268118 -1.84765 0
M  V30 7014 C 665.429 1.18877 -1.56086 0
M  V30 7015 O 664.554 1.90947 -1.01825 0
M  V30 7016 C 665.149 -0.47984 -3.35385 0
M  V30 7017 C 663.708 -0.132116 -3.76168 0
M  V30 7018 C 662.855 -0.774611 -2.66261 0
M  V30 7019 H 665.806 -0.872509 -1.32563 0
M  V30 7020 H 665.827 0.269522 -3.79544 0
M  V30 7021 H 665.339 -1.54026 -3.56227 0
M  V30 7022 H 663.44 0.92505 -3.60934 0
M  V30 7023 H 663.553 -0.569294 -4.75706 0
M  V30 7024 H 661.917 -0.206353 -2.53863 0
M  V30 7025 H 662.7 -1.83839 -2.89928 0
M  V30 7026 N 665.145 1.52092 -0.413018 0
M  V30 7027 C 666.373 2.06274 0.160881 0
M  V30 7028 C 666.788 1.28273 1.38533 0
M  V30 7029 O 666.145 0.33563 1.79387 0
M  V30 7030 C 666.196 3.57921 0.507443 0
M  V30 7031 O 665.917 4.32971 -0.668388 0
M  V30 7032 C 667.418 4.28533 1.13465 0
M  V30 7033 H 664.638 0.67074 0.0186759 0
M  V30 7034 H 667.182 1.95951 -0.585092 0
M  V30 7035 H 665.337 3.68238 1.20331 0
M  V30 7036 H 665.751 5.23135 -0.378169 0
M  V30 7037 H 667.225 5.35804 1.32732 0
M  V30 7038 H 667.702 3.85258 2.10886 0
M  V30 7039 H 668.308 4.22595 0.478876 0
M  V30 7040 N 666.623 0.143563 1.56945 0
M  V30 7041 C 667.556 -0.835367 2.1236 0
M  V30 7042 C 668.534 -1.24466 1.04627 0
M  V30 7043 O 669.718 -1.34138 1.32436 0
M  V30 7044 C 666.845 -2.12123 2.64048 0
M  V30 7045 C 665.891 -1.85812 3.83896 0
M  V30 7046 S 666.724 -1.05222 5.25061 0
M  V30 7047 C 667.88 -2.34935 5.80135 0
M  V30 7048 H 668.113 -0.364109 2.95062 0
M  V30 7049 H 665.646 -0.0706601 1.54238 0
M  V30 7050 H 667.604 -2.85993 2.94479 0
M  V30 7051 H 666.265 -2.56364 1.81483 0
M  V30 7052 H 665.458 -2.81151 4.18294 0
M  V30 7053 H 665.06 -1.20052 3.54208 0
M  V30 7054 H 667.352 -3.3061 5.91357 0
M  V30 7055 H 668.295 -2.05046 6.77762 0
M  V30 7056 H 668.703 -2.45426 5.08356 0
M  V30 7057 N 668.101 -1.57061 -0.130224 0
M  V30 7058 C 669.35 -1.83446 -0.838488 0
M  V30 7059 C 669.663 -0.727468 -1.81569 0
M  V30 7060 O 670.869 -0.877394 -2.56932 0
M  V30 7061 C 669.325 -3.25201 -1.54182 0
M  V30 7062 C 668.933 -4.4388 -0.606178 0
M  V30 7063 C 670.677 -3.60844 -2.23588 0
M  V30 7064 C 668.584 -5.76661 -1.31209 0
M  V30 7065 H 667.514 -0.684185 -0.316871 0
M  V30 7066 H 670.165 -1.83273 -0.0912059 0
M  V30 7067 H 668.547 -3.1981 -2.33533 0
M  V30 7068 H 669.721 -4.60545 0.153308 0
M  V30 7069 H 668.036 -4.16395 -0.0196705 0
M  V30 7070 H 670.633 -4.57313 -2.77072 0
M  V30 7071 H 670.976 -2.87724 -3.00867 0
M  V30 7072 H 671.509 -3.67971 -1.51137 0
M  V30 7073 H 668.248 -6.52922 -0.580823 0
M  V30 7074 H 667.768 -5.63902 -2.04387 0
M  V30 7075 H 669.447 -6.20035 -1.8484 0
M  V30 7076 N 669.579 0.400081 -1.52437 0
M  V30 7077 C 670.995 0.739359 -1.41441 0
M  V30 7078 C 671.195 1.94512 -0.526053 0
M  V30 7079 O 670.251 2.525 0.00472502 0
M  V30 7080 C 671.564 0.984824 -2.84116 0
M  V30 7081 C 673.112 1.08698 -2.93519 0
M  V30 7082 C 673.587 1.36515 -4.37181 0
M  V30 7083 N 675.078 1.43361 -4.40457 0
M  V30 7084 C 675.813 1.66528 -5.48686 0
M  V30 7085 N 675.309 1.87239 -6.67018 0
M  V30 7086 N 677.102 1.68617 -5.36213 0
M  V30 7087 H 669.253 -0.393484 -2.08723 0
M  V30 7088 H 671.516 -0.1138 -0.941145 0
M  V30 7089 H 671.222 0.171096 -3.51284 0
M  V30 7090 H 671.096 1.90253 -3.25705 0
M  V30 7091 H 673.483 1.89129 -2.26526 0
M  V30 7092 H 673.564 0.147432 -2.55375 0
M  V30 7093 H 673.208 0.565982 -5.04737 0
M  V30 7094 H 673.138 2.31737 -4.7287 0
M  V30 7095 H 675.629 1.29108 -3.55161 0
M  V30 7096 H 675.942 2.04392 -7.45281 0
M  V30 7097 H 674.287 1.84486 -6.70067 0
M  V30 7098 H 677.478 1.5198 -4.42741 0
M  V30 7099 H 677.651 1.86332 -6.20632 0
M  V30 7100 N 671.057 1.43213 0.657864 0
M  V30 7101 C 671.989 1.43974 1.78337 0
M  V30 7102 C 673.002 0.336482 1.59285 0
M  V30 7103 O 674.191 0.600631 1.68091 0
M  V30 7104 C 671.291 1.23242 3.15697 0
M  V30 7105 C 670.464 2.46319 3.61449 0
M  V30 7106 C 669.523 2.2088 4.77597 0
M  V30 7107 O 668.549 2.942 4.87273 0
M  V30 7108 N 669.751 1.22251 5.67481 0
M  V30 7109 H 672.516 2.40993 1.78164 0
M  V30 7110 H 670.077 1.3831 0.841549 0
M  V30 7111 H 672.069 1.04113 3.91079 0
M  V30 7112 H 670.639 0.346849 3.1067 0
M  V30 7113 H 669.859 2.80904 2.76563 0
M  V30 7114 H 671.147 3.28239 3.88763 0
M  V30 7115 H 670.545 0.616433 5.62331 0
M  V30 7116 H 669.102 1.09107 6.42603 0
M  V30 7117 N 672.536 -0.895792 1.29666 0
M  V30 7118 C 673.764 -1.68001 1.20761 0
M  V30 7119 C 674.179 -1.87379 -0.231187 0
M  V30 7120 O 673.536 -1.41359 -1.15429 0
M  V30 7121 C 673.587 -3.06236 1.92098 0
M  V30 7122 O 673.308 -2.8774 3.30359 0
M  V30 7123 C 674.809 -4.00652 1.89717 0
M  V30 7124 H 672.029 -0.524591 0.418384 0
M  V30 7125 H 674.573 -1.11995 1.71106 0
M  V30 7126 H 672.728 -3.59007 1.45578 0
M  V30 7127 H 673.142 -3.75359 3.66342 0
M  V30 7128 H 674.616 -4.95051 2.44189 0
M  V30 7129 H 675.093 -4.30424 0.873595 0
M  V30 7130 H 675.699 -3.53815 2.35998 0
M  V30 7131 N 674.014 -1.12206 -1.10668 0
M  V30 7132 C 675.262 -0.874144 -1.82217 0
M  V30 7133 C 675.583 0.601736 -1.85484 0
M  V30 7134 O 674.853 1.43725 -1.33116 0
M  V30 7135 H 673.433 -0.320404 -0.674797 0
M  V30 7136 H 676.095 -1.41606 -1.33917 0
M  V30 7137 H 675.191 -1.25349 -2.85822 0
M  V30 7138 N 675.492 1.28418 -0.913599 0
M  V30 7139 C 676.425 2.25557 -0.346328 0
M  V30 7140 C 677.403 1.53038 0.549366 0
M  V30 7141 O 678.587 1.81937 0.493055 0
M  V30 7142 C 675.714 3.34915 0.504961 0
M  V30 7143 C 674.76 4.25257 -0.325334 0
M  V30 7144 S 675.593 5.06718 -1.73198 0
M  V30 7145 C 676.749 6.19569 -0.887988 0
M  V30 7146 H 676.982 2.73325 -1.16965 0
M  V30 7147 H 674.515 1.36855 -0.714841 0
M  V30 7148 H 676.473 3.98376 0.990301 0
M  V30 7149 H 675.134 2.85814 1.30267 0
M  V30 7150 H 674.327 5.02947 0.325589 0
M  V30 7151 H 673.929 3.66519 -0.744321 0
M  V30 7152 H 676.221 6.77398 -0.117568 0
M  V30 7153 H 677.164 6.88908 -1.63742 0
M  V30 7154 H 677.572 5.62812 -0.436228 0
M  V30 7155 N 676.97 0.677563 1.42291 0
M  V30 7156 C 678.218 0.200578 2.01102 0
M  V30 7157 C 678.539 -1.19803 1.53858 0
M  V30 7158 O 677.809 -1.80496 0.761439 0
M  V30 7159 H 676.389 0.0711634 0.743603 0
M  V30 7160 H 679.051 0.874691 1.7417 0
M  V30 7161 H 678.147 0.204 3.11433 0
M  V30 7162 N 678.448 -1.51871 0.421078 0
M  V30 7163 C 679.381 -2.23851 -0.443369 0
M  V30 7164 C 680.359 -1.25142 -1.03818 0
M  V30 7165 O 681.543 -1.5423 -1.08377 0
M  V30 7166 C 678.67 -2.97637 -1.61648 0
M  V30 7167 C 677.716 -4.10873 -1.14391 0
M  V30 7168 S 678.549 -5.35408 -0.0992403 0
M  V30 7169 C 679.705 -6.12726 -1.27739 0
M  V30 7170 H 679.938 -2.96826 0.167786 0
M  V30 7171 H 677.471 -1.53027 0.205461 0
M  V30 7172 H 679.429 -3.40751 -2.28909 0
M  V30 7173 H 678.09 -2.24282 -2.199 0
M  V30 7174 H 677.283 -4.61718 -2.02069 0
M  V30 7175 H 676.885 -3.69937 -0.549775 0
M  V30 7176 H 679.177 -6.40827 -2.19881 0
M  V30 7177 H 680.12 -7.03461 -0.809239 0
M  V30 7178 H 680.528 -5.43968 -1.5086 0
M  V30 7179 N 679.926 -0.151884 -1.56866 0
M  V30 7180 C 681.174 0.497021 -1.95893 0
M  V30 7181 C 681.495 1.65078 -1.03799 0
M  V30 7182 O 680.765 1.95642 -0.10049 0
M  V30 7183 H 679.345 0.186603 -0.723318 0
M  V30 7184 H 682.007 -0.228525 -1.93556 0
M  V30 7185 H 681.103 0.869933 -2.99731 0
M  V30 7186 N 681.404 1.57128 0.121893 0
M  V30 7187 C 682.629 1.89254 0.848385 0
M  V30 7188 C 683.054 0.743527 1.72781 0
M  V30 7189 O 682.412 -0.306056 1.78698 0
M  V30 7190 C 682.46 3.20113 1.66012 0
M  V30 7191 O 681.564 3.05815 2.76679 0
M  V30 7192 H 680.905 0.621103 0.234793 0
M  V30 7193 H 683.435 2.0433 0.10516 0
M  V30 7194 H 683.445 3.52761 2.04996 0
M  V30 7195 H 682.12 4.03336 1.01452 0
M  V30 7196 H 680.697 2.84627 2.40918 0
M  V30 7197 N 682.882 -0.391992 1.52647 0
M  V30 7198 C 684.11 -1.1586 1.71418 0
M  V30 7199 C 684.525 -1.8381 0.431216 0
M  V30 7200 O 683.882 -1.7256 -0.594085 0
M  V30 7201 C 683.933 -2.20888 2.86165 0
M  V30 7202 O 683.654 -1.5571 4.09495 0
M  V30 7203 C 685.155 -3.103 3.1659 0
M  V30 7204 H 682.375 -0.347494 0.574011 0
M  V30 7205 H 684.919 -0.458972 1.99283 0
M  V30 7206 H 683.074 -2.86492 2.6077 0
M  V30 7207 H 683.488 -2.25474 4.73563 0
M  V30 7208 H 684.962 -3.8003 4.00351 0
M  V30 7209 H 685.439 -3.73639 2.30848 0
M  V30 7210 H 686.045 -2.50345 3.43813 0
M  V30 7211 N 684.36 -1.4356 -0.65026 0
M  V30 7212 C 685.293 -1.434 -1.77515 0
M  V30 7213 C 686.271 -0.295082 -1.599 0
M  V30 7214 O 687.455 -0.489128 -1.82043 0
M  V30 7215 C 684.582 -1.2484 -3.14853 0
M  V30 7216 C 683.628 -2.42046 -3.51163 0
M  V30 7217 S 684.461 -4.04595 -3.50803 0
M  V30 7218 C 685.617 -3.88424 -4.90793 0
M  V30 7219 H 685.85 -2.38586 -1.77381 0
M  V30 7220 H 683.383 -1.30627 -0.823169 0
M  V30 7221 H 685.341 -1.14819 -3.94115 0
M  V30 7222 H 684.002 -0.311977 -3.12547 0
M  V30 7223 H 683.195 -2.24873 -4.51052 0
M  V30 7224 H 682.797 -2.48708 -2.79321 0
M  V30 7225 H 685.089 -3.50932 -5.79528 0
M  V30 7226 H 686.032 -4.88076 -5.13018 0
M  V30 7227 H 686.44 -3.20829 -4.64467 0
M  V30 7228 N 685.838 0.888903 -1.30139 0
M  V30 7229 C 686.801 1.97576 -1.16174 0
M  V30 7230 C 687.801 1.60525 -0.094086 0
M  V30 7231 O 688.991 1.70812 -0.341889 0
M  V30 7232 C 686.123 3.3188 -0.778983 0
M  V30 7233 H 687.316 2.11393 -2.12728 0
M  V30 7234 H 684.869 1.0748 -1.1348 0
M  V30 7235 H 685.604 3.23765 0.186225 0
M  V30 7236 H 685.389 3.60141 -1.55051 0
M  V30 7237 H 686.879 4.11612 -0.704631 0
M  V30 7238 N 687.317 1.12792 1.10072 0
M  V30 7239 C 688.733 0.864745 1.34143 0
M  V30 7240 C 688.933 -0.503201 1.95116 0
M  V30 7241 O 687.989 -1.25111 2.19325 0
M  V30 7242 C 689.302 1.98413 2.25949 0
M  V30 7243 C 690.85 2.01545 2.39476 0
M  V30 7244 C 691.325 3.12727 3.34613 0
M  V30 7245 N 692.816 3.12194 3.42183 0
M  V30 7246 C 693.551 3.94862 4.15779 0
M  V30 7247 N 693.047 4.87528 4.92228 0
M  V30 7248 N 694.84 3.82985 4.11435 0
M  V30 7249 H 686.991 2.00926 0.68866 0
M  V30 7250 H 689.254 0.874564 0.365844 0
M  V30 7251 H 688.96 2.97005 1.88364 0
M  V30 7252 H 688.834 1.89254 3.26287 0
M  V30 7253 H 691.221 1.0357 2.76328 0
M  V30 7254 H 691.302 2.14777 1.3894 0
M  V30 7255 H 690.946 4.10936 2.98486 0
M  V30 7256 H 690.876 2.96732 4.35037 0
M  V30 7257 H 693.367 2.45065 2.87666 0
M  V30 7258 H 693.68 5.47109 5.45794 0
M  V30 7259 H 692.025 4.91539 4.9134 0
M  V30 7260 H 695.216 3.09923 3.50807 0
M  V30 7261 H 695.389 4.47641 4.68531 0
M  V30 7262 N 688.795 -1.27931 0.920396 0
M  V30 7263 C 690.041 -1.94977 0.557832 0
M  V30 7264 C 690.374 -1.72224 -0.897365 0
M  V30 7265 O 689.649 -1.04705 -1.63912 0
M  V30 7266 C 689.932 -3.49289 0.875741 0
M  V30 7267 C 689.785 -3.81416 2.38416 0
M  V30 7268 C 691.104 -4.38486 0.376517 0
M  V30 7269 H 688.223 -0.708164 0.20414 0
M  V30 7270 H 690.865 -1.5118 1.15085 0
M  V30 7271 H 689.015 -3.86724 0.371062 0
M  V30 7272 H 690.687 -3.53813 2.95997 0
M  V30 7273 H 688.93 -3.28225 2.83639 0
M  V30 7274 H 689.601 -4.89198 2.55713 0
M  V30 7275 H 692.077 -4.08161 0.808945 0
M  V30 7276 H 690.953 -5.45296 0.627976 0
M  V30 7277 H 691.214 -4.36143 -0.723293 0
M  V30 7278 N 690.273 -0.685099 -1.4193 0
M  V30 7279 C 691.521 -0.21124 -2.00993 0
M  V30 7280 C 691.842 1.18985 -1.54491 0
M  V30 7281 O 691.112 1.8009 -0.771 0
M  V30 7282 H 689.692 -0.0751059 -0.743215 0
M  V30 7283 H 692.354 -0.883915 -1.73704 0
M  V30 7284 H 691.45 -0.220513 -3.1132 0
M  V30 7285 N 691.751 1.51645 -0.429126 0
M  V30 7286 C 692.976 2.06917 0.141399 0
M  V30 7287 C 693.401 1.29527 1.36398 0
M  V30 7288 O 692.759 0.33094 1.78254 0
M  V30 7289 C 692.807 3.57776 0.4504 0
M  V30 7290 O 691.911 3.82639 1.53821 0
M  V30 7291 H 691.252 0.663978 0.0054647 0
M  V30 7292 H 693.782 1.95355 -0.608093 0
M  V30 7293 H 693.792 4.01894 0.703249 0
M  V30 7294 H 692.467 4.13532 -0.443213 0
M  V30 7295 H 691.044 3.5039 1.27597 0
M  V30 7296 N 693.229 0.160201 1.56784 0
M  V30 7297 C 694.478 -0.487619 1.95717 0
M  V30 7298 C 694.791 -1.65136 1.0483 0
M  V30 7299 O 695.997 -2.36468 1.33398 0
M  V30 7300 C 694.453 -0.91888 3.47972 0
M  V30 7301 C 694.061 0.218655 4.47466 0
M  V30 7302 C 695.805 -1.53575 3.95746 0
M  V30 7303 C 693.712 -0.231614 5.90946 0
M  V30 7304 H 692.642 -0.185939 0.730714 0
M  V30 7305 H 695.293 0.246657 1.81835 0
M  V30 7306 H 693.675 -1.70881 3.57234 0
M  V30 7307 H 694.849 0.995825 4.49911 0
M  V30 7308 H 693.164 0.744767 4.09685 0
M  V30 7309 H 695.761 -1.88448 5.00391 0
M  V30 7310 H 696.104 -2.42959 3.38048 0
M  V30 7311 H 696.637 -0.810467 3.89456 0
M  V30 7312 H 693.376 0.62718 6.52493 0
M  V30 7313 H 692.896 -0.974379 5.91833 0
M  V30 7314 H 694.575 -0.67922 6.43425 0
M  V30 7315 N 694.707 -1.5719 -0.113559 0
M  V30 7316 C 695.953 -1.85412 -0.821597 0
M  V30 7317 C 696.286 -0.746722 -1.7927 0
M  V30 7318 O 695.561 0.246971 -1.92926 0
M  V30 7319 C 695.844 -3.24233 -1.56669 0
M  V30 7320 C 695.697 -4.45578 -0.614823 0
M  V30 7321 C 697.016 -3.60697 -2.52161 0
M  V30 7322 H 694.135 -0.674406 -0.29723 0
M  V30 7323 H 696.777 -1.89807 -0.085694 0
M  V30 7324 H 694.927 -3.20617 -2.19401 0
M  V30 7325 H 696.599 -4.613 0.00407137 0
M  V30 7326 H 694.842 -4.33738 0.0732332 0
M  V30 7327 H 695.513 -5.39395 -1.17292 0
M  V30 7328 H 697.989 -3.65139 -1.99532 0
M  V30 7329 H 696.865 -4.58798 -3.01323 0
M  V30 7330 H 697.126 -2.88403 -3.35076 0
M  V30 7331 N 696.185 0.383891 -1.52853 0
M  V30 7332 C 697.41 1.154 -1.7233 0
M  V30 7333 C 697.835 1.82809 -0.44298 0
M  V30 7334 O 697.193 1.71026 0.601645 0
M  V30 7335 C 697.241 2.17386 -2.87708 0
M  V30 7336 O 696.345 3.24082 -2.55038 0
M  V30 7337 H 695.686 0.335709 -0.572883 0
M  V30 7338 H 698.216 0.44662 -1.99666 0
M  V30 7339 H 698.226 2.61296 -3.1335 0
M  V30 7340 H 696.901 1.6771 -3.80587 0
M  V30 7341 H 695.478 2.85273 -2.40153 0
M  V30 7342 N 697.663 1.43903 0.642637 0
M  V30 7343 C 699.074 1.40975 1.22404 0
M  V30 7344 C 699.425 0.1192 1.95838 0
M  V30 7345 O 698.55 -0.780939 2.01818 0
M  V30 7346 C 699.145 2.5538 2.22636 0
M  V30 7347 C 697.704 2.55684 2.76229 0
M  V30 7348 C 696.851 2.32556 1.51039 0
M  V30 7349 H 699.802 1.5265 0.434006 0
M  V30 7350 H 699.823 2.27474 3.05017 0
M  V30 7351 H 699.335 3.49294 1.69161 0
M  V30 7352 H 697.436 1.65679 3.33738 0
M  V30 7353 H 697.549 3.53799 3.23053 0
M  V30 7354 H 695.913 1.81427 1.78764 0
M  V30 7355 H 696.696 3.28569 0.99484 0
M  V30 7356 N 699.141 -0.881989 1.30609 0
M  V30 7357 C 700.071 -2.00413 1.1982 0
M  V30 7358 C 701.052 -1.69871 0.0881538 0
M  V30 7359 O 702.237 -1.92304 0.2707 0
M  V30 7360 C 699.367 -3.35641 0.89233 0
M  V30 7361 C 698.321 -3.80451 1.96064 0
M  V30 7362 C 697.647 -5.13003 1.5077 0
M  V30 7363 C 698.947 -3.98855 3.37213 0
M  V30 7364 H 700.641 -2.09698 2.13699 0
M  V30 7365 H 698.187 -1.00754 1.02882 0
M  V30 7366 H 700.14 -4.13669 0.803497 0
M  V30 7367 H 698.864 -3.26497 -0.0821381 0
M  V30 7368 H 697.523 -3.04654 2.03916 0
M  V30 7369 H 697.171 -5.0029 0.521417 0
M  V30 7370 H 696.871 -5.43956 2.22229 0
M  V30 7371 H 698.395 -5.93554 1.43271 0
M  V30 7372 H 699.809 -4.67312 3.32103 0
M  V30 7373 H 698.206 -4.41188 4.06784 0
M  V30 7374 H 699.276 -3.02614 3.78883 0
M  V30 7375 N 700.619 -1.13374 -1.09472 0
M  V30 7376 C 701.865 -0.896516 -1.81908 0
M  V30 7377 C 702.198 0.575933 -1.85463 0
M  V30 7378 O 701.473 1.42618 -1.32251 0
M  V30 7379 C 701.756 -1.48445 -3.28079 0
M  V30 7380 C 701.609 -3.02598 -3.32798 0
M  V30 7381 C 702.928 -1.15226 -4.24748 0
M  V30 7382 H 700.047 -0.327127 -0.660422 0
M  V30 7383 H 702.689 -1.40195 -1.2824 0
M  V30 7384 H 700.839 -1.0546 -3.73912 0
M  V30 7385 H 702.511 -3.54335 -2.95372 0
M  V30 7386 H 700.754 -3.37613 -2.72397 0
M  V30 7387 H 701.425 -3.38835 -4.3577 0
M  V30 7388 H 703.901 -1.52369 -3.87199 0
M  V30 7389 H 702.777 -1.59012 -5.25363 0
M  V30 7390 H 703.038 -0.0658891 -4.42051 0
M  V30 7391 N 702.098 1.27442 -0.927168 0
M  V30 7392 C 703.323 1.99036 -0.583042 0
M  V30 7393 C 703.748 1.68711 0.83176 0
M  V30 7394 O 703.106 0.927081 1.55804 0
M  V30 7395 C 703.154 3.51271 -0.814925 0
M  V30 7396 O 702.258 4.12226 0.119742 0
M  V30 7397 H 701.599 0.624883 -0.224538 0
M  V30 7398 H 704.129 1.62263 -1.24628 0
M  V30 7399 H 704.139 4.01411 -0.730282 0
M  V30 7400 H 702.814 3.72676 -1.84623 0
M  V30 7401 H 701.391 3.72897 -0.0147688 0
M  V30 7402 N 703.576 0.692616 1.41565 0
M  V30 7403 C 704.509 -0.025063 2.28186 0
M  V30 7404 C 705.487 -0.790912 1.42068 0
M  V30 7405 O 706.671 -0.782344 1.71498 0
M  V30 7406 C 703.798 -1.04285 3.22246 0
M  V30 7407 C 702.844 -0.370515 4.24888 0
M  V30 7408 S 703.677 0.884942 5.28137 0
M  V30 7409 C 704.833 -0.131324 6.25762 0
M  V30 7410 H 705.066 0.709626 2.88707 0
M  V30 7411 H 702.599 0.482783 1.46658 0
M  V30 7412 H 704.557 -1.62493 3.7697 0
M  V30 7413 H 703.218 -1.7501 2.60827 0
M  V30 7414 H 702.411 -1.13911 4.90959 0
M  V30 7415 H 702.013 0.138411 3.73744 0
M  V30 7416 H 704.305 -0.985527 6.70294 0
M  V30 7417 H 705.248 0.495384 7.06365 0
M  V30 7418 H 705.656 -0.484777 5.62415 0
M  V30 7419 N 705.054 -1.51416 0.437162 0
M  V30 7420 C 706.282 -2.06503 -0.128045 0
M  V30 7421 C 706.697 -1.30461 -1.36475 0
M  V30 7422 O 706.054 -0.364127 -1.78831 0
M  V30 7423 C 706.105 -3.58683 -0.450437 0
M  V30 7424 O 705.826 -4.31853 0.737186 0
M  V30 7425 C 707.327 -4.30284 -1.06633 0
M  V30 7426 H 704.547 -0.670952 -0.00800269 0
M  V30 7427 H 707.091 -1.94996 0.616193 0
M  V30 7428 H 705.246 -3.70106 -1.14457 0
M  V30 7429 H 705.66 -5.22467 0.461347 0
M  V30 7430 H 707.134 -5.37848 -1.24191 0
M  V30 7431 H 707.611 -3.88564 -2.0473 0
M  V30 7432 H 708.217 -4.23304 -0.411585 0
M  V30 7433 N 706.532 -0.168513 -1.56696 0
M  V30 7434 C 707.495 0.748928 -2.16619 0
M  V30 7435 C 708.495 1.16007 -1.11351 0
M  V30 7436 O 709.685 1.07748 -1.3688 0
M  V30 7437 C 706.817 2.01904 -2.74677 0
M  V30 7438 H 708.01 0.227317 -2.99037 0
M  V30 7439 H 705.563 0.0810372 -1.5609 0
M  V30 7440 H 706.298 2.58381 -1.95985 0
M  V30 7441 H 706.083 1.73323 -3.51712 0
M  V30 7442 H 707.573 2.67383 -3.20774 0
M  V30 7443 N 708.01 1.57248 0.105221 0
M  V30 7444 C 708.92 2.04653 1.14693 0
M  V30 7445 C 709.936 0.969488 1.44489 0
M  V30 7446 O 711.112 1.28196 1.55331 0
M  V30 7447 C 708.177 2.45297 2.45011 0
M  V30 7448 C 707.238 3.67148 2.22489 0
M  V30 7449 C 706.471 4.05844 3.46592 0
M  V30 7450 O 706.694 3.44736 4.54437 0
M  V30 7451 O 705.628 4.98862 3.36779 0
M  V30 7452 H 709.454 2.93663 0.774336 0
M  V30 7453 H 707.039 1.45998 0.31701 0
M  V30 7454 H 708.921 2.72112 3.21766 0
M  V30 7455 H 707.596 1.59429 2.81717 0
M  V30 7456 H 706.503 3.45463 1.43547 0
M  V30 7457 H 707.836 4.53764 1.9068 0
M  V30 7458 N 709.488 -0.375779 1.53054 0
M  V30 7459 C 710.418 -1.46598 1.81745 0
M  V30 7460 C 711.399 -1.56337 0.670286 0
M  V30 7461 O 712.584 -1.71071 0.919158 0
M  V30 7462 C 709.714 -2.84058 1.99821 0
M  V30 7463 C 708.668 -2.8915 3.15557 0
M  V30 7464 C 707.994 -4.29187 3.18908 0
M  V30 7465 C 709.294 -2.57595 4.54359 0
M  V30 7466 H 710.988 -1.22837 2.73041 0
M  V30 7467 H 708.534 -0.589485 1.31381 0
M  V30 7468 H 710.487 -3.60342 2.18475 0
M  V30 7469 H 709.211 -3.09184 1.05226 0
M  V30 7470 H 707.87 -2.15316 2.96706 0
M  V30 7471 H 707.518 -4.51374 2.2197 0
M  V30 7472 H 707.218 -4.33512 3.96662 0
M  V30 7473 H 708.742 -5.07359 3.39734 0
M  V30 7474 H 710.156 -3.23595 4.73243 0
M  V30 7475 H 708.553 -2.73252 5.34279 0
M  V30 7476 H 709.623 -1.52882 4.60169 0
M  V30 7477 N 710.966 -1.44241 -0.634997 0
M  V30 7478 C 712.196 -1.50078 -1.41987 0
M  V30 7479 C 712.604 -0.123072 -1.88799 0
M  V30 7480 O 711.947 0.880552 -1.6122 0
M  V30 7481 C 712.009 -2.40033 -2.67628 0
M  V30 7482 C 711.673 -3.87268 -2.42637 0
M  V30 7483 C 712.67 -4.77902 -2.04708 0
M  V30 7484 C 710.355 -4.31933 -2.56396 0
M  V30 7485 C 712.349 -6.11202 -1.80862 0
M  V30 7486 C 710.036 -5.65281 -2.32164 0
M  V30 7487 C 711.034 -6.54734 -1.94455 0
M  V30 7488 O 710.722 -7.85613 -1.7049 0
M  V30 7489 H 710.454 -0.51146 -0.442023 0
M  V30 7490 H 713.008 -1.89843 -0.784138 0
M  V30 7491 H 711.238 -1.95188 -3.33824 0
M  V30 7492 H 712.927 -2.36863 -3.29622 0
M  V30 7493 H 713.693 -4.44668 -1.93638 0
M  V30 7494 H 709.572 -3.62569 -2.84719 0
M  V30 7495 H 713.116 -6.80983 -1.51353 0
M  V30 7496 H 709.013 -5.98078 -2.42843 0
M  V30 7497 H 709.781 -7.97373 -1.84767 0
M  V30 7498 N 712.444 0.87505 -1.31075 0
M  V30 7499 C 713.855 1.4433 -1.18431 0
M  V30 7500 C 714.206 1.9506 0.211189 0
M  V30 7501 O 713.331 1.85847 1.10859 0
M  V30 7502 C 713.926 2.62341 -2.14389 0
M  V30 7503 C 712.485 3.15225 -2.05694 0
M  V30 7504 C 711.632 1.87929 -2.03907 0
M  V30 7505 H 714.583 0.684061 -1.432 0
M  V30 7506 H 714.604 3.3887 -1.73053 0
M  V30 7507 H 714.116 2.25388 -3.15946 0
M  V30 7508 H 712.217 3.56812 -1.07314 0
M  V30 7509 H 712.33 3.77853 -2.94558 0
M  V30 7510 H 710.694 2.06679 -1.48849 0
M  V30 7511 H 711.477 1.53221 -3.07211 0
M  V30 7512 N 713.922 1.13953 1.08869 0
M  V30 7513 C 715.147 0.928559 1.85452 0
M  V30 7514 C 715.572 -0.517642 1.80837 0
M  V30 7515 O 714.93 -1.36779 1.19001 0
M  V30 7516 C 714.978 1.42814 3.31114 0
M  V30 7517 O 714.082 0.617129 4.07756 0
M  V30 7518 H 713.423 0.33235 0.574839 0
M  V30 7519 H 715.953 1.5156 1.37443 0
M  V30 7520 H 715.963 1.43425 3.8196 0
M  V30 7521 H 714.638 2.48109 3.33788 0
M  V30 7522 H 713.215 0.679365 3.66659 0
M  V30 7523 N 715.4 -1.26948 0.933913 0
M  V30 7524 C 716.333 -2.24977 0.382169 0
M  V30 7525 C 717.311 -1.53893 -0.524949 0
M  V30 7526 O 718.495 -1.82699 -0.464048 0
M  V30 7527 C 715.622 -3.35676 -0.451615 0
M  V30 7528 C 714.668 -4.24686 0.392947 0
M  V30 7529 S 715.501 -5.03898 1.81237 0
M  V30 7530 C 716.657 -6.18078 0.986443 0
M  V30 7531 H 716.89 -2.71429 1.21299 0
M  V30 7532 H 714.423 -1.35701 0.736523 0
M  V30 7533 H 716.381 -3.99901 -0.926797 0
M  V30 7534 H 715.042 -2.8785 -1.25703 0
M  V30 7535 H 714.235 -5.03402 -0.245533 0
M  V30 7536 H 713.837 -3.65288 0.802537 0
M  V30 7537 H 716.129 -6.77125 0.225321 0
M  V30 7538 H 717.072 -6.86216 1.74682 0
M  V30 7539 H 717.48 -5.62047 0.525711 0
M  V30 7540 N 716.879 -0.700114 -1.41195 0
M  V30 7541 C 718.29 -0.307249 -1.84154 0
M  V30 7542 C 718.641 1.15539 -1.58572 0
M  V30 7543 O 717.766 1.88744 -1.05852 0
M  V30 7544 C 718.361 -0.550872 -3.34292 0
M  V30 7545 C 716.92 -0.211877 -3.75803 0
M  V30 7546 C 716.067 -0.830915 -2.64558 0
M  V30 7547 H 719.018 -0.900431 -1.30683 0
M  V30 7548 H 719.039 0.188954 -3.80031 0
M  V30 7549 H 718.551 -1.61548 -3.5288 0
M  V30 7550 H 716.652 0.848283 -3.62815 0
M  V30 7551 H 716.765 -0.67007 -4.74391 0
M  V30 7552 H 715.129 -0.260155 -2.53368 0
M  V30 7553 H 715.912 -1.89948 -2.85963 0
M  V30 7554 N 718.357 1.51182 -0.445186 0
M  V30 7555 C 719.287 2.30821 0.352686 0
M  V30 7556 C 720.268 1.36576 1.01395 0
M  V30 7557 O 721.453 1.65497 1.01609 0
M  V30 7558 C 718.583 3.15593 1.44976 0
M  V30 7559 C 717.537 4.1818 0.911553 0
M  V30 7560 C 716.863 4.91523 2.10497 0
M  V30 7561 C 718.163 5.22266 -0.059418 0
M  V30 7562 H 719.857 2.97771 -0.311936 0
M  V30 7563 H 717.403 1.43201 -0.151461 0
M  V30 7564 H 719.356 3.70091 2.01521 0
M  V30 7565 H 718.08 2.4648 2.14278 0
M  V30 7566 H 716.739 3.64746 0.368264 0
M  V30 7567 H 716.387 4.18906 2.78437 0
M  V30 7568 H 716.087 5.60898 1.7512 0
M  V30 7569 H 717.611 5.48847 2.6758 0
M  V30 7570 H 719.025 5.71789 0.415985 0
M  V30 7571 H 717.422 5.99213 -0.326152 0
M  V30 7572 H 718.492 4.7461 -0.993631 0
M  V30 7573 N 719.835 0.176821 1.56605 0
M  V30 7574 C 721.082 -0.466715 1.97048 0
M  V30 7575 C 721.41 -1.6288 1.06302 0
M  V30 7576 O 720.665 -1.95453 0.0982571 0
M  V30 7577 C 720.964 -0.986208 3.43524 0
M  V30 7578 C 720.63 0.0605667 4.50859 0
M  V30 7579 C 719.292 0.348242 4.79938 0
M  V30 7580 C 721.644 0.770794 5.15469 0
M  V30 7581 C 718.972 1.35144 5.70923 0
M  V30 7582 C 721.324 1.76301 6.07537 0
M  V30 7583 C 719.988 2.05808 6.3498 0
M  V30 7584 H 719.258 -0.170783 0.721051 0
M  V30 7585 H 721.905 0.269942 1.89588 0
M  V30 7586 H 720.21 -1.80079 3.47964 0
M  V30 7587 H 721.907 -1.49323 3.72161 0
M  V30 7588 H 718.497 -0.173823 4.28247 0
M  V30 7589 H 722.681 0.56176 4.9311 0
M  V30 7590 H 717.937 1.58616 5.90467 0
M  V30 7591 H 722.111 2.31868 6.56666 0
M  V30 7592 H 719.738 2.8369 7.05283 0
M  V30 7593 N 721.313 -1.57302 -0.09688 0
M  V30 7594 C 722.562 -1.85183 -0.799388 0
M  V30 7595 C 722.875 -0.765818 -1.79985 0
M  V30 7596 O 724.081 -0.931696 -2.55013 0
M  V30 7597 C 722.537 -3.28399 -1.47249 0
M  V30 7598 C 722.145 -4.45066 -0.511888 0
M  V30 7599 C 723.889 -3.65506 -2.15883 0
M  V30 7600 C 721.796 -5.79315 -1.18948 0
M  V30 7601 H 720.726 -0.690752 -0.302287 0
M  V30 7602 H 723.377 -1.83425 -0.0523104 0
M  V30 7603 H 721.759 -3.24692 -2.26697 0
M  V30 7604 H 722.933 -4.60116 0.250962 0
M  V30 7605 H 721.248 -4.16343 0.0686576 0
M  V30 7606 H 723.845 -4.63087 -2.67309 0
M  V30 7607 H 724.188 -2.94041 -2.94696 0
M  V30 7608 H 724.721 -3.71094 -1.43298 0
M  V30 7609 H 721.46 -6.54007 -0.442198 0
M  V30 7610 H 720.98 -5.68111 -1.9238 0
M  V30 7611 H 722.659 -6.23816 -1.71646 0
M  V30 7612 N 722.791 0.367657 -1.53252 0
M  V30 7613 C 724.021 1.12955 -1.72988 0
M  V30 7614 C 724.429 1.8358 -0.457708 0
M  V30 7615 O 723.772 1.74336 0.579006 0
M  V30 7616 C 723.834 2.20545 -2.83902 0
M  V30 7617 C 723.498 1.69704 -4.24323 0
M  V30 7618 C 724.495 1.16223 -5.06743 0
M  V30 7619 C 722.18 1.7528 -4.70725 0
M  V30 7620 C 724.174 0.689935 -6.33655 0
M  V30 7621 C 721.861 1.27662 -5.97617 0
M  V30 7622 C 722.859 0.746083 -6.78913 0
M  V30 7623 O 722.547 0.276925 -8.03423 0
M  V30 7624 H 722.279 0.343753 -0.582074 0
M  V30 7625 H 724.833 0.433106 -2.00782 0
M  V30 7626 H 723.063 2.93676 -2.51577 0
M  V30 7627 H 724.752 2.82111 -2.91836 0
M  V30 7628 H 725.518 1.11256 -4.72067 0
M  V30 7629 H 721.397 2.15515 -4.07522 0
M  V30 7630 H 724.941 0.275164 -6.97057 0
M  V30 7631 H 720.838 1.32322 -6.31792 0
M  V30 7632 H 721.606 0.396445 -8.17539 0
M  V30 7633 N 724.269 1.44576 0.627338 0
M  V30 7634 C 725.517 1.47267 1.38408 0
M  V30 7635 C 725.838 0.107971 1.94701 0
M  V30 7636 O 725.108 -0.860206 1.76004 0
M  V30 7637 H 723.688 0.542276 0.513756 0
M  V30 7638 H 726.35 1.80383 0.738099 0
M  V30 7639 H 725.446 2.20025 2.21349 0
M  V30 7640 N 725.747 -0.868086 1.31537 0
M  V30 7641 C 726.71 -1.95703 1.19302 0
M  V30 7642 C 727.71 -1.60355 0.119612 0
M  V30 7643 O 728.9 -1.70247 0.36902 0
M  V30 7644 C 726.032 -3.30599 0.831684 0
M  V30 7645 H 727.225 -2.07982 2.16064 0
M  V30 7646 H 724.778 -1.05661 1.15176 0
M  V30 7647 H 725.513 -3.2402 -0.134694 0
M  V30 7648 H 725.298 -3.57629 1.60761 0
M  V30 7649 H 726.788 -4.10439 0.770026 0
M  V30 7650 N 727.225 -1.14528 -1.08264 0
M  V30 7651 C 728.471 -0.91576 -1.80947 0
M  V30 7652 C 728.804 0.55623 -1.86064 0
M  V30 7653 O 728.079 1.41207 -1.33756 0
M  V30 7654 C 728.362 -1.51917 -3.26486 0
M  V30 7655 C 728.215 -3.06111 -3.2957 0
M  V30 7656 C 729.534 -1.19724 -4.23502 0
M  V30 7657 H 726.653 -0.334113 -0.656915 0
M  V30 7658 H 729.295 -1.41547 -1.26746 0
M  V30 7659 H 727.445 -1.0942 -3.72773 0
M  V30 7660 H 729.117 -3.57448 -2.91597 0
M  V30 7661 H 727.36 -3.40483 -2.688 0
M  V30 7662 H 728.031 -3.43438 -4.32151 0
M  V30 7663 H 730.507 -1.56467 -3.85561 0
M  V30 7664 H 729.383 -1.64575 -5.23647 0
M  V30 7665 H 729.644 -0.112771 -4.41956 0
M  V30 7666 N 728.703 1.26451 -0.940633 0
M  V30 7667 C 730.114 1.75726 -0.630653 0
M  V30 7668 C 730.465 1.76631 0.854167 0
M  V30 7669 O 729.59 1.37807 1.66848 0
M  V30 7670 C 730.185 3.19114 -1.13805 0
M  V30 7671 C 728.744 3.66005 -0.878497 0
M  V30 7672 C 727.891 2.45505 -1.28928 0
M  V30 7673 H 730.842 1.12535 -1.119 0
M  V30 7674 H 730.863 3.77311 -0.491625 0
M  V30 7675 H 730.375 3.18424 -2.21874 0
M  V30 7676 H 728.476 3.72126 0.187833 0
M  V30 7677 H 728.589 4.54844 -1.50512 0
M  V30 7678 H 726.953 2.4467 -0.707713 0
M  V30 7679 H 727.736 2.47516 -2.37888 0
M  V30 7680 N 730.181 0.707592 1.40822 0
M  V30 7681 C 731.427 0.244031 2.01326 0
M  V30 7682 C 731.76 -1.15722 1.55955 0
M  V30 7683 O 731.035 -1.78347 0.776044 0
M  V30 7684 C 731.318 0.315128 3.58718 0
M  V30 7685 C 731.171 1.75419 4.14184 0
M  V30 7686 C 732.49 -0.318251 4.38948 0
M  V30 7687 H 729.609 0.0901471 0.731466 0
M  V30 7688 H 732.251 0.898584 1.67408 0
M  V30 7689 H 730.401 -0.242176 3.87744 0
M  V30 7690 H 732.073 2.36626 3.95987 0
M  V30 7691 H 730.316 2.28449 3.68773 0
M  V30 7692 H 730.987 1.75538 5.23345 0
M  V30 7693 H 733.463 0.156514 4.15806 0
M  V30 7694 H 732.339 -0.238019 5.48384 0
M  V30 7695 H 732.6 -1.40067 4.19325 0
M  V30 7696 N 731.66 -1.50943 0.453197 0
M  V30 7697 C 732.623 -2.26684 -0.338705 0
M  V30 7698 C 733.623 -1.30748 -0.936032 0
M  V30 7699 O 734.813 -1.54327 -0.808002 0
M  V30 7700 C 731.945 -3.07063 -1.48071 0
M  V30 7701 H 733.138 -2.98131 0.325289 0
M  V30 7702 H 730.691 -1.54926 0.206771 0
M  V30 7703 H 731.426 -2.4007 -2.18029 0
M  V30 7704 H 731.211 -3.77545 -1.0584 0
M  V30 7705 H 732.701 -3.64393 -2.0398 0
M  V30 7706 N 733.138 -0.185124 -1.56509 0
M  V30 7707 C 734.101 0.72591 -2.17401 0
M  V30 7708 C 735.101 1.14819 -1.12575 0
M  V30 7709 O 736.291 1.0629 -1.38015 0
M  V30 7710 C 733.423 1.98979 -2.76803 0
M  V30 7711 H 734.616 0.195588 -2.99262 0
M  V30 7712 H 732.169 0.0644772 -1.56167 0
M  V30 7713 H 732.904 2.56287 -1.98714 0
M  V30 7714 H 732.689 1.69583 -3.53531 0
M  V30 7715 H 734.179 2.63966 -3.23592 0
M  V30 7716 N 734.616 1.57351 0.0885366 0
M  V30 7717 C 735.841 1.91011 0.80805 0
M  V30 7718 C 736.266 0.780009 1.71165 0
M  V30 7719 O 735.624 -0.268083 1.79307 0
M  V30 7720 C 735.672 3.23562 1.59185 0
M  V30 7721 O 734.776 3.11615 2.7013 0
M  V30 7722 H 734.117 0.625943 0.221565 0
M  V30 7723 H 736.647 2.04507 0.0617954 0
M  V30 7724 H 736.657 3.5703 1.97468 0
M  V30 7725 H 735.332 4.05398 0.928741 0
M  V30 7726 H 733.909 2.89673 2.34827 0
M  V30 7727 N 736.094 -0.359525 1.53444 0
M  V30 7728 C 737.057 -1.42357 1.7963 0
M  V30 7729 C 738.057 -1.46319 0.666884 0
M  V30 7730 O 739.247 -1.46974 0.935113 0
M  V30 7731 C 736.379 -2.81425 1.92387 0
M  V30 7732 H 737.572 -1.20409 2.74666 0
M  V30 7733 H 735.125 -0.593007 1.44614 0
M  V30 7734 H 735.86 -3.08679 0.994384 0
M  V30 7735 H 735.645 -2.79947 2.74539 0
M  V30 7736 H 737.135 -3.5847 2.14218 0
M  V30 7737 N 737.572 -1.44907 -0.619662 0
M  V30 7738 C 738.818 -1.48512 -1.38102 0
M  V30 7739 C 739.151 -0.121686 -1.93818 0
M  V30 7740 O 738.426 0.862256 -1.74343 0
M  V30 7741 C 738.709 -2.55469 -2.53787 0
M  V30 7742 C 738.562 -4.01212 -2.03345 0
M  V30 7743 C 739.881 -2.58821 -3.55949 0
M  V30 7744 H 737 -0.540712 -0.500799 0
M  V30 7745 H 739.642 -1.7665 -0.69962 0
M  V30 7746 H 737.792 -2.31606 -3.11915 0
M  V30 7747 H 739.464 -4.36245 -1.49959 0
M  V30 7748 H 737.707 -4.12443 -1.34438 0
M  V30 7749 H 738.378 -4.71717 -2.86683 0
M  V30 7750 H 740.854 -2.80172 -3.07641 0
M  V30 7751 H 739.73 -3.35542 -4.34399 0
M  V30 7752 H 739.991 -1.63451 -4.10775 0
M  V30 7753 N 739.05 0.861098 -1.31996 0
M  V30 7754 C 740.278 1.6474 -1.25173 0
M  V30 7755 C 740.693 1.87926 0.181425 0
M  V30 7756 O 740.05 1.4437 1.1164 0
M  V30 7757 C 740.101 3.01036 -2.0015 0
M  V30 7758 O 739.822 2.7888 -3.37872 0
M  V30 7759 C 741.323 3.95481 -2.00273 0
M  V30 7760 H 738.543 0.513314 -0.432146 0
M  V30 7761 H 741.087 1.07419 -1.74016 0
M  V30 7762 H 739.242 3.55021 -1.55046 0
M  V30 7763 H 739.656 3.65514 -3.76165 0
M  V30 7764 H 741.13 4.88403 -2.57229 0
M  V30 7765 H 741.607 4.27957 -0.987407 0
M  V30 7766 H 742.213 3.47433 -2.45296 0
M  V30 7767 N 740.528 1.15101 1.07655 0
M  V30 7768 C 741.774 0.925343 1.80458 0
M  V30 7769 C 742.107 -0.546354 1.86356 0
M  V30 7770 O 741.382 -1.40496 1.34503 0
M  V30 7771 C 741.665 1.53646 3.25676 0
M  V30 7772 C 741.518 3.07854 3.27942 0
M  V30 7773 C 742.837 1.21968 4.22861 0
M  V30 7774 H 739.956 0.337592 0.655134 0
M  V30 7775 H 742.598 1.42217 1.25993 0
M  V30 7776 H 740.748 1.11395 3.72187 0
M  V30 7777 H 742.42 3.58989 2.89697 0
M  V30 7778 H 740.663 3.41904 2.66991 0
M  V30 7779 H 741.334 3.45725 4.30324 0
M  V30 7780 H 743.81 1.5851 3.84726 0
M  V30 7781 H 742.686 1.67349 5.22767 0
M  V30 7782 H 742.947 0.136207 4.4189 0
M  V30 7783 N 742.006 -1.2595 0.947325 0
M  V30 7784 C 742.936 -2.28521 0.479604 0
M  V30 7785 C 743.917 -1.63469 -0.470293 0
M  V30 7786 O 745.102 -1.90627 -0.370824 0
M  V30 7787 C 742.232 -3.46397 -0.250289 0
M  V30 7788 C 741.186 -4.23578 0.613643 0
M  V30 7789 C 740.512 -5.34131 -0.246568 0
M  V30 7790 C 741.812 -4.86979 1.88809 0
M  V30 7791 H 743.506 -2.67895 1.33688 0
M  V30 7792 H 741.052 -1.28783 0.644274 0
M  V30 7793 H 743.005 -4.17269 -0.588576 0
M  V30 7794 H 741.729 -3.05993 -1.14175 0
M  V30 7795 H 740.388 -3.54478 0.93491 0
M  V30 7796 H 740.036 -4.89968 -1.13756 0
M  V30 7797 H 739.736 -5.86683 0.328123 0
M  V30 7798 H 741.26 -6.07839 -0.579986 0
M  V30 7799 H 742.674 -5.50034 1.61666 0
M  V30 7800 H 741.071 -5.49675 2.40784 0
M  V30 7801 H 742.141 -4.09575 2.5957 0
M  V30 7802 N 743.484 -0.715051 -1.40445 0
M  V30 7803 C 744.414 -0.0768699 -2.33373 0
M  V30 7804 C 745.395 0.746109 -1.52863 0
M  V30 7805 O 746.58 0.695142 -1.81332 0
M  V30 7806 C 743.71 0.846014 -3.36838 0
M  V30 7807 C 742.664 0.128694 -4.27806 0
M  V30 7808 C 741.99 1.16726 -5.21804 0
M  V30 7809 C 743.29 -1.01679 -5.12307 0
M  V30 7810 H 744.984 -0.853061 -2.8699 0
M  V30 7811 H 742.53 -0.41167 -1.3799 0
M  V30 7812 H 744.483 1.30185 -4.00786 0
M  V30 7813 H 743.207 1.6541 -2.81615 0
M  V30 7814 H 741.866 -0.307314 -3.6531 0
M  V30 7815 H 741.514 1.96838 -4.62887 0
M  V30 7816 H 741.214 0.692188 -5.83509 0
M  V30 7817 H 742.738 1.62321 -5.88629 0
M  V30 7818 H 744.152 -0.640337 -5.69713 0
M  V30 7819 H 742.549 -1.4202 -5.83053 0
M  V30 7820 H 743.619 -1.84769 -4.48317 0
M  V30 7821 N 744.962 1.50701 -0.461195 0
M  V30 7822 C 746.373 1.867 -0.00370227 0
M  V30 7823 C 746.724 1.37673 1.39787 0
M  V30 7824 O 745.849 0.737515 2.03445 0
M  V30 7825 C 746.444 3.388 5.75786e-05 0
M  V30 7826 C 745.003 3.74247 0.402044 0
M  V30 7827 C 744.15 2.74549 -0.389652 0
M  V30 7828 H 747.101 1.43585 -0.675942 0
M  V30 7829 H 747.122 3.719 0.804414 0
M  V30 7830 H 746.634 3.74452 -1.02015 0
M  V30 7831 H 744.735 3.44192 1.42697 0
M  V30 7832 H 744.848 4.78973 0.110265 0
M  V30 7833 H 743.212 2.54226 0.155314 0
M  V30 7834 H 743.995 3.13044 -1.40919 0
M  V30 7835 N 746.441 0.193421 1.56409 0
M  V30 7836 C 747.351 -0.740112 2.2262 0
M  V30 7837 C 748.367 -1.23597 1.22474 0
M  V30 7838 O 749.543 -1.28348 1.55206 0
M  V30 7839 C 746.608 -1.94317 2.87127 0
M  V30 7840 C 745.669 -1.49205 4.02538 0
M  V30 7841 C 744.902 -2.63776 4.63959 0
M  V30 7842 O 745.125 -3.81215 4.24301 0
M  V30 7843 O 744.059 -2.36585 5.53454 0
M  V30 7844 H 747.885 -0.206238 3.02999 0
M  V30 7845 H 745.47 -0.0357938 1.49357 0
M  V30 7846 H 747.352 -2.64633 3.27944 0
M  V30 7847 H 746.027 -2.46568 2.09728 0
M  V30 7848 H 744.934 -0.757738 3.66346 0
M  V30 7849 H 746.267 -1.01622 4.81595 0
M  V30 7850 N 747.919 -1.57396 -0.0801906 0
M  V30 7851 C 749.147 -1.91055 -0.794075 0
M  V30 7852 C 749.562 -0.788583 -1.71542 0
M  V30 7853 O 748.919 0.238587 -1.80934 0
M  V30 7854 C 748.97 -3.24418 -1.59484 0
M  V30 7855 O 748.691 -4.323 -0.710532 0
M  V30 7856 C 750.192 -3.72037 -2.41046 0
M  V30 7857 H 747.412 -0.63171 -0.226238 0
M  V30 7858 H 749.956 -2.04431 -0.0529685 0
M  V30 7859 H 748.111 -3.12595 -2.2883 0
M  V30 7860 H 748.525 -5.08976 -1.26663 0
M  V30 7861 H 749.999 -4.68006 -2.92702 0
M  V30 7862 H 750.476 -3.00624 -3.2019 0
M  V30 7863 H 751.082 -3.86777 -1.76871 0
M  V30 7864 N 749.397 0.351382 -1.53633 0
M  V30 7865 C 750.327 1.43688 -1.84055 0
M  V30 7866 C 751.308 1.55251 -0.695073 0
M  V30 7867 O 752.493 1.69587 -0.946257 0
M  V30 7868 C 749.623 2.80843 -2.04315 0
M  V30 7869 C 748.577 2.84094 -3.20117 0
M  V30 7870 C 747.903 4.2406 -3.25696 0
M  V30 7871 C 749.203 2.50334 -4.58399 0
M  V30 7872 H 750.897 1.18478 -2.74961 0
M  V30 7873 H 748.443 0.568509 -1.32303 0
M  V30 7874 H 750.396 3.56821 -2.2418 0
M  V30 7875 H 749.12 3.07471 -1.10132 0
M  V30 7876 H 747.779 2.10568 -3.00094 0
M  V30 7877 H 747.427 4.47785 -2.29123 0
M  V30 7878 H 747.127 4.27147 -4.03509 0
M  V30 7879 H 748.651 5.0189 -3.47762 0
M  V30 7880 H 750.065 3.16025 -4.78332 0
M  V30 7881 H 748.462 2.64717 -5.38558 0
M  V30 7882 H 749.532 1.45542 -4.62543 0
M  V30 7883 N 750.875 1.45233 0.611969 0
M  V30 7884 C 752.123 1.48727 1.36838 0
M  V30 7885 C 752.444 0.128616 1.94575 0
M  V30 7886 O 751.714 -0.84149 1.76906 0
M  V30 7887 H 750.294 0.547695 0.507976 0
M  V30 7888 H 752.956 1.81156 0.718925 0
M  V30 7889 H 752.052 2.2236 2.19003 0
M  V30 7890 N 752.353 -0.854086 1.3245 0
M  V30 7891 C 753.285 -1.96932 1.17262 0
M  V30 7892 C 754.298 -1.62445 0.107469 0
M  V30 7893 O 755.487 -1.74904 0.356481 0
M  V30 7894 C 752.587 -3.29971 0.772817 0
M  V30 7895 C 751.76 -3.92695 1.92638 0
M  V30 7896 C 750.819 -5.04068 1.51003 0
M  V30 7897 O 749.845 -5.24032 2.22213 0
M  V30 7898 N 751.047 -5.79076 0.406371 0
M  V30 7899 H 753.812 -2.10503 2.13327 0
M  V30 7900 H 751.373 -1.02897 1.24995 0
M  V30 7901 H 753.365 -4.01883 0.476684 0
M  V30 7902 H 751.935 -3.1245 -0.0967 0
M  V30 7903 H 751.155 -3.13563 2.38897 0
M  V30 7904 H 752.443 -4.31337 2.69863 0
M  V30 7905 H 751.841 -5.65393 -0.186302 0
M  V30 7906 H 750.398 -6.51579 0.169846 0
M  V30 7907 N 753.831 -1.1567 -1.07043 0
M  V30 7908 C 755.242 -0.942408 -1.61169 0
M  V30 7909 C 755.593 0.515537 -1.89306 0
M  V30 7910 O 754.718 1.38726 -1.66084 0
M  V30 7911 C 755.313 -1.70431 -2.92812 0
M  V30 7912 C 753.872 -1.53521 -3.43669 0
M  V30 7913 C 753.019 -1.7179 -2.17678 0
M  V30 7914 H 755.97 -1.3065 -0.9009 0
M  V30 7915 H 755.991 -1.17566 -3.61882 0
M  V30 7916 H 755.503 -2.76538 -2.72302 0
M  V30 7917 H 753.604 -0.498224 -3.69254 0
M  V30 7918 H 753.717 -2.31422 -4.19501 0
M  V30 7919 H 752.081 -1.14468 -2.27529 0
M  V30 7920 H 752.864 -2.79269 -1.99659 0
M  V30 7921 N 755.309 1.25446 -0.953992 0
M  V30 7922 C 756.239 2.28264 -0.491717 0
M  V30 7923 C 757.22 1.63717 0.461617 0
M  V30 7924 O 758.405 1.90821 0.36071 0
M  V30 7925 C 755.535 3.46525 0.231915 0
M  V30 7926 C 754.489 4.23247 -0.636098 0
M  V30 7927 C 753.815 5.34254 0.218238 0
M  V30 7928 C 755.115 4.85971 -1.91389 0
M  V30 7929 H 756.809 2.67183 -1.35106 0
M  V30 7930 H 754.355 1.2844 -0.651095 0
M  V30 7931 H 756.308 4.17576 0.566439 0
M  V30 7932 H 755.032 3.06594 1.12551 0
M  V30 7933 H 753.691 3.53978 -0.953696 0
M  V30 7934 H 753.339 4.90564 1.11156 0
M  V30 7935 H 753.039 5.86501 -0.359232 0
M  V30 7936 H 754.563 6.08138 0.547743 0
M  V30 7937 H 755.977 5.49168 -1.64581 0
M  V30 7938 H 754.374 5.48391 -2.43696 0
M  V30 7939 H 755.444 4.08192 -2.61738 0
M  V30 7940 N 756.787 0.722489 1.40064 0
M  V30 7941 C 758.198 0.336507 1.83642 0
M  V30 7942 C 758.549 -1.13002 1.6039 0
M  V30 7943 O 757.674 -1.87036 1.08842 0
M  V30 7944 C 758.269 0.603985 3.33373 0
M  V30 7945 C 756.828 0.271637 3.75419 0
M  V30 7946 C 755.975 0.872898 2.63203 0
M  V30 7947 H 758.926 0.921108 1.29233 0
M  V30 7948 H 758.947 -0.128471 3.80283 0
M  V30 7949 H 758.459 1.67141 3.50265 0
M  V30 7950 H 756.56 -0.790455 3.64119 0
M  V30 7951 H 756.673 0.745457 4.73265 0
M  V30 7952 H 755.037 0.300431 2.52922 0
M  V30 7953 H 755.82 1.94473 2.82905 0
M  V30 7954 N 758.265 -1.50454 0.469181 0
M  V30 7955 C 759.542 -1.9504 -0.147955 0
M  V30 7956 C 759.922 -1.40946 -1.57154 0
M  V30 7957 O 759.27 -0.609663 -2.20217 0
M  V30 7958 C 759.48 -3.48875 -0.0932198 0
M  V30 7959 C 760.828 -4.23655 -0.283056 0
M  V30 7960 O 761.852 -3.55795 -0.169892 0
M  V30 7961 O 760.711 -5.44102 -0.511396 0
M  V30 7962 H 757.805 -0.819283 -0.11271 0
M  V30 7963 H 760.351 -1.6123 0.529446 0
M  V30 7964 H 759.123 -3.80791 0.900784 0
M  V30 7965 H 758.746 -3.89217 -0.812161 0
M  V30 7966 N 759.743 -0.201713 -1.56304 0
M  V30 7967 C 760.971 0.440723 -2.02152 0
M  V30 7968 C 761.386 1.54735 -1.08179 0
M  V30 7969 O 760.743 1.82289 -0.0878196 0
M  V30 7970 C 760.794 0.990884 -3.47655 0
M  V30 7971 O 760.515 -0.0715937 -4.38041 0
M  V30 7972 C 762.016 1.70854 -4.09052 0
M  V30 7973 H 759.236 0.109987 -0.661924 0
M  V30 7974 H 761.78 -0.312358 -2.021 0
M  V30 7975 H 759.935 1.69432 -3.48384 0
M  V30 7976 H 760.349 0.338892 -5.23404 0
M  V30 7977 H 761.823 2.04572 -5.12693 0
M  V30 7978 H 762.3 2.61462 -3.52894 0
M  V30 7979 H 762.906 1.0508 -4.12114 0
M  V30 7980 N 761.222 1.57436 0.0718424 0
M  V30 7981 C 762.468 1.87525 0.772149 0
M  V30 7982 C 762.801 0.79399 1.77227 0
M  V30 7983 O 762.076 -0.195733 1.93513 0
M  V30 7984 C 762.359 3.28272 1.48018 0
M  V30 7985 C 762.212 4.47052 0.49647 0
M  V30 7986 C 763.531 3.67256 2.42509 0
M  V30 7987 H 760.65 0.682049 0.279245 0
M  V30 7988 H 763.292 1.89967 0.03534 0
M  V30 7989 H 761.442 3.26321 2.10824 0
M  V30 7990 H 763.114 4.61127 -0.126375 0
M  V30 7991 H 761.357 4.33392 -0.188205 0
M  V30 7992 H 762.028 5.42315 1.02949 0
M  V30 7993 H 764.504 3.70301 1.89781 0
M  V30 7994 H 763.38 4.66626 2.89053 0
M  V30 7995 H 763.641 2.97186 3.27312 0
M  V30 7996 N 762.7 -0.34323 1.53817 0
M  V30 7997 C 763.632 -1.44216 1.78141 0
M  V30 7998 C 764.645 -1.48701 0.662721 0
M  V30 7999 O 765.834 -1.51778 0.939458 0
M  V30 8000 C 762.934 -2.82872 1.86646 0
M  V30 8001 C 762.107 -3.01824 3.16577 0
M  V30 8002 C 761.166 -4.20723 3.16036 0
M  V30 8003 O 760.192 -4.14824 3.89756 0
M  V30 8004 N 761.394 -5.29276 2.38427 0
M  V30 8005 H 764.159 -1.23721 2.72971 0
M  V30 8006 H 761.72 -0.53311 1.52871 0
M  V30 8007 H 763.712 -3.60588 1.83735 0
M  V30 8008 H 762.282 -2.96509 0.990014 0
M  V30 8009 H 761.502 -2.11575 3.3261 0
M  V30 8010 H 762.79 -3.11369 4.02402 0
M  V30 8011 H 762.188 -5.36938 1.78085 0
M  V30 8012 H 760.745 -6.05484 2.41313 0
M  V30 8013 N 764.178 -1.45556 -0.604258 0
M  V30 8014 C 765.455 -1.40221 -1.36373 0
M  V30 8015 C 765.835 -0.0745195 -2.10968 0
M  V30 8016 O 765.183 0.943594 -2.08107 0
M  V30 8017 C 765.393 -2.61807 -2.30777 0
M  V30 8018 C 766.741 -3.07037 -2.93281 0
M  V30 8019 O 767.765 -2.62203 -2.41097 0
M  V30 8020 O 766.624 -3.8485 -3.88011 0
M  V30 8021 H 763.718 -0.556602 -0.611656 0
M  V30 8022 H 766.264 -1.57689 -0.627069 0
M  V30 8023 H 765.036 -3.50017 -1.74939 0
M  V30 8024 H 764.659 -2.46688 -3.11818 0
M  V30 8025 N 765.656 0.84705 -1.32902 0
M  V30 8026 C 766.586 1.97166 -1.25091 0
M  V30 8027 C 767.567 1.69578 -0.133161 0
M  V30 8028 O 768.752 1.91519 -0.321591 0
M  V30 8029 C 765.882 3.33157 -0.981006 0
M  V30 8030 C 764.836 3.75119 -2.06082 0
M  V30 8031 C 764.162 5.08826 -1.64318 0
M  V30 8032 C 765.462 3.89774 -3.47669 0
M  V30 8033 H 767.156 2.03958 -2.19184 0
M  V30 8034 H 764.702 0.979907 -1.05517 0
M  V30 8035 H 766.655 4.11393 -0.912891 0
M  V30 8036 H 765.379 3.266 -0.00445559 0
M  V30 8037 H 764.038 2.9914 -2.11921 0
M  V30 8038 H 763.686 4.98732 -0.653876 0
M  V30 8039 H 763.386 5.37873 -2.36572 0
M  V30 8040 H 764.91 5.89546 -1.58958 0
M  V30 8041 H 766.324 4.58343 -3.44376 0
M  V30 8042 H 764.721 4.30248 -4.18338 0
M  V30 8043 H 765.791 2.92463 -3.86773 0
M  V30 8044 N 767.134 1.16236 1.06428 0
M  V30 8045 C 768.044 0.881976 2.1739 0
M  V30 8046 C 769.06 -0.145259 1.73393 0
M  V30 8047 O 770.236 0.0310558 2.01376 0
M  V30 8048 C 767.301 0.385496 3.4455 0
M  V30 8049 C 766.362 1.47779 4.03063 0
M  V30 8050 C 765.595 1.0049 5.24154 0
M  V30 8051 O 765.818 -0.145889 5.70213 0
M  V30 8052 O 764.752 1.79265 5.74585 0
M  V30 8053 H 768.578 1.80983 2.43883 0
M  V30 8054 H 766.163 0.942226 1.15942 0
M  V30 8055 H 768.045 0.115536 4.21242 0
M  V30 8056 H 766.72 -0.514369 3.19587 0
M  V30 8057 H 765.627 1.80147 3.27869 0
M  V30 8058 H 766.96 2.35291 4.32318 0
M  V30 8059 N 768.612 -1.24939 0.960631 0
M  V30 8060 C 769.837 -1.9742 0.635608 0
M  V30 8061 C 770.262 -1.70857 -0.786737 0
M  V30 8062 O 769.62 -0.968063 -1.53291 0
M  V30 8063 C 769.668 -3.48987 0.907771 0
M  V30 8064 O 768.772 -4.12399 -0.0104053 0
M  V30 8065 H 768.113 -0.61871 0.241027 0
M  V30 8066 H 770.643 -1.58901 1.28886 0
M  V30 8067 H 770.653 -3.99334 0.836453 0
M  V30 8068 H 769.328 -3.6765 1.94439 0
M  V30 8069 H 767.905 -3.72727 0.113631 0
M  V30 8070 N 770.09 -0.729906 -1.39679 0
M  V30 8071 C 771.506 -0.404951 -1.54377 0
M  V30 8072 C 771.706 1.08476 -1.6981 0
M  V30 8073 O 770.762 1.87087 -1.69572 0
M  V30 8074 C 772.075 -1.18352 -2.76429 0
M  V30 8075 C 773.623 -1.17124 -2.9026 0
M  V30 8076 C 774.098 -1.93227 -4.15244 0
M  V30 8077 N 775.589 -1.90368 -4.22273 0
M  V30 8078 C 776.324 -2.46065 -5.17918 0
M  V30 8079 N 775.82 -3.10378 -6.19385 0
M  V30 8080 N 777.613 -2.36127 -5.10099 0
M  V30 8081 H 769.764 -1.69567 -1.27909 0
M  V30 8082 H 772.027 -0.717527 -0.619564 0
M  V30 8083 H 771.733 -2.23743 -2.71352 0
M  V30 8084 H 771.607 -0.784589 -3.6895 0
M  V30 8085 H 773.994 -0.125478 -2.94833 0
M  V30 8086 H 774.075 -1.60951 -1.98817 0
M  V30 8087 H 773.719 -2.97802 -4.11432 0
M  V30 8088 H 773.649 -1.4681 -5.05722 0
M  V30 8089 H 776.14 -1.4351 -3.4959 0
M  V30 8090 H 776.453 -3.50358 -6.88817 0
M  V30 8091 H 774.798 -3.14467 -6.19787 0
M  V30 8092 H 777.989 -1.85529 -4.29763 0
M  V30 8093 H 778.162 -2.79833 -5.84463 0
M  V30 8094 N 771.568 1.50203 -0.477153 0
M  V30 8095 C 772.814 2.03286 0.0679442 0
M  V30 8096 C 773.169 1.35227 1.36863 0
M  V30 8097 O 772.462 0.471029 1.8572 0
M  V30 8098 C 772.656 3.56127 0.301325 0
M  V30 8099 C 772.485 4.38999 -0.975188 0
M  V30 8100 C 771.255 4.81889 -1.52022 0
M  V30 8101 C 773.453 4.79013 -1.8722 0
M  V30 8102 N 771.435 5.49105 -2.74513 0
M  V30 8103 C 772.806 5.45701 -2.94296 0
M  V30 8104 C 774.861 4.60967 -1.88185 0
M  V30 8105 C 773.564 5.96255 -4.02333 0
M  V30 8106 C 775.59 5.12466 -2.95183 0
M  V30 8107 C 774.952 5.79134 -4.00977 0
M  V30 8108 H 771.051 0.78185 -0.015318 0
M  V30 8109 H 773.635 1.83646 -0.64671 0
M  V30 8110 H 771.806 3.75702 0.985021 0
M  V30 8111 H 773.538 3.95859 0.841304 0
M  V30 8112 H 770.293 4.61387 -1.06858 0
M  V30 8113 H 770.717 5.87315 -3.36734 0
M  V30 8114 H 775.359 4.0885 -1.07708 0
M  V30 8115 H 773.077 6.47406 -4.83623 0
M  V30 8116 H 776.663 5.00329 -2.96921 0
M  V30 8117 H 775.543 6.18265 -4.82409 0
M  V30 8118 N 773.046 0.209999 1.56195 0
M  V30 8119 C 774.009 -0.691232 2.18528 0
M  V30 8120 C 775.009 -1.13013 1.14388 0
M  V30 8121 O 776.199 -1.04081 1.39688 0
M  V30 8122 C 773.331 -1.94551 2.79934 0
M  V30 8123 H 774.524 -0.147953 2.99535 0
M  V30 8124 H 772.077 -0.0396243 1.5625 0
M  V30 8125 H 772.812 -2.53094 2.02766 0
M  V30 8126 H 772.597 -1.63938 3.56184 0
M  V30 8127 H 774.087 -2.58785 3.2775 0
M  V30 8128 N 774.524 -1.57472 -0.0634922 0
M  V30 8129 C 775.935 -1.76303 -0.614337 0
M  V30 8130 C 776.286 -0.836578 -1.77471 0
M  V30 8131 O 775.411 -0.0227184 -2.16388 0
M  V30 8132 C 776.006 -3.19709 -1.12122 0
M  V30 8133 C 774.565 -3.39856 -1.61786 0
M  V30 8134 C 773.712 -2.71975 -0.540845 0
M  V30 8135 H 776.663 -1.57864 0.162702 0
M  V30 8136 H 776.684 -3.24326 -1.98979 0
M  V30 8137 H 776.196 -3.87114 -0.276472 0
M  V30 8138 H 774.297 -2.77578 -2.48558 0
M  V30 8139 H 774.41 -4.48338 -1.68908 0
M  V30 8140 H 772.774 -2.34763 -0.987854 0
M  V30 8141 H 773.557 -3.4204 0.293856 0
M  V30 8142 N 776.003 0.335068 -1.53997 0
M  V30 8143 C 777.231 1.09418 -1.756 0
M  V30 8144 C 777.646 1.82083 -0.499138 0
M  V30 8145 O 777.003 1.74646 0.529631 0
M  V30 8146 C 777.054 2.10115 -2.94166 0
M  V30 8147 O 776.775 1.40404 -4.14992 0
M  V30 8148 C 778.276 2.98336 -3.27888 0
M  V30 8149 H 775.496 0.32595 -0.586513 0
M  V30 8150 H 778.04 0.384693 -2.00849 0
M  V30 8151 H 776.195 2.76616 -2.71224 0
M  V30 8152 H 776.609 2.07743 -4.81605 0
M  V30 8153 H 778.083 3.6491 -4.1418 0
M  V30 8154 H 778.56 3.64814 -2.44556 0
M  V30 8155 H 779.166 2.37412 -3.52868 0
M  V30 8156 N 777.481 1.45874 0.596531 0
M  V30 8157 C 778.413 1.51408 1.7207 0
M  V30 8158 C 779.426 0.403738 1.57714 0
M  V30 8159 O 780.615 0.671384 1.65393 0
M  V30 8160 C 777.715 1.3652 3.10186 0
M  V30 8161 C 776.888 2.61428 3.50677 0
M  V30 8162 C 775.947 2.40937 4.67799 0
M  V30 8163 O 774.973 3.14602 4.74357 0
M  V30 8164 N 776.175 1.4621 5.61785 0
M  V30 8165 H 778.94 2.48333 1.67782 0
M  V30 8166 H 776.501 1.41755 0.782129 0
M  V30 8167 H 778.493 1.20606 3.86311 0
M  V30 8168 H 777.063 0.478302 3.08919 0
M  V30 8169 H 776.283 2.92381 2.644 0
M  V30 8170 H 777.571 3.44432 3.74491 0
M  V30 8171 H 776.969 0.854382 5.59211 0
M  V30 8172 H 775.526 1.36264 6.37397 0
M  V30 8173 N 778.959 -0.83999 1.33349 0
M  V30 8174 C 779.906 -1.94972 1.23509 0
M  V30 8175 C 780.876 -1.65709 0.113967 0
M  V30 8176 O 782.061 -1.88552 0.292045 0
M  V30 8177 C 779.201 -3.30919 0.979105 0
M  V30 8178 C 778.314 -3.72587 2.18639 0
M  V30 8179 C 777.449 -4.97397 1.86465 0
M  V30 8180 C 776.488 -5.31597 3.03432 0
M  V30 8181 N 775.625 -6.47584 2.71254 0
M  V30 8182 H 780.465 -2.0272 2.18423 0
M  V30 8183 H 778.002 -0.992017 1.08616 0
M  V30 8184 H 779.96 -4.09239 0.811126 0
M  V30 8185 H 778.59 -3.22731 0.0667099 0
M  V30 8186 H 777.642 -2.89799 2.46416 0
M  V30 8187 H 778.954 -3.93844 3.06086 0
M  V30 8188 H 778.108 -5.83462 1.66305 0
M  V30 8189 H 776.847 -4.78107 0.96254 0
M  V30 8190 H 775.852 -4.44037 3.24208 0
M  V30 8191 H 777.077 -5.52836 3.94397 0
M  V30 8192 H 775.023 -6.29783 1.836 0
M  V30 8193 H 774.94 -6.68931 3.52231 0
M  V30 8194 H 776.208 -7.36764 2.54558 0
M  V30 8195 N 780.437 -1.16799 -1.0581 0
M  V30 8196 C 781.347 -0.893492 -2.16919 0
M  V30 8197 C 782.363 0.136061 -1.73467 0
M  V30 8198 O 783.539 -0.0417348 -2.01357 0
M  V30 8199 C 780.604 -0.403763 -3.44341 0
M  V30 8200 C 779.665 -1.49914 -4.02274 0
M  V30 8201 C 778.898 -1.03269 -5.23614 0
M  V30 8202 O 779.121 0.115647 -5.70283 0
M  V30 8203 O 778.055 -1.8231 -5.73626 0
M  V30 8204 H 781.881 -1.82274 -2.42919 0
M  V30 8205 H 779.466 -0.948361 -1.1544 0
M  V30 8206 H 781.348 -0.137874 -4.21174 0
M  V30 8207 H 780.023 0.497413 -3.19855 0
M  V30 8208 H 778.93 -1.81883 -3.26909 0
M  V30 8209 H 780.263 -2.3758 -4.31064 0
M  V30 8210 N 781.915 1.24427 -0.967243 0
M  V30 8211 C 782.878 2.23637 -0.501927 0
M  V30 8212 C 783.878 1.55712 0.401283 0
M  V30 8213 O 785.068 1.73085 0.196808 0
M  V30 8214 C 782.2 3.39804 0.273176 0
M  V30 8215 H 783.393 2.66317 -1.37897 0
M  V30 8216 H 780.946 1.37033 -0.751783 0
M  V30 8217 H 781.681 3.02562 1.16733 0
M  V30 8218 H 781.466 3.90303 -0.37498 0
M  V30 8219 H 782.956 4.13443 0.587776 0
M  V30 8220 N 783.393 0.737304 1.3929 0
M  V30 8221 C 784.641 0.285691 2.00071 0
M  V30 8222 C 784.962 -1.13169 1.58801 0
M  V30 8223 O 784.232 -1.77104 0.837308 0
M  V30 8224 H 782.812 0.102638 0.739915 0
M  V30 8225 H 785.474 0.947775 1.70303 0
M  V30 8226 H 784.57 0.335906 3.10287 0
M  V30 8227 N 784.871 -1.49948 0.485112 0
M  V30 8228 C 786.12 -2.01589 -0.066765 0
M  V30 8229 C 786.433 -1.371 -1.39509 0
M  V30 8230 O 787.639 -1.79978 -2.03274 0
M  V30 8231 C 786.095 -3.59501 -0.169476 0
M  V30 8232 C 785.703 -4.32955 1.15126 0
M  V30 8233 C 787.447 -4.19138 -0.672564 0
M  V30 8234 C 785.354 -5.82684 1.01158 0
M  V30 8235 H 784.284 -0.753453 -0.0287259 0
M  V30 8236 H 786.935 -1.72632 0.622132 0
M  V30 8237 H 785.317 -3.85106 -0.922471 0
M  V30 8238 H 786.491 -4.19064 1.9163 0
M  V30 8239 H 784.806 -3.84991 1.58654 0
M  V30 8240 H 787.403 -5.28767 -0.794325 0
M  V30 8241 H 787.746 -3.81447 -1.66745 0
M  V30 8242 H 788.279 -3.97793 0.0234415 0
M  V30 8243 H 785.018 -6.24873 1.98025 0
M  V30 8244 H 784.538 -5.99112 0.287151 0
M  V30 8245 H 786.217 -6.43376 0.683847 0
M  V30 8246 N 786.349 -0.21828 -1.56081 0
M  V30 8247 C 787.579 0.41865 -2.02314 0
M  V30 8248 C 787.987 1.54124 -1.09739 0
M  V30 8249 O 787.33 1.83435 -0.0986829 0
M  V30 8250 C 787.392 1.01439 -3.44892 0
M  V30 8251 C 787.056 0.0276523 -4.56992 0
M  V30 8252 C 788.053 -0.771526 -5.14143 0
M  V30 8253 C 785.738 -0.0901537 -5.02219 0
M  V30 8254 C 787.732 -1.67525 -6.14991 0
M  V30 8255 C 785.419 -0.997411 -6.02905 0
M  V30 8256 C 786.417 -1.78851 -6.59167 0
M  V30 8257 O 786.105 -2.68052 -7.57894 0
M  V30 8258 H 785.837 0.107066 -0.667468 0
M  V30 8259 H 788.391 -0.331191 -2.02712 0
M  V30 8260 H 786.621 1.81326 -3.41552 0
M  V30 8261 H 788.31 1.55838 -3.74792 0
M  V30 8262 H 789.076 -0.690945 -4.80053 0
M  V30 8263 H 784.955 0.515474 -4.58109 0
M  V30 8264 H 788.499 -2.29316 -6.58832 0
M  V30 8265 H 784.396 -1.07902 -6.36418 0
M  V30 8266 H 785.164 -2.6209 -7.75404 0
M  V30 8267 N 787.827 1.57504 0.0551401 0
M  V30 8268 C 789.238 1.76626 0.604979 0
M  V30 8269 C 789.589 0.845978 1.77024 0
M  V30 8270 O 788.714 0.0341936 2.16373 0
M  V30 8271 C 789.309 3.203 1.10425 0
M  V30 8272 C 787.868 3.4071 1.59981 0
M  V30 8273 C 787.015 2.72258 0.526414 0
M  V30 8274 H 789.966 1.57775 -0.171072 0
M  V30 8275 H 789.987 3.25377 1.97256 0
M  V30 8276 H 789.499 3.87255 0.255939 0
M  V30 8277 H 787.6 2.78892 2.47083 0
M  V30 8278 H 787.713 4.49227 1.66528 0
M  V30 8279 H 786.077 2.35283 0.97539 0
M  V30 8280 H 786.86 3.41879 -0.311991 0
M  V30 8281 N 789.305 -0.326896 1.54172 0
M  V30 8282 C 790.721 -0.671034 1.44808 0
M  V30 8283 C 790.921 -1.91781 0.618258 0
M  V30 8284 O 789.977 -2.52235 0.115751 0
M  V30 8285 C 791.29 -0.848147 2.88491 0
M  V30 8286 C 792.838 -0.945702 2.98371 0
M  V30 8287 C 793.313 -1.15501 4.43197 0
M  V30 8288 N 794.804 -1.22183 4.46795 0
M  V30 8289 C 795.539 -1.4016 5.56006 0
M  V30 8290 N 795.035 -1.55202 6.75192 0
M  V30 8291 N 796.828 -1.42841 5.43648 0
M  V30 8292 H 788.979 0.49262 2.06608 0
M  V30 8293 H 791.242 0.158574 0.934643 0
M  V30 8294 H 790.948 -0.00329969 3.517 0
M  V30 8295 H 790.822 -1.74497 3.34411 0
M  V30 8296 H 793.209 -1.78106 2.35292 0
M  V30 8297 H 793.29 -0.0254215 2.55787 0
M  V30 8298 H 792.934 -0.324521 5.06862 0
M  V30 8299 H 792.864 -2.08911 4.83388 0
M  V30 8300 H 795.355 -1.12016 3.60917 0
M  V30 8301 H 795.668 -1.68601 7.54184 0
M  V30 8302 H 794.013 -1.52306 6.78106 0
M  V30 8303 H 797.204 -1.30683 4.49488 0
M  V30 8304 H 797.377 -1.56509 6.28816 0
M  V30 8305 N 790.784 -1.46188 -0.588786 0
M  V30 8306 C 791.731 -1.56292 -1.69828 0
M  V30 8307 C 792.701 -0.407581 -1.61022 0
M  V30 8308 O 793.886 -0.623532 -1.80324 0
M  V30 8309 C 791.026 -1.55341 -3.08161 0
M  V30 8310 C 790.139 -2.81564 -3.27636 0
M  V30 8311 C 789.274 -2.72158 -4.56183 0
M  V30 8312 C 788.313 -3.93348 -4.68981 0
M  V30 8313 N 787.45 -3.82365 -5.88848 0
M  V30 8314 H 792.29 -2.51066 -1.6053 0
M  V30 8315 H 789.827 -1.24562 -0.782474 0
M  V30 8316 H 791.785 -1.52776 -3.88221 0
M  V30 8317 H 790.415 -0.641034 -3.16371 0
M  V30 8318 H 789.467 -2.94136 -2.41223 0
M  V30 8319 H 790.779 -3.714 -3.32962 0
M  V30 8320 H 789.933 -2.67665 -5.44464 0
M  V30 8321 H 788.672 -1.79953 -4.53286 0
M  V30 8322 H 787.677 -3.98181 -3.7912 0
M  V30 8323 H 788.902 -4.86643 -4.73662 0
M  V30 8324 H 786.848 -2.92942 -5.86959 0
M  V30 8325 H 786.765 -4.65851 -5.95415 0
M  V30 8326 H 788.033 -3.81836 -6.79575 0
M  V30 8327 N 792.262 0.832906 -1.33792 0
M  V30 8328 C 793.51 1.58539 -1.25338 0
M  V30 8329 C 793.831 1.94175 0.179204 0
M  V30 8330 O 793.101 1.61458 1.10941 0
M  V30 8331 H 791.681 0.58784 -0.460926 0
M  V30 8332 H 794.343 0.995064 -1.67584 0
M  V30 8333 H 793.439 2.51268 -1.85123 0
M  V30 8334 N 793.74 1.17359 1.05189 0
M  V30 8335 C 794.687 0.890325 2.12936 0
M  V30 8336 C 795.657 -0.165779 1.65271 0
M  V30 8337 O 796.842 -0.0285672 1.90779 0
M  V30 8338 C 793.982 0.409793 3.42658 0
M  V30 8339 C 793.095 1.53002 4.03998 0
M  V30 8340 C 792.23 1.00336 5.21638 0
M  V30 8341 C 791.269 2.09903 5.74984 0
M  V30 8342 N 790.406 1.58714 6.83926 0
M  V30 8343 H 795.246 1.81299 2.36505 0
M  V30 8344 H 792.783 0.904249 1.16025 0
M  V30 8345 H 794.741 0.112743 4.17048 0
M  V30 8346 H 793.371 -0.475915 3.19272 0
M  V30 8347 H 792.423 1.9428 3.27047 0
M  V30 8348 H 793.735 2.3564 4.39631 0
M  V30 8349 H 792.889 0.660158 6.03098 0
M  V30 8350 H 791.628 0.14642 4.8748 0
M  V30 8351 H 790.633 2.45081 4.92154 0
M  V30 8352 H 791.858 2.96013 6.1119 0
M  V30 8353 H 789.804 0.752915 6.51665 0
M  V30 8354 H 789.721 2.34959 7.18561 0
M  V30 8355 H 790.989 1.27287 7.69037 0
M  V30 8356 N 795.218 -1.23913 0.973828 0
M  V30 8357 C 796.15 -2.24397 0.466763 0
M  V30 8358 C 797.163 -1.57078 -0.427828 0
M  V30 8359 O 798.352 -1.76973 -0.233019 0
M  V30 8360 C 795.452 -3.37141 -0.344798 0
M  V30 8361 C 794.625 -4.34037 0.541349 0
M  V30 8362 C 793.684 -5.2576 -0.215243 0
M  V30 8363 O 792.71 -5.67842 0.39291 0
M  V30 8364 N 793.912 -5.60702 -1.5031 0
M  V30 8365 H 796.677 -2.68536 1.33074 0
M  V30 8366 H 794.238 -1.38017 0.846346 0
M  V30 8367 H 796.23 -3.95476 -0.859133 0
M  V30 8368 H 794.8 -2.92239 -1.10974 0
M  V30 8369 H 794.02 -3.74302 1.23659 0
M  V30 8370 H 795.308 -4.95738 1.1455 0
M  V30 8371 H 794.706 -5.28451 -2.01882 0
M  V30 8372 H 793.263 -6.21538 -1.96301 0
M  V30 8373 N 796.696 -0.74468 -1.38897 0
M  V30 8374 C 797.924 -0.307428 -2.04603 0
M  V30 8375 C 798.339 1.06115 -1.56157 0
M  V30 8376 O 797.696 1.67233 -0.730701 0
M  V30 8377 C 797.747 -0.31101 -3.6016 0
M  V30 8378 O 797.468 -1.62557 -4.06825 0
M  V30 8379 C 798.969 0.141213 -4.43075 0
M  V30 8380 H 796.189 -0.132741 -0.657739 0
M  V30 8381 H 798.733 -1.01104 -1.77759 0
M  V30 8382 H 796.888 0.343792 -3.85872 0
M  V30 8383 H 797.302 -1.54569 -5.01207 0
M  V30 8384 H 798.776 0.0875449 -5.51931 0
M  V30 8385 H 799.253 1.18782 -4.22833 0
M  V30 8386 H 799.859 -0.484383 -4.22533 0
M  V30 8387 N 798.174 1.49689 -0.493057 0
M  V30 8388 C 799.59 1.58907 -0.148526 0
M  V30 8389 C 799.79 1.4991 1.34645 0
M  V30 8390 O 798.846 1.36893 2.12171 0
M  V30 8391 C 800.159 2.91996 -0.718265 0
M  V30 8392 C 801.707 3.05443 -0.683658 0
M  V30 8393 C 802.182 4.41138 -1.23132 0
M  V30 8394 N 803.673 4.47608 -1.19167 0
M  V30 8395 C 804.408 5.51038 -1.5857 0
M  V30 8396 N 803.904 6.61612 -2.05528 0
M  V30 8397 N 805.697 5.41706 -1.50036 0
M  V30 8398 H 797.848 1.5378 -1.46511 0
M  V30 8399 H 800.111 0.727996 -0.607228 0
M  V30 8400 H 799.817 3.04123 -1.7664 0
M  V30 8401 H 799.691 3.76798 -0.17419 0
M  V30 8402 H 802.078 2.92949 0.355626 0
M  V30 8403 H 802.159 2.22344 -1.26479 0
M  V30 8404 H 801.803 4.54382 -2.26935 0
M  V30 8405 H 801.733 5.22864 -0.626201 0
M  V30 8406 H 804.224 3.68274 -0.847524 0
M  V30 8407 H 804.537 7.36622 -2.33685 0
M  V30 8408 H 802.882 6.62674 -2.09497 0
M  V30 8409 H 806.073 4.54212 -1.13176 0
M  V30 8410 H 806.246 6.22188 -1.81068 0
M  V30 8411 N 799.652 0.226554 1.55963 0
M  V30 8412 C 800.584 -0.713907 2.17798 0
M  V30 8413 C 801.597 -1.15387 1.14846 0
M  V30 8414 O 802.786 -1.08416 1.41804 0
M  V30 8415 C 799.886 -1.97945 2.75084 0
M  V30 8416 C 799.059 -1.69424 4.03255 0
M  V30 8417 C 798.118 -2.80734 4.45056 0
M  V30 8418 O 797.144 -2.4899 5.11852 0
M  V30 8419 N 798.346 -4.09797 4.11152 0
M  V30 8420 H 801.111 -0.18494 2.99129 0
M  V30 8421 H 798.672 0.0457346 1.61835 0
M  V30 8422 H 800.664 -2.71611 3.00016 0
M  V30 8423 H 799.234 -2.41876 1.98027 0
M  V30 8424 H 798.454 -0.793767 3.86126 0
M  V30 8425 H 799.742 -1.47806 4.86858 0
M  V30 8426 H 799.14 -4.38429 3.57486 0
M  V30 8427 H 797.697 -4.79992 4.40966 0
M  V30 8428 N 801.13 -1.57531 -0.0467866 0
M  V30 8429 C 802.062 -2.02156 -1.08007 0
M  V30 8430 C 803.075 -0.931434 -1.33522 0
M  V30 8431 O 804.264 -1.209 -1.31321 0
M  V30 8432 C 801.364 -2.36675 -2.42566 0
M  V30 8433 C 800.537 -3.67848 -2.36658 0
M  V30 8434 C 799.596 -3.89754 -3.53523 0
M  V30 8435 O 798.622 -4.61036 -3.33818 0
M  V30 8436 N 799.824 -3.34025 -4.74771 0
M  V30 8437 H 802.589 -2.91414 -0.699845 0
M  V30 8438 H 800.15 -1.60185 -0.235041 0
M  V30 8439 H 802.142 -2.48482 -3.19435 0
M  V30 8440 H 800.712 -1.53178 -2.72498 0
M  V30 8441 H 799.932 -3.66561 -1.45005 0
M  V30 8442 H 801.22 -4.53931 -2.29835 0
M  V30 8443 H 800.618 -2.76214 -4.93683 0
M  V30 8444 H 799.175 -3.51241 -5.49066 0
M  V30 8445 N 802.608 0.318715 -1.54344 0
M  V30 8446 C 803.54 1.41364 -1.80413 0
M  V30 8447 C 804.553 1.47627 -0.686294 0
M  V30 8448 O 805.742 1.50264 -0.963486 0
M  V30 8449 C 802.842 2.79867 -1.91123 0
M  V30 8450 C 802.015 2.96749 -3.21339 0
M  V30 8451 C 801.074 4.15642 -3.22689 0
M  V30 8452 O 800.1 4.08571 -3.96306 0
M  V30 8453 N 801.302 5.25416 -2.46817 0
M  V30 8454 H 804.067 1.19363 -2.74905 0
M  V30 8455 H 801.628 0.508722 -1.537 0
M  V30 8456 H 803.62 3.57619 -1.89448 0
M  V30 8457 H 802.19 2.94896 -1.03706 0
M  V30 8458 H 801.41 2.06257 -3.35934 0
M  V30 8459 H 802.698 3.04927 -4.07304 0
M  V30 8460 H 802.096 5.34037 -1.86605 0
M  V30 8461 H 800.653 6.01569 -2.50915 0
M  V30 8462 N 804.086 1.46499 0.581025 0
M  V30 8463 C 804.996 1.59778 1.71779 0
M  V30 8464 C 806.012 0.481223 1.67213 0
M  V30 8465 O 807.188 0.74557 1.87091 0
M  V30 8466 C 804.253 1.58626 3.08283 0
M  V30 8467 C 803.314 2.81527 3.241 0
M  V30 8468 C 802.547 2.80421 4.54092 0
M  V30 8469 O 802.77 1.89262 5.38085 0
M  V30 8470 O 801.704 3.71984 4.73193 0
M  V30 8471 H 805.53 2.55918 1.63523 0
M  V30 8472 H 803.115 1.29311 0.748267 0
M  V30 8473 H 804.997 1.60686 3.89561 0
M  V30 8474 H 803.672 0.656467 3.16973 0
M  V30 8475 H 802.579 2.85021 2.42309 0
M  V30 8476 H 803.912 3.73721 3.20302 0
M  V30 8477 N 805.565 -0.825799 1.34232 0
M  V30 8478 C 806.515 -1.92533 1.22128 0
M  V30 8479 C 807.499 -1.60444 0.121002 0
M  V30 8480 O 808.691 -1.73497 0.350385 0
M  V30 8481 C 805.82 -3.29134 0.975995 0
M  V30 8482 C 804.906 -3.6735 2.11931 0
M  V30 8483 N 805.297 -3.77154 3.37029 0
M  V30 8484 C 803.595 -3.97179 2.02891 0
M  V30 8485 C 804.296 -4.10552 4.12095 0
M  V30 8486 N 803.272 -4.23619 3.40658 0
M  V30 8487 H 807.074 -1.98287 2.16932 0
M  V30 8488 H 804.588 -1.01929 1.26429 0
M  V30 8489 H 806.585 -4.07717 0.870187 0
M  V30 8490 H 805.245 -3.24679 0.036606 0
M  V30 8491 H 806.256 -3.60723 3.71618 0
M  V30 8492 H 802.933 -4.00861 1.16692 0
M  V30 8493 H 804.323 -4.25365 5.2011 0
M  V30 8494 N 807.043 -1.17915 -1.04565 0
M  V30 8495 C 807.975 -0.859359 -2.1248 0
M  V30 8496 C 808.988 0.140922 -1.62189 0
M  V30 8497 O 810.177 -0.0862361 -1.78292 0
M  V30 8498 C 807.277 -0.261811 -3.37887 0
M  V30 8499 C 806.45 -1.30651 -4.17431 0
M  V30 8500 C 805.509 -0.725575 -5.21174 0
M  V30 8501 O 804.535 -1.39901 -5.51739 0
M  V30 8502 N 805.737 0.479351 -5.78517 0
M  V30 8503 H 808.502 -1.78818 -2.40508 0
M  V30 8504 H 806.063 -1.07885 -1.20716 0
M  V30 8505 H 808.055 0.14028 -4.04457 0
M  V30 8506 H 806.625 0.570929 -3.07342 0
M  V30 8507 H 805.845 -1.88412 -3.46258 0
M  V30 8508 H 807.133 -2.01099 -4.67372 0
M  V30 8509 H 806.531 1.04431 -5.55977 0
M  V30 8510 H 805.088 0.823427 -6.46578 0
M  V30 8511 N 808.521 1.23394 -0.980386 0
M  V30 8512 C 809.468 2.24859 -0.520298 0
M  V30 8513 C 810.438 1.60144 0.440821 0
M  V30 8514 O 811.623 1.87593 0.348369 0
M  V30 8515 C 808.763 3.44675 0.171145 0
M  V30 8516 C 807.876 4.23947 -0.830233 0
M  V30 8517 C 807.011 5.31079 -0.113597 0
M  V30 8518 C 806.05 6.02058 -1.10419 0
M  V30 8519 N 805.187 7.00862 -0.416709 0
M  V30 8520 H 810.027 2.63579 -1.39032 0
M  V30 8521 H 807.564 1.29556 -0.696682 0
M  V30 8522 H 809.522 4.13024 0.588838 0
M  V30 8523 H 808.152 3.06755 1.00504 0
M  V30 8524 H 807.204 3.55016 -1.36631 0
M  V30 8525 H 808.516 4.72945 -1.58508 0
M  V30 8526 H 807.67 6.05622 0.36146 0
M  V30 8527 H 806.409 4.83022 0.673854 0
M  V30 8528 H 805.414 5.26307 -1.59 0
M  V30 8529 H 806.639 6.52203 -1.8923 0
M  V30 8530 H 804.585 6.55057 0.351535 0
M  V30 8531 H 804.502 7.47804 -1.11021 0
M  V30 8532 H 805.77 7.79492 0.0359606 0
M  V30 8533 N 809.999 0.752036 1.385 0
M  V30 8534 C 811.229 0.317812 2.04141 0
M  V30 8535 C 811.637 -1.05822 1.56839 0
M  V30 8536 O 810.98 -1.68311 0.736016 0
M  V30 8537 C 811.042 0.260205 3.58557 0
M  V30 8538 C 810.706 1.57753 4.28909 0
M  V30 8539 C 811.703 2.52642 4.54387 0
M  V30 8540 C 809.388 1.84653 4.67128 0
M  V30 8541 C 811.382 3.72653 5.17116 0
M  V30 8542 C 809.069 3.04938 5.29581 0
M  V30 8543 C 810.067 3.98759 5.54509 0
M  V30 8544 O 809.755 5.16929 6.15662 0
M  V30 8545 H 809.487 0.133931 0.6626 0
M  V30 8546 H 812.041 1.02138 1.78205 0
M  V30 8547 H 810.271 -0.499596 3.83459 0
M  V30 8548 H 811.96 -0.144295 4.05643 0
M  V30 8549 H 812.726 2.33135 4.25292 0
M  V30 8550 H 808.605 1.12464 4.47071 0
M  V30 8551 H 812.149 4.45898 5.36489 0
M  V30 8552 H 808.046 3.24339 5.58099 0
M  V30 8553 H 808.814 5.1749 6.3415 0
M  V30 8554 N 811.477 -1.49425 0.500989 0
M  V30 8555 C 812.41 -2.25887 -0.324087 0
M  V30 8556 C 813.388 -1.30469 -0.970388 0
M  V30 8557 O 814.572 -1.59758 -1.00049 0
M  V30 8558 C 811.699 -3.05787 -1.45643 0
M  V30 8559 C 810.745 -4.16359 -0.924508 0
M  V30 8560 S 811.578 -5.35181 0.184707 0
M  V30 8561 C 812.734 -6.18636 -0.950806 0
M  V30 8562 H 812.967 -2.95519 0.324891 0
M  V30 8563 H 810.5 -1.51723 0.286289 0
M  V30 8564 H 812.458 -3.52405 -2.10525 0
M  V30 8565 H 811.119 -2.35624 -2.07703 0
M  V30 8566 H 810.312 -4.71781 -1.77311 0
M  V30 8567 H 809.914 -3.72331 -0.352907 0
M  V30 8568 H 812.206 -6.51581 -1.85603 0
M  V30 8569 H 813.149 -7.06761 -0.435212 0
M  V30 8570 H 813.557 -5.512 -1.21813 0
M  V30 8571 N 812.955 -0.234822 -1.55841 0
M  V30 8572 C 814.201 0.393843 -1.98939 0
M  V30 8573 C 814.534 1.58466 -1.1226 0
M  V30 8574 O 813.809 1.93635 -0.183242 0
M  V30 8575 C 814.092 0.815492 -3.50745 0
M  V30 8576 C 813.945 -0.379878 -4.48193 0
M  V30 8577 C 815.264 1.66687 -4.07312 0
M  V30 8578 H 812.383 0.141681 -0.723253 0
M  V30 8579 H 815.025 -0.333716 -1.87046 0
M  V30 8580 H 813.175 1.43541 -3.6101 0
M  V30 8581 H 814.847 -1.0182 -4.49923 0
M  V30 8582 H 813.09 -1.02507 -4.21515 0
M  V30 8583 H 813.761 -0.0417069 -5.51984 0
M  V30 8584 H 816.237 1.14369 -4.00074 0
M  V30 8585 H 815.113 1.93078 -5.13821 0
M  V30 8586 H 815.374 2.63468 -3.55017 0
M  V30 8587 N 814.433 1.57553 0.0384317 0
M  V30 8588 C 815.844 1.77258 0.586211 0
M  V30 8589 C 816.195 0.864706 1.76117 0
M  V30 8590 O 815.32 0.057141 2.16325 0
M  V30 8591 C 815.915 3.21453 1.07021 0
M  V30 8592 C 814.474 3.42387 1.56358 0
M  V30 8593 C 813.621 2.72801 0.497508 0
M  V30 8594 H 816.572 1.57585 -0.187796 0
M  V30 8595 H 816.593 3.27451 1.93794 0
M  V30 8596 H 816.105 3.87505 0.214851 0
M  V30 8597 H 814.206 2.81497 2.44111 0
M  V30 8598 H 814.319 4.50968 1.61754 0
M  V30 8599 H 812.683 2.36305 0.95038 0
M  V30 8600 H 813.466 3.41529 -0.348234 0
M  V30 8601 N 815.911 -0.310526 1.54511 0
M  V30 8602 C 816.841 -1.38757 1.878 0
M  V30 8603 C 817.822 -1.53353 0.735991 0
M  V30 8604 O 819.007 -1.67018 0.990887 0
M  V30 8605 C 816.137 -2.75327 2.11689 0
M  V30 8606 C 815.091 -2.75506 3.27537 0
M  V30 8607 C 814.417 -4.15275 3.36824 0
M  V30 8608 C 815.717 -2.38093 4.64875 0
M  V30 8609 H 817.411 -1.11146 2.78005 0
M  V30 8610 H 814.957 -0.533232 1.33763 0
M  V30 8611 H 816.91 -3.50752 2.33562 0
M  V30 8612 H 815.634 -3.04443 1.18245 0
M  V30 8613 H 814.293 -2.02538 3.05572 0
M  V30 8614 H 813.941 -4.41553 2.40915 0
M  V30 8615 H 813.641 -4.16299 4.14692 0
M  V30 8616 H 815.165 -4.92493 3.60947 0
M  V30 8617 H 816.579 -3.03232 4.86542 0
M  V30 8618 H 814.976 -2.50345 5.45387 0
M  V30 8619 H 816.046 -1.33227 4.66239 0
M  V30 8620 N 817.389 -1.46805 -0.573248 0
M  V30 8621 C 818.321 -1.54127 -1.6964 0
M  V30 8622 C 819.334 -0.428778 -1.57052 0
M  V30 8623 O 820.523 -0.697612 -1.64303 0
M  V30 8624 C 817.623 -1.41438 -3.07975 0
M  V30 8625 C 816.796 -2.66974 -3.46474 0
M  V30 8626 C 815.855 -2.48349 -4.63906 0
M  V30 8627 O 814.881 -3.22109 -4.69292 0
M  V30 8628 N 816.083 -1.55129 -5.59388 0
M  V30 8629 H 818.848 -2.50971 -1.6381 0
M  V30 8630 H 816.409 -1.42981 -0.759479 0
M  V30 8631 H 818.401 -1.26737 -3.84343 0
M  V30 8632 H 816.971 -0.527388 -3.08119 0
M  V30 8633 H 816.191 -2.9655 -2.59715 0
M  V30 8634 H 817.479 -3.50347 -3.68964 0
M  V30 8635 H 816.877 -0.94324 -5.57781 0
M  V30 8636 H 815.434 -1.46387 -6.35149 0
M  V30 8637 N 818.867 0.818669 -1.34668 0
M  V30 8638 C 819.83 1.9114 -1.26483 0
M  V30 8639 C 820.83 1.598 -0.179044 0
M  V30 8640 O 822.02 1.6876 -0.431952 0
M  V30 8641 C 819.152 3.27285 -0.95381 0
M  V30 8642 H 820.345 1.9982 -2.23634 0
M  V30 8643 H 817.898 1.01314 -1.19018 0
M  V30 8644 H 818.633 3.24297 0.0143428 0
M  V30 8645 H 818.418 3.51416 -1.73924 0
M  V30 8646 H 819.908 4.07299 -0.921827 0
M  V30 8647 N 820.346 1.18468 1.03938 0
M  V30 8648 C 821.571 1.00638 1.81347 0
M  V30 8649 C 821.996 -0.440477 1.8287 0
M  V30 8650 O 821.354 -1.31609 1.24695 0
M  V30 8651 C 821.402 1.5673 3.24759 0
M  V30 8652 O 820.506 0.789517 4.04772 0
M  V30 8653 H 819.847 0.356432 0.560225 0
M  V30 8654 H 822.377 1.57253 1.30891 0
M  V30 8655 H 822.387 1.59496 3.75533 0
M  V30 8656 H 821.062 2.62043 3.22965 0
M  V30 8657 H 819.639 0.834267 3.63448 0
M  V30 8658 N 821.824 -1.22873 0.986916 0
M  V30 8659 C 822.787 -2.2281 0.537442 0
M  V30 8660 C 823.787 -1.56331 -0.37646 0
M  V30 8661 O 824.977 -1.73376 -0.169247 0
M  V30 8662 C 822.109 -3.40195 -0.219082 0
M  V30 8663 H 823.302 -2.64089 1.42116 0
M  V30 8664 H 820.855 -1.35819 0.773488 0
M  V30 8665 H 821.59 -3.04381 -1.11905 0
M  V30 8666 H 821.375 -3.89657 0.437026 0
M  V30 8667 H 822.865 -4.14326 -0.521926 0
M  V30 8668 N 823.302 -0.75937 -1.38099 0
M  V30 8669 C 824.234 -0.0956547 -2.29 0
M  V30 8670 C 825.247 0.677561 -1.4803 0
M  V30 8671 O 826.436 0.517696 -1.70828 0
M  V30 8672 C 823.536 0.88844 -3.27047 0
M  V30 8673 C 822.709 0.171652 -4.37063 0
M  V30 8674 C 821.768 1.06733 -5.15262 0
M  V30 8675 O 820.794 0.535698 -5.66674 0
M  V30 8676 N 821.996 2.39486 -5.28797 0
M  V30 8677 H 824.761 -0.876354 -2.86601 0
M  V30 8678 H 822.322 -0.61065 -1.49942 0
M  V30 8679 H 824.314 1.49079 -3.76241 0
M  V30 8680 H 822.884 1.57018 -2.70304 0
M  V30 8681 H 822.104 -0.611473 -3.89429 0
M  V30 8682 H 823.392 -0.324121 -5.07767 0
M  V30 8683 H 822.79 2.85127 -4.88589 0
M  V30 8684 H 821.347 2.94758 -5.81344 0
M  V30 8685 N 824.78 1.49157 -0.508906 0
M  V30 8686 C 825.69 2.33045 0.269656 0
M  V30 8687 C 826.706 1.45143 0.959662 0
M  V30 8688 O 827.882 1.78155 0.939295 0
M  V30 8689 C 824.947 3.20772 1.31554 0
M  V30 8690 C 824.008 4.24531 0.638131 0
M  V30 8691 C 823.241 5.08065 1.63418 0
M  V30 8692 O 823.464 4.93238 2.86483 0
M  V30 8693 O 822.398 5.90117 1.18516 0
M  V30 8694 H 826.224 3.00821 -0.417183 0
M  V30 8695 H 823.809 1.46938 -0.270119 0
M  V30 8696 H 825.691 3.75095 1.92047 0
M  V30 8697 H 824.366 2.55681 1.98516 0
M  V30 8698 H 823.273 3.74099 -0.00674357 0
M  V30 8699 H 824.606 4.92199 0.0108155 0
M  V30 8700 N 826.258 0.243083 1.55714 0
M  V30 8701 C 827.205 -0.658078 2.21219 0
M  V30 8702 C 828.175 -1.1742 1.17481 0
M  V30 8703 O 829.36 -1.22937 1.45915 0
M  V30 8704 C 826.5 -1.85104 2.91257 0
M  V30 8705 C 825.613 -1.3718 4.09641 0
M  V30 8706 C 824.748 -2.52403 4.67404 0
M  V30 8707 C 823.787 -2.01321 5.78045 0
M  V30 8708 N 822.924 -3.09896 6.30007 0
M  V30 8709 H 827.764 -0.0927854 2.97856 0
M  V30 8710 H 825.301 -0.0340375 1.47061 0
M  V30 8711 H 827.259 -2.55179 3.3006 0
M  V30 8712 H 825.889 -2.38887 2.17101 0
M  V30 8713 H 824.941 -0.565232 3.76177 0
M  V30 8714 H 826.253 -0.957409 4.89525 0
M  V30 8715 H 825.407 -3.30525 5.08761 0
M  V30 8716 H 824.146 -2.97142 3.86728 0
M  V30 8717 H 823.151 -1.21667 5.36169 0
M  V30 8718 H 824.376 -1.57556 6.6057 0
M  V30 8719 H 822.322 -3.54077 5.52237 0
M  V30 8720 H 822.239 -2.72776 7.05074 0
M  V30 8721 H 823.507 -3.8809 6.76023 0
M  V30 8722 N 827.736 -1.57571 -0.0300757 0
M  V30 8723 C 828.684 -2.0758 -1.04944 0
M  V30 8724 C 829.678 -0.989384 -1.37505 0
M  V30 8725 O 830.884 -1.17427 -1.36422 0
M  V30 8726 H 827.259 -0.662419 -0.355956 0
M  V30 8727 H 829.23 -2.92268 -0.601848 0
M  V30 8728 C 827.979 -2.5698 -2.34215 0
M  V30 8729 H 827.302 -3.40193 -2.10021 0
M  V30 8730 H 828.742 -2.95682 -3.03888 0
M  V30 8731 C 827.201 -1.47059 -3.03109 0
M  V30 8732 O 827.731 -0.83625 -3.92899 0
M  V30 8733 N 825.937 -1.20538 -2.64422 0
M  V30 8734 H 825.484 -1.72305 -1.9149 0
M  V30 8735 H 825.442 -0.472045 -3.10836 0
M  V30 8736 N 829.214 0.302327 -1.54673 0
M  V30 8737 C 830.462 1.03565 -1.73547 0
M  V30 8738 C 830.783 1.87843 -0.523448 0
M  V30 8739 O 830.053 1.90367 0.462295 0
M  V30 8740 H 828.633 0.385358 -0.639928 0
M  V30 8741 H 831.295 0.333632 -1.92023 0
M  V30 8742 H 830.391 1.68952 -2.62415 0
M  V30 8743 N 830.692 1.47107 0.565454 0
M  V30 8744 C 831.622 1.61846 1.68309 0
M  V30 8745 C 832.603 0.468159 1.63531 0
M  V30 8746 O 833.788 0.696504 1.8128 0
M  V30 8747 C 830.918 1.62474 3.06952 0
M  V30 8748 C 829.872 2.76649 3.26572 0
M  V30 8749 C 829.198 2.62345 4.65917 0
M  V30 8750 C 830.498 4.18319 3.12741 0
M  V30 8751 H 832.192 2.55407 1.5623 0
M  V30 8752 H 829.738 1.22916 0.750179 0
M  V30 8753 H 831.691 1.71378 3.84977 0
M  V30 8754 H 830.415 0.654692 3.19971 0
M  V30 8755 H 829.074 2.67242 2.50952 0
M  V30 8756 H 828.722 1.63386 4.75725 0
M  V30 8757 H 828.422 3.38936 4.79996 0
M  V30 8758 H 829.946 2.73165 5.46089 0
M  V30 8759 H 831.36 4.28745 3.80593 0
M  V30 8760 H 829.757 4.95632 3.38333 0
M  V30 8761 H 830.827 4.37263 2.09592 0
M  V30 8762 O 832.209 -0.709987 1.45057 0
M  V30 8763 H 832.9 -1.36112 1.37816 0
M  V30 END ATOM
M  V30 BEGIN BOND
M  V30 END BOND
M  V30 END CTAB
M  END
$$$$
