drugbank_target|Q4VB53 IL13 protein (DB11914)
 OpenBabel12092120323D

  0  0  0     0  0            999 V3000
M  V30 BEGIN CTAB
M  V30 COUNTS 1282 1293 0 0 0
M  V30 BEGIN ATOM
M  V30 1 H -0.908 1.98254 -0.117106 0
M  V30 2 N 0 1.576 0 0
M  V30 3 C 0.933 2.03868 1.02534 0
M  V30 4 C 1.911 0.928543 1.3348 0
M  V30 5 O 3.095 1.19667 1.45644 0
M  V30 6 C 0.222 2.43627 2.35294 0
M  V30 7 C -0.732 3.65373 2.2001 0
M  V30 8 S 0.101 5.13292 1.52614 0
M  V30 9 C 1.257 5.56322 2.86805 0
M  V30 10 H 1.49 2.90518 0.631377 0
M  V30 11 H -0.977 1.52953 0.210867 0
M  V30 12 H 0.981 2.67203 3.11629 0
M  V30 13 H -0.358 1.57376 2.7183 0
M  V30 14 H -1.165 3.90944 3.18086 0
M  V30 15 H -1.563 3.418 1.51819 0
M  V30 16 H 0.729 5.58782 3.83104 0
M  V30 17 H 1.672 6.56266 2.65933 0
M  V30 18 H 2.08 4.83886 2.90714 0
M  V30 19 N 1.4781 -0.272755 1.55222 0
M  V30 20 C 2.7241 -1.00581 1.761 0
M  V30 21 C 3.0571 -1.85932 0.560625 0
M  V30 22 O 2.3321 -1.89416 -0.441801 0
M  V30 23 C 2.6151 -1.88816 3.06628 0
M  V30 24 C 2.4681 -1.06457 4.37021 0
M  V30 25 C 3.7871 -2.8752 3.33197 0
M  V30 26 H 0.9061 -0.364244 0.640699 0
M  V30 27 H 3.5481 -0.278189 1.87952 0
M  V30 28 H 1.6981 -2.50856 2.96654 0
M  V30 29 H 3.3701 -0.464863 4.58952 0
M  V30 30 H 1.6131 -0.368043 4.32236 0
M  V30 31 H 2.2841 -1.71514 5.24678 0
M  V30 32 H 4.7601 -2.35615 3.42965 0
M  V30 33 H 3.6361 -3.46399 4.25792 0
M  V30 34 H 3.8971 -3.62657 2.52849 0
M  V30 35 N 2.9562 -1.48159 -0.537278 0
M  V30 36 C 4.2022 -1.57015 -1.29297 0
M  V30 37 C 4.5572 -0.237791 -1.90925 0
M  V30 38 O 3.8502 0.758621 -1.75942 0
M  V30 39 C 4.0442 -2.63956 -2.40961 0
M  V30 40 C 3.8732 -4.07461 -1.90278 0
M  V30 41 C 2.6432 -4.74685 -1.73213 0
M  V30 42 C 4.8412 -4.93858 -1.43556 0
M  V30 43 N 2.8232 -6.02633 -1.17078 0
M  V30 44 C 4.1942 -6.11993 -0.993204 0
M  V30 45 C 6.2492 -4.80141 -1.31792 0
M  V30 46 C 4.9522 -7.17923 -0.444872 0
M  V30 47 C 6.9782 -5.86186 -0.783585 0
M  V30 48 C 6.3402 -7.03524 -0.351261 0
M  V30 49 H 2.4392 -0.629154 -0.464423 0
M  V30 50 H 5.0232 -1.85006 -0.606705 0
M  V30 51 H 3.1942 -2.378 -3.07093 0
M  V30 52 H 4.9262 -2.62539 -3.07986 0
M  V30 53 H 1.6812 -4.30902 -1.9652 0
M  V30 54 H 2.1052 -6.7085 -0.910421 0
M  V30 55 H 6.7472 -3.89772 -1.63823 0
M  V30 56 H 4.4652 -8.08022 -0.11222 0
M  V30 57 H 8.0512 -5.77624 -0.695835 0
M  V30 58 H 6.9312 -7.8418 0.055777 0
M  V30 59 N 4.4343 0.785586 -1.36625 0
M  V30 60 C 5.6593 1.57963 -1.34397 0
M  V30 61 C 6.0843 1.87964 0.071526 0
M  V30 62 O 5.4423 1.48182 1.0446 0
M  V30 63 C 5.4903 2.87511 -2.17646 0
M  V30 64 O 4.5943 3.81281 -1.57158 0
M  V30 65 H 3.9353 0.479014 -0.459828 0
M  V30 66 H 6.4653 0.973411 -1.79961 0
M  V30 67 H 6.4753 3.36745 -2.30362 0
M  V30 68 H 5.1503 2.65002 -3.20541 0
M  V30 69 H 3.7273 3.39885 -1.53403 0
M  V30 70 N 5.9124 1.20967 1.01018 0
M  V30 71 C 7.1614 1.01796 1.74128 0
M  V30 72 C 7.4744 -0.449691 1.90361 0
M  V30 73 O 8.6804 -0.76068 2.60626 0
M  V30 74 C 7.1364 1.7727 3.13215 0
M  V30 75 C 6.7444 3.28171 3.04972 0
M  V30 76 C 8.4884 1.66489 3.90489 0
M  V30 77 C 6.3954 3.96156 4.39107 0
M  V30 78 H 5.3254 0.377276 0.652824 0
M  V30 79 H 7.9764 1.44651 1.12909 0
M  V30 80 H 6.3584 1.27205 3.75013 0
M  V30 81 H 7.5324 3.85499 2.52443 0
M  V30 82 H 5.8474 3.39437 2.41188 0
M  V30 83 H 8.4444 2.14617 4.89738 0
M  V30 84 H 8.7874 0.6222 4.11624 0
M  V30 85 H 9.3204 2.14003 3.35332 0
M  V30 86 H 6.0594 5.00604 4.23174 0
M  V30 87 H 5.5794 3.43617 4.91617 0
M  V30 88 H 7.2584 4.00774 5.07926 0
M  V30 89 N 7.3905 -1.2043 1.01659 0
M  V30 90 C 8.3385 -2.25249 0.580143 0
M  V30 91 C 9.3325 -1.65057 -0.381115 0
M  V30 92 O 10.5385 -1.78241 -0.251039 0
M  V30 93 H 6.9135 -0.732695 0.169299 0
M  V30 94 H 8.8845 -2.59389 1.47512 0
M  V30 95 C 7.6335 -3.47638 -0.065788 0
M  V30 96 H 6.9565 -3.94233 0.664874 0
M  V30 97 H 8.3965 -4.2268 -0.334282 0
M  V30 98 C 6.8555 -3.10447 -1.3086 0
M  V30 99 O 7.3855 -3.21981 -2.4019 0
M  V30 100 N 5.5915 -2.64996 -1.1927 0
M  V30 101 H 5.1385 -2.55811 -0.303064 0
M  V30 102 H 5.0965 -2.40482 -2.02523 0
M  V30 103 N 8.8686 -0.792821 -1.36206 0
M  V30 104 C 9.7986 -0.207853 -2.32573 0
M  V30 105 C 10.7796 0.659055 -1.56813 0
M  V30 106 O 11.9646 0.592176 -1.84951 0
M  V30 107 C 9.0946 0.655449 -3.41059 0
M  V30 108 C 8.0486 -0.111842 -4.27854 0
M  V30 109 C 7.3746 0.872274 -5.27537 0
M  V30 110 C 8.6746 -1.30299 -5.05786 0
M  V30 111 H 10.3686 -1.01294 -2.81744 0
M  V30 112 H 7.9146 -0.48854 -1.3546 0
M  V30 113 H 9.8676 1.07464 -4.07467 0
M  V30 114 H 8.5916 1.49328 -2.90463 0
M  V30 115 H 7.2506 -0.512053 -3.63006 0
M  V30 116 H 6.8986 1.70523 -4.73214 0
M  V30 117 H 6.5986 0.363291 -5.86476 0
M  V30 118 H 8.1226 1.28996 -5.96818 0
M  V30 119 H 9.5366 -0.959379 -5.65216 0
M  V30 120 H 7.9336 -1.7455 -5.74154 0
M  V30 121 H 9.0036 -2.09663 -4.37229 0
M  V30 122 N 10.3467 1.47872 -0.545128 0
M  V30 123 C 11.5747 2.06889 -0.021084 0
M  V30 124 C 11.9897 1.39955 1.2672 0
M  V30 125 O 11.3467 0.492036 1.75742 0
M  V30 126 C 11.3977 3.60996 0.190817 0
M  V30 127 O 11.1187 4.25419 -1.04644 0
M  V30 128 C 12.6197 4.36849 0.753521 0
M  V30 129 H 9.8397 0.669785 -0.0403635 0
M  V30 130 H 12.3837 1.90049 -0.755095 0
M  V30 131 H 10.5387 3.77391 0.87492 0
M  V30 132 H 10.9527 5.17785 -0.836611 0
M  V30 133 H 12.4267 5.45399 0.851139 0
M  V30 134 H 12.9037 4.02306 1.762 0
M  V30 135 H 13.5097 4.25169 0.105503 0
M  V30 136 N 11.8248 0.280983 1.55075 0
M  V30 137 C 12.7878 -0.590896 2.21452 0
M  V30 138 C 13.7878 -1.07682 1.19421 0
M  V30 139 O 14.9778 -0.97605 1.44288 0
M  V30 140 C 12.1098 -1.81587 2.88511 0
M  V30 141 H 13.3028 -0.0112554 2.99898 0
M  V30 142 H 10.8558 0.0316438 1.56268 0
M  V30 143 H 11.5908 -2.43587 2.14093 0
M  V30 144 H 11.3758 -1.4753 3.63287 0
M  V30 145 H 12.8658 -2.43575 3.39206 0
M  V30 146 N 13.3029 -1.57598 0.00835791 0
M  V30 147 C 14.5509 -1.90551 -0.6734 0
M  V30 148 C 14.8719 -0.883301 -1.73847 0
M  V30 149 O 14.1419 0.0781442 -1.95744 0
M  V30 150 H 12.7219 -0.703312 -0.251717 0
M  V30 151 H 15.3839 -1.94833 0.0512592 0
M  V30 152 H 14.4799 -2.9056 -1.13935 0
M  V30 153 N 14.781 0.264519 -1.55364 0
M  V30 154 C 15.714 1.35297 -1.83766 0
M  V30 155 C 16.692 1.47171 -0.691336 0
M  V30 156 O 17.876 1.63663 -0.935238 0
M  V30 157 C 15.003 2.72847 -2.00679 0
M  V30 158 C 14.049 2.78214 -3.23263 0
M  V30 159 S 14.882 2.36601 -4.80396 0
M  V30 160 C 16.038 3.7611 -5.00292 0
M  V30 161 H 16.271 1.11003 -2.758 0
M  V30 162 H 13.804 0.464596 -1.47244 0
M  V30 163 H 15.762 3.52057 -2.11108 0
M  V30 164 H 14.423 2.94388 -1.09518 0
M  V30 165 H 13.616 3.7919 -3.3201 0
M  V30 166 H 13.218 2.07034 -3.11469 0
M  V30 167 H 15.51 4.71457 -4.86554 0
M  V30 168 H 16.453 3.7231 -6.02321 0
M  V30 169 H 16.861 3.67806 -4.28228 0
M  V30 170 N 16.2591 1.48442 0.529413 0
M  V30 171 C 17.4891 1.59919 1.30804 0
M  V30 172 C 17.8971 0.258792 1.87422 0
M  V30 173 O 17.2401 -0.762096 1.67146 0
M  V30 174 C 17.3021 2.58693 2.49636 0
M  V30 175 C 16.9661 4.03745 2.14101 0
M  V30 176 C 17.9631 4.9141 1.6974 0
M  V30 177 C 15.6481 4.49285 2.24607 0
M  V30 178 C 17.6421 6.22645 1.36351 0
M  V30 179 C 15.3291 5.8054 1.9083 0
M  V30 180 C 16.3271 6.67043 1.46773 0
M  V30 181 O 16.0151 7.95856 1.1344 0
M  V30 182 H 15.7471 0.541981 0.404021 0
M  V30 183 H 18.3011 1.95 0.645309 0
M  V30 184 H 16.5311 2.18734 3.18892 0
M  V30 185 H 18.2201 2.59999 3.11698 0
M  V30 186 H 18.9861 4.57465 1.61094 0
M  V30 187 H 14.8651 3.82142 2.57854 0
M  V30 188 H 18.4091 6.90119 1.01891 0
M  V30 189 H 14.3061 6.14022 1.99117 0
M  V30 190 H 15.0741 8.08613 1.26832 0
M  V30 191 N 17.7372 -0.778329 1.37039 0
M  V30 192 C 18.9772 -1.54973 1.33276 0
M  V30 193 C 19.3412 -1.91816 -0.0839376 0
M  V30 194 O 20.5422 -2.6767 -0.246228 0
M  V30 195 C 18.8132 -2.78517 2.23971 0
M  V30 196 S 20.3722 -3.6865 2.37997 0
M  V30 197 H 17.1902 -0.530639 0.473226 0
M  V30 198 H 19.7922 -0.915806 1.72723 0
M  V30 199 H 18.4962 -2.4952 3.25835 0
M  V30 200 H 18.0272 -3.46875 1.85584 0
M  V30 201 H 20.0422 -4.70182 1.58567 0
M  V30 202 N 19.2153 -1.21501 -1.00376 0
M  V30 203 C 20.1783 -0.976927 -2.07337 0
M  V30 204 C 21.1783 0.0525322 -1.60714 0
M  V30 205 O 22.3683 -0.184869 -1.73216 0
M  V30 206 C 19.5003 -0.473423 -3.37597 0
M  V30 207 H 20.6933 -1.92587 -2.29892 0
M  V30 208 H 18.2463 -1.03217 -1.17371 0
M  V30 209 H 18.9813 0.480379 -3.20722 0
M  V30 210 H 18.7663 -1.216 -3.72768 0
M  V30 211 H 20.2563 -0.32675 -4.1632 0
M  V30 212 N 20.6934 1.19889 -1.02296 0
M  V30 213 C 21.6564 2.21116 -0.603351 0
M  V30 214 C 22.6564 1.5738 0.329884 0
M  V30 215 O 23.8464 1.73802 0.117702 0
M  V30 216 C 20.9784 3.40696 0.117992 0
M  V30 217 H 22.1714 2.59754 -1.49893 0
M  V30 218 H 19.7244 1.33463 -0.813468 0
M  V30 219 H 20.4594 3.07569 1.0282 0
M  V30 220 H 20.2444 3.88188 -0.552511 0
M  V30 221 H 21.7344 4.15692 0.398696 0
M  V30 222 N 22.1715 0.800033 1.35784 0
M  V30 223 C 23.1015 0.220184 2.3246 0
M  V30 224 C 24.0825 -0.65073 1.57161 0
M  V30 225 O 25.2675 -0.582359 1.85263 0
M  V30 226 C 22.3975 -0.637353 3.41402 0
M  V30 227 C 21.3515 0.134531 4.27789 0
M  V30 228 C 20.6775 -0.844285 5.27992 0
M  V30 229 C 21.9775 1.32979 5.05088 0
M  V30 230 H 23.6715 1.02787 2.81203 0
M  V30 231 H 21.2175 0.495717 1.35199 0
M  V30 232 H 23.1705 -1.05302 4.08031 0
M  V30 233 H 21.8945 -1.47785 2.91251 0
M  V30 234 H 20.5535 0.531296 3.6273 0
M  V30 235 H 20.2015 -1.68011 4.74111 0
M  V30 236 H 19.9015 -0.332184 5.8666 0
M  V30 237 H 21.4255 -1.2583 5.97494 0
M  V30 238 H 22.8395 0.98934 5.64699 0
M  V30 239 H 21.2365 1.77593 5.7322 0
M  V30 240 H 22.3065 2.11978 4.36111 0
M  V30 241 N 23.6496 -1.47581 0.552962 0
M  V30 242 C 24.5596 -2.33743 -0.200353 0
M  V30 243 C 25.5756 -1.47928 -0.916151 0
M  V30 244 O 26.7516 -1.80865 -0.885993 0
M  V30 245 C 23.8166 -3.24536 -1.21973 0
M  V30 246 C 22.8776 -4.26238 -0.511819 0
M  V30 247 C 22.1106 -5.12693 -1.48263 0
M  V30 248 O 22.3336 -5.01525 -2.71714 0
M  V30 249 O 21.2676 -5.93375 -1.00945 0
M  V30 250 H 25.0936 -2.9945 0.506304 0
M  V30 251 H 22.6786 -1.46071 0.313622 0
M  V30 252 H 24.5606 -3.80631 -1.80827 0
M  V30 253 H 23.2356 -2.61462 -1.90839 0
M  V30 254 H 22.1426 -3.73914 0.117799 0
M  V30 255 H 23.4756 -4.92014 0.135308 0
M  V30 256 N 25.1277 -0.289203 -1.54924 0
M  V30 257 C 26.3527 0.329299 -2.04769 0
M  V30 258 C 26.7777 1.4763 -1.16564 0
M  V30 259 O 26.1357 1.80527 -0.167186 0
M  V30 260 C 26.1837 0.774438 -3.52186 0
M  V30 261 O 25.2877 1.88038 -3.67036 0
M  V30 262 H 24.6287 0.0659259 -0.660719 0
M  V30 263 H 27.1587 -0.42761 -2.00082 0
M  V30 264 H 27.1687 1.06642 -3.93816 0
M  V30 265 H 25.8437 -0.0646707 -4.1585 0
M  V30 266 H 24.4207 1.58985 -3.3731 0
M  V30 267 N 26.6058 1.57591 -0.0167156 0
M  V30 268 C 27.5358 2.12496 0.967858 0
M  V30 269 C 28.5168 1.03807 1.34752 0
M  V30 270 O 29.7018 1.31577 1.42833 0
M  V30 271 C 26.8318 2.64194 2.25431 0
M  V30 272 C 25.7858 3.77559 2.01576 0
M  V30 273 C 25.1118 4.15636 3.36379 0
M  V30 274 C 26.4118 5.04151 1.36489 0
M  V30 275 H 28.1058 2.95013 0.510643 0
M  V30 276 H 25.6518 1.41915 0.244181 0
M  V30 277 H 27.6048 3.01236 2.94678 0
M  V30 278 H 26.3288 1.78821 2.73296 0
M  V30 279 H 24.9878 3.40937 1.34751 0
M  V30 280 H 24.6358 3.27263 3.81979 0
M  V30 281 H 24.3358 4.92022 3.21229 0
M  V30 282 H 25.8598 4.5525 4.06915 0
M  V30 283 H 27.2738 5.38857 1.95718 0
M  V30 284 H 25.6708 5.85453 1.31776 0
M  V30 285 H 26.7408 4.83733 0.336219 0
M  V30 286 N 28.0839 -0.256276 1.55502 0
M  V30 287 C 29.3329 -0.983486 1.76098 0
M  V30 288 C 29.6459 -1.86837 0.578896 0
M  V30 289 O 30.8519 -2.63163 0.667648 0
M  V30 290 C 29.3079 -1.79868 3.1173 0
M  V30 291 C 28.9159 -0.961648 4.37557 0
M  V30 292 C 30.6599 -2.51919 3.41668 0
M  V30 293 C 28.5669 -1.77219 5.64223 0
M  V30 294 H 27.4969 -0.370936 0.656447 0
M  V30 295 H 30.1479 -0.238492 1.81944 0
M  V30 296 H 28.5299 -2.58527 2.99966 0
M  V30 297 H 29.7039 -0.218048 4.60284 0
M  V30 298 H 28.0189 -0.354913 4.14885 0
M  V30 299 H 30.6159 -3.12998 4.33516 0
M  V30 300 H 30.9589 -3.23059 2.62562 0
M  V30 301 H 31.4919 -1.80278 3.54605 0
M  V30 302 H 28.2309 -1.10471 6.46124 0
M  V30 303 H 27.7509 -2.49132 5.45613 0
M  V30 304 H 29.4299 -2.34169 6.03137 0
M  V30 305 N 29.562 -1.4872 -0.521534 0
M  V30 306 C 30.51 -1.64328 -1.64618 0
M  V30 307 C 31.504 -0.50953 -1.61555 0
M  V30 308 O 32.71 -0.688525 -1.66311 0
M  V30 309 H 29.085 -0.517805 -0.545328 0
M  V30 310 H 31.056 -2.58767 -1.48601 0
M  V30 311 C 29.805 -1.70805 -3.02855 0
M  V30 312 H 29.128 -2.5741 -3.05909 0
M  V30 313 H 30.568 -1.85766 -3.81139 0
M  V30 314 C 29.027 -0.448479 -3.33902 0
M  V30 315 O 29.557 0.434928 -3.99339 0
M  V30 316 N 27.763 -0.317616 -2.88859 0
M  V30 317 H 27.31 -1.03748 -2.35784 0
M  V30 318 H 27.268 0.524113 -3.10001 0
M  V30 319 N 31.0401 0.771051 -1.3745 0
M  V30 320 C 32.2861 1.5319 -1.32894 0
M  V30 321 C 32.6191 1.94008 0.0862511 0
M  V30 322 O 31.8941 1.64124 1.04373 0
M  V30 323 C 32.1771 2.79648 -2.26868 0
M  V30 324 C 32.0301 2.45079 -3.77169 0
M  V30 325 C 33.3491 3.81583 -2.19277 0
M  V30 326 H 30.4681 0.555744 -0.484064 0
M  V30 327 H 33.1101 0.884492 -1.68157 0
M  V30 328 H 31.2601 3.34891 -1.96926 0
M  V30 329 H 32.9321 1.95745 -4.1771 0
M  V30 330 H 31.1751 1.77767 -3.95704 0
M  V30 331 H 31.8461 3.35478 -4.38359 0
M  V30 332 H 34.3221 3.35835 -2.45671 0
M  V30 333 H 33.1981 4.67787 -2.87171 0
M  V30 334 H 33.4591 4.25897 -1.18592 0
M  V30 335 N 32.5182 1.22032 0.997298 0
M  V30 336 C 33.7432 1.06921 1.77715 0
M  V30 337 C 34.1682 -0.376226 1.84299 0
M  V30 338 O 33.5262 -1.27165 1.29223 0
M  V30 339 C 33.5742 1.67996 3.19076 0
M  V30 340 O 32.6782 0.930653 4.01762 0
M  V30 341 H 32.0192 0.375814 0.547412 0
M  V30 342 H 34.5492 1.61737 1.25309 0
M  V30 343 H 34.5592 1.72538 3.69723 0
M  V30 344 H 33.2342 2.73182 3.13599 0
M  V30 345 H 31.8112 0.960917 3.60307 0
M  V30 346 N 33.9963 -1.19345 1.0293 0
M  V30 347 C 35.2443 -1.88665 0.724574 0
M  V30 348 C 35.5653 -1.80036 -0.749144 0
M  V30 349 O 34.8353 -1.2111 -1.53978 0
M  V30 350 H 33.4153 -0.698406 0.265025 0
M  V30 351 H 36.0773 -1.44885 1.30362 0
M  V30 352 H 35.1733 -2.94987 1.01926 0
M  V30 353 N 35.4744 -0.807222 -1.35358 0
M  V30 354 C 36.7144 -0.393534 -2.00576 0
M  V30 355 C 37.0784 1.0203 -1.62647 0
M  V30 356 O 38.2794 1.53603 -2.20589 0
M  V30 357 C 36.5504 -0.572017 -3.52793 0
M  V30 358 S 38.1094 -0.248845 -4.38094 0
M  V30 359 H 34.9274 -0.149425 -0.695121 0
M  V30 360 H 37.5294 -1.04961 -1.64935 0
M  V30 361 H 36.2334 -1.60097 -3.77885 0
M  V30 362 H 35.7644 0.099359 -3.93275 0
M  V30 363 H 37.7794 0.943253 -4.87152 0
M  V30 364 N 36.9525 1.47285 -0.560781 0
M  V30 365 C 38.1775 2.07359 -0.0410566 0
M  V30 366 C 38.6025 1.41017 1.24483 0
M  V30 367 O 37.9605 0.486368 1.74654 0
M  V30 368 C 38.0085 3.6035 0.134123 0
M  V30 369 O 37.1125 3.94681 1.19587 0
M  V30 370 H 36.4535 0.661887 -0.0529291 0
M  V30 371 H 38.9835 1.89252 -0.777482 0
M  V30 372 H 38.9935 4.0652 0.347207 0
M  V30 373 H 37.6685 4.08034 -0.805047 0
M  V30 374 H 36.2455 3.60251 0.962987 0
M  V30 375 N 38.4306 0.297415 1.54768 0
M  V30 376 C 39.3936 -0.567375 2.22066 0
M  V30 377 C 40.3936 -1.06409 1.20556 0
M  V30 378 O 41.5836 -0.960691 1.45315 0
M  V30 379 C 38.7156 -1.78517 2.90421 0
M  V30 380 H 39.9086 0.0205534 2.99893 0
M  V30 381 H 37.4616 0.0482163 1.56226 0
M  V30 382 H 38.1966 -2.41303 2.16664 0
M  V30 383 H 37.9816 -1.43669 3.64831 0
M  V30 384 H 39.4716 -2.39964 3.41771 0
M  V30 385 N 39.9087 -1.5758 0.0250728 0
M  V30 386 C 41.1577 -1.90811 -0.653767 0
M  V30 387 C 41.4707 -0.90273 -1.73523 0
M  V30 388 O 42.6767 -1.12614 -2.47043 0
M  V30 389 C 41.1327 -3.38804 -1.21409 0
M  V30 390 C 40.7407 -4.47692 -0.166126 0
M  V30 391 C 42.4847 -3.81108 -1.86967 0
M  V30 392 C 40.3917 -5.86779 -0.737856 0
M  V30 393 H 39.3217 -0.712063 -0.247956 0
M  V30 394 H 41.9727 -1.83281 0.0897137 0
M  V30 395 H 40.3547 -3.41252 -2.00905 0
M  V30 396 H 41.5287 -4.56797 0.606079 0
M  V30 397 H 39.8437 -4.14565 0.390466 0
M  V30 398 H 42.4407 -4.82375 -2.30692 0
M  V30 399 H 42.7837 -3.15953 -2.71071 0
M  V30 400 H 43.3167 -3.81065 -1.14167 0
M  V30 401 H 40.0557 -6.55468 0.0649577 0
M  V30 402 H 39.5757 -5.81288 -1.47864 0
M  V30 403 H 41.2547 -6.35223 -1.22884 0
M  V30 404 N 41.3868 0.248026 -1.55636 0
M  V30 405 C 42.2968 1.32859 -1.93354 0
M  V30 406 C 43.3128 1.52719 -0.833838 0
M  V30 407 O 44.4888 1.66363 -1.13513 0
M  V30 408 C 41.5538 2.66337 -2.21958 0
M  V30 409 C 40.6148 2.55008 -3.45354 0
M  V30 410 C 39.8478 3.82121 -3.72584 0
M  V30 411 O 40.0708 4.83951 -3.01907 0
M  V30 412 O 39.0048 3.80822 -4.6611 0
M  V30 413 H 42.8308 1.03862 -2.85388 0
M  V30 414 H 40.4158 0.448686 -1.42503 0
M  V30 415 H 42.2978 3.45216 -2.4167 0
M  V30 416 H 40.9728 2.95068 -1.33103 0
M  V30 417 H 39.8798 1.7442 -3.30951 0
M  V30 418 H 41.2128 2.31222 -4.34508 0
M  V30 419 N 42.8649 1.48995 0.513639 0
M  V30 420 C 43.8119 1.6473 1.61656 0
M  V30 421 C 44.7819 0.488984 1.58739 0
M  V30 422 O 45.9669 0.714478 1.76918 0
M  V30 423 C 43.1069 1.7082 2.99858 0
M  V30 424 C 42.2199 2.9787 3.12885 0
M  V30 425 C 41.3549 2.95017 4.41744 0
M  V30 426 C 40.3939 4.16702 4.48359 0
M  V30 427 N 39.5309 4.11832 5.68629 0
M  V30 428 H 44.3709 2.58909 1.47547 0
M  V30 429 H 41.9079 1.28382 0.71808 0
M  V30 430 H 43.8659 1.72331 3.79944 0
M  V30 431 H 42.4959 0.801181 3.12699 0
M  V30 432 H 41.5479 3.06029 2.25944 0
M  V30 433 H 42.8599 3.8786 3.13633 0
M  V30 434 H 42.0139 2.95021 5.30139 0
M  V30 435 H 40.7529 2.02784 4.43542 0
M  V30 436 H 39.7579 4.16955 3.58369 0
M  V30 437 H 40.9829 5.10113 4.48287 0
M  V30 438 H 38.9289 3.22428 5.71293 0
M  V30 439 H 38.8459 4.95543 5.7094 0
M  V30 440 H 40.1139 4.1592 6.59266 0
M  V30 441 N 44.343 -0.763751 1.37857 0
M  V30 442 C 45.571 -1.55293 1.36718 0
M  V30 443 C 45.986 -1.88745 -0.0455434 0
M  V30 444 O 45.343 -1.52039 -1.00947 0
M  V30 445 C 45.394 -2.85831 2.2132 0
M  V30 446 O 45.115 -2.5381 3.57089 0
M  V30 447 C 46.616 -3.80023 2.28249 0
M  V30 448 H 43.836 -0.480841 0.468009 0
M  V30 449 H 46.38 -0.946009 1.81303 0
M  V30 450 H 44.535 -3.42926 1.80223 0
M  V30 451 H 44.949 -3.37459 4.01524 0
M  V30 452 H 46.423 -4.68599 2.91752 0
M  V30 453 H 46.9 -4.1973 1.2932 0
M  V30 454 H 47.506 -3.28855 2.69693 0
M  V30 455 N 45.8211 -1.22559 -0.990812 0
M  V30 456 C 46.7531 -0.955325 -2.08342 0
M  V30 457 C 47.7661 0.0668408 -1.62663 0
M  V30 458 O 48.9551 -0.167421 -1.77713 0
M  V30 459 C 46.0551 -0.415566 -3.36342 0
M  V30 460 C 45.2281 -1.49544 -4.11042 0
M  V30 461 C 44.2871 -0.962399 -5.17324 0
M  V30 462 O 43.3131 -1.64907 -5.44788 0
M  V30 463 N 44.5151 0.215134 -5.80101 0
M  V30 464 H 47.2801 -1.89596 -2.32106 0
M  V30 465 H 44.8411 -1.13276 -1.15673 0
M  V30 466 H 46.8331 -0.0442386 -4.04676 0
M  V30 467 H 45.4031 0.430232 -3.09625 0
M  V30 468 H 44.6231 -2.04 -3.37309 0
M  V30 469 H 45.9111 -2.22195 -4.57719 0
M  V30 470 H 45.3091 0.789779 -5.6016 0
M  V30 471 H 43.8661 0.527826 -6.49659 0
M  V30 472 N 47.2992 1.18797 -1.03562 0
M  V30 473 C 48.7152 1.40671 -0.753917 0
M  V30 474 C 48.9152 1.9043 0.658686 0
M  V30 475 O 47.9712 2.08538 1.42366 0
M  V30 476 C 49.2842 2.41192 -1.79574 0
M  V30 477 C 50.8322 2.54928 -1.81606 0
M  V30 478 C 51.3072 3.58709 -2.84766 0
M  V30 479 N 52.7982 3.66212 -2.83625 0
M  V30 480 C 53.5332 4.46225 -3.60098 0
M  V30 481 N 53.0292 5.29888 -4.46308 0
M  V30 482 N 54.8222 4.40939 -3.4861 0
M  V30 483 H 46.9732 0.848221 -1.94728 0
M  V30 484 H 49.2362 0.435081 -0.842264 0
M  V30 485 H 48.9422 2.11669 -2.80872 0
M  V30 486 H 48.8162 3.40467 -1.62365 0
M  V30 487 H 51.2032 2.83771 -0.809817 0
M  V30 488 H 51.2842 1.55784 -2.02891 0
M  V30 489 H 50.9282 3.30607 -3.85566 0
M  V30 490 H 50.8582 4.57519 -2.60737 0
M  V30 491 H 53.3492 3.06466 -2.21105 0
M  V30 492 H 53.6622 5.88078 -5.01382 0
M  V30 493 H 52.0072 5.29326 -4.50377 0
M  V30 494 H 55.1982 3.74624 -2.80668 0
M  V30 495 H 55.3712 5.03056 -4.08459 0
M  V30 496 N 48.7773 0.814389 1.34928 0
M  V30 497 C 49.7103 0.175641 2.27523 0
M  V30 498 C 50.6883 -0.662953 1.48471 0
M  V30 499 O 51.8723 -0.628545 1.77712 0
M  V30 500 C 48.9993 -0.755516 3.30166 0
M  V30 501 C 48.0453 0.00445305 4.265 0
M  V30 502 S 48.8783 1.34582 5.18313 0
M  V30 503 C 50.0343 0.419315 6.24494 0
M  V30 504 H 50.2673 0.960691 2.8135 0
M  V30 505 H 47.8003 0.609846 1.41846 0
M  V30 506 H 49.7583 -1.28723 3.89796 0
M  V30 507 H 48.4193 -1.51402 2.75202 0
M  V30 508 H 47.6123 -0.703077 4.99072 0
M  V30 509 H 47.2143 0.466447 3.7108 0
M  V30 510 H 49.5063 -0.392432 6.76362 0
M  V30 511 H 50.4493 1.11446 6.99275 0
M  V30 512 H 50.8573 0.0115389 5.64499 0
M  V30 513 N 50.2554 -1.46986 0.568584 0
M  V30 514 C 51.1854 -2.32946 -0.160753 0
M  V30 515 C 52.1664 -1.44487 -0.897631 0
M  V30 516 O 53.3514 -1.73327 -0.875867 0
M  V30 517 C 50.4814 -3.26494 -1.18403 0
M  V30 518 C 49.4354 -4.24282 -0.562895 0
M  V30 519 C 48.7614 -5.07236 -1.69163 0
M  V30 520 C 50.0614 -5.19989 0.490761 0
M  V30 521 H 51.7554 -2.94175 0.556916 0
M  V30 522 H 49.3014 -1.4146 0.26927 0
M  V30 523 H 51.2544 -3.85477 -1.70251 0
M  V30 524 H 49.9784 -2.63343 -1.93179 0
M  V30 525 H 48.6374 -3.66541 -0.0656164 0
M  V30 526 H 48.2854 -4.4048 -2.42871 0
M  V30 527 H 47.9854 -5.7345 -1.28174 0
M  V30 528 H 49.5094 -5.6908 -2.21314 0
M  V30 529 H 50.9234 -5.73271 0.0579047 0
M  V30 530 H 49.3204 -5.94469 0.820165 0
M  V30 531 H 50.3904 -4.64777 1.3824 0
M  V30 532 N 51.7335 -0.305618 -1.54608 0
M  V30 533 C 52.9585 0.307562 -2.05107 0
M  V30 534 C 53.3835 1.46385 -1.18123 0
M  V30 535 O 52.7415 1.8034 -0.186324 0
M  V30 536 C 52.7895 0.73704 -3.52987 0
M  V30 537 O 51.8935 1.84134 -3.6901 0
M  V30 538 H 51.2345 0.0589143 -0.661381 0
M  V30 539 H 53.7645 -0.448807 -1.99617 0
M  V30 540 H 53.7745 1.02459 -3.94925 0
M  V30 541 H 52.4495 -0.108773 -4.15758 0
M  V30 542 H 51.0265 1.55398 -3.38978 0
M  V30 543 N 53.2116 1.57565 -0.0334293 0
M  V30 544 C 54.4596 1.91598 0.642999 0
M  V30 545 C 54.7806 0.910847 1.7242 0
M  V30 546 O 54.0506 -0.0469931 1.95844 0
M  V30 547 H 52.6306 0.707228 0.240496 0
M  V30 548 H 55.2926 1.94726 -0.0822488 0
M  V30 549 H 54.3886 2.92336 1.09298 0
M  V30 550 N 54.6897 -0.239769 1.55765 0
M  V30 551 C 55.9367 -0.966801 1.7793 0
M  V30 552 C 56.2647 -1.85046 0.599015 0
M  V30 553 O 55.5197 -1.91197 -0.417395 0
M  V30 554 C 55.8187 -1.852 3.05672 0
M  V30 555 C 55.4847 -1.1231 4.36689 0
M  V30 556 C 54.1467 -0.921689 4.72291 0
M  V30 557 C 56.4987 -0.607019 5.17653 0
M  V30 558 C 53.8267 -0.191996 5.86386 0
M  V30 559 C 56.1787 0.109241 6.32506 0
M  V30 560 C 54.8427 0.322073 6.66723 0
M  V30 561 H 54.1127 -0.353778 0.651093 0
M  V30 562 H 56.7597 -0.23634 1.90036 0
M  V30 563 H 55.0647 -2.64975 2.8861 0
M  V30 564 H 56.7617 -2.41635 3.20021 0
M  V30 565 H 53.3517 -1.29004 4.08725 0
M  V30 566 H 57.5357 -0.750153 4.90598 0
M  V30 567 H 52.7917 -0.0166949 6.11398 0
M  V30 568 H 56.9657 0.516737 6.9448 0
M  V30 569 H 54.5927 0.88944 7.54979 0
M  V30 570 N 56.1678 -1.49265 -0.50573 0
M  V30 571 C 57.4078 -1.60128 -1.27038 0
M  V30 572 C 57.7718 -0.279557 -1.89954 0
M  V30 573 O 58.9728 -0.263329 -2.67507 0
M  V30 574 C 57.2438 -2.72507 -2.31246 0
M  V30 575 S 58.8028 -3.0329 -3.17113 0
M  V30 576 H 55.6208 -0.564863 -0.4318 0
M  V30 577 H 58.2228 -1.86902 -0.573397 0
M  V30 578 H 56.9268 -3.67068 -1.83546 0
M  V30 579 H 56.4578 -2.4771 -3.05619 0
M  V30 580 H 58.4728 -2.44448 -4.31809 0
M  V30 581 N 57.6459 0.756429 -1.3826 0
M  V30 582 C 59.0569 1.33359 -1.30661 0
M  V30 583 C 59.4079 1.96161 0.0388875 0
M  V30 584 O 58.5329 1.94874 0.940918 0
M  V30 585 C 59.1279 2.42477 -2.36622 0
M  V30 586 C 57.6869 2.95922 -2.3261 0
M  V30 587 C 56.8339 1.69275 -2.19639 0
M  V30 588 H 59.7849 0.55552 -1.4866 0
M  V30 589 H 59.8059 3.22345 -2.02174 0
M  V30 590 H 59.3179 1.96739 -3.34538 0
M  V30 591 H 57.4189 3.45996 -1.38267 0
M  V30 592 H 57.5319 3.50494 -3.26636 0
M  V30 593 H 55.8959 1.92793 -1.66442 0
M  V30 594 H 56.6789 1.25619 -3.19491 0
M  V30 595 N 59.124 1.23083 0.984299 0
M  V30 596 C 60.074 0.975749 2.06066 0
M  V30 597 C 61.058 -0.0768251 1.60716 0
M  V30 598 O 62.25 0.134805 1.76486 0
M  V30 599 C 59.379 0.564673 3.38624 0
M  V30 600 C 58.465 1.65244 3.90583 0
M  V30 601 N 58.856 2.88193 4.15666 0
M  V30 602 C 57.154 1.52612 4.19077 0
M  V30 603 C 57.855 3.58593 4.58024 0
M  V30 604 N 56.831 2.86093 4.62225 0
M  V30 605 H 60.633 1.90957 2.23411 0
M  V30 606 H 58.147 1.12963 1.16675 0
M  V30 607 H 60.144 0.36322 4.15315 0
M  V30 608 H 58.804 -0.362147 3.22674 0
M  V30 609 H 59.815 3.24537 4.03604 0
M  V30 610 H 56.492 0.666121 4.12152 0
M  V30 611 H 57.882 4.63974 4.85982 0
M  V30 612 N 60.6021 -1.18246 1.0419 0
M  V30 613 C 61.5491 -2.2192 0.634037 0
M  V30 614 C 62.5191 -1.62179 -0.358765 0
M  V30 615 O 63.7041 -1.89122 -0.252466 0
M  V30 616 C 60.8441 -3.451 0.00445535 0
M  V30 617 C 59.9571 -4.19174 1.04487 0
M  V30 618 C 59.0921 -5.29813 0.383676 0
M  V30 619 C 58.1311 -5.9566 1.4091 0
M  V30 620 N 57.2681 -6.97834 0.772784 0
M  V30 621 H 62.1081 -2.56164 1.52263 0
M  V30 622 H 59.6451 -1.25843 0.761701 0
M  V30 623 H 61.6031 -4.15485 -0.377919 0
M  V30 624 H 60.2331 -3.11472 -0.847652 0
M  V30 625 H 59.2851 -3.47604 1.54518 0
M  V30 626 H 60.5971 -4.64267 1.82368 0
M  V30 627 H 59.7511 -6.06677 -0.0528366 0
M  V30 628 H 58.4901 -4.85825 -0.427208 0
M  V30 629 H 57.4951 -5.17535 1.85574 0
M  V30 630 H 58.7201 -6.4173 2.22171 0
M  V30 631 H 56.6661 -6.55998 -0.0177708 0
M  V30 632 H 56.5831 -7.41186 1.48928 0
M  V30 633 H 57.8511 -7.78665 0.36071 0
M  V30 634 N 62.0802 -0.821533 -1.34494 0
M  V30 635 C 63.3262 -0.409552 -1.98622 0
M  V30 636 C 63.6592 1.0244 -1.64984 0
M  V30 637 O 62.9342 1.71325 -0.920758 0
M  V30 638 C 63.2172 -0.610458 -3.54888 0
M  V30 639 C 63.0702 -2.09043 -3.98273 0
M  V30 640 C 64.3892 -0.0455379 -4.40076 0
M  V30 641 H 61.5082 -0.15028 -0.721516 0
M  V30 642 H 64.1502 -1.03384 -1.59411 0
M  V30 643 H 62.3002 -0.079044 -3.8842 0
M  V30 644 H 63.9722 -2.68537 -3.75081 0
M  V30 645 H 62.2152 -2.58139 -3.48635 0
M  V30 646 H 62.8862 -2.18182 -5.07051 0
M  V30 647 H 65.3622 -0.499557 -4.1309 0
M  V30 648 H 64.2382 -0.215922 -5.48475 0
M  V30 649 H 64.4992 1.04939 -4.29465 0
M  V30 650 N 63.5583 1.46682 -0.576371 0
M  V30 651 C 64.7833 2.07304 -0.0630475 0
M  V30 652 C 65.2083 1.42329 1.2298 0
M  V30 653 O 64.5663 0.504865 1.74129 0
M  V30 654 C 64.6143 3.60472 0.095895 0
M  V30 655 O 63.7183 3.95927 1.15394 0
M  V30 656 H 63.0593 0.661288 -0.0599463 0
M  V30 657 H 65.5893 1.88417 -0.797511 0
M  V30 658 H 65.5993 4.06865 0.304071 0
M  V30 659 H 64.2743 4.07157 -0.84828 0
M  V30 660 H 62.8513 3.61252 0.924724 0
M  V30 661 N 65.0364 0.313813 1.54444 0
M  V30 662 C 65.9994 -0.54379 2.22656 0
M  V30 663 C 66.9994 -1.05124 1.21678 0
M  V30 664 O 68.1894 -0.945225 1.46325 0
M  V30 665 C 65.3214 -1.75427 2.92298 0
M  V30 666 H 66.5144 0.0523599 2.99854 0
M  V30 667 H 64.0674 0.0647834 1.56166 0
M  V30 668 H 64.8024 -2.38991 2.19211 0
M  V30 669 H 64.5874 -1.39791 3.66334 0
M  V30 670 H 66.0774 -2.36325 3.44297 0
M  V30 671 N 66.5145 -1.57545 0.0417849 0
M  V30 672 C 67.7625 -1.91937 -0.632829 0
M  V30 673 C 68.0835 -0.919978 -1.71934 0
M  V30 674 O 67.3535 0.0366064 -1.95866 0
M  V30 675 H 65.9335 -0.708493 -0.236742 0
M  V30 676 H 68.5955 -1.9468 0.0925745 0
M  V30 677 H 67.6915 -2.92912 -1.07746 0
M  V30 678 N 67.9926 0.231505 -1.5589 0
M  V30 679 C 68.9246 1.31006 -1.8807 0
M  V30 680 C 69.9376 1.43539 -0.768145 0
M  V30 681 O 71.1266 1.44614 -1.04638 0
M  V30 682 C 68.2266 2.68688 -2.06543 0
M  V30 683 C 67.3996 2.78228 -3.37502 0
M  V30 684 C 66.4586 3.96857 -3.4553 0
M  V30 685 O 65.4846 3.85662 -4.18633 0
M  V30 686 N 66.6866 5.1072 -2.75944 0
M  V30 687 H 69.4516 1.03731 -2.81176 0
M  V30 688 H 67.0126 0.421573 -1.56315 0
M  V30 689 H 69.0046 3.46412 -2.09239 0
M  V30 690 H 67.5746 2.88605 -1.20109 0
M  V30 691 H 66.7946 1.87059 -3.46991 0
M  V30 692 H 68.0826 2.81564 -4.23791 0
M  V30 693 H 67.4806 5.2271 -2.16311 0
M  V30 694 H 66.0376 5.86523 -2.84314 0
M  V30 695 N 69.4707 1.49531 0.497807 0
M  V30 696 C 70.7177 1.59179 1.25173 0
M  V30 697 C 71.0457 0.279932 1.92475 0
M  V30 698 O 70.3007 -0.732383 1.81479 0
M  V30 699 C 70.5997 2.70252 2.33878 0
M  V30 700 C 70.2657 4.11644 1.84012 0
M  V30 701 C 68.9277 4.50121 1.70132 0
M  V30 702 C 71.2797 5.00121 1.46725 0
M  V30 703 C 68.6077 5.74845 1.17348 0
M  V30 704 C 70.9597 6.25366 0.95392 0
M  V30 705 C 69.6237 6.6267 0.801538 0
M  V30 706 H 68.8937 0.582478 0.45804 0
M  V30 707 H 71.5407 1.83373 0.551948 0
M  V30 708 H 69.8457 2.40041 3.09657 0
M  V30 709 H 71.5427 2.74925 2.9192 0
M  V30 710 H 68.1327 3.81274 1.95775 0
M  V30 711 H 72.3167 4.71048 1.56294 0
M  V30 712 H 67.5727 6.02444 1.04264 0
M  V30 713 H 71.7467 6.93301 0.656225 0
M  V30 714 H 69.3737 7.59197 0.390351 0
M  V30 715 N 70.9488 -0.749086 1.3866 0
M  V30 716 C 72.1738 -1.54344 1.38538 0
M  V30 717 C 72.5988 -1.88088 -0.0216655 0
M  V30 718 O 71.9568 -1.50899 -1.00494 0
M  V30 719 C 72.0048 -2.8164 2.25192 0
M  V30 720 O 71.1088 -3.7698 1.67212 0
M  V30 721 H 70.4498 -0.466654 0.472367 0
M  V30 722 H 72.9798 -0.925355 1.82478 0
M  V30 723 H 72.9898 -3.30519 2.3921 0
M  V30 724 H 71.6648 -2.56411 3.27454 0
M  V30 725 H 70.2418 -3.35699 1.6236 0
M  V30 726 N 72.4269 -1.23603 -0.977757 0
M  V30 727 C 73.6519 -1.09735 -1.75991 0
M  V30 728 C 74.0769 0.346858 -1.84874 0
M  V30 729 O 73.4349 1.25093 -1.3123 0
M  V30 730 C 73.4829 -1.73051 -3.16363 0
M  V30 731 O 72.5869 -0.994452 -4.0023 0
M  V30 732 H 71.9279 -0.384476 -0.541364 0
M  V30 733 H 74.4579 -1.6371 -1.2272 0
M  V30 734 H 74.4679 -1.78398 -3.66931 0
M  V30 735 H 73.1429 -2.78137 -3.09213 0
M  V30 736 H 71.7199 -1.01812 -3.58732 0
M  V30 737 N 73.905 1.17692 -1.04816 0
M  V30 738 C 74.835 2.23777 -0.666791 0
M  V30 739 C 75.816 1.66796 0.33361 0
M  V30 740 O 77.001 1.93039 0.212042 0
M  V30 741 C 74.131 3.47281 -0.0367933 0
M  V30 742 C 73.085 4.17059 -0.961546 0
M  V30 743 C 72.411 5.34342 -0.195626 0
M  V30 744 C 73.711 4.69713 -2.28402 0
M  V30 745 H 75.405 2.55933 -1.55367 0
M  V30 746 H 72.951 1.23019 -0.748484 0
M  V30 747 H 74.904 4.20706 0.241775 0
M  V30 748 H 73.628 3.14381 0.885004 0
M  V30 749 H 72.287 3.45541 -1.22462 0
M  V30 750 H 71.935 4.97692 0.728816 0
M  V30 751 H 71.635 5.81966 -0.811775 0
M  V30 752 H 73.159 6.10553 0.0757473 0
M  V30 753 H 74.573 5.34794 -2.06563 0
M  V30 754 H 72.97 5.279 -2.8538 0
M  V30 755 H 74.04 3.86726 -2.92525 0
M  V30 756 N 75.3831 0.828654 1.34056 0
M  V30 757 C 76.3331 0.226828 2.26869 0
M  V30 758 C 77.3171 -0.612243 1.48796 0
M  V30 759 O 78.5091 -0.465884 1.70759 0
M  V30 760 C 75.6381 -0.605654 3.37915 0
M  V30 761 C 74.7241 0.244361 4.23395 0
M  V30 762 N 75.1151 1.31815 4.88322 0
M  V30 763 C 73.4131 0.0296616 4.4599 0
M  V30 764 C 74.1141 1.83895 5.51867 0
M  V30 765 N 73.0901 1.14196 5.3147 0
M  V30 766 H 76.8921 1.04811 2.74576 0
M  V30 767 H 74.4061 0.67205 1.47842 0
M  V30 768 H 76.4031 -1.05302 4.03382 0
M  V30 769 H 75.0631 -1.42504 2.91758 0
M  V30 770 H 76.0741 1.70099 4.8917 0
M  V30 771 H 72.7511 -0.757097 4.10578 0
M  V30 772 H 74.1411 2.7376 6.136 0
M  V30 773 N 76.8612 -1.46375 0.584142 0
M  V30 774 C 78.1072 -2.02678 0.0703716 0
M  V30 775 C 78.4402 -1.4545 -1.28678 0
M  V30 776 O 77.7152 -0.62014 -1.84349 0
M  V30 777 C 77.9982 -3.60099 0.00614674 0
M  V30 778 C 77.8512 -4.27709 1.3923 0
M  V30 779 C 79.1702 -4.34598 -0.693742 0
M  V30 780 H 76.2892 -0.736504 0.027047 0
M  V30 781 H 78.9312 -1.74501 0.751615 0
M  V30 782 H 77.0812 -3.84236 -0.574009 0
M  V30 783 H 78.7532 -4.14832 2.01773 0
M  V30 784 H 76.9962 -3.87016 1.95962 0
M  V30 785 H 77.6672 -5.36478 1.29982 0
M  V30 786 H 80.1432 -4.15615 -0.200869 0
M  V30 787 H 79.0192 -5.44318 -0.707714 0
M  V30 788 H 79.2802 -4.05759 -1.75533 0
M  V30 789 N 78.3393 -0.321999 -1.54275 0
M  V30 790 C 79.7553 0.0306999 -1.5957 0
M  V30 791 C 79.9553 1.50614 -1.33857 0
M  V30 792 O 79.0113 2.2619 -1.12223 0
M  V30 793 C 80.3243 -0.386122 -2.98211 0
M  V30 794 C 81.8723 -0.336647 -3.11184 0
M  V30 795 C 82.3473 -0.728607 -4.52167 0
M  V30 796 N 83.8383 -0.681952 -4.58152 0
M  V30 797 C 84.5733 -0.957449 -5.6535 0
M  V30 798 N 84.0693 -1.3 -6.80494 0
M  V30 799 N 85.8623 -0.883113 -5.55119 0
M  V30 800 H 78.0133 -1.28332 -1.69247 0
M  V30 801 H 80.2763 -0.521716 -0.791528 0
M  V30 802 H 79.9823 -1.41404 -3.22022 0
M  V30 803 H 79.8563 0.249662 -3.76373 0
M  V30 804 H 82.2433 0.682058 -2.8711 0
M  V30 805 H 82.3243 -1.00734 -2.3513 0
M  V30 806 H 81.9683 -1.74522 -4.76974 0
M  V30 807 H 81.8983 -0.0356152 -5.26588 0
M  V30 808 H 84.3893 -0.428985 -3.75457 0
M  V30 809 H 84.7023 -1.49563 -7.58189 0
M  V30 810 H 83.0473 -1.33824 -6.81994 0
M  V30 811 H 86.2383 -0.615001 -4.64042 0
M  V30 812 H 86.4113 -1.10118 -6.38575 0
M  V30 813 N 79.8174 1.5752 -0.0501392 0
M  V30 814 C 81.0944 1.83996 0.663685 0
M  V30 815 C 81.4744 0.938339 1.89099 0
M  V30 816 O 80.8224 -0.00087759 2.285 0
M  V30 817 C 81.0324 3.33702 1.02196 0
M  V30 818 C 82.3804 4.00691 1.40469 0
M  V30 819 O 83.4044 3.38321 1.11433 0
M  V30 820 O 82.2634 5.10658 1.94654 0
M  V30 821 H 79.3574 0.759385 0.32751 0
M  V30 822 H 81.9034 1.69514 -0.0794238 0
M  V30 823 H 80.6754 3.91015 0.149364 0
M  V30 824 H 80.2984 3.53368 1.82255 0
M  V30 825 N 81.2955 -0.223234 1.56011 0
M  V30 826 C 82.5235 -0.964812 1.83027 0
M  V30 827 C 82.9385 -1.78013 0.62904 0
M  V30 828 O 82.2955 -1.78008 -0.402414 0
M  V30 829 C 82.3465 -1.88373 3.08542 0
M  V30 830 O 82.0675 -1.10137 4.2403 0
M  V30 831 C 83.5685 -2.73934 3.48533 0
M  V30 832 H 80.7885 -0.282842 0.608475 0
M  V30 833 H 83.3325 -0.238971 2.03099 0
M  V30 834 H 81.4875 -2.56354 2.9045 0
M  V30 835 H 81.9015 -1.72501 4.95322 0
M  V30 836 H 83.3755 -3.34117 4.39397 0
M  V30 837 H 83.8525 -3.46244 2.70207 0
M  V30 838 H 84.4585 -2.11369 3.69057 0
M  V30 839 N 82.7736 -1.49793 -0.48987 0
M  V30 840 C 83.7206 -1.67281 -1.59014 0
M  V30 841 C 84.6906 -0.514177 -1.57941 0
M  V30 842 O 85.8756 -0.742533 -1.75759 0
M  V30 843 C 83.0156 -1.75569 -2.97102 0
M  V30 844 C 82.1286 -3.0281 -3.08107 0
M  V30 845 C 81.2636 -3.02008 -4.36995 0
M  V30 846 C 80.3026 -4.23782 -4.41673 0
M  V30 847 N 79.4396 -4.20826 -5.62005 0
M  V30 848 H 84.2796 -2.61224 -1.43409 0
M  V30 849 H 81.8166 -1.29508 -0.697565 0
M  V30 850 H 83.7746 -1.78354 -3.77155 0
M  V30 851 H 82.4046 -0.850827 -3.11385 0
M  V30 852 H 81.4566 -3.09584 -2.21047 0
M  V30 853 H 82.7686 -3.92801 -3.07423 0
M  V30 854 H 81.9226 -3.03418 -5.25378 0
M  V30 855 H 80.6616 -2.09815 -4.4026 0
M  V30 856 H 79.6666 -4.22604 -3.5169 0
M  V30 857 H 80.8916 -5.17181 -4.40115 0
M  V30 858 H 78.8376 -3.31476 -5.66091 0
M  V30 859 H 78.7546 -5.04564 -5.62984 0
M  V30 860 H 80.0226 -4.26355 -6.52565 0
M  V30 861 N 84.2517 0.741722 -1.39055 0
M  V30 862 C 85.5007 1.49656 -1.35225 0
M  V30 863 C 85.8137 1.95533 0.0512708 0
M  V30 864 O 87.0197 2.7067 0.212138 0
M  V30 865 C 85.4757 2.70389 -2.37525 0
M  V30 866 C 85.0837 2.31489 -3.83558 0
M  V30 867 C 86.8277 3.48236 -2.42759 0
M  V30 868 C 84.7347 3.48903 -4.77515 0
M  V30 869 H 83.6647 0.56197 -0.502699 0
M  V30 870 H 86.3157 0.809727 -1.64668 0
M  V30 871 H 84.6977 3.41113 -2.01142 0
M  V30 872 H 85.8717 1.68354 -4.28945 0
M  V30 873 H 84.1867 1.66749 -3.81554 0
M  V30 874 H 86.7837 4.35558 -3.1015 0
M  V30 875 H 87.1267 3.90229 -1.45008 0
M  V30 876 H 87.6597 2.84535 -2.78002 0
M  V30 877 H 84.3987 3.11966 -5.76504 0
M  V30 878 H 83.9187 4.11041 -4.36813 0
M  V30 879 H 85.5977 4.15328 -4.96096 0
M  V30 880 N 85.7298 1.2412 0.971189 0
M  V30 881 C 86.6398 1.04747 2.09917 0
M  V30 882 C 87.6558 -0.0107162 1.73997 0
M  V30 883 O 88.8318 0.186714 2.00533 0
M  V30 884 C 85.8968 0.650828 3.40537 0
M  V30 885 C 84.9578 1.7851 3.90426 0
M  V30 886 C 84.1908 1.40729 5.14812 0
M  V30 887 O 84.4138 0.29557 5.69634 0
M  V30 888 O 83.3478 2.23168 5.58999 0
M  V30 889 H 87.1738 1.99304 2.29154 0
M  V30 890 H 84.7588 1.02908 1.08307 0
M  V30 891 H 86.6408 0.440992 4.19086 0
M  V30 892 H 85.3158 -0.265649 3.22608 0
M  V30 893 H 84.2228 2.04966 3.12953 0
M  V30 894 H 85.5558 2.68023 4.12825 0
M  V30 895 N 87.2079 -1.17134 1.05439 0
M  V30 896 C 88.4539 -1.87733 0.767077 0
M  V30 897 C 88.7869 -1.8098 -0.704253 0
M  V30 898 O 88.0619 -1.21951 -1.5152 0
M  V30 899 C 88.3449 -3.37659 1.25133 0
M  V30 900 C 88.1979 -3.53149 2.78578 0
M  V30 901 C 89.5169 -4.31768 0.852324 0
M  V30 902 H 86.6359 -0.681687 0.280129 0
M  V30 903 H 89.2779 -1.37732 1.30881 0
M  V30 904 H 87.4279 -3.80373 0.790469 0
M  V30 905 H 89.0999 -3.19434 3.32806 0
M  V30 906 H 87.3429 -2.95345 3.17732 0
M  V30 907 H 88.0139 -4.58403 3.07523 0
M  V30 908 H 90.4899 -3.96909 1.24911 0
M  V30 909 H 89.3659 -5.35199 1.21873 0
M  V30 910 H 89.6269 -4.41429 -0.243485 0
M  V30 911 N 88.686 -0.835752 -1.33615 0
M  V30 912 C 89.649 -0.272 -2.2758 0
M  V30 913 C 90.649 0.557487 -1.50827 0
M  V30 914 O 91.839 0.37173 -1.70188 0
M  V30 915 C 88.971 0.617173 -3.35267 0
M  V30 916 H 90.164 -1.10111 -2.78954 0
M  V30 917 H 87.717 -0.608594 -1.43965 0
M  V30 918 H 88.452 1.46884 -2.89129 0
M  V30 919 H 88.237 0.0237066 -3.92093 0
M  V30 920 H 89.727 1.005 -4.05326 0
M  V30 921 N 90.1641 1.46063 -0.591896 0
M  V30 922 C 91.0961 2.28539 0.174001 0
M  V30 923 C 92.1091 1.39047 0.846753 0
M  V30 924 O 93.2981 1.63564 0.714774 0
M  V30 925 C 90.3981 3.14347 1.26645 0
M  V30 926 C 89.5711 4.32021 0.683856 0
M  V30 927 C 88.6301 4.99157 1.66518 0
M  V30 928 O 87.6561 5.56458 1.19763 0
M  V30 929 N 88.8581 4.97005 2.99943 0
M  V30 930 H 91.6231 2.94911 -0.533633 0
M  V30 931 H 89.1841 1.56077 -0.430294 0
M  V30 932 H 91.1761 3.56125 1.92242 0
M  V30 933 H 89.7461 2.49988 1.87682 0
M  V30 934 H 88.9661 3.93915 -0.1498 0
M  V30 935 H 90.2541 5.08059 0.274567 0
M  V30 936 H 89.6521 4.51714 3.40545 0
M  V30 937 H 88.2091 5.42696 3.61004 0
M  V30 938 N 91.6422 0.330177 1.54103 0
M  V30 939 C 92.8892 -0.270405 2.00686 0
M  V30 940 C 93.2172 -1.51621 1.21825 0
M  V30 941 O 92.4722 -1.93536 0.29025 0
M  V30 942 C 92.7712 -0.643134 3.51566 0
M  V30 943 C 92.4372 0.504251 4.48072 0
M  V30 944 C 91.0992 0.819163 4.74176 0
M  V30 945 C 93.4512 1.27465 5.05373 0
M  V30 946 C 90.7792 1.90708 5.5484 0
M  V30 947 C 93.1312 2.35271 5.87223 0
M  V30 948 C 91.7952 2.67336 6.11627 0
M  V30 949 H 91.0652 -0.0989482 0.734364 0
M  V30 950 H 93.7122 0.455324 1.86008 0
M  V30 951 H 92.0172 -1.44938 3.64006 0
M  V30 952 H 93.7142 -1.11949 3.85056 0
M  V30 953 H 90.3042 0.248733 4.27878 0
M  V30 954 H 94.4882 1.04462 4.85182 0
M  V30 955 H 89.7442 2.15991 5.71977 0
M  V30 956 H 93.9182 2.95405 6.30641 0
M  V30 957 H 91.5452 3.51763 6.73919 0
M  V30 958 N 93.1203 -1.57491 0.0584922 0
M  V30 959 C 94.3663 -1.93264 -0.614558 0
M  V30 960 C 94.6993 -0.937717 -1.7006 0
M  V30 961 O 93.9743 0.0351652 -1.94468 0
M  V30 962 C 94.2573 -3.3938 -1.20386 0
M  V30 963 C 94.1103 -4.49625 -0.125375 0
M  V30 964 C 95.4293 -3.86039 -2.11334 0
M  V30 965 H 92.5483 -0.702791 -0.221933 0
M  V30 966 H 95.1903 -1.8961 0.12175 0
M  V30 967 H 93.3403 -3.42626 -1.83139 0
M  V30 968 H 95.0123 -4.58506 0.506971 0
M  V30 969 H 93.2553 -4.30354 0.545672 0
M  V30 970 H 93.9263 -5.48967 -0.577861 0
M  V30 971 H 96.4023 -3.84716 -1.58534 0
M  V30 972 H 95.2783 -4.88914 -2.49507 0
M  V30 973 H 95.5393 -3.23215 -3.01636 0
M  V30 974 N 94.5984 0.214957 -1.56127 0
M  V30 975 C 95.5454 1.26642 -1.92952 0
M  V30 976 C 96.5154 1.46244 -0.78753 0
M  V30 977 O 97.7004 1.59704 -1.04399 0
M  V30 978 C 94.8404 2.6104 -2.25726 0
M  V30 979 C 93.9534 2.49183 -3.52891 0
M  V30 980 C 93.0884 3.76149 -3.7508 0
M  V30 981 C 92.1274 3.59041 -4.95738 0
M  V30 982 N 91.2644 4.77972 -5.14283 0
M  V30 983 H 96.1044 0.945384 -2.82607 0
M  V30 984 H 93.6414 0.455489 -1.3987 0
M  V30 985 H 95.5994 3.39313 -2.42739 0
M  V30 986 H 94.2294 2.91227 -1.39236 0
M  V30 987 H 93.2814 1.6231 -3.44034 0
M  V30 988 H 94.5934 2.32466 -4.41318 0
M  V30 989 H 93.7474 4.62865 -3.92226 0
M  V30 990 H 92.4864 3.95799 -2.84947 0
M  V30 991 H 91.4914 2.7071 -4.78535 0
M  V30 992 H 92.7164 3.40856 -5.87362 0
M  V30 993 H 90.6624 4.97923 -4.27093 0
M  V30 994 H 90.5794 4.64006 -5.96853 0
M  V30 995 H 91.8474 5.66096 -5.35869 0
M  V30 996 N 96.0765 1.50051 0.48192 0
M  V30 997 C 97.3535 1.51009 1.2432 0
M  V30 998 C 97.7335 0.248587 2.09631 0
M  V30 999 O 97.0815 -0.768409 2.15192 0
M  V30 1000 C 97.2915 2.79981 2.08355 0
M  V30 1001 C 98.6395 3.3022 2.66908 0
M  V30 1002 O 99.6635 2.81228 2.18607 0
M  V30 1003 O 98.5225 4.15595 3.54884 0
M  V30 1004 H 95.6165 0.605239 0.563573 0
M  V30 1005 H 98.1625 1.62332 0.494627 0
M  V30 1006 H 96.9345 3.63275 1.45419 0
M  V30 1007 H 96.5575 2.7161 2.90368 0
M  V30 1008 N 97.5546 -0.734337 1.39446 0
M  V30 1009 C 98.4846 -1.86155 1.40955 0
M  V30 1010 C 99.4656 -1.67898 0.272827 0
M  V30 1011 O 100.651 -1.88207 0.478743 0
M  V30 1012 C 97.7806 -3.23912 1.25294 0
M  V30 1013 C 96.7346 -3.56808 2.36373 0
M  V30 1014 C 96.0606 -4.93508 2.058 0
M  V30 1015 C 97.3606 -3.59713 3.78687 0
M  V30 1016 H 99.0546 -1.8515 2.35287 0
M  V30 1017 H 96.6006 -0.889367 1.13253 0
M  V30 1018 H 98.5536 -4.02443 1.2497 0
M  V30 1019 H 97.2776 -3.25446 0.274308 0
M  V30 1020 H 95.9366 -2.80606 2.35914 0
M  V30 1021 H 95.5846 -4.91623 1.06374 0
M  V30 1022 H 95.2846 -5.16486 2.80208 0
M  V30 1023 H 96.8086 -5.74396 2.07128 0
M  V30 1024 H 98.2226 -4.2832 3.81071 0
M  V30 1025 H 96.6196 -3.94209 4.52459 0
M  V30 1026 H 97.6896 -2.59504 4.09617 0
M  V30 1027 N 99.0327 -1.24633 -0.964593 0
M  V30 1028 C 99.9627 -1.06611 -2.07741 0
M  V30 1029 C 100.944 0.0218666 -1.70086 0
M  V30 1030 O 102.129 -0.145793 -1.93652 0
M  V30 1031 C 99.2587 -0.673444 -3.40708 0
M  V30 1032 C 98.2127 -1.71054 -3.92332 0
M  V30 1033 C 97.5387 -1.17285 -5.21678 0
M  V30 1034 C 98.8387 -3.10718 -4.19824 0
M  V30 1035 H 100.533 -1.99693 -2.23076 0
M  V30 1036 H 98.0787 -0.96152 -1.07195 0
M  V30 1037 H 100.032 -0.534345 -4.17998 0
M  V30 1038 H 98.7557 0.293073 -3.25282 0
M  V30 1039 H 97.4147 -1.83791 -3.17201 0
M  V30 1040 H 97.0627 -0.196847 -5.02615 0
M  V30 1041 H 96.7627 -1.86592 -5.57187 0
M  V30 1042 H 98.2867 -1.04593 -6.01575 0
M  V30 1043 H 99.7007 -3.01192 -4.87808 0
M  V30 1044 H 98.0977 -3.77406 -4.66567 0
M  V30 1045 H 99.1677 -3.58524 -3.26479 0
M  V30 1046 N 100.511 1.16574 -1.06058 0
M  V30 1047 C 101.441 2.23057 -0.690488 0
M  V30 1048 C 102.422 1.67141 0.315901 0
M  V30 1049 O 103.607 1.93253 0.191556 0
M  V30 1050 C 100.737 3.47222 -0.073625 0
M  V30 1051 C 99.6908 4.16016 -1.00573 0
M  V30 1052 C 99.0168 5.34104 -0.252289 0
M  V30 1053 C 100.317 4.67264 -2.33371 0
M  V30 1054 H 102.011 2.54271 -1.58072 0
M  V30 1055 H 99.5568 1.22218 -0.76149 0
M  V30 1056 H 101.51 4.20939 0.19714 0
M  V30 1057 H 100.234 3.15302 0.85161 0
M  V30 1058 H 98.8928 3.44223 -1.2612 0
M  V30 1059 H 98.5408 4.98437 0.675988 0
M  V30 1060 H 98.2408 5.81072 -0.873455 0
M  V30 1061 H 99.7648 6.10599 0.0109857 0
M  V30 1062 H 101.179 5.32573 -2.12223 0
M  V30 1063 H 99.5758 5.24843 -2.90963 0
M  V30 1064 H 100.646 3.83602 -2.96611 0
M  V30 1065 N 101.989 0.842826 1.3317 0
M  V30 1066 C 102.939 0.250877 2.26616 0
M  V30 1067 C 103.923 -0.596427 1.49437 0
M  V30 1068 O 105.115 -0.447747 1.71243 0
M  V30 1069 C 102.244 -0.569779 3.38539 0
M  V30 1070 C 101.33 0.289254 4.23112 0
M  V30 1071 N 101.721 1.36987 4.86897 0
M  V30 1072 C 100.019 0.0769631 4.45934 0
M  V30 1073 C 100.72 1.89737 5.49886 0
M  V30 1074 N 99.6959 1.19827 5.30229 0
M  V30 1075 H 103.498 1.07718 2.73448 0
M  V30 1076 H 101.012 0.687693 1.47121 0
M  V30 1077 H 103.009 -1.01018 4.04476 0
M  V30 1078 H 101.669 -1.39401 2.93253 0
M  V30 1079 H 102.68 1.75277 4.87338 0
M  V30 1080 H 99.3569 -0.713507 4.11358 0
M  V30 1081 H 100.747 2.80253 6.10662 0
M  V30 1082 N 103.467 -1.45747 0.599634 0
M  V30 1083 C 104.397 -2.33235 -0.111306 0
M  V30 1084 C 105.378 -1.46359 -0.866781 0
M  V30 1085 O 106.563 -1.75146 -0.838904 0
M  V30 1086 C 103.693 -3.28932 -1.11451 0
M  V30 1087 C 102.647 -4.25381 -0.472772 0
M  V30 1088 C 101.973 -5.1071 -1.58365 0
M  V30 1089 C 103.273 -5.18831 0.600948 0
M  V30 1090 H 104.967 -2.92927 0.61919 0
M  V30 1091 H 102.513 -1.40857 0.299215 0
M  V30 1092 H 104.466 -3.89002 -1.62036 0
M  V30 1093 H 103.19 -2.67381 -1.8755 0
M  V30 1094 H 101.849 -3.66598 0.0121472 0
M  V30 1095 H 101.497 -4.45533 -2.33473 0
M  V30 1096 H 101.197 -5.7604 -1.15982 0
M  V30 1097 H 102.721 -5.73647 -2.09194 0
M  V30 1098 H 104.135 -5.73019 0.179491 0
M  V30 1099 H 102.532 -5.92595 0.946076 0
M  V30 1100 H 103.602 -4.6174 1.48068 0
M  V30 1101 N 104.945 -0.338344 -1.53925 0
M  V30 1102 C 105.892 0.520845 -2.24846 0
M  V30 1103 C 106.862 1.09976 -1.24477 0
M  V30 1104 O 108.047 1.13735 -1.53196 0
M  V30 1105 C 105.187 1.6685 -3.02084 0
M  V30 1106 C 104.3 1.11739 -4.17299 0
M  V30 1107 C 103.435 2.23193 -4.82036 0
M  V30 1108 C 102.474 1.65407 -5.89328 0
M  V30 1109 N 101.611 2.70582 -6.47866 0
M  V30 1110 H 106.451 -0.0904881 -2.97863 0
M  V30 1111 H 103.988 -0.0564282 -1.46992 0
M  V30 1112 H 105.946 2.34407 -3.45122 0
M  V30 1113 H 104.576 2.2509 -2.31375 0
M  V30 1114 H 103.628 0.332919 -3.7894 0
M  V30 1115 H 104.94 0.654677 -4.94485 0
M  V30 1116 H 104.094 2.98626 -5.28117 0
M  V30 1117 H 102.833 2.72807 -4.04262 0
M  V30 1118 H 101.838 0.884779 -5.42634 0
M  V30 1119 H 103.063 1.16652 -6.69006 0
M  V30 1120 H 101.009 3.1946 -5.72959 0
M  V30 1121 H 100.926 2.28917 -7.20509 0
M  V30 1122 H 102.194 3.45799 -6.98601 0
M  V30 1123 N 106.423 1.57458 -0.0668435 0
M  V30 1124 C 107.37 2.12439 0.902122 0
M  V30 1125 C 108.34 1.03565 1.2986 0
M  V30 1126 O 109.525 1.312 1.38532 0
M  V30 1127 C 106.665 2.6865 2.16614 0
M  V30 1128 C 105.778 3.91663 1.82274 0
M  V30 1129 C 104.913 4.36134 3.0325 0
M  V30 1130 C 103.952 5.51808 2.64904 0
M  V30 1131 N 103.089 5.9126 3.78624 0
M  V30 1132 H 107.929 2.94934 0.426382 0
M  V30 1133 H 105.466 1.4575 0.198819 0
M  V30 1134 H 107.424 2.99346 2.90599 0
M  V30 1135 H 106.054 1.88928 2.61737 0
M  V30 1136 H 105.106 3.6746 0.983719 0
M  V30 1137 H 106.418 4.75693 1.50059 0
M  V30 1138 H 105.572 4.68465 3.85519 0
M  V30 1139 H 104.311 3.50948 3.38655 0
M  V30 1140 H 103.316 5.19133 1.81055 0
M  V30 1141 H 104.541 6.38722 2.30675 0
M  V30 1142 H 102.487 5.09024 4.138 0
M  V30 1143 H 102.404 6.70018 3.5016 0
M  V30 1144 H 103.672 6.28212 4.61486 0
M  V30 1145 N 107.901 -0.206675 1.56239 0
M  V30 1146 C 108.831 -1.25909 1.96645 0
M  V30 1147 C 109.812 -1.48097 0.836734 0
M  V30 1148 O 110.997 -1.6003 1.10019 0
M  V30 1149 C 108.127 -2.6058 2.29599 0
M  V30 1150 C 107.081 -2.53024 3.452 0
M  V30 1151 C 106.407 -3.91861 3.63798 0
M  V30 1152 C 107.707 -2.06524 4.79734 0
M  V30 1153 H 109.401 -0.923369 2.84806 0
M  V30 1154 H 106.947 -0.442735 1.37025 0
M  V30 1155 H 108.9 -3.34375 2.56459 0
M  V30 1156 H 107.624 -2.95869 1.38307 0
M  V30 1157 H 106.283 -1.81684 3.18412 0
M  V30 1158 H 105.931 -4.24483 2.69857 0
M  V30 1159 H 105.631 -3.87683 4.4156 0
M  V30 1160 H 107.155 -4.67296 3.93022 0
M  V30 1161 H 108.569 -2.70072 5.05702 0
M  V30 1162 H 106.966 -2.13374 5.60885 0
M  V30 1163 H 108.036 -1.01802 4.74093 0
M  V30 1164 N 109.379 -1.50304 -0.473955 0
M  V30 1165 C 110.626 -1.6115 -1.22625 0
M  V30 1166 C 110.954 -0.310517 -1.92005 0
M  V30 1167 O 110.209 0.703419 -1.82621 0
M  V30 1168 C 110.508 -2.73938 -2.29549 0
M  V30 1169 C 110.174 -4.14519 -1.7744 0
M  V30 1170 C 108.836 -4.5277 -1.62949 0
M  V30 1171 C 111.188 -5.02392 -1.3875 0
M  V30 1172 C 108.516 -5.76639 -1.08187 0
M  V30 1173 C 110.868 -6.26805 -0.854309 0
M  V30 1174 C 109.532 -6.63861 -0.696011 0
M  V30 1175 H 108.802 -0.589691 -0.448715 0
M  V30 1176 H 111.449 -1.84228 -0.522705 0
M  V30 1177 H 109.754 -2.44937 -3.05799 0
M  V30 1178 H 111.451 -2.79534 -2.87509 0
M  V30 1179 H 108.041 -3.8434 -1.89685 0
M  V30 1180 H 112.225 -4.73474 -1.4878 0
M  V30 1181 H 107.481 -6.04027 -0.946666 0
M  V30 1182 H 111.655 -6.94258 -0.545843 0
M  V30 1183 H 109.282 -7.59722 -0.26952 0
M  V30 1184 N 110.857 0.726932 -1.39834 0
M  V30 1185 C 112.273 1.03354 -1.21615 0
M  V30 1186 C 112.473 2.01327 -0.08338 0
M  V30 1187 O 111.529 2.46158 0.56238 0
M  V30 1188 C 112.842 1.58811 -2.55342 0
M  V30 1189 C 114.39 1.70851 -2.62257 0
M  V30 1190 C 114.865 2.29716 -3.96225 0
M  V30 1191 N 116.356 2.37116 -3.97907 0
M  V30 1192 C 117.091 2.83619 -4.98345 0
M  V30 1193 N 116.587 3.29958 -6.09179 0
M  V30 1194 N 118.38 2.82901 -4.8572 0
M  V30 1195 H 110.531 0.0773069 -2.12259 0
M  V30 1196 H 112.794 0.0969102 -0.943034 0
M  V30 1197 H 112.5 0.942855 -3.38826 0
M  V30 1198 H 112.374 2.57502 -2.75632 0
M  V30 1199 H 114.761 2.34497 -1.79152 0
M  V30 1200 H 114.842 0.707913 -2.45809 0
M  V30 1201 H 114.486 1.66696 -4.79765 0
M  V30 1202 H 114.416 3.30469 -4.09997 0
M  V30 1203 H 116.907 2.04374 -3.17868 0
M  V30 1204 H 117.22 3.63976 -6.8172 0
M  V30 1205 H 115.565 3.27946 -6.12761 0
M  V30 1206 H 118.756 2.46027 -3.98231 0
M  V30 1207 H 118.929 3.18827 -5.6414 0
M  V30 1208 N 112.336 1.25143 0.95797 0
M  V30 1209 C 113.246 1.06968 2.08794 0
M  V30 1210 C 114.262 0.00773911 1.73998 0
M  V30 1211 O 115.438 0.207972 2.00323 0
M  V30 1212 C 112.503 0.68691 3.39827 0
M  V30 1213 C 111.564 1.82641 3.88511 0
M  V30 1214 C 110.797 1.46181 5.1329 0
M  V30 1215 O 111.02 0.355971 5.69288 0
M  V30 1216 O 109.954 2.29085 5.566 0
M  V30 1217 H 113.78 2.01723 2.27027 0
M  V30 1218 H 111.365 1.04051 1.07209 0
M  V30 1219 H 113.247 0.485417 4.18595 0
M  V30 1220 H 111.922 -0.231417 3.22872 0
M  V30 1221 H 110.829 2.08274 3.10762 0
M  V30 1222 H 112.162 2.72386 4.09959 0
M  V30 1223 N 113.814 -1.1601 1.06675 0
M  V30 1224 C 115.062 -1.86264 0.784229 0
M  V30 1225 C 115.383 -1.82328 -0.691488 0
M  V30 1226 O 114.653 -1.25947 -1.50047 0
M  V30 1227 H 113.233 -0.689621 0.28711 0
M  V30 1228 H 115.895 -1.40664 1.34906 0
M  V30 1229 H 114.991 -2.91595 1.11259 0
M  V30 1230 N 115.292 -0.849877 -1.32721 0
M  V30 1231 C 116.224 -0.248332 -2.27851 0
M  V30 1232 C 117.237 0.577218 -1.52224 0
M  V30 1233 O 118.426 0.402489 -1.73903 0
M  V30 1234 C 115.526 0.668107 -3.32249 0
M  V30 1235 C 114.699 -0.120534 -4.37234 0
M  V30 1236 C 113.758 0.720932 -5.21238 0
M  V30 1237 O 112.784 0.156166 -5.68986 0
M  V30 1238 N 113.986 2.03647 -5.43607 0
M  V30 1239 H 116.751 -1.06575 -2.80111 0
M  V30 1240 H 114.312 -0.709395 -1.45531 0
M  V30 1241 H 116.304 1.23627 -3.85355 0
M  V30 1242 H 114.874 1.38621 -2.80184 0
M  V30 1243 H 114.094 -0.870108 -3.84477 0
M  V30 1244 H 115.382 -0.662406 -5.0447 0
M  V30 1245 H 114.78 2.51871 -5.06535 0
M  V30 1246 H 113.337 2.55287 -5.99727 0
M  V30 1247 N 116.77 1.45427 -0.607355 0
M  V30 1248 C 118.017 2.02241 -0.102455 0
M  V30 1249 C 118.345 1.4758 1.26691 0
M  V30 1250 O 117.6 0.640468 1.84923 0
M  V30 1251 C 117.899 3.57398 -0.0129263 0
M  V30 1252 C 117.565 4.3121 -1.31792 0
M  V30 1253 C 116.227 4.51092 -1.67539 0
M  V30 1254 C 118.579 4.73401 -2.18039 0
M  V30 1255 C 115.907 5.10422 -2.89285 0
M  V30 1256 C 118.259 5.34078 -3.39034 0
M  V30 1257 C 116.923 5.52184 -3.75033 0
M  V30 1258 H 116.193 0.740051 -0.037491 0
M  V30 1259 H 118.84 1.74494 -0.788926 0
M  V30 1260 H 117.145 3.84421 0.756806 0
M  V30 1261 H 118.842 3.99061 0.393881 0
M  V30 1262 H 115.432 4.16047 -1.02968 0
M  V30 1263 H 119.616 4.57774 -1.91721 0
M  V30 1264 H 114.872 5.22629 -3.17283 0
M  V30 1265 H 119.046 5.65724 -4.06115 0
M  V30 1266 H 116.673 5.97925 -4.69457 0
M  V30 1267 N 118.248 0.346503 1.53744 0
M  V30 1268 C 119.196 -0.52422 2.26616 0
M  V30 1269 C 120.19 -1.09948 1.28871 0
M  V30 1270 O 121.396 -1.04488 1.46568 0
M  V30 1271 H 117.771 -0.187743 0.728187 0
M  V30 1272 H 119.742 0.11239 2.98188 0
M  V30 1273 C 118.491 -1.66186 3.05414 0
M  V30 1274 H 117.814 -1.22848 3.80458 0
M  V30 1275 H 119.254 -2.24622 3.59612 0
M  V30 1276 C 117.713 -2.59302 2.1509 0
M  V30 1277 O 118.243 -3.61628 1.74895 0
M  V30 1278 N 116.449 -2.28055 1.8011 0
M  V30 1279 H 115.996 -1.44883 2.12994 0
M  V30 1280 H 115.954 -2.90615 1.19958 0
M  V30 1281 O 119.765 -1.60064 0.214914 0
M  V30 1282 H 120.456 -1.90195 -0.366829 0
M  V30 END ATOM
M  V30 BEGIN BOND
M  V30 END BOND
M  V30 END CTAB
M  END
$$$$
