drugbank_target|Q4W8W1 Pyrroline-5-carboxylate reductase (DB00172)
 OpenBabel12092120093D

  0  0  0     0  0            999 V3000
M  V30 BEGIN CTAB
M  V30 COUNTS 4751 4786 0 0 0
M  V30 BEGIN ATOM
M  V30 1 H -0.908 1.98254 -0.117106 0
M  V30 2 N 0 1.576 0 0
M  V30 3 C 0.933 2.03868 1.02534 0
M  V30 4 C 1.911 0.928543 1.3348 0
M  V30 5 O 3.095 1.19667 1.45644 0
M  V30 6 C 0.222 2.43627 2.35294 0
M  V30 7 C -0.732 3.65373 2.2001 0
M  V30 8 S 0.101 5.13292 1.52614 0
M  V30 9 C 1.257 5.56322 2.86805 0
M  V30 10 H 1.49 2.90518 0.631377 0
M  V30 11 H -0.977 1.52953 0.210867 0
M  V30 12 H 0.981 2.67203 3.11629 0
M  V30 13 H -0.358 1.57376 2.7183 0
M  V30 14 H -1.165 3.90944 3.18086 0
M  V30 15 H -1.563 3.418 1.51819 0
M  V30 16 H 0.729 5.58782 3.83104 0
M  V30 17 H 1.672 6.56266 2.65933 0
M  V30 18 H 2.08 4.83886 2.90714 0
M  V30 19 N 1.4781 -0.272755 1.55222 0
M  V30 20 C 2.7031 -1.02683 1.80197 0
M  V30 21 C 3.1281 -1.79142 0.573551 0
M  V30 22 O 2.4861 -1.74917 -0.476849 0
M  V30 23 C 2.5341 -1.9609 3.02624 0
M  V30 24 O 1.6381 -3.04863 2.77727 0
M  V30 25 H 0.9791 -0.293557 0.595584 0
M  V30 26 H 3.5091 -0.30159 2.02365 0
M  V30 27 H 3.5191 -2.38039 3.31363 0
M  V30 28 H 2.1941 -1.39851 3.91682 0
M  V30 29 H 0.7711 -2.67228 2.60084 0
M  V30 30 N 2.9562 -1.48159 -0.537278 0
M  V30 31 C 4.2022 -1.56035 -1.29541 0
M  V30 32 C 4.5352 -0.230377 -1.92829 0
M  V30 33 O 3.8102 0.762952 -1.78911 0
M  V30 34 C 4.0932 -2.69323 -2.39034 0
M  V30 35 C 3.9462 -4.12002 -1.80485 0
M  V30 36 C 5.2652 -2.78408 -3.40847 0
M  V30 37 H 2.3842 -0.567992 -0.469632 0
M  V30 38 H 5.0262 -1.80302 -0.599277 0
M  V30 39 H 3.1762 -2.48763 -2.98412 0
M  V30 40 H 4.8482 -4.43981 -1.25215 0
M  V30 41 H 3.0912 -4.19344 -1.11055 0
M  V30 42 H 3.7622 -4.87077 -2.59731 0
M  V30 43 H 6.2382 -2.97012 -2.91416 0
M  V30 44 H 5.1142 -3.59416 -4.14863 0
M  V30 45 H 5.3752 -1.86269 -4.00944 0
M  V30 46 N 4.4343 0.785586 -1.36625 0
M  V30 47 C 5.6823 1.54057 -1.30808 0
M  V30 48 C 6.0033 1.94683 0.111157 0
M  V30 49 O 5.2733 1.65241 1.05224 0
M  V30 50 H 3.8533 0.571354 -0.481211 0
M  V30 51 H 6.5153 0.935821 -1.70963 0
M  V30 52 H 5.6113 2.44637 -1.93801 0
M  V30 53 N 5.9124 1.20967 1.01018 0
M  V30 54 C 7.1594 1.02374 1.74716 0
M  V30 55 C 7.4874 -0.443375 1.89379 0
M  V30 56 O 6.7424 -1.34535 1.42123 0
M  V30 57 C 7.0414 1.65997 3.16512 0
M  V30 58 C 6.7074 3.15831 3.2181 0
M  V30 59 C 5.3694 3.56719 3.22963 0
M  V30 60 C 7.7214 4.11816 3.19464 0
M  V30 61 C 5.0494 4.92107 3.19449 0
M  V30 62 C 7.4014 5.47158 3.17491 0
M  V30 63 C 6.0654 5.87451 3.16951 0
M  V30 64 H 5.3354 0.374614 0.639332 0
M  V30 65 H 7.9824 1.50485 1.18434 0
M  V30 66 H 6.2874 1.10166 3.75993 0
M  V30 67 H 7.9844 1.49119 3.72242 0
M  V30 68 H 4.5744 2.83263 3.21652 0
M  V30 69 H 8.7584 3.81257 3.17737 0
M  V30 70 H 4.0144 5.22579 3.17366 0
M  V30 71 H 8.1884 6.21274 3.14629 0
M  V30 72 H 5.8154 6.92329 3.13983 0
M  V30 73 N 7.3905 -1.2043 1.01659 0
M  V30 74 C 8.6395 -1.89118 0.701237 0
M  V30 75 C 8.9525 -1.79705 -0.772358 0
M  V30 76 O 10.1585 -2.43528 -1.20026 0
M  V30 77 C 8.6145 -3.39168 1.20388 0
M  V30 78 C 8.2225 -3.57166 2.70438 0
M  V30 79 C 9.9665 -4.1341 0.963953 0
M  V30 80 C 7.8735 -5.01042 3.14183 0
M  V30 81 H 6.8035 -0.708267 0.2586 0
M  V30 82 H 9.4545 -1.36239 1.22927 0
M  V30 83 H 7.8365 -3.91369 0.603824 0
M  V30 84 H 9.0105 -3.15351 3.35992 0
M  V30 85 H 7.3255 -2.96294 2.92572 0
M  V30 86 H 9.9225 -5.19491 1.26621 0
M  V30 87 H 10.2655 -4.16181 -0.099578 0
M  V30 88 H 10.7985 -3.67309 1.52738 0
M  V30 89 H 7.5375 -5.03426 4.19812 0
M  V30 90 H 7.0575 -5.43668 2.53348 0
M  V30 91 H 8.7365 -5.69623 3.0682 0
M  V30 92 N 8.8686 -0.792821 -1.36206 0
M  V30 93 C 10.1166 -0.366062 -1.98757 0
M  V30 94 C 10.4376 1.0668 -1.63231 0
M  V30 95 O 9.7076 1.73587 -0.907978 0
M  V30 96 H 8.2876 -0.132364 -0.735179 0
M  V30 97 H 10.9496 -1.01562 -1.66347 0
M  V30 98 H 10.0456 -0.460638 -3.08682 0
M  V30 99 N 10.3467 1.47872 -0.545128 0
M  V30 100 C 11.3097 2.28337 0.198717 0
M  V30 101 C 12.3097 1.36255 0.853888 0
M  V30 102 O 13.4997 1.59003 0.711606 0
M  V30 103 C 10.6317 3.15585 1.28915 0
M  V30 104 H 11.8247 2.95567 -0.507941 0
M  V30 105 H 9.3777 1.53362 -0.301616 0
M  V30 106 H 10.1127 2.53019 2.02859 0
M  V30 107 H 9.8977 3.83337 0.824309 0
M  V30 108 H 11.3877 3.76243 1.81194 0
M  V30 109 N 11.8248 0.280983 1.55075 0
M  V30 110 C 13.0728 -0.333455 1.9933 0
M  V30 111 C 13.3938 -1.55937 1.17085 0
M  V30 112 O 12.6638 -1.94143 0.261805 0
M  V30 113 H 11.2438 -0.126197 0.736263 0
M  V30 114 H 13.9058 0.387678 1.91005 0
M  V30 115 H 13.0018 -0.619292 3.05894 0
M  V30 116 N 13.3029 -1.57598 0.00835791 0
M  V30 117 C 14.2349 -2.05811 -1.00868 0
M  V30 118 C 15.2479 -0.977579 -1.30182 0
M  V30 119 O 16.4369 -1.25421 -1.27011 0
M  V30 120 C 13.5369 -2.45016 -2.34137 0
M  V30 121 C 12.7099 -3.75903 -2.23643 0
M  V30 122 C 11.7689 -4.01884 -3.3967 0
M  V30 123 O 10.7949 -4.72433 -3.17483 0
M  V30 124 N 11.9969 -3.50432 -4.62793 0
M  V30 125 H 14.7619 -2.93684 -0.597458 0
M  V30 126 H 12.3229 -1.60909 -0.178852 0
M  V30 127 H 14.3149 -2.59506 -3.10546 0
M  V30 128 H 12.8849 -1.62618 -2.66972 0
M  V30 129 H 12.1049 -3.7141 -1.32091 0
M  V30 130 H 13.3929 -4.61695 -2.13812 0
M  V30 131 H 12.7909 -2.93317 -4.83716 0
M  V30 132 H 11.3479 -3.70236 -5.3644 0
M  V30 133 N 14.781 0.264519 -1.55364 0
M  V30 134 C 15.711 1.33121 -1.91836 0
M  V30 135 C 16.692 1.51101 -0.781192 0
M  V30 136 O 17.877 1.64003 -1.04003 0
M  V30 137 C 15.007 2.68921 -2.19769 0
M  V30 138 C 13.961 2.65661 -3.35571 0
M  V30 139 C 13.287 4.05093 -3.49004 0
M  V30 140 C 14.587 2.24187 -4.71739 0
M  V30 141 H 16.281 1.02844 -2.81182 0
M  V30 142 H 13.827 0.493286 -1.35287 0
M  V30 143 H 15.78 3.43663 -2.43872 0
M  V30 144 H 14.504 3.00799 -1.27231 0
M  V30 145 H 13.163 1.93377 -3.1145 0
M  V30 146 H 12.811 4.34206 -2.53917 0
M  V30 147 H 12.511 4.03804 -4.26868 0
M  V30 148 H 14.035 4.81561 -3.75408 0
M  V30 149 H 15.449 2.88654 -4.9533 0
M  V30 150 H 13.846 2.34044 -5.52579 0
M  V30 151 H 14.916 1.19327 -4.69988 0
M  V30 152 N 16.2591 1.48442 0.529413 0
M  V30 153 C 17.2221 1.62524 1.61612 0
M  V30 154 C 18.2221 0.498509 1.52877 0
M  V30 155 O 19.4121 0.76431 1.56537 0
M  V30 156 C 16.5441 1.59597 3.01233 0
M  V30 157 H 17.7371 2.59423 1.50465 0
M  V30 158 H 15.2901 1.37047 0.751514 0
M  V30 159 H 16.0251 0.641781 3.17886 0
M  V30 160 H 15.8101 2.41397 3.08982 0
M  V30 161 H 17.3001 1.72646 3.80241 0
M  V30 162 N 17.7372 -0.778329 1.37039 0
M  V30 163 C 18.6702 -1.8984 1.26633 0
M  V30 164 C 19.6482 -1.61923 0.148197 0
M  V30 165 O 20.8322 -1.85742 0.321265 0
M  V30 166 C 17.9592 -3.24916 0.956403 0
M  V30 167 C 17.0052 -3.71752 2.09051 0
M  V30 168 S 17.8382 -3.86201 3.70957 0
M  V30 169 C 18.9942 -5.24135 3.42101 0
M  V30 170 H 19.2272 -1.98377 2.21436 0
M  V30 171 H 16.7602 -0.938738 1.22585 0
M  V30 172 H 18.7182 -4.02936 0.784409 0
M  V30 173 H 17.3792 -3.14089 0.0259713 0
M  V30 174 H 16.5722 -4.69661 1.8285 0
M  V30 175 H 16.1742 -3.00815 2.2223 0
M  V30 176 H 18.4662 -6.09086 2.96682 0
M  V30 177 H 19.4092 -5.55346 4.39314 0
M  V30 178 H 19.8172 -4.91761 2.77185 0
M  V30 179 N 19.2153 -1.21501 -1.00376 0
M  V30 180 C 20.1453 -0.999478 -2.11028 0
M  V30 181 C 21.1263 0.0759671 -1.6993 0
M  V30 182 O 22.3113 -0.0841106 -1.94018 0
M  V30 183 C 19.4413 -0.564709 -3.42678 0
M  V30 184 C 18.3953 -1.58486 -3.97576 0
M  V30 185 C 17.7213 -1.00628 -5.25146 0
M  V30 186 C 19.0213 -2.97204 -4.29496 0
M  V30 187 H 20.7153 -1.92495 -2.29317 0
M  V30 188 H 18.2613 -0.92693 -1.102 0
M  V30 189 H 20.2143 -0.401091 -4.19487 0
M  V30 190 H 18.9383 0.396411 -3.24185 0
M  V30 191 H 17.5973 -1.73606 -3.22888 0
M  V30 192 H 17.2453 -0.0368439 -5.02987 0
M  V30 193 H 16.9453 -1.68771 -5.62841 0
M  V30 194 H 18.4693 -0.854015 -6.04598 0
M  V30 195 H 19.8833 -2.8552 -4.97143 0
M  V30 196 H 18.2803 -3.62372 -4.78338 0
M  V30 197 H 19.3503 -3.47956 -3.3772 0
M  V30 198 N 20.6934 1.19889 -1.02296 0
M  V30 199 C 21.9394 1.89973 -0.726759 0
M  V30 200 C 22.2944 1.7776 0.73614 0
M  V30 201 O 21.5874 1.15523 1.52856 0
M  V30 202 C 21.7814 3.39883 -1.10518 0
M  V30 203 C 21.6104 3.66684 -2.60332 0
M  V30 204 C 20.3804 3.85045 -3.27213 0
M  V30 205 C 22.5784 3.68727 -3.58532 0
M  V30 206 N 20.5604 3.99422 -4.66192 0
M  V30 207 C 21.9314 3.88604 -4.83101 0
M  V30 208 C 23.9864 3.51722 -3.52414 0
M  V30 209 C 22.6894 3.9324 -6.02292 0
M  V30 210 C 24.7154 3.57632 -4.71013 0
M  V30 211 C 24.0774 3.77988 -5.94394 0
M  V30 212 H 20.1764 0.714551 -0.317712 0
M  V30 213 H 22.7604 1.44123 -1.30907 0
M  V30 214 H 20.9314 3.8447 -0.551142 0
M  V30 215 H 22.6634 3.97464 -0.761853 0
M  V30 216 H 19.4184 3.83689 -2.77632 0
M  V30 217 H 19.8424 4.10473 -5.38368 0
M  V30 218 H 24.4844 3.34945 -2.58015 0
M  V30 219 H 22.2024 4.08811 -6.97065 0
M  V30 220 H 25.7884 3.45773 -4.67902 0
M  V30 221 H 24.6684 3.82428 -6.8463 0
M  V30 222 N 22.1715 0.800033 1.35784 0
M  V30 223 C 23.5875 0.482977 1.52117 0
M  V30 224 C 23.7875 -0.996948 1.75109 0
M  V30 225 O 22.8435 -1.78216 1.78872 0
M  V30 226 C 24.1565 1.32264 2.70049 0
M  V30 227 C 25.7045 1.31742 2.83924 0
M  V30 228 C 26.1795 2.14106 4.04874 0
M  V30 229 N 27.6705 2.11607 4.12039 0
M  V30 230 C 28.4055 2.72099 5.04727 0
M  V30 231 N 27.9015 3.41492 6.02789 0
M  V30 232 N 29.6945 2.61776 4.97423 0
M  V30 233 H 21.8455 1.75856 1.19115 0
M  V30 234 H 24.1085 0.748122 0.582252 0
M  V30 235 H 23.8145 2.37261 2.59616 0
M  V30 236 H 23.6885 0.971303 3.6448 0
M  V30 237 H 26.0755 0.275333 2.93813 0
M  V30 238 H 26.1565 1.70859 1.9037 0
M  V30 239 H 25.8005 3.18351 3.95746 0
M  V30 240 H 25.7305 1.72353 4.97596 0
M  V30 241 H 28.2215 1.61112 3.41835 0
M  V30 242 H 28.5345 3.84953 6.70098 0
M  V30 243 H 26.8795 3.45596 6.02983 0
M  V30 244 H 30.0705 2.07157 4.19766 0
M  V30 245 H 30.2435 3.0921 5.69468 0
M  V30 246 N 23.6496 -1.47581 0.552962 0
M  V30 247 C 24.8976 -2.02082 0.0272703 0
M  V30 248 C 25.2186 -1.4301 -1.32563 0
M  V30 249 O 24.4886 -0.603745 -1.86365 0
M  V30 250 H 23.0686 -0.746966 0.00709182 0
M  V30 251 H 25.7306 -1.81033 0.722008 0
M  V30 252 H 24.8266 -3.12034 -0.0639951 0
M  V30 253 N 25.1277 -0.289203 -1.54924 0
M  V30 254 C 26.0907 0.579144 -2.21762 0
M  V30 255 C 27.0907 1.07047 -1.1999 0
M  V30 256 O 28.2807 0.968384 -1.44803 0
M  V30 257 C 25.4127 1.80055 -2.8947 0
M  V30 258 H 26.6057 -0.00464908 -2.999 0
M  V30 259 H 24.1587 -0.0399306 -1.56249 0
M  V30 260 H 24.8937 2.42449 -2.15381 0
M  V30 261 H 24.6787 1.45602 -3.64064 0
M  V30 262 H 26.1687 2.41773 -3.40493 0
M  V30 263 N 26.6058 1.57591 -0.0167156 0
M  V30 264 C 27.8308 1.9598 0.67872 0
M  V30 265 C 28.2558 0.892546 1.65575 0
M  V30 266 O 27.6138 -0.147772 1.80697 0
M  V30 267 C 27.6618 3.33468 1.37227 0
M  V30 268 O 26.7658 3.28954 2.48722 0
M  V30 269 H 26.1068 0.639339 0.17928 0
M  V30 270 H 28.6368 2.04463 -0.0748802 0
M  V30 271 H 28.6468 3.69417 1.7319 0
M  V30 272 H 27.3218 4.10694 0.656007 0
M  V30 273 H 25.8988 3.04705 2.14963 0
M  V30 274 N 28.0839 -0.256276 1.55502 0
M  V30 275 C 29.4999 -0.604325 1.47716 0
M  V30 276 C 29.6999 -1.88763 0.705039 0
M  V30 277 O 28.7559 -2.51445 0.230613 0
M  V30 278 C 30.0689 -0.715756 2.92057 0
M  V30 279 C 31.6169 -0.808706 3.02372 0
M  V30 280 C 32.0919 -0.951777 4.48001 0
M  V30 281 N 33.5829 -1.01688 4.519 0
M  V30 282 C 34.3179 -1.14668 5.61817 0
M  V30 283 N 33.8139 -1.24261 6.81565 0
M  V30 284 N 35.6069 -1.1791 5.49594 0
M  V30 285 H 27.7579 0.586291 2.04148 0
M  V30 286 H 30.0209 0.201015 0.926443 0
M  V30 287 H 29.7269 0.157027 3.51349 0
M  V30 288 H 29.6009 -1.59071 3.42018 0
M  V30 289 H 31.9879 -1.67195 2.43166 0
M  V30 290 H 32.0689 0.0912063 2.55637 0
M  V30 291 H 31.7129 -0.0931291 5.07815 0
M  V30 292 H 31.6429 -1.86659 4.92408 0
M  V30 293 H 34.1339 -0.954468 3.65648 0
M  V30 294 H 34.4469 -1.34046 7.61086 0
M  V30 295 H 32.7919 -1.21236 6.84344 0
M  V30 296 H 35.9829 -1.10057 4.54978 0
M  V30 297 H 36.1559 -1.27681 6.35296 0
M  V30 298 N 29.562 -1.4872 -0.521534 0
M  V30 299 C 30.973 -1.50607 -1.10337 0
M  V30 300 C 31.324 -0.280612 -1.94183 0
M  V30 301 O 30.449 0.611507 -2.0758 0
M  V30 302 C 31.044 -2.72903 -2.00772 0
M  V30 303 C 29.603 -2.77634 -2.54158 0
M  V30 304 C 28.75 -2.44241 -1.31307 0
M  V30 305 H 31.701 -1.55714 -0.306388 0
M  V30 306 H 31.722 -2.519 -2.85178 0
M  V30 307 H 31.234 -3.62077 -1.39721 0
M  V30 308 H 29.335 -1.92689 -3.18907 0
M  V30 309 H 29.448 -3.79283 -2.92714 0
M  V30 310 H 27.812 -1.95577 -1.63161 0
M  V30 311 H 28.595 -3.35666 -0.719943 0
M  V30 312 N 31.0401 0.771051 -1.3745 0
M  V30 313 C 31.9721 1.89352 -1.29146 0
M  V30 314 C 32.9851 1.61477 -0.207124 0
M  V30 315 O 34.1741 1.72382 -0.463324 0
M  V30 316 C 31.2741 3.24596 -0.974195 0
M  V30 317 C 30.4471 3.80111 -2.16413 0
M  V30 318 C 29.5061 4.93832 -1.81703 0
M  V30 319 O 28.5321 5.09382 -2.54006 0
M  V30 320 N 29.7341 5.75483 -0.761573 0
M  V30 321 H 32.4991 1.96991 -2.25864 0
M  V30 322 H 30.0601 0.950191 -1.31084 0
M  V30 323 H 32.0521 3.98193 -0.722828 0
M  V30 324 H 30.6221 3.12454 -0.0955527 0
M  V30 325 H 29.8421 2.98284 -2.57721 0
M  V30 326 H 31.1301 4.13932 -2.95867 0
M  V30 327 H 30.5281 5.65469 -0.161609 0
M  V30 328 H 29.0851 6.49302 -0.570064 0
M  V30 329 N 32.5182 1.22032 0.997298 0
M  V30 330 C 33.7672 1.03637 1.73038 0
M  V30 331 C 34.0802 -0.429475 1.90827 0
M  V30 332 O 35.2862 -0.732995 2.61418 0
M  V30 333 C 33.7422 1.80582 3.11317 0
M  V30 334 C 33.3502 3.31387 3.01474 0
M  V30 335 C 35.0942 1.70621 3.88701 0
M  V30 336 C 33.0012 4.00791 4.3488 0
M  V30 337 H 31.9312 0.384179 0.648785 0
M  V30 338 H 34.5822 1.4584 1.11368 0
M  V30 339 H 32.9642 1.31175 3.73643 0
M  V30 340 H 34.1382 3.88155 2.4834 0
M  V30 341 H 32.4532 3.41976 2.37575 0
M  V30 342 H 35.0502 2.19799 4.87434 0
M  V30 343 H 35.3932 0.665823 4.10941 0
M  V30 344 H 35.9262 2.17547 3.33044 0
M  V30 345 H 32.6652 5.05064 4.1784 0
M  V30 346 H 32.1852 3.48811 4.87945 0
M  V30 347 H 33.8642 4.06139 5.03647 0
M  V30 348 N 33.9963 -1.19345 1.0293 0
M  V30 349 C 35.4073 -1.70725 0.755633 0
M  V30 350 C 35.7583 -1.82326 -0.724676 0
M  V30 351 O 34.8833 -1.49471 -1.56484 0
M  V30 352 C 35.4783 -3.10084 1.36503 0
M  V30 353 C 34.0373 -3.58723 1.13994 0
M  V30 354 C 33.1843 -2.35577 1.46283 0
M  V30 355 H 36.1353 -1.0418 1.19718 0
M  V30 356 H 36.1563 -3.72787 0.762217 0
M  V30 357 H 35.6683 -3.01609 2.44241 0
M  V30 358 H 33.7693 -3.72512 0.0807901 0
M  V30 359 H 33.8823 -4.42816 1.82894 0
M  V30 360 H 32.2463 -2.38935 0.88217 0
M  V30 361 H 33.0293 -2.29731 2.55105 0
M  V30 362 N 35.4744 -0.807222 -1.35358 0
M  V30 363 C 36.7204 -0.388463 -1.99045 0
M  V30 364 C 37.0534 1.04184 -1.63888 0
M  V30 365 O 36.3284 1.72292 -0.902535 0
M  V30 366 C 36.6114 -0.572783 -3.55515 0
M  V30 367 C 36.4644 -2.04807 -4.00468 0
M  V30 368 C 37.7834 0.00114064 -4.401 0
M  V30 369 H 34.9024 -0.142619 -0.723069 0
M  V30 370 H 37.5444 -1.01687 -1.60498 0
M  V30 371 H 35.6944 -0.0378425 -3.88482 0
M  V30 372 H 37.3664 -2.64544 -3.77908 0
M  V30 373 H 35.6094 -2.54427 -3.51353 0
M  V30 374 H 36.2804 -2.12792 -5.09337 0
M  V30 375 H 38.7564 -0.455716 -4.13597 0
M  V30 376 H 37.6324 -0.157737 -5.48673 0
M  V30 377 H 37.8934 1.09488 -4.28328 0
M  V30 378 N 36.9525 1.47285 -0.560781 0
M  V30 379 C 38.2005 2.02064 -0.0379868 0
M  V30 380 C 38.5215 1.43711 1.31803 0
M  V30 381 O 37.7915 0.61362 1.86042 0
M  V30 382 H 36.3715 0.746918 -0.0110531 0
M  V30 383 H 39.0335 1.80648 -0.731598 0
M  V30 384 H 38.1295 3.12064 0.0474463 0
M  V30 385 N 38.4306 0.297415 1.54768 0
M  V30 386 C 39.6556 -0.318435 2.04941 0
M  V30 387 C 40.0806 -1.4701 1.17345 0
M  V30 388 O 39.4386 -1.80436 0.176758 0
M  V30 389 C 39.4866 -0.755749 3.52592 0
M  V30 390 O 38.5906 -1.86088 3.68028 0
M  V30 391 H 37.9316 -0.062421 0.661059 0
M  V30 392 H 40.4616 0.438215 1.99852 0
M  V30 393 H 40.4716 -1.04552 3.94376 0
M  V30 394 H 39.1466 0.0867233 4.1581 0
M  V30 395 H 37.7236 -1.57193 3.38149 0
M  V30 396 N 39.9087 -1.5758 0.0250728 0
M  V30 397 C 40.8407 -2.06869 -0.986796 0
M  V30 398 C 41.8537 -0.991332 -1.29137 0
M  V30 399 O 43.0427 -1.26761 -1.25674 0
M  V30 400 C 40.1427 -2.47486 -2.31525 0
M  V30 401 C 39.3157 -3.78253 -2.19643 0
M  V30 402 C 38.3747 -4.05464 -3.35388 0
M  V30 403 O 37.4007 -4.75774 -3.12454 0
M  V30 404 N 38.6027 -3.55321 -4.59051 0
M  V30 405 H 41.3677 -2.94302 -0.566276 0
M  V30 406 H 38.9287 -1.6109 -0.161776 0
M  V30 407 H 40.9207 -2.62785 -3.07776 0
M  V30 408 H 39.4907 -1.65441 -2.65232 0
M  V30 409 H 38.7107 -3.7279 -1.28144 0
M  V30 410 H 39.9987 -4.63936 -2.08903 0
M  V30 411 H 39.3967 -2.98431 -4.80578 0
M  V30 412 H 37.9537 -3.75905 -5.32483 0
M  V30 413 N 41.3868 0.248026 -1.55636 0
M  V30 414 C 42.6638 0.998988 -1.68165 0
M  V30 415 C 43.0438 2.03409 -0.564621 0
M  V30 416 O 42.3918 2.24378 0.432076 0
M  V30 417 C 42.6018 1.63334 -3.0842 0
M  V30 418 C 43.9498 2.13562 -3.66983 0
M  V30 419 O 44.9738 1.73277 -3.11213 0
M  V30 420 O 43.8328 2.87526 -4.64749 0
M  V30 421 H 40.9268 0.464933 -0.683935 0
M  V30 422 H 43.4728 0.241902 -1.67967 0
M  V30 423 H 42.2448 0.884583 -3.8117 0
M  V30 424 H 41.8678 2.45666 -3.12624 0
M  V30 425 N 42.8649 1.48995 0.513639 0
M  V30 426 C 43.8129 1.65199 1.63744 0
M  V30 427 C 44.8069 0.51809 1.61283 0
M  V30 428 O 46.0129 0.697335 1.65943 0
M  V30 429 H 42.3879 0.52069 0.542574 0
M  V30 430 H 44.3589 2.59552 1.47226 0
M  V30 431 C 43.1079 1.72409 3.01945 0
M  V30 432 H 42.4309 2.59029 3.04539 0
M  V30 433 H 43.8709 1.87785 3.80148 0
M  V30 434 C 42.3299 0.46618 3.33659 0
M  V30 435 O 42.8599 -0.413744 3.99564 0
M  V30 436 N 41.0659 0.332931 2.88687 0
M  V30 437 H 40.6129 1.04996 2.35231 0
M  V30 438 H 40.5709 -0.507665 3.10274 0
M  V30 439 N 44.343 -0.763751 1.37857 0
M  V30 440 C 45.568 -1.55805 1.36893 0
M  V30 441 C 45.993 -1.88054 -0.0416135 0
M  V30 442 O 45.351 -1.49825 -1.02089 0
M  V30 443 C 45.399 -2.84012 2.22192 0
M  V30 444 O 44.503 -3.78732 1.63204 0
M  V30 445 H 43.844 -0.471638 0.46739 0
M  V30 446 H 46.374 -0.944657 1.81487 0
M  V30 447 H 46.384 -3.33037 2.35691 0
M  V30 448 H 45.059 -2.59869 3.24716 0
M  V30 449 H 43.636 -3.37402 1.58791 0
M  V30 450 N 45.8211 -1.22559 -0.990812 0
M  V30 451 C 46.7531 -0.955325 -2.08342 0
M  V30 452 C 47.7661 0.0668408 -1.62663 0
M  V30 453 O 48.9551 -0.167421 -1.77713 0
M  V30 454 C 46.0551 -0.415566 -3.36342 0
M  V30 455 C 45.2281 -1.49544 -4.11042 0
M  V30 456 C 44.2871 -0.962399 -5.17324 0
M  V30 457 O 43.3131 -1.64907 -5.44788 0
M  V30 458 N 44.5151 0.215134 -5.80101 0
M  V30 459 H 47.2801 -1.89596 -2.32106 0
M  V30 460 H 44.8411 -1.13276 -1.15673 0
M  V30 461 H 46.8331 -0.0442386 -4.04676 0
M  V30 462 H 45.4031 0.430232 -3.09625 0
M  V30 463 H 44.6231 -2.04 -3.37309 0
M  V30 464 H 45.9111 -2.22195 -4.57719 0
M  V30 465 H 45.3091 0.789779 -5.6016 0
M  V30 466 H 43.8661 0.527826 -6.49659 0
M  V30 467 N 47.2992 1.18797 -1.03562 0
M  V30 468 C 48.2292 2.24472 -0.643019 0
M  V30 469 C 49.2102 1.66433 0.351283 0
M  V30 470 O 50.3952 1.92803 0.232505 0
M  V30 471 C 47.5252 3.473 4.24935e-05 0
M  V30 472 C 46.4792 4.18055 -0.917257 0
M  V30 473 C 45.8052 5.34519 -0.138941 0
M  V30 474 C 47.1052 4.72109 -2.23407 0
M  V30 475 H 48.7992 2.57566 -1.52643 0
M  V30 476 H 46.3452 1.23806 -0.735394 0
M  V30 477 H 48.2982 4.20426 0.286383 0
M  V30 478 H 47.0222 3.13424 0.918299 0
M  V30 479 H 45.6812 3.46821 -1.1879 0
M  V30 480 H 45.3292 4.96891 0.781562 0
M  V30 481 H 45.0292 5.82794 -0.750005 0
M  V30 482 H 46.5532 6.10438 0.1405 0
M  V30 483 H 47.9672 5.36955 -2.00879 0
M  V30 484 H 46.3642 5.30897 -2.79765 0
M  V30 485 H 47.4342 3.89807 -2.88407 0
M  V30 486 N 48.7773 0.814389 1.34928 0
M  V30 487 C 50.1883 0.458364 1.80986 0
M  V30 488 C 50.5393 -1.02042 1.67577 0
M  V30 489 O 49.6643 -1.79352 1.21086 0
M  V30 490 C 50.2593 0.825212 3.28597 0
M  V30 491 C 48.8183 0.521677 3.72767 0
M  V30 492 C 47.9653 1.04668 2.56788 0
M  V30 493 H 50.9163 1.00533 1.22795 0
M  V30 494 H 50.9373 0.12571 3.80292 0
M  V30 495 H 50.4493 1.90154 3.38324 0
M  V30 496 H 48.5503 -0.545589 3.68584 0
M  V30 497 H 48.6633 1.05977 4.67232 0
M  V30 498 H 47.0273 0.468622 2.50352 0
M  V30 499 H 47.8103 2.12927 2.6929 0
M  V30 500 N 50.2554 -1.46986 0.568584 0
M  V30 501 C 51.6714 -1.57946 0.229189 0
M  V30 502 C 51.8714 -1.56567 -1.26843 0
M  V30 503 O 50.9274 -1.47511 -2.04931 0
M  V30 504 C 52.2404 -2.87963 0.865909 0
M  V30 505 C 53.7884 -3.01568 0.838188 0
M  V30 506 C 54.2634 -4.34301 1.45419 0
M  V30 507 N 55.7544 -4.40965 1.41788 0
M  V30 508 C 56.4894 -5.42256 1.86403 0
M  V30 509 N 55.9854 -6.50297 2.38926 0
M  V30 510 N 57.7784 -5.3337 1.77405 0
M  V30 511 H 49.9294 -1.46126 1.54146 0
M  V30 512 H 52.1924 -0.696156 0.643484 0
M  V30 513 H 51.8984 -2.94742 1.91886 0
M  V30 514 H 51.7724 -3.75423 0.365687 0
M  V30 515 H 54.1594 -2.94379 -0.206106 0
M  V30 516 H 54.2404 -2.1562 1.37629 0
M  V30 517 H 53.8844 -4.42247 2.49761 0
M  V30 518 H 53.8144 -5.19 0.891435 0
M  V30 519 H 56.3054 -3.63484 1.03381 0
M  V30 520 H 56.6184 -7.23777 2.70863 0
M  V30 521 H 54.9634 -6.51155 2.42944 0
M  V30 522 H 58.1544 -4.47865 1.3614 0
M  V30 523 H 58.3274 -6.12169 2.12492 0
M  V30 524 N 51.7335 -0.305618 -1.54608 0
M  V30 525 C 52.6815 0.584119 -2.25146 0
M  V30 526 C 53.6755 1.13326 -1.25911 0
M  V30 527 O 54.8815 1.08337 -1.43747 0
M  V30 528 H 51.2565 0.206983 -0.722954 0
M  V30 529 H 53.2275 -0.033291 -2.98381 0
M  V30 530 C 51.9765 1.74225 -3.009 0
M  V30 531 H 51.2995 1.32892 -3.77067 0
M  V30 532 H 52.7395 2.34077 -3.53531 0
M  V30 533 C 51.1985 2.64914 -2.0814 0
M  V30 534 O 51.7285 3.66137 -1.65246 0
M  V30 535 N 49.9345 2.3275 -1.74 0
M  V30 536 H 49.4815 1.50479 -2.09078 0
M  V30 537 H 49.4395 2.93694 -1.12211 0
M  V30 538 N 53.2116 1.57565 -0.0334293 0
M  V30 539 C 54.1216 2.13943 0.962572 0
M  V30 540 C 55.1376 1.09276 1.35406 0
M  V30 541 O 56.3136 1.41355 1.4346 0
M  V30 542 C 53.3786 2.65887 2.22497 0
M  V30 543 C 52.4396 3.85286 1.8935 0
M  V30 544 C 51.6726 4.34743 3.09571 0
M  V30 545 O 51.8956 3.83352 4.22371 0
M  V30 546 O 50.8296 5.26538 2.91618 0
M  V30 547 H 54.6556 2.99333 0.513169 0
M  V30 548 H 52.2406 1.4822 0.18743 0
M  V30 549 H 54.1226 2.99346 2.96598 0
M  V30 550 H 52.7976 1.83578 2.6661 0
M  V30 551 H 51.7046 3.56746 1.1262 0
M  V30 552 H 53.0376 4.68771 1.5005 0
M  V30 553 N 54.6897 -0.239769 1.55765 0
M  V30 554 C 56.1007 -0.808263 1.68297 0
M  V30 555 C 56.4517 -1.85736 0.632181 0
M  V30 556 O 55.5767 -2.15277 -0.220204 0
M  V30 557 C 56.1717 -1.47284 3.05111 0
M  V30 558 C 54.7307 -1.98895 3.19559 0
M  V30 559 C 53.8777 -0.842575 2.64189 0
M  V30 560 H 56.8287 -0.0154422 1.58692 0
M  V30 561 H 56.8497 -2.34111 2.99954 0
M  V30 562 H 56.3617 -0.709053 3.81568 0
M  V30 563 H 54.4627 -2.78132 2.47938 0
M  V30 564 H 54.5757 -2.18143 4.26556 0
M  V30 565 H 52.9397 -1.24501 2.22197 0
M  V30 566 H 53.7227 -0.0917552 3.43177 0
M  V30 567 N 56.1678 -1.49265 -0.50573 0
M  V30 568 C 57.1308 -1.65075 -1.59006 0
M  V30 569 C 58.1308 -0.522768 -1.52065 0
M  V30 570 O 59.3208 -0.789117 -1.55302 0
M  V30 571 C 56.4528 -1.64369 -2.98656 0
M  V30 572 H 57.6458 -2.61784 -1.46319 0
M  V30 573 H 55.1988 -1.38226 -0.729616 0
M  V30 574 H 55.9338 -0.692272 -3.16825 0
M  V30 575 H 55.7188 -2.46282 -3.05103 0
M  V30 576 H 57.2088 -1.78674 -3.77446 0
M  V30 577 N 57.6459 0.756429 -1.3826 0
M  V30 578 C 58.5959 1.86069 -1.31766 0
M  V30 579 C 59.5799 1.59621 -0.202483 0
M  V30 580 O 60.7719 1.7149 -0.438211 0
M  V30 581 C 57.9009 3.23742 -1.1422 0
M  V30 582 C 56.9869 3.56091 -2.30348 0
M  V30 583 N 57.3779 3.59517 -3.55783 0
M  V30 584 C 55.6759 3.86341 -2.22838 0
M  V30 585 C 56.3769 3.89052 -4.32451 0
M  V30 586 N 55.3529 4.05736 -3.61772 0
M  V30 587 H 59.1549 1.86992 -2.26741 0
M  V30 588 H 56.6689 0.953643 -1.31451 0
M  V30 589 H 58.6659 4.02761 -1.07652 0
M  V30 590 H 57.3259 3.24073 -0.201763 0
M  V30 591 H 58.3369 3.41347 -3.89491 0
M  V30 592 H 55.0139 3.94404 -1.36937 0
M  V30 593 H 56.4039 3.98349 -5.4108 0
M  V30 594 N 59.124 1.23083 0.984299 0
M  V30 595 C 60.372 1.05848 1.72165 0
M  V30 596 C 60.693 -0.406049 1.90726 0
M  V30 597 O 59.963 -1.29139 1.47309 0
M  V30 598 H 58.543 0.388685 0.637913 0
M  V30 599 H 61.205 1.54736 1.18503 0
M  V30 600 H 60.301 1.54327 2.71274 0
M  V30 601 N 60.6021 -1.18246 1.0419 0
M  V30 602 C 61.8481 -1.88536 0.747122 0
M  V30 603 C 62.1811 -1.80223 -0.723409 0
M  V30 604 O 61.4561 -1.20337 -1.52804 0
M  V30 605 C 61.7391 -3.38968 1.21544 0
M  V30 606 C 61.5921 -3.56084 2.74816 0
M  V30 607 C 62.9111 -4.32648 0.806482 0
M  V30 608 H 60.0301 -0.684619 0.272883 0
M  V30 609 H 62.6721 -1.39113 1.29413 0
M  V30 610 H 60.8221 -3.8119 0.750081 0
M  V30 611 H 62.4941 -3.22946 3.29399 0
M  V30 612 H 60.7371 -2.98699 3.14582 0
M  V30 613 H 61.4081 -4.61639 3.02644 0
M  V30 614 H 63.8841 -3.98211 1.20695 0
M  V30 615 H 62.7601 -5.36462 1.1619 0
M  V30 616 H 63.0211 -4.41146 -0.29029 0
M  V30 617 N 62.0802 -0.821533 -1.34494 0
M  V30 618 C 63.4962 -0.507117 -1.51329 0
M  V30 619 C 63.6962 0.968964 -1.76673 0
M  V30 620 O 62.7522 1.75348 -1.81685 0
M  V30 621 C 64.0652 -1.36544 -2.67911 0
M  V30 622 C 65.6132 -1.36242 -2.81793 0
M  V30 623 C 66.0882 -2.2052 -4.01416 0
M  V30 624 N 67.5792 -2.18136 -4.08621 0
M  V30 625 C 68.3142 -2.80095 -5.00334 0
M  V30 626 N 67.8102 -3.51039 -5.9728 0
M  V30 627 N 69.6032 -2.69656 -4.93196 0
M  V30 628 H 61.7542 -1.77729 -1.16302 0
M  V30 629 H 64.0172 -0.757291 -0.570276 0
M  V30 630 H 63.7232 -2.41361 -2.55808 0
M  V30 631 H 63.5972 -1.02917 -3.62888 0
M  V30 632 H 65.9842 -0.322041 -2.93338 0
M  V30 633 H 66.0652 -1.73866 -1.87628 0
M  V30 634 H 65.7092 -3.24607 -3.90631 0
M  V30 635 H 65.6392 -1.80247 -4.94791 0
M  V30 636 H 68.1302 -1.6653 -3.39229 0
M  V30 637 H 68.4432 -3.95565 -6.63889 0
M  V30 638 H 66.7882 -3.55145 -5.97409 0
M  V30 639 H 69.9792 -2.13808 -4.16418 0
M  V30 640 H 70.1522 -3.1823 -5.64476 0
M  V30 641 N 63.5583 1.46682 -0.576371 0
M  V30 642 C 64.5213 2.28707 0.150239 0
M  V30 643 C 65.5213 1.38035 0.824794 0
M  V30 644 O 66.7113 1.60476 0.677719 0
M  V30 645 C 63.8433 3.18248 1.22192 0
M  V30 646 H 65.0363 2.94423 -0.570521 0
M  V30 647 H 62.5893 1.52688 -0.334078 0
M  V30 648 H 63.3243 2.57265 1.97447 0
M  V30 649 H 63.1093 3.85 0.742812 0
M  V30 650 H 64.5993 3.80001 1.73172 0
M  V30 651 N 65.0364 0.313813 1.54444 0
M  V30 652 C 65.9684 -0.590425 2.21465 0
M  V30 653 C 66.9814 -1.08753 1.21147 0
M  V30 654 O 68.1704 -1.00278 1.4767 0
M  V30 655 C 65.2704 -1.82179 2.85769 0
M  V30 656 C 64.4434 -1.46502 4.12136 0
M  V30 657 C 63.5024 -2.55288 4.60124 0
M  V30 658 O 62.5284 -2.19842 5.25032 0
M  V30 659 N 63.7304 -3.86053 4.33525 0
M  V30 660 H 66.4954 -0.0166033 2.99695 0
M  V30 661 H 64.0564 0.136578 1.61323 0
M  V30 662 H 66.0484 -2.54328 3.14801 0
M  V30 663 H 64.6184 -2.30369 2.11303 0
M  V30 664 H 63.8384 -0.575595 3.89975 0
M  V30 665 H 65.1264 -1.20221 4.94393 0
M  V30 666 H 64.5244 -4.17654 3.81552 0
M  V30 667 H 63.0814 -4.54461 4.67235 0
M  V30 668 N 66.5145 -1.57545 0.0417849 0
M  V30 669 C 67.4245 -2.14451 -0.951213 0
M  V30 670 C 68.4405 -1.09992 -1.34825 0
M  V30 671 O 69.6165 -1.42114 -1.42708 0
M  V30 672 C 66.6815 -2.67063 -2.21084 0
M  V30 673 C 65.7425 -3.86284 -1.87304 0
M  V30 674 C 64.9755 -4.36378 -3.07261 0
M  V30 675 O 65.1985 -3.85587 -4.20332 0
M  V30 676 O 64.1325 -5.28077 -2.88822 0
M  V30 677 H 67.9585 -2.99601 -0.497287 0
M  V30 678 H 65.5435 -1.48317 -0.179567 0
M  V30 679 H 67.4255 -3.00914 -2.95006 0
M  V30 680 H 66.1005 -1.84989 -2.65633 0
M  V30 681 H 65.0075 -3.57338 -1.10727 0
M  V30 682 H 66.3405 -4.6956 -1.47562 0
M  V30 683 N 67.9926 0.231505 -1.5589 0
M  V30 684 C 69.2696 0.981096 -1.69215 0
M  V30 685 C 69.6496 2.02799 -0.586164 0
M  V30 686 O 68.9976 2.24823 0.408253 0
M  V30 687 C 69.2076 1.60054 -3.10135 0
M  V30 688 C 70.5556 2.09658 -3.69227 0
M  V30 689 O 71.5796 1.69967 -3.13033 0
M  V30 690 O 70.4386 2.8258 -4.67772 0
M  V30 691 H 67.5326 0.457653 -0.688827 0
M  V30 692 H 70.0786 0.224073 -1.68214 0
M  V30 693 H 68.8506 0.844105 -3.82087 0
M  V30 694 H 68.4736 2.42336 -3.15212 0
M  V30 695 N 69.4707 1.49531 0.497807 0
M  V30 696 C 70.7187 1.58865 1.24926 0
M  V30 697 C 71.0397 0.278721 1.92998 0
M  V30 698 O 70.3097 -0.702144 1.82885 0
M  V30 699 H 68.8897 0.585343 0.464094 0
M  V30 700 H 71.5517 1.86174 0.57666 0
M  V30 701 H 70.6477 2.38633 2.01149 0
M  V30 702 N 70.9488 -0.749086 1.3866 0
M  V30 703 C 72.1888 -1.52112 1.36534 0
M  V30 704 C 72.5528 -1.91951 -0.0432316 0
M  V30 705 O 73.7538 -2.68132 -0.189396 0
M  V30 706 C 72.0248 -2.73704 2.29828 0
M  V30 707 S 73.5838 -3.63519 2.45763 0
M  V30 708 H 70.4018 -0.520482 0.484375 0
M  V30 709 H 73.0038 -0.878963 1.74627 0
M  V30 710 H 71.7078 -2.42552 3.31054 0
M  V30 711 H 71.2388 -3.4286 1.929 0
M  V30 712 H 73.2538 -4.66712 1.68505 0
M  V30 713 N 72.4269 -1.23603 -0.977757 0
M  V30 714 C 73.3369 -1.03632 -2.1047 0
M  V30 715 C 74.3529 0.0199435 -1.73989 0
M  V30 716 O 75.5289 -0.176076 -2.00629 0
M  V30 717 C 72.5939 -0.63276 -3.40877 0
M  V30 718 C 71.6549 -1.76437 -3.91367 0
M  V30 719 C 70.8879 -1.37997 -5.15551 0
M  V30 720 O 71.1109 -0.265357 -5.69782 0
M  V30 721 O 70.0449 -2.20201 -5.60174 0
M  V30 722 H 73.8709 -1.98086 -2.30208 0
M  V30 723 H 71.4559 -1.02332 -1.08851 0
M  V30 724 H 73.3379 -0.418761 -4.19314 0
M  V30 725 H 72.0129 0.282754 -3.22463 0
M  V30 726 H 70.9199 -2.03304 -3.14036 0
M  V30 727 H 72.2529 -2.6583 -4.14241 0
M  V30 728 N 73.905 1.17692 -1.04816 0
M  V30 729 C 75.316 1.69501 -0.782698 0
M  V30 730 C 75.667 1.83456 0.695577 0
M  V30 731 O 74.792 1.51942 1.54086 0
M  V30 732 C 75.387 3.07874 -1.41419 0
M  V30 733 C 73.946 3.56864 -1.19686 0
M  V30 734 C 73.093 2.3322 -1.50012 0
M  V30 735 H 76.044 1.02262 -1.2136 0
M  V30 736 H 76.065 3.71528 -0.821428 0
M  V30 737 H 75.577 2.97685 -2.49009 0
M  V30 738 H 73.678 3.72337 -0.140043 0
M  V30 739 H 73.791 4.39851 -1.89916 0
M  V30 740 H 72.155 2.37501 -0.920071 0
M  V30 741 H 72.938 2.25644 -2.58727 0
M  V30 742 N 75.3831 0.828654 1.34056 0
M  V30 743 C 76.6601 0.341809 1.9259 0
M  V30 744 C 77.0401 -1.17158 1.75605 0
M  V30 745 O 76.3881 -1.98132 1.13824 0
M  V30 746 C 76.5981 0.777453 3.4023 0
M  V30 747 C 77.9461 0.779579 4.17382 0
M  V30 748 O 78.9701 0.7204 3.48839 0
M  V30 749 O 77.8291 0.857996 5.39723 0
M  V30 750 H 74.9231 0.0946085 0.821571 0
M  V30 751 H 77.4691 0.913827 1.42994 0
M  V30 752 H 76.2411 1.8196 3.46419 0
M  V30 753 H 75.8641 0.181444 3.97186 0
M  V30 754 N 76.8612 -1.46375 0.584142 0
M  V30 755 C 78.0892 -2.06761 0.0759296 0
M  V30 756 C 78.5042 -1.43266 -1.22965 0
M  V30 757 O 77.8612 -0.538458 -1.74376 0
M  V30 758 C 77.9122 -3.61375 -0.0950384 0
M  V30 759 O 77.6332 -4.22495 1.15887 0
M  V30 760 C 79.1342 -4.38693 -0.637434 0
M  V30 761 H 76.3542 -0.668479 0.0581075 0
M  V30 762 H 78.8982 -1.8798 0.805218 0
M  V30 763 H 77.0532 -3.79578 -0.774554 0
M  V30 764 H 77.4672 -5.15385 0.973598 0
M  V30 765 H 78.9412 -5.47464 -0.706237 0
M  V30 766 H 79.4182 -4.06836 -1.65472 0
M  V30 767 H 80.0242 -4.25299 0.00725967 0
M  V30 768 N 78.3393 -0.321999 -1.54275 0
M  V30 769 C 79.2713 0.578671 -2.21775 0
M  V30 770 C 80.2843 1.08109 -1.21722 0
M  V30 771 O 81.4733 0.994938 -1.482 0
M  V30 772 C 78.5733 1.80661 -2.86731 0
M  V30 773 C 77.7463 1.44314 -4.12907 0
M  V30 774 C 76.8053 2.52845 -4.61472 0
M  V30 775 O 75.8313 2.17054 -5.2619 0
M  V30 776 N 77.0333 3.83748 -4.35566 0
M  V30 777 H 79.7983 0.000709447 -2.997 0
M  V30 778 H 77.3593 -0.145132 -1.61248 0
M  V30 779 H 79.3513 2.52655 -3.16145 0
M  V30 780 H 77.9213 2.29245 -2.12521 0
M  V30 781 H 77.1413 0.554906 -3.90275 0
M  V30 782 H 78.4293 1.17598 -4.95023 0
M  V30 783 H 77.8273 4.15625 -3.83761 0
M  V30 784 H 76.3843 4.51977 -4.69638 0
M  V30 785 N 79.8174 1.5752 -0.0501392 0
M  V30 786 C 80.7494 2.08413 0.95376 0
M  V30 787 C 81.7624 1.01175 1.27544 0
M  V30 788 O 82.9514 1.28744 1.23641 0
M  V30 789 C 80.0514 2.51138 2.27559 0
M  V30 790 C 79.2244 3.817 2.13598 0
M  V30 791 C 78.2834 4.10749 3.28895 0
M  V30 792 O 77.3094 4.80685 3.04845 0
M  V30 793 N 78.5114 3.62579 4.5334 0
M  V30 794 H 81.2764 2.95165 0.519383 0
M  V30 795 H 78.8374 1.61327 0.136127 0
M  V30 796 H 80.8294 2.67648 3.03557 0
M  V30 797 H 79.3994 1.6964 2.62567 0
M  V30 798 H 78.6194 3.74782 1.22197 0
M  V30 799 H 79.9074 4.67201 2.01496 0
M  V30 800 H 79.3054 3.06039 4.75769 0
M  V30 801 H 77.8624 3.84329 5.26436 0
M  V30 802 N 81.2955 -0.223234 1.56011 0
M  V30 803 C 82.2275 -1.30006 1.88762 0
M  V30 804 C 83.2405 -1.43129 0.775746 0
M  V30 805 O 84.4295 -1.44057 1.05403 0
M  V30 806 C 81.5295 -2.67589 2.07965 0
M  V30 807 C 80.7025 -2.76434 3.38973 0
M  V30 808 C 79.7615 -3.95019 3.47629 0
M  V30 809 O 78.7875 -3.83436 4.20672 0
M  V30 810 N 79.9895 -5.09249 2.78649 0
M  V30 811 H 82.7545 -1.02238 2.81722 0
M  V30 812 H 80.3155 -0.413278 1.56536 0
M  V30 813 H 82.3075 -3.45297 2.11073 0
M  V30 814 H 80.8775 -2.87964 1.21638 0
M  V30 815 H 80.0975 -1.85216 3.47978 0
M  V30 816 H 81.3855 -2.79313 4.25278 0
M  V30 817 H 80.7835 -5.21556 2.19081 0
M  V30 818 H 79.3405 -5.85007 2.8742 0
M  V30 819 N 82.7736 -1.49793 -0.48987 0
M  V30 820 C 84.0216 -1.59525 -1.24081 0
M  V30 821 C 84.3426 -0.288953 -1.92847 0
M  V30 822 O 83.6126 0.692436 -1.83254 0
M  V30 823 H 82.1926 -0.587796 -0.460983 0
M  V30 824 H 84.8546 -1.86477 -0.566778 0
M  V30 825 H 83.9506 -2.39696 -1.99881 0
M  V30 826 N 84.2517 0.741722 -1.39055 0
M  V30 827 C 85.5287 1.49252 -1.26425 0
M  V30 828 C 85.9087 2.10705 0.129144 0
M  V30 829 O 85.2567 1.98045 1.13976 0
M  V30 830 C 85.4667 2.54934 -2.38347 0
M  V30 831 C 86.8147 3.21506 -2.77343 0
M  V30 832 O 87.8387 2.65245 -2.37747 0
M  V30 833 O 86.6977 4.23294 -3.45665 0
M  V30 834 H 83.7917 0.662451 -0.495064 0
M  V30 835 H 86.3377 0.776121 -1.50912 0
M  V30 836 H 85.1097 2.07857 -3.31529 0
M  V30 837 H 84.7327 3.34141 -2.15489 0
M  V30 838 N 85.7298 1.2412 0.971189 0
M  V30 839 C 86.9778 1.07668 1.71032 0
M  V30 840 C 87.2988 -0.385797 1.91146 0
M  V30 841 O 86.5688 -1.27569 1.4867 0
M  V30 842 H 85.1488 0.395429 0.633755 0
M  V30 843 H 87.8108 1.55984 1.16855 0
M  V30 844 H 86.9068 1.57195 2.69622 0
M  V30 845 N 87.2079 -1.17134 1.05439 0
M  V30 846 C 88.1179 -2.24878 0.668365 0
M  V30 847 C 89.1339 -1.71186 -0.311687 0
M  V30 848 O 90.3099 -2.00738 -0.163161 0
M  V30 849 C 87.3749 -3.46662 0.051648 0
M  V30 850 C 86.4359 -4.15429 1.08246 0
M  V30 851 C 85.6689 -5.31399 0.495082 0
M  V30 852 O 85.8919 -5.66153 -0.694743 0
M  V30 853 O 84.8259 -5.89187 1.23056 0
M  V30 854 H 88.6519 -2.60189 1.56637 0
M  V30 855 H 86.2369 -1.24482 0.826104 0
M  V30 856 H 88.1189 -4.20394 -0.290966 0
M  V30 857 H 86.7939 -3.13142 -0.819971 0
M  V30 858 H 85.7009 -3.43704 1.47711 0
M  V30 859 H 87.0339 -4.52982 1.92532 0
M  V30 860 N 88.686 -0.835752 -1.33615 0
M  V30 861 C 89.649 -0.272 -2.2758 0
M  V30 862 C 90.649 0.557487 -1.50827 0
M  V30 863 O 91.839 0.37173 -1.70188 0
M  V30 864 C 88.971 0.617173 -3.35267 0
M  V30 865 H 90.164 -1.10111 -2.78954 0
M  V30 866 H 87.717 -0.608594 -1.43965 0
M  V30 867 H 88.452 1.46884 -2.89129 0
M  V30 868 H 88.237 0.0237066 -3.92093 0
M  V30 869 H 89.727 1.005 -4.05326 0
M  V30 870 N 90.1641 1.46063 -0.591896 0
M  V30 871 C 91.0961 2.28539 0.174001 0
M  V30 872 C 92.1091 1.39047 0.846753 0
M  V30 873 O 93.2981 1.63564 0.714774 0
M  V30 874 C 90.3981 3.14347 1.26645 0
M  V30 875 C 89.5711 4.32021 0.683856 0
M  V30 876 C 88.6301 4.99157 1.66518 0
M  V30 877 O 87.6561 5.56458 1.19763 0
M  V30 878 N 88.8581 4.97005 2.99943 0
M  V30 879 H 91.6231 2.94911 -0.533633 0
M  V30 880 H 89.1841 1.56077 -0.430294 0
M  V30 881 H 91.1761 3.56125 1.92242 0
M  V30 882 H 89.7461 2.49988 1.87682 0
M  V30 883 H 88.9661 3.93915 -0.1498 0
M  V30 884 H 90.2541 5.08059 0.274567 0
M  V30 885 H 89.6521 4.51714 3.40545 0
M  V30 886 H 88.2091 5.42696 3.61004 0
M  V30 887 N 91.6422 0.330177 1.54103 0
M  V30 888 C 93.0582 -0.0222371 1.59585 0
M  V30 889 C 93.2582 -1.49902 1.34654 0
M  V30 890 O 92.3142 -2.25592 1.13421 0
M  V30 891 C 93.6272 0.401932 2.98002 0
M  V30 892 C 95.1752 0.353145 3.11001 0
M  V30 893 C 95.6502 0.752576 4.51775 0
M  V30 894 N 97.1412 0.706239 4.57784 0
M  V30 895 C 97.8762 0.987417 5.64834 0
M  V30 896 N 97.3722 1.33607 6.79795 0
M  V30 897 N 99.1652 0.91254 5.54643 0
M  V30 898 H 91.3162 1.29228 1.68564 0
M  V30 899 H 93.5792 0.525906 0.78875 0
M  V30 900 H 93.2852 1.4311 3.21267 0
M  V30 901 H 93.1592 -0.229699 3.765 0
M  V30 902 H 95.5462 -0.666822 2.87467 0
M  V30 903 H 95.6272 1.0198 2.34593 0
M  V30 904 H 95.2712 1.77049 4.76042 0
M  V30 905 H 95.2012 0.0635409 5.26562 0
M  V30 906 H 97.6922 0.44889 3.75224 0
M  V30 907 H 98.0052 1.53582 7.57385 0
M  V30 908 H 96.3502 1.37439 6.81275 0
M  V30 909 H 99.5412 0.639601 4.6371 0
M  V30 910 H 99.7142 1.13503 6.37982 0
M  V30 911 N 93.1203 -1.57491 0.0584922 0
M  V30 912 C 94.5363 -1.56792 -0.298091 0
M  V30 913 C 94.7363 -1.06679 -1.70944 0
M  V30 914 O 93.7923 -0.726672 -2.41818 0
M  V30 915 C 95.1053 -3.00461 -0.119879 0
M  V30 916 C 96.6533 -3.1242 -0.190428 0
M  V30 917 C 97.1283 -4.57982 -0.0406567 0
M  V30 918 N 98.6193 -4.63099 -0.0966958 0
M  V30 919 C 99.3543 -5.734 -0.00502943 0
M  V30 920 N 98.8503 -6.9266 0.139402 0
M  V30 921 N 100.643 -5.62067 -0.0611391 0
M  V30 922 H 92.7943 -1.88386 0.98105 0
M  V30 923 H 95.0573 -0.867865 0.381463 0
M  V30 924 H 94.7633 -3.41187 0.85349 0
M  V30 925 H 94.6373 -3.66843 -0.877833 0
M  V30 926 H 97.0243 -2.71589 -1.15427 0
M  V30 927 H 97.1053 -2.48702 0.598405 0
M  V30 928 H 96.7493 -4.995 0.919897 0
M  V30 929 H 96.6793 -5.19715 -0.848727 0
M  V30 930 H 99.1703 -3.77331 -0.207277 0
M  V30 931 H 99.4833 -7.72536 0.201855 0
M  V30 932 H 97.8283 -6.94781 0.174586 0
M  V30 933 H 101.019 -4.67782 -0.172583 0
M  V30 934 H 101.192 -6.47999 0.0137562 0
M  V30 935 N 94.5984 0.214957 -1.56127 0
M  V30 936 C 96.0094 0.781386 -1.69562 0
M  V30 937 C 96.3604 1.84707 -0.66165 0
M  V30 938 O 95.4854 2.156 0.185927 0
M  V30 939 C 96.0804 1.42411 -3.07416 0
M  V30 940 C 94.6394 1.93786 -3.22683 0
M  V30 941 C 93.7864 0.800438 -2.65496 0
M  V30 942 H 96.7374 -0.00980633 -1.58697 0
M  V30 943 H 96.7584 2.29309 -3.0364 0
M  V30 944 H 96.2704 0.64826 -3.82648 0
M  V30 945 H 94.3714 2.74152 -2.52332 0
M  V30 946 H 94.4844 2.1133 -4.29973 0
M  V30 947 H 92.8484 1.2095 -2.2415 0
M  V30 948 H 93.6314 0.0371471 -3.4328 0
M  V30 949 N 96.0765 1.50051 0.48192 0
M  V30 950 C 97.3225 1.60736 1.2366 0
M  V30 951 C 97.6555 0.301786 1.91841 0
M  V30 952 O 96.9305 -0.696025 1.8162 0
M  V30 953 C 97.2135 2.78009 2.28874 0
M  V30 954 C 97.0665 4.18416 1.65069 0
M  V30 955 C 98.3855 2.90867 3.30279 0
M  V30 956 H 95.5045 0.585031 0.448228 0
M  V30 957 H 98.1465 1.82402 0.531946 0
M  V30 958 H 96.2965 2.59667 2.88973 0
M  V30 959 H 97.9685 4.48322 1.0865 0
M  V30 960 H 96.2115 4.23177 0.954148 0
M  V30 961 H 96.8825 4.96381 2.41474 0
M  V30 962 H 99.3585 3.07623 2.80191 0
M  V30 963 H 98.2345 3.74566 4.01238 0
M  V30 964 H 98.4955 2.01021 3.93755 0
M  V30 965 N 97.5546 -0.734337 1.39446 0
M  V30 966 C 98.7796 -1.52866 1.40167 0
M  V30 967 C 99.2046 -1.881 -0.00171513 0
M  V30 968 O 98.5626 -1.51957 -0.988879 0
M  V30 969 C 98.6106 -2.79235 2.28167 0
M  V30 970 O 97.7146 -3.75185 1.71201 0
M  V30 971 H 97.0556 -0.461618 0.477289 0
M  V30 972 H 99.5856 -0.905949 1.8345 0
M  V30 973 H 99.5956 -3.27963 2.42702 0
M  V30 974 H 98.2706 -2.52923 3.30156 0
M  V30 975 H 96.8476 -3.33958 1.65912 0
M  V30 976 N 99.0327 -1.24633 -0.964593 0
M  V30 977 C 100.281 -1.08573 -1.70459 0
M  V30 978 C 100.602 0.375655 -1.91347 0
M  V30 979 O 99.8717 1.26779 -1.49345 0
M  V30 980 H 98.4517 -0.398784 -0.631649 0
M  V30 981 H 101.114 -1.56601 -1.16026 0
M  V30 982 H 100.21 -1.58623 -2.68785 0
M  V30 983 N 100.511 1.16574 -1.06058 0
M  V30 984 C 101.751 1.88723 -0.78504 0
M  V30 985 C 102.115 1.79706 0.676006 0
M  V30 986 O 103.316 2.46757 1.06603 0
M  V30 987 C 101.587 3.34338 -1.26304 0
M  V30 988 S 103.146 4.24366 -1.1162 0
M  V30 989 H 99.9638 0.651448 -0.284846 0
M  V30 990 H 102.566 1.40732 -1.35701 0
M  V30 991 H 101.27 3.38439 -2.32136 0
M  V30 992 H 100.801 3.87378 -0.685719 0
M  V30 993 H 102.816 4.96179 -0.0456539 0
M  V30 994 N 101.989 0.842826 1.3317 0
M  V30 995 C 102.899 0.281444 2.32906 0
M  V30 996 C 103.915 -0.594587 1.63526 0
M  V30 997 O 105.091 -0.49777 1.95152 0
M  V30 998 C 102.156 -0.530929 3.42611 0
M  V30 999 C 101.217 0.369843 4.27704 0
M  V30 1000 C 100.45 -0.403853 5.3217 0
M  V30 1001 O 100.673 -1.63513 5.46461 0
M  V30 1002 O 99.6069 0.224199 6.01482 0
M  V30 1003 H 103.433 1.10744 2.82789 0
M  V30 1004 H 101.018 0.60545 1.36582 0
M  V30 1005 H 102.9 -0.992437 4.09547 0
M  V30 1006 H 101.575 -1.33392 2.94938 0
M  V30 1007 H 100.482 0.879275 3.6362 0
M  V30 1008 H 101.815 1.13771 4.78871 0
M  V30 1009 N 103.467 -1.45747 0.599634 0
M  V30 1010 C 104.43 -2.28917 -0.113835 0
M  V30 1011 C 105.43 -1.3933 -0.802729 0
M  V30 1012 O 106.62 -1.61534 -0.652103 0
M  V30 1013 C 103.752 -3.20152 -1.17114 0
M  V30 1014 H 104.945 -2.93478 0.617289 0
M  V30 1015 H 102.498 -1.52137 0.358327 0
M  V30 1016 H 103.233 -2.60374 -1.93329 0
M  V30 1017 H 103.018 -3.86133 -0.681468 0
M  V30 1018 H 104.508 -3.82708 -1.67105 0
M  V30 1019 N 104.945 -0.338344 -1.53925 0
M  V30 1020 C 105.895 0.536712 -2.21593 0
M  V30 1021 C 106.879 1.07015 -1.20153 0
M  V30 1022 O 108.071 1.00471 -1.45721 0
M  V30 1023 C 105.2 1.68977 -2.98834 0
M  V30 1024 C 104.286 1.17052 -4.07627 0
M  V30 1025 N 104.677 0.372085 -5.0443 0
M  V30 1026 C 102.975 1.44789 -4.21844 0
M  V30 1027 C 103.676 0.0909171 -5.81629 0
M  V30 1028 N 102.652 0.681131 -5.39316 0
M  V30 1029 H 106.454 -0.0804298 -2.9379 0
M  V30 1030 H 103.968 -0.144943 -1.61752 0
M  V30 1031 H 105.965 2.32857 -3.45808 0
M  V30 1032 H 104.625 2.31024 -2.28162 0
M  V30 1033 H 105.636 0.0136217 -5.17898 0
M  V30 1034 H 102.313 2.07313 -3.62391 0
M  V30 1035 H 103.703 -0.552817 -6.69622 0
M  V30 1036 N 106.423 1.57458 -0.0668435 0
M  V30 1037 C 107.672 1.92477 0.602947 0
M  V30 1038 C 107.985 0.948419 1.71068 0
M  V30 1039 O 109.191 1.19124 2.43971 0
M  V30 1040 C 107.647 3.41903 1.12383 0
M  V30 1041 C 107.255 4.47975 0.04737 0
M  V30 1042 C 108.999 3.85931 1.76797 0
M  V30 1043 C 106.906 5.88529 0.582022 0
M  V30 1044 H 105.836 0.718387 0.22899 0
M  V30 1045 H 108.487 1.82978 -0.138276 0
M  V30 1046 H 106.869 3.46459 1.91787 0
M  V30 1047 H 108.043 4.55029 -0.726978 0
M  V30 1048 H 106.358 4.13384 -0.500243 0
M  V30 1049 H 108.955 4.88322 2.17821 0
M  V30 1050 H 109.298 3.23029 2.62599 0
M  V30 1051 H 109.831 3.83958 1.04024 0
M  V30 1052 H 106.57 6.55065 -0.238721 0
M  V30 1053 H 106.09 5.85004 1.324 0
M  V30 1054 H 107.769 6.38258 1.05999 0
M  V30 1055 N 107.901 -0.206675 1.56239 0
M  V30 1056 C 109.15 -0.926964 1.79138 0
M  V30 1057 C 109.463 -1.84901 0.638043 0
M  V30 1058 O 110.669 -2.60906 0.751033 0
M  V30 1059 C 109.125 -1.6986 3.17294 0
M  V30 1060 C 108.733 -0.821956 4.40395 0
M  V30 1061 C 110.477 -2.40922 3.4951 0
M  V30 1062 C 108.384 -1.59179 5.69575 0
M  V30 1063 H 107.314 -0.349864 0.667915 0
M  V30 1064 H 109.965 -0.180487 1.8261 0
M  V30 1065 H 108.347 -2.48853 3.08039 0
M  V30 1066 H 109.521 -0.0715019 4.60745 0
M  V30 1067 H 107.836 -0.222741 4.15804 0
M  V30 1068 H 110.433 -2.99047 4.43255 0
M  V30 1069 H 110.776 -3.14542 2.72707 0
M  V30 1070 H 111.309 -1.68905 3.60161 0
M  V30 1071 H 108.048 -0.898589 6.49312 0
M  V30 1072 H 107.568 -2.31648 5.53262 0
M  V30 1073 H 109.247 -2.14862 6.10281 0
M  V30 1074 N 109.379 -1.50304 -0.473955 0
M  V30 1075 C 110.79 -1.54042 -1.0549 0
M  V30 1076 C 111.141 -0.342248 -1.93192 0
M  V30 1077 O 110.266 0.545157 -2.09421 0
M  V30 1078 C 110.861 -2.79152 -1.91989 0
M  V30 1079 C 109.42 -2.8558 -2.45196 0
M  V30 1080 C 108.567 -2.48295 -1.2347 0
M  V30 1081 H 111.518 -1.5661 -0.256693 0
M  V30 1082 H 111.539 -2.60845 -2.7702 0
M  V30 1083 H 111.051 -3.66339 -1.28131 0
M  V30 1084 H 109.152 -2.02738 -3.12615 0
M  V30 1085 H 109.265 -3.88403 -2.80499 0
M  V30 1086 H 107.629 -2.00669 -1.56856 0
M  V30 1087 H 108.412 -3.37787 -0.612789 0
M  V30 1088 N 110.857 0.726932 -1.39834 0
M  V30 1089 C 112.104 1.48664 -1.37496 0
M  V30 1090 C 112.432 1.94482 0.0264678 0
M  V30 1091 O 111.687 1.67692 1.00886 0
M  V30 1092 C 111.986 2.73495 -2.30077 0
M  V30 1093 C 111.652 2.46502 -3.77555 0
M  V30 1094 C 110.314 2.3885 -4.17737 0
M  V30 1095 C 112.666 2.23604 -4.70798 0
M  V30 1096 C 109.994 2.06352 -5.49214 0
M  V30 1097 C 112.346 1.92622 -6.02561 0
M  V30 1098 C 111.01 1.83444 -6.41798 0
M  V30 1099 H 110.28 0.544001 -0.503135 0
M  V30 1100 H 112.927 0.833657 -1.72402 0
M  V30 1101 H 111.232 3.43575 -1.88317 0
M  V30 1102 H 112.929 3.31549 -2.25558 0
M  V30 1103 H 109.519 2.5334 -3.45712 0
M  V30 1104 H 113.703 2.28479 -4.40581 0
M  V30 1105 H 108.959 1.97776 -5.78528 0
M  V30 1106 H 113.133 1.73914 -6.74334 0
M  V30 1107 H 110.76 1.58029 -7.43593 0
M  V30 1108 N 112.336 1.25143 0.95797 0
M  V30 1109 C 113.585 1.0909 1.69654 0
M  V30 1110 C 113.898 -0.368548 1.92097 0
M  V30 1111 O 115.104 -0.649455 2.63618 0
M  V30 1112 C 113.56 1.90395 3.05414 0
M  V30 1113 C 113.168 3.4081 2.90779 0
M  V30 1114 C 114.912 1.82901 3.83076 0
M  V30 1115 C 112.819 4.14423 4.21909 0
M  V30 1116 H 111.749 0.404625 0.636235 0
M  V30 1117 H 114.4 1.4931 1.06672 0
M  V30 1118 H 112.782 1.42996 3.69281 0
M  V30 1119 H 113.956 3.95859 2.35865 0
M  V30 1120 H 112.271 3.49361 2.26575 0
M  V30 1121 H 114.868 2.35196 4.80195 0
M  V30 1122 H 115.211 0.796224 4.08615 0
M  V30 1123 H 115.744 2.28033 3.25954 0
M  V30 1124 H 112.483 5.18102 4.01561 0
M  V30 1125 H 112.003 3.64159 4.76601 0
M  V30 1126 H 113.682 4.21956 4.90471 0
M  V30 1127 N 113.814 -1.1601 1.06675 0
M  V30 1128 C 114.744 -2.22688 0.702307 0
M  V30 1129 C 115.725 -1.67306 -0.307032 0
M  V30 1130 O 116.91 -1.93352 -0.181305 0
M  V30 1131 C 114.04 -3.47178 0.092038 0
M  V30 1132 C 112.994 -4.15477 1.02777 0
M  V30 1133 C 112.32 -5.33963 0.28061 0
M  V30 1134 C 113.62 -4.66019 2.35846 0
M  V30 1135 H 115.314 -2.53429 1.59419 0
M  V30 1136 H 112.86 -1.21813 0.767961 0
M  V30 1137 H 114.813 -4.21037 -0.174814 0
M  V30 1138 H 113.537 -3.15749 -0.834877 0
M  V30 1139 H 112.196 -3.43549 1.27944 0
M  V30 1140 H 111.844 -4.98788 -0.649545 0
M  V30 1141 H 111.544 -5.806 0.904258 0
M  V30 1142 H 113.068 -6.10596 0.021396 0
M  V30 1143 H 114.482 -5.3144 2.15045 0
M  V30 1144 H 112.879 -5.23293 2.93743 0
M  V30 1145 H 113.949 -3.82023 2.98641 0
M  V30 1146 N 115.292 -0.849877 -1.32721 0
M  V30 1147 C 116.538 -0.451591 -1.97708 0
M  V30 1148 C 116.871 0.989175 -1.6712 0
M  V30 1149 O 116.146 1.69334 -0.956891 0
M  V30 1150 C 116.429 -0.685598 -3.53513 0
M  V30 1151 C 116.282 -2.17444 -3.93749 0
M  V30 1152 C 117.601 -0.138874 -4.39881 0
M  V30 1153 H 114.72 -0.16555 -0.718166 0
M  V30 1154 H 117.362 -1.06742 -1.57182 0
M  V30 1155 H 115.512 -0.161416 -3.88165 0
M  V30 1156 H 117.184 -2.76433 -3.693 0
M  V30 1157 H 115.427 -2.65476 -3.43081 0
M  V30 1158 H 116.098 -2.28888 -5.02309 0
M  V30 1159 H 118.574 -0.587068 -4.11938 0
M  V30 1160 H 117.45 -0.332213 -5.47894 0
M  V30 1161 H 117.711 0.95806 -4.31594 0
M  V30 1162 N 116.77 1.45427 -0.607355 0
M  V30 1163 C 117.68 2.34325 0.113463 0
M  V30 1164 C 118.696 1.51226 0.860617 0
M  V30 1165 O 119.872 1.84029 0.818255 0
M  V30 1166 C 116.937 3.28839 1.09844 0
M  V30 1167 C 115.998 4.27844 0.353271 0
M  V30 1168 C 115.231 5.17842 1.29133 0
M  V30 1169 O 115.454 5.11264 2.52913 0
M  V30 1170 O 114.388 5.96713 0.788523 0
M  V30 1171 H 118.214 2.97364 -0.617094 0
M  V30 1172 H 115.799 1.44807 -0.367619 0
M  V30 1173 H 117.681 3.8708 1.66575 0
M  V30 1174 H 116.356 2.68365 1.81003 0
M  V30 1175 H 115.263 3.7322 -0.256494 0
M  V30 1176 H 116.596 4.91173 -0.317822 0
M  V30 1177 N 118.248 0.346503 1.53744 0
M  V30 1178 C 119.497 -0.250122 2.00143 0
M  V30 1179 C 119.81 -1.51418 1.23822 0
M  V30 1180 O 121.016 -2.18823 1.60713 0
M  V30 1181 C 119.472 -0.496252 3.56462 0
M  V30 1182 C 119.08 0.752077 4.41642 0
M  V30 1183 C 120.824 -1.05157 4.11269 0
M  V30 1184 C 118.731 0.476583 5.89477 0
M  V30 1185 H 117.661 -0.0972409 0.747703 0
M  V30 1186 H 120.312 0.46229 1.77581 0
M  V30 1187 H 118.694 -1.26944 3.75102 0
M  V30 1188 H 119.868 1.5266 4.34778 0
M  V30 1189 H 118.183 1.22925 3.97842 0
M  V30 1190 H 120.78 -1.27269 5.19333 0
M  V30 1191 H 121.123 -2.00799 3.64672 0
M  V30 1192 H 121.656 -0.339019 3.96353 0
M  V30 1193 H 118.395 1.4028 6.40314 0
M  V30 1194 H 117.915 -0.259794 5.99237 0
M  V30 1195 H 119.594 0.0949315 6.4693 0
M  V30 1196 N 119.726 -1.57421 0.075193 0
M  V30 1197 C 120.974 -1.93236 -0.591974 0
M  V30 1198 C 121.295 -0.956241 -1.69944 0
M  V30 1199 O 120.565 -0.00494792 -1.95899 0
M  V30 1200 H 119.145 -0.713355 -0.22166 0
M  V30 1201 H 121.807 -1.9444 0.133848 0
M  V30 1202 H 120.903 -2.95131 -1.01509 0
M  V30 1203 N 121.204 0.198386 -1.56346 0
M  V30 1204 C 122.167 1.22952 -1.93431 0
M  V30 1205 C 123.167 1.38611 -0.815092 0
M  V30 1206 O 124.357 1.36479 -1.08255 0
M  V30 1207 C 121.489 2.59946 -2.20546 0
M  V30 1208 H 122.682 0.912626 -2.85677 0
M  V30 1209 H 120.235 0.43977 -1.49986 0
M  V30 1210 H 120.97 2.96696 -1.30927 0
M  V30 1211 H 120.755 2.49953 -3.02102 0
M  V30 1212 H 122.245 3.3431 -2.50253 0
M  V30 1213 N 122.682 1.50554 0.465978 0
M  V30 1214 C 123.959 1.5232 1.22712 0
M  V30 1215 C 124.339 0.270807 2.09356 0
M  V30 1216 O 123.687 -0.745541 2.15995 0
M  V30 1217 C 123.897 2.82175 2.05374 0
M  V30 1218 C 125.245 3.33033 2.6339 0
M  V30 1219 O 126.269 2.83531 2.15612 0
M  V30 1220 O 125.128 4.19336 3.50456 0
M  V30 1221 H 122.222 0.611183 0.557122 0
M  V30 1222 H 124.768 1.62847 0.477381 0
M  V30 1223 H 123.54 3.64797 1.41558 0
M  V30 1224 H 123.163 2.74675 2.87471 0
M  V30 1225 N 124.16 -0.719506 1.40217 0
M  V30 1226 C 125.406 -1.48152 1.38488 0
M  V30 1227 C 125.739 -1.94195 -0.0141867 0
M  V30 1228 O 125.014 -1.67884 -0.982096 0
M  V30 1229 C 125.297 -2.71035 2.37091 0
M  V30 1230 C 125.15 -2.30912 3.86005 0
M  V30 1231 C 126.469 -3.73182 2.33288 0
M  V30 1232 H 123.588 -0.537395 0.504357 0
M  V30 1233 H 126.23 -0.821472 1.71324 0
M  V30 1234 H 124.38 -3.27352 2.0922 0
M  V30 1235 H 126.052 -1.80107 4.24687 0
M  V30 1236 H 124.295 -1.62958 4.02029 0
M  V30 1237 H 124.966 -3.18978 4.50508 0
M  V30 1238 H 127.442 -3.26485 2.57966 0
M  V30 1239 H 126.318 -4.56806 3.04334 0
M  V30 1240 H 126.579 -4.21202 1.34317 0
M  V30 1241 N 125.638 -1.25649 -0.95132 0
M  V30 1242 C 126.57 -1.02112 -2.05197 0
M  V30 1243 C 127.583 0.0150571 -1.62793 0
M  V30 1244 O 128.772 -0.223874 -1.77091 0
M  V30 1245 C 125.872 -0.522361 -3.3485 0
M  V30 1246 C 125.045 -1.62546 -4.06076 0
M  V30 1247 C 124.104 -1.12649 -5.14001 0
M  V30 1248 O 123.13 -1.82156 -5.39266 0
M  V30 1249 N 124.332 0.03047 -5.80492 0
M  V30 1250 H 127.097 -1.96885 -2.25957 0
M  V30 1251 H 124.658 -1.16899 -1.1201 0
M  V30 1252 H 126.65 -0.172961 -4.0433 0
M  V30 1253 H 125.22 0.33151 -3.10837 0
M  V30 1254 H 124.44 -2.14628 -3.30649 0
M  V30 1255 H 125.728 -2.36644 -4.50419 0
M  V30 1256 H 125.126 0.611169 -5.62389 0
M  V30 1257 H 123.683 0.320875 -6.5101 0
M  V30 1258 N 127.117 1.15442 -1.07289 0
M  V30 1259 C 128.08 2.18358 -0.696591 0
M  V30 1260 C 129.08 1.58637 0.262837 0
M  V30 1261 O 130.27 1.74145 0.0438809 0
M  V30 1262 C 127.402 3.4089 -0.0266151 0
M  V30 1263 H 128.595 2.53162 -1.60776 0
M  V30 1264 H 126.148 1.29893 -0.869342 0
M  V30 1265 H 126.883 3.11653 0.896822 0
M  V30 1266 H 126.668 3.85495 -0.716657 0
M  V30 1267 H 128.158 4.17009 0.222028 0
M  V30 1268 N 128.595 0.856903 1.32268 0
M  V30 1269 C 130.011 0.547061 1.49931 0
M  V30 1270 C 130.211 -0.921781 1.7918 0
M  V30 1271 O 129.267 -1.70469 1.8627 0
M  V30 1272 C 130.58 1.43599 2.64196 0
M  V30 1273 C 132.128 1.43665 2.78081 0
M  V30 1274 C 132.603 2.31085 3.95428 0
M  V30 1275 N 134.094 2.28893 4.02694 0
M  V30 1276 C 134.829 2.93262 4.92732 0
M  V30 1277 N 134.325 3.66751 5.87763 0
M  V30 1278 N 136.118 2.82638 4.85873 0
M  V30 1279 H 128.269 1.8075 1.11549 0
M  V30 1280 H 130.532 0.772144 0.549997 0
M  V30 1281 H 130.238 2.48058 2.49319 0
M  V30 1282 H 130.112 1.12502 3.60032 0
M  V30 1283 H 132.499 0.399701 2.92381 0
M  V30 1284 H 132.58 1.7878 1.82952 0
M  V30 1285 H 132.224 3.34849 3.81888 0
M  V30 1286 H 132.154 1.93302 4.89839 0
M  V30 1287 H 134.645 1.75466 3.34694 0
M  V30 1288 H 134.958 4.13027 6.53168 0
M  V30 1289 H 133.303 3.70859 5.87783 0
M  V30 1290 H 136.494 2.24774 4.10602 0
M  V30 1291 H 136.667 3.33084 5.55841 0
M  V30 1292 N 130.073 -1.45103 0.615059 0
M  V30 1293 C 131.023 -2.27679 -0.120966 0
M  V30 1294 C 132.007 -1.3775 -0.831491 0
M  V30 1295 O 133.199 -1.61683 -0.720249 0
M  V30 1296 C 130.328 -3.24767 -1.1127 0
M  V30 1297 C 129.414 -4.22184 -0.402627 0
M  V30 1298 N 129.805 -5.02692 0.559884 0
M  V30 1299 C 128.103 -4.4125 -0.649202 0
M  V30 1300 C 128.804 -5.73421 0.977942 0
M  V30 1301 N 127.78 -5.42657 0.320104 0
M  V30 1302 H 131.582 -2.87325 0.618181 0
M  V30 1303 H 129.096 -1.56345 0.439304 0
M  V30 1304 H 131.093 -3.82666 -1.65446 0
M  V30 1305 H 129.753 -2.66682 -1.85232 0
M  V30 1306 H 130.764 -5.09354 0.936976 0
M  V30 1307 H 127.441 -3.9428 -1.37293 0
M  V30 1308 H 128.831 -6.48107 1.77222 0
M  V30 1309 N 131.551 -0.354651 -1.53558 0
M  V30 1310 C 132.8 0.239504 -2.00273 0
M  V30 1311 C 133.113 1.50759 -1.24623 0
M  V30 1312 O 134.319 2.17968 -1.61871 0
M  V30 1313 C 132.775 0.477341 -3.5672 0
M  V30 1314 C 132.383 -0.775488 -4.41237 0
M  V30 1315 C 134.127 1.02975 -4.11821 0
M  V30 1316 C 132.034 -0.507838 -5.89216 0
M  V30 1317 H 130.964 0.0932743 -0.748208 0
M  V30 1318 H 133.615 -0.471701 -1.77334 0
M  V30 1319 H 131.997 1.24953 -3.7577 0
M  V30 1320 H 133.171 -1.54963 -4.33962 0
M  V30 1321 H 131.486 -1.25033 -3.97185 0
M  V30 1322 H 134.083 1.24513 -5.2 0
M  V30 1323 H 134.426 1.98862 -3.65731 0
M  V30 1324 H 134.959 0.317994 -3.96527 0
M  V30 1325 H 131.698 -1.43674 -6.39561 0
M  V30 1326 H 131.218 0.228011 -5.99366 0
M  V30 1327 H 132.897 -0.129238 -6.46871 0
M  V30 1328 N 133.029 1.57378 -0.0835403 0
M  V30 1329 C 134.275 1.94217 0.583733 0
M  V30 1330 C 134.608 0.964653 1.68547 0
M  V30 1331 O 133.883 -0.00422258 1.945 0
M  V30 1332 C 134.166 3.41253 1.14972 0
M  V30 1333 C 134.019 4.49768 0.0538277 0
M  V30 1334 C 135.338 3.89352 2.05166 0
M  V30 1335 H 132.457 0.706233 0.210724 0
M  V30 1336 H 135.099 1.89392 -0.1519 0
M  V30 1337 H 133.249 3.45496 1.77665 0
M  V30 1338 H 134.921 4.57641 -0.579851 0
M  V30 1339 H 133.164 4.29432 -0.614068 0
M  V30 1340 H 133.835 5.49817 0.490452 0
M  V30 1341 H 136.311 3.87189 1.52393 0
M  V30 1342 H 135.187 4.92822 2.41698 0
M  V30 1343 H 135.448 3.27973 2.96456 0
M  V30 1344 N 134.507 -0.190092 1.56449 0
M  V30 1345 C 135.753 -0.911052 1.81184 0
M  V30 1346 C 136.086 -1.82699 0.658396 0
M  V30 1347 O 135.361 -1.91491 -0.340775 0
M  V30 1348 C 135.644 -1.72297 3.16205 0
M  V30 1349 C 135.497 -0.831419 4.42049 0
M  V30 1350 C 136.816 -2.69454 3.47969 0
M  V30 1351 H 133.935 -0.32977 0.659106 0
M  V30 1352 H 136.577 -0.178169 1.89163 0
M  V30 1353 H 134.727 -2.34778 3.09534 0
M  V30 1354 H 136.399 -0.220929 4.60771 0
M  V30 1355 H 134.642 -0.138406 4.33579 0
M  V30 1356 H 135.313 -1.43461 5.33032 0
M  V30 1357 H 137.789 -2.17104 3.54972 0
M  V30 1358 H 136.665 -3.23342 4.43555 0
M  V30 1359 H 136.926 -3.48744 2.71717 0
M  V30 1360 N 135.985 -1.50799 -0.457987 0
M  V30 1361 C 137.21 -1.66496 -1.23668 0
M  V30 1362 C 137.635 -0.353288 -1.84752 0
M  V30 1363 O 136.993 0.684346 -1.67888 0
M  V30 1364 C 137.041 -2.76763 -2.3116 0
M  V30 1365 O 136.145 -2.38928 -3.36136 0
M  V30 1366 H 135.486 -0.555828 -0.363252 0
M  V30 1367 H 138.016 -1.9725 -0.543474 0
M  V30 1368 H 138.026 -3.00232 -2.76269 0
M  V30 1369 H 136.701 -3.71954 -1.86073 0
M  V30 1370 H 135.278 -2.25953 -2.96647 0
M  V30 1371 N 137.463 0.71206 -1.40597 0
M  V30 1372 C 138.703 1.48438 -1.40519 0
M  V30 1373 C 139.067 1.91998 -0.00767611 0
M  V30 1374 O 140.268 2.6854 0.118239 0
M  V30 1375 C 138.539 2.67514 -2.37004 0
M  V30 1376 S 140.098 3.56875 -2.55315 0
M  V30 1377 H 136.916 0.507457 -0.498005 0
M  V30 1378 H 139.518 0.832355 -1.76896 0
M  V30 1379 H 138.222 2.33689 -3.37368 0
M  V30 1380 H 137.753 3.37625 -2.01923 0
M  V30 1381 H 139.768 4.62081 -1.8082 0
M  V30 1382 N 138.941 1.26152 0.944643 0
M  V30 1383 C 139.904 1.07474 2.0244 0
M  V30 1384 C 140.904 0.0242064 1.60782 0
M  V30 1385 O 142.094 0.267302 1.72137 0
M  V30 1386 C 139.226 0.633956 3.34953 0
M  V30 1387 H 140.419 2.03336 2.20442 0
M  V30 1388 H 137.972 1.087 1.12312 0
M  V30 1389 H 138.707 -0.326811 3.22649 0
M  V30 1390 H 138.492 1.39247 3.66542 0
M  V30 1391 H 139.982 0.52501 4.14287 0
M  V30 1392 N 140.419 -1.14872 1.07899 0
M  V30 1393 C 141.382 -2.17986 0.708161 0
M  V30 1394 C 142.382 -1.58775 -0.25442 0
M  V30 1395 O 143.572 -1.74166 -0.034645 0
M  V30 1396 C 140.704 -3.40871 0.0446929 0
M  V30 1397 H 141.897 -2.52306 1.62116 0
M  V30 1398 H 139.45 -1.2943 0.876218 0
M  V30 1399 H 140.185 -3.12124 -0.880281 0
M  V30 1400 H 139.97 -3.8511 0.737091 0
M  V30 1401 H 141.46 -4.17121 -0.19991 0
M  V30 1402 N 141.898 -0.863906 -1.31812 0
M  V30 1403 C 143.146 -0.470904 -1.96537 0
M  V30 1404 C 143.467 0.978771 -1.68657 0
M  V30 1405 O 142.737 1.6853 -0.998717 0
M  V30 1406 H 141.317 -0.171148 -0.72713 0
M  V30 1407 H 143.979 -1.10236 -1.60729 0
M  V30 1408 H 143.075 -0.623616 -3.05806 0
M  V30 1409 N 143.376 1.44774 -0.622745 0
M  V30 1410 C 144.622 2.0242 -0.124083 0
M  V30 1411 C 144.955 1.4881 1.24777 0
M  V30 1412 O 144.23 0.668799 1.8264 0
M  V30 1413 C 144.513 3.59957 -0.101619 0
M  V30 1414 C 144.366 4.23867 -1.50521 0
M  V30 1415 C 145.685 4.36284 0.578272 0
M  V30 1416 H 142.804 0.735528 -0.0465645 0
M  V30 1417 H 145.446 1.72447 -0.797617 0
M  V30 1418 H 143.596 3.85623 0.471934 0
M  V30 1419 H 145.268 4.09336 -2.12701 0
M  V30 1420 H 143.511 3.81684 -2.06154 0
M  V30 1421 H 144.182 5.32843 -1.4416 0
M  V30 1422 H 146.658 4.16001 0.0906057 0
M  V30 1423 H 145.534 5.46004 0.563149 0
M  V30 1424 H 145.795 4.10271 1.64713 0
M  V30 1425 N 144.854 0.36279 1.53368 0
M  V30 1426 C 146.082 -0.228613 2.05633 0
M  V30 1427 C 146.497 -1.42676 1.23649 0
M  V30 1428 O 145.854 -1.80394 0.27647 0
M  V30 1429 C 145.905 -0.624845 3.56059 0
M  V30 1430 O 145.626 0.525675 4.34935 0
M  V30 1431 C 147.127 -1.27493 4.24571 0
M  V30 1432 H 144.347 -0.0407183 0.669763 0
M  V30 1433 H 146.891 0.520352 1.97769 0
M  V30 1434 H 145.046 -1.32373 3.64083 0
M  V30 1435 H 145.46 0.205969 5.24095 0
M  V30 1436 H 146.934 -1.50277 5.31151 0
M  V30 1437 H 147.411 -2.23439 3.78116 0
M  V30 1438 H 148.017 -0.617558 4.20792 0
M  V30 1439 N 146.332 -1.57332 0.0918853 0
M  V30 1440 C 147.581 -1.93412 -0.572249 0
M  V30 1441 C 147.894 -0.975515 -1.69538 0
M  V30 1442 O 149.1 -1.22991 -2.42045 0
M  V30 1443 C 147.556 -3.43648 -1.0693 0
M  V30 1444 C 147.164 -4.47994 0.0239049 0
M  V30 1445 C 148.908 -3.88695 -1.70635 0
M  V30 1446 C 146.815 -5.89381 -0.488319 0
M  V30 1447 H 145.745 -0.721939 -0.217532 0
M  V30 1448 H 148.396 -1.82735 0.167369 0
M  V30 1449 H 146.778 -3.49466 -1.8625 0
M  V30 1450 H 147.952 -4.53815 0.799277 0
M  V30 1451 H 146.267 -4.12536 0.565946 0
M  V30 1452 H 148.864 -4.91725 -2.10025 0
M  V30 1453 H 149.207 -3.27166 -2.57426 0
M  V30 1454 H 149.74 -3.85564 -0.979023 0
M  V30 1455 H 146.479 -6.54602 0.342906 0
M  V30 1456 H 145.999 -5.87037 -1.23077 0
M  V30 1457 H 147.678 -6.39863 -0.958317 0
M  V30 1458 N 147.81 0.181792 -1.56548 0
M  V30 1459 C 149.035 0.920019 -1.85877 0
M  V30 1460 C 149.46 1.75494 -0.677021 0
M  V30 1461 O 148.818 1.77399 0.374056 0
M  V30 1462 C 148.866 1.78112 -3.13542 0
M  V30 1463 O 147.97 2.88152 -2.95029 0
M  V30 1464 H 147.311 0.258334 -0.611686 0
M  V30 1465 H 149.841 0.183092 -2.03779 0
M  V30 1466 H 149.851 2.18314 -3.44678 0
M  V30 1467 H 148.526 1.16777 -3.99169 0
M  V30 1468 H 147.103 2.51609 -2.75222 0
M  V30 1469 N 149.288 1.51039 0.449983 0
M  V30 1470 C 150.513 1.6715 1.22783 0
M  V30 1471 C 150.938 0.363081 1.84563 0
M  V30 1472 O 150.296 -0.675433 1.68249 0
M  V30 1473 C 150.344 2.77985 2.29689 0
M  V30 1474 O 149.448 2.40707 3.34864 0
M  V30 1475 H 148.789 0.557746 0.360299 0
M  V30 1476 H 151.319 1.97535 0.533005 0
M  V30 1477 H 151.329 3.01693 2.74673 0
M  V30 1478 H 150.004 3.72935 1.84098 0
M  V30 1479 H 148.581 2.27523 2.95445 0
M  V30 1480 N 150.766 -0.704594 1.40972 0
M  V30 1481 C 152.012 -1.46675 1.40051 0
M  V30 1482 C 152.345 -1.94199 0.00641102 0
M  V30 1483 O 151.62 -1.68916 -0.964235 0
M  V30 1484 C 151.903 -2.68505 2.39952 0
M  V30 1485 C 151.756 -2.26805 3.88432 0
M  V30 1486 C 153.075 -3.70686 2.37233 0
M  V30 1487 H 150.194 -0.532015 0.510028 0
M  V30 1488 H 152.836 -0.803255 1.72185 0
M  V30 1489 H 150.986 -3.25114 2.1268 0
M  V30 1490 H 152.658 -1.75592 4.26574 0
M  V30 1491 H 150.901 -1.58685 4.03734 0
M  V30 1492 H 151.572 -3.14181 4.53866 0
M  V30 1493 H 154.048 -3.23731 2.61415 0
M  V30 1494 H 152.924 -4.53553 3.09162 0
M  V30 1495 H 153.185 -4.19754 1.38777 0
M  V30 1496 N 152.244 -1.26651 -0.937939 0
M  V30 1497 C 153.154 -1.10276 -2.07066 0
M  V30 1498 C 154.17 -0.0354197 -1.73964 0
M  V30 1499 O 155.346 -0.239816 -1.99967 0
M  V30 1500 C 152.411 -0.740887 -3.38691 0
M  V30 1501 C 151.472 -1.88799 -3.85556 0
M  V30 1502 C 150.705 -1.54329 -5.10899 0
M  V30 1503 O 150.928 -0.446494 -5.6865 0
M  V30 1504 O 149.862 -2.37911 -5.52885 0
M  V30 1505 H 153.688 -2.05309 -2.23789 0
M  V30 1506 H 151.273 -1.05743 -1.0554 0
M  V30 1507 H 153.155 -0.55195 -4.1777 0
M  V30 1508 H 151.83 0.180022 -3.23199 0
M  V30 1509 H 150.737 -2.13191 -3.07409 0
M  V30 1510 H 152.07 -2.78874 -4.05574 0
M  V30 1511 N 153.722 1.14298 -1.08507 0
M  V30 1512 C 154.669 2.19414 -0.715965 0
M  V30 1513 C 155.639 1.63399 0.298326 0
M  V30 1514 O 156.824 1.89929 0.182101 0
M  V30 1515 C 153.964 3.44845 -0.132534 0
M  V30 1516 C 153.077 4.15007 -1.19973 0
M  V30 1517 C 152.212 5.28024 -0.580048 0
M  V30 1518 C 151.251 5.9002 -1.62921 0
M  V30 1519 N 150.388 6.94485 -1.03125 0
M  V30 1520 H 155.228 2.50336 -1.61666 0
M  V30 1521 H 152.765 1.2293 -0.807882 0
M  V30 1522 H 154.723 4.16601 0.223454 0
M  V30 1523 H 153.353 3.14403 0.731467 0
M  V30 1524 H 152.405 3.41629 -1.67313 0
M  V30 1525 H 153.717 4.57178 -1.99473 0
M  V30 1526 H 152.871 6.06455 -0.172364 0
M  V30 1527 H 151.61 4.87076 0.246603 0
M  V30 1528 H 150.615 5.10291 -2.04654 0
M  V30 1529 H 151.84 6.33042 -2.45835 0
M  V30 1530 H 149.786 6.55612 -0.225711 0
M  V30 1531 H 149.703 7.35148 -1.76334 0
M  V30 1532 H 150.971 7.7679 -0.649458 0
M  V30 1533 N 155.201 0.870884 1.31352 0
M  V30 1534 C 156.148 0.325425 2.28494 0
M  V30 1535 C 157.118 -0.576615 1.5577 0
M  V30 1536 O 158.303 -0.508059 1.83911 0
M  V30 1537 C 155.443 -0.466283 3.41935 0
M  V30 1538 C 154.556 0.463378 4.29508 0
M  V30 1539 C 153.691 -0.342544 5.30094 0
M  V30 1540 C 152.73 0.583486 6.09313 0
M  V30 1541 N 151.867 -0.186244 7.01853 0
M  V30 1542 H 156.707 1.15901 2.74538 0
M  V30 1543 H 154.244 0.58294 1.35056 0
M  V30 1544 H 156.202 -0.941085 4.06447 0
M  V30 1545 H 154.832 -1.26456 2.97 0
M  V30 1546 H 153.884 1.05663 3.65431 0
M  V30 1547 H 155.196 1.1734 4.84802 0
M  V30 1548 H 154.35 -0.879816 6.00287 0
M  V30 1549 H 153.089 -1.08585 4.75458 0
M  V30 1550 H 152.094 1.13251 5.3801 0
M  V30 1551 H 153.319 1.32566 6.66035 0
M  V30 1552 H 151.265 -0.912348 6.49625 0
M  V30 1553 H 151.182 0.464422 7.54572 0
M  V30 1554 H 152.45 -0.704716 7.76308 0
M  V30 1555 N 156.679 -1.44442 0.630414 0
M  V30 1556 C 157.609 -2.33418 -0.0618083 0
M  V30 1557 C 158.59 -1.48165 -0.835541 0
M  V30 1558 O 159.775 -1.76886 -0.801564 0
M  V30 1559 C 156.905 -3.31222 -1.04449 0
M  V30 1560 C 155.859 -4.26288 -0.382436 0
M  V30 1561 C 155.185 -5.13954 -1.47497 0
M  V30 1562 C 156.485 -5.1744 0.710865 0
M  V30 1563 H 158.179 -2.91548 0.681184 0
M  V30 1564 H 155.725 -1.40191 0.329026 0
M  V30 1565 H 157.678 -3.92351 -1.53748 0
M  V30 1566 H 156.402 -2.71299 -1.81836 0
M  V30 1567 H 155.061 -3.6649 0.0899054 0
M  V30 1568 H 154.709 -4.50385 -2.2397 0
M  V30 1569 H 154.409 -5.7837 -1.03737 0
M  V30 1570 H 155.933 -5.77955 -1.96979 0
M  V30 1571 H 157.347 -5.72509 0.300996 0
M  V30 1572 H 155.744 -5.90455 1.07156 0
M  V30 1573 H 156.814 -4.58496 1.57829 0
M  V30 1574 N 158.157 -0.370918 -1.53173 0
M  V30 1575 C 159.09 0.516727 -2.22273 0
M  V30 1576 C 160.068 1.07877 -1.21661 0
M  V30 1577 O 161.252 1.13389 -1.50583 0
M  V30 1578 C 158.379 1.71346 -2.92161 0
M  V30 1579 C 157.425 1.27838 -4.0689 0
M  V30 1580 S 158.258 0.275217 -5.34792 0
M  V30 1581 C 159.414 1.47816 -6.08195 0
M  V30 1582 H 159.647 -0.0701054 -2.97217 0
M  V30 1583 H 157.18 -0.155038 -1.5362 0
M  V30 1584 H 159.138 2.39988 -3.3304 0
M  V30 1585 H 157.799 2.27156 -2.16931 0
M  V30 1586 H 156.992 2.17141 -4.54825 0
M  V30 1587 H 156.594 0.671105 -3.6793 0
M  V30 1588 H 158.886 2.40831 -6.33251 0
M  V30 1589 H 159.829 1.04008 -7.0042 0
M  V30 1590 H 160.237 1.68663 -5.38714 0
M  V30 1591 N 159.635 1.57281 -0.100228 0
M  V30 1592 C 160.545 2.17833 0.870965 0
M  V30 1593 C 161.561 1.14921 1.30649 0
M  V30 1594 O 162.737 1.47313 1.37335 0
M  V30 1595 C 159.802 2.75085 2.1102 0
M  V30 1596 C 158.863 3.9297 1.72838 0
M  V30 1597 C 158.096 4.47482 2.90854 0
M  V30 1598 O 158.319 4.00922 4.05731 0
M  V30 1599 O 157.253 5.38433 2.69023 0
M  V30 1600 H 161.079 3.0124 0.38575 0
M  V30 1601 H 158.664 1.48881 0.124397 0
M  V30 1602 H 160.546 3.11656 2.83634 0
M  V30 1603 H 159.221 1.94721 2.58584 0
M  V30 1604 H 158.128 3.61201 0.973883 0
M  V30 1605 H 159.461 4.74713 1.30033 0
M  V30 1606 N 161.113 -0.173488 1.56642 0
M  V30 1607 C 162.36 -0.890465 1.81871 0
M  V30 1608 C 162.688 -1.82339 0.67696 0
M  V30 1609 O 161.943 -1.92795 -0.335926 0
M  V30 1610 C 162.242 -1.72069 3.13252 0
M  V30 1611 C 161.908 -0.936878 4.41059 0
M  V30 1612 C 160.57 -0.720545 4.75775 0
M  V30 1613 C 162.922 -0.386919 5.19762 0
M  V30 1614 C 160.25 0.0568829 5.86672 0
M  V30 1615 C 162.602 0.37741 6.31473 0
M  V30 1616 C 161.266 0.604563 6.64757 0
M  V30 1617 H 160.536 -0.325844 0.665512 0
M  V30 1618 H 163.183 -0.155527 1.90867 0
M  V30 1619 H 161.488 -2.52496 2.99588 0
M  V30 1620 H 163.185 -2.27844 3.29982 0
M  V30 1621 H 159.775 -1.11553 4.13828 0
M  V30 1622 H 163.959 -0.541398 4.93338 0
M  V30 1623 H 159.215 0.242635 6.10918 0
M  V30 1624 H 163.389 0.810825 6.91664 0
M  V30 1625 H 161.016 1.20885 7.50527 0
M  V30 1626 N 162.591 -1.51276 -0.441967 0
M  V30 1627 C 163.523 -1.68444 -1.55433 0
M  V30 1628 C 164.536 -0.565187 -1.52674 0
M  V30 1629 O 165.725 -0.839356 -1.57534 0
M  V30 1630 C 162.825 -1.67966 -2.94348 0
M  V30 1631 C 161.998 -2.964 -3.21661 0
M  V30 1632 C 161.057 -2.88171 -4.40277 0
M  V30 1633 O 160.083 -3.62119 -4.39157 0
M  V30 1634 N 161.285 -2.03706 -5.43584 0
M  V30 1635 H 164.05 -2.644 -1.41112 0
M  V30 1636 H 161.611 -1.49104 -0.630838 0
M  V30 1637 H 163.603 -1.60035 -3.71713 0
M  V30 1638 H 162.173 -0.796225 -3.0229 0
M  V30 1639 H 161.393 -3.18234 -2.32638 0
M  V30 1640 H 162.681 -3.81427 -3.36736 0
M  V30 1641 H 162.079 -1.42995 -5.47329 0
M  V30 1642 H 160.636 -2.01658 -6.1982 0
M  V30 1643 N 164.069 0.697108 -1.41344 0
M  V30 1644 C 165.48 1.27697 -1.36199 0
M  V30 1645 C 165.831 1.9615 -0.0443463 0
M  V30 1646 O 164.956 1.98689 0.857419 0
M  V30 1647 C 165.551 2.32223 -2.46694 0
M  V30 1648 C 164.11 2.8579 -2.44952 0
M  V30 1649 C 163.257 1.59807 -2.26621 0
M  V30 1650 H 166.208 0.491968 -1.50882 0
M  V30 1651 H 166.229 3.1348 -2.15664 0
M  V30 1652 H 165.741 1.82373 -3.42581 0
M  V30 1653 H 163.842 3.3982 -1.52817 0
M  V30 1654 H 163.955 3.36325 -3.41207 0
M  V30 1655 H 162.319 1.8556 -1.7447 0
M  V30 1656 H 163.102 1.11956 -3.24532 0
M  V30 1657 N 165.547 1.27147 0.931209 0
M  V30 1658 C 166.51 1.09615 2.01289 0
M  V30 1659 C 167.51 0.0412581 1.60747 0
M  V30 1660 O 168.7 0.285545 1.71844 0
M  V30 1661 C 165.832 0.669447 3.34262 0
M  V30 1662 H 167.025 2.05662 2.18273 0
M  V30 1663 H 164.578 1.09885 1.11153 0
M  V30 1664 H 165.313 -0.292572 3.22978 0
M  V30 1665 H 165.098 1.43127 3.65044 0
M  V30 1666 H 166.588 0.568921 4.13706 0
M  V30 1667 N 167.025 -1.13721 1.09112 0
M  V30 1668 C 168.436 -1.6648 0.845068 0
M  V30 1669 C 168.787 -1.85911 -0.62701 0
M  V30 1670 O 167.912 -1.57556 -1.48341 0
M  V30 1671 C 168.507 -3.02413 1.52748 0
M  V30 1672 C 167.066 -3.52176 1.32849 0
M  V30 1673 C 166.213 -2.27492 1.58564 0
M  V30 1674 H 169.164 -0.976872 1.25072 0
M  V30 1675 H 169.185 -3.68223 0.958752 0
M  V30 1676 H 168.697 -2.88238 2.59885 0
M  V30 1677 H 166.798 -3.7156 0.278137 0
M  V30 1678 H 166.911 -4.32499 2.0611 0
M  V30 1679 H 165.275 -2.33923 1.00758 0
M  V30 1680 H 166.058 -2.15886 2.66924 0
M  V30 1681 N 168.503 -0.877838 -1.30888 0
M  V30 1682 C 169.45 -0.337538 -2.28318 0
M  V30 1683 C 170.42 0.568346 -1.56074 0
M  V30 1684 O 171.605 0.498298 -1.84178 0
M  V30 1685 C 168.745 0.448142 -3.42178 0
M  V30 1686 C 167.858 -0.48615 -4.29256 0
M  V30 1687 C 166.993 0.314427 -5.30269 0
M  V30 1688 C 166.032 -0.615791 -6.08995 0
M  V30 1689 N 165.169 0.14902 -7.01942 0
M  V30 1690 H 170.009 -1.17356 -2.73919 0
M  V30 1691 H 167.546 -0.590094 -1.34745 0
M  V30 1692 H 169.504 0.919517 -4.06941 0
M  V30 1693 H 168.134 1.24879 -2.97666 0
M  V30 1694 H 167.186 -1.076 -3.64865 0
M  V30 1695 H 168.498 -1.19909 -4.84173 0
M  V30 1696 H 167.652 0.847969 -6.00745 0
M  V30 1697 H 166.391 1.06062 -4.76027 0
M  V30 1698 H 165.396 -1.16102 -5.37401 0
M  V30 1699 H 166.621 -1.36097 -6.65323 0
M  V30 1700 H 164.567 0.877884 -6.50099 0
M  V30 1701 H 164.484 -0.504433 -7.54315 0
M  V30 1702 H 165.752 0.663537 -7.76671 0
M  V30 1703 N 169.982 1.44106 -0.638065 0
M  V30 1704 C 171.228 2.02277 -0.145546 0
M  V30 1705 C 171.561 1.50125 1.23191 0
M  V30 1706 O 170.836 0.688133 1.8192 0
M  V30 1707 C 171.119 3.59829 -0.139791 0
M  V30 1708 C 170.972 4.22247 -1.55008 0
M  V30 1709 C 172.291 4.36873 0.531966 0
M  V30 1710 H 169.41 0.734992 -0.0543632 0
M  V30 1711 H 172.052 1.71592 -0.815863 0
M  V30 1712 H 170.202 3.86102 0.431007 0
M  V30 1713 H 171.874 4.07057 -2.1703 0
M  V30 1714 H 170.117 3.79476 -2.10191 0
M  V30 1715 H 170.788 5.31284 -1.49804 0
M  V30 1716 H 173.264 4.16074 0.0464781 0
M  V30 1717 H 172.14 5.4657 0.505206 0
M  V30 1718 H 172.401 4.11995 1.60352 0
M  V30 1719 N 171.46 0.379036 1.52974 0
M  V30 1720 C 172.709 -0.207612 2.00629 0
M  V30 1721 C 173.022 -1.48758 1.27006 0
M  V30 1722 O 174.228 -2.15365 1.65318 0
M  V30 1723 C 172.684 -0.42053 3.57435 0
M  V30 1724 C 172.292 0.845587 4.39948 0
M  V30 1725 C 174.036 -0.964102 4.13407 0
M  V30 1726 C 171.943 0.601513 5.88333 0
M  V30 1727 H 170.873 -0.0813591 0.749598 0
M  V30 1728 H 173.524 0.499853 1.76561 0
M  V30 1729 H 171.906 -1.18959 3.7771 0
M  V30 1730 H 173.08 1.61848 4.31442 0
M  V30 1731 H 171.395 1.31336 3.95145 0
M  V30 1732 H 173.992 -1.16225 5.21916 0
M  V30 1733 H 174.335 -1.93019 3.68849 0
M  V30 1734 H 174.868 -0.25487 3.96983 0
M  V30 1735 H 171.607 1.53831 6.37194 0
M  V30 1736 H 171.127 -0.132628 5.99653 0
M  V30 1737 H 172.806 0.232134 6.46583 0
M  V30 1738 N 172.938 -1.57226 0.108567 0
M  V30 1739 C 174.354 -1.5766 -0.248058 0
M  V30 1740 C 174.554 -1.12063 -1.67464 0
M  V30 1741 O 173.61 -0.803236 -2.39383 0
M  V30 1742 C 174.923 -3.0069 -0.0242287 0
M  V30 1743 C 176.471 -3.12868 -0.0909372 0
M  V30 1744 C 176.946 -4.57879 0.105067 0
M  V30 1745 N 178.437 -4.63172 0.0506846 0
M  V30 1746 C 179.172 -5.73126 0.177396 0
M  V30 1747 N 178.668 -6.91866 0.359696 0
M  V30 1748 N 180.461 -5.61977 0.117709 0
M  V30 1749 H 172.612 -1.85169 1.04049 0
M  V30 1750 H 174.875 -0.85529 0.40888 0
M  V30 1751 H 174.581 -3.38299 0.961604 0
M  V30 1752 H 174.455 -3.6945 -0.76068 0
M  V30 1753 H 176.842 -2.75124 -1.06729 0
M  V30 1754 H 176.923 -2.46672 0.677225 0
M  V30 1755 H 176.567 -4.96321 1.07834 0
M  V30 1756 H 176.497 -5.22153 -0.682954 0
M  V30 1757 H 178.988 -3.778 -0.0871266 0
M  V30 1758 H 179.301 -7.71503 0.447529 0
M  V30 1759 H 177.646 -6.93874 0.395536 0
M  V30 1760 H 180.837 -4.68094 -0.0236741 0
M  V30 1761 H 181.01 -6.47627 0.219905 0
M  V30 1762 N 174.416 0.165178 -1.56732 0
M  V30 1763 C 175.656 0.887231 -1.8414 0
M  V30 1764 C 176.02 1.79159 -0.690353 0
M  V30 1765 O 177.221 2.55172 -0.845032 0
M  V30 1766 C 175.492 1.65674 -3.16681 0
M  V30 1767 S 177.051 2.42671 -3.6559 0
M  V30 1768 H 173.869 0.297042 -0.645978 0
M  V30 1769 H 176.471 0.148439 -1.94936 0
M  V30 1770 H 175.175 0.983507 -3.98441 0
M  V30 1771 H 174.706 2.43679 -3.08843 0
M  V30 1772 H 176.721 3.67499 -3.33406 0
M  V30 1773 N 175.894 1.51508 0.433938 0
M  V30 1774 C 176.827 1.67756 1.54704 0
M  V30 1775 C 177.805 0.525127 1.53887 0
M  V30 1776 O 178.989 0.749393 1.72963 0
M  V30 1777 C 176.116 1.69424 2.9328 0
M  V30 1778 C 175.162 2.90673 3.12108 0
M  V30 1779 S 175.995 4.51431 2.88046 0
M  V30 1780 C 177.151 4.55849 4.28897 0
M  V30 1781 H 177.384 2.61904 1.40689 0
M  V30 1782 H 174.917 1.41235 0.62386 0
M  V30 1783 H 176.875 1.7107 3.73156 0
M  V30 1784 H 175.536 0.764464 3.04655 0
M  V30 1785 H 174.729 2.88251 4.13434 0
M  V30 1786 H 174.331 2.86786 2.40062 0
M  V30 1787 H 176.623 4.31699 5.22152 0
M  V30 1788 H 177.566 5.57676 4.36351 0
M  V30 1789 H 177.974 3.85137 4.12711 0
M  V30 1790 N 177.372 -0.689602 1.41712 0
M  V30 1791 C 178.6 -1.47827 1.44758 0
M  V30 1792 C 179.015 -1.88721 0.0545703 0
M  V30 1793 O 178.372 -1.57176 -0.927463 0
M  V30 1794 C 178.423 -2.73698 2.3616 0
M  V30 1795 O 178.144 -2.34524 3.7004 0
M  V30 1796 C 179.645 -3.67389 2.48072 0
M  V30 1797 H 176.865 -0.455357 0.49284 0
M  V30 1798 H 179.409 -0.848574 1.86063 0
M  V30 1799 H 177.564 -3.32891 1.98148 0
M  V30 1800 H 177.978 -3.15701 4.18847 0
M  V30 1801 H 179.452 -4.52475 3.16181 0
M  V30 1802 H 179.929 -4.12284 1.51388 0
M  V30 1803 H 180.535 -3.14097 2.86746 0
M  V30 1804 N 178.85 -1.27639 -0.924453 0
M  V30 1805 C 179.798 -1.10485 -2.04685 0
M  V30 1806 C 180.792 -0.0270421 -1.69378 0
M  V30 1807 O 181.998 -0.185008 -1.79047 0
M  V30 1808 H 178.373 -0.340546 -0.670472 0
M  V30 1809 H 180.344 -2.05566 -2.16298 0
M  V30 1810 C 179.093 -0.772229 -3.39016 0
M  V30 1811 H 178.416 -1.59351 -3.66671 0
M  V30 1812 H 179.856 -0.692097 -4.18313 0
M  V30 1813 C 178.315 0.523554 -3.32807 0
M  V30 1814 O 178.845 1.55702 -3.70297 0
M  V30 1815 N 177.051 0.520363 -2.85903 0
M  V30 1816 H 176.598 -0.32107 -2.55591 0
M  V30 1817 H 176.556 1.38742 -2.82131 0
M  V30 1818 N 180.328 1.1314 -1.09713 0
M  V30 1819 C 181.556 1.88321 -0.856898 0
M  V30 1820 C 181.971 1.79276 0.592073 0
M  V30 1821 O 181.328 1.16142 1.40774 0
M  V30 1822 C 181.379 3.37812 -1.28706 0
M  V30 1823 O 181.1 3.46627 -2.67921 0
M  V30 1824 C 182.601 4.29952 -1.07964 0
M  V30 1825 H 179.821 0.596094 -0.308079 0
M  V30 1826 H 182.365 1.43205 -1.45988 0
M  V30 1827 H 180.52 3.805 -0.727912 0
M  V30 1828 H 180.934 4.39579 -2.8613 0
M  V30 1829 H 182.408 5.33159 -1.42986 0
M  V30 1830 H 182.885 4.39196 -0.0176577 0
M  V30 1831 H 183.491 3.93036 -1.62489 0
M  V30 1832 N 181.806 0.884767 1.30421 0
M  V30 1833 C 183.217 0.553656 1.78302 0
M  V30 1834 C 183.568 -0.930153 1.7275 0
M  V30 1835 O 182.693 -1.72681 1.30423 0
M  V30 1836 C 183.288 0.998234 3.2376 0
M  V30 1837 C 181.847 0.71854 3.69478 0
M  V30 1838 C 180.994 1.18132 2.50879 0
M  V30 1839 H 183.945 1.06901 1.17294 0
M  V30 1840 H 183.966 0.327118 3.79091 0
M  V30 1841 H 183.478 2.0782 3.27769 0
M  V30 1842 H 181.579 -0.349444 3.70958 0
M  V30 1843 H 181.692 1.30595 4.60958 0
M  V30 1844 H 180.056 0.600669 2.47516 0
M  V30 1845 H 180.839 2.26902 2.57624 0
M  V30 1846 N 183.284 -1.43765 0.645699 0
M  V30 1847 C 184.53 -2.02197 0.156271 0
M  V30 1848 C 184.863 -1.50776 -1.22393 0
M  V30 1849 O 184.138 -0.697771 -1.81553 0
M  V30 1850 C 184.421 -3.59749 0.158872 0
M  V30 1851 C 184.274 -4.21419 1.57245 0
M  V30 1852 C 185.593 -4.37149 -0.50879 0
M  V30 1853 H 182.712 -0.734694 0.0582602 0
M  V30 1854 H 185.354 -1.71157 0.824951 0
M  V30 1855 H 183.504 -3.86325 -0.410525 0
M  V30 1856 H 185.176 -4.059 2.19186 0
M  V30 1857 H 183.419 -3.78356 2.122 0
M  V30 1858 H 184.09 -5.30482 1.52619 0
M  V30 1859 H 186.566 -4.16093 -0.024412 0
M  V30 1860 H 185.442 -5.4683 -0.476213 0
M  V30 1861 H 185.703 -4.12839 -1.58165 0
M  V30 1862 N 184.763 -0.387143 -1.52771 0
M  V30 1863 C 186.009 0.196025 -2.0185 0
M  V30 1864 C 186.342 1.46641 -1.27319 0
M  V30 1865 O 185.617 1.90889 -0.373032 0
M  V30 1866 C 185.9 0.466136 -3.5707 0
M  V30 1867 C 185.753 -0.819385 -4.42274 0
M  V30 1868 C 187.072 1.25768 -4.21747 0
M  V30 1869 H 184.191 0.0697708 -0.73369 0
M  V30 1870 H 186.833 -0.516286 -1.82851 0
M  V30 1871 H 184.983 1.07293 -3.7339 0
M  V30 1872 H 186.655 -1.4563 -4.37709 0
M  V30 1873 H 184.898 -1.43517 -4.09372 0
M  V30 1874 H 185.569 -0.585065 -5.48891 0
M  V30 1875 H 188.045 0.744167 -4.09391 0
M  V30 1876 H 186.921 1.41541 -5.30337 0
M  V30 1877 H 187.182 2.27228 -3.79236 0
M  V30 1878 N 186.241 1.57166 -0.116904 0
M  V30 1879 C 187.487 1.95412 0.542405 0
M  V30 1880 C 187.82 1.00019 1.66463 0
M  V30 1881 O 187.095 0.0370346 1.94465 0
M  V30 1882 C 187.378 3.43615 1.07708 0
M  V30 1883 C 187.231 4.49781 -0.0415868 0
M  V30 1884 C 188.55 3.93616 1.96861 0
M  V30 1885 H 185.669 0.710543 0.195696 0
M  V30 1886 H 188.311 1.89027 -0.192038 0
M  V30 1887 H 186.461 3.49187 1.70296 0
M  V30 1888 H 188.133 4.56308 -0.676793 0
M  V30 1889 H 186.376 4.28033 -0.705019 0
M  V30 1890 H 187.047 5.50733 0.373717 0
M  V30 1891 H 189.523 3.90335 1.44146 0
M  V30 1892 H 188.399 4.97838 2.3119 0
M  V30 1893 H 188.66 3.34188 2.89432 0
M  V30 1894 N 187.719 -0.156864 1.56817 0
M  V30 1895 C 188.651 -1.21883 1.94106 0
M  V30 1896 C 189.664 -1.3971 0.835754 0
M  V30 1897 O 190.853 -1.39457 1.11418 0
M  V30 1898 C 187.953 -2.58527 2.19127 0
M  V30 1899 C 187.126 -2.61809 3.50393 0
M  V30 1900 C 186.185 -3.7992 3.64071 0
M  V30 1901 O 185.211 -3.65249 4.36557 0
M  V30 1902 N 186.413 -4.96973 2.99997 0
M  V30 1903 H 189.178 -0.901974 2.85805 0
M  V30 1904 H 186.739 -0.346513 1.58148 0
M  V30 1905 H 188.731 -3.36034 2.25529 0
M  V30 1906 H 187.301 -2.82545 1.33742 0
M  V30 1907 H 186.521 -1.7029 3.5552 0
M  V30 1908 H 187.809 -2.61024 4.36742 0
M  V30 1909 H 187.207 -5.11794 2.41004 0
M  V30 1910 H 185.764 -5.7229 3.11974 0
M  V30 1911 N 189.197 -1.51736 -0.425897 0
M  V30 1912 C 190.107 -1.76738 -1.54275 0
M  V30 1913 C 191.123 -0.65211 -1.61318 0
M  V30 1914 O 192.299 -0.935654 -1.78346 0
M  V30 1915 C 189.364 -1.89755 -2.90162 0
M  V30 1916 C 188.425 -3.13633 -2.93143 0
M  V30 1917 C 187.658 -3.2602 -4.22548 0
M  V30 1918 O 187.881 -2.44067 -5.15546 0
M  V30 1919 O 186.815 -4.19071 -4.32046 0
M  V30 1920 H 190.641 -2.71502 -1.36089 0
M  V30 1921 H 188.226 -1.36376 -0.610069 0
M  V30 1922 H 190.108 -2.00236 -3.70788 0
M  V30 1923 H 188.783 -0.981785 -3.08452 0
M  V30 1924 H 187.69 -3.08622 -2.11431 0
M  V30 1925 H 189.023 -4.04936 -2.798 0
M  V30 1926 N 190.675 0.682077 -1.42076 0
M  V30 1927 C 191.923 1.4393 -1.41876 0
M  V30 1928 C 192.244 1.94971 -0.0335599 0
M  V30 1929 O 191.514 1.72591 0.926773 0
M  V30 1930 H 190.094 0.534085 -0.522267 0
M  V30 1931 H 192.756 0.806427 -1.77434 0
M  V30 1932 H 191.852 2.29588 -2.11414 0
M  V30 1933 N 192.153 1.28127 0.917671 0
M  V30 1934 C 193.116 1.11744 2.00115 0
M  V30 1935 C 194.116 0.0583052 1.60694 0
M  V30 1936 O 195.306 0.303755 1.71531 0
M  V30 1937 C 192.438 0.704862 3.33533 0
M  V30 1938 H 193.631 2.07966 2.16079 0
M  V30 1939 H 191.184 1.11058 1.09981 0
M  V30 1940 H 191.919 -0.258299 3.2327 0
M  V30 1941 H 191.704 1.4699 3.63505 0
M  V30 1942 H 193.194 0.612768 4.1308 0
M  V30 1943 N 193.631 -1.12557 1.10312 0
M  V30 1944 C 194.859 -1.87864 0.866873 0
M  V30 1945 C 195.274 -1.79588 -0.582557 0
M  V30 1946 O 194.631 -1.16887 -1.40156 0
M  V30 1947 C 194.682 -3.37125 1.30496 0
M  V30 1948 O 194.403 -3.45201 2.69755 0
M  V30 1949 C 195.904 -4.29373 1.10243 0
M  V30 1950 H 193.124 -0.594452 0.311236 0
M  V30 1951 H 195.668 -1.42429 1.46745 0
M  V30 1952 H 193.823 -3.80109 0.748081 0
M  V30 1953 H 194.237 -4.38056 2.88457 0
M  V30 1954 H 195.711 -5.32394 1.45811 0
M  V30 1955 H 196.188 -4.39181 0.0409492 0
M  V30 1956 H 196.794 -3.92169 1.64571 0
M  V30 1957 N 195.109 -0.891671 -1.2995 0
M  V30 1958 C 196.355 -0.514261 -1.96171 0
M  V30 1959 C 196.688 0.935506 -1.70182 0
M  V30 1960 O 195.963 1.66204 -1.01028 0
M  V30 1961 C 196.246 -0.797719 -3.51153 0
M  V30 1962 C 196.099 -2.2986 -3.86632 0
M  V30 1963 C 197.418 -0.278749 -4.39216 0
M  V30 1964 H 194.537 -0.188314 -0.712535 0
M  V30 1965 H 197.179 -1.11689 -1.53706 0
M  V30 1966 H 195.329 -0.284826 -3.87455 0
M  V30 1967 H 197.001 -2.88042 -3.60319 0
M  V30 1968 H 195.244 -2.76257 -3.34462 0
M  V30 1969 H 195.915 -2.44753 -4.94773 0
M  V30 1970 H 198.391 -0.717825 -4.09862 0
M  V30 1971 H 197.267 -0.506353 -5.46559 0
M  V30 1972 H 197.528 0.820266 -4.34424 0
M  V30 1973 N 196.587 1.43421 -0.653314 0
M  V30 1974 C 197.817 2.05864 -0.174238 0
M  V30 1975 C 198.225 1.49052 1.16534 0
M  V30 1976 O 197.568 0.616481 1.73047 0
M  V30 1977 C 197.63 3.59499 -0.00875873 0
M  V30 1978 C 197.294 4.38893 -1.27364 0
M  V30 1979 C 198.291 4.70947 -2.20239 0
M  V30 1980 C 195.976 4.789 -1.51525 0
M  V30 1981 C 197.97 5.41916 -3.35568 0
M  V30 1982 C 195.657 5.49614 -2.67147 0
M  V30 1983 C 196.655 5.81044 -3.58994 0
M  V30 1984 O 196.343 6.50313 -4.72597 0
M  V30 1985 H 196.075 0.670345 -0.0872549 0
M  V30 1986 H 198.629 1.84913 -0.894226 0
M  V30 1987 H 196.859 3.79025 0.7666 0
M  V30 1988 H 198.548 4.0364 0.427687 0
M  V30 1989 H 199.314 4.40558 -2.02815 0
M  V30 1990 H 195.193 4.53843 -0.809158 0
M  V30 1991 H 198.737 5.66365 -4.07279 0
M  V30 1992 H 194.634 5.79419 -2.84505 0
M  V30 1993 H 195.402 6.68795 -4.71864 0
M  V30 1994 N 198.065 0.39524 1.52563 0
M  V30 1995 C 199.028 -0.425001 2.25225 0
M  V30 1996 C 200.028 -0.985266 1.27079 0
M  V30 1997 O 201.218 -0.866332 1.5113 0
M  V30 1998 C 198.35 -1.59686 3.01186 0
M  V30 1999 H 199.543 0.211233 2.99155 0
M  V30 2000 H 197.096 0.147472 1.55603 0
M  V30 2001 H 197.831 -2.27035 2.31572 0
M  V30 2002 H 197.616 -1.20176 3.73229 0
M  V30 2003 H 199.106 -2.17743 3.5634 0
M  V30 2004 N 199.544 -1.57102 0.125237 0
M  V30 2005 C 200.772 -1.99761 -0.538797 0
M  V30 2006 C 201.187 -1.00503 -1.59827 0
M  V30 2007 O 200.544 0.00119474 -1.825 0
M  V30 2008 C 200.595 -3.42408 -1.15927 0
M  V30 2009 O 200.316 -4.37869 -0.142143 0
M  V30 2010 C 201.817 -4.00232 -1.90602 0
M  V30 2011 H 199.037 -0.655772 -0.14214 0
M  V30 2012 H 201.581 -2.03383 0.213413 0
M  V30 2013 H 199.736 -3.39706 -1.86223 0
M  V30 2014 H 200.15 -5.21128 -0.593775 0
M  V30 2015 H 201.624 -5.02105 -2.29335 0
M  V30 2016 H 202.101 -3.39721 -2.78363 0
M  V30 2017 H 202.707 -4.06499 -1.25055 0
M  V30 2018 N 201.022 0.148545 -1.56898 0
M  V30 2019 C 202.27 0.859717 -1.82902 0
M  V30 2020 C 202.591 1.81775 -0.70588 0
M  V30 2021 O 201.861 1.93994 0.272586 0
M  V30 2022 H 200.441 0.320469 -0.674766 0
M  V30 2023 H 203.103 0.142918 -1.94375 0
M  V30 2024 H 202.199 1.4229 -2.77777 0
M  V30 2025 N 202.5 1.5196 0.417844 0
M  V30 2026 C 203.728 1.69426 1.18753 0
M  V30 2027 C 204.143 0.399955 1.84515 0
M  V30 2028 O 203.5 -0.623288 1.71527 0
M  V30 2029 C 203.551 2.82375 2.25714 0
M  V30 2030 O 203.272 4.06793 1.62638 0
M  V30 2031 C 204.773 3.11277 3.15628 0
M  V30 2032 H 201.993 0.568031 0.357186 0
M  V30 2033 H 204.537 1.98475 0.49273 0
M  V30 2034 H 202.692 2.5587 2.90877 0
M  V30 2035 H 203.106 4.69667 2.3348 0
M  V30 2036 H 204.58 3.93843 3.86771 0
M  V30 2037 H 205.057 2.24473 3.77503 0
M  V30 2038 H 205.663 3.39515 2.56144 0
M  V30 2039 N 203.978 -0.674533 1.42435 0
M  V30 2040 C 204.928 -1.7807 1.4239 0
M  V30 2041 C 205.912 -1.58169 0.295202 0
M  V30 2042 O 207.104 -1.68643 0.537449 0
M  V30 2043 C 204.233 -3.16532 1.32901 0
M  V30 2044 C 203.319 -3.42055 2.50717 0
M  V30 2045 N 203.71 -3.38162 3.76139 0
M  V30 2046 C 202.008 -3.72692 2.44983 0
M  V30 2047 C 202.709 -3.63177 4.54398 0
M  V30 2048 N 201.685 -3.83954 3.84812 0
M  V30 2049 H 205.487 -1.73454 2.37257 0
M  V30 2050 H 203.001 -0.875381 1.36788 0
M  V30 2051 H 204.998 -3.958 1.30951 0
M  V30 2052 H 203.658 -3.22345 0.390363 0
M  V30 2053 H 204.669 -3.18057 4.0873 0
M  V30 2054 H 201.346 -3.85749 1.59699 0
M  V30 2055 H 202.736 -3.66125 5.63384 0
M  V30 2056 N 205.456 -1.28612 -0.910864 0
M  V30 2057 C 206.419 -1.12803 -1.9952 0
M  V30 2058 C 207.419 -0.0668264 -1.60661 0
M  V30 2059 O 208.609 -0.312847 -1.71368 0
M  V30 2060 C 205.741 -0.72254 -3.33155 0
M  V30 2061 H 206.934 -2.09109 -2.14973 0
M  V30 2062 H 204.487 -1.11639 -1.09391 0
M  V30 2063 H 205.222 0.241152 -3.23402 0
M  V30 2064 H 205.007 -1.48916 -3.62721 0
M  V30 2065 H 206.497 -0.634666 -4.12749 0
M  V30 2066 N 206.934 1.1197 -1.10907 0
M  V30 2067 C 207.864 2.19928 -0.784473 0
M  V30 2068 C 208.845 1.6833 0.244726 0
M  V30 2069 O 210.03 1.93892 0.109418 0
M  V30 2070 C 207.16 3.46597 -0.220827 0
M  V30 2071 C 206.114 4.11376 -1.18127 0
M  V30 2072 C 205.44 5.32554 -0.478594 0
M  V30 2073 C 206.74 4.56945 -2.52979 0
M  V30 2074 H 208.434 2.47337 -1.68715 0
M  V30 2075 H 205.98 1.18879 -0.812642 0
M  V30 2076 H 207.933 4.21396 0.0184278 0
M  V30 2077 H 206.657 3.1863 0.717113 0
M  V30 2078 H 205.316 3.38564 -1.40606 0
M  V30 2079 H 204.964 5.00856 0.463976 0
M  V30 2080 H 204.664 5.76844 -1.11912 0
M  V30 2081 H 206.188 6.10096 -0.248 0
M  V30 2082 H 207.602 5.23093 -2.3462 0
M  V30 2083 H 205.999 5.1203 -3.12962 0
M  V30 2084 H 207.069 3.70676 -3.12614 0
M  V30 2085 N 208.412 0.89855 1.29475 0
M  V30 2086 C 209.658 0.524658 1.95896 0
M  V30 2087 C 209.991 -0.926468 1.70676 0
M  V30 2088 O 209.266 -1.65665 1.01908 0
M  V30 2089 C 209.549 0.81633 3.50725 0
M  V30 2090 C 209.402 2.31907 3.85408 0
M  V30 2091 C 210.721 0.302038 4.39062 0
M  V30 2092 H 207.84 0.19209 0.711527 0
M  V30 2093 H 210.482 1.12502 1.53112 0
M  V30 2094 H 208.632 0.305369 3.87298 0
M  V30 2095 H 210.304 2.89949 3.58786 0
M  V30 2096 H 208.547 2.78027 3.32992 0
M  V30 2097 H 209.218 2.47373 4.93468 0
M  V30 2098 H 211.694 0.739551 4.09475 0
M  V30 2099 H 210.57 0.535331 5.46283 0
M  V30 2100 H 210.831 -0.797216 4.34853 0
M  V30 2101 N 209.89 -1.43072 0.660911 0
M  V30 2102 C 210.8 -2.34585 -0.0264163 0
M  V30 2103 C 211.816 -1.54316 -0.803898 0
M  V30 2104 O 212.992 -1.86939 -0.749391 0
M  V30 2105 C 210.057 -3.32689 -0.975639 0
M  V30 2106 C 209.118 -4.2886 -0.194236 0
M  V30 2107 C 208.351 -5.22278 -1.09825 0
M  V30 2108 O 208.574 -5.20299 -2.33763 0
M  V30 2109 O 207.508 -5.99228 -0.566513 0
M  V30 2110 H 211.334 -2.94869 0.727034 0
M  V30 2111 H 208.919 -1.43342 0.42111 0
M  V30 2112 H 210.801 -3.92995 -1.52094 0
M  V30 2113 H 209.476 -2.74898 -1.70918 0
M  V30 2114 H 208.383 -3.72011 0.394835 0
M  V30 2115 H 209.716 -4.89655 0.499899 0
M  V30 2116 N 211.368 -0.403325 -1.52352 0
M  V30 2117 C 212.645 0.232611 -1.94212 0
M  V30 2118 C 213.025 1.63133 -1.33981 0
M  V30 2119 O 212.373 2.22659 -0.513344 0
M  V30 2120 C 212.583 0.244811 -3.4814 0
M  V30 2121 C 213.931 0.46698 -4.22024 0
M  V30 2122 O 214.955 0.324419 -3.5472 0
M  V30 2123 O 213.814 0.74747 -5.41364 0
M  V30 2124 H 210.908 0.148223 -0.813609 0
M  V30 2125 H 213.454 -0.458848 -1.63379 0
M  V30 2126 H 212.226 -0.734378 -3.84347 0
M  V30 2127 H 211.849 0.980611 -3.85318 0
M  V30 2128 N 212.846 1.57033 -0.133567 0
M  V30 2129 C 214.094 1.953 0.519848 0
M  V30 2130 C 214.415 1.01866 1.66278 0
M  V30 2131 O 213.685 0.0776513 1.95746 0
M  V30 2132 H 212.265 0.721091 0.195032 0
M  V30 2133 H 214.927 1.93809 -0.205921 0
M  V30 2134 H 214.023 2.98695 0.904854 0
M  V30 2135 N 214.325 -0.140222 1.56975 0
M  V30 2136 C 215.257 -1.19818 1.95388 0
M  V30 2137 C 216.27 -1.38816 0.850525 0
M  V30 2138 O 217.459 -1.38267 1.12891 0
M  V30 2139 C 214.559 -2.56189 2.21857 0
M  V30 2140 C 213.732 -2.58077 3.5315 0
M  V30 2141 C 212.791 -3.76037 3.6808 0
M  V30 2142 O 211.817 -3.60598 4.40406 0
M  V30 2143 N 213.019 -4.93763 3.05251 0
M  V30 2144 H 215.784 -0.871609 2.86746 0
M  V30 2145 H 213.345 -0.32972 1.58507 0
M  V30 2146 H 215.337 -3.33623 2.2908 0
M  V30 2147 H 213.907 -2.81111 1.36731 0
M  V30 2148 H 213.127 -1.6651 3.57307 0
M  V30 2149 H 214.415 -2.56377 4.39486 0
M  V30 2150 H 213.813 -5.09209 2.46419 0
M  V30 2151 H 212.37 -5.68949 3.18026 0
M  V30 2152 N 215.803 -1.52179 -0.40978 0
M  V30 2153 C 216.733 -1.78435 -1.5061 0
M  V30 2154 C 217.714 -0.635295 -1.57791 0
M  V30 2155 O 218.899 -0.880823 -1.73076 0
M  V30 2156 C 216.029 -1.93444 -2.88439 0
M  V30 2157 C 214.983 -3.09038 -2.96108 0
M  V30 2158 C 214.309 -3.09268 -4.36185 0
M  V30 2159 C 215.609 -4.48508 -2.67652 0
M  V30 2160 H 217.303 -2.70237 -1.28889 0
M  V30 2161 H 214.849 -1.30036 -0.618605 0
M  V30 2162 H 216.802 -2.10394 -3.65119 0
M  V30 2163 H 215.526 -0.983129 -3.11452 0
M  V30 2164 H 214.185 -2.91837 -2.21872 0
M  V30 2165 H 213.833 -2.11861 -4.56206 0
M  V30 2166 H 213.533 -3.86907 -4.42241 0
M  V30 2167 H 215.057 -3.28348 -5.14801 0
M  V30 2168 H 216.471 -4.65918 -3.34056 0
M  V30 2169 H 214.868 -5.28059 -2.85085 0
M  V30 2170 H 215.938 -4.56649 -1.63095 0
M  V30 2171 N 217.281 0.66697 -1.42791 0
M  V30 2172 C 218.211 1.79218 -1.49677 0
M  V30 2173 C 219.192 1.66405 -0.352623 0
M  V30 2174 O 220.377 1.85708 -0.567993 0
M  V30 2175 C 217.507 3.17565 -1.40605 0
M  V30 2176 C 216.461 3.45124 -2.53127 0
M  V30 2177 C 215.787 4.83127 -2.29112 0
M  V30 2178 C 217.087 3.41236 -3.95418 0
M  V30 2179 H 218.781 1.73713 -2.43853 0
M  V30 2180 H 216.327 0.83432 -1.17367 0
M  V30 2181 H 218.28 3.96022 -1.44029 0
M  V30 2182 H 217.004 3.23767 -0.429271 0
M  V30 2183 H 215.663 2.69031 -2.49034 0
M  V30 2184 H 215.311 4.85988 -1.29709 0
M  V30 2185 H 215.011 5.02528 -3.04531 0
M  V30 2186 H 216.535 5.63859 -2.34297 0
M  V30 2187 H 217.949 4.09651 -4.01073 0
M  V30 2188 H 216.346 3.72173 -4.70752 0
M  V30 2189 H 217.416 2.39665 -4.21532 0
M  V30 2190 N 218.759 1.29093 0.90403 0
M  V30 2191 C 219.669 1.15727 2.0407 0
M  V30 2192 C 220.685 0.0815308 1.73809 0
M  V30 2193 O 221.861 0.292749 1.99261 0
M  V30 2194 C 218.926 0.830424 3.36608 0
M  V30 2195 C 217.987 1.98955 3.80415 0
M  V30 2196 C 217.22 1.6782 5.06628 0
M  V30 2197 O 217.443 0.597105 5.67266 0
M  V30 2198 O 216.377 2.52486 5.46383 0
M  V30 2199 H 220.203 2.11171 2.18267 0
M  V30 2200 H 217.788 1.08504 1.027 0
M  V30 2201 H 219.67 0.662521 4.16159 0
M  V30 2202 H 218.345 -0.0942678 3.23563 0
M  V30 2203 H 217.252 2.21267 3.01648 0
M  V30 2204 H 218.585 2.89529 3.98037 0
M  V30 2205 N 220.237 -1.11381 1.11499 0
M  V30 2206 C 221.169 -2.17207 0.731704 0
M  V30 2207 C 222.182 -1.61066 -0.236957 0
M  V30 2208 O 223.371 -1.78489 -0.0197591 0
M  V30 2209 C 220.471 -3.38846 0.0607624 0
M  V30 2210 C 219.644 -4.24451 1.0564 0
M  V30 2211 C 218.703 -5.24562 0.4149 0
M  V30 2212 O 217.729 -5.59071 1.069 0
M  V30 2213 N 218.931 -5.74651 -0.821943 0
M  V30 2214 H 221.696 -2.50699 1.64225 0
M  V30 2215 H 219.257 -1.26908 1.00529 0
M  V30 2216 H 221.249 -4.02911 -0.380139 0
M  V30 2217 H 219.819 -3.03411 -0.752376 0
M  V30 2218 H 219.039 -3.56833 1.67524 0
M  V30 2219 H 220.327 -4.78486 1.72998 0
M  V30 2220 H 219.725 -5.48797 -1.37252 0
M  V30 2221 H 218.282 -6.40549 -1.20582 0
M  V30 2222 N 221.715 -0.905404 -1.28997 0
M  V30 2223 C 222.645 -0.404212 -2.29975 0
M  V30 2224 C 223.626 0.523784 -1.61835 0
M  V30 2225 O 224.811 0.433298 -1.89304 0
M  V30 2226 C 221.941 0.364042 -3.45387 0
M  V30 2227 C 220.895 -0.474048 -4.25367 0
M  V30 2228 C 220.221 0.422045 -5.33032 0
M  V30 2229 C 221.521 -1.72696 -4.92923 0
M  V30 2230 H 223.215 -1.24807 -2.72146 0
M  V30 2231 H 220.761 -0.601585 -1.30832 0
M  V30 2232 H 222.714 0.725447 -4.15109 0
M  V30 2233 H 221.438 1.24174 -3.02074 0
M  V30 2234 H 220.097 -0.81786 -3.57361 0
M  V30 2235 H 219.745 1.29804 -4.85963 0
M  V30 2236 H 219.445 -0.135057 -5.87445 0
M  V30 2237 H 220.969 0.779517 -6.05604 0
M  V30 2238 H 222.383 -1.43495 -5.55051 0
M  V30 2239 H 220.78 -2.22582 -5.57295 0
M  V30 2240 H 221.85 -2.45964 -4.17887 0
M  V30 2241 N 223.193 1.4272 -0.668489 0
M  V30 2242 C 224.126 2.28111 0.0637898 0
M  V30 2243 C 225.104 1.40705 0.814912 0
M  V30 2244 O 226.288 1.70146 0.81134 0
M  V30 2245 C 223.415 3.20429 1.0974 0
M  V30 2246 C 222.461 4.24197 0.442579 0
M  V30 2247 S 223.294 5.29563 -0.795173 0
M  V30 2248 C 224.45 6.25449 0.237516 0
M  V30 2249 H 224.683 2.8987 -0.660521 0
M  V30 2250 H 222.216 1.47456 -0.457821 0
M  V30 2251 H 224.174 3.74158 1.68868 0
M  V30 2252 H 222.835 2.57818 1.79411 0
M  V30 2253 H 222.028 4.88954 1.22227 0
M  V30 2254 H 221.63 3.73925 -0.0749554 0
M  V30 2255 H 223.922 6.68524 1.09915 0
M  V30 2256 H 224.865 7.07104 -0.375421 0
M  V30 2257 H 225.273 5.61511 0.580167 0
M  V30 2258 N 224.671 0.411399 1.52136 0
M  V30 2259 C 225.896 -0.165538 2.06738 0
M  V30 2260 C 226.321 -1.379 1.27926 0
M  V30 2261 O 225.679 -1.78628 0.310114 0
M  V30 2262 C 225.727 -0.492124 3.57226 0
M  V30 2263 O 224.831 -1.58276 3.80818 0
M  V30 2264 H 224.172 -0.0132132 0.663869 0
M  V30 2265 H 226.702 0.585253 1.96051 0
M  V30 2266 H 226.712 -0.750104 4.01045 0
M  V30 2267 H 225.387 0.394922 4.14021 0
M  V30 2268 H 223.964 -1.31677 3.48877 0
M  V30 2269 N 226.149 -1.5696 0.141893 0
M  V30 2270 C 227.374 -2.00754 -0.520838 0
M  V30 2271 C 227.799 -1.0213 -1.57959 0
M  V30 2272 O 227.157 0.00371324 -1.813 0
M  V30 2273 C 227.205 -3.43318 -1.10294 0
M  V30 2274 O 226.309 -3.47679 -2.21795 0
M  V30 2275 H 225.65 -0.651564 -0.127908 0
M  V30 2276 H 228.18 -2.03221 0.23712 0
M  V30 2277 H 228.19 -3.82012 -1.43287 0
M  V30 2278 H 226.865 -4.14608 -0.327574 0
M  V30 2279 H 225.442 -3.20824 -1.9007 0
M  V30 2280 N 227.627 0.131896 -1.57047 0
M  V30 2281 C 228.873 0.843179 -1.84441 0
M  V30 2282 C 229.206 1.80129 -0.725749 0
M  V30 2283 O 228.481 1.92624 0.269469 0
M  V30 2284 C 228.764 1.60442 -3.22382 0
M  V30 2285 C 228.617 0.666782 -4.4483 0
M  V30 2286 C 229.936 2.56354 -3.5773 0
M  V30 2287 H 227.055 0.305081 -0.670891 0
M  V30 2288 H 229.697 0.107839 -1.89694 0
M  V30 2289 H 227.847 2.23128 -3.18035 0
M  V30 2290 H 229.519 0.0497646 -4.61273 0
M  V30 2291 H 227.762 -0.022609 -4.33794 0
M  V30 2292 H 228.433 1.23579 -5.37989 0
M  V30 2293 H 230.909 2.0378 -3.62785 0
M  V30 2294 H 229.785 3.06657 -4.5525 0
M  V30 2295 H 230.046 3.38419 -2.84473 0
M  V30 2296 N 229.106 1.52395 0.401703 0
M  V30 2297 C 230.354 1.66488 1.14569 0
M  V30 2298 C 230.675 0.400897 1.90835 0
M  V30 2299 O 229.945 -0.584415 1.8698 0
M  V30 2300 H 228.525 0.613672 0.425929 0
M  V30 2301 H 231.187 1.89464 0.457093 0
M  V30 2302 H 230.283 2.50942 1.85566 0
M  V30 2303 N 230.584 -0.659388 1.43143 0
M  V30 2304 C 231.831 -1.41935 1.44433 0
M  V30 2305 C 232.159 -1.94387 0.0663522 0
M  V30 2306 O 231.414 -1.72314 -0.927706 0
M  V30 2307 C 231.713 -2.62206 2.42864 0
M  V30 2308 C 231.379 -2.28208 3.88886 0
M  V30 2309 C 230.041 -2.18647 4.28657 0
M  V30 2310 C 232.393 -2.00887 4.8093 0
M  V30 2311 C 229.721 -1.79914 5.58433 0
M  V30 2312 C 232.073 -1.63653 6.11065 0
M  V30 2313 C 230.737 -1.52614 6.49819 0
M  V30 2314 H 230.007 -0.519376 0.528517 0
M  V30 2315 H 232.654 -0.750453 1.76183 0
M  V30 2316 H 230.959 -3.34199 2.04495 0
M  V30 2317 H 232.656 -3.2041 2.41119 0
M  V30 2318 H 229.246 -2.36557 3.57406 0
M  V30 2319 H 233.43 -2.07198 4.5098 0
M  V30 2320 H 228.686 -1.69948 5.87305 0
M  V30 2321 H 232.86 -1.41543 6.81864 0
M  V30 2322 H 230.487 -1.22371 7.50286 0
M  V30 2323 N 232.062 -1.29571 -0.897171 0
M  V30 2324 C 233.302 -1.18959 -1.66217 0
M  V30 2325 C 233.666 0.254271 -1.90309 0
M  V30 2326 O 234.867 0.483407 -2.64417 0
M  V30 2327 C 233.138 -1.98302 -2.9734 0
M  V30 2328 S 234.697 -2.04253 -3.88364 0
M  V30 2329 H 231.515 -0.424137 -0.570639 0
M  V30 2330 H 234.117 -1.6389 -1.06585 0
M  V30 2331 H 232.821 -3.02342 -2.77521 0
M  V30 2332 H 232.352 -1.53986 -3.62011 0
M  V30 2333 H 234.367 -1.16105 -4.82425 0
M  V30 2334 N 233.54 1.10788 -1.12088 0
M  V30 2335 C 234.768 1.86461 -0.896651 0
M  V30 2336 C 235.183 1.80492 0.553912 0
M  V30 2337 O 234.54 1.19102 1.38278 0
M  V30 2338 C 234.591 3.35006 -1.35843 0
M  V30 2339 O 234.312 3.40866 -2.75213 0
M  V30 2340 C 235.813 4.27565 -1.1706 0
M  V30 2341 H 233.033 0.589425 -0.320654 0
M  V30 2342 H 235.577 1.40076 -1.48993 0
M  V30 2343 H 233.732 3.7887 -0.808458 0
M  V30 2344 H 234.146 4.33411 -2.9539 0
M  V30 2345 H 235.62 5.30007 -1.54263 0
M  V30 2346 H 236.097 4.3906 -0.110814 0
M  V30 2347 H 236.703 3.89501 -1.70789 0
M  V30 2348 N 235.018 0.912232 1.28515 0
M  V30 2349 C 235.928 0.404506 2.31086 0
M  V30 2350 C 236.944 -0.50707 1.66448 0
M  V30 2351 O 238.12 -0.393624 1.97516 0
M  V30 2352 C 235.185 -0.348572 3.44943 0
M  V30 2353 C 234.246 0.59604 4.25142 0
M  V30 2354 C 233.479 -0.121194 5.33562 0
M  V30 2355 O 233.702 -1.34317 5.5436 0
M  V30 2356 O 232.636 0.542716 5.99448 0
M  V30 2357 H 236.462 1.25579 2.76521 0
M  V30 2358 H 234.047 0.676998 1.33181 0
M  V30 2359 H 235.929 -0.77395 4.14232 0
M  V30 2360 H 234.604 -1.17571 3.01594 0
M  V30 2361 H 233.511 1.07079 3.58448 0
M  V30 2362 H 234.844 1.38995 4.72167 0
M  V30 2363 N 236.496 -1.42363 0.676048 0
M  V30 2364 C 237.742 -2.0182 0.199125 0
M  V30 2365 C 238.075 -1.53339 -1.19168 0
M  V30 2366 O 237.35 -0.736124 -1.80032 0
M  V30 2367 C 237.633 -3.59331 0.235144 0
M  V30 2368 C 237.486 -4.17989 1.66149 0
M  V30 2369 C 238.805 -4.3813 -0.41595 0
M  V30 2370 H 235.924 -0.733293 0.0738311 0
M  V30 2371 H 238.566 -1.69368 0.86107 0
M  V30 2372 H 236.716 -3.87109 -0.328487 0
M  V30 2373 H 238.388 -4.0116 2.27747 0
M  V30 2374 H 236.631 -3.7377 2.20178 0
M  V30 2375 H 237.302 -5.27126 1.63837 0
M  V30 2376 H 239.778 -4.16051 0.0638529 0
M  V30 2377 H 238.654 -5.47717 -0.360115 0
M  V30 2378 H 238.915 -4.16101 -1.49373 0
M  V30 2379 N 237.974 -0.419461 -1.51915 0
M  V30 2380 C 238.884 0.407528 -2.31033 0
M  V30 2381 C 239.9 1.04413 -1.3919 0
M  V30 2382 O 241.076 1.0434 -1.72265 0
M  V30 2383 C 238.141 1.50365 -3.12396 0
M  V30 2384 C 237.202 0.889029 -4.19994 0
M  V30 2385 C 236.435 1.93291 -4.97468 0
M  V30 2386 O 236.658 3.15259 -4.75361 0
M  V30 2387 O 235.592 1.53339 -5.8204 0
M  V30 2388 H 239.418 -0.237865 -3.02767 0
M  V30 2389 H 237.003 -0.182413 -1.48282 0
M  V30 2390 H 238.885 2.13975 -3.63032 0
M  V30 2391 H 237.56 2.13345 -2.43445 0
M  V30 2392 H 236.467 0.215353 -3.7348 0
M  V30 2393 H 237.8 0.302991 -4.91267 0
M  V30 2394 N 239.452 1.56882 -0.150215 0
M  V30 2395 C 240.362 2.20494 0.801222 0
M  V30 2396 C 241.378 1.19019 1.26927 0
M  V30 2397 O 242.554 1.51607 1.32579 0
M  V30 2398 C 239.619 2.81659 2.02161 0
M  V30 2399 C 238.68 3.9827 1.60249 0
M  V30 2400 C 237.913 4.56508 2.7647 0
M  V30 2401 O 238.136 4.13627 3.92771 0
M  V30 2402 O 237.07 5.46719 2.51757 0
M  V30 2403 H 240.896 3.02315 0.289717 0
M  V30 2404 H 238.481 1.49202 0.0769684 0
M  V30 2405 H 240.363 3.20522 2.73576 0
M  V30 2406 H 239.038 2.02849 2.52258 0
M  V30 2407 H 237.945 3.64117 0.858477 0
M  V30 2408 H 239.278 4.78609 1.14864 0
M  V30 2409 N 240.93 -0.123565 1.57115 0
M  V30 2410 C 242.207 -0.862196 1.75572 0
M  V30 2411 C 242.587 -1.98279 0.724475 0
M  V30 2412 O 241.935 -2.27102 -0.252407 0
M  V30 2413 C 242.145 -1.38309 3.20424 0
M  V30 2414 C 243.493 -1.83724 3.82793 0
M  V30 2415 O 244.517 -1.47999 3.23998 0
M  V30 2416 O 243.376 -2.49685 4.86127 0
M  V30 2417 H 240.47 -0.409113 0.718718 0
M  V30 2418 H 243.016 -0.107661 1.69358 0
M  V30 2419 H 241.788 -0.578889 3.86994 0
M  V30 2420 H 241.411 -2.20046 3.31158 0
M  V30 2421 N 242.408 -1.52605 -0.393616 0
M  V30 2422 C 243.338 -1.80022 -1.48709 0
M  V30 2423 C 244.319 -0.651995 -1.57108 0
M  V30 2424 O 245.504 -0.89913 -1.72132 0
M  V30 2425 C 242.634 -1.96492 -2.86371 0
M  V30 2426 C 241.588 -3.12161 -2.92813 0
M  V30 2427 C 240.914 -3.13877 -4.3288 0
M  V30 2428 C 242.214 -4.51322 -2.6288 0
M  V30 2429 H 243.908 -2.71589 -1.26015 0
M  V30 2430 H 241.454 -1.30684 -0.604778 0
M  V30 2431 H 243.407 -2.14255 -3.62867 0
M  V30 2432 H 242.131 -1.01611 -3.10391 0
M  V30 2433 H 240.79 -2.94173 -2.18764 0
M  V30 2434 H 240.438 -2.16687 -4.53933 0
M  V30 2435 H 240.138 -3.91576 -4.38112 0
M  V30 2436 H 241.662 -3.33789 -5.1129 0
M  V30 2437 H 243.076 -4.69435 -3.29096 0
M  V30 2438 H 241.473 -5.31053 -2.79468 0
M  V30 2439 H 242.543 -4.58353 -1.58242 0
M  V30 2440 N 243.887 0.651787 -1.4349 0
M  V30 2441 C 245.136 1.40754 -1.44469 0
M  V30 2442 C 245.449 1.95463 -0.0731845 0
M  V30 2443 O 246.655 2.71471 0.0395721 0
M  V30 2444 C 245.111 2.54735 -2.5424 0
M  V30 2445 C 244.719 2.06628 -3.97504 0
M  V30 2446 C 246.463 3.32092 -2.64414 0
M  V30 2447 C 244.37 3.17829 -4.98737 0
M  V30 2448 H 243.3 0.528862 -0.53742 0
M  V30 2449 H 245.951 0.703365 -1.69485 0
M  V30 2450 H 244.333 3.2763 -2.22428 0
M  V30 2451 H 245.507 1.40734 -4.38783 0
M  V30 2452 H 243.822 1.42146 -3.91387 0
M  V30 2453 H 246.419 4.14952 -3.37223 0
M  V30 2454 H 246.762 3.80217 -1.69532 0
M  V30 2455 H 247.295 2.66279 -2.95534 0
M  V30 2456 H 244.034 2.74671 -5.95177 0
M  V30 2457 H 243.554 3.82429 -4.62069 0
M  V30 2458 H 245.233 3.82937 -5.21505 0
M  V30 2459 N 245.365 1.30045 0.890287 0
M  V30 2460 C 246.642 1.09227 1.62262 0
M  V30 2461 C 247.022 -0.360305 2.08002 0
M  V30 2462 O 246.37 -1.35084 1.84295 0
M  V30 2463 C 246.58 2.08835 2.79623 0
M  V30 2464 C 247.928 2.40266 3.50082 0
M  V30 2465 O 248.952 2.07104 2.89804 0
M  V30 2466 O 247.811 2.96967 4.58773 0
M  V30 2467 H 244.905 0.419132 0.712922 0
M  V30 2468 H 247.451 1.41451 0.937529 0
M  V30 2469 H 246.223 3.06633 2.43089 0
M  V30 2470 H 245.846 1.77397 3.55832 0
M  V30 2471 N 246.843 -1.10192 1.12674 0
M  V30 2472 C 247.806 -2.14786 0.799979 0
M  V30 2473 C 248.806 -1.59711 -0.18685 0
M  V30 2474 O 249.996 -1.74156 0.0392558 0
M  V30 2475 C 247.128 -3.40374 0.189228 0
M  V30 2476 H 248.321 -2.45203 1.72671 0
M  V30 2477 H 245.874 -1.25597 0.930326 0
M  V30 2478 H 246.609 -3.15577 -0.747107 0
M  V30 2479 H 246.394 -3.81637 0.899766 0
M  V30 2480 H 247.884 -4.17594 -0.0228143 0
M  V30 2481 N 248.321 -0.919034 -1.28029 0
M  V30 2482 C 249.567 -0.555757 -1.95036 0
M  V30 2483 C 249.9 0.899198 -1.72128 0
M  V30 2484 O 249.175 1.64023 -1.04531 0
M  V30 2485 C 249.458 -0.872024 -3.49382 0
M  V30 2486 C 249.311 -2.3801 -3.81669 0
M  V30 2487 C 250.63 -0.37185 -4.38526 0
M  V30 2488 H 247.749 -0.203386 -0.708381 0
M  V30 2489 H 250.391 -1.14924 -1.51303 0
M  V30 2490 H 248.541 -0.366946 -3.86763 0
M  V30 2491 H 250.213 -2.9562 -3.54128 0
M  V30 2492 H 248.456 -2.83289 -3.28526 0
M  V30 2493 H 249.127 -2.55192 -4.8947 0
M  V30 2494 H 251.603 -0.804602 -4.08247 0
M  V30 2495 H 250.479 -0.622173 -5.45362 0
M  V30 2496 H 250.74 0.727934 -4.36066 0
M  V30 2497 N 249.799 1.42003 -0.683588 0
M  V30 2498 C 251.027 2.05746 -0.218182 0
M  V30 2499 C 251.442 1.51396 1.12804 0
M  V30 2500 O 250.799 0.657303 1.70252 0
M  V30 2501 C 250.85 3.61171 -0.154131 0
M  V30 2502 O 250.571 4.13508 -1.44716 0
M  V30 2503 C 252.072 4.42042 0.333713 0
M  V30 2504 H 249.292 0.662888 -0.10402 0
M  V30 2505 H 251.836 1.81987 -0.9328 0
M  V30 2506 H 249.991 3.84012 0.511231 0
M  V30 2507 H 250.405 5.07453 -1.32632 0
M  V30 2508 H 251.879 5.51028 0.327423 0
M  V30 2509 H 252.356 4.17269 1.37053 0
M  V30 2510 H 252.962 4.24239 -0.300222 0
M  V30 2511 N 251.277 0.427512 1.51691 0
M  V30 2512 C 252.525 -0.141948 2.01601 0
M  V30 2513 C 252.846 -1.44067 1.31414 0
M  V30 2514 O 252.116 -1.90763 0.445658 0
M  V30 2515 H 250.696 -0.0554468 0.744939 0
M  V30 2516 H 253.358 0.567968 1.86441 0
M  V30 2517 H 252.454 -0.324913 3.10404 0
M  V30 2518 N 252.755 -1.56801 0.158532 0
M  V30 2519 C 253.685 -2.20347 -0.772609 0
M  V30 2520 C 254.666 -1.15518 -1.24859 0
M  V30 2521 O 255.851 -1.43902 -1.30406 0
M  V30 2522 C 252.981 -2.83417 -2.00729 0
M  V30 2523 C 251.935 -3.94174 -1.66765 0
M  V30 2524 C 251.261 -4.44233 -2.97592 0
M  V30 2525 C 252.561 -5.14392 -0.905447 0
M  V30 2526 H 254.255 -2.98413 -0.242959 0
M  V30 2527 H 251.801 -1.43537 -0.115419 0
M  V30 2528 H 253.754 -3.26543 -2.6636 0
M  V30 2529 H 252.478 -2.02701 -2.56086 0
M  V30 2530 H 251.137 -3.51684 -1.03508 0
M  V30 2531 H 250.785 -3.60325 -3.50963 0
M  V30 2532 H 250.485 -5.18945 -2.75626 0
M  V30 2533 H 252.009 -4.90037 -3.64274 0
M  V30 2534 H 253.423 -5.5429 -1.46408 0
M  V30 2535 H 251.82 -5.9494 -0.7853 0
M  V30 2536 H 252.89 -4.84795 0.100668 0
M  V30 2537 N 254.233 0.115231 -1.57178 0
M  V30 2538 C 255.458 0.840354 -1.89612 0
M  V30 2539 C 255.883 1.72464 -0.750845 0
M  V30 2540 O 255.241 1.78826 0.298478 0
M  V30 2541 C 255.289 1.64654 -3.20814 0
M  V30 2542 O 254.393 2.7538 -3.06985 0
M  V30 2543 H 253.734 0.232158 -0.622092 0
M  V30 2544 H 256.264 0.0964977 -2.04372 0
M  V30 2545 H 256.274 2.03499 -3.53627 0
M  V30 2546 H 254.949 0.997416 -4.03763 0
M  V30 2547 H 253.526 2.3971 -2.85646 0
M  V30 2548 N 255.711 1.52812 0.385517 0
M  V30 2549 C 256.959 1.67694 1.12797 0
M  V30 2550 C 257.28 0.421115 1.90399 0
M  V30 2551 O 256.55 -0.564551 1.87589 0
M  V30 2552 H 255.13 0.618155 0.419396 0
M  V30 2553 H 257.792 1.89938 0.436972 0
M  V30 2554 H 256.888 2.52896 1.82894 0
M  V30 2555 N 257.189 -0.644168 1.43834 0
M  V30 2556 C 258.414 -1.43642 1.49605 0
M  V30 2557 C 258.839 -1.8773 0.117913 0
M  V30 2558 O 258.197 -1.57938 -0.890239 0
M  V30 2559 C 258.245 -2.6416 2.45463 0
M  V30 2560 O 257.349 -3.63538 1.94714 0
M  V30 2561 H 256.69 -0.430329 0.50568 0
M  V30 2562 H 259.22 -0.787448 1.8884 0
M  V30 2563 H 259.23 -3.11864 2.63068 0
M  V30 2564 H 257.905 -2.31414 3.45572 0
M  V30 2565 H 256.482 -3.2273 1.86814 0
M  V30 2566 N 258.668 -1.30515 -0.883378 0
M  V30 2567 C 259.615 -1.17032 -1.98927 0
M  V30 2568 C 260.585 -0.0594241 -1.65994 0
M  V30 2569 O 261.77 -0.229895 -1.8941 0
M  V30 2570 C 258.91 -0.869777 -3.33959 0
M  V30 2571 C 258.023 -2.06271 -3.79574 0
M  V30 2572 C 257.158 -1.70011 -5.03259 0
M  V30 2573 C 256.197 -2.8579 -5.41286 0
M  V30 2574 N 255.334 -2.49816 -6.56153 0
M  V30 2575 H 260.174 -2.1164 -2.09792 0
M  V30 2576 H 257.711 -1.05296 -1.02719 0
M  V30 2577 H 259.669 -0.676138 -4.11685 0
M  V30 2578 H 258.299 0.0394332 -3.22776 0
M  V30 2579 H 257.351 -2.36755 -2.97744 0
M  V30 2580 H 258.663 -2.92971 -4.03694 0
M  V30 2581 H 257.817 -1.47032 -5.88614 0
M  V30 2582 H 256.556 -0.804829 -4.81013 0
M  V30 2583 H 255.561 -3.09434 -4.54456 0
M  V30 2584 H 256.786 -3.76008 -5.65504 0
M  V30 2585 H 254.732 -1.62795 -6.35479 0
M  V30 2586 H 254.649 -3.30048 -6.8015 0
M  V30 2587 H 255.917 -2.30197 -7.44735 0
M  V30 2588 N 260.146 1.09593 -1.13257 0
M  V30 2589 C 261.557 1.63229 -0.906274 0
M  V30 2590 C 261.908 1.8811 0.557578 0
M  V30 2591 O 261.033 1.62953 1.42391 0
M  V30 2592 C 261.628 2.96535 -1.63867 0
M  V30 2593 C 260.187 3.47003 -1.45828 0
M  V30 2594 C 259.334 2.2145 -1.66898 0
M  V30 2595 H 262.285 0.92978 -1.28611 0
M  V30 2596 H 262.306 3.64411 -1.09476 0
M  V30 2597 H 261.818 2.78394 -2.70404 0
M  V30 2598 H 259.919 3.70272 -0.415848 0
M  V30 2599 H 260.032 4.24551 -2.2202 0
M  V30 2600 H 258.396 2.30022 -1.09371 0
M  V30 2601 H 259.179 2.0583 -2.74752 0
M  V30 2602 N 261.624 0.925811 1.2754 0
M  V30 2603 C 262.587 0.428129 2.25166 0
M  V30 2604 C 263.587 -0.452261 1.54309 0
M  V30 2605 O 264.777 -0.253608 1.72344 0
M  V30 2606 C 261.909 -0.384749 3.38722 0
M  V30 2607 H 263.102 1.29066 2.70706 0
M  V30 2608 H 260.655 0.706323 1.3943 0
M  V30 2609 H 261.39 -1.26618 2.98561 0
M  V30 2610 H 261.175 0.246454 3.91325 0
M  V30 2611 H 262.665 -0.723389 4.11287 0
M  V30 2612 N 263.102 -1.41638 0.69111 0
M  V30 2613 C 264.332 -2.0533 0.228758 0
M  V30 2614 C 264.74 -1.52089 -1.12541 0
M  V30 2615 O 264.083 -0.662145 -1.71351 0
M  V30 2616 C 264.145 -3.59349 0.10407 0
M  V30 2617 C 263.809 -4.35362 1.38956 0
M  V30 2618 C 264.806 -4.64942 2.32648 0
M  V30 2619 C 262.491 -4.74714 1.64169 0
M  V30 2620 C 264.485 -5.32828 3.49818 0
M  V30 2621 C 262.172 -5.42338 2.81625 0
M  V30 2622 C 263.17 -5.71322 3.74273 0
M  V30 2623 O 262.858 -6.37554 4.89673 0
M  V30 2624 H 262.59 -0.667796 0.104997 0
M  V30 2625 H 265.144 -1.82477 0.942938 0
M  V30 2626 H 263.374 -3.80924 -0.665839 0
M  V30 2627 H 265.063 -4.04633 -0.320519 0
M  V30 2628 H 265.829 -4.35025 2.14425 0
M  V30 2629 H 261.708 -4.51538 0.929202 0
M  V30 2630 H 265.252 -5.55368 4.22152 0
M  V30 2631 H 261.149 -5.71673 2.99768 0
M  V30 2632 H 261.917 -6.56049 4.8943 0
M  V30 2633 N 264.58 -0.43555 -1.51462 0
M  V30 2634 C 265.543 0.365137 -2.26273 0
M  V30 2635 C 266.543 0.951227 -1.29647 0
M  V30 2636 O 267.733 0.825958 -1.53374 0
M  V30 2637 C 264.865 1.51645 -3.05314 0
M  V30 2638 H 266.058 -0.290474 -2.9849 0
M  V30 2639 H 263.611 -0.188676 -1.55157 0
M  V30 2640 H 264.346 2.20816 -2.3751 0
M  V30 2641 H 264.131 1.10238 -3.76284 0
M  V30 2642 H 265.621 2.08218 -3.61987 0
M  V30 2643 N 266.058 1.56714 -0.166846 0
M  V30 2644 C 267.305 1.96747 0.479252 0
M  V30 2645 C 267.633 1.05263 1.63554 0
M  V30 2646 O 266.888 0.0858098 1.95512 0
M  V30 2647 C 267.187 3.42889 1.00806 0
M  V30 2648 C 266.853 4.50889 -0.0318574 0
M  V30 2649 C 265.515 4.8015 -0.317675 0
M  V30 2650 C 267.867 5.15949 -0.737956 0
M  V30 2651 C 265.195 5.71772 -1.31506 0
M  V30 2652 C 267.547 6.08647 -1.72429 0
M  V30 2653 C 266.211 6.36277 -2.0176 0
M  V30 2654 H 265.481 0.719949 0.175371 0
M  V30 2655 H 268.128 1.89756 -0.257864 0
M  V30 2656 H 266.433 3.4681 1.82291 0
M  V30 2657 H 268.13 3.71203 1.51689 0
M  V30 2658 H 264.72 4.28128 0.201088 0
M  V30 2659 H 268.904 4.93458 -0.530351 0
M  V30 2660 H 264.16 5.91465 -1.54853 0
M  V30 2661 H 268.334 6.58129 -2.27682 0
M  V30 2662 H 265.961 7.07075 -2.79194 0
M  V30 2663 N 267.536 -0.106894 1.57237 0
M  V30 2664 C 268.469 -1.16125 1.96444 0
M  V30 2665 C 269.447 -1.3947 0.835871 0
M  V30 2666 O 270.631 -1.53425 1.09513 0
M  V30 2667 C 267.758 -2.51277 2.27107 0
M  V30 2668 C 266.804 -2.44285 3.4961 0
M  V30 2669 S 267.637 -1.87077 5.01759 0
M  V30 2670 C 268.793 -3.23877 5.35588 0
M  V30 2671 H 269.026 -0.826971 2.85567 0
M  V30 2672 H 266.559 -0.314124 1.51171 0
M  V30 2673 H 268.517 -3.29035 2.45451 0
M  V30 2674 H 267.178 -2.81879 1.38576 0
M  V30 2675 H 266.371 -3.4387 3.68469 0
M  V30 2676 H 265.973 -1.74652 3.30715 0
M  V30 2677 H 268.265 -4.20122 5.31511 0
M  V30 2678 H 269.208 -3.09833 6.36717 0
M  V30 2679 H 269.616 -3.22864 4.63054 0
M  V30 2680 N 269.014 -1.53014 -0.377408 0
M  V30 2681 C 269.977 -1.77957 -1.44444 0
M  V30 2682 C 270.977 -0.649763 -1.47087 0
M  V30 2683 O 272.167 -0.917897 -1.48055 0
M  V30 2684 C 269.299 -1.89089 -2.83651 0
M  V30 2685 H 270.492 -2.73243 -1.23606 0
M  V30 2686 H 268.045 -1.43912 -0.609844 0
M  V30 2687 H 268.78 -0.958293 -3.09818 0
M  V30 2688 H 268.565 -2.71254 -2.83132 0
M  V30 2689 H 270.055 -2.1002 -3.60945 0
M  V30 2690 N 270.492 0.636531 -1.44174 0
M  V30 2691 C 271.422 1.76003 -1.53444 0
M  V30 2692 C 272.403 1.65619 -0.387841 0
M  V30 2693 O 273.588 1.84461 -0.607257 0
M  V30 2694 C 270.718 3.14511 -1.4731 0
M  V30 2695 C 269.672 3.39677 -2.60391 0
M  V30 2696 C 268.998 4.78159 -2.39308 0
M  V30 2697 C 270.298 3.32772 -4.02567 0
M  V30 2698 H 271.992 1.68501 -2.47483 0
M  V30 2699 H 269.538 0.809237 -1.19111 0
M  V30 2700 H 271.491 3.92878 -1.52397 0
M  V30 2701 H 270.215 3.22783 -0.49785 0
M  V30 2702 H 268.874 2.63688 -2.54684 0
M  V30 2703 H 268.522 4.83128 -1.39988 0
M  V30 2704 H 268.222 4.95956 -3.15122 0
M  V30 2705 H 269.746 5.58762 -2.46205 0
M  V30 2706 H 271.16 4.01051 -4.09672 0
M  V30 2707 H 269.557 3.62104 -4.7854 0
M  V30 2708 H 270.627 2.30669 -4.2652 0
M  V30 2709 N 271.97 1.30982 0.876444 0
M  V30 2710 C 273.247 1.10942 1.61094 0
M  V30 2711 C 273.627 -0.338223 2.08373 0
M  V30 2712 O 272.975 -1.33122 1.85717 0
M  V30 2713 C 273.185 2.11789 2.77392 0
M  V30 2714 C 274.533 2.43965 3.47514 0
M  V30 2715 O 275.557 2.10166 2.87591 0
M  V30 2716 O 274.416 3.01817 4.55597 0
M  V30 2717 H 271.51 0.42667 0.708436 0
M  V30 2718 H 274.056 1.42438 0.922474 0
M  V30 2719 H 272.828 3.09194 2.39823 0
M  V30 2720 H 272.451 1.81161 3.5393 0
M  V30 2721 N 273.449 -1.08991 1.13837 0
M  V30 2722 C 274.412 -2.13925 0.822715 0
M  V30 2723 C 275.412 -1.599 -0.1699 0
M  V30 2724 O 276.602 -1.74104 0.0577251 0
M  V30 2725 C 273.734 -3.40155 0.225318 0
M  V30 2726 H 274.927 -2.43358 1.75262 0
M  V30 2727 H 272.48 -1.24603 0.943594 0
M  V30 2728 H 273.215 -3.16352 -0.713594 0
M  V30 2729 H 273 -3.80661 0.940193 0
M  V30 2730 H 274.49 -4.17594 0.0214784 0
M  V30 2731 N 274.927 -0.932562 -1.27047 0
M  V30 2732 C 275.857 -0.452902 -2.29066 0
M  V30 2733 C 276.838 0.489338 -1.62909 0
M  V30 2734 O 278.023 0.393046 -1.90181 0
M  V30 2735 C 275.153 0.290698 -3.46081 0
M  V30 2736 C 274.107 -0.564168 -4.24265 0
M  V30 2737 C 273.433 0.308886 -5.33807 0
M  V30 2738 C 274.733 -1.83112 -4.89149 0
M  V30 2739 H 276.427 -1.30552 -2.69437 0
M  V30 2740 H 273.973 -0.629201 -1.29526 0
M  V30 2741 H 275.926 0.637233 -4.16554 0
M  V30 2742 H 274.65 1.17738 -3.0464 0
M  V30 2743 H 273.309 -0.893477 -3.55545 0
M  V30 2744 H 272.957 1.19467 -4.88607 0
M  V30 2745 H 272.657 -0.259633 -5.87026 0
M  V30 2746 H 274.181 0.650884 -6.07121 0
M  V30 2747 H 275.595 -1.55236 -5.51883 0
M  V30 2748 H 273.992 -2.34353 -5.52448 0
M  V30 2749 H 275.062 -2.54772 -4.12576 0
M  V30 2750 N 276.405 1.4127 -0.698611 0
M  V30 2751 C 277.368 2.29158 -0.044132 0
M  V30 2752 C 278.368 1.44529 0.704841 0
M  V30 2753 O 279.558 1.65643 0.539276 0
M  V30 2754 C 276.69 3.27459 0.947809 0
M  V30 2755 H 277.883 2.88529 -0.817994 0
M  V30 2756 H 275.436 1.49307 -0.46228 0
M  V30 2757 H 276.171 2.73073 1.74933 0
M  V30 2758 H 275.956 3.8991 0.41385 0
M  V30 2759 H 277.446 3.93311 1.40344 0
M  V30 2760 N 277.883 0.443576 1.51229 0
M  V30 2761 C 279.16 -0.181038 1.9476 0
M  V30 2762 C 279.54 -1.59523 1.38259 0
M  V30 2763 O 278.888 -2.2122 0.572198 0
M  V30 2764 C 279.098 -0.152422 3.48667 0
M  V30 2765 C 280.446 -0.354923 4.23114 0
M  V30 2766 O 281.47 -0.230257 3.55455 0
M  V30 2767 O 280.329 -0.603674 5.43156 0
M  V30 2768 H 277.423 -0.1266 0.817252 0
M  V30 2769 H 279.969 0.502004 1.62105 0
M  V30 2770 H 278.741 0.836022 3.82265 0
M  V30 2771 H 278.364 -0.878107 3.87782 0
M  V30 2772 N 279.361 -1.56624 0.175154 0
M  V30 2773 C 280.609 -1.96609 -0.467885 0
M  V30 2774 C 280.93 -1.06238 -1.63519 0
M  V30 2775 O 280.2 -0.129523 -1.95471 0
M  V30 2776 H 278.78 -0.726008 -0.175845 0
M  V30 2777 H 281.442 -1.93195 0.257234 0
M  V30 2778 H 280.538 -3.00989 -0.825342 0
M  V30 2779 N 280.839 0.0985539 -1.57292 0
M  V30 2780 C 282.087 0.801092 -1.85545 0
M  V30 2781 C 282.408 1.79438 -0.763353 0
M  V30 2782 O 281.678 1.94763 0.21073 0
M  V30 2783 H 280.258 0.29884 -0.684619 0
M  V30 2784 H 282.92 0.0810064 -1.94732 0
M  V30 2785 H 282.016 1.3338 -2.82163 0
M  V30 2786 N 282.317 1.53212 0.369288 0
M  V30 2787 C 283.563 1.69466 1.11397 0
M  V30 2788 C 283.896 0.443257 1.89074 0
M  V30 2789 O 283.171 -0.559386 1.86282 0
M  V30 2790 C 283.454 2.9422 2.07621 0
M  V30 2791 C 283.307 4.29508 1.33577 0
M  V30 2792 C 284.626 3.14565 3.07794 0
M  V30 2793 H 281.745 0.616667 0.403597 0
M  V30 2794 H 284.387 1.85845 0.395179 0
M  V30 2795 H 282.537 2.80387 2.68916 0
M  V30 2796 H 284.209 4.55147 0.750955 0
M  V30 2797 H 282.452 4.29088 0.637618 0
M  V30 2798 H 283.123 5.12926 2.03989 0
M  V30 2799 H 285.599 3.2756 2.56601 0
M  V30 2800 H 284.475 4.03297 3.72348 0
M  V30 2801 H 284.736 2.29675 3.77759 0
M  V30 2802 N 283.795 -0.628877 1.44509 0
M  V30 2803 C 284.742 -1.74074 1.51549 0
M  V30 2804 C 285.712 -1.62084 0.363021 0
M  V30 2805 O 286.897 -1.81975 0.573567 0
M  V30 2806 C 284.037 -3.12328 1.46784 0
M  V30 2807 C 283.15 -3.35277 2.72422 0
M  V30 2808 C 282.285 -4.63515 2.59475 0
M  V30 2809 C 281.324 -4.7965 3.80266 0
M  V30 2810 N 280.461 -5.99168 3.65981 0
M  V30 2811 H 285.301 -1.67392 2.46544 0
M  V30 2812 H 282.838 -0.816527 1.22357 0
M  V30 2813 H 284.796 -3.92286 1.42012 0
M  V30 2814 H 283.426 -3.18018 0.553544 0
M  V30 2815 H 282.478 -2.49242 2.87372 0
M  V30 2816 H 283.79 -3.43078 3.62076 0
M  V30 2817 H 282.944 -5.51638 2.52548 0
M  V30 2818 H 281.683 -4.58076 1.67384 0
M  V30 2819 H 280.688 -3.89957 3.87574 0
M  V30 2820 H 281.913 -4.86902 4.73395 0
M  V30 2821 H 279.859 -5.94814 2.76644 0
M  V30 2822 H 279.776 -6.08035 4.49254 0
M  V30 2823 H 281.044 -6.89846 3.6295 0
M  V30 2824 N 285.273 -1.31445 -0.869486 0
M  V30 2825 C 286.206 -1.13465 -1.97992 0
M  V30 2826 C 287.184 -0.0380291 -1.62556 0
M  V30 2827 O 288.368 -0.194544 -1.87493 0
M  V30 2828 C 285.495 -0.733822 -3.30655 0
M  V30 2829 C 284.541 -1.83356 -3.85075 0
M  V30 2830 S 285.374 -3.43909 -4.10472 0
M  V30 2831 C 286.53 -3.05763 -5.46132 0
M  V30 2832 H 286.763 -2.07471 -2.1294 0
M  V30 2833 H 284.296 -1.15936 -1.01972 0
M  V30 2834 H 286.254 -0.509306 -4.07328 0
M  V30 2835 H 284.915 0.187123 -3.13542 0
M  V30 2836 H 284.108 -1.50574 -4.80982 0
M  V30 2837 H 283.71 -2.01315 -3.15195 0
M  V30 2838 H 286.002 -2.54686 -6.27807 0
M  V30 2839 H 286.945 -4.00635 -5.83864 0
M  V30 2840 H 287.353 -2.43192 -5.09429 0
M  V30 2841 N 286.751 1.08385 -1.14413 0
M  V30 2842 C 287.999 1.80419 -0.910679 0
M  V30 2843 C 288.32 1.86658 0.564243 0
M  V30 2844 O 287.59 1.35985 1.41014 0
M  V30 2845 H 286.17 0.668204 -0.333934 0
M  V30 2846 H 288.832 1.31037 -1.44275 0
M  V30 2847 H 287.928 2.83238 -1.31082 0
M  V30 2848 N 288.23 0.939286 1.26551 0
M  V30 2849 C 289.16 0.465044 2.28822 0
M  V30 2850 C 290.141 -0.480692 1.63167 0
M  V30 2851 O 291.326 -0.382955 1.90387 0
M  V30 2852 C 288.456 -0.27234 3.46231 0
M  V30 2853 C 287.41 0.58666 4.2396 0
M  V30 2854 C 286.736 -0.280573 5.33963 0
M  V30 2855 C 288.036 1.85704 4.88171 0
M  V30 2856 H 289.73 1.31979 2.68741 0
M  V30 2857 H 287.276 0.636061 1.29191 0
M  V30 2858 H 289.229 -0.615133 4.16886 0
M  V30 2859 H 287.953 -1.16121 3.0526 0
M  V30 2860 H 286.612 0.91232 3.55067 0
M  V30 2861 H 286.26 -1.16874 4.89234 0
M  V30 2862 H 285.96 0.29076 5.8688 0
M  V30 2863 H 287.484 -0.618678 6.07458 0
M  V30 2864 H 288.898 1.58161 5.51052 0
M  V30 2865 H 287.295 2.37279 5.51197 0
M  V30 2866 H 288.365 2.56957 4.11219 0
M  V30 2867 N 289.708 -1.40897 0.706093 0
M  V30 2868 C 291.119 -1.84023 0.315052 0
M  V30 2869 C 291.47 -1.5906 -1.14866 0
M  V30 2870 O 290.595 -1.06651 -1.88293 0
M  V30 2871 C 291.19 -3.34055 0.565038 0
M  V30 2872 C 289.749 -3.7571 0.227806 0
M  V30 2873 C 288.896 -2.64204 0.842122 0
M  V30 2874 H 291.847 -1.303 0.905963 0
M  V30 2875 H 291.868 -3.80107 -0.172843 0
M  V30 2876 H 291.38 -3.52192 1.63042 0
M  V30 2877 H 289.481 -3.63172 -0.832895 0
M  V30 2878 H 289.594 -4.74103 0.690174 0
M  V30 2879 H 287.958 -2.53255 0.270893 0
M  V30 2880 H 288.741 -2.85155 1.91158 0
M  V30 2881 N 291.186 -0.45159 -1.50991 0
M  V30 2882 C 292.602 -0.104647 -1.59257 0
M  V30 2883 C 292.802 1.38728 -1.4614 0
M  V30 2884 O 291.858 2.15866 -1.30989 0
M  V30 2885 C 293.171 -0.637468 -2.93865 0
M  V30 2886 C 294.719 -0.599166 -3.07212 0
M  V30 2887 C 295.194 -1.1092 -4.44366 0
M  V30 2888 N 296.685 -1.06778 -4.50725 0
M  V30 2889 C 297.42 -1.43314 -5.55201 0
M  V30 2890 N 296.916 -1.87204 -6.67028 0
M  V30 2891 N 298.709 -1.3504 -5.45638 0
M  V30 2892 H 290.86 -1.42214 -1.57762 0
M  V30 2893 H 293.123 -0.586921 -0.744465 0
M  V30 2894 H 292.829 -1.68187 -3.08879 0
M  V30 2895 H 292.703 -0.0702139 -3.77135 0
M  V30 2896 H 295.09 0.436277 -2.91857 0
M  V30 2897 H 295.171 -1.20299 -2.25747 0
M  V30 2898 H 294.815 -2.14318 -4.60467 0
M  V30 2899 H 294.745 -0.481773 -5.24392 0
M  V30 2900 H 297.236 -0.745643 -3.70471 0
M  V30 2901 H 297.549 -2.13282 -7.42786 0
M  V30 2902 H 295.894 -1.91142 -6.68199 0
M  V30 2903 H 299.085 -1.00607 -4.57161 0
M  V30 2904 H 299.258 -1.63841 -6.26945 0
M  V30 2905 N 292.664 1.56529 -0.183458 0
M  V30 2906 C 294.08 1.58664 0.172554 0
M  V30 2907 C 294.28 1.19925 1.61926 0
M  V30 2908 O 293.336 0.916534 2.35278 0
M  V30 2909 C 294.649 3.00463 -0.119262 0
M  V30 2910 C 296.197 3.12945 -0.0584396 0
M  V30 2911 C 296.672 4.56857 -0.323408 0
M  V30 2912 N 298.163 4.62403 -0.271612 0
M  V30 2913 C 298.898 5.71626 -0.450639 0
M  V30 2914 N 298.394 6.89362 -0.689384 0
M  V30 2915 N 300.187 5.60775 -0.385701 0
M  V30 2916 H 292.338 1.79994 -1.12765 0
M  V30 2917 H 294.601 0.834808 -0.449222 0
M  V30 2918 H 294.307 3.33326 -1.12192 0
M  V30 2919 H 294.181 3.72659 0.583544 0
M  V30 2920 H 296.568 2.79902 0.934805 0
M  V30 2921 H 296.649 2.4316 -0.794144 0
M  V30 2922 H 296.293 4.9061 -1.31392 0
M  V30 2923 H 296.223 5.24816 0.43305 0
M  V30 2924 H 298.714 3.77785 -0.0932256 0
M  V30 2925 H 299.027 7.68489 -0.815113 0
M  V30 2926 H 297.372 6.91196 -0.726142 0
M  V30 2927 H 300.563 4.67674 -0.199687 0
M  V30 2928 H 300.736 6.4584 -0.528646 0
M  V30 2929 N 294.142 -0.090211 1.57342 0
M  V30 2930 C 295.072 -1.10976 2.05443 0
M  V30 2931 C 296.053 -1.41482 0.944284 0
M  V30 2932 O 297.238 -1.51428 1.21586 0
M  V30 2933 C 294.368 -2.42831 2.48295 0
M  V30 2934 C 293.322 -2.26721 3.63018 0
M  V30 2935 C 292.648 -3.63796 3.91863 0
M  V30 2936 C 293.948 -1.7037 4.93732 0
M  V30 2937 H 295.642 -0.709564 2.9087 0
M  V30 2938 H 293.188 -0.339874 1.39932 0
M  V30 2939 H 295.141 -3.14431 2.80555 0
M  V30 2940 H 293.865 -2.84795 1.59873 0
M  V30 2941 H 292.524 -1.57565 3.31012 0
M  V30 2942 H 292.172 -4.03297 3.00601 0
M  V30 2943 H 291.872 -3.53861 4.69101 0
M  V30 2944 H 293.396 -4.36855 4.26603 0
M  V30 2945 H 294.81 -2.31816 5.24342 0
M  V30 2946 H 293.207 -1.71181 5.75167 0
M  V30 2947 H 294.277 -0.663542 4.80339 0
M  V30 2948 N 295.62 -1.53406 -0.361157 0
M  V30 2949 C 296.583 -1.79479 -1.42548 0
M  V30 2950 C 297.583 -0.665327 -1.4639 0
M  V30 2951 O 298.773 -0.933549 -1.47073 0
M  V30 2952 C 295.905 -1.92087 -2.8163 0
M  V30 2953 H 297.098 -2.74538 -1.20701 0
M  V30 2954 H 294.651 -1.4455 -0.594546 0
M  V30 2955 H 295.386 -0.991099 -3.08784 0
M  V30 2956 H 295.171 -2.74241 -2.80239 0
M  V30 2957 H 296.661 -2.13836 -3.58697 0
M  V30 2958 N 297.098 0.621204 -1.44841 0
M  V30 2959 C 298.347 1.37658 -1.47422 0
M  V30 2960 C 298.66 1.95264 -0.114629 0
M  V30 2961 O 299.866 2.71494 -0.0180199 0
M  V30 2962 C 298.322 2.49285 -2.59586 0
M  V30 2963 C 297.93 1.98149 -4.01797 0
M  V30 2964 C 299.674 3.26409 -2.71399 0
M  V30 2965 C 297.581 3.07178 -5.05367 0
M  V30 2966 H 296.511 0.517344 -0.548517 0
M  V30 2967 H 299.162 0.667257 -1.70938 0
M  V30 2968 H 297.544 3.22839 -2.29328 0
M  V30 2969 H 298.718 1.31395 -4.41669 0
M  V30 2970 H 297.033 1.33812 -3.94314 0
M  V30 2971 H 299.63 4.07706 -3.45948 0
M  V30 2972 H 299.973 3.76535 -1.77559 0
M  V30 2973 H 300.506 2.5995 -3.01116 0
M  V30 2974 H 297.245 2.61985 -6.00869 0
M  V30 2975 H 296.765 3.72542 -4.70077 0
M  V30 2976 H 298.444 3.71789 -5.29511 0
M  V30 2977 N 298.576 1.31904 0.862503 0
M  V30 2978 C 299.508 1.16005 1.97675 0
M  V30 2979 C 300.521 0.0971234 1.6251 0
M  V30 2980 O 301.71 0.345337 1.75128 0
M  V30 2981 C 298.81 0.751791 3.30456 0
M  V30 2982 C 297.983 1.90133 3.93914 0
M  V30 2983 C 297.042 1.4779 5.05019 0
M  V30 2984 O 296.068 2.18872 5.25437 0
M  V30 2985 N 297.27 0.369491 5.79323 0
M  V30 2986 H 300.035 2.11982 2.11857 0
M  V30 2987 H 297.596 1.24337 1.03691 0
M  V30 2988 H 299.588 0.451084 4.02178 0
M  V30 2989 H 298.158 -0.116593 3.12382 0
M  V30 2990 H 297.378 2.36896 3.15078 0
M  V30 2991 H 298.666 2.67111 4.33047 0
M  V30 2992 H 298.064 -0.222299 5.65263 0
M  V30 2993 H 296.621 0.128354 6.51674 0
M  V30 2994 N 300.054 -1.07777 1.14986 0
M  V30 2995 C 300.984 -2.16865 0.865557 0
M  V30 2996 C 301.965 -1.69123 -0.182083 0
M  V30 2997 O 303.15 -1.94164 -0.0373815 0
M  V30 2998 C 300.28 -3.45539 0.349313 0
M  V30 2999 C 299.234 -4.06708 1.33313 0
M  V30 3000 C 298.56 -5.30411 0.675918 0
M  V30 3001 C 299.86 -4.47241 2.69764 0
M  V30 3002 H 301.554 -2.40905 1.77778 0
M  V30 3003 H 299.1 -1.15781 0.856203 0
M  V30 3004 H 301.053 -4.21174 0.137983 0
M  V30 3005 H 299.777 -3.21072 -0.598362 0
M  V30 3006 H 298.436 -3.33112 1.53075 0
M  V30 3007 H 298.084 -5.02232 -0.277767 0
M  V30 3008 H 297.784 -5.72293 1.33244 0
M  V30 3009 H 299.308 -6.08755 0.474262 0
M  V30 3010 H 300.722 -5.14025 2.53873 0
M  V30 3011 H 299.119 -5.00062 3.3175 0
M  V30 3012 H 300.189 -3.58818 3.26156 0
M  V30 3013 N 301.532 -0.945985 -1.26051 0
M  V30 3014 C 302.78 -0.594941 -1.93145 0
M  V30 3015 C 303.101 0.86953 -1.7454 0
M  V30 3016 O 302.371 1.61838 -1.10387 0
M  V30 3017 H 300.951 -0.217044 -0.714773 0
M  V30 3018 H 303.613 -1.20235 -1.53393 0
M  V30 3019 H 302.709 -0.816835 -3.01221 0
M  V30 3020 N 303.011 1.40521 -0.713556 0
M  V30 3021 C 303.974 2.29098 -0.0684347 0
M  V30 3022 C 304.974 1.45268 0.689472 0
M  V30 3023 O 306.164 1.66205 0.521677 0
M  V30 3024 C 303.296 3.28446 0.913024 0
M  V30 3025 H 304.489 2.87645 -0.84855 0
M  V30 3026 H 302.042 1.48809 -0.47809 0
M  V30 3027 H 302.777 2.74913 1.72027 0
M  V30 3028 H 302.562 3.90327 0.372472 0
M  V30 3029 H 304.052 3.94777 1.36165 0
M  V30 3030 N 304.489 0.459591 1.5075 0
M  V30 3031 C 305.421 -0.37665 2.26084 0
M  V30 3032 C 306.434 -0.967109 1.30961 0
M  V30 3033 O 307.623 -0.857468 1.56556 0
M  V30 3034 C 304.723 -1.54112 3.01832 0
M  V30 3035 C 303.896 -1.06553 4.24223 0
M  V30 3036 C 302.955 -2.1027 4.82362 0
M  V30 3037 O 301.981 -1.68798 5.43595 0
M  V30 3038 N 303.183 -3.42974 4.68347 0
M  V30 3039 H 305.948 0.269124 2.98489 0
M  V30 3040 H 303.509 0.28972 1.59287 0
M  V30 3041 H 305.501 -2.23165 3.37608 0
M  V30 3042 H 304.071 -2.0918 2.32298 0
M  V30 3043 H 303.291 -0.201274 3.93686 0
M  V30 3044 H 304.579 -0.725516 5.03601 0
M  V30 3045 H 303.977 -3.79385 4.19623 0
M  V30 3046 H 302.534 -4.07858 5.08424 0
M  V30 3047 N 305.967 -1.56429 0.191757 0
M  V30 3048 C 306.93 -2.17707 -0.716688 0
M  V30 3049 C 307.93 -1.13061 -1.14341 0
M  V30 3050 O 309.12 -1.38464 -1.05704 0
M  V30 3051 C 306.252 -2.77644 -1.97804 0
M  V30 3052 H 307.445 -2.99342 -0.1829 0
M  V30 3053 H 304.998 -1.56193 -0.0578566 0
M  V30 3054 H 305.733 -1.99799 -2.55443 0
M  V30 3055 H 305.518 -3.54246 -1.68083 0
M  V30 3056 H 307.008 -3.24708 -2.62592 0
M  V30 3057 N 307.445 0.0818655 -1.57387 0
M  V30 3058 C 308.375 1.09885 -2.06028 0
M  V30 3059 C 309.356 1.4098 -0.951774 0
M  V30 3060 O 310.541 1.50781 -1.22387 0
M  V30 3061 C 307.671 2.4151 -2.4958 0
M  V30 3062 C 306.625 2.24792 -3.64215 0
M  V30 3063 C 305.951 3.61712 -3.93787 0
M  V30 3064 C 307.251 1.67749 -4.94629 0
M  V30 3065 H 308.945 0.694128 -2.91243 0
M  V30 3066 H 306.491 0.332448 -1.4011 0
M  V30 3067 H 308.444 3.12939 -2.82219 0
M  V30 3068 H 307.168 2.83943 -1.61381 0
M  V30 3069 H 305.827 1.55807 -3.31843 0
M  V30 3070 H 305.475 4.01697 -3.02735 0
M  V30 3071 H 305.175 3.51368 -4.70971 0
M  V30 3072 H 306.699 4.34587 -4.28913 0
M  V30 3073 H 308.113 2.29032 -5.25564 0
M  V30 3074 H 306.51 1.68128 -5.76067 0
M  V30 3075 H 307.58 0.638059 -4.80684 0
M  V30 3076 N 308.923 1.53595 0.353017 0
M  V30 3077 C 309.853 1.83902 1.43883 0
M  V30 3078 C 310.834 0.693421 1.55324 0
M  V30 3079 O 312.019 0.944452 1.69687 0
M  V30 3080 C 309.149 2.04016 2.8106 0
M  V30 3081 C 308.103 3.19814 2.84434 0
M  V30 3082 C 307.429 3.25244 4.24406 0
M  V30 3083 C 308.729 4.58133 2.50822 0
M  V30 3084 H 310.423 2.74835 1.1877 0
M  V30 3085 H 307.969 1.32242 0.569917 0
M  V30 3086 H 309.922 2.238 3.57059 0
M  V30 3087 H 308.646 1.09804 3.07588 0
M  V30 3088 H 307.305 2.9987 2.10887 0
M  V30 3089 H 306.953 2.28646 4.48029 0
M  V30 3090 H 306.653 4.03054 4.27576 0
M  V30 3091 H 308.177 3.47228 5.0226 0
M  V30 3092 H 309.591 4.77995 3.16534 0
M  V30 3093 H 307.988 5.38276 2.6529 0
M  V30 3094 H 309.058 4.62387 1.46034 0
M  V30 3095 N 310.401 -0.613514 1.45168 0
M  V30 3096 C 311.649 -1.36997 1.48581 0
M  V30 3097 C 311.97 -1.94589 0.126545 0
M  V30 3098 O 311.24 -1.76816 -0.843372 0
M  V30 3099 H 309.82 -0.508558 0.547154 0
M  V30 3100 H 312.482 -0.720853 1.81079 0
M  V30 3101 H 311.578 -2.1924 2.22127 0
M  V30 3102 N 311.879 -1.3236 -0.855495 0
M  V30 3103 C 312.842 -1.21164 -1.94556 0
M  V30 3104 C 313.842 -0.134908 -1.60233 0
M  V30 3105 O 315.032 -0.385249 -1.69887 0
M  V30 3106 C 312.164 -0.863192 -3.29791 0
M  V30 3107 H 313.357 -2.18038 -2.05911 0
M  V30 3108 H 310.91 -1.16179 -1.04557 0
M  V30 3109 H 311.645 0.103769 -3.24134 0
M  V30 3110 H 311.43 -1.64166 -3.56078 0
M  V30 3111 H 312.92 -0.809156 -4.09686 0
M  V30 3112 N 313.357 1.07166 -1.15556 0
M  V30 3113 C 314.32 2.12589 -0.856644 0
M  V30 3114 C 315.32 1.6015 0.14444 0
M  V30 3115 O 316.51 1.7399 -0.0854163 0
M  V30 3116 C 313.642 3.39753 -0.279405 0
M  V30 3117 H 314.835 2.40539 -1.79112 0
M  V30 3118 H 312.388 1.23086 -0.963298 0
M  V30 3119 H 313.123 3.17447 0.663174 0
M  V30 3120 H 312.908 3.79117 -1.00063 0
M  V30 3121 H 314.398 4.17507 -0.0879113 0
M  V30 3122 N 314.835 0.952656 1.25548 0
M  V30 3123 C 315.782 0.47008 2.25962 0
M  V30 3124 C 316.752 -0.476384 1.59122 0
M  V30 3125 O 317.937 -0.39007 1.8677 0
M  V30 3126 C 315.077 -0.247881 3.44209 0
M  V30 3127 C 314.19 0.735591 4.25691 0
M  V30 3128 C 313.325 -0.0047306 5.312 0
M  V30 3129 C 312.364 0.969805 6.04368 0
M  V30 3130 N 311.501 0.260486 7.01617 0
M  V30 3131 H 316.341 1.33126 2.66611 0
M  V30 3132 H 313.878 0.66765 1.31076 0
M  V30 3133 H 315.836 -0.680695 4.1161 0
M  V30 3134 H 314.466 -1.07312 3.0444 0
M  V30 3135 H 313.518 1.28689 3.57971 0
M  V30 3136 H 314.83 1.47934 4.76358 0
M  V30 3137 H 313.984 -0.496275 6.04667 0
M  V30 3138 H 312.723 -0.781282 4.81401 0
M  V30 3139 H 311.728 1.47237 5.29718 0
M  V30 3140 H 312.953 1.74655 6.56256 0
M  V30 3141 H 310.899 -0.497364 6.54112 0
M  V30 3142 H 310.816 0.943362 7.50091 0
M  V30 3143 H 312.084 -0.209587 7.79218 0
M  V30 3144 N 316.313 -1.40141 0.720998 0
M  V30 3145 C 317.246 -2.2819 0.020916 0
M  V30 3146 C 318.224 -1.43633 -0.762129 0
M  V30 3147 O 319.408 -1.7304 -0.747633 0
M  V30 3148 C 316.535 -3.24281 -0.977715 0
M  V30 3149 C 315.581 -4.25548 -0.284836 0
M  V30 3150 S 316.414 -5.26247 0.991169 0
M  V30 3151 C 317.57 -6.259 -0.0052214 0
M  V30 3152 H 317.803 -2.87218 0.767649 0
M  V30 3153 H 315.336 -1.45656 0.512233 0
M  V30 3154 H 317.294 -3.80167 -1.54865 0
M  V30 3155 H 315.955 -2.643 -1.69719 0
M  V30 3156 H 315.148 -4.93154 -1.03996 0
M  V30 3157 H 314.75 -3.73389 0.213684 0
M  V30 3158 H 317.042 -6.72143 -0.850279 0
M  V30 3159 H 317.985 -7.05224 0.637599 0
M  V30 3160 H 318.393 -5.63277 -0.371366 0
M  V30 3161 N 317.792 -0.46758 -1.50504 0
M  V30 3162 C 318.722 0.318381 -2.31319 0
M  V30 3163 C 319.703 0.993564 -1.38066 0
M  V30 3164 O 320.888 0.991411 -1.66987 0
M  V30 3165 C 318.018 1.40275 -3.17711 0
M  V30 3166 C 316.972 0.849373 -4.19487 0
M  V30 3167 C 316.298 2.03177 -4.94594 0
M  V30 3168 C 317.598 -0.136942 -5.2212 0
M  V30 3169 H 319.292 -0.356106 -2.97275 0
M  V30 3170 H 316.838 -0.172703 -1.42961 0
M  V30 3171 H 318.791 1.96004 -3.73042 0
M  V30 3172 H 317.515 2.10596 -2.49634 0
M  V30 3173 H 316.174 0.314076 -3.65252 0
M  V30 3174 H 315.822 2.72187 -4.22993 0
M  V30 3175 H 315.522 1.66774 -5.63436 0
M  V30 3176 H 317.046 2.59403 -5.52759 0
M  V30 3177 H 318.46 0.331056 -5.72343 0
M  V30 3178 H 316.857 -0.41507 -5.98663 0
M  V30 3179 H 317.927 -1.06398 -4.73083 0
M  V30 3180 N 319.27 1.56325 -0.20005 0
M  V30 3181 C 320.2 2.22318 0.713916 0
M  V30 3182 C 321.181 1.18788 1.21752 0
M  V30 3183 O 322.366 1.47309 1.26545 0
M  V30 3184 C 319.496 2.88639 1.93144 0
M  V30 3185 C 318.45 3.98457 1.56255 0
M  V30 3186 C 317.776 4.51967 2.85709 0
M  V30 3187 C 319.076 5.16612 0.768747 0
M  V30 3188 H 320.77 2.98952 0.163755 0
M  V30 3189 H 318.316 1.43792 0.0773219 0
M  V30 3190 H 320.269 3.33491 2.57608 0
M  V30 3191 H 318.993 2.09419 2.50621 0
M  V30 3192 H 317.652 3.54305 0.941471 0
M  V30 3193 H 317.3 3.69503 3.41287 0
M  V30 3194 H 317 5.26071 2.6177 0
M  V30 3195 H 318.524 4.99523 3.51154 0
M  V30 3196 H 319.938 5.57977 1.3166 0
M  V30 3197 H 318.335 5.96812 0.627286 0
M  V30 3198 H 319.405 4.84358 -0.229168 0
M  V30 3199 N 320.748 -0.0735177 1.57428 0
M  V30 3200 C 322.025 -0.805903 1.78226 0
M  V30 3201 C 322.405 -1.95874 0.787189 0
M  V30 3202 O 321.753 -2.2779 -0.180029 0
M  V30 3203 C 321.963 -1.28045 3.24662 0
M  V30 3204 C 323.311 -1.71453 3.88444 0
M  V30 3205 O 324.335 -1.37616 3.28543 0
M  V30 3206 O 323.194 -2.34093 4.93825 0
M  V30 3207 H 320.288 -0.386041 0.73137 0
M  V30 3208 H 322.834 -0.0537269 1.69615 0
M  V30 3209 H 321.606 -0.455476 3.8864 0
M  V30 3210 H 321.229 -2.094 3.37991 0
M  V30 3211 N 322.226 -1.5378 -0.344866 0
M  V30 3212 C 323.451 -1.75211 -1.10977 0
M  V30 3213 C 323.876 -0.48936 -1.81623 0
M  V30 3214 O 323.234 0.557925 -1.72502 0
M  V30 3215 C 323.282 -2.93147 -2.09993 0
M  V30 3216 O 322.386 -2.63203 -3.17487 0
M  V30 3217 H 321.727 -0.581241 -0.321021 0
M  V30 3218 H 324.257 -2.00738 -0.395661 0
M  V30 3219 H 324.267 -3.19898 -2.53237 0
M  V30 3220 H 322.942 -3.84731 -1.5797 0
M  V30 3221 H 321.519 -2.47336 -2.79069 0
M  V30 3222 N 323.704 0.605807 -1.45491 0
M  V30 3223 C 324.614 1.74466 -1.56839 0
M  V30 3224 C 325.63 1.68006 -0.452772 0
M  V30 3225 O 326.806 1.8833 -0.713708 0
M  V30 3226 C 323.871 3.10931 -1.53371 0
M  V30 3227 C 322.932 3.28832 -2.75986 0
M  V30 3228 C 322.165 4.58787 -2.72673 0
M  V30 3229 O 322.388 5.4122 -1.80102 0
M  V30 3230 O 321.322 4.79438 -3.63899 0
M  V30 3231 H 325.148 1.67843 -2.53106 0
M  V30 3232 H 322.733 0.770108 -1.28022 0
M  V30 3233 H 324.615 3.92233 -1.54051 0
M  V30 3234 H 323.29 3.18042 -0.602572 0
M  V30 3235 H 322.197 2.47112 -2.80867 0
M  V30 3236 H 323.53 3.26599 -3.68231 0
M  V30 3237 N 325.182 1.32811 0.848464 0
M  V30 3238 C 326.114 1.18095 1.96433 0
M  V30 3239 C 327.127 0.114354 1.62398 0
M  V30 3240 O 328.316 0.363892 1.74751 0
M  V30 3241 C 325.416 0.786798 3.2964 0
M  V30 3242 C 324.589 1.943 3.91875 0
M  V30 3243 C 323.648 1.53138 5.03423 0
M  V30 3244 O 322.674 2.24432 5.23086 0
M  V30 3245 N 323.876 0.430915 5.78898 0
M  V30 3246 H 326.641 2.14218 2.09597 0
M  V30 3247 H 324.202 1.2543 1.02367 0
M  V30 3248 H 326.194 0.493715 4.01677 0
M  V30 3249 H 324.764 -0.0834541 3.12489 0
M  V30 3250 H 323.984 2.40224 3.12547 0
M  V30 3251 H 325.272 2.71689 4.30189 0
M  V30 3252 H 324.67 -0.162333 5.65467 0
M  V30 3253 H 323.227 0.197466 6.51501 0
M  V30 3254 N 326.66 -1.06551 1.16123 0
M  V30 3255 C 327.61 -2.12209 0.833736 0
M  V30 3256 C 328.594 -1.59825 -0.185656 0
M  V30 3257 O 329.786 -1.76994 0.0147906 0
M  V30 3258 C 326.915 -3.41674 0.333697 0
M  V30 3259 C 326.001 -4.00892 1.38372 0
M  V30 3260 N 326.392 -4.34256 2.59337 0
M  V30 3261 C 324.69 -4.28463 1.23836 0
M  V30 3262 C 325.391 -4.81291 3.26701 0
M  V30 3263 N 324.367 -4.80565 2.54083 0
M  V30 3264 H 328.169 -2.35849 1.75364 0
M  V30 3265 H 325.683 -1.24068 1.04789 0
M  V30 3266 H 327.68 -4.16822 0.0806918 0
M  V30 3267 H 326.34 -3.19475 -0.58017 0
M  V30 3268 H 327.351 -4.24687 2.96415 0
M  V30 3269 H 324.028 -4.15721 0.38504 0
M  V30 3270 H 325.418 -5.16332 4.29943 0
M  V30 3271 N 328.138 -0.959301 -1.25041 0
M  V30 3272 C 329.549 -0.65667 -1.74771 0
M  V30 3273 C 329.9 0.827852 -1.77879 0
M  V30 3274 O 329.025 1.64783 -1.40269 0
M  V30 3275 C 329.62 -1.1853 -3.1739 0
M  V30 3276 C 328.179 -0.932734 -3.6466 0
M  V30 3277 C 327.326 -1.32558 -2.43564 0
M  V30 3278 H 330.277 -1.13558 -1.10862 0
M  V30 3279 H 330.298 -0.547582 -3.76539 0
M  V30 3280 H 329.81 -2.26576 -3.15095 0
M  V30 3281 H 327.911 0.13257 -3.72364 0
M  V30 3282 H 328.024 -1.57248 -4.52559 0
M  V30 3283 H 326.388 -0.743956 -2.43593 0
M  V30 3284 H 327.171 -2.41537 -2.43957 0
M  V30 3285 N 329.616 1.39756 -0.72842 0
M  V30 3286 C 330.856 2.025 -0.278078 0
M  V30 3287 C 331.22 1.5654 1.11173 0
M  V30 3288 O 332.421 2.11435 1.65978 0
M  V30 3289 C 330.692 3.55489 -0.369139 0
M  V30 3290 S 332.251 4.388 0.00232983 0
M  V30 3291 H 329.069 0.702534 -0.109391 0
M  V30 3292 H 331.671 1.70672 -0.95348 0
M  V30 3293 H 330.375 3.86429 -1.38204 0
M  V30 3294 H 329.906 3.92061 0.324308 0
M  V30 3295 H 331.921 4.80954 1.22055 0
M  V30 3296 N 331.094 0.475555 1.50254 0
M  V30 3297 C 332.026 -0.352649 2.26471 0
M  V30 3298 C 333.039 -0.953165 1.3198 0
M  V30 3299 O 334.228 -0.840815 1.57457 0
M  V30 3300 C 331.328 -1.50902 3.0345 0
M  V30 3301 C 330.501 -1.02047 4.25329 0
M  V30 3302 C 329.56 -2.05142 4.84565 0
M  V30 3303 O 328.586 -1.63023 5.45355 0
M  V30 3304 N 329.788 -3.37987 4.71959 0
M  V30 3305 H 332.553 0.300767 2.98187 0
M  V30 3306 H 330.114 0.306598 1.5897 0
M  V30 3307 H 332.106 -2.19572 3.39956 0
M  V30 3308 H 330.676 -2.06705 2.34504 0
M  V30 3309 H 329.896 -0.159507 3.93877 0
M  V30 3310 H 331.184 -0.672061 5.04342 0
M  V30 3311 H 330.582 -3.74913 4.23623 0
M  V30 3312 H 329.139 -4.02443 5.12721 0
M  V30 3313 N 332.573 -1.56217 0.208337 0
M  V30 3314 C 333.503 -2.22694 -0.702116 0
M  V30 3315 C 334.484 -1.19432 -1.2112 0
M  V30 3316 O 335.669 -1.47978 -1.25762 0
M  V30 3317 C 332.799 -2.8966 -1.9161 0
M  V30 3318 C 331.753 -3.9928 -1.5414 0
M  V30 3319 C 331.079 -4.53476 -2.83308 0
M  V30 3320 C 332.379 -5.17012 -0.741339 0
M  V30 3321 H 334.073 -2.99034 -0.147898 0
M  V30 3322 H 331.619 -1.43831 -0.0696951 0
M  V30 3323 H 333.572 -3.34852 -2.55836 0
M  V30 3324 H 332.296 -2.10746 -2.49507 0
M  V30 3325 H 330.955 -3.54799 -0.922668 0
M  V30 3326 H 330.603 -3.71308 -3.39322 0
M  V30 3327 H 330.303 -5.27451 -2.58976 0
M  V30 3328 H 331.827 -5.01378 -3.485 0
M  V30 3329 H 333.241 -5.58667 -1.28699 0
M  V30 3330 H 331.638 -5.97137 -0.595627 0
M  V30 3331 H 332.708 -4.8423 0.254851 0
M  V30 3332 N 334.051 0.0651679 -1.57465 0
M  V30 3333 C 334.998 1.07675 -2.04144 0
M  V30 3334 C 335.968 1.38071 -0.923335 0
M  V30 3335 O 337.153 1.49026 -1.19146 0
M  V30 3336 C 334.293 2.38337 -2.49579 0
M  V30 3337 C 333.406 2.14413 -3.75035 0
M  V30 3338 C 332.541 3.38686 -4.09225 0
M  V30 3339 C 331.58 3.10156 -5.27702 0
M  V30 3340 N 330.717 4.26778 -5.57499 0
M  V30 3341 H 335.557 0.671716 -2.90331 0
M  V30 3342 H 333.094 0.3201 -1.43575 0
M  V30 3343 H 335.052 3.14632 -2.73975 0
M  V30 3344 H 333.682 2.7663 -1.6636 0
M  V30 3345 H 332.734 1.2878 -3.57939 0
M  V30 3346 H 334.046 1.89344 -4.61466 0
M  V30 3347 H 333.2 4.23373 -4.34558 0
M  V30 3348 H 331.939 3.66837 -3.21374 0
M  V30 3349 H 330.944 2.23866 -5.02159 0
M  V30 3350 H 332.169 2.8332 -6.17176 0
M  V30 3351 H 330.115 4.54948 -4.72608 0
M  V30 3352 H 330.032 4.05005 -6.38362 0
M  V30 3353 H 331.3 5.12443 -5.87386 0
M  V30 3354 N 335.529 1.53961 0.336706 0
M  V30 3355 C 336.806 1.62171 1.09361 0
M  V30 3356 C 337.186 0.447263 2.06307 0
M  V30 3357 O 336.534 -0.559802 2.21537 0
M  V30 3358 C 336.744 2.98565 1.80721 0
M  V30 3359 C 338.092 3.54157 2.34218 0
M  V30 3360 O 339.116 3.00784 1.90807 0
M  V30 3361 O 337.975 4.47528 3.13657 0
M  V30 3362 H 335.069 0.6562 0.503319 0
M  V30 3363 H 337.615 1.66307 0.33765 0
M  V30 3364 H 336.387 3.75482 1.10132 0
M  V30 3365 H 336.01 2.9805 2.63158 0
M  V30 3366 N 337.007 -0.598083 1.45811 0
M  V30 3367 C 337.955 -1.72932 1.55555 0
M  V30 3368 C 338.949 -1.63984 0.424921 0
M  V30 3369 O 340.155 -1.69663 0.601205 0
M  V30 3370 H 336.53 -0.571489 0.488779 0
M  V30 3371 H 338.501 -1.61842 2.50699 0
M  V30 3372 C 337.25 -3.11318 1.54843 0
M  V30 3373 H 336.573 -3.18867 2.41172 0
M  V30 3374 H 338.013 -3.90274 1.65717 0
M  V30 3375 C 336.472 -3.3578 0.274427 0
M  V30 3376 O 337.002 -3.9654 -0.641778 0
M  V30 3377 N 335.208 -2.90119 0.167139 0
M  V30 3378 H 334.755 -2.40855 0.913596 0
M  V30 3379 H 334.713 -3.0686 -0.684435 0
M  V30 3380 N 338.485 -1.33259 -0.841409 0
M  V30 3381 C 339.731 -1.24757 -1.59886 0
M  V30 3382 C 340.064 0.186913 -1.93298 0
M  V30 3383 O 339.339 1.12757 -1.5848 0
M  V30 3384 C 339.622 -2.12036 -2.91055 0
M  V30 3385 C 339.475 -3.63929 -2.6434 0
M  V30 3386 C 340.794 -1.9916 -3.92458 0
M  V30 3387 H 337.913 -0.454542 -0.580138 0
M  V30 3388 H 340.555 -1.63335 -0.970647 0
M  V30 3389 H 338.705 -1.79265 -3.44669 0
M  V30 3390 H 340.377 -4.06978 -2.17178 0
M  V30 3391 H 338.62 -3.85935 -1.98082 0
M  V30 3392 H 339.291 -4.20341 -3.57796 0
M  V30 3393 H 341.767 -2.27895 -3.48143 0
M  V30 3394 H 340.643 -2.62484 -4.82072 0
M  V30 3395 H 340.904 -0.963082 -4.31482 0
M  V30 3396 N 339.963 1.05934 -1.16686 0
M  V30 3397 C 341.203 1.80382 -0.961345 0
M  V30 3398 C 341.567 1.85331 0.501643 0
M  V30 3399 O 342.768 2.55795 0.825986 0
M  V30 3400 C 341.039 3.20777 -1.57596 0
M  V30 3401 S 342.598 4.11795 -1.51559 0
M  V30 3402 H 339.416 0.621332 -0.345641 0
M  V30 3403 H 342.018 1.27157 -1.48497 0
M  V30 3404 H 340.722 3.14773 -2.63337 0
M  V30 3405 H 340.253 3.79078 -1.05182 0
M  V30 3406 H 342.268 4.93485 -0.518374 0
M  V30 3407 N 341.441 0.965919 1.2453 0
M  V30 3408 C 342.666 0.643971 1.97149 0
M  V30 3409 C 343.091 -0.779487 1.71189 0
M  V30 3410 O 342.449 -1.5288 0.974553 0
M  V30 3411 C 342.497 0.922557 3.48599 0
M  V30 3412 O 341.601 0.00707672 4.12399 0
M  V30 3413 H 340.942 0.243647 0.617683 0
M  V30 3414 H 343.472 1.29558 1.58353 0
M  V30 3415 H 343.482 0.853373 3.98976 0
M  V30 3416 H 342.157 1.95996 3.66822 0
M  V30 3417 H 340.734 0.12943 3.72675 0
M  V30 3418 N 342.919 -1.39368 0.735821 0
M  V30 3419 C 344.33 -1.83313 0.354015 0
M  V30 3420 C 344.681 -1.61461 -1.11466 0
M  V30 3421 O 343.806 -1.10621 -1.85989 0
M  V30 3422 C 344.401 -3.32781 0.635769 0
M  V30 3423 C 342.96 -3.75142 0.307448 0
M  V30 3424 C 342.107 -2.62358 0.897974 0
M  V30 3425 H 345.058 -1.28349 0.933398 0
M  V30 3426 H 345.079 -3.80388 -0.0921773 0
M  V30 3427 H 344.591 -3.48654 1.70476 0
M  V30 3428 H 342.692 -3.64857 -0.755674 0
M  V30 3429 H 342.805 -4.72532 0.790583 0
M  V30 3430 H 341.169 -2.52624 0.324551 0
M  V30 3431 H 341.952 -2.81036 1.97164 0
M  V30 3432 N 344.397 -0.483516 -1.5 0
M  V30 3433 C 345.645 0.067027 -2.01989 0
M  V30 3434 C 345.966 1.3909 -1.36671 0
M  V30 3435 O 345.236 1.88978 -0.516152 0
M  V30 3436 H 343.816 0.0277606 -0.746484 0
M  V30 3437 H 346.478 -0.636773 -1.84204 0
M  V30 3438 H 345.574 0.209484 -3.11396 0
M  V30 3439 N 345.875 1.56104 -0.216619 0
M  V30 3440 C 347.123 1.97781 0.415593 0
M  V30 3441 C 347.444 1.10536 1.60645 0
M  V30 3442 O 346.714 0.181303 1.95059 0
M  V30 3443 H 345.294 0.730415 0.156534 0
M  V30 3444 H 347.956 1.92445 -0.308366 0
M  V30 3445 H 347.052 3.03072 0.74525 0
M  V30 3446 N 347.353 -0.0568162 1.57498 0
M  V30 3447 C 348.316 -1.05038 2.03715 0
M  V30 3448 C 349.316 -1.30709 0.936577 0
M  V30 3449 O 350.506 -1.26178 1.20103 0
M  V30 3450 C 347.638 -2.39034 2.43055 0
M  V30 3451 H 348.831 -0.651715 2.92733 0
M  V30 3452 H 346.384 -0.302947 1.53336 0
M  V30 3453 H 347.119 -2.83703 1.57108 0
M  V30 3454 H 346.904 -2.21739 3.2338 0
M  V30 3455 H 348.394 -3.10421 2.79336 0
M  V30 3456 N 348.832 -1.54138 -0.328536 0
M  V30 3457 C 350.06 -1.76062 -1.08673 0
M  V30 3458 C 350.475 -0.506852 -1.81869 0
M  V30 3459 O 349.832 0.522223 -1.74869 0
M  V30 3460 C 349.883 -2.95054 -2.08866 0
M  V30 3461 O 349.604 -4.15583 -1.38644 0
M  V30 3462 C 351.105 -3.2915 -2.96943 0
M  V30 3463 H 348.325 -0.587889 -0.323461 0
M  V30 3464 H 350.869 -2.0101 -0.376175 0
M  V30 3465 H 349.024 -2.72394 -2.75464 0
M  V30 3466 H 349.438 -4.82481 -2.05699 0
M  V30 3467 H 350.912 -4.15723 -3.63151 0
M  V30 3468 H 351.389 -2.461 -3.63774 0
M  V30 3469 H 351.995 -3.53871 -2.35914 0
M  V30 3470 N 350.31 0.590341 -1.46126 0
M  V30 3471 C 351.559 1.34499 -1.50309 0
M  V30 3472 C 351.872 1.94977 -0.156021 0
M  V30 3473 O 353.078 2.71395 -0.0756037 0
M  V30 3474 C 351.534 2.43723 -2.64815 0
M  V30 3475 C 351.142 1.89582 -4.0591 0
M  V30 3476 C 352.886 3.20579 -2.78262 0
M  V30 3477 C 350.793 2.9639 -5.11769 0
M  V30 3478 H 349.723 0.505593 -0.559368 0
M  V30 3479 H 352.374 0.630848 -1.72315 0
M  V30 3480 H 350.756 3.17902 -2.36124 0
M  V30 3481 H 351.93 1.21997 -4.44357 0
M  V30 3482 H 350.245 1.25418 -3.97063 0
M  V30 3483 H 352.842 4.00276 -3.54519 0
M  V30 3484 H 353.185 3.72684 -1.85505 0
M  V30 3485 H 353.718 2.53505 -3.06562 0
M  V30 3486 H 350.457 2.49181 -6.06291 0
M  V30 3487 H 349.977 3.62487 -4.77873 0
M  V30 3488 H 351.656 3.60474 -5.37278 0
M  V30 3489 N 351.788 1.33704 0.83433 0
M  V30 3490 C 352.738 1.20899 1.93306 0
M  V30 3491 C 353.722 0.110783 1.60518 0
M  V30 3492 O 354.914 0.339331 1.73717 0
M  V30 3493 C 352.043 0.955018 3.29749 0
M  V30 3494 C 351.129 2.09587 3.68692 0
M  V30 3495 N 351.52 3.34621 3.79292 0
M  V30 3496 C 349.818 2.00358 3.98463 0
M  V30 3497 C 350.519 4.09472 4.13167 0
M  V30 3498 N 349.495 3.37954 4.25779 0
M  V30 3499 H 353.297 2.15665 1.99664 0
M  V30 3500 H 350.811 1.25777 1.02732 0
M  V30 3501 H 352.808 0.844208 4.08263 0
M  V30 3502 H 351.468 0.0159317 3.24696 0
M  V30 3503 H 352.479 3.69313 3.63082 0
M  V30 3504 H 349.156 1.14137 4.01596 0
M  V30 3505 H 350.546 5.17391 4.28668 0
M  V30 3506 N 353.266 -1.05314 1.17247 0
M  V30 3507 C 354.229 -2.112 0.890357 0
M  V30 3508 C 355.229 -1.60359 -0.118943 0
M  V30 3509 O 356.419 -1.73833 0.113086 0
M  V30 3510 C 353.551 -3.39266 0.333422 0
M  V30 3511 H 354.744 -2.37659 1.82916 0
M  V30 3512 H 352.297 -1.21538 0.982758 0
M  V30 3513 H 353.032 -3.18462 -0.612587 0
M  V30 3514 H 352.817 -3.77477 1.06082 0
M  V30 3515 H 354.307 -4.17315 0.154322 0
M  V30 3516 N 354.744 -0.972509 -1.24016 0
M  V30 3517 C 355.674 -0.525548 -2.27509 0
M  V30 3518 C 356.655 0.437262 -1.64384 0
M  V30 3519 O 357.84 0.332343 -1.91335 0
M  V30 3520 C 354.97 0.180448 -3.46831 0
M  V30 3521 C 353.924 -0.698859 -4.22256 0
M  V30 3522 C 353.25 0.138903 -5.3452 0
M  V30 3523 C 354.55 -1.98582 -4.83076 0
M  V30 3524 H 356.244 -1.39058 -2.65148 0
M  V30 3525 H 353.79 -0.67009 -1.27459 0
M  V30 3526 H 355.743 0.504387 -4.18371 0
M  V30 3527 H 354.467 1.07987 -3.08231 0
M  V30 3528 H 353.126 -1.00614 -3.52523 0
M  V30 3529 H 352.774 1.03862 -4.9216 0
M  V30 3530 H 352.474 -0.446259 -5.85903 0
M  V30 3531 H 353.998 0.457404 -6.08884 0
M  V30 3532 H 355.412 -1.72715 -5.46665 0
M  V30 3533 H 353.809 -2.5181 -5.44713 0
M  V30 3534 H 354.879 -2.67769 -4.04262 0
M  V30 3535 N 356.222 1.38976 -0.743202 0
M  V30 3536 C 357.172 2.27843 -0.084513 0
M  V30 3537 C 358.156 1.44677 0.704094 0
M  V30 3538 O 359.348 1.67511 0.571755 0
M  V30 3539 C 356.477 3.33466 0.815781 0
M  V30 3540 C 355.563 4.24095 0.0208844 0
M  V30 3541 N 355.954 4.95609 -1.0102 0
M  V30 3542 C 354.252 4.45303 0.249293 0
M  V30 3543 C 354.953 5.62287 -1.49024 0
M  V30 3544 N 353.929 5.37571 -0.807377 0
M  V30 3545 H 357.731 2.80593 -0.87436 0
M  V30 3546 H 355.245 1.51755 -0.578283 0
M  V30 3547 H 357.242 3.96008 1.30321 0
M  V30 3548 H 355.902 2.82276 1.6047 0
M  V30 3549 H 356.913 4.98849 -1.39176 0
M  V30 3550 H 353.59 4.0504 1.01237 0
M  V30 3551 H 354.98 6.29519 -2.34853 0
M  V30 3552 N 357.7 0.491464 1.49741 0
M  V30 3553 C 358.947 -0.0564256 2.02421 0
M  V30 3554 C 359.275 -1.37872 1.37192 0
M  V30 3555 O 358.53 -1.89375 0.493508 0
M  V30 3556 C 358.829 -0.267329 3.56399 0
M  V30 3557 C 358.495 0.975775 4.40215 0
M  V30 3558 C 357.157 1.31655 4.62839 0
M  V30 3559 C 359.509 1.80251 4.89039 0
M  V30 3560 C 356.837 2.48375 5.31532 0
M  V30 3561 C 359.189 2.96116 5.59015 0
M  V30 3562 C 357.853 3.30585 5.79888 0
M  V30 3563 H 357.123 -0.0206476 0.740712 0
M  V30 3564 H 359.77 0.649686 1.80143 0
M  V30 3565 H 358.075 -1.05588 3.77304 0
M  V30 3566 H 359.772 -0.705549 3.94744 0
M  V30 3567 H 356.362 0.700315 4.2284 0
M  V30 3568 H 360.546 1.55239 4.71396 0
M  V30 3569 H 355.802 2.7533 5.45897 0
M  V30 3570 H 359.976 3.60509 5.95824 0
M  V30 3571 H 357.603 4.21132 6.32892 0
M  V30 3572 N 359.178 -1.55987 0.224894 0
M  V30 3573 C 360.108 -2.23426 -0.678457 0
M  V30 3574 C 361.089 -1.20709 -1.19847 0
M  V30 3575 O 362.274 -1.49304 -1.24186 0
M  V30 3576 C 359.404 -2.91676 -1.88527 0
M  V30 3577 C 358.358 -4.00893 -1.49896 0
M  V30 3578 C 357.684 -4.56455 -2.78483 0
M  V30 3579 C 358.984 -5.17769 -0.686461 0
M  V30 3580 H 360.678 -2.99175 -0.116173 0
M  V30 3581 H 358.224 -1.43897 -0.054436 0
M  V30 3582 H 360.177 -3.37547 -2.5227 0
M  V30 3583 H 358.901 -2.1338 -2.47258 0
M  V30 3584 H 357.56 -3.55758 -0.884985 0
M  V30 3585 H 357.208 -3.74886 -3.35365 0
M  V30 3586 H 356.908 -5.30169 -2.53368 0
M  V30 3587 H 358.432 -5.05047 -3.43162 0
M  V30 3588 H 359.846 -5.60001 -1.22767 0
M  V30 3589 H 358.243 -5.97735 -0.532259 0
M  V30 3590 H 359.313 -4.83932 0.306196 0
M  V30 3591 N 360.656 0.0484629 -1.57525 0
M  V30 3592 C 361.566 1.07241 -2.08654 0
M  V30 3593 C 362.582 1.409 -1.02095 0
M  V30 3594 O 363.758 1.50609 -1.33712 0
M  V30 3595 C 360.823 2.36008 -2.5397 0
M  V30 3596 C 359.884 2.09108 -3.7493 0
M  V30 3597 C 359.117 3.31736 -4.18075 0
M  V30 3598 O 359.34 4.41714 -3.60895 0
M  V30 3599 O 358.274 3.18576 -5.10679 0
M  V30 3600 H 362.1 0.667965 -2.96263 0
M  V30 3601 H 359.685 0.26417 -1.47046 0
M  V30 3602 H 361.567 3.11747 -2.83535 0
M  V30 3603 H 360.242 2.75786 -1.69481 0
M  V30 3604 H 359.149 1.31 -3.50414 0
M  V30 3605 H 360.482 1.74198 -4.60343 0
M  V30 3606 N 362.134 1.5431 0.320358 0
M  V30 3607 C 363.359 1.76954 1.08175 0
M  V30 3608 C 363.784 0.518193 1.80821 0
M  V30 3609 O 363.142 -0.530411 1.73368 0
M  V30 3610 C 363.19 2.96451 2.05303 0
M  V30 3611 O 362.294 2.68221 3.13259 0
M  V30 3612 H 361.635 0.586275 0.311733 0
M  V30 3613 H 364.165 2.01342 0.363676 0
M  V30 3614 H 364.175 3.23887 2.48116 0
M  V30 3615 H 362.85 3.87196 1.51829 0
M  V30 3616 H 361.427 2.51744 2.75099 0
M  V30 3617 N 363.613 -0.582584 1.46437 0
M  V30 3618 C 364.861 -1.33814 1.51453 0
M  V30 3619 C 365.182 -1.94277 0.167792 0
M  V30 3620 O 364.452 -1.78566 -0.805677 0
M  V30 3621 H 363.032 -0.496838 0.557818 0
M  V30 3622 H 365.694 -0.682281 1.82568 0
M  V30 3623 H 364.79 -2.14479 2.26728 0
M  V30 3624 N 365.091 -1.34144 -0.827227 0
M  V30 3625 C 366.339 -1.26009 -1.58007 0
M  V30 3626 C 366.66 0.170971 -1.94249 0
M  V30 3627 O 365.93 1.10256 -1.61927 0
M  V30 3628 H 364.51 -0.463414 -0.585881 0
M  V30 3629 H 367.172 -1.68005 -0.987951 0
M  V30 3630 H 366.268 -1.86187 -2.50481 0
M  V30 3631 N 366.569 1.04691 -1.17803 0
M  V30 3632 C 367.816 1.77782 -0.969532 0
M  V30 3633 C 368.144 1.87926 0.501401 0
M  V30 3634 O 367.399 1.37918 1.38842 0
M  V30 3635 C 367.698 3.21467 -1.56186 0
M  V30 3636 C 367.364 3.3137 -3.05786 0
M  V30 3637 C 366.026 3.3378 -3.46619 0
M  V30 3638 C 368.378 3.31976 -4.01797 0
M  V30 3639 C 365.706 3.34431 -4.82051 0
M  V30 3640 C 368.058 3.34167 -5.37136 0
M  V30 3641 C 366.722 3.34866 -5.77426 0
M  V30 3642 H 365.992 0.650549 -0.354777 0
M  V30 3643 H 368.639 1.23006 -1.46772 0
M  V30 3644 H 366.944 3.79203 -0.985515 0
M  V30 3645 H 368.641 3.76652 -1.37602 0
M  V30 3646 H 365.231 3.3021 -2.73238 0
M  V30 3647 H 369.415 3.29311 -3.71306 0
M  V30 3648 H 364.671 3.33285 -5.12573 0
M  V30 3649 H 368.845 3.33585 -6.11305 0
M  V30 3650 H 366.472 3.35124 -6.82346 0
M  V30 3651 N 368.047 0.979072 1.23499 0
M  V30 3652 C 369.463 0.687475 1.44034 0
M  V30 3653 C 369.663 -0.746801 1.8715 0
M  V30 3654 O 368.719 -1.51939 2.0167 0
M  V30 3655 C 370.032 1.68127 2.49307 0
M  V30 3656 C 371.58 1.69516 2.63122 0
M  V30 3657 C 372.055 2.67723 3.71603 0
M  V30 3658 N 373.546 2.66233 3.79044 0
M  V30 3659 C 374.281 3.38891 4.62537 0
M  V30 3660 N 373.777 4.21103 5.50131 0
M  V30 3661 N 375.57 3.27661 4.56721 0
M  V30 3662 H 367.721 1.90559 0.938135 0
M  V30 3663 H 369.984 0.821051 0.473897 0
M  V30 3664 H 369.69 2.70693 2.2454 0
M  V30 3665 H 369.564 1.46306 3.4767 0
M  V30 3666 H 371.951 0.676561 2.8724 0
M  V30 3667 H 372.032 1.95404 1.65079 0
M  V30 3668 H 371.676 3.69724 3.48233 0
M  V30 3669 H 371.606 2.39111 4.69184 0
M  V30 3670 H 374.097 2.06568 3.16446 0
M  V30 3671 H 374.41 4.73403 6.10827 0
M  V30 3672 H 372.755 4.25195 5.49759 0
M  V30 3673 H 375.946 2.62887 3.87309 0
M  V30 3674 H 376.119 3.84547 5.21562 0
M  V30 3675 N 369.525 -1.3858 0.750561 0
M  V30 3676 C 370.75 -2.04997 0.314812 0
M  V30 3677 C 371.175 -1.56235 -1.04749 0
M  V30 3678 O 370.533 -0.712981 -1.66692 0
M  V30 3679 C 370.581 -3.58961 0.343415 0
M  V30 3680 O 369.685 -4.07025 -0.663628 0
M  V30 3681 H 369.026 -0.649081 0.139962 0
M  V30 3682 H 371.556 -1.77313 1.02084 0
M  V30 3683 H 371.566 -4.07542 0.193233 0
M  V30 3684 H 370.241 -3.93811 1.33738 0
M  V30 3685 H 368.818 -3.6982 -0.478307 0
M  V30 3686 N 371.003 -0.499398 -1.49478 0
M  V30 3687 C 371.933 0.269244 -2.31943 0
M  V30 3688 C 372.914 0.964054 -1.40143 0
M  V30 3689 O 374.099 0.955767 -1.69052 0
M  V30 3690 C 371.229 1.33504 -3.20615 0
M  V30 3691 C 370.183 0.760202 -4.21195 0
M  V30 3692 C 369.509 1.9264 -4.98792 0
M  V30 3693 C 370.809 -0.247661 -5.21712 0
M  V30 3694 H 372.503 -0.419082 -2.96452 0
M  V30 3695 H 370.049 -0.202988 -1.42562 0
M  V30 3696 H 372.002 1.88048 -3.77115 0
M  V30 3697 H 370.726 2.05253 -2.54045 0
M  V30 3698 H 369.385 0.23653 -3.65836 0
M  V30 3699 H 369.033 2.63154 -4.28671 0
M  V30 3700 H 368.733 1.54785 -5.66847 0
M  V30 3701 H 370.257 2.4762 -5.58137 0
M  V30 3702 H 371.671 0.209579 -5.72917 0
M  V30 3703 H 370.068 -0.541962 -5.97648 0
M  V30 3704 H 371.138 -1.16409 -4.7072 0
M  V30 3705 N 372.481 1.55866 -0.233164 0
M  V30 3706 C 373.411 2.23783 0.666599 0
M  V30 3707 C 374.392 1.21343 1.19205 0
M  V30 3708 O 375.577 1.4996 1.23392 0
M  V30 3709 C 372.707 2.92671 1.86978 0
M  V30 3710 C 371.661 4.01682 1.47768 0
M  V30 3711 C 370.987 4.57926 2.76058 0
M  V30 3712 C 372.287 5.18126 0.658993 0
M  V30 3713 H 373.981 2.99232 0.100306 0
M  V30 3714 H 371.527 1.43924 0.046804 0
M  V30 3715 H 373.48 3.3888 2.50476 0
M  V30 3716 H 372.204 2.14688 2.46123 0
M  V30 3717 H 370.863 3.56222 0.866106 0
M  V30 3718 H 370.511 3.76659 3.33372 0
M  V30 3719 H 370.211 5.31505 2.50552 0
M  V30 3720 H 371.735 5.06859 3.40479 0
M  V30 3721 H 373.149 5.60644 1.19795 0
M  V30 3722 H 371.546 5.98009 0.500552 0
M  V30 3723 H 372.616 4.83763 -0.331856 0
M  V30 3724 N 373.959 -0.0401083 1.57549 0
M  V30 3725 C 375.208 -0.732108 1.87944 0
M  V30 3726 C 375.521 -1.77107 0.830206 0
M  V30 3727 O 376.727 -2.51488 1.02302 0
M  V30 3728 C 375.183 -1.35315 3.33494 0
M  V30 3729 C 374.791 -0.351105 4.46622 0
M  V30 3730 C 376.535 -2.02566 3.73051 0
M  V30 3731 C 374.442 -0.979859 5.83226 0
M  V30 3732 H 373.372 -0.277188 0.701201 0
M  V30 3733 H 376.023 0.0138501 1.83495 0
M  V30 3734 H 374.405 -2.14844 3.32653 0
M  V30 3735 H 375.579 0.416674 4.58912 0
M  V30 3736 H 373.894 0.218708 4.15825 0
M  V30 3737 H 376.491 -2.50441 4.72423 0
M  V30 3738 H 376.834 -2.83904 3.04474 0
M  V30 3739 H 377.367 -1.29827 3.76018 0
M  V30 3740 H 374.106 -0.206135 6.55176 0
M  V30 3741 H 373.626 -1.71774 5.74677 0
M  V30 3742 H 375.305 -1.49046 6.29599 0
M  V30 3743 N 375.437 -1.54477 -0.31217 0
M  V30 3744 C 376.385 -1.85395 -1.40469 0
M  V30 3745 C 377.379 -0.726749 -1.53019 0
M  V30 3746 O 378.585 -0.910582 -1.55269 0
M  V30 3747 H 374.96 -0.587845 -0.46898 0
M  V30 3748 H 376.931 -2.76736 -1.11623 0
M  V30 3749 C 375.68 -2.10811 -2.76503 0
M  V30 3750 H 375.003 -2.97014 -2.67625 0
M  V30 3751 H 376.443 -2.3639 -3.51988 0
M  V30 3752 C 374.902 -0.903165 -3.24568 0
M  V30 3753 O 375.432 -0.118085 -4.01526 0
M  V30 3754 N 373.638 -0.711634 -2.81752 0
M  V30 3755 H 373.185 -1.35171 -2.19286 0
M  V30 3756 H 373.143 0.0930473 -3.14262 0
M  V30 3757 N 376.915 0.57481 -1.46744 0
M  V30 3758 C 377.878 1.66533 -1.57478 0
M  V30 3759 C 378.878 1.54338 -0.451263 0
M  V30 3760 O 380.068 1.58814 -0.715813 0
M  V30 3761 C 377.2 3.05999 -1.50259 0
M  V30 3762 H 378.393 1.58372 -2.54673 0
M  V30 3763 H 375.946 0.793301 -1.34672 0
M  V30 3764 H 376.681 3.19709 -0.543725 0
M  V30 3765 H 376.466 3.16259 -2.31781 0
M  V30 3766 H 377.956 3.8537 -1.60872 0
M  V30 3767 N 378.394 1.34581 0.820102 0
M  V30 3768 C 379.64 1.27285 1.57881 0
M  V30 3769 C 379.973 -0.156137 1.93571 0
M  V30 3770 O 379.248 -1.10222 1.60254 0
M  V30 3771 C 379.531 2.16639 2.87645 0
M  V30 3772 C 379.384 3.68088 2.58517 0
M  V30 3773 C 380.703 2.05378 3.8924 0
M  V30 3774 H 377.822 0.463714 0.572833 0
M  V30 3775 H 380.464 1.64859 0.944539 0
M  V30 3776 H 378.614 1.84725 3.41773 0
M  V30 3777 H 380.286 4.10382 2.10676 0
M  V30 3778 H 378.529 3.89038 1.91917 0
M  V30 3779 H 379.2 4.2598 3.51063 0
M  V30 3780 H 381.676 2.33404 3.44473 0
M  V30 3781 H 380.552 2.7012 4.77835 0
M  V30 3782 H 380.813 1.0316 4.29896 0
M  V30 3783 N 379.872 -1.04064 1.18357 0
M  V30 3784 C 380.782 -2.15569 0.925596 0
M  V30 3785 C 381.798 -1.7365 -0.110295 0
M  V30 3786 O 382.974 -2.01273 0.0716218 0
M  V30 3787 C 380.039 -3.43704 0.454836 0
M  V30 3788 C 379.1 -4.00004 1.55869 0
M  V30 3789 C 378.333 -5.22023 1.1103 0
M  V30 3790 O 378.556 -5.70392 -0.0309756 0
M  V30 3791 O 377.49 -5.70856 1.90805 0
M  V30 3792 H 381.316 -2.40187 1.8586 0
M  V30 3793 H 378.901 -1.1402 0.965394 0
M  V30 3794 H 380.783 -4.20923 0.200382 0
M  V30 3795 H 379.458 -3.20559 -0.449876 0
M  V30 3796 H 378.365 -3.24172 1.86716 0
M  V30 3797 H 379.698 -4.2749 2.43953 0
M  V30 3798 N 381.35 -0.985608 -1.22978 0
M  V30 3799 C 382.313 -0.535071 -2.22867 0
M  V30 3800 C 383.313 0.378123 -1.56291 0
M  V30 3801 O 384.503 0.171092 -1.73358 0
M  V30 3802 C 381.635 0.222702 -3.40172 0
M  V30 3803 H 382.828 -1.41835 -2.6424 0
M  V30 3804 H 380.381 -0.772042 -1.35901 0
M  V30 3805 H 381.116 1.12229 -3.04262 0
M  V30 3806 H 380.901 -0.43288 -3.89703 0
M  V30 3807 H 382.391 0.526335 -4.1427 0
M  V30 3808 N 382.828 1.3818 -0.7579 0
M  V30 3809 C 384.053 2.04827 -0.325679 0
M  V30 3810 C 384.478 1.56788 1.03919 0
M  V30 3811 O 383.836 0.721811 1.66312 0
M  V30 3812 C 383.884 3.58774 -0.362447 0
M  V30 3813 O 382.988 4.07372 0.642033 0
M  V30 3814 H 382.329 0.64833 -0.143402 0
M  V30 3815 H 384.859 1.7677 -1.03023 0
M  V30 3816 H 384.869 4.07434 -0.214844 0
M  V30 3817 H 383.544 3.93096 -1.35824 0
M  V30 3818 H 382.121 3.70068 0.458688 0
M  V30 3819 N 384.306 0.507319 1.49211 0
M  V30 3820 C 385.546 -0.0332372 2.04373 0
M  V30 3821 C 385.91 -1.33694 1.37804 0
M  V30 3822 O 387.111 -1.96213 1.83722 0
M  V30 3823 C 385.382 -0.17599 3.56966 0
M  V30 3824 S 386.941 -0.669882 4.33657 0
M  V30 3825 H 383.759 0.00123603 0.710999 0
M  V30 3826 H 386.361 0.682725 1.83191 0
M  V30 3827 H 385.065 0.778053 4.02957 0
M  V30 3828 H 384.596 -0.917005 3.82563 0
M  V30 3829 H 386.611 -1.93806 4.56786 0
M  V30 3830 N 385.784 -1.5574 0.241426 0
M  V30 3831 C 387.033 -1.97986 -0.385295 0
M  V30 3832 C 387.346 -1.13267 -1.59468 0
M  V30 3833 O 388.552 -1.45501 -2.2922 0
M  V30 3834 C 387.008 -3.52275 -0.736884 0
M  V30 3835 C 386.616 -4.45726 0.450796 0
M  V30 3836 C 388.36 -4.03189 -1.3281 0
M  V30 3837 C 386.267 -5.91352 0.0756662 0
M  V30 3838 H 385.197 -0.739386 -0.147731 0
M  V30 3839 H 387.848 -1.80308 0.340779 0
M  V30 3840 H 386.23 -3.65628 -1.52094 0
M  V30 3841 H 387.404 -4.44131 1.22819 0
M  V30 3842 H 385.719 -4.05264 0.956573 0
M  V30 3843 H 388.316 -5.09505 -1.62201 0
M  V30 3844 H 388.659 -3.50212 -2.25071 0
M  V30 3845 H 389.192 -3.93141 -0.607069 0
M  V30 3846 H 385.931 -6.48354 0.965272 0
M  V30 3847 H 385.451 -5.96095 -0.665635 0
M  V30 3848 H 387.13 -6.46084 -0.344075 0
M  V30 3849 N 387.262 0.0317525 -1.57568 0
M  V30 3850 C 388.678 0.38735 -1.54828 0
M  V30 3851 C 388.878 1.7677 -0.967187 0
M  V30 3852 O 387.934 2.45581 -0.587063 0
M  V30 3853 C 389.247 0.291667 -2.99282 0
M  V30 3854 C 390.795 0.368946 -3.10818 0
M  V30 3855 C 391.27 0.302741 -4.56998 0
M  V30 3856 N 392.761 0.361617 -4.61786 0
M  V30 3857 C 393.496 0.333238 -5.72431 0
M  V30 3858 N 392.992 0.257308 -6.92322 0
M  V30 3859 N 394.785 0.382769 -5.60795 0
M  V30 3860 H 386.936 -0.871609 -1.93692 0
M  V30 3861 H 389.199 -0.331161 -0.888277 0
M  V30 3862 H 388.905 -0.656794 -3.45513 0
M  V30 3863 H 388.779 1.08638 -3.61217 0
M  V30 3864 H 391.166 1.30784 -2.64536 0
M  V30 3865 H 391.247 -0.455066 -2.5172 0
M  V30 3866 H 390.891 -0.632473 -5.03947 0
M  V30 3867 H 390.821 1.14482 -5.14005 0
M  V30 3868 H 393.312 0.422923 -3.75526 0
M  V30 3869 H 393.625 0.24068 -7.72425 0
M  V30 3870 H 391.97 0.223396 -6.94641 0
M  V30 3871 H 395.161 0.44006 -4.66027 0
M  V30 3872 H 395.334 0.357184 -6.47015 0
M  V30 3873 N 388.74 1.54641 0.303973 0
M  V30 3874 C 389.968 1.77768 1.05858 0
M  V30 3875 C 390.383 0.535722 1.8104 0
M  V30 3876 O 389.74 -0.494337 1.75677 0
M  V30 3877 C 389.791 2.9834 2.04146 0
M  V30 3878 O 389.512 4.17736 1.32015 0
M  V30 3879 C 391.013 3.33832 2.91669 0
M  V30 3880 H 388.233 0.592961 0.314067 0
M  V30 3881 H 390.777 2.01583 0.344149 0
M  V30 3882 H 388.932 2.76742 2.71096 0
M  V30 3883 H 389.346 4.85693 1.97998 0
M  V30 3884 H 390.82 4.21448 3.56491 0
M  V30 3885 H 391.297 2.51857 3.59812 0
M  V30 3886 H 391.903 3.57579 2.30254 0
M  V30 3887 N 390.218 -0.567019 1.47046 0
M  V30 3888 C 391.634 -0.891975 1.32348 0
M  V30 3889 C 391.834 -1.99154 0.306616 0
M  V30 3890 O 390.89 -2.50883 -0.28532 0
M  V30 3891 C 392.203 -1.29449 2.7141 0
M  V30 3892 C 393.751 -1.40646 2.79621 0
M  V30 3893 C 394.226 -1.84257 4.19301 0
M  V30 3894 N 395.717 -1.91424 4.21795 0
M  V30 3895 C 396.452 -2.26476 5.26779 0
M  V30 3896 N 395.948 -2.60211 6.42077 0
M  V30 3897 N 397.741 -2.27166 5.14152 0
M  V30 3898 H 389.892 0.159074 2.11803 0
M  V30 3899 H 392.155 0.00849752 0.947962 0
M  V30 3900 H 391.861 -0.560448 3.47206 0
M  V30 3901 H 391.735 -2.25273 3.02542 0
M  V30 3902 H 394.122 -2.13133 2.04104 0
M  V30 3903 H 394.203 -0.430339 2.52154 0
M  V30 3904 H 393.847 -1.12343 4.95319 0
M  V30 3905 H 393.777 -2.82855 4.44185 0
M  V30 3906 H 396.268 -1.6778 3.38612 0
M  V30 3907 H 396.581 -2.85956 7.17948 0
M  V30 3908 H 394.926 -2.57813 6.45413 0
M  V30 3909 H 398.117 -2.00244 4.23107 0
M  V30 3910 H 398.29 -2.54154 5.96079 0
M  V30 3911 N 391.696 -1.35014 -0.812953 0
M  V30 3912 C 392.606 -1.2951 -1.95613 0
M  V30 3913 C 393.622 -0.20107 -1.72834 0
M  V30 3914 O 394.798 -0.42932 -1.96771 0
M  V30 3915 C 391.863 -1.06033 -3.30088 0
M  V30 3916 C 390.924 -2.24688 -3.65805 0
M  V30 3917 C 390.157 -2.02322 -4.93864 0
M  V30 3918 O 390.38 -0.986464 -5.61805 0
M  V30 3919 O 389.314 -2.89525 -5.27692 0
M  V30 3920 H 393.14 -2.25705 -2.03202 0
M  V30 3921 H 390.725 -1.15321 -0.949811 0
M  V30 3922 H 392.607 -0.94763 -4.10607 0
M  V30 3923 H 391.282 -0.128852 -3.23443 0
M  V30 3924 H 390.189 -2.41521 -2.85689 0
M  V30 3925 H 391.522 -3.16261 -3.77147 0
M  V30 3926 N 393.175 1.03435 -1.18907 0
M  V30 3927 C 394.105 2.13503 -0.945448 0
M  V30 3928 C 395.086 1.69682 0.119189 0
M  V30 3929 O 396.271 1.94169 -0.034707 0
M  V30 3930 C 393.401 3.44004 -0.477316 0
M  V30 3931 C 392.355 4.0148 -1.48316 0
M  V30 3932 C 391.681 5.27537 -0.872311 0
M  V30 3933 C 392.981 4.36921 -2.86177 0
M  V30 3934 H 394.675 2.34141 -1.86597 0
M  V30 3935 H 392.221 1.12523 -0.898584 0
M  V30 3936 H 394.174 4.20372 -0.294204 0
M  V30 3937 H 392.898 3.23072 0.478786 0
M  V30 3938 H 391.557 3.27201 -1.65332 0
M  V30 3939 H 391.205 5.02917 0.0911752 0
M  V30 3940 H 390.905 5.66954 -1.54393 0
M  V30 3941 H 392.429 6.06576 -0.699871 0
M  V30 3942 H 393.843 5.04248 -2.72776 0
M  V30 3943 H 392.24 4.87405 -3.50081 0
M  V30 3944 H 393.31 3.46466 -3.39248 0
M  V30 3945 N 394.653 0.992116 1.22453 0
M  V30 3946 C 395.585 0.500024 2.23679 0
M  V30 3947 C 396.598 -0.404463 1.57696 0
M  V30 3948 O 397.787 -0.206722 1.77299 0
M  V30 3949 C 394.887 -0.294711 3.37616 0
M  V30 3950 C 394.06 0.605723 4.33186 0
M  V30 3951 C 393.119 -0.13717 5.26021 0
M  V30 3952 O 392.145 0.477164 5.67196 0
M  V30 3953 N 393.347 -1.4197 5.62872 0
M  V30 3954 H 396.112 1.37045 2.66531 0
M  V30 3955 H 393.673 0.866741 1.36745 0
M  V30 3956 H 395.665 -0.800329 3.96707 0
M  V30 3957 H 394.235 -1.06623 2.93854 0
M  V30 3958 H 393.455 1.29202 3.72425 0
M  V30 3959 H 394.743 1.21896 4.93983 0
M  V30 3960 H 394.141 -1.94015 5.31389 0
M  V30 3961 H 392.698 -1.87052 6.24383 0
M  V30 3962 N 396.131 -1.37776 0.765217 0
M  V30 3963 C 397.356 -2.04651 0.336537 0
M  V30 3964 C 397.781 -1.57337 -1.03086 0
M  V30 3965 O 397.139 -0.730621 -1.65927 0
M  V30 3966 C 397.187 -3.58577 0.381468 0
M  V30 3967 O 396.291 -4.07706 -0.62042 0
M  V30 3968 H 395.632 -0.64756 0.146838 0
M  V30 3969 H 398.162 -1.76221 1.03959 0
M  V30 3970 H 398.172 -4.07314 0.236448 0
M  V30 3971 H 396.847 -3.9237 1.37907 0
M  V30 3972 H 395.424 -3.70306 -0.439056 0
M  V30 3973 N 397.609 -0.515225 -1.4894 0
M  V30 3974 C 398.542 0.302518 -2.26186 0
M  V30 3975 C 399.52 0.957895 -1.31389 0
M  V30 3976 O 400.704 0.985198 -1.60705 0
M  V30 3977 C 397.831 1.42719 -3.07163 0
M  V30 3978 C 396.877 0.884736 -4.17223 0
M  V30 3979 S 397.71 -0.235767 -5.34981 0
M  V30 3980 C 398.866 0.891731 -6.19515 0
M  V30 3981 H 399.099 -0.353076 -2.95196 0
M  V30 3982 H 396.632 -0.300753 -1.51443 0
M  V30 3983 H 398.59 2.07152 -3.54398 0
M  V30 3984 H 397.251 2.05445 -2.37595 0
M  V30 3985 H 396.444 1.72801 -4.73451 0
M  V30 3986 H 396.046 0.317362 -3.72651 0
M  V30 3987 H 398.338 1.79377 -6.53322 0
M  V30 3988 H 399.281 0.367751 -7.07144 0
M  V30 3989 H 399.689 1.16548 -5.52338 0
M  V30 3990 N 399.087 1.5561 -0.249682 0
M  V30 3991 C 400.05 2.20217 0.635394 0
M  V30 3992 C 401.05 1.17227 1.10066 0
M  V30 3993 O 402.24 1.42292 1.00492 0
M  V30 3994 C 399.372 2.84794 1.87363 0
M  V30 3995 H 400.565 2.99814 0.0716752 0
M  V30 3996 H 398.118 1.563 -0.000153234 0
M  V30 3997 H 398.853 2.09142 2.47851 0
M  V30 3998 H 398.638 3.60241 1.5482 0
M  V30 3999 H 400.128 3.3423 2.5036 0
M  V30 4000 N 400.565 -0.0233959 1.57583 0
M  V30 4001 C 401.842 -0.748794 1.807 0
M  V30 4002 C 402.222 -1.9327 0.849106 0
M  V30 4003 O 401.57 -2.28247 -0.107468 0
M  V30 4004 C 401.78 -1.17651 3.28571 0
M  V30 4005 C 403.128 -1.59008 3.93702 0
M  V30 4006 O 404.152 -1.27094 3.32755 0
M  V30 4007 O 403.011 -2.18264 5.01022 0
M  V30 4008 H 400.105 -0.362578 0.743281 0
M  V30 4009 H 402.651 0.000261958 1.697 0
M  V30 4010 H 401.423 -0.331603 3.89892 0
M  V30 4011 H 401.046 -1.98541 3.44481 0
M  V30 4012 N 402.043 -1.548 -0.295768 0
M  V30 4013 C 402.975 -1.82492 -1.3867 0
M  V30 4014 C 403.988 -0.708134 -1.46592 0
M  V30 4015 O 405.177 -0.985686 -1.48817 0
M  V30 4016 C 402.277 -1.95256 -2.76999 0
M  V30 4017 C 401.45 -3.25709 -2.91946 0
M  V30 4018 C 400.509 -3.28824 -4.10806 0
M  V30 4019 O 399.535 -4.02328 -4.02643 0
M  V30 4020 N 400.737 -2.5459 -5.21694 0
M  V30 4021 H 403.502 -2.76646 -1.15269 0
M  V30 4022 H 401.063 -1.54438 -0.485849 0
M  V30 4023 H 403.055 -1.94736 -3.54768 0
M  V30 4024 H 401.625 -1.08072 -2.93324 0
M  V30 4025 H 400.845 -3.38959 -2.01247 0
M  V30 4026 H 402.133 -4.11786 -2.98847 0
M  V30 4027 H 401.531 -1.94512 -5.31208 0
M  V30 4028 H 400.088 -2.59818 -5.97778 0
M  V30 4029 N 403.521 0.559213 -1.47345 0
M  V30 4030 C 404.431 1.69388 -1.62311 0
M  V30 4031 C 405.447 1.6648 -0.505993 0
M  V30 4032 O 406.623 1.85964 -0.773262 0
M  V30 4033 C 403.688 3.05894 -1.63185 0
M  V30 4034 C 402.749 3.19885 -2.86307 0
M  V30 4035 C 401.982 4.49879 -2.87131 0
M  V30 4036 O 402.205 5.35217 -1.97229 0
M  V30 4037 O 401.139 4.67618 -3.78968 0
M  V30 4038 H 404.965 1.59706 -2.58317 0
M  V30 4039 H 402.55 0.728989 -1.30407 0
M  V30 4040 H 404.432 3.87133 -1.66451 0
M  V30 4041 H 403.107 3.15964 -0.70345 0
M  V30 4042 H 402.014 2.38052 -2.88587 0
M  V30 4043 H 403.347 3.14718 -3.78435 0
M  V30 4044 N 404.999 1.35443 0.805782 0
M  V30 4045 C 405.946 1.28431 1.91766 0
M  V30 4046 C 406.916 0.156102 1.65365 0
M  V30 4047 O 408.101 0.339936 1.87747 0
M  V30 4048 C 405.241 1.06301 3.2832 0
M  V30 4049 C 404.354 2.2805 3.66902 0
M  V30 4050 C 403.489 1.99064 4.92491 0
M  V30 4051 C 402.528 3.16863 5.23703 0
M  V30 4052 N 401.665 2.87647 6.40471 0
M  V30 4053 H 406.505 2.23511 1.97096 0
M  V30 4054 H 404.042 1.11105 0.964054 0
M  V30 4055 H 406 0.915012 4.07042 0
M  V30 4056 H 404.63 0.148822 3.22457 0
M  V30 4057 H 403.682 2.53711 2.83434 0
M  V30 4058 H 404.994 3.1601 3.85927 0
M  V30 4059 H 404.148 1.81099 5.7904 0
M  V30 4060 H 402.887 1.0839 4.75503 0
M  V30 4061 H 401.892 3.35404 4.35642 0
M  V30 4062 H 403.117 4.08339 5.4262 0
M  V30 4063 H 401.063 1.99568 6.24907 0
M  V30 4064 H 400.98 3.69141 6.59751 0
M  V30 4065 H 402.248 2.73226 7.30047 0
M  V30 4066 N 406.477 -1.02803 1.19454 0
M  V30 4067 C 407.726 -1.7562 0.991996 0
M  V30 4068 C 408.039 -1.89672 -0.477901 0
M  V30 4069 O 409.245 -2.59468 -0.799287 0
M  V30 4070 C 407.701 -3.15812 1.72601 0
M  V30 4071 C 407.309 -3.0981 3.23607 0
M  V30 4072 C 409.053 -3.92918 1.60674 0
M  V30 4073 C 406.96 -4.44939 3.89594 0
M  V30 4074 H 405.89 -0.658352 0.367543 0
M  V30 4075 H 408.541 -1.15044 1.42959 0
M  V30 4076 H 406.923 -3.7686 1.21624 0
M  V30 4077 H 408.097 -2.58138 3.81709 0
M  V30 4078 H 406.412 -2.46201 3.35819 0
M  V30 4079 H 409.009 -4.9287 2.07323 0
M  V30 4080 H 409.352 -4.12502 0.561025 0
M  V30 4081 H 409.885 -3.38472 2.09001 0
M  V30 4082 H 406.624 -4.30559 4.94267 0
M  V30 4083 H 406.144 -4.96664 3.36281 0
M  V30 4084 H 407.823 -5.1382 3.93189 0
M  V30 4085 N 407.956 -0.998596 -1.21925 0
M  V30 4086 C 409.181 -0.696015 -1.95372 0
M  V30 4087 C 409.606 0.733826 -1.73195 0
M  V30 4088 O 408.964 1.50242 -1.01474 0
M  V30 4089 C 409.012 -1.01466 -3.4603 0
M  V30 4090 O 408.116 -0.116415 -4.12236 0
M  V30 4091 H 407.457 -0.259938 -0.611006 0
M  V30 4092 H 409.987 -1.33711 -1.54863 0
M  V30 4093 H 409.997 -0.958855 -3.96573 0
M  V30 4094 H 408.672 -2.05653 -3.61497 0
M  V30 4095 H 407.249 -0.228193 -3.72201 0
M  V30 4096 N 409.434 1.37368 -0.772513 0
M  V30 4097 C 410.845 1.8231 -0.402493 0
M  V30 4098 C 411.196 1.6436 1.07146 0
M  V30 4099 O 410.321 1.15514 1.82991 0
M  V30 4100 C 410.916 3.30979 -0.723776 0
M  V30 4101 C 409.475 3.74195 -0.406802 0
M  V30 4102 C 408.622 2.59885 -0.967218 0
M  V30 4103 H 411.573 1.25829 -0.967099 0
M  V30 4104 H 411.594 3.80499 -0.00870832 0
M  V30 4105 H 411.106 3.44011 -1.7966 0
M  V30 4106 H 409.207 3.66732 0.658673 0
M  V30 4107 H 409.32 4.7027 -0.915588 0
M  V30 4108 H 407.684 2.51674 -0.391416 0
M  V30 4109 H 408.467 2.7571 -2.04546 0
M  V30 4110 N 410.912 0.523116 1.48665 0
M  V30 4111 C 411.875 -0.232592 2.28017 0
M  V30 4112 C 412.875 -0.874021 1.34972 0
M  V30 4113 O 414.065 -0.735132 1.57929 0
M  V30 4114 C 411.197 -1.33586 3.13636 0
M  V30 4115 H 412.39 0.464008 2.96289 0
M  V30 4116 H 409.943 0.278816 1.53793 0
M  V30 4117 H 410.678 -2.06593 2.4998 0
M  V30 4118 H 410.463 -0.881125 3.82071 0
M  V30 4119 H 411.953 -1.86759 3.73511 0
M  V30 4120 N 412.39 -1.55475 0.257931 0
M  V30 4121 C 413.353 -2.20551 -0.623706 0
M  V30 4122 C 414.353 -1.17809 -1.09443 0
M  V30 4123 O 415.543 -1.42823 -0.997362 0
M  V30 4124 C 412.675 -2.85784 -1.8585 0
M  V30 4125 H 413.868 -2.99848 -0.0557743 0
M  V30 4126 H 411.421 -1.56298 0.0084422 0
M  V30 4127 H 412.156 -2.10453 -2.46739 0
M  V30 4128 H 411.941 -3.61057 -1.52907 0
M  V30 4129 H 413.431 -3.35553 -2.48584 0
M  V30 4130 N 413.868 0.0150385 -1.57593 0
M  V30 4131 C 414.798 1.01047 -2.10503 0
M  V30 4132 C 415.779 1.36816 -1.01071 0
M  V30 4133 O 416.964 1.45455 -1.28672 0
M  V30 4134 C 414.094 2.30708 -2.59598 0
M  V30 4135 C 413.048 2.09142 -3.73421 0
M  V30 4136 C 412.374 3.44685 -4.08774 0
M  V30 4137 C 413.674 1.46619 -5.01298 0
M  V30 4138 H 415.368 0.569978 -2.93925 0
M  V30 4139 H 412.914 0.272724 -1.41394 0
M  V30 4140 H 414.867 3.00687 -2.95238 0
M  V30 4141 H 413.591 2.76843 -1.73279 0
M  V30 4142 H 412.25 1.41592 -3.38153 0
M  V30 4143 H 411.898 3.88495 -3.195 0
M  V30 4144 H 411.598 3.31077 -4.8545 0
M  V30 4145 H 413.122 4.16004 -4.4696 0
M  V30 4146 H 414.536 2.06535 -5.34805 0
M  V30 4147 H 412.933 1.43544 -5.82679 0
M  V30 4148 H 414.003 0.433611 -4.82957 0
M  V30 4149 N 415.346 1.54954 0.287554 0
M  V30 4150 C 416.293 1.86834 1.35505 0
M  V30 4151 C 417.263 0.718452 1.49758 0
M  V30 4152 O 418.448 0.968358 1.644 0
M  V30 4153 C 415.588 2.13303 2.71286 0
M  V30 4154 C 414.701 3.40883 2.65373 0
M  V30 4155 C 413.836 3.57125 3.93236 0
M  V30 4156 C 412.875 4.78449 3.81776 0
M  V30 4157 N 412.012 4.91426 5.01443 0
M  V30 4158 H 416.852 2.77889 1.07619 0
M  V30 4159 H 414.389 1.37593 0.520241 0
M  V30 4160 H 416.347 2.26646 3.50267 0
M  V30 4161 H 414.977 1.25499 2.97405 0
M  V30 4162 H 414.029 3.36088 1.78182 0
M  V30 4163 H 415.341 4.29993 2.52799 0
M  V30 4164 H 414.495 3.70207 4.80658 0
M  V30 4165 H 413.234 2.66173 4.0866 0
M  V30 4166 H 412.239 4.65386 2.92738 0
M  V30 4167 H 413.464 5.70822 3.67884 0
M  V30 4168 H 411.41 4.03401 5.17304 0
M  V30 4169 H 411.327 5.74559 4.91343 0
M  V30 4170 H 412.595 5.08879 5.90477 0
M  V30 4171 N 416.824 -0.551391 1.4764 0
M  V30 4172 C 417.771 -1.65796 1.60563 0
M  V30 4173 C 418.741 -1.59932 0.448428 0
M  V30 4174 O 419.926 -1.78679 0.669222 0
M  V30 4175 C 417.066 -3.04108 1.63133 0
M  V30 4176 C 416.179 -3.20365 2.89811 0
M  V30 4177 C 415.314 -4.49109 2.8368 0
M  V30 4178 C 414.353 -4.58819 4.05156 0
M  V30 4179 N 413.49 -5.78926 3.97227 0
M  V30 4180 H 418.33 -1.54088 2.5507 0
M  V30 4181 H 415.867 -0.75052 1.26513 0
M  V30 4182 H 417.825 -3.84207 1.62606 0
M  V30 4183 H 416.455 -3.14637 0.721341 0
M  V30 4184 H 415.507 -2.33659 3.00179 0
M  V30 4185 H 416.819 -3.23402 3.79753 0
M  V30 4186 H 415.973 -5.37475 2.81434 0
M  V30 4187 H 414.712 -4.4856 1.91431 0
M  V30 4188 H 413.717 -3.68864 4.077 0
M  V30 4189 H 414.942 -4.61124 4.98539 0
M  V30 4190 H 412.888 -5.79314 3.07785 0
M  V30 4191 H 412.805 -5.83367 4.80853 0
M  V30 4192 H 414.073 -6.69637 3.99007 0
M  V30 4193 N 418.302 -1.35869 -0.798587 0
M  V30 4194 C 419.53 -1.32722 -1.58722 0
M  V30 4195 C 419.945 0.0935631 -1.88568 0
M  V30 4196 O 419.302 1.04784 -1.49421 0
M  V30 4197 C 419.353 -2.13974 -2.91371 0
M  V30 4198 O 419.074 -3.50514 -2.62815 0
M  V30 4199 C 420.575 -2.18504 -3.85708 0
M  V30 4200 H 417.795 -0.45562 -0.492596 0
M  V30 4201 H 420.339 -1.78837 -0.991843 0
M  V30 4202 H 418.494 -1.71438 -3.47402 0
M  V30 4203 H 418.908 -3.92806 -3.47568 0
M  V30 4204 H 420.382 -2.79732 -4.75872 0
M  V30 4205 H 420.859 -1.18597 -4.22885 0
M  V30 4206 H 421.465 -2.61236 -3.35612 0
M  V30 4207 N 419.78 1.02168 -1.19998 0
M  V30 4208 C 420.71 2.12488 -0.96804 0
M  V30 4209 C 421.691 1.69799 0.101185 0
M  V30 4210 O 422.876 1.94121 -0.0552993 0
M  V30 4211 C 420.006 3.43479 -0.513776 0
M  V30 4212 C 418.96 3.99884 -1.52566 0
M  V30 4213 C 418.286 5.26582 -0.928214 0
M  V30 4214 C 419.586 4.33861 -2.90795 0
M  V30 4215 H 421.28 2.32149 -1.89069 0
M  V30 4216 H 418.826 1.11564 -0.910468 0
M  V30 4217 H 420.779 4.20036 -0.338774 0
M  V30 4218 H 419.503 3.23561 0.444493 0
M  V30 4219 H 418.162 3.25429 -1.68794 0
M  V30 4220 H 417.81 5.02986 0.0378289 0
M  V30 4221 H 417.51 5.65284 -1.60397 0
M  V30 4222 H 419.034 6.05799 -0.764167 0
M  V30 4223 H 420.448 5.01327 -2.78109 0
M  V30 4224 H 418.845 4.83664 -3.55231 0
M  V30 4225 H 419.915 3.42848 -3.42904 0
M  V30 4226 N 421.258 1.00505 1.21394 0
M  V30 4227 C 422.188 0.585684 2.26035 0
M  V30 4228 C 423.169 -0.393525 1.65485 0
M  V30 4229 O 424.354 -0.281497 1.92149 0
M  V30 4230 C 421.484 -0.0884283 3.47187 0
M  V30 4231 C 420.438 0.810567 4.20254 0
M  V30 4232 C 419.764 0.00286382 5.347 0
M  V30 4233 C 421.064 2.1132 4.77641 0
M  V30 4234 H 422.758 1.46039 2.61368 0
M  V30 4235 H 420.304 0.703648 1.25638 0
M  V30 4236 H 422.257 -0.393286 4.19561 0
M  V30 4237 H 420.981 -0.997766 3.10986 0
M  V30 4238 H 419.64 1.09925 3.49731 0
M  V30 4239 H 419.288 -0.907765 4.94741 0
M  V30 4240 H 418.988 0.601444 5.84514 0
M  V30 4241 H 420.512 -0.295808 6.09883 0
M  V30 4242 H 421.926 1.87148 5.41893 0
M  V30 4243 H 420.323 2.66164 5.37845 0
M  V30 4244 H 421.393 2.78393 3.9702 0
M  V30 4245 N 422.737 -1.36956 0.779787 0
M  V30 4246 C 424.014 -1.93697 0.272156 0
M  V30 4247 C 424.394 -1.71267 -1.23413 0
M  V30 4248 O 423.742 -1.06607 -2.02107 0
M  V30 4249 C 423.952 -3.42812 0.654291 0
M  V30 4250 C 425.3 -4.19921 0.628602 0
M  V30 4251 O 426.324 -3.51209 0.594172 0
M  V30 4252 O 425.183 -5.42465 0.662864 0
M  V30 4253 H 422.277 -0.824447 0.0649286 0
M  V30 4254 H 424.823 -1.46196 0.861682 0
M  V30 4255 H 423.595 -3.52754 1.69353 0
M  V30 4256 H 423.218 -3.97582 0.0381369 0
M  V30 4257 N 424.215 -0.530993 -1.48385 0
M  V30 4258 C 425.631 -0.188919 -1.58478 0
M  V30 4259 C 425.831 1.30786 -1.53288 0
M  V30 4260 O 424.887 2.08619 -1.42248 0
M  V30 4261 C 426.2 -0.792343 -2.90073 0
M  V30 4262 C 427.748 -0.76117 -3.03604 0
M  V30 4263 C 428.223 -1.34319 -4.37861 0
M  V30 4264 N 429.714 -1.3052 -4.44431 0
M  V30 4265 C 430.449 -1.72543 -5.46824 0
M  V30 4266 N 429.945 -2.22299 -6.56167 0
M  V30 4267 N 431.738 -1.63773 -5.37712 0
M  V30 4268 H 423.889 -1.50377 -1.50002 0
M  V30 4269 H 426.152 -0.625559 -0.712306 0
M  V30 4270 H 425.858 -1.84323 -2.99529 0
M  V30 4271 H 425.732 -0.270026 -3.76232 0
M  V30 4272 H 428.119 0.280957 -2.93759 0
M  V30 4273 H 428.2 -1.32097 -2.19053 0
M  V30 4274 H 427.844 -2.38425 -4.4846 0
M  V30 4275 H 427.774 -0.759064 -5.21101 0
M  V30 4276 H 430.265 -0.940973 -3.65997 0
M  V30 4277 H 430.578 -2.52356 -7.30436 0
M  V30 4278 H 428.923 -2.26293 -6.57127 0
M  V30 4279 H 432.114 -1.24698 -4.51185 0
M  V30 4280 H 432.287 -1.96844 -6.17379 0
M  V30 4281 N 425.693 1.55336 -0.266172 0
M  V30 4282 C 426.939 1.99692 0.353681 0
M  V30 4283 C 427.272 1.1543 1.56172 0
M  V30 4284 O 426.547 0.222218 1.93226 0
M  V30 4285 C 426.83 3.52316 0.74466 0
M  V30 4286 C 426.683 4.47337 -0.470101 0
M  V30 4287 C 428.002 4.10588 1.58447 0
M  V30 4288 H 425.121 0.725961 0.12708 0
M  V30 4289 H 427.763 1.86336 -0.371333 0
M  V30 4290 H 425.913 3.63829 1.36239 0
M  V30 4291 H 427.585 4.4778 -1.10864 0
M  V30 4292 H 425.828 4.19364 -1.10978 0
M  V30 4293 H 426.499 5.51788 -0.15291 0
M  V30 4294 H 428.975 4.02297 1.06286 0
M  V30 4295 H 427.851 5.17607 1.82686 0
M  V30 4296 H 428.112 3.60253 2.56262 0
M  V30 4297 N 427.171 -0.0066808 1.57599 0
M  V30 4298 C 428.118 -1.00024 2.08 0
M  V30 4299 C 429.088 -1.34549 0.973943 0
M  V30 4300 O 430.273 -1.44502 1.24595 0
M  V30 4301 C 427.413 -2.2891 2.58252 0
M  V30 4302 C 426.526 -2.00346 3.82734 0
M  V30 4303 C 425.661 -3.23265 4.21513 0
M  V30 4304 C 424.7 -2.90357 5.3885 0
M  V30 4305 N 423.837 -4.05793 5.72954 0
M  V30 4306 H 428.677 -0.563499 2.92624 0
M  V30 4307 H 426.214 -0.266592 1.44664 0
M  V30 4308 H 428.172 -3.04247 2.85464 0
M  V30 4309 H 426.802 -2.70265 1.76512 0
M  V30 4310 H 425.854 -1.15406 3.62471 0
M  V30 4311 H 427.166 -1.72086 4.68175 0
M  V30 4312 H 426.32 -4.06953 4.49971 0
M  V30 4313 H 425.059 -3.54657 3.34768 0
M  V30 4314 H 424.064 -2.05075 5.10122 0
M  V30 4315 H 425.289 -2.60219 6.27266 0
M  V30 4316 H 423.235 -4.37094 4.89167 0
M  V30 4317 H 423.152 -3.81034 6.52954 0
M  V30 4318 H 424.42 -4.90289 6.06001 0
M  V30 4319 N 428.649 -1.55105 -0.279332 0
M  V30 4320 C 429.579 -1.90557 -1.34945 0
M  V30 4321 C 430.56 -0.766738 -1.51839 0
M  V30 4322 O 431.745 -1.02434 -1.64988 0
M  V30 4323 C 428.875 -2.17193 -2.71006 0
M  V30 4324 C 427.829 -3.33021 -2.68851 0
M  V30 4325 C 427.155 -3.45123 -4.08405 0
M  V30 4326 C 428.455 -4.69578 -2.28678 0
M  V30 4327 H 430.149 -2.80188 -1.05522 0
M  V30 4328 H 427.695 -1.34811 -0.506173 0
M  V30 4329 H 429.648 -2.40581 -3.45975 0
M  V30 4330 H 428.372 -1.24355 -3.01999 0
M  V30 4331 H 427.031 -3.0959 -1.9634 0
M  V30 4332 H 426.679 -2.49762 -4.3661 0
M  V30 4333 H 426.379 -4.22995 -4.07859 0
M  V30 4334 H 427.903 -3.70796 -4.85121 0
M  V30 4335 H 429.317 -4.92553 -2.93368 0
M  V30 4336 H 427.714 -5.5032 -2.39306 0
M  V30 4337 H 428.784 -4.68828 -1.23807 0
M  V30 4338 N 430.127 0.543554 -1.4793 0
M  V30 4339 C 431.037 1.67657 -1.64098 0
M  V30 4340 C 432.053 1.65934 -0.523622 0
M  V30 4341 O 433.229 1.85133 -0.792943 0
M  V30 4342 C 430.294 3.04146 -1.66421 0
M  V30 4343 C 429.355 3.16831 -2.89684 0
M  V30 4344 C 428.588 4.46809 -2.91886 0
M  V30 4345 O 428.811 5.33095 -2.02895 0
M  V30 4346 O 427.745 4.63573 -3.83906 0
M  V30 4347 H 431.571 1.56957 -2.59997 0
M  V30 4348 H 429.156 0.715116 -1.31173 0
M  V30 4349 H 431.038 3.85346 -1.70548 0
M  V30 4350 H 429.713 3.152 -0.736923 0
M  V30 4351 H 428.62 2.34977 -2.91095 0
M  V30 4352 H 429.953 3.10687 -3.81752 0
M  V30 4353 N 431.605 1.3629 0.791371 0
M  V30 4354 C 432.83 1.33726 1.58531 0
M  V30 4355 C 433.255 -0.0794933 1.87932 0
M  V30 4356 O 432.613 -1.05087 1.47738 0
M  V30 4357 C 432.661 2.16425 2.88431 0
M  V30 4358 O 431.765 1.5554 3.81944 0
M  V30 4359 H 431.106 0.457793 0.480959 0
M  V30 4360 H 433.636 1.79547 0.981031 0
M  V30 4361 H 433.646 2.28933 3.37718 0
M  V30 4362 H 432.321 3.19415 2.66359 0
M  V30 4363 H 430.898 1.51961 3.40532 0
M  V30 4364 N 433.083 -1.0153 1.20538 0
M  V30 4365 C 434.494 -1.56598 1.01657 0
M  V30 4366 C 434.845 -1.91505 -0.426668 0
M  V30 4367 O 433.97 -1.72375 -1.30827 0
M  V30 4368 C 434.565 -2.84542 1.83905 0
M  V30 4369 C 433.124 -3.36133 1.69386 0
M  V30 4370 C 432.271 -2.09427 1.81757 0
M  V30 4371 H 435.222 -0.838974 1.34711 0
M  V30 4372 H 435.243 -3.56004 1.34319 0
M  V30 4373 H 434.755 -2.59105 2.8894 0
M  V30 4374 H 432.856 -3.66528 0.669933 0
M  V30 4375 H 432.969 -4.08248 2.50739 0
M  V30 4376 H 431.333 -2.21941 1.24957 0
M  V30 4377 H 432.116 -1.86414 2.88279 0
M  V30 4378 N 434.561 -1.01147 -1.20859 0
M  V30 4379 C 435.789 -0.716911 -1.94082 0
M  V30 4380 C 436.204 0.721568 -1.74467 0
M  V30 4381 O 435.561 1.48889 -1.05539 0
M  V30 4382 C 435.612 -1.03662 -3.46318 0
M  V30 4383 O 435.333 -2.4186 -3.65288 0
M  V30 4384 C 436.834 -0.762386 -4.36695 0
M  V30 4385 H 434.054 -0.26367 -0.617024 0
M  V30 4386 H 436.598 -1.35127 -1.53496 0
M  V30 4387 H 434.753 -0.447757 -3.84804 0
M  V30 4388 H 435.167 -2.53224 -4.59323 0
M  V30 4389 H 436.641 -1.03621 -5.42187 0
M  V30 4390 H 437.118 0.303514 -4.3815 0
M  V30 4391 H 437.724 -1.33316 -4.03865 0
M  V30 4392 N 436.039 1.36541 -0.78704 0
M  V30 4393 C 437.285 1.99599 -0.358872 0
M  V30 4394 C 437.618 1.62323 1.06606 0
M  V30 4395 O 436.893 0.876858 1.73613 0
M  V30 4396 C 437.176 3.56327 -0.519944 0
M  V30 4397 C 437.029 4.03464 -1.98839 0
M  V30 4398 C 438.348 4.4005 0.0664737 0
M  V30 4399 H 435.467 0.725107 -0.131869 0
M  V30 4400 H 438.109 1.6199 -0.992936 0
M  V30 4401 H 436.259 3.88495 0.0198321 0
M  V30 4402 H 437.931 3.81793 -2.58905 0
M  V30 4403 H 436.174 3.55092 -2.49183 0
M  V30 4404 H 436.845 5.12439 -2.05207 0
M  V30 4405 H 439.321 4.14228 -0.394267 0
M  V30 4406 H 438.197 5.48847 -0.0762682 0
M  V30 4407 H 438.458 4.26655 1.15835 0
M  V30 4408 N 437.518 0.538854 1.48102 0
M  V30 4409 C 438.743 0.0102694 2.07397 0
M  V30 4410 C 439.168 -1.26562 1.39153 0
M  V30 4411 O 438.526 -1.75357 0.460387 0
M  V30 4412 C 438.574 -0.187602 3.60112 0
M  V30 4413 O 437.678 -1.25432 3.92862 0
M  V30 4414 H 437.019 0.0430975 0.6626 0
M  V30 4415 H 439.549 0.749301 1.90385 0
M  V30 4416 H 439.559 -0.407517 4.0596 0
M  V30 4417 H 438.234 0.744386 4.09184 0
M  V30 4418 H 436.811 -1.01636 3.58782 0
M  V30 4419 N 438.996 -1.55193 0.274407 0
M  V30 4420 C 440.224 -2.03987 -0.345943 0
M  V30 4421 C 440.639 -1.15279 -1.4952 0
M  V30 4422 O 439.996 -0.172759 -1.8168 0
M  V30 4423 C 440.047 -3.51898 -0.827631 0
M  V30 4424 O 439.768 -4.37231 0.275855 0
M  V30 4425 C 441.269 -4.16577 -1.51587 0
M  V30 4426 H 438.489 -0.666335 -0.0789892 0
M  V30 4427 H 441.033 -2.00423 0.406294 0
M  V30 4428 H 439.188 -3.55909 -1.52996 0
M  V30 4429 H 439.602 -5.24415 -0.0943638 0
M  V30 4430 H 441.076 -5.21678 -1.80433 0
M  V30 4431 H 441.553 -3.64707 -2.44716 0
M  V30 4432 H 442.159 -4.16568 -0.857409 0
M  V30 4433 N 440.474 -0.00167713 -1.576 0
M  V30 4434 C 441.404 0.988091 -2.11563 0
M  V30 4435 C 442.385 1.35736 -1.02517 0
M  V30 4436 O 443.57 1.44082 -1.30208 0
M  V30 4437 C 440.7 2.27941 -2.62031 0
M  V30 4438 C 439.654 2.0517 -3.75619 0
M  V30 4439 C 438.98 3.4033 -4.12407 0
M  V30 4440 C 440.28 1.41294 -5.02825 0
M  V30 4441 H 441.974 0.538771 -2.94513 0
M  V30 4442 H 439.52 0.257712 -1.41675 0
M  V30 4443 H 441.473 2.97539 -2.9841 0
M  V30 4444 H 440.197 2.74989 -1.76205 0
M  V30 4445 H 438.856 1.37998 -3.39635 0
M  V30 4446 H 438.504 3.85085 -3.23603 0
M  V30 4447 H 438.204 3.25909 -4.88935 0
M  V30 4448 H 439.728 4.1124 -4.51347 0
M  V30 4449 H 441.142 2.00851 -5.36965 0
M  V30 4450 H 439.539 1.37356 -5.84169 0
M  V30 4451 H 440.609 0.382362 -4.8339 0
M  V30 4452 N 441.952 1.55251 0.271103 0
M  V30 4453 C 443.18 1.79974 1.02064 0
M  V30 4454 C 443.595 0.574003 1.79863 0
M  V30 4455 O 442.952 -0.456962 1.76686 0
M  V30 4456 C 443.003 3.02603 1.97772 0
M  V30 4457 O 442.724 4.20443 1.23124 0
M  V30 4458 C 444.225 3.39944 2.84522 0
M  V30 4459 H 441.445 0.599489 0.301419 0
M  V30 4460 H 443.989 2.02268 0.301313 0
M  V30 4461 H 442.144 2.8243 2.65165 0
M  V30 4462 H 442.558 4.89783 1.87651 0
M  V30 4463 H 444.032 4.28915 3.47471 0
M  V30 4464 H 444.509 2.59432 3.54389 0
M  V30 4465 H 445.115 3.62383 2.22618 0
M  V30 4466 N 443.43 -0.535701 1.48216 0
M  V30 4467 C 444.841 -1.11769 1.49548 0
M  V30 4468 C 445.192 -1.94442 0.26207 0
M  V30 4469 O 444.317 -2.06987 -0.631287 0
M  V30 4470 C 444.912 -2.03367 2.70975 0
M  V30 4471 C 443.471 -2.56795 2.75196 0
M  V30 4472 C 442.618 -1.33631 2.42977 0
M  V30 4473 H 445.569 -0.321232 1.55415 0
M  V30 4474 H 445.59 -2.87569 2.49167 0
M  V30 4475 H 445.102 -1.43169 3.60727 0
M  V30 4476 H 443.203 -3.20731 1.89638 0
M  V30 4477 H 443.316 -2.9632 3.76472 0
M  V30 4478 H 441.68 -1.6502 1.94012 0
M  V30 4479 H 442.463 -0.75194 3.34964 0
M  V30 4480 N 444.908 -1.36708 -0.784132 0
M  V30 4481 C 446.133 -1.34565 -1.5782 0
M  V30 4482 C 446.558 0.0695257 -1.87971 0
M  V30 4483 O 445.916 1.04302 -1.48293 0
M  V30 4484 C 445.964 -2.17952 -2.87279 0
M  V30 4485 O 445.068 -1.57563 -3.81114 0
M  V30 4486 H 444.409 -0.460337 -0.478524 0
M  V30 4487 H 446.939 -1.80064 -0.971495 0
M  V30 4488 H 446.949 -2.30721 -3.365 0
M  V30 4489 H 445.624 -3.20823 -2.64661 0
M  V30 4490 H 444.201 -1.53764 -3.39722 0
M  V30 4491 N 446.386 1.0089 -1.21074 0
M  V30 4492 C 447.611 1.78727 -1.05221 0
M  V30 4493 C 448.036 1.83932 0.393795 0
M  V30 4494 O 447.394 1.28004 1.28393 0
M  V30 4495 C 447.442 3.20665 -1.64944 0
M  V30 4496 O 446.546 4.02632 -0.892273 0
M  V30 4497 H 445.887 0.550973 -0.370574 0
M  V30 4498 H 448.417 1.26847 -1.60534 0
M  V30 4499 H 448.427 3.71352 -1.69002 0
M  V30 4500 H 447.102 3.16191 -2.70177 0
M  V30 4501 H 445.679 3.61207 -0.926492 0
M  V30 4502 N 447.864 1.01787 1.20321 0
M  V30 4503 C 449.275 0.739307 1.71438 0
M  V30 4504 C 449.626 -0.742041 1.81627 0
M  V30 4505 O 448.751 -1.57903 1.47971 0
M  V30 4506 C 449.346 1.33538 3.11373 0
M  V30 4507 C 447.905 1.10566 3.59795 0
M  V30 4508 C 447.052 1.44028 2.36962 0
M  V30 4509 H 450.003 1.18718 1.05317 0
M  V30 4510 H 450.024 0.726611 3.73498 0
M  V30 4511 H 449.536 2.41352 3.03926 0
M  V30 4512 H 447.637 0.0452405 3.72573 0
M  V30 4513 H 447.75 1.78661 4.44542 0
M  V30 4514 H 446.114 0.85933 2.39766 0
M  V30 4515 H 446.897 2.52901 2.32155 0
M  V30 4516 N 449.342 -1.36122 0.79427 0
M  V30 4517 C 450.59 -1.98718 0.368177 0
M  V30 4518 C 450.911 -1.63345 -1.06506 0
M  V30 4519 O 450.181 -0.909825 -1.73491 0
M  V30 4520 H 448.761 -0.735038 0.133146 0
M  V30 4521 H 451.423 -1.66239 1.01739 0
M  V30 4522 H 450.519 -3.08633 0.463923 0
M  V30 4523 N 450.82 -0.546701 -1.47814 0
M  V30 4524 C 451.767 0.206854 -2.29871 0
M  V30 4525 C 452.737 0.918235 -1.38411 0
M  V30 4526 O 453.922 0.915991 -1.67375 0
M  V30 4527 C 451.062 1.23746 -3.22151 0
M  V30 4528 C 450.175 0.533216 -4.28697 0
M  V30 4529 C 449.31 1.5482 -5.08138 0
M  V30 4530 C 448.349 0.828347 -6.06469 0
M  V30 4531 N 447.486 1.78966 -6.78908 0
M  V30 4532 H 452.326 -0.499037 -2.93792 0
M  V30 4533 H 449.863 -0.25793 -1.44821 0
M  V30 4534 H 451.821 1.84746 -3.74065 0
M  V30 4535 H 450.451 1.91151 -2.60117 0
M  V30 4536 H 449.503 -0.191089 -3.7992 0
M  V30 4537 H 450.815 -0.0311987 -4.9879 0
M  V30 4538 H 449.969 2.23202 -5.6415 0
M  V30 4539 H 448.708 2.14652 -4.37922 0
M  V30 4540 H 447.713 0.130539 -5.49645 0
M  V30 4541 H 448.938 0.235907 -6.7869 0
M  V30 4542 H 446.884 2.37675 -6.1143 0
M  V30 4543 H 446.801 1.27712 -7.45135 0
M  V30 4544 H 448.069 2.46496 -7.395 0
M  V30 4545 N 452.299 1.55045 -0.282633 0
M  V30 4546 C 453.229 2.2579 0.595066 0
M  V30 4547 C 454.21 1.25074 1.15284 0
M  V30 4548 O 455.395 1.5381 1.18559 0
M  V30 4549 C 452.525 2.98472 1.77572 0
M  V30 4550 C 451.479 4.0618 1.34914 0
M  V30 4551 C 450.805 4.66477 2.6135 0
M  V30 4552 C 452.105 5.1996 0.493821 0
M  V30 4553 H 453.799 2.994 0.00505653 0
M  V30 4554 H 451.345 1.44 0.000992001 0
M  V30 4555 H 453.298 3.46677 2.39568 0
M  V30 4556 H 452.022 2.2241 2.39168 0
M  V30 4557 H 450.681 3.58797 0.752338 0
M  V30 4558 H 450.329 3.87074 3.2122 0
M  V30 4559 H 450.029 5.39207 2.33516 0
M  V30 4560 H 451.553 5.17435 3.24181 0
M  V30 4561 H 452.967 5.64172 1.01898 0
M  V30 4562 H 451.364 5.99299 0.310047 0
M  V30 4563 H 452.434 4.82462 -0.485593 0
M  V30 4564 N 453.777 0.010035 1.57597 0
M  V30 4565 C 454.707 -0.976857 2.12084 0
M  V30 4566 C 455.688 -1.35191 1.03235 0
M  V30 4567 O 456.873 -1.43389 1.3097 0
M  V30 4568 C 454.003 -2.26548 2.63236 0
M  V30 4569 C 452.957 -2.03175 3.76701 0
M  V30 4570 C 452.283 -3.38138 4.14206 0
M  V30 4571 C 453.583 -1.38625 5.03568 0
M  V30 4572 H 455.277 -0.523145 2.94794 0
M  V30 4573 H 452.823 -0.250195 1.4181 0
M  V30 4574 H 454.776 -2.95952 2.99984 0
M  V30 4575 H 453.5 -2.74051 1.77661 0
M  V30 4576 H 452.159 -1.36195 3.40362 0
M  V30 4577 H 451.807 -3.83363 3.25641 0
M  V30 4578 H 451.507 -3.23312 4.90656 0
M  V30 4579 H 453.031 -4.08841 4.53521 0
M  V30 4580 H 454.445 -1.98 5.38023 0
M  V30 4581 H 452.842 -1.34256 5.84889 0
M  V30 4582 H 453.912 -0.356722 4.83586 0
M  V30 4583 N 455.255 -1.55392 -0.262866 0
M  V30 4584 C 456.483 -1.80513 -1.01108 0
M  V30 4585 C 456.898 -0.583533 -1.79556 0
M  V30 4586 O 456.255 0.447585 -1.76926 0
M  V30 4587 C 456.306 -3.03648 -1.96164 0
M  V30 4588 O 456.027 -4.2109 -1.20893 0
M  V30 4589 C 457.528 -3.41448 -2.82715 0
M  V30 4590 H 454.748 -0.601079 -0.298236 0
M  V30 4591 H 457.292 -2.02425 -0.290582 0
M  V30 4592 H 455.447 -2.83832 -2.63663 0
M  V30 4593 H 455.861 -4.90771 -1.85051 0
M  V30 4594 H 457.335 -4.30751 -3.45192 0
M  V30 4595 H 457.812 -2.61308 -3.53008 0
M  V30 4596 H 458.418 -3.63559 -2.20693 0
M  V30 4597 N 456.733 0.527833 -1.48498 0
M  V30 4598 C 458.149 0.856571 -1.34666 0
M  V30 4599 C 458.349 1.98271 -0.35931 0
M  V30 4600 O 457.405 2.51551 0.218703 0
M  V30 4601 C 458.718 1.22207 -2.74747 0
M  V30 4602 C 460.266 1.33183 -2.83251 0
M  V30 4603 C 460.741 1.73075 -4.24039 0
M  V30 4604 N 462.232 1.80174 -4.26722 0
M  V30 4605 C 462.967 2.1243 -5.32598 0
M  V30 4606 N 462.463 2.43096 -6.4875 0
M  V30 4607 N 464.256 2.13454 -5.19994 0
M  V30 4608 H 456.407 -0.215174 -2.11307 0
M  V30 4609 H 458.67 -0.0336281 -0.947403 0
M  V30 4610 H 458.376 0.468195 -3.4857 0
M  V30 4611 H 458.25 2.17173 -3.08409 0
M  V30 4612 H 460.637 2.07647 -2.09683 0
M  V30 4613 H 460.718 0.363333 -2.53206 0
M  V30 4614 H 460.362 0.991712 -4.98124 0
M  V30 4615 H 460.292 2.70979 -4.51529 0
M  V30 4616 H 462.783 1.58744 -3.42942 0
M  V30 4617 H 463.096 2.6682 -7.25277 0
M  V30 4618 H 461.441 2.40611 -6.52021 0
M  V30 4619 H 464.632 1.88956 -4.28268 0
M  V30 4620 H 464.805 2.38261 -6.02608 0
M  V30 4621 N 458.211 1.37122 0.776871 0
M  V30 4622 C 459.436 1.354 1.57104 0
M  V30 4623 C 459.861 -0.0595562 1.88006 0
M  V30 4624 O 459.219 -1.03514 1.48844 0
M  V30 4625 C 459.267 2.19472 2.8612 0
M  V30 4626 O 458.371 1.59582 3.80273 0
M  V30 4627 H 457.712 0.462869 0.476076 0
M  V30 4628 H 460.242 1.80577 0.961932 0
M  V30 4629 H 460.252 2.32502 3.35271 0
M  V30 4630 H 458.927 3.22222 2.62956 0
M  V30 4631 H 457.504 1.55564 3.38902 0
M  V30 4632 N 459.689 -1.00246 1.21608 0
M  V30 4633 C 460.619 -2.10921 1.00172 0
M  V30 4634 C 461.6 -1.69938 -0.0741587 0
M  V30 4635 O 462.785 -1.94009 0.0861753 0
M  V30 4636 C 459.915 -3.42618 0.568355 0
M  V30 4637 C 458.869 -3.97407 1.58909 0
M  V30 4638 C 458.195 -5.25038 1.01187 0
M  V30 4639 C 459.495 -4.2918 2.97661 0
M  V30 4640 H 461.189 -2.29112 1.92739 0
M  V30 4641 H 458.735 -1.10101 0.928102 0
M  V30 4642 H 460.688 -4.19444 0.405555 0
M  V30 4643 H 459.412 -3.24227 -0.392961 0
M  V30 4644 H 458.071 -3.22703 1.73949 0
M  V30 4645 H 457.719 -5.02982 0.0421965 0
M  V30 4646 H 457.419 -5.62661 1.6937 0
M  V30 4647 H 458.943 -6.04507 0.860448 0
M  V30 4648 H 460.357 -4.96839 2.86049 0
M  V30 4649 H 458.754 -4.77952 3.6288 0
M  V30 4650 H 459.824 -3.3735 3.48315 0
M  V30 4651 N 461.167 -1.02423 -1.1978 0
M  V30 4652 C 462.13 -0.605703 -2.21052 0
M  V30 4653 C 463.13 0.328209 -1.57415 0
M  V30 4654 O 464.32 0.115853 -1.73814 0
M  V30 4655 C 461.452 0.114366 -3.40708 0
M  V30 4656 H 462.645 -1.5017 -2.59594 0
M  V30 4657 H 460.198 -0.814888 -1.33376 0
M  V30 4658 H 460.933 1.02492 -3.07678 0
M  V30 4659 H 460.718 -0.556641 -3.88129 0
M  V30 4660 H 462.208 0.394272 -4.15735 0
M  V30 4661 N 462.645 1.35699 -0.801477 0
M  V30 4662 C 463.575 2.32436 -0.222658 0
M  V30 4663 C 464.556 1.5723 0.649057 0
M  V30 4664 O 465.741 1.85324 0.580387 0
M  V30 4665 C 462.871 3.41469 0.633719 0
M  V30 4666 C 461.825 4.27774 -0.139083 0
M  V30 4667 C 461.151 5.28082 0.838666 0
M  V30 4668 C 462.451 5.04946 -1.33517 0
M  V30 4669 H 464.145 2.81094 -1.03086 0
M  V30 4670 H 461.691 1.35146 -0.497155 0
M  V30 4671 H 463.644 4.08143 1.04868 0
M  V30 4672 H 462.368 2.91408 1.47475 0
M  V30 4673 H 461.027 3.62673 -0.535156 0
M  V30 4674 H 460.675 4.7429 1.67506 0
M  V30 4675 H 460.375 5.86695 0.32594 0
M  V30 4676 H 461.899 5.97628 1.25194 0
M  V30 4677 H 463.313 5.64593 -0.995349 0
M  V30 4678 H 461.71 5.7303 -1.78202 0
M  V30 4679 H 462.78 4.35886 -2.12442 0
M  V30 4680 N 464.123 0.554532 1.47522 0
M  V30 4681 C 465.371 0.0294208 2.02079 0
M  V30 4682 C 465.692 -1.32411 1.43151 0
M  V30 4683 O 464.962 -1.863 0.605728 0
M  V30 4684 H 463.542 0.00788672 0.746958 0
M  V30 4685 H 466.204 0.723934 1.80956 0
M  V30 4686 H 465.3 -0.0606745 3.12041 0
M  V30 4687 N 465.601 -1.54893 0.290851 0
M  V30 4688 C 466.849 -1.99538 -0.320756 0
M  V30 4689 C 467.17 -1.18075 -1.55188 0
M  V30 4690 O 466.44 -0.274162 -1.93972 0
M  V30 4691 H 465.02 -0.737052 -0.121507 0
M  V30 4692 H 467.682 -1.90755 0.399832 0
M  V30 4693 H 466.778 -3.06282 -0.599802 0
M  V30 4694 N 467.08 -0.0183926 -1.57589 0
M  V30 4695 C 468.027 0.967022 -2.09565 0
M  V30 4696 C 468.997 1.32983 -0.995225 0
M  V30 4697 O 470.182 1.42501 -1.26878 0
M  V30 4698 C 467.322 2.24772 -2.61861 0
M  V30 4699 C 466.435 1.94232 -3.85873 0
M  V30 4700 C 465.57 3.16518 -4.26603 0
M  V30 4701 C 464.609 2.81748 -5.43401 0
M  V30 4702 N 463.746 3.96626 -5.79338 0
M  V30 4703 H 468.586 0.516874 -2.93483 0
M  V30 4704 H 466.123 0.243544 -1.4507 0
M  V30 4705 H 468.081 2.99667 -2.90268 0
M  V30 4706 H 466.711 2.67423 -1.8079 0
M  V30 4707 H 465.763 1.09625 -3.64262 0
M  V30 4708 H 467.075 1.64616 -4.70853 0
M  V30 4709 H 466.229 3.99743 -4.56389 0
M  V30 4710 H 464.968 3.49286 -3.40368 0
M  V30 4711 H 463.973 1.96933 -5.1332 0
M  V30 4712 H 465.198 2.50207 -6.31327 0
M  V30 4713 H 463.144 4.29257 -4.96059 0
M  V30 4714 H 463.061 3.70598 -6.58933 0
M  V30 4715 H 464.329 4.80586 -6.13724 0
M  V30 4716 N 468.558 1.5553 0.254621 0
M  V30 4717 C 469.505 1.89666 1.31512 0
M  V30 4718 C 470.475 0.750057 1.482 0
M  V30 4719 O 471.66 1.00301 1.62309 0
M  V30 4720 C 468.8 2.19009 2.667 0
M  V30 4721 C 467.913 3.46435 2.58083 0
M  V30 4722 C 467.048 3.65386 3.85573 0
M  V30 4723 C 466.087 4.8644 3.71541 0
M  V30 4724 N 465.224 5.01952 4.90906 0
M  V30 4725 H 470.064 2.80109 1.017 0
M  V30 4726 H 467.601 1.38666 0.490938 0
M  V30 4727 H 469.559 2.34025 3.45381 0
M  V30 4728 H 468.189 1.31779 2.94676 0
M  V30 4729 H 467.241 3.39792 1.71013 0
M  V30 4730 H 468.553 4.35258 2.43622 0
M  V30 4731 H 467.707 3.80319 4.72697 0
M  V30 4732 H 466.446 2.74781 4.02922 0
M  V30 4733 H 465.451 4.71491 2.82801 0
M  V30 4734 H 466.676 5.78497 3.55694 0
M  V30 4735 H 464.622 4.14283 5.08631 0
M  V30 4736 H 464.539 5.84851 4.79046 0
M  V30 4737 H 465.807 5.21289 5.7955 0
M  V30 4738 N 470.036 -0.519951 1.48776 0
M  V30 4739 C 471.313 -1.28123 1.47797 0
M  V30 4740 C 471.693 -2.10196 0.195157 0
M  V30 4741 O 471.041 -2.13167 -0.822925 0
M  V30 4742 C 471.251 -2.15413 2.74587 0
M  V30 4743 C 472.599 -2.75225 3.23321 0
M  V30 4744 O 473.623 -2.25694 2.75574 0
M  V30 4745 O 472.482 -3.65346 4.06429 0
M  V30 4746 H 469.576 -0.578793 0.590701 0
M  V30 4747 H 472.122 -0.535779 1.6102 0
M  V30 4748 H 470.894 -1.54617 3.59457 0
M  V30 4749 H 470.517 -2.97186 2.64132 0
M  V30 4750 O 471.553 -1.47171 -0.665045 0
M  V30 4751 H 472.244 -1.41937 -1.31809 0
M  V30 END ATOM
M  V30 BEGIN BOND
M  V30 END BOND
M  V30 END CTAB
M  END
$$$$
