drugbank_target|Q4ZHU6 CAMP phosphodiesterase (DB01064; DB05888)
 OpenBabel12092120323D

  0  0  0     0  0            999 V3000
M  V30 BEGIN CTAB
M  V30 COUNTS 14401 14529 0 0 0
M  V30 BEGIN ATOM
M  V30 1 H -0.908 1.98254 -0.117106 0
M  V30 2 N 0 1.576 0 0
M  V30 3 C 0.933 2.03868 1.02534 0
M  V30 4 C 1.911 0.928543 1.3348 0
M  V30 5 O 3.095 1.19667 1.45644 0
M  V30 6 C 0.222 2.43627 2.35294 0
M  V30 7 C -0.732 3.65373 2.2001 0
M  V30 8 S 0.101 5.13292 1.52614 0
M  V30 9 C 1.257 5.56322 2.86805 0
M  V30 10 H 1.49 2.90518 0.631377 0
M  V30 11 H -0.977 1.52953 0.210867 0
M  V30 12 H 0.981 2.67203 3.11629 0
M  V30 13 H -0.358 1.57376 2.7183 0
M  V30 14 H -1.165 3.90944 3.18086 0
M  V30 15 H -1.563 3.418 1.51819 0
M  V30 16 H 0.729 5.58782 3.83104 0
M  V30 17 H 1.672 6.56266 2.65933 0
M  V30 18 H 2.08 4.83886 2.90714 0
M  V30 19 N 1.4781 -0.272755 1.55222 0
M  V30 20 C 2.7031 -1.02683 1.80197 0
M  V30 21 C 3.1281 -1.79142 0.573551 0
M  V30 22 O 2.4861 -1.74917 -0.476849 0
M  V30 23 C 2.5341 -1.9609 3.02624 0
M  V30 24 O 1.6381 -3.04863 2.77727 0
M  V30 25 H 0.9791 -0.293557 0.595584 0
M  V30 26 H 3.5091 -0.30159 2.02365 0
M  V30 27 H 3.5191 -2.38039 3.31363 0
M  V30 28 H 2.1941 -1.39851 3.91682 0
M  V30 29 H 0.7711 -2.67228 2.60084 0
M  V30 30 N 2.9562 -1.48159 -0.537278 0
M  V30 31 C 3.8662 -1.64807 -1.6696 0
M  V30 32 C 4.8822 -0.530651 -1.65711 0
M  V30 33 O 6.0582 -0.800784 -1.84796 0
M  V30 34 C 3.1232 -1.67708 -3.03438 0
M  V30 35 C 2.1842 -2.91025 -3.156 0
M  V30 36 C 1.4172 -2.93778 -4.45567 0
M  V30 37 O 1.6402 -2.05153 -5.3223 0
M  V30 38 O 0.5742 -3.85868 -4.61941 0
M  V30 39 H 4.4002 -2.6066 -1.55853 0
M  V30 40 H 1.9852 -1.31475 -0.709549 0
M  V30 41 H 3.8672 -1.7218 -3.84619 0
M  V30 42 H 2.5422 -0.750278 -3.14885 0
M  V30 43 H 1.4492 -2.92089 -2.33741 0
M  V30 44 H 2.7822 -3.83065 -3.09066 0
M  V30 45 N 4.4343 0.785586 -1.36625 0
M  V30 46 C 5.7113 1.53198 -1.21613 0
M  V30 47 C 6.0913 2.10187 0.196113 0
M  V30 48 O 5.4393 1.94318 1.20219 0
M  V30 49 C 5.6493 2.62388 -2.30116 0
M  V30 50 C 6.9973 3.30167 -2.66974 0
M  V30 51 O 8.0213 2.72674 -2.29188 0
M  V30 52 O 6.8803 4.34077 -3.32023 0
M  V30 53 H 3.9743 0.677865 -0.473738 0
M  V30 54 H 6.5203 0.823739 -1.48367 0
M  V30 55 H 5.2923 2.18299 -3.24748 0
M  V30 56 H 4.9153 3.40827 -2.0475 0
M  V30 57 N 5.9124 1.20967 1.01018 0
M  V30 58 C 6.8754 0.965918 2.07853 0
M  V30 59 C 7.8754 -0.0610545 1.60684 0
M  V30 60 O 9.0654 0.175681 1.73312 0
M  V30 61 C 6.1974 0.455513 3.37843 0
M  V30 62 H 7.3904 1.91365 2.3091 0
M  V30 63 H 4.9434 1.02594 1.17916 0
M  V30 64 H 5.6784 -0.497381 3.20463 0
M  V30 65 H 5.4634 1.19622 3.73407 0
M  V30 66 H 6.9534 0.304667 4.16487 0
M  V30 67 N 7.3905 -1.2043 1.01659 0
M  V30 68 C 8.6385 -1.89423 0.704522 0
M  V30 69 C 8.9595 -1.79231 -0.768197 0
M  V30 70 O 8.2295 -1.1947 -1.55254 0
M  V30 71 H 6.8095 -0.701178 0.257602 0
M  V30 72 H 9.4715 -1.4626 1.28818 0
M  V30 73 H 8.5675 -2.96052 0.987916 0
M  V30 74 N 8.8686 -0.792821 -1.36206 0
M  V30 75 C 9.7986 -0.207853 -2.32573 0
M  V30 76 C 10.7796 0.659055 -1.56813 0
M  V30 77 O 11.9646 0.592176 -1.84951 0
M  V30 78 C 9.0946 0.655449 -3.41059 0
M  V30 79 C 8.0486 -0.111842 -4.27854 0
M  V30 80 C 7.3746 0.872274 -5.27537 0
M  V30 81 C 8.6746 -1.30299 -5.05786 0
M  V30 82 H 10.3686 -1.01294 -2.81744 0
M  V30 83 H 7.9146 -0.48854 -1.3546 0
M  V30 84 H 9.8676 1.07464 -4.07467 0
M  V30 85 H 8.5916 1.49328 -2.90463 0
M  V30 86 H 7.2506 -0.512053 -3.63006 0
M  V30 87 H 6.8986 1.70523 -4.73214 0
M  V30 88 H 6.5986 0.363291 -5.86476 0
M  V30 89 H 8.1226 1.28996 -5.96818 0
M  V30 90 H 9.5366 -0.959379 -5.65216 0
M  V30 91 H 7.9336 -1.7455 -5.74154 0
M  V30 92 H 9.0036 -2.09663 -4.37229 0
M  V30 93 N 10.3467 1.47872 -0.545128 0
M  V30 94 C 11.7577 1.86384 -0.108581 0
M  V30 95 C 12.1087 1.45309 1.31832 0
M  V30 96 O 11.2337 0.850641 1.9898 0
M  V30 97 C 11.8287 3.38265 -0.190274 0
M  V30 98 C 10.3877 3.75914 0.191164 0
M  V30 99 C 9.5347 2.71926 -0.543273 0
M  V30 100 H 12.4857 1.39561 -0.755537 0
M  V30 101 H 12.5067 3.75831 0.594217 0
M  V30 102 H 12.0187 3.6813 -1.2289 0
M  V30 103 H 10.1197 3.51665 1.23136 0
M  V30 104 H 10.2327 4.78836 -0.158987 0
M  V30 105 H 8.5967 2.54697 0.0122495 0
M  V30 106 H 9.3797 3.04634 -1.58282 0
M  V30 107 N 11.8248 0.280983 1.55075 0
M  V30 108 C 13.0708 -0.33461 2.00021 0
M  V30 109 C 13.4038 -1.55063 1.16915 0
M  V30 110 O 12.6788 -1.93006 0.240646 0
M  V30 111 C 12.9618 -0.711007 3.53011 0
M  V30 112 C 12.8148 0.512766 4.46868 0
M  V30 113 C 14.1338 -1.54522 4.12081 0
M  V30 114 H 11.2528 -0.120147 0.727141 0
M  V30 115 H 13.8948 0.389097 1.85973 0
M  V30 116 H 12.0448 -1.32761 3.65112 0
M  V30 117 H 13.7168 1.15131 4.46702 0
M  V30 118 H 11.9598 1.14975 4.18286 0
M  V30 119 H 12.6308 0.205556 5.51617 0
M  V30 120 H 15.1068 -1.02442 4.03293 0
M  V30 121 H 13.9828 -1.77739 5.19327 0
M  V30 122 H 14.2438 -2.52813 3.62682 0
M  V30 123 N 13.3029 -1.57598 0.00835791 0
M  V30 124 C 14.7139 -1.7892 -0.53333 0
M  V30 125 C 15.0649 -0.916609 -1.73473 0
M  V30 126 O 14.1899 -0.121336 -2.1606 0
M  V30 127 C 14.7849 -3.24488 -0.974313 0
M  V30 128 C 13.3439 -3.46878 -1.46125 0
M  V30 129 C 12.4909 -2.74157 -0.416302 0
M  V30 130 H 15.4419 -1.56958 0.234495 0
M  V30 131 H 15.4629 -3.3306 -1.83988 0
M  V30 132 H 14.9749 -3.87972 -0.099718 0
M  V30 133 H 13.0759 -2.8862 -2.35646 0
M  V30 134 H 13.1889 -4.55572 -1.48295 0
M  V30 135 H 11.5529 -2.39022 -0.87981 0
M  V30 136 H 12.3359 -3.40345 0.44947 0
M  V30 137 N 14.781 0.264519 -1.55364 0
M  V30 138 C 16.197 0.61215 -1.47394 0
M  V30 139 C 16.397 1.89134 -0.695018 0
M  V30 140 O 15.453 2.51563 -0.217275 0
M  V30 141 C 16.766 0.731235 -2.91674 0
M  V30 142 C 18.314 0.82473 -3.01939 0
M  V30 143 C 18.789 0.975522 -4.4749 0
M  V30 144 N 20.28 1.04083 -4.51354 0
M  V30 145 C 21.015 1.17646 -5.61201 0
M  V30 146 N 20.511 1.27874 -6.80896 0
M  V30 147 N 22.304 1.20823 -5.48961 0
M  V30 148 H 14.455 -0.575456 -2.04456 0
M  V30 149 H 16.718 -0.196099 -0.927496 0
M  V30 150 H 16.424 -0.138392 -3.51428 0
M  V30 151 H 16.298 1.60883 -3.41169 0
M  V30 152 H 18.685 1.68482 -2.42276 0
M  V30 153 H 18.766 -0.0776479 -2.55682 0
M  V30 154 H 18.41 0.120058 -5.07758 0
M  V30 155 H 18.34 1.89268 -4.91412 0
M  V30 156 H 20.831 0.973846 -3.65136 0
M  V30 157 H 21.144 1.38081 -7.60364 0
M  V30 158 H 19.489 1.24863 -6.83692 0
M  V30 159 H 22.68 1.12469 -4.54388 0
M  V30 160 H 22.853 1.31049 -6.3461 0
M  V30 161 N 16.2591 1.48442 0.529413 0
M  V30 162 C 17.4841 1.60406 1.31471 0
M  V30 163 C 17.9091 0.264738 1.86228 0
M  V30 164 O 17.2671 -0.763668 1.64432 0
M  V30 165 C 17.3151 2.65419 2.44101 0
M  V30 166 O 16.4191 2.22618 3.47153 0
M  V30 167 H 15.7601 0.537863 0.389357 0
M  V30 168 H 18.2901 1.94432 0.636965 0
M  V30 169 H 18.3001 2.86709 2.90279 0
M  V30 170 H 16.9751 3.62652 2.03608 0
M  V30 171 H 15.5521 2.11543 3.0709 0
M  V30 172 N 17.7372 -0.778329 1.37039 0
M  V30 173 C 18.6692 -1.90034 1.2814 0
M  V30 174 C 19.6822 -1.61585 0.198558 0
M  V30 175 O 20.8712 -1.72625 0.454175 0
M  V30 176 C 17.9712 -3.25108 0.956968 0
M  V30 177 C 17.1442 -3.81253 2.14394 0
M  V30 178 C 16.2032 -4.94789 1.79082 0
M  V30 179 O 15.2292 -5.10721 2.51301 0
M  V30 180 N 16.4312 -5.75878 0.731043 0
M  V30 181 H 19.1962 -1.98186 2.24816 0
M  V30 182 H 16.7572 -0.957129 1.30578 0
M  V30 183 H 18.7492 -3.9857 0.701701 0
M  V30 184 H 17.3192 -3.125 0.0789812 0
M  V30 185 H 16.5392 -2.99647 2.56135 0
M  V30 186 H 17.8272 -4.15495 2.93668 0
M  V30 187 H 17.2252 -5.65547 0.131618 0
M  V30 188 H 15.7822 -6.49596 0.535622 0
M  V30 189 N 19.2153 -1.21501 -1.00376 0
M  V30 190 C 20.4613 -1.04457 -1.74529 0
M  V30 191 C 20.8163 0.417386 -1.87818 0
M  V30 192 O 20.1093 1.30556 -1.40234 0
M  V30 193 C 20.3033 -1.67673 -3.15627 0
M  V30 194 C 20.1323 -3.19865 -3.16096 0
M  V30 195 C 18.9023 -3.88915 -3.22604 0
M  V30 196 C 21.1003 -4.16936 -3.01112 0
M  V30 197 N 19.0823 -5.28284 -3.12712 0
M  V30 198 C 20.4533 -5.43066 -2.99131 0
M  V30 199 C 22.5083 -4.07968 -2.85423 0
M  V30 200 C 21.2113 -6.6126 -2.83068 0
M  V30 201 C 23.2373 -5.258 -2.70718 0
M  V30 202 C 22.5993 -6.50842 -2.69414 0
M  V30 203 H 18.6983 -0.436584 -0.648782 0
M  V30 204 H 21.2823 -1.53875 -1.19293 0
M  V30 205 H 19.4533 -1.20822 -3.6913 0
M  V30 206 H 21.1853 -1.43824 -3.78281 0
M  V30 207 H 17.9403 -3.39847 -3.2985 0
M  V30 208 H 18.3643 -6.01284 -3.11105 0
M  V30 209 H 23.0063 -3.1209 -2.85236 0
M  V30 210 H 20.7243 -7.57298 -2.82002 0
M  V30 211 H 24.3103 -5.20683 -2.59577 0
M  V30 212 H 23.1903 -7.40485 -2.5817 0
M  V30 213 N 20.6934 1.19889 -1.02296 0
M  V30 214 C 21.9394 1.89701 -0.717033 0
M  V30 215 C 22.2724 1.7905 0.751989 0
M  V30 216 O 21.5474 1.17891 1.547 0
M  V30 217 C 21.8304 3.40858 -1.16136 0
M  V30 218 C 21.6834 3.60411 -2.69117 0
M  V30 219 C 23.0024 4.33876 -0.737549 0
M  V30 220 H 20.1214 0.688874 -0.261957 0
M  V30 221 H 22.7634 1.41154 -1.27183 0
M  V30 222 H 20.9134 3.82335 -0.689342 0
M  V30 223 H 22.5854 3.28145 -3.2422 0
M  V30 224 H 20.8284 3.03665 -3.0979 0
M  V30 225 H 21.4994 4.66396 -2.95261 0
M  V30 226 H 23.9754 4.00081 -1.14344 0
M  V30 227 H 22.8514 5.38242 -1.0764 0
M  V30 228 H 23.1124 4.40628 0.360436 0
M  V30 229 N 22.1715 0.800033 1.35784 0
M  V30 230 C 23.0815 0.207204 2.33683 0
M  V30 231 C 24.0975 -0.64631 1.61551 0
M  V30 232 O 25.2735 -0.559604 1.93469 0
M  V30 233 C 22.3385 -0.639659 3.40748 0
M  V30 234 C 21.3995 0.233585 4.28664 0
M  V30 235 C 20.6325 -0.572954 5.30616 0
M  V30 236 O 20.8555 -1.80816 5.40982 0
M  V30 237 O 19.7895 0.0327285 6.01891 0
M  V30 238 H 23.6155 1.01692 2.86169 0
M  V30 239 H 21.2005 0.561691 1.38439 0
M  V30 240 H 23.0825 -1.12223 4.06182 0
M  V30 241 H 21.7575 -1.42708 2.90544 0
M  V30 242 H 20.6645 0.763147 3.66233 0
M  V30 243 H 21.9975 0.984784 4.82248 0
M  V30 244 N 23.6496 -1.47581 0.552962 0
M  V30 245 C 25.0656 -1.5818 0.212424 0
M  V30 246 C 25.2656 -1.55213 -1.28496 0
M  V30 247 O 24.3216 -1.45329 -2.06484 0
M  V30 248 C 25.6346 -2.88865 0.835318 0
M  V30 249 C 27.1826 -3.0244 0.806156 0
M  V30 250 C 27.6576 -4.35819 1.40804 0
M  V30 251 N 29.1486 -4.42444 1.37103 0
M  V30 252 C 29.8836 -5.44202 1.80641 0
M  V30 253 N 29.3796 -6.52795 2.32015 0
M  V30 254 N 31.1726 -5.35222 1.71738 0
M  V30 255 H 23.3236 -1.47753 1.52587 0
M  V30 256 H 25.5866 -0.702941 0.636064 0
M  V30 257 H 25.2926 -2.9676 1.88749 0
M  V30 258 H 25.1666 -3.7579 0.325848 0
M  V30 259 H 27.5536 -2.94144 -0.237317 0
M  V30 260 H 27.6346 -2.17068 1.35334 0
M  V30 261 H 27.2786 -4.44871 2.45056 0
M  V30 262 H 27.2086 -5.19916 0.836338 0
M  V30 263 H 29.6996 -3.6456 0.995202 0
M  V30 264 H 30.0126 -7.26609 2.63171 0
M  V30 265 H 28.3576 -6.53696 2.36023 0
M  V30 266 H 31.5486 -4.49284 1.31382 0
M  V30 267 H 31.7216 -6.14389 2.05987 0
M  V30 268 N 25.1277 -0.289203 -1.54924 0
M  V30 269 C 26.3527 0.329299 -2.04769 0
M  V30 270 C 26.7777 1.4763 -1.16564 0
M  V30 271 O 26.1357 1.80527 -0.167186 0
M  V30 272 C 26.1837 0.774438 -3.52186 0
M  V30 273 O 25.2877 1.88038 -3.67036 0
M  V30 274 H 24.6287 0.0659259 -0.660719 0
M  V30 275 H 27.1587 -0.42761 -2.00082 0
M  V30 276 H 27.1687 1.06642 -3.93816 0
M  V30 277 H 25.8437 -0.0646707 -4.1585 0
M  V30 278 H 24.4207 1.58985 -3.3731 0
M  V30 279 N 26.6058 1.57591 -0.0167156 0
M  V30 280 C 27.8518 1.91567 0.665582 0
M  V30 281 C 28.1848 0.892298 1.72487 0
M  V30 282 O 27.4598 -0.0867127 1.94307 0
M  V30 283 C 27.7428 3.36069 1.29342 0
M  V30 284 C 27.5958 4.49135 0.244541 0
M  V30 285 C 28.9148 3.803 2.21495 0
M  V30 286 H 26.0338 0.69666 0.240488 0
M  V30 287 H 28.6758 1.89866 -0.0714356 0
M  V30 288 H 26.8258 3.3765 1.92158 0
M  V30 289 H 28.4978 4.59689 -0.385228 0
M  V30 290 H 26.7408 4.3165 -0.431379 0
M  V30 291 H 27.4118 5.47242 0.723207 0
M  V30 292 H 29.8878 3.80377 1.68678 0
M  V30 293 H 28.7638 4.82127 2.62382 0
M  V30 294 H 29.0248 3.15104 3.101 0
M  V30 295 N 28.0839 -0.256276 1.55502 0
M  V30 296 C 29.3089 -1.00766 1.81276 0
M  V30 297 C 29.7339 -1.78524 0.59252 0
M  V30 298 O 29.0919 -1.75413 -0.45827 0
M  V30 299 C 29.1399 -1.92869 3.04687 0
M  V30 300 O 28.2439 -3.019 2.80945 0
M  V30 301 H 27.5849 -0.287224 0.598664 0
M  V30 302 H 30.1149 -0.280109 2.02674 0
M  V30 303 H 30.1249 -2.34511 3.33869 0
M  V30 304 H 28.7999 -1.35689 3.93143 0
M  V30 305 H 27.3769 -2.64454 2.62904 0
M  V30 306 N 29.562 -1.4872 -0.521534 0
M  V30 307 C 30.802 -1.58771 -1.28729 0
M  V30 308 C 31.166 -0.259394 -1.9024 0
M  V30 309 O 32.367 -0.234942 -2.67771 0
M  V30 310 C 30.638 -2.70039 -2.34124 0
M  V30 311 S 32.197 -2.9991 -3.20312 0
M  V30 312 H 29.015 -0.560251 -0.437767 0
M  V30 313 H 31.617 -1.86283 -0.593188 0
M  V30 314 H 30.321 -3.65101 -1.87429 0
M  V30 315 H 29.852 -2.44455 -3.08229 0
M  V30 316 H 31.867 -2.39855 -4.34378 0
M  V30 317 N 31.0401 0.771051 -1.3745 0
M  V30 318 C 32.0031 1.86598 -1.33093 0
M  V30 319 C 33.0031 1.59076 -0.234845 0
M  V30 320 O 34.1931 1.67145 -0.490732 0
M  V30 321 C 31.3251 3.23747 -1.06773 0
M  V30 322 H 32.5181 1.91873 -2.30488 0
M  V30 323 H 30.0711 0.970876 -1.2249 0
M  V30 324 H 30.8061 3.24148 -0.099129 0
M  V30 325 H 30.5911 3.45115 -1.86112 0
M  V30 326 H 32.0811 4.03824 -1.06377 0
M  V30 327 N 32.5182 1.22032 0.997298 0
M  V30 328 C 33.7462 1.06841 1.7718 0
M  V30 329 C 34.1612 -0.381325 1.84909 0
M  V30 330 O 33.5182 -1.26437 1.31605 0
M  V30 331 C 33.5692 1.66814 3.20711 0
M  V30 332 O 33.2902 3.06116 3.13408 0
M  V30 333 C 34.7912 1.56838 4.14628 0
M  V30 334 H 32.0112 0.374782 0.556578 0
M  V30 335 H 34.5552 1.61532 1.2541 0
M  V30 336 H 32.7102 1.16196 3.69564 0
M  V30 337 H 33.1242 3.34926 4.0364 0
M  V30 338 H 34.5982 2.03532 5.13107 0
M  V30 339 H 35.0752 0.524155 4.36061 0
M  V30 340 H 35.6812 2.06741 3.7167 0
M  V30 341 N 33.9963 -1.19345 1.0293 0
M  V30 342 C 35.2363 -1.90738 0.734727 0
M  V30 343 C 35.6003 -1.7785 -0.723414 0
M  V30 344 O 36.8013 -2.43844 -1.13108 0
M  V30 345 C 35.0723 -3.37569 1.17396 0
M  V30 346 S 36.6313 -4.27176 1.00329 0
M  V30 347 H 33.4493 -0.658771 0.267474 0
M  V30 348 H 36.0513 -1.4428 1.31922 0
M  V30 349 H 34.7553 -3.44475 2.23081 0
M  V30 350 H 34.2863 -3.8906 0.582772 0
M  V30 351 H 36.3013 -4.96126 -0.0859152 0
M  V30 352 N 35.4744 -0.807222 -1.35358 0
M  V30 353 C 36.7224 -0.387122 -1.98358 0
M  V30 354 C 37.0434 1.04942 -1.64354 0
M  V30 355 O 36.3134 1.72615 -0.926339 0
M  V30 356 H 34.8934 -0.140154 -0.733734 0
M  V30 357 H 37.5554 -1.0332 -1.6526 0
M  V30 358 H 36.6514 -0.493352 -3.08176 0
M  V30 359 N 36.9525 1.47285 -0.560781 0
M  V30 360 C 37.8995 2.30058 0.18491 0
M  V30 361 C 38.8695 1.39281 0.904986 0
M  V30 362 O 40.0545 1.68241 0.899979 0
M  V30 363 C 37.1945 3.23317 1.20666 0
M  V30 364 C 36.3075 4.29186 0.492285 0
M  V30 365 C 35.4425 5.09592 1.49964 0
M  V30 366 C 34.4815 6.07232 0.770439 0
M  V30 367 N 33.6185 6.80584 1.72479 0
M  V30 368 H 38.4585 2.93302 -0.527048 0
M  V30 369 H 35.9955 1.44568 -0.271738 0
M  V30 370 H 37.9535 3.75811 1.81168 0
M  V30 371 H 36.5835 2.61929 1.88661 0
M  V30 372 H 35.6355 3.7972 -0.227333 0
M  V30 373 H 36.9475 4.98738 -0.0787929 0
M  V30 374 H 36.1015 5.66254 2.17809 0
M  V30 375 H 34.8405 4.3995 2.10464 0
M  V30 376 H 33.8455 5.49745 0.0780846 0
M  V30 377 H 35.0705 6.78884 0.171134 0
M  V30 378 H 33.0165 6.1367 2.3183 0
M  V30 379 H 32.9335 7.46319 1.20596 0
M  V30 380 H 34.2015 7.41818 2.39428 0
M  V30 381 N 38.4306 0.297415 1.54768 0
M  V30 382 C 39.8466 -0.0560823 1.59501 0
M  V30 383 C 40.0466 -1.52725 1.31444 0
M  V30 384 O 39.1026 -2.27947 1.08611 0
M  V30 385 C 40.4156 0.338631 2.98787 0
M  V30 386 C 41.9636 0.287097 3.11681 0
M  V30 387 C 42.4386 0.656579 4.53269 0
M  V30 388 N 43.9296 0.608977 4.59179 0
M  V30 389 C 44.6646 0.867385 5.66802 0
M  V30 390 N 44.1606 1.19157 6.82476 0
M  V30 391 N 45.9536 0.794687 5.56454 0
M  V30 392 H 38.1046 1.25624 1.71267 0
M  V30 393 H 40.3676 0.509057 0.799728 0
M  V30 394 H 40.0736 1.36263 3.2423 0
M  V30 395 H 39.9476 -0.309508 3.75928 0
M  V30 396 H 42.3346 -0.727649 2.85988 0
M  V30 397 H 42.4156 0.969809 2.36703 0
M  V30 398 H 42.0596 1.66912 4.7969 0
M  V30 399 H 41.9896 -0.0481649 5.26578 0
M  V30 400 H 44.4806 0.369198 3.76092 0
M  V30 401 H 44.7936 1.37482 7.60473 0
M  V30 402 H 43.1386 1.22958 6.84037 0
M  V30 403 H 46.3296 0.541098 4.64962 0
M  V30 404 H 46.5026 0.999445 6.40246 0
M  V30 405 N 39.9087 -1.5758 0.0250728 0
M  V30 406 C 41.1557 -1.91633 -0.654444 0
M  V30 407 C 41.4837 -0.901103 -1.72367 0
M  V30 408 O 40.7387 0.0905647 -1.9549 0
M  V30 409 C 41.0377 -3.32421 -1.31268 0
M  V30 410 C 40.7037 -4.49344 -0.374223 0
M  V30 411 C 39.3657 -4.8106 -0.115911 0
M  V30 412 C 41.7177 -5.20498 0.270432 0
M  V30 413 C 39.0457 -5.8129 0.79493 0
M  V30 414 C 41.3977 -6.21699 1.1693 0
M  V30 415 C 40.0617 -6.51859 1.43655 0
M  V30 416 H 39.3317 -0.701236 -0.239478 0
M  V30 417 H 41.9787 -1.91307 0.0859734 0
M  V30 418 H 40.2837 -3.28989 -2.12775 0
M  V30 419 H 41.9807 -3.56038 -1.84494 0
M  V30 420 H 38.5707 -4.24579 -0.58573 0
M  V30 421 H 42.7547 -4.96229 0.0839194 0
M  V30 422 H 38.0107 -6.03005 1.00973 0
M  V30 423 H 42.1847 -6.75955 1.67504 0
M  V30 424 H 39.8117 -7.2934 2.144 0
M  V30 425 N 41.3868 0.248026 -1.55636 0
M  V30 426 C 42.6118 0.998028 -1.81808 0
M  V30 427 C 43.0368 1.78207 -0.601979 0
M  V30 428 O 42.3948 1.75653 0.448961 0
M  V30 429 C 42.4428 1.9125 -3.05705 0
M  V30 430 O 41.5468 3.00406 -2.82542 0
M  V30 431 H 40.8878 0.284045 -0.600179 0
M  V30 432 H 43.4178 0.269357 -2.02819 0
M  V30 433 H 43.4278 2.32737 -3.35108 0
M  V30 434 H 42.1028 1.33602 -3.93857 0
M  V30 435 H 40.6798 2.63056 -2.64303 0
M  V30 436 N 42.8649 1.48995 0.513639 0
M  V30 437 C 43.7949 1.67636 1.62544 0
M  V30 438 C 44.7759 0.525087 1.61793 0
M  V30 439 O 45.9609 0.759502 1.78732 0
M  V30 440 C 43.0909 1.73114 3.01079 0
M  V30 441 C 42.0449 2.87905 3.16693 0
M  V30 442 C 41.3709 2.78486 4.56453 0
M  V30 443 C 42.6709 4.29005 2.97913 0
M  V30 444 H 44.3649 2.60716 1.47198 0
M  V30 445 H 41.9109 1.25465 0.706714 0
M  V30 446 H 43.8639 1.84742 3.78746 0
M  V30 447 H 42.5879 0.766241 3.17484 0
M  V30 448 H 41.2469 2.75859 2.41448 0
M  V30 449 H 40.8949 1.7993 4.69717 0
M  V30 450 H 40.5949 3.55523 4.67843 0
M  V30 451 H 42.1189 2.92104 5.36197 0
M  V30 452 H 43.5329 4.41798 3.65359 0
M  V30 453 H 41.9299 5.07166 3.20785 0
M  V30 454 H 42.9999 4.44329 1.94165 0
M  V30 455 N 44.343 -0.763751 1.37857 0
M  V30 456 C 45.59 -1.52257 1.33506 0
M  V30 457 C 45.918 -1.94343 -0.078022 0
M  V30 458 O 45.173 -1.64958 -1.05297 0
M  V30 459 C 45.472 -2.79499 2.22745 0
M  V30 460 C 45.138 -2.56426 3.70886 0
M  V30 461 C 43.8 -2.49842 4.11257 0
M  V30 462 C 46.152 -2.36008 4.64704 0
M  V30 463 C 43.48 -2.20841 5.43549 0
M  V30 464 C 45.832 -2.0853 5.97242 0
M  V30 465 C 44.496 -2.00396 6.36709 0
M  V30 466 H 43.766 -0.557149 0.488534 0
M  V30 467 H 46.413 -0.879073 1.70131 0
M  V30 468 H 44.718 -3.48447 1.79142 0
M  V30 469 H 46.415 -3.37413 2.16688 0
M  V30 470 H 43.005 -2.62416 3.38874 0
M  V30 471 H 47.189 -2.40079 4.34368 0
M  V30 472 H 42.445 -2.13045 5.73081 0
M  V30 473 H 46.619 -1.91732 6.69486 0
M  V30 474 H 44.246 -1.77688 7.39142 0
M  V30 475 N 45.8211 -1.22559 -0.990812 0
M  V30 476 C 47.0491 -1.07779 -1.76611 0
M  V30 477 C 47.4641 0.371513 -1.85109 0
M  V30 478 O 46.8211 1.25737 -1.32274 0
M  V30 479 C 46.8721 -1.68512 -3.19822 0
M  V30 480 O 46.5931 -3.07774 -3.1178 0
M  V30 481 C 48.0941 -1.59035 -4.13791 0
M  V30 482 H 45.3141 -0.377729 -0.554583 0
M  V30 483 H 47.8581 -1.62195 -1.24551 0
M  V30 484 H 46.0131 -1.18154 -3.68942 0
M  V30 485 H 46.4271 -3.37062 -4.01858 0
M  V30 486 H 47.9011 -2.0625 -5.1202 0
M  V30 487 H 48.3781 -0.547273 -4.35777 0
M  V30 488 H 48.9841 -2.08709 -3.70568 0
M  V30 489 N 47.2992 1.18797 -1.03562 0
M  V30 490 C 48.2622 2.20464 -0.626769 0
M  V30 491 C 49.2622 1.57721 0.313173 0
M  V30 492 O 50.4522 1.73917 0.0992615 0
M  V30 493 C 47.5842 3.40802 0.0818498 0
M  V30 494 H 48.7772 2.58149 -1.5264 0
M  V30 495 H 46.3302 1.32593 -0.827578 0
M  V30 496 H 47.0652 3.08642 0.995518 0
M  V30 497 H 46.8502 3.8758 -0.593652 0
M  V30 498 H 48.3402 4.16092 0.354584 0
M  V30 499 N 48.7773 0.814389 1.34928 0
M  V30 500 C 49.7243 0.22822 2.29669 0
M  V30 501 C 50.6943 -0.642164 1.53184 0
M  V30 502 O 51.8793 -0.585605 1.81591 0
M  V30 503 C 49.0193 -0.61089 3.3965 0
M  V30 504 C 48.1323 0.280792 4.31086 0
M  V30 505 C 47.2673 -0.567067 5.28165 0
M  V30 506 C 46.3063 0.324531 6.11239 0
M  V30 507 N 45.4433 -0.483756 7.00431 0
M  V30 508 H 50.2833 1.04153 2.79206 0
M  V30 509 H 47.8203 0.525133 1.37407 0
M  V30 510 H 49.7783 -1.11263 4.0209 0
M  V30 511 H 48.4083 -1.38939 2.91369 0
M  V30 512 H 47.4603 0.900688 3.69583 0
M  V30 513 H 48.7723 0.966723 4.89342 0
M  V30 514 H 47.9263 -1.13363 5.96015 0
M  V30 515 H 46.6653 -1.28654 4.70425 0
M  V30 516 H 45.6703 0.903298 5.42329 0
M  V30 517 H 46.8953 1.04198 6.71059 0
M  V30 518 H 44.8413 -1.18706 6.45171 0
M  V30 519 H 44.7583 0.143965 7.55863 0
M  V30 520 H 46.0263 -1.03334 7.7262 0
M  V30 521 N 50.2554 -1.46986 0.568584 0
M  V30 522 C 51.4804 -2.07335 0.0520528 0
M  V30 523 C 51.9054 -1.41675 -1.23733 0
M  V30 524 O 51.2634 -0.495623 -1.74394 0
M  V30 525 C 51.3114 -3.60417 -0.11501 0
M  V30 526 O 50.4154 -3.95309 -1.17492 0
M  V30 527 H 49.7564 -0.661597 0.0564385 0
M  V30 528 H 52.2864 -1.88837 0.787507 0
M  V30 529 H 52.2964 -4.06698 -0.325644 0
M  V30 530 H 50.9714 -4.07601 0.826675 0
M  V30 531 H 49.5484 -3.60757 -0.943869 0
M  V30 532 N 51.7335 -0.305618 -1.54608 0
M  V30 533 C 52.6815 0.584119 -2.25146 0
M  V30 534 C 53.6755 1.13326 -1.25911 0
M  V30 535 O 54.8815 1.08337 -1.43747 0
M  V30 536 H 51.2565 0.206983 -0.722954 0
M  V30 537 H 53.2275 -0.033291 -2.98381 0
M  V30 538 C 51.9765 1.74225 -3.009 0
M  V30 539 H 51.2995 1.32892 -3.77067 0
M  V30 540 H 52.7395 2.34077 -3.53531 0
M  V30 541 C 51.1985 2.64914 -2.0814 0
M  V30 542 O 51.7285 3.66137 -1.65246 0
M  V30 543 N 49.9345 2.3275 -1.74 0
M  V30 544 H 49.4815 1.50479 -2.09078 0
M  V30 545 H 49.4395 2.93694 -1.12211 0
M  V30 546 N 53.2116 1.57565 -0.0334293 0
M  V30 547 C 54.4516 1.93844 0.648379 0
M  V30 548 C 54.8156 0.910387 1.69044 0
M  V30 549 O 56.0166 1.15952 2.42505 0
M  V30 550 C 54.2876 3.35017 1.24492 0
M  V30 551 S 55.8466 3.93229 1.94721 0
M  V30 552 H 52.6646 0.678231 0.213364 0
M  V30 553 H 55.2666 1.95254 -0.0981253 0
M  V30 554 H 53.9706 4.07652 0.474128 0
M  V30 555 H 53.5016 3.37061 2.02864 0
M  V30 556 H 55.5166 3.77014 3.22606 0
M  V30 557 N 54.6897 -0.239769 1.55765 0
M  V30 558 C 56.1007 -0.808263 1.68297 0
M  V30 559 C 56.4517 -1.85736 0.632181 0
M  V30 560 O 55.5767 -2.15277 -0.220204 0
M  V30 561 C 56.1717 -1.47284 3.05111 0
M  V30 562 C 54.7307 -1.98895 3.19559 0
M  V30 563 C 53.8777 -0.842575 2.64189 0
M  V30 564 H 56.8287 -0.0154422 1.58692 0
M  V30 565 H 56.8497 -2.34111 2.99954 0
M  V30 566 H 56.3617 -0.709053 3.81568 0
M  V30 567 H 54.4627 -2.78132 2.47938 0
M  V30 568 H 54.5757 -2.18143 4.26556 0
M  V30 569 H 52.9397 -1.24501 2.22197 0
M  V30 570 H 53.7227 -0.0917552 3.43177 0
M  V30 571 N 56.1678 -1.49265 -0.50573 0
M  V30 572 C 57.4078 -1.60128 -1.27038 0
M  V30 573 C 57.7718 -0.279557 -1.89954 0
M  V30 574 O 58.9728 -0.263329 -2.67507 0
M  V30 575 C 57.2438 -2.72507 -2.31246 0
M  V30 576 S 58.8028 -3.0329 -3.17113 0
M  V30 577 H 55.6208 -0.564863 -0.4318 0
M  V30 578 H 58.2228 -1.86902 -0.573397 0
M  V30 579 H 56.9268 -3.67068 -1.83546 0
M  V30 580 H 56.4578 -2.4771 -3.05619 0
M  V30 581 H 58.4728 -2.44448 -4.31809 0
M  V30 582 N 57.6459 0.756429 -1.3826 0
M  V30 583 C 58.8859 1.52833 -1.35725 0
M  V30 584 C 59.2499 1.91926 0.0534106 0
M  V30 585 O 60.4509 2.68028 0.203613 0
M  V30 586 C 58.7219 2.74919 -2.28373 0
M  V30 587 S 60.2809 3.64817 -2.43832 0
M  V30 588 H 57.0989 0.523043 -0.481608 0
M  V30 589 H 59.7009 0.888212 -1.74158 0
M  V30 590 H 58.4049 2.44304 -3.29763 0
M  V30 591 H 57.9359 3.43878 -1.91079 0
M  V30 592 H 59.9509 4.676 -1.66027 0
M  V30 593 N 59.124 1.23083 0.984299 0
M  V30 594 C 60.372 1.05848 1.72165 0
M  V30 595 C 60.693 -0.406049 1.90726 0
M  V30 596 O 59.963 -1.29139 1.47309 0
M  V30 597 H 58.543 0.388685 0.637913 0
M  V30 598 H 61.205 1.54736 1.18503 0
M  V30 599 H 60.301 1.54327 2.71274 0
M  V30 600 N 60.6021 -1.18246 1.0419 0
M  V30 601 C 61.5491 -2.2192 0.634037 0
M  V30 602 C 62.5191 -1.62179 -0.358765 0
M  V30 603 O 63.7041 -1.89122 -0.252466 0
M  V30 604 C 60.8441 -3.451 0.00445535 0
M  V30 605 C 59.9571 -4.19174 1.04487 0
M  V30 606 C 59.0921 -5.29813 0.383676 0
M  V30 607 C 58.1311 -5.9566 1.4091 0
M  V30 608 N 57.2681 -6.97834 0.772784 0
M  V30 609 H 62.1081 -2.56164 1.52263 0
M  V30 610 H 59.6451 -1.25843 0.761701 0
M  V30 611 H 61.6031 -4.15485 -0.377919 0
M  V30 612 H 60.2331 -3.11472 -0.847652 0
M  V30 613 H 59.2851 -3.47604 1.54518 0
M  V30 614 H 60.5971 -4.64267 1.82368 0
M  V30 615 H 59.7511 -6.06677 -0.0528366 0
M  V30 616 H 58.4901 -4.85825 -0.427208 0
M  V30 617 H 57.4951 -5.17535 1.85574 0
M  V30 618 H 58.7201 -6.4173 2.22171 0
M  V30 619 H 56.6661 -6.55998 -0.0177708 0
M  V30 620 H 56.5831 -7.41186 1.48928 0
M  V30 621 H 57.8511 -7.78665 0.36071 0
M  V30 622 N 62.0802 -0.821533 -1.34494 0
M  V30 623 C 63.0102 -0.257138 -2.3208 0
M  V30 624 C 63.9912 0.625645 -1.58176 0
M  V30 625 O 65.1762 0.552811 -1.86166 0
M  V30 626 C 62.3062 0.582958 -3.42372 0
M  V30 627 C 61.2602 -0.202571 -4.2752 0
M  V30 628 C 60.5862 0.760179 -5.29269 0
M  V30 629 C 61.8862 -1.40998 -5.02908 0
M  V30 630 H 63.5802 -1.07247 -2.79532 0
M  V30 631 H 61.1262 -0.517163 -1.34393 0
M  V30 632 H 63.0792 0.987972 -4.09655 0
M  V30 633 H 61.8032 1.43133 -2.93565 0
M  V30 634 H 60.4622 -0.588936 -3.61838 0
M  V30 635 H 60.1102 1.60447 -4.76724 0
M  V30 636 H 59.8102 0.238809 -5.87115 0
M  V30 637 H 61.3342 1.16308 -5.9942 0
M  V30 638 H 62.7482 -1.07905 -5.63054 0
M  V30 639 H 61.1452 -1.86689 -5.70322 0
M  V30 640 H 62.2152 -2.1889 -4.32684 0
M  V30 641 N 63.5583 1.46682 -0.576371 0
M  V30 642 C 64.7983 2.04306 -0.0621356 0
M  V30 643 C 65.1623 1.4389 1.2712 0
M  V30 644 O 66.3633 1.92675 1.87429 0
M  V30 645 C 64.6343 3.57399 0.00927922 0
M  V30 646 S 66.1933 4.36309 0.466859 0
M  V30 647 H 63.0113 0.710167 -0.0344016 0
M  V30 648 H 65.6133 1.79807 -0.767437 0
M  V30 649 H 64.3173 3.98889 -0.965178 0
M  V30 650 H 63.8483 3.86424 0.737547 0
M  V30 651 H 65.8633 4.6533 1.72287 0
M  V30 652 N 65.0364 0.313813 1.54444 0
M  V30 653 C 66.2764 -0.292389 2.02298 0
M  V30 654 C 66.6404 -1.50105 1.19719 0
M  V30 655 O 67.8414 -2.17947 1.5733 0
M  V30 656 C 66.1124 -0.627682 3.51845 0
M  V30 657 S 67.6714 -1.21493 4.21646 0
M  V30 658 H 64.4894 -0.0890247 0.705405 0
M  V30 659 H 67.0914 0.444668 1.90376 0
M  V30 660 H 65.7954 0.260265 4.09574 0
M  V30 661 H 65.3264 -1.39519 3.67829 0
M  V30 662 H 67.3414 -2.5022 4.28491 0
M  V30 663 N 66.5145 -1.57545 0.0417849 0
M  V30 664 C 67.7395 -1.97035 -0.647455 0
M  V30 665 C 68.1645 -0.918775 -1.64135 0
M  V30 666 O 67.5225 0.119006 -1.80909 0
M  V30 667 C 67.5705 -3.35609 -1.31905 0
M  V30 668 O 66.6745 -3.3287 -2.43457 0
M  V30 669 H 66.0155 -0.64211 -0.169086 0
M  V30 670 H 68.5455 -2.04318 0.107399 0
M  V30 671 H 68.5555 -3.72126 -1.67291 0
M  V30 672 H 67.2305 -4.11685 -0.590586 0
M  V30 673 H 65.8075 -3.08087 -2.10088 0
M  V30 674 N 67.9926 0.231505 -1.5589 0
M  V30 675 C 69.2696 0.981096 -1.69215 0
M  V30 676 C 69.6496 2.02799 -0.586164 0
M  V30 677 O 68.9976 2.24823 0.408253 0
M  V30 678 C 69.2076 1.60054 -3.10135 0
M  V30 679 C 70.5556 2.09658 -3.69227 0
M  V30 680 O 71.5796 1.69967 -3.13033 0
M  V30 681 O 70.4386 2.8258 -4.67772 0
M  V30 682 H 67.5326 0.457653 -0.688827 0
M  V30 683 H 70.0786 0.224073 -1.68214 0
M  V30 684 H 68.8506 0.844105 -3.82087 0
M  V30 685 H 68.4736 2.42336 -3.15212 0
M  V30 686 N 69.4707 1.49531 0.497807 0
M  V30 687 C 70.7107 1.60799 1.26187 0
M  V30 688 C 71.0747 0.289627 1.89803 0
M  V30 689 O 72.2757 0.277512 2.67364 0
M  V30 690 C 70.5467 2.73729 2.29798 0
M  V30 691 S 72.1057 3.04968 3.155 0
M  V30 692 H 68.9237 0.567145 0.428798 0
M  V30 693 H 71.5257 1.87204 0.563477 0
M  V30 694 H 70.2297 3.68036 1.81597 0
M  V30 695 H 69.7607 2.49328 3.04301 0
M  V30 696 H 71.7757 2.46735 4.30507 0
M  V30 697 N 70.9488 -0.749086 1.3866 0
M  V30 698 C 72.1948 -1.51056 1.35314 0
M  V30 699 C 72.5278 -1.94121 -0.0553751 0
M  V30 700 O 71.8028 -1.65763 -1.01749 0
M  V30 701 C 72.0858 -2.76003 2.31288 0
M  V30 702 C 71.9388 -2.39047 3.8102 0
M  V30 703 C 73.2578 -3.78046 2.2532 0
M  V30 704 H 70.3768 -0.547972 0.492844 0
M  V30 705 H 73.0188 -0.857628 1.69543 0
M  V30 706 H 71.1688 -3.31716 2.02229 0
M  V30 707 H 72.8408 -1.89074 4.20771 0
M  V30 708 H 71.0838 -1.71449 3.98482 0
M  V30 709 H 71.7548 -3.28462 4.4364 0
M  V30 710 H 74.2308 -3.31884 2.50983 0
M  V30 711 H 73.1068 -4.63159 2.94576 0
M  V30 712 H 73.3678 -4.23957 1.25352 0
M  V30 713 N 72.4269 -1.23603 -0.977757 0
M  V30 714 C 73.3589 -0.977369 -2.07317 0
M  V30 715 C 74.3719 0.0495845 -1.62724 0
M  V30 716 O 75.5609 -0.186261 -1.77526 0
M  V30 717 C 72.6609 -0.451216 -3.35883 0
M  V30 718 C 71.8339 -1.53896 -4.09432 0
M  V30 719 C 70.8929 -1.01721 -5.16274 0
M  V30 720 O 69.9189 -1.70676 -5.43009 0
M  V30 721 N 71.1209 0.153594 -5.80297 0
M  V30 722 H 73.8859 -1.92047 -2.30082 0
M  V30 723 H 71.4469 -1.14497 -1.14465 0
M  V30 724 H 73.4389 -0.0871574 -4.04606 0
M  V30 725 H 72.0089 0.397368 -3.10064 0
M  V30 726 H 71.2289 -2.07566 -3.35127 0
M  V30 727 H 72.5169 -2.27037 -4.55337 0
M  V30 728 H 71.9149 0.730323 -5.60966 0
M  V30 729 H 70.4719 0.458892 -6.50183 0
M  V30 730 N 73.905 1.17692 -1.04816 0
M  V30 731 C 74.868 2.19787 -0.650117 0
M  V30 732 C 75.868 1.58044 0.296427 0
M  V30 733 O 77.058 1.74012 0.0808097 0
M  V30 734 C 74.19 3.40869 0.0456987 0
M  V30 735 H 75.383 2.56516 -1.5537 0
M  V30 736 H 72.936 1.31708 -0.841594 0
M  V30 737 H 73.671 3.09681 0.962726 0
M  V30 738 H 73.456 3.86928 -0.634727 0
M  V30 739 H 74.946 4.16445 0.310432 0
M  V30 740 N 75.3831 0.828654 1.34056 0
M  V30 741 C 76.2931 0.256725 2.33191 0
M  V30 742 C 77.3091 -0.611898 1.62886 0
M  V30 743 O 78.4851 -0.51844 1.94613 0
M  V30 744 C 75.5501 -0.567238 3.42028 0
M  V30 745 C 74.6111 0.324458 4.28072 0
M  V30 746 C 73.8441 -0.460274 5.31712 0
M  V30 747 O 74.0671 -1.693 5.44696 0
M  V30 748 O 73.0011 0.160391 6.01686 0
M  V30 749 H 76.8271 1.07739 2.83947 0
M  V30 750 H 74.4121 0.59093 1.37217 0
M  V30 751 H 76.2941 -1.03582 4.08471 0
M  V30 752 H 74.9691 -1.36513 2.93506 0
M  V30 753 H 73.8761 0.840659 3.64532 0
M  V30 754 H 75.2091 1.08685 4.8005 0
M  V30 755 N 76.8612 -1.46375 0.584142 0
M  V30 756 C 78.1012 -2.0427 0.0729695 0
M  V30 757 C 78.4652 -1.44563 -1.26355 0
M  V30 758 O 79.6662 -1.93667 -1.86405 0
M  V30 759 C 77.9372 -3.57399 0.00967464 0
M  V30 760 S 79.4962 -4.36551 -0.443714 0
M  V30 761 H 76.3142 -0.709975 0.0381673 0
M  V30 762 H 78.9162 -1.79398 0.776962 0
M  V30 763 H 77.6202 -3.98372 0.986319 0
M  V30 764 H 77.1512 -3.8681 -0.717044 0
M  V30 765 H 79.1662 -4.66237 -1.69816 0
M  V30 766 N 78.3393 -0.321999 -1.54275 0
M  V30 767 C 79.3023 0.531975 -2.22941 0
M  V30 768 C 80.3023 1.04478 -1.22234 0
M  V30 769 O 81.4923 0.937452 -1.46825 0
M  V30 770 C 78.6243 1.73874 -2.93224 0
M  V30 771 H 79.8173 -0.0682612 -2.99822 0
M  V30 772 H 77.3703 -0.0730644 -1.56129 0
M  V30 773 H 78.1053 2.37825 -2.20476 0
M  V30 774 H 77.8903 1.37847 -3.6707 0
M  V30 775 H 79.3803 2.34496 -3.45545 0
M  V30 776 N 79.8174 1.5752 -0.0501392 0
M  V30 777 C 81.0664 1.91827 0.623328 0
M  V30 778 C 81.3794 0.930222 1.72065 0
M  V30 779 O 82.5854 1.1653 2.4522 0
M  V30 780 C 81.0414 3.40692 1.16003 0
M  V30 781 C 80.6494 4.479 0.0948811 0
M  V30 782 C 82.3934 3.84034 1.80881 0
M  V30 783 C 80.3004 5.87879 0.644411 0
M  V30 784 H 79.2304 0.715918 0.236596 0
M  V30 785 H 81.8814 1.83115 -0.118861 0
M  V30 786 H 80.2634 3.44405 1.9545 0
M  V30 787 H 81.4374 4.55775 -0.678675 0
M  V30 788 H 79.7524 4.13892 -0.45637 0
M  V30 789 H 82.3494 4.85984 2.22988 0
M  V30 790 H 82.6924 3.20225 2.6601 0
M  V30 791 H 83.2254 3.82833 1.0809 0
M  V30 792 H 79.9644 6.55282 -0.169229 0
M  V30 793 H 79.4844 5.83567 1.38598 0
M  V30 794 H 81.1634 6.37098 1.12763 0
M  V30 795 N 81.2955 -0.223234 1.56011 0
M  V30 796 C 82.5415 -0.949279 1.79211 0
M  V30 797 C 82.8745 -1.84054 0.619494 0
M  V30 798 O 82.1495 -1.90726 -0.381317 0
M  V30 799 C 82.4325 -1.78965 3.12479 0
M  V30 800 C 82.2855 -0.924997 4.40186 0
M  V30 801 C 83.6045 -2.76774 3.42175 0
M  V30 802 H 80.7235 -0.343676 0.651963 0
M  V30 803 H 83.3655 -0.218253 1.88742 0
M  V30 804 H 81.5155 -2.41291 3.04485 0
M  V30 805 H 83.1875 -0.318615 4.60198 0
M  V30 806 H 81.4305 -0.230344 4.33188 0
M  V30 807 H 82.1015 -1.54735 5.29869 0
M  V30 808 H 84.5775 -2.24584 3.50287 0
M  V30 809 H 83.4535 -3.32678 4.36597 0
M  V30 810 H 83.7145 -3.54429 2.64258 0
M  V30 811 N 82.7736 -1.49793 -0.48987 0
M  V30 812 C 84.0216 -1.59525 -1.24081 0
M  V30 813 C 84.3426 -0.288953 -1.92847 0
M  V30 814 O 83.6126 0.692436 -1.83254 0
M  V30 815 H 82.1926 -0.587796 -0.460983 0
M  V30 816 H 84.8546 -1.86477 -0.566778 0
M  V30 817 H 83.9506 -2.39696 -1.99881 0
M  V30 818 N 84.2517 0.741722 -1.39055 0
M  V30 819 C 85.4997 1.49818 -1.35643 0
M  V30 820 C 85.8207 1.94938 0.0491642 0
M  V30 821 O 85.0907 1.68505 0.999141 0
M  V30 822 H 83.6707 0.555755 -0.499144 0
M  V30 823 H 86.3327 0.880957 -1.73854 0
M  V30 824 H 85.4287 2.38348 -2.01486 0
M  V30 825 N 85.7298 1.2412 0.971189 0
M  V30 826 C 86.9548 1.10667 1.75407 0
M  V30 827 C 87.3798 -0.337048 1.85056 0
M  V30 828 O 86.7378 -1.24396 1.31892 0
M  V30 829 C 86.7858 1.74726 3.15441 0
M  V30 830 O 85.8898 1.01566 3.99697 0
M  V30 831 H 85.2308 0.387341 0.539317 0
M  V30 832 H 87.7608 1.64358 1.2185 0
M  V30 833 H 87.7708 1.80341 3.6598 0
M  V30 834 H 86.4458 2.79773 3.07734 0
M  V30 835 H 85.0228 1.03713 3.58187 0
M  V30 836 N 87.2079 -1.17134 1.05439 0
M  V30 837 C 88.1709 -2.19439 0.661764 0
M  V30 838 C 89.1709 -1.58199 -0.288042 0
M  V30 839 O 90.3609 -1.74053 -0.0715803 0
M  V30 840 C 87.4929 -3.40889 -0.0276209 0
M  V30 841 H 88.6859 -2.55688 1.56728 0
M  V30 842 H 86.2389 -1.31259 0.848567 0
M  V30 843 H 86.9739 -3.10187 -0.94629 0
M  V30 844 H 86.7589 -3.86586 0.655238 0
M  V30 845 H 88.2489 -4.16603 -0.288342 0
M  V30 846 N 88.686 -0.835752 -1.33615 0
M  V30 847 C 90.097 -0.487099 -1.80234 0
M  V30 848 C 90.448 0.993627 -1.69179 0
M  V30 849 O 89.573 1.77403 -1.23924 0
M  V30 850 C 90.168 -0.877385 -3.27242 0
M  V30 851 C 88.727 -0.580915 -3.7189 0
M  V30 852 C 87.874 -1.0874 -2.5509 0
M  V30 853 H 90.825 -1.02474 -1.2118 0
M  V30 854 H 90.846 -0.186195 -3.80044 0
M  V30 855 H 90.358 -1.95512 -3.35256 0
M  V30 856 H 88.459 0.486881 -3.69405 0
M  V30 857 H 88.572 -1.13396 -4.65487 0
M  V30 858 H 86.936 -0.508392 -2.49575 0
M  V30 859 H 87.719 -2.17184 -2.65868 0
M  V30 860 N 90.1641 1.46063 -0.591896 0
M  V30 861 C 91.3891 2.07226 -0.0850314 0
M  V30 862 C 91.8141 1.43625 1.21463 0
M  V30 863 O 91.1721 0.523305 1.73583 0
M  V30 864 C 91.2201 3.60554 0.0576567 0
M  V30 865 O 90.3241 3.97128 1.11188 0
M  V30 866 H 89.6651 0.660615 -0.0669568 0
M  V30 867 H 92.1951 1.8756 -0.81745 0
M  V30 868 H 92.2051 4.07165 0.2609 0
M  V30 869 H 90.8801 4.06235 -0.891416 0
M  V30 870 H 89.4571 3.62213 0.886356 0
M  V30 871 N 91.6422 0.330177 1.54103 0
M  V30 872 C 92.5892 -0.532762 2.24567 0
M  V30 873 C 93.5592 -1.10635 1.23892 0
M  V30 874 O 94.7442 -1.14546 1.5259 0
M  V30 875 C 91.8842 -1.6845 3.01195 0
M  V30 876 C 90.9972 -1.13951 4.167 0
M  V30 877 C 90.1322 -2.25746 4.80845 0
M  V30 878 C 89.1712 -1.6853 5.88442 0
M  V30 879 N 88.3082 -2.74014 6.46421 0
M  V30 880 H 93.1482 0.0746905 2.97906 0
M  V30 881 H 90.6852 0.048632 1.4702 0
M  V30 882 H 92.6432 -2.36234 3.43874 0
M  V30 883 H 91.2732 -2.26314 2.30178 0
M  V30 884 H 90.3252 -0.35301 3.78758 0
M  V30 885 H 91.6372 -0.680892 4.94131 0
M  V30 886 H 90.7912 -3.01422 5.26526 0
M  V30 887 H 89.5302 -2.74947 4.0281 0
M  V30 888 H 88.5352 -0.913543 5.42157 0
M  V30 889 H 89.7602 -1.20198 6.68378 0
M  V30 890 H 87.7062 -3.22494 5.71256 0
M  V30 891 H 87.6232 -2.32735 7.19285 0
M  V30 892 H 88.8912 -3.49499 6.96757 0
M  V30 893 N 93.1203 -1.57491 0.0584922 0
M  V30 894 C 94.3663 -1.93264 -0.614558 0
M  V30 895 C 94.6993 -0.937717 -1.7006 0
M  V30 896 O 93.9743 0.0351652 -1.94468 0
M  V30 897 C 94.2573 -3.3938 -1.20386 0
M  V30 898 C 94.1103 -4.49625 -0.125375 0
M  V30 899 C 95.4293 -3.86039 -2.11334 0
M  V30 900 H 92.5483 -0.702791 -0.221933 0
M  V30 901 H 95.1903 -1.8961 0.12175 0
M  V30 902 H 93.3403 -3.42626 -1.83139 0
M  V30 903 H 95.0123 -4.58506 0.506971 0
M  V30 904 H 93.2553 -4.30354 0.545672 0
M  V30 905 H 93.9263 -5.48967 -0.577861 0
M  V30 906 H 96.4023 -3.84716 -1.58534 0
M  V30 907 H 95.2783 -4.88914 -2.49507 0
M  V30 908 H 95.5393 -3.23215 -3.01636 0
M  V30 909 N 94.5984 0.214957 -1.56127 0
M  V30 910 C 95.8384 0.945364 -1.81224 0
M  V30 911 C 96.2024 1.81265 -0.633005 0
M  V30 912 O 97.4034 2.57731 -0.763423 0
M  V30 913 C 95.6744 1.75665 -3.1125 0
M  V30 914 S 97.2334 2.54179 -3.57685 0
M  V30 915 H 94.0514 0.317443 -0.6362 0
M  V30 916 H 96.6534 0.210381 -1.94365 0
M  V30 917 H 95.3574 1.10977 -3.9511 0
M  V30 918 H 94.8884 2.53381 -3.00934 0
M  V30 919 H 96.9034 3.7792 -3.21545 0
M  V30 920 N 96.0765 1.50051 0.48192 0
M  V30 921 C 97.3255 1.59741 1.23149 0
M  V30 922 C 97.6385 0.298163 1.93314 0
M  V30 923 O 98.8445 0.273835 2.70116 0
M  V30 924 C 97.3005 2.81926 2.23708 0
M  V30 925 C 96.9085 4.18685 1.59396 0
M  V30 926 C 98.6525 3.00956 2.99375 0
M  V30 927 C 96.5595 5.3207 2.58178 0
M  V30 928 H 95.4895 0.594838 0.46334 0
M  V30 929 H 98.1405 1.76467 0.503169 0
M  V30 930 H 96.5225 2.58736 2.99786 0
M  V30 931 H 97.6965 4.52088 0.891811 0
M  V30 932 H 96.0115 4.05171 0.960503 0
M  V30 933 H 98.6085 3.82836 3.73283 0
M  V30 934 H 98.9515 2.12258 3.58123 0
M  V30 935 H 99.4845 3.24277 2.30411 0
M  V30 936 H 96.2235 6.22888 2.04184 0
M  V30 937 H 95.7435 5.03098 3.26577 0
M  V30 938 H 97.4225 5.62196 3.20225 0
M  V30 939 N 97.5546 -0.734337 1.39446 0
M  V30 940 C 98.8316 -1.48579 1.27215 0
M  V30 941 C 99.2116 -2.1077 -0.117968 0
M  V30 942 O 98.5596 -1.98646 -1.12924 0
M  V30 943 C 98.7696 -2.53667 2.39696 0
M  V30 944 C 100.118 -3.20031 2.79044 0
M  V30 945 O 101.142 -2.6398 2.39151 0
M  V30 946 O 100.001 -4.21455 3.47905 0
M  V30 947 H 97.0946 -0.659816 0.49857 0
M  V30 948 H 99.6406 -0.768106 1.51322 0
M  V30 949 H 98.4126 -2.06096 3.32626 0
M  V30 950 H 98.0356 -3.32994 2.17258 0
M  V30 951 N 99.0327 -1.24633 -0.964593 0
M  V30 952 C 100.273 -1.09981 -1.72289 0
M  V30 953 C 100.637 0.354792 -1.88693 0
M  V30 954 O 101.838 0.62289 -2.61483 0
M  V30 955 C 100.109 -1.82262 -3.07434 0
M  V30 956 S 101.668 -1.83379 -3.98645 0
M  V30 957 H 98.4857 -0.393292 -0.59232 0
M  V30 958 H 101.088 -1.58009 -1.15123 0
M  V30 959 H 99.7917 -2.87206 -2.93157 0
M  V30 960 H 99.3227 -1.3458 -3.69664 0
M  V30 961 H 101.338 -0.903691 -4.87901 0
M  V30 962 N 100.511 1.16574 -1.06058 0
M  V30 963 C 101.758 1.87047 -0.775873 0
M  V30 964 C 102.086 1.81562 0.697534 0
M  V30 965 O 101.341 1.22445 1.52662 0
M  V30 966 C 101.64 3.36195 -1.21275 0
M  V30 967 C 101.306 3.6188 -2.68986 0
M  V30 968 C 99.9678 3.68599 -3.09335 0
M  V30 969 C 102.32 3.72648 -3.64394 0
M  V30 970 C 99.6478 3.83584 -4.43937 0
M  V30 971 C 102 3.89154 -4.98741 0
M  V30 972 C 100.664 3.94114 -5.3873 0
M  V30 973 H 99.9338 0.684452 -0.283912 0
M  V30 974 H 102.581 1.37853 -1.32925 0
M  V30 975 H 100.886 3.87505 -0.578528 0
M  V30 976 H 102.583 3.89103 -0.969542 0
M  V30 977 H 99.1728 3.57281 -2.36744 0
M  V30 978 H 103.357 3.66769 -3.34356 0
M  V30 979 H 98.6128 3.85677 -4.74409 0
M  V30 980 H 102.787 3.96427 -5.72554 0
M  V30 981 H 100.414 4.05478 -6.43033 0
M  V30 982 N 101.989 0.842826 1.3317 0
M  V30 983 C 103.214 0.453129 2.02389 0
M  V30 984 C 103.639 -0.939105 1.6298 0
M  V30 985 O 102.997 -1.61472 0.8244 0
M  V30 986 C 103.045 0.586094 3.55805 0
M  V30 987 O 102.149 -0.386029 4.10589 0
M  V30 988 H 101.49 0.183664 0.638094 0
M  V30 989 H 104.02 1.13875 1.69981 0
M  V30 990 H 104.03 0.469209 4.05293 0
M  V30 991 H 102.705 1.6014 3.83833 0
M  V30 992 H 101.282 -0.226371 3.72212 0
M  V30 993 N 103.467 -1.45747 0.599634 0
M  V30 994 C 104.4 -2.27547 -0.172552 0
M  V30 995 C 105.378 -1.36657 -0.881116 0
M  V30 996 O 106.562 -1.66081 -0.891595 0
M  V30 997 C 103.689 -3.14829 -1.24903 0
M  V30 998 C 102.735 -4.21603 -0.644465 0
M  V30 999 S 103.568 -5.32754 0.541606 0
M  V30 1000 C 104.724 -6.23604 -0.535656 0
M  V30 1001 H 104.957 -2.92691 0.521468 0
M  V30 1002 H 102.49 -1.49473 0.386947 0
M  V30 1003 H 104.448 -3.65675 -1.86527 0
M  V30 1004 H 103.109 -2.48965 -1.91508 0
M  V30 1005 H 102.302 -4.82566 -1.45417 0
M  V30 1006 H 101.904 -3.73857 -0.103534 0
M  V30 1007 H 104.196 -6.62519 -1.41686 0
M  V30 1008 H 105.139 -7.0809 0.0376246 0
M  V30 1009 H 105.547 -5.58103 -0.84741 0
M  V30 1010 N 104.945 -0.338344 -1.53925 0
M  V30 1011 C 105.875 0.51328 -2.27789 0
M  V30 1012 C 106.856 1.107 -1.29149 0
M  V30 1013 O 108.041 1.12937 -1.57984 0
M  V30 1014 C 105.171 1.66697 -3.04679 0
M  V30 1015 C 104.125 1.20183 -4.1078 0
M  V30 1016 C 103.451 2.44363 -4.75595 0
M  V30 1017 C 104.751 0.30605 -5.21403 0
M  V30 1018 H 106.445 -0.102883 -2.99223 0
M  V30 1019 H 103.991 -0.0509219 -1.4391 0
M  V30 1020 H 105.944 2.26915 -3.55088 0
M  V30 1021 H 104.668 2.30995 -2.30887 0
M  V30 1022 H 103.327 0.622499 -3.61276 0
M  V30 1023 H 102.975 3.07057 -3.98403 0
M  V30 1024 H 102.675 2.13925 -5.47275 0
M  V30 1025 H 104.199 3.05317 -5.28786 0
M  V30 1026 H 105.613 0.814929 -5.67478 0
M  V30 1027 H 104.01 0.0937929 -6.00027 0
M  V30 1028 H 105.08 -0.65921 -4.80398 0
M  V30 1029 N 106.423 1.57458 -0.0668435 0
M  V30 1030 C 107.355 2.09413 0.931601 0
M  V30 1031 C 108.368 1.02522 1.26464 0
M  V30 1032 O 109.557 1.30049 1.22269 0
M  V30 1033 C 106.657 2.53537 2.24882 0
M  V30 1034 C 105.83 3.83944 2.09537 0
M  V30 1035 C 104.889 4.14214 3.2452 0
M  V30 1036 O 103.915 4.83891 2.9973 0
M  V30 1037 N 105.117 3.67367 4.49469 0
M  V30 1038 H 107.882 2.95699 0.488048 0
M  V30 1039 H 105.443 1.61462 0.119009 0
M  V30 1040 H 107.435 2.70853 3.00701 0
M  V30 1041 H 106.005 1.72415 2.60753 0
M  V30 1042 H 105.225 3.76057 1.18215 0
M  V30 1043 H 106.513 4.69312 1.96529 0
M  V30 1044 H 105.911 3.11068 4.72497 0
M  V30 1045 H 104.468 3.89891 5.2233 0
M  V30 1046 N 107.901 -0.206675 1.56239 0
M  V30 1047 C 109.126 -0.949474 1.8439 0
M  V30 1048 C 109.551 -1.76549 0.649016 0
M  V30 1049 O 108.909 -1.76782 -0.402231 0
M  V30 1050 C 108.957 -1.83078 3.10668 0
M  V30 1051 O 108.061 -2.9281 2.90407 0
M  V30 1052 H 107.402 -0.268033 0.607499 0
M  V30 1053 H 109.932 -0.215488 2.03462 0
M  V30 1054 H 109.942 -2.2377 3.41161 0
M  V30 1055 H 108.617 -1.23112 3.97261 0
M  V30 1056 H 107.194 -2.55956 2.71184 0
M  V30 1057 N 109.379 -1.50304 -0.473955 0
M  V30 1058 C 110.795 -1.37667 -0.807466 0
M  V30 1059 C 110.995 -0.430555 -1.96846 0
M  V30 1060 O 110.051 0.127874 -2.52176 0
M  V30 1061 C 111.364 -2.78974 -1.12223 0
M  V30 1062 C 112.912 -2.87868 -1.22885 0
M  V30 1063 C 113.387 -4.30003 -1.57676 0
M  V30 1064 N 114.878 -4.3294 -1.64673 0
M  V30 1065 C 115.613 -5.3991 -1.93091 0
M  V30 1066 N 115.109 -6.57092 -2.1955 0
M  V30 1067 N 116.902 -5.27351 -1.94569 0
M  V30 1068 H 109.053 -2.10394 0.291212 0
M  V30 1069 H 111.316 -0.945575 0.0677609 0
M  V30 1070 H 111.022 -3.50031 -0.342229 0
M  V30 1071 H 110.896 -3.16038 -2.05913 0
M  V30 1072 H 113.283 -2.17032 -1.99953 0
M  V30 1073 H 113.364 -2.54352 -0.271814 0
M  V30 1074 H 113.008 -5.01375 -0.81149 0
M  V30 1075 H 112.938 -4.61004 -2.54525 0
M  V30 1076 H 115.429 -3.48441 -1.46277 0
M  V30 1077 H 115.742 -7.34425 -2.405 0
M  V30 1078 H 114.087 -6.60272 -2.16948 0
M  V30 1079 H 117.278 -4.34801 -1.73394 0
M  V30 1080 H 117.451 -6.10805 -2.16381 0
M  V30 1081 N 110.857 0.726932 -1.39834 0
M  V30 1082 C 112.273 1.03354 -1.21615 0
M  V30 1083 C 112.473 2.01327 -0.08338 0
M  V30 1084 O 111.529 2.46158 0.56238 0
M  V30 1085 C 112.842 1.58811 -2.55342 0
M  V30 1086 C 114.39 1.70851 -2.62257 0
M  V30 1087 C 114.865 2.29716 -3.96225 0
M  V30 1088 N 116.356 2.37116 -3.97907 0
M  V30 1089 C 117.091 2.83619 -4.98345 0
M  V30 1090 N 116.587 3.29958 -6.09179 0
M  V30 1091 N 118.38 2.82901 -4.8572 0
M  V30 1092 H 110.531 0.0773069 -2.12259 0
M  V30 1093 H 112.794 0.0969102 -0.943034 0
M  V30 1094 H 112.5 0.942855 -3.38826 0
M  V30 1095 H 112.374 2.57502 -2.75632 0
M  V30 1096 H 114.761 2.34497 -1.79152 0
M  V30 1097 H 114.842 0.707913 -2.45809 0
M  V30 1098 H 114.486 1.66696 -4.79765 0
M  V30 1099 H 114.416 3.30469 -4.09997 0
M  V30 1100 H 116.907 2.04374 -3.17868 0
M  V30 1101 H 117.22 3.63976 -6.8172 0
M  V30 1102 H 115.565 3.27946 -6.12761 0
M  V30 1103 H 118.756 2.46027 -3.98231 0
M  V30 1104 H 118.929 3.18827 -5.6414 0
M  V30 1105 N 112.336 1.25143 0.95797 0
M  V30 1106 C 113.752 1.01892 1.22842 0
M  V30 1107 C 113.952 -0.266311 1.99732 0
M  V30 1108 O 113.008 -0.979913 2.3271 0
M  V30 1109 C 114.321 2.24004 2.00606 0
M  V30 1110 C 115.869 2.28731 2.13662 0
M  V30 1111 C 116.344 3.5049 2.94823 0
M  V30 1112 N 117.835 3.50866 3.02403 0
M  V30 1113 C 118.57 4.4174 3.65586 0
M  V30 1114 N 118.066 5.42882 4.30408 0
M  V30 1115 N 119.859 4.29429 3.62694 0
M  V30 1116 H 112.01 2.07718 0.443493 0
M  V30 1117 H 114.273 0.912031 0.258657 0
M  V30 1118 H 113.979 3.17395 1.51503 0
M  V30 1119 H 113.853 2.26907 3.01319 0
M  V30 1120 H 116.24 1.35865 2.61963 0
M  V30 1121 H 116.321 2.29848 1.12265 0
M  V30 1122 H 115.965 4.43676 2.47213 0
M  V30 1123 H 115.895 3.46617 3.96439 0
M  V30 1124 H 118.386 2.777 2.56302 0
M  V30 1125 H 118.699 6.0844 4.76467 0
M  V30 1126 H 117.044 5.46758 4.29047 0
M  V30 1127 H 120.235 3.49643 3.11236 0
M  V30 1128 H 120.408 5.00448 4.1165 0
M  V30 1129 N 113.814 -1.1601 1.06675 0
M  V30 1130 C 115.06 -1.86909 0.786945 0
M  V30 1131 C 115.393 -1.81717 -0.685018 0
M  V30 1132 O 114.668 -1.23551 -1.50218 0
M  V30 1133 C 114.951 -3.36313 1.28707 0
M  V30 1134 C 114.804 -3.50175 2.82308 0
M  V30 1135 C 116.123 -4.3084 0.898071 0
M  V30 1136 H 113.242 -0.678677 0.287343 0
M  V30 1137 H 115.884 -1.36336 1.32334 0
M  V30 1138 H 114.034 -3.79513 0.830768 0
M  V30 1139 H 115.706 -3.15886 3.36175 0
M  V30 1140 H 113.949 -2.91959 3.20847 0
M  V30 1141 H 114.62 -4.55116 3.12368 0
M  V30 1142 H 117.096 -3.95561 1.29114 0
M  V30 1143 H 115.972 -5.33876 1.27543 0
M  V30 1144 H 116.233 -4.41662 -0.196651 0
M  V30 1145 N 115.292 -0.849877 -1.32721 0
M  V30 1146 C 116.202 -0.293791 -2.32753 0
M  V30 1147 C 117.218 0.585906 -1.63839 0
M  V30 1148 O 118.394 0.487413 -1.95413 0
M  V30 1149 C 115.459 0.512752 -3.42887 0
M  V30 1150 C 114.52 -0.39252 -4.27502 0
M  V30 1151 C 113.753 0.375625 -5.32377 0
M  V30 1152 O 113.976 1.60613 -5.4732 0
M  V30 1153 O 112.91 -0.256094 -6.01355 0
M  V30 1154 H 116.736 -1.12242 -2.82197 0
M  V30 1155 H 114.321 -0.612685 -1.36259 0
M  V30 1156 H 116.203 0.970704 -4.10067 0
M  V30 1157 H 114.878 1.31826 -2.95641 0
M  V30 1158 H 113.785 -0.898547 -3.63149 0
M  V30 1159 H 115.118 -1.16309 -4.7826 0
M  V30 1160 N 116.77 1.45427 -0.607355 0
M  V30 1161 C 118.181 1.85756 -0.187535 0
M  V30 1162 C 118.532 1.5077 1.25551 0
M  V30 1163 O 117.657 0.93427 1.95193 0
M  V30 1164 C 118.252 3.37154 -0.333572 0
M  V30 1165 C 116.811 3.76387 0.0315542 0
M  V30 1166 C 115.958 2.69377 -0.658117 0
M  V30 1167 H 118.909 1.36231 -0.81405 0
M  V30 1168 H 118.93 3.78014 0.43428 0
M  V30 1169 H 118.442 3.62586 -1.38393 0
M  V30 1170 H 116.543 3.56571 1.0811 0
M  V30 1171 H 116.656 4.77731 -0.361935 0
M  V30 1172 H 115.02 2.5452 -0.0957873 0
M  V30 1173 H 115.803 2.97646 -1.7106 0
M  V30 1174 N 118.248 0.346503 1.53744 0
M  V30 1175 C 119.525 -0.304532 1.93215 0
M  V30 1176 C 119.905 -1.67993 1.27834 0
M  V30 1177 O 119.253 -2.24411 0.430352 0
M  V30 1178 C 119.463 -0.373852 3.46992 0
M  V30 1179 C 120.811 -0.62329 4.2 0
M  V30 1180 O 121.835 -0.455847 3.53271 0
M  V30 1181 O 120.694 -0.947879 5.38217 0
M  V30 1182 H 117.788 -0.178318 0.807547 0
M  V30 1183 H 120.334 0.397895 1.64969 0
M  V30 1184 H 119.106 0.591224 3.86808 0
M  V30 1185 H 118.729 -1.12294 3.81413 0
M  V30 1186 N 119.726 -1.57421 0.075193 0
M  V30 1187 C 120.636 -2.1642 -0.905511 0
M  V30 1188 C 121.652 -1.12828 -1.32461 0
M  V30 1189 O 122.828 -1.45109 -1.39661 0
M  V30 1190 C 119.893 -2.71693 -2.15369 0
M  V30 1191 C 118.954 -3.90171 -1.79068 0
M  V30 1192 C 118.187 -4.42798 -2.97936 0
M  V30 1193 O 118.41 -3.94416 -4.12058 0
M  V30 1194 O 117.344 -5.34085 -2.77555 0
M  V30 1195 H 121.17 -3.00588 -0.433626 0
M  V30 1196 H 118.755 -1.48664 -0.148067 0
M  V30 1197 H 120.637 -3.07104 -2.88557 0
M  V30 1198 H 119.312 -1.90582 -2.61649 0
M  V30 1199 H 118.219 -3.59606 -1.03122 0
M  V30 1200 H 119.552 -4.72584 -1.37569 0
M  V30 1201 N 121.204 0.198386 -1.56346 0
M  V30 1202 C 122.452 0.91747 -1.80075 0
M  V30 1203 C 122.773 1.83929 -0.647692 0
M  V30 1204 O 122.043 1.93029 0.334166 0
M  V30 1205 H 120.623 0.341774 -0.664228 0
M  V30 1206 H 123.285 0.204684 -1.93822 0
M  V30 1207 H 122.381 1.51055 -2.7311 0
M  V30 1208 N 122.682 1.50554 0.465978 0
M  V30 1209 C 123.907 1.65838 1.24549 0
M  V30 1210 C 124.332 0.343486 1.84937 0
M  V30 1211 O 123.69 -0.69324 1.67523 0
M  V30 1212 C 123.738 2.75533 2.32624 0
M  V30 1213 O 122.842 2.37142 3.37398 0
M  V30 1214 H 122.183 0.553893 0.366194 0
M  V30 1215 H 124.713 1.96959 0.553927 0
M  V30 1216 H 124.723 2.98763 2.77857 0
M  V30 1217 H 123.398 3.70962 1.88043 0
M  V30 1218 H 121.975 2.24377 2.97841 0
M  V30 1219 N 124.16 -0.719506 1.40217 0
M  V30 1220 C 125.385 -1.51371 1.4178 0
M  V30 1221 C 125.81 -1.88091 0.0182355 0
M  V30 1222 O 125.168 -1.52997 -0.972707 0
M  V30 1223 C 125.216 -2.768 2.31115 0
M  V30 1224 O 124.32 -3.73349 1.7517 0
M  V30 1225 H 123.661 -0.456529 0.482159 0
M  V30 1226 H 126.191 -0.88644 1.844 0
M  V30 1227 H 126.201 -3.25371 2.46167 0
M  V30 1228 H 124.876 -2.49407 3.3282 0
M  V30 1229 H 123.453 -3.32179 1.69444 0
M  V30 1230 N 125.638 -1.25649 -0.95132 0
M  V30 1231 C 126.885 -1.10594 -1.69633 0
M  V30 1232 C 127.213 0.352515 -1.91279 0
M  V30 1233 O 126.468 1.27601 -1.4838 0
M  V30 1234 C 126.767 -1.80909 -3.08231 0
M  V30 1235 C 126.433 -3.30825 -3.06375 0
M  V30 1236 C 125.095 -3.71722 -3.05576 0
M  V30 1237 C 127.447 -4.26589 -2.99452 0
M  V30 1238 C 124.775 -5.06788 -2.95606 0
M  V30 1239 C 127.127 -5.61683 -2.91024 0
M  V30 1240 C 125.791 -6.01904 -2.88562 0
M  V30 1241 H 125.061 -0.404691 -0.620731 0
M  V30 1242 H 127.708 -1.55964 -1.11119 0
M  V30 1243 H 126.013 -1.27979 -3.70309 0
M  V30 1244 H 127.71 -1.6671 -3.64704 0
M  V30 1245 H 124.3 -2.98287 -3.07771 0
M  V30 1246 H 128.484 -3.95982 -2.99185 0
M  V30 1247 H 123.74 -5.37126 -2.92071 0
M  V30 1248 H 127.914 -6.35578 -2.84629 0
M  V30 1249 H 125.541 -7.06521 -2.80593 0
M  V30 1250 N 127.117 1.15442 -1.07289 0
M  V30 1251 C 128.533 1.38201 -0.798288 0
M  V30 1252 C 128.733 1.92429 0.597769 0
M  V30 1253 O 127.789 2.12962 1.3566 0
M  V30 1254 C 129.102 2.35357 -1.87156 0
M  V30 1255 C 130.65 2.49021 -1.89624 0
M  V30 1256 C 131.125 3.49468 -2.96034 0
M  V30 1257 N 132.616 3.57003 -2.95132 0
M  V30 1258 C 133.351 4.34543 -3.74112 0
M  V30 1259 N 132.847 5.15421 -4.6294 0
M  V30 1260 N 134.64 4.29625 -3.62462 0
M  V30 1261 H 126.791 0.78584 -1.97328 0
M  V30 1262 H 129.054 0.408065 -0.855679 0
M  V30 1263 H 128.76 2.02626 -2.87464 0
M  V30 1264 H 128.634 3.35129 -1.73114 0
M  V30 1265 H 131.021 2.81051 -0.899687 0
M  V30 1266 H 131.102 1.4925 -2.07745 0
M  V30 1267 H 130.746 3.18173 -3.95889 0
M  V30 1268 H 130.676 4.48992 -2.75161 0
M  V30 1269 H 133.167 2.99276 -2.30743 0
M  V30 1270 H 133.48 5.7183 -5.19837 0
M  V30 1271 H 131.825 5.14729 -4.66989 0
M  V30 1272 H 135.016 3.65505 -2.92444 0
M  V30 1273 H 135.189 4.89807 -4.24256 0
M  V30 1274 N 128.595 0.856903 1.32268 0
M  V30 1275 C 129.505 0.306131 2.32594 0
M  V30 1276 C 130.521 -0.577209 1.64147 0
M  V30 1277 O 131.697 -0.477043 1.95669 0
M  V30 1278 C 128.762 -0.494561 3.43154 0
M  V30 1279 C 127.823 0.415186 4.27288 0
M  V30 1280 C 127.056 -0.347387 5.32568 0
M  V30 1281 O 127.279 -1.57708 5.48165 0
M  V30 1282 O 126.213 0.287982 6.01211 0
M  V30 1283 H 130.039 1.13737 2.81598 0
M  V30 1284 H 127.624 0.619902 1.35932 0
M  V30 1285 H 129.506 -0.948944 4.10576 0
M  V30 1286 H 128.181 -1.30257 2.96336 0
M  V30 1287 H 127.088 0.917793 3.62667 0
M  V30 1288 H 128.421 1.18844 4.77637 0
M  V30 1289 N 130.073 -1.45103 0.615059 0
M  V30 1290 C 131.32 -2.02183 0.113179 0
M  V30 1291 C 131.648 -1.48249 -1.25906 0
M  V30 1292 O 130.903 -0.650265 -1.84581 0
M  V30 1293 C 131.202 -3.57386 0.0318797 0
M  V30 1294 C 130.868 -4.30505 1.34077 0
M  V30 1295 C 129.53 -4.50197 1.69929 0
M  V30 1296 C 131.882 -4.72238 2.20546 0
M  V30 1297 C 129.21 -5.08881 2.91988 0
M  V30 1298 C 131.562 -5.32272 3.41861 0
M  V30 1299 C 130.226 -5.50187 3.77956 0
M  V30 1300 H 129.496 -0.739842 0.0414151 0
M  V30 1301 H 132.143 -1.74073 0.798168 0
M  V30 1302 H 130.448 -3.84817 -0.736409 0
M  V30 1303 H 132.145 -3.99264 -0.372712 0
M  V30 1304 H 128.735 -4.15496 1.05173 0
M  V30 1305 H 132.919 -4.56751 1.94146 0
M  V30 1306 H 128.175 -5.20939 3.2005 0
M  V30 1307 H 132.349 -5.63563 4.09109 0
M  V30 1308 H 129.976 -5.95427 4.72622 0
M  V30 1309 N 131.551 -0.354651 -1.53558 0
M  V30 1310 C 132.499 0.512195 -2.26891 0
M  V30 1311 C 133.493 1.09263 -1.29452 0
M  V30 1312 O 134.699 1.03709 -1.47121 0
M  V30 1313 H 131.074 0.183878 -0.729173 0
M  V30 1314 H 133.045 -0.128202 -2.98124 0
M  V30 1315 C 131.794 1.64563 -3.06291 0
M  V30 1316 H 131.117 1.20829 -3.81104 0
M  V30 1317 H 132.557 2.22711 -3.60799 0
M  V30 1318 C 131.016 2.58158 -2.16462 0
M  V30 1319 O 131.546 3.60695 -1.76811 0
M  V30 1320 N 129.752 2.27096 -1.81317 0
M  V30 1321 H 129.299 1.43751 -2.1376 0
M  V30 1322 H 129.257 2.89975 -1.21498 0
M  V30 1323 N 133.029 1.57378 -0.0835403 0
M  V30 1324 C 133.992 2.12252 0.864959 0
M  V30 1325 C 134.992 1.04916 1.21858 0
M  V30 1326 O 136.182 1.30853 1.14991 0
M  V30 1327 C 133.314 2.63358 2.16461 0
M  V30 1328 H 134.507 2.97371 0.388676 0
M  V30 1329 H 132.06 1.55423 0.165317 0
M  V30 1330 H 132.795 1.81727 2.686 0
M  V30 1331 H 132.58 3.41826 1.92087 0
M  V30 1332 H 134.07 3.05847 2.84337 0
M  V30 1333 N 134.507 -0.190092 1.56449 0
M  V30 1334 C 135.47 -1.21925 1.9408 0
M  V30 1335 C 136.47 -1.38176 0.822431 0
M  V30 1336 O 137.66 -1.35903 1.08977 0
M  V30 1337 C 134.792 -2.58773 2.21922 0
M  V30 1338 H 135.985 -0.897464 2.86157 0
M  V30 1339 H 133.538 -0.43181 1.50217 0
M  V30 1340 H 134.273 -2.95998 1.32499 0
M  V30 1341 H 134.058 -2.48348 3.03424 0
M  V30 1342 H 135.548 -3.32978 2.52022 0
M  V30 1343 N 135.985 -1.50799 -0.457987 0
M  V30 1344 C 137.21 -1.66496 -1.23668 0
M  V30 1345 C 137.635 -0.353288 -1.84752 0
M  V30 1346 O 136.993 0.684346 -1.67888 0
M  V30 1347 C 137.041 -2.76763 -2.3116 0
M  V30 1348 O 136.145 -2.38928 -3.36136 0
M  V30 1349 H 135.486 -0.555828 -0.363252 0
M  V30 1350 H 138.016 -1.9725 -0.543474 0
M  V30 1351 H 138.026 -3.00232 -2.76269 0
M  V30 1352 H 136.701 -3.71954 -1.86073 0
M  V30 1353 H 135.278 -2.25953 -2.96647 0
M  V30 1354 N 137.463 0.71206 -1.40597 0
M  V30 1355 C 138.426 1.80785 -1.40888 0
M  V30 1356 C 139.426 1.57937 -0.302103 0
M  V30 1357 O 140.616 1.64913 -0.561182 0
M  V30 1358 C 137.748 3.18927 -1.20409 0
M  V30 1359 H 138.941 1.81924 -2.38419 0
M  V30 1360 H 136.494 0.91805 -1.26497 0
M  V30 1361 H 137.229 3.23436 -0.236522 0
M  V30 1362 H 137.014 3.36911 -2.00582 0
M  V30 1363 H 138.504 3.98949 -1.23408 0
M  V30 1364 N 138.941 1.26152 0.944643 0
M  V30 1365 C 140.188 1.11492 1.69044 0
M  V30 1366 C 140.516 -0.342366 1.91463 0
M  V30 1367 O 139.771 -1.26812 1.49054 0
M  V30 1368 C 140.07 1.82541 3.07268 0
M  V30 1369 C 139.736 3.32445 3.04616 0
M  V30 1370 C 138.398 3.73337 3.036 0
M  V30 1371 C 140.75 4.28171 2.97185 0
M  V30 1372 C 138.078 5.08348 2.92915 0
M  V30 1373 C 140.43 5.63218 2.88041 0
M  V30 1374 C 139.094 6.03426 2.85366 0
M  V30 1375 H 138.364 0.407977 0.618576 0
M  V30 1376 H 141.011 1.56551 1.10291 0
M  V30 1377 H 139.316 1.29941 3.69625 0
M  V30 1378 H 141.013 1.68642 3.63815 0
M  V30 1379 H 137.603 2.99915 3.06185 0
M  V30 1380 H 141.787 3.97563 2.97081 0
M  V30 1381 H 137.043 5.38667 2.89219 0
M  V30 1382 H 141.217 6.37078 2.81254 0
M  V30 1383 H 138.844 7.07999 2.76842 0
M  V30 1384 N 140.419 -1.14872 1.07899 0
M  V30 1385 C 141.83 -1.67367 0.827363 0
M  V30 1386 C 142.181 -1.85236 -0.646693 0
M  V30 1387 O 141.306 -1.55974 -1.50004 0
M  V30 1388 C 141.901 -3.04016 1.49532 0
M  V30 1389 C 140.46 -3.53566 1.29106 0
M  V30 1390 C 139.607 -2.29161 1.56143 0
M  V30 1391 H 142.558 -0.990083 1.24028 0
M  V30 1392 H 142.579 -3.69219 0.919643 0
M  V30 1393 H 142.091 -2.90978 2.56814 0
M  V30 1394 H 140.192 -3.71835 0.238713 0
M  V30 1395 H 140.305 -4.34661 2.01511 0
M  V30 1396 H 138.669 -2.34978 0.982717 0
M  V30 1397 H 139.452 -2.18705 2.64619 0
M  V30 1398 N 141.898 -0.863906 -1.31812 0
M  V30 1399 C 142.828 -0.330843 -2.31144 0
M  V30 1400 C 143.809 0.575005 -1.60087 0
M  V30 1401 O 144.994 0.493304 -1.8783 0
M  V30 1402 C 142.124 0.47374 -3.44054 0
M  V30 1403 C 141.078 -0.338481 -4.26659 0
M  V30 1404 C 140.404 0.591412 -5.31419 0
M  V30 1405 C 141.704 -1.56926 -4.98168 0
M  V30 1406 H 143.398 -1.16086 -2.75979 0
M  V30 1407 H 140.944 -0.559657 -1.32679 0
M  V30 1408 H 142.897 0.857143 -4.12591 0
M  V30 1409 H 141.621 1.33721 -2.9797 0
M  V30 1410 H 140.28 -0.703754 -3.59782 0
M  V30 1411 H 139.928 1.45199 -4.81587 0
M  V30 1412 H 139.628 0.0519022 -5.87577 0
M  V30 1413 H 141.152 0.97179 -6.02817 0
M  V30 1414 H 142.566 -1.25764 -5.59336 0
M  V30 1415 H 140.963 -2.04739 -5.64094 0
M  V30 1416 H 142.033 -2.32544 -4.25501 0
M  V30 1417 N 143.376 1.44774 -0.622745 0
M  V30 1418 C 144.308 2.28856 0.125485 0
M  V30 1419 C 145.321 1.40811 0.817069 0
M  V30 1420 O 146.51 1.65044 0.679918 0
M  V30 1421 C 143.61 3.16963 1.19949 0
M  V30 1422 C 142.783 4.33374 0.592064 0
M  V30 1423 C 141.842 5.02577 1.55893 0
M  V30 1424 O 140.868 5.58873 1.07933 0
M  V30 1425 N 142.07 5.03256 2.89334 0
M  V30 1426 H 144.835 2.93713 -0.596068 0
M  V30 1427 H 142.396 1.55129 -0.463303 0
M  V30 1428 H 144.388 3.60123 1.84644 0
M  V30 1429 H 142.958 2.53913 1.82337 0
M  V30 1430 H 142.178 3.93509 -0.233322 0
M  V30 1431 H 143.466 5.08527 0.166738 0
M  V30 1432 H 142.864 4.58836 3.30887 0
M  V30 1433 H 141.421 5.50232 3.49412 0
M  V30 1434 N 144.854 0.36279 1.53368 0
M  V30 1435 C 146.082 -0.228613 2.05633 0
M  V30 1436 C 146.497 -1.42676 1.23649 0
M  V30 1437 O 145.854 -1.80394 0.27647 0
M  V30 1438 C 145.905 -0.624845 3.56059 0
M  V30 1439 O 145.626 0.525675 4.34935 0
M  V30 1440 C 147.127 -1.27493 4.24571 0
M  V30 1441 H 144.347 -0.0407183 0.669763 0
M  V30 1442 H 146.891 0.520352 1.97769 0
M  V30 1443 H 145.046 -1.32373 3.64083 0
M  V30 1444 H 145.46 0.205969 5.24095 0
M  V30 1445 H 146.934 -1.50277 5.31151 0
M  V30 1446 H 147.411 -2.23439 3.78116 0
M  V30 1447 H 148.017 -0.617558 4.20792 0
M  V30 1448 N 146.332 -1.57332 0.0918853 0
M  V30 1449 C 147.748 -1.57389 -0.264766 0
M  V30 1450 C 147.948 -1.10281 -1.68643 0
M  V30 1451 O 147.004 -0.777801 -2.40222 0
M  V30 1452 C 148.317 -3.00648 -0.0561195 0
M  V30 1453 C 149.865 -3.12754 -0.124116 0
M  V30 1454 C 150.34 -4.57965 0.0564972 0
M  V30 1455 N 151.831 -4.632 0.00155611 0
M  V30 1456 C 152.566 -5.73281 0.116598 0
M  V30 1457 N 152.062 -6.92208 0.286294 0
M  V30 1458 N 153.855 -5.6207 0.0580973 0
M  V30 1459 H 146.006 -1.86262 1.02079 0
M  V30 1460 H 148.269 -0.859579 0.399786 0
M  V30 1461 H 147.975 -3.393 0.925669 0
M  V30 1462 H 147.849 -3.68623 -0.799823 0
M  V30 1463 H 150.236 -2.73976 -1.09641 0
M  V30 1464 H 150.317 -2.47377 0.651024 0
M  V30 1465 H 149.961 -4.97436 1.02564 0
M  V30 1466 H 149.891 -5.21399 -0.738297 0
M  V30 1467 H 152.382 -3.77686 -0.127192 0
M  V30 1468 H 152.695 -7.71934 0.365676 0
M  V30 1469 H 151.04 -6.94254 0.32192 0
M  V30 1470 H 154.231 -4.68043 -0.0733204 0
M  V30 1471 H 154.404 -6.47824 0.151203 0
M  V30 1472 N 147.81 0.181792 -1.56548 0
M  V30 1473 C 148.74 1.22765 -1.98623 0
M  V30 1474 C 149.721 1.46747 -0.860189 0
M  V30 1475 O 150.906 1.58259 -1.12551 0
M  V30 1476 C 148.036 2.56894 -2.33715 0
M  V30 1477 C 146.99 2.475 -3.49182 0
M  V30 1478 C 146.316 3.86023 -3.69986 0
M  V30 1479 C 147.616 1.98866 -4.82959 0
M  V30 1480 H 149.31 0.877942 -2.86239 0
M  V30 1481 H 146.856 0.42088 -1.37712 0
M  V30 1482 H 148.809 3.30253 -2.61746 0
M  V30 1483 H 147.533 2.93632 -1.42997 0
M  V30 1484 H 146.192 1.76596 -3.21262 0
M  V30 1485 H 145.84 4.20136 -2.76576 0
M  V30 1486 H 145.54 3.80609 -4.47672 0
M  V30 1487 H 147.064 4.60984 -4.00407 0
M  V30 1488 H 148.478 2.61992 -5.09934 0
M  V30 1489 H 146.875 2.04424 -5.64208 0
M  V30 1490 H 147.945 0.942465 -4.75653 0
M  V30 1491 N 149.288 1.51039 0.449983 0
M  V30 1492 C 150.218 1.74379 1.55288 0
M  V30 1493 C 151.199 0.593236 1.5942 0
M  V30 1494 O 152.384 0.834625 1.7535 0
M  V30 1495 C 149.514 1.85728 2.93466 0
M  V30 1496 C 148.468 3.01078 3.04197 0
M  V30 1497 C 147.794 2.97595 4.44231 0
M  V30 1498 C 149.094 4.41254 2.7945 0
M  V30 1499 H 150.788 2.66725 1.36008 0
M  V30 1500 H 148.334 1.2835 0.652864 0
M  V30 1501 H 150.287 2.0064 3.70569 0
M  V30 1502 H 149.011 0.900207 3.13949 0
M  V30 1503 H 147.67 2.85851 2.29531 0
M  V30 1504 H 147.318 1.99691 4.61663 0
M  V30 1505 H 147.018 3.75046 4.52343 0
M  V30 1506 H 148.542 3.14583 5.23326 0
M  V30 1507 H 149.956 4.56897 3.46292 0
M  V30 1508 H 148.353 5.20315 2.98985 0
M  V30 1509 H 149.423 4.52164 1.75144 0
M  V30 1510 N 150.766 -0.704594 1.40972 0
M  V30 1511 C 151.729 -1.80035 1.41845 0
M  V30 1512 C 152.729 -1.57774 0.310474 0
M  V30 1513 O 153.919 -1.64613 0.56992 0
M  V30 1514 C 151.051 -3.18284 1.22098 0
M  V30 1515 H 152.244 -1.80658 2.3938 0
M  V30 1516 H 149.797 -0.911329 1.26982 0
M  V30 1517 H 150.532 -3.23306 0.253672 0
M  V30 1518 H 150.317 -3.35843 2.02366 0
M  V30 1519 H 151.807 -3.98289 1.25522 0
M  V30 1520 N 152.244 -1.26651 -0.937939 0
M  V30 1521 C 153.521 -1.0313 -1.66204 0
M  V30 1522 C 153.901 0.437256 -2.06522 0
M  V30 1523 O 153.249 1.41831 -1.79154 0
M  V30 1524 C 153.459 -1.98314 -2.87181 0
M  V30 1525 C 154.807 -2.27107 -3.58758 0
M  V30 1526 O 155.831 -1.96205 -2.97291 0
M  V30 1527 O 154.69 -2.79736 -4.69479 0
M  V30 1528 H 151.784 -0.392384 -0.727986 0
M  V30 1529 H 154.33 -1.37874 -0.989382 0
M  V30 1530 H 153.102 -2.97399 -2.54302 0
M  V30 1531 H 152.725 -1.64068 -3.6217 0
M  V30 1532 N 153.722 1.14298 -1.08507 0
M  V30 1533 C 154.97 1.84993 -0.813763 0
M  V30 1534 C 155.291 1.83405 0.662393 0
M  V30 1535 O 154.561 1.28319 1.48024 0
M  V30 1536 H 153.141 0.684966 -0.298045 0
M  V30 1537 H 155.803 1.385 -1.37126 0
M  V30 1538 H 154.899 2.89788 -1.15884 0
M  V30 1539 N 155.201 0.870884 1.31352 0
M  V30 1540 C 156.617 0.562932 1.49343 0
M  V30 1541 C 156.817 -0.902725 1.80148 0
M  V30 1542 O 155.873 -1.68484 1.88067 0
M  V30 1543 C 157.186 1.46393 2.62659 0
M  V30 1544 C 158.734 1.46607 2.76542 0
M  V30 1545 C 159.209 2.35266 3.92955 0
M  V30 1546 N 160.7 2.33151 4.00243 0
M  V30 1547 C 161.435 2.98471 4.89594 0
M  V30 1548 N 160.931 3.72964 5.8384 0
M  V30 1549 N 162.724 2.87775 4.82848 0
M  V30 1550 H 154.875 1.81923 1.09626 0
M  V30 1551 H 157.138 0.777934 0.541777 0
M  V30 1552 H 156.844 2.50689 2.46674 0
M  V30 1553 H 156.718 1.16314 3.58819 0
M  V30 1554 H 159.105 0.43069 2.9194 0
M  V30 1555 H 159.186 1.8071 1.81046 0
M  V30 1556 H 158.83 3.38881 3.78315 0
M  V30 1557 H 158.76 1.98487 4.87761 0
M  V30 1558 H 161.251 1.79006 3.32814 0
M  V30 1559 H 161.564 4.19932 6.4875 0
M  V30 1560 H 159.909 3.77073 5.83816 0
M  V30 1561 H 163.1 2.29116 4.08195 0
M  V30 1562 H 163.273 3.38961 5.52277 0
M  V30 1563 N 156.679 -1.44442 0.630414 0
M  V30 1564 C 157.925 -2.02351 0.134816 0
M  V30 1565 C 158.258 -1.4947 -1.23986 0
M  V30 1566 O 157.533 -0.678475 -1.82283 0
M  V30 1567 C 157.816 -3.59898 0.120707 0
M  V30 1568 C 157.669 -4.23063 1.52767 0
M  V30 1569 C 158.988 -4.36585 -0.555127 0
M  V30 1570 H 156.107 -0.73527 0.0504646 0
M  V30 1571 H 158.749 -1.72022 0.806751 0
M  V30 1572 H 156.899 -3.85868 -0.451477 0
M  V30 1573 H 158.571 -4.08202 2.14869 0
M  V30 1574 H 156.814 -3.80586 2.08175 0
M  V30 1575 H 157.485 -5.32071 1.46984 0
M  V30 1576 H 159.961 -4.16044 -0.0685429 0
M  V30 1577 H 158.837 -5.46294 -0.534185 0
M  V30 1578 H 159.098 -4.11138 -1.62535 0
M  V30 1579 N 158.157 -0.370918 -1.53173 0
M  V30 1580 C 159.067 0.480823 -2.2962 0
M  V30 1581 C 160.083 1.08789 -1.35798 0
M  V30 1582 O 161.259 1.09768 -1.68858 0
M  V30 1583 C 158.324 1.60227 -3.07454 0
M  V30 1584 C 157.385 1.0222 -4.16953 0
M  V30 1585 C 156.618 2.0902 -4.91066 0
M  V30 1586 O 156.841 3.30222 -4.65091 0
M  V30 1587 O 155.775 1.71778 -5.76867 0
M  V30 1588 H 159.601 -0.141421 -3.03371 0
M  V30 1589 H 157.186 -0.135146 -1.48787 0
M  V30 1590 H 159.068 2.25417 -3.56041 0
M  V30 1591 H 157.743 2.20982 -2.36535 0
M  V30 1592 H 156.65 0.334064 -3.72605 0
M  V30 1593 H 157.983 0.459131 -4.90054 0
M  V30 1594 N 159.635 1.57281 -0.100228 0
M  V30 1595 C 160.86 1.99302 0.573881 0
M  V30 1596 C 161.285 0.979059 1.60611 0
M  V30 1597 O 160.643 -0.0517803 1.81226 0
M  V30 1598 C 160.691 3.40274 1.19358 0
M  V30 1599 O 159.795 3.41676 2.30935 0
M  V30 1600 H 159.136 0.647944 0.145138 0
M  V30 1601 H 161.666 2.03779 -0.183156 0
M  V30 1602 H 161.676 3.78078 1.53365 0
M  V30 1603 H 160.351 4.13594 0.437385 0
M  V30 1604 H 158.928 3.15672 1.98509 0
M  V30 1605 N 161.113 -0.173488 1.56642 0
M  V30 1606 C 162.361 -0.888706 1.81512 0
M  V30 1607 C 162.682 -1.82875 0.676872 0
M  V30 1608 O 161.952 -1.93536 -0.303414 0
M  V30 1609 H 160.532 -0.331164 0.669582 0
M  V30 1610 H 163.194 -0.173823 1.94123 0
M  V30 1611 H 162.29 -1.46691 2.75478 0
M  V30 1612 N 162.591 -1.51276 -0.441967 0
M  V30 1613 C 163.501 -1.75092 -1.56141 0
M  V30 1614 C 164.517 -0.634963 -1.62001 0
M  V30 1615 O 165.693 -0.916686 -1.79329 0
M  V30 1616 C 162.758 -1.86666 -2.92158 0
M  V30 1617 C 161.819 -3.10506 -2.96453 0
M  V30 1618 C 161.052 -3.21519 -4.25982 0
M  V30 1619 O 161.275 -2.38586 -5.18105 0
M  V30 1620 O 160.209 -4.14465 -4.36466 0
M  V30 1621 H 164.035 -2.70044 -1.38961 0
M  V30 1622 H 161.62 -1.35722 -0.624499 0
M  V30 1623 H 163.502 -1.96292 -3.72891 0
M  V30 1624 H 162.177 -0.949014 -3.09476 0
M  V30 1625 H 161.084 -3.06363 -2.14692 0
M  V30 1626 H 162.417 -4.01945 -2.84079 0
M  V30 1627 N 164.069 0.697108 -1.41344 0
M  V30 1628 C 165.297 1.48593 -1.43972 0
M  V30 1629 C 165.712 1.88747 -0.0445612 0
M  V30 1630 O 165.069 1.56682 0.935785 0
M  V30 1631 C 165.12 2.74946 -2.34706 0
M  V30 1632 O 164.841 2.36484 -3.68791 0
M  V30 1633 C 166.342 3.687 -2.46121 0
M  V30 1634 H 163.562 0.457964 -0.490418 0
M  V30 1635 H 166.106 0.858429 -1.8561 0
M  V30 1636 H 164.261 3.33937 -1.9638 0
M  V30 1637 H 164.675 3.17918 -4.17167 0
M  V30 1638 H 166.149 4.54145 -3.13777 0
M  V30 1639 H 166.626 4.13081 -1.49199 0
M  V30 1640 H 167.232 3.15613 -2.85076 0
M  V30 1641 N 165.547 1.27147 0.931209 0
M  V30 1642 C 166.772 1.16191 1.71797 0
M  V30 1643 C 167.197 -0.278004 1.86034 0
M  V30 1644 O 166.555 -1.20137 1.35782 0
M  V30 1645 C 166.603 1.84673 3.09723 0
M  V30 1646 O 165.707 1.14231 3.96264 0
M  V30 1647 H 165.048 0.404303 0.526721 0
M  V30 1648 H 167.578 1.68152 1.1656 0
M  V30 1649 H 167.588 1.91893 3.60057 0
M  V30 1650 H 166.263 2.89421 2.98677 0
M  V30 1651 H 164.84 1.15056 3.54706 0
M  V30 1652 N 167.025 -1.13721 1.09112 0
M  V30 1653 C 168.441 -1.36914 0.820174 0
M  V30 1654 C 168.641 -1.93356 -0.567079 0
M  V30 1655 O 167.697 -2.15093 -1.32255 0
M  V30 1656 C 169.01 -2.3235 1.90877 0
M  V30 1657 C 170.558 -2.45973 1.93562 0
M  V30 1658 C 171.033 -3.44714 3.01556 0
M  V30 1659 N 172.524 -3.52263 3.00775 0
M  V30 1660 C 173.259 -4.28536 3.80978 0
M  V30 1661 N 172.755 -5.07991 4.71081 0
M  V30 1662 N 174.548 -4.23804 3.69251 0
M  V30 1663 H 166.699 -0.754348 1.98553 0
M  V30 1664 H 168.962 -0.3944 0.862063 0
M  V30 1665 H 168.668 -1.98027 2.90651 0
M  V30 1666 H 168.542 -3.32332 1.78424 0
M  V30 1667 H 170.929 -2.79584 0.944286 0
M  V30 1668 H 171.01 -1.45926 2.10093 0
M  V30 1669 H 170.654 -3.11835 4.00901 0
M  V30 1670 H 170.584 -4.44558 2.82269 0
M  V30 1671 H 173.075 -2.95567 2.35475 0
M  V30 1672 H 173.388 -5.63487 5.28869 0
M  V30 1673 H 171.733 -5.07235 4.75119 0
M  V30 1674 H 174.924 -3.60806 2.98222 0
M  V30 1675 H 175.097 -4.82995 4.31995 0
M  V30 1676 N 168.503 -0.877838 -1.30888 0
M  V30 1677 C 169.749 -0.493426 -1.96706 0
M  V30 1678 C 170.082 0.953504 -1.6918 0
M  V30 1679 O 169.357 1.67266 -0.992594 0
M  V30 1680 C 169.64 -0.760429 -3.51979 0
M  V30 1681 C 169.493 -2.25747 -3.89048 0
M  V30 1682 C 170.812 -0.232148 -4.39487 0
M  V30 1683 H 167.931 -0.180746 -0.714493 0
M  V30 1684 H 170.573 -1.10052 -1.54882 0
M  V30 1685 H 168.723 -0.243715 -3.87735 0
M  V30 1686 H 170.395 -2.84204 -3.63354 0
M  V30 1687 H 168.638 -2.72694 -3.37373 0
M  V30 1688 H 169.309 -2.39491 -4.97341 0
M  V30 1689 H 171.785 -0.674314 -4.106 0
M  V30 1690 H 170.661 -0.448355 -5.47066 0
M  V30 1691 H 170.922 0.866297 -4.33529 0
M  V30 1692 N 169.982 1.44106 -0.638065 0
M  V30 1693 C 171.207 2.0685 -0.150916 0
M  V30 1694 C 171.632 1.47417 1.16833 0
M  V30 1695 O 170.99 0.578264 1.71831 0
M  V30 1696 C 171.038 3.60555 -0.05708 0
M  V30 1697 O 170.142 4.00465 0.984972 0
M  V30 1698 H 169.483 0.658151 -0.0879399 0
M  V30 1699 H 172.013 1.84865 -0.876707 0
M  V30 1700 H 172.023 4.07789 0.131232 0
M  V30 1701 H 170.698 4.03193 -1.02021 0
M  V30 1702 H 169.275 3.64849 0.770672 0
M  V30 1703 N 171.46 0.379036 1.52974 0
M  V30 1704 C 172.871 -0.0972525 1.86447 0
M  V30 1705 C 173.222 -1.47027 1.29914 0
M  V30 1706 O 172.347 -2.07135 0.626433 0
M  V30 1707 C 172.942 -0.183248 3.38304 0
M  V30 1708 C 171.501 -0.603812 3.71525 0
M  V30 1709 C 170.648 0.240632 2.76254 0
M  V30 1710 H 173.599 0.597316 1.4703 0
M  V30 1711 H 173.62 -1.00432 3.67006 0
M  V30 1712 H 173.132 0.816191 3.79421 0
M  V30 1713 H 171.233 -1.61099 3.35973 0
M  V30 1714 H 171.346 -0.369086 4.77676 0
M  V30 1715 H 169.71 -0.292548 2.53014 0
M  V30 1716 H 170.493 1.23786 3.20206 0
M  V30 1717 N 172.938 -1.57226 0.108567 0
M  V30 1718 C 174.349 -1.8195 -0.418464 0
M  V30 1719 C 174.7 -1.02508 -1.67292 0
M  V30 1720 O 173.825 -0.258496 -2.14851 0
M  V30 1721 C 174.42 -3.30028 -0.765979 0
M  V30 1722 C 172.979 -3.55469 -1.23769 0
M  V30 1723 C 172.126 -2.7625 -0.241106 0
M  V30 1724 H 175.077 -1.55149 0.33384 0
M  V30 1725 H 175.098 -3.44086 -1.62434 0
M  V30 1726 H 174.61 -3.87821 0.147219 0
M  V30 1727 H 172.711 -3.03022 -2.16814 0
M  V30 1728 H 172.824 -4.6408 -1.19022 0
M  V30 1729 H 171.188 -2.44133 -0.72602 0
M  V30 1730 H 171.971 -3.36797 0.665007 0
M  V30 1731 N 174.416 0.165178 -1.56732 0
M  V30 1732 C 175.364 1.22369 -1.97809 0
M  V30 1733 C 176.358 1.45488 -0.867741 0
M  V30 1734 O 177.564 1.45995 -1.05288 0
M  V30 1735 H 173.939 0.411486 -0.629431 0
M  V30 1736 H 175.91 0.850425 -2.86025 0
M  V30 1737 C 174.659 2.55403 -2.35934 0
M  V30 1738 H 173.982 2.38438 -3.20916 0
M  V30 1739 H 175.422 3.2814 -2.68514 0
M  V30 1740 C 173.881 3.14611 -1.20506 0
M  V30 1741 O 174.411 3.98626 -0.496016 0
M  V30 1742 N 172.617 2.7379 -0.97403 0
M  V30 1743 H 172.164 2.0557 -1.55238 0
M  V30 1744 H 172.122 3.1374 -0.203573 0
M  V30 1745 N 175.894 1.51508 0.433938 0
M  V30 1746 C 177.171 1.54888 1.19453 0
M  V30 1747 C 177.551 0.315154 2.08734 0
M  V30 1748 O 176.899 -0.699558 2.17528 0
M  V30 1749 C 177.109 2.86467 1.99342 0
M  V30 1750 C 178.457 3.38545 2.56267 0
M  V30 1751 O 179.481 2.88041 2.0955 0
M  V30 1752 O 178.34 4.26675 3.41483 0
M  V30 1753 H 175.434 0.622863 0.544032 0
M  V30 1754 H 177.98 1.63823 0.442732 0
M  V30 1755 H 176.752 3.67718 1.33788 0
M  V30 1756 H 176.375 2.8071 2.8158 0
M  V30 1757 N 177.372 -0.689602 1.41712 0
M  V30 1758 C 178.62 -1.4468 1.4111 0
M  V30 1759 C 178.941 -1.94986 0.0232196 0
M  V30 1760 O 178.211 -1.72097 -0.935913 0
M  V30 1761 H 176.791 -0.536847 0.519427 0
M  V30 1762 H 179.453 -0.815825 1.77004 0
M  V30 1763 H 178.549 -2.30706 2.10193 0
M  V30 1764 N 178.85 -1.27639 -0.924453 0
M  V30 1765 C 180.266 -1.05113 -1.20097 0
M  V30 1766 C 180.466 0.213262 -2.00368 0
M  V30 1767 O 179.522 0.91787 -2.35226 0
M  V30 1768 C 180.835 -2.29244 -1.94596 0
M  V30 1769 C 182.383 -2.34315 -2.07522 0
M  V30 1770 C 182.858 -3.58183 -2.85427 0
M  V30 1771 N 184.349 -3.5876 -2.92994 0
M  V30 1772 C 185.084 -4.51277 -3.53746 0
M  V30 1773 N 184.58 -5.54102 -4.15863 0
M  V30 1774 N 186.373 -4.38894 -3.51181 0
M  V30 1775 H 178.524 -2.08821 -0.388264 0
M  V30 1776 H 180.787 -0.918568 -0.234385 0
M  V30 1777 H 180.493 -3.21301 -1.43034 0
M  V30 1778 H 180.367 -2.34816 -2.95197 0
M  V30 1779 H 182.754 -1.42762 -2.58269 0
M  V30 1780 H 182.835 -2.32744 -1.06131 0
M  V30 1781 H 182.479 -4.50074 -2.35363 0
M  V30 1782 H 182.409 -3.57006 -3.8711 0
M  V30 1783 H 184.9 -2.84398 -2.4885 0
M  V30 1784 H 185.213 -6.20859 -4.60168 0
M  V30 1785 H 183.558 -5.57941 -4.144 0
M  V30 1786 H 186.749 -3.57772 -3.01856 0
M  V30 1787 H 186.922 -5.11186 -3.98237 0
M  V30 1788 N 180.328 1.1314 -1.09713 0
M  V30 1789 C 181.574 1.84757 -0.836224 0
M  V30 1790 C 181.907 1.8347 0.636598 0
M  V30 1791 O 181.182 1.27491 1.46889 0
M  V30 1792 C 181.465 3.32782 -1.37578 0
M  V30 1793 C 181.318 3.42567 -2.91493 0
M  V30 1794 C 182.637 4.28307 -1.01198 0
M  V30 1795 H 179.756 0.67082 -0.305236 0
M  V30 1796 H 182.398 1.3278 -1.35903 0
M  V30 1797 H 180.548 3.77177 -0.931097 0
M  V30 1798 H 182.22 3.06862 -3.44432 0
M  V30 1799 H 180.463 2.83349 -3.28475 0
M  V30 1800 H 181.134 4.46674 -3.24324 0
M  V30 1801 H 183.61 3.91999 -1.39556 0
M  V30 1802 H 182.486 5.30307 -1.41653 0
M  V30 1803 H 182.747 4.42029 0.0794833 0
M  V30 1804 N 181.806 0.884767 1.30421 0
M  V30 1805 C 182.738 0.308655 2.27112 0
M  V30 1806 C 183.751 -0.536655 1.53701 0
M  V30 1807 O 184.94 -0.35624 1.74909 0
M  V30 1808 C 182.04 -0.579782 3.33904 0
M  V30 1809 C 181.213 0.236417 4.36761 0
M  V30 1810 C 180.272 -0.582482 5.22966 0
M  V30 1811 O 179.298 -0.00525502 5.692 0
M  V30 1812 N 180.5 -1.89163 5.48815 0
M  V30 1813 H 183.265 1.13964 2.77186 0
M  V30 1814 H 180.826 0.747731 1.43599 0
M  V30 1815 H 182.818 -1.13366 3.88497 0
M  V30 1816 H 181.388 -1.31144 2.83761 0
M  V30 1817 H 180.608 0.97174 3.82035 0
M  V30 1818 H 181.896 0.795924 5.02536 0
M  V30 1819 H 181.294 -2.38352 5.13035 0
M  V30 1820 H 179.851 -2.39296 6.06284 0
M  V30 1821 N 183.284 -1.43765 0.645699 0
M  V30 1822 C 184.234 -2.27884 -0.0726442 0
M  V30 1823 C 185.218 -1.39483 -0.802086 0
M  V30 1824 O 186.41 -1.63174 -0.685791 0
M  V30 1825 C 183.539 -3.27055 -1.04356 0
M  V30 1826 C 182.625 -4.22944 -0.312985 0
M  V30 1827 N 183.016 -5.01391 0.666386 0
M  V30 1828 C 181.314 -4.42528 -0.55546 0
M  V30 1829 C 182.015 -5.71217 1.09935 0
M  V30 1830 N 180.991 -5.41856 0.435137 0
M  V30 1831 H 184.793 -2.85949 0.678988 0
M  V30 1832 H 182.307 -1.55378 0.472368 0
M  V30 1833 H 184.304 -3.86089 -1.57292 0
M  V30 1834 H 182.964 -2.70551 -1.79534 0
M  V30 1835 H 183.975 -5.07252 1.04481 0
M  V30 1836 H 180.652 -3.97104 -1.28899 0
M  V30 1837 H 182.042 -6.44202 1.90929 0
M  V30 1838 N 184.763 -0.387143 -1.52771 0
M  V30 1839 C 186.01 0.195735 -2.01552 0
M  V30 1840 C 186.338 1.46995 -1.27369 0
M  V30 1841 O 185.593 1.92325 -0.361879 0
M  V30 1842 C 185.892 0.512209 -3.53711 0
M  V30 1843 C 185.558 -0.670202 -4.45891 0
M  V30 1844 C 184.22 -0.994586 -4.70809 0
M  V30 1845 C 186.572 -1.46134 -5.00294 0
M  V30 1846 C 183.9 -2.11169 -5.4738 0
M  V30 1847 C 186.252 -2.56903 -5.78086 0
M  V30 1848 C 184.916 -2.89852 -6.01284 0
M  V30 1849 H 184.186 0.0716246 -0.73753 0
M  V30 1850 H 186.833 -0.524046 -1.8419 0
M  V30 1851 H 185.138 1.31329 -3.69134 0
M  V30 1852 H 186.835 0.975804 -3.88946 0
M  V30 1853 H 183.425 -0.407366 -4.2666 0
M  V30 1854 H 187.609 -1.22397 -4.80971 0
M  V30 1855 H 182.865 -2.3707 -5.63567 0
M  V30 1856 H 187.039 -3.18608 -6.19243 0
M  V30 1857 H 184.666 -3.76533 -6.60399 0
M  V30 1858 N 186.241 1.57166 -0.116904 0
M  V30 1859 C 187.466 1.999 0.55271 0
M  V30 1860 C 187.891 0.996039 1.59564 0
M  V30 1861 O 187.249 -0.032556 1.81271 0
M  V30 1862 C 187.297 3.4152 1.15742 0
M  V30 1863 O 186.401 3.44106 2.27299 0
M  V30 1864 H 185.742 0.649447 0.138258 0
M  V30 1865 H 188.272 2.03573 -0.204759 0
M  V30 1866 H 188.282 3.79684 1.49346 0
M  V30 1867 H 186.957 4.14034 0.393493 0
M  V30 1868 H 185.534 3.17759 1.9515 0
M  V30 1869 N 187.719 -0.156864 1.56817 0
M  V30 1870 C 189.135 -0.50916 1.5126 0
M  V30 1871 C 189.335 -1.83897 0.823658 0
M  V30 1872 O 188.391 -2.49469 0.390055 0
M  V30 1873 C 189.704 -0.52857 2.96018 0
M  V30 1874 C 191.252 -0.614771 3.06903 0
M  V30 1875 C 191.727 -0.664938 4.53147 0
M  V30 1876 N 193.218 -0.727433 4.57452 0
M  V30 1877 C 193.953 -0.787067 5.67973 0
M  V30 1878 N 193.449 -0.806649 6.88088 0
M  V30 1879 N 195.242 -0.827195 5.5598 0
M  V30 1880 H 187.393 0.714935 2.00006 0
M  V30 1881 H 189.656 0.259526 0.911784 0
M  V30 1882 H 189.362 0.380154 3.49639 0
M  V30 1883 H 189.236 -1.36998 3.51442 0
M  V30 1884 H 191.623 -1.51392 2.53307 0
M  V30 1885 H 191.704 0.253597 2.5454 0
M  V30 1886 H 191.348 0.230011 5.07379 0
M  V30 1887 H 191.278 -1.54966 5.03282 0
M  V30 1888 H 193.769 -0.719998 3.70978 0
M  V30 1889 H 194.082 -0.853727 7.6807 0
M  V30 1890 H 192.427 -0.774687 6.90669 0
M  V30 1891 H 195.618 -0.808998 4.61056 0
M  V30 1892 H 195.791 -0.870206 6.4213 0
M  V30 1893 N 189.197 -1.51736 -0.425897 0
M  V30 1894 C 190.16 -1.73271 -1.50032 0
M  V30 1895 C 191.16 -0.602639 -1.4908 0
M  V30 1896 O 192.35 -0.87033 -1.509 0
M  V30 1897 C 189.482 -1.79969 -2.89523 0
M  V30 1898 H 190.675 -2.69172 -1.32237 0
M  V30 1899 H 188.228 -1.41899 -0.65532 0
M  V30 1900 H 188.963 -0.859241 -3.1271 0
M  V30 1901 H 188.748 -2.62109 -2.91619 0
M  V30 1902 H 190.238 -1.9843 -3.67444 0
M  V30 1903 N 190.675 0.682077 -1.42076 0
M  V30 1904 C 191.623 1.81707 -1.45208 0
M  V30 1905 C 192.617 1.66183 -0.328591 0
M  V30 1906 O 193.823 1.7288 -0.501264 0
M  V30 1907 H 190.198 0.599014 -0.454628 0
M  V30 1908 H 192.169 1.76183 -2.40836 0
M  V30 1909 C 190.918 3.19816 -1.36428 0
M  V30 1910 H 190.241 3.32385 -2.22171 0
M  V30 1911 H 191.681 3.99272 -1.42681 0
M  V30 1912 C 190.14 3.36809 -0.078191 0
M  V30 1913 O 190.67 3.92124 0.87188 0
M  V30 1914 N 188.876 2.906 0.00229266 0
M  V30 1915 H 188.423 2.45772 -0.771616 0
M  V30 1916 H 188.381 3.02347 0.862179 0
M  V30 1917 N 192.153 1.28127 0.917671 0
M  V30 1918 C 193.401 1.14825 1.66312 0
M  V30 1919 C 193.722 -0.304379 1.9261 0
M  V30 1920 O 192.992 -1.21149 1.53947 0
M  V30 1921 H 191.572 0.421953 0.616413 0
M  V30 1922 H 194.234 1.608 1.10134 0
M  V30 1923 H 193.33 1.68489 2.62712 0
M  V30 1924 N 193.631 -1.12557 1.10312 0
M  V30 1925 C 194.861 -1.87592 0.865617 0
M  V30 1926 C 195.269 -1.79851 -0.587389 0
M  V30 1927 O 194.612 -1.16949 -1.41664 0
M  V30 1928 C 194.674 -3.37665 1.23381 0
M  V30 1929 C 194.338 -3.69181 2.69359 0
M  V30 1930 C 195.335 -3.67652 3.67597 0
M  V30 1931 C 193.02 -3.98555 3.05711 0
M  V30 1932 C 195.014 -3.95053 5.00212 0
M  V30 1933 C 192.701 -4.25616 4.38514 0
M  V30 1934 C 193.699 -4.23851 5.35574 0
M  V30 1935 O 193.387 -4.50242 6.65986 0
M  V30 1936 H 193.119 -0.600442 0.310557 0
M  V30 1937 H 195.673 -1.4335 1.47105 0
M  V30 1938 H 193.903 -3.82454 0.571467 0
M  V30 1939 H 195.592 -3.94041 0.973994 0
M  V30 1940 H 196.358 -3.45024 3.40857 0
M  V30 1941 H 192.237 -3.99071 2.30789 0
M  V30 1942 H 195.781 -3.93591 5.75962 0
M  V30 1943 H 191.678 -4.47718 4.64994 0
M  V30 1944 H 192.446 -4.67867 6.71597 0
M  V30 1945 N 195.109 -0.891671 -1.2995 0
M  V30 1946 C 196.334 -0.527932 -2.00568 0
M  V30 1947 C 196.759 0.877969 -1.66353 0
M  V30 1948 O 196.117 1.58301 -0.883762 0
M  V30 1949 C 196.165 -0.717745 -3.53385 0
M  V30 1950 O 195.269 0.233376 -4.11739 0
M  V30 1951 H 194.61 -0.20722 -0.630837 0
M  V30 1952 H 197.14 -1.20105 -1.65638 0
M  V30 1953 H 197.15 -0.619307 -4.03272 0
M  V30 1954 H 195.825 -1.74276 -3.77625 0
M  V30 1955 H 194.402 0.0880706 -3.72796 0
M  V30 1956 N 196.587 1.43421 -0.653314 0
M  V30 1957 C 197.535 2.32546 0.0501531 0
M  V30 1958 C 198.529 1.48617 0.812985 0
M  V30 1959 O 199.735 1.64825 0.723375 0
M  V30 1960 H 196.11 0.751185 0.0350032 0
M  V30 1961 H 198.081 2.89602 -0.719261 0
M  V30 1962 C 196.83 3.32925 1.00279 0
M  V30 1963 H 196.153 3.97532 0.425236 0
M  V30 1964 H 197.593 3.9792 1.46409 0
M  V30 1965 C 196.052 2.63532 2.09886 0
M  V30 1966 O 196.582 2.45092 3.18265 0
M  V30 1967 N 194.788 2.22905 1.86445 0
M  V30 1968 H 194.335 2.38103 0.98309 0
M  V30 1969 H 194.293 1.76805 2.59976 0
M  V30 1970 N 198.065 0.39524 1.52563 0
M  V30 1971 C 199.29 -0.187456 2.06551 0
M  V30 1972 C 199.715 -1.39249 1.26457 0
M  V30 1973 O 199.073 -1.78947 0.291151 0
M  V30 1974 C 199.121 -0.529985 3.56684 0
M  V30 1975 O 198.225 -1.62307 3.79118 0
M  V30 1976 H 197.566 -0.0202537 0.663691 0
M  V30 1977 H 200.096 0.564426 1.96661 0
M  V30 1978 H 200.106 -0.792598 4.00227 0
M  V30 1979 H 198.781 0.350987 4.14416 0
M  V30 1980 H 197.358 -1.3537 3.47461 0
M  V30 1981 N 199.544 -1.57102 0.125237 0
M  V30 1982 C 200.474 -2.18659 -0.819174 0
M  V30 1983 C 201.455 -1.12843 -1.27281 0
M  V30 1984 O 202.64 -1.41104 -1.33429 0
M  V30 1985 C 199.77 -2.79096 -2.06695 0
M  V30 1986 C 198.724 -3.90548 -1.75088 0
M  V30 1987 C 198.05 -4.37821 -3.06948 0
M  V30 1988 C 199.35 -5.12356 -1.01435 0
M  V30 1989 H 201.044 -2.9783 -0.306202 0
M  V30 1990 H 198.59 -1.4326 -0.145839 0
M  V30 1991 H 200.543 -3.2082 -2.73226 0
M  V30 1992 H 199.267 -1.97223 -2.60328 0
M  V30 1993 H 197.926 -3.49409 -1.10944 0
M  V30 1994 H 197.574 -3.52799 -3.58527 0
M  V30 1995 H 197.274 -5.12982 -2.86571 0
M  V30 1996 H 198.798 -4.822 -3.74587 0
M  V30 1997 H 200.212 -5.5106 -1.58132 0
M  V30 1998 H 198.609 -5.9314 -0.911319 0
M  V30 1999 H 199.679 -4.849 -0.00218681 0
M  V30 2000 N 201.022 0.148545 -1.56898 0
M  V30 2001 C 202.433 0.708766 -1.72723 0
M  V30 2002 C 202.784 1.81734 -0.739395 0
M  V30 2003 O 201.909 2.16194 0.0943169 0
M  V30 2004 C 202.504 1.29245 -3.13179 0
M  V30 2005 C 201.063 1.79925 -3.30611 0
M  V30 2006 C 200.21 0.687111 -2.68652 0
M  V30 2007 H 203.161 -0.0771063 -1.58513 0
M  V30 2008 H 203.182 2.16224 -3.13093 0
M  V30 2009 H 202.694 0.485382 -3.85053 0
M  V30 2010 H 200.795 2.63203 -2.63732 0
M  V30 2011 H 200.908 1.92903 -4.38549 0
M  V30 2012 H 199.272 1.11335 -2.29078 0
M  V30 2013 H 200.055 -0.108483 -3.43129 0
M  V30 2014 N 202.5 1.5196 0.417844 0
M  V30 2015 C 203.746 1.65836 1.16732 0
M  V30 2016 C 204.079 0.382881 1.90388 0
M  V30 2017 O 203.354 -0.618368 1.84408 0
M  V30 2018 C 203.637 2.87466 2.16876 0
M  V30 2019 C 203.49 4.25041 1.47174 0
M  V30 2020 C 204.809 3.04613 3.17646 0
M  V30 2021 H 201.928 0.603515 0.423011 0
M  V30 2022 H 204.57 1.84494 0.454105 0
M  V30 2023 H 202.72 2.71689 2.777 0
M  V30 2024 H 204.392 4.52527 0.895376 0
M  V30 2025 H 202.635 4.26843 0.773806 0
M  V30 2026 H 203.306 5.06176 2.20204 0
M  V30 2027 H 205.782 3.1923 2.66892 0
M  V30 2028 H 204.658 3.91247 3.8499 0
M  V30 2029 H 204.919 2.17541 3.84874 0
M  V30 2030 N 203.978 -0.674533 1.42435 0
M  V30 2031 C 204.908 -1.80009 1.48724 0
M  V30 2032 C 205.889 -1.6659 0.343793 0
M  V30 2033 O 207.074 -1.86007 0.558137 0
M  V30 2034 C 204.204 -3.18306 1.38919 0
M  V30 2035 C 203.158 -3.46461 2.51294 0
M  V30 2036 C 202.484 -4.84335 2.26547 0
M  V30 2037 C 203.784 -3.43328 3.93603 0
M  V30 2038 H 205.478 -1.75004 2.42928 0
M  V30 2039 H 203.024 -0.840533 1.16923 0
M  V30 2040 H 204.977 -3.9678 1.41927 0
M  V30 2041 H 203.701 -3.2399 0.412094 0
M  V30 2042 H 202.36 -2.70348 2.47604 0
M  V30 2043 H 202.008 -4.86669 1.2713 0
M  V30 2044 H 201.708 -5.04136 3.01861 0
M  V30 2045 H 203.232 -5.65094 2.31304 0
M  V30 2046 H 204.646 -4.11772 3.98894 0
M  V30 2047 H 203.043 -3.74664 4.68771 0
M  V30 2048 H 204.113 -2.41897 4.20255 0
M  V30 2049 N 205.456 -1.28612 -0.910864 0
M  V30 2050 C 206.733 -1.06632 -1.63979 0
M  V30 2051 C 207.113 0.393351 -2.07403 0
M  V30 2052 O 206.461 1.37999 -1.82122 0
M  V30 2053 C 206.671 -2.0436 -2.8291 0
M  V30 2054 C 208.019 -2.34666 -3.5386 0
M  V30 2055 O 209.043 -2.02467 -2.93062 0
M  V30 2056 O 207.902 -2.89631 -4.63439 0
M  V30 2057 H 204.996 -0.407737 -0.7195 0
M  V30 2058 H 207.542 -1.39942 -0.959914 0
M  V30 2059 H 206.314 -3.02727 -2.47936 0
M  V30 2060 H 205.937 -1.71714 -3.58609 0
M  V30 2061 N 206.934 1.1197 -1.10907 0
M  V30 2062 C 207.844 2.21433 -0.774896 0
M  V30 2063 C 208.86 1.72478 0.229657 0
M  V30 2064 O 210.036 2.01288 0.0672008 0
M  V30 2065 C 207.101 3.4602 -0.216986 0
M  V30 2066 C 206.162 4.09791 -1.27944 0
M  V30 2067 C 205.395 5.28431 -0.748055 0
M  V30 2068 O 205.618 5.68823 0.423833 0
M  V30 2069 O 204.552 5.82644 -1.51027 0
M  V30 2070 H 208.378 2.5242 -1.68873 0
M  V30 2071 H 205.963 1.20399 -0.884555 0
M  V30 2072 H 207.845 4.21304 0.090059 0
M  V30 2073 H 206.52 3.16698 0.669633 0
M  V30 2074 H 205.427 3.36265 -1.63941 0
M  V30 2075 H 206.76 4.4328 -2.13925 0
M  V30 2076 N 208.412 0.89855 1.29475 0
M  V30 2077 C 209.642 0.538479 1.99459 0
M  V30 2078 C 210.05 -0.880922 1.67441 0
M  V30 2079 O 209.393 -1.59283 0.915127 0
M  V30 2080 C 209.455 0.649564 3.53583 0
M  V30 2081 C 209.119 2.03573 4.09154 0
M  V30 2082 C 210.116 3.00675 4.24135 0
M  V30 2083 C 207.801 2.3448 4.44212 0
M  V30 2084 C 209.795 4.26809 4.73405 0
M  V30 2085 C 207.482 3.60857 4.93179 0
M  V30 2086 C 208.48 4.56836 5.0773 0
M  V30 2087 O 208.168 5.80969 5.55635 0
M  V30 2088 H 207.9 0.205372 0.644048 0
M  V30 2089 H 210.454 1.20958 1.66007 0
M  V30 2090 H 208.684 -0.0785592 3.8662 0
M  V30 2091 H 210.373 0.29881 4.04799 0
M  V30 2092 H 211.139 2.78112 3.97339 0
M  V30 2093 H 207.018 1.60534 4.32145 0
M  V30 2094 H 210.562 5.0173 4.84678 0
M  V30 2095 H 206.459 3.83251 5.19412 0
M  V30 2096 H 207.227 5.83542 5.73952 0
M  V30 2097 N 209.89 -1.43072 0.660911 0
M  V30 2098 C 211.136 -2.0202 0.177708 0
M  V30 2099 C 211.469 -1.52066 -1.20787 0
M  V30 2100 O 210.744 -0.716987 -1.80802 0
M  V30 2101 C 211.027 -3.59561 0.197019 0
M  V30 2102 C 210.88 -4.19727 1.61706 0
M  V30 2103 C 212.199 -4.37664 -0.462396 0
M  V30 2104 H 209.318 -0.734034 0.0660494 0
M  V30 2105 H 211.96 -1.70272 0.843058 0
M  V30 2106 H 210.11 -3.86739 -0.369527 0
M  V30 2107 H 211.782 -4.03553 2.23479 0
M  V30 2108 H 210.025 -3.76084 2.16201 0
M  V30 2109 H 210.696 -5.28834 1.58237 0
M  V30 2110 H 213.172 -4.16095 0.0197215 0
M  V30 2111 H 212.048 -5.47305 -0.418188 0
M  V30 2112 H 212.309 -4.14493 -1.53778 0
M  V30 2113 N 211.368 -0.403325 -1.52352 0
M  V30 2114 C 212.645 0.232611 -1.94212 0
M  V30 2115 C 213.025 1.63133 -1.33981 0
M  V30 2116 O 212.373 2.22659 -0.513344 0
M  V30 2117 C 212.583 0.244811 -3.4814 0
M  V30 2118 C 213.931 0.46698 -4.22024 0
M  V30 2119 O 214.955 0.324419 -3.5472 0
M  V30 2120 O 213.814 0.74747 -5.41364 0
M  V30 2121 H 210.908 0.148223 -0.813609 0
M  V30 2122 H 213.454 -0.458848 -1.63379 0
M  V30 2123 H 212.226 -0.734378 -3.84347 0
M  V30 2124 H 211.849 0.980611 -3.85318 0
M  V30 2125 N 212.846 1.57033 -0.133567 0
M  V30 2126 C 214.123 1.87256 0.56522 0
M  V30 2127 C 214.503 1.03726 1.83859 0
M  V30 2128 O 213.851 0.120247 2.28183 0
M  V30 2129 C 214.061 3.3865 0.843636 0
M  V30 2130 C 215.409 4.07574 1.19032 0
M  V30 2131 O 216.433 3.43752 0.933429 0
M  V30 2132 O 215.292 5.20259 1.67312 0
M  V30 2133 H 212.386 0.775678 0.286796 0
M  V30 2134 H 214.932 1.68855 -0.169168 0
M  V30 2135 H 213.704 3.91257 -0.0581149 0
M  V30 2136 H 213.327 3.62532 1.63268 0
M  V30 2137 N 214.325 -0.140222 1.56975 0
M  V30 2138 C 215.255 -1.17456 2.01808 0
M  V30 2139 C 216.236 -1.44415 0.898794 0
M  V30 2140 O 217.421 -1.5522 1.16707 0
M  V30 2141 C 214.551 -2.50607 2.40444 0
M  V30 2142 C 213.505 -2.38155 3.55621 0
M  V30 2143 C 212.831 -3.76078 3.80091 0
M  V30 2144 C 214.131 -1.85991 4.88062 0
M  V30 2145 H 215.825 -0.801743 2.88466 0
M  V30 2146 H 213.371 -0.38422 1.38779 0
M  V30 2147 H 215.324 -3.23197 2.7041 0
M  V30 2148 H 214.048 -2.89737 1.50732 0
M  V30 2149 H 212.707 -1.68016 3.25832 0
M  V30 2150 H 212.355 -4.12656 2.87618 0
M  V30 2151 H 212.055 -3.68606 4.57606 0
M  V30 2152 H 213.579 -4.50206 4.12488 0
M  V30 2153 H 214.993 -2.4838 5.16701 0
M  V30 2154 H 213.39 -1.89393 5.6943 0
M  V30 2155 H 214.46 -0.816023 4.77984 0
M  V30 2156 N 215.803 -1.52179 -0.40978 0
M  V30 2157 C 216.733 -1.78435 -1.5061 0
M  V30 2158 C 217.714 -0.635295 -1.57791 0
M  V30 2159 O 218.899 -0.880823 -1.73076 0
M  V30 2160 C 216.029 -1.93444 -2.88439 0
M  V30 2161 C 214.983 -3.09038 -2.96108 0
M  V30 2162 C 214.309 -3.09268 -4.36185 0
M  V30 2163 C 215.609 -4.48508 -2.67652 0
M  V30 2164 H 217.303 -2.70237 -1.28889 0
M  V30 2165 H 214.849 -1.30036 -0.618605 0
M  V30 2166 H 216.802 -2.10394 -3.65119 0
M  V30 2167 H 215.526 -0.983129 -3.11452 0
M  V30 2168 H 214.185 -2.91837 -2.21872 0
M  V30 2169 H 213.833 -2.11861 -4.56206 0
M  V30 2170 H 213.533 -3.86907 -4.42241 0
M  V30 2171 H 215.057 -3.28348 -5.14801 0
M  V30 2172 H 216.471 -4.65918 -3.34056 0
M  V30 2173 H 214.868 -5.28059 -2.85085 0
M  V30 2174 H 215.938 -4.56649 -1.63095 0
M  V30 2175 N 217.281 0.66697 -1.42791 0
M  V30 2176 C 218.697 0.981027 -1.25889 0
M  V30 2177 C 218.897 2.00793 -0.168695 0
M  V30 2178 O 217.953 2.48321 0.45747 0
M  V30 2179 C 219.266 1.47838 -2.61848 0
M  V30 2180 C 220.814 1.59575 -2.69267 0
M  V30 2181 C 221.289 2.12704 -4.05612 0
M  V30 2182 N 222.78 2.20026 -4.07606 0
M  V30 2183 C 223.515 2.62227 -5.09926 0
M  V30 2184 N 223.011 3.03824 -6.22626 0
M  V30 2185 N 224.804 2.62045 -4.97281 0
M  V30 2186 H 216.955 -0.0127891 -2.12396 0
M  V30 2187 H 219.218 0.0568258 -0.946295 0
M  V30 2188 H 218.924 0.798299 -3.4252 0
M  V30 2189 H 218.798 2.45579 -2.86305 0
M  V30 2190 H 221.185 2.26687 -1.88936 0
M  V30 2191 H 221.266 0.60302 -2.48591 0
M  V30 2192 H 220.91 1.46198 -4.86404 0
M  V30 2193 H 220.84 3.12782 -4.23645 0
M  V30 2194 H 223.331 1.90708 -3.2625 0
M  V30 2195 H 223.644 3.34734 -6.96544 0
M  V30 2196 H 221.989 3.01662 -6.26119 0
M  V30 2197 H 225.18 2.28916 -4.08308 0
M  V30 2198 H 225.353 2.94613 -5.77154 0
M  V30 2199 N 218.759 1.29093 0.90403 0
M  V30 2200 C 219.706 1.13853 2.00764 0
M  V30 2201 C 220.676 0.0330084 1.66067 0
M  V30 2202 O 221.861 0.199733 1.89752 0
M  V30 2203 C 219.001 0.816537 3.35301 0
M  V30 2204 C 218.114 2.00206 3.82807 0
M  V30 2205 C 217.249 1.61983 5.059 0
M  V30 2206 C 216.288 2.77143 5.45764 0
M  V30 2207 N 215.425 2.39346 6.60044 0
M  V30 2208 H 220.265 2.08276 2.13132 0
M  V30 2209 H 217.802 1.03648 1.04381 0
M  V30 2210 H 219.76 0.610557 4.12708 0
M  V30 2211 H 218.39 -0.090779 3.22672 0
M  V30 2212 H 217.442 2.31988 3.01473 0
M  V30 2213 H 218.754 2.86512 4.08304 0
M  V30 2214 H 217.908 1.37649 5.90879 0
M  V30 2215 H 216.647 0.728202 4.82233 0
M  V30 2216 H 215.652 3.02165 4.59322 0
M  V30 2217 H 216.877 3.66964 5.71414 0
M  V30 2218 H 214.823 1.52665 6.37989 0
M  V30 2219 H 214.74 3.19185 6.85315 0
M  V30 2220 H 216.008 2.1832 7.48303 0
M  V30 2221 N 220.237 -1.11381 1.11499 0
M  V30 2222 C 221.462 -1.87475 0.887019 0
M  V30 2223 C 221.887 -1.79639 -0.557796 0
M  V30 2224 O 221.245 -1.15924 -1.39396 0
M  V30 2225 C 221.293 -3.34213 1.35403 0
M  V30 2226 O 220.397 -4.0903 0.526146 0
M  V30 2227 H 219.738 -0.582099 0.319463 0
M  V30 2228 H 222.268 -1.40785 1.48461 0
M  V30 2229 H 222.278 -3.8506 1.34881 0
M  V30 2230 H 220.953 -3.39232 2.40612 0
M  V30 2231 H 219.53 -3.68082 0.597522 0
M  V30 2232 N 221.715 -0.905404 -1.28997 0
M  V30 2233 C 222.625 -0.392246 -2.31298 0
M  V30 2234 C 223.641 0.515889 -1.66176 0
M  V30 2235 O 224.817 0.404093 -1.97304 0
M  V30 2236 C 221.882 0.36686 -3.44754 0
M  V30 2237 C 220.943 -0.573485 -4.25452 0
M  V30 2238 C 220.176 0.149488 -5.33491 0
M  V30 2239 O 220.399 1.37255 -5.5364 0
M  V30 2240 O 219.333 -0.510919 -5.99728 0
M  V30 2241 H 223.159 -1.2411 -2.77183 0
M  V30 2242 H 220.744 -0.669926 -1.33538 0
M  V30 2243 H 222.626 0.795907 -4.13816 0
M  V30 2244 H 221.301 1.19169 -3.00966 0
M  V30 2245 H 220.208 -1.05176 -3.59011 0
M  V30 2246 H 221.541 -1.36489 -4.72897 0
M  V30 2247 N 223.193 1.4272 -0.668489 0
M  V30 2248 C 224.123 2.335 -0.000100175 0
M  V30 2249 C 225.104 1.50328 0.795964 0
M  V30 2250 O 226.289 1.78949 0.754385 0
M  V30 2251 C 223.419 3.33874 0.956302 0
M  V30 2252 C 222.373 4.27152 0.269278 0
M  V30 2253 C 221.699 5.17684 1.33818 0
M  V30 2254 C 222.999 5.15373 -0.847805 0
M  V30 2255 H 224.693 2.89639 -0.758244 0
M  V30 2256 H 222.239 1.39269 -0.366079 0
M  V30 2257 H 224.192 3.9629 1.43292 0
M  V30 2258 H 222.916 2.76025 1.74579 0
M  V30 2259 H 221.575 3.66123 -0.187042 0
M  V30 2260 H 221.223 4.56165 2.1195 0
M  V30 2261 H 220.923 5.80918 0.883659 0
M  V30 2262 H 222.447 5.82974 1.81586 0
M  V30 2263 H 223.861 5.7151 -0.452681 0
M  V30 2264 H 222.258 5.87407 -1.22773 0
M  V30 2265 H 223.328 4.5415 -1.69929 0
M  V30 2266 N 224.671 0.411399 1.52136 0
M  V30 2267 C 225.601 -0.404015 2.29978 0
M  V30 2268 C 226.582 -1.04412 1.34284 0
M  V30 2269 O 227.767 -1.0527 1.63192 0
M  V30 2270 C 224.897 -1.5197 3.12286 0
M  V30 2271 C 223.851 -1.00448 4.16046 0
M  V30 2272 C 223.177 -2.21393 4.86712 0
M  V30 2273 C 224.477 -0.0569336 5.22269 0
M  V30 2274 H 226.171 0.245529 2.98392 0
M  V30 2275 H 223.717 0.119525 1.43503 0
M  V30 2276 H 225.67 -2.09715 3.6551 0
M  V30 2277 H 224.394 -2.19716 2.41646 0
M  V30 2278 H 223.053 -0.449421 3.63835 0
M  V30 2279 H 222.701 -2.87699 4.12599 0
M  V30 2280 H 222.401 -1.87571 5.56858 0
M  V30 2281 H 223.925 -2.7974 5.4275 0
M  V30 2282 H 225.339 -0.54325 5.7072 0
M  V30 2283 H 223.736 0.192594 5.99791 0
M  V30 2284 H 224.806 0.887663 4.76706 0
M  V30 2285 N 226.149 -1.5696 0.141893 0
M  V30 2286 C 227.565 -1.58151 -0.21456 0
M  V30 2287 C 227.765 -1.1559 -1.65049 0
M  V30 2288 O 226.821 -0.853832 -2.37626 0
M  V30 2289 C 228.134 -3.00674 0.0395576 0
M  V30 2290 C 229.682 -3.1299 -0.0245529 0
M  V30 2291 C 230.157 -4.57554 0.202167 0
M  V30 2292 N 231.648 -4.62961 0.148919 0
M  V30 2293 C 232.383 -5.7262 0.298924 0
M  V30 2294 N 231.879 -6.90947 0.50637 0
M  V30 2295 N 233.672 -5.61601 0.236886 0
M  V30 2296 H 225.823 -1.8292 1.07953 0
M  V30 2297 H 228.086 -0.846425 0.42693 0
M  V30 2298 H 227.792 -3.36183 1.03315 0
M  V30 2299 H 227.666 -3.70981 -0.682143 0
M  V30 2300 H 230.053 -2.77326 -1.00869 0
M  V30 2301 H 230.134 -2.4518 0.729396 0
M  V30 2302 H 229.778 -4.93922 1.18338 0
M  V30 2303 H 229.708 -5.23484 -0.572044 0
M  V30 2304 H 232.199 -3.77899 -0.00697015 0
M  V30 2305 H 232.512 -7.7038 0.611076 0
M  V30 2306 H 230.857 -6.92878 0.542628 0
M  V30 2307 H 234.048 -4.68039 0.0756209 0
M  V30 2308 H 234.221 -6.47015 0.357227 0
M  V30 2309 N 227.627 0.131896 -1.57047 0
M  V30 2310 C 228.56 1.19236 -1.94571 0
M  V30 2311 C 229.538 1.40782 -0.813576 0
M  V30 2312 O 230.722 1.55148 -1.07058 0
M  V30 2313 C 227.849 2.54858 -2.23081 0
M  V30 2314 C 226.895 2.49817 -3.45679 0
M  V30 2315 S 227.728 1.95036 -4.98719 0
M  V30 2316 C 228.884 3.32357 -5.30367 0
M  V30 2317 H 229.117 0.872297 -2.84215 0
M  V30 2318 H 226.65 0.338134 -1.50652 0
M  V30 2319 H 228.608 3.32898 -2.40185 0
M  V30 2320 H 227.269 2.84047 -1.34074 0
M  V30 2321 H 226.462 3.49688 -3.62952 0
M  V30 2322 H 226.064 1.79892 -3.27895 0
M  V30 2323 H 228.356 4.28525 -5.2476 0
M  V30 2324 H 229.299 3.19923 -6.31708 0
M  V30 2325 H 229.707 3.3019 -4.57859 0
M  V30 2326 N 229.106 1.52395 0.401703 0
M  V30 2327 C 230.016 1.7917 1.51444 0
M  V30 2328 C 231.032 0.677691 1.6026 0
M  V30 2329 O 232.208 0.963909 1.76835 0
M  V30 2330 C 229.273 1.94347 2.87107 0
M  V30 2331 C 228.334 3.18257 2.88116 0
M  V30 2332 C 227.567 3.32701 4.17308 0
M  V30 2333 O 227.79 2.52238 5.11598 0
M  V30 2334 O 226.724 4.25891 4.25324 0
M  V30 2335 H 230.55 2.73633 1.31752 0
M  V30 2336 H 228.135 1.3733 0.588296 0
M  V30 2337 H 230.017 2.06109 3.67555 0
M  V30 2338 H 228.692 1.03073 3.06851 0
M  V30 2339 H 227.599 3.11947 2.06494 0
M  V30 2340 H 228.932 4.09336 2.73322 0
M  V30 2341 N 230.584 -0.659388 1.43143 0
M  V30 2342 C 231.532 -1.79374 1.4808 0
M  V30 2343 C 232.526 -1.65639 0.354988 0
M  V30 2344 O 233.732 -1.7206 0.528704 0
M  V30 2345 H 230.107 -0.591705 0.4641 0
M  V30 2346 H 232.078 -1.72329 2.43609 0
M  V30 2347 C 230.827 -3.17606 1.41499 0
M  V30 2348 H 230.15 -3.28809 2.27431 0
M  V30 2349 H 231.59 -3.96951 1.49015 0
M  V30 2350 C 230.049 -3.36642 0.131765 0
M  V30 2351 O 230.579 -3.93461 -0.809386 0
M  V30 2352 N 228.785 -2.90567 0.0439396 0
M  V30 2353 H 228.332 -2.44513 0.810619 0
M  V30 2354 H 228.29 -3.03681 -0.813969 0
M  V30 2355 N 232.062 -1.29571 -0.897171 0
M  V30 2356 C 233.339 -1.08365 -1.62839 0
M  V30 2357 C 233.719 0.371331 -2.07808 0
M  V30 2358 O 233.067 1.3606 -1.83576 0
M  V30 2359 C 233.277 -2.0735 -2.80726 0
M  V30 2360 C 234.625 -2.38406 -3.51351 0
M  V30 2361 O 235.649 -2.05564 -2.90898 0
M  V30 2362 O 234.508 -2.9453 -4.60341 0
M  V30 2363 H 231.602 -0.415345 -0.715134 0
M  V30 2364 H 234.148 -1.40952 -0.945018 0
M  V30 2365 H 232.92 -3.05339 -2.44711 0
M  V30 2366 H 232.543 -1.75507 -3.56767 0
M  V30 2367 N 233.54 1.10788 -1.12088 0
M  V30 2368 C 234.786 1.82942 -0.875226 0
M  V30 2369 C 235.119 1.84779 0.597538 0
M  V30 2370 O 234.394 1.30578 1.44152 0
M  V30 2371 C 234.677 3.29789 -1.44606 0
M  V30 2372 C 234.53 3.36307 -2.98693 0
M  V30 2373 C 235.849 4.26064 -1.10261 0
M  V30 2374 H 232.968 0.664195 -0.319397 0
M  V30 2375 H 235.61 1.29867 -1.38689 0
M  V30 2376 H 233.76 3.75118 -1.01089 0
M  V30 2377 H 235.432 2.99487 -3.50864 0
M  V30 2378 H 233.675 2.76318 -3.34411 0
M  V30 2379 H 234.346 4.39694 -3.33726 0
M  V30 2380 H 236.822 3.88951 -1.4784 0
M  V30 2381 H 235.698 5.27183 -1.52869 0
M  V30 2382 H 235.959 4.42098 -0.0142953 0
M  V30 2383 N 235.018 0.912232 1.28515 0
M  V30 2384 C 235.948 0.416403 2.29757 0
M  V30 2385 C 236.929 -0.515194 1.6211 0
M  V30 2386 O 238.114 -0.423253 1.89532 0
M  V30 2387 C 235.244 -0.34572 3.45575 0
M  V30 2388 C 234.198 0.496599 4.25109 0
M  V30 2389 C 233.524 -0.393771 5.33248 0
M  V30 2390 C 234.824 1.75307 4.92001 0
M  V30 2391 H 236.518 1.26249 2.7148 0
M  V30 2392 H 234.064 0.608515 1.30511 0
M  V30 2393 H 236.017 -0.703422 4.15488 0
M  V30 2394 H 234.741 -1.2257 3.02728 0
M  V30 2395 H 233.4 0.8368 3.56922 0
M  V30 2396 H 233.048 -1.27225 4.86644 0
M  V30 2397 H 232.748 0.166209 5.87365 0
M  V30 2398 H 234.272 -0.747389 6.06009 0
M  V30 2399 H 235.686 1.46437 5.54283 0
M  V30 2400 H 234.083 2.25534 5.56106 0
M  V30 2401 H 235.153 2.48176 4.16577 0
M  V30 2402 N 236.496 -1.42363 0.676048 0
M  V30 2403 C 237.426 -2.33497 0.0124832 0
M  V30 2404 C 238.407 -1.50748 -0.787981 0
M  V30 2405 O 239.592 -1.79346 -0.744884 0
M  V30 2406 C 236.722 -3.34377 -0.938582 0
M  V30 2407 C 235.676 -4.27289 -0.246622 0
M  V30 2408 C 235.002 -5.18386 -1.31071 0
M  V30 2409 C 236.302 -5.14916 0.875125 0
M  V30 2410 H 237.996 -2.89233 0.773593 0
M  V30 2411 H 235.542 -1.39073 0.37346 0
M  V30 2412 H 237.495 -3.97044 -1.41188 0
M  V30 2413 H 236.219 -2.76947 -1.73113 0
M  V30 2414 H 234.878 -3.66018 0.206456 0
M  V30 2415 H 234.526 -4.57282 -2.09528 0
M  V30 2416 H 234.226 -5.81378 -0.852839 0
M  V30 2417 H 235.75 -5.83929 -1.78492 0
M  V30 2418 H 237.164 -5.71262 0.482983 0
M  V30 2419 H 235.561 -5.86747 1.25887 0
M  V30 2420 H 236.631 -4.53242 1.72335 0
M  V30 2421 N 237.974 -0.419461 -1.51915 0
M  V30 2422 C 238.922 0.415502 -2.28859 0
M  V30 2423 C 239.916 1.03674 -1.3397 0
M  V30 2424 O 241.122 0.973757 -1.51387 0
M  V30 2425 H 237.497 0.152786 -0.736315 0
M  V30 2426 H 239.468 -0.254531 -2.97312 0
M  V30 2427 C 238.217 1.51425 -3.12995 0
M  V30 2428 H 237.54 1.04556 -3.85886 0
M  V30 2429 H 238.98 2.07208 -3.6992 0
M  V30 2430 C 237.439 2.48745 -2.27217 0
M  V30 2431 O 237.969 3.52871 -1.9195 0
M  V30 2432 N 236.175 2.19202 -1.90785 0
M  V30 2433 H 235.722 1.34556 -2.19664 0
M  V30 2434 H 235.68 2.84561 -1.33687 0
M  V30 2435 N 239.452 1.56882 -0.150215 0
M  V30 2436 C 240.868 1.58263 0.20617 0
M  V30 2437 C 241.068 1.16464 1.64434 0
M  V30 2438 O 240.124 0.866422 2.3717 0
M  V30 2439 C 241.437 3.00649 -0.0555025 0
M  V30 2440 C 242.985 3.12999 0.00795388 0
M  V30 2441 C 243.46 4.5744 -0.226429 0
M  V30 2442 N 244.951 4.62875 -0.173469 0
M  V30 2443 C 245.686 5.72454 -0.329288 0
M  V30 2444 N 245.182 6.90669 -0.543005 0
M  V30 2445 N 246.975 5.61467 -0.266666 0
M  V30 2446 H 239.126 1.82345 -1.08922 0
M  V30 2447 H 241.389 0.844149 -0.431413 0
M  V30 2448 H 241.095 3.3563 -1.05096 0
M  V30 2449 H 240.969 3.71337 0.66246 0
M  V30 2450 H 243.356 2.77857 0.993966 0
M  V30 2451 H 243.437 2.4479 -0.742388 0
M  V30 2452 H 243.081 4.93287 -1.20956 0
M  V30 2453 H 243.011 5.2378 0.544274 0
M  V30 2454 H 245.502 3.77898 -0.0130709 0
M  V30 2455 H 245.815 7.70045 -0.651922 0
M  V30 2456 H 244.16 6.92581 -0.579366 0
M  V30 2457 H 247.351 4.67992 -0.100441 0
M  V30 2458 H 247.524 6.46816 -0.391535 0
M  V30 2459 N 240.93 -0.123565 1.57115 0
M  V30 2460 C 241.86 -1.15309 2.03042 0
M  V30 2461 C 242.841 -1.43454 0.914061 0
M  V30 2462 O 244.026 -1.53973 1.18347 0
M  V30 2463 C 241.156 -2.48043 2.43089 0
M  V30 2464 C 240.11 -2.3437 3.58127 0
M  V30 2465 C 239.436 -3.72026 3.84059 0
M  V30 2466 C 240.736 -1.80804 4.90007 0
M  V30 2467 H 242.43 -0.771102 2.893 0
M  V30 2468 H 239.976 -0.369479 1.39179 0
M  V30 2469 H 241.929 -3.20311 2.73823 0
M  V30 2470 H 240.653 -2.88122 1.53796 0
M  V30 2471 H 239.312 -1.64551 3.27595 0
M  V30 2472 H 238.96 -4.09582 2.91979 0
M  V30 2473 H 238.66 -3.63732 4.6149 0
M  V30 2474 H 240.184 -4.45806 4.1724 0
M  V30 2475 H 241.598 -2.42886 5.19307 0
M  V30 2476 H 239.995 -1.83343 5.71407 0
M  V30 2477 H 241.065 -0.76528 4.78823 0
M  V30 2478 N 242.408 -1.52605 -0.393616 0
M  V30 2479 C 243.824 -1.41753 -0.733357 0
M  V30 2480 C 244.024 -0.534293 -1.94287 0
M  V30 2481 O 243.08 -0.0059787 -2.52499 0
M  V30 2482 C 244.393 -2.84531 -0.972772 0
M  V30 2483 C 245.941 -2.93978 -1.07453 0
M  V30 2484 C 246.416 -4.37756 -1.3466 0
M  V30 2485 N 247.907 -4.4106 -1.41492 0
M  V30 2486 C 248.642 -5.49387 -1.642 0
M  V30 2487 N 248.138 -6.67806 -1.8441 0
M  V30 2488 N 249.931 -5.36923 -1.66342 0
M  V30 2489 H 242.082 -2.08555 0.402328 0
M  V30 2490 H 244.345 -0.940654 0.117789 0
M  V30 2491 H 244.051 -3.51353 -0.156204 0
M  V30 2492 H 243.925 -3.26508 -1.88871 0
M  V30 2493 H 246.312 -2.27326 -1.88167 0
M  V30 2494 H 246.393 -2.55435 -0.136605 0
M  V30 2495 H 246.037 -5.04972 -0.544581 0
M  V30 2496 H 245.967 -4.73848 -2.2973 0
M  V30 2497 H 248.458 -3.55705 -1.27601 0
M  V30 2498 H 248.771 -7.46141 -2.01231 0
M  V30 2499 H 247.116 -6.70843 -1.81644 0
M  V30 2500 H 250.307 -4.43381 -1.50102 0
M  V30 2501 H 250.48 -6.21416 -1.837 0
M  V30 2502 N 243.887 0.651787 -1.4349 0
M  V30 2503 C 244.797 1.79368 -1.5121 0
M  V30 2504 C 245.813 1.69361 -0.399093 0
M  V30 2505 O 246.989 1.90505 -0.653431 0
M  V30 2506 C 244.054 3.15653 -1.43401 0
M  V30 2507 C 243.115 3.37446 -2.65384 0
M  V30 2508 C 242.348 4.67229 -2.57939 0
M  V30 2509 O 242.571 5.46676 -1.62792 0
M  V30 2510 O 241.505 4.90773 -3.48462 0
M  V30 2511 H 245.331 1.7581 -2.47638 0
M  V30 2512 H 242.916 0.810447 -1.25507 0
M  V30 2513 H 244.798 3.96935 -1.41494 0
M  V30 2514 H 243.473 3.19798 -0.501085 0
M  V30 2515 H 242.38 2.55923 -2.72863 0
M  V30 2516 H 243.713 3.38148 -3.57654 0
M  V30 2517 N 245.365 1.30045 0.890287 0
M  V30 2518 C 246.297 1.11786 2.00091 0
M  V30 2519 C 247.31 0.0626307 1.62679 0
M  V30 2520 O 248.499 0.308112 1.75821 0
M  V30 2521 C 245.599 0.681527 3.31977 0
M  V30 2522 C 244.772 1.81735 3.97858 0
M  V30 2523 C 243.831 1.37045 5.08041 0
M  V30 2524 O 242.857 2.07677 5.29961 0
M  V30 2525 N 244.059 0.246525 5.79976 0
M  V30 2526 H 246.824 2.07441 2.16306 0
M  V30 2527 H 244.385 1.2211 1.06305 0
M  V30 2528 H 246.377 0.365675 4.03045 0
M  V30 2529 H 244.947 -0.182828 3.12065 0
M  V30 2530 H 244.167 2.30159 3.20032 0
M  V30 2531 H 245.455 2.57865 4.38615 0
M  V30 2532 H 244.853 -0.34215 5.64664 0
M  V30 2533 H 243.41 -0.00990438 6.51799 0
M  V30 2534 N 246.843 -1.10192 1.12674 0
M  V30 2535 C 247.753 -2.20172 0.810026 0
M  V30 2536 C 248.769 -1.72821 -0.202188 0
M  V30 2537 O 249.945 -2.01369 -0.0351691 0
M  V30 2538 C 247.01 -3.45631 0.272007 0
M  V30 2539 C 246.071 -4.07704 1.34447 0
M  V30 2540 C 245.304 -5.27175 0.832029 0
M  V30 2541 O 245.527 -5.69425 -0.333284 0
M  V30 2542 O 244.461 -5.80168 1.60277 0
M  V30 2543 H 248.287 -2.49701 1.72867 0
M  V30 2544 H 245.872 -1.18977 0.903597 0
M  V30 2545 H 247.754 -4.21394 -0.0230219 0
M  V30 2546 H 246.429 -3.17723 -0.619164 0
M  V30 2547 H 245.336 -3.33614 1.6927 0
M  V30 2548 H 246.669 -4.3982 2.2095 0
M  V30 2549 N 248.321 -0.919034 -1.28029 0
M  V30 2550 C 249.284 -0.416182 -2.2539 0
M  V30 2551 C 250.284 0.460438 -1.54067 0
M  V30 2552 O 251.474 0.262744 -1.72207 0
M  V30 2553 C 248.606 0.402707 -3.38513 0
M  V30 2554 H 249.799 -1.27629 -2.71387 0
M  V30 2555 H 247.352 -0.698919 -1.39803 0
M  V30 2556 H 248.087 1.282 -2.97885 0
M  V30 2557 H 247.872 -0.225698 -3.9145 0
M  V30 2558 H 249.362 0.745191 -4.10897 0
M  V30 2559 N 249.799 1.42003 -0.683588 0
M  V30 2560 C 250.709 2.34597 -0.0109075 0
M  V30 2561 C 251.725 1.55576 0.779245 0
M  V30 2562 O 252.901 1.88107 0.719555 0
M  V30 2563 C 249.966 3.34199 0.922588 0
M  V30 2564 C 249.027 4.29115 0.125984 0
M  V30 2565 C 248.26 5.23959 1.01502 0
M  V30 2566 O 248.483 5.23952 2.25456 0
M  V30 2567 O 247.417 6.00053 0.47111 0
M  V30 2568 H 251.243 2.93675 -0.773853 0
M  V30 2569 H 248.828 1.42654 -0.443861 0
M  V30 2570 H 250.71 3.95365 1.45823 0
M  V30 2571 H 249.385 2.77582 1.66523 0
M  V30 2572 H 248.292 3.71335 -0.453969 0
M  V30 2573 H 249.625 4.88798 -0.577736 0
M  V30 2574 N 251.277 0.427512 1.51691 0
M  V30 2575 C 252.526 -0.143679 2.01188 0
M  V30 2576 C 252.839 -1.44642 1.31674 0
M  V30 2577 O 254.045 -2.09997 1.72086 0
M  V30 2578 C 252.501 -0.306602 3.58592 0
M  V30 2579 C 252.109 0.985125 4.37035 0
M  V30 2580 C 253.853 -0.832091 4.16265 0
M  V30 2581 C 251.76 0.788382 5.86122 0
M  V30 2582 H 250.69 -0.0574701 0.751807 0
M  V30 2583 H 253.341 0.555772 1.74881 0
M  V30 2584 H 251.723 -1.06882 3.81303 0
M  V30 2585 H 252.897 1.75492 4.26074 0
M  V30 2586 H 251.212 1.4384 3.90767 0
M  V30 2587 H 253.809 -0.995617 5.25349 0
M  V30 2588 H 254.152 -1.81186 3.74803 0
M  V30 2589 H 254.685 -0.128444 3.97593 0
M  V30 2590 H 251.424 1.74025 6.31978 0
M  V30 2591 H 250.944 0.0582143 5.99772 0
M  V30 2592 H 252.623 0.437722 6.45518 0
M  V30 2593 N 252.755 -1.56801 0.158532 0
M  V30 2594 C 253.687 -2.14488 -0.807923 0
M  V30 2595 C 254.7 -1.09721 -1.20271 0
M  V30 2596 O 255.889 -1.36956 -1.14478 0
M  V30 2597 C 252.989 -2.66217 -2.09718 0
M  V30 2598 C 252.162 -3.95507 -1.86796 0
M  V30 2599 C 251.221 -4.3243 -2.99818 0
M  V30 2600 O 250.247 -5.00543 -2.71008 0
M  V30 2601 N 251.449 -3.92947 -4.27285 0
M  V30 2602 H 254.214 -2.98042 -0.314816 0
M  V30 2603 H 251.775 -1.61881 -0.0246692 0
M  V30 2604 H 253.767 -2.87924 -2.84398 0
M  V30 2605 H 252.337 -1.87324 -2.50257 0
M  V30 2606 H 251.557 -3.82309 -0.96089 0
M  V30 2607 H 252.845 -4.79972 -1.68833 0
M  V30 2608 H 252.243 -3.38087 -4.53557 0
M  V30 2609 H 250.8 -4.19681 -4.9871 0
M  V30 2610 N 254.233 0.115231 -1.57178 0
M  V30 2611 C 255.196 1.12526 -1.99676 0
M  V30 2612 C 256.196 1.34095 -0.88742 0
M  V30 2613 O 257.386 1.30548 -1.15337 0
M  V30 2614 C 254.518 2.4789 -2.34015 0
M  V30 2615 H 255.711 0.759912 -2.90113 0
M  V30 2616 H 253.264 0.359648 -1.52106 0
M  V30 2617 H 253.999 2.89339 -1.4647 0
M  V30 2618 H 253.784 2.33588 -3.14927 0
M  V30 2619 H 255.274 3.20575 -2.67622 0
M  V30 2620 N 255.711 1.52812 0.385517 0
M  V30 2621 C 256.641 1.80808 1.47752 0
M  V30 2622 C 257.622 0.660318 1.5676 0
M  V30 2623 O 258.807 0.908246 1.71652 0
M  V30 2624 C 255.937 1.98008 2.85324 0
M  V30 2625 C 254.891 3.13709 2.91154 0
M  V30 2626 C 254.217 3.16169 4.31209 0
M  V30 2627 C 255.517 4.52709 2.60483 0
M  V30 2628 H 257.211 2.72253 1.24573 0
M  V30 2629 H 254.757 1.31003 0.597839 0
M  V30 2630 H 256.71 2.16176 3.61726 0
M  V30 2631 H 255.434 1.03255 3.09848 0
M  V30 2632 H 254.093 2.95329 2.17201 0
M  V30 2633 H 253.741 2.19092 4.52778 0
M  V30 2634 H 253.441 3.93894 4.36029 0
M  V30 2635 H 254.965 3.36496 5.09512 0
M  V30 2636 H 256.379 4.71173 3.26602 0
M  V30 2637 H 254.776 5.32528 2.76648 0
M  V30 2638 H 255.846 4.59186 1.55809 0
M  V30 2639 N 257.189 -0.644168 1.43834 0
M  V30 2640 C 258.605 -0.960875 1.27434 0
M  V30 2641 C 258.805 -2.00499 0.200618 0
M  V30 2642 O 257.861 -2.49018 -0.417906 0
M  V30 2643 C 259.174 -1.43653 2.64167 0
M  V30 2644 C 260.722 -1.55271 2.71772 0
M  V30 2645 C 261.197 -2.06224 4.08944 0
M  V30 2646 N 262.688 -2.13513 4.11055 0
M  V30 2647 C 263.423 -2.54081 5.14033 0
M  V30 2648 N 262.919 -2.9388 6.27381 0
M  V30 2649 N 264.712 -2.54101 5.01387 0
M  V30 2650 H 256.863 0.0465779 2.12349 0
M  V30 2651 H 259.126 -0.0417638 0.94708 0
M  V30 2652 H 258.832 -0.743706 3.43747 0
M  V30 2653 H 258.706 -2.40993 2.90176 0
M  V30 2654 H 261.093 -2.23653 1.92519 0
M  V30 2655 H 261.174 -0.563395 2.49519 0
M  V30 2656 H 260.818 -1.38441 4.88668 0
M  V30 2657 H 260.748 -3.06003 4.28567 0
M  V30 2658 H 263.239 -1.85493 3.29242 0
M  V30 2659 H 263.552 -3.2361 7.01781 0
M  V30 2660 H 261.897 -2.91663 6.30839 0
M  V30 2661 H 265.088 -2.22391 4.11898 0
M  V30 2662 H 265.261 -2.85394 5.81768 0
M  V30 2663 N 258.668 -1.30515 -0.883378 0
M  V30 2664 C 259.598 -1.19607 -2.00541 0
M  V30 2665 C 260.579 -0.086346 -1.69881 0
M  V30 2666 O 261.764 -0.268654 -1.92333 0
M  V30 2667 C 258.894 -0.888758 -3.35736 0
M  V30 2668 C 257.848 -1.95659 -3.8066 0
M  V30 2669 C 257.174 -1.50224 -5.13164 0
M  V30 2670 C 258.474 -3.36788 -3.99213 0
M  V30 2671 H 260.168 -2.13476 -2.09925 0
M  V30 2672 H 257.714 -1.02775 -1.00863 0
M  V30 2673 H 259.667 -0.799094 -4.13754 0
M  V30 2674 H 258.391 0.0856125 -3.26488 0
M  V30 2675 H 257.05 -2.03591 -3.04871 0
M  V30 2676 H 256.698 -0.516092 -5.00345 0
M  V30 2677 H 256.398 -2.2165 -5.44192 0
M  V30 2678 H 257.922 -1.42639 -5.93706 0
M  V30 2679 H 259.336 -3.31605 -4.67665 0
M  V30 2680 H 257.733 -4.06314 -4.41621 0
M  V30 2681 H 258.803 -3.78561 -3.03017 0
M  V30 2682 N 260.146 1.09593 -1.13257 0
M  V30 2683 C 261.056 2.19739 -0.821691 0
M  V30 2684 C 262.072 1.72926 0.19302 0
M  V30 2685 O 263.248 2.01385 0.0244895 0
M  V30 2686 C 260.313 3.45482 -0.290333 0
M  V30 2687 C 259.374 4.06985 -1.36607 0
M  V30 2688 C 258.607 5.26726 -0.859975 0
M  V30 2689 O 258.83 5.69594 0.303082 0
M  V30 2690 O 257.764 5.7931 -1.63351 0
M  V30 2691 H 261.59 2.48781 -1.74189 0
M  V30 2692 H 259.175 1.18496 -0.909894 0
M  V30 2693 H 261.057 4.214 0.000674022 0
M  V30 2694 H 259.732 3.18047 0.602306 0
M  V30 2695 H 258.639 3.32712 -1.71037 0
M  V30 2696 H 259.972 4.38643 -2.23279 0
M  V30 2697 N 261.624 0.925811 1.2754 0
M  V30 2698 C 263.04 0.625767 1.46821 0
M  V30 2699 C 263.24 -0.825506 1.83814 0
M  V30 2700 O 262.296 -1.60356 1.95044 0
M  V30 2701 C 263.609 1.57402 2.56213 0
M  V30 2702 C 265.157 1.58204 2.70075 0
M  V30 2703 C 265.632 2.51721 3.82623 0
M  V30 2704 N 267.123 2.49917 3.89994 0
M  V30 2705 C 267.858 3.18968 4.76494 0
M  V30 2706 N 267.354 3.97391 5.67496 0
M  V30 2707 N 269.147 3.07996 4.70208 0
M  V30 2708 H 261.298 1.86409 1.01811 0
M  V30 2709 H 263.561 0.800213 0.508295 0
M  V30 2710 H 263.267 2.60925 2.35819 0
M  V30 2711 H 263.141 1.31428 3.53563 0
M  V30 2712 H 265.528 0.554124 2.89851 0
M  V30 2713 H 265.609 1.88226 1.73218 0
M  V30 2714 H 265.253 3.54622 3.63601 0
M  V30 2715 H 265.183 2.18996 4.78903 0
M  V30 2716 H 267.674 1.9296 3.24923 0
M  V30 2717 H 267.987 4.4707 6.30356 0
M  V30 2718 H 266.332 4.01495 5.67298 0
M  V30 2719 H 269.523 2.46223 3.9811 0
M  V30 2720 H 269.696 3.6208 5.37403 0
M  V30 2721 N 263.102 -1.41638 0.69111 0
M  V30 2722 C 264.379 -1.95036 0.148421 0
M  V30 2723 C 264.759 -1.63072 -1.34055 0
M  V30 2724 O 264.107 -0.93538 -2.08478 0
M  V30 2725 C 264.317 -3.46279 0.434951 0
M  V30 2726 C 265.665 -4.23069 0.360275 0
M  V30 2727 O 266.689 -3.54277 0.369613 0
M  V30 2728 O 265.548 -5.45583 0.316534 0
M  V30 2729 H 262.642 -0.826908 0.0123654 0
M  V30 2730 H 265.188 -1.5138 0.766963 0
M  V30 2731 H 263.96 -3.6281 1.46576 0
M  V30 2732 H 263.583 -3.97019 -0.214787 0
M  V30 2733 N 264.58 -0.43555 -1.51462 0
M  V30 2734 C 265.996 -0.0877501 -1.59359 0
M  V30 2735 C 266.196 1.4027 -1.4466 0
M  V30 2736 O 265.252 2.17243 -1.28693 0
M  V30 2737 C 266.565 -0.606264 -2.94525 0
M  V30 2738 C 268.113 -0.566548 -3.0783 0
M  V30 2739 C 268.588 -1.06201 -4.45517 0
M  V30 2740 N 270.079 -1.01992 -4.51832 0
M  V30 2741 C 270.814 -1.37417 -5.5669 0
M  V30 2742 N 270.31 -1.80119 -6.68976 0
M  V30 2743 N 272.103 -1.29245 -5.47039 0
M  V30 2744 H 264.254 -1.40533 -1.59261 0
M  V30 2745 H 266.517 -0.578992 -0.750648 0
M  V30 2746 H 266.223 -1.64901 -3.10645 0
M  V30 2747 H 266.097 -0.0302097 -3.77188 0
M  V30 2748 H 268.484 0.467208 -2.91378 0
M  V30 2749 H 268.565 -1.17898 -2.2701 0
M  V30 2750 H 268.209 -2.09422 -4.62715 0
M  V30 2751 H 268.139 -0.426127 -5.24873 0
M  V30 2752 H 270.63 -0.706308 -3.71241 0
M  V30 2753 H 270.943 -2.05392 -7.45006 0
M  V30 2754 H 269.288 -1.84044 -6.70189 0
M  V30 2755 H 272.479 -0.957522 -4.58202 0
M  V30 2756 H 272.652 -1.57182 -6.28648 0
M  V30 2757 N 266.058 1.56714 -0.166846 0
M  V30 2758 C 267.021 2.16539 0.751232 0
M  V30 2759 C 268.021 1.11228 1.16125 0
M  V30 2760 O 269.211 1.36765 1.07894 0
M  V30 2761 C 266.343 2.74462 2.02196 0
M  V30 2762 H 267.536 2.99013 0.230499 0
M  V30 2763 H 265.089 1.56081 0.0826982 0
M  V30 2764 H 265.824 1.95709 2.58589 0
M  V30 2765 H 265.609 3.51527 1.73698 0
M  V30 2766 H 267.099 3.20489 2.67725 0
M  V30 2767 N 267.536 -0.106894 1.57237 0
M  V30 2768 C 268.782 -0.81373 1.85759 0
M  V30 2769 C 269.115 -1.78952 0.754315 0
M  V30 2770 O 268.39 -1.93029 -0.23879 0
M  V30 2771 C 268.673 -1.55293 3.24894 0
M  V30 2772 C 268.526 -0.595929 4.45835 0
M  V30 2773 C 269.845 -2.5063 3.61763 0
M  V30 2774 H 266.964 -0.294369 0.67566 0
M  V30 2775 H 269.606 -0.0776472 1.89841 0
M  V30 2776 H 267.756 -2.1804 3.21544 0
M  V30 2777 H 269.428 0.0236262 4.61294 0
M  V30 2778 H 267.671 0.0916191 4.33703 0
M  V30 2779 H 268.342 -1.15004 5.39887 0
M  V30 2780 H 270.818 -1.97982 3.65981 0
M  V30 2781 H 269.694 -2.99376 4.60071 0
M  V30 2782 H 269.955 -3.3385 2.89821 0
M  V30 2783 N 269.014 -1.53014 -0.377408 0
M  V30 2784 C 269.977 -1.77957 -1.44444 0
M  V30 2785 C 270.977 -0.649763 -1.47087 0
M  V30 2786 O 272.167 -0.917897 -1.48055 0
M  V30 2787 C 269.299 -1.89089 -2.83651 0
M  V30 2788 H 270.492 -2.73243 -1.23606 0
M  V30 2789 H 268.045 -1.43912 -0.609844 0
M  V30 2790 H 268.78 -0.958293 -3.09818 0
M  V30 2791 H 268.565 -2.71254 -2.83132 0
M  V30 2792 H 270.055 -2.1002 -3.60945 0
M  V30 2793 N 270.492 0.636531 -1.44174 0
M  V30 2794 C 271.908 0.954104 -1.27941 0
M  V30 2795 C 272.108 2.0039 -0.211248 0
M  V30 2796 O 271.164 2.49236 0.404695 0
M  V30 2797 C 272.477 1.4225 -2.64925 0
M  V30 2798 C 274.025 1.53827 -2.72592 0
M  V30 2799 C 274.5 2.04053 -4.10032 0
M  V30 2800 N 275.991 2.11331 -4.12182 0
M  V30 2801 C 276.726 2.51352 -5.15374 0
M  V30 2802 N 276.222 2.90549 -6.2893 0
M  V30 2803 N 278.015 2.51438 -5.02728 0
M  V30 2804 H 270.166 -0.0578386 -2.12321 0
M  V30 2805 H 272.429 0.0367406 -0.947288 0
M  V30 2806 H 272.135 0.725466 -3.44136 0
M  V30 2807 H 272.009 2.39451 -2.9145 0
M  V30 2808 H 274.396 2.22628 -1.93702 0
M  V30 2809 H 274.477 0.550154 -2.49814 0
M  V30 2810 H 274.121 1.35848 -4.89395 0
M  V30 2811 H 274.051 3.03726 -4.30184 0
M  V30 2812 H 276.542 1.83745 -3.30222 0
M  V30 2813 H 276.855 3.19884 -7.03487 0
M  V30 2814 H 275.2 2.88313 -6.32377 0
M  V30 2815 H 278.391 2.20203 -4.13072 0
M  V30 2816 H 278.564 2.82304 -5.83274 0
M  V30 2817 N 271.97 1.30982 0.876444 0
M  V30 2818 C 273.219 1.19658 1.62373 0
M  V30 2819 C 273.532 -0.245636 1.94052 0
M  V30 2820 O 274.738 -0.48049 2.67214 0
M  V30 2821 C 273.194 2.09433 2.92687 0
M  V30 2822 C 272.802 3.58613 2.68516 0
M  V30 2823 C 274.546 2.06893 3.70669 0
M  V30 2824 C 272.453 4.40416 3.94699 0
M  V30 2825 H 271.383 0.444268 0.609214 0
M  V30 2826 H 274.034 1.55791 0.969605 0
M  V30 2827 H 272.416 1.66191 3.59439 0
M  V30 2828 H 273.59 4.10058 2.10212 0
M  V30 2829 H 271.905 3.63063 2.03898 0
M  V30 2830 H 274.502 2.65258 4.64265 0
M  V30 2831 H 274.845 1.05448 4.02724 0
M  V30 2832 H 275.378 2.48301 3.10792 0
M  V30 2833 H 272.117 5.42591 3.67798 0
M  V30 2834 H 271.637 3.93731 4.52477 0
M  V30 2835 H 273.316 4.52294 4.62644 0
M  V30 2836 N 273.449 -1.08991 1.13837 0
M  V30 2837 C 274.695 -1.81526 0.90422 0
M  V30 2838 C 275.028 -1.85706 -0.568066 0
M  V30 2839 O 274.303 -1.32855 -1.42056 0
M  V30 2840 C 274.586 -3.27447 1.49835 0
M  V30 2841 C 274.439 -3.31512 3.04006 0
M  V30 2842 C 275.758 -4.24256 1.17025 0
M  V30 2843 H 272.877 -0.659029 0.329923 0
M  V30 2844 H 275.519 -1.27644 1.40737 0
M  V30 2845 H 273.669 -3.73462 1.07044 0
M  V30 2846 H 275.341 -2.93867 3.55584 0
M  V30 2847 H 273.584 -2.70963 3.38765 0
M  V30 2848 H 274.255 -4.34329 3.40679 0
M  V30 2849 H 276.731 -3.86549 1.54009 0
M  V30 2850 H 275.607 -5.24684 1.61237 0
M  V30 2851 H 275.868 -4.42019 0.0846274 0
M  V30 2852 N 274.927 -0.932562 -1.27047 0
M  V30 2853 C 276.338 -0.619451 -1.76124 0
M  V30 2854 C 276.689 0.865397 -1.76083 0
M  V30 2855 O 275.814 1.67722 -1.36742 0
M  V30 2856 C 276.409 -1.11771 -3.19832 0
M  V30 2857 C 274.968 -0.855174 -3.66557 0
M  V30 2858 C 274.115 -1.27362 -2.46321 0
M  V30 2859 H 277.066 -1.11181 -1.13245 0
M  V30 2860 H 277.087 -0.46759 -3.77616 0
M  V30 2861 H 276.599 -2.19842 -3.1983 0
M  V30 2862 H 274.7 0.211524 -3.71999 0
M  V30 2863 H 274.813 -1.47613 -4.55793 0
M  V30 2864 H 273.177 -0.692119 -2.45116 0
M  V30 2865 H 273.96 -2.36307 -2.49025 0
M  V30 2866 N 276.405 1.4127 -0.698611 0
M  V30 2867 C 277.682 1.94955 -0.158762 0
M  V30 2868 C 278.062 1.63781 1.33188 0
M  V30 2869 O 277.41 0.946423 2.07979 0
M  V30 2870 C 277.62 3.46044 -0.453309 0
M  V30 2871 C 278.968 4.22872 -0.382707 0
M  V30 2872 O 279.992 3.54076 -0.388396 0
M  V30 2873 O 278.851 5.45407 -0.345463 0
M  V30 2874 H 275.945 0.82683 -0.0167505 0
M  V30 2875 H 278.491 1.50971 -0.77498 0
M  V30 2876 H 277.263 3.62028 -1.48498 0
M  V30 2877 H 276.886 3.97128 0.19373 0
M  V30 2878 N 277.883 0.443576 1.51229 0
M  V30 2879 C 279.131 -0.120557 2.0174 0
M  V30 2880 C 279.452 -1.42665 1.32935 0
M  V30 2881 O 278.722 -1.9028 0.465866 0
M  V30 2882 H 277.302 -0.0475426 0.745486 0
M  V30 2883 H 279.964 0.587711 1.85828 0
M  V30 2884 H 279.06 -0.291972 3.10731 0
M  V30 2885 N 279.361 -1.56624 0.175154 0
M  V30 2886 C 280.609 -1.96609 -0.467885 0
M  V30 2887 C 280.93 -1.06238 -1.63519 0
M  V30 2888 O 280.2 -0.129523 -1.95471 0
M  V30 2889 H 278.78 -0.726008 -0.175845 0
M  V30 2890 H 281.442 -1.93195 0.257234 0
M  V30 2891 H 280.538 -3.00989 -0.825342 0
M  V30 2892 N 280.839 0.0985539 -1.57292 0
M  V30 2893 C 282.064 0.820196 -1.90493 0
M  V30 2894 C 282.489 1.71658 -0.769094 0
M  V30 2895 O 281.847 1.79133 0.279495 0
M  V30 2896 C 281.895 1.61242 -3.22542 0
M  V30 2897 O 280.999 2.72108 -3.09888 0
M  V30 2898 H 280.34 0.225547 -0.62452 0
M  V30 2899 H 282.87 0.0748159 -2.04463 0
M  V30 2900 H 282.88 1.99737 -3.55766 0
M  V30 2901 H 281.555 0.954535 -4.04798 0
M  V30 2902 H 280.132 2.36667 -2.88172 0
M  V30 2903 N 282.317 1.53212 0.369288 0
M  V30 2904 C 283.25 1.74166 1.4745 0
M  V30 2905 C 284.228 0.589923 1.51521 0
M  V30 2906 O 285.412 0.822078 1.69629 0
M  V30 2907 C 282.539 1.81711 2.8583 0
M  V30 2908 C 281.585 3.03649 2.99499 0
M  V30 2909 S 282.418 4.63242 2.6864 0
M  V30 2910 C 283.574 4.7363 4.09177 0
M  V30 2911 H 283.807 2.67636 1.29454 0
M  V30 2912 H 281.34 1.43754 0.563396 0
M  V30 2913 H 283.298 1.86743 3.65564 0
M  V30 2914 H 281.959 0.89299 3.01139 0
M  V30 2915 H 281.152 3.05526 4.00836 0
M  V30 2916 H 280.754 2.9671 2.27683 0
M  V30 2917 H 283.046 4.53456 5.03372 0
M  V30 2918 H 283.989 5.75682 4.12306 0
M  V30 2919 H 284.397 4.02295 3.96004 0
M  V30 2920 N 283.795 -0.628877 1.44509 0
M  V30 2921 C 284.758 -1.72263 1.51188 0
M  V30 2922 C 285.758 -1.55907 0.39367 0
M  V30 2923 O 286.948 -1.61361 0.656377 0
M  V30 2924 C 284.08 -3.11365 1.38798 0
M  V30 2925 H 285.273 -1.67714 2.4862 0
M  V30 2926 H 282.826 -0.842737 1.31634 0
M  V30 2927 H 283.561 -3.21507 0.424693 0
M  V30 2928 H 283.346 -3.24644 2.19884 0
M  V30 2929 H 284.836 -3.91075 1.46458 0
M  V30 2930 N 285.273 -1.31445 -0.869486 0
M  V30 2931 C 286.521 -1.20918 -1.61936 0
M  V30 2932 C 286.842 0.232683 -1.93607 0
M  V30 2933 O 286.112 1.15352 -1.58338 0
M  V30 2934 H 284.692 -0.44454 -0.600328 0
M  V30 2935 H 287.354 -1.64776 -1.0409 0
M  V30 2936 H 286.45 -1.78124 -2.56278 0
M  V30 2937 N 286.751 1.08385 -1.14413 0
M  V30 2938 C 288.167 1.32844 -0.884563 0
M  V30 2939 C 288.367 1.95841 0.474181 0
M  V30 2940 O 287.423 2.21158 1.21842 0
M  V30 2941 C 288.736 2.22978 -2.01745 0
M  V30 2942 C 290.284 2.36458 -2.05077 0
M  V30 2943 C 290.759 3.29934 -3.1766 0
M  V30 2944 N 292.25 3.37511 -3.17239 0
M  V30 2945 C 292.985 4.09871 -4.0099 0
M  V30 2946 N 292.481 4.84936 -4.94781 0
M  V30 2947 N 294.274 4.05704 -3.89051 0
M  V30 2948 H 286.425 0.658756 -2.01926 0
M  V30 2949 H 288.688 0.352821 -0.879899 0
M  V30 2950 H 288.394 1.83934 -2.99769 0
M  V30 2951 H 288.268 3.23441 -1.94077 0
M  V30 2952 H 290.655 2.7476 -1.0766 0
M  V30 2953 H 290.736 1.35736 -2.16816 0
M  V30 2954 H 290.38 2.92352 -4.15322 0
M  V30 2955 H 290.31 4.30584 -3.03158 0
M  V30 2956 H 292.801 2.83996 -2.49308 0
M  V30 2957 H 293.114 5.37612 -5.55151 0
M  V30 2958 H 291.459 4.83988 -4.98779 0
M  V30 2959 H 294.65 3.46167 -3.15097 0
M  V30 2960 H 294.823 4.61834 -4.54547 0
M  V30 2961 N 288.23 0.939286 1.26551 0
M  V30 2962 C 289.455 0.602008 1.98471 0
M  V30 2963 C 289.88 -0.815624 1.69497 0
M  V30 2964 O 289.238 -1.54912 0.941905 0
M  V30 2965 C 289.286 0.848407 3.50477 0
M  V30 2966 O 288.39 -0.0804009 4.12322 0
M  V30 2967 H 287.731 0.23049 0.622712 0
M  V30 2968 H 290.261 1.2617 1.61066 0
M  V30 2969 H 290.271 0.768553 4.00696 0
M  V30 2970 H 288.946 1.88171 3.70897 0
M  V30 2971 H 287.523 0.0503508 3.72866 0
M  V30 2972 N 289.708 -1.40897 0.706093 0
M  V30 2973 C 290.956 -2.00657 0.241054 0
M  V30 2974 C 291.277 -1.56241 -1.16678 0
M  V30 2975 O 290.547 -0.79765 -1.78926 0
M  V30 2976 H 289.127 -0.742018 0.0861308 0
M  V30 2977 H 291.789 -1.72372 0.909604 0
M  V30 2978 H 290.885 -3.10958 0.266705 0
M  V30 2979 N 291.186 -0.45159 -1.50991 0
M  V30 2980 C 292.414 0.108334 -2.06616 0
M  V30 2981 C 292.829 1.35224 -1.31757 0
M  V30 2982 O 292.186 1.78475 -0.381174 0
M  V30 2983 C 292.237 0.41619 -3.59096 0
M  V30 2984 O 291.958 -0.778361 -4.3113 0
M  V30 2985 C 293.459 1.02523 -4.31282 0
M  V30 2986 H 290.679 0.00159995 -0.670998 0
M  V30 2987 H 293.223 -0.634771 -1.94399 0
M  V30 2988 H 291.378 1.10921 -3.71181 0
M  V30 2989 H 291.792 -0.511181 -5.22003 0
M  V30 2990 H 293.266 1.19053 -5.39009 0
M  V30 2991 H 293.743 2.01013 -3.905 0
M  V30 2992 H 294.349 0.371173 -4.23677 0
M  V30 2993 N 292.664 1.56529 -0.183458 0
M  V30 2994 C 294.075 1.83739 0.331177 0
M  V30 2995 C 294.426 1.10373 1.62211 0
M  V30 2996 O 293.551 0.36071 2.13373 0
M  V30 2997 C 294.146 3.33306 0.607646 0
M  V30 2998 C 292.705 3.60969 1.06668 0
M  V30 2999 C 291.852 2.77086 0.109029 0
M  V30 3000 H 294.803 1.53379 -0.407484 0
M  V30 3001 H 294.824 3.51444 1.45832 0
M  V30 3002 H 294.336 3.86677 -0.332086 0
M  V30 3003 H 292.437 3.13021 2.0211 0
M  V30 3004 H 292.55 4.69231 0.967447 0
M  V30 3005 H 290.914 2.47319 0.608714 0
M  V30 3006 H 291.697 3.33241 -0.82494 0
M  V30 3007 N 294.142 -0.090211 1.57342 0
M  V30 3008 C 295.074 -1.13541 1.99101 0
M  V30 3009 C 296.087 -1.3604 0.894258 0
M  V30 3010 O 297.276 -1.34606 1.17233 0
M  V30 3011 C 294.376 -2.49001 2.29895 0
M  V30 3012 C 293.549 -2.46712 3.61182 0
M  V30 3013 C 292.608 -3.64136 3.79857 0
M  V30 3014 O 291.634 -3.46405 4.51655 0
M  V30 3015 N 292.836 -4.83802 3.20806 0
M  V30 3016 H 295.601 -0.779942 2.89373 0
M  V30 3017 H 293.162 -0.279125 1.59476 0
M  V30 3018 H 295.154 -3.26166 2.39578 0
M  V30 3019 H 293.724 -2.76619 1.45605 0
M  V30 3020 H 292.944 -1.55058 3.62423 0
M  V30 3021 H 294.232 -2.42265 4.4742 0
M  V30 3022 H 293.63 -5.01112 2.62494 0
M  V30 3023 H 292.187 -5.58543 3.35966 0
M  V30 3024 N 295.62 -1.53406 -0.361157 0
M  V30 3025 C 296.866 -1.70054 -1.10496 0
M  V30 3026 C 297.199 -0.453278 -1.88836 0
M  V30 3027 O 296.474 0.5495 -1.86576 0
M  V30 3028 C 296.757 -2.95317 -2.06058 0
M  V30 3029 C 296.61 -4.3021 -1.31298 0
M  V30 3030 C 297.929 -3.16193 -3.06121 0
M  V30 3031 H 295.048 -0.618799 -0.400321 0
M  V30 3032 H 297.69 -1.86052 -0.385318 0
M  V30 3033 H 295.84 -2.81809 -2.67425 0
M  V30 3034 H 297.512 -4.55538 -0.726807 0
M  V30 3035 H 295.755 -4.29421 -0.614853 0
M  V30 3036 H 296.426 -5.14 -2.01265 0
M  V30 3037 H 298.902 -3.28916 -2.5486 0
M  V30 3038 H 297.778 -4.05266 -3.70204 0
M  V30 3039 H 298.039 -2.31676 -3.76535 0
M  V30 3040 N 297.098 0.621204 -1.44841 0
M  V30 3041 C 298.323 1.41244 -1.51871 0
M  V30 3042 C 298.748 1.87519 -0.147764 0
M  V30 3043 O 298.106 1.59334 0.865 0
M  V30 3044 C 298.154 2.60221 -2.49634 0
M  V30 3045 O 297.258 3.60395 -2.00473 0
M  V30 3046 H 296.599 0.42223 -0.512463 0
M  V30 3047 H 299.129 0.757305 -1.90069 0
M  V30 3048 H 299.139 3.0764 -2.67996 0
M  V30 3049 H 297.814 2.25887 -3.4921 0
M  V30 3050 H 296.391 3.19717 -1.91925 0
M  V30 3051 N 298.576 1.31904 0.862503 0
M  V30 3052 C 299.853 1.12644 1.59908 0
M  V30 3053 C 300.233 -0.316104 2.0872 0
M  V30 3054 O 299.581 -1.31145 1.87118 0
M  V30 3055 C 299.791 2.1472 2.7513 0
M  V30 3056 C 301.139 2.47637 3.44907 0
M  V30 3057 O 302.163 2.13205 2.85346 0
M  V30 3058 O 301.022 3.06632 4.52371 0
M  V30 3059 H 298.116 0.43416 0.703871 0
M  V30 3060 H 300.662 1.43408 0.907314 0
M  V30 3061 H 299.434 3.1172 2.3653 0
M  V30 3062 H 299.057 1.84905 3.51989 0
M  V30 3063 N 300.054 -1.07777 1.14986 0
M  V30 3064 C 300.964 -2.18404 0.856546 0
M  V30 3065 C 301.98 -1.73211 -0.165485 0
M  V30 3066 O 303.156 -2.01399 0.00755219 0
M  V30 3067 C 300.221 -3.44977 0.34526 0
M  V30 3068 C 299.282 -4.0476 1.43065 0
M  V30 3069 C 298.515 -5.25291 0.943663 0
M  V30 3070 O 298.738 -5.70004 -0.212426 0
M  V30 3071 O 297.672 -5.76638 1.72547 0
M  V30 3072 H 301.498 -2.45978 1.78125 0
M  V30 3073 H 299.083 -1.17033 0.928631 0
M  V30 3074 H 300.965 -4.21348 0.0663671 0
M  V30 3075 H 299.64 -3.18965 -0.551631 0
M  V30 3076 H 298.547 -3.29949 1.76309 0
M  V30 3077 H 299.88 -4.35035 2.30229 0
M  V30 3078 N 301.532 -0.945985 -1.26051 0
M  V30 3079 C 302.781 -0.591836 -1.92822 0
M  V30 3080 C 303.094 0.873956 -1.7499 0
M  V30 3081 O 304.3 1.33769 -2.36259 0
M  V30 3082 C 302.756 -1.00776 -3.45503 0
M  V30 3083 C 302.364 -2.4955 -3.7206 0
M  V30 3084 C 304.108 -0.725735 -4.1825 0
M  V30 3085 C 302.015 -2.84988 -5.18205 0
M  V30 3086 H 300.945 -0.217635 -0.721908 0
M  V30 3087 H 303.596 -1.14927 -1.43052 0
M  V30 3088 H 301.978 -0.378812 -3.94184 0
M  V30 3089 H 303.152 -3.1739 -3.34066 0
M  V30 3090 H 301.467 -2.75133 -3.12555 0
M  V30 3091 H 304.064 -0.966771 -5.25887 0
M  V30 3092 H 304.407 0.337639 -4.14929 0
M  V30 3093 H 304.94 -1.31463 -3.7545 0
M  V30 3094 H 301.679 -3.90307 -5.26631 0
M  V30 3095 H 301.199 -2.21813 -5.57278 0
M  V30 3096 H 302.878 -2.73712 -5.86252 0
M  V30 3097 N 303.011 1.40521 -0.713556 0
M  V30 3098 C 304.257 2.01221 -0.252564 0
M  V30 3099 C 304.59 1.56444 1.1506 0
M  V30 3100 O 303.865 0.783597 1.78017 0
M  V30 3101 C 304.148 3.58582 -0.330332 0
M  V30 3102 C 304.001 4.13437 -1.77173 0
M  V30 3103 C 305.32 4.39079 0.299641 0
M  V30 3104 H 302.439 0.731077 -0.0932471 0
M  V30 3105 H 305.081 1.67026 -0.905673 0
M  V30 3106 H 303.231 3.87844 0.225737 0
M  V30 3107 H 304.903 3.9498 -2.38303 0
M  V30 3108 H 303.146 3.67801 -2.3001 0
M  V30 3109 H 303.817 5.22597 -1.77755 0
M  V30 3110 H 306.293 4.15735 -0.174139 0
M  V30 3111 H 305.169 5.4848 0.214771 0
M  V30 3112 H 305.43 4.19915 1.38288 0
M  V30 3113 N 304.489 0.459591 1.5075 0
M  V30 3114 C 305.436 -0.340524 2.28274 0
M  V30 3115 C 306.406 -0.997371 1.32822 0
M  V30 3116 O 307.591 -1.01202 1.61749 0
M  V30 3117 C 304.731 -1.42317 3.14388 0
M  V30 3118 C 303.844 -0.782251 4.24859 0
M  V30 3119 C 302.979 -1.84182 4.98247 0
M  V30 3120 C 302.018 -1.18053 6.00608 0
M  V30 3121 N 301.155 -2.18244 6.67319 0
M  V30 3122 H 305.995 0.326899 2.96202 0
M  V30 3123 H 303.532 0.173057 1.46078 0
M  V30 3124 H 305.49 -2.06241 3.62658 0
M  V30 3125 H 304.12 -2.05992 2.4853 0
M  V30 3126 H 303.172 -0.0307404 3.80388 0
M  V30 3127 H 304.484 -0.259663 4.98124 0
M  V30 3128 H 303.638 -2.55714 5.50177 0
M  V30 3129 H 302.377 -2.39819 4.24662 0
M  V30 3130 H 301.382 -0.450776 5.47949 0
M  V30 3131 H 302.607 -0.631202 6.7616 0
M  V30 3132 H 300.553 -2.72919 5.96533 0
M  V30 3133 H 300.47 -1.70938 7.36421 0
M  V30 3134 H 301.738 -2.89191 7.23871 0
M  V30 3135 N 305.967 -1.56429 0.191757 0
M  V30 3136 C 306.877 -2.22541 -0.742481 0
M  V30 3137 C 307.893 -1.22342 -1.23727 0
M  V30 3138 O 309.069 -1.55069 -1.28513 0
M  V30 3139 C 306.134 -2.8692 -1.94623 0
M  V30 3140 C 305.195 -4.02378 -1.49633 0
M  V30 3141 C 304.428 -4.63678 -2.6427 0
M  V30 3142 O 304.651 -4.23895 -3.81666 0
M  V30 3143 O 303.585 -5.53202 -2.37174 0
M  V30 3144 H 307.411 -3.02977 -0.209462 0
M  V30 3145 H 304.996 -1.49353 -0.0373832 0
M  V30 3146 H 306.878 -3.27663 -2.64982 0
M  V30 3147 H 305.553 -2.09466 -2.46791 0
M  V30 3148 H 304.46 -3.66265 -0.761636 0
M  V30 3149 H 305.793 -4.81487 -1.02134 0
M  V30 3150 N 307.445 0.0818655 -1.57387 0
M  V30 3151 C 308.375 1.09885 -2.06028 0
M  V30 3152 C 309.356 1.4098 -0.951774 0
M  V30 3153 O 310.541 1.50781 -1.22387 0
M  V30 3154 C 307.671 2.4151 -2.4958 0
M  V30 3155 C 306.625 2.24792 -3.64215 0
M  V30 3156 C 305.951 3.61712 -3.93787 0
M  V30 3157 C 307.251 1.67749 -4.94629 0
M  V30 3158 H 308.945 0.694128 -2.91243 0
M  V30 3159 H 306.491 0.332448 -1.4011 0
M  V30 3160 H 308.444 3.12939 -2.82219 0
M  V30 3161 H 307.168 2.83943 -1.61381 0
M  V30 3162 H 305.827 1.55807 -3.31843 0
M  V30 3163 H 305.475 4.01697 -3.02735 0
M  V30 3164 H 305.175 3.51368 -4.70971 0
M  V30 3165 H 306.699 4.34587 -4.28913 0
M  V30 3166 H 308.113 2.29032 -5.25564 0
M  V30 3167 H 306.51 1.68128 -5.76067 0
M  V30 3168 H 307.58 0.638059 -4.80684 0
M  V30 3169 N 308.923 1.53595 0.353017 0
M  V30 3170 C 310.339 1.43648 0.695516 0
M  V30 3171 C 310.539 0.585617 1.92802 0
M  V30 3172 O 309.595 0.0729223 2.52395 0
M  V30 3173 C 310.908 2.8701 0.896991 0
M  V30 3174 C 312.456 2.96723 0.996209 0
M  V30 3175 C 312.931 4.41173 1.23007 0
M  V30 3176 N 314.422 4.44657 1.29749 0
M  V30 3177 C 315.157 5.53547 1.49577 0
M  V30 3178 N 314.653 6.72461 1.66639 0
M  V30 3179 N 316.446 5.41145 1.52048 0
M  V30 3180 H 308.597 2.07415 -0.457481 0
M  V30 3181 H 310.86 0.9372 -0.142687 0
M  V30 3182 H 310.566 3.51644 0.0629938 0
M  V30 3183 H 310.44 3.31401 1.80148 0
M  V30 3184 H 312.827 2.32235 1.82074 0
M  V30 3185 H 312.908 2.55707 0.0688331 0
M  V30 3186 H 312.552 5.06238 0.410505 0
M  V30 3187 H 312.482 4.79772 2.17086 0
M  V30 3188 H 314.973 3.58963 1.18126 0
M  V30 3189 H 315.286 7.51214 1.81378 0
M  V30 3190 H 313.631 6.75423 1.63794 0
M  V30 3191 H 316.822 4.47205 1.38294 0
M  V30 3192 H 316.995 6.26068 1.67159 0
M  V30 3193 N 310.401 -0.613514 1.45168 0
M  V30 3194 C 311.311 -1.75296 1.55912 0
M  V30 3195 C 312.327 -1.68244 0.443856 0
M  V30 3196 O 313.503 -1.88706 0.70371 0
M  V30 3197 C 310.568 -3.1174 1.5172 0
M  V30 3198 C 309.629 -3.30291 2.74238 0
M  V30 3199 C 308.862 -4.60226 2.70236 0
M  V30 3200 O 309.085 -5.42168 1.77229 0
M  V30 3201 O 308.019 -4.81361 3.61352 0
M  V30 3202 H 311.845 -1.69183 2.52212 0
M  V30 3203 H 309.43 -0.776886 1.27612 0
M  V30 3204 H 311.312 -3.93044 1.51968 0
M  V30 3205 H 309.987 -3.18357 0.585697 0
M  V30 3206 H 308.894 -2.48598 2.79553 0
M  V30 3207 H 310.227 -3.28547 3.66494 0
M  V30 3208 N 311.879 -1.3236 -0.855495 0
M  V30 3209 C 312.789 -1.23221 -1.99634 0
M  V30 3210 C 313.805 -0.145983 -1.73387 0
M  V30 3211 O 314.981 -0.366502 -1.98037 0
M  V30 3212 C 312.046 -0.954782 -3.33294 0
M  V30 3213 C 311.107 -2.12937 -3.72769 0
M  V30 3214 C 310.34 -1.86508 -5.00051 0
M  V30 3215 O 310.563 -0.807231 -5.64659 0
M  V30 3216 O 309.497 -2.72591 -5.36636 0
M  V30 3217 H 313.323 -2.19126 -2.1028 0
M  V30 3218 H 310.908 -1.12241 -0.986018 0
M  V30 3219 H 312.79 -0.816519 -4.13414 0
M  V30 3220 H 311.465 -0.0258854 -3.2369 0
M  V30 3221 H 310.372 -2.3231 -2.93228 0
M  V30 3222 H 311.705 -3.04102 -3.87018 0
M  V30 3223 N 313.357 1.07166 -1.15556 0
M  V30 3224 C 314.287 2.16403 -0.877046 0
M  V30 3225 C 315.268 1.69217 0.173111 0
M  V30 3226 O 316.453 1.94181 0.027084 0
M  V30 3227 C 313.583 3.45349 -0.367632 0
M  V30 3228 C 312.537 4.05995 -1.35468 0
M  V30 3229 C 311.863 5.30045 -0.704038 0
M  V30 3230 C 313.163 4.45804 -2.72132 0
M  V30 3231 H 314.857 2.39959 -1.79053 0
M  V30 3232 H 312.403 1.15325 -0.862331 0
M  V30 3233 H 314.356 4.21095 -0.160317 0
M  V30 3234 H 313.08 3.21385 0.581326 0
M  V30 3235 H 311.739 3.32296 -1.54839 0
M  V30 3236 H 311.387 5.02373 0.251128 0
M  V30 3237 H 311.087 5.71579 -1.36277 0
M  V30 3238 H 312.611 6.08495 -0.50654 0
M  V30 3239 H 314.025 5.12671 -2.56595 0
M  V30 3240 H 312.422 4.98296 -3.34397 0
M  V30 3241 H 313.492 3.57083 -3.28054 0
M  V30 3242 N 314.835 0.952656 1.25548 0
M  V30 3243 C 315.798 0.475794 2.24207 0
M  V30 3244 C 316.798 -0.419428 1.55234 0
M  V30 3245 O 317.988 -0.216994 1.72843 0
M  V30 3246 C 315.12 -0.312814 3.39462 0
M  V30 3247 H 316.313 1.34779 2.67908 0
M  V30 3248 H 313.866 0.735739 1.37901 0
M  V30 3249 H 314.601 -1.20257 3.01179 0
M  V30 3250 H 314.386 0.329404 3.90714 0
M  V30 3251 H 315.876 -0.635986 4.12729 0
M  V30 3252 N 316.313 -1.40141 0.720998 0
M  V30 3253 C 317.559 -2.01084 0.263231 0
M  V30 3254 C 317.892 -1.57052 -1.14229 0
M  V30 3255 O 317.167 -0.793027 -1.77599 0
M  V30 3256 C 317.45 -3.58401 0.349344 0
M  V30 3257 C 317.303 -4.12491 1.79363 0
M  V30 3258 C 318.622 -4.39231 -0.276351 0
M  V30 3259 H 315.741 -0.730572 0.0971228 0
M  V30 3260 H 318.383 -1.66543 0.914518 0
M  V30 3261 H 316.533 -3.87958 -0.205165 0
M  V30 3262 H 318.205 -3.93711 2.40394 0
M  V30 3263 H 316.448 -3.66576 2.31958 0
M  V30 3264 H 317.119 -5.21646 1.80524 0
M  V30 3265 H 319.595 -4.15637 0.196184 0
M  V30 3266 H 318.471 -5.48586 -0.185681 0
M  V30 3267 H 318.732 -4.20643 -1.36059 0
M  V30 3268 N 317.792 -0.46758 -1.50504 0
M  V30 3269 C 318.755 0.317059 -2.26996 0
M  V30 3270 C 319.755 0.923513 -1.31635 0
M  V30 3271 O 320.945 0.793239 -1.55091 0
M  V30 3272 C 318.077 1.45134 -3.08462 0
M  V30 3273 H 319.27 -0.353723 -2.97807 0
M  V30 3274 H 316.823 -0.221545 -1.54722 0
M  V30 3275 H 317.558 2.15728 -2.4214 0
M  V30 3276 H 317.343 1.02232 -3.78538 0
M  V30 3277 H 318.833 2.00493 -3.66323 0
M  V30 3278 N 319.27 1.56325 -0.20005 0
M  V30 3279 C 320.22 2.15939 0.731743 0
M  V30 3280 C 321.204 1.10154 1.17281 0
M  V30 3281 O 322.396 1.36203 1.13038 0
M  V30 3282 C 319.525 2.82614 1.94895 0
M  V30 3283 C 318.611 3.95596 1.52855 0
M  V30 3284 N 319.002 4.99118 0.819418 0
M  V30 3285 C 317.3 4.07288 1.81748 0
M  V30 3286 C 318.001 5.78513 0.608053 0
M  V30 3287 N 316.977 5.31117 1.15828 0
M  V30 3288 H 320.779 2.9334 0.181285 0
M  V30 3289 H 318.293 1.624 -0.000452172 0
M  V30 3290 H 320.29 3.23718 2.62702 0
M  V30 3291 H 318.95 2.06702 2.50408 0
M  V30 3292 H 319.961 5.15723 0.47436 0
M  V30 3293 H 316.638 3.42509 2.38734 0
M  V30 3294 H 318.028 6.71885 0.0451619 0
M  V30 3295 N 320.748 -0.0735177 1.57428 0
M  V30 3296 C 321.678 -1.0879 2.06608 0
M  V30 3297 C 322.659 -1.40473 0.959237 0
M  V30 3298 O 323.844 -1.5013 1.23185 0
M  V30 3299 C 320.974 -2.40183 2.50857 0
M  V30 3300 C 319.928 -2.22858 3.65402 0
M  V30 3301 C 319.254 -3.59619 3.957 0
M  V30 3302 C 320.554 -1.65123 4.95511 0
M  V30 3303 H 322.248 -0.678673 2.91607 0
M  V30 3304 H 319.794 -0.325013 1.40284 0
M  V30 3305 H 321.747 -3.11437 2.83874 0
M  V30 3306 H 320.471 -2.83083 1.62885 0
M  V30 3307 H 319.13 -1.54045 3.32664 0
M  V30 3308 H 318.778 -4.00086 3.04861 0
M  V30 3309 H 318.478 -3.48866 4.72828 0
M  V30 3310 H 320.002 -4.32306 4.31212 0
M  V30 3311 H 321.416 -2.26241 5.26771 0
M  V30 3312 H 319.813 -1.65071 5.7695 0
M  V30 3313 H 320.883 -0.612559 4.81015 0
M  V30 3314 N 322.226 -1.5378 -0.344866 0
M  V30 3315 C 323.642 -1.44015 -0.687888 0
M  V30 3316 C 323.842 -0.595834 -1.92489 0
M  V30 3317 O 322.898 -0.0863064 -2.52352 0
M  V30 3318 C 324.211 -2.87481 -0.881758 0
M  V30 3319 C 325.759 -2.97247 -0.980459 0
M  V30 3320 C 326.234 -4.41819 -1.20665 0
M  V30 3321 N 327.725 -4.45339 -1.27389 0
M  V30 3322 C 328.46 -5.54333 -1.46639 0
M  V30 3323 N 327.956 -6.73335 -1.63071 0
M  V30 3324 N 329.749 -5.41944 -1.49176 0
M  V30 3325 H 321.9 -2.07169 0.468475 0
M  V30 3326 H 324.163 -0.93643 0.147655 0
M  V30 3327 H 323.869 -3.51672 -0.0443444 0
M  V30 3328 H 323.743 -3.32352 -1.78388 0
M  V30 3329 H 326.13 -2.33197 -1.8084 0
M  V30 3330 H 326.211 -2.5574 -0.0552713 0
M  V30 3331 H 325.855 -5.06449 -0.383652 0
M  V30 3332 H 325.785 -4.80917 -2.14539 0
M  V30 3333 H 328.276 -3.59585 -1.1622 0
M  V30 3334 H 328.589 -7.52165 -1.77391 0
M  V30 3335 H 326.934 -6.76282 -1.60209 0
M  V30 3336 H 330.125 -4.47932 -1.3592 0
M  V30 3337 H 330.298 -6.26946 -1.63837 0
M  V30 3338 N 323.704 0.605807 -1.45491 0
M  V30 3339 C 324.953 1.36086 -1.48874 0
M  V30 3340 C 325.266 1.95131 -0.135333 0
M  V30 3341 O 326.472 2.7146 -0.0468144 0
M  V30 3342 C 324.928 2.46518 -2.62215 0
M  V30 3343 C 324.536 1.93877 -4.03876 0
M  V30 3344 C 326.28 3.23512 -2.74846 0
M  V30 3345 C 324.187 3.01801 -5.08596 0
M  V30 3346 H 323.117 0.511497 -0.553974 0
M  V30 3347 H 325.768 0.649089 -1.71636 0
M  V30 3348 H 324.15 3.20388 -2.32739 0
M  V30 3349 H 325.324 1.26704 -4.43038 0
M  V30 3350 H 323.639 1.29622 -3.95711 0
M  V30 3351 H 326.236 4.04013 -3.50253 0
M  V30 3352 H 326.579 3.74631 -1.81542 0
M  V30 3353 H 327.112 2.56742 -3.03856 0
M  V30 3354 H 323.851 2.55597 -6.03614 0
M  V30 3355 H 323.371 3.67535 -4.74002 0
M  V30 3356 H 325.05 3.66152 -5.33424 0
M  V30 3357 N 325.182 1.32811 0.848464 0
M  V30 3358 C 326.092 1.24278 1.98978 0
M  V30 3359 C 327.108 0.155176 1.73307 0
M  V30 3360 O 328.284 0.376999 1.9784 0
M  V30 3361 C 325.349 0.972444 3.32783 0
M  V30 3362 C 324.41 2.14911 3.71634 0
M  V30 3363 C 323.643 1.89157 4.99054 0
M  V30 3364 O 323.866 0.837165 5.64223 0
M  V30 3365 O 322.8 2.75433 5.35183 0
M  V30 3366 H 326.626 2.20238 2.09115 0
M  V30 3367 H 324.211 1.12762 0.980052 0
M  V30 3368 H 326.093 0.838432 4.12975 0
M  V30 3369 H 324.768 0.043051 3.23671 0
M  V30 3370 H 323.675 2.33862 2.91992 0
M  V30 3371 H 325.008 3.06151 3.85399 0
M  V30 3372 N 326.66 -1.06551 1.16123 0
M  V30 3373 C 327.885 -1.83544 0.965735 0
M  V30 3374 C 328.31 -1.81843 -0.481102 0
M  V30 3375 O 327.668 -1.21732 -1.34354 0
M  V30 3376 C 327.716 -3.28169 1.49457 0
M  V30 3377 O 326.82 -4.0643 0.699157 0
M  V30 3378 H 326.161 -0.568026 0.343864 0
M  V30 3379 H 328.691 -1.34362 1.54299 0
M  V30 3380 H 328.701 -3.78992 1.51092 0
M  V30 3381 H 327.376 -3.28722 2.54784 0
M  V30 3382 H 325.953 -3.65216 0.7531 0
M  V30 3383 N 328.138 -0.959301 -1.25041 0
M  V30 3384 C 329.384 -0.617525 -1.9317 0
M  V30 3385 C 329.717 0.843981 -1.74902 0
M  V30 3386 O 328.992 1.60615 -1.09696 0
M  V30 3387 C 329.275 -0.982736 -3.46431 0
M  V30 3388 C 329.128 -2.50032 -3.73904 0
M  V30 3389 C 330.447 -0.511176 -4.37121 0
M  V30 3390 H 327.566 -0.22582 -0.701552 0
M  V30 3391 H 330.208 -1.19679 -1.4757 0
M  V30 3392 H 328.358 -0.489806 -3.854 0
M  V30 3393 H 330.03 -3.06737 -3.44544 0
M  V30 3394 H 328.273 -2.93598 -3.19348 0
M  V30 3395 H 328.944 -2.70635 -4.81103 0
M  V30 3396 H 331.42 -0.934075 -4.0548 0
M  V30 3397 H 330.296 -0.795361 -5.43107 0
M  V30 3398 H 330.557 0.588834 -4.38161 0
M  V30 3399 N 329.616 1.39756 -0.72842 0
M  V30 3400 C 330.526 2.34444 -0.0855374 0
M  V30 3401 C 331.542 1.57976 0.729356 0
M  V30 3402 O 332.718 1.90301 0.659346 0
M  V30 3403 C 329.783 3.36965 0.815798 0
M  V30 3404 C 328.844 4.29299 -0.0105996 0
M  V30 3405 C 328.077 5.26923 0.84781 0
M  V30 3406 O 328.3 5.30859 2.08673 0
M  V30 3407 O 327.234 6.01249 0.279969 0
M  V30 3408 H 331.06 2.91065 -0.866892 0
M  V30 3409 H 328.645 1.4117 -0.48902 0
M  V30 3410 H 330.527 3.99804 1.33171 0
M  V30 3411 H 329.202 2.82739 1.57608 0
M  V30 3412 H 328.109 3.69703 -0.571877 0
M  V30 3413 H 329.442 4.86712 -0.73295 0
M  V30 3414 N 331.094 0.475555 1.50254 0
M  V30 3415 C 332.342 -0.077738 2.0195 0
M  V30 3416 C 332.663 -1.39813 1.35931 0
M  V30 3417 O 331.933 -1.89249 0.506123 0
M  V30 3418 H 330.513 -0.031719 0.746326 0
M  V30 3419 H 333.175 0.626995 1.84539 0
M  V30 3420 H 332.271 -0.225995 3.11281 0
M  V30 3421 N 332.573 -1.56217 0.208337 0
M  V30 3422 C 333.483 -2.23316 -0.718836 0
M  V30 3423 C 334.499 -1.23648 -1.22422 0
M  V30 3424 O 335.675 -1.56423 -1.26861 0
M  V30 3425 C 332.74 -2.88968 -1.91568 0
M  V30 3426 C 331.801 -4.03943 -1.45357 0
M  V30 3427 C 331.034 -4.66455 -2.59337 0
M  V30 3428 O 331.257 -4.27919 -3.77149 0
M  V30 3429 O 330.191 -5.55686 -2.31293 0
M  V30 3430 H 334.017 -3.03182 -0.177315 0
M  V30 3431 H 331.602 -1.49384 -0.0215402 0
M  V30 3432 H 333.484 -3.30455 -2.61491 0
M  V30 3433 H 332.159 -2.12071 -2.44556 0
M  V30 3434 H 331.066 -3.67052 -0.722746 0
M  V30 3435 H 332.399 -4.82543 -0.970219 0
M  V30 3436 N 334.051 0.0651679 -1.57465 0
M  V30 3437 C 334.981 1.07693 -2.07182 0
M  V30 3438 C 335.962 1.39962 -0.966673 0
M  V30 3439 O 337.147 1.49475 -1.2398 0
M  V30 3440 C 334.277 2.3885 -2.52127 0
M  V30 3441 C 333.231 2.20917 -3.66579 0
M  V30 3442 C 332.557 3.57515 -3.97601 0
M  V30 3443 C 333.857 1.62493 -4.9638 0
M  V30 3444 H 335.551 0.663199 -2.91962 0
M  V30 3445 H 333.097 0.317569 -1.40455 0
M  V30 3446 H 335.05 3.09928 -2.85522 0
M  V30 3447 H 333.774 2.82215 -1.64384 0
M  V30 3448 H 332.433 1.52279 -3.33477 0
M  V30 3449 H 332.081 3.98463 -3.06979 0
M  V30 3450 H 331.781 3.46353 -4.74672 0
M  V30 3451 H 333.305 4.30013 -4.33499 0
M  V30 3452 H 334.719 2.23445 -5.27963 0
M  V30 3453 H 333.116 1.62009 -5.77818 0
M  V30 3454 H 334.186 0.587041 -4.81333 0
M  V30 3455 N 335.529 1.53961 0.336706 0
M  V30 3456 C 336.476 1.82428 1.41381 0
M  V30 3457 C 337.446 0.670444 1.51968 0
M  V30 3458 O 338.631 0.915565 1.67398 0
M  V30 3459 C 335.771 2.04564 2.77934 0
M  V30 3460 C 334.884 3.32267 2.76084 0
M  V30 3461 C 334.019 3.44434 4.04399 0
M  V30 3462 C 333.058 4.66061 3.96804 0
M  V30 3463 N 332.195 4.75224 5.16823 0
M  V30 3464 H 337.035 2.74324 1.16405 0
M  V30 3465 H 334.572 1.35869 0.563752 0
M  V30 3466 H 336.53 2.15388 3.57301 0
M  V30 3467 H 335.16 1.15974 3.01247 0
M  V30 3468 H 334.212 3.3025 1.88784 0
M  V30 3469 H 335.524 4.21733 2.66351 0
M  V30 3470 H 334.678 3.54728 4.92192 0
M  V30 3471 H 333.417 2.53037 4.16921 0
M  V30 3472 H 332.422 4.55838 3.07396 0
M  V30 3473 H 333.647 5.58829 3.85858 0
M  V30 3474 H 331.593 3.86739 5.29876 0
M  V30 3475 H 331.51 5.58636 5.09374 0
M  V30 3476 H 332.778 4.89835 6.06367 0
M  V30 3477 N 337.007 -0.598083 1.45811 0
M  V30 3478 C 337.955 -1.72932 1.55555 0
M  V30 3479 C 338.949 -1.63984 0.424921 0
M  V30 3480 O 340.155 -1.69663 0.601205 0
M  V30 3481 H 336.53 -0.571489 0.488779 0
M  V30 3482 H 338.501 -1.61842 2.50699 0
M  V30 3483 C 337.25 -3.11318 1.54843 0
M  V30 3484 H 336.573 -3.18867 2.41172 0
M  V30 3485 H 338.013 -3.90274 1.65717 0
M  V30 3486 C 336.472 -3.3578 0.274427 0
M  V30 3487 O 337.002 -3.9654 -0.641778 0
M  V30 3488 N 335.208 -2.90119 0.167139 0
M  V30 3489 H 334.755 -2.40855 0.913596 0
M  V30 3490 H 334.713 -3.0686 -0.684435 0
M  V30 3491 N 338.485 -1.33259 -0.841409 0
M  V30 3492 C 339.448 -1.23221 -1.9326 0
M  V30 3493 C 340.448 -0.151895 -1.60081 0
M  V30 3494 O 341.638 -0.403246 -1.69468 0
M  V30 3495 C 338.77 -0.898123 -3.28856 0
M  V30 3496 H 339.963 -2.2021 -2.03587 0
M  V30 3497 H 337.516 -1.17281 -1.03319 0
M  V30 3498 H 338.251 0.0693841 -3.24226 0
M  V30 3499 H 338.036 -1.67934 -3.54317 0
M  V30 3500 H 339.526 -0.852563 -4.08805 0
M  V30 3501 N 339.963 1.05934 -1.16686 0
M  V30 3502 C 340.893 2.1546 -0.899949 0
M  V30 3503 C 341.874 1.69391 0.155154 0
M  V30 3504 O 343.059 1.94199 0.00648693 0
M  V30 3505 C 340.189 3.44939 -0.404241 0
M  V30 3506 C 339.143 4.04536 -1.39767 0
M  V30 3507 C 338.469 5.29268 -0.760216 0
M  V30 3508 C 339.769 4.42893 -2.76845 0
M  V30 3509 H 341.463 2.38046 -1.81588 0
M  V30 3510 H 339.009 1.14404 -0.874514 0
M  V30 3511 H 340.962 4.20901 -0.204971 0
M  V30 3512 H 339.686 3.21983 0.547206 0
M  V30 3513 H 338.345 3.30635 -1.58355 0
M  V30 3514 H 337.993 5.02611 0.197831 0
M  V30 3515 H 337.693 5.70101 -1.42332 0
M  V30 3516 H 339.217 6.07924 -0.57105 0
M  V30 3517 H 340.631 5.09921 -2.62019 0
M  V30 3518 H 339.028 4.94721 -3.39663 0
M  V30 3519 H 340.098 3.53584 -3.31823 0
M  V30 3520 N 341.441 0.965919 1.2453 0
M  V30 3521 C 342.718 0.543777 1.87889 0
M  V30 3522 C 343.098 -0.97909 1.87021 0
M  V30 3523 O 342.446 -1.84969 1.3416 0
M  V30 3524 C 342.656 1.13327 3.30088 0
M  V30 3525 C 344.004 1.21707 4.06783 0
M  V30 3526 O 345.028 1.08566 3.39252 0
M  V30 3527 O 343.887 1.42456 5.27606 0
M  V30 3528 H 340.981 0.181054 0.806938 0
M  V30 3529 H 343.527 1.06007 1.32516 0
M  V30 3530 H 342.299 2.17612 3.25209 0
M  V30 3531 H 341.922 0.600911 3.93033 0
M  V30 3532 N 342.919 -1.39368 0.735821 0
M  V30 3533 C 344.335 -1.54204 0.411492 0
M  V30 3534 C 344.535 -1.70268 -1.07755 0
M  V30 3535 O 343.591 -1.70364 -1.86366 0
M  V30 3536 C 344.904 -2.75925 1.19523 0
M  V30 3537 C 346.452 -2.89761 1.18354 0
M  V30 3538 C 346.927 -4.14421 1.94986 0
M  V30 3539 N 348.418 -4.21462 1.92156 0
M  V30 3540 C 349.153 -5.16871 2.48258 0
M  V30 3541 N 348.649 -6.18063 3.13001 0
M  V30 3542 N 350.442 -5.09093 2.38287 0
M  V30 3543 H 342.593 -1.27189 1.70108 0
M  V30 3544 H 344.856 -0.616517 0.720147 0
M  V30 3545 H 344.562 -2.70401 2.24892 0
M  V30 3546 H 344.436 -3.68614 0.800222 0
M  V30 3547 H 346.823 -2.94777 0.137975 0
M  V30 3548 H 346.904 -1.98133 1.61793 0
M  V30 3549 H 346.548 -4.10166 2.99543 0
M  V30 3550 H 346.478 -5.05095 1.48953 0
M  V30 3551 H 348.969 -3.48979 1.44991 0
M  V30 3552 H 349.282 -6.87326 3.53275 0
M  V30 3553 H 347.627 -6.18448 3.17091 0
M  V30 3554 H 350.818 -4.28973 1.8735 0
M  V30 3555 H 350.991 -5.83272 2.82308 0
M  V30 3556 N 344.397 -0.483516 -1.5 0
M  V30 3557 C 345.36 0.292965 -2.2732 0
M  V30 3558 C 346.36 0.909499 -1.32608 0
M  V30 3559 O 347.55 0.776745 -1.55924 0
M  V30 3560 C 344.682 1.41854 -3.09984 0
M  V30 3561 H 345.875 -0.385289 -2.97415 0
M  V30 3562 H 343.428 -0.237942 -1.54478 0
M  V30 3563 H 344.163 2.13148 -2.44414 0
M  V30 3564 H 343.948 0.982114 -3.79601 0
M  V30 3565 H 345.438 1.96597 -3.68429 0
M  V30 3566 N 345.875 1.56104 -0.216619 0
M  V30 3567 C 346.822 2.2007 0.695531 0
M  V30 3568 C 347.792 1.15471 1.19397 0
M  V30 3569 O 348.977 1.43807 1.25396 0
M  V30 3570 C 346.117 2.88073 1.90021 0
M  V30 3571 C 345.23 4.07253 1.44113 0
M  V30 3572 C 344.365 4.63052 2.603 0
M  V30 3573 C 343.404 5.74545 2.11103 0
M  V30 3574 N 342.541 6.24656 3.20545 0
M  V30 3575 H 347.381 2.97655 0.143327 0
M  V30 3576 H 344.918 1.46982 0.0589934 0
M  V30 3577 H 346.876 3.25681 2.60745 0
M  V30 3578 H 345.506 2.13015 2.42538 0
M  V30 3579 H 344.558 3.75164 0.628999 0
M  V30 3580 H 345.87 4.8783 1.04036 0
M  V30 3581 H 345.024 5.03078 3.39113 0
M  V30 3582 H 343.763 3.81628 3.03663 0
M  V30 3583 H 342.768 5.34027 1.3075 0
M  V30 3584 H 343.993 6.57801 1.68746 0
M  V30 3585 H 341.939 5.46148 3.63399 0
M  V30 3586 H 341.856 7.00343 2.84704 0
M  V30 3587 H 343.124 6.69338 3.99508 0
M  V30 3588 N 347.353 -0.0568162 1.57498 0
M  V30 3589 C 348.578 -0.769402 1.92601 0
M  V30 3590 C 349.003 -1.69559 0.814336 0
M  V30 3591 O 348.361 -1.79811 -0.231903 0
M  V30 3592 C 348.409 -1.52634 3.26704 0
M  V30 3593 O 347.513 -2.63797 3.16994 0
M  V30 3594 H 346.854 -0.208909 0.63028 0
M  V30 3595 H 349.384 -0.0205798 2.0459 0
M  V30 3596 H 349.394 -1.90234 3.60936 0
M  V30 3597 H 348.069 -0.846875 4.07186 0
M  V30 3598 H 346.646 -2.28943 2.94346 0
M  V30 3599 N 348.832 -1.54138 -0.328536 0
M  V30 3600 C 350.057 -1.76378 -1.09112 0
M  V30 3601 C 350.482 -0.508596 -1.81094 0
M  V30 3602 O 349.84 0.539598 -1.73084 0
M  V30 3603 C 349.888 -2.95358 -2.06872 0
M  V30 3604 O 348.992 -2.66556 -3.14677 0
M  V30 3605 H 348.333 -0.584614 -0.314838 0
M  V30 3606 H 350.863 -2.01146 -0.374348 0
M  V30 3607 H 350.873 -3.22566 -2.4983 0
M  V30 3608 H 349.548 -3.86385 -1.5388 0
M  V30 3609 H 348.125 -2.50282 -2.7643 0
M  V30 3610 N 350.31 0.590341 -1.46126 0
M  V30 3611 C 351.22 1.72793 -1.58681 0
M  V30 3612 C 352.236 1.67516 -0.470566 0
M  V30 3613 O 353.412 1.87562 -0.733642 0
M  V30 3614 C 350.477 3.09287 -1.5666 0
M  V30 3615 C 349.538 3.25886 -2.79458 0
M  V30 3616 C 348.771 4.55869 -2.77524 0
M  V30 3617 O 348.994 5.3928 -1.85832 0
M  V30 3618 O 347.928 4.75552 -3.68964 0
M  V30 3619 H 351.754 1.65149 -2.54872 0
M  V30 3620 H 349.339 0.756486 -1.28832 0
M  V30 3621 H 351.221 3.90577 -1.58202 0
M  V30 3622 H 349.896 3.17385 -0.636271 0
M  V30 3623 H 348.803 2.44119 -2.83472 0
M  V30 3624 H 350.136 3.22675 -3.71674 0
M  V30 3625 N 351.788 1.33704 0.83433 0
M  V30 3626 C 353.016 1.28467 1.62185 0
M  V30 3627 C 353.431 -0.143526 1.88254 0
M  V30 3628 O 352.788 -1.08709 1.4659 0
M  V30 3629 C 352.839 2.06174 2.96942 0
M  V30 3630 O 352.56 3.43422 2.72016 0
M  V30 3631 C 354.061 2.08201 3.91366 0
M  V30 3632 H 351.281 0.4424 0.504503 0
M  V30 3633 H 353.825 1.76145 1.03891 0
M  V30 3634 H 351.98 1.62167 3.51825 0
M  V30 3635 H 352.394 3.83453 3.57861 0
M  V30 3636 H 353.868 2.67017 4.83121 0
M  V30 3637 H 354.345 1.07343 4.2588 0
M  V30 3638 H 354.951 2.52246 3.42421 0
M  V30 3639 N 353.266 -1.05314 1.17247 0
M  V30 3640 C 354.512 -1.78557 0.961513 0
M  V30 3641 C 354.845 -1.87419 -0.508697 0
M  V30 3642 O 354.12 -1.37307 -1.37757 0
M  V30 3643 C 354.403 -3.22514 1.60176 0
M  V30 3644 C 354.256 -3.21673 3.14399 0
M  V30 3645 C 355.575 -4.20318 1.30463 0
M  V30 3646 H 352.694 -0.6482 0.350723 0
M  V30 3647 H 355.336 -1.23102 1.44727 0
M  V30 3648 H 353.486 -3.69867 1.18871 0
M  V30 3649 H 355.158 -2.82405 3.64753 0
M  V30 3650 H 353.401 -2.60048 3.47214 0
M  V30 3651 H 354.072 -4.23271 3.54324 0
M  V30 3652 H 356.548 -3.81454 1.66229 0
M  V30 3653 H 355.424 -5.19289 1.77848 0
M  V30 3654 H 355.685 -4.41526 0.22521 0
M  V30 3655 N 354.744 -0.972509 -1.24016 0
M  V30 3656 C 355.99 -0.637978 -1.92504 0
M  V30 3657 C 356.323 0.825383 -1.75787 0
M  V30 3658 O 355.598 1.59442 -1.11393 0
M  V30 3659 C 355.881 -1.01942 -3.45369 0
M  V30 3660 C 355.734 -2.53983 -3.71231 0
M  V30 3661 C 357.053 -0.55751 -4.36555 0
M  V30 3662 H 354.172 -0.233248 -0.699117 0
M  V30 3663 H 356.814 -1.21238 -1.46292 0
M  V30 3664 H 354.964 -0.530656 -3.84859 0
M  V30 3665 H 356.636 -3.10374 -3.41271 0
M  V30 3666 H 354.879 -2.96968 -3.16216 0
M  V30 3667 H 355.55 -2.75723 -4.78206 0
M  V30 3668 H 358.026 -0.977029 -4.04467 0
M  V30 3669 H 356.902 -0.85292 -5.42233 0
M  V30 3670 H 357.163 0.542328 -4.38761 0
M  V30 3671 N 356.222 1.38976 -0.743202 0
M  V30 3672 C 357.169 2.30544 -0.10861 0
M  V30 3673 C 358.139 1.49642 0.720869 0
M  V30 3674 O 359.324 1.78304 0.679142 0
M  V30 3675 C 356.464 3.36018 0.786496 0
M  V30 3676 C 355.577 4.31963 -0.0564849 0
M  V30 3677 C 354.712 5.24506 0.840657 0
M  V30 3678 C 353.751 6.121 -0.00658363 0
M  V30 3679 N 352.888 6.96973 0.846943 0
M  V30 3680 H 357.728 2.8424 -0.895088 0
M  V30 3681 H 355.265 1.3995 -0.453048 0
M  V30 3682 H 357.223 3.95768 1.31999 0
M  V30 3683 H 355.853 2.83758 1.53887 0
M  V30 3684 H 354.905 3.73763 -0.707492 0
M  V30 3685 H 356.217 4.93703 -0.711229 0
M  V30 3686 H 355.371 5.89322 1.4417 0
M  V30 3687 H 354.11 4.63107 1.52916 0
M  V30 3688 H 353.115 5.46289 -0.620366 0
M  V30 3689 H 354.34 6.75565 -0.691992 0
M  V30 3690 H 352.286 6.38133 1.52059 0
M  V30 3691 H 352.203 7.5559 0.248864 0
M  V30 3692 H 353.471 7.6621 1.43328 0
M  V30 3693 N 357.7 0.491464 1.49741 0
M  V30 3694 C 358.648 -0.305837 2.30581 0
M  V30 3695 C 359.642 -0.971642 1.38764 0
M  V30 3696 O 360.848 -0.90042 1.5586 0
M  V30 3697 H 357.223 -0.117482 0.742767 0
M  V30 3698 H 359.194 0.396093 2.95759 0
M  V30 3699 C 357.943 -1.36319 3.19863 0
M  V30 3700 H 357.266 -0.860258 3.90435 0
M  V30 3701 H 358.706 -1.89323 3.79385 0
M  V30 3702 C 357.165 -2.37621 2.38826 0
M  V30 3703 O 357.695 -3.43311 2.08567 0
M  V30 3704 N 355.901 -2.09849 2.01026 0
M  V30 3705 H 355.448 -1.23922 2.25834 0
M  V30 3706 H 355.406 -2.77859 1.47112 0
M  V30 3707 N 359.178 -1.55987 0.224894 0
M  V30 3708 C 360.108 -2.23426 -0.678457 0
M  V30 3709 C 361.089 -1.20709 -1.19847 0
M  V30 3710 O 362.274 -1.49304 -1.24186 0
M  V30 3711 C 359.404 -2.91676 -1.88527 0
M  V30 3712 C 358.358 -4.00893 -1.49896 0
M  V30 3713 C 357.684 -4.56455 -2.78483 0
M  V30 3714 C 358.984 -5.17769 -0.686461 0
M  V30 3715 H 360.678 -2.99175 -0.116173 0
M  V30 3716 H 358.224 -1.43897 -0.054436 0
M  V30 3717 H 360.177 -3.37547 -2.5227 0
M  V30 3718 H 358.901 -2.1338 -2.47258 0
M  V30 3719 H 357.56 -3.55758 -0.884985 0
M  V30 3720 H 357.208 -3.74886 -3.35365 0
M  V30 3721 H 356.908 -5.30169 -2.53368 0
M  V30 3722 H 358.432 -5.05047 -3.43162 0
M  V30 3723 H 359.846 -5.60001 -1.22767 0
M  V30 3724 H 358.243 -5.97735 -0.532259 0
M  V30 3725 H 359.313 -4.83932 0.306196 0
M  V30 3726 N 360.656 0.0484629 -1.57525 0
M  V30 3727 C 361.603 1.05504 -2.05275 0
M  V30 3728 C 362.573 1.37084 -0.937927 0
M  V30 3729 O 363.758 1.47754 -1.2072 0
M  V30 3730 C 360.898 2.35676 -2.52093 0
M  V30 3731 C 360.011 2.10423 -3.77288 0
M  V30 3732 C 359.146 3.34327 -4.12794 0
M  V30 3733 C 358.185 3.04542 -5.30962 0
M  V30 3734 N 357.322 4.20841 -5.61994 0
M  V30 3735 H 362.162 0.640885 -2.91027 0
M  V30 3736 H 359.699 0.304854 -1.43906 0
M  V30 3737 H 361.657 3.11709 -2.77297 0
M  V30 3738 H 360.287 2.7485 -1.69285 0
M  V30 3739 H 359.339 1.24976 -3.59284 0
M  V30 3740 H 360.651 1.84438 -4.63448 0
M  V30 3741 H 359.805 4.1874 -4.39024 0
M  V30 3742 H 358.544 3.63408 -3.25247 0
M  V30 3743 H 357.549 2.18528 -5.04505 0
M  V30 3744 H 358.774 2.76758 -6.20146 0
M  V30 3745 H 356.72 4.4991 -4.77406 0
M  V30 3746 H 356.637 3.98212 -6.42622 0
M  V30 3747 H 357.905 5.06184 -5.92789 0
M  V30 3748 N 362.134 1.5431 0.320358 0
M  V30 3749 C 363.066 1.80262 1.41556 0
M  V30 3750 C 364.079 0.684723 1.477 0
M  V30 3751 O 365.268 0.961886 1.50366 0
M  V30 3752 C 362.368 1.90825 2.8007 0
M  V30 3753 C 361.541 3.21023 2.97091 0
M  V30 3754 C 360.6 3.22247 4.15985 0
M  V30 3755 O 359.626 3.95871 4.08992 0
M  V30 3756 N 360.828 2.46258 5.25678 0
M  V30 3757 H 363.593 2.74778 1.19655 0
M  V30 3758 H 361.154 1.53646 0.510358 0
M  V30 3759 H 363.146 1.89067 3.57821 0
M  V30 3760 H 361.716 1.03392 2.95006 0
M  V30 3761 H 360.936 3.35715 2.06614 0
M  V30 3762 H 362.224 4.0698 3.05361 0
M  V30 3763 H 361.622 1.86037 5.34235 0
M  V30 3764 H 360.179 2.50275 6.01835 0
M  V30 3765 N 363.613 -0.582584 1.46437 0
M  V30 3766 C 364.563 -1.68654 1.53426 0
M  V30 3767 C 365.547 -1.55971 0.395194 0
M  V30 3768 O 366.739 -1.64884 0.643612 0
M  V30 3769 C 363.868 -3.07439 1.52762 0
M  V30 3770 C 362.954 -3.25418 2.71963 0
M  V30 3771 N 363.345 -3.13556 3.96883 0
M  V30 3772 C 361.643 -3.56357 2.68189 0
M  V30 3773 C 362.344 -3.33543 4.76575 0
M  V30 3774 N 361.32 -3.58704 4.08451 0
M  V30 3775 H 365.122 -1.58014 2.47808 0
M  V30 3776 H 362.636 -0.786617 1.42078 0
M  V30 3777 H 364.633 -3.86671 1.55857 0
M  V30 3778 H 363.293 -3.1921 0.594573 0
M  V30 3779 H 364.304 -2.9142 4.28129 0
M  V30 3780 H 360.981 -3.74812 1.83908 0
M  V30 3781 H 362.371 -3.29555 5.85528 0
M  V30 3782 N 365.091 -1.34144 -0.827227 0
M  V30 3783 C 366.021 -1.28005 -1.95287 0
M  V30 3784 C 367.002 -0.158321 -1.69362 0
M  V30 3785 O 368.187 -0.349987 -1.9102 0
M  V30 3786 C 365.317 -1.03036 -3.31664 0
M  V30 3787 C 364.271 -2.11628 -3.72019 0
M  V30 3788 C 363.597 -1.71854 -5.0633 0
M  V30 3789 C 364.897 -3.53417 -3.8457 0
M  V30 3790 H 366.591 -2.22187 -2.00682 0
M  V30 3791 H 364.137 -1.0696 -0.964135 0
M  V30 3792 H 366.09 -0.973863 -4.09993 0
M  V30 3793 H 364.814 -0.0529391 -3.26557 0
M  V30 3794 H 363.473 -2.16339 -2.95961 0
M  V30 3795 H 363.121 -0.727841 -4.97706 0
M  V30 3796 H 362.821 -2.44531 -5.34302 0
M  V30 3797 H 364.345 -1.67692 -5.87122 0
M  V30 3798 H 365.759 -3.51142 -4.5318 0
M  V30 3799 H 364.156 -4.24679 -4.2399 0
M  V30 3800 H 365.226 -3.91072 -2.86689 0
M  V30 3801 N 366.569 1.04691 -1.17803 0
M  V30 3802 C 367.809 1.79352 -0.980423 0
M  V30 3803 C 368.173 1.85853 0.481958 0
M  V30 3804 O 369.374 2.56656 0.798809 0
M  V30 3805 C 367.645 3.19088 -1.6099 0
M  V30 3806 S 369.204 4.10164 -1.55918 0
M  V30 3807 H 366.022 0.617631 -0.352211 0
M  V30 3808 H 368.624 1.25575 -1.49837 0
M  V30 3809 H 367.328 3.11962 -2.66661 0
M  V30 3810 H 366.859 3.77941 -1.09197 0
M  V30 3811 H 368.874 4.92907 -0.570685 0
M  V30 3812 N 368.047 0.979072 1.23499 0
M  V30 3813 C 368.995 0.510604 2.26926 0
M  V30 3814 C 369.989 -0.431691 1.63807 0
M  V30 3815 O 371.195 -0.30573 1.77385 0
M  V30 3816 H 367.57 0.146688 0.737554 0
M  V30 3817 H 369.541 1.39466 2.63803 0
M  V30 3818 C 368.29 -0.172658 3.47271 0
M  V30 3819 H 367.613 0.543331 3.96091 0
M  V30 3820 H 369.053 -0.464101 4.21452 0
M  V30 3821 C 367.512 -1.40345 3.06276 0
M  V30 3822 O 368.042 -2.49978 3.14442 0
M  V30 3823 N 366.248 -1.27362 2.61203 0
M  V30 3824 H 365.795 -0.381584 2.54758 0
M  V30 3825 H 365.753 -2.09822 2.34141 0
M  V30 3826 N 369.525 -1.3858 0.750561 0
M  V30 3827 C 370.755 -2.04175 0.31564 0
M  V30 3828 C 371.163 -1.56726 -1.05989 0
M  V30 3829 O 370.506 -0.734225 -1.68389 0
M  V30 3830 C 370.568 -3.58585 0.256389 0
M  V30 3831 C 370.232 -4.29077 1.57296 0
M  V30 3832 C 371.229 -4.54656 2.52159 0
M  V30 3833 C 368.914 -4.67324 1.84156 0
M  V30 3834 C 370.908 -5.17512 3.72103 0
M  V30 3835 C 368.595 -5.29905 3.04374 0
M  V30 3836 C 369.593 -5.54933 3.98168 0
M  V30 3837 O 369.281 -6.16212 5.16273 0
M  V30 3838 H 369.013 -0.662742 0.133226 0
M  V30 3839 H 371.567 -1.78313 1.01948 0
M  V30 3840 H 369.797 -3.83406 -0.503677 0
M  V30 3841 H 371.486 -4.05628 -0.148612 0
M  V30 3842 H 372.252 -4.25539 2.32683 0
M  V30 3843 H 368.131 -4.47191 1.11988 0
M  V30 3844 H 371.675 -5.36963 4.45327 0
M  V30 3845 H 367.572 -5.58444 3.23745 0
M  V30 3846 H 368.34 -6.34701 5.16815 0
M  V30 3847 N 371.003 -0.499398 -1.49478 0
M  V30 3848 C 371.95 0.279881 -2.29097 0
M  V30 3849 C 372.92 0.961805 -1.3542 0
M  V30 3850 O 374.105 0.968777 -1.64376 0
M  V30 3851 C 371.245 1.33932 -3.18051 0
M  V30 3852 C 370.358 0.669333 -4.26783 0
M  V30 3853 C 369.493 1.70907 -5.02955 0
M  V30 3854 C 368.532 1.02087 -6.03527 0
M  V30 3855 N 367.669 2.00474 -6.7287 0
M  V30 3856 H 372.509 -0.405317 -2.95231 0
M  V30 3857 H 370.046 -0.211726 -1.45568 0
M  V30 3858 H 372.004 1.96553 -3.67998 0
M  V30 3859 H 370.634 1.9933 -2.53904 0
M  V30 3860 H 369.686 -0.0701234 -3.80335 0
M  V30 3861 H 370.998 0.127503 -4.98637 0
M  V30 3862 H 370.152 2.41037 -5.56764 0
M  V30 3863 H 368.891 2.28476 -4.30871 0
M  V30 3864 H 367.896 0.305338 -5.48951 0
M  V30 3865 H 369.121 0.451708 -6.77596 0
M  V30 3866 H 367.067 2.57007 -6.03559 0
M  V30 3867 H 366.984 1.51353 -7.40694 0
M  V30 3868 H 368.252 2.69897 -7.31284 0
M  V30 3869 N 372.481 1.55866 -0.233164 0
M  V30 3870 C 373.391 2.24431 0.683217 0
M  V30 3871 C 374.407 1.2558 1.2044 0
M  V30 3872 O 375.583 1.58422 1.24356 0
M  V30 3873 C 372.648 2.91979 1.86947 0
M  V30 3874 C 371.709 4.06204 1.38912 0
M  V30 3875 C 370.942 4.70522 2.51883 0
M  V30 3876 O 371.165 4.33865 3.70293 0
M  V30 3877 O 370.099 5.59296 2.22423 0
M  V30 3878 H 373.925 3.03426 0.129059 0
M  V30 3879 H 371.51 1.494 -0.0022283 0
M  V30 3880 H 373.392 3.34573 2.56201 0
M  V30 3881 H 372.067 2.15935 2.41151 0
M  V30 3882 H 370.974 3.68155 0.664259 0
M  V30 3883 H 372.307 4.84025 0.893328 0
M  V30 3884 N 373.959 -0.0401083 1.57549 0
M  V30 3885 C 374.869 -1.06133 2.0922 0
M  V30 3886 C 375.885 -1.40356 1.0284 0
M  V30 3887 O 377.061 -1.49897 1.34509 0
M  V30 3888 C 374.126 -2.34658 2.55218 0
M  V30 3889 C 373.187 -2.07117 3.76033 0
M  V30 3890 C 372.42 -3.29514 4.19829 0
M  V30 3891 O 372.643 -4.39794 3.63232 0
M  V30 3892 O 371.577 -3.15863 5.12362 0
M  V30 3893 H 375.403 -0.652244 2.96613 0
M  V30 3894 H 372.988 -0.256368 1.47184 0
M  V30 3895 H 374.87 -3.10239 2.85184 0
M  V30 3896 H 373.545 -2.74883 1.70941 0
M  V30 3897 H 372.452 -1.29139 3.51104 0
M  V30 3898 H 373.785 -1.71754 4.61261 0
M  V30 3899 N 375.437 -1.54477 -0.31217 0
M  V30 3900 C 376.683 -1.73483 -1.0503 0
M  V30 3901 C 377.016 -0.513125 -1.87298 0
M  V30 3902 O 376.291 0.489864 -1.8823 0
M  V30 3903 C 376.574 -3.01723 -1.96558 0
M  V30 3904 C 376.427 -4.3417 -1.17545 0
M  V30 3905 C 377.746 -3.25772 -2.95907 0
M  V30 3906 H 374.865 -0.631222 -0.380432 0
M  V30 3907 H 377.507 -1.87184 -0.325932 0
M  V30 3908 H 375.657 -2.90174 -2.58324 0
M  V30 3909 H 377.329 -4.5762 -0.581513 0
M  V30 3910 H 375.572 -4.31159 -0.477925 0
M  V30 3911 H 376.243 -5.20143 -1.84811 0
M  V30 3912 H 378.719 -3.36857 -2.44267 0
M  V30 3913 H 377.595 -4.16838 -3.57123 0
M  V30 3914 H 377.856 -2.43537 -3.68974 0
M  V30 3915 N 376.915 0.57481 -1.46744 0
M  V30 3916 C 378.161 1.3347 -1.52688 0
M  V30 3917 C 378.494 1.93353 -0.181229 0
M  V30 3918 O 377.769 1.76912 0.808237 0
M  V30 3919 C 378.052 2.45811 -2.63152 0
M  V30 3920 C 377.905 1.90912 -4.07275 0
M  V30 3921 C 379.224 3.47822 -2.69644 0
M  V30 3922 H 376.343 0.483935 -0.555856 0
M  V30 3923 H 378.985 0.644968 -1.78718 0
M  V30 3924 H 377.135 3.04646 -2.41088 0
M  V30 3925 H 378.807 1.36473 -4.4065 0
M  V30 3926 H 377.05 1.21691 -4.16382 0
M  V30 3927 H 377.721 2.72042 -4.80309 0
M  V30 3928 H 380.197 2.9888 -2.895 0
M  V30 3929 H 379.073 4.23876 -3.48742 0
M  V30 3930 H 379.334 4.05555 -1.76005 0
M  V30 3931 N 378.394 1.34581 0.820102 0
M  V30 3932 C 379.81 1.14325 1.11364 0
M  V30 3933 C 380.01 -0.0533648 2.01429 0
M  V30 3934 O 379.066 -0.728044 2.41776 0
M  V30 3935 C 380.379 2.43983 1.75764 0
M  V30 3936 C 381.927 2.50065 1.88246 0
M  V30 3937 C 382.402 3.79732 2.56061 0
M  V30 3938 N 383.893 3.80908 2.63558 0
M  V30 3939 C 384.628 4.77961 3.16766 0
M  V30 3940 N 384.124 5.85397 3.70517 0
M  V30 3941 N 385.917 4.65413 3.15194 0
M  V30 3942 H 378.068 2.11246 0.221096 0
M  V30 3943 H 380.331 0.934289 0.160649 0
M  V30 3944 H 380.037 3.31651 1.1705 0
M  V30 3945 H 379.911 2.57531 2.75604 0
M  V30 3946 H 382.298 1.62834 2.46108 0
M  V30 3947 H 382.379 2.40442 0.873006 0
M  V30 3948 H 382.023 4.67354 1.98853 0
M  V30 3949 H 381.953 3.86639 3.57516 0
M  V30 3950 H 384.444 3.03274 2.25463 0
M  V30 3951 H 384.757 6.55463 4.09376 0
M  V30 3952 H 383.102 5.89107 3.68752 0
M  V30 3953 H 386.293 3.80627 2.72471 0
M  V30 3954 H 386.466 5.41216 3.56356 0
M  V30 3955 N 379.872 -1.04064 1.18357 0
M  V30 3956 C 380.802 -2.14001 0.934113 0
M  V30 3957 C 381.783 -1.69616 -0.128186 0
M  V30 3958 O 382.968 -1.94185 0.0244093 0
M  V30 3959 C 380.098 -3.44253 0.459066 0
M  V30 3960 C 379.052 -4.02261 1.46185 0
M  V30 3961 C 378.378 -5.27992 0.844322 0
M  V30 3962 C 379.678 -4.38432 2.83856 0
M  V30 3963 H 381.372 -2.35127 1.85352 0
M  V30 3964 H 378.918 -1.12998 0.892604 0
M  V30 3965 H 380.871 -4.20522 0.271907 0
M  V30 3966 H 379.595 -3.22813 -0.495912 0
M  V30 3967 H 378.254 -3.28074 1.63595 0
M  V30 3968 H 377.902 -5.02862 -0.117845 0
M  V30 3969 H 377.602 -5.67765 1.51384 0
M  V30 3970 H 379.126 -6.06938 0.667693 0
M  V30 3971 H 380.54 -5.05688 2.70098 0
M  V30 3972 H 378.937 -4.89254 3.47491 0
M  V30 3973 H 380.007 -3.4826 3.37406 0
M  V30 3974 N 381.35 -0.985608 -1.22978 0
M  V30 3975 C 382.28 -0.549649 -2.26939 0
M  V30 3976 C 383.261 0.419803 -1.64838 0
M  V30 3977 O 384.446 0.31203 -1.91677 0
M  V30 3978 C 381.576 0.143652 -3.47003 0
M  V30 3979 C 380.53 -0.743606 -4.21491 0
M  V30 3980 C 379.856 0.0822027 -5.34637 0
M  V30 3981 C 381.156 -2.03694 -4.80943 0
M  V30 3982 H 382.85 -1.41862 -2.63658 0
M  V30 3983 H 380.396 -0.683571 -1.26741 0
M  V30 3984 H 382.349 0.459985 -4.18882 0
M  V30 3985 H 381.073 1.04711 -3.09359 0
M  V30 3986 H 379.732 -1.04347 -3.51436 0
M  V30 3987 H 379.38 0.986359 -4.93234 0
M  V30 3988 H 379.08 -0.508377 -5.85397 0
M  V30 3989 H 380.604 0.392797 -6.09335 0
M  V30 3990 H 382.018 -1.78504 -5.44802 0
M  V30 3991 H 380.415 -2.57573 -5.42011 0
M  V30 3992 H 381.485 -2.72042 -4.01399 0
M  V30 3993 N 382.828 1.3818 -0.7579 0
M  V30 3994 C 383.76 2.2901 -0.0932177 0
M  V30 3995 C 384.773 1.47958 0.679136 0
M  V30 3996 O 385.962 1.70773 0.519514 0
M  V30 3997 C 383.062 3.26953 0.89192 0
M  V30 3998 C 382.235 4.37045 0.176303 0
M  V30 3999 C 381.294 5.15148 1.07281 0
M  V30 4000 O 380.32 5.66616 0.541728 0
M  V30 4001 N 381.522 5.28542 2.40049 0
M  V30 4002 H 384.287 2.86694 -0.873303 0
M  V30 4003 H 381.848 1.50007 -0.609054 0
M  V30 4004 H 383.84 3.76083 1.49479 0
M  V30 4005 H 382.41 2.70136 1.57306 0
M  V30 4006 H 381.63 3.89493 -0.607328 0
M  V30 4007 H 382.918 5.07801 -0.318718 0
M  V30 4008 H 382.316 4.88285 2.85647 0
M  V30 4009 H 380.873 5.8103 2.95376 0
M  V30 4010 N 384.306 0.507319 1.49211 0
M  V30 4011 C 385.531 -0.033725 2.07373 0
M  V30 4012 C 385.956 -1.29485 1.36437 0
M  V30 4013 O 385.314 -1.76294 0.423087 0
M  V30 4014 C 385.362 -0.263945 3.59633 0
M  V30 4015 O 384.466 -1.33737 3.90113 0
M  V30 4016 H 383.807 0.0290331 0.663365 0
M  V30 4017 H 386.337 0.708749 1.91932 0
M  V30 4018 H 386.347 -0.493536 4.05004 0
M  V30 4019 H 385.022 0.657424 4.10671 0
M  V30 4020 H 383.599 -1.09224 3.56545 0
M  V30 4021 N 385.784 -1.5574 0.241426 0
M  V30 4022 C 387.2 -1.59196 -0.113548 0
M  V30 4023 C 387.4 -1.25852 -1.57364 0
M  V30 4024 O 386.456 -1.00322 -2.31715 0
M  V30 4025 C 387.769 -2.99814 0.230695 0
M  V30 4026 C 389.317 -3.12513 0.174547 0
M  V30 4027 C 389.792 -4.55342 0.492744 0
M  V30 4028 N 391.283 -4.61076 0.443043 0
M  V30 4029 C 392.018 -5.6956 0.662484 0
M  V30 4030 N 391.514 -6.86328 0.944761 0
M  V30 4031 N 393.307 -5.58957 0.593564 0
M  V30 4032 H 385.458 -1.75685 1.19368 0
M  V30 4033 H 387.721 -0.81756 0.479896 0
M  V30 4034 H 387.427 -3.28932 1.24485 0
M  V30 4035 H 387.301 -3.74568 -0.444833 0
M  V30 4036 H 389.688 -2.83179 -0.830277 0
M  V30 4037 H 389.769 -2.40045 0.883845 0
M  V30 4038 H 389.413 -4.85396 1.4951 0
M  V30 4039 H 389.343 -5.26062 -0.23797 0
M  V30 4040 H 391.834 -3.77179 0.233374 0
M  V30 4041 H 392.147 -7.64935 1.09977 0
M  V30 4042 H 390.492 -6.88025 0.982175 0
M  V30 4043 H 393.683 -4.66611 0.373123 0
M  V30 4044 H 393.856 -6.43433 0.767981 0
M  V30 4045 N 387.262 0.0317525 -1.57568 0
M  V30 4046 C 388.172 1.05021 -2.0978 0
M  V30 4047 C 389.188 1.39809 -1.03583 0
M  V30 4048 O 390.364 1.49182 -1.35302 0
M  V30 4049 C 387.429 2.33301 -2.56459 0
M  V30 4050 C 386.49 2.0512 -3.77127 0
M  V30 4051 C 385.723 3.27283 -4.2157 0
M  V30 4052 O 385.946 4.37861 -3.65559 0
M  V30 4053 O 384.88 3.13141 -5.14029 0
M  V30 4054 H 388.706 0.636505 -2.96955 0
M  V30 4055 H 386.291 0.248559 -1.47318 0
M  V30 4056 H 388.173 3.08722 -2.86825 0
M  V30 4057 H 386.848 2.73973 -1.72397 0
M  V30 4058 H 385.755 1.27276 -3.51784 0
M  V30 4059 H 387.088 1.69305 -4.62165 0
M  V30 4060 N 388.74 1.54641 0.303973 0
M  V30 4061 C 389.65 1.88439 1.39743 0
M  V30 4062 C 390.666 0.778239 1.55626 0
M  V30 4063 O 391.842 1.07442 1.70347 0
M  V30 4064 C 388.907 2.12212 2.74166 0
M  V30 4065 C 387.968 3.35936 2.67293 0
M  V30 4066 C 387.201 3.58566 3.95305 0
M  V30 4067 O 387.424 2.84263 4.9452 0
M  V30 4068 O 386.358 4.52078 3.97378 0
M  V30 4069 H 390.184 2.81458 1.14083 0
M  V30 4070 H 387.769 1.40793 0.499768 0
M  V30 4071 H 389.651 2.29067 3.53704 0
M  V30 4072 H 388.326 1.22379 2.99675 0
M  V30 4073 H 387.233 3.24448 1.86237 0
M  V30 4074 H 388.566 4.2589 2.46736 0
M  V30 4075 N 390.218 -0.567019 1.47046 0
M  V30 4076 C 391.464 -1.32658 1.53394 0
M  V30 4077 C 391.797 -1.93254 0.19148 0
M  V30 4078 O 391.072 -1.77338 -0.798844 0
M  V30 4079 C 391.355 -2.44412 2.64452 0
M  V30 4080 C 391.208 -1.88749 4.08282 0
M  V30 4081 C 392.527 -3.46387 2.71485 0
M  V30 4082 H 389.646 -0.48098 0.558415 0
M  V30 4083 H 392.288 -0.635481 1.79058 0
M  V30 4084 H 390.438 -3.03363 2.427 0
M  V30 4085 H 392.11 -1.34134 4.41368 0
M  V30 4086 H 390.353 -1.19481 4.17021 0
M  V30 4087 H 391.024 -2.69491 4.81745 0
M  V30 4088 H 393.5 -2.9734 2.91081 0
M  V30 4089 H 392.376 -4.2202 3.50985 0
M  V30 4090 H 392.637 -4.04616 1.78153 0
M  V30 4091 N 391.696 -1.35014 -0.812953 0
M  V30 4092 C 392.606 -1.2951 -1.95613 0
M  V30 4093 C 393.622 -0.20107 -1.72834 0
M  V30 4094 O 394.798 -0.42932 -1.96771 0
M  V30 4095 C 391.863 -1.06033 -3.30088 0
M  V30 4096 C 390.924 -2.24688 -3.65805 0
M  V30 4097 C 390.157 -2.02322 -4.93864 0
M  V30 4098 O 390.38 -0.986464 -5.61805 0
M  V30 4099 O 389.314 -2.89525 -5.27692 0
M  V30 4100 H 393.14 -2.25705 -2.03202 0
M  V30 4101 H 390.725 -1.15321 -0.949811 0
M  V30 4102 H 392.607 -0.94763 -4.10607 0
M  V30 4103 H 391.282 -0.128852 -3.23443 0
M  V30 4104 H 390.189 -2.41521 -2.85689 0
M  V30 4105 H 391.522 -3.16261 -3.77147 0
M  V30 4106 N 393.175 1.03435 -1.18907 0
M  V30 4107 C 394.108 2.11162 -0.86521 0
M  V30 4108 C 395.086 1.6165 0.175473 0
M  V30 4109 O 396.27 1.88425 0.0530129 0
M  V30 4110 C 393.397 3.37423 -0.293868 0
M  V30 4111 C 392.443 4.05795 -1.31274 0
M  V30 4112 S 393.276 4.52027 -2.8711 0
M  V30 4113 C 394.432 5.81513 -2.31504 0
M  V30 4114 H 394.665 2.38308 -1.77754 0
M  V30 4115 H 392.198 1.16295 -1.01562 0
M  V30 4116 H 394.156 4.1049 0.0292572 0
M  V30 4117 H 392.817 3.0838 0.596682 0
M  V30 4118 H 392.01 4.96574 -0.86198 0
M  V30 4119 H 391.612 3.38874 -1.58242 0
M  V30 4120 H 393.904 6.55784 -1.70157 0
M  V30 4121 H 394.847 6.3136 -3.20608 0
M  V30 4122 H 395.255 5.36921 -1.74286 0
M  V30 4123 N 394.653 0.992116 1.22453 0
M  V30 4124 C 395.583 0.561677 2.26644 0
M  V30 4125 C 396.564 -0.411055 1.65059 0
M  V30 4126 O 397.749 -0.301861 1.9184 0
M  V30 4127 C 394.879 -0.125247 3.47074 0
M  V30 4128 C 393.833 0.765948 4.21091 0
M  V30 4129 C 393.159 -0.0538484 5.34673 0
M  V30 4130 C 394.459 2.06242 4.79856 0
M  V30 4131 H 396.153 1.43259 2.62902 0
M  V30 4132 H 393.699 0.690283 1.26377 0
M  V30 4133 H 395.652 -0.437764 4.1912 0
M  V30 4134 H 394.376 -1.03069 3.0991 0
M  V30 4135 H 393.035 1.0621 3.50878 0
M  V30 4136 H 392.683 -0.960188 4.9375 0
M  V30 4137 H 392.383 0.539415 5.85119 0
M  V30 4138 H 393.907 -0.360477 6.09535 0
M  V30 4139 H 395.321 1.8139 5.43848 0
M  V30 4140 H 393.718 2.60444 5.40638 0
M  V30 4141 H 394.788 2.74167 3.99951 0
M  V30 4142 N 396.131 -1.37776 0.765217 0
M  V30 4143 C 397.542 -1.82521 0.392819 0
M  V30 4144 C 397.893 -1.63789 -1.08017 0
M  V30 4145 O 397.018 -1.14542 -1.83601 0
M  V30 4146 C 397.613 -3.31358 0.706214 0
M  V30 4147 C 396.172 -3.74406 0.386952 0
M  V30 4148 C 395.319 -2.60394 0.953422 0
M  V30 4149 H 398.27 -1.2634 0.960412 0
M  V30 4150 H 398.291 -3.80498 -0.0114706 0
M  V30 4151 H 397.803 -3.44959 1.77833 0
M  V30 4152 H 395.904 -3.66377 -0.678112 0
M  V30 4153 H 396.017 -4.70749 0.890636 0
M  V30 4154 H 394.381 -2.51878 0.378064 0
M  V30 4155 H 395.164 -2.76791 2.03081 0
M  V30 4156 N 397.609 -0.515225 -1.4894 0
M  V30 4157 C 398.857 0.0241671 -2.02086 0
M  V30 4158 C 399.178 1.3616 -1.3959 0
M  V30 4159 O 398.448 1.87841 -0.556121 0
M  V30 4160 H 397.028 0.0119203 -0.746905 0
M  V30 4161 H 399.69 -0.675702 -1.82812 0
M  V30 4162 H 398.786 0.143385 -3.1177 0
M  V30 4163 N 399.087 1.5561 -0.249682 0
M  V30 4164 C 400.333 1.99306 0.374841 0
M  V30 4165 C 400.666 1.13767 1.57387 0
M  V30 4166 O 399.941 0.201711 1.93451 0
M  V30 4167 C 400.224 3.51507 0.781986 0
M  V30 4168 C 400.077 4.4781 -0.422629 0
M  V30 4169 C 401.396 4.08884 1.62793 0
M  V30 4170 H 398.515 0.724572 0.134773 0
M  V30 4171 H 401.157 1.86719 -0.351549 0
M  V30 4172 H 399.307 3.62363 1.4009 0
M  V30 4173 H 400.979 4.48931 -1.06108 0
M  V30 4174 H 399.222 4.20518 -1.06524 0
M  V30 4175 H 399.893 5.51919 -0.0943766 0
M  V30 4176 H 402.369 4.01147 1.10547 0
M  V30 4177 H 401.245 5.1564 1.88166 0
M  V30 4178 H 401.506 3.57515 2.60068 0
M  V30 4179 N 400.565 -0.0233959 1.57583 0
M  V30 4180 C 401.79 -0.728376 1.94189 0
M  V30 4181 C 402.215 -1.67793 0.850119 0
M  V30 4182 O 401.573 -1.80262 -0.19371 0
M  V30 4183 C 401.621 -1.45669 3.29868 0
M  V30 4184 O 400.725 -2.57013 3.22518 0
M  V30 4185 H 400.066 -0.195493 0.63457 0
M  V30 4186 H 402.596 0.0228214 2.04587 0
M  V30 4187 H 402.606 -1.82535 3.6489 0
M  V30 4188 H 401.281 -0.760314 4.08891 0
M  V30 4189 H 399.858 -2.22648 2.99136 0
M  V30 4190 N 402.043 -1.548 -0.295768 0
M  V30 4191 C 403.291 -1.73985 -1.02828 0
M  V30 4192 C 403.612 -0.531406 -1.87619 0
M  V30 4193 O 402.882 0.454221 -1.90561 0
M  V30 4194 H 401.462 -0.641556 -0.382642 0
M  V30 4195 H 404.124 -1.92163 -0.325489 0
M  V30 4196 H 403.22 -2.63129 -1.67838 0
M  V30 4197 N 403.521 0.559213 -1.47345 0
M  V30 4198 C 404.471 1.66192 -1.5609 0
M  V30 4199 C 405.455 1.55323 -0.419957 0
M  V30 4200 O 406.647 1.63839 -0.669762 0
M  V30 4201 C 403.776 3.0497 -1.57634 0
M  V30 4202 C 402.862 3.2105 -2.77106 0
M  V30 4203 N 403.253 3.07203 -4.01821 0
M  V30 4204 C 401.551 3.52046 -2.73825 0
M  V30 4205 C 402.252 3.25919 -4.81821 0
M  V30 4206 N 401.228 3.52161 -4.14106 0
M  V30 4207 H 405.03 1.54052 -2.5029 0
M  V30 4208 H 402.544 0.763914 -1.43311 0
M  V30 4209 H 404.541 3.84142 -1.61989 0
M  V30 4210 H 403.201 3.18224 -0.645281 0
M  V30 4211 H 404.212 2.84572 -4.32711 0
M  V30 4212 H 400.889 3.71839 -1.89848 0
M  V30 4213 H 402.279 3.20198 -5.90697 0
M  V30 4214 N 404.999 1.35443 0.805782 0
M  V30 4215 C 406.415 1.15499 1.10146 0
M  V30 4216 C 406.615 -0.0319975 2.01475 0
M  V30 4217 O 405.671 -0.70236 2.42535 0
M  V30 4218 C 406.984 2.45833 1.73166 0
M  V30 4219 C 408.532 2.52047 1.85583 0
M  V30 4220 C 409.007 3.82427 2.52019 0
M  V30 4221 N 410.498 3.83682 2.59504 0
M  V30 4222 C 411.233 4.81294 3.11679 0
M  V30 4223 N 410.729 5.89294 3.64287 0
M  V30 4224 N 412.522 4.6873 3.1024 0
M  V30 4225 H 404.673 2.11469 0.198678 0
M  V30 4226 H 406.936 0.93594 0.150731 0
M  V30 4227 H 406.642 3.32874 1.13526 0
M  V30 4228 H 406.516 2.6044 2.72857 0
M  V30 4229 H 408.903 1.65435 2.44367 0
M  V30 4230 H 408.984 2.41354 0.847455 0
M  V30 4231 H 408.628 4.69437 1.93885 0
M  V30 4232 H 408.558 3.90409 3.53395 0
M  V30 4233 H 411.049 3.05648 2.22234 0
M  V30 4234 H 411.362 6.59768 4.02401 0
M  V30 4235 H 409.707 5.92985 3.62483 0
M  V30 4236 H 412.898 3.83496 2.68419 0
M  V30 4237 H 413.071 5.44965 3.50596 0
M  V30 4238 N 406.477 -1.02803 1.19454 0
M  V30 4239 C 407.754 -1.73299 0.907013 0
M  V30 4240 C 408.134 -2.02772 -0.587086 0
M  V30 4241 O 407.482 -1.68304 -1.54551 0
M  V30 4242 C 407.692 -3.00912 1.76785 0
M  V30 4243 C 409.04 -3.74403 2.00268 0
M  V30 4244 O 410.064 -3.10841 1.73943 0
M  V30 4245 O 408.923 -4.88675 2.4466 0
M  V30 4246 H 406.017 -0.754727 0.338106 0
M  V30 4247 H 408.563 -1.08754 1.30271 0
M  V30 4248 H 407.335 -2.75366 2.7801 0
M  V30 4249 H 406.958 -3.73197 1.37149 0
M  V30 4250 N 407.956 -0.998596 -1.21925 0
M  V30 4251 C 408.889 -0.498517 -2.22688 0
M  V30 4252 C 409.867 0.444301 -1.56412 0
M  V30 4253 O 411.051 0.368518 -1.84863 0
M  V30 4254 C 408.178 0.276639 -3.37568 0
M  V30 4255 C 407.224 -0.61302 -4.22071 0
M  V30 4256 S 408.057 -2.07168 -4.93803 0
M  V30 4257 C 409.213 -1.30617 -6.12119 0
M  V30 4258 H 409.446 -1.35234 -2.64762 0
M  V30 4259 H 406.979 -0.806018 -1.31692 0
M  V30 4260 H 408.937 0.717817 -4.04175 0
M  V30 4261 H 407.598 1.10581 -2.93991 0
M  V30 4262 H 406.791 -0.0162909 -5.03997 0
M  V30 4263 H 406.393 -0.991202 -3.60626 0
M  V30 4264 H 408.685 -0.57675 -6.75041 0
M  V30 4265 H 409.628 -2.10091 -6.76215 0
M  V30 4266 H 410.036 -0.816957 -5.58557 0
M  V30 4267 N 409.434 1.37368 -0.772513 0
M  V30 4268 C 410.683 1.98918 -0.333861 0
M  V30 4269 C 410.996 1.62017 1.09589 0
M  V30 4270 O 412.202 2.16676 1.63596 0
M  V30 4271 C 410.658 3.55735 -0.545971 0
M  V30 4272 C 410.266 4.01573 -1.98603 0
M  V30 4273 C 412.01 4.24156 -0.170979 0
M  V30 4274 C 409.917 5.51102 -2.1457 0
M  V30 4275 H 408.847 0.744214 -0.121085 0
M  V30 4276 H 411.498 1.56888 -0.95175 0
M  V30 4277 H 409.88 3.95748 0.141387 0
M  V30 4278 H 411.054 3.72803 -2.7084 0
M  V30 4279 H 409.369 3.45937 -2.31769 0
M  V30 4280 H 411.966 5.34024 -0.26878 0
M  V30 4281 H 412.309 4.06917 0.878855 0
M  V30 4282 H 412.842 3.89447 -0.810914 0
M  V30 4283 H 409.581 5.73268 -3.17875 0
M  V30 4284 H 409.101 5.81554 -1.46817 0
M  V30 4285 H 410.78 6.17083 -1.94468 0
M  V30 4286 N 410.912 0.523116 1.48665 0
M  V30 4287 C 412.137 -0.0117284 2.07397 0
M  V30 4288 C 412.562 -1.28031 1.37803 0
M  V30 4289 O 411.92 -1.75836 0.441762 0
M  V30 4290 C 411.968 -0.225786 3.59892 0
M  V30 4291 O 411.072 -1.29592 3.91509 0
M  V30 4292 H 410.413 0.0360673 0.66302 0
M  V30 4293 H 412.943 0.729066 1.9117 0
M  V30 4294 H 412.953 -0.450552 4.05505 0
M  V30 4295 H 411.628 0.700944 4.09951 0
M  V30 4296 H 410.205 -1.05436 3.57684 0
M  V30 4297 N 412.39 -1.55475 0.257931 0
M  V30 4298 C 413.618 -2.03609 -0.367559 0
M  V30 4299 C 414.033 -1.13687 -1.50734 0
M  V30 4300 O 413.39 -0.153479 -1.81853 0
M  V30 4301 C 413.441 -3.51001 -0.864908 0
M  V30 4302 O 413.162 -4.37499 0.229465 0
M  V30 4303 C 414.663 -4.14946 -1.55997 0
M  V30 4304 H 411.883 -0.665459 -0.0860521 0
M  V30 4305 H 414.427 -2.00843 0.385014 0
M  V30 4306 H 412.582 -3.54266 -1.56762 0
M  V30 4307 H 412.996 -5.24286 -0.14998 0
M  V30 4308 H 414.47 -5.19735 -1.85956 0
M  V30 4309 H 414.947 -3.6209 -2.4857 0
M  V30 4310 H 415.553 -4.15635 -0.901543 0
M  V30 4311 N 413.868 0.0150385 -1.57593 0
M  V30 4312 C 415.284 0.370907 -1.5523 0
M  V30 4313 C 415.484 1.75735 -0.985882 0
M  V30 4314 O 414.54 2.44944 -0.613077 0
M  V30 4315 C 415.853 0.259908 -2.99575 0
M  V30 4316 C 417.401 0.335959 -3.11192 0
M  V30 4317 C 417.876 0.254253 -4.57294 0
M  V30 4318 N 419.367 0.312618 -4.62144 0
M  V30 4319 C 420.102 0.272505 -5.72752 0
M  V30 4320 N 419.598 0.183864 -6.92556 0
M  V30 4321 N 421.391 0.323267 -5.6117 0
M  V30 4322 H 413.542 -0.892104 -1.92757 0
M  V30 4323 H 415.805 -0.340563 -0.884715 0
M  V30 4324 H 415.511 -0.693403 -3.44797 0
M  V30 4325 H 415.385 1.048 -3.62349 0
M  V30 4326 H 417.772 1.27971 -2.65909 0
M  V30 4327 H 417.853 -0.481739 -2.51223 0
M  V30 4328 H 417.497 -0.685887 -5.03247 0
M  V30 4329 H 417.427 1.09024 -5.15191 0
M  V30 4330 H 419.918 0.38307 -3.75953 0
M  V30 4331 H 420.231 0.15874 -7.72637 0
M  V30 4332 H 418.576 0.149708 -6.94839 0
M  V30 4333 H 421.767 0.390607 -4.66467 0
M  V30 4334 H 421.94 0.288539 -6.47357 0
M  V30 4335 N 415.346 1.54954 0.287554 0
M  V30 4336 C 416.762 1.46469 0.633964 0
M  V30 4337 C 416.962 0.666865 1.90145 0
M  V30 4338 O 416.018 0.179906 2.51858 0
M  V30 4339 C 417.331 2.90556 0.774454 0
M  V30 4340 C 418.879 3.00681 0.869462 0
M  V30 4341 C 419.354 4.45993 1.04184 0
M  V30 4342 N 420.845 4.4976 1.10772 0
M  V30 4343 C 421.58 5.59393 1.25964 0
M  V30 4344 N 421.076 6.78923 1.37968 0
M  V30 4345 N 422.869 5.47107 1.28959 0
M  V30 4346 H 415.02 2.05288 -0.545041 0
M  V30 4347 H 417.283 0.930305 -0.182308 0
M  V30 4348 H 416.989 3.51594 -0.086207 0
M  V30 4349 H 416.863 3.38743 1.6593 0
M  V30 4350 H 419.25 2.39749 1.7206 0
M  V30 4351 H 419.331 2.55769 -0.0396831 0
M  V30 4352 H 418.975 5.07524 0.195422 0
M  V30 4353 H 418.905 4.88548 1.96542 0
M  V30 4354 H 421.396 3.63651 1.02794 0
M  V30 4355 H 421.709 7.58231 1.49353 0
M  V30 4356 H 420.054 6.81763 1.34999 0
M  V30 4357 H 423.245 4.52668 1.19202 0
M  V30 4358 H 423.418 6.32595 1.40455 0
M  V30 4359 N 416.824 -0.551391 1.4764 0
M  V30 4360 C 417.754 -1.66757 1.63445 0
M  V30 4361 C 418.735 -1.63077 0.483742 0
M  V30 4362 O 419.92 -1.80607 0.71377 0
M  V30 4363 C 417.05 -3.05387 1.65396 0
M  V30 4364 C 416.004 -3.23918 2.79752 0
M  V30 4365 C 415.33 -4.63393 2.66779 0
M  V30 4366 C 416.63 -3.08735 4.21284 0
M  V30 4367 H 418.324 -1.53786 2.56886 0
M  V30 4368 H 415.87 -0.738415 1.23626 0
M  V30 4369 H 417.823 -3.83325 1.75043 0
M  V30 4370 H 416.547 -3.19332 0.685195 0
M  V30 4371 H 415.206 -2.48391 2.69625 0
M  V30 4372 H 414.854 -4.74144 1.67918 0
M  V30 4373 H 414.554 -4.7674 3.43501 0
M  V30 4374 H 416.078 -5.43458 2.78364 0
M  V30 4375 H 417.492 -3.76484 4.32357 0
M  V30 4376 H 415.889 -3.33588 4.98838 0
M  V30 4377 H 416.959 -2.0541 4.39243 0
M  V30 4378 N 418.302 -1.35869 -0.798587 0
M  V30 4379 C 419.713 -1.26498 -1.37314 0
M  V30 4380 C 420.064 0.0991899 -1.95949 0
M  V30 4381 O 419.189 1.0004 -1.91888 0
M  V30 4382 C 419.784 -2.29054 -2.49639 0
M  V30 4383 C 418.343 -2.234 -3.02935 0
M  V30 4384 C 417.49 -2.14329 -1.75949 0
M  V30 4385 H 420.441 -1.46881 -0.600971 0
M  V30 4386 H 420.462 -1.92166 -3.28409 0
M  V30 4387 H 419.974 -3.2833 -2.06933 0
M  V30 4388 H 418.075 -1.27562 -3.50084 0
M  V30 4389 H 418.188 -3.15703 -3.60372 0
M  V30 4390 H 416.552 -1.60435 -1.9782 0
M  V30 4391 H 417.335 -3.15477 -1.35384 0
M  V30 4392 N 419.78 1.02168 -1.19998 0
M  V30 4393 C 421.191 1.57135 -1.00825 0
M  V30 4394 C 421.542 1.91276 0.436818 0
M  V30 4395 O 420.667 1.71679 1.3174 0
M  V30 4396 C 421.262 2.85514 -1.82393 0
M  V30 4397 C 419.821 3.37027 -1.67601 0
M  V30 4398 C 418.968 2.10388 -1.80644 0
M  V30 4399 H 421.919 0.846106 -1.34264 0
M  V30 4400 H 421.94 3.56711 -1.32429 0
M  V30 4401 H 421.452 2.60634 -2.87561 0
M  V30 4402 H 419.553 3.66878 -0.650485 0
M  V30 4403 H 419.666 4.09572 -2.4857 0
M  V30 4404 H 418.03 2.22601 -1.23778 0
M  V30 4405 H 418.813 1.8794 -2.87286 0
M  V30 4406 N 421.258 1.00505 1.21394 0
M  V30 4407 C 422.483 0.706367 1.95001 0
M  V30 4408 C 422.908 -0.72463 1.73582 0
M  V30 4409 O 422.266 -1.49702 1.0227 0
M  V30 4410 C 422.314 1.03299 3.45487 0
M  V30 4411 O 421.418 0.138275 4.12168 0
M  V30 4412 H 420.759 0.263175 0.609619 0
M  V30 4413 H 423.289 1.34531 1.54151 0
M  V30 4414 H 423.299 0.979872 3.96059 0
M  V30 4415 H 421.974 2.07567 3.60401 0
M  V30 4416 H 420.551 0.247928 3.72075 0
M  V30 4417 N 422.737 -1.36956 0.779787 0
M  V30 4418 C 423.986 -1.98738 0.344405 0
M  V30 4419 C 424.299 -1.62596 -1.08728 0
M  V30 4420 O 425.505 -2.1754 -1.62445 0
M  V30 4421 C 423.961 -3.5544 0.564829 0
M  V30 4422 C 423.569 -4.00514 2.0073 0
M  V30 4423 C 425.313 -4.24059 0.193471 0
M  V30 4424 C 423.22 -5.49957 2.17489 0
M  V30 4425 H 422.15 -0.743561 0.12503 0
M  V30 4426 H 424.801 -1.56381 0.960057 0
M  V30 4427 H 423.183 -3.95817 -0.120397 0
M  V30 4428 H 424.357 -3.71362 2.72814 0
M  V30 4429 H 422.672 -3.44703 2.336 0
M  V30 4430 H 425.269 -5.33874 0.297097 0
M  V30 4431 H 425.612 -4.07378 -0.857263 0
M  V30 4432 H 426.145 -3.89012 0.831556 0
M  V30 4433 H 422.884 -5.71574 3.2091 0
M  V30 4434 H 422.404 -5.80767 1.49899 0
M  V30 4435 H 424.083 -6.16043 1.97738 0
M  V30 4436 N 424.215 -0.530993 -1.48385 0
M  V30 4437 C 425.461 0.00274135 -2.028 0
M  V30 4438 C 425.794 1.33838 -1.40716 0
M  V30 4439 O 425.069 1.86465 -0.553277 0
M  V30 4440 C 425.352 0.123676 -3.59888 0
M  V30 4441 C 425.205 -1.2372 -4.3245 0
M  V30 4442 C 426.524 0.849967 -4.31814 0
M  V30 4443 H 423.643 -0.000477758 -0.737 0
M  V30 4444 H 426.285 -0.688217 -1.77098 0
M  V30 4445 H 424.435 0.712157 -3.81917 0
M  V30 4446 H 426.107 -1.86687 -4.21836 0
M  V30 4447 H 424.35 -1.81882 -3.93829 0
M  V30 4448 H 425.021 -1.10557 -5.40815 0
M  V30 4449 H 427.497 0.350572 -4.14621 0
M  V30 4450 H 426.373 0.903486 -5.41413 0
M  V30 4451 H 426.634 1.90047 -3.99167 0
M  V30 4452 N 425.693 1.55336 -0.266172 0
M  V30 4453 C 426.625 2.19544 0.658247 0
M  V30 4454 C 427.638 1.17746 1.12427 0
M  V30 4455 O 428.827 1.44517 1.04772 0
M  V30 4456 C 425.927 2.80032 1.9088 0
M  V30 4457 C 425.1 4.07436 1.59106 0
M  V30 4458 C 424.159 4.52056 2.69317 0
M  V30 4459 O 423.185 5.18023 2.35883 0
M  V30 4460 N 424.387 4.21448 3.99201 0
M  V30 4461 H 427.152 2.99503 0.108754 0
M  V30 4462 H 424.713 1.61667 -0.0869059 0
M  V30 4463 H 426.705 3.06831 2.63888 0
M  V30 4464 H 425.275 2.04119 2.36758 0
M  V30 4465 H 424.495 3.88021 0.695243 0
M  V30 4466 H 425.783 4.90462 1.35367 0
M  V30 4467 H 425.181 3.68528 4.29189 0
M  V30 4468 H 423.738 4.53039 4.68614 0
M  V30 4469 N 427.171 -0.0066808 1.57599 0
M  V30 4470 C 428.448 -0.729586 1.81484 0
M  V30 4471 C 428.828 -1.92359 0.869558 0
M  V30 4472 O 428.176 -2.28348 -0.0832533 0
M  V30 4473 C 428.386 -1.1416 3.29801 0
M  V30 4474 C 429.734 -1.54823 3.95367 0
M  V30 4475 O 430.758 -1.23558 3.34084 0
M  V30 4476 O 429.617 -2.12937 5.03309 0
M  V30 4477 H 426.711 -0.354674 0.747085 0
M  V30 4478 H 429.257 0.0182609 1.6969 0
M  V30 4479 H 428.029 -0.290231 3.90222 0
M  V30 4480 H 427.652 -1.94876 3.46568 0
M  V30 4481 N 428.649 -1.55105 -0.279332 0
M  V30 4482 C 429.877 -1.7943 -1.03017 0
M  V30 4483 C 430.292 -0.564456 -1.80165 0
M  V30 4484 O 429.649 0.466326 -1.76442 0
M  V30 4485 C 429.7 -3.0155 -1.99374 0
M  V30 4486 O 429.421 -4.19784 -1.25352 0
M  V30 4487 C 430.922 -3.3843 -2.86321 0
M  V30 4488 H 428.142 -0.597882 -0.304594 0
M  V30 4489 H 430.686 -2.02105 -0.312035 0
M  V30 4490 H 428.841 -2.81019 -2.66659 0
M  V30 4491 H 429.255 -4.88781 -1.90246 0
M  V30 4492 H 430.729 -4.27066 -3.49741 0
M  V30 4493 H 431.206 -2.57549 -3.5576 0
M  V30 4494 H 431.812 -3.61197 -2.24536 0
M  V30 4495 N 430.127 0.543554 -1.4793 0
M  V30 4496 C 431.376 1.29649 -1.54512 0
M  V30 4497 C 431.689 1.94382 -0.217973 0
M  V30 4498 O 432.895 2.71017 -0.161908 0
M  V30 4499 C 431.351 2.35175 -2.72435 0
M  V30 4500 C 430.959 1.76572 -4.11736 0
M  V30 4501 C 432.703 3.11564 -2.8832 0
M  V30 4502 C 430.61 2.79958 -5.20939 0
M  V30 4503 H 429.54 0.487541 -0.57517 0
M  V30 4504 H 432.191 0.575708 -1.74235 0
M  V30 4505 H 430.573 3.10229 -2.46118 0
M  V30 4506 H 431.747 1.07799 -4.48013 0
M  V30 4507 H 430.062 1.12722 -4.00852 0
M  V30 4508 H 432.659 3.88794 -3.67074 0
M  V30 4509 H 433.002 3.66594 -1.97268 0
M  V30 4510 H 433.535 2.43623 -3.14472 0
M  V30 4511 H 430.274 2.29766 -6.13912 0
M  V30 4512 H 429.794 3.47101 -4.89164 0
M  V30 4513 H 431.473 3.43198 -5.48474 0
M  V30 4514 N 431.605 1.3629 0.791371 0
M  V30 4515 C 432.535 1.33137 1.91825 0
M  V30 4516 C 433.516 0.203168 1.68882 0
M  V30 4517 O 434.701 0.400509 1.90025 0
M  V30 4518 C 431.831 1.11793 3.28816 0
M  V30 4519 C 430.785 2.21417 3.66277 0
M  V30 4520 C 430.111 1.85218 5.01596 0
M  V30 4521 C 431.411 3.63489 3.75064 0
M  V30 4522 H 433.105 2.2743 1.9472 0
M  V30 4523 H 430.651 1.09479 0.935437 0
M  V30 4524 H 432.604 1.08222 4.07266 0
M  V30 4525 H 431.328 0.139501 3.26302 0
M  V30 4526 H 429.987 2.2411 2.90121 0
M  V30 4527 H 429.635 0.859544 4.95602 0
M  V30 4528 H 429.335 2.58611 5.27631 0
M  V30 4529 H 430.859 1.832 5.82469 0
M  V30 4530 H 432.273 3.63034 4.43711 0
M  V30 4531 H 430.67 4.35771 4.12582 0
M  V30 4532 H 431.74 3.98536 2.76219 0
M  V30 4533 N 433.083 -1.0153 1.20538 0
M  V30 4534 C 434.046 -2.0826 0.957098 0
M  V30 4535 C 435.046 -1.60657 -0.0678655 0
M  V30 4536 O 436.236 -1.73385 0.168332 0
M  V30 4537 C 433.368 -3.38033 0.441188 0
M  V30 4538 H 434.561 -2.31719 1.90384 0
M  V30 4539 H 432.114 -1.1835 1.02093 0
M  V30 4540 H 432.849 -3.20249 -0.510961 0
M  V30 4541 H 432.634 -3.73911 1.18038 0
M  V30 4542 H 434.124 -4.16613 0.287009 0
M  V30 4543 N 434.561 -1.01147 -1.20859 0
M  V30 4544 C 435.807 -0.698899 -1.90377 0
M  V30 4545 C 436.14 0.76904 -1.78324 0
M  V30 4546 O 435.415 1.55817 -1.16409 0
M  V30 4547 C 435.698 -1.12878 -3.41951 0
M  V30 4548 C 435.551 -2.65665 -3.62963 0
M  V30 4549 C 436.87 -0.696114 -4.3456 0
M  V30 4550 H 433.989 -0.255372 -0.691342 0
M  V30 4551 H 436.631 -1.25831 -1.42361 0
M  V30 4552 H 434.781 -0.652827 -3.82976 0
M  V30 4553 H 436.453 -3.21074 -3.31224 0
M  V30 4554 H 434.696 -3.06878 -3.06608 0
M  V30 4555 H 435.367 -2.90797 -4.69192 0
M  V30 4556 H 437.843 -1.10521 -4.01154 0
M  V30 4557 H 436.719 -1.025 -5.39245 0
M  V30 4558 H 436.98 0.402465 -4.40264 0
M  V30 4559 N 436.039 1.36541 -0.78704 0
M  V30 4560 C 437.285 1.99599 -0.358872 0
M  V30 4561 C 437.618 1.62323 1.06606 0
M  V30 4562 O 436.893 0.876858 1.73613 0
M  V30 4563 C 437.176 3.56327 -0.519944 0
M  V30 4564 C 437.029 4.03464 -1.98839 0
M  V30 4565 C 438.348 4.4005 0.0664737 0
M  V30 4566 H 435.467 0.725107 -0.131869 0
M  V30 4567 H 438.109 1.6199 -0.992936 0
M  V30 4568 H 436.259 3.88495 0.0198321 0
M  V30 4569 H 437.931 3.81793 -2.58905 0
M  V30 4570 H 436.174 3.55092 -2.49183 0
M  V30 4571 H 436.845 5.12439 -2.05207 0
M  V30 4572 H 439.321 4.14228 -0.394267 0
M  V30 4573 H 438.197 5.48847 -0.0762682 0
M  V30 4574 H 438.458 4.26655 1.15835 0
M  V30 4575 N 437.518 0.538854 1.48102 0
M  V30 4576 C 438.929 0.100679 1.86428 0
M  V30 4577 C 439.28 -1.32447 1.44749 0
M  V30 4578 O 438.405 -1.99339 0.842199 0
M  V30 4579 C 439 0.175933 3.38343 0
M  V30 4580 C 437.559 -0.207098 3.7583 0
M  V30 4581 C 436.706 0.531741 2.72154 0
M  V30 4582 H 439.657 0.749614 1.3988 0
M  V30 4583 H 439.678 -0.610144 3.75576 0
M  V30 4584 H 439.19 1.21328 3.68648 0
M  V30 4585 H 437.291 -1.24626 3.5114 0
M  V30 4586 H 437.404 0.138687 4.78899 0
M  V30 4587 H 435.768 -0.0230462 2.5469 0
M  V30 4588 H 436.551 1.56989 3.05302 0
M  V30 4589 N 438.996 -1.55193 0.274407 0
M  V30 4590 C 440.407 -1.85358 -0.223488 0
M  V30 4591 C 440.758 -1.19642 -1.555 0
M  V30 4592 O 439.883 -0.484498 -2.10907 0
M  V30 4593 C 440.478 -3.36282 -0.412285 0
M  V30 4594 C 439.037 -3.66574 -0.854413 0
M  V30 4595 C 438.184 -2.7725 0.0527056 0
M  V30 4596 H 441.135 -1.50743 0.496215 0
M  V30 4597 H 441.156 -3.59349 -1.25094 0
M  V30 4598 H 440.668 -3.84083 0.556965 0
M  V30 4599 H 438.769 -3.24273 -1.83516 0
M  V30 4600 H 438.882 -4.74073 -0.692226 0
M  V30 4601 H 437.246 -2.50447 -0.463484 0
M  V30 4602 H 438.029 -3.27865 1.01783 0
M  V30 4603 N 440.474 -0.00167713 -1.576 0
M  V30 4604 C 441.421 0.989195 -2.08527 0
M  V30 4605 C 442.391 1.34031 -0.981065 0
M  V30 4606 O 443.576 1.43839 -1.2536 0
M  V30 4607 C 440.716 2.27537 -2.59463 0
M  V30 4608 C 439.829 1.98314 -3.83791 0
M  V30 4609 C 438.964 3.21025 -4.23222 0
M  V30 4610 C 438.003 2.87495 -5.40382 0
M  V30 4611 N 437.14 4.02749 -5.75098 0
M  V30 4612 H 441.98 0.547973 -2.92919 0
M  V30 4613 H 439.517 0.258917 -1.44803 0
M  V30 4614 H 441.475 3.02729 -2.87073 0
M  V30 4615 H 440.105 2.69325 -1.77943 0
M  V30 4616 H 439.157 1.13482 -3.63078 0
M  V30 4617 H 440.469 1.69601 -4.69081 0
M  V30 4618 H 439.623 4.04561 -4.52123 0
M  V30 4619 H 438.362 3.52877 -3.36644 0
M  V30 4620 H 437.367 2.02367 -5.11202 0
M  V30 4621 H 438.592 2.56889 -6.28637 0
M  V30 4622 H 436.538 4.34494 -4.91478 0
M  V30 4623 H 436.455 3.77566 -6.54966 0
M  V30 4624 H 437.723 4.87068 -6.08592 0
M  V30 4625 N 441.952 1.55251 0.271103 0
M  V30 4626 C 443.177 1.80306 1.02491 0
M  V30 4627 C 443.602 0.575457 1.79081 0
M  V30 4628 O 442.96 -0.474987 1.74967 0
M  V30 4629 C 443.008 3.02832 1.95768 0
M  V30 4630 O 442.112 2.78051 3.04568 0
M  V30 4631 H 441.453 0.595896 0.292923 0
M  V30 4632 H 443.983 2.02397 0.299436 0
M  V30 4633 H 443.993 3.31616 2.37686 0
M  V30 4634 H 442.668 3.9183 1.39434 0
M  V30 4635 H 441.245 2.60369 2.66951 0
M  V30 4636 N 443.43 -0.535701 1.48216 0
M  V30 4637 C 444.67 -1.30238 1.57536 0
M  V30 4638 C 445.034 -1.90479 0.241229 0
M  V30 4639 O 446.235 -2.67983 0.20938 0
M  V30 4640 C 444.506 -2.3669 2.67792 0
M  V30 4641 S 446.065 -3.23159 2.9684 0
M  V30 4642 H 442.883 -0.443093 0.556048 0
M  V30 4643 H 445.485 -0.610937 1.85709 0
M  V30 4644 H 444.189 -1.90905 3.63296 0
M  V30 4645 H 443.72 -3.10548 2.41502 0
M  V30 4646 H 445.735 -4.36647 2.35699 0
M  V30 4647 N 444.908 -1.36708 -0.784132 0
M  V30 4648 C 445.871 -1.31307 -1.87859 0
M  V30 4649 C 446.871 -0.219654 -1.59293 0
M  V30 4650 O 448.061 -0.47476 -1.67606 0
M  V30 4651 C 445.193 -1.03679 -3.24751 0
M  V30 4652 H 446.386 -2.28647 -1.94064 0
M  V30 4653 H 443.939 -1.21558 -0.98252 0
M  V30 4654 H 444.674 -0.0681936 -3.24228 0
M  V30 4655 H 444.459 -1.82811 -3.46876 0
M  V30 4656 H 445.949 -1.02518 -4.04821 0
M  V30 4657 N 446.386 1.0089 -1.21074 0
M  V30 4658 C 447.349 2.0775 -0.968129 0
M  V30 4659 C 448.349 1.6069 0.0593445 0
M  V30 4660 O 449.539 1.73293 -0.177525 0
M  V30 4661 C 446.671 3.37794 -0.459108 0
M  V30 4662 H 447.864 2.30707 -1.9161 0
M  V30 4663 H 445.417 1.17807 -1.02719 0
M  V30 4664 H 446.152 3.20516 0.49397 0
M  V30 4665 H 445.937 3.7328 -1.20019 0
M  V30 4666 H 447.427 4.16454 -0.309099 0
M  V30 4667 N 447.864 1.01787 1.20321 0
M  V30 4668 C 449.113 0.703249 1.89043 0
M  V30 4669 C 449.426 -0.770445 1.79787 0
M  V30 4670 O 450.632 -1.19767 2.43656 0
M  V30 4671 C 449.088 1.20749 3.3904 0
M  V30 4672 C 448.696 2.70817 3.56878 0
M  V30 4673 C 450.44 0.968352 4.13308 0
M  V30 4674 C 448.347 3.14716 5.00708 0
M  V30 4675 H 447.277 0.259354 0.707991 0
M  V30 4676 H 449.928 1.23072 1.36108 0
M  V30 4677 H 448.31 0.607989 3.91305 0
M  V30 4678 H 449.484 3.36327 3.14993 0
M  V30 4679 H 447.799 2.92888 2.95983 0
M  V30 4680 H 450.396 1.27173 5.19356 0
M  V30 4681 H 450.739 -0.095149 4.16191 0
M  V30 4682 H 451.272 1.53129 3.67146 0
M  V30 4683 H 448.011 4.20347 5.02979 0
M  V30 4684 H 447.531 2.53927 5.43398 0
M  V30 4685 H 449.21 3.07426 5.69296 0
M  V30 4686 N 449.342 -1.36122 0.79427 0
M  V30 4687 C 450.59 -1.98718 0.368177 0
M  V30 4688 C 450.911 -1.63345 -1.06506 0
M  V30 4689 O 450.181 -0.909825 -1.73491 0
M  V30 4690 H 448.761 -0.735038 0.133146 0
M  V30 4691 H 451.423 -1.66239 1.01739 0
M  V30 4692 H 450.519 -3.08633 0.463923 0
M  V30 4693 N 450.82 -0.546701 -1.47814 0
M  V30 4694 C 452.048 -0.0232857 -2.06887 0
M  V30 4695 C 452.463 1.26571 -1.4009 0
M  V30 4696 O 451.82 1.7569 -0.493906 0
M  V30 4697 C 451.871 0.186975 -3.61016 0
M  V30 4698 O 451.592 -1.05097 -4.25307 0
M  V30 4699 C 453.093 0.748872 -4.36929 0
M  V30 4700 H 450.313 -0.0410763 -0.669742 0
M  V30 4701 H 452.857 -0.757117 -1.89968 0
M  V30 4702 H 451.012 0.870903 -3.77484 0
M  V30 4703 H 451.426 -0.842121 -5.17695 0
M  V30 4704 H 452.9 0.845334 -5.45489 0
M  V30 4705 H 453.377 1.75772 -4.02493 0
M  V30 4706 H 453.983 0.100979 -4.2518 0
M  V30 4707 N 452.299 1.55045 -0.282633 0
M  V30 4708 C 453.576 1.9179 0.384166 0
M  V30 4709 C 453.956 1.20778 1.73136 0
M  V30 4710 O 453.304 0.33719 2.25998 0
M  V30 4711 C 453.514 3.45149 0.517014 0
M  V30 4712 C 454.862 4.17064 0.796427 0
M  V30 4713 O 455.886 3.51084 0.601535 0
M  V30 4714 O 454.745 5.33837 1.16962 0
M  V30 4715 H 451.839 0.799483 0.211558 0
M  V30 4716 H 454.385 1.66474 -0.32934 0
M  V30 4717 H 453.157 3.88922 -0.430772 0
M  V30 4718 H 452.78 3.76443 1.2797 0
M  V30 4719 N 453.777 0.010035 1.57597 0
M  V30 4720 C 455.023 -0.673697 1.91283 0
M  V30 4721 C 455.356 -1.72863 0.884979 0
M  V30 4722 O 454.631 -1.94268 -0.0949487 0
M  V30 4723 C 454.914 -1.30766 3.35518 0
M  V30 4724 C 454.767 -0.263578 4.49027 0
M  V30 4725 C 456.086 -2.23105 3.79358 0
M  V30 4726 H 453.205 -0.243439 0.695634 0
M  V30 4727 H 455.847 0.0633864 1.89894 0
M  V30 4728 H 453.997 -1.93588 3.36832 0
M  V30 4729 H 455.669 0.365738 4.59848 0
M  V30 4730 H 453.912 0.413077 4.31829 0
M  V30 4731 H 454.583 -0.746398 5.4693 0
M  V30 4732 H 457.059 -1.70289 3.79659 0
M  V30 4733 H 455.935 -2.64424 4.81011 0
M  V30 4734 H 456.196 -3.11433 3.13787 0
M  V30 4735 N 455.255 -1.55392 -0.262866 0
M  V30 4736 C 456.532 -1.67204 -1.01499 0
M  V30 4737 C 456.912 -0.545186 -2.03939 0
M  V30 4738 O 456.26 0.453467 -2.23955 0
M  V30 4739 C 456.47 -3.06847 -1.6627 0
M  V30 4740 C 457.818 -3.64928 -2.17054 0
M  V30 4741 O 458.842 -3.09545 -1.76239 0
M  V30 4742 O 457.701 -4.61984 -2.91947 0
M  V30 4743 H 454.795 -0.679467 -0.471438 0
M  V30 4744 H 457.341 -1.67729 -0.257918 0
M  V30 4745 H 456.113 -3.80309 -0.920915 0
M  V30 4746 H 455.736 -3.10266 -2.48638 0
M  V30 4747 N 456.733 0.527833 -1.48498 0
M  V30 4748 C 457.663 1.64136 -1.66077 0
M  V30 4749 C 458.644 1.62286 -0.509625 0
M  V30 4750 O 459.829 1.79449 -0.742413 0
M  V30 4751 C 456.959 3.02717 -1.70234 0
M  V30 4752 C 455.913 3.19426 -2.8487 0
M  V30 4753 C 455.239 4.5909 -2.74118 0
M  V30 4754 C 456.539 3.01993 -4.26142 0
M  V30 4755 H 458.233 1.4968 -2.593 0
M  V30 4756 H 455.779 0.718654 -1.24785 0
M  V30 4757 H 457.732 3.80491 -1.8112 0
M  V30 4758 H 456.456 3.18201 -0.735911 0
M  V30 4759 H 455.115 2.4407 -2.73542 0
M  V30 4760 H 454.763 4.71413 -1.7544 0
M  V30 4761 H 454.463 4.71214 -3.51042 0
M  V30 4762 H 455.987 5.3896 -2.86974 0
M  V30 4763 H 457.401 3.69558 -4.38292 0
M  V30 4764 H 455.798 3.2561 -5.04082 0
M  V30 4765 H 456.868 1.98396 -4.42456 0
M  V30 4766 N 458.211 1.37122 0.776871 0
M  V30 4767 C 459.627 1.1781 1.07671 0
M  V30 4768 C 459.827 0.0107454 2.01497 0
M  V30 4769 O 458.883 -0.650756 2.4397 0
M  V30 4770 C 460.196 2.49451 1.67913 0
M  V30 4771 C 461.744 2.55927 1.80195 0
M  V30 4772 C 462.219 3.87686 2.43851 0
M  V30 4773 N 463.71 3.891 2.51307 0
M  V30 4774 C 464.445 4.87797 3.014 0
M  V30 4775 N 463.941 5.96888 3.51705 0
M  V30 4776 N 465.734 4.75205 3.00227 0
M  V30 4777 H 457.885 2.11843 0.153778 0
M  V30 4778 H 460.148 0.938927 0.130844 0
M  V30 4779 H 459.854 3.35207 1.06439 0
M  V30 4780 H 459.728 2.66169 2.67271 0
M  V30 4781 H 462.115 1.70582 2.40803 0
M  V30 4782 H 462.196 2.43097 0.796069 0
M  V30 4783 H 461.84 4.73444 1.83884 0
M  V30 4784 H 461.77 3.97817 3.45035 0
M  V30 4785 H 464.261 3.10293 2.157 0
M  V30 4786 H 464.574 6.68155 3.88316 0
M  V30 4787 H 462.919 6.0054 3.49824 0
M  V30 4788 H 466.11 3.89103 2.60224 0
M  V30 4789 H 466.283 5.52279 3.38957 0
M  V30 4790 N 459.689 -1.00246 1.21608 0
M  V30 4791 C 460.966 -1.71336 0.943568 0
M  V30 4792 C 461.346 -2.03972 -0.543943 0
M  V30 4793 O 460.694 -1.71545 -1.50946 0
M  V30 4794 C 460.904 -2.97094 1.83128 0
M  V30 4795 C 462.252 -3.70071 2.08165 0
M  V30 4796 O 463.276 -3.07081 1.80498 0
M  V30 4797 O 462.135 -4.83376 2.54971 0
M  V30 4798 H 459.229 -0.747386 0.354039 0
M  V30 4799 H 461.775 -1.05967 1.32549 0
M  V30 4800 H 460.547 -2.69407 2.83788 0
M  V30 4801 H 460.17 -3.70204 1.45034 0
M  V30 4802 N 461.167 -1.02423 -1.1978 0
M  V30 4803 C 462.413 -0.72878 -1.89896 0
M  V30 4804 C 462.768 0.734248 -1.77839 0
M  V30 4805 O 462.061 1.52733 -1.15685 0
M  V30 4806 C 462.255 -1.1088 -3.39765 0
M  V30 4807 C 462.084 -2.60722 -3.66407 0
M  V30 4808 C 460.854 -3.27623 -3.84696 0
M  V30 4809 C 463.052 -3.58924 -3.68345 0
M  V30 4810 N 461.034 -4.66617 -3.98926 0
M  V30 4811 C 462.405 -4.83514 -3.8809 0
M  V30 4812 C 464.46 -3.52788 -3.51347 0
M  V30 4813 C 463.163 -6.0271 -3.92598 0
M  V30 4814 C 465.189 -4.71394 -3.5713 0
M  V30 4815 C 464.551 -5.94796 -3.77356 0
M  V30 4816 H 460.65 -0.318473 -0.714212 0
M  V30 4817 H 463.234 -1.3106 -1.43984 0
M  V30 4818 H 461.405 -0.555233 -3.84411 0
M  V30 4819 H 463.137 -0.766082 -3.97383 0
M  V30 4820 H 459.892 -2.7804 -3.83393 0
M  V30 4821 H 460.316 -5.38805 -4.099 0
M  V30 4822 H 464.958 -2.58372 -3.3467 0
M  V30 4823 H 462.676 -6.97499 -4.08069 0
M  V30 4824 H 466.262 -4.6827 -3.45275 0
M  V30 4825 H 465.142 -6.85037 -3.81699 0
M  V30 4826 N 462.645 1.35699 -0.801477 0
M  V30 4827 C 463.893 1.9852 -0.37871 0
M  V30 4828 C 464.214 1.63907 1.05638 0
M  V30 4829 O 463.484 0.919013 1.73006 0
M  V30 4830 H 462.064 0.734322 -0.137042 0
M  V30 4831 H 464.726 1.65697 -1.02619 0
M  V30 4832 H 463.822 3.08382 -0.480284 0
M  V30 4833 N 464.123 0.554532 1.47522 0
M  V30 4834 C 465.37 0.029479 2.02479 0
M  V30 4835 C 465.698 -1.31929 1.42916 0
M  V30 4836 O 464.953 -1.87112 0.573385 0
M  V30 4837 C 465.252 -0.115927 3.57212 0
M  V30 4838 C 464.918 1.16161 4.3568 0
M  V30 4839 C 463.58 1.51168 4.56839 0
M  V30 4840 C 465.932 2.0083 4.80954 0
M  V30 4841 C 463.26 2.70696 5.2052 0
M  V30 4842 C 465.612 3.19559 5.45953 0
M  V30 4843 C 464.276 3.54882 5.65345 0
M  V30 4844 H 463.546 0.0107871 0.740921 0
M  V30 4845 H 466.193 0.725506 1.77225 0
M  V30 4846 H 464.498 -0.894902 3.81443 0
M  V30 4847 H 466.195 -0.53749 3.97381 0
M  V30 4848 H 462.785 0.879026 4.19489 0
M  V30 4849 H 466.969 1.75093 4.64388 0
M  V30 4850 H 462.225 2.98236 5.33728 0
M  V30 4851 H 466.399 3.85456 5.79997 0
M  V30 4852 H 464.026 4.47596 6.1446 0
M  V30 4853 N 465.601 -1.54893 0.290851 0
M  V30 4854 C 466.878 -1.91991 -0.373989 0
M  V30 4855 C 467.258 -1.21694 -1.72493 0
M  V30 4856 O 466.606 -0.34917 -2.25816 0
M  V30 4857 C 466.816 -3.45419 -0.498703 0
M  V30 4858 C 468.164 -4.1748 -0.774298 0
M  V30 4859 O 469.188 -3.51398 -0.582908 0
M  V30 4860 O 468.047 -5.3445 -1.14129 0
M  V30 4861 H 465.141 -0.800593 -0.207315 0
M  V30 4862 H 467.687 -1.66297 0.338164 0
M  V30 4863 H 466.459 -3.88688 0.451392 0
M  V30 4864 H 466.082 -3.77117 -1.25972 0
M  V30 4865 N 467.08 -0.0183926 -1.57589 0
M  V30 4866 C 468.308 0.673046 -1.95647 0
M  V30 4867 C 468.723 1.66275 -0.894312 0
M  V30 4868 O 468.08 1.82072 0.124975 0
M  V30 4869 C 468.131 1.38884 -3.33756 0
M  V30 4870 O 467.852 0.438806 -4.35897 0
M  V30 4871 C 469.353 2.1731 -3.86383 0
M  V30 4872 H 466.573 0.186292 -0.644621 0
M  V30 4873 H 469.117 -0.0749748 -2.04363 0
M  V30 4874 H 467.272 2.08835 -3.26293 0
M  V30 4875 H 467.686 0.945869 -5.15901 0
M  V30 4876 H 469.16 2.62863 -4.85394 0
M  V30 4877 H 469.637 3.00764 -3.20059 0
M  V30 4878 H 470.243 1.52339 -3.97081 0
M  V30 4879 N 468.558 1.5553 0.254621 0
M  V30 4880 C 469.805 1.77 0.983736 0
M  V30 4881 C 470.133 0.58133 1.85609 0
M  V30 4882 O 469.388 -0.435621 1.9079 0
M  V30 4883 C 469.687 3.03891 1.88109 0
M  V30 4884 C 469.353 4.35597 1.16472 0
M  V30 4885 C 468.015 4.7139 0.966714 0
M  V30 4886 C 470.367 5.1705 0.656387 0
M  V30 4887 C 467.695 5.86176 0.247942 0
M  V30 4888 C 470.047 6.32581 -0.0488807 0
M  V30 4889 C 468.711 6.67 -0.258438 0
M  V30 4890 H 467.981 0.647688 0.359974 0
M  V30 4891 H 470.628 1.89802 0.254463 0
M  V30 4892 H 468.933 2.86068 2.67717 0
M  V30 4893 H 470.63 3.17701 2.44677 0
M  V30 4894 H 467.22 4.07475 1.32899 0
M  V30 4895 H 471.404 4.8986 0.796933 0
M  V30 4896 H 466.66 6.11354 0.075035 0
M  V30 4897 H 470.834 6.94942 -0.450444 0
M  V30 4898 H 468.461 7.55793 -0.817358 0
M  V30 4899 N 470.036 -0.519951 1.48776 0
M  V30 4900 C 470.946 -1.65025 1.66745 0
M  V30 4901 C 471.962 -1.6508 0.549954 0
M  V30 4902 O 473.138 -1.83848 0.822295 0
M  V30 4903 C 470.203 -3.0146 1.71238 0
M  V30 4904 C 469.264 -3.12182 2.94688 0
M  V30 4905 C 468.497 -4.42109 2.98958 0
M  V30 4906 O 468.72 -5.29799 2.1135 0
M  V30 4907 O 467.654 -4.57406 3.91233 0
M  V30 4908 H 471.48 -1.52801 2.62461 0
M  V30 4909 H 469.065 -0.694157 1.32294 0
M  V30 4910 H 470.947 -3.82584 1.76657 0
M  V30 4911 H 469.622 -3.13988 0.786975 0
M  V30 4912 H 468.529 -2.30316 2.94797 0
M  V30 4913 H 469.862 -3.04574 3.86646 0
M  V30 4914 N 471.514 -1.37532 -0.769588 0
M  V30 4915 C 472.76 -1.33057 -1.53048 0
M  V30 4916 C 473.093 0.0841865 -1.94017 0
M  V30 4917 O 472.368 1.04198 -1.64235 0
M  V30 4918 C 472.651 -2.27166 -2.79406 0
M  V30 4919 C 472.504 -3.77429 -2.44677 0
M  V30 4920 C 473.823 -2.19683 -3.81349 0
M  V30 4921 H 470.942 -0.484655 -0.555228 0
M  V30 4922 H 473.584 -1.68251 -0.882702 0
M  V30 4923 H 471.734 -1.97283 -3.34682 0
M  V30 4924 H 473.406 -4.17918 -1.953 0
M  V30 4925 H 471.649 -3.95892 -1.77346 0
M  V30 4926 H 472.32 -4.38716 -3.35011 0
M  V30 4927 H 474.796 -2.46029 -3.35573 0
M  V30 4928 H 473.672 -2.87668 -4.67481 0
M  V30 4929 H 473.933 -1.19045 -4.25771 0
M  V30 4930 N 472.992 0.995999 -1.22138 0
M  V30 4931 C 473.955 2.06711 -0.990109 0
M  V30 4932 C 474.955 1.60744 0.0422978 0
M  V30 4933 O 476.145 1.73095 -0.195895 0
M  V30 4934 C 473.277 3.37288 -0.49491 0
M  V30 4935 H 474.47 2.28661 -1.94047 0
M  V30 4936 H 472.023 1.16711 -1.03963 0
M  V30 4937 H 472.758 3.21022 0.459948 0
M  V30 4938 H 472.543 3.71986 -1.23971 0
M  V30 4939 H 474.033 4.16103 -0.353253 0
M  V30 4940 N 474.47 1.03057 1.19235 0
M  V30 4941 C 475.695 0.74757 1.93458 0
M  V30 4942 C 476.12 -0.687648 1.7508 0
M  V30 4943 O 475.478 -1.47499 1.05422 0
M  V30 4944 C 475.526 1.10604 3.43219 0
M  V30 4945 O 474.63 0.225671 4.11782 0
M  V30 4946 H 473.971 0.276047 0.603899 0
M  V30 4947 H 476.501 1.3777 1.51263 0
M  V30 4948 H 476.511 1.06366 3.93891 0
M  V30 4949 H 475.186 2.15165 3.55917 0
M  V30 4950 H 473.763 0.326795 3.71465 0
M  V30 4951 N 475.948 -1.35272 0.808662 0
M  V30 4952 C 477.364 -1.51806 0.492653 0
M  V30 4953 C 477.564 -1.7574 -0.985778 0
M  V30 4954 O 476.62 -1.80003 -1.77074 0
M  V30 4955 C 477.933 -2.69202 1.33981 0
M  V30 4956 C 479.481 -2.8308 1.33547 0
M  V30 4957 C 479.956 -4.03502 2.16679 0
M  V30 4958 N 481.447 -4.10684 2.14227 0
M  V30 4959 C 482.182 -5.02984 2.75308 0
M  V30 4960 N 481.678 -6.00603 3.45323 0
M  V30 4961 N 483.471 -4.95746 2.64938 0
M  V30 4962 H 475.622 -1.17993 1.76611 0
M  V30 4963 H 477.885 -0.577476 0.751814 0
M  V30 4964 H 477.591 -2.581 2.38909 0
M  V30 4965 H 477.465 -3.63854 0.994491 0
M  V30 4966 H 479.852 -2.93631 0.294036 0
M  V30 4967 H 479.933 -1.89278 1.72068 0
M  V30 4968 H 479.577 -3.93711 3.20864 0
M  V30 4969 H 479.507 -4.96489 1.75517 0
M  V30 4970 H 481.998 -3.40802 1.63285 0
M  V30 4971 H 482.311 -6.67633 3.89212 0
M  V30 4972 H 480.656 -6.0077 3.49428 0
M  V30 4973 H 483.847 -4.18439 2.09825 0
M  V30 4974 H 484.02 -5.67487 3.12829 0
M  V30 4975 N 477.426 -0.562348 -1.47226 0
M  V30 4976 C 478.672 -0.0402761 -2.0276 0
M  V30 4977 C 479.005 1.30823 -1.43523 0
M  V30 4978 O 478.28 1.85249 -0.592705 0
M  V30 4979 C 478.563 0.047311 -3.60069 0
M  V30 4980 C 478.416 -1.32865 -4.29729 0
M  V30 4981 C 479.735 0.758182 -4.3352 0
M  V30 4982 H 476.854 -0.0161105 -0.736824 0
M  V30 4983 H 479.496 -0.725628 -1.75598 0
M  V30 4984 H 477.646 0.630986 -3.83342 0
M  V30 4985 H 479.318 -1.95593 -4.17781 0
M  V30 4986 H 477.561 -1.90195 -3.89882 0
M  V30 4987 H 478.232 -1.22004 -5.38349 0
M  V30 4988 H 480.708 0.262546 -4.15271 0
M  V30 4989 H 479.584 0.78844 -5.43208 0
M  V30 4990 H 479.845 1.81537 -4.03109 0
M  V30 4991 N 478.904 1.54736 -0.299062 0
M  V30 4992 C 480.315 1.8569 0.193971 0
M  V30 4993 C 480.666 1.22101 1.53577 0
M  V30 4994 O 479.791 0.51799 2.10109 0
M  V30 4995 C 480.386 3.36895 0.358733 0
M  V30 4996 C 478.945 3.67887 0.795986 0
M  V30 4997 C 478.092 2.77131 -0.096807 0
M  V30 4998 H 481.043 1.49934 -0.520134 0
M  V30 4999 H 481.064 3.61294 1.19361 0
M  V30 5000 H 480.576 3.83148 -0.617998 0
M  V30 5001 H 478.677 3.27151 1.78334 0
M  V30 5002 H 478.79 4.75114 0.616718 0
M  V30 5003 H 477.154 2.51153 0.423581 0
M  V30 5004 H 477.937 3.26204 -1.06986 0
M  V30 5005 N 480.382 0.0267497 1.57577 0
M  V30 5006 C 481.607 -0.666227 1.96408 0
M  V30 5007 C 482.032 -1.65004 0.903071 0
M  V30 5008 O 481.39 -1.80787 -0.136263 0
M  V30 5009 C 481.438 -1.35101 3.34335 0
M  V30 5010 O 480.542 -2.46623 3.30531 0
M  V30 5011 H 479.883 -0.175206 0.640468 0
M  V30 5012 H 482.413 0.0878977 2.04411 0
M  V30 5013 H 482.423 -1.70834 3.70513 0
M  V30 5014 H 481.098 -0.629844 4.11103 0
M  V30 5015 H 479.675 -2.13019 3.06068 0
M  V30 5016 N 481.861 -1.55662 -0.24637 0
M  V30 5017 C 483.107 -1.77782 -0.975779 0
M  V30 5018 C 483.44 -0.592103 -1.84953 0
M  V30 5019 O 482.715 0.409588 -1.90138 0
M  V30 5020 C 482.998 -3.09788 -1.83584 0
M  V30 5021 C 482.851 -4.38764 -0.990241 0
M  V30 5022 C 484.17 -3.38029 -2.81823 0
M  V30 5023 H 481.289 -0.646789 -0.353317 0
M  V30 5024 H 483.931 -1.88398 -0.246248 0
M  V30 5025 H 482.081 -3.00869 -2.45784 0
M  V30 5026 H 483.753 -4.59675 -0.386897 0
M  V30 5027 H 481.996 -4.32798 -0.294626 0
M  V30 5028 H 482.667 -5.27514 -1.62584 0
M  V30 5029 H 485.143 -3.46915 -2.2976 0
M  V30 5030 H 484.019 -4.3161 -3.39122 0
M  V30 5031 H 484.28 -2.58968 -3.58313 0
M  V30 5032 N 483.339 0.512053 -1.4905 0
M  V30 5033 C 484.269 1.62365 -1.67809 0
M  V30 5034 C 485.25 1.61737 -0.526809 0
M  V30 5035 O 486.435 1.78651 -0.761404 0
M  V30 5036 C 483.565 3.00895 -1.73435 0
M  V30 5037 C 482.519 3.16387 -2.88242 0
M  V30 5038 C 481.845 4.56157 -2.78971 0
M  V30 5039 C 483.145 2.97457 -4.29321 0
M  V30 5040 H 484.839 1.46921 -2.60873 0
M  V30 5041 H 482.385 0.705379 -1.2554 0
M  V30 5042 H 484.338 3.78549 -1.85145 0
M  V30 5043 H 483.062 3.17403 -0.769619 0
M  V30 5044 H 481.721 2.41155 -2.76116 0
M  V30 5045 H 481.369 4.69525 -1.8043 0
M  V30 5046 H 481.069 4.67465 -3.5602 0
M  V30 5047 H 482.593 5.35886 -2.92675 0
M  V30 5048 H 484.007 3.64888 -4.42187 0
M  V30 5049 H 482.404 3.20245 -5.07507 0
M  V30 5050 H 483.474 1.93692 -4.44535 0
M  V30 5051 N 484.817 1.37938 0.762283 0
M  V30 5052 C 485.749 1.30349 1.88525 0
M  V30 5053 C 486.762 0.217402 1.61342 0
M  V30 5054 O 487.951 0.474291 1.72084 0
M  V30 5055 C 485.051 0.994844 3.23969 0
M  V30 5056 C 484.224 2.18829 3.78725 0
M  V30 5057 C 483.283 1.84844 4.92665 0
M  V30 5058 O 482.309 2.57244 5.07754 0
M  V30 5059 N 483.511 0.798201 5.74986 0
M  V30 5060 H 486.276 2.27114 1.95549 0
M  V30 5061 H 483.837 1.31686 0.941825 0
M  V30 5062 H 485.829 0.748168 3.97724 0
M  V30 5063 H 484.399 0.115446 3.12387 0
M  V30 5064 H 483.619 2.59615 2.96637 0
M  V30 5065 H 484.907 2.98497 4.1204 0
M  V30 5066 H 484.305 0.197611 5.65355 0
M  V30 5067 H 482.862 0.611396 6.48926 0
M  V30 5068 N 486.295 -0.989507 1.22664 0
M  V30 5069 C 487.52 -1.77031 1.08051 0
M  V30 5070 C 487.945 -1.84535 -0.364483 0
M  V30 5071 O 487.303 -1.3003 -1.2634 0
M  V30 5072 C 487.351 -3.18 1.70024 0
M  V30 5073 O 486.455 -4.01161 0.956216 0
M  V30 5074 H 485.796 -0.545008 0.379292 0
M  V30 5075 H 488.326 -1.24277 1.62531 0
M  V30 5076 H 488.336 -3.68616 1.74888 0
M  V30 5077 H 487.011 -3.11853 2.75174 0
M  V30 5078 H 485.588 -3.59687 0.98384 0
M  V30 5079 N 487.773 -1.03688 -1.18687 0
M  V30 5080 C 489.019 -0.739123 -1.88851 0
M  V30 5081 C 489.352 0.731042 -1.79915 0
M  V30 5082 O 488.627 1.53313 -1.19688 0
M  V30 5083 C 488.91 -1.20106 -3.3948 0
M  V30 5084 C 488.763 -2.73304 -3.57246 0
M  V30 5085 C 490.082 -0.788134 -4.32986 0
M  V30 5086 H 487.201 -0.269978 -0.68577 0
M  V30 5087 H 489.843 -1.28822 -1.3966 0
M  V30 5088 H 487.993 -0.733915 -3.81505 0
M  V30 5089 H 489.665 -3.28027 -3.24339 0
M  V30 5090 H 487.908 -3.13313 -3.00029 0
M  V30 5091 H 488.579 -3.00684 -4.62918 0
M  V30 5092 H 491.055 -1.19005 -3.98719 0
M  V30 5093 H 489.931 -1.13915 -5.36949 0
M  V30 5094 H 490.192 0.308988 -4.41019 0
M  V30 5095 N 489.251 1.34841 -0.815825 0
M  V30 5096 C 490.214 2.27959 -0.238185 0
M  V30 5097 C 491.214 1.49983 0.579816 0
M  V30 5098 O 492.404 1.69617 0.396953 0
M  V30 5099 C 489.536 3.34314 0.666876 0
M  V30 5100 H 490.729 2.80558 -1.05958 0
M  V30 5101 H 488.282 1.44852 -0.587156 0
M  V30 5102 H 489.017 2.86916 1.5116 0
M  V30 5103 H 488.802 3.92014 0.0819106 0
M  V30 5104 H 490.292 4.0379 1.06506 0
M  V30 5105 N 490.729 0.570148 1.46925 0
M  V30 5106 C 491.662 -0.218362 2.27153 0
M  V30 5107 C 492.64 -0.90847 1.34854 0
M  V30 5108 O 493.824 -0.924875 1.64251 0
M  V30 5109 C 490.951 -1.3122 3.12248 0
M  V30 5110 C 489.997 -0.729277 4.20219 0
M  V30 5111 S 490.83 0.434159 5.33737 0
M  V30 5112 C 491.986 -0.661188 6.22398 0
M  V30 5113 H 492.219 0.462393 2.93682 0
M  V30 5114 H 489.752 0.356753 1.50222 0
M  V30 5115 H 491.71 -1.93856 3.61842 0
M  V30 5116 H 490.371 -1.96485 2.45056 0
M  V30 5117 H 489.564 -1.5511 4.79538 0
M  V30 5118 H 489.166 -0.178836 3.73572 0
M  V30 5119 H 491.458 -1.55006 6.5953 0
M  V30 5120 H 492.401 -0.105046 7.08022 0
M  V30 5121 H 492.809 -0.959682 5.56283 0
M  V30 5122 N 492.207 -1.54576 0.307264 0
M  V30 5123 C 493.157 -2.20467 -0.581249 0
M  V30 5124 C 494.141 -1.17972 -1.09414 0
M  V30 5125 O 495.333 -1.43667 -1.03387 0
M  V30 5126 C 492.462 -2.95369 -1.74963 0
M  V30 5127 C 491.548 -4.05186 -1.25241 0
M  V30 5128 N 491.939 -5.03577 -0.47364 0
M  V30 5129 C 490.237 -4.18841 -1.53259 0
M  V30 5130 C 490.938 -5.81328 -0.208083 0
M  V30 5131 N 489.914 -5.37834 -0.789651 0
M  V30 5132 H 493.716 -2.93892 0.0212221 0
M  V30 5133 H 491.23 -1.62011 0.112325 0
M  V30 5134 H 493.227 -3.41046 -2.39777 0
M  V30 5135 H 491.887 -2.23461 -2.35574 0
M  V30 5136 H 492.898 -5.17766 -0.117963 0
M  V30 5137 H 489.575 -3.58141 -2.14573 0
M  V30 5138 H 490.965 -6.706 0.417793 0
M  V30 5139 N 493.685 -0.035106 -1.57561 0
M  V30 5140 C 494.931 0.64318 -1.92331 0
M  V30 5141 C 495.264 1.71434 -0.912368 0
M  V30 5142 O 494.539 1.94395 0.0640303 0
M  V30 5143 C 494.822 1.25411 -3.37556 0
M  V30 5144 C 494.675 0.192109 -4.4939 0
M  V30 5145 C 495.994 2.17041 -3.82859 0
M  V30 5146 H 493.113 0.232341 -0.699419 0
M  V30 5147 H 495.755 -0.0935889 -1.89769 0
M  V30 5148 H 493.905 1.88205 -3.39869 0
M  V30 5149 H 495.577 -0.438849 -4.59208 0
M  V30 5150 H 493.82 -0.481725 -4.31117 0
M  V30 5151 H 494.491 0.659292 -5.48049 0
M  V30 5152 H 496.967 1.64228 -3.8232 0
M  V30 5153 H 495.843 2.56738 -4.85157 0
M  V30 5154 H 496.104 3.06401 -3.18702 0
M  V30 5155 N 495.163 1.55791 0.238111 0
M  V30 5156 C 496.126 1.90239 1.27835 0
M  V30 5157 C 497.126 0.779552 1.4064 0
M  V30 5158 O 498.316 1.04747 1.3919 0
M  V30 5159 C 495.448 2.13859 2.65475 0
M  V30 5160 H 496.641 2.83262 0.985034 0
M  V30 5161 H 494.194 1.48818 0.477799 0
M  V30 5162 H 494.929 1.23334 2.99932 0
M  V30 5163 H 494.714 2.95643 2.57561 0
M  V30 5164 H 496.204 2.41664 3.40571 0
M  V30 5165 N 496.642 -0.504142 1.49319 0
M  V30 5166 C 497.572 -1.61473 1.68667 0
M  V30 5167 C 498.553 -1.61455 0.535378 0
M  V30 5168 O 499.738 -1.78245 0.770868 0
M  V30 5169 C 496.868 -2.99971 1.75028 0
M  V30 5170 C 495.822 -3.14854 2.89916 0
M  V30 5171 C 495.148 -4.54671 2.81387 0
M  V30 5172 C 496.448 -2.95176 4.30893 0
M  V30 5173 H 498.142 -1.45535 2.61648 0
M  V30 5174 H 495.688 -0.698711 1.25913 0
M  V30 5175 H 497.641 -3.77562 1.8715 0
M  V30 5176 H 496.365 -3.1699 0.786441 0
M  V30 5177 H 495.024 -2.39687 2.77391 0
M  V30 5178 H 494.672 -4.68562 1.82917 0
M  V30 5179 H 494.372 -4.6557 3.58494 0
M  V30 5180 H 495.896 -5.34327 2.95512 0
M  V30 5181 H 497.31 -3.62538 4.44116 0
M  V30 5182 H 495.707 -3.17549 5.09198 0
M  V30 5183 H 496.777 -1.91332 4.45556 0
M  V30 5184 N 498.12 -1.38341 -0.754957 0
M  V30 5185 C 499.083 -1.35262 -1.85032 0
M  V30 5186 C 500.083 -0.253393 -1.58791 0
M  V30 5187 O 501.273 -0.510205 -1.66561 0
M  V30 5188 C 498.405 -1.10544 -3.22479 0
M  V30 5189 H 499.598 -2.32712 -1.8917 0
M  V30 5190 H 497.151 -1.23614 -0.956515 0
M  V30 5191 H 497.886 -0.136952 -3.24011 0
M  V30 5192 H 497.671 -1.90127 -3.4292 0
M  V30 5193 H 499.161 -1.11082 -4.02555 0
M  V30 5194 N 499.598 0.982988 -1.23187 0
M  V30 5195 C 500.844 1.7273 -1.07405 0
M  V30 5196 C 501.199 1.885 0.385447 0
M  V30 5197 O 500.492 1.4243 1.28157 0
M  V30 5198 C 500.686 3.12736 -1.73006 0
M  V30 5199 C 500.515 3.10621 -3.25184 0
M  V30 5200 C 499.285 3.15957 -3.94334 0
M  V30 5201 C 501.483 2.93992 -4.21987 0
M  V30 5202 N 499.465 3.03701 -5.33516 0
M  V30 5203 C 500.836 2.8987 -5.48065 0
M  V30 5204 C 502.891 2.78457 -4.12754 0
M  V30 5205 C 501.594 2.71804 -6.65969 0
M  V30 5206 C 503.62 2.61754 -5.30319 0
M  V30 5207 C 502.982 2.58328 -6.55321 0
M  V30 5208 H 499.081 0.641279 -0.447533 0
M  V30 5209 H 501.665 1.16664 -1.55877 0
M  V30 5210 H 499.836 3.67026 -1.2707 0
M  V30 5211 H 501.568 3.75786 -1.50224 0
M  V30 5212 H 498.323 3.24034 -3.45397 0
M  V30 5213 H 498.747 3.00855 -6.06478 0
M  V30 5214 H 503.389 2.79898 -3.16886 0
M  V30 5215 H 501.107 2.69108 -7.61975 0
M  V30 5216 H 504.693 2.50702 -5.25014 0
M  V30 5217 H 503.573 2.45564 -7.4476 0
M  V30 5218 N 501.076 1.04316 1.18135 0
M  V30 5219 C 502.353 0.662166 1.84051 0
M  V30 5220 C 502.733 -0.858169 1.9287 0
M  V30 5221 O 502.081 -1.76062 1.45652 0
M  V30 5222 C 502.291 1.3409 3.22212 0
M  V30 5223 C 503.639 1.4733 3.9822 0
M  V30 5224 O 504.663 1.29921 3.31661 0
M  V30 5225 O 503.522 1.75722 5.17479 0
M  V30 5226 H 500.616 0.232005 0.79379 0
M  V30 5227 H 503.162 1.1422 1.25506 0
M  V30 5228 H 501.934 2.37853 3.10711 0
M  V30 5229 H 501.557 0.849649 3.88416 0
M  V30 5230 N 502.554 -1.34406 0.822964 0
M  V30 5231 C 503.801 -1.98284 0.411057 0
M  V30 5232 C 504.129 -1.65245 -1.02588 0
M  V30 5233 O 503.384 -0.91619 -1.72929 0
M  V30 5234 C 503.683 -3.52981 0.560268 0
M  V30 5235 C 503.349 -4.05931 1.96293 0
M  V30 5236 C 502.011 -4.20103 2.34664 0
M  V30 5237 C 504.363 -4.34412 2.87985 0
M  V30 5238 C 501.691 -4.60082 3.64062 0
M  V30 5239 C 504.043 -4.75838 4.16847 0
M  V30 5240 C 502.707 -4.88215 4.55195 0
M  V30 5241 H 501.977 -0.725573 0.150416 0
M  V30 5242 H 504.624 -1.60349 1.04692 0
M  V30 5243 H 502.929 -3.91477 -0.158982 0
M  V30 5244 H 504.626 -4.00385 0.222087 0
M  V30 5245 H 501.216 -3.95363 1.65487 0
M  V30 5246 H 505.4 -4.23001 2.59584 0
M  V30 5247 H 500.656 -4.67856 3.93599 0
M  V30 5248 H 504.83 -4.96834 4.87984 0
M  V30 5249 H 502.457 -5.18952 5.55512 0
M  V30 5250 N 504.032 -0.577932 -1.46621 0
M  V30 5251 C 505.279 -0.0616879 -2.02406 0
M  V30 5252 C 505.607 1.29638 -1.44997 0
M  V30 5253 O 504.862 1.86176 -0.60308 0
M  V30 5254 C 505.161 0.0590832 -3.57351 0
M  V30 5255 C 504.827 -1.23077 -4.33777 0
M  V30 5256 C 503.489 -1.58416 -4.54376 0
M  V30 5257 C 505.841 -2.08457 -4.77698 0
M  V30 5258 C 503.169 -2.78943 -5.16147 0
M  V30 5259 C 505.521 -3.28204 -5.408 0
M  V30 5260 C 504.185 -3.63832 -5.59627 0
M  V30 5261 H 503.455 -0.0225732 -0.740656 0
M  V30 5262 H 506.102 -0.753609 -1.76048 0
M  V30 5263 H 504.407 0.834104 -3.82818 0
M  V30 5264 H 506.104 0.474202 -3.98186 0
M  V30 5265 H 502.694 -0.945652 -4.18038 0
M  V30 5266 H 506.878 -1.82459 -4.61544 0
M  V30 5267 H 502.134 -3.06689 -5.28916 0
M  V30 5268 H 506.308 -3.94634 -5.73792 0
M  V30 5269 H 503.935 -4.57315 -6.07262 0
M  V30 5270 N 505.51 1.54411 -0.315457 0
M  V30 5271 C 506.473 2.22713 0.54142 0
M  V30 5272 C 507.473 1.2179 1.04995 0
M  V30 5273 O 508.663 1.46426 0.943667 0
M  V30 5274 C 505.795 2.92485 1.75116 0
M  V30 5275 H 506.988 2.99849 -0.0555508 0
M  V30 5276 H 504.541 1.56159 -0.0664453 0
M  V30 5277 H 505.276 2.19466 2.38758 0
M  V30 5278 H 505.061 3.66483 1.39401 0
M  V30 5279 H 506.551 3.44548 2.35959 0
M  V30 5280 N 506.988 0.0434614 1.5754 0
M  V30 5281 C 508.213 -0.645358 1.97104 0
M  V30 5282 C 508.638 -1.64037 0.920521 0
M  V30 5283 O 507.996 -1.80922 -0.11708 0
M  V30 5284 C 508.044 -1.31547 3.35749 0
M  V30 5285 O 507.148 -2.43103 3.33129 0
M  V30 5286 H 506.489 -0.168403 0.64229 0
M  V30 5287 H 509.019 0.109573 2.04306 0
M  V30 5288 H 509.029 -1.66895 3.72304 0
M  V30 5289 H 507.704 -0.586205 4.11748 0
M  V30 5290 H 506.281 -2.0976 3.0831 0
M  V30 5291 N 508.466 -1.55915 -0.229846 0
M  V30 5292 C 509.398 -1.88209 -1.30805 0
M  V30 5293 C 510.411 -0.769672 -1.43457 0
M  V30 5294 O 511.6 -1.04792 -1.44502 0
M  V30 5295 C 508.7 -2.06829 -2.68468 0
M  V30 5296 C 507.873 -3.37798 -2.77869 0
M  V30 5297 C 506.932 -3.45952 -3.96489 0
M  V30 5298 O 505.958 -4.19043 -3.85216 0
M  V30 5299 N 507.16 -2.76488 -5.10426 0
M  V30 5300 H 509.925 -2.81286 -1.03431 0
M  V30 5301 H 507.486 -1.5636 -0.41991 0
M  V30 5302 H 509.478 -2.09608 -3.46189 0
M  V30 5303 H 508.048 -1.20416 -2.88477 0
M  V30 5304 H 507.268 -3.4719 -1.86689 0
M  V30 5305 H 508.556 -4.24091 -2.81113 0
M  V30 5306 H 507.954 -2.16868 -5.2248 0
M  V30 5307 H 506.511 -2.84938 -5.8622 0
M  V30 5308 N 509.944 0.496216 -1.49584 0
M  V30 5309 C 510.854 1.62352 -1.69349 0
M  V30 5310 C 511.87 1.64184 -0.576147 0
M  V30 5311 O 513.046 1.82517 -0.85144 0
M  V30 5312 C 510.111 2.98698 -1.76013 0
M  V30 5313 C 509.172 3.07454 -2.99617 0
M  V30 5314 C 508.405 4.37296 -3.05953 0
M  V30 5315 O 508.628 5.2637 -2.19752 0
M  V30 5316 O 507.562 4.51124 -3.9846 0
M  V30 5317 H 511.388 1.48606 -2.64859 0
M  V30 5318 H 508.973 0.673022 -1.33382 0
M  V30 5319 H 510.855 3.79725 -1.82721 0
M  V30 5320 H 509.53 3.12696 -0.836828 0
M  V30 5321 H 508.437 2.25597 -2.98424 0
M  V30 5322 H 509.77 2.98385 -3.91443 0
M  V30 5323 N 511.423 1.38739 0.74761 0
M  V30 5324 C 512.333 1.38696 1.89211 0
M  V30 5325 C 513.349 0.283303 1.71678 0
M  V30 5326 O 514.525 0.522713 1.94498 0
M  V30 5327 C 511.59 1.21662 3.24653 0
M  V30 5328 C 510.651 2.41886 3.54669 0
M  V30 5329 C 509.884 2.25655 4.83648 0
M  V30 5330 O 510.107 1.25339 5.56459 0
M  V30 5331 O 509.041 3.14372 5.13277 0
M  V30 5332 H 512.867 2.35143 1.92202 0
M  V30 5333 H 510.452 1.19721 0.893708 0
M  V30 5334 H 512.334 1.14246 4.05618 0
M  V30 5335 H 511.009 0.283024 3.2246 0
M  V30 5336 H 509.916 2.54877 2.73841 0
M  V30 5337 H 511.249 3.33895 3.61628 0
M  V30 5338 N 512.901 -0.976442 1.23707 0
M  V30 5339 C 513.864 -2.0511 1.02287 0
M  V30 5340 C 514.864 -1.60791 -0.0167195 0
M  V30 5341 O 516.054 -1.72761 0.223408 0
M  V30 5342 C 513.186 -3.36458 0.548507 0
M  V30 5343 H 514.379 -2.25545 1.9766 0
M  V30 5344 H 511.932 -1.15042 1.05806 0
M  V30 5345 H 512.667 -3.21713 -0.408818 0
M  V30 5346 H 512.452 -3.69967 1.29874 0
M  V30 5347 H 513.942 -4.15489 0.419406 0
M  V30 5348 N 514.379 -1.04941 -1.1758 0
M  V30 5349 C 515.311 -0.606174 -2.21039 0
M  V30 5350 C 516.324 0.328763 -1.59446 0
M  V30 5351 O 517.513 0.121895 -1.78083 0
M  V30 5352 C 514.613 0.133294 -3.38638 0
M  V30 5353 C 513.786 -0.811711 -4.29802 0
M  V30 5354 C 512.845 -0.113958 -5.26077 0
M  V30 5355 O 511.871 -0.747237 -5.64274 0
M  V30 5356 N 513.073 1.14953 -5.69004 0
M  V30 5357 H 515.838 -1.49606 -2.59689 0
M  V30 5358 H 513.399 -0.930997 -1.32454 0
M  V30 5359 H 515.391 0.610144 -4.00074 0
M  V30 5360 H 513.961 0.924816 -2.98607 0
M  V30 5361 H 513.181 -1.46824 -3.65837 0
M  V30 5362 H 514.469 -1.45326 -4.87604 0
M  V30 5363 H 513.867 1.68441 -5.40041 0
M  V30 5364 H 512.424 1.57049 -6.32597 0
M  V30 5365 N 515.857 1.33968 -0.830081 0
M  V30 5366 C 516.804 2.29387 -0.255008 0
M  V30 5367 C 517.774 1.53923 0.624243 0
M  V30 5368 O 518.959 1.82262 0.564372 0
M  V30 5369 C 516.099 3.4034 0.571209 0
M  V30 5370 C 515.212 4.30729 -0.331083 0
M  V30 5371 C 514.347 5.2879 0.505389 0
M  V30 5372 C 513.386 6.10819 -0.395843 0
M  V30 5373 N 512.523 7.00948 0.401979 0
M  V30 5374 H 517.363 2.77972 -1.07404 0
M  V30 5375 H 514.9 1.36785 -0.541133 0
M  V30 5376 H 516.858 4.03361 1.06562 0
M  V30 5377 H 515.488 2.9297 1.35529 0
M  V30 5378 H 514.54 3.68507 -0.943759 0
M  V30 5379 H 515.852 4.88181 -1.02377 0
M  V30 5380 H 515.006 5.97297 1.06399 0
M  V30 5381 H 513.745 4.71894 1.23155 0
M  V30 5382 H 512.75 5.41238 -0.966529 0
M  V30 5383 H 513.975 6.69797 -1.12023 0
M  V30 5384 H 511.921 6.46512 1.11168 0
M  V30 5385 H 511.838 7.55643 -0.232167 0
M  V30 5386 H 513.106 7.73774 0.943102 0
M  V30 5387 N 517.335 0.585699 1.46312 0
M  V30 5388 C 518.581 0.0808731 2.03239 0
M  V30 5389 C 518.936 -1.26609 1.44872 0
M  V30 5390 O 518.229 -1.81779 0.60556 0
M  V30 5391 C 518.423 -0.0401312 3.57377 0
M  V30 5392 C 518.252 1.29356 4.30694 0
M  V30 5393 C 517.022 1.86849 4.69484 0
M  V30 5394 C 519.22 2.21742 4.64042 0
M  V30 5395 N 517.202 3.13926 5.27564 0
M  V30 5396 C 518.573 3.33408 5.22723 0
M  V30 5397 C 520.628 2.21386 4.45974 0
M  V30 5398 C 519.331 4.44852 5.65242 0
M  V30 5399 C 521.357 3.31862 4.89511 0
M  V30 5400 C 520.719 4.42248 5.48266 0
M  V30 5401 H 516.818 0.072443 0.778637 0
M  V30 5402 H 519.402 0.779254 1.78426 0
M  V30 5403 H 517.573 -0.707686 3.81898 0
M  V30 5404 H 519.305 -0.549615 4.00951 0
M  V30 5405 H 516.06 1.40307 4.52339 0
M  V30 5406 H 516.484 3.78775 5.61122 0
M  V30 5407 H 521.126 1.37314 3.99881 0
M  V30 5408 H 518.844 5.29665 6.10312 0
M  V30 5409 H 522.43 3.32708 4.7728 0
M  V30 5410 H 521.31 5.26323 5.81338 0
M  V30 5411 N 518.813 -1.54241 0.323641 0
M  V30 5412 C 519.776 -2.22997 -0.529602 0
M  V30 5413 C 520.776 -1.22345 -1.04347 0
M  V30 5414 O 521.966 -1.46924 -0.935889 0
M  V30 5415 C 519.098 -2.93409 -1.73562 0
M  V30 5416 H 520.291 -2.99815 0.0714518 0
M  V30 5417 H 517.844 -1.56121 0.0747258 0
M  V30 5418 H 518.579 -2.20729 -2.37591 0
M  V30 5419 H 518.364 -3.67217 -1.37456 0
M  V30 5420 H 519.854 -3.45794 -2.34128 0
M  V30 5421 N 520.291 -0.0518155 -1.57515 0
M  V30 5422 C 521.538 0.621823 -1.92716 0
M  V30 5423 C 521.866 1.70813 -0.930229 0
M  V30 5424 O 521.121 1.95616 0.0573708 0
M  V30 5425 C 521.42 1.25607 -3.34601 0
M  V30 5426 C 521.086 0.297901 -4.49915 0
M  V30 5427 C 519.748 0.034243 -4.81188 0
M  V30 5428 C 522.1 -0.358738 -5.19964 0
M  V30 5429 C 519.428 -0.893479 -5.79857 0
M  V30 5430 C 521.78 -1.27466 -6.19625 0
M  V30 5431 C 520.444 -1.54698 -6.49326 0
M  V30 5432 H 519.714 0.227541 -0.705199 0
M  V30 5433 H 522.361 -0.118432 -1.91133 0
M  V30 5434 H 520.666 2.07161 -3.32553 0
M  V30 5435 H 522.363 1.78424 -3.59118 0
M  V30 5436 H 518.953 0.513581 -4.25512 0
M  V30 5437 H 523.137 -0.168133 -4.96015 0
M  V30 5438 H 518.393 -1.11193 -6.01204 0
M  V30 5439 H 522.567 -1.78953 -6.73015 0
M  V30 5440 H 520.194 -2.26748 -7.25596 0
M  V30 5441 N 521.769 1.56035 0.221574 0
M  V30 5442 C 522.699 1.95434 1.2778 0
M  V30 5443 C 523.68 0.822564 1.48889 0
M  V30 5444 O 524.865 1.08486 1.61072 0
M  V30 5445 C 521.995 2.27102 2.62759 0
M  V30 5446 C 520.949 3.4277 2.56306 0
M  V30 5447 C 520.275 3.60043 3.95314 0
M  V30 5448 C 521.575 4.77742 2.11093 0
M  V30 5449 H 523.269 2.83912 0.950504 0
M  V30 5450 H 520.815 1.36596 0.455791 0
M  V30 5451 H 522.768 2.53256 3.36807 0
M  V30 5452 H 521.492 1.35478 2.97176 0
M  V30 5453 H 520.151 3.16664 1.84715 0
M  V30 5454 H 519.799 2.65794 4.27039 0
M  V30 5455 H 519.499 4.37841 3.91879 0
M  V30 5456 H 521.023 3.88545 4.71025 0
M  V30 5457 H 522.437 5.03102 2.74885 0
M  V30 5458 H 520.834 5.58823 2.18716 0
M  V30 5459 H 521.904 4.731 1.06321 0
M  V30 5460 N 523.247 -0.488276 1.49845 0
M  V30 5461 C 524.493 -1.24341 1.6021 0
M  V30 5462 C 524.826 -1.91967 0.293651 0
M  V30 5463 O 524.101 -1.81323 -0.703718 0
M  V30 5464 C 524.384 -2.3005 2.77036 0
M  V30 5465 C 524.237 -1.66842 4.17713 0
M  V30 5466 C 525.556 -3.31509 2.89464 0
M  V30 5467 H 522.675 -0.450704 0.583125 0
M  V30 5468 H 525.317 -0.539673 1.82174 0
M  V30 5469 H 523.467 -2.90071 2.58439 0
M  V30 5470 H 525.139 -1.1055 4.47858 0
M  V30 5471 H 523.382 -0.972079 4.22768 0
M  V30 5472 H 524.053 -2.43576 4.95353 0
M  V30 5473 H 526.529 -2.81493 3.06433 0
M  V30 5474 H 525.405 -4.02822 3.72861 0
M  V30 5475 H 525.666 -3.94603 1.99351 0
M  V30 5476 N 524.725 -1.39134 -0.740242 0
M  V30 5477 C 525.688 -1.37217 -1.83587 0
M  V30 5478 C 526.688 -0.270221 -1.58513 0
M  V30 5479 O 527.878 -0.527843 -1.6601 0
M  V30 5480 C 525.01 -1.13959 -3.21288 0
M  V30 5481 H 526.203 -2.34705 -1.86691 0
M  V30 5482 H 523.756 -1.24622 -0.94335 0
M  V30 5483 H 524.491 -0.17131 -3.23847 0
M  V30 5484 H 524.276 -1.93754 -3.40884 0
M  V30 5485 H 525.766 -1.15346 -4.01354 0
M  V30 5486 N 526.204 0.969867 -1.24223 0
M  V30 5487 C 527.167 2.04564 -1.03373 0
M  V30 5488 C 528.167 1.60798 0.00819206 0
M  V30 5489 O 529.357 1.72641 -0.232567 0
M  V30 5490 C 526.489 3.36163 -0.566343 0
M  V30 5491 H 527.682 2.24494 -1.98853 0
M  V30 5492 H 525.235 1.1448 -1.06415 0
M  V30 5493 H 525.97 3.21925 0.391751 0
M  V30 5494 H 525.755 3.69273 -1.31834 0
M  V30 5495 H 527.245 4.1526 -0.441435 0
M  V30 5496 N 527.682 1.05563 1.17022 0
M  V30 5497 C 528.928 0.769074 1.87652 0
M  V30 5498 C 529.261 -0.702326 1.81055 0
M  V30 5499 O 528.536 -1.5139 1.22112 0
M  V30 5500 C 528.819 1.25492 3.37526 0
M  V30 5501 C 528.672 2.78953 3.52853 0
M  V30 5502 C 529.991 0.856919 4.31677 0
M  V30 5503 H 527.11 0.280854 0.681388 0
M  V30 5504 H 529.752 1.31027 1.37593 0
M  V30 5505 H 527.902 0.794516 3.80289 0
M  V30 5506 H 529.574 3.33146 3.19079 0
M  V30 5507 H 527.817 3.18046 2.95007 0
M  V30 5508 H 528.488 3.08011 4.58076 0
M  V30 5509 H 530.964 1.25334 3.96775 0
M  V30 5510 H 529.84 1.22443 5.35069 0
M  V30 5511 H 530.101 -0.238787 4.41455 0
M  V30 5512 N 529.16 -1.33526 0.837174 0
M  V30 5513 C 530.07 -2.33023 0.271568 0
M  V30 5514 C 531.086 -1.63272 -0.601514 0
M  V30 5515 O 532.262 -1.94939 -0.506038 0
M  V30 5516 C 529.327 -3.42382 -0.545448 0
M  V30 5517 C 528.388 -4.27857 0.351709 0
M  V30 5518 C 527.621 -5.31994 -0.426409 0
M  V30 5519 O 527.844 -5.45763 -1.65828 0
M  V30 5520 O 526.778 -6.01572 0.1987 0
M  V30 5521 H 530.604 -2.83256 1.09545 0
M  V30 5522 H 528.189 -1.36837 0.599655 0
M  V30 5523 H 530.071 -4.09122 -1.00979 0
M  V30 5524 H 528.746 -2.94369 -1.34641 0
M  V30 5525 H 527.653 -3.6399 0.863853 0
M  V30 5526 H 528.986 -4.79349 1.1174 0
M  V30 5527 N 530.638 -0.59345 -1.46 0
M  V30 5528 C 531.586 0.146268 -2.3214 0
M  V30 5529 C 532.58 0.873743 -1.45128 0
M  V30 5530 O 533.786 0.790912 -1.61693 0
M  V30 5531 H 530.161 0.0660349 -0.749095 0
M  V30 5532 H 532.132 -0.598895 -2.92328 0
M  V30 5533 C 530.881 1.1396 -3.28494 0
M  V30 5534 H 530.204 0.589252 -3.95434 0
M  V30 5535 H 531.644 1.62738 -3.91526 0
M  V30 5536 C 530.103 2.20604 -2.54628 0
M  V30 5537 O 530.633 3.28128 -2.31722 0
M  V30 5538 N 528.839 1.95502 -2.15005 0
M  V30 5539 H 528.386 1.0807 -2.33834 0
M  V30 5540 H 528.344 2.67064 -1.65904 0
M  V30 5541 N 532.116 1.54067 -0.331816 0
M  V30 5542 C 533.064 2.26105 0.54582 0
M  V30 5543 C 534.058 1.27816 1.11173 0
M  V30 5544 O 535.264 1.45565 1.05882 0
M  V30 5545 H 531.639 0.726363 0.194683 0
M  V30 5546 H 533.61 2.98282 -0.083931 0
M  V30 5547 C 532.359 3.03814 1.69092 0
M  V30 5548 H 531.682 3.79269 1.26473 0
M  V30 5549 H 533.122 3.57453 2.28043 0
M  V30 5550 C 531.581 2.12606 2.61343 0
M  V30 5551 O 532.111 1.71437 3.6328 0
M  V30 5552 N 530.317 1.77925 2.29763 0
M  V30 5553 H 529.864 2.11602 1.46909 0
M  V30 5554 H 529.822 1.1718 2.91747 0
M  V30 5555 N 533.594 0.0601682 1.57485 0
M  V30 5556 C 534.824 -0.620037 1.97076 0
M  V30 5557 C 535.232 -1.64381 0.936784 0
M  V30 5558 O 534.575 -1.83497 -0.0863377 0
M  V30 5559 C 534.637 -1.35617 3.32939 0
M  V30 5560 C 534.301 -0.487208 4.54396 0
M  V30 5561 C 535.298 0.250428 5.19297 0
M  V30 5562 C 532.983 -0.415494 5.00579 0
M  V30 5563 C 534.977 1.04812 6.28723 0
M  V30 5564 C 532.664 0.385879 6.0988 0
M  V30 5565 C 533.662 1.11637 6.73815 0
M  V30 5566 O 533.35 1.90454 7.81014 0
M  V30 5567 H 533.082 -0.173664 0.653312 0
M  V30 5568 H 535.636 0.1256 2.05016 0
M  V30 5569 H 533.866 -2.14763 3.2158 0
M  V30 5570 H 535.555 -1.92749 3.57215 0
M  V30 5571 H 536.321 0.204546 4.84568 0
M  V30 5572 H 532.2 -0.973679 4.506 0
M  V30 5573 H 535.744 1.6188 6.78558 0
M  V30 5574 H 531.641 0.433366 6.44044 0
M  V30 5575 H 532.409 1.82762 7.97835 0
M  V30 5576 N 535.072 -1.5615 -0.213296 0
M  V30 5577 C 536.488 -1.49327 -0.56336 0
M  V30 5578 C 536.688 -0.756826 -1.86747 0
M  V30 5579 O 535.744 -0.299866 -2.50713 0
M  V30 5580 C 537.057 -2.9392 -0.634944 0
M  V30 5581 C 538.605 -3.04487 -0.725013 0
M  V30 5582 C 539.08 -4.50456 -0.82787 0
M  V30 5583 N 540.571 -4.54533 -0.891876 0
M  V30 5584 C 541.306 -5.64766 -0.991315 0
M  V30 5585 N 540.802 -6.84733 -1.05419 0
M  V30 5586 N 542.595 -5.52637 -1.02709 0
M  V30 5587 H 534.746 -2.02453 0.642366 0
M  V30 5588 H 537.009 -0.920548 0.226487 0
M  V30 5589 H 536.715 -3.50783 0.253859 0
M  V30 5590 H 536.589 -3.46274 -1.49579 0
M  V30 5591 H 538.976 -2.47685 -1.60425 0
M  V30 5592 H 539.057 -2.55289 0.161669 0
M  V30 5593 H 538.701 -5.07878 0.0469464 0
M  V30 5594 H 538.631 -4.97369 -1.73009 0
M  V30 5595 H 541.122 -3.68141 -0.85327 0
M  V30 5596 H 541.435 -7.64493 -1.13007 0
M  V30 5597 H 539.78 -6.87427 -1.02318 0
M  V30 5598 H 542.971 -4.5784 -0.974687 0
M  V30 5599 H 543.144 -6.38576 -1.10113 0
M  V30 5600 N 536.55 0.480323 -1.50102 0
M  V30 5601 C 537.961 1.06142 -1.53593 0
M  V30 5602 C 538.312 1.93335 -0.334055 0
M  V30 5603 O 537.437 2.09188 0.55403 0
M  V30 5604 C 538.032 1.9317 -2.78336 0
M  V30 5605 C 536.591 2.46405 -2.84538 0
M  V30 5606 C 535.738 1.24521 -2.4777 0
M  V30 5607 H 538.689 0.26333 -1.565 0
M  V30 5608 H 538.71 2.78123 -2.59669 0
M  V30 5609 H 538.222 1.29683 -3.65792 0
M  V30 5610 H 536.323 3.13472 -2.01411 0
M  V30 5611 H 536.436 2.82143 -3.87211 0
M  V30 5612 H 534.8 1.57706 -2.00003 0
M  V30 5613 H 535.583 0.627102 -3.37524 0
M  V30 5614 N 538.028 1.39524 0.732853 0
M  V30 5615 C 538.976 1.38563 1.86824 0
M  V30 5616 C 539.97 0.268467 1.67259 0
M  V30 5617 O 541.176 0.438613 1.74574 0
M  V30 5618 H 537.551 0.432737 0.615014 0
M  V30 5619 H 539.522 2.34328 1.84751 0
M  V30 5620 C 538.271 1.2481 3.24527 0
M  V30 5621 H 537.594 2.10044 3.40179 0
M  V30 5622 H 539.034 1.28194 4.04156 0
M  V30 5623 C 537.493 -0.0432825 3.36872 0
M  V30 5624 O 538.023 -1.01268 3.88726 0
M  V30 5625 N 536.229 -0.107055 2.90403 0
M  V30 5626 H 535.776 0.682512 2.48394 0
M  V30 5627 H 535.734 -0.970618 2.99042 0
M  V30 5628 N 539.506 -0.963266 1.24736 0
M  V30 5629 C 540.917 -1.52145 1.08207 0
M  V30 5630 C 541.268 -1.93142 -0.345061 0
M  V30 5631 O 540.393 -1.77769 -1.23399 0
M  V30 5632 C 540.988 -2.76486 1.95808 0
M  V30 5633 C 539.547 -3.28646 1.8349 0
M  V30 5634 C 538.694 -2.01529 1.90476 0
M  V30 5635 H 541.645 -0.781083 1.38148 0
M  V30 5636 H 541.666 -3.49986 1.49297 0
M  V30 5637 H 541.178 -2.46617 2.99669 0
M  V30 5638 H 539.279 -3.63357 0.824787 0
M  V30 5639 H 539.392 -3.97246 2.67829 0
M  V30 5640 H 537.756 -2.16442 1.34258 0
M  V30 5641 H 538.539 -1.7402 2.95926 0
M  V30 5642 N 540.985 -1.06182 -1.16461 0
M  V30 5643 C 542.215 -0.797425 -1.9059 0
M  V30 5644 C 542.623 0.651845 -1.77616 0
M  V30 5645 O 541.966 1.45788 -1.11766 0
M  V30 5646 C 542.028 -1.11128 -3.41893 0
M  V30 5647 C 541.692 -2.55874 -3.78652 0
M  V30 5648 C 542.689 -3.54104 -3.80665 0
M  V30 5649 C 540.374 -2.91144 -4.09317 0
M  V30 5650 C 542.368 -4.85645 -4.12829 0
M  V30 5651 C 540.055 -4.22885 -4.41148 0
M  V30 5652 C 541.053 -5.19945 -4.42883 0
M  V30 5653 O 540.741 -6.49322 -4.73959 0
M  V30 5654 H 540.473 -0.288709 -0.611247 0
M  V30 5655 H 543.027 -1.41841 -1.4856 0
M  V30 5656 H 541.257 -0.433217 -3.84266 0
M  V30 5657 H 542.946 -0.831306 -3.97296 0
M  V30 5658 H 543.712 -3.28197 -3.57088 0
M  V30 5659 H 539.591 -2.16252 -4.07131 0
M  V30 5660 H 543.135 -5.61398 -4.14099 0
M  V30 5661 H 539.032 -4.48551 -4.6419 0
M  V30 5662 H 539.8 -6.54294 -4.91774 0
M  V30 5663 N 542.463 1.3308 -0.844243 0
M  V30 5664 C 543.413 2.26589 -0.253289 0
M  V30 5665 C 544.397 1.49501 0.594836 0
M  V30 5666 O 545.589 1.71291 0.445924 0
M  V30 5667 C 542.718 3.38599 0.566176 0
M  V30 5668 C 541.804 4.23081 -0.293756 0
M  V30 5669 N 542.195 4.86751 -1.37505 0
M  V30 5670 C 540.493 4.45925 -0.0817086 0
M  V30 5671 C 541.194 5.49684 -1.90323 0
M  V30 5672 N 540.17 5.30101 -1.20391 0
M  V30 5673 H 543.972 2.73334 -1.08009 0
M  V30 5674 H 541.486 1.47048 -0.689258 0
M  V30 5675 H 543.483 4.04584 1.00587 0
M  V30 5676 H 542.143 2.93401 1.39089 0
M  V30 5677 H 543.154 4.87151 -1.75796 0
M  V30 5678 H 539.831 4.11434 0.709129 0
M  V30 5679 H 541.221 6.10363 -2.80902 0
M  V30 5680 N 543.941 0.601185 1.45683 0
M  V30 5681 C 544.889 -0.133955 2.32214 0
M  V30 5682 C 545.883 -0.866034 1.45589 0
M  V30 5683 O 547.089 -0.782326 1.6211 0
M  V30 5684 H 543.464 -0.0620613 0.749435 0
M  V30 5685 H 545.435 0.614389 2.92007 0
M  V30 5686 C 544.184 -1.12216 3.29094 0
M  V30 5687 H 543.507 -0.568273 3.95741 0
M  V30 5688 H 544.947 -1.60659 3.92383 0
M  V30 5689 C 543.406 -2.19251 2.55794 0
M  V30 5690 O 543.936 -3.26894 2.33459 0
M  V30 5691 N 542.142 -1.9436 2.16039 0
M  V30 5692 H 541.689 -1.06829 2.34404 0
M  V30 5693 H 541.647 -2.66181 1.67318 0
M  V30 5694 N 545.419 -1.53889 0.339982 0
M  V30 5695 C 546.382 -2.23547 -0.50592 0
M  V30 5696 C 547.382 -1.23445 -1.03044 0
M  V30 5697 O 548.572 -1.47909 -0.920253 0
M  V30 5698 C 545.704 -2.95234 -1.7044 0
M  V30 5699 H 546.897 -2.99722 0.103247 0
M  V30 5700 H 544.45 -1.56033 0.0912804 0
M  V30 5701 H 545.185 -2.23236 -2.35236 0
M  V30 5702 H 544.97 -3.68654 -1.33553 0
M  V30 5703 H 546.46 -3.48258 -2.30447 0
M  V30 5704 N 546.897 -0.0685191 -1.57451 0
M  V30 5705 C 548.146 0.600898 -1.92541 0
M  V30 5706 C 548.459 1.70967 -0.950239 0
M  V30 5707 O 549.665 2.43844 -1.19384 0
M  V30 5708 C 548.121 1.12019 -3.42023 0
M  V30 5709 C 547.729 0.0426028 -4.4798 0
M  V30 5710 C 549.473 1.76386 -3.86119 0
M  V30 5711 C 547.38 0.575759 -5.88591 0
M  V30 5712 H 546.31 0.228225 -0.71863 0
M  V30 5713 H 548.961 -0.140223 -1.82963 0
M  V30 5714 H 547.343 1.91418 -3.46663 0
M  V30 5715 H 548.517 -0.73182 -4.54952 0
M  V30 5716 H 546.832 -0.504642 -4.13331 0
M  V30 5717 H 549.429 2.17302 -4.88553 0
M  V30 5718 H 549.772 2.62255 -3.23308 0
M  V30 5719 H 550.305 1.03615 -3.84069 0
M  V30 5720 H 547.044 -0.245691 -6.55039 0
M  V30 5721 H 546.564 1.31778 -5.85145 0
M  V30 5722 H 548.243 1.0532 -6.3837 0
M  V30 5723 N 548.375 1.56261 0.205012 0
M  V30 5724 C 549.325 1.90155 1.25798 0
M  V30 5725 C 550.309 0.766227 1.41484 0
M  V30 5726 O 551.501 1.02893 1.44021 0
M  V30 5727 C 548.63 2.23603 2.60493 0
M  V30 5728 C 547.716 3.43568 2.48639 0
M  V30 5729 N 548.107 4.61747 2.06455 0
M  V30 5730 C 546.405 3.4751 2.79558 0
M  V30 5731 C 547.106 5.43907 2.06253 0
M  V30 5732 N 546.082 4.84051 2.47377 0
M  V30 5733 H 549.884 2.79031 0.922986 0
M  V30 5734 H 547.398 1.57048 0.413501 0
M  V30 5735 H 549.395 2.46067 3.36537 0
M  V30 5736 H 548.055 1.36049 2.94823 0
M  V30 5737 H 549.066 4.86598 1.77321 0
M  V30 5738 H 545.743 2.70345 3.18151 0
M  V30 5739 H 547.133 6.48542 1.75622 0
M  V30 5740 N 549.853 -0.472356 1.50355 0
M  V30 5741 C 550.816 -1.5529 1.68576 0
M  V30 5742 C 551.816 -1.50863 0.556511 0
M  V30 5743 O 553.006 -1.53505 0.823516 0
M  V30 5744 C 550.138 -2.94921 1.70981 0
M  V30 5745 H 551.331 -1.40451 2.64978 0
M  V30 5746 H 548.884 -0.698645 1.39816 0
M  V30 5747 H 549.619 -3.15204 0.762675 0
M  V30 5748 H 549.404 -2.99541 2.53017 0
M  V30 5749 H 550.894 -3.73372 1.87037 0
M  V30 5750 N 551.331 -1.39911 -0.725443 0
M  V30 5751 C 552.294 -1.39156 -1.82121 0
M  V30 5752 C 553.294 -0.287018 -1.58218 0
M  V30 5753 O 554.484 -0.545421 -1.65441 0
M  V30 5754 C 551.616 -1.1736 -3.20062 0
M  V30 5755 H 552.809 -2.36672 -1.84191 0
M  V30 5756 H 550.362 -1.25615 -0.930079 0
M  V30 5757 H 551.097 -0.205648 -3.23647 0
M  V30 5758 H 550.882 -1.97358 -3.3881 0
M  V30 5759 H 552.372 -1.19596 -4.00108 0
M  V30 5760 N 552.809 0.956637 -1.25245 0
M  V30 5761 C 554.086 1.67716 -1.00651 0
M  V30 5762 C 554.466 2.0585 0.467866 0
M  V30 5763 O 553.814 1.77029 1.44475 0
M  V30 5764 C 554.024 2.90093 -1.94028 0
M  V30 5765 C 555.372 3.6209 -2.21756 0
M  V30 5766 O 556.396 3.00171 -1.9177 0
M  V30 5767 O 555.255 4.7358 -2.72735 0
M  V30 5768 H 552.349 0.733731 -0.381533 0
M  V30 5769 H 554.895 1.00974 -1.3639 0
M  V30 5770 H 553.667 2.58689 -2.93591 0
M  V30 5771 H 553.29 3.64566 -1.58674 0
M  V30 5772 N 554.287 1.06798 1.15896 0
M  V30 5773 C 555.533 0.788934 1.86825 0
M  V30 5774 C 555.866 -0.683084 1.8179 0
M  V30 5775 O 555.141 -1.50086 1.23711 0
M  V30 5776 C 555.424 1.29065 3.36176 0
M  V30 5777 C 555.277 2.8268 3.49874 0
M  V30 5778 C 556.596 0.902655 4.30744 0
M  V30 5779 H 553.715 0.288066 0.678371 0
M  V30 5780 H 556.357 1.32479 1.36195 0
M  V30 5781 H 554.507 0.834806 3.79425 0
M  V30 5782 H 556.179 3.36511 3.15528 0
M  V30 5783 H 554.422 3.21157 2.91617 0
M  V30 5784 H 555.093 3.12852 4.54783 0
M  V30 5785 H 557.569 1.29535 3.95424 0
M  V30 5786 H 556.445 1.28111 5.3374 0
M  V30 5787 H 556.706 -0.191951 4.41683 0
M  V30 5788 N 555.766 -1.3263 0.851289 0
M  V30 5789 C 556.696 -2.31449 0.308771 0
M  V30 5790 C 557.677 -1.59531 -0.590255 0
M  V30 5791 O 558.862 -1.87351 -0.511205 0
M  V30 5792 C 555.992 -3.43586 -0.506548 0
M  V30 5793 C 554.946 -4.26963 0.297753 0
M  V30 5794 C 554.272 -5.30831 -0.642094 0
M  V30 5795 C 555.572 -4.99643 1.52166 0
M  V30 5796 H 557.266 -2.77074 1.13447 0
M  V30 5797 H 554.812 -1.33207 0.546971 0
M  V30 5798 H 556.765 -4.11754 -0.896474 0
M  V30 5799 H 555.489 -2.96681 -1.36558 0
M  V30 5800 H 554.148 -3.60437 0.669391 0
M  V30 5801 H 553.796 -4.8018 -1.49788 0
M  V30 5802 H 553.496 -5.87501 -0.107968 0
M  V30 5803 H 555.02 -6.01862 -1.02927 0
M  V30 5804 H 556.434 -5.6051 1.20421 0
M  V30 5805 H 554.831 -5.66022 1.99347 0
M  V30 5806 H 555.901 -4.27701 2.28474 0
M  V30 5807 N 557.244 -0.608902 -1.45362 0
M  V30 5808 C 558.176 0.147318 -2.28726 0
M  V30 5809 C 559.189 0.830468 -1.40025 0
M  V30 5810 O 560.378 0.695636 -1.64387 0
M  V30 5811 C 557.478 1.22968 -3.15804 0
M  V30 5812 C 556.651 0.633391 -4.3279 0
M  V30 5813 C 555.71 1.60682 -5.01067 0
M  V30 5814 O 554.736 1.13261 -5.57818 0
M  V30 5815 N 555.938 2.94123 -5.00472 0
M  V30 5816 H 558.703 -0.568014 -2.94268 0
M  V30 5817 H 556.264 -0.448479 -1.55564 0
M  V30 5818 H 558.256 1.88072 -3.58345 0
M  V30 5819 H 556.826 1.84752 -2.52162 0
M  V30 5820 H 556.046 -0.195762 -3.93714 0
M  V30 5821 H 557.334 0.215255 -5.08344 0
M  V30 5822 H 556.732 3.3525 -4.55657 0
M  V30 5823 H 555.289 3.54646 -5.46872 0
M  V30 5824 N 558.722 1.53707 -0.348139 0
M  V30 5825 C 559.97 2.00591 0.246478 0
M  V30 5826 C 560.291 1.23753 1.50699 0
M  V30 5827 O 559.561 0.345964 1.92821 0
M  V30 5828 H 558.141 0.741053 0.0940679 0
M  V30 5829 H 560.803 1.89139 -0.470354 0
M  V30 5830 H 559.899 3.08297 0.485714 0
M  V30 5831 N 560.2 0.0768682 1.57412 0
M  V30 5832 C 561.428 -0.59997 1.9801 0
M  V30 5833 C 561.843 -1.62842 0.955408 0
M  V30 5834 O 561.2 -1.8241 -0.057314 0
M  V30 5835 C 561.251 -1.26401 3.38681 0
M  V30 5836 O 560.972 -0.276723 4.37225 0
M  V30 5837 C 562.473 -2.0282 3.94182 0
M  V30 5838 H 559.693 -0.162239 0.651091 0
M  V30 5839 H 562.237 0.150771 2.03943 0
M  V30 5840 H 560.392 -1.96581 3.33819 0
M  V30 5841 H 560.806 -0.753744 5.19056 0
M  V30 5842 H 562.28 -2.44667 4.94815 0
M  V30 5843 H 562.757 -2.88678 3.31001 0
M  V30 5844 H 563.363 -1.37496 4.02461 0
M  V30 5845 N 561.678 -1.56367 -0.196722 0
M  V30 5846 C 562.925 -1.80529 -0.917366 0
M  V30 5847 C 563.253 -0.649817 -1.83324 0
M  V30 5848 O 562.508 0.36451 -1.92275 0
M  V30 5849 C 562.807 -3.10663 -1.767 0
M  V30 5850 C 562.473 -4.3962 -1.00225 0
M  V30 5851 C 561.135 -4.74653 -0.791095 0
M  V30 5852 C 563.487 -5.1913 -0.464035 0
M  V30 5853 C 560.815 -5.86692 -0.0302155 0
M  V30 5854 C 563.167 -6.31964 0.283625 0
M  V30 5855 C 561.831 -6.65581 0.505813 0
M  V30 5856 H 561.101 -0.660602 -0.335688 0
M  V30 5857 H 563.748 -1.90615 -0.183844 0
M  V30 5858 H 562.053 -2.95807 -2.56915 0
M  V30 5859 H 563.75 -3.26563 -2.32718 0
M  V30 5860 H 560.34 -4.12127 -1.17684 0
M  V30 5861 H 564.524 -4.9248 -0.614575 0
M  V30 5862 H 559.78 -6.11211 0.151917 0
M  V30 5863 H 563.954 -6.92791 0.708057 0
M  V30 5864 H 561.581 -7.52239 1.0973 0
M  V30 5865 N 563.156 0.464375 -1.50603 0
M  V30 5866 C 564.381 1.24372 -1.65971 0
M  V30 5867 C 564.806 1.84901 -0.345453 0
M  V30 5868 O 564.164 1.67596 0.691457 0
M  V30 5869 C 564.212 2.32331 -2.7578 0
M  V30 5870 O 563.316 3.37146 -2.375 0
M  V30 5871 H 562.657 0.365604 -0.554283 0
M  V30 5872 H 565.187 0.55183 -1.97018 0
M  V30 5873 H 565.197 2.77539 -2.99059 0
M  V30 5874 H 563.872 1.87648 -3.71162 0
M  V30 5875 H 562.449 2.97602 -2.24694 0
M  V30 5876 N 564.634 1.40294 0.718013 0
M  V30 5877 C 565.564 1.43118 1.84498 0
M  V30 5878 C 566.545 0.292403 1.67568 0
M  V30 5879 O 567.73 0.500675 1.87635 0
M  V30 5880 C 564.86 1.29065 3.22427 0
M  V30 5881 C 563.814 2.40521 3.54025 0
M  V30 5882 C 563.14 2.11546 4.91073 0
M  V30 5883 C 564.44 3.82859 3.55269 0
M  V30 5884 H 566.134 2.37432 1.82391 0
M  V30 5885 H 563.68 1.14283 0.87609 0
M  V30 5886 H 565.633 1.29658 4.00957 0
M  V30 5887 H 564.357 0.312271 3.25104 0
M  V30 5888 H 563.016 2.39173 2.77834 0
M  V30 5889 H 562.664 1.12104 4.90348 0
M  V30 5890 H 562.364 2.86216 5.1318 0
M  V30 5891 H 563.888 2.13817 5.71939 0
M  V30 5892 H 565.302 3.86044 4.23843 0
M  V30 5893 H 563.699 4.57029 3.88902 0
M  V30 5894 H 564.769 4.12617 2.54706 0
M  V30 5895 N 566.112 -0.949982 1.2575 0
M  V30 5896 C 567.358 -1.69766 1.10938 0
M  V30 5897 C 567.691 -1.91056 -0.348028 0
M  V30 5898 O 566.966 -1.48488 -1.25625 0
M  V30 5899 C 567.249 -3.07779 1.86933 0
M  V30 5900 C 567.102 -2.9387 3.4053 0
M  V30 5901 C 568.421 -4.07749 1.65616 0
M  V30 5902 H 565.54 -0.616144 0.404396 0
M  V30 5903 H 568.182 -1.10394 1.54639 0
M  V30 5904 H 566.332 -3.58462 1.4979 0
M  V30 5905 H 568.004 -2.50476 3.87375 0
M  V30 5906 H 566.247 -2.29686 3.68004 0
M  V30 5907 H 566.918 -3.91719 3.88922 0
M  V30 5908 H 569.394 -3.65994 1.97959 0
M  V30 5909 H 568.27 -5.02348 2.21218 0
M  V30 5910 H 568.531 -4.38029 0.598595 0
M  V30 5911 N 567.59 -1.07411 -1.15328 0
M  V30 5912 C 568.815 -0.818856 -1.90551 0
M  V30 5913 C 569.24 0.622194 -1.77512 0
M  V30 5914 O 568.598 1.43484 -1.10824 0
M  V30 5915 C 568.646 -1.23267 -3.38877 0
M  V30 5916 O 567.75 -0.378345 -4.10661 0
M  V30 5917 H 567.091 -0.29827 -0.593238 0
M  V30 5918 H 569.621 -1.43289 -1.46046 0
M  V30 5919 H 569.631 -1.20912 -3.89672 0
M  V30 5920 H 568.306 -2.28226 -3.47686 0
M  V30 5921 H 566.883 -0.464437 -3.69996 0
M  V30 5922 N 569.068 1.32177 -0.85831 0
M  V30 5923 C 570.031 2.27086 -0.310588 0
M  V30 5924 C 571.031 1.51751 0.531806 0
M  V30 5925 O 572.221 1.70794 0.34279 0
M  V30 5926 C 569.353 3.36266 0.560179 0
M  V30 5927 H 570.546 2.77045 -1.1483 0
M  V30 5928 H 568.099 1.42911 -0.632942 0
M  V30 5929 H 568.834 2.9158 1.41956 0
M  V30 5930 H 568.619 3.92077 -0.0428473 0
M  V30 5931 H 570.109 4.06974 0.936056 0
M  V30 5932 N 570.547 0.616602 1.45037 0
M  V30 5933 C 571.51 -0.0871112 2.29034 0
M  V30 5934 C 572.51 -0.786414 1.40258 0
M  V30 5935 O 573.7 -0.633207 1.62284 0
M  V30 5936 C 570.832 -1.13369 3.21497 0
M  V30 5937 H 572.025 0.651497 2.92738 0
M  V30 5938 H 569.578 0.376058 1.51709 0
M  V30 5939 H 570.313 -1.90277 2.62612 0
M  V30 5940 H 570.098 -0.636358 3.86902 0
M  V30 5941 H 571.588 -1.62627 3.84633 0
M  V30 5942 N 572.025 -1.5352 0.356285 0
M  V30 5943 C 572.972 -2.25439 -0.494569 0
M  V30 5944 C 573.942 -1.25752 -1.08516 0
M  V30 5945 O 575.127 -1.54513 -1.1194 0
M  V30 5946 C 572.267 -3.04011 -1.63313 0
M  V30 5947 C 571.38 -4.18574 -1.06862 0
M  V30 5948 C 570.515 -4.84607 -2.17552 0
M  V30 5949 C 569.554 -5.91218 -1.58518 0
M  V30 5950 N 568.691 -6.50979 -2.63003 0
M  V30 5951 H 573.531 -2.97737 0.125244 0
M  V30 5952 H 571.068 -1.46916 0.0735789 0
M  V30 5953 H 573.026 -3.47834 -2.30363 0
M  V30 5954 H 571.656 -2.33986 -2.22374 0
M  V30 5955 H 570.708 -3.79303 -0.288672 0
M  V30 5956 H 572.02 -4.95215 -0.596924 0
M  V30 5957 H 571.174 -5.31566 -2.92442 0
M  V30 5958 H 569.913 -4.07418 -2.6807 0
M  V30 5959 H 568.918 -5.4363 -0.821391 0
M  V30 5960 H 570.143 -6.70322 -1.08836 0
M  V30 5961 H 568.089 -5.76648 -3.12751 0
M  V30 5962 H 568.006 -7.23131 -2.20493 0
M  V30 5963 H 569.274 -7.02589 -3.37623 0
M  V30 5964 N 573.503 -0.0852151 -1.57369 0
M  V30 5965 C 574.914 0.445428 -1.81309 0
M  V30 5966 C 575.265 1.68795 -1.00013 0
M  V30 5967 O 574.39 2.15211 -0.226573 0
M  V30 5968 C 574.985 0.814887 -3.28854 0
M  V30 5969 C 573.544 1.29032 -3.53592 0
M  V30 5970 C 572.691 0.282089 -2.75861 0
M  V30 5971 H 575.642 -0.310771 -1.55627 0
M  V30 5972 H 575.663 1.67524 -3.41637 0
M  V30 5973 H 575.175 -0.0896309 -3.87996 0
M  V30 5974 H 573.276 2.21289 -2.9977 0
M  V30 5975 H 573.389 1.25898 -4.62262 0
M  V30 5976 H 571.753 0.762182 -2.43029 0
M  V30 5977 H 572.536 -0.614936 -3.37748 0
M  V30 5978 N 574.981 1.5647 0.188427 0
M  V30 5979 C 575.911 1.98101 1.23606 0
M  V30 5980 C 576.892 0.853961 1.47111 0
M  V30 5981 O 578.077 1.11879 1.58735 0
M  V30 5982 C 575.207 2.32624 2.57882 0
M  V30 5983 C 574.161 3.48129 2.48978 0
M  V30 5984 C 573.487 3.68347 3.87588 0
M  V30 5985 C 574.787 4.82112 2.00911 0
M  V30 5986 H 576.481 2.85864 0.890068 0
M  V30 5987 H 574.027 1.37532 0.426714 0
M  V30 5988 H 575.98 2.60343 3.3136 0
M  V30 5989 H 574.704 1.41751 2.94235 0
M  V30 5990 H 573.363 3.20511 1.77956 0
M  V30 5991 H 573.011 2.74793 4.21305 0
M  V30 5992 H 572.711 4.46055 3.82503 0
M  V30 5993 H 574.235 3.98449 4.62678 0
M  V30 5994 H 575.649 5.08819 2.64151 0
M  V30 5995 H 574.046 5.63337 2.06814 0
M  V30 5996 H 575.116 4.75249 0.96262 0
M  V30 5997 N 576.459 -0.456382 1.50847 0
M  V30 5998 C 577.392 -1.57177 1.65441 0
M  V30 5999 C 578.37 -1.54649 0.502224 0
M  V30 6000 O 579.554 -1.74057 0.723633 0
M  V30 6001 C 576.681 -2.95763 1.65052 0
M  V30 6002 C 575.727 -3.16389 2.86007 0
M  V30 6003 S 576.56 -2.94716 4.47105 0
M  V30 6004 C 577.716 -4.35617 4.49432 0
M  V30 6005 H 577.949 -1.44561 2.59787 0
M  V30 6006 H 575.482 -0.644758 1.40293 0
M  V30 6007 H 577.44 -3.75654 1.65512 0
M  V30 6008 H 576.101 -3.05756 0.719153 0
M  V30 6009 H 575.294 -4.17667 2.82081 0
M  V30 6010 H 574.896 -2.44293 2.8319 0
M  V30 6011 H 577.188 -5.28503 4.239 0
M  V30 6012 H 578.131 -4.44582 5.51137 0
M  V30 6013 H 578.539 -4.18382 3.78967 0
M  V30 6014 N 577.937 -1.40673 -0.710563 0
M  V30 6015 C 578.847 -1.43663 -1.85467 0
M  V30 6016 C 579.863 -0.328721 -1.70867 0
M  V30 6017 O 581.039 -0.574098 -1.93044 0
M  V30 6018 C 578.104 -1.30226 -3.21313 0
M  V30 6019 C 577.165 -2.51204 -3.48131 0
M  V30 6020 C 576.398 -2.38398 -4.77495 0
M  V30 6021 O 576.621 -1.40048 -5.5294 0
M  V30 6022 O 575.555 -3.2787 -5.04762 0
M  V30 6023 H 579.381 -2.40156 -1.859 0
M  V30 6024 H 576.966 -1.22049 -0.861652 0
M  V30 6025 H 578.848 -1.2496 -4.02446 0
M  V30 6026 H 577.523 -0.368419 -3.21597 0
M  V30 6027 H 576.43 -2.62048 -2.66987 0
M  V30 6028 H 577.763 -3.43366 -3.52648 0
M  V30 6029 N 579.415 0.9433 -1.26252 0
M  V30 6030 C 580.365 2.02746 -1.04297 0
M  V30 6031 C 581.349 1.60882 0.0239435 0
M  V30 6032 O 582.541 1.75947 -0.192757 0
M  V30 6033 C 579.67 3.36585 -0.6757 0
M  V30 6034 C 578.756 3.84939 -1.77996 0
M  V30 6035 N 579.147 4.05966 -3.01704 0
M  V30 6036 C 577.445 4.13833 -1.66308 0
M  V30 6037 C 578.146 4.45987 -3.73458 0
M  V30 6038 N 577.122 4.52569 -3.01135 0
M  V30 6039 H 580.924 2.17012 -1.98199 0
M  V30 6040 H 578.438 1.12898 -1.16738 0
M  V30 6041 H 580.435 4.13896 -0.499571 0
M  V30 6042 H 579.095 3.2369 0.255863 0
M  V30 6043 H 580.106 3.92716 -3.37631 0
M  V30 6044 H 576.783 4.09739 -0.801267 0
M  V30 6045 H 578.173 4.70465 -4.79701 0
M  V30 6046 N 580.893 1.08022 1.14757 0
M  V30 6047 C 581.823 0.728248 2.21853 0
M  V30 6048 C 582.804 -0.287486 1.67653 0
M  V30 6049 O 583.989 -0.158727 1.9355 0
M  V30 6050 C 581.119 0.132549 3.47047 0
M  V30 6051 C 580.073 1.07619 4.14249 0
M  V30 6052 C 579.399 0.342907 5.33599 0
M  V30 6053 C 580.699 2.41268 4.63235 0
M  V30 6054 H 582.393 1.62365 2.51551 0
M  V30 6055 H 579.939 0.782125 1.20908 0
M  V30 6056 H 581.892 -0.125665 4.21213 0
M  V30 6057 H 580.616 -0.797971 3.16702 0
M  V30 6058 H 579.275 1.31944 3.42033 0
M  V30 6059 H 578.923 -0.59129 4.99513 0
M  V30 6060 H 578.623 0.971955 5.79506 0
M  V30 6061 H 580.147 0.0926538 6.1053 0
M  V30 6062 H 581.561 2.21232 5.28894 0
M  V30 6063 H 579.958 2.9983 5.19829 0
M  V30 6064 H 581.028 3.03079 3.78512 0
M  V30 6065 N 582.371 -1.3172 0.865308 0
M  V30 6066 C 583.599 -2.01057 0.488251 0
M  V30 6067 C 584.014 -1.64979 -0.918 0
M  V30 6068 O 583.371 -0.876597 -1.60069 0
M  V30 6069 C 583.422 -3.55964 0.630224 0
M  V30 6070 O 583.143 -3.90749 1.98109 0
M  V30 6071 C 584.644 -4.42574 0.253567 0
M  V30 6072 H 581.864 -0.64332 0.190736 0
M  V30 6073 H 584.408 -1.68058 1.16519 0
M  V30 6074 H 582.563 -3.874 0.000895422 0
M  V30 6075 H 582.977 -4.85467 1.9855 0
M  V30 6076 H 584.451 -5.50521 0.403875 0
M  V30 6077 H 584.928 -4.31724 -0.806895 0
M  V30 6078 H 585.534 -4.16547 0.858404 0
M  V30 6079 N 583.85 -0.624285 -1.44708 0
M  V30 6080 C 585.26 -0.2092 -1.85524 0
M  V30 6081 C 585.611 1.23783 -1.52225 0
M  V30 6082 O 584.736 1.94089 -0.956986 0
M  V30 6083 C 585.332 -0.372897 -3.36742 0
M  V30 6084 C 583.891 -0.012374 -3.76398 0
M  V30 6085 C 583.038 -0.68951 -2.68591 0
M  V30 6086 H 585.989 -0.829894 -1.35272 0
M  V30 6087 H 586.01 0.390134 -3.78495 0
M  V30 6088 H 585.522 -1.42615 -3.60947 0
M  V30 6089 H 583.623 1.03941 -3.57809 0
M  V30 6090 H 583.736 -0.417663 -4.77276 0
M  V30 6091 H 582.1 -0.125484 -2.54391 0
M  V30 6092 H 582.883 -1.74522 -2.9563 0
M  V30 6093 N 585.328 1.53329 -0.364422 0
M  V30 6094 C 586.258 2.28627 0.474543 0
M  V30 6095 C 587.239 1.31009 1.08492 0
M  V30 6096 O 588.424 1.59878 1.10239 0
M  V30 6097 C 585.554 3.07465 1.61501 0
M  V30 6098 C 584.508 4.1276 1.13194 0
M  V30 6099 C 583.834 4.79674 2.36255 0
M  V30 6100 C 585.134 5.21847 0.217507 0
M  V30 6101 H 586.828 2.99005 -0.153656 0
M  V30 6102 H 584.374 1.43803 -0.0753406 0
M  V30 6103 H 586.327 3.58889 2.20855 0
M  V30 6104 H 585.051 2.34775 2.27042 0
M  V30 6105 H 583.71 3.62281 0.56109 0
M  V30 6106 H 583.358 4.03557 3.00251 0
M  V30 6107 H 583.058 5.50827 2.04606 0
M  V30 6108 H 584.582 5.33892 2.96297 0
M  V30 6109 H 585.996 5.6878 0.718493 0
M  V30 6110 H 584.393 6.00099 -0.00806408 0
M  V30 6111 H 585.463 4.7921 -0.740653 0
M  V30 6112 N 586.806 0.0935595 1.57322 0
M  V30 6113 C 587.716 -0.880192 2.17462 0
M  V30 6114 C 588.732 -1.31135 1.14366 0
M  V30 6115 O 589.908 -1.37958 1.46729 0
M  V30 6116 C 586.973 -2.12184 2.74188 0
M  V30 6117 C 586.034 -1.74503 3.92234 0
M  V30 6118 C 585.267 -2.92748 4.46245 0
M  V30 6119 O 585.49 -4.07427 3.99198 0
M  V30 6120 O 584.424 -2.71303 5.37288 0
M  V30 6121 H 588.25 -0.398516 3.01074 0
M  V30 6122 H 585.835 -0.130707 1.48827 0
M  V30 6123 H 587.717 -2.84953 3.10451 0
M  V30 6124 H 586.392 -2.59407 1.93623 0
M  V30 6125 H 585.299 -0.989186 3.60785 0
M  V30 6126 H 586.632 -1.32044 4.74157 0
M  V30 6127 N 588.284 -1.56567 -0.180126 0
M  V30 6128 C 589.524 -1.83285 -0.904761 0
M  V30 6129 C 589.888 -0.673226 -1.7981 0
M  V30 6130 O 591.089 -0.820645 -2.55967 0
M  V30 6131 C 589.36 -3.15086 -1.68688 0
M  V30 6132 S 590.919 -3.63258 -2.46149 0
M  V30 6133 H 587.737 -0.643114 -0.303193 0
M  V30 6134 H 590.339 -1.94785 -0.167034 0
M  V30 6135 H 589.043 -3.97484 -1.02148 0
M  V30 6136 H 588.574 -3.06504 -2.46615 0
M  V30 6137 H 590.589 -3.29884 -3.70663 0
M  V30 6138 N 589.762 0.448376 -1.51087 0
M  V30 6139 C 590.709 1.54341 -1.71603 0
M  V30 6140 C 591.679 1.56463 -0.557536 0
M  V30 6141 O 592.864 1.73644 -0.79072 0
M  V30 6142 C 590.004 2.92148 -1.83695 0
M  V30 6143 C 589.117 2.99639 -3.11192 0
M  V30 6144 C 588.252 4.285 -3.13944 0
M  V30 6145 C 587.291 4.29819 -4.35801 0
M  V30 6146 N 586.428 5.50186 -4.36164 0
M  V30 6147 H 591.268 1.36151 -2.65079 0
M  V30 6148 H 588.805 0.661585 -1.31383 0
M  V30 6149 H 590.763 3.72093 -1.88687 0
M  V30 6150 H 589.393 3.0892 -0.936374 0
M  V30 6151 H 588.445 2.12425 -3.15562 0
M  V30 6152 H 589.757 2.96474 -4.01129 0
M  V30 6153 H 588.911 5.16811 -3.17791 0
M  V30 6154 H 587.65 4.34307 -2.21876 0
M  V30 6155 H 586.655 3.39902 -4.32142 0
M  V30 6156 H 587.88 4.25685 -5.29121 0
M  V30 6157 H 585.826 5.56735 -3.46961 0
M  V30 6158 H 585.743 5.48856 -5.19897 0
M  V30 6159 H 587.011 6.40559 -4.44189 0
M  V30 6160 N 591.24 1.41047 0.703093 0
M  V30 6161 C 592.203 1.42036 1.79884 0
M  V30 6162 C 593.203 0.312153 1.57741 0
M  V30 6163 O 594.393 0.571672 1.64553 0
M  V30 6164 C 591.525 1.22437 3.18154 0
M  V30 6165 H 592.718 2.39572 1.80403 0
M  V30 6166 H 590.271 1.27079 0.909977 0
M  V30 6167 H 591.006 0.257112 3.23279 0
M  V30 6168 H 590.791 2.02723 3.35627 0
M  V30 6169 H 592.281 1.25946 3.98155 0
M  V30 6170 N 592.718 -0.936591 1.26751 0
M  V30 6171 C 593.681 -2.01752 1.08761 0
M  V30 6172 C 594.681 -1.60763 0.0344435 0
M  V30 6173 O 595.871 -1.71963 0.278258 0
M  V30 6174 C 593.003 -3.34543 0.655271 0
M  V30 6175 H 594.196 -2.19143 2.04735 0
M  V30 6176 H 591.749 -1.11618 1.09413 0
M  V30 6177 H 592.484 -3.22851 -0.30626 0
M  V30 6178 H 592.269 -3.65647 1.41578 0
M  V30 6179 H 593.759 -4.13944 0.551378 0
M  V30 6180 N 594.196 -1.08629 -1.14182 0
M  V30 6181 C 595.159 -0.722027 -2.1753 0
M  V30 6182 C 596.159 0.244305 -1.58933 0
M  V30 6183 O 597.349 0.0235545 -1.74184 0
M  V30 6184 C 594.481 -0.0663966 -3.40835 0
M  V30 6185 H 595.674 -1.63719 -2.51269 0
M  V30 6186 H 593.227 -0.884442 -1.28869 0
M  V30 6187 H 593.962 0.860389 -3.12678 0
M  V30 6188 H 593.747 -0.761598 -3.84632 0
M  V30 6189 H 595.237 0.173346 -4.1724 0
M  V30 6190 N 595.674 1.31259 -0.872281 0
M  V30 6191 C 596.921 1.96622 -0.484365 0
M  V30 6192 C 597.249 1.68939 0.963841 0
M  V30 6193 O 596.504 0.97974 1.6941 0
M  V30 6194 C 596.803 3.50659 -0.690889 0
M  V30 6195 C 596.469 3.98366 -2.11224 0
M  V30 6196 C 595.131 4.11104 -2.50094 0
M  V30 6197 C 597.483 4.23425 -3.0391 0
M  V30 6198 C 594.811 4.46254 -3.80887 0
M  V30 6199 C 597.163 4.60039 -4.3422 0
M  V30 6200 C 595.827 4.70984 -4.73001 0
M  V30 6201 H 595.097 0.71949 -0.177242 0
M  V30 6202 H 597.744 1.56353 -1.10571 0
M  V30 6203 H 596.049 3.91798 0.0135782 0
M  V30 6204 H 597.746 3.99284 -0.370534 0
M  V30 6205 H 594.336 3.88949 -1.80047 0
M  V30 6206 H 598.52 4.13075 -2.75104 0
M  V30 6207 H 593.776 4.52926 -4.10692 0
M  V30 6208 H 597.95 4.78381 -5.06088 0
M  V30 6209 H 595.577 4.97977 -5.7439 0
M  V30 6210 N 597.152 0.631951 1.44375 0
M  V30 6211 C 598.115 -0.0628142 2.29114 0
M  V30 6212 C 599.115 -0.771494 1.41084 0
M  V30 6213 O 600.305 -0.615959 1.62947 0
M  V30 6214 C 597.437 -1.09953 3.22681 0
M  V30 6215 H 598.63 0.682509 2.92031 0
M  V30 6216 H 596.183 0.392128 1.51301 0
M  V30 6217 H 596.918 -1.87481 2.64616 0
M  V30 6218 H 596.703 -0.595286 3.87555 0
M  V30 6219 H 598.193 -1.58538 3.86336 0
M  V30 6220 N 598.631 -1.53133 0.372548 0
M  V30 6221 C 599.594 -2.24569 -0.458389 0
M  V30 6222 C 600.594 -1.25603 -1.00402 0
M  V30 6223 O 601.784 -1.49827 -0.888672 0
M  V30 6224 C 598.916 -2.98783 -1.6414 0
M  V30 6225 H 600.109 -2.99436 0.166799 0
M  V30 6226 H 597.662 -1.55805 0.124357 0
M  V30 6227 H 598.397 -2.28176 -2.30448 0
M  V30 6228 H 598.182 -3.71404 -1.25704 0
M  V30 6229 H 599.672 -3.53068 -2.23008 0
M  V30 6230 N 600.109 -0.101901 -1.5727 0
M  V30 6231 C 601.039 0.851544 -2.17419 0
M  V30 6232 C 602.02 1.28942 -1.10941 0
M  V30 6233 O 603.205 1.35509 -1.39107 0
M  V30 6234 C 600.335 2.10816 -2.75996 0
M  V30 6235 C 599.289 1.80867 -3.87906 0
M  V30 6236 C 598.615 3.13413 -4.33216 0
M  V30 6237 C 599.915 1.0903 -5.10793 0
M  V30 6238 H 601.609 0.350381 -2.97343 0
M  V30 6239 H 599.155 0.16709 -1.43027 0
M  V30 6240 H 601.108 2.77959 -3.16729 0
M  V30 6241 H 599.832 2.63227 -1.93337 0
M  V30 6242 H 598.491 1.16119 -3.47724 0
M  V30 6243 H 598.139 3.63725 -3.47438 0
M  V30 6244 H 597.839 2.94155 -5.08671 0
M  V30 6245 H 599.363 3.81704 -4.76586 0
M  V30 6246 H 600.777 1.66295 -5.48652 0
M  V30 6247 H 599.174 0.99927 -5.91722 0
M  V30 6248 H 600.244 0.0741704 -4.84843 0
M  V30 6249 N 601.587 1.56661 0.17182 0
M  V30 6250 C 602.815 1.861 0.904115 0
M  V30 6251 C 603.23 0.687227 1.75848 0
M  V30 6252 O 602.587 -0.343671 1.79235 0
M  V30 6253 C 602.638 3.14568 1.78127 0
M  V30 6254 O 602.359 4.27422 0.961366 0
M  V30 6255 C 603.86 3.5735 2.62327 0
M  V30 6256 H 601.08 0.617445 0.262684 0
M  V30 6257 H 603.624 2.03775 0.172068 0
M  V30 6258 H 601.779 2.98721 2.46666 0
M  V30 6259 H 602.193 5.00725 1.56123 0
M  V30 6260 H 603.667 4.50144 3.1949 0
M  V30 6261 H 604.144 2.81445 3.37173 0
M  V30 6262 H 604.75 3.75807 1.99121 0
M  V30 6263 N 603.065 -0.440357 1.51323 0
M  V30 6264 C 604.015 -1.53263 1.68803 0
M  V30 6265 C 604.999 -1.51494 0.542057 0
M  V30 6266 O 606.191 -1.57999 0.797839 0
M  V30 6267 C 603.32 -2.91479 1.8137 0
M  V30 6268 C 602.406 -2.98015 3.01742 0
M  V30 6269 N 602.797 -2.743 4.24962 0
M  V30 6270 C 601.095 -3.29173 3.00934 0
M  V30 6271 C 601.796 -2.86601 5.06197 0
M  V30 6272 N 600.772 -3.1814 4.40781 0
M  V30 6273 H 604.574 -1.33675 2.61741 0
M  V30 6274 H 602.088 -0.647616 1.48929 0
M  V30 6275 H 604.085 -3.70055 1.92002 0
M  V30 6276 H 602.745 -3.12089 0.896117 0
M  V30 6277 H 603.756 -2.49287 4.53957 0
M  V30 6278 H 600.433 -3.55577 2.18796 0
M  V30 6279 H 601.823 -2.72246 6.14274 0
M  V30 6280 N 604.543 -1.41418 -0.695603 0
M  V30 6281 C 605.82 -1.31264 -1.45014 0
M  V30 6282 C 606.2 0.0597994 -2.11015 0
M  V30 6283 O 605.548 1.07403 -2.01685 0
M  V30 6284 C 605.758 -2.466 -2.4696 0
M  V30 6285 C 607.106 -2.87763 -3.12214 0
M  V30 6286 O 608.13 -2.46339 -2.57285 0
M  V30 6287 O 606.989 -3.59395 -4.11701 0
M  V30 6288 H 604.083 -0.516576 -0.645816 0
M  V30 6289 H 606.629 -1.53382 -0.726084 0
M  V30 6290 H 605.401 -3.38183 -1.96845 0
M  V30 6291 H 605.024 -2.26358 -3.26876 0
M  V30 6292 N 606.021 0.929856 -1.27246 0
M  V30 6293 C 607.267 1.6798 -1.13625 0
M  V30 6294 C 607.6 1.91586 0.317589 0
M  V30 6295 O 606.875 1.50467 1.23247 0
M  V30 6296 C 607.158 3.04766 -1.91806 0
M  V30 6297 C 607.011 2.88415 -3.45162 0
M  V30 6298 C 608.33 4.05063 -1.72082 0
M  V30 6299 H 605.449 0.609632 -0.414147 0
M  V30 6300 H 608.091 1.0792 -1.56376 0
M  V30 6301 H 606.241 3.56034 -1.55474 0
M  V30 6302 H 607.913 2.44282 -3.91311 0
M  V30 6303 H 606.156 2.23802 -3.71611 0
M  V30 6304 H 606.827 3.85482 -3.95105 0
M  V30 6305 H 609.303 3.62798 -2.03757 0
M  V30 6306 H 608.179 4.98765 -2.29182 0
M  V30 6307 H 608.44 4.37021 -0.668206 0
M  V30 6308 N 607.499 1.09233 1.13605 0
M  V30 6309 C 608.739 0.836786 1.86487 0
M  V30 6310 C 609.103 -0.626191 1.81502 0
M  V30 6311 O 610.304 -0.99758 2.49603 0
M  V30 6312 C 608.575 1.35476 3.30728 0
M  V30 6313 S 610.134 1.2328 4.21126 0
M  V30 6314 H 606.952 0.302702 0.643345 0
M  V30 6315 H 609.554 1.3953 1.36936 0
M  V30 6316 H 608.258 2.41381 3.31909 0
M  V30 6317 H 607.789 0.792286 3.85339 0
M  V30 6318 H 609.804 0.182468 4.95864 0
M  V30 6319 N 608.977 -1.30795 0.87923 0
M  V30 6320 C 609.927 -2.25838 0.313276 0
M  V30 6321 C 610.911 -1.51025 -0.55499 0
M  V30 6322 O 612.103 -1.72413 -0.400353 0
M  V30 6323 C 609.232 -3.39981 -0.476204 0
M  V30 6324 C 608.318 -4.22154 0.405826 0
M  V30 6325 N 608.709 -4.82934 1.50362 0
M  V30 6326 C 607.007 -4.45552 0.199909 0
M  V30 6327 C 607.708 -5.44444 2.0483 0
M  V30 6328 N 606.684 -5.26723 1.34403 0
M  V30 6329 H 610.486 -2.70374 1.15218 0
M  V30 6330 H 608 -1.45168 0.728003 0
M  V30 6331 H 609.997 -4.07108 -0.898251 0
M  V30 6332 H 608.657 -2.96986 -1.31261 0
M  V30 6333 H 609.668 -4.82319 1.8865 0
M  V30 6334 H 606.345 -4.13169 -0.599795 0
M  V30 6335 H 607.735 -6.02701 2.96986 0
M  V30 6336 N 610.455 -0.639598 -1.44038 0
M  V30 6337 C 611.866 -0.228866 -1.85292 0
M  V30 6338 C 612.217 1.22161 -1.53529 0
M  V30 6339 O 611.342 1.93064 -0.977518 0
M  V30 6340 C 611.937 -0.408592 -3.36327 0
M  V30 6341 C 610.496 -0.0522953 -3.76364 0
M  V30 6342 C 609.643 -0.717959 -2.67844 0
M  V30 6343 H 612.594 -0.844194 -1.34384 0
M  V30 6344 H 612.615 0.349968 -3.78887 0
M  V30 6345 H 612.127 -1.46435 -3.59414 0
M  V30 6346 H 610.228 1.0014 -3.58891 0
M  V30 6347 H 610.341 -0.468261 -4.76806 0
M  V30 6348 H 608.705 -0.152459 -2.54243 0
M  V30 6349 H 609.488 -1.77648 -2.93762 0
M  V30 6350 N 611.933 1.52934 -0.380664 0
M  V30 6351 C 613.181 2.01069 0.203874 0
M  V30 6352 C 613.502 1.26922 1.4804 0
M  V30 6353 O 612.772 0.386787 1.92044 0
M  V30 6354 H 611.352 0.742882 0.0783279 0
M  V30 6355 H 614.014 1.88099 -0.510368 0
M  V30 6356 H 613.11 3.09258 0.42021 0
M  V30 6357 N 613.412 0.11024 1.57214 0
M  V30 6358 C 614.828 -0.24638 1.57687 0
M  V30 6359 C 615.028 -1.67344 1.12241 0
M  V30 6360 O 614.084 -2.39298 0.805783 0
M  V30 6361 C 615.397 -0.0210288 3.00693 0
M  V30 6362 C 616.945 -0.0876077 3.12877 0
M  V30 6363 C 617.42 0.10994 4.57868 0
M  V30 6364 N 618.911 0.0556135 4.63167 0
M  V30 6365 C 619.646 0.183495 5.73106 0
M  V30 6366 N 619.142 0.367058 6.91827 0
M  V30 6367 N 620.935 0.123689 5.61964 0
M  V30 6368 H 613.086 1.04246 1.85058 0
M  V30 6369 H 615.349 0.40979 0.854854 0
M  V30 6370 H 615.055 0.965203 3.38196 0
M  V30 6371 H 614.929 -0.756748 3.69531 0
M  V30 6372 H 617.316 -1.06436 2.75237 0
M  V30 6373 H 617.397 0.67985 2.466 0
M  V30 6374 H 617.041 1.08362 4.96206 0
M  V30 6375 H 616.971 -0.677397 5.22225 0
M  V30 6376 H 619.462 -0.0831062 3.77809 0
M  V30 6377 H 619.775 0.455739 7.71455 0
M  V30 6378 H 618.12 0.40292 6.93831 0
M  V30 6379 H 621.311 -0.0186928 4.68096 0
M  V30 6380 H 621.484 0.226797 6.47603 0
M  V30 6381 N 614.89 -1.56749 -0.16351 0
M  V30 6382 C 616.118 -1.86577 -0.894233 0
M  V30 6383 C 616.533 -0.696543 -1.75481 0
M  V30 6384 O 615.89 0.334161 -1.79415 0
M  V30 6385 C 615.941 -3.15508 -1.76456 0
M  V30 6386 O 615.662 -4.27926 -0.938685 0
M  V30 6387 C 617.163 -3.58737 -2.60428 0
M  V30 6388 H 614.383 -0.618829 -0.259405 0
M  V30 6389 H 616.927 -2.03863 -0.161259 0
M  V30 6390 H 615.082 -3.00025 -2.45079 0
M  V30 6391 H 615.496 -5.01546 -1.53465 0
M  V30 6392 H 616.97 -4.51832 -3.17099 0
M  V30 6393 H 617.447 -2.83229 -3.35675 0
M  V30 6394 H 618.053 -3.76858 -1.97125 0
M  V30 6395 N 616.368 0.432326 -1.51554 0
M  V30 6396 C 617.316 1.54572 -1.73811 0
M  V30 6397 C 618.31 1.58246 -0.604539 0
M  V30 6398 O 619.516 1.6193 -0.786041 0
M  V30 6399 H 615.891 0.513626 -0.549265 0
M  V30 6400 H 617.862 1.32977 -2.67132 0
M  V30 6401 C 616.611 2.92181 -1.88483 0
M  V30 6402 H 615.934 2.90088 -2.75116 0
M  V30 6403 H 617.374 3.69439 -2.08065 0
M  V30 6404 C 615.833 3.3065 -0.645909 0
M  V30 6405 O 616.363 4.01216 0.197093 0
M  V30 6406 N 614.569 2.86464 -0.488538 0
M  V30 6407 H 614.116 2.29209 -1.17562 0
M  V30 6408 H 614.074 3.12565 0.339156 0
M  V30 6409 N 617.846 1.41785 0.688094 0
M  V30 6410 C 618.809 1.43936 1.78368 0
M  V30 6411 C 619.809 0.328866 1.57401 0
M  V30 6412 O 620.999 0.589093 1.63937 0
M  V30 6413 C 618.131 1.25804 3.16838 0
M  V30 6414 H 619.324 2.41472 1.77852 0
M  V30 6415 H 616.877 1.28037 0.896448 0
M  V30 6416 H 617.612 0.291386 3.22988 0
M  V30 6417 H 617.397 2.06272 3.33458 0
M  V30 6418 H 618.887 1.30162 3.96797 0
M  V30 6419 N 619.324 -0.923095 1.27737 0
M  V30 6420 C 620.571 -1.67127 1.14345 0
M  V30 6421 C 620.899 -1.92017 -0.30982 0
M  V30 6422 O 620.154 -1.51185 -1.24264 0
M  V30 6423 C 620.453 -3.04125 1.8773 0
M  V30 6424 C 620.119 -2.98929 3.37568 0
M  V30 6425 C 618.781 -2.9722 3.78436 0
M  V30 6426 C 621.133 -2.89875 4.33154 0
M  V30 6427 C 618.461 -2.84244 5.13247 0
M  V30 6428 C 620.813 -2.7844 5.68026 0
M  V30 6429 C 619.477 -2.75083 6.08182 0
M  V30 6430 H 618.747 -0.611562 0.418417 0
M  V30 6431 H 621.394 -1.07618 1.584 0
M  V30 6432 H 619.699 -3.67366 1.36196 0
M  V30 6433 H 621.396 -3.609 1.74792 0
M  V30 6434 H 617.986 -3.0105 3.05069 0
M  V30 6435 H 622.17 -2.9029 4.02548 0
M  V30 6436 H 617.426 -2.80034 5.43499 0
M  V30 6437 H 621.6 -2.70401 6.4176 0
M  V30 6438 H 619.227 -2.64786 7.12596 0
M  V30 6439 N 620.802 -1.09834 -1.13024 0
M  V30 6440 C 621.732 -0.763451 -2.20666 0
M  V30 6441 C 622.713 0.260778 -1.68089 0
M  V30 6442 O 623.898 0.127915 -1.93778 0
M  V30 6443 C 621.028 -0.187744 -3.46792 0
M  V30 6444 C 619.982 -1.14196 -4.12484 0
M  V30 6445 C 619.308 -0.427755 -5.32986 0
M  V30 6446 C 620.608 -2.48607 -4.59338 0
M  V30 6447 H 622.302 -1.66347 -2.48936 0
M  V30 6448 H 619.848 -0.801261 -1.19649 0
M  V30 6449 H 621.801 0.0586375 -4.21359 0
M  V30 6450 H 620.525 0.747485 -3.17931 0
M  V30 6451 H 619.184 -1.37369 -3.3989 0
M  V30 6452 H 618.832 0.511747 -5.0039 0
M  V30 6453 H 618.532 -1.06403 -5.77886 0
M  V30 6454 H 620.056 -0.189772 -6.10305 0
M  V30 6455 H 621.47 -2.29618 -5.25308 0
M  V30 6456 H 619.867 -3.08062 -5.14993 0
M  V30 6457 H 620.937 -3.09062 -3.73642 0
M  V30 6458 N 622.28 1.30327 -0.886154 0
M  V30 6459 C 623.243 2.26376 -0.358687 0
M  V30 6460 C 624.243 1.52845 0.499498 0
M  V30 6461 O 625.433 1.71483 0.306485 0
M  V30 6462 C 622.565 3.37379 0.488726 0
M  V30 6463 H 623.758 2.74547 -1.20681 0
M  V30 6464 H 621.311 1.41536 -0.663113 0
M  V30 6465 H 622.046 2.94526 1.35739 0
M  V30 6466 H 621.831 3.91897 -0.126003 0
M  V30 6467 H 623.321 4.08868 0.84952 0
M  V30 6468 N 623.758 0.647228 1.43697 0
M  V30 6469 C 624.721 -0.0385101 2.29168 0
M  V30 6470 C 625.721 -0.756487 1.41894 0
M  V30 6471 O 626.911 -0.598641 1.63591 0
M  V30 6472 C 624.043 -1.06524 3.23829 0
M  V30 6473 H 625.236 0.713445 2.9129 0
M  V30 6474 H 622.789 0.408153 1.50877 0
M  V30 6475 H 623.524 -1.84664 2.66589 0
M  V30 6476 H 623.309 -0.554147 3.88164 0
M  V30 6477 H 624.799 -1.54432 3.87996 0
M  V30 6478 N 625.236 -1.5273 0.388769 0
M  V30 6479 C 626.482 -2.01871 -0.193877 0
M  V30 6480 C 626.815 -1.27475 -1.46505 0
M  V30 6481 O 626.09 -0.375063 -1.90849 0
M  V30 6482 C 626.373 -3.5712 -0.462336 0
M  V30 6483 C 626.226 -4.42186 0.824091 0
M  V30 6484 C 627.545 -4.21881 -1.25319 0
M  V30 6485 H 624.664 -0.733764 -0.0689899 0
M  V30 6486 H 627.306 -1.82796 0.518231 0
M  V30 6487 H 625.456 -3.73504 -1.06896 0
M  V30 6488 H 627.128 -4.37554 1.46096 0
M  V30 6489 H 625.371 -4.09219 1.43952 0
M  V30 6490 H 626.042 -5.48828 0.590905 0
M  V30 6491 H 628.518 -4.0947 -0.73981 0
M  V30 6492 H 627.394 -5.30487 -1.40977 0
M  V30 6493 H 627.655 -3.79478 -2.26824 0
M  V30 6494 N 626.714 -0.118576 -1.57153 0
M  V30 6495 C 627.646 0.862247 -2.12363 0
M  V30 6496 C 628.659 1.23025 -1.06625 0
M  V30 6497 O 629.848 1.17927 -1.33998 0
M  V30 6498 C 626.948 2.16425 -2.60794 0
M  V30 6499 C 626.121 1.96801 -3.90626 0
M  V30 6500 C 625.18 3.10726 -4.2466 0
M  V30 6501 O 624.206 2.83659 -4.93484 0
M  V30 6502 N 625.408 4.37147 -3.81946 0
M  V30 6503 H 628.173 0.390564 -2.97144 0
M  V30 6504 H 625.734 0.0658591 -1.61766 0
M  V30 6505 H 627.726 2.91633 -2.80593 0
M  V30 6506 H 626.296 2.54943 -1.80895 0
M  V30 6507 H 625.516 1.05787 -3.7974 0
M  V30 6508 H 626.804 1.80993 -4.7552 0
M  V30 6509 H 626.202 4.62014 -3.26435 0
M  V30 6510 H 624.759 5.09229 -4.06853 0
M  V30 6511 N 628.193 1.56834 0.155195 0
M  V30 6512 C 629.47 1.73799 0.897395 0
M  V30 6513 C 629.85 0.684379 1.99698 0
M  V30 6514 O 629.198 -0.298111 2.26547 0
M  V30 6515 C 629.408 3.17572 1.44737 0
M  V30 6516 C 630.756 3.79014 1.91399 0
M  V30 6517 O 631.78 3.20951 1.54496 0
M  V30 6518 O 630.639 4.80998 2.59429 0
M  V30 6519 H 627.733 0.710329 0.423511 0
M  V30 6520 H 630.279 1.69107 0.141761 0
M  V30 6521 H 629.051 3.85749 0.656741 0
M  V30 6522 H 628.674 3.26657 2.26674 0
M  V30 6523 N 629.671 -0.424282 1.51781 0
M  V30 6524 C 631.082 -1.00368 1.57427 0
M  V30 6525 C 631.433 -1.91962 0.40558 0
M  V30 6526 O 630.558 -2.111 -0.47601 0
M  V30 6527 C 631.153 -1.82707 2.85313 0
M  V30 6528 C 629.712 -2.35675 2.93487 0
M  V30 6529 C 628.859 -1.1524 2.5222 0
M  V30 6530 H 631.81 -0.205064 1.5737 0
M  V30 6531 H 631.831 -2.68294 2.69812 0
M  V30 6532 H 631.343 -1.16017 3.70353 0
M  V30 6533 H 629.444 -3.05781 2.12906 0
M  V30 6534 H 629.557 -2.67578 3.97415 0
M  V30 6535 H 627.921 -1.50174 2.05718 0
M  V30 6536 H 628.704 -0.5014 3.39619 0
M  V30 6537 N 631.149 -1.42148 -0.680565 0
M  V30 6538 C 632.395 -1.42521 -1.44277 0
M  V30 6539 C 632.728 -0.0393718 -1.9416 0
M  V30 6540 O 632.003 0.935425 -1.70529 0
M  V30 6541 C 632.286 -2.44475 -2.64394 0
M  V30 6542 C 632.139 -3.92226 -2.20179 0
M  V30 6543 C 633.458 -2.43491 -3.66606 0
M  V30 6544 H 630.577 -0.518985 -0.523282 0
M  V30 6545 H 633.219 -1.73524 -0.773914 0
M  V30 6546 H 631.369 -2.18168 -3.21458 0
M  V30 6547 H 633.041 -4.29493 -1.68327 0
M  V30 6548 H 631.284 -4.0637 -1.5181 0
M  V30 6549 H 631.955 -4.59133 -3.06433 0
M  V30 6550 H 634.431 -2.66872 -3.19247 0
M  V30 6551 H 633.307 -3.16816 -4.4824 0
M  V30 6552 H 633.568 -1.45881 -4.17338 0
M  V30 6553 N 632.627 0.916307 -1.28225 0
M  V30 6554 C 633.852 1.7043 -1.18188 0
M  V30 6555 C 634.277 1.86346 0.256274 0
M  V30 6556 O 633.635 1.37175 1.18544 0
M  V30 6557 C 633.683 3.07546 -1.88275 0
M  V30 6558 O 632.787 3.94904 -1.18848 0
M  V30 6559 H 632.128 0.521967 -0.410423 0
M  V30 6560 H 634.658 1.14589 -1.69501 0
M  V30 6561 H 634.668 3.57793 -1.96082 0
M  V30 6562 H 633.343 2.95279 -2.92887 0
M  V30 6563 H 631.92 3.53339 -1.19187 0
M  V30 6564 N 634.105 1.10431 1.1244 0
M  V30 6565 C 635.352 0.846717 1.83948 0
M  V30 6566 C 635.68 -0.627709 1.84093 0
M  V30 6567 O 634.935 -1.47876 1.28184 0
M  V30 6568 C 635.234 1.34022 3.3132 0
M  V30 6569 C 634.9 2.82606 3.51347 0
M  V30 6570 C 633.562 3.23182 3.56521 0
M  V30 6571 C 635.914 3.78356 3.58464 0
M  V30 6572 C 633.242 4.58258 3.66356 0
M  V30 6573 C 635.594 5.13234 3.69829 0
M  V30 6574 C 634.258 5.53384 3.73259 0
M  V30 6575 H 633.528 0.309836 0.673114 0
M  V30 6576 H 636.175 1.38091 1.32677 0
M  V30 6577 H 634.48 0.726047 3.85014 0
M  V30 6578 H 636.177 1.11739 3.85118 0
M  V30 6579 H 632.767 2.50212 3.47983 0
M  V30 6580 H 636.951 3.48115 3.53737 0
M  V30 6581 H 632.207 4.88787 3.67284 0
M  V30 6582 H 636.381 5.87272 3.74279 0
M  V30 6583 H 634.008 6.58045 3.80633 0
M  V30 6584 N 635.583 -1.29855 0.893053 0
M  V30 6585 C 636.53 -2.27909 0.364161 0
M  V30 6586 C 637.5 -1.56726 -0.550093 0
M  V30 6587 O 638.685 -1.84747 -0.47677 0
M  V30 6588 C 635.825 -3.42678 -0.408178 0
M  V30 6589 C 634.938 -4.28659 0.536212 0
M  V30 6590 C 634.073 -5.30599 -0.252521 0
M  V30 6591 C 633.112 -6.08234 0.686822 0
M  V30 6592 N 632.249 -7.02068 -0.0670902 0
M  V30 6593 H 637.089 -2.72531 1.20544 0
M  V30 6594 H 634.626 -1.34047 0.605779 0
M  V30 6595 H 636.584 -4.07986 -0.871962 0
M  V30 6596 H 635.214 -2.99103 -1.21397 0
M  V30 6597 H 634.266 -3.63584 1.1185 0
M  V30 6598 H 635.578 -4.8274 1.25552 0
M  V30 6599 H 634.732 -6.01694 -0.777801 0
M  V30 6600 H 633.471 -4.77233 -1.005 0
M  V30 6601 H 632.476 -5.3601 1.22366 0
M  V30 6602 H 633.701 -6.63689 1.43852 0
M  V30 6603 H 631.647 -6.5108 -0.801955 0
M  V30 6604 H 631.564 -7.53675 0.59243 0
M  V30 6605 H 632.832 -7.77392 -0.572851 0
M  V30 6606 N 637.061 -0.65484 -1.43351 0
M  V30 6607 C 638.308 -0.168892 -2.01794 0
M  V30 6608 C 638.636 1.2177 -1.51665 0
M  V30 6609 O 637.891 1.82717 -0.70092 0
M  V30 6610 C 638.19 -0.130424 -3.57162 0
M  V30 6611 C 637.856 -1.45898 -4.26643 0
M  V30 6612 C 636.518 -1.82279 -4.4534 0
M  V30 6613 C 638.87 -2.33485 -4.65976 0
M  V30 6614 C 636.198 -3.0591 -5.00635 0
M  V30 6615 C 638.55 -3.5641 -5.22642 0
M  V30 6616 C 637.214 -3.92985 -5.39555 0
M  V30 6617 H 636.484 -0.061802 -0.738418 0
M  V30 6618 H 639.131 -0.845869 -1.71806 0
M  V30 6619 H 637.436 0.630008 -3.86702 0
M  V30 6620 H 639.133 0.262465 -4.0014 0
M  V30 6621 H 635.723 -1.16591 -4.12437 0
M  V30 6622 H 639.907 -2.06668 -4.51223 0
M  V30 6623 H 635.163 -3.34295 -5.11915 0
M  V30 6624 H 639.337 -4.24495 -5.52066 0
M  V30 6625 H 636.964 -4.88862 -5.82167 0
M  V30 6626 N 638.539 1.52521 -0.396863 0
M  V30 6627 C 639.764 2.06571 0.185258 0
M  V30 6628 C 640.189 1.26605 1.39115 0
M  V30 6629 O 639.547 0.293055 1.78916 0
M  V30 6630 C 639.595 3.5674 0.526189 0
M  V30 6631 O 638.699 3.7929 1.61903 0
M  V30 6632 H 638.04 0.663712 0.0195474 0
M  V30 6633 H 640.57 1.966 -0.566519 0
M  V30 6634 H 640.58 4.00311 0.788338 0
M  V30 6635 H 639.255 4.14379 -0.355397 0
M  V30 6636 H 637.832 3.47605 1.35 0
M  V30 6637 N 640.017 0.126909 1.57088 0
M  V30 6638 C 641.265 -0.528123 1.95078 0
M  V30 6639 C 641.586 -1.66708 1.0116 0
M  V30 6640 O 640.856 -1.95777 0.0693527 0
M  V30 6641 H 639.436 -0.198087 0.720257 0
M  V30 6642 H 642.098 0.197703 1.93895 0
M  V30 6643 H 641.194 -0.917507 2.98309 0
M  V30 6644 N 641.495 -1.56914 -0.146875 0
M  V30 6645 C 642.442 -1.98275 -1.18134 0
M  V30 6646 C 643.412 -0.850367 -1.42681 0
M  V30 6647 O 644.597 -1.11244 -1.55014 0
M  V30 6648 C 641.737 -2.36861 -2.5098 0
M  V30 6649 C 640.85 -3.63391 -2.33605 0
M  V30 6650 C 639.985 -3.91079 -3.59486 0
M  V30 6651 C 639.024 -5.10879 -3.37149 0
M  V30 6652 N 638.161 -5.34577 -4.55161 0
M  V30 6653 H 643.001 -2.8645 -0.821622 0
M  V30 6654 H 640.538 -1.41718 -0.394248 0
M  V30 6655 H 642.496 -2.57262 -3.28439 0
M  V30 6656 H 641.126 -1.51766 -2.84898 0
M  V30 6657 H 640.178 -3.50766 -1.47199 0
M  V30 6658 H 641.49 -4.51007 -2.13059 0
M  V30 6659 H 640.644 -4.11979 -4.45374 0
M  V30 6660 H 639.383 -3.01885 -3.83036 0
M  V30 6661 H 638.388 -4.89853 -2.49649 0
M  V30 6662 H 639.613 -6.01626 -3.14997 0
M  V30 6663 H 637.559 -4.48337 -4.78884 0
M  V30 6664 H 637.476 -6.16463 -4.37618 0
M  V30 6665 H 638.744 -5.59975 -5.42263 0
M  V30 6666 N 642.974 0.416227 -1.52004 0
M  V30 6667 C 644.222 1.16153 -1.65387 0
M  V30 6668 C 644.543 1.91208 -0.382669 0
M  V30 6669 O 643.813 1.86413 0.602231 0
M  V30 6670 H 642.393 0.431765 -0.60958 0
M  V30 6671 H 645.055 0.475151 -1.89019 0
M  V30 6672 H 644.151 1.87952 -2.4916 0
M  V30 6673 N 644.452 1.42507 0.673017 0
M  V30 6674 C 645.68 1.46473 1.46128 0
M  V30 6675 C 646.095 0.0765912 1.88645 0
M  V30 6676 O 645.452 -0.909057 1.58248 0
M  V30 6677 C 645.503 2.39339 2.70923 0
M  V30 6678 O 645.224 3.72752 2.3019 0
M  V30 6679 C 646.725 2.52343 3.64469 0
M  V30 6680 H 643.945 0.49812 0.449575 0
M  V30 6681 H 646.489 1.87041 0.826802 0
M  V30 6682 H 644.644 2.02019 3.30556 0
M  V30 6683 H 645.058 4.22503 3.10791 0
M  V30 6684 H 646.532 3.2144 4.48754 0
M  V30 6685 H 647.009 1.56189 4.1049 0
M  V30 6686 H 647.615 2.90392 3.10729 0
M  V30 6687 N 645.93 -0.909495 1.28709 0
M  V30 6688 C 646.86 -2.0291 1.15542 0
M  V30 6689 C 647.841 -1.7002 0.0521017 0
M  V30 6690 O 649.026 -1.92835 0.229849 0
M  V30 6691 C 646.156 -3.37458 0.820935 0
M  V30 6692 C 645.11 -3.84524 1.87949 0
M  V30 6693 C 644.436 -5.16086 1.39854 0
M  V30 6694 C 645.736 -4.05918 3.28676 0
M  V30 6695 H 647.43 -2.14183 2.09203 0
M  V30 6696 H 644.976 -1.02913 1.00722 0
M  V30 6697 H 646.929 -4.1528 0.715571 0
M  V30 6698 H 645.653 -3.26249 -0.151374 0
M  V30 6699 H 644.312 -3.08911 1.97408 0
M  V30 6700 H 643.96 -5.01284 0.41518 0
M  V30 6701 H 643.66 -5.48547 2.1064 0
M  V30 6702 H 645.184 -5.96459 1.30649 0
M  V30 6703 H 646.598 -4.74252 3.22115 0
M  V30 6704 H 644.995 -4.49717 3.97334 0
M  V30 6705 H 646.065 -3.10583 3.72379 0
M  V30 6706 N 647.408 -1.11026 -1.11852 0
M  V30 6707 C 648.318 -0.777252 -2.2135 0
M  V30 6708 C 649.334 0.227821 -1.72502 0
M  V30 6709 O 650.51 0.0650587 -2.01295 0
M  V30 6710 C 647.575 -0.220668 -3.45997 0
M  V30 6711 C 646.636 -1.2838 -4.09655 0
M  V30 6712 C 645.869 -0.753678 -5.28352 0
M  V30 6713 O 646.092 0.417779 -5.68868 0
M  V30 6714 O 645.026 -1.51647 -5.82483 0
M  V30 6715 H 648.852 -1.69141 -2.5224 0
M  V30 6716 H 646.437 -0.885836 -1.20305 0
M  V30 6717 H 648.319 0.0855756 -4.21313 0
M  V30 6718 H 646.994 0.666262 -3.16769 0
M  V30 6719 H 645.901 -1.64299 -3.3609 0
M  V30 6720 H 647.234 -2.14396 -4.43052 0
M  V30 6721 N 648.886 1.2938 -0.899927 0
M  V30 6722 C 649.818 2.26737 -0.335139 0
M  V30 6723 C 650.831 1.54316 0.518681 0
M  V30 6724 O 652.02 1.75313 0.335803 0
M  V30 6725 C 649.12 3.34558 0.540774 0
M  V30 6726 C 648.293 4.36455 -0.287372 0
M  V30 6727 C 647.352 5.2361 0.52141 0
M  V30 6728 O 646.378 5.69167 -0.0611735 0
M  V30 6729 N 647.58 5.50985 1.82745 0
M  V30 6730 H 650.345 2.75838 -1.17191 0
M  V30 6731 H 647.906 1.42716 -0.764438 0
M  V30 6732 H 649.898 3.89794 1.08825 0
M  V30 6733 H 648.468 2.85272 1.27823 0
M  V30 6734 H 647.688 3.80875 -1.01626 0
M  V30 6735 H 648.976 5.01573 -0.854518 0
M  V30 6736 H 648.374 5.15781 2.32349 0
M  V30 6737 H 646.931 6.09036 2.32204 0
M  V30 6738 N 650.364 0.662433 1.43002 0
M  V30 6739 C 651.294 -0.00979809 2.33498 0
M  V30 6740 C 652.275 -0.802329 1.49989 0
M  V30 6741 O 653.46 -0.761964 1.78627 0
M  V30 6742 C 650.59 -0.970446 3.33466 0
M  V30 6743 C 649.544 -0.287383 4.27034 0
M  V30 6744 C 648.87 -1.36012 5.17112 0
M  V30 6745 C 650.17 0.82595 5.15728 0
M  V30 6746 H 651.864 0.745959 2.89958 0
M  V30 6747 H 649.41 0.360172 1.39423 0
M  V30 6748 H 651.363 -1.44971 3.95679 0
M  V30 6749 H 650.087 -1.75748 2.75282 0
M  V30 6750 H 648.746 0.17152 3.66199 0
M  V30 6751 H 648.394 -2.13882 4.55262 0
M  V30 6752 H 648.094 -0.908276 5.80538 0
M  V30 6753 H 649.618 -1.84056 5.82199 0
M  V30 6754 H 651.032 0.42845 5.71697 0
M  V30 6755 H 649.429 1.20282 5.87922 0
M  V30 6756 H 650.499 1.68003 4.54866 0
M  V30 6757 N 651.842 -1.52309 0.404946 0
M  V30 6758 C 652.792 -2.23717 -0.439864 0
M  V30 6759 C 653.776 -1.24692 -1.0169 0
M  V30 6760 O 654.968 -1.49951 -0.940409 0
M  V30 6761 C 652.097 -3.05898 -1.55825 0
M  V30 6762 C 651.183 -4.12331 -0.992188 0
M  V30 6763 N 651.574 -5.0557 -0.152424 0
M  V30 6764 C 649.872 -4.2774 -1.26312 0
M  V30 6765 C 650.573 -5.81474 0.162041 0
M  V30 6766 N 649.549 -5.41767 -0.44601 0
M  V30 6767 H 653.351 -2.93162 0.208084 0
M  V30 6768 H 650.865 -1.60969 0.215131 0
M  V30 6769 H 652.862 -3.55605 -2.17603 0
M  V30 6770 H 651.522 -2.37991 -2.20886 0
M  V30 6771 H 652.533 -5.17468 0.211556 0
M  V30 6772 H 649.21 -3.71062 -1.91362 0
M  V30 6773 H 650.6 -6.66585 0.843423 0
M  V30 6774 N 653.32 -0.135238 -1.57019 0
M  V30 6775 C 654.548 0.526066 -2.001 0
M  V30 6776 C 654.963 1.59184 -1.01519 0
M  V30 6777 O 654.32 1.82497 -0.0104258 0
M  V30 6778 C 654.371 1.13744 -3.43139 0
M  V30 6779 O 654.092 0.114259 -4.37951 0
M  V30 6780 C 655.593 1.8805 -4.01438 0
M  V30 6781 H 652.813 0.137962 -0.656664 0
M  V30 6782 H 655.357 -0.226359 -2.03243 0
M  V30 6783 H 653.512 1.84056 -3.40885 0
M  V30 6784 H 653.926 0.56058 -5.21496 0
M  V30 6785 H 655.4 2.26133 -5.03555 0
M  V30 6786 H 655.877 2.76194 -3.41487 0
M  V30 6787 H 656.483 1.22464 -4.07287 0
M  V30 6788 N 654.798 1.5699 0.138552 0
M  V30 6789 C 656.044 1.84081 0.85099 0
M  V30 6790 C 656.377 0.718107 1.80435 0
M  V30 6791 O 655.652 -0.277633 1.92508 0
M  V30 6792 C 655.935 3.21699 1.61808 0
M  V30 6793 C 655.788 4.44544 0.685633 0
M  V30 6794 C 657.107 3.5664 2.57868 0
M  V30 6795 H 654.226 0.669592 0.307922 0
M  V30 6796 H 656.868 1.89646 0.11588 0
M  V30 6797 H 655.018 3.17086 2.24474 0
M  V30 6798 H 656.69 4.61248 0.0693179 0
M  V30 6799 H 654.933 4.338 -0.00421993 0
M  V30 6800 H 655.604 5.3746 1.25858 0
M  V30 6801 H 658.08 3.61918 2.05316 0
M  V30 6802 H 656.956 4.53946 3.08584 0
M  V30 6803 H 657.217 2.83036 3.39622 0
M  V30 6804 N 656.276 -0.40816 1.52223 0
M  V30 6805 C 657.504 -1.17672 1.70179 0
M  V30 6806 C 657.919 -1.84257 0.411696 0
M  V30 6807 O 657.276 -1.7192 -0.612354 0
M  V30 6808 C 657.327 -2.23911 2.83806 0
M  V30 6809 O 657.048 -1.60044 4.0782 0
M  V30 6810 C 658.549 -3.1364 3.13281 0
M  V30 6811 H 655.769 -0.353562 0.570293 0
M  V30 6812 H 658.313 -0.480083 1.98785 0
M  V30 6813 H 656.468 -2.89242 2.57717 0
M  V30 6814 H 656.882 -2.30484 4.71145 0
M  V30 6815 H 658.356 -3.84255 3.96298 0
M  V30 6816 H 658.833 -3.76066 2.26872 0
M  V30 6817 H 659.439 -2.53977 3.41139 0
M  V30 6818 N 657.755 -1.42862 -0.66545 0
M  V30 6819 C 658.718 -1.46756 -1.76055 0
M  V30 6820 C 659.718 -0.353866 -1.56858 0
M  V30 6821 O 660.908 -0.615099 -1.62979 0
M  V30 6822 C 658.04 -1.30829 -3.14796 0
M  V30 6823 H 659.233 -2.44271 -1.73987 0
M  V30 6824 H 656.786 -1.29447 -0.875965 0
M  V30 6825 H 657.521 -0.342733 -3.22484 0
M  V30 6826 H 657.306 -2.11551 -3.30134 0
M  V30 6827 H 658.796 -1.36458 -3.94676 0
M  V30 6828 N 659.233 0.902656 -1.29189 0
M  V30 6829 C 660.48 1.65287 -1.16989 0
M  V30 6830 C 660.808 1.92485 0.279232 0
M  V30 6831 O 660.063 1.53143 1.21843 0
M  V30 6832 C 660.362 3.011 -1.92545 0
M  V30 6833 C 660.028 2.93521 -3.42281 0
M  V30 6834 C 658.69 2.91161 -3.83117 0
M  V30 6835 C 661.042 2.82947 -4.3771 0
M  V30 6836 C 658.37 2.76043 -5.17704 0
M  V30 6837 C 660.722 2.69368 -5.72384 0
M  V30 6838 C 659.386 2.65373 -6.12482 0
M  V30 6839 H 658.656 0.604828 -0.428094 0
M  V30 6840 H 661.303 1.05084 -1.60092 0
M  V30 6841 H 659.608 3.65153 -1.42024 0
M  V30 6842 H 661.305 3.58073 -1.80512 0
M  V30 6843 H 657.895 2.96158 -3.09819 0
M  V30 6844 H 662.079 2.83849 -4.07116 0
M  V30 6845 H 657.335 2.71352 -5.47885 0
M  V30 6846 H 661.509 2.60156 -6.45981 0
M  V30 6847 H 659.136 2.53415 -7.16718 0
M  V30 6848 N 660.711 1.11618 1.11262 0
M  V30 6849 C 661.621 0.78898 2.20935 0
M  V30 6850 C 662.637 -0.21867 1.7262 0
M  V30 6851 O 663.813 -0.0543826 2.01327 0
M  V30 6852 C 660.878 0.239014 3.45875 0
M  V30 6853 C 659.939 1.3055 4.08968 0
M  V30 6854 C 659.172 0.781687 5.27944 0
M  V30 6855 O 659.395 -0.387605 5.69082 0
M  V30 6856 O 658.329 1.54734 5.81671 0
M  V30 6857 H 662.155 1.70477 2.51339 0
M  V30 6858 H 659.74 0.892203 1.19834 0
M  V30 6859 H 661.622 -0.0632312 4.21353 0
M  V30 6860 H 660.297 -0.649454 3.17118 0
M  V30 6861 H 659.204 1.66079 3.35214 0
M  V30 6862 H 660.537 2.16743 4.41909 0
M  V30 6863 N 662.189 -1.289 0.906776 0
M  V30 6864 C 663.119 -2.29932 0.406659 0
M  V30 6865 C 664.1 -1.6189 -0.522061 0
M  V30 6866 O 665.285 -1.8935 -0.431283 0
M  V30 6867 C 662.415 -3.45425 -0.360366 0
M  V30 6868 C 661.369 -4.25316 0.478574 0
M  V30 6869 C 660.695 -5.33076 -0.416373 0
M  V30 6870 C 661.995 -4.92739 1.7322 0
M  V30 6871 H 663.689 -2.72013 1.25097 0
M  V30 6872 H 661.235 -1.30768 0.602977 0
M  V30 6873 H 663.188 -4.15186 -0.721029 0
M  V30 6874 H 661.912 -3.02206 -1.23852 0
M  V30 6875 H 660.571 -3.57273 0.821662 0
M  V30 6876 H 660.219 -4.86101 -1.29287 0
M  V30 6877 H 659.919 -5.8743 0.141309 0
M  V30 6878 H 661.443 -6.05686 -0.773072 0
M  V30 6879 H 662.857 -5.54898 1.44086 0
M  V30 6880 H 661.254 -5.57057 2.23175 0
M  V30 6881 H 662.324 -4.17625 2.46408 0
M  V30 6882 N 663.667 -0.670007 -1.42649 0
M  V30 6883 C 664.597 -0.00258501 -2.335 0
M  V30 6884 C 665.578 0.794364 -1.50412 0
M  V30 6885 O 666.763 0.75248 -1.79029 0
M  V30 6886 C 663.893 0.952748 -3.33976 0
M  V30 6887 C 662.847 0.264733 -4.2718 0
M  V30 6888 C 662.173 1.33267 -5.17826 0
M  V30 6889 C 663.473 -0.853289 -5.15283 0
M  V30 6890 H 665.167 -0.761326 -2.89559 0
M  V30 6891 H 662.713 -0.367561 -1.3923 0
M  V30 6892 H 664.666 1.4287 -3.96442 0
M  V30 6893 H 663.39 1.74285 -2.7621 0
M  V30 6894 H 662.049 -0.190938 -3.66102 0
M  V30 6895 H 661.697 2.11464 -4.5639 0
M  V30 6896 H 661.397 0.877476 -5.81011 0
M  V30 6897 H 662.921 1.80965 -5.83167 0
M  V30 6898 H 664.335 -0.458763 -5.71462 0
M  V30 6899 H 662.732 -1.23398 -5.87276 0
M  V30 6900 H 663.802 -1.70412 -4.53969 0
M  V30 6901 N 665.145 1.52092 -0.413018 0
M  V30 6902 C 666.093 2.28681 0.425199 0
M  V30 6903 C 667.087 1.3353 1.04241 0
M  V30 6904 O 668.293 1.50973 0.980166 0
M  V30 6905 H 664.668 0.735661 0.155906 0
M  V30 6906 H 666.639 2.97418 -0.241926 0
M  V30 6907 C 665.388 3.1235 1.5275 0
M  V30 6908 H 664.711 3.85439 1.06191 0
M  V30 6909 H 666.151 3.69038 2.08774 0
M  V30 6910 C 664.61 2.26161 2.49706 0
M  V30 6911 O 665.14 1.90452 3.53682 0
M  V30 6912 N 663.346 1.89854 2.20008 0
M  V30 6913 H 662.893 2.19092 1.35486 0
M  V30 6914 H 662.851 1.3248 2.85125 0
M  V30 6915 N 666.623 0.143563 1.56945 0
M  V30 6916 C 667.869 -0.50916 1.96304 0
M  V30 6917 C 668.202 -1.64741 1.0283 0
M  V30 6918 O 667.477 -1.94374 0.0700361 0
M  V30 6919 C 667.76 -1.0186 3.45393 0
M  V30 6920 C 667.613 0.117923 4.49645 0
M  V30 6921 C 668.932 -1.90151 3.96901 0
M  V30 6922 H 666.051 -0.183608 0.713763 0
M  V30 6923 H 668.693 0.224095 1.88674 0
M  V30 6924 H 666.843 -1.64345 3.52027 0
M  V30 6925 H 668.515 0.754145 4.55094 0
M  V30 6926 H 666.758 0.777568 4.26774 0
M  V30 6927 H 667.429 -0.280187 5.51288 0
M  V30 6928 H 669.905 -1.375 3.92725 0
M  V30 6929 H 668.781 -2.22707 5.0169 0
M  V30 6930 H 669.042 -2.83718 3.39052 0
M  V30 6931 N 668.101 -1.57061 -0.130224 0
M  V30 6932 C 669.329 -1.88432 -0.854456 0
M  V30 6933 C 669.744 -0.733608 -1.73964 0
M  V30 6934 O 669.101 0.296029 -1.80083 0
M  V30 6935 C 669.152 -3.1918 -1.69724 0
M  V30 6936 O 668.873 -4.2982 -0.847705 0
M  V30 6937 C 670.374 -3.6418 -2.5276 0
M  V30 6938 H 667.594 -0.624193 -0.246221 0
M  V30 6939 H 670.138 -2.04159 -0.11798 0
M  V30 6940 H 668.293 -3.05156 -2.3866 0
M  V30 6941 H 668.707 -5.04689 -1.42792 0
M  V30 6942 H 670.181 -4.58457 -3.07443 0
M  V30 6943 H 670.658 -2.90285 -3.29592 0
M  V30 6944 H 671.264 -3.80954 -1.89087 0
M  V30 6945 N 669.579 0.400081 -1.52437 0
M  V30 6946 C 670.489 1.51253 -1.79331 0
M  V30 6947 C 671.505 1.60188 -0.679396 0
M  V30 6948 O 672.681 1.76733 -0.965791 0
M  V30 6949 C 669.746 2.869 -1.94652 0
M  V30 6950 C 668.807 2.87777 -3.18564 0
M  V30 6951 C 668.04 4.16954 -3.33145 0
M  V30 6952 O 668.263 5.11329 -2.52783 0
M  V30 6953 O 667.197 4.2487 -4.26343 0
M  V30 6954 H 671.023 1.31461 -2.73773 0
M  V30 6955 H 668.608 0.586834 -1.37392 0
M  V30 6956 H 670.49 3.67336 -2.065 0
M  V30 6957 H 669.165 3.06741 -1.034 0
M  V30 6958 H 668.072 2.06162 -3.12167 0
M  V30 6959 H 669.405 2.72886 -4.09627 0
M  V30 6960 N 671.057 1.43213 0.657864 0
M  V30 6961 C 672.304 1.44584 1.41781 0
M  V30 6962 C 672.632 0.0684208 1.9438 0
M  V30 6963 O 671.887 -0.925872 1.72413 0
M  V30 6964 C 672.186 2.43143 2.61947 0
M  V30 6965 C 671.852 3.89128 2.27794 0
M  V30 6966 C 670.514 4.28889 2.18191 0
M  V30 6967 C 672.866 4.81144 2.00375 0
M  V30 6968 C 670.194 5.58625 1.79319 0
M  V30 6969 C 672.546 6.11239 1.63003 0
M  V30 6970 C 671.21 6.49981 1.51922 0
M  V30 6971 H 670.48 0.529069 0.518813 0
M  V30 6972 H 673.127 1.76263 0.748577 0
M  V30 6973 H 671.432 2.04851 3.33981 0
M  V30 6974 H 673.129 2.4146 3.20153 0
M  V30 6975 H 669.719 3.57657 2.36176 0
M  V30 6976 H 673.903 4.512 2.06718 0
M  V30 6977 H 669.159 5.87486 1.69323 0
M  V30 6978 H 673.333 6.82014 1.40817 0
M  V30 6979 H 670.96 7.50416 1.21572 0
M  V30 6980 N 672.536 -0.895792 1.29666 0
M  V30 6981 C 673.813 -1.62723 1.08538 0
M  V30 6982 C 674.193 -2.07848 -0.369119 0
M  V30 6983 O 673.541 -1.8372 -1.35864 0
M  V30 6984 C 673.751 -2.80505 2.07648 0
M  V30 6985 C 675.099 -3.51098 2.3878 0
M  V30 6986 O 676.123 -2.90679 2.05874 0
M  V30 6987 O 674.982 -4.60028 2.9502 0
M  V30 6988 H 672.076 -0.714692 0.416106 0
M  V30 6989 H 674.622 -0.943517 1.41053 0
M  V30 6990 H 673.394 -2.44386 3.05599 0
M  V30 6991 H 673.017 -3.5658 1.75887 0
M  V30 6992 N 674.014 -1.12206 -1.10668 0
M  V30 6993 C 675.261 -0.875875 -1.82578 0
M  V30 6994 C 675.589 0.598342 -1.85068 0
M  V30 6995 O 674.844 1.45818 -1.3052 0
M  V30 6996 C 675.143 -1.39276 -3.29146 0
M  V30 6997 C 674.809 -2.8816 -3.46806 0
M  V30 6998 C 673.471 -3.28813 -3.51334 0
M  V30 6999 C 675.823 -3.8401 -3.52399 0
M  V30 7000 C 673.151 -4.64028 -3.59019 0
M  V30 7001 C 675.503 -5.19053 -3.61617 0
M  V30 7002 C 674.167 -5.59252 -3.64408 0
M  V30 7003 H 673.437 -0.320505 -0.6681 0
M  V30 7004 H 676.084 -1.40184 -1.30464 0
M  V30 7005 H 674.389 -0.787207 -3.8381 0
M  V30 7006 H 676.086 -1.17851 -3.83291 0
M  V30 7007 H 672.676 -2.55716 -3.43958 0
M  V30 7008 H 676.86 -3.53698 -3.48154 0
M  V30 7009 H 672.116 -4.94568 -3.59461 0
M  V30 7010 H 676.29 -5.93152 -3.64889 0
M  V30 7011 H 673.917 -6.64017 -3.70116 0
M  V30 7012 N 675.492 1.28418 -0.913599 0
M  V30 7013 C 676.72 1.99106 -0.562536 0
M  V30 7014 C 677.135 1.68273 0.856137 0
M  V30 7015 O 676.492 0.935401 1.56705 0
M  V30 7016 C 676.543 3.5338 -0.761903 0
M  V30 7017 O 676.264 3.83127 -2.12475 0
M  V30 7018 C 677.765 4.41328 -0.417651 0
M  V30 7019 H 674.985 0.635798 -0.214481 0
M  V30 7020 H 677.529 1.63618 -1.22676 0
M  V30 7021 H 675.684 3.8713 -0.144676 0
M  V30 7022 H 676.098 4.77763 -2.16431 0
M  V30 7023 H 677.572 5.48642 -0.607919 0
M  V30 7024 H 678.049 4.34422 0.646108 0
M  V30 7025 H 678.655 4.13074 -1.01241 0
M  V30 7026 N 676.97 0.677563 1.42291 0
M  V30 7027 C 678.195 0.207901 2.06355 0
M  V30 7028 C 678.62 -1.12723 1.50583 0
M  V30 7029 O 677.978 -1.70171 0.62543 0
M  V30 7030 C 678.026 0.156489 3.6026 0
M  V30 7031 O 677.13 -0.874162 4.03029 0
M  V30 7032 H 676.471 0.106056 0.655475 0
M  V30 7033 H 679.001 0.927354 1.82377 0
M  V30 7034 H 679.011 -0.0187258 4.07996 0
M  V30 7035 H 677.686 1.13101 4.00226 0
M  V30 7036 H 676.263 -0.669764 3.66836 0
M  V30 7037 N 678.448 -1.51871 0.421078 0
M  V30 7038 C 679.673 -2.0684 -0.152371 0
M  V30 7039 C 680.098 -1.28802 -1.37083 0
M  V30 7040 O 679.456 -0.321482 -1.78427 0
M  V30 7041 C 679.504 -3.57532 -0.469368 0
M  V30 7042 O 678.608 -3.81818 -1.55848 0
M  V30 7043 H 677.949 -0.663939 -0.00898586 0
M  V30 7044 H 680.479 -1.95674 0.597724 0
M  V30 7045 H 680.489 -4.01515 -0.724553 0
M  V30 7046 H 679.164 -4.13761 0.421276 0
M  V30 7047 H 677.741 -3.49709 -1.29453 0
M  V30 7048 N 679.926 -0.151884 -1.56866 0
M  V30 7049 C 680.859 0.824094 -2.128 0
M  V30 7050 C 681.837 1.2391 -1.05286 0
M  V30 7051 O 683.021 1.33433 -1.33146 0
M  V30 7052 C 680.148 2.1072 -2.65169 0
M  V30 7053 C 679.194 1.83774 -3.84876 0
M  V30 7054 S 680.027 1.02436 -5.25611 0
M  V30 7055 C 681.183 2.31855 -5.81373 0
M  V30 7056 H 681.416 0.348456 -2.95251 0
M  V30 7057 H 678.949 0.0624794 -1.54274 0
M  V30 7058 H 680.907 2.84428 -2.95992 0
M  V30 7059 H 679.568 2.55398 -1.8284 0
M  V30 7060 H 678.761 2.78929 -4.19779 0
M  V30 7061 H 678.363 1.18172 -3.5484 0
M  V30 7062 H 680.655 3.27469 -5.93102 0
M  V30 7063 H 681.598 2.01449 -6.7884 0
M  V30 7064 H 682.006 2.42727 -5.09651 0
M  V30 7065 N 681.404 1.57128 0.121893 0
M  V30 7066 C 682.681 1.75664 0.860327 0
M  V30 7067 C 683.061 0.726585 1.98202 0
M  V30 7068 O 682.409 -0.24999 2.27128 0
M  V30 7069 C 682.619 3.20571 1.37968 0
M  V30 7070 C 683.967 3.82988 1.83317 0
M  V30 7071 O 684.991 3.24156 1.47654 0
M  V30 7072 O 683.85 4.86393 2.49168 0
M  V30 7073 H 680.944 0.719153 0.408348 0
M  V30 7074 H 683.49 1.6937 0.105859 0
M  V30 7075 H 682.262 3.87056 0.57477 0
M  V30 7076 H 681.885 3.31392 2.19694 0
M  V30 7077 N 682.882 -0.391992 1.52647 0
M  V30 7078 C 683.83 -1.4991 1.77848 0
M  V30 7079 C 684.824 -1.56587 0.646282 0
M  V30 7080 O 686.03 -1.59789 0.828698 0
M  V30 7081 H 682.405 -0.498883 0.56269 0
M  V30 7082 H 684.376 -1.25847 2.70564 0
M  V30 7083 C 683.125 -2.87081 1.96163 0
M  V30 7084 H 682.448 -2.82692 2.82711 0
M  V30 7085 H 683.888 -3.63792 2.17787 0
M  V30 7086 C 682.347 -3.28822 0.733348 0
M  V30 7087 O 682.877 -4.01598 -0.0906481 0
M  V30 7088 N 681.083 -2.85068 0.564317 0
M  V30 7089 H 680.63 -2.26012 1.23598 0
M  V30 7090 H 680.588 -3.13355 -0.256166 0
M  V30 7091 N 684.36 -1.4356 -0.65026 0
M  V30 7092 C 685.323 -1.48615 -1.74489 0
M  V30 7093 C 686.323 -0.370483 -1.56474 0
M  V30 7094 O 687.513 -0.632351 -1.62317 0
M  V30 7095 C 684.645 -1.34161 -3.13391 0
M  V30 7096 H 685.838 -2.46103 -1.71387 0
M  V30 7097 H 683.391 -1.30369 -0.862186 0
M  V30 7098 H 684.126 -0.376918 -3.22102 0
M  V30 7099 H 683.911 -2.1504 -3.27872 0
M  V30 7100 H 685.401 -1.40637 -3.93206 0
M  V30 7101 N 685.838 0.888903 -1.30139 0
M  V30 7102 C 687.063 1.67884 -1.21777 0
M  V30 7103 C 687.488 1.86848 0.216689 0
M  V30 7104 O 686.846 1.39659 1.15608 0
M  V30 7105 C 686.894 3.03483 -1.94757 0
M  V30 7106 O 685.998 3.92294 -1.27198 0
M  V30 7107 H 685.339 0.513144 -0.421402 0
M  V30 7108 H 687.869 1.10968 -1.71893 0
M  V30 7109 H 687.879 3.53553 -2.03627 0
M  V30 7110 H 686.554 2.89 -2.99085 0
M  V30 7111 H 685.131 3.50732 -1.26655 0
M  V30 7112 N 687.317 1.12792 1.10072 0
M  V30 7113 C 688.564 0.885545 1.82111 0
M  V30 7114 C 688.892 -0.588519 1.85383 0
M  V30 7115 O 688.147 -1.45124 1.31292 0
M  V30 7116 C 688.446 1.4102 3.28403 0
M  V30 7117 C 688.112 2.89995 3.45273 0
M  V30 7118 C 686.774 3.30671 3.49585 0
M  V30 7119 C 689.126 3.85874 3.50358 0
M  V30 7120 C 686.454 4.65925 3.56553 0
M  V30 7121 C 688.806 5.20963 3.58859 0
M  V30 7122 C 687.47 5.61177 3.61437 0
M  V30 7123 H 686.74 0.324044 0.666391 0
M  V30 7124 H 689.387 1.40874 1.29718 0
M  V30 7125 H 687.692 0.807551 3.83387 0
M  V30 7126 H 689.389 1.19882 3.82661 0
M  V30 7127 H 685.979 2.57537 3.42597 0
M  V30 7128 H 690.163 3.5554 3.46273 0
M  V30 7129 H 685.419 4.96468 3.56833 0
M  V30 7130 H 689.593 5.95079 3.61738 0
M  V30 7131 H 687.22 6.6597 3.66589 0
M  V30 7132 N 688.795 -1.27931 0.920396 0
M  V30 7133 C 689.725 -2.29487 0.431024 0
M  V30 7134 C 690.706 -1.62435 -0.504861 0
M  V30 7135 O 691.891 -1.89797 -0.411176 0
M  V30 7136 C 689.021 -3.45788 -0.323709 0
M  V30 7137 C 687.975 -4.24784 0.523658 0
M  V30 7138 C 687.301 -5.33488 -0.359809 0
M  V30 7139 C 688.601 -4.90874 1.78437 0
M  V30 7140 H 690.295 -2.70671 1.27975 0
M  V30 7141 H 687.841 -1.30121 0.616813 0
M  V30 7142 H 689.794 -4.15927 -0.676952 0
M  V30 7143 H 688.518 -3.03502 -1.2064 0
M  V30 7144 H 687.177 -3.56382 0.85951 0
M  V30 7145 H 686.825 -4.87445 -1.24124 0
M  V30 7146 H 686.525 -5.87247 0.203605 0
M  V30 7147 H 688.049 -6.06472 -0.708787 0
M  V30 7148 H 689.463 -5.53339 1.49963 0
M  V30 7149 H 687.86 -5.54659 2.29071 0
M  V30 7150 H 688.93 -4.14988 2.50824 0
M  V30 7151 N 690.273 -0.685099 -1.4193 0
M  V30 7152 C 691.183 -0.013404 -2.34596 0
M  V30 7153 C 692.199 0.777589 -1.55658 0
M  V30 7154 O 693.375 0.717553 -1.88184 0
M  V30 7155 C 690.44 0.919031 -3.34297 0
M  V30 7156 C 689.501 0.121417 -4.29128 0
M  V30 7157 C 688.734 1.00944 -5.24067 0
M  V30 7158 O 688.957 2.24898 -5.24192 0
M  V30 7159 O 687.891 0.464724 -6.00103 0
M  V30 7160 H 691.717 -0.776978 -2.93593 0
M  V30 7161 H 689.302 -0.445379 -1.42607 0
M  V30 7162 H 691.184 1.45402 -3.9552 0
M  V30 7163 H 689.859 1.66228 -2.77759 0
M  V30 7164 H 688.766 -0.45792 -3.71287 0
M  V30 7165 H 690.099 -0.582937 -4.88736 0
M  V30 7166 N 691.751 1.51645 -0.429126 0
M  V30 7167 C 692.998 2.02015 0.140079 0
M  V30 7168 C 693.326 1.31374 1.43427 0
M  V30 7169 O 692.581 0.414779 1.91254 0
M  V30 7170 C 692.88 3.54989 0.414472 0
M  V30 7171 C 692.546 4.43874 -0.792911 0
M  V30 7172 C 691.208 4.67887 -1.12404 0
M  V30 7173 C 693.56 4.96074 -1.59875 0
M  V30 7174 C 690.888 5.41348 -2.26184 0
M  V30 7175 C 693.24 5.70782 -2.72747 0
M  V30 7176 C 691.904 5.93062 -3.06324 0
M  V30 7177 H 691.174 0.739225 0.0512585 0
M  V30 7178 H 693.821 1.82675 -0.574641 0
M  V30 7179 H 692.126 3.72615 1.21099 0
M  V30 7180 H 693.823 3.91489 0.868173 0
M  V30 7181 H 690.413 4.25374 -0.524871 0
M  V30 7182 H 694.597 4.77412 -1.35614 0
M  V30 7183 H 689.853 5.56815 -2.52522 0
M  V30 7184 H 694.027 6.10221 -3.35564 0
M  V30 7185 H 691.654 6.49764 -3.94602 0
M  V30 7186 N 693.229 0.160201 1.56784 0
M  V30 7187 C 694.176 -0.774416 2.1742 0
M  V30 7188 C 695.146 -1.23483 1.11091 0
M  V30 7189 O 696.331 -1.30499 1.39193 0
M  V30 7190 C 693.471 -2.00283 2.81035 0
M  V30 7191 C 692.584 -1.58701 4.01793 0
M  V30 7192 C 691.719 -2.76824 4.53367 0
M  V30 7193 C 690.758 -2.31679 5.66561 0
M  V30 7194 N 689.895 -3.42856 6.12694 0
M  V30 7195 H 694.735 -0.250542 2.96945 0
M  V30 7196 H 692.272 -0.111943 1.46673 0
M  V30 7197 H 694.23 -2.72316 3.16069 0
M  V30 7198 H 692.86 -2.5006 2.04132 0
M  V30 7199 H 691.912 -0.76384 3.72652 0
M  V30 7200 H 693.224 -1.21555 4.83762 0
M  V30 7201 H 692.378 -3.57029 4.90525 0
M  V30 7202 H 691.117 -3.17223 3.70433 0
M  V30 7203 H 690.122 -1.49917 5.28966 0
M  V30 7204 H 691.347 -1.9235 6.5129 0
M  V30 7205 H 689.293 -3.82852 5.32692 0
M  V30 7206 H 689.21 -3.09767 6.89624 0
M  V30 7207 H 690.478 -4.23379 6.545 0
M  V30 7208 N 694.707 -1.5719 -0.113559 0
M  V30 7209 C 695.655 -2.01725 -1.158 0
M  V30 7210 C 696.649 -0.915105 -1.42556 0
M  V30 7211 O 697.855 -1.10031 -1.42454 0
M  V30 7212 H 694.23 -0.64262 -0.390569 0
M  V30 7213 H 696.201 -2.88666 -0.755926 0
M  V30 7214 C 694.95 -2.44203 -2.47507 0
M  V30 7215 H 694.273 -3.28582 -2.27758 0
M  V30 7216 H 695.713 -2.79158 -3.19135 0
M  V30 7217 C 694.172 -1.30785 -3.10478 0
M  V30 7218 O 694.702 -0.626807 -3.9678 0
M  V30 7219 N 692.908 -1.06352 -2.7044 0
M  V30 7220 H 692.455 -1.61913 -2.00355 0
M  V30 7221 H 692.413 -0.306614 -3.12901 0
M  V30 7222 N 696.185 0.383891 -1.52853 0
M  V30 7223 C 697.434 1.12563 -1.67369 0
M  V30 7224 C 697.747 1.90982 -0.422533 0
M  V30 7225 O 698.953 2.6778 -0.447914 0
M  V30 7226 C 697.409 2.05011 -2.95801 0
M  V30 7227 C 697.017 1.31991 -4.28115 0
M  V30 7228 C 698.761 2.79289 -3.19684 0
M  V30 7229 C 696.668 2.23235 -5.4765 0
M  V30 7230 H 695.598 0.42391 -0.623552 0
M  V30 7231 H 698.249 0.388016 -1.79351 0
M  V30 7232 H 696.631 2.82429 -2.77578 0
M  V30 7233 H 697.805 0.597633 -4.56908 0
M  V30 7234 H 696.12 0.696517 -4.10533 0
M  V30 7235 H 698.717 3.47749 -4.06171 0
M  V30 7236 H 699.06 3.43649 -2.3497 0
M  V30 7237 H 699.593 2.08962 -3.38496 0
M  V30 7238 H 696.332 1.63482 -6.34786 0
M  V30 7239 H 695.852 2.93364 -5.23161 0
M  V30 7240 H 697.531 2.83205 -5.81725 0
M  V30 7241 N 697.663 1.43903 0.642637 0
M  V30 7242 C 698.909 1.46296 1.40447 0
M  V30 7243 C 699.242 0.0908361 1.93987 0
M  V30 7244 O 698.517 -0.889884 1.72949 0
M  V30 7245 C 698.8 2.51399 2.57819 0
M  V30 7246 C 698.653 3.97926 2.09702 0
M  V30 7247 C 699.972 2.53125 3.60022 0
M  V30 7248 H 697.091 0.532676 0.509338 0
M  V30 7249 H 699.733 1.75515 0.727635 0
M  V30 7250 H 697.883 2.26614 3.1556 0
M  V30 7251 H 699.555 4.33804 1.5688 0
M  V30 7252 H 697.798 4.10252 1.40982 0
M  V30 7253 H 698.469 4.67096 2.94152 0
M  V30 7254 H 700.945 2.75242 3.12059 0
M  V30 7255 H 699.821 3.28589 4.39682 0
M  V30 7256 H 700.082 1.56895 4.13324 0
M  V30 7257 N 699.141 -0.881989 1.30609 0
M  V30 7258 C 700.366 -1.67236 1.22665 0
M  V30 7259 C 700.791 -1.8696 -0.206777 0
M  V30 7260 O 700.149 -1.4027 -1.14865 0
M  V30 7261 C 700.197 -3.02446 1.96363 0
M  V30 7262 O 699.301 -3.91614 1.29276 0
M  V30 7263 H 698.642 -0.510902 0.424117 0
M  V30 7264 H 701.172 -1.10055 1.72479 0
M  V30 7265 H 701.182 -3.52468 2.055 0
M  V30 7266 H 699.857 -2.8741 3.00613 0
M  V30 7267 H 698.434 -3.50055 1.28514 0
M  V30 7268 N 700.619 -1.13374 -1.09472 0
M  V30 7269 C 701.569 -0.77946 -2.14263 0
M  V30 7270 C 702.553 0.226271 -1.59301 0
M  V30 7271 O 703.745 0.0302581 -1.76974 0
M  V30 7272 C 700.874 -0.246635 -3.42413 0
M  V30 7273 C 699.96 -1.28124 -4.04283 0
M  V30 7274 N 700.351 -2.48201 -4.40715 0
M  V30 7275 C 698.649 -1.12892 -4.31476 0
M  V30 7276 C 699.35 -3.14347 -4.8945 0
M  V30 7277 N 698.326 -2.41771 -4.86876 0
M  V30 7278 H 702.128 -1.69305 -2.40235 0
M  V30 7279 H 699.642 -1.01598 -1.26695 0
M  V30 7280 H 701.639 0.0254131 -4.16892 0
M  V30 7281 H 700.299 0.661287 -3.17895 0
M  V30 7282 H 701.31 -2.85511 -4.32093 0
M  V30 7283 H 697.987 -0.279117 -4.16566 0
M  V30 7284 H 699.377 -4.16663 -5.27107 0
M  V30 7285 N 702.098 1.27442 -0.927168 0
M  V30 7286 C 703.028 2.29256 -0.443188 0
M  V30 7287 C 704.009 1.62701 0.49624 0
M  V30 7288 O 705.194 1.90013 0.401105 0
M  V30 7289 C 702.324 3.45955 0.305366 0
M  V30 7290 C 701.278 4.24501 -0.546178 0
M  V30 7291 C 700.604 5.33671 0.331512 0
M  V30 7292 C 701.904 4.89921 -1.81037 0
M  V30 7293 H 703.598 2.69988 -1.29409 0
M  V30 7294 H 701.144 1.29792 -0.623705 0
M  V30 7295 H 703.097 4.1628 0.654885 0
M  V30 7296 H 701.821 3.04138 1.19029 0
M  V30 7297 H 700.48 3.55921 -0.878398 0
M  V30 7298 H 700.128 4.88096 1.21537 0
M  V30 7299 H 699.828 5.87131 -0.234746 0
M  V30 7300 H 701.352 6.0684 0.676614 0
M  V30 7301 H 702.766 5.52536 -1.52895 0
M  V30 7302 H 701.163 5.53436 -2.32009 0
M  V30 7303 H 702.233 4.13652 -2.53021 0
M  V30 7304 N 703.576 0.692616 1.41565 0
M  V30 7305 C 704.825 0.219452 2.00503 0
M  V30 7306 C 705.138 -1.18683 1.55479 0
M  V30 7307 O 706.344 -1.75731 2.06956 0
M  V30 7308 C 704.8 0.341451 3.58277 0
M  V30 7309 C 704.408 1.75291 4.12283 0
M  V30 7310 C 706.152 -0.0720899 4.24439 0
M  V30 7311 C 704.059 1.82673 5.62481 0
M  V30 7312 H 702.989 0.0782874 0.749925 0
M  V30 7313 H 705.64 0.860386 1.62079 0
M  V30 7314 H 704.022 -0.367683 3.94289 0
M  V30 7315 H 705.196 2.49057 3.87695 0
M  V30 7316 H 703.511 2.11587 3.58636 0
M  V30 7317 H 706.108 -0.0373385 5.34687 0
M  V30 7318 H 706.451 -1.11034 4.0122 0
M  V30 7319 H 706.984 0.586663 3.9345 0
M  V30 7320 H 703.723 2.84539 5.90523 0
M  V30 7321 H 703.243 1.13288 5.89004 0
M  V30 7322 H 704.922 1.58827 6.27203 0
M  V30 7323 N 705.054 -1.51416 0.437162 0
M  V30 7324 C 706.302 -2.01687 -0.129108 0
M  V30 7325 C 706.623 -1.32329 -1.43227 0
M  V30 7326 O 705.893 -0.457796 -1.90476 0
M  V30 7327 H 704.473 -0.745277 -0.0507023 0
M  V30 7328 H 707.135 -1.86075 0.579828 0
M  V30 7329 H 706.231 -3.10605 -0.305141 0
M  V30 7330 N 706.532 -0.168513 -1.56696 0
M  V30 7331 C 707.482 0.7751 -2.14421 0
M  V30 7332 C 708.466 1.19476 -1.07769 0
M  V30 7333 O 709.658 1.15759 -1.33898 0
M  V30 7334 C 706.787 2.00549 -2.7863 0
M  V30 7335 C 705.873 1.60795 -3.92436 0
M  V30 7336 N 706.264 0.919812 -4.97366 0
M  V30 7337 C 704.562 1.89917 -4.03544 0
M  V30 7338 C 705.263 0.724485 -5.77171 0
M  V30 7339 N 704.239 1.26505 -5.28675 0
M  V30 7340 H 708.041 0.240349 -2.92916 0
M  V30 7341 H 705.555 0.0322675 -1.62368 0
M  V30 7342 H 707.552 2.6917 -3.1836 0
M  V30 7343 H 706.212 2.54522 -2.01615 0
M  V30 7344 H 707.223 0.578169 -5.14663 0
M  V30 7345 H 703.9 2.45587 -3.37629 0
M  V30 7346 H 705.29 0.180521 -6.71657 0
M  V30 7347 N 708.01 1.57248 0.105221 0
M  V30 7348 C 709.238 1.89768 0.82437 0
M  V30 7349 C 709.653 0.761192 1.72775 0
M  V30 7350 O 709.01 -0.267342 1.80531 0
M  V30 7351 C 709.061 3.2184 1.64625 0
M  V30 7352 O 708.782 4.31115 0.779217 0
M  V30 7353 C 710.283 3.68155 2.46935 0
M  V30 7354 H 707.503 0.628031 0.236259 0
M  V30 7355 H 710.047 2.04321 0.085485 0
M  V30 7356 H 708.202 3.08915 2.33775 0
M  V30 7357 H 708.616 5.06897 1.34745 0
M  V30 7358 H 710.09 4.6329 3.00111 0
M  V30 7359 H 710.567 2.95492 3.24932 0
M  V30 7360 H 711.173 3.83914 1.83002 0
M  V30 7361 N 709.488 -0.375779 1.53054 0
M  V30 7362 C 710.765 -1.13453 1.59336 0
M  V30 7363 C 711.145 -2.07379 0.394614 0
M  V30 7364 O 710.493 -2.2004 -0.616 0
M  V30 7365 C 710.703 -1.8826 2.93869 0
M  V30 7366 C 712.051 -2.43155 3.48081 0
M  V30 7367 O 713.075 -1.984 2.95831 0
M  V30 7368 O 711.934 -3.24944 4.39401 0
M  V30 7369 H 709.028 -0.519856 0.643179 0
M  V30 7370 H 711.574 -0.379865 1.65394 0
M  V30 7371 H 710.346 -1.19652 3.72558 0
M  V30 7372 H 709.969 -2.70658 2.91256 0
M  V30 7373 N 710.966 -1.44241 -0.634997 0
M  V30 7374 C 711.899 -1.45274 -1.75985 0
M  V30 7375 C 712.877 -0.312025 -1.59578 0
M  V30 7376 O 714.061 -0.508409 -1.81514 0
M  V30 7377 C 711.188 -1.28173 -3.13511 0
M  V30 7378 C 710.234 -2.45757 -3.48576 0
M  V30 7379 S 711.067 -4.08293 -3.46492 0
M  V30 7380 C 712.223 -3.93608 -4.86645 0
M  V30 7381 H 712.456 -2.40454 -1.74841 0
M  V30 7382 H 709.989 -1.31492 -0.809268 0
M  V30 7383 H 711.947 -1.18993 -3.92875 0
M  V30 7384 H 710.608 -0.34511 -3.12198 0
M  V30 7385 H 709.801 -2.29644 -4.48642 0
M  V30 7386 H 709.403 -2.51657 -2.76667 0
M  V30 7387 H 711.695 -3.57059 -5.75774 0
M  V30 7388 H 712.638 -4.9349 -5.07813 0
M  V30 7389 H 713.046 -3.25737 -4.61038 0
M  V30 7390 N 712.444 0.87505 -1.31075 0
M  V30 7391 C 713.669 1.66583 -1.23551 0
M  V30 7392 C 714.094 1.87067 0.19686 0
M  V30 7393 O 713.452 1.40877 1.1412 0
M  V30 7394 C 713.5 3.01401 -1.97965 0
M  V30 7395 O 712.604 3.90923 -1.31351 0
M  V30 7396 H 711.945 0.508645 -0.426821 0
M  V30 7397 H 714.475 1.09139 -1.7306 0
M  V30 7398 H 714.485 3.51374 -2.07366 0
M  V30 7399 H 713.16 2.85812 -3.02133 0
M  V30 7400 H 711.737 3.49369 -1.30368 0
M  V30 7401 N 713.922 1.13953 1.08869 0
M  V30 7402 C 714.852 0.844824 2.17681 0
M  V30 7403 C 715.833 -0.198213 1.68941 0
M  V30 7404 O 717.018 -0.0559073 1.9412 0
M  V30 7405 C 714.148 0.316325 3.45856 0
M  V30 7406 C 713.102 1.29426 4.07962 0
M  V30 7407 C 712.428 0.625275 5.31031 0
M  V30 7408 C 713.728 2.65484 4.49795 0
M  V30 7409 H 715.422 1.75471 2.42591 0
M  V30 7410 H 712.968 0.845116 1.16592 0
M  V30 7411 H 714.921 0.0977876 4.21287 0
M  V30 7412 H 713.645 -0.628972 3.20486 0
M  V30 7413 H 712.304 1.49889 3.34558 0
M  V30 7414 H 711.952 -0.325678 5.01945 0
M  V30 7415 H 711.652 1.27777 5.73539 0
M  V30 7416 H 713.176 0.416152 6.0918 0
M  V30 7417 H 714.59 2.48957 5.16424 0
M  V30 7418 H 712.987 3.26963 5.03205 0
M  V30 7419 H 714.057 3.22717 3.61914 0
M  V30 7420 N 715.4 -1.26948 0.933913 0
M  V30 7421 C 716.35 -2.24306 0.408779 0
M  V30 7422 C 717.334 -1.53243 -0.490435 0
M  V30 7423 O 718.526 -1.73956 -0.326866 0
M  V30 7424 C 715.655 -3.41695 -0.331578 0
M  V30 7425 C 714.741 -4.20053 0.58451 0
M  V30 7426 N 715.132 -4.76122 1.70709 0
M  V30 7427 C 713.43 -4.44303 0.388703 0
M  V30 7428 C 714.131 -5.35267 2.27737 0
M  V30 7429 N 713.107 -5.20548 1.56622 0
M  V30 7430 H 716.909 -2.65244 1.26582 0
M  V30 7431 H 714.423 -1.4195 0.788919 0
M  V30 7432 H 716.42 -4.10552 -0.724774 0
M  V30 7433 H 715.08 -3.02286 -1.18547 0
M  V30 7434 H 716.091 -4.73884 2.08937 0
M  V30 7435 H 712.768 -4.15341 -0.424016 0
M  V30 7436 H 714.158 -5.89563 3.22282 0
M  V30 7437 N 716.879 -0.700114 -1.41195 0
M  V30 7438 C 718.104 -0.240704 -2.05998 0
M  V30 7439 C 718.529 1.10313 -1.52357 0
M  V30 7440 O 717.887 1.69154 -0.652424 0
M  V30 7441 C 717.935 -0.213783 -3.59966 0
M  V30 7442 O 717.039 0.809933 -4.04368 0
M  V30 7443 H 716.38 -0.116471 -0.653705 0
M  V30 7444 H 718.91 -0.956251 -1.80878 0
M  V30 7445 H 718.92 -0.0461852 -4.07974 0
M  V30 7446 H 717.595 -1.19454 -3.98376 0
M  V30 7447 H 716.172 0.611319 -3.67855 0
M  V30 7448 N 718.357 1.51182 -0.445186 0
M  V30 7449 C 719.267 2.31692 0.368255 0
M  V30 7450 C 720.283 1.40942 1.02036 0
M  V30 7451 O 721.459 1.74011 1.01401 0
M  V30 7452 C 718.524 3.14903 1.45041 0
M  V30 7453 C 717.585 4.21442 0.817615 0
M  V30 7454 C 716.818 5.00677 1.8482 0
M  V30 7455 O 717.041 4.80644 3.07145 0
M  V30 7456 O 715.975 5.84559 1.43438 0
M  V30 7457 H 719.801 3.0232 -0.289219 0
M  V30 7458 H 717.386 1.47951 -0.207555 0
M  V30 7459 H 719.268 3.66612 2.07783 0
M  V30 7460 H 717.943 2.47031 2.09182 0
M  V30 7461 H 716.85 3.73791 0.151931 0
M  V30 7462 H 718.183 4.9171 0.219564 0
M  V30 7463 N 719.835 0.176821 1.56605 0
M  V30 7464 C 721.063 -0.472828 2.01425 0
M  V30 7465 C 721.478 -1.56436 1.05703 0
M  V30 7466 O 720.835 -1.82405 0.058808 0
M  V30 7467 C 720.886 -1.04607 3.46034 0
M  V30 7468 O 720.607 0.00189608 4.381 0
M  V30 7469 C 722.108 -1.7734 4.06282 0
M  V30 7470 H 719.328 -0.120503 0.660091 0
M  V30 7471 H 721.872 0.280166 2.02572 0
M  V30 7472 H 720.027 -1.74953 3.45645 0
M  V30 7473 H 720.441 -0.422118 5.22799 0
M  V30 7474 H 721.915 -2.12703 5.09374 0
M  V30 7475 H 722.392 -2.67043 3.4869 0
M  V30 7476 H 722.998 -1.11623 4.10391 0
M  V30 7477 N 721.313 -1.57302 -0.09688 0
M  V30 7478 C 722.562 -1.85183 -0.799388 0
M  V30 7479 C 722.875 -0.765818 -1.79985 0
M  V30 7480 O 724.081 -0.931696 -2.55013 0
M  V30 7481 C 722.537 -3.28399 -1.47249 0
M  V30 7482 C 722.145 -4.45066 -0.511888 0
M  V30 7483 C 723.889 -3.65506 -2.15883 0
M  V30 7484 C 721.796 -5.79315 -1.18948 0
M  V30 7485 H 720.726 -0.690752 -0.302287 0
M  V30 7486 H 723.377 -1.83425 -0.0523104 0
M  V30 7487 H 721.759 -3.24692 -2.26697 0
M  V30 7488 H 722.933 -4.60116 0.250962 0
M  V30 7489 H 721.248 -4.16343 0.0686576 0
M  V30 7490 H 723.845 -4.63087 -2.67309 0
M  V30 7491 H 724.188 -2.94041 -2.94696 0
M  V30 7492 H 724.721 -3.71094 -1.43298 0
M  V30 7493 H 721.46 -6.54007 -0.442198 0
M  V30 7494 H 720.98 -5.68111 -1.9238 0
M  V30 7495 H 722.659 -6.23816 -1.71646 0
M  V30 7496 N 722.791 0.367657 -1.53252 0
M  V30 7497 C 723.754 1.43308 -1.78873 0
M  V30 7498 C 724.754 1.46671 -0.659115 0
M  V30 7499 O 725.944 1.47468 -0.927306 0
M  V30 7500 C 723.076 2.82442 -1.90892 0
M  V30 7501 H 724.269 1.21864 -2.74024 0
M  V30 7502 H 721.822 0.600668 -1.44297 0
M  V30 7503 H 722.557 3.09202 -0.978 0
M  V30 7504 H 722.342 2.81399 -2.73051 0
M  V30 7505 H 723.832 3.59601 -2.12314 0
M  V30 7506 N 724.269 1.44576 0.627338 0
M  V30 7507 C 725.216 1.51734 1.73912 0
M  V30 7508 C 726.186 0.364745 1.62046 0
M  V30 7509 O 727.371 0.575503 1.81914 0
M  V30 7510 C 724.511 1.47116 3.12171 0
M  V30 7511 C 723.624 2.72778 3.34986 0
M  V30 7512 C 722.759 2.59968 4.63239 0
M  V30 7513 C 721.798 3.80776 4.79245 0
M  V30 7514 N 720.935 3.66618 5.98778 0
M  V30 7515 H 725.775 2.46722 1.6713 0
M  V30 7516 H 723.312 1.22444 0.815224 0
M  V30 7517 H 725.27 1.42429 3.92135 0
M  V30 7518 H 723.9 0.556928 3.17959 0
M  V30 7519 H 722.952 2.87637 2.48936 0
M  V30 7520 H 724.264 3.62441 3.42692 0
M  V30 7521 H 723.418 2.53135 5.51369 0
M  V30 7522 H 722.157 1.67872 4.57898 0
M  V30 7523 H 721.162 3.87989 3.89544 0
M  V30 7524 H 722.387 4.73913 4.86398 0
M  V30 7525 H 720.333 2.77277 5.9452 0
M  V30 7526 H 720.25 4.499 6.07557 0
M  V30 7527 H 721.518 3.63684 6.89459 0
M  V30 7528 N 725.747 -0.868086 1.31537 0
M  V30 7529 C 726.697 -1.96321 1.1594 0
M  V30 7530 C 727.681 -1.60748 0.0698962 0
M  V30 7531 O 728.873 -1.74524 0.295011 0
M  V30 7532 C 726.002 -3.32073 0.870789 0
M  V30 7533 C 725.088 -3.73907 2.00136 0
M  V30 7534 N 725.479 -3.87685 3.24859 0
M  V30 7535 C 723.777 -4.03433 1.90152 0
M  V30 7536 C 724.478 -4.23454 3.98825 0
M  V30 7537 N 723.454 -4.34242 3.27009 0
M  V30 7538 H 727.256 -2.05088 2.10514 0
M  V30 7539 H 724.77 -1.059 1.23122 0
M  V30 7540 H 726.767 -4.10279 0.740034 0
M  V30 7541 H 725.427 -3.24631 -0.0667068 0
M  V30 7542 H 726.438 -3.72363 3.59953 0
M  V30 7543 H 723.115 -4.0437 1.03879 0
M  V30 7544 H 724.505 -4.41696 5.06314 0
M  V30 7545 N 727.225 -1.14528 -1.08264 0
M  V30 7546 C 728.473 -0.912599 -1.80322 0
M  V30 7547 C 728.794 0.562256 -1.86718 0
M  V30 7548 O 728.064 1.40869 -1.36135 0
M  V30 7549 H 726.644 -0.334645 -0.667849 0
M  V30 7550 H 729.306 -1.44415 -1.30883 0
M  V30 7551 H 728.402 -1.31384 -2.83098 0
M  V30 7552 N 728.703 1.26451 -0.940633 0
M  V30 7553 C 729.666 2.24651 -0.454378 0
M  V30 7554 C 730.666 1.54826 0.434222 0
M  V30 7555 O 731.856 1.72628 0.233477 0
M  V30 7556 C 728.988 3.39148 0.345192 0
M  V30 7557 H 730.181 2.69182 -1.32217 0
M  V30 7558 H 727.734 1.38596 -0.722547 0
M  V30 7559 H 728.469 3.00018 1.23125 0
M  V30 7560 H 728.254 3.9101 -0.292107 0
M  V30 7561 H 729.744 4.12103 0.675341 0
M  V30 7562 N 730.181 0.707592 1.40822 0
M  V30 7563 C 731.128 0.0499029 2.30746 0
M  V30 7564 C 732.098 -0.758718 1.47759 0
M  V30 7565 O 733.283 -0.724299 1.76518 0
M  V30 7566 C 730.423 -0.871756 3.33908 0
M  V30 7567 C 729.536 -0.0534655 4.31967 0
M  V30 7568 C 728.671 -0.973869 5.22197 0
M  V30 7569 C 727.71 -0.149194 6.11918 0
M  V30 7570 N 726.847 -1.02404 6.94592 0
M  V30 7571 H 731.687 0.822461 2.86426 0
M  V30 7572 H 729.224 0.417285 1.41057 0
M  V30 7573 H 731.182 -1.42028 3.9228 0
M  V30 7574 H 729.812 -1.61058 2.7975 0
M  V30 7575 H 728.864 0.612142 3.75442 0
M  V30 7576 H 730.176 0.585354 4.95353 0
M  V30 7577 H 729.33 -1.59121 5.85462 0
M  V30 7578 H 728.069 -1.64652 4.59065 0
M  V30 7579 H 727.074 0.481137 5.47691 0
M  V30 7580 H 728.299 0.519841 6.77107 0
M  V30 7581 H 726.245 -1.6825 6.34057 0
M  V30 7582 H 726.162 -0.441076 7.54712 0
M  V30 7583 H 727.43 -1.62782 7.62314 0
M  V30 7584 N 731.66 -1.50943 0.453197 0
M  V30 7585 C 732.59 -2.31005 -0.34044 0
M  V30 7586 C 733.571 -1.37112 -1.00669 0
M  V30 7587 O 734.756 -1.66033 -1.0073 0
M  V30 7588 C 731.886 -3.16358 -1.433 0
M  V30 7589 C 730.84 -4.18658 -0.889363 0
M  V30 7590 C 730.166 -4.92633 -2.07887 0
M  V30 7591 C 731.466 -5.22227 0.0871142 0
M  V30 7592 H 733.16 -2.97601 0.327723 0
M  V30 7593 H 730.706 -1.43119 0.159054 0
M  V30 7594 H 732.659 -3.71155 -1.99555 0
M  V30 7595 H 731.383 -2.47613 -2.12968 0
M  V30 7596 H 730.042 -3.64936 -0.348915 0
M  V30 7597 H 729.69 -4.20376 -2.76211 0
M  V30 7598 H 729.39 -5.61819 -1.72143 0
M  V30 7599 H 730.914 -5.50258 -2.64666 0
M  V30 7600 H 732.328 -5.72001 -0.385656 0
M  V30 7601 H 730.725 -5.99032 0.357926 0
M  V30 7602 H 731.795 -4.74077 1.01879 0
M  V30 7603 N 733.138 -0.185124 -1.56509 0
M  V30 7604 C 734.363 0.465278 -2.02114 0
M  V30 7605 C 734.788 1.55083 -1.06447 0
M  V30 7606 O 734.146 1.81241 -0.0462852 0
M  V30 7607 C 734.194 1.00784 -3.46229 0
M  V30 7608 O 733.298 2.12123 -3.53663 0
M  V30 7609 H 732.639 0.109891 -0.654843 0
M  V30 7610 H 735.169 -0.293072 -2.0249 0
M  V30 7611 H 735.179 1.32697 -3.85818 0
M  V30 7612 H 733.854 0.213113 -4.15354 0
M  V30 7613 H 732.431 1.8115 -3.25943 0
M  V30 7614 N 734.616 1.57351 0.0885366 0
M  V30 7615 C 735.579 2.01557 1.09121 0
M  V30 7616 C 736.579 0.910052 1.3257 0
M  V30 7617 O 737.769 1.17537 1.28572 0
M  V30 7618 C 734.901 2.38189 2.43883 0
M  V30 7619 H 736.094 2.91361 0.710562 0
M  V30 7620 H 733.647 1.52694 0.333779 0
M  V30 7621 H 734.382 1.5136 2.86811 0
M  V30 7622 H 734.167 3.18846 2.28209 0
M  V30 7623 H 735.657 2.73025 3.15986 0
M  V30 7624 N 736.094 -0.359525 1.53444 0
M  V30 7625 C 737.342 -1.09935 1.69584 0
M  V30 7626 C 737.663 -1.89656 0.453371 0
M  V30 7627 O 736.933 -1.8852 -0.53263 0
M  V30 7628 H 735.513 -0.408843 0.625185 0
M  V30 7629 H 738.175 -0.40467 1.90653 0
M  V30 7630 H 737.271 -1.78575 2.55964 0
M  V30 7631 N 737.572 -1.44907 -0.619662 0
M  V30 7632 C 738.82 -1.47999 -1.37625 0
M  V30 7633 C 739.141 -0.118295 -1.94641 0
M  V30 7634 O 738.411 0.85086 -1.76457 0
M  V30 7635 H 736.991 -0.544993 -0.510873 0
M  V30 7636 H 739.653 -1.80772 -0.728522 0
M  V30 7637 H 738.749 -2.21196 -2.20179 0
M  V30 7638 N 739.05 0.861098 -1.31996 0
M  V30 7639 C 740.297 1.61481 -1.22188 0
M  V30 7640 C 740.625 1.93276 0.217853 0
M  V30 7641 O 739.88 1.56942 1.16909 0
M  V30 7642 C 740.179 2.94822 -2.02027 0
M  V30 7643 C 739.845 2.82483 -3.51446 0
M  V30 7644 C 738.507 2.78825 -3.92186 0
M  V30 7645 C 740.859 2.68878 -4.46491 0
M  V30 7646 C 738.187 2.59433 -5.26224 0
M  V30 7647 C 740.539 2.51022 -5.80664 0
M  V30 7648 C 739.203 2.45753 -6.20614 0
M  V30 7649 H 738.473 0.590902 -0.447119 0
M  V30 7650 H 741.12 0.999376 -1.63355 0
M  V30 7651 H 739.425 3.6045 -1.53569 0
M  V30 7652 H 741.122 3.52149 -1.91812 0
M  V30 7653 H 737.712 2.86152 -3.19085 0
M  V30 7654 H 741.896 2.70754 -4.1594 0
M  V30 7655 H 737.152 2.53784 -5.5624 0
M  V30 7656 H 741.326 2.39473 -6.53931 0
M  V30 7657 H 738.953 2.30485 -7.24417 0
M  V30 7658 N 740.528 1.15101 1.07655 0
M  V30 7659 C 741.805 0.834578 1.76902 0
M  V30 7660 C 742.185 -0.670431 2.00171 0
M  V30 7661 O 741.533 -1.61378 1.6177 0
M  V30 7662 C 741.743 1.64191 3.07965 0
M  V30 7663 C 743.091 1.84615 3.82364 0
M  V30 7664 O 744.115 1.60941 3.17768 0
M  V30 7665 O 742.974 2.24244 4.98374 0
M  V30 7666 H 740.068 0.306608 0.768063 0
M  V30 7667 H 742.614 1.25663 1.14048 0
M  V30 7668 H 741.386 2.66386 2.86626 0
M  V30 7669 H 741.009 1.216 3.78549 0
M  V30 7670 N 742.006 -1.2595 0.947325 0
M  V30 7671 C 743.246 -1.95218 0.605743 0
M  V30 7672 C 743.61 -1.72624 -0.84054 0
M  V30 7673 O 744.811 -2.35748 -1.29136 0
M  V30 7674 C 743.082 -3.44654 0.94596 0
M  V30 7675 S 744.641 -4.32922 0.715849 0
M  V30 7676 H 741.459 -0.675159 0.222894 0
M  V30 7677 H 744.061 -1.52766 1.21995 0
M  V30 7678 H 742.765 -3.586 1.99585 0
M  V30 7679 H 742.296 -3.92082 0.321718 0
M  V30 7680 H 744.311 -4.94445 -0.416959 0
M  V30 7681 N 743.484 -0.715051 -1.40445 0
M  V30 7682 C 744.712 -0.263959 -2.05209 0
M  V30 7683 C 745.127 1.09403 -1.53871 0
M  V30 7684 O 744.484 1.68746 -0.695064 0
M  V30 7685 C 744.535 -0.234545 -3.60738 0
M  V30 7686 O 744.256 -1.53891 -4.10182 0
M  V30 7687 C 745.757 0.235164 -4.42676 0
M  V30 7688 H 742.977 -0.11876 -0.660407 0
M  V30 7689 H 745.521 -0.973107 -1.79864 0
M  V30 7690 H 743.676 0.425563 -3.85055 0
M  V30 7691 H 744.09 -1.43903 -5.04373 0
M  V30 7692 H 745.564 0.204598 -5.51621 0
M  V30 7693 H 746.041 1.27724 -4.20218 0
M  V30 7694 H 746.647 -0.394649 -4.23465 0
M  V30 7695 N 744.962 1.50701 -0.461195 0
M  V30 7696 C 746.202 2.04174 0.0960673 0
M  V30 7697 C 746.566 1.33628 1.37868 0
M  V30 7698 O 747.767 1.77602 2.0177 0
M  V30 7699 C 746.038 3.56256 0.285676 0
M  V30 7700 S 747.597 4.31392 0.802917 0
M  V30 7701 H 744.415 0.710701 0.0206282 0
M  V30 7702 H 747.017 1.85204 -0.62607 0
M  V30 7703 H 745.721 4.05159 -0.653773 0
M  V30 7704 H 745.252 3.79562 1.03421 0
M  V30 7705 H 747.267 4.50611 2.07761 0
M  V30 7706 N 746.441 0.193421 1.56409 0
M  V30 7707 C 747.388 -0.728124 2.19014 0
M  V30 7708 C 748.358 -1.21098 1.13686 0
M  V30 7709 O 749.543 -1.27517 1.4193 0
M  V30 7710 C 746.683 -1.94277 2.8522 0
M  V30 7711 C 745.796 -1.50143 4.05069 0
M  V30 7712 C 744.931 -2.67145 4.59137 0
M  V30 7713 C 743.97 -2.19609 5.71348 0
M  V30 7714 N 743.107 -3.29782 6.19829 0
M  V30 7715 H 747.947 -0.187499 2.9741 0
M  V30 7716 H 745.484 -0.0808064 1.46878 0
M  V30 7717 H 747.442 -2.65551 3.21774 0
M  V30 7718 H 746.072 -2.45673 2.09391 0
M  V30 7719 H 745.124 -0.684624 3.74189 0
M  V30 7720 H 746.436 -1.11266 4.86232 0
M  V30 7721 H 745.59 -3.46544 4.97988 0
M  V30 7722 H 744.329 -3.09295 3.77078 0
M  V30 7723 H 743.334 -1.38664 5.32027 0
M  V30 7724 H 744.559 -1.78492 6.55223 0
M  V30 7725 H 742.505 -3.71466 5.40693 0
M  V30 7726 H 742.422 -2.95069 6.96039 0
M  V30 7727 H 743.69 -4.094 6.63334 0
M  V30 7728 N 747.919 -1.57396 -0.0801906 0
M  V30 7729 C 748.829 -2.06451 -1.11423 0
M  V30 7730 C 749.845 -0.992352 -1.42928 0
M  V30 7731 O 751.021 -1.30651 -1.53272 0
M  V30 7732 C 748.086 -2.49164 -2.41077 0
M  V30 7733 C 747.147 -3.70641 -2.16619 0
M  V30 7734 C 746.38 -4.11307 -3.40092 0
M  V30 7735 O 746.603 -3.51922 -4.48895 0
M  V30 7736 O 745.537 -5.04157 -3.288 0
M  V30 7737 H 749.363 -2.94857 -0.727519 0
M  V30 7738 H 746.948 -1.46484 -0.293743 0
M  V30 7739 H 748.83 -2.77196 -3.17396 0
M  V30 7740 H 747.505 -1.6389 -2.79145 0
M  V30 7741 H 746.412 -3.47703 -1.38033 0
M  V30 7742 H 747.745 -4.5674 -1.83437 0
M  V30 7743 N 749.397 0.351382 -1.53633 0
M  V30 7744 C 750.674 1.10903 -1.6112 0
M  V30 7745 C 751.054 2.06725 -0.427556 0
M  V30 7746 O 750.402 2.20992 0.580916 0
M  V30 7747 C 750.612 1.83561 -2.96827 0
M  V30 7748 C 751.96 2.37587 -3.51906 0
M  V30 7749 O 752.984 1.93669 -2.9895 0
M  V30 7750 O 751.843 3.17913 -4.44515 0
M  V30 7751 H 748.937 0.509558 -0.651368 0
M  V30 7752 H 751.483 0.353504 -1.65977 0
M  V30 7753 H 750.255 1.1371 -3.74414 0
M  V30 7754 H 749.878 2.6599 -2.95525 0
M  V30 7755 N 750.875 1.45233 0.611969 0
M  V30 7756 C 752.291 1.29542 0.932251 0
M  V30 7757 C 752.491 0.24523 2.00002 0
M  V30 7758 O 751.547 -0.362333 2.49887 0
M  V30 7759 C 752.86 2.67301 1.37733 0
M  V30 7760 C 754.408 2.75163 1.49178 0
M  V30 7761 C 754.883 4.13437 1.97064 0
M  V30 7762 N 756.374 4.15709 2.04304 0
M  V30 7763 C 757.109 5.19566 2.42568 0
M  V30 7764 N 756.605 6.33771 2.79832 0
M  V30 7765 N 758.398 5.06923 2.42869 0
M  V30 7766 H 750.549 2.12192 -0.0938679 0
M  V30 7767 H 752.812 0.947775 0.0206569 0
M  V30 7768 H 752.518 3.45318 0.666951 0
M  V30 7769 H 752.392 2.95472 2.3447 0
M  V30 7770 H 754.779 1.97453 2.19309 0
M  V30 7771 H 754.86 2.50712 0.507674 0
M  V30 7772 H 754.504 4.91631 1.27521 0
M  V30 7773 H 754.434 4.35277 2.9638 0
M  V30 7774 H 756.925 3.33293 1.78113 0
M  V30 7775 H 757.238 7.08815 3.07898 0
M  V30 7776 H 755.583 6.37179 2.77538 0
M  V30 7777 H 758.774 4.1675 2.1316 0
M  V30 7778 H 758.947 5.87981 2.72364 0
M  V30 7779 N 752.353 -0.854086 1.3245 0
M  V30 7780 C 753.283 -1.97827 1.24044 0
M  V30 7781 C 754.264 -1.69646 0.124166 0
M  V30 7782 O 755.449 -1.91687 0.31143 0
M  V30 7783 C 752.579 -3.33673 0.963324 0
M  V30 7784 C 751.533 -3.76207 2.04089 0
M  V30 7785 C 750.859 -5.0969 1.61618 0
M  V30 7786 C 752.159 -3.91612 3.45597 0
M  V30 7787 H 753.853 -2.05118 2.18099 0
M  V30 7788 H 751.399 -0.985489 1.04996 0
M  V30 7789 H 753.352 -4.11871 0.891061 0
M  V30 7790 H 752.076 -3.26597 -0.0128649 0
M  V30 7791 H 750.735 -3.0026 2.10332 0
M  V30 7792 H 750.383 -4.99072 0.627418 0
M  V30 7793 H 750.083 -5.3912 2.33717 0
M  V30 7794 H 751.607 -5.90381 1.55829 0
M  V30 7795 H 753.021 -4.60163 3.4194 0
M  V30 7796 H 751.418 -4.3246 4.16051 0
M  V30 7797 H 752.488 -2.9451 3.85217 0
M  V30 7798 N 753.831 -1.1567 -1.07043 0
M  V30 7799 C 754.741 -0.870435 -2.17855 0
M  V30 7800 C 755.757 0.154452 -1.73313 0
M  V30 7801 O 756.933 -0.0203759 -2.0139 0
M  V30 7802 C 753.998 -0.367219 -3.4475 0
M  V30 7803 C 753.059 -1.45639 -4.03841 0
M  V30 7804 C 752.292 -0.977092 -5.2468 0
M  V30 7805 O 752.515 0.176127 -5.70128 0
M  V30 7806 O 751.449 -1.76215 -5.75527 0
M  V30 7807 H 755.275 -1.79687 -2.44839 0
M  V30 7808 H 752.86 -0.936064 -1.1644 0
M  V30 7809 H 754.742 -0.0931947 -4.21297 0
M  V30 7810 H 753.417 0.53131 -3.1931 0
M  V30 7811 H 752.324 -1.78406 -3.28819 0
M  V30 7812 H 753.657 -2.32995 -4.3356 0
M  V30 7813 N 755.309 1.25446 -0.953992 0
M  V30 7814 C 756.272 2.24156 -0.478179 0
M  V30 7815 C 757.272 1.55278 0.417776 0
M  V30 7816 O 758.462 1.72866 0.215155 0
M  V30 7817 C 755.594 3.39495 0.309202 0
M  V30 7818 H 756.787 2.67764 -1.35064 0
M  V30 7819 H 754.34 1.37822 -0.737206 0
M  V30 7820 H 755.075 3.01307 1.19936 0
M  V30 7821 H 754.86 3.90679 -0.333562 0
M  V30 7822 H 756.35 4.12796 0.631594 0
M  V30 7823 N 756.787 0.722489 1.40064 0
M  V30 7824 C 757.717 0.0892452 2.33329 0
M  V30 7825 C 758.698 -0.737992 1.53257 0
M  V30 7826 O 759.883 -0.685516 1.81698 0
M  V30 7827 C 757.013 -0.828139 3.37282 0
M  V30 7828 C 755.967 -0.106005 4.27869 0
M  V30 7829 C 755.293 -1.13957 5.22415 0
M  V30 7830 C 756.593 1.04395 5.11761 0
M  V30 7831 H 758.287 0.868269 2.86534 0
M  V30 7832 H 755.833 0.418982 1.3777 0
M  V30 7833 H 757.786 -1.28058 4.01471 0
M  V30 7834 H 756.51 -1.63914 2.82489 0
M  V30 7835 H 755.169 0.326683 3.65142 0
M  V30 7836 H 754.817 -1.9438 4.63924 0
M  V30 7837 H 754.517 -0.661233 5.83868 0
M  V30 7838 H 756.041 -1.59197 5.89482 0
M  V30 7839 H 757.455 0.670541 5.69365 0
M  V30 7840 H 755.852 1.4511 5.82291 0
M  V30 7841 H 756.922 1.87144 4.47331 0
M  V30 7842 N 758.265 -1.50454 0.469181 0
M  V30 7843 C 759.49 -2.0722 -0.0864892 0
M  V30 7844 C 759.915 -1.33098 -1.32916 0
M  V30 7845 O 759.273 -0.378084 -1.77314 0
M  V30 7846 C 759.321 -3.58845 -0.355384 0
M  V30 7847 O 758.425 -3.86583 -1.43622 0
M  V30 7848 H 757.766 -0.663889 0.0121414 0
M  V30 7849 H 760.296 -1.93674 0.659674 0
M  V30 7850 H 760.306 -4.03617 -0.596447 0
M  V30 7851 H 758.981 -4.12211 0.552698 0
M  V30 7852 H 757.558 -3.5365 -1.18262 0
M  V30 7853 N 759.743 -0.201713 -1.56304 0
M  V30 7854 C 760.673 0.71155 -2.22394 0
M  V30 7855 C 761.654 1.21625 -1.18917 0
M  V30 7856 O 762.839 1.26388 -1.47444 0
M  V30 7857 C 759.969 1.92837 -2.88845 0
M  V30 7858 C 758.923 1.55831 -3.98623 0
M  V30 7859 C 758.249 2.85228 -4.52271 0
M  V30 7860 C 759.549 0.763249 -5.16693 0
M  V30 7861 H 761.243 0.160573 -2.98969 0
M  V30 7862 H 758.789 0.0757916 -1.438 0
M  V30 7863 H 760.742 2.57253 -3.33764 0
M  V30 7864 H 759.466 2.50398 -2.09686 0
M  V30 7865 H 758.125 0.9377 -3.54405 0
M  V30 7866 H 757.773 3.40893 -3.69866 0
M  V30 7867 H 757.473 2.6121 -5.26349 0
M  V30 7868 H 758.997 3.50622 -4.99897 0
M  V30 7869 H 760.411 1.31066 -5.58117 0
M  V30 7870 H 758.808 0.620935 -5.96879 0
M  V30 7871 H 759.878 -0.234322 -4.84334 0
M  V30 7872 N 761.222 1.57436 0.0718424 0
M  V30 7873 C 762.152 2.06724 1.08571 0
M  V30 7874 C 763.133 0.960731 1.40371 0
M  V30 7875 O 764.318 1.23345 1.49999 0
M  V30 7876 C 761.448 2.51112 2.39916 0
M  V30 7877 C 760.402 3.65639 2.22469 0
M  V30 7878 C 759.728 3.96082 3.59198 0
M  V30 7879 C 761.028 4.95687 1.64596 0
M  V30 7880 H 762.722 2.91679 0.675569 0
M  V30 7881 H 760.268 1.40319 0.32352 0
M  V30 7882 H 762.221 2.84206 3.11135 0
M  V30 7883 H 760.945 1.63186 2.8291 0
M  V30 7884 H 759.604 3.32828 1.53691 0
M  V30 7885 H 759.252 3.05287 3.99761 0
M  V30 7886 H 758.952 4.73199 3.48362 0
M  V30 7887 H 760.476 4.31672 4.31847 0
M  V30 7888 H 761.89 5.27011 2.25681 0
M  V30 7889 H 760.287 5.77126 1.64457 0
M  V30 7890 H 761.357 4.8108 0.60744 0
M  V30 7891 N 762.7 -0.34323 1.53817 0
M  V30 7892 C 763.63 -1.42709 1.84814 0
M  V30 7893 C 764.611 -1.5488 0.703297 0
M  V30 7894 O 765.796 -1.69082 0.955237 0
M  V30 7895 C 762.926 -2.79756 2.05801 0
M  V30 7896 C 761.88 -2.82392 3.21619 0
M  V30 7897 C 761.206 -4.22326 3.2794 0
M  V30 7898 C 762.506 -2.479 4.59721 0
M  V30 7899 H 764.2 -1.17018 2.75585 0
M  V30 7900 H 761.746 -0.561485 1.32602 0
M  V30 7901 H 763.699 -3.55627 2.26069 0
M  V30 7902 H 762.423 -3.06883 1.11761 0
M  V30 7903 H 761.082 -2.08974 3.01207 0
M  V30 7904 H 760.73 -4.46564 2.31494 0
M  V30 7905 H 760.43 -4.25001 4.05768 0
M  V30 7906 H 761.954 -5.00039 3.50419 0
M  V30 7907 H 763.368 -3.13484 4.80001 0
M  V30 7908 H 761.765 -2.61857 5.39954 0
M  V30 7909 H 762.835 -1.43087 4.63308 0
M  V30 7910 N 764.178 -1.45556 -0.604258 0
M  V30 7911 C 765.128 -1.50906 -1.70913 0
M  V30 7912 C 766.112 -0.371996 -1.56541 0
M  V30 7913 O 767.304 -0.619064 -1.65821 0
M  V30 7914 C 764.433 -1.48181 -3.09673 0
M  V30 7915 C 763.519 -2.67102 -3.2942 0
M  V30 7916 N 763.91 -3.92184 -3.19414 0
M  V30 7917 C 762.208 -2.6287 -3.60299 0
M  V30 7918 C 762.909 -4.71571 -3.40581 0
M  V30 7919 N 761.885 -4.03081 -3.64728 0
M  V30 7920 H 765.687 -2.45435 -1.61675 0
M  V30 7921 H 763.201 -1.40894 -0.807622 0
M  V30 7922 H 765.198 -1.501 -3.88942 0
M  V30 7923 H 763.858 -0.54712 -3.20057 0
M  V30 7924 H 764.869 -4.23756 -2.97743 0
M  V30 7925 H 761.546 -1.78324 -3.77501 0
M  V30 7926 H 762.936 -5.80571 -3.38211 0
M  V30 7927 N 765.656 0.84705 -1.32902 0
M  V30 7928 C 766.619 1.9378 -1.224 0
M  V30 7929 C 767.619 1.60144 -0.145108 0
M  V30 7930 O 768.809 1.69638 -0.396058 0
M  V30 7931 C 765.941 3.29234 -0.884174 0
M  V30 7932 H 767.134 2.04518 -2.19345 0
M  V30 7933 H 764.687 1.03816 -1.16842 0
M  V30 7934 H 765.422 3.24193 0.0831277 0
M  V30 7935 H 765.207 3.55026 -1.6643 0
M  V30 7936 H 766.697 4.09162 -0.835226 0
M  V30 7937 N 767.134 1.16236 1.06428 0
M  V30 7938 C 768.097 0.870163 2.1204 0
M  V30 7939 C 769.097 -0.134239 1.60239 0
M  V30 7940 O 770.287 0.0964932 1.73933 0
M  V30 7941 C 767.419 0.301033 3.39568 0
M  V30 7942 H 768.612 1.8064 2.39394 0
M  V30 7943 H 766.165 0.971116 1.2247 0
M  V30 7944 H 766.9 -0.642948 3.17863 0
M  V30 7945 H 766.685 1.02475 3.78472 0
M  V30 7946 H 768.175 0.114494 4.17443 0
M  V30 7947 N 768.612 -1.24939 0.960631 0
M  V30 7948 C 769.889 -1.88118 0.535807 0
M  V30 7949 C 770.269 -1.86605 -0.987009 0
M  V30 7950 O 769.617 -1.33375 -1.85536 0
M  V30 7951 C 769.827 -3.30565 1.11927 0
M  V30 7952 C 771.175 -4.07296 1.19981 0
M  V30 7953 O 772.199 -3.39709 1.07126 0
M  V30 7954 O 771.058 -5.28206 1.40218 0
M  V30 7955 H 768.152 -0.807698 0.177631 0
M  V30 7956 H 770.698 -1.32964 1.05445 0
M  V30 7957 H 769.47 -3.26128 2.16231 0
M  V30 7958 H 769.093 -3.93284 0.584245 0
M  V30 7959 N 770.09 -0.729906 -1.39679 0
M  V30 7960 C 771.339 -0.272534 -1.9985 0
M  V30 7961 C 771.652 1.14519 -1.58571 0
M  V30 7962 O 772.858 1.70182 -2.11543 0
M  V30 7963 C 771.314 -0.436322 -3.57245 0
M  V30 7964 C 770.922 -1.86161 -4.0749 0
M  V30 7965 C 772.666 -0.0404679 -4.24481 0
M  V30 7966 C 770.573 -1.97522 -5.5744 0
M  V30 7967 H 769.503 -0.0981428 -0.747585 0
M  V30 7968 H 772.154 -0.903056 -1.59741 0
M  V30 7969 H 770.536 0.263015 -3.95126 0
M  V30 7970 H 771.71 -2.59248 -3.80955 0
M  V30 7971 H 770.025 -2.21021 -3.529 0
M  V30 7972 H 772.622 -0.104437 -5.34598 0
M  V30 7973 H 772.965 1.00357 -4.04023 0
M  V30 7974 H 773.498 -0.690774 -3.91757 0
M  V30 7975 H 770.237 -3.00096 -5.82771 0
M  V30 7976 H 769.757 -1.28864 -5.85794 0
M  V30 7977 H 771.436 -1.754 -6.22771 0
M  V30 7978 N 771.568 1.50203 -0.477153 0
M  V30 7979 C 772.816 2.01959 0.0755889 0
M  V30 7980 C 773.137 1.3608 1.39668 0
M  V30 7981 O 772.407 0.508136 1.89195 0
M  V30 7982 H 770.987 0.74636 0.0309248 0
M  V30 7983 H 773.649 1.84473 -0.628959 0
M  V30 7984 H 772.745 3.11305 0.222683 0
M  V30 7985 N 773.046 0.209999 1.56195 0
M  V30 7986 C 774.009 -0.691232 2.18528 0
M  V30 7987 C 775.009 -1.13013 1.14388 0
M  V30 7988 O 776.199 -1.04081 1.39688 0
M  V30 7989 C 773.331 -1.94551 2.79934 0
M  V30 7990 H 774.524 -0.147953 2.99535 0
M  V30 7991 H 772.077 -0.0396243 1.5625 0
M  V30 7992 H 772.812 -2.53094 2.02766 0
M  V30 7993 H 772.597 -1.63938 3.56184 0
M  V30 7994 H 774.087 -2.58785 3.2775 0
M  V30 7995 N 774.524 -1.57472 -0.0634922 0
M  V30 7996 C 775.749 -1.92273 -0.77756 0
M  V30 7997 C 776.174 -0.807141 -1.69902 0
M  V30 7998 O 775.532 0.239523 -1.79711 0
M  V30 7999 C 775.58 -3.26054 -1.54017 0
M  V30 8000 O 774.684 -3.15873 -2.65138 0
M  V30 8001 H 774.025 -0.629389 -0.211579 0
M  V30 8002 H 776.555 -2.04579 -0.0292523 0
M  V30 8003 H 776.565 -3.60127 -1.91763 0
M  V30 8004 H 775.24 -4.06824 -0.864128 0
M  V30 8005 H 773.817 -2.93373 -2.30189 0
M  V30 8006 N 776.003 0.335068 -1.53997 0
M  V30 8007 C 777.228 1.09859 -1.75914 0
M  V30 8008 C 777.653 1.81308 -0.500915 0
M  V30 8009 O 777.011 1.72854 0.54693 0
M  V30 8010 C 777.059 2.08122 -2.94478 0
M  V30 8011 O 776.163 3.15805 -2.65219 0
M  V30 8012 H 775.504 0.317313 -0.583274 0
M  V30 8013 H 778.034 0.382872 -2.00986 0
M  V30 8014 H 778.044 2.51195 -3.21504 0
M  V30 8015 H 776.719 1.55517 -3.8573 0
M  V30 8016 H 775.296 2.77489 -2.49107 0
M  V30 8017 N 777.481 1.45874 0.596531 0
M  V30 8018 C 778.897 1.30524 0.918459 0
M  V30 8019 C 779.097 0.266429 1.99731 0
M  V30 8020 O 778.153 -0.335809 2.50257 0
M  V30 8021 C 779.466 2.68747 1.3489 0
M  V30 8022 C 781.014 2.7673 1.46251 0
M  V30 8023 C 781.489 4.15504 1.92667 0
M  V30 8024 N 782.98 4.17853 1.99883 0
M  V30 8025 C 783.715 5.22109 2.37044 0
M  V30 8026 N 783.211 6.36704 2.73094 0
M  V30 8027 N 785.004 5.09471 2.37479 0
M  V30 8028 H 777.155 2.12081 -0.116368 0
M  V30 8029 H 779.418 0.947941 0.0106033 0
M  V30 8030 H 779.124 3.46006 0.630288 0
M  V30 8031 H 778.998 2.97942 2.31323 0
M  V30 8032 H 781.385 1.99768 2.17202 0
M  V30 8033 H 781.466 2.51236 0.481054 0
M  V30 8034 H 781.11 4.92956 1.223 0
M  V30 8035 H 781.04 4.38396 2.91747 0
M  V30 8036 H 783.531 3.35163 1.74568 0
M  V30 8037 H 783.844 7.12041 3.00362 0
M  V30 8038 H 782.189 6.40087 2.70764 0
M  V30 8039 H 785.38 4.18987 2.08728 0
M  V30 8040 H 785.553 5.90837 2.66112 0
M  V30 8041 N 778.959 -0.83999 1.33349 0
M  V30 8042 C 780.207 -1.59202 1.24496 0
M  V30 8043 C 780.528 -1.94077 -0.189499 0
M  V30 8044 O 779.798 -1.60868 -1.11796 0
M  V30 8045 H 778.378 -0.590276 0.457802 0
M  V30 8046 H 781.04 -1.00394 1.67054 0
M  V30 8047 H 780.136 -2.52247 1.83788 0
M  V30 8048 N 780.437 -1.16799 -1.0581 0
M  V30 8049 C 781.683 -0.953935 -1.78963 0
M  V30 8050 C 782.016 0.516638 -1.87202 0
M  V30 8051 O 781.291 1.38338 -1.36721 0
M  V30 8052 C 781.574 -1.58808 -3.23191 0
M  V30 8053 C 781.427 -3.13032 -3.23003 0
M  V30 8054 C 782.746 -1.2868 -4.20867 0
M  V30 8055 H 779.865 -0.347972 -0.64968 0
M  V30 8056 H 782.507 -1.44204 -1.23715 0
M  V30 8057 H 780.657 -1.17303 -3.70368 0
M  V30 8058 H 782.329 -3.63553 -2.83949 0
M  V30 8059 H 780.572 -3.46108 -2.61518 0
M  V30 8060 H 781.243 -3.52527 -4.24769 0
M  V30 8061 H 783.719 -1.6461 -3.82155 0
M  V30 8062 H 782.595 -1.75645 -5.20038 0
M  V30 8063 H 782.856 -0.206491 -4.41618 0
M  V30 8064 N 781.915 1.24427 -0.967243 0
M  V30 8065 C 782.878 2.23637 -0.501927 0
M  V30 8066 C 783.878 1.55712 0.401283 0
M  V30 8067 O 785.068 1.73085 0.196808 0
M  V30 8068 C 782.2 3.39804 0.273176 0
M  V30 8069 H 783.393 2.66317 -1.37897 0
M  V30 8070 H 780.946 1.37033 -0.751783 0
M  V30 8071 H 781.681 3.02562 1.16733 0
M  V30 8072 H 781.466 3.90303 -0.37498 0
M  V30 8073 H 782.956 4.13443 0.587776 0
M  V30 8074 N 783.393 0.737304 1.3929 0
M  V30 8075 C 784.642 0.283129 1.99703 0
M  V30 8076 C 784.955 -1.13677 1.59176 0
M  V30 8077 O 786.161 -1.69058 2.12442 0
M  V30 8078 C 784.617 0.455262 3.57009 0
M  V30 8079 C 784.225 1.88319 4.06497 0
M  V30 8080 C 785.969 0.0629786 4.24453 0
M  V30 8081 C 783.876 2.00475 5.56385 0
M  V30 8082 H 782.806 0.102106 0.747054 0
M  V30 8083 H 785.457 0.911515 1.5926 0
M  V30 8084 H 783.839 -0.242057 3.9526 0
M  V30 8085 H 785.013 2.61265 3.79575 0
M  V30 8086 H 783.328 2.2289 3.51723 0
M  V30 8087 H 785.925 0.132787 5.34535 0
M  V30 8088 H 786.268 -0.982128 4.04549 0
M  V30 8089 H 786.801 0.71154 3.91385 0
M  V30 8090 H 783.54 3.03182 5.81172 0
M  V30 8091 H 783.06 1.31969 5.85102 0
M  V30 8092 H 784.739 1.787 6.21832 0
M  V30 8093 N 784.871 -1.49948 0.485112 0
M  V30 8094 C 785.834 -2.27351 -0.290546 0
M  V30 8095 C 786.834 -1.32704 -0.908087 0
M  V30 8096 O 788.024 -1.56007 -0.775085 0
M  V30 8097 C 785.156 -3.10135 -1.41524 0
M  V30 8098 H 786.349 -2.97374 0.388454 0
M  V30 8099 H 783.902 -1.54453 0.239586 0
M  V30 8100 H 784.637 -2.44641 -2.12888 0
M  V30 8101 H 784.422 -3.79705 -0.978074 0
M  V30 8102 H 785.912 -3.68638 -1.96204 0
M  V30 8103 N 786.349 -0.21828 -1.56081 0
M  V30 8104 C 787.765 0.137168 -1.59009 0
M  V30 8105 C 787.965 1.59215 -1.23503 0
M  V30 8106 O 787.021 2.33178 -0.968716 0
M  V30 8107 C 788.334 -0.186162 -3.00123 0
M  V30 8108 C 789.882 -0.128135 -3.12738 0
M  V30 8109 C 790.357 -0.425094 -4.56023 0
M  V30 8110 N 791.848 -0.374547 -4.61683 0
M  V30 8111 C 792.583 -0.57786 -5.70481 0
M  V30 8112 N 792.079 -0.842771 -6.87655 0
M  V30 8113 N 793.872 -0.510521 -5.59777 0
M  V30 8114 H 786.023 -1.16746 -1.77437 0
M  V30 8115 H 788.286 -0.467706 -0.824594 0
M  V30 8116 H 787.992 -1.19589 -3.30744 0
M  V30 8117 H 787.866 0.500388 -3.73866 0
M  V30 8118 H 790.253 0.872224 -2.81915 0
M  V30 8119 H 790.334 -0.848112 -2.41331 0
M  V30 8120 H 789.978 -1.42288 -4.87562 0
M  V30 8121 H 789.908 0.316038 -5.25651 0
M  V30 8122 H 792.399 -0.177356 -3.77484 0
M  V30 8123 H 792.712 -0.986095 -7.66483 0
M  V30 8124 H 791.057 -0.879929 -6.89407 0
M  V30 8125 H 794.248 -0.303813 -4.67113 0
M  V30 8126 H 794.421 -0.672378 -6.44502 0
M  V30 8127 N 787.827 1.57504 0.0551401 0
M  V30 8128 C 788.774 2.04825 1.06373 0
M  V30 8129 C 789.744 0.932108 1.37481 0
M  V30 8130 O 790.929 1.20093 1.48265 0
M  V30 8131 C 788.069 2.51091 2.36743 0
M  V30 8132 C 787.182 3.76392 2.12021 0
M  V30 8133 C 786.317 4.11373 3.36074 0
M  V30 8134 C 785.356 5.29666 3.0679 0
M  V30 8135 N 784.493 5.60205 4.2322 0
M  V30 8136 H 789.333 2.90753 0.653216 0
M  V30 8137 H 786.87 1.43776 0.310951 0
M  V30 8138 H 788.828 2.75973 3.12881 0
M  V30 8139 H 787.458 1.68118 2.75565 0
M  V30 8140 H 786.51 3.58751 1.26498 0
M  V30 8141 H 787.822 4.62662 1.86401 0
M  V30 8142 H 786.976 4.37245 4.20597 0
M  V30 8143 H 785.715 3.23704 3.64784 0
M  V30 8144 H 784.72 5.03574 2.20664 0
M  V30 8145 H 785.945 6.18968 2.79385 0
M  V30 8146 H 783.891 4.75495 4.5193 0
M  V30 8147 H 783.808 6.40928 4.00933 0
M  V30 8148 H 785.076 5.90637 5.08692 0
M  V30 8149 N 789.305 -0.326896 1.54172 0
M  V30 8150 C 790.551 -1.06304 1.7341 0
M  V30 8151 C 790.906 -1.85791 0.499935 0
M  V30 8152 O 790.199 -1.84753 -0.507625 0
M  V30 8153 C 790.393 -2.0208 2.94785 0
M  V30 8154 C 790.222 -1.32009 4.29888 0
M  V30 8155 C 788.992 -1.05798 4.941 0
M  V30 8156 C 791.19 -0.737721 5.08982 0
M  V30 8157 N 789.172 -0.324836 6.1304 0
M  V30 8158 C 790.543 -0.136006 6.19851 0
M  V30 8159 C 792.598 -0.640206 4.93767 0
M  V30 8160 C 791.301 0.553757 7.17165 0
M  V30 8161 C 793.327 0.0358492 5.91389 0
M  V30 8162 C 792.689 0.626522 7.01608 0
M  V30 8163 H 788.788 -0.372808 0.687414 0
M  V30 8164 H 791.372 -0.34462 1.91626 0
M  V30 8165 H 789.543 -2.71197 2.78041 0
M  V30 8166 H 791.275 -2.68655 3.02666 0
M  V30 8167 H 788.03 -1.34945 4.53968 0
M  V30 8168 H 788.454 0.0274982 6.76994 0
M  V30 8169 H 793.096 -1.0826 4.08705 0
M  V30 8170 H 790.814 1.00799 8.01789 0
M  V30 8171 H 794.4 0.110895 5.81694 0
M  V30 8172 H 793.28 1.14135 7.7585 0
M  V30 8173 N 790.784 -1.46188 -0.588786 0
M  V30 8174 C 791.714 -1.59148 -1.70863 0
M  V30 8175 C 792.695 -0.442083 -1.64255 0
M  V30 8176 O 793.88 -0.667575 -1.82365 0
M  V30 8177 C 791.01 -1.5757 -3.09498 0
M  V30 8178 C 789.964 -2.71418 -3.30932 0
M  V30 8179 C 789.29 -2.549 -4.70032 0
M  V30 8180 C 790.59 -4.1329 -3.19356 0
M  V30 8181 H 792.284 -2.52889 -1.60274 0
M  V30 8182 H 789.83 -1.21707 -0.769638 0
M  V30 8183 H 791.783 -1.65231 -3.87655 0
M  V30 8184 H 790.507 -0.603705 -3.20972 0
M  V30 8185 H 789.166 -2.63216 -2.55172 0
M  V30 8186 H 788.814 -1.55797 -4.78264 0
M  V30 8187 H 788.514 -3.31257 -4.85327 0
M  V30 8188 H 790.038 -2.64443 -5.50366 0
M  V30 8189 H 791.452 -4.22636 -3.87365 0
M  V30 8190 H 789.849 -4.90187 -3.46175 0
M  V30 8191 H 790.919 -4.33874 -2.16522 0
M  V30 8192 N 792.262 0.832906 -1.33792 0
M  V30 8193 C 793.508 1.59089 -1.25772 0
M  V30 8194 C 793.841 1.93414 0.174601 0
M  V30 8195 O 793.116 1.59195 1.11746 0
M  V30 8196 C 793.399 2.89699 -2.13885 0
M  V30 8197 C 793.252 2.62017 -3.65605 0
M  V30 8198 C 794.571 3.91182 -2.01654 0
M  V30 8199 H 791.69 0.577232 -0.458227 0
M  V30 8200 H 794.332 0.960227 -1.6395 0
M  V30 8201 H 792.482 3.4352 -1.81456 0
M  V30 8202 H 794.154 2.14582 -4.08353 0
M  V30 8203 H 792.397 1.95621 -3.87189 0
M  V30 8204 H 793.068 3.55112 -4.2261 0
M  V30 8205 H 795.544 3.46684 -2.30107 0
M  V30 8206 H 794.42 4.80391 -2.65548 0
M  V30 8207 H 794.681 4.30861 -0.990536 0
M  V30 8208 N 793.74 1.17359 1.05189 0
M  V30 8209 C 794.989 0.956412 1.77583 0
M  V30 8210 C 795.302 -0.516018 1.88671 0
M  V30 8211 O 796.508 -0.851401 2.57805 0
M  V30 8212 C 794.964 1.66203 3.19225 0
M  V30 8213 C 794.572 3.17299 3.16267 0
M  V30 8214 C 796.316 1.52725 3.96075 0
M  V30 8215 C 794.223 3.8055 4.52698 0
M  V30 8216 H 793.153 0.354204 0.665624 0
M  V30 8217 H 795.804 1.40612 1.17901 0
M  V30 8218 H 794.186 1.14006 3.79234 0
M  V30 8219 H 795.36 3.76431 2.65776 0
M  V30 8220 H 793.675 3.3079 2.52917 0
M  V30 8221 H 796.272 1.97351 4.96947 0
M  V30 8222 H 796.615 0.477803 4.13549 0
M  V30 8223 H 797.148 2.02139 3.42614 0
M  V30 8224 H 793.887 4.85492 4.4043 0
M  V30 8225 H 793.407 3.26206 5.03339 0
M  V30 8226 H 795.086 3.82757 5.21638 0
M  V30 8227 N 795.218 -1.23913 0.973828 0
M  V30 8228 C 796.148 -2.27453 0.527969 0
M  V30 8229 C 797.129 -1.6443 -0.435513 0
M  V30 8230 O 798.314 -1.9137 -0.330306 0
M  V30 8231 C 795.444 -3.4685 -0.176757 0
M  V30 8232 C 794.398 -4.22181 0.703352 0
M  V30 8233 C 793.724 -5.34534 -0.133215 0
M  V30 8234 C 795.024 -4.82865 1.99096 0
M  V30 8235 H 796.718 -2.65 1.3934 0
M  V30 8236 H 794.264 -1.27388 0.671446 0
M  V30 8237 H 796.217 -4.18424 -0.499934 0
M  V30 8238 H 794.941 -3.08346 -1.07659 0
M  V30 8239 H 793.6 -3.52416 1.00989 0
M  V30 8240 H 793.248 -4.92271 -1.03338 0
M  V30 8241 H 792.948 -5.85855 0.452494 0
M  V30 8242 H 794.472 -6.08933 -0.450924 0
M  V30 8243 H 795.886 -5.46481 1.73297 0
M  V30 8244 H 794.283 -5.44444 2.52389 0
M  V30 8245 H 795.353 -4.03977 2.68199 0
M  V30 8246 N 796.696 -0.74468 -1.38897 0
M  V30 8247 C 797.628 -0.0713608 -2.29089 0
M  V30 8248 C 798.641 0.693224 -1.47303 0
M  V30 8249 O 799.83 0.535785 -1.70269 0
M  V30 8250 C 796.93 0.923078 -3.26087 0
M  V30 8251 C 796.103 0.217998 -4.36856 0
M  V30 8252 C 795.162 1.12192 -5.14101 0
M  V30 8253 O 794.188 0.595771 -5.66073 0
M  V30 8254 N 795.39 2.45082 -5.26227 0
M  V30 8255 H 798.155 -0.845906 -2.87514 0
M  V30 8256 H 795.716 -0.594712 -1.50581 0
M  V30 8257 H 797.708 1.53061 -3.74639 0
M  V30 8258 H 796.278 1.59876 -2.68623 0
M  V30 8259 H 795.498 -0.570134 -3.90055 0
M  V30 8260 H 796.786 -0.270248 -5.08082 0
M  V30 8261 H 796.184 2.90294 -4.85537 0
M  V30 8262 H 794.741 3.00907 -5.78185 0
M  V30 8263 N 798.174 1.49689 -0.493057 0
M  V30 8264 C 799.084 2.32746 0.294358 0
M  V30 8265 C 800.1 1.44117 0.975003 0
M  V30 8266 O 801.276 1.77149 0.958138 0
M  V30 8267 C 798.341 3.19358 1.34949 0
M  V30 8268 C 797.402 4.2383 0.683122 0
M  V30 8269 C 796.635 5.06303 1.68798 0
M  V30 8270 O 796.858 4.90172 2.91698 0
M  V30 8271 O 795.792 5.88826 1.24768 0
M  V30 8272 H 799.618 3.01247 -0.385254 0
M  V30 8273 H 797.203 1.47216 -0.254519 0
M  V30 8274 H 799.085 3.73037 1.96014 0
M  V30 8275 H 797.76 2.53561 2.01217 0
M  V30 8276 H 796.667 3.74086 0.0329351 0
M  V30 8277 H 798 4.9216 0.0630192 0
M  V30 8278 N 799.652 0.226554 1.55963 0
M  V30 8279 C 800.899 -0.403789 1.98433 0
M  V30 8280 C 801.227 -1.59416 1.1143 0
M  V30 8281 O 800.482 -1.95042 0.160389 0
M  V30 8282 C 800.781 -0.87642 3.46488 0
M  V30 8283 C 800.447 0.203973 4.50438 0
M  V30 8284 C 799.109 0.500754 4.78587 0
M  V30 8285 C 801.461 0.934396 5.12756 0
M  V30 8286 C 798.789 1.53239 5.66334 0
M  V30 8287 C 801.141 1.9554 6.0162 0
M  V30 8288 C 799.805 2.25905 6.28111 0
M  V30 8289 H 799.075 -0.147757 0.726119 0
M  V30 8290 H 801.722 0.330121 1.88633 0
M  V30 8291 H 800.027 -1.68918 3.53517 0
M  V30 8292 H 801.724 -1.37407 3.76723 0
M  V30 8293 H 798.314 -0.0374917 4.28584 0
M  V30 8294 H 802.498 0.718355 4.91074 0
M  V30 8295 H 797.754 1.77321 5.85122 0
M  V30 8296 H 801.928 2.52642 6.48957 0
M  V30 8297 H 799.555 3.05985 6.959 0
M  V30 8298 N 801.13 -1.57531 -0.0467866 0
M  V30 8299 C 802.093 -2.04379 -1.03738 0
M  V30 8300 C 803.093 -0.944881 -1.3011 0
M  V30 8301 O 804.283 -1.20904 -1.25411 0
M  V30 8302 C 801.415 -2.44572 -2.37482 0
M  V30 8303 H 802.608 -2.93142 -0.633063 0
M  V30 8304 H 800.161 -1.53526 -0.293177 0
M  V30 8305 H 800.896 -1.58911 -2.82697 0
M  V30 8306 H 800.681 -3.24785 -2.19675 0
M  V30 8307 H 802.171 -2.81307 -3.08636 0
M  V30 8308 N 802.608 0.318715 -1.54344 0
M  V30 8309 C 803.885 1.07461 -1.63437 0
M  V30 8310 C 804.265 2.05771 -0.47131 0
M  V30 8311 O 803.613 2.22175 0.53391 0
M  V30 8312 C 803.823 1.77224 -3.00654 0
M  V30 8313 C 805.171 2.30069 -3.56866 0
M  V30 8314 O 806.195 1.87284 -3.0299 0
M  V30 8315 O 805.054 3.08412 -4.51159 0
M  V30 8316 H 802.148 0.495627 -0.66203 0
M  V30 8317 H 804.694 0.318218 -1.6669 0
M  V30 8318 H 803.466 1.05742 -3.76742 0
M  V30 8319 H 803.089 2.59662 -3.01101 0
M  V30 8320 N 804.086 1.46499 0.581025 0
M  V30 8321 C 805.018 1.53225 1.70455 0
M  V30 8322 C 806.031 0.420443 1.57277 0
M  V30 8323 O 807.22 0.688888 1.64671 0
M  V30 8324 C 804.32 1.39803 3.08721 0
M  V30 8325 C 803.493 2.65132 3.47884 0
M  V30 8326 C 802.552 2.45886 4.65217 0
M  V30 8327 O 801.578 3.19615 4.70993 0
M  V30 8328 N 802.78 1.5216 5.60203 0
M  V30 8329 H 805.545 2.50098 1.65139 0
M  V30 8330 H 803.106 1.42576 0.76705 0
M  V30 8331 H 805.098 1.24697 3.8501 0
M  V30 8332 H 803.668 0.51104 3.08394 0
M  V30 8333 H 802.888 2.95169 2.61284 0
M  V30 8334 H 804.176 3.48385 3.70817 0
M  V30 8335 H 803.574 0.913646 5.58273 0
M  V30 8336 H 802.131 1.43017 6.35916 0
M  V30 8337 N 805.565 -0.825799 1.34232 0
M  V30 8338 C 806.528 -1.91808 1.25468 0
M  V30 8339 C 807.528 -1.59893 0.170567 0
M  V30 8340 O 808.718 -1.68986 0.422996 0
M  V30 8341 C 805.85 -3.27786 0.93644 0
M  V30 8342 H 807.043 -2.01003 2.22571 0
M  V30 8343 H 804.596 -1.01944 1.18479 0
M  V30 8344 H 805.331 -3.24285 -0.0315408 0
M  V30 8345 H 805.116 -3.52333 1.72057 0
M  V30 8346 H 806.606 -4.07782 0.900214 0
M  V30 8347 N 807.043 -1.17915 -1.04565 0
M  V30 8348 C 807.953 -0.916449 -2.15959 0
M  V30 8349 C 808.969 0.117655 -1.73602 0
M  V30 8350 O 810.145 -0.063089 -2.01301 0
M  V30 8351 C 807.21 -0.440262 -3.43893 0
M  V30 8352 C 806.271 -1.54172 -4.00661 0
M  V30 8353 C 805.504 -1.08816 -5.22489 0
M  V30 8354 O 805.727 0.0551547 -5.70373 0
M  V30 8355 O 804.661 -1.88383 -5.7166 0
M  V30 8356 H 808.487 -1.8484 -2.40972 0
M  V30 8357 H 806.072 -0.960552 -1.14428 0
M  V30 8358 H 807.954 -0.182537 -4.21004 0
M  V30 8359 H 806.629 0.46346 -3.20365 0
M  V30 8360 H 805.536 -1.85341 -3.24961 0
M  V30 8361 H 806.869 -2.42139 -4.2852 0
M  V30 8362 N 808.521 1.23394 -0.980386 0
M  V30 8363 C 809.798 1.87242 -0.565667 0
M  V30 8364 C 810.178 1.88151 0.957197 0
M  V30 8365 O 809.526 1.36309 1.8339 0
M  V30 8366 C 809.736 3.28743 -1.17172 0
M  V30 8367 C 811.084 4.05335 -1.26446 0
M  V30 8368 O 812.108 3.37962 -1.12517 0
M  V30 8369 O 810.967 5.25908 -1.48604 0
M  V30 8370 H 808.061 0.80477 -0.190459 0
M  V30 8371 H 810.607 1.3127 -1.07547 0
M  V30 8372 H 809.379 3.22647 -2.21392 0
M  V30 8373 H 809.002 3.92305 -0.646739 0
M  V30 8374 N 809.999 0.752036 1.385 0
M  V30 8375 C 810.909 0.125318 2.34265 0
M  V30 8376 C 811.925 -0.702437 1.59191 0
M  V30 8377 O 813.101 -0.626951 1.91393 0
M  V30 8378 C 810.166 -0.758486 3.38301 0
M  V30 8379 C 809.227 0.0834636 4.29219 0
M  V30 8380 C 808.46 -0.758252 5.28286 0
M  V30 8381 O 808.683 -1.99632 5.34325 0
M  V30 8382 O 807.617 -0.177878 6.01637 0
M  V30 8383 H 811.443 0.91617 2.89551 0
M  V30 8384 H 809.028 0.512911 1.4032 0
M  V30 8385 H 810.91 -1.26365 4.02007 0
M  V30 8386 H 809.585 -1.52786 2.85374 0
M  V30 8387 H 808.492 0.634545 3.68679 0
M  V30 8388 H 809.825 0.815455 4.85398 0
M  V30 8389 N 811.477 -1.49425 0.500989 0
M  V30 8390 C 812.893 -1.58826 0.156951 0
M  V30 8391 C 813.093 -1.50622 -1.33848 0
M  V30 8392 O 812.149 -1.38016 -2.11442 0
M  V30 8393 C 813.462 -2.91611 0.73374 0
M  V30 8394 C 815.01 -3.05076 0.699846 0
M  V30 8395 C 815.485 -4.40479 1.2547 0
M  V30 8396 N 816.976 -4.4697 1.2154 0
M  V30 8397 C 817.711 -5.50189 1.6149 0
M  V30 8398 N 817.207 -6.60512 2.09034 0
M  V30 8399 N 819 -5.40903 1.52907 0
M  V30 8400 H 811.151 -1.53001 1.47324 0
M  V30 8401 H 813.414 -0.724765 0.61108 0
M  V30 8402 H 813.12 -3.03182 1.78251 0
M  V30 8403 H 812.994 -3.767 0.19417 0
M  V30 8404 H 815.381 -2.93134 -0.340085 0
M  V30 8405 H 815.462 -2.2167 1.27656 0
M  V30 8406 H 815.106 -4.53172 2.29341 0
M  V30 8407 H 815.036 -5.22524 0.653921 0
M  V30 8408 H 817.527 -3.67819 0.867043 0
M  V30 8409 H 817.84 -7.35372 2.37588 0
M  V30 8410 H 816.185 -6.61553 2.13008 0
M  V30 8411 H 819.376 -4.53606 1.15583 0
M  V30 8412 H 819.549 -6.21219 1.84365 0
M  V30 8413 N 812.955 -0.234822 -1.55841 0
M  V30 8414 C 814.371 0.120295 -1.59146 0
M  V30 8415 C 814.571 1.57896 -1.25184 0
M  V30 8416 O 813.627 2.32138 -0.993393 0
M  V30 8417 C 814.94 -0.217984 -2.99909 0
M  V30 8418 C 816.488 -0.161298 -3.12584 0
M  V30 8419 C 816.963 -0.473438 -4.55546 0
M  V30 8420 N 818.454 -0.423494 -4.6126 0
M  V30 8421 C 819.189 -0.638334 -5.69836 0
M  V30 8422 N 818.685 -0.915659 -6.86722 0
M  V30 8423 N 820.478 -0.569864 -5.59204 0
M  V30 8424 H 812.629 -1.18622 -1.76189 0
M  V30 8425 H 814.892 -0.476426 -0.819587 0
M  V30 8426 H 814.598 -1.2309 -3.29457 0
M  V30 8427 H 814.472 0.460707 -3.74376 0
M  V30 8428 H 816.859 0.842274 -2.82825 0
M  V30 8429 H 816.94 -0.873661 -2.40418 0
M  V30 8430 H 816.584 -1.47451 -4.86025 0
M  V30 8431 H 816.514 0.260268 -5.25956 0
M  V30 8432 H 819.005 -0.217383 -3.77274 0
M  V30 8433 H 819.318 -1.06734 -7.65394 0
M  V30 8434 H 817.663 -0.953 -6.88435 0
M  V30 8435 H 820.854 -0.35334 -4.66765 0
M  V30 8436 H 821.027 -0.740698 -6.43753 0
M  V30 8437 N 814.433 1.57553 0.0384317 0
M  V30 8438 C 815.849 1.54663 0.39391 0
M  V30 8439 C 816.049 0.959685 1.77179 0
M  V30 8440 O 815.105 0.576647 2.45827 0
M  V30 8441 C 816.418 2.99156 0.304352 0
M  V30 8442 C 817.966 3.10659 0.382119 0
M  V30 8443 C 818.441 4.56866 0.322111 0
M  V30 8444 N 819.932 4.61629 0.38119 0
M  V30 8445 C 820.667 5.72284 0.357501 0
M  V30 8446 N 820.163 6.92207 0.286654 0
M  V30 8447 N 821.956 5.60628 0.406538 0
M  V30 8448 H 814.107 1.9406 -0.86339 0
M  V30 8449 H 816.37 0.889673 -0.327392 0
M  V30 8450 H 816.076 3.45788 -0.642141 0
M  V30 8451 H 815.95 3.60753 1.10168 0
M  V30 8452 H 818.337 2.6398 1.31904 0
M  V30 8453 H 818.418 2.5191 -0.444391 0
M  V30 8454 H 818.062 5.0421 -0.611104 0
M  V30 8455 H 817.992 5.13515 1.1666 0
M  V30 8456 H 820.483 3.75343 0.438838 0
M  V30 8457 H 820.796 7.72316 0.273421 0
M  V30 8458 H 819.141 6.9454 0.252841 0
M  V30 8459 H 822.332 4.65836 0.459812 0
M  V30 8460 H 822.505 6.46858 0.384608 0
M  V30 8461 N 815.911 -0.310526 1.54511 0
M  V30 8462 C 817.159 -1.04484 1.72996 0
M  V30 8463 C 817.48 -1.88118 0.513479 0
M  V30 8464 O 816.75 -1.90119 -0.472384 0
M  V30 8465 H 815.33 -0.388747 0.637875 0
M  V30 8466 H 817.992 -0.343811 1.91844 0
M  V30 8467 H 817.088 -1.70341 2.61515 0
M  V30 8468 N 817.389 -1.46805 -0.573248 0
M  V30 8469 C 818.319 -1.60951 -1.69165 0
M  V30 8470 C 819.3 -0.45948 -1.63777 0
M  V30 8471 O 820.485 -0.68688 -1.81647 0
M  V30 8472 C 817.615 -1.60844 -3.07809 0
M  V30 8473 C 816.569 -2.74913 -3.28035 0
M  V30 8474 C 815.895 -2.59871 -4.67302 0
M  V30 8475 C 817.195 -4.16654 -3.14955 0
M  V30 8476 H 818.889 -2.54574 -1.57582 0
M  V30 8477 H 816.435 -1.22516 -0.756686 0
M  V30 8478 H 818.388 -1.69334 -3.85881 0
M  V30 8479 H 817.112 -0.637714 -3.20314 0
M  V30 8480 H 815.771 -2.65908 -2.52366 0
M  V30 8481 H 815.419 -1.60861 -4.76585 0
M  V30 8482 H 815.119 -3.36386 -4.81786 0
M  V30 8483 H 816.643 -2.70265 -5.4753 0
M  V30 8484 H 818.057 -4.26721 -3.82861 0
M  V30 8485 H 816.454 -4.93831 -3.40956 0
M  V30 8486 H 817.524 -4.36146 -2.11908 0
M  V30 8487 N 818.867 0.818669 -1.34668 0
M  V30 8488 C 820.278 1.39177 -1.24446 0
M  V30 8489 C 820.629 1.9578 0.128268 0
M  V30 8490 O 819.754 1.90382 1.02877 0
M  V30 8491 C 820.349 2.53012 -2.25323 0
M  V30 8492 C 818.908 3.06218 -2.18878 0
M  V30 8493 C 818.055 1.79112 -2.11694 0
M  V30 8494 H 821.006 0.622709 -1.45973 0
M  V30 8495 H 821.027 3.31226 -1.8727 0
M  V30 8496 H 820.539 2.11784 -3.25221 0
M  V30 8497 H 818.64 3.51939 -1.22351 0
M  V30 8498 H 818.753 3.65019 -3.10319 0
M  V30 8499 H 817.117 2.0018 -1.57481 0
M  V30 8500 H 817.9 1.40053 -3.13433 0
M  V30 8501 N 820.346 1.18468 1.03938 0
M  V30 8502 C 821.592 0.982286 1.77423 0
M  V30 8503 C 821.925 -0.48679 1.88 0
M  V30 8504 O 821.2 -1.36146 1.38905 0
M  V30 8505 C 821.483 1.63929 3.20623 0
M  V30 8506 C 821.336 3.18132 3.17982 0
M  V30 8507 C 822.655 1.3536 4.18767 0
M  V30 8508 H 819.774 0.358264 0.644062 0
M  V30 8509 H 822.416 1.46154 1.21405 0
M  V30 8510 H 820.566 1.2318 3.68455 0
M  V30 8511 H 822.238 3.68024 2.78129 0
M  V30 8512 H 820.481 3.50225 2.55978 0
M  V30 8513 H 821.152 3.5924 4.19107 0
M  V30 8514 H 823.628 1.70669 3.79488 0
M  V30 8515 H 822.504 1.83896 5.17178 0
M  V30 8516 H 822.765 0.276722 4.41233 0
M  V30 8517 N 821.824 -1.22873 0.986916 0
M  V30 8518 C 823.052 -1.95487 0.677663 0
M  V30 8519 C 823.467 -1.72978 -0.756572 0
M  V30 8520 O 822.824 -1.02517 -1.50985 0
M  V30 8521 C 822.875 -3.48337 0.966638 0
M  V30 8522 O 822.596 -3.70087 2.34451 0
M  V30 8523 C 824.097 -4.38142 0.674248 0
M  V30 8524 H 821.317 -0.622211 0.251185 0
M  V30 8525 H 823.861 -1.56187 1.32007 0
M  V30 8526 H 822.016 -3.85628 0.370137 0
M  V30 8527 H 822.43 -4.64332 2.43918 0
M  V30 8528 H 823.904 -5.44165 0.926759 0
M  V30 8529 H 824.381 -4.3745 -0.391728 0
M  V30 8530 H 824.987 -4.06469 1.25152 0
M  V30 8531 N 823.302 -0.75937 -1.38099 0
M  V30 8532 C 824.713 -0.385078 -1.82686 0
M  V30 8533 C 825.064 1.0871 -1.6333 0
M  V30 8534 O 824.189 1.84084 -1.13762 0
M  V30 8535 C 824.784 -0.692161 -3.31654 0
M  V30 8536 C 823.343 -0.371077 -3.74566 0
M  V30 8537 C 822.49 -0.942375 -2.60796 0
M  V30 8538 H 825.441 -0.955048 -1.26746 0
M  V30 8539 H 825.462 0.0276001 -3.8049 0
M  V30 8540 H 824.974 -1.76369 -3.4571 0
M  V30 8541 H 823.075 0.693637 -3.66087 0
M  V30 8542 H 823.188 -0.870672 -4.71122 0
M  V30 8543 H 821.552 -0.367383 -2.52036 0
M  V30 8544 H 822.335 -2.01905 -2.77649 0
M  V30 8545 N 824.78 1.49157 -0.508906 0
M  V30 8546 C 826.028 2.02073 0.0327335 0
M  V30 8547 C 826.349 1.39012 1.3675 0
M  V30 8548 O 825.619 0.548153 1.88075 0
M  V30 8549 H 824.199 0.746848 0.0150864 0
M  V30 8550 H 826.861 1.83097 -0.667946 0
M  V30 8551 H 825.957 3.11707 0.1566 0
M  V30 8552 N 826.258 0.243083 1.55714 0
M  V30 8553 C 827.505 -0.38272 1.9885 0
M  V30 8554 C 827.833 -1.58225 1.13115 0
M  V30 8555 O 827.088 -1.94861 0.181067 0
M  V30 8556 C 827.387 -0.839621 3.47398 0
M  V30 8557 C 827.053 0.251737 4.50197 0
M  V30 8558 C 825.715 0.551487 4.78029 0
M  V30 8559 C 828.067 0.988728 5.11736 0
M  V30 8560 C 825.395 1.59237 5.64677 0
M  V30 8561 C 827.747 2.0191 5.99512 0
M  V30 8562 C 826.411 2.32554 6.2568 0
M  V30 8563 H 825.681 -0.140047 0.727645 0
M  V30 8564 H 828.328 0.35011 1.88272 0
M  V30 8565 H 826.633 -1.65159 3.55288 0
M  V30 8566 H 828.33 -1.33404 3.78159 0
M  V30 8567 H 824.92 0.00796741 4.28599 0
M  V30 8568 H 829.104 0.7704 4.90284 0
M  V30 8569 H 824.36 1.83517 5.83208 0
M  V30 8570 H 828.534 2.59511 6.46241 0
M  V30 8571 H 826.161 3.13349 6.92616 0
M  V30 8572 N 827.736 -1.57571 -0.0300757 0
M  V30 8573 C 829.013 -1.80381 -0.756447 0
M  V30 8574 C 829.393 -0.840906 -1.93628 0
M  V30 8575 O 828.741 0.117143 -2.282 0
M  V30 8576 C 828.951 -3.2807 -1.19043 0
M  V30 8577 C 830.299 -3.93025 -1.60676 0
M  V30 8578 O 831.323 -3.32213 -1.28503 0
M  V30 8579 O 830.182 -5.00092 -2.20386 0
M  V30 8580 H 827.276 -0.741737 -0.365725 0
M  V30 8581 H 829.822 -1.69699 -0.00693177 0
M  V30 8582 H 828.594 -3.89748 -0.348128 0
M  V30 8583 H 828.217 -3.43637 -1.99999 0
M  V30 8584 N 829.214 0.302327 -1.54673 0
M  V30 8585 C 830.442 1.05669 -1.77881 0
M  V30 8586 C 830.857 1.80983 -0.537648 0
M  V30 8587 O 830.214 1.7573 0.492467 0
M  V30 8588 C 830.265 2.03828 -2.98557 0
M  V30 8589 O 829.986 1.3157 -4.17877 0
M  V30 8590 C 831.487 2.91314 -3.34143 0
M  V30 8591 H 828.707 0.313436 -0.593295 0
M  V30 8592 H 831.251 0.342003 -2.0162 0
M  V30 8593 H 829.406 2.70801 -2.7703 0
M  V30 8594 H 829.82 1.97481 -4.85903 0
M  V30 8595 H 831.294 3.56042 -4.21827 0
M  V30 8596 H 831.771 3.59544 -2.52239 0
M  V30 8597 H 832.377 2.29874 -3.57824 0
M  V30 8598 N 830.692 1.47107 0.565454 0
M  V30 8599 C 832.103 1.47266 1.1476 0
M  V30 8600 C 832.454 0.222841 1.9493 0
M  V30 8601 O 831.579 -0.672862 2.05673 0
M  V30 8602 C 832.174 2.66822 2.08785 0
M  V30 8603 C 830.733 2.69967 2.62288 0
M  V30 8604 C 829.88 2.40236 1.38499 0
M  V30 8605 H 832.831 1.54736 0.352479 0
M  V30 8606 H 832.852 2.43323 2.92531 0
M  V30 8607 H 832.364 3.5777 1.50408 0
M  V30 8608 H 830.465 1.83137 3.24487 0
M  V30 8609 H 830.578 3.70426 3.03845 0
M  V30 8610 H 828.942 1.90648 1.68895 0
M  V30 8611 H 829.725 3.33381 0.819274 0
M  V30 8612 N 832.17 -0.811516 1.35101 0
M  V30 8613 C 833.395 -1.60499 1.31358 0
M  V30 8614 C 833.82 -1.87793 -0.107383 0
M  V30 8615 O 833.178 -1.46161 -1.07268 0
M  V30 8616 C 833.226 -2.91612 2.12119 0
M  V30 8617 O 832.33 -3.84211 1.49853 0
M  V30 8618 H 831.671 -0.487702 0.450603 0
M  V30 8619 H 834.201 -1.00758 1.7807 0
M  V30 8620 H 834.211 -3.4108 2.23894 0
M  V30 8621 H 832.886 -2.71071 3.15426 0
M  V30 8622 H 831.463 -3.42751 1.46889 0
M  V30 8623 N 833.648 -1.19017 -1.03309 0
M  V30 8624 C 834.873 -1.01598 -1.80811 0
M  V30 8625 C 835.298 0.430773 -1.83101 0
M  V30 8626 O 834.656 1.30946 -1.25391 0
M  V30 8627 C 834.704 -1.5845 -3.23923 0
M  V30 8628 O 833.808 -0.810972 -4.04348 0
M  V30 8629 H 833.149 -0.359398 -0.558327 0
M  V30 8630 H 835.679 -1.57945 -1.30055 0
M  V30 8631 H 835.689 -1.61486 -3.74682 0
M  V30 8632 H 834.364 -2.63752 -3.21571 0
M  V30 8633 H 832.941 -0.85353 -3.63 0
M  V30 8634 N 835.127 1.22348 -0.993418 0
M  V30 8635 C 836.373 1.91393 -0.67056 0
M  V30 8636 C 836.706 1.77163 0.795428 0
M  V30 8637 O 835.981 1.14084 1.57528 0
M  V30 8638 C 836.264 3.43589 -1.0779 0
M  V30 8639 C 836.117 3.66867 -2.60248 0
M  V30 8640 C 837.436 4.35545 -0.631527 0
M  V30 8641 H 834.555 0.695057 -0.24508 0
M  V30 8642 H 837.197 1.44213 -1.23703 0
M  V30 8643 H 835.347 3.83903 -0.595902 0
M  V30 8644 H 837.019 3.35954 -3.16121 0
M  V30 8645 H 835.262 3.1113 -3.02293 0
M  V30 8646 H 835.933 4.73457 -2.838 0
M  V30 8647 H 838.409 4.0275 -1.04554 0
M  V30 8648 H 837.285 5.40707 -0.944831 0
M  V30 8649 H 837.546 4.39618 0.467779 0
M  V30 8650 N 836.605 0.766683 1.37694 0
M  V30 8651 C 837.515 0.150158 2.34119 0
M  V30 8652 C 838.531 -0.685513 1.59927 0
M  V30 8653 O 839.707 -0.606616 1.92047 0
M  V30 8654 C 836.772 -0.722562 3.39087 0
M  V30 8655 C 835.833 0.128983 4.29106 0
M  V30 8656 C 835.066 -0.702178 5.29061 0
M  V30 8657 O 835.289 -1.93954 5.36412 0
M  V30 8658 O 834.223 -0.114056 6.01792 0
M  V30 8659 H 838.049 0.946829 2.88563 0
M  V30 8660 H 835.634 0.527765 1.39768 0
M  V30 8661 H 837.516 -1.22095 4.03325 0
M  V30 8662 H 836.191 -1.49751 2.86978 0
M  V30 8663 H 835.098 0.673612 3.67985 0
M  V30 8664 H 836.431 0.866892 4.84506 0
M  V30 8665 N 838.083 -1.48885 0.516809 0
M  V30 8666 C 839.03 -2.29408 -0.253125 0
M  V30 8667 C 840 -1.36533 -0.945935 0
M  V30 8668 O 841.185 -1.65495 -0.949527 0
M  V30 8669 C 838.325 -3.19592 -1.30211 0
M  V30 8670 C 837.438 -4.27535 -0.61948 0
M  V30 8671 C 836.573 -5.04916 -1.65026 0
M  V30 8672 C 835.612 -6.04677 -0.950368 0
M  V30 8673 N 834.749 -6.75164 -1.92608 0
M  V30 8674 H 839.589 -2.94738 0.439744 0
M  V30 8675 H 837.126 -1.45311 0.2287 0
M  V30 8676 H 839.084 -3.70267 -1.92245 0
M  V30 8677 H 837.714 -2.56213 -1.96353 0
M  V30 8678 H 836.766 -3.80228 0.114505 0
M  V30 8679 H 838.078 -4.98752 -0.0693016 0
M  V30 8680 H 837.232 -5.59539 -2.34523 0
M  V30 8681 H 835.971 -4.33508 -2.23432 0
M  V30 8682 H 834.976 -5.4927 -0.241252 0
M  V30 8683 H 836.201 -6.78077 -0.372599 0
M  V30 8684 H 834.147 -6.06517 -2.49946 0
M  V30 8685 H 834.064 -7.4241 -1.42699 0
M  V30 8686 H 835.332 -7.34384 -2.61345 0
M  V30 8687 N 839.561 -0.251338 -1.55583 0
M  V30 8688 C 840.786 0.379136 -2.03905 0
M  V30 8689 C 841.211 1.50428 -1.12929 0
M  V30 8690 O 840.569 1.80882 -0.123114 0
M  V30 8691 C 840.617 0.86009 -3.50193 0
M  V30 8692 O 839.721 1.96932 -3.62342 0
M  V30 8693 H 839.062 0.0820183 -0.658915 0
M  V30 8694 H 841.592 -0.378692 -2.01065 0
M  V30 8695 H 841.602 1.16214 -3.91099 0
M  V30 8696 H 840.277 0.0367559 -4.15884 0
M  V30 8697 H 838.854 1.67163 -3.33333 0
M  V30 8698 N 841.039 1.57585 0.0217189 0
M  V30 8699 C 841.971 2.03849 1.04777 0
M  V30 8700 C 842.984 0.952558 1.32023 0
M  V30 8701 O 844.173 1.22974 1.29381 0
M  V30 8702 C 841.273 2.40504 2.3877 0
M  V30 8703 C 840.446 3.71566 2.30775 0
M  V30 8704 C 839.505 3.95329 3.47277 0
M  V30 8705 O 838.531 4.66289 3.26441 0
M  V30 8706 N 839.733 3.41536 4.69397 0
M  V30 8707 H 842.498 2.92491 0.653395 0
M  V30 8708 H 840.059 1.60538 0.209527 0
M  V30 8709 H 842.051 2.53532 3.15442 0
M  V30 8710 H 840.621 1.57494 2.70027 0
M  V30 8711 H 839.841 3.68822 1.39155 0
M  V30 8712 H 841.129 4.5753 2.22584 0
M  V30 8713 H 840.527 2.84033 4.89226 0
M  V30 8714 H 839.084 3.59932 5.43408 0
M  V30 8715 N 842.517 -0.29412 1.54831 0
M  V30 8716 C 843.766 -1.02614 1.73647 0
M  V30 8717 C 844.079 -1.88193 0.533162 0
M  V30 8718 O 845.285 -2.64713 0.603275 0
M  V30 8719 C 843.741 -1.87417 3.07251 0
M  V30 8720 C 843.349 -1.06806 4.35082 0
M  V30 8721 C 845.093 -2.60176 3.35423 0
M  V30 8722 C 843 -1.90926 5.59733 0
M  V30 8723 H 841.93 -0.386834 0.647206 0
M  V30 8724 H 844.581 -0.282789 1.81308 0
M  V30 8725 H 842.963 -2.65765 2.93572 0
M  V30 8726 H 844.137 -0.330226 4.59615 0
M  V30 8727 H 842.452 -0.455979 4.13896 0
M  V30 8728 H 845.049 -3.23476 4.25755 0
M  V30 8729 H 845.392 -3.29365 2.54606 0
M  V30 8730 H 845.925 -1.88871 3.50103 0
M  V30 8731 H 842.664 -1.26194 6.43238 0
M  V30 8732 H 842.184 -2.62363 5.39375 0
M  V30 8733 H 843.863 -2.48807 5.97247 0
M  V30 8734 N 843.995 -1.47404 -0.557645 0
M  V30 8735 C 845.406 -1.47872 -1.13977 0
M  V30 8736 C 845.757 -0.233176 -1.94809 0
M  V30 8737 O 844.882 0.661945 -2.06027 0
M  V30 8738 C 845.477 -2.67926 -2.07368 0
M  V30 8739 C 844.036 -2.71354 -2.60852 0
M  V30 8740 C 843.183 -2.40967 -1.37223 0
M  V30 8741 H 846.134 -1.54921 -0.344268 0
M  V30 8742 H 846.155 -2.44871 -2.91236 0
M  V30 8743 H 845.667 -3.58562 -1.48509 0
M  V30 8744 H 843.768 -1.84855 -3.23511 0
M  V30 8745 H 843.881 -3.72032 -3.01876 0
M  V30 8746 H 842.245 -1.91541 -1.67882 0
M  V30 8747 H 843.028 -3.33811 -0.801583 0
M  V30 8748 N 845.473 0.80434 -1.35529 0
M  V30 8749 C 846.72 1.56154 -1.28927 0
M  V30 8750 C 847.048 1.94026 0.135682 0
M  V30 8751 O 846.303 1.61759 1.10148 0
M  V30 8752 C 846.602 2.85988 -2.14349 0
M  V30 8753 C 846.268 2.67323 -3.6311 0
M  V30 8754 C 844.93 2.61941 -4.03659 0
M  V30 8755 C 847.282 2.49699 -4.57493 0
M  V30 8756 C 844.61 2.3688 -5.36754 0
M  V30 8757 C 846.962 2.26168 -5.90788 0
M  V30 8758 C 845.626 2.19209 -6.30479 0
M  V30 8759 H 844.896 0.571407 -0.471779 0
M  V30 8760 H 847.543 0.929193 -1.67446 0
M  V30 8761 H 845.848 3.53612 -1.68718 0
M  V30 8762 H 847.545 3.43697 -2.06576 0
M  V30 8763 H 844.135 2.72361 -3.30934 0
M  V30 8764 H 848.319 2.52869 -4.27049 0
M  V30 8765 H 843.575 2.29964 -5.66504 0
M  V30 8766 H 847.749 2.11522 -6.63499 0
M  V30 8767 H 845.376 1.99553 -7.33541 0
M  V30 8768 N 846.951 1.19563 1.02676 0
M  V30 8769 C 847.881 0.959024 2.12897 0
M  V30 8770 C 848.862 -0.108382 1.69754 0
M  V30 8771 O 850.047 0.0470698 1.94143 0
M  V30 8772 C 847.177 0.499211 3.43693 0
M  V30 8773 C 846.131 1.5087 4.00528 0
M  V30 8774 C 845.457 0.905884 5.2697 0
M  V30 8775 C 846.757 2.88954 4.3509 0
M  V30 8776 H 848.451 1.88084 2.32948 0
M  V30 8777 H 845.997 0.905731 1.11949 0
M  V30 8778 H 847.95 0.320965 4.20176 0
M  V30 8779 H 846.674 -0.458205 3.2337 0
M  V30 8780 H 845.333 1.67413 3.26142 0
M  V30 8781 H 844.981 -0.0591506 5.02965 0
M  V30 8782 H 844.681 1.58 5.65959 0
M  V30 8783 H 846.205 0.73848 6.06118 0
M  V30 8784 H 847.619 2.75981 5.02501 0
M  V30 8785 H 846.016 3.53177 4.85166 0
M  V30 8786 H 847.086 3.41447 3.44299 0
M  V30 8787 N 848.429 -1.21819 0.999893 0
M  V30 8788 C 849.706 -1.86318 0.595384 0
M  V30 8789 C 850.086 -1.8965 -0.927143 0
M  V30 8790 O 849.434 -1.3921 -1.81199 0
M  V30 8791 C 849.644 -3.26837 1.22387 0
M  V30 8792 C 850.992 -4.03272 1.32878 0
M  V30 8793 O 852.016 -3.36129 1.1788 0
M  V30 8794 O 850.875 -5.23477 1.56952 0
M  V30 8795 H 847.969 -0.801638 0.203238 0
M  V30 8796 H 850.515 -1.29542 1.09622 0
M  V30 8797 H 849.287 -3.19084 2.26497 0
M  V30 8798 H 848.91 -3.91226 0.709069 0
M  V30 8799 N 849.908 -0.773975 -1.37286 0
M  V30 8800 C 851.155 -0.339306 -1.99637 0
M  V30 8801 C 851.483 1.08478 -1.61439 0
M  V30 8802 O 850.738 1.7612 -0.853252 0
M  V30 8803 C 851.037 -0.432651 -3.54772 0
M  V30 8804 C 850.703 -1.81531 -4.12744 0
M  V30 8805 C 849.365 -2.19366 -4.2829 0
M  V30 8806 C 851.717 -2.72137 -4.44512 0
M  V30 8807 C 849.045 -3.47239 -4.72908 0
M  V30 8808 C 851.397 -3.99421 -4.90556 0
M  V30 8809 C 850.061 -4.37298 -5.04308 0
M  V30 8810 H 849.331 -0.124161 -0.730524 0
M  V30 8811 H 851.978 -0.988432 -1.64019 0
M  V30 8812 H 850.283 0.30001 -3.9065 0
M  V30 8813 H 851.98 -0.0776 -4.00925 0
M  V30 8814 H 848.57 -1.51126 -4.01072 0
M  V30 8815 H 852.754 -2.44165 -4.32084 0
M  V30 8816 H 848.01 -3.76477 -4.81742 0
M  V30 8817 H 852.184 -4.69756 -5.14104 0
M  V30 8818 H 849.811 -5.36442 -5.38641 0
M  V30 8819 N 851.386 1.48609 -0.524698 0
M  V30 8820 C 852.633 2.02497 0.0113214 0
M  V30 8821 C 852.961 1.40229 1.34781 0
M  V30 8822 O 852.216 0.53557 1.88229 0
M  V30 8823 C 852.515 3.56906 0.187873 0
M  V30 8824 C 852.181 4.37932 -1.07359 0
M  V30 8825 C 850.843 4.59792 -1.41933 0
M  V30 8826 C 853.195 4.84902 -1.911 0
M  V30 8827 C 850.523 5.25868 -2.60154 0
M  V30 8828 C 852.875 5.52281 -3.08495 0
M  V30 8829 C 851.539 5.7238 -3.4342 0
M  V30 8830 H 850.809 0.740988 0.0041428 0
M  V30 8831 H 853.456 1.78651 -0.689652 0
M  V30 8832 H 851.761 3.79563 0.971572 0
M  V30 8833 H 853.458 3.96218 0.617443 0
M  V30 8834 H 850.048 4.21175 -0.794331 0
M  V30 8835 H 854.232 4.67821 -1.65701 0
M  V30 8836 H 849.488 5.39628 -2.87422 0
M  V30 8837 H 853.662 5.87645 -3.73692 0
M  V30 8838 H 851.289 6.23354 -4.35126 0
M  V30 8839 N 852.864 0.259585 1.55447 0
M  V30 8840 C 854.11 -0.362143 1.9954 0
M  V30 8841 C 854.443 -1.5666 1.14767 0
M  V30 8842 O 853.718 -1.93319 0.214025 0
M  V30 8843 C 854.001 -0.759588 3.51998 0
M  V30 8844 C 853.854 0.451134 4.47532 0
M  V30 8845 C 855.173 -1.60186 4.09913 0
M  V30 8846 H 852.292 -0.130157 0.725416 0
M  V30 8847 H 854.934 0.363431 1.86492 0
M  V30 8848 H 853.084 -1.3778 3.63248 0
M  V30 8849 H 854.756 1.08965 4.48246 0
M  V30 8850 H 852.999 1.092 4.19831 0
M  V30 8851 H 853.67 0.129518 5.51848 0
M  V30 8852 H 856.146 -1.0799 4.01842 0
M  V30 8853 H 855.022 -1.84879 5.16828 0
M  V30 8854 H 855.283 -2.57787 3.59163 0
M  V30 8855 N 854.342 -1.57594 -0.0133615 0
M  V30 8856 C 855.591 -1.8916 -0.700103 0
M  V30 8857 C 855.904 -0.860147 -1.75673 0
M  V30 8858 O 857.11 -1.06556 -2.49716 0
M  V30 8859 C 855.566 -3.35742 -1.29635 0
M  V30 8860 C 855.174 -4.47154 -0.275249 0
M  V30 8861 C 856.918 -3.76436 -1.96205 0
M  V30 8862 C 854.825 -5.84805 -0.880726 0
M  V30 8863 H 853.755 -0.705805 -0.265247 0
M  V30 8864 H 856.406 -1.83445 0.044993 0
M  V30 8865 H 854.788 -3.36252 -2.09167 0
M  V30 8866 H 855.962 -4.58139 0.494506 0
M  V30 8867 H 854.277 -4.15394 0.289256 0
M  V30 8868 H 856.874 -4.76606 -2.42386 0
M  V30 8869 H 857.217 -3.09249 -2.78695 0
M  V30 8870 H 857.75 -3.78168 -1.23426 0
M  V30 8871 H 854.489 -6.55431 -0.0949013 0
M  V30 8872 H 854.009 -5.7751 -1.61995 0
M  V30 8873 H 855.688 -6.32038 -1.38338 0
M  V30 8874 N 855.82 0.285905 -1.54985 0
M  V30 8875 C 857.231 0.857869 -1.65824 0
M  V30 8876 C 857.582 1.87531 -0.576763 0
M  V30 8877 O 856.707 2.14528 0.284016 0
M  V30 8878 C 857.302 1.56277 -3.00604 0
M  V30 8879 C 855.861 2.08294 -3.13513 0
M  V30 8880 C 855.008 0.920633 -2.61571 0
M  V30 8881 H 857.959 0.0625463 -1.58577 0
M  V30 8882 H 857.98 2.42912 -2.92872 0
M  V30 8883 H 857.492 0.822017 -3.79295 0
M  V30 8884 H 855.593 2.8537 -2.39572 0
M  V30 8885 H 855.706 2.3071 -4.19892 0
M  V30 8886 H 854.07 1.31043 -2.18403 0
M  V30 8887 H 854.853 0.193594 -3.42754 0
M  V30 8888 N 857.298 1.47698 0.54982 0
M  V30 8889 C 858.526 1.5833 1.33188 0
M  V30 8890 C 858.941 0.236193 1.87317 0
M  V30 8891 O 858.298 -0.77167 1.65383 0
M  V30 8892 C 858.349 2.61438 2.49664 0
M  V30 8893 O 858.07 3.9092 1.97771 0
M  V30 8894 C 859.571 2.82324 3.41772 0
M  V30 8895 H 856.791 0.53443 0.405741 0
M  V30 8896 H 859.335 1.93375 0.665309 0
M  V30 8897 H 857.49 2.29307 3.12245 0
M  V30 8898 H 857.904 4.47323 2.73866 0
M  V30 8899 H 859.378 3.58316 4.19897 0
M  V30 8900 H 859.855 1.90416 3.95776 0
M  V30 8901 H 860.461 3.15682 2.85 0
M  V30 8902 N 858.776 -0.797141 1.35954 0
M  V30 8903 C 860.023 -1.55468 1.29754 0
M  V30 8904 C 860.351 -1.94095 -0.125391 0
M  V30 8905 O 859.606 -1.62341 -1.09288 0
M  V30 8906 C 859.905 -2.84847 2.15863 0
M  V30 8907 C 859.571 -2.65394 3.64523 0
M  V30 8908 C 858.233 -2.59796 4.05042 0
M  V30 8909 C 860.585 -2.4727 4.58811 0
M  V30 8910 C 857.913 -2.3403 5.38002 0
M  V30 8911 C 860.265 -2.23032 5.91979 0
M  V30 8912 C 858.929 -2.15862 6.31633 0
M  V30 8913 H 858.199 -0.568897 0.474803 0
M  V30 8914 H 860.846 -0.920299 1.67937 0
M  V30 8915 H 859.151 -3.52712 1.70591 0
M  V30 8916 H 860.848 -3.42597 2.08395 0
M  V30 8917 H 857.438 -2.70602 3.32374 0
M  V30 8918 H 861.622 -2.506 4.28384 0
M  V30 8919 H 856.878 -2.26956 5.67715 0
M  V30 8920 H 861.052 -2.08001 6.64612 0
M  V30 8921 H 858.679 -1.9566 7.34589 0
M  V30 8922 N 860.254 -1.20106 -1.0204 0
M  V30 8923 C 861.531 -0.918029 -1.72718 0
M  V30 8924 C 861.911 0.574163 -2.03142 0
M  V30 8925 O 861.259 1.53476 -1.69285 0
M  V30 8926 C 861.469 -1.78698 -2.9978 0
M  V30 8927 C 862.817 -2.02648 -3.7312 0
M  V30 8928 O 863.841 -1.75919 -3.09727 0
M  V30 8929 O 862.7 -2.47767 -4.87107 0
M  V30 8930 H 859.794 -0.342904 -0.752559 0
M  V30 8931 H 862.34 -1.30961 -1.07923 0
M  V30 8932 H 861.112 -2.79757 -2.7359 0
M  V30 8933 H 860.735 -1.39522 -3.72316 0
M  V30 8934 N 861.732 1.21287 -1.00634 0
M  V30 8935 C 862.662 2.25973 -0.588089 0
M  V30 8936 C 863.643 1.65527 0.391764 0
M  V30 8937 O 864.828 1.92179 0.279452 0
M  V30 8938 C 861.958 3.47197 0.0847336 0
M  V30 8939 C 860.912 4.20168 -0.815039 0
M  V30 8940 C 860.238 5.34699 -0.00855393 0
M  V30 8941 C 861.538 4.77416 -2.11828 0
M  V30 8942 H 863.232 2.61212 -1.46317 0
M  V30 8943 H 860.778 1.25563 -0.704985 0
M  V30 8944 H 862.731 4.19602 0.388821 0
M  V30 8945 H 861.455 3.11092 0.994456 0
M  V30 8946 H 860.114 3.49614 -1.10297 0
M  V30 8947 H 859.762 4.94837 0.902499 0
M  V30 8948 H 859.462 5.84449 -0.607664 0
M  V30 8949 H 860.986 6.09914 0.289317 0
M  V30 8950 H 862.4 5.41694 -1.87725 0
M  V30 8951 H 860.797 5.37561 -2.66736 0
M  V30 8952 H 861.867 3.96724 -2.78816 0
M  V30 8953 N 863.21 0.781244 1.36873 0
M  V30 8954 C 864.14 0.188128 2.32741 0
M  V30 8955 C 865.121 -0.672326 1.56249 0
M  V30 8956 O 866.306 -0.607835 1.84442 0
M  V30 8957 C 863.436 -0.684341 3.40491 0
M  V30 8958 C 862.39 0.0755641 4.27933 0
M  V30 8959 C 861.716 -0.916968 5.26779 0
M  V30 8960 C 863.016 1.26006 5.06873 0
M  V30 8961 H 864.71 0.989016 2.82593 0
M  V30 8962 H 862.256 0.477038 1.35869 0
M  V30 8963 H 864.209 -1.10915 4.06541 0
M  V30 8964 H 862.933 -1.51785 2.89187 0
M  V30 8965 H 861.592 0.481258 3.63427 0
M  V30 8966 H 861.24 -1.74528 4.71751 0
M  V30 8967 H 860.94 -0.413 5.86147 0
M  V30 8968 H 862.464 -1.34052 5.95703 0
M  V30 8969 H 863.878 0.911425 5.66009 0
M  V30 8970 H 862.275 1.69676 5.75613 0
M  V30 8971 H 863.345 2.05948 4.38991 0
M  V30 8972 N 864.689 -1.48329 0.532571 0
M  V30 8973 C 865.639 -2.2664 -0.24868 0
M  V30 8974 C 866.623 -1.32861 -0.907563 0
M  V30 8975 O 867.815 -1.57382 -0.809942 0
M  V30 8976 C 864.944 -3.18004 -1.29339 0
M  V30 8977 C 864.03 -4.19256 -0.639166 0
M  V30 8978 N 864.421 -5.05043 0.276597 0
M  V30 8979 C 862.719 -4.36906 -0.896062 0
M  V30 8980 C 863.42 -5.78009 0.654261 0
M  V30 8981 N 862.396 -5.43598 0.0147447 0
M  V30 8982 H 866.198 -2.90344 0.455792 0
M  V30 8983 H 863.712 -1.58566 0.350778 0
M  V30 8984 H 865.709 -3.72767 -1.86682 0
M  V30 8985 H 864.369 -2.55855 -1.99921 0
M  V30 8986 H 865.38 -5.13813 0.649351 0
M  V30 8987 H 862.057 -3.85945 -1.59226 0
M  V30 8988 H 863.447 -6.57039 1.40532 0
M  V30 8989 N 866.167 -0.267825 -1.55308 0
M  V30 8990 C 867.099 0.65591 -2.19614 0
M  V30 8991 C 868.112 1.12302 -1.17865 0
M  V30 8992 O 869.301 1.04618 -1.44628 0
M  V30 8993 C 866.401 1.90582 -2.80235 0
M  V30 8994 C 865.574 1.58673 -4.07605 0
M  V30 8995 C 864.633 2.68836 -4.52343 0
M  V30 8996 O 863.659 2.35331 -5.18274 0
M  V30 8997 N 864.861 3.98752 -4.21873 0
M  V30 8998 H 867.626 0.105566 -2.99514 0
M  V30 8999 H 865.187 -0.0886263 -1.61657 0
M  V30 9000 H 867.179 2.63561 -3.07112 0
M  V30 9001 H 865.749 2.3654 -2.04371 0
M  V30 9002 H 864.969 0.691113 -3.88094 0
M  V30 9003 H 866.257 1.34845 -4.90606 0
M  V30 9004 H 865.655 4.28797 -3.68985 0
M  V30 9005 H 864.212 4.68131 -4.53537 0
M  V30 9006 N 867.645 1.57599 0.00500368 0
M  V30 9007 C 868.575 2.11143 0.99705 0
M  V30 9008 C 869.556 1.0194 1.3617 0
M  V30 9009 O 870.741 1.29596 1.44632 0
M  V30 9010 C 867.871 2.61062 2.2905 0
M  V30 9011 C 866.825 3.74745 2.0676 0
M  V30 9012 C 866.151 4.10961 3.42075 0
M  V30 9013 C 867.451 5.02222 1.43424 0
M  V30 9014 H 869.145 2.94281 0.551251 0
M  V30 9015 H 866.691 1.41565 0.263715 0
M  V30 9016 H 868.644 2.97146 2.98801 0
M  V30 9017 H 867.368 1.75038 2.75734 0
M  V30 9018 H 866.027 3.39047 1.39436 0
M  V30 9019 H 865.675 3.21968 3.86453 0
M  V30 9020 H 865.375 4.87549 3.27979 0
M  V30 9021 H 866.899 4.49599 4.1315 0
M  V30 9022 H 868.313 5.36109 2.03125 0
M  V30 9023 H 866.71 5.83581 1.39831 0
M  V30 9024 H 867.78 4.83224 0.40285 0
M  V30 9025 N 869.123 -0.277682 1.55134 0
M  V30 9026 C 870.37 -1.0099 1.7552 0
M  V30 9027 C 870.698 -1.86452 0.553712 0
M  V30 9028 O 869.953 -1.90122 -0.463896 0
M  V30 9029 C 870.252 -1.92599 3.01065 0
M  V30 9030 C 869.918 -1.22926 4.3382 0
M  V30 9031 C 868.58 -1.03659 4.69902 0
M  V30 9032 C 870.932 -0.733071 5.16019 0
M  V30 9033 C 868.26 -0.334933 5.85743 0
M  V30 9034 C 870.612 -0.0450319 6.32584 0
M  V30 9035 C 869.276 0.159393 6.6731 0
M  V30 9036 H 868.546 -0.36955 0.642273 0
M  V30 9037 H 871.193 -0.282611 1.89403 0
M  V30 9038 H 869.498 -2.71934 2.82062 0
M  V30 9039 H 871.195 -2.49367 3.14034 0
M  V30 9040 H 867.785 -1.38933 4.05457 0
M  V30 9041 H 871.969 -0.869565 4.88623 0
M  V30 9042 H 867.225 -0.165783 6.11175 0
M  V30 9043 H 871.399 0.34723 6.95534 0
M  V30 9044 H 869.026 0.70507 7.56923 0
M  V30 9045 N 870.601 -1.47988 -0.541979 0
M  V30 9046 C 872.012 -1.49073 -1.12402 0
M  V30 9047 C 872.363 -0.253825 -1.94551 0
M  V30 9048 O 871.488 0.640056 -2.06718 0
M  V30 9049 C 872.083 -2.7011 -2.04514 0
M  V30 9050 C 870.642 -2.74105 -2.5796 0
M  V30 9051 C 869.789 -2.42409 -1.3466 0
M  V30 9052 H 872.74 -1.55277 -0.327818 0
M  V30 9053 H 872.761 -2.47946 -2.88623 0
M  V30 9054 H 872.273 -3.60117 -1.44697 0
M  V30 9055 H 870.374 -1.88276 -3.21532 0
M  V30 9056 H 870.487 -3.75213 -2.97913 0
M  V30 9057 H 868.851 -1.9331 -1.65841 0
M  V30 9058 H 869.634 -3.34642 -0.766133 0
M  V30 9059 N 872.079 0.78992 -1.36375 0
M  V30 9060 C 873.304 1.58389 -1.33895 0
M  V30 9061 C 873.729 1.8794 0.0774934 0
M  V30 9062 O 873.087 1.4785 1.0493 0
M  V30 9063 C 873.135 2.88201 -2.16732 0
M  V30 9064 O 872.239 3.81778 -1.55946 0
M  V30 9065 H 871.58 0.480471 -0.458305 0
M  V30 9066 H 874.11 0.979119 -1.79651 0
M  V30 9067 H 874.12 3.37475 -2.29292 0
M  V30 9068 H 872.795 2.66019 -3.19698 0
M  V30 9069 H 871.372 3.40371 -1.52323 0
M  V30 9070 N 873.557 1.20646 1.01402 0
M  V30 9071 C 874.806 1.01242 1.7445 0
M  V30 9072 C 875.119 -0.455732 1.90217 0
M  V30 9073 O 876.325 -0.768951 2.60383 0
M  V30 9074 C 874.781 1.76275 3.13776 0
M  V30 9075 C 874.389 3.27201 3.06013 0
M  V30 9076 C 876.133 1.65248 3.91016 0
M  V30 9077 C 874.04 3.9476 4.40362 0
M  V30 9078 H 872.97 0.375202 0.654018 0
M  V30 9079 H 875.621 1.44292 1.13367 0
M  V30 9080 H 874.003 1.26013 3.75415 0
M  V30 9081 H 875.177 3.84695 2.53665 0
M  V30 9082 H 873.492 3.38669 2.42265 0
M  V30 9083 H 876.089 2.13061 4.90417 0
M  V30 9084 H 876.432 0.609128 4.1182 0
M  V30 9085 H 876.965 2.12937 3.3601 0
M  V30 9086 H 873.704 4.99258 4.24761 0
M  V30 9087 H 873.224 3.42054 4.92706 0
M  V30 9088 H 874.903 3.99159 5.09196 0
M  V30 9089 N 875.035 -1.20752 1.01276 0
M  V30 9090 C 875.945 -2.27079 0.589277 0
M  V30 9091 C 876.961 -1.6999 -0.371389 0
M  V30 9092 O 878.137 -2.00044 -0.233294 0
M  V30 9093 C 875.202 -3.4663 -0.0696715 0
M  V30 9094 C 874.263 -4.18962 0.936454 0
M  V30 9095 C 873.496 -5.32806 0.308856 0
M  V30 9096 O 873.719 -5.63376 -0.8924 0
M  V30 9097 O 872.653 -5.93131 1.02367 0
M  V30 9098 H 876.479 -2.6551 1.47438 0
M  V30 9099 H 874.064 -1.27297 0.782045 0
M  V30 9100 H 875.946 -4.19119 -0.437873 0
M  V30 9101 H 874.621 -3.10082 -0.929029 0
M  V30 9102 H 873.528 -3.48661 1.35595 0
M  V30 9103 H 874.861 -4.59441 1.76565 0
M  V30 9104 N 876.513 -0.788492 -1.36457 0
M  V30 9105 C 877.423 -0.187385 -2.3385 0
M  V30 9106 C 878.439 0.659984 -1.60998 0
M  V30 9107 O 879.615 0.575986 -1.92988 0
M  V30 9108 C 876.68 0.668525 -3.40194 0
M  V30 9109 C 875.741 -0.197234 -4.28847 0
M  V30 9110 C 874.974 0.61792 -5.30111 0
M  V30 9111 O 875.197 1.85396 -5.3943 0
M  V30 9112 O 874.131 0.0183016 -6.01897 0
M  V30 9113 H 877.957 -0.992617 -2.87021 0
M  V30 9114 H 875.542 -0.549934 -1.3891 0
M  V30 9115 H 877.424 1.15663 -4.05216 0
M  V30 9116 H 876.099 1.45166 -2.89324 0
M  V30 9117 H 875.006 -0.73207 -3.66867 0
M  V30 9118 H 876.339 -0.943863 -4.83065 0
M  V30 9119 N 877.991 1.48044 -0.54043 0
M  V30 9120 C 879.402 1.86418 -0.102662 0
M  V30 9121 C 879.753 1.4489 1.32293 0
M  V30 9122 O 878.878 0.844319 1.99249 0
M  V30 9123 C 879.473 3.38324 -0.179533 0
M  V30 9124 C 878.032 3.75852 0.203098 0
M  V30 9125 C 877.179 2.72097 -0.534637 0
M  V30 9126 H 880.13 1.398 -0.751103 0
M  V30 9127 H 880.151 3.75641 0.606147 0
M  V30 9128 H 879.663 3.68518 -1.21721 0
M  V30 9129 H 877.764 3.51272 1.24252 0
M  V30 9130 H 877.877 4.78884 -0.143784 0
M  V30 9131 H 876.241 2.54692 0.0203358 0
M  V30 9132 H 877.024 3.05135 -1.57314 0
M  V30 9133 N 879.47 0.276058 1.55163 0
M  V30 9134 C 880.4 -0.604633 2.25536 0
M  V30 9135 C 881.381 -1.15813 1.24585 0
M  V30 9136 O 882.566 -1.1921 1.53306 0
M  V30 9137 C 879.696 -1.78836 2.97716 0
M  V30 9138 C 878.65 -1.36635 4.05604 0
M  V30 9139 C 877.976 -2.63325 4.65364 0
M  V30 9140 C 879.276 -0.515858 5.19746 0
M  V30 9141 H 880.97 -0.0177483 2.99395 0
M  V30 9142 H 878.516 -0.00709627 1.43998 0
M  V30 9143 H 880.469 -2.41036 3.45658 0
M  V30 9144 H 879.193 -2.40109 2.21394 0
M  V30 9145 H 877.852 -0.767541 3.58475 0
M  V30 9146 H 877.5 -3.22858 3.85709 0
M  V30 9147 H 877.2 -2.358 5.38212 0
M  V30 9148 H 878.724 -3.26372 5.16056 0
M  V30 9149 H 880.138 -1.04289 5.63735 0
M  V30 9150 H 878.535 -0.335449 5.99162 0
M  V30 9151 H 879.605 0.465137 4.82664 0
M  V30 9152 N 880.948 -1.576 0.00335426 0
M  V30 9153 C 881.898 -2.05116 -0.995562 0
M  V30 9154 C 882.882 -0.946535 -1.30113 0
M  V30 9155 O 884.074 -1.21028 -1.29156 0
M  V30 9156 C 881.203 -2.56077 -2.28648 0
M  V30 9157 C 880.289 -3.73422 -2.0104 0
M  V30 9158 N 880.68 -4.84986 -1.43603 0
M  V30 9159 C 878.978 -3.81416 -2.31166 0
M  V30 9160 C 879.679 -5.66399 -1.32542 0
M  V30 9161 N 878.655 -5.12505 -1.81218 0
M  V30 9162 H 882.457 -2.88783 -0.546025 0
M  V30 9163 H 879.971 -1.61135 -0.202265 0
M  V30 9164 H 881.968 -2.88395 -3.01055 0
M  V30 9165 H 880.628 -1.73829 -2.74251 0
M  V30 9166 H 881.639 -5.05768 -1.11439 0
M  V30 9167 H 878.316 -3.1003 -2.7962 0
M  V30 9168 H 879.706 -6.66066 -0.88348 0
M  V30 9169 N 882.426 0.269451 -1.5528 0
M  V30 9170 C 883.374 1.35303 -1.89198 0
M  V30 9171 C 884.368 1.50956 -0.768671 0
M  V30 9172 O 885.574 1.52699 -0.953054 0
M  V30 9173 H 881.949 0.452591 -0.600554 0
M  V30 9174 H 883.92 1.03949 -2.79709 0
M  V30 9175 C 882.669 2.70585 -2.18356 0
M  V30 9176 H 881.992 2.59332 -3.04281 0
M  V30 9177 H 883.432 3.45335 -2.46007 0
M  V30 9178 C 881.891 3.21954 -0.992327 0
M  V30 9179 O 882.421 4.01048 -0.228769 0
M  V30 9180 N 880.627 2.79682 -0.789062 0
M  V30 9181 H 880.174 2.15475 -1.41167 0
M  V30 9182 H 880.132 3.14399 0.00634776 0
M  V30 9183 N 883.904 1.48273 0.534124 0
M  V30 9184 C 884.834 1.6538 1.64839 0
M  V30 9185 C 885.815 0.502741 1.62501 0
M  V30 9186 O 887 0.734799 1.79762 0
M  V30 9187 C 884.13 1.68949 3.03436 0
M  V30 9188 C 883.084 2.83513 3.20631 0
M  V30 9189 C 882.41 2.72169 4.60248 0
M  V30 9190 C 883.71 4.24858 3.03797 0
M  V30 9191 H 885.404 2.58663 1.50777 0
M  V30 9192 H 882.95 1.24479 0.723937 0
M  V30 9193 H 884.903 1.79505 3.81256 0
M  V30 9194 H 883.627 0.722415 3.1851 0
M  V30 9195 H 882.286 2.72505 2.45227 0
M  V30 9196 H 881.934 1.7344 4.72152 0
M  V30 9197 H 881.634 3.49042 4.72698 0
M  V30 9198 H 883.158 2.84687 5.40172 0
M  V30 9199 H 884.572 4.36721 3.71413 0
M  V30 9200 H 882.969 5.02697 3.27743 0
M  V30 9201 H 884.039 4.41611 2.0027 0
M  V30 9202 N 885.382 -0.782676 1.36792 0
M  V30 9203 C 886.798 -1.08169 1.17352 0
M  V30 9204 C 886.998 -2.015 0.0022037 0
M  V30 9205 O 886.054 -2.43692 -0.661093 0
M  V30 9206 C 887.367 -1.68969 2.48737 0
M  V30 9207 C 888.915 -1.81278 2.55161 0
M  V30 9208 C 889.39 -2.45492 3.86649 0
M  V30 9209 N 890.881 -2.52954 3.88032 0
M  V30 9210 C 891.616 -3.03465 4.86515 0
M  V30 9211 N 891.112 -3.54232 5.95392 0
M  V30 9212 N 892.905 -3.02239 4.73928 0
M  V30 9213 H 885.056 -0.162757 2.11775 0
M  V30 9214 H 887.319 -0.134823 0.938364 0
M  V30 9215 H 887.025 -1.07859 3.34753 0
M  V30 9216 H 886.899 -2.68397 2.65034 0
M  V30 9217 H 889.286 -2.41524 1.69559 0
M  V30 9218 H 889.367 -0.806367 2.42758 0
M  V30 9219 H 889.011 -1.85889 4.7266 0
M  V30 9220 H 888.941 -3.46718 3.96351 0
M  V30 9221 H 891.432 -2.17014 3.09376 0
M  V30 9222 H 891.745 -3.91145 6.66503 0
M  V30 9223 H 890.09 -3.52366 5.99052 0
M  V30 9224 H 893.281 -2.61871 3.87996 0
M  V30 9225 H 893.454 -3.41295 5.50837 0
M  V30 9226 N 886.86 -1.21182 -1.00761 0
M  V30 9227 C 887.807 -0.968741 -2.09485 0
M  V30 9228 C 888.777 0.104325 -1.65772 0
M  V30 9229 O 889.962 -0.0422587 -1.90753 0
M  V30 9230 C 887.102 -0.536686 -3.40901 0
M  V30 9231 C 886.215 -1.6789 -3.98041 0
M  V30 9232 C 885.35 -1.19627 -5.17555 0
M  V30 9233 C 884.389 -2.31099 -5.66798 0
M  V30 9234 N 883.526 -1.83988 -6.77564 0
M  V30 9235 H 888.366 -1.89952 -2.29613 0
M  V30 9236 H 885.903 -0.946688 -1.12589 0
M  V30 9237 H 887.861 -0.26745 -4.16342 0
M  V30 9238 H 886.491 0.357092 -3.20819 0
M  V30 9239 H 885.543 -2.06284 -3.19611 0
M  V30 9240 H 886.855 -2.51794 -4.30582 0
M  V30 9241 H 886.009 -0.883539 -6.00232 0
M  V30 9242 H 884.748 -0.327244 -4.86601 0
M  V30 9243 H 883.753 -2.63178 -4.82719 0
M  V30 9244 H 884.978 -3.18493 -5.99782 0
M  V30 9245 H 882.924 -0.994257 -6.48422 0
M  V30 9246 H 882.841 -2.61466 -7.09346 0
M  V30 9247 H 884.109 -1.55741 -7.63783 0
M  V30 9248 N 888.338 1.20213 -1.01915 0
M  V30 9249 C 889.268 2.25336 -0.612023 0
M  V30 9250 C 890.249 1.65933 0.374186 0
M  V30 9251 O 891.434 1.92464 0.259053 0
M  V30 9252 C 888.564 3.47267 0.047904 0
M  V30 9253 C 887.518 4.1928 -0.859557 0
M  V30 9254 C 886.844 5.3466 -0.0652655 0
M  V30 9255 C 888.144 4.75143 -2.1688 0
M  V30 9256 H 889.838 2.59645 -1.49079 0
M  V30 9257 H 887.384 1.24808 -0.718263 0
M  V30 9258 H 889.337 4.19991 0.344294 0
M  V30 9259 H 888.061 3.12129 0.961404 0
M  V30 9260 H 886.72 3.48425 -1.13999 0
M  V30 9261 H 886.368 4.95767 0.849964 0
M  V30 9262 H 886.068 5.83772 -0.669618 0
M  V30 9263 H 887.592 6.10187 0.224612 0
M  V30 9264 H 889.006 5.39672 -1.9346 0
M  V30 9265 H 887.403 5.34702 -2.72422 0
M  V30 9266 H 888.473 3.93744 -2.83008 0
M  V30 9267 N 889.816 0.795718 1.36037 0
M  V30 9268 C 891.232 0.478145 1.52269 0
M  V30 9269 C 891.432 -1.0025 1.74792 0
M  V30 9270 O 890.488 -1.78783 1.78305 0
M  V30 9271 C 891.801 1.31406 2.70468 0
M  V30 9272 C 893.349 1.3084 2.84341 0
M  V30 9273 C 893.824 2.12819 4.05551 0
M  V30 9274 N 895.315 2.10298 4.12709 0
M  V30 9275 C 896.05 2.70495 5.05589 0
M  V30 9276 N 895.546 3.39576 6.03871 0
M  V30 9277 N 897.339 2.60195 4.98252 0
M  V30 9278 H 889.49 1.75477 1.19673 0
M  V30 9279 H 891.753 0.74627 0.584624 0
M  V30 9280 H 891.459 2.36435 2.60368 0
M  V30 9281 H 891.333 0.959726 3.64786 0
M  V30 9282 H 893.72 0.266003 2.93899 0
M  V30 9283 H 893.801 1.70254 1.90912 0
M  V30 9284 H 893.445 3.17093 3.96755 0
M  V30 9285 H 893.375 1.70772 4.98141 0
M  V30 9286 H 895.866 1.60026 3.42345 0
M  V30 9287 H 896.179 3.82823 6.71317 0
M  V30 9288 H 894.524 3.43679 6.04077 0
M  V30 9289 H 897.715 2.05823 4.20422 0
M  V30 9290 H 897.888 3.074 5.70447 0
M  V30 9291 N 891.294 -1.47756 0.548274 0
M  V30 9292 C 892.204 -2.33678 -0.207773 0
M  V30 9293 C 893.22 -1.47636 -0.920843 0
M  V30 9294 O 894.396 -1.80583 -0.89173 0
M  V30 9295 C 891.461 -3.24147 -1.23003 0
M  V30 9296 C 890.522 -4.26073 -0.52535 0
M  V30 9297 C 889.755 -5.12219 -1.4989 0
M  V30 9298 O 889.978 -5.0066 -2.73305 0
M  V30 9299 O 888.912 -5.93051 -1.02828 0
M  V30 9300 H 892.738 -2.99609 0.496794 0
M  V30 9301 H 890.323 -1.4617 0.308982 0
M  V30 9302 H 892.205 -3.80055 -1.82034 0
M  V30 9303 H 890.88 -2.60855 -1.91668 0
M  V30 9304 H 889.787 -3.7395 0.105927 0
M  V30 9305 H 891.12 -4.92054 0.119686 0
M  V30 9306 N 892.772 -0.284283 -1.55015 0
M  V30 9307 C 893.702 0.592663 -2.25853 0
M  V30 9308 C 894.683 1.15151 -1.25197 0
M  V30 9309 O 895.868 1.18395 -1.53936 0
M  V30 9310 C 892.998 1.77254 -2.98661 0
M  V30 9311 C 891.952 1.34482 -4.06323 0
M  V30 9312 C 891.278 2.60853 -4.66754 0
M  V30 9313 C 892.578 0.488288 -5.20013 0
M  V30 9314 H 894.272 0.00187041 -2.994 0
M  V30 9315 H 891.818 -0.000540402 -1.44 0
M  V30 9316 H 893.771 2.39199 -3.46932 0
M  V30 9317 H 892.495 2.38931 -2.22664 0
M  V30 9318 H 891.154 0.748519 -3.58877 0
M  V30 9319 H 890.802 3.20808 -3.87416 0
M  V30 9320 H 890.502 2.32942 -5.39455 0
M  V30 9321 H 892.026 3.23631 -5.1778 0
M  V30 9322 H 893.44 1.01298 -5.6428 0
M  V30 9323 H 891.837 0.303669 -5.99331 0
M  V30 9324 H 892.907 -0.490727 -4.8241 0
M  V30 9325 N 894.251 1.57596 -0.0117121 0
M  V30 9326 C 895.481 1.95077 0.680346 0
M  V30 9327 C 895.889 0.885793 1.67184 0
M  V30 9328 O 895.232 -0.142723 1.83145 0
M  V30 9329 C 895.294 3.28611 1.45791 0
M  V30 9330 C 894.958 4.52682 0.626706 0
M  V30 9331 C 895.955 5.19821 -0.0906223 0
M  V30 9332 C 893.64 4.99064 0.569229 0
M  V30 9333 C 895.634 6.31649 -0.854289 0
M  V30 9334 C 893.321 6.10779 -0.198155 0
M  V30 9335 C 894.319 6.76929 -0.908636 0
M  V30 9336 O 894.007 7.86501 -1.66348 0
M  V30 9337 H 893.739 0.647663 0.193672 0
M  V30 9338 H 896.293 2.05305 -0.0624969 0
M  V30 9339 H 894.523 3.14824 2.2455 0
M  V30 9340 H 896.212 3.51119 2.03642 0
M  V30 9341 H 896.978 4.84968 -0.0554421 0
M  V30 9342 H 892.857 4.47393 1.11178 0
M  V30 9343 H 896.401 6.83215 -1.40937 0
M  V30 9344 H 892.298 6.45072 -0.235114 0
M  V30 9345 H 893.066 8.03078 -1.58141 0
M  V30 9346 N 895.729 -0.261212 1.5542 0
M  V30 9347 C 896.692 -1.30645 1.8832 0
M  V30 9348 C 897.692 -1.41782 0.758588 0
M  V30 9349 O 898.882 -1.40729 1.02669 0
M  V30 9350 C 896.014 -2.6862 2.09895 0
M  V30 9351 H 897.207 -1.02698 2.81768 0
M  V30 9352 H 894.76 -0.499838 1.48092 0
M  V30 9353 H 895.495 -3.0173 1.18868 0
M  V30 9354 H 895.28 -2.61921 2.91787 0
M  V30 9355 H 896.77 -3.44121 2.36581 0
M  V30 9356 N 897.207 -1.48554 -0.526253 0
M  V30 9357 C 898.17 -1.62868 -1.61266 0
M  V30 9358 C 899.17 -0.501762 -1.52771 0
M  V30 9359 O 900.36 -0.76764 -1.56374 0
M  V30 9360 C 897.492 -1.60238 -3.00893 0
M  V30 9361 H 898.685 -2.59742 -1.49913 0
M  V30 9362 H 896.238 -1.37207 -0.748595 0
M  V30 9363 H 896.973 -0.648545 -3.17749 0
M  V30 9364 H 896.758 -2.42054 -3.08468 0
M  V30 9365 H 898.248 -1.73455 -3.79872 0
M  V30 9366 N 898.685 0.775411 -1.37205 0
M  V30 9367 C 899.632 1.88857 -1.32671 0
M  V30 9368 C 900.602 1.64976 -0.192899 0
M  V30 9369 O 901.787 1.86944 -0.381673 0
M  V30 9370 C 898.927 3.25871 -1.13588 0
M  V30 9371 C 898.04 3.61731 -2.36167 0
M  V30 9372 C 897.175 4.87934 -2.09985 0
M  V30 9373 C 896.214 5.16514 -3.2845 0
M  V30 9374 N 895.351 6.33905 -3.01842 0
M  V30 9375 H 900.191 1.92068 -2.27846 0
M  V30 9376 H 897.728 0.939066 -1.13225 0
M  V30 9377 H 899.686 4.04903 -1.00546 0
M  V30 9378 H 898.316 3.22045 -0.220613 0
M  V30 9379 H 897.368 2.77712 -2.59962 0
M  V30 9380 H 898.68 3.78792 -3.24528 0
M  V30 9381 H 897.834 5.74863 -1.93953 0
M  V30 9382 H 896.573 4.7297 -1.18956 0
M  V30 9383 H 895.578 4.28063 -3.45025 0
M  V30 9384 H 896.803 5.33389 -4.20325 0
M  V30 9385 H 894.749 6.20306 -2.13439 0
M  V30 9386 H 894.666 6.51364 -3.83746 0
M  V30 9387 H 895.934 7.23779 -2.8942 0
M  V30 9388 N 900.163 1.21714 1.00117 0
M  V30 9389 C 901.126 0.981338 2.07129 0
M  V30 9390 C 902.126 -0.0491116 1.60725 0
M  V30 9391 O 903.316 0.188555 1.73177 0
M  V30 9392 C 900.448 0.480608 3.37495 0
M  V30 9393 H 901.641 1.93075 2.29482 0
M  V30 9394 H 899.194 1.03467 1.17151 0
M  V30 9395 H 899.929 -0.473552 3.20824 0
M  V30 9396 H 899.714 1.22393 3.72508 0
M  V30 9397 H 901.204 0.33561 4.16249 0
M  V30 9398 N 901.641 -1.19671 1.02551 0
M  V30 9399 C 902.889 -1.88894 0.71858 0
M  V30 9400 C 903.21 -1.79797 -0.754856 0
M  V30 9401 O 902.48 -1.20621 -1.54362 0
M  V30 9402 H 901.06 -0.699244 0.262806 0
M  V30 9403 H 903.722 -1.45298 1.29902 0
M  V30 9404 H 902.818 -2.95309 1.00989 0
M  V30 9405 N 903.119 -0.802921 -1.35613 0
M  V30 9406 C 904.365 -0.382141 -1.99167 0
M  V30 9407 C 904.698 1.04704 -1.63556 0
M  V30 9408 O 903.973 1.72578 -0.89706 0
M  V30 9409 C 904.256 -0.561493 -3.55695 0
M  V30 9410 C 904.109 -2.03534 -4.01116 0
M  V30 9411 C 905.428 0.0151135 -4.40097 0
M  V30 9412 H 902.547 -0.140322 -0.723518 0
M  V30 9413 H 905.189 -1.01177 -1.6082 0
M  V30 9414 H 903.339 -0.0255083 -3.88492 0
M  V30 9415 H 905.011 -2.63343 -3.78746 0
M  V30 9416 H 903.254 -2.5331 -3.52159 0
M  V30 9417 H 903.925 -2.11173 -5.1001 0
M  V30 9418 H 906.401 -0.442582 -4.1374 0
M  V30 9419 H 905.277 -0.140316 -5.48721 0
M  V30 9420 H 905.538 1.10848 -4.27978 0
M  V30 9421 N 904.597 1.47463 -0.556102 0
M  V30 9422 C 905.825 2.06868 -0.0364585 0
M  V30 9423 C 906.24 1.40893 1.25677 0
M  V30 9424 O 905.597 0.505083 1.75371 0
M  V30 9425 C 905.648 3.61128 0.163984 0
M  V30 9426 O 905.369 4.24629 -1.07803 0
M  V30 9427 C 906.87 4.37397 0.721036 0
M  V30 9428 H 904.09 0.669466 -0.0453399 0
M  V30 9429 H 906.634 1.89482 -0.769198 0
M  V30 9430 H 904.789 3.78031 0.84685 0
M  V30 9431 H 905.203 5.17149 -0.875067 0
M  V30 9432 H 906.677 5.46016 0.810584 0
M  V30 9433 H 907.154 4.03604 1.73206 0
M  V30 9434 H 907.76 4.25236 0.073904 0
M  V30 9435 N 906.075 0.2925 1.54862 0
M  V30 9436 C 907.303 -0.322113 2.04377 0
M  V30 9437 C 907.718 -1.48164 1.17016 0
M  V30 9438 O 907.075 -1.81466 0.19395 0
M  V30 9439 C 907.126 -0.786506 3.5284 0
M  V30 9440 O 906.847 0.326863 4.36879 0
M  V30 9441 C 908.348 -1.46715 4.18318 0
M  V30 9442 H 905.568 -0.0712074 0.667211 0
M  V30 9443 H 908.112 0.429657 1.99935 0
M  V30 9444 H 906.267 -1.48832 3.5767 0
M  V30 9445 H 906.681 -0.0331558 5.2449 0
M  V30 9446 H 908.155 -1.74333 5.23748 0
M  V30 9447 H 908.632 -2.40443 3.67538 0
M  V30 9448 H 909.238 -0.808735 4.1754 0
M  V30 9449 N 907.553 -1.57587 0.0200696 0
M  V30 9450 C 908.964 -1.79312 -0.520019 0
M  V30 9451 C 909.315 -0.929475 -1.72787 0
M  V30 9452 O 908.44 -0.137389 -2.15963 0
M  V30 9453 C 909.035 -3.25203 -0.950172 0
M  V30 9454 C 907.594 -3.47954 -1.43543 0
M  V30 9455 C 906.741 -2.74459 -0.395917 0
M  V30 9456 H 909.692 -1.56779 0.246153 0
M  V30 9457 H 909.713 -3.34418 -1.81508 0
M  V30 9458 H 909.225 -3.88035 -0.070883 0
M  V30 9459 H 907.326 -2.90363 -2.33495 0
M  V30 9460 H 907.439 -4.56661 -1.44905 0
M  V30 9461 H 905.803 -2.39669 -0.862022 0
M  V30 9462 H 906.586 -3.40001 0.47475 0
M  V30 9463 N 909.032 0.252966 -1.55557 0
M  V30 9464 C 910.279 0.981852 -1.77104 0
M  V30 9465 C 910.607 1.85547 -0.583305 0
M  V30 9466 O 909.862 1.90836 0.43359 0
M  V30 9467 C 910.161 1.87785 -3.04091 0
M  V30 9468 C 909.827 1.16009 -4.35721 0
M  V30 9469 C 908.489 0.961697 -4.71492 0
M  V30 9470 C 910.841 0.650884 -5.1712 0
M  V30 9471 C 908.169 0.241704 -5.86202 0
M  V30 9472 C 910.521 -0.0556124 -6.32576 0
M  V30 9473 C 909.185 -0.265536 -6.66972 0
M  V30 9474 H 908.455 0.359285 -0.64807 0
M  V30 9475 H 911.102 0.252443 -1.89829 0
M  V30 9476 H 909.407 2.67412 -2.86353 0
M  V30 9477 H 911.104 2.44339 -3.17961 0
M  V30 9478 H 907.694 1.32465 -4.07616 0
M  V30 9479 H 911.878 0.791719 -4.89944 0
M  V30 9480 H 907.134 0.0685292 -6.11362 0
M  V30 9481 H 911.308 -0.457839 -6.94893 0
M  V30 9482 H 908.935 -0.8254 -7.55706 0
M  V30 9483 N 910.51 1.48831 0.518367 0
M  V30 9484 C 911.921 1.50842 1.10016 0
M  V30 9485 C 912.272 0.284744 1.94123 0
M  V30 9486 O 911.397 -0.607088 2.0771 0
M  V30 9487 C 911.992 2.73329 2.00191 0
M  V30 9488 C 910.551 2.78175 2.53566 0
M  V30 9489 C 909.698 2.4452 1.30786 0
M  V30 9490 H 912.649 1.55779 0.303073 0
M  V30 9491 H 912.67 2.52506 2.84642 0
M  V30 9492 H 912.182 3.62374 1.3895 0
M  V30 9493 H 910.283 1.93368 3.18496 0
M  V30 9494 H 910.396 3.79905 2.91906 0
M  V30 9495 H 908.76 1.95924 1.62744 0
M  V30 9496 H 909.543 3.35819 0.712797 0
M  V30 9497 N 911.988 -0.768124 1.37614 0
M  V30 9498 C 913.399 -1.34462 1.29525 0
M  V30 9499 C 913.75 -1.96121 -0.0555168 0
M  V30 9500 O 912.875 -1.94069 -0.957406 0
M  V30 9501 C 913.47 -2.44475 2.34558 0
M  V30 9502 C 912.029 -2.97883 2.30093 0
M  V30 9503 C 911.176 -1.71131 2.18196 0
M  V30 9504 H 914.127 -0.568103 1.48183 0
M  V30 9505 H 914.148 -3.24047 1.99434 0
M  V30 9506 H 913.66 -1.99568 3.32858 0
M  V30 9507 H 911.761 -3.47156 1.35328 0
M  V30 9508 H 911.874 -3.53251 3.23652 0
M  V30 9509 H 910.238 -1.94197 1.64802 0
M  V30 9510 H 911.021 -1.28323 3.18415 0
M  V30 9511 N 913.466 -1.22244 -0.994698 0
M  V30 9512 C 914.877 -1.043 -1.5485 0
M  V30 9513 C 915.228 0.394102 -1.92201 0
M  V30 9514 O 914.353 1.27883 -1.74571 0
M  V30 9515 C 914.948 -1.88708 -2.8138 0
M  V30 9516 C 913.507 -1.75067 -3.3321 0
M  V30 9517 C 912.654 -1.85286 -2.06312 0
M  V30 9518 H 915.605 -1.36115 -0.815988 0
M  V30 9519 H 915.626 -1.40342 -3.53673 0
M  V30 9520 H 915.138 -2.93296 -2.54164 0
M  V30 9521 H 913.239 -0.732047 -3.65338 0
M  V30 9522 H 913.352 -2.57632 -4.03934 0
M  V30 9523 H 911.716 -1.28706 -2.19788 0
M  V30 9524 H 912.499 -2.91401 -1.81494 0
M  V30 9525 N 914.944 1.19125 -1.03184 0
M  V30 9526 C 916.19 1.89163 -0.731111 0
M  V30 9527 C 916.523 1.79604 0.738662 0
M  V30 9528 O 915.798 1.19037 1.53819 0
M  V30 9529 C 916.081 3.39986 -1.18666 0
M  V30 9530 C 915.934 3.58401 -2.71788 0
M  V30 9531 C 917.253 4.33316 -0.769772 0
M  V30 9532 H 914.372 0.686908 -0.267069 0
M  V30 9533 H 917.014 1.40205 -1.28229 0
M  V30 9534 H 915.164 3.81813 -0.717736 0
M  V30 9535 H 916.836 3.25727 -3.26649 0
M  V30 9536 H 915.079 3.01355 -3.12038 0
M  V30 9537 H 915.75 4.64189 -2.98719 0
M  V30 9538 H 918.226 3.9922 -1.17314 0
M  V30 9539 H 917.102 5.37427 -1.11637 0
M  V30 9540 H 917.363 4.40884 0.327681 0
M  V30 9541 N 916.422 0.810101 1.35185 0
M  V30 9542 C 917.699 0.315235 1.93043 0
M  V30 9543 C 918.079 -1.19567 1.73974 0
M  V30 9544 O 917.427 -1.99682 1.11083 0
M  V30 9545 C 917.637 0.730492 3.41269 0
M  V30 9546 C 918.985 0.721985 4.18417 0
M  V30 9547 O 920.009 0.672258 3.49799 0
M  V30 9548 O 918.868 0.783535 5.40854 0
M  V30 9549 H 915.962 0.0832774 0.822796 0
M  V30 9550 H 918.508 0.894034 1.4424 0
M  V30 9551 H 917.28 1.77169 3.48894 0
M  V30 9552 H 916.903 0.12669 3.97398 0
M  V30 9553 N 917.9 -1.47166 0.563914 0
M  V30 9554 C 919.13 -2.06546 0.0473599 0
M  V30 9555 C 919.538 -1.41607 -1.25476 0
M  V30 9556 O 918.881 -0.50894 -1.76509 0
M  V30 9557 C 918.943 -3.58873 -0.212249 0
M  V30 9558 C 918.607 -4.45893 1.00144 0
M  V30 9559 C 919.604 -4.83594 1.90873 0
M  V30 9560 C 917.289 -4.87309 1.218 0
M  V30 9561 C 919.283 -5.61519 3.01621 0
M  V30 9562 C 916.97 -5.64997 2.32856 0
M  V30 9563 C 917.968 -6.02013 3.22597 0
M  V30 9564 O 917.656 -6.78135 4.31727 0
M  V30 9565 H 917.388 -0.674441 0.0458823 0
M  V30 9566 H 919.942 -1.9006 0.778865 0
M  V30 9567 H 918.172 -3.73596 -0.998145 0
M  V30 9568 H 919.861 -4.00248 -0.675005 0
M  V30 9569 H 920.627 -4.52192 1.7535 0
M  V30 9570 H 916.506 -4.57959 0.528641 0
M  V30 9571 H 920.05 -5.90331 3.71693 0
M  V30 9572 H 915.947 -5.95813 2.48349 0
M  V30 9573 H 916.715 -6.96537 4.29859 0
M  V30 9574 N 919.378 -0.300708 -1.54705 0
M  V30 9575 C 920.794 0.0526874 -1.59513 0
M  V30 9576 C 920.994 1.52444 -1.31769 0
M  V30 9577 O 920.05 2.27716 -1.09096 0
M  V30 9578 C 921.363 -0.344989 -2.98714 0
M  V30 9579 C 922.911 -0.29373 -3.11619 0
M  V30 9580 C 923.386 -0.666225 -4.53129 0
M  V30 9581 N 924.877 -0.618749 -4.59049 0
M  V30 9582 C 925.612 -0.879447 -5.66616 0
M  V30 9583 N 925.108 -1.2061 -6.82221 0
M  V30 9584 N 926.901 -0.806528 -5.56284 0
M  V30 9585 H 919.052 -1.25988 -1.71 0
M  V30 9586 H 921.315 -0.510758 -0.798643 0
M  V30 9587 H 921.021 -1.36953 -3.2394 0
M  V30 9588 H 920.895 0.301507 -3.75993 0
M  V30 9589 H 923.282 0.72156 -2.86142 0
M  V30 9590 H 923.363 -0.974844 -2.36496 0
M  V30 9591 H 923.007 -1.67932 -4.79334 0
M  V30 9592 H 922.937 0.0369575 -5.26587 0
M  V30 9593 H 925.428 -0.377202 -3.76013 0
M  V30 9594 H 925.741 -1.391 -7.60178 0
M  V30 9595 H 924.086 -1.24413 -6.83774 0
M  V30 9596 H 927.277 -0.550993 -4.64846 0
M  V30 9597 H 927.45 -1.01307 -6.40032 0
M  V30 9598 N 920.856 1.57574 -0.0284266 0
M  V30 9599 C 922.081 1.96479 0.664137 0
M  V30 9600 C 922.506 0.904826 1.64908 0
M  V30 9601 O 921.864 -0.134339 1.80802 0
M  V30 9602 C 921.912 3.34479 1.34745 0
M  V30 9603 O 921.016 3.30794 2.46271 0
M  V30 9604 H 920.357 0.640654 0.174524 0
M  V30 9605 H 922.887 2.04402 -0.0900729 0
M  V30 9606 H 922.897 3.70694 1.7044 0
M  V30 9607 H 921.572 4.1117 0.625468 0
M  V30 9608 H 920.149 3.06294 2.12693 0
M  V30 9609 N 922.334 -0.244713 1.55689 0
M  V30 9610 C 923.75 -0.593331 1.48161 0
M  V30 9611 C 923.95 -1.88234 0.719047 0
M  V30 9612 O 923.006 -2.51266 0.249292 0
M  V30 9613 C 924.319 -0.694032 2.92581 0
M  V30 9614 C 925.867 -0.786213 3.02965 0
M  V30 9615 C 926.342 -0.918457 4.48696 0
M  V30 9616 N 927.833 -0.983272 4.52643 0
M  V30 9617 C 928.568 -1.1049 5.62654 0
M  V30 9618 N 928.064 -1.19193 6.8247 0
M  V30 9619 N 929.857 -1.13823 5.50455 0
M  V30 9620 H 922.008 0.601446 2.03707 0
M  V30 9621 H 924.271 0.207894 0.924924 0
M  V30 9622 H 923.977 0.183133 3.51223 0
M  V30 9623 H 923.851 -1.56525 3.4319 0
M  V30 9624 H 926.238 -1.65383 2.44402 0
M  V30 9625 H 926.319 0.110202 2.55563 0
M  V30 9626 H 925.963 -0.0553881 5.0787 0
M  V30 9627 H 925.893 -1.82994 4.93782 0
M  V30 9628 H 928.384 -0.927269 3.66347 0
M  V30 9629 H 928.697 -1.28387 7.62061 0
M  V30 9630 H 927.042 -1.16147 6.85226 0
M  V30 9631 H 930.233 -1.06673 4.55783 0
M  V30 9632 H 930.406 -1.22957 6.36228 0
M  V30 9633 N 923.813 -1.49104 -0.510467 0
M  V30 9634 C 924.723 -1.67792 -1.6396 0
M  V30 9635 C 925.739 -0.560454 -1.64727 0
M  V30 9636 O 926.915 -0.833985 -1.83321 0
M  V30 9637 C 923.98 -1.73154 -3.00364 0
M  V30 9638 C 923.041 -2.9667 -3.10299 0
M  V30 9639 C 922.274 -3.01767 -4.40196 0
M  V30 9640 O 922.497 -2.1472 -5.28443 0
M  V30 9641 O 921.431 -3.94137 -4.54906 0
M  V30 9642 H 925.257 -2.63428 -1.51126 0
M  V30 9643 H 922.842 -1.32734 -0.685719 0
M  V30 9644 H 924.724 -1.79089 -3.81451 0
M  V30 9645 H 923.399 -0.806952 -3.1348 0
M  V30 9646 H 922.306 -2.96257 -2.28435 0
M  V30 9647 H 923.639 -3.88578 -3.02106 0
M  V30 9648 N 925.291 0.760815 -1.38019 0
M  V30 9649 C 926.201 1.90526 -1.36884 0
M  V30 9650 C 927.217 1.71941 -0.266908 0
M  V30 9651 O 928.393 1.94988 -0.50413 0
M  V30 9652 C 925.458 3.25799 -1.18558 0
M  V30 9653 C 924.519 3.56961 -2.3849 0
M  V30 9654 C 923.752 4.8578 -2.21029 0
M  V30 9655 O 923.975 5.57629 -1.20023 0
M  V30 9656 O 922.909 5.16254 -3.0946 0
M  V30 9657 H 926.735 1.94437 -2.33298 0
M  V30 9658 H 924.32 0.905091 -1.18863 0
M  V30 9659 H 926.202 4.0669 -1.1037 0
M  V30 9660 H 924.877 3.22716 -0.252241 0
M  V30 9661 H 923.784 2.7626 -2.52252 0
M  V30 9662 H 925.117 3.64798 -3.30429 0
M  V30 9663 N 926.769 1.22769 0.988202 0
M  V30 9664 C 928.185 0.988665 1.2529 0
M  V30 9665 C 928.385 -0.314938 1.99024 0
M  V30 9666 O 927.441 -1.03637 2.30251 0
M  V30 9667 C 928.754 2.19046 2.06009 0
M  V30 9668 C 930.302 2.23452 2.19176 0
M  V30 9669 C 930.777 3.43196 3.03283 0
M  V30 9670 N 932.268 3.43387 3.10869 0
M  V30 9671 C 933.003 4.32693 3.7625 0
M  V30 9672 N 932.499 5.32224 4.43519 0
M  V30 9673 N 934.292 4.20457 3.73058 0
M  V30 9674 H 926.443 2.06575 0.494014 0
M  V30 9675 H 928.706 0.905452 0.28082 0
M  V30 9676 H 928.412 3.13607 1.59197 0
M  V30 9677 H 928.286 2.19492 3.06763 0
M  V30 9678 H 930.673 1.29436 2.65199 0
M  V30 9679 H 930.754 2.27042 1.17836 0
M  V30 9680 H 930.398 4.37515 2.57959 0
M  V30 9681 H 930.328 3.36847 4.04774 0
M  V30 9682 H 932.819 2.71368 2.62998 0
M  V30 9683 H 933.132 5.9664 4.91163 0
M  V30 9684 H 931.477 5.36133 4.42252 0
M  V30 9685 H 934.668 3.41949 3.19669 0
M  V30 9686 H 934.841 4.90261 4.23731 0
M  V30 9687 N 928.247 -1.18576 1.03814 0
M  V30 9688 C 929.496 -1.87822 0.735235 0
M  V30 9689 C 929.809 -1.81069 -0.739819 0
M  V30 9690 O 931.015 -2.45654 -1.15614 0
M  V30 9691 C 929.471 -3.36941 1.26486 0
M  V30 9692 C 929.079 -3.5223 2.76836 0
M  V30 9693 C 930.823 -4.11604 1.03836 0
M  V30 9694 C 928.73 -4.95294 3.23169 0
M  V30 9695 H 927.66 -0.703487 0.271333 0
M  V30 9696 H 930.311 -1.34 1.25365 0
M  V30 9697 H 928.693 -3.90217 0.674318 0
M  V30 9698 H 929.867 -3.09239 3.41625 0
M  V30 9699 H 928.182 -2.90969 2.97869 0
M  V30 9700 H 930.779 -5.17123 1.3597 0
M  V30 9701 H 931.122 -4.16293 -0.0244945 0
M  V30 9702 H 931.655 -3.64494 1.59338 0
M  V30 9703 H 928.394 -4.95772 4.28824 0
M  V30 9704 H 927.914 -5.3901 2.63113 0
M  V30 9705 H 929.593 -5.63996 3.17045 0
M  V30 9706 N 929.725 -0.817259 -1.34754 0
M  V30 9707 C 931.141 -0.502309 -1.51489 0
M  V30 9708 C 931.341 0.974568 -1.76364 0
M  V30 9709 O 930.397 1.75924 -1.81127 0
M  V30 9710 C 931.71 -1.35693 -2.68343 0
M  V30 9711 C 933.258 -1.35347 -2.82224 0
M  V30 9712 C 933.733 -2.19244 -4.02114 0
M  V30 9713 N 935.224 -2.16837 -4.09311 0
M  V30 9714 C 935.959 -2.78505 -5.01221 0
M  V30 9715 N 935.455 -3.4914 -5.98392 0
M  V30 9716 N 937.248 -2.68089 -4.94049 0
M  V30 9717 H 929.399 -1.77359 -1.16866 0
M  V30 9718 H 931.662 -0.755476 -0.572678 0
M  V30 9719 H 931.368 -2.40548 -2.56573 0
M  V30 9720 H 931.242 -1.01764 -3.63213 0
M  V30 9721 H 933.629 -0.312727 -2.93438 0
M  V30 9722 H 933.71 -1.7327 -1.88179 0
M  V30 9723 H 933.354 -3.23365 -3.9166 0
M  V30 9724 H 933.284 -1.78675 -4.95361 0
M  V30 9725 H 935.775 -1.65452 -3.39756 0
M  V30 9726 H 936.088 -3.93455 -6.65141 0
M  V30 9727 H 934.433 -3.53246 -5.98533 0
M  V30 9728 H 937.624 -2.12485 -4.17094 0
M  V30 9729 H 937.797 -3.16436 -5.65484 0
M  V30 9730 N 931.203 1.46865 -0.571711 0
M  V30 9731 C 932.428 2.07323 -0.0564655 0
M  V30 9732 C 932.853 1.41938 1.23431 0
M  V30 9733 O 932.211 0.499334 1.74288 0
M  V30 9734 C 932.259 3.6044 0.107339 0
M  V30 9735 O 931.363 3.95558 1.1665 0
M  V30 9736 H 930.704 0.661475 -0.0578465 0
M  V30 9737 H 933.234 1.88669 -0.791524 0
M  V30 9738 H 933.244 4.06767 0.316987 0
M  V30 9739 H 931.919 4.07425 -0.835348 0
M  V30 9740 H 930.496 3.60957 0.936189 0
M  V30 9741 N 932.681 0.308908 1.54543 0
M  V30 9742 C 933.611 -0.556657 2.26768 0
M  V30 9743 C 934.592 -1.13145 1.27013 0
M  V30 9744 O 935.777 -1.15931 1.558 0
M  V30 9745 C 932.907 -1.72481 3.01443 0
M  V30 9746 C 931.861 -1.28001 4.08411 0
M  V30 9747 C 931.187 -2.53395 4.70845 0
M  V30 9748 C 932.487 -0.405497 5.20724 0
M  V30 9749 H 934.181 0.0457618 2.99365 0
M  V30 9750 H 931.727 0.0234495 1.43981 0
M  V30 9751 H 933.68 -2.3365 3.50693 0
M  V30 9752 H 932.404 -2.35359 2.26437 0
M  V30 9753 H 931.063 -0.69133 3.60022 0
M  V30 9754 H 930.711 -3.14604 3.92471 0
M  V30 9755 H 930.411 -2.2433 5.43093 0
M  V30 9756 H 931.935 -3.15352 5.22863 0
M  V30 9757 H 933.349 -0.923076 5.6582 0
M  V30 9758 H 931.746 -0.208282 5.99738 0
M  V30 9759 H 932.816 0.567412 4.81569 0
M  V30 9760 N 934.159 -1.57557 0.0367827 0
M  V30 9761 C 935.069 -2.14148 -0.958017 0
M  V30 9762 C 936.085 -1.09564 -1.35173 0
M  V30 9763 O 937.261 -1.4166 -1.43158 0
M  V30 9764 C 934.326 -2.6636 -2.21931 0
M  V30 9765 C 933.387 -3.85688 -1.8853 0
M  V30 9766 C 932.62 -4.35401 -3.08645 0
M  V30 9767 O 932.843 -3.8425 -4.21554 0
M  V30 9768 O 931.777 -5.27158 -2.90497 0
M  V30 9769 H 935.603 -2.99442 -0.506797 0
M  V30 9770 H 933.188 -1.48259 -0.184275 0
M  V30 9771 H 935.07 -2.99976 -2.9596 0
M  V30 9772 H 933.745 -1.84145 -2.66219 0
M  V30 9773 H 932.652 -3.56985 -1.11861 0
M  V30 9774 H 933.985 -4.69089 -1.49052 0
M  V30 9775 N 935.637 0.236453 -1.55816 0
M  V30 9776 C 936.6 1.27633 -1.90375 0
M  V30 9777 C 937.6 1.40557 -0.781048 0
M  V30 9778 O 938.79 1.39078 -1.04895 0
M  V30 9779 C 935.922 2.65247 -2.14142 0
M  V30 9780 H 937.115 0.982019 -2.83366 0
M  V30 9781 H 934.668 0.476215 -1.48869 0
M  V30 9782 H 935.403 2.99801 -1.23653 0
M  V30 9783 H 935.188 2.57246 -2.95917 0
M  V30 9784 H 936.678 3.40313 -2.42026 0
M  V30 9785 N 937.115 1.49373 0.502552 0
M  V30 9786 C 938.025 1.68659 1.63068 0
M  V30 9787 C 939.041 0.569182 1.64427 0
M  V30 9788 O 940.217 0.843695 1.82876 0
M  V30 9789 C 937.282 1.74745 2.99441 0
M  V30 9790 C 936.343 2.98311 3.08721 0
M  V30 9791 C 935.576 3.04097 4.38589 0
M  V30 9792 O 935.799 2.17519 5.27297 0
M  V30 9793 O 934.733 3.96544 4.52809 0
M  V30 9794 H 938.559 2.64226 1.49727 0
M  V30 9795 H 936.144 1.33096 0.67867 0
M  V30 9796 H 938.026 1.8111 3.80496 0
M  V30 9797 H 936.701 0.823565 3.13048 0
M  V30 9798 H 935.608 2.97465 2.2686 0
M  V30 9799 H 936.941 3.90174 3.00041 0
M  V30 9800 N 938.594 -0.753485 1.38421 0
M  V30 9801 C 939.524 -1.8808 1.38377 0
M  V30 9802 C 940.505 -1.68258 0.249664 0
M  V30 9803 O 941.69 -1.88848 0.45276 0
M  V30 9804 C 938.82 -3.25608 1.20818 0
M  V30 9805 C 937.774 -3.60032 2.31433 0
M  V30 9806 C 937.1 -4.96297 1.9898 0
M  V30 9807 C 938.4 -3.64898 3.73694 0
M  V30 9808 H 940.094 -1.88375 2.32713 0
M  V30 9809 H 937.64 -0.90489 1.12017 0
M  V30 9810 H 939.593 -4.04127 1.19412 0
M  V30 9811 H 938.317 -3.25793 0.229433 0
M  V30 9812 H 936.976 -2.83831 2.32025 0
M  V30 9813 H 936.624 -4.93043 0.995889 0
M  V30 9814 H 936.324 -5.20298 2.73063 0
M  V30 9815 H 937.848 -5.77196 1.99193 0
M  V30 9816 H 939.262 -4.33531 3.75132 0
M  V30 9817 H 937.659 -4.00407 4.46983 0
M  V30 9818 H 938.729 -2.65124 4.06002 0
M  V30 9819 N 940.072 -1.23292 -0.981677 0
M  V30 9820 C 941.035 -1.01417 -2.05542 0
M  V30 9821 C 942.035 0.0235354 -1.60783 0
M  V30 9822 O 943.225 -0.216082 -1.72855 0
M  V30 9823 C 940.357 -0.534239 -3.36688 0
M  V30 9824 H 941.55 -1.96702 -2.26381 0
M  V30 9825 H 939.103 -1.05318 -1.1549 0
M  V30 9826 H 939.838 0.422452 -3.21537 0
M  V30 9827 H 939.623 -1.28304 -3.70514 0
M  V30 9828 H 941.113 -0.40179 -4.15663 0
M  V30 9829 N 941.55 1.18024 -1.04442 0
M  V30 9830 C 942.78 1.91753 -0.769044 0
M  V30 9831 C 943.188 1.76629 0.678141 0
M  V30 9832 O 942.531 1.09589 1.47431 0
M  V30 9833 C 942.593 3.43505 -1.0604 0
M  V30 9834 C 942.257 3.82409 -2.50225 0
M  V30 9835 C 943.254 3.8588 -3.48414 0
M  V30 9836 C 940.939 4.13594 -2.85036 0
M  V30 9837 C 942.933 4.19993 -4.79463 0
M  V30 9838 C 940.62 4.47377 -4.1629 0
M  V30 9839 C 941.618 4.50553 -5.13314 0
M  V30 9840 O 941.306 4.83546 -6.42214 0
M  V30 9841 H 941.038 0.615466 -0.279603 0
M  V30 9842 H 943.592 1.5065 -1.3962 0
M  V30 9843 H 941.822 3.84866 -0.376125 0
M  V30 9844 H 943.511 3.98486 -0.772235 0
M  V30 9845 H 944.277 3.6192 -3.2286 0
M  V30 9846 H 940.156 4.10297 -2.10185 0
M  V30 9847 H 943.7 4.22387 -5.55189 0
M  V30 9848 H 939.597 4.70798 -4.4161 0
M  V30 9849 H 940.365 5.01433 -6.46921 0
M  V30 9850 N 943.028 0.824394 1.34319 0
M  V30 9851 C 944.275 0.413167 1.9824 0
M  V30 9852 C 944.603 -1.02412 1.65354 0
M  V30 9853 O 943.858 -1.72831 0.91803 0
M  V30 9854 C 944.157 0.564024 3.52921 0
M  V30 9855 C 943.823 1.96725 4.05722 0
M  V30 9856 C 942.485 2.35111 4.19853 0
M  V30 9857 C 944.837 2.88447 4.34106 0
M  V30 9858 C 942.165 3.64551 4.59695 0
M  V30 9859 C 944.517 4.17353 4.75394 0
M  V30 9860 C 943.181 4.55714 4.8773 0
M  V30 9861 H 942.451 0.151188 0.725412 0
M  V30 9862 H 945.098 1.04863 1.60238 0
M  V30 9863 H 943.403 -0.154816 3.91494 0
M  V30 9864 H 945.1 0.226347 4.00361 0
M  V30 9865 H 941.69 1.65908 3.95187 0
M  V30 9866 H 945.874 2.60034 4.22725 0
M  V30 9867 H 941.13 3.94097 4.67437 0
M  V30 9868 H 945.304 4.88512 4.96315 0
M  V30 9869 H 942.931 5.56064 5.1836 0
M  V30 9870 N 944.506 -1.46559 0.579492 0
M  V30 9871 C 945.922 -1.57771 0.240921 0
M  V30 9872 C 946.122 -1.57505 -1.25676 0
M  V30 9873 O 945.178 -1.4903 -2.03829 0
M  V30 9874 C 946.491 -2.87311 0.887285 0
M  V30 9875 C 948.039 -3.00937 0.860576 0
M  V30 9876 C 948.514 -4.33208 1.48642 0
M  V30 9877 N 950.005 -4.39899 1.45062 0
M  V30 9878 C 950.74 -5.40856 1.90428 0
M  V30 9879 N 950.236 -6.48503 2.43752 0
M  V30 9880 N 952.029 -5.32037 1.81364 0
M  V30 9881 H 944.18 -1.44976 1.55228 0
M  V30 9882 H 946.443 -0.691354 0.648639 0
M  V30 9883 H 946.149 -2.93307 1.94071 0
M  V30 9884 H 946.023 -3.75141 0.393577 0
M  V30 9885 H 948.41 -2.94524 -0.184223 0
M  V30 9886 H 948.491 -2.14591 1.39227 0
M  V30 9887 H 948.135 -4.40378 2.5304 0
M  V30 9888 H 948.065 -5.18323 0.92998 0
M  V30 9889 H 950.556 -3.62706 1.0608 0
M  V30 9890 H 950.869 -7.21744 2.76234 0
M  V30 9891 H 949.214 -6.49332 2.47776 0
M  V30 9892 H 952.405 -4.46841 1.39465 0
M  V30 9893 H 952.578 -6.10573 2.17035 0
M  V30 9894 N 945.984 -0.3171 -1.54377 0
M  V30 9895 C 947.4 0.035766 -1.5956 0
M  V30 9896 C 947.6 1.51038 -1.33378 0
M  V30 9897 O 946.656 2.26546 -1.11505 0
M  V30 9898 C 947.969 -0.376652 -2.98332 0
M  V30 9899 C 949.517 -0.326765 -3.1129 0
M  V30 9900 C 949.992 -0.714247 -4.52396 0
M  V30 9901 N 951.483 -0.667402 -4.58367 0
M  V30 9902 C 952.218 -0.939494 -5.65651 0
M  V30 9903 N 951.714 -1.27839 -6.80903 0
M  V30 9904 N 953.507 -0.865484 -5.55397 0
M  V30 9905 H 945.658 -1.27794 -1.69654 0
M  V30 9906 H 947.921 -0.5192 -0.79318 0
M  V30 9907 H 947.627 -1.40381 -3.22469 0
M  V30 9908 H 947.501 0.261611 -3.76292 0
M  V30 9909 H 949.888 0.69117 -2.86892 0
M  V30 9910 H 949.969 -0.999873 -2.35449 0
M  V30 9911 H 949.613 -1.73007 -4.77526 0
M  V30 9912 H 949.543 -0.0188962 -5.26597 0
M  V30 9913 H 952.034 -0.417062 -3.75592 0
M  V30 9914 H 952.347 -1.47155 -7.5866 0
M  V30 9915 H 950.692 -1.31658 -6.82416 0
M  V30 9916 H 953.883 -0.600265 -4.64235 0
M  V30 9917 H 954.056 -1.0809 -6.38921 0
M  V30 9918 N 947.462 1.57535 -0.0451378 0
M  V30 9919 C 948.878 1.56533 0.311373 0
M  V30 9920 C 949.078 1.05225 1.71843 0
M  V30 9921 O 948.134 0.706144 2.42425 0
M  V30 9922 C 949.447 3.00349 0.145348 0
M  V30 9923 C 950.995 3.12248 0.216908 0
M  V30 9924 C 951.47 4.57931 0.0794834 0
M  V30 9925 N 952.961 4.63 0.135954 0
M  V30 9926 C 953.696 5.73375 0.0536426 0
M  V30 9927 N 953.192 6.92753 -0.0806725 0
M  V30 9928 N 954.985 5.61995 0.108789 0
M  V30 9929 H 947.136 1.89211 -0.965044 0
M  V30 9930 H 949.399 0.871068 -0.374091 0
M  V30 9931 H 949.105 3.41898 -0.824533 0
M  V30 9932 H 948.979 3.66086 0.908903 0
M  V30 9933 H 951.366 2.70601 1.17726 0
M  V30 9934 H 951.447 2.49201 -0.577299 0
M  V30 9935 H 951.091 5.00262 -0.877516 0
M  V30 9936 H 951.021 5.18977 0.892758 0
M  V30 9937 H 953.512 3.77142 0.23926 0
M  V30 9938 H 953.825 7.7268 -0.136351 0
M  V30 9939 H 952.17 6.94904 -0.115675 0
M  V30 9940 H 955.361 4.67619 0.212235 0
M  V30 9941 H 955.534 6.47987 0.0411822 0
M  V30 9942 N 948.94 -0.228186 1.55939 0
M  V30 9943 C 949.85 -1.30386 1.9503 0
M  V30 9944 C 950.866 -1.51645 0.853218 0
M  V30 9945 O 952.042 -1.64904 1.15623 0
M  V30 9946 C 949.107 -2.63489 2.25332 0
M  V30 9947 C 948.168 -2.5059 3.48573 0
M  V30 9948 C 947.401 -3.77345 3.7742 0
M  V30 9949 O 947.624 -4.80067 3.08045 0
M  V30 9950 O 946.558 -3.74855 4.70922 0
M  V30 9951 H 950.384 -1.0022 2.86687 0
M  V30 9952 H 947.969 -0.430503 1.43063 0
M  V30 9953 H 949.851 -3.4211 2.46046 0
M  V30 9954 H 948.526 -2.93349 1.3685 0
M  V30 9955 H 947.433 -1.70191 3.33145 0
M  V30 9956 H 948.766 -2.2567 4.37417 0
M  V30 9957 N 950.418 -1.49637 -0.494624 0
M  V30 9958 C 951.328 -1.69522 -1.62172 0
M  V30 9959 C 952.344 -0.577894 -1.64123 0
M  V30 9960 O 953.52 -0.853382 -1.82426 0
M  V30 9961 C 950.585 -1.7633 -2.9851 0
M  V30 9962 C 949.646 -2.99944 -3.07135 0
M  V30 9963 C 948.879 -3.06419 -4.36971 0
M  V30 9964 O 949.102 -2.20312 -5.26136 0
M  V30 9965 O 948.036 -3.9894 -4.507 0
M  V30 9966 H 951.862 -2.65017 -1.48324 0
M  V30 9967 H 949.447 -1.33454 -0.671603 0
M  V30 9968 H 951.329 -1.83125 -3.7953 0
M  V30 9969 H 950.004 -0.840155 -3.12607 0
M  V30 9970 H 948.911 -2.98664 -2.2528 0
M  V30 9971 H 950.244 -3.9176 -2.97968 0
M  V30 9972 N 951.896 0.746133 -1.38819 0
M  V30 9973 C 952.806 1.89063 -1.38897 0
M  V30 9974 C 953.822 1.71648 -0.28513 0
M  V30 9975 O 954.998 1.94443 -0.524783 0
M  V30 9976 C 952.063 3.24523 -1.22007 0
M  V30 9977 C 951.124 3.54411 -2.42263 0
M  V30 9978 C 950.357 4.83408 -2.26169 0
M  V30 9979 O 950.58 5.56325 -1.25931 0
M  V30 9980 O 949.514 5.12943 -3.14918 0
M  V30 9981 H 953.34 1.91951 -2.35347 0
M  V30 9982 H 950.925 0.892433 -1.19816 0
M  V30 9983 H 952.807 4.05496 -1.14677 0
M  V30 9984 H 951.482 3.2243 -0.286455 0
M  V30 9985 H 950.389 2.73569 -2.55168 0
M  V30 9986 H 951.722 3.61273 -3.3428 0
M  V30 9987 N 953.375 1.23811 0.975125 0
M  V30 9988 C 954.622 1.07336 1.71712 0
M  V30 9989 C 954.95 -0.388954 1.90571 0
M  V30 9990 O 954.205 -1.30409 1.45918 0
M  V30 9991 C 954.504 1.74994 3.11628 0
M  V30 9992 C 954.17 3.24918 3.12632 0
M  V30 9993 C 952.832 3.65822 3.12614 0
M  V30 9994 C 955.184 4.20797 3.07538 0
M  V30 9995 C 952.512 5.01054 3.05224 0
M  V30 9996 C 954.864 5.56027 3.0169 0
M  V30 9997 C 953.528 5.96287 2.99996 0
M  V30 9998 H 952.798 0.392771 0.62834 0
M  V30 9999 H 955.445 1.53815 1.14075 0
M  V30 10000 H 953.75 1.20889 3.72684 0
M  V30 10001 H 955.447 1.5972 3.67819 0
M  V30 10002 H 952.037 2.92359 3.13407 0
M  V30 10003 H 956.221 3.902 3.06688 0
M  V30 10004 H 951.477 5.31454 3.02268 0
M  V30 10005 H 955.651 6.3003 2.96706 0
M  V30 10006 H 953.278 7.01037 2.94025 0
M  V30 10007 N 954.853 -1.17469 1.05066 0
M  V30 10008 C 955.803 -2.19388 0.620713 0
M  V30 10009 C 956.787 -1.5722 -0.34214 0
M  V30 10010 O 957.979 -1.76279 -0.159574 0
M  V30 10011 C 955.108 -3.433 -0.00438518 0
M  V30 10012 C 954.194 -4.12569 0.982218 0
M  V30 10013 N 954.585 -4.57683 2.15313 0
M  V30 10014 C 952.883 -4.38575 0.810416 0
M  V30 10015 C 953.584 -5.11124 2.77719 0
M  V30 10016 N 952.56 -5.0325 2.05525 0
M  V30 10017 H 956.362 -2.51971 1.51287 0
M  V30 10018 H 953.876 -1.33784 0.920625 0
M  V30 10019 H 955.873 -4.15591 -0.330161 0
M  V30 10020 H 954.533 -3.12209 -0.89195 0
M  V30 10021 H 955.544 -4.51812 2.53154 0
M  V30 10022 H 952.221 -4.17492 -0.0262078 0
M  V30 10023 H 953.611 -5.56161 3.77008 0
M  V30 10024 N 956.331 -0.831506 -1.3388 0
M  V30 10025 C 957.747 -0.518349 -1.50948 0
M  V30 10026 C 957.947 0.955807 -1.77388 0
M  V30 10027 O 957.003 1.73993 -1.82983 0
M  V30 10028 C 958.316 -1.38531 -2.66889 0
M  V30 10029 C 959.864 -1.38332 -2.80772 0
M  V30 10030 C 960.339 -2.23497 -3.99766 0
M  V30 10031 N 961.83 -2.21167 -4.06988 0
M  V30 10032 C 962.565 -2.83805 -4.98239 0
M  V30 10033 N 962.061 -3.55468 -5.94655 0
M  V30 10034 N 963.854 -2.73314 -4.91178 0
M  V30 10035 H 956.005 -1.78588 -1.14978 0
M  V30 10036 H 958.268 -0.761508 -0.564633 0
M  V30 10037 H 957.974 -2.43255 -2.54007 0
M  V30 10038 H 957.848 -1.05611 -3.62114 0
M  V30 10039 H 960.235 -0.343832 -2.9309 0
M  V30 10040 H 960.316 -1.75256 -1.86331 0
M  V30 10041 H 959.96 -3.27501 -3.88208 0
M  V30 10042 H 959.89 -1.83919 -4.93438 0
M  V30 10043 H 962.381 -1.69046 -3.37982 0
M  V30 10044 H 962.694 -4.00487 -6.60931 0
M  V30 10045 H 961.039 -3.59575 -5.94753 0
M  V30 10046 H 964.23 -2.16897 -4.14817 0
M  V30 10047 H 964.403 -3.22416 -5.62096 0
M  V30 10048 N 957.809 1.4625 -0.587256 0
M  V30 10049 C 958.741 2.28482 0.181256 0
M  V30 10050 C 959.754 1.38777 0.851163 0
M  V30 10051 O 960.943 1.63336 0.719963 0
M  V30 10052 C 958.043 3.13944 1.27643 0
M  V30 10053 C 957.216 4.31802 0.697569 0
M  V30 10054 C 956.275 4.98626 1.68102 0
M  V30 10055 O 955.301 5.56075 1.21529 0
M  V30 10056 N 956.503 4.96051 3.0152 0
M  V30 10057 H 959.268 2.95079 -0.524267 0
M  V30 10058 H 956.829 1.56213 -0.425336 0
M  V30 10059 H 958.821 3.55513 1.93371 0
M  V30 10060 H 957.391 2.49391 1.88475 0
M  V30 10061 H 956.611 3.93961 -0.137293 0
M  V30 10062 H 957.899 5.07969 0.290696 0
M  V30 10063 H 957.297 4.5063 3.41978 0
M  V30 10064 H 955.854 5.41547 3.62725 0
M  V30 10065 N 959.287 0.325282 1.54207 0
M  V30 10066 C 960.217 -0.532574 2.27345 0
M  V30 10067 C 961.198 -1.11791 1.28206 0
M  V30 10068 O 962.383 -1.14272 1.57021 0
M  V30 10069 C 959.513 -1.69274 3.03255 0
M  V30 10070 C 958.467 -1.23662 4.09746 0
M  V30 10071 C 957.793 -2.48386 4.73506 0
M  V30 10072 C 959.093 -0.350244 5.21124 0
M  V30 10073 H 960.787 0.0775108 2.993 0
M  V30 10074 H 958.333 0.0387193 1.43948 0
M  V30 10075 H 960.286 -2.29917 3.53152 0
M  V30 10076 H 959.01 -2.32944 2.28921 0
M  V30 10077 H 957.669 -0.653106 3.60735 0
M  V30 10078 H 957.317 -3.10424 3.95786 0
M  V30 10079 H 957.017 -2.18558 5.45441 0
M  V30 10080 H 958.541 -3.09789 5.26178 0
M  V30 10081 H 959.955 -0.863011 5.66767 0
M  V30 10082 H 958.352 -0.14466 5.99926 0
M  V30 10083 H 959.422 0.618457 4.8094 0
M  V30 10084 N 960.765 -1.57509 0.0534917 0
M  V30 10085 C 961.697 -2.08616 -0.949322 0
M  V30 10086 C 962.71 -1.01446 -1.27328 0
M  V30 10087 O 963.899 -1.29007 -1.23367 0
M  V30 10088 C 960.999 -2.51622 -2.27024 0
M  V30 10089 C 960.172 -3.82154 -2.12785 0
M  V30 10090 C 959.231 -4.11448 -3.2802 0
M  V30 10091 O 958.257 -4.81333 -3.03822 0
M  V30 10092 N 959.459 -3.63543 -4.52567 0
M  V30 10093 H 962.224 -2.95275 -0.5131 0
M  V30 10094 H 959.785 -1.61355 -0.132693 0
M  V30 10095 H 961.777 -2.68293 -3.02986 0
M  V30 10096 H 960.347 -1.70198 -2.62205 0
M  V30 10097 H 959.567 -3.75041 -1.21399 0
M  V30 10098 H 960.855 -4.67629 -2.00501 0
M  V30 10099 H 960.253 -3.07051 -4.75117 0
M  V30 10100 H 958.81 -3.85448 -5.25617 0
M  V30 10101 N 962.243 0.219913 -1.56058 0
M  V30 10102 C 963.153 1.29349 -1.95719 0
M  V30 10103 C 964.169 1.5119 -0.861248 0
M  V30 10104 O 965.345 1.64289 -1.16495 0
M  V30 10105 C 962.41 2.6229 -2.26726 0
M  V30 10106 C 961.471 2.48738 -3.49897 0
M  V30 10107 C 960.704 3.75339 -3.79416 0
M  V30 10108 O 960.927 4.78427 -3.10586 0
M  V30 10109 O 959.861 3.72352 -4.72903 0
M  V30 10110 H 963.687 0.986979 -2.87215 0
M  V30 10111 H 961.272 0.42291 -1.43289 0
M  V30 10112 H 963.154 3.408 -2.47857 0
M  V30 10113 H 961.829 2.92619 -1.38404 0
M  V30 10114 H 960.736 1.68422 -3.34043 0
M  V30 10115 H 962.069 2.23347 -4.38608 0
M  V30 10116 N 963.721 1.49897 0.486681 0
M  V30 10117 C 964.651 1.7054 1.59494 0
M  V30 10118 C 965.632 0.554184 1.60819 0
M  V30 10119 O 966.817 0.791617 1.77333 0
M  V30 10120 C 963.947 1.78517 2.97908 0
M  V30 10121 C 962.901 2.93571 3.11449 0
M  V30 10122 C 962.227 2.86674 4.51356 0
M  V30 10123 C 963.527 4.34308 2.90127 0
M  V30 10124 H 965.221 2.63329 1.42472 0
M  V30 10125 H 962.767 1.2672 0.683969 0
M  V30 10126 H 964.72 1.91544 3.75352 0
M  V30 10127 H 963.444 0.823381 3.16051 0
M  V30 10128 H 962.103 2.80169 2.36433 0
M  V30 10129 H 961.751 1.88373 4.66395 0
M  V30 10130 H 961.451 3.63903 4.61355 0
M  V30 10131 H 962.975 3.01728 5.30841 0
M  V30 10132 H 964.389 4.48317 3.57331 0
M  V30 10133 H 962.786 5.12869 3.11585 0
M  V30 10134 H 963.856 4.47759 1.86119 0
M  V30 10135 N 965.199 -0.738761 1.39212 0
M  V30 10136 C 966.615 -1.04381 1.20734 0
M  V30 10137 C 966.815 -2.01391 0.0663082 0
M  V30 10138 O 965.871 -2.45672 -0.583229 0
M  V30 10139 C 967.184 -1.6097 2.53987 0
M  V30 10140 C 968.732 -1.73069 2.60799 0
M  V30 10141 C 969.207 -2.33067 3.94264 0
M  V30 10142 N 970.698 -2.40481 3.95883 0
M  V30 10143 C 971.433 -2.87834 4.95923 0
M  V30 10144 N 970.929 -3.35111 6.0636 0
M  V30 10145 N 972.722 -2.87009 4.83304 0
M  V30 10146 H 964.873 -0.0952996 2.12186 0
M  V30 10147 H 967.136 -0.104902 0.942178 0
M  V30 10148 H 966.842 -0.971548 3.38015 0
M  V30 10149 H 966.716 -2.59829 2.73439 0
M  V30 10150 H 969.103 -2.36007 1.77157 0
M  V30 10151 H 969.184 -0.728728 2.452 0
M  V30 10152 H 968.828 -1.70758 4.78335 0
M  V30 10153 H 968.758 -3.33933 4.07181 0
M  V30 10154 H 971.249 -2.07061 3.16123 0
M  V30 10155 H 971.562 -3.69742 6.78609 0
M  V30 10156 H 969.907 -3.33129 6.09959 0
M  V30 10157 H 973.098 -2.49395 3.96131 0
M  V30 10158 H 973.271 -3.23598 5.61416 0
M  V30 10159 N 966.677 -1.24326 -0.968545 0
M  V30 10160 C 967.905 -1.10947 -1.74638 0
M  V30 10161 C 968.32 0.338064 -1.85749 0
M  V30 10162 O 967.677 1.23331 -1.3452 0
M  V30 10163 C 967.728 -1.74254 -3.1673 0
M  V30 10164 O 967.449 -3.13347 -3.06178 0
M  V30 10165 C 968.95 -1.66473 -4.10855 0
M  V30 10166 H 966.17 -0.38767 -0.547679 0
M  V30 10167 H 968.714 -1.64415 -1.21605 0
M  V30 10168 H 966.869 -1.2479 -3.66751 0
M  V30 10169 H 967.283 -3.44255 -3.95713 0
M  V30 10170 H 968.757 -2.15452 -5.08217 0
M  V30 10171 H 969.234 -0.625785 -4.34719 0
M  V30 10172 H 969.84 -2.15359 -3.66743 0
M  V30 10173 N 968.156 1.1691 -1.05688 0
M  V30 10174 C 969.119 2.19297 -0.666433 0
M  V30 10175 C 970.119 1.5826 0.284674 0
M  V30 10176 O 971.309 1.74068 0.0678757 0
M  V30 10177 C 968.441 3.40894 0.0203656 0
M  V30 10178 H 969.634 2.55354 -1.57272 0
M  V30 10179 H 967.187 1.31078 -0.851359 0
M  V30 10180 H 967.922 3.10388 0.939686 0
M  V30 10181 H 967.707 3.86446 -0.663464 0
M  V30 10182 H 969.197 4.16664 0.279475 0
M  V30 10183 N 969.634 0.838594 1.33437 0
M  V30 10184 C 970.859 0.446701 2.02532 0
M  V30 10185 C 971.284 -0.944275 1.62681 0
M  V30 10186 O 970.642 -1.61733 0.81927 0
M  V30 10187 C 970.69 0.574794 3.55989 0
M  V30 10188 O 969.794 -0.399063 4.10465 0
M  V30 10189 H 969.135 0.181637 0.638674 0
M  V30 10190 H 971.665 1.13335 1.70342 0
M  V30 10191 H 971.675 0.456339 4.0544 0
M  V30 10192 H 970.35 1.58921 3.8434 0
M  V30 10193 H 968.927 -0.238187 3.72139 0
M  V30 10194 N 971.112 -1.45937 0.595003 0
M  V30 10195 C 972.022 -2.34221 -0.133325 0
M  V30 10196 C 973.038 -1.50491 -0.873407 0
M  V30 10197 O 974.214 -1.83328 -0.833828 0
M  V30 10198 C 971.279 -3.27896 -1.12628 0
M  V30 10199 C 970.34 -4.27529 -0.389532 0
M  V30 10200 C 969.573 -5.16729 -1.33519 0
M  V30 10201 O 969.796 -5.09102 -2.57238 0
M  V30 10202 O 968.73 -5.96023 -0.839084 0
M  V30 10203 H 972.556 -2.97877 0.591861 0
M  V30 10204 H 970.141 -1.45113 0.355329 0
M  V30 10205 H 972.023 -3.85654 -1.69851 0
M  V30 10206 H 970.698 -2.6682 -1.83272 0
M  V30 10207 H 969.605 -3.73424 0.224843 0
M  V30 10208 H 970.938 -4.91425 0.276169 0
M  V30 10209 N 972.59 -0.333456 -1.54032 0
M  V30 10210 C 973.538 0.543414 -2.26163 0
M  V30 10211 C 974.532 1.11037 -1.27934 0
M  V30 10212 O 975.738 1.05727 -1.45677 0
M  V30 10213 H 972.113 0.19391 -0.726569 0
M  V30 10214 H 974.084 -0.0871052 -2.98273 0
M  V30 10215 C 972.833 1.68769 -3.03994 0
M  V30 10216 H 972.156 1.26069 -3.79403 0
M  V30 10217 H 973.596 2.27662 -3.57695 0
M  V30 10218 C 972.055 2.61117 -2.12884 0
M  V30 10219 O 972.585 3.63097 -1.71823 0
M  V30 10220 N 970.791 2.29573 -1.7817 0
M  V30 10221 H 970.338 1.46684 -2.11759 0
M  V30 10222 H 970.296 2.91622 -1.1749 0
M  V30 10223 N 974.068 1.57479 -0.061844 0
M  V30 10224 C 974.978 2.15645 0.923826 0
M  V30 10225 C 975.994 1.117 1.33413 0
M  V30 10226 O 977.17 1.4392 1.40887 0
M  V30 10227 C 974.235 2.69857 2.17665 0
M  V30 10228 C 973.296 3.88638 1.8237 0
M  V30 10229 C 972.529 4.40256 3.01679 0
M  V30 10230 O 972.752 3.90908 4.15388 0
M  V30 10231 O 971.686 5.31713 2.82073 0
M  V30 10232 H 975.512 3.0021 0.459094 0
M  V30 10233 H 973.097 1.48534 0.160665 0
M  V30 10234 H 974.979 3.04647 2.9115 0
M  V30 10235 H 973.654 1.88357 2.63255 0
M  V30 10236 H 972.561 3.58719 1.06167 0
M  V30 10237 H 973.894 4.71401 1.4157 0
M  V30 10238 N 975.546 -0.211634 1.56173 0
M  V30 10239 C 976.494 -1.28188 1.94089 0
M  V30 10240 C 977.488 -1.47999 0.824167 0
M  V30 10241 O 978.694 -1.49056 1.00907 0
M  V30 10242 H 975.069 -0.42999 0.616938 0
M  V30 10243 H 977.04 -0.934962 2.83374 0
M  V30 10244 C 975.789 -2.62294 2.28248 0
M  V30 10245 H 975.112 -2.4786 3.13696 0
M  V30 10246 H 976.552 -3.35967 2.58655 0
M  V30 10247 C 975.011 -3.18049 1.11113 0
M  V30 10248 O 975.541 -3.99923 0.377458 0
M  V30 10249 N 973.747 -2.76561 0.892321 0
M  V30 10250 H 973.294 -2.10088 1.49067 0
M  V30 10251 H 973.252 -3.14206 0.110344 0
M  V30 10252 N 977.024 -1.50153 -0.478725 0
M  V30 10253 C 977.971 -1.68458 -1.57767 0
M  V30 10254 C 978.941 -0.5259 -1.57555 0
M  V30 10255 O 980.126 -0.755574 -1.75202 0
M  V30 10256 C 977.266 -1.77772 -2.95789 0
M  V30 10257 C 976.379 -3.05092 -3.05848 0
M  V30 10258 C 975.514 -3.05247 -4.34739 0
M  V30 10259 C 974.553 -4.27053 -4.38512 0
M  V30 10260 N 973.69 -4.24991 -5.58862 0
M  V30 10261 H 978.53 -2.62282 -1.41464 0
M  V30 10262 H 976.067 -1.30023 -0.687921 0
M  V30 10263 H 978.025 -1.81152 -3.75819 0
M  V30 10264 H 976.655 -0.873944 -3.10744 0
M  V30 10265 H 975.707 -3.11219 -2.1874 0
M  V30 10266 H 977.019 -3.95075 -3.04495 0
M  V30 10267 H 976.173 -3.07314 -5.23109 0
M  V30 10268 H 974.912 -2.13081 -4.38689 0
M  V30 10269 H 973.917 -4.25206 -3.4854 0
M  V30 10270 H 975.142 -5.20437 -4.36259 0
M  V30 10271 H 973.088 -3.35674 -5.63612 0
M  V30 10272 H 973.005 -5.08734 -5.59219 0
M  V30 10273 H 974.273 -4.31193 -6.49379 0
M  V30 10274 N 978.502 0.731368 -1.39602 0
M  V30 10275 C 979.727 1.52567 -1.40492 0
M  V30 10276 C 980.152 1.881 -0.00228828 0
M  V30 10277 O 979.51 1.52167 0.985643 0
M  V30 10278 C 979.558 2.78749 -2.2876 0
M  V30 10279 O 978.662 3.7482 -1.71999 0
M  V30 10280 H 978.003 0.460601 -0.478271 0
M  V30 10281 H 980.533 0.902042 -1.83642 0
M  V30 10282 H 980.543 3.27446 -2.43399 0
M  V30 10283 H 979.218 2.5222 -3.30693 0
M  V30 10284 H 977.795 3.33604 -1.66622 0
M  V30 10285 N 979.98 1.24838 0.961938 0
M  V30 10286 C 981.205 1.11967 1.7458 0
M  V30 10287 C 981.63 -0.323287 1.85301 0
M  V30 10288 O 980.988 -1.23412 1.32812 0
M  V30 10289 C 981.036 1.77066 3.14134 0
M  V30 10290 O 980.14 1.04534 3.98932 0
M  V30 10291 H 979.481 0.391338 0.536424 0
M  V30 10292 H 982.011 1.65259 1.20626 0
M  V30 10293 H 982.021 1.83056 3.64629 0
M  V30 10294 H 980.696 2.82052 3.05646 0
M  V30 10295 H 979.273 1.06372 3.57407 0
M  V30 10296 N 981.458 -1.16348 1.06306 0
M  V30 10297 C 982.421 -2.18941 0.678053 0
M  V30 10298 C 983.421 -1.58409 -0.276277 0
M  V30 10299 O 984.611 -1.74101 -0.0586435 0
M  V30 10300 C 981.743 -3.409 -0.00228684 0
M  V30 10301 H 982.936 -2.54516 1.58624 0
M  V30 10302 H 980.489 -1.30625 0.858298 0
M  V30 10303 H 981.224 -3.10881 -0.923212 0
M  V30 10304 H 981.009 -3.86089 0.683949 0
M  V30 10305 H 982.499 -4.16806 -0.257374 0
M  V30 10306 N 982.937 -0.845659 -1.3299 0
M  V30 10307 C 983.9 -0.288905 -2.27372 0
M  V30 10308 C 984.9 0.546263 -1.51237 0
M  V30 10309 O 986.09 0.359072 -1.70459 0
M  V30 10310 C 983.222 0.59224 -3.35716 0
M  V30 10311 H 984.415 -1.12181 -2.78128 0
M  V30 10312 H 981.968 -0.619276 -1.43508 0
M  V30 10313 H 982.703 1.44732 -2.90212 0
M  V30 10314 H 982.488 -0.00543255 -3.921 0
M  V30 10315 H 983.978 0.974848 -4.06062 0
M  V30 10316 N 984.415 1.45619 -0.602734 0
M  V30 10317 C 985.826 1.85814 -0.181636 0
M  V30 10318 C 986.177 1.5037 1.26029 0
M  V30 10319 O 985.302 0.928068 1.95489 0
M  V30 10320 C 985.897 3.37258 -0.322866 0
M  V30 10321 C 984.456 3.76375 0.043504 0
M  V30 10322 C 983.603 2.69585 -0.649561 0
M  V30 10323 H 986.554 1.36489 -0.809721 0
M  V30 10324 H 986.575 3.77874 0.446279 0
M  V30 10325 H 986.087 3.63024 -1.37241 0
M  V30 10326 H 984.188 3.56226 1.09241 0
M  V30 10327 H 984.301 4.77843 -0.346765 0
M  V30 10328 H 982.665 2.54549 -0.087706 0
M  V30 10329 H 983.448 2.98188 -1.70115 0
M  V30 10330 N 985.893 0.34162 1.53853 0
M  V30 10331 C 986.826 -0.559051 2.21246 0
M  V30 10332 C 987.804 -1.10179 1.1958 0
M  V30 10333 O 988.988 -1.16242 1.48392 0
M  V30 10334 C 986.115 -1.7689 2.88838 0
M  V30 10335 C 985.161 -1.3558 4.04377 0
M  V30 10336 S 985.994 -0.377225 5.3417 0
M  V30 10337 C 987.15 -1.59395 6.05264 0
M  V30 10338 H 987.383 0.013373 2.97297 0
M  V30 10339 H 984.916 0.125694 1.53888 0
M  V30 10340 H 986.874 -2.463 3.284 0
M  V30 10341 H 985.535 -2.31254 2.12557 0
M  V30 10342 H 984.728 -2.25781 4.50599 0
M  V30 10343 H 984.33 -0.741197 3.66582 0
M  V30 10344 H 986.622 -2.52872 6.2854 0
M  V30 10345 H 987.565 -1.17356 6.98307 0
M  V30 10346 H 987.973 -1.78913 5.35397 0
M  V30 10347 N 987.371 -1.57444 0.0701946 0
M  V30 10348 C 988.599 -1.97754 -0.608358 0
M  V30 10349 C 989.014 -0.948496 -1.63245 0
M  V30 10350 O 988.371 0.065046 -1.82384 0
M  V30 10351 C 988.422 -3.38142 -1.27836 0
M  V30 10352 O 988.143 -4.37104 -0.295255 0
M  V30 10353 C 989.644 -3.93318 -2.04489 0
M  V30 10354 H 986.864 -0.650398 -0.164997 0
M  V30 10355 H 989.408 -2.04006 0.142124 0
M  V30 10356 H 987.563 -3.32982 -1.97994 0
M  V30 10357 H 987.977 -5.18732 -0.77574 0
M  V30 10358 H 989.451 -4.93774 -2.46762 0
M  V30 10359 H 989.928 -3.29774 -2.90079 0
M  V30 10360 H 990.534 -4.01875 -1.39201 0
M  V30 10361 N 988.849 0.203349 -1.56283 0
M  V30 10362 C 990.265 0.55384 -1.49682 0
M  V30 10363 C 990.465 1.86261 -0.768701 0
M  V30 10364 O 989.521 2.50517 -0.315824 0
M  V30 10365 C 990.834 0.616216 -2.94318 0
M  V30 10366 C 992.382 0.705611 -3.04943 0
M  V30 10367 C 992.857 0.79917 -4.50974 0
M  V30 10368 N 994.348 0.862916 -4.55091 0
M  V30 10369 C 995.083 0.955334 -5.65386 0
M  V30 10370 N 994.579 1.01057 -6.8539 0
M  V30 10371 N 996.372 0.991884 -5.53279 0
M  V30 10372 H 988.523 -0.655244 -2.0204 0
M  V30 10373 H 990.786 -0.232344 -0.919087 0
M  V30 10374 H 990.492 -0.27619 -3.50614 0
M  V30 10375 H 990.366 1.47371 -3.4722 0
M  V30 10376 H 992.753 1.58845 -2.48701 0
M  V30 10377 H 992.834 -0.177921 -2.5518 0
M  V30 10378 H 992.478 -0.0792841 -5.07838 0
M  V30 10379 H 992.408 1.69838 -4.9846 0
M  V30 10380 H 994.899 0.829812 -3.68677 0
M  V30 10381 H 995.212 1.08137 -7.65197 0
M  V30 10382 H 993.557 0.979384 -6.88065 0
M  V30 10383 H 996.748 0.945514 -4.58451 0
M  V30 10384 H 996.921 1.06045 -6.39264 0
M  V30 10385 N 990.327 1.50405 0.470755 0
M  V30 10386 C 991.237 1.7208 1.59454 0
M  V30 10387 C 992.253 0.603932 1.63183 0
M  V30 10388 O 993.429 0.882296 1.81046 0
M  V30 10389 C 990.494 1.81057 2.95667 0
M  V30 10390 C 989.555 3.04792 3.02324 0
M  V30 10391 C 988.788 3.13332 4.3204 0
M  V30 10392 O 989.011 2.28655 5.22564 0
M  V30 10393 O 987.945 4.0606 4.44296 0
M  V30 10394 H 991.771 2.67343 1.44089 0
M  V30 10395 H 989.356 1.34505 0.650286 0
M  V30 10396 H 991.238 1.8914 3.76569 0
M  V30 10397 H 989.913 0.889782 3.11231 0
M  V30 10398 H 988.82 3.0221 2.205 0
M  V30 10399 H 990.153 3.96451 2.91698 0
M  V30 10400 N 991.805 -0.723954 1.39988 0
M  V30 10401 C 993.053 -1.48078 1.3754 0
M  V30 10402 C 993.374 -1.94985 -0.0243358 0
M  V30 10403 O 992.644 -1.69764 -0.977602 0
M  V30 10404 H 991.224 -0.549354 0.506181 0
M  V30 10405 H 993.886 -0.858746 1.74962 0
M  V30 10406 H 992.982 -2.35763 2.04505 0
M  V30 10407 N 993.283 -1.25346 -0.955304 0
M  V30 10408 C 994.246 -1.05754 -2.03344 0
M  V30 10409 C 995.246 -0.0105743 -1.60797 0
M  V30 10410 O 996.436 -0.252699 -1.72357 0
M  V30 10411 C 993.568 -0.605536 -3.35479 0
M  V30 10412 H 994.761 -2.01459 -2.22158 0
M  V30 10413 H 992.314 -1.07744 -1.1323 0
M  V30 10414 H 993.049 0.354154 -3.2236 0
M  V30 10415 H 992.834 -1.36134 -3.67709 0
M  V30 10416 H 994.324 -0.489867 -4.14717 0
M  V30 10417 N 994.761 1.15782 -1.06922 0
M  V30 10418 C 995.691 2.22538 -0.707045 0
M  V30 10419 C 996.672 1.67371 0.303471 0
M  V30 10420 O 997.857 1.9339 0.177189 0
M  V30 10421 C 994.987 3.47158 -0.0994269 0
M  V30 10422 C 993.941 4.15257 -1.03661 0
M  V30 10423 C 993.267 5.33902 -0.291974 0
M  V30 10424 C 994.567 4.65516 -2.36837 0
M  V30 10425 H 996.261 2.53089 -1.59958 0
M  V30 10426 H 993.807 1.21649 -0.770552 0
M  V30 10427 H 995.76 4.21073 0.165852 0
M  V30 10428 H 994.484 3.15926 0.828155 0
M  V30 10429 H 993.143 3.43276 -1.28674 0
M  V30 10430 H 992.791 4.98926 0.638928 0
M  V30 10431 H 992.491 5.80407 -0.916613 0
M  V30 10432 H 994.015 6.1059 -0.0343915 0
M  V30 10433 H 995.429 5.30981 -2.16175 0
M  V30 10434 H 993.826 5.22666 -2.94856 0
M  V30 10435 H 994.896 3.81387 -2.99453 0
M  V30 10436 N 996.239 0.8527 1.3254 0
M  V30 10437 C 997.187 0.284659 2.30852 0
M  V30 10438 C 998.181 -0.5909 1.5876 0
M  V30 10439 O 999.387 -0.478922 1.73512 0
M  V30 10440 H 995.762 0.0733452 0.748415 0
M  V30 10441 H 997.733 1.1281 2.76254 0
M  V30 10442 C 996.482 -0.51379 3.43883 0
M  V30 10443 H 995.805 0.150644 3.99516 0
M  V30 10444 H 997.245 -0.876866 4.14834 0
M  V30 10445 C 995.704 -1.69823 2.90967 0
M  V30 10446 O 996.234 -2.79727 2.88298 0
M  V30 10447 N 994.44 -1.52465 2.47392 0
M  V30 10448 H 993.987 -0.630599 2.49762 0
M  V30 10449 H 993.945 -2.31859 2.12341 0
M  V30 10450 N 997.718 -1.45297 0.610449 0
M  V30 10451 C 998.665 -2.30553 -0.106718 0
M  V30 10452 C 999.635 -1.42272 -0.85719 0
M  V30 10453 O 1000.82 -1.71199 -0.842357 0
M  V30 10454 C 997.96 -3.27226 -1.09623 0
M  V30 10455 C 997.073 -4.3061 -0.346329 0
M  V30 10456 C 996.208 -5.14389 -1.32581 0
M  V30 10457 C 995.247 -6.09497 -0.563892 0
M  V30 10458 N 994.384 -6.86047 -1.4928 0
M  V30 10459 H 999.224 -2.91344 0.626296 0
M  V30 10460 H 996.761 -1.43563 0.32065 0
M  V30 10461 H 998.719 -3.81744 -1.68308 0
M  V30 10462 H 997.349 -2.68182 -1.79662 0
M  V30 10463 H 996.401 -3.7873 0.356084 0
M  V30 10464 H 997.713 -4.98183 0.248026 0
M  V30 10465 H 996.867 -5.73321 -1.98464 0
M  V30 10466 H 995.606 -4.4684 -1.9541 0
M  V30 10467 H 994.611 -5.49693 0.108551 0
M  V30 10468 H 995.836 -6.79074 0.0593872 0
M  V30 10469 H 993.782 -6.21185 -2.10868 0
M  V30 10470 H 993.699 -7.49983 -0.951953 0
M  V30 10471 H 994.967 -7.49518 -2.14112 0
M  V30 10472 N 999.196 -0.349774 -1.5367 0
M  V30 10473 C 1000.13 0.538575 -2.22782 0
M  V30 10474 C 1001.14 1.05896 -1.23652 0
M  V30 10475 O 1002.33 0.968045 -1.4997 0
M  V30 10476 C 999.43 1.7546 -2.89943 0
M  V30 10477 C 998.603 1.36843 -4.15443 0
M  V30 10478 C 997.662 2.4448 -4.65957 0
M  V30 10479 O 996.688 2.07528 -5.3002 0
M  V30 10480 N 997.89 3.75829 -4.42417 0
M  V30 10481 H 1000.65 -0.053348 -2.99653 0
M  V30 10482 H 998.216 -0.174193 -1.6096 0
M  V30 10483 H 1000.21 2.46911 -3.20651 0
M  V30 10484 H 998.778 2.25375 -2.16622 0
M  V30 10485 H 997.998 0.484421 -3.91212 0
M  V30 10486 H 999.286 1.0865 -4.97064 0
M  V30 10487 H 998.684 4.08635 -3.91196 0
M  V30 10488 H 997.241 4.43432 -4.77714 0
M  V30 10489 N 1000.67 1.57404 -0.0785433 0
M  V30 10490 C 1001.9 1.98492 0.601292 0
M  V30 10491 C 1002.32 0.956832 1.61945 0
M  V30 10492 O 1001.68 -0.0767502 1.81137 0
M  V30 10493 C 1001.73 3.38596 1.24036 0
M  V30 10494 O 1000.83 3.38461 2.35622 0
M  V30 10495 H 1000.17 0.645882 0.154054 0
M  V30 10496 H 1002.7 2.04012 -0.155056 0
M  V30 10497 H 1002.71 3.75929 1.5856 0
M  V30 10498 H 1001.39 4.12952 0.494341 0
M  V30 10499 H 999.967 3.12906 2.02841 0
M  V30 10500 N 1002.15 -0.195058 1.56388 0
M  V30 10501 C 1003.08 -1.26581 1.91076 0
M  V30 10502 C 1004.1 -1.41707 0.801436 0
M  V30 10503 O 1005.29 -1.42132 1.07985 0
M  V30 10504 C 1002.39 -2.63794 2.12758 0
M  V30 10505 C 1001.56 -2.70275 3.43904 0
M  V30 10506 C 1000.62 -3.88685 3.54698 0
M  V30 10507 O 999.644 -3.75786 4.2752 0
M  V30 10508 N 1000.85 -5.04141 2.87789 0
M  V30 10509 H 1003.61 -0.971401 2.83521 0
M  V30 10510 H 1001.17 -0.384976 1.57256 0
M  V30 10511 H 1003.16 -3.41434 2.17267 0
M  V30 10512 H 1001.73 -2.85723 1.26812 0
M  V30 10513 H 1000.95 -1.78909 3.51262 0
M  V30 10514 H 1002.24 -2.71597 4.30247 0
M  V30 10515 H 1001.64 -5.17519 2.28452 0
M  V30 10516 H 1000.2 -5.79727 2.97925 0
M  V30 10517 N 1003.63 -1.50653 -0.462772 0
M  V30 10518 C 1004.56 -1.73056 -1.5676 0
M  V30 10519 C 1005.54 -0.579699 -1.59917 0
M  V30 10520 O 1006.73 -0.819729 -1.76051 0
M  V30 10521 C 1003.86 -1.83234 -2.9503 0
M  V30 10522 C 1002.81 -2.98488 -3.06739 0
M  V30 10523 C 1002.14 -2.93818 -4.46738 0
M  V30 10524 C 1003.44 -4.38869 -2.83181 0
M  V30 10525 H 1005.13 -2.65562 -1.38265 0
M  V30 10526 H 1002.68 -1.27792 -0.663722 0
M  V30 10527 H 1004.63 -1.97491 -3.72257 0
M  V30 10528 H 1003.35 -0.873558 -3.14701 0
M  V30 10529 H 1002.01 -2.83895 -2.31946 0
M  V30 10530 H 1001.66 -1.95769 -4.63339 0
M  V30 10531 H 1001.36 -3.71197 -4.55507 0
M  V30 10532 H 1002.88 -3.10135 -5.25974 0
M  V30 10533 H 1004.3 -4.53945 -3.50153 0
M  V30 10534 H 1002.69 -5.17762 -3.03386 0
M  V30 10535 H 1003.76 -4.50663 -1.78972 0
M  V30 10536 N 1005.11 0.71652 -1.4037 0
M  V30 10537 C 1006.35 1.47857 -1.38803 0
M  V30 10538 C 1006.69 1.94197 0.0100536 0
M  V30 10539 O 1005.96 1.68093 0.978521 0
M  V30 10540 C 1006.25 2.7053 -2.37667 0
M  V30 10541 C 1006.1 2.3009 -3.86496 0
M  V30 10542 C 1007.42 3.72684 -2.34082 0
M  V30 10543 H 1004.54 0.53632 -0.505499 0
M  V30 10544 H 1007.18 0.817824 -1.71498 0
M  V30 10545 H 1005.33 3.26906 -2.09916 0
M  V30 10546 H 1007 1.79202 -4.2507 0
M  V30 10547 H 1005.24 1.62102 -4.02375 0
M  V30 10548 H 1005.91 3.18018 -4.51186 0
M  V30 10549 H 1008.39 3.25935 -2.58661 0
M  V30 10550 H 1007.27 4.56157 -3.05306 0
M  V30 10551 H 1007.53 4.20916 -1.35213 0
M  V30 10552 N 1006.59 1.25851 0.948643 0
M  V30 10553 C 1007.83 1.12166 1.70874 0
M  V30 10554 C 1008.19 -0.330734 1.8913 0
M  V30 10555 O 1009.39 -0.58954 2.62255 0
M  V30 10556 C 1007.66 1.86162 3.05088 0
M  V30 10557 S 1009.22 1.88441 3.96277 0
M  V30 10558 H 1006.04 0.400803 0.587263 0
M  V30 10559 H 1008.64 1.59463 1.13101 0
M  V30 10560 H 1007.35 2.90916 2.89476 0
M  V30 10561 H 1006.88 1.39276 3.67921 0
M  V30 10562 H 1008.89 0.96575 4.86711 0
M  V30 10563 N 1008.06 -1.15214 1.07534 0
M  V30 10564 C 1009.48 -1.38031 0.801228 0
M  V30 10565 C 1009.68 -1.92556 -0.593672 0
M  V30 10566 O 1008.74 -2.1325 -1.35206 0
M  V30 10567 C 1010.05 -2.34958 1.87657 0
M  V30 10568 C 1011.6 -2.48617 1.90154 0
M  V30 10569 C 1012.07 -3.48837 2.96777 0
M  V30 10570 N 1013.56 -3.56374 2.95892 0
M  V30 10571 C 1014.3 -4.33746 3.75036 0
M  V30 10572 N 1013.79 -5.14435 4.64036 0
M  V30 10573 N 1015.59 -4.28853 3.63375 0
M  V30 10574 H 1007.74 -0.781639 1.97495 0
M  V30 10575 H 1010 -0.406243 0.856546 0
M  V30 10576 H 1009.71 -2.02013 2.87895 0
M  V30 10577 H 1009.58 -3.3476 1.73827 0
M  V30 10578 H 1011.97 -2.80859 0.905666 0
M  V30 10579 H 1012.05 -1.48808 2.08062 0
M  V30 10580 H 1011.69 -3.1733 3.96565 0
M  V30 10581 H 1011.62 -4.48406 2.76116 0
M  V30 10582 H 1014.11 -2.98784 2.31379 0
M  V30 10583 H 1014.43 -5.70722 5.21053 0
M  V30 10584 H 1012.77 -5.13734 4.68084 0
M  V30 10585 H 1015.96 -3.64882 2.93221 0
M  V30 10586 H 1016.14 -4.88903 4.25298 0
M  V30 10587 N 1009.54 -0.859717 -1.32086 0
M  V30 10588 C 1010.79 -0.464662 -1.96686 0
M  V30 10589 C 1011.11 0.98412 -1.68345 0
M  V30 10590 O 1010.38 1.68847 -0.993361 0
M  V30 10591 H 1008.96 -0.168838 -0.727669 0
M  V30 10592 H 1011.62 -1.09726 -1.61079 0
M  V30 10593 H 1010.72 -0.613904 -3.06003 0
M  V30 10594 N 1011.02 1.44971 -0.618145 0
M  V30 10595 C 1011.93 2.34403 0.0960457 0
M  V30 10596 C 1012.95 1.51862 0.849355 0
M  V30 10597 O 1014.12 1.84632 0.804557 0
M  V30 10598 C 1011.19 3.29646 1.07397 0
M  V30 10599 C 1010.25 4.28095 0.321466 0
M  V30 10600 C 1009.48 5.18787 1.25281 0
M  V30 10601 O 1009.7 5.1313 2.49106 0
M  V30 10602 O 1008.64 5.97282 0.744156 0
M  V30 10603 H 1012.46 2.96898 -0.639176 0
M  V30 10604 H 1010.05 1.44529 -0.37837 0
M  V30 10605 H 1011.93 3.88307 1.63694 0
M  V30 10606 H 1010.61 2.69702 1.79004 0
M  V30 10607 H 1009.51 3.73019 -0.284223 0
M  V30 10608 H 1010.85 4.90923 -0.354315 0
M  V30 10609 N 1012.5 0.357919 1.53482 0
M  V30 10610 C 1013.75 -0.2337 2.00744 0
M  V30 10611 C 1014.07 -1.49908 1.2471 0
M  V30 10612 O 1013.34 -1.92597 0.358235 0
M  V30 10613 H 1011.92 -0.0893474 0.741637 0
M  V30 10614 H 1014.58 0.482388 1.88836 0
M  V30 10615 H 1013.68 -0.466073 3.086 0
M  V30 10616 N 1013.98 -1.5736 0.0868897 0
M  V30 10617 C 1014.92 -2.14793 -0.892571 0
M  V30 10618 C 1015.92 -1.08866 -1.29787 0
M  V30 10619 O 1017.12 -1.27223 -1.27335 0
M  V30 10620 H 1013.5 -0.686998 -0.305838 0
M  V30 10621 H 1015.47 -2.95927 -0.383393 0
M  V30 10622 C 1014.22 -2.73646 -2.14507 0
M  V30 10623 H 1013.54 -3.54835 -1.84207 0
M  V30 10624 H 1014.98 -3.17409 -2.81118 0
M  V30 10625 C 1013.44 -1.69138 -2.91366 0
M  V30 10626 O 1013.97 -1.12539 -3.85614 0
M  V30 10627 N 1012.18 -1.3982 -2.54752 0
M  V30 10628 H 1011.72 -1.86035 -1.78182 0
M  V30 10629 H 1011.68 -0.701316 -3.06478 0
M  V30 10630 N 1015.45 0.186762 -1.56489 0
M  V30 10631 C 1016.39 1.25971 -1.9028 0
M  V30 10632 C 1017.37 1.43543 -0.763822 0
M  V30 10633 O 1018.55 1.58799 -1.01564 0
M  V30 10634 C 1015.68 2.62507 -2.14028 0
M  V30 10635 C 1014.72 2.61758 -3.36727 0
M  V30 10636 S 1015.56 2.12366 -4.9159 0
M  V30 10637 C 1016.71 3.5071 -5.18414 0
M  V30 10638 H 1016.94 0.971203 -2.80989 0
M  V30 10639 H 1014.48 0.390636 -1.49377 0
M  V30 10640 H 1016.44 3.41098 -2.28391 0
M  V30 10641 H 1015.1 2.88564 -1.24054 0
M  V30 10642 H 1014.29 3.62173 -3.50495 0
M  V30 10643 H 1013.89 1.91254 -3.214 0
M  V30 10644 H 1016.18 4.46622 -5.09445 0
M  V30 10645 H 1017.13 3.41829 -6.20128 0
M  V30 10646 H 1017.53 3.46008 -4.46026 0
M  V30 10647 N 1016.93 1.50896 0.454776 0
M  V30 10648 C 1017.88 1.71497 1.57136 0
M  V30 10649 C 1018.87 0.58098 1.59126 0
M  V30 10650 O 1020.08 0.761916 1.63079 0
M  V30 10651 H 1016.46 0.54158 0.521724 0
M  V30 10652 H 1018.43 2.65129 1.36928 0
M  V30 10653 C 1017.18 1.84125 2.94947 0
M  V30 10654 H 1016.5 2.7078 2.9414 0
M  V30 10655 H 1017.94 2.02558 3.72487 0
M  V30 10656 C 1016.4 0.596752 3.31573 0
M  V30 10657 O 1016.93 -0.256632 4.00879 0
M  V30 10658 N 1015.13 0.445958 2.87158 0
M  V30 10659 H 1014.68 1.14146 2.30929 0
M  V30 10660 H 1014.64 -0.385519 3.12027 0
M  V30 10661 N 1018.41 -0.709066 1.40748 0
M  V30 10662 C 1019.37 -1.80485 1.41272 0
M  V30 10663 C 1020.37 -1.57872 0.305463 0
M  V30 10664 O 1021.56 -1.64793 0.564691 0
M  V30 10665 C 1018.7 -3.1867 1.21087 0
M  V30 10666 H 1019.89 -1.81417 2.38805 0
M  V30 10667 H 1017.44 -0.915356 1.26692 0
M  V30 10668 H 1018.18 -3.23385 0.243406 0
M  V30 10669 H 1017.96 -3.36484 2.01299 0
M  V30 10670 H 1019.45 -3.98685 1.24257 0
M  V30 10671 N 1019.89 -1.26353 -0.941956 0
M  V30 10672 C 1021.17 -1.02601 -1.6653 0
M  V30 10673 C 1021.55 0.44381 -2.06382 0
M  V30 10674 O 1020.89 1.42399 -1.78703 0
M  V30 10675 C 1021.1 -1.97401 -2.87809 0
M  V30 10676 C 1022.45 -2.25967 -3.59478 0
M  V30 10677 O 1023.48 -1.95261 -2.97912 0
M  V30 10678 O 1022.34 -2.78244 -4.70364 0
M  V30 10679 H 1019.43 -0.39007 -0.729228 0
M  V30 10680 H 1021.98 -1.37559 -0.993754 0
M  V30 10681 H 1020.75 -2.9659 -2.55245 0
M  V30 10682 H 1020.37 -1.62918 -3.62689 0
M  V30 10683 N 1021.37 1.14642 -1.08144 0
M  V30 10684 C 1022.61 1.86115 -0.820533 0
M  V30 10685 C 1022.97 1.81208 0.646635 0
M  V30 10686 O 1022.26 1.22997 1.46909 0
M  V30 10687 C 1022.46 3.33953 -1.2732 0
M  V30 10688 C 1022.28 3.53254 -2.78283 0
M  V30 10689 C 1021.05 3.68259 -3.45996 0
M  V30 10690 C 1023.25 3.504 -3.76463 0
M  V30 10691 N 1021.23 3.75692 -4.85519 0
M  V30 10692 C 1022.61 3.64045 -5.01868 0
M  V30 10693 C 1024.66 3.33722 -3.69505 0
M  V30 10694 C 1023.36 3.62734 -6.21141 0
M  V30 10695 C 1025.39 3.33713 -4.88251 0
M  V30 10696 C 1024.75 3.47896 -6.12493 0
M  V30 10697 H 1020.85 0.697829 -0.352929 0
M  V30 10698 H 1023.43 1.3742 -1.37927 0
M  V30 10699 H 1021.61 3.81245 -0.742066 0
M  V30 10700 H 1023.34 3.93174 -0.958991 0
M  V30 10701 H 1020.09 3.69376 -2.96409 0
M  V30 10702 H 1020.52 3.83133 -5.58156 0
M  V30 10703 H 1025.16 3.2167 -2.74387 0
M  V30 10704 H 1022.88 3.73563 -7.16573 0
M  V30 10705 H 1026.46 3.22025 -4.84553 0
M  V30 10706 H 1025.34 3.47833 -7.02838 0
M  V30 10707 N 1022.85 0.866709 1.31628 0
M  V30 10708 C 1023.81 0.325041 2.26883 0
M  V30 10709 C 1024.81 -0.522133 1.52087 0
M  V30 10710 O 1026 -0.331908 1.71009 0
M  V30 10711 C 1023.13 -0.538756 3.36616 0
M  V30 10712 H 1024.32 1.16592 2.76308 0
M  V30 10713 H 1021.88 0.642029 1.42505 0
M  V30 10714 H 1022.61 -1.40096 2.92478 0
M  V30 10715 H 1022.4 0.0678115 3.92041 0
M  V30 10716 H 1023.89 -0.910123 4.07562 0
M  V30 10717 N 1024.32 -1.44642 0.625825 0
M  V30 10718 C 1025.6 -1.9551 0.0593587 0
M  V30 10719 C 1025.98 -1.56792 -1.41349 0
M  V30 10720 O 1025.33 -0.839373 -2.12525 0
M  V30 10721 C 1025.54 -3.47902 0.276647 0
M  V30 10722 C 1026.89 -4.24271 0.167044 0
M  V30 10723 O 1027.91 -3.55594 0.207731 0
M  V30 10724 O 1026.77 -5.46458 0.0675 0
M  V30 10725 H 1023.86 -0.826612 -0.0253422 0
M  V30 10726 H 1026.41 -1.54718 0.697159 0
M  V30 10727 H 1025.18 -3.69115 1.29885 0
M  V30 10728 H 1024.8 -3.95628 -0.395547 0
M  V30 10729 N 1025.8 -0.366053 -1.5329 0
M  V30 10730 C 1026.76 0.467904 -2.24373 0
M  V30 10731 C 1027.76 1.00934 -1.25176 0
M  V30 10732 O 1028.95 0.895015 -1.49449 0
M  V30 10733 C 1026.09 1.65405 -2.98084 0
M  V30 10734 H 1027.28 -0.154105 -2.99504 0
M  V30 10735 H 1024.83 -0.117751 -1.55856 0
M  V30 10736 H 1025.57 2.31413 -2.27197 0
M  V30 10737 H 1025.35 1.27277 -3.70868 0
M  V30 10738 H 1026.84 2.24503 -3.52119 0
M  V30 10739 N 1027.28 1.57312 -0.0952337 0
M  V30 10740 C 1028.53 1.93974 0.567319 0
M  V30 10741 C 1028.85 0.977805 1.68713 0
M  V30 10742 O 1028.12 0.0298944 1.95877 0
M  V30 10743 H 1026.7 0.71612 0.212558 0
M  V30 10744 H 1029.36 1.94254 -0.158598 0
M  V30 10745 H 1028.46 2.964 0.977423 0
M  V30 10746 N 1028.76 -0.17846 1.56586 0
M  V30 10747 C 1030.01 -0.894464 1.81228 0
M  V30 10748 C 1030.33 -1.83089 0.671062 0
M  V30 10749 O 1029.6 -1.93439 -0.309557 0
M  V30 10750 H 1028.18 -0.333288 0.668527 0
M  V30 10751 H 1030.84 -0.179986 1.94067 0
M  V30 10752 H 1029.93 -1.47565 2.75011 0
M  V30 10753 N 1030.24 -1.51135 -0.446768 0
M  V30 10754 C 1031.48 -1.63013 -1.19461 0
M  V30 10755 C 1031.8 -0.344067 -1.91941 0
M  V30 10756 O 1031.07 0.639666 -1.85162 0
M  V30 10757 H 1029.65 -0.600757 -0.443959 0
M  V30 10758 H 1032.32 -1.88024 -0.513137 0
M  V30 10759 H 1031.41 -2.45322 -1.92933 0
M  V30 10760 N 1031.71 0.701592 -1.41122 0
M  V30 10761 C 1032.96 1.4616 -1.40155 0
M  V30 10762 C 1033.29 1.94498 -0.00861553 0
M  V30 10763 O 1032.54 1.69484 0.978452 0
M  V30 10764 C 1032.84 2.693 -2.34973 0
M  V30 10765 C 1032.51 2.39652 -3.81939 0
M  V30 10766 C 1031.17 2.31277 -4.21977 0
M  V30 10767 C 1033.52 2.15076 -4.74755 0
M  V30 10768 C 1030.85 1.96413 -5.52846 0
M  V30 10769 C 1033.2 1.81722 -6.05937 0
M  V30 10770 C 1031.87 1.71838 -6.45002 0
M  V30 10771 H 1031.14 0.534837 -0.512865 0
M  V30 10772 H 1033.78 0.802425 -1.73878 0
M  V30 10773 H 1032.09 3.40123 -1.94484 0
M  V30 10774 H 1033.79 3.27427 -2.31501 0
M  V30 10775 H 1030.38 2.47063 -3.50226 0
M  V30 10776 H 1034.56 2.20495 -4.4463 0
M  V30 10777 H 1029.82 1.87308 -5.82001 0
M  V30 10778 H 1033.99 1.61723 -6.77362 0
M  V30 10779 H 1031.62 1.44591 -7.46323 0
M  V30 10780 N 1033.19 1.2685 0.935242 0
M  V30 10781 C 1034.61 1.04091 1.20984 0
M  V30 10782 C 1034.81 -0.230242 2.0018 0
M  V30 10783 O 1033.86 -0.93778 2.3444 0
M  V30 10784 C 1035.18 2.27586 1.96533 0
M  V30 10785 C 1036.72 2.32547 2.09501 0
M  V30 10786 C 1037.2 3.55751 2.88454 0
M  V30 10787 N 1038.69 3.56263 2.96025 0
M  V30 10788 C 1039.43 4.48262 3.57559 0
M  V30 10789 N 1038.92 5.50557 4.20546 0
M  V30 10790 N 1040.71 4.35901 3.5489 0
M  V30 10791 H 1032.87 2.08484 0.405954 0
M  V30 10792 H 1035.13 0.916548 0.242164 0
M  V30 10793 H 1034.83 3.20076 1.45753 0
M  V30 10794 H 1034.71 2.32305 2.97177 0
M  V30 10795 H 1037.1 1.40568 2.5947 0
M  V30 10796 H 1037.18 2.31836 1.08101 0
M  V30 10797 H 1036.82 4.48063 2.3917 0
M  V30 10798 H 1036.75 3.53711 3.90123 0
M  V30 10799 H 1039.24 2.82278 2.51252 0
M  V30 10800 H 1039.55 6.16935 4.65415 0
M  V30 10801 H 1037.9 5.54407 4.19115 0
M  V30 10802 H 1041.09 3.552 3.04879 0
M  V30 10803 H 1041.26 5.07792 4.02557 0
M  V30 10804 N 1034.67 -1.14067 1.0875 0
M  V30 10805 C 1035.62 -2.21332 0.715195 0
M  V30 10806 C 1036.61 -1.67059 -0.280679 0
M  V30 10807 O 1037.82 -1.79432 -0.142874 0
M  V30 10808 H 1034.19 -0.721126 0.213264 0
M  V30 10809 H 1036.16 -2.50002 1.62916 0
M  V30 10810 C 1034.91 -3.474 0.144401 0
M  V30 10811 H 1034.24 -3.89495 0.901884 0
M  V30 10812 H 1035.68 -4.23928 -0.0782564 0
M  V30 10813 C 1034.14 -3.17787 -1.11862 0
M  V30 10814 O 1034.67 -3.35906 -2.20295 0
M  V30 10815 N 1032.87 -2.71719 -1.03039 0
M  V30 10816 H 1032.42 -2.57175 -0.14793 0
M  V30 10817 H 1032.38 -2.52281 -1.87621 0
M  V30 10818 N 1036.15 -0.873678 -1.31166 0
M  V30 10819 C 1037.4 -0.485497 -1.96182 0
M  V30 10820 C 1037.72 0.96621 -1.69379 0
M  V30 10821 O 1036.99 1.67783 -1.01121 0
M  V30 10822 H 1035.57 -0.176547 -0.725838 0
M  V30 10823 H 1038.23 -1.11428 -1.59906 0
M  V30 10824 H 1037.33 -0.646325 -3.05334 0
M  V30 10825 N 1037.63 1.44308 -0.633487 0
M  V30 10826 C 1038.57 2.30694 0.0700257 0
M  V30 10827 C 1039.54 1.43618 0.834447 0
M  V30 10828 O 1040.73 1.72517 0.815014 0
M  V30 10829 C 1037.87 3.28929 1.04403 0
M  V30 10830 C 1036.98 4.31106 0.277779 0
M  V30 10831 C 1036.12 5.16433 1.24381 0
M  V30 10832 C 1035.16 6.10317 0.466855 0
M  V30 10833 N 1034.29 6.88335 1.38347 0
M  V30 10834 H 1039.13 2.90311 -0.672567 0
M  V30 10835 H 1036.67 1.43034 -0.343449 0
M  V30 10836 H 1038.63 3.84373 1.62214 0
M  V30 10837 H 1037.26 2.71006 1.75372 0
M  V30 10838 H 1036.31 3.78115 -0.416292 0
M  V30 10839 H 1037.62 4.97725 -0.327251 0
M  V30 10840 H 1036.78 5.76406 1.89318 0
M  V30 10841 H 1035.51 4.49893 1.88276 0
M  V30 10842 H 1034.52 5.49451 -0.195989 0
M  V30 10843 H 1035.74 6.78894 -0.167414 0
M  V30 10844 H 1033.69 6.24461 2.00959 0
M  V30 10845 H 1033.61 7.51402 0.832517 0
M  V30 10846 H 1034.88 7.52829 2.0216 0
M  V30 10847 N 1039.1 0.374177 1.53094 0
M  V30 10848 C 1040.38 -0.269632 1.93733 0
M  V30 10849 C 1040.76 -1.6566 1.30843 0
M  V30 10850 O 1040.11 -2.23598 0.470759 0
M  V30 10851 C 1040.32 -0.311204 3.4761 0
M  V30 10852 C 1041.67 -0.547432 4.21056 0
M  V30 10853 O 1042.69 -0.392053 3.54036 0
M  V30 10854 O 1041.55 -0.850645 5.39839 0
M  V30 10855 H 1038.64 -0.163723 0.810632 0
M  V30 10856 H 1041.19 0.427586 1.64225 0
M  V30 10857 H 1039.96 0.660897 3.85678 0
M  V30 10858 H 1039.59 -1.05397 3.83376 0
M  V30 10859 N 1040.58 -1.57259 0.103575 0
M  V30 10860 C 1041.83 -1.94945 -0.558953 0
M  V30 10861 C 1042.16 -0.986038 -1.67305 0
M  V30 10862 O 1041.44 -0.0205464 -1.94489 0
M  V30 10863 C 1041.72 -3.42689 -1.10617 0
M  V30 10864 C 1041.57 -4.498 0.00345246 0
M  V30 10865 C 1042.89 -3.91933 -2.00191 0
M  V30 10866 H 1040.01 -0.708859 -0.201713 0
M  V30 10867 H 1042.65 -1.89183 0.176006 0
M  V30 10868 H 1040.8 -3.4773 -1.73251 0
M  V30 10869 H 1042.47 -4.56866 0.638082 0
M  V30 10870 H 1040.72 -4.28615 0.668705 0
M  V30 10871 H 1041.39 -5.50397 -0.420396 0
M  V30 10872 H 1043.86 -3.89098 -1.4745 0
M  V30 10873 H 1042.74 -4.9586 -2.35402 0
M  V30 10874 H 1043 -3.31722 -2.92255 0
M  V30 10875 N 1042.06 0.170153 -1.56679 0
M  V30 10876 C 1043.48 0.521966 -1.50823 0
M  V30 10877 C 1043.68 1.84589 -0.808037 0
M  V30 10878 O 1042.73 2.49791 -0.368891 0
M  V30 10879 C 1044.05 0.553648 -2.95559 0
M  V30 10880 C 1045.59 0.640769 -3.06371 0
M  V30 10881 C 1046.07 0.703332 -4.52567 0
M  V30 10882 N 1047.56 0.76619 -4.56819 0
M  V30 10883 C 1048.29 0.835192 -5.67285 0
M  V30 10884 N 1047.79 0.864957 -6.87379 0
M  V30 10885 N 1049.58 0.874302 -5.55259 0
M  V30 10886 H 1041.73 -0.697952 -2.00605 0
M  V30 10887 H 1044 -0.251787 -0.913952 0
M  V30 10888 H 1043.7 -0.350498 -3.49949 0
M  V30 10889 H 1043.58 1.39973 -3.50268 0
M  V30 10890 H 1045.96 1.53534 -2.52015 0
M  V30 10891 H 1046.05 -0.232008 -2.54746 0
M  V30 10892 H 1045.69 -0.186986 -5.07556 0
M  V30 10893 H 1045.62 1.59227 -5.0195 0
M  V30 10894 H 1048.11 0.751424 -3.70354 0
M  V30 10895 H 1048.42 0.918814 -7.67318 0
M  V30 10896 H 1046.77 0.833215 -6.89987 0
M  V30 10897 H 1049.96 0.848057 -4.60354 0
M  V30 10898 H 1050.13 0.924615 -6.4137 0
M  V30 10899 N 1043.54 1.5137 0.438746 0
M  V30 10900 C 1044.82 1.54508 1.19944 0
M  V30 10901 C 1045.2 0.308525 2.08833 0
M  V30 10902 O 1044.54 -0.706461 2.17305 0
M  V30 10903 C 1044.75 2.85833 2.00251 0
M  V30 10904 C 1046.1 3.37729 2.5734 0
M  V30 10905 O 1047.13 2.87374 2.10463 0
M  V30 10906 O 1045.98 4.25589 3.42836 0
M  V30 10907 H 1043.08 0.621132 0.546007 0
M  V30 10908 H 1045.62 1.63682 0.447931 0
M  V30 10909 H 1044.4 3.67291 1.34955 0
M  V30 10910 H 1044.02 2.79815 2.8247 0
M  V30 10911 N 1045.02 -0.694098 1.41492 0
M  V30 10912 C 1045.95 -1.82042 1.46229 0
M  V30 10913 C 1046.93 -1.67047 0.320803 0
M  V30 10914 O 1048.11 -1.86758 0.53245 0
M  V30 10915 C 1045.24 -3.2019 1.34519 0
M  V30 10916 C 1044.2 -3.49892 2.46495 0
M  V30 10917 C 1043.52 -4.87411 2.1985 0
M  V30 10918 C 1044.82 -3.4872 3.88834 0
M  V30 10919 H 1046.52 -1.78335 2.40493 0
M  V30 10920 H 1044.06 -0.856566 1.15754 0
M  V30 10921 H 1046.02 -3.98699 1.36445 0
M  V30 10922 H 1044.74 -3.24527 0.367406 0
M  V30 10923 H 1043.4 -2.73734 2.43854 0
M  V30 10924 H 1043.05 -4.88375 1.20411 0
M  V30 10925 H 1042.75 -5.08248 2.94885 0
M  V30 10926 H 1044.27 -5.68228 2.23494 0
M  V30 10927 H 1045.68 -4.1723 3.93182 0
M  V30 10928 H 1044.08 -3.81089 4.63564 0
M  V30 10929 H 1045.15 -2.47665 4.16881 0
M  V30 10930 N 1046.49 -1.27344 -0.928501 0
M  V30 10931 C 1047.43 -1.05797 -2.03322 0
M  V30 10932 C 1048.44 -0.0143086 -1.62794 0
M  V30 10933 O 1049.63 -0.25578 -1.76658 0
M  V30 10934 C 1046.73 -0.582673 -3.33853 0
M  V30 10935 C 1045.9 -1.69844 -4.03078 0
M  V30 10936 C 1044.96 -1.21902 -5.11885 0
M  V30 10937 O 1043.99 -1.91853 -5.35893 0
M  V30 10938 N 1045.19 -0.0742392 -5.80453 0
M  V30 10939 H 1047.95 -2.00928 -2.22369 0
M  V30 10940 H 1045.51 -1.189 -1.09883 0
M  V30 10941 H 1047.51 -0.245862 -4.03952 0
M  V30 10942 H 1046.08 0.27539 -3.11385 0
M  V30 10943 H 1045.3 -2.20557 -3.26723 0
M  V30 10944 H 1046.58 -2.4473 -4.46077 0
M  V30 10945 H 1045.98 0.509631 -5.634 0
M  V30 10946 H 1044.54 0.203399 -6.51483 0
M  V30 10947 N 1047.97 1.13488 -1.09353 0
M  V30 10948 C 1049.25 1.80998 -0.741559 0
M  V30 10949 C 1049.63 1.96418 0.773505 0
M  V30 10950 O 1048.98 1.53168 1.69563 0
M  V30 10951 C 1049.19 3.16078 -1.47972 0
M  V30 10952 C 1050.54 3.91438 -1.64504 0
M  V30 10953 O 1051.56 3.25699 -1.44218 0
M  V30 10954 O 1050.42 5.0935 -1.98054 0
M  V30 10955 H 1047.51 0.782953 -0.266297 0
M  V30 10956 H 1050.06 1.20422 -1.19569 0
M  V30 10957 H 1048.83 3.00076 -2.51137 0
M  V30 10958 H 1048.45 3.84354 -1.01772 0
M  V30 10959 N 1049.45 0.880621 1.30701 0
M  V30 10960 C 1050.7 0.497611 1.966 0
M  V30 10961 C 1051.03 -0.949901 1.69383 0
M  V30 10962 O 1050.31 -1.67054 0.996152 0
M  V30 10963 C 1050.59 0.767919 3.51817 0
M  V30 10964 C 1050.44 2.26574 3.88567 0
M  V30 10965 C 1051.76 0.241502 4.39437 0
M  V30 10966 H 1048.88 0.182267 0.714106 0
M  V30 10967 H 1051.52 1.10382 1.54648 0
M  V30 10968 H 1049.67 0.251967 3.87682 0
M  V30 10969 H 1051.34 2.84977 3.62748 0
M  V30 10970 H 1049.59 2.73411 3.36792 0
M  V30 10971 H 1050.26 2.40549 4.9683 0
M  V30 10972 H 1052.73 0.683051 4.10455 0
M  V30 10973 H 1051.61 0.459997 5.46969 0
M  V30 10974 H 1051.87 -0.857068 4.33713 0
M  V30 10975 N 1050.93 -1.4397 0.641131 0
M  V30 10976 C 1052.15 -2.06818 0.155318 0
M  V30 10977 C 1052.58 -1.47665 -1.16519 0
M  V30 10978 O 1051.94 -0.58192 -1.71707 0
M  V30 10979 C 1051.99 -3.60542 0.0647537 0
M  V30 10980 O 1051.09 -4.00674 -0.976447 0
M  V30 10981 H 1050.43 -0.657962 0.0893404 0
M  V30 10982 H 1052.96 -1.84678 0.88064 0
M  V30 10983 H 1052.97 -4.07816 -0.122552 0
M  V30 10984 H 1051.65 -4.02975 1.02878 0
M  V30 10985 H 1050.22 -3.65013 -0.762905 0
M  V30 10986 N 1052.41 -0.382291 -1.52893 0
M  V30 10987 C 1053.34 0.500194 -2.22651 0
M  V30 10988 C 1054.32 1.06969 -1.22459 0
M  V30 10989 O 1055.5 1.12267 -1.51422 0
M  V30 10990 C 1052.63 1.6917 -2.93427 0
M  V30 10991 C 1051.68 1.24811 -4.07829 0
M  V30 10992 S 1052.51 0.235466 -5.34982 0
M  V30 10993 C 1053.66 1.43292 -6.09277 0
M  V30 10994 H 1053.9 -0.0921913 -2.97157 0
M  V30 10995 H 1051.43 -0.16645 -1.535 0
M  V30 10996 H 1053.39 2.37507 -3.34815 0
M  V30 10997 H 1052.05 2.25537 -2.18613 0
M  V30 10998 H 1051.24 2.13754 -4.56426 0
M  V30 10999 H 1050.84 0.643744 -3.68418 0
M  V30 11000 H 1053.14 2.36118 -6.35023 0
M  V30 11001 H 1054.08 0.988003 -7.01173 0
M  V30 11002 H 1054.49 1.64655 -5.39953 0
M  V30 11003 N 1053.89 1.57202 -0.111913 0
M  V30 11004 C 1055.16 1.86459 0.590972 0
M  V30 11005 C 1055.54 1.01182 1.85271 0
M  V30 11006 O 1054.89 0.0887891 2.28327 0
M  V30 11007 C 1055.1 3.37455 0.890225 0
M  V30 11008 C 1056.45 4.05895 1.24638 0
M  V30 11009 O 1057.47 3.42433 0.980713 0
M  V30 11010 O 1056.33 5.17903 1.74466 0
M  V30 11011 H 1053.43 0.771652 0.297459 0
M  V30 11012 H 1055.97 1.69072 -0.145882 0
M  V30 11013 H 1054.74 3.913 -0.00419012 0
M  V30 11014 H 1054.37 3.60248 1.68248 0
M  V30 11015 N 1055.36 -0.161842 1.56767 0
M  V30 11016 C 1056.31 -1.20506 1.93552 0
M  V30 11017 C 1057.3 -1.39317 0.804952 0
M  V30 11018 O 1058.49 -1.41129 1.06825 0
M  V30 11019 C 1055.62 -2.54227 2.30702 0
M  V30 11020 C 1054.7 -2.3907 3.50295 0
M  V30 11021 N 1055.1 -1.93642 4.67265 0
M  V30 11022 C 1053.39 -2.69868 3.55088 0
M  V30 11023 C 1054.09 -1.91175 5.49388 0
M  V30 11024 N 1053.07 -2.33935 4.90689 0
M  V30 11025 H 1056.87 -0.845687 2.8147 0
M  V30 11026 H 1054.39 -0.370034 1.58128 0
M  V30 11027 H 1056.38 -3.29623 2.55254 0
M  V30 11028 H 1055.04 -2.90959 1.44128 0
M  V30 11029 H 1056.05 -1.63834 4.91303 0
M  V30 11030 H 1052.73 -3.10574 2.79016 0
M  V30 11031 H 1054.12 -1.57671 6.53138 0
M  V30 11032 N 1056.84 -1.516 -0.430713 0
M  V30 11033 C 1057.77 -1.76342 -1.53054 0
M  V30 11034 C 1058.75 -0.61349 -1.58652 0
M  V30 11035 O 1059.94 -0.856888 -1.74273 0
M  V30 11036 C 1057.07 -1.8945 -2.91077 0
M  V30 11037 C 1056.02 -3.04928 -3.00339 0
M  V30 11038 C 1055.35 -3.03228 -4.40405 0
M  V30 11039 C 1056.65 -4.44777 -2.73808 0
M  V30 11040 H 1058.34 -2.68435 -1.326 0
M  V30 11041 H 1055.89 -1.29171 -0.636466 0
M  V30 11042 H 1057.84 -2.05343 -3.67984 0
M  V30 11043 H 1056.56 -0.940114 -3.12777 0
M  V30 11044 H 1055.22 -2.88751 -2.25872 0
M  V30 11045 H 1054.87 -2.05553 -4.59083 0
M  V30 11046 H 1054.57 -3.80776 -4.47531 0
M  V30 11047 H 1056.1 -3.21222 -5.19277 0
M  V30 11048 H 1057.51 -4.6127 -3.40445 0
M  V30 11049 H 1055.91 -5.2408 -2.92335 0
M  V30 11050 H 1056.98 -4.54358 -1.69372 0
M  V30 11051 N 1058.32 0.686584 -1.41858 0
M  V30 11052 C 1059.57 1.44879 -1.41908 0
M  V30 11053 C 1059.9 1.94175 -0.0311408 0
M  V30 11054 O 1059.17 1.70131 0.942646 0
M  V30 11055 C 1059.46 2.65428 -2.43352 0
M  V30 11056 C 1059.31 2.2184 -3.91289 0
M  V30 11057 C 1060.63 3.67635 -2.41934 0
M  V30 11058 H 1057.75 0.525477 -0.516762 0
M  V30 11059 H 1060.39 0.781263 -1.73194 0
M  V30 11060 H 1058.54 3.2238 -2.16803 0
M  V30 11061 H 1060.21 1.70146 -4.28775 0
M  V30 11062 H 1058.45 1.53531 -4.05722 0
M  V30 11063 H 1059.13 3.08376 -4.5783 0
M  V30 11064 H 1061.6 3.20376 -2.65516 0
M  V30 11065 H 1060.48 4.49579 -3.14913 0
M  V30 11066 H 1060.74 4.17953 -1.44111 0
M  V30 11067 N 1059.8 1.27835 0.921735 0
M  V30 11068 C 1061.02 1.17465 1.70929 0
M  V30 11069 C 1061.45 -0.264171 1.86236 0
M  V30 11070 O 1060.81 -1.19124 1.36671 0
M  V30 11071 C 1060.85 1.8697 3.08342 0
M  V30 11072 O 1059.96 1.17173 3.95404 0
M  V30 11073 H 1059.3 0.408206 0.523702 0
M  V30 11074 H 1061.83 1.69013 1.15307 0
M  V30 11075 H 1061.84 1.94564 3.58621 0
M  V30 11076 H 1060.51 2.91633 2.96518 0
M  V30 11077 H 1059.09 1.17688 3.53842 0
M  V30 11078 N 1061.28 -1.12907 1.09954 0
M  V30 11079 C 1062.5 -1.88679 0.861099 0
M  V30 11080 C 1062.93 -1.78853 -0.582499 0
M  V30 11081 O 1062.28 -1.13992 -1.4098 0
M  V30 11082 C 1062.33 -3.36047 1.30785 0
M  V30 11083 O 1061.44 -4.09716 0.469728 0
M  V30 11084 H 1060.78 -0.586447 0.31141 0
M  V30 11085 H 1063.31 -1.42818 1.46507 0
M  V30 11086 H 1063.32 -3.86882 1.29562 0
M  V30 11087 H 1061.99 -3.42516 2.35914 0
M  V30 11088 H 1060.57 -3.6887 0.54674 0
M  V30 11089 N 1062.75 -0.88754 -1.30232 0
M  V30 11090 C 1063.7 -0.354497 -2.28061 0
M  V30 11091 C 1064.67 0.556732 -1.56492 0
M  V30 11092 O 1065.86 0.484597 -1.84543 0
M  V30 11093 C 1063 0.422701 -3.42501 0
M  V30 11094 C 1062.11 -0.518036 -4.28883 0
M  V30 11095 C 1061.24 0.275011 -5.30488 0
M  V30 11096 C 1060.28 -0.661032 -6.0852 0
M  V30 11097 N 1059.42 0.0968509 -7.02033 0
M  V30 11098 H 1064.26 -1.19388 -2.73039 0
M  V30 11099 H 1061.8 -0.600091 -1.34303 0
M  V30 11100 H 1063.75 0.889249 -4.07613 0
M  V30 11101 H 1062.38 1.22664 -2.98586 0
M  V30 11102 H 1061.44 -1.10308 -3.64055 0
M  V30 11103 H 1062.75 -1.23504 -4.83268 0
M  V30 11104 H 1061.9 0.803301 -6.01358 0
M  V30 11105 H 1060.64 1.02522 -4.76802 0
M  V30 11106 H 1059.65 -1.20093 -5.36524 0
M  V30 11107 H 1060.87 -1.41037 -6.64293 0
M  V30 11108 H 1058.82 0.829548 -6.50734 0
M  V30 11109 H 1058.73 -0.560476 -7.5392 0
M  V30 11110 H 1060 0.6058 -7.77142 0
M  V30 11111 N 1064.23 1.43628 -0.648757 0
M  V30 11112 C 1065.46 2.06217 -0.167945 0
M  V30 11113 C 1065.88 1.486 1.16462 0
M  V30 11114 O 1065.23 0.61559 1.71804 0
M  V30 11115 C 1065.28 3.6144 -0.0660114 0
M  V30 11116 O 1065 4.16914 -1.34589 0
M  V30 11117 C 1066.51 4.41097 0.441408 0
M  V30 11118 H 1063.73 0.665228 -0.0878237 0
M  V30 11119 H 1066.27 1.84207 -0.888144 0
M  V30 11120 H 1064.42 3.82651 0.604722 0
M  V30 11121 H 1064.84 5.10537 -1.20218 0
M  V30 11122 H 1066.31 5.50066 0.461697 0
M  V30 11123 H 1066.79 4.13803 1.47187 0
M  V30 11124 H 1067.4 4.24845 -0.19668 0
M  V30 11125 N 1065.71 0.390394 1.52688 0
M  V30 11126 C 1066.96 -0.191729 2.01892 0
M  V30 11127 C 1067.29 -1.4637 1.27631 0
M  V30 11128 O 1066.56 -1.90809 0.377094 0
M  V30 11129 C 1066.85 -0.458535 3.57169 0
M  V30 11130 C 1066.7 0.828796 4.42098 0
M  V30 11131 C 1068.02 -1.2487 4.22014 0
M  V30 11132 H 1065.14 -0.0682091 0.733837 0
M  V30 11133 H 1067.78 0.520176 1.82741 0
M  V30 11134 H 1065.93 -1.06498 3.73618 0
M  V30 11135 H 1067.6 1.46562 4.37398 0
M  V30 11136 H 1065.85 1.44388 4.09066 0
M  V30 11137 H 1066.52 0.596746 5.48765 0
M  V30 11138 H 1068.99 -0.735452 4.09549 0
M  V30 11139 H 1067.87 -1.40412 5.30637 0
M  V30 11140 H 1068.13 -2.2642 3.79719 0
M  V30 11141 N 1067.19 -1.57141 0.120249 0
M  V30 11142 C 1068.1 -2.18925 -0.843155 0
M  V30 11143 C 1069.11 -1.16575 -1.29175 0
M  V30 11144 O 1070.29 -1.4905 -1.35448 0
M  V30 11145 C 1067.36 -2.7775 -2.075 0
M  V30 11146 C 1066.42 -3.95139 -1.6782 0
M  V30 11147 C 1065.65 -4.51149 -2.85132 0
M  V30 11148 O 1065.87 -4.06056 -4.00593 0
M  V30 11149 O 1064.81 -5.41815 -2.62145 0
M  V30 11150 H 1068.63 -3.01707 -0.347357 0
M  V30 11151 H 1066.22 -1.49028 -0.105427 0
M  V30 11152 H 1068.1 -3.15243 -2.79643 0
M  V30 11153 H 1066.77 -1.97998 -2.56083 0
M  V30 11154 H 1065.68 -3.62412 -0.927807 0
M  V30 11155 H 1067.01 -4.7633 -1.23977 0
M  V30 11156 N 1068.67 0.153526 -1.5685 0
M  V30 11157 C 1069.89 0.886343 -1.87507 0
M  V30 11158 C 1070.32 1.74244 -0.708565 0
M  V30 11159 O 1069.67 1.78045 0.341997 0
M  V30 11160 C 1069.72 1.72428 -3.16703 0
M  V30 11161 O 1068.83 2.82784 -3.00178 0
M  V30 11162 H 1068.17 0.247259 -0.616246 0
M  V30 11163 H 1070.7 0.146306 -2.04076 0
M  V30 11164 H 1070.71 2.12062 -3.4856 0
M  V30 11165 H 1069.38 1.09558 -4.01211 0
M  V30 11166 H 1067.96 2.46604 -2.79716 0
M  V30 11167 N 1070.14 1.51827 0.422667 0
M  V30 11168 C 1071.42 1.55772 1.18299 0
M  V30 11169 C 1071.8 0.330657 2.08494 0
M  V30 11170 O 1071.15 -0.683373 2.18042 0
M  V30 11171 C 1071.36 2.87941 1.97208 0
M  V30 11172 C 1072.71 3.4044 2.53744 0
M  V30 11173 O 1073.73 2.8959 2.07403 0
M  V30 11174 O 1072.59 4.29201 3.38303 0
M  V30 11175 H 1069.68 0.626889 0.539388 0
M  V30 11176 H 1072.23 1.64147 0.430545 0
M  V30 11177 H 1071 3.68702 1.31052 0
M  V30 11178 H 1070.63 2.82795 2.79486 0
M  V30 11179 N 1071.62 -0.679052 1.4222 0
M  V30 11180 C 1072.85 -1.46747 1.45852 0
M  V30 11181 C 1073.27 -1.88675 0.0685937 0
M  V30 11182 O 1072.62 -1.57861 -0.915757 0
M  V30 11183 C 1072.67 -2.71935 2.38188 0
M  V30 11184 O 1072.39 -2.31768 3.71773 0
M  V30 11185 C 1073.9 -3.65536 2.50796 0
M  V30 11186 H 1071.12 -0.451682 0.49621 0
M  V30 11187 H 1073.66 -0.834723 1.86689 0
M  V30 11188 H 1071.81 -3.31409 2.00616 0
M  V30 11189 H 1072.23 -3.12579 4.21182 0
M  V30 11190 H 1073.7 -4.50113 3.19535 0
M  V30 11191 H 1074.18 -4.11148 1.54447 0
M  V30 11192 H 1074.79 -3.11957 2.89072 0
M  V30 11193 N 1073.1 -1.28322 -0.914942 0
M  V30 11194 C 1074.35 -1.15179 -1.66067 0
M  V30 11195 C 1074.67 0.300279 -1.92674 0
M  V30 11196 O 1073.94 1.20821 -1.54205 0
M  V30 11197 H 1072.52 -0.423264 -0.615513 0
M  V30 11198 H 1075.18 -1.61034 -1.09791 0
M  V30 11199 H 1074.28 -1.69048 -2.62353 0
M  V30 11200 N 1074.58 1.12322 -1.10551 0
M  V30 11201 C 1075.86 1.80201 -0.760715 0
M  V30 11202 C 1076.24 1.97228 0.752628 0
M  V30 11203 O 1075.58 1.54958 1.67929 0
M  V30 11204 C 1075.79 3.14491 -1.51316 0
M  V30 11205 C 1077.14 3.89671 -1.68647 0
M  V30 11206 O 1078.17 3.24151 -1.47664 0
M  V30 11207 O 1077.02 5.0722 -2.03445 0
M  V30 11208 H 1074.12 0.780084 -0.274587 0
M  V30 11209 H 1076.66 1.19147 -1.20839 0
M  V30 11210 H 1075.44 2.97396 -2.54306 0
M  V30 11211 H 1075.06 3.83253 -1.05842 0
M  V30 11212 N 1076.06 0.894434 1.2976 0
M  V30 11213 C 1077.28 0.5322 2.00455 0
M  V30 11214 C 1077.71 -0.874427 1.66539 0
M  V30 11215 O 1077.06 -1.58113 0.887129 0
M  V30 11216 C 1077.11 0.725264 3.53231 0
M  V30 11217 O 1076.22 -0.224612 4.11788 0
M  V30 11218 H 1075.56 0.208562 0.630395 0
M  V30 11219 H 1078.09 1.20458 1.65382 0
M  V30 11220 H 1078.1 0.627889 4.0314 0
M  V30 11221 H 1076.77 1.75079 3.77253 0
M  V30 11222 H 1075.35 -0.0801361 3.72814 0
M  V30 11223 N 1077.53 -1.43282 0.656365 0
M  V30 11224 C 1078.95 -1.56272 0.324213 0
M  V30 11225 C 1079.15 -1.63946 -1.1715 0
M  V30 11226 O 1078.21 -1.59625 -1.95643 0
M  V30 11227 C 1079.52 -2.82204 1.03833 0
M  V30 11228 C 1081.07 -2.95952 1.01889 0
M  V30 11229 C 1081.54 -4.2472 1.71397 0
M  V30 11230 N 1083.03 -4.31591 1.68176 0
M  V30 11231 C 1083.77 -5.30001 2.1883 0
M  V30 11232 N 1083.26 -6.34671 2.77785 0
M  V30 11233 N 1085.06 -5.21676 2.09311 0
M  V30 11234 H 1077.21 -1.36544 1.62694 0
M  V30 11235 H 1079.47 -0.655999 0.684375 0
M  V30 11236 H 1079.18 -2.82608 2.09346 0
M  V30 11237 H 1079.05 -3.72527 0.591878 0
M  V30 11238 H 1081.44 -2.95087 -0.0278431 0
M  V30 11239 H 1081.52 -2.0691 1.50406 0
M  V30 11240 H 1081.16 -4.26346 2.76028 0
M  V30 11241 H 1081.09 -5.12665 1.20342 0
M  V30 11242 H 1083.58 -3.56573 1.25157 0
M  V30 11243 H 1083.9 -7.06087 3.14104 0
M  V30 11244 H 1082.24 -6.35285 2.81847 0
M  V30 11245 H 1085.43 -4.3882 1.62955 0
M  V30 11246 H 1085.61 -5.9821 2.49095 0
M  V30 11247 N 1079.01 -0.398486 -1.52479 0
M  V30 11248 C 1080.42 0.0735015 -1.86555 0
M  V30 11249 C 1080.78 1.45361 -1.31775 0
M  V30 11250 O 1079.9 2.0632 -0.652759 0
M  V30 11251 C 1080.5 0.140152 -3.3851 0
M  V30 11252 C 1079.05 0.556451 -3.72264 0
M  V30 11253 C 1078.2 -0.275792 -2.75925 0
M  V30 11254 H 1081.15 -0.615991 -1.46257 0
M  V30 11255 H 1081.17 0.957507 -3.68255 0
M  V30 11256 H 1080.69 -0.864442 -3.7835 0
M  V30 11257 H 1078.79 1.56808 -3.37997 0
M  V30 11258 H 1078.9 0.308227 -4.78107 0
M  V30 11259 H 1077.26 0.260304 -2.53366 0
M  V30 11260 H 1078.05 -1.27854 -3.18604 0
M  V30 11261 N 1080.49 1.57075 -0.12858 0
M  V30 11262 C 1081.91 1.57964 0.227961 0
M  V30 11263 C 1082.11 1.14186 1.66023 0
M  V30 11264 O 1081.16 0.833655 2.38341 0
M  V30 11265 C 1082.48 3.00697 -0.0140648 0
M  V30 11266 C 1084.02 3.12958 0.0510876 0
M  V30 11267 C 1084.5 4.57709 -0.163368 0
M  V30 11268 N 1085.99 4.6307 -0.109663 0
M  V30 11269 C 1086.73 5.72853 -0.250366 0
M  V30 11270 N 1086.22 6.91351 -0.447772 0
M  V30 11271 N 1088.01 5.61781 -0.189265 0
M  V30 11272 H 1080.17 1.83829 -1.06398 0
M  V30 11273 H 1082.43 0.850014 -0.419739 0
M  V30 11274 H 1082.13 3.37047 -1.00461 0
M  V30 11275 H 1082.01 3.70389 0.713571 0
M  V30 11276 H 1084.4 2.7646 1.03216 0
M  V30 11277 H 1084.48 2.4579 -0.708583 0
M  V30 11278 H 1084.12 4.94907 -1.14146 0
M  V30 11279 H 1084.05 5.2298 0.616405 0
M  V30 11280 H 1086.54 3.7788 0.0390086 0
M  V30 11281 H 1086.85 7.70871 -0.54574 0
M  V30 11282 H 1085.2 6.93314 -0.483866 0
M  V30 11283 H 1088.39 4.68086 -0.0359374 0
M  V30 11284 H 1088.56 6.47294 -0.302359 0
M  V30 11285 N 1081.97 -0.145205 1.5693 0
M  V30 11286 C 1083.19 -0.876386 1.87974 0
M  V30 11287 C 1083.62 -1.73866 0.717795 0
M  V30 11288 O 1082.98 -1.78224 -0.332551 0
M  V30 11289 C 1083.03 -1.70746 3.17613 0
M  V30 11290 O 1082.13 -2.81188 3.01674 0
M  V30 11291 H 1081.47 -0.243987 0.617549 0
M  V30 11292 H 1084 -0.135482 2.04151 0
M  V30 11293 H 1084.01 -2.1021 3.49679 0
M  V30 11294 H 1082.69 -1.07429 4.01786 0
M  V30 11295 H 1081.26 -2.45117 2.81019 0
M  V30 11296 N 1083.45 -1.52049 -0.414609 0
M  V30 11297 C 1084.86 -1.40729 -0.752822 0
M  V30 11298 C 1085.06 -0.507468 -1.95005 0
M  V30 11299 O 1084.12 0.0288189 -2.52484 0
M  V30 11300 C 1085.43 -2.83163 -1.01189 0
M  V30 11301 C 1086.98 -2.92469 -1.11494 0
M  V30 11302 C 1087.46 -4.35859 -1.4068 0
M  V30 11303 N 1088.95 -4.39069 -1.47557 0
M  V30 11304 C 1089.68 -5.47072 -1.71756 0
M  V30 11305 N 1089.18 -6.65201 -1.93595 0
M  V30 11306 N 1090.97 -5.3458 -1.73726 0
M  V30 11307 H 1083.12 -2.09089 0.373549 0
M  V30 11308 H 1085.38 -0.942188 0.104814 0
M  V30 11309 H 1085.09 -3.51104 -0.204609 0
M  V30 11310 H 1084.96 -3.23874 -1.93353 0
M  V30 11311 H 1087.35 -2.24711 -1.91282 0
M  V30 11312 H 1087.43 -2.55222 -0.171794 0
M  V30 11313 H 1087.08 -5.04174 -0.614119 0
M  V30 11314 H 1087.01 -4.70637 -2.36238 0
M  V30 11315 H 1089.5 -3.53913 -1.32491 0
M  V30 11316 H 1089.81 -7.43297 -2.11495 0
M  V30 11317 H 1088.16 -6.68276 -1.90871 0
M  V30 11318 H 1091.35 -4.41271 -1.56198 0
M  V30 11319 H 1091.52 -6.18826 -1.92246 0
M  V30 11320 N 1084.93 0.6715 -1.42579 0
M  V30 11321 C 1086.34 0.985019 -1.25577 0
M  V30 11322 C 1086.54 2.00845 -0.162319 0
M  V30 11323 O 1085.6 2.48175 0.465352 0
M  V30 11324 C 1086.91 1.48668 -2.61377 0
M  V30 11325 C 1088.46 1.60429 -2.68759 0
M  V30 11326 C 1088.93 2.13991 -4.04935 0
M  V30 11327 N 1090.42 2.21319 -4.06906 0
M  V30 11328 C 1091.16 2.63845 -5.09091 0
M  V30 11329 N 1090.66 3.05799 -6.21658 0
M  V30 11330 N 1092.45 2.63623 -4.96447 0
M  V30 11331 H 1084.6 -0.00604561 -2.12399 0
M  V30 11332 H 1086.86 0.0598299 -0.94611 0
M  V30 11333 H 1086.57 0.80917 -3.42265 0
M  V30 11334 H 1086.44 2.46487 -2.85524 0
M  V30 11335 H 1088.83 2.27286 -1.88216 0
M  V30 11336 H 1088.91 0.610909 -2.48398 0
M  V30 11337 H 1088.55 1.47741 -4.85937 0
M  V30 11338 H 1088.48 3.14126 -4.2265 0
M  V30 11339 H 1090.98 1.91743 -3.25643 0
M  V30 11340 H 1091.29 3.36944 -6.95477 0
M  V30 11341 H 1089.63 3.03648 -6.25158 0
M  V30 11342 H 1092.82 2.30211 -4.07579 0
M  V30 11343 H 1093 2.96444 -5.76216 0
M  V30 11344 N 1086.4 1.28806 0.908124 0
M  V30 11345 C 1087.65 1.16058 1.65454 0
M  V30 11346 C 1087.97 -0.290057 1.92831 0
M  V30 11347 O 1087.24 -1.20001 1.54843 0
M  V30 11348 H 1085.82 0.426522 0.61326 0
M  V30 11349 H 1088.48 1.61614 1.08936 0
M  V30 11350 H 1087.58 1.70437 2.61453 0
M  V30 11351 N 1087.88 -1.11734 1.11145 0
M  V30 11352 C 1089.11 -1.87755 0.881062 0
M  V30 11353 C 1089.53 -1.79461 -0.563496 0
M  V30 11354 O 1088.89 -1.15481 -1.39763 0
M  V30 11355 C 1088.94 -3.34641 1.34342 0
M  V30 11356 O 1088.04 -4.09195 0.513157 0
M  V30 11357 H 1087.38 -0.583111 0.317613 0
M  V30 11358 H 1089.91 -1.41256 1.48013 0
M  V30 11359 H 1089.92 -3.85486 1.33658 0
M  V30 11360 H 1088.6 -3.39994 2.39534 0
M  V30 11361 H 1087.17 -3.68269 0.585833 0
M  V30 11362 N 1089.36 -0.901303 -1.29284 0
M  V30 11363 C 1090.31 -0.378666 -2.27672 0
M  V30 11364 C 1091.28 0.540102 -1.57074 0
M  V30 11365 O 1092.46 0.464997 -1.85047 0
M  V30 11366 C 1089.6 0.38635 -3.42931 0
M  V30 11367 C 1088.71 -0.563496 -4.28309 0
M  V30 11368 C 1087.85 0.218731 -5.30749 0
M  V30 11369 C 1086.89 -0.725536 -6.07785 0
M  V30 11370 N 1086.03 0.0223854 -7.02096 0
M  V30 11371 H 1090.87 -1.22277 -2.71758 0
M  V30 11372 H 1088.4 -0.614302 -1.33659 0
M  V30 11373 H 1090.36 0.845967 -4.08533 0
M  V30 11374 H 1088.99 1.1949 -2.9987 0
M  V30 11375 H 1088.04 -1.14163 -3.62865 0
M  V30 11376 H 1089.35 -1.28623 -4.81931 0
M  V30 11377 H 1088.51 0.739473 -6.02177 0
M  V30 11378 H 1087.25 0.97459 -4.77863 0
M  V30 11379 H 1086.25 -1.25776 -5.3522 0
M  V30 11380 H 1087.48 -1.48075 -6.6276 0
M  V30 11381 H 1085.42 0.760482 -6.51577 0
M  V30 11382 H 1085.34 -0.640408 -7.53283 0
M  V30 11383 H 1086.61 0.523339 -7.77741 0
M  V30 11384 N 1090.84 1.42931 -0.663954 0
M  V30 11385 C 1091.8 2.29197 0.0117626 0
M  V30 11386 C 1092.8 1.42767 0.739875 0
M  V30 11387 O 1093.99 1.64278 0.579509 0
M  V30 11388 C 1091.12 3.2505 1.02738 0
M  V30 11389 H 1092.32 2.90438 -0.747391 0
M  V30 11390 H 1089.87 1.5039 -0.425733 0
M  V30 11391 H 1090.6 2.68726 1.8154 0
M  V30 11392 H 1090.39 3.88785 0.508809 0
M  V30 11393 H 1091.88 3.89771 1.49893 0
M  V30 11394 N 1092.32 0.406567 1.52266 0
M  V30 11395 C 1093.23 -0.4271 2.30679 0
M  V30 11396 C 1094.24 -1.0559 1.383 0
M  V30 11397 O 1095.42 -1.05797 1.71374 0
M  V30 11398 C 1092.48 -1.53008 3.1111 0
M  V30 11399 C 1091.54 -0.924604 4.19225 0
M  V30 11400 C 1090.78 -1.97502 4.95811 0
M  V30 11401 O 1091 -3.19277 4.72671 0
M  V30 11402 O 1089.93 -1.58268 5.80719 0
M  V30 11403 H 1093.76 0.212187 3.02958 0
M  V30 11404 H 1091.34 0.169835 1.48432 0
M  V30 11405 H 1093.23 -2.17046 3.61205 0
M  V30 11406 H 1091.9 -2.15401 2.41628 0
M  V30 11407 H 1090.81 -0.247009 3.73284 0
M  V30 11408 H 1092.14 -0.34463 4.90992 0
M  V30 11409 N 1093.79 -1.57004 0.136909 0
M  V30 11410 C 1095.02 -2.00156 -0.523936 0
M  V30 11411 C 1095.44 -1.01688 -1.59075 0
M  V30 11412 O 1094.79 -0.0123678 -1.82496 0
M  V30 11413 C 1094.85 -3.4326 -1.13379 0
M  V30 11414 O 1094.57 -4.37963 -0.109598 0
M  V30 11415 C 1096.07 -4.01637 -1.87623 0
M  V30 11416 H 1093.29 -0.65681 -0.137263 0
M  V30 11417 H 1095.83 -2.03219 0.228522 0
M  V30 11418 H 1093.99 -3.4108 -1.83693 0
M  V30 11419 H 1094.4 -5.21555 -0.55503 0
M  V30 11420 H 1095.87 -5.03795 -2.25597 0
M  V30 11421 H 1096.35 -3.41781 -2.75831 0
M  V30 11422 H 1096.96 -4.07417 -1.22031 0
M  V30 11423 N 1095.27 0.136881 -1.57004 0
M  V30 11424 C 1096.5 0.862436 -1.88068 0
M  V30 11425 C 1096.92 1.74274 -0.726227 0
M  V30 11426 O 1096.27 1.79956 0.30366 0
M  V30 11427 C 1096.32 1.71076 -3.18458 0
M  V30 11428 O 1096.04 0.865918 -4.29457 0
M  V30 11429 C 1097.55 2.54302 -3.63105 0
M  V30 11430 H 1094.77 0.248865 -0.623143 0
M  V30 11431 H 1097.31 0.126633 -2.04108 0
M  V30 11432 H 1095.46 2.39951 -3.04142 0
M  V30 11433 H 1095.88 1.4493 -5.04079 0
M  V30 11434 H 1097.35 3.09384 -4.57149 0
M  V30 11435 H 1097.83 3.3082 -2.88886 0
M  V30 11436 H 1098.44 1.907 -3.80149 0
M  V30 11437 N 1096.75 1.52266 0.40654 0
M  V30 11438 C 1097.7 1.75794 1.4955 0
M  V30 11439 C 1098.67 0.600472 1.54866 0
M  V30 11440 O 1099.85 0.838305 1.71397 0
M  V30 11441 C 1096.99 1.91682 2.86971 0
M  V30 11442 C 1096.11 3.19337 2.90943 0
M  V30 11443 C 1095.24 3.25641 4.1968 0
M  V30 11444 C 1094.28 4.47488 4.17637 0
M  V30 11445 N 1093.42 4.51171 5.37949 0
M  V30 11446 H 1098.26 2.68733 1.28789 0
M  V30 11447 H 1095.79 1.33157 0.625102 0
M  V30 11448 H 1097.75 1.98877 3.66748 0
M  V30 11449 H 1096.38 1.02121 3.06221 0
M  V30 11450 H 1095.43 3.21301 2.03642 0
M  V30 11451 H 1096.75 4.09153 2.85299 0
M  V30 11452 H 1095.9 3.31922 5.07851 0
M  V30 11453 H 1094.64 2.33769 4.28023 0
M  V30 11454 H 1093.64 4.41351 3.27856 0
M  V30 11455 H 1094.87 5.40659 4.10932 0
M  V30 11456 H 1092.81 3.62182 5.46955 0
M  V30 11457 H 1092.73 5.34835 5.3431 0
M  V30 11458 H 1094 4.61685 6.28066 0
M  V30 11459 N 1098.23 -0.663929 1.42933 0
M  V30 11460 C 1099.19 -1.75899 1.46943 0
M  V30 11461 C 1100.19 -1.5682 0.355535 0
M  V30 11462 O 1101.38 -1.62914 0.616833 0
M  V30 11463 C 1098.51 -3.14657 1.31164 0
M  V30 11464 H 1099.71 -1.73727 2.44456 0
M  V30 11465 H 1097.26 -0.874587 1.2954 0
M  V30 11466 H 1097.99 -3.22447 0.346165 0
M  V30 11467 H 1097.78 -3.29909 2.11902 0
M  V30 11468 H 1099.27 -3.9453 1.36878 0
M  V30 11469 N 1099.71 -1.29285 -0.901281 0
M  V30 11470 C 1100.94 -1.19874 -1.68267 0
M  V30 11471 C 1101.34 0.243387 -1.87628 0
M  V30 11472 O 1100.69 1.17497 -1.41209 0
M  V30 11473 C 1100.75 -1.83907 -3.08899 0
M  V30 11474 C 1100.41 -3.33198 -3.12775 0
M  V30 11475 C 1101.41 -4.29446 -2.9304 0
M  V30 11476 C 1099.1 -3.7437 -3.34892 0
M  V30 11477 C 1101.09 -5.64842 -2.95352 0
M  V30 11478 C 1098.78 -5.09888 -3.36834 0
M  V30 11479 C 1099.77 -6.04934 -3.17087 0
M  V30 11480 O 1099.46 -7.37979 -3.18815 0
M  V30 11481 H 1099.19 -0.416601 -0.532372 0
M  V30 11482 H 1101.75 -1.71154 -1.13558 0
M  V30 11483 H 1099.98 -1.27136 -3.65203 0
M  V30 11484 H 1101.67 -1.6884 -3.69118 0
M  V30 11485 H 1102.43 -3.9897 -2.75767 0
M  V30 11486 H 1098.31 -3.00846 -3.49303 0
M  V30 11487 H 1101.86 -6.39004 -2.79856 0
M  V30 11488 H 1097.75 -5.40009 -3.53638 0
M  V30 11489 H 1098.52 -7.46763 -3.35092 0
M  V30 11490 N 1101.18 1.11143 -1.11736 0
M  V30 11491 C 1102.09 2.20851 -0.791331 0
M  V30 11492 C 1103.11 1.72644 0.216833 0
M  V30 11493 O 1104.29 2.01332 0.0522401 0
M  V30 11494 C 1101.35 3.4585 -0.242694 0
M  V30 11495 C 1100.41 4.08829 -1.30986 0
M  V30 11496 C 1099.65 5.27861 -0.787305 0
M  V30 11497 O 1099.87 5.69122 0.381549 0
M  V30 11498 O 1098.8 5.81506 -1.55352 0
M  V30 11499 H 1102.63 2.51158 -1.70744 0
M  V30 11500 H 1100.21 1.19739 -0.893478 0
M  V30 11501 H 1102.1 4.21359 0.0587472 0
M  V30 11502 H 1100.77 3.17187 0.646079 0
M  V30 11503 H 1099.68 3.35037 -1.66436 0
M  V30 11504 H 1101.01 4.41678 -2.17213 0
M  V30 11505 N 1102.66 0.908147 1.28804 0
M  V30 11506 C 1104.08 0.605474 1.47669 0
M  V30 11507 C 1104.28 -0.850759 1.82659 0
M  V30 11508 O 1103.33 -1.63029 1.92816 0
M  V30 11509 C 1104.65 1.53856 2.58358 0
M  V30 11510 C 1106.2 1.54467 2.7223 0
M  V30 11511 C 1106.67 2.46424 3.86056 0
M  V30 11512 N 1108.16 2.44519 3.93402 0
M  V30 11513 C 1108.9 3.12371 4.80845 0
M  V30 11514 N 1108.39 3.89533 5.72919 0
M  V30 11515 N 1110.19 3.01486 4.74407 0
M  V30 11516 H 1102.34 1.84988 1.04371 0
M  V30 11517 H 1104.6 0.793132 0.519274 0
M  V30 11518 H 1104.31 2.57651 2.39393 0
M  V30 11519 H 1104.18 1.26543 3.5534 0
M  V30 11520 H 1106.57 0.514127 2.90587 0
M  V30 11521 H 1106.65 1.85821 1.75796 0
M  V30 11522 H 1106.29 3.49577 3.68454 0
M  V30 11523 H 1106.22 2.12375 4.81876 0
M  V30 11524 H 1108.71 1.88464 3.27551 0
M  V30 11525 H 1109.03 4.3834 6.36457 0
M  V30 11526 H 1107.37 3.93639 5.72777 0
M  V30 11527 H 1110.56 2.40713 4.01466 0
M  V30 11528 H 1110.73 3.5464 5.42342 0
M  V30 11529 N 1104.14 -1.42577 0.671525 0
M  V30 11530 C 1105.09 -2.32591 -0.0205354 0
M  V30 11531 C 1106.08 -1.4964 -0.793993 0
M  V30 11532 O 1107.29 -1.65733 -0.702327 0
M  V30 11533 H 1103.66 -0.75157 -0.0254344 0
M  V30 11534 H 1105.63 -2.88662 0.756082 0
M  V30 11535 C 1104.38 -3.34175 -0.960316 0
M  V30 11536 H 1103.71 -3.98041 -0.374577 0
M  V30 11537 H 1105.15 -3.99752 -1.4133 0
M  V30 11538 C 1103.61 -2.66184 -2.06513 0
M  V30 11539 O 1104.14 -2.49125 -3.15119 0
M  V30 11540 N 1102.34 -2.25261 -1.83591 0
M  V30 11541 H 1101.89 -2.39336 -0.952689 0
M  V30 11542 H 1101.85 -1.80101 -2.57703 0
M  V30 11543 N 1105.62 -0.414636 -1.52048 0
M  V30 11544 C 1106.55 0.399119 -2.30064 0
M  V30 11545 C 1107.53 1.04126 -1.34506 0
M  V30 11546 O 1108.71 1.04923 -1.63416 0
M  V30 11547 C 1105.84 1.51305 -3.12608 0
M  V30 11548 C 1104.8 0.995621 -4.16259 0
M  V30 11549 C 1104.12 2.20357 -4.87183 0
M  V30 11550 C 1105.42 0.0458178 -5.2228 0
M  V30 11551 H 1107.12 -0.251879 -2.98339 0
M  V30 11552 H 1104.66 -0.122579 -1.43477 0
M  V30 11553 H 1106.62 2.08936 -3.65956 0
M  V30 11554 H 1105.34 2.19201 -2.42113 0
M  V30 11555 H 1104 0.441676 -3.6393 0
M  V30 11556 H 1103.65 2.8682 -4.13211 0
M  V30 11557 H 1103.35 1.86385 -5.57256 0
M  V30 11558 H 1104.87 2.78584 -5.43345 0
M  V30 11559 H 1106.29 0.531102 -5.70835 0
M  V30 11560 H 1104.68 -0.20536 -5.99749 0
M  V30 11561 H 1105.75 -0.897807 -4.76516 0
M  V30 11562 N 1107.1 1.56929 -0.145233 0
M  V30 11563 C 1108.34 1.95681 0.50532 0
M  V30 11564 C 1108.67 1.03098 1.65516 0
M  V30 11565 O 1107.94 0.0921961 1.95683 0
M  V30 11566 H 1106.52 0.72252 0.189668 0
M  V30 11567 H 1109.18 1.93651 -0.220318 0
M  V30 11568 H 1108.27 2.99359 0.882631 0
M  V30 11569 N 1108.58 -0.128553 1.57075 0
M  V30 11570 C 1109.49 -1.17718 2.02927 0
M  V30 11571 C 1110.5 -1.45912 0.947932 0
M  V30 11572 O 1111.68 -1.57217 1.25876 0
M  V30 11573 C 1108.74 -2.48625 2.41633 0
M  V30 11574 C 1107.8 -2.27914 3.63804 0
M  V30 11575 C 1107.04 -3.52579 4.00654 0
M  V30 11576 O 1107.26 -4.59505 3.37952 0
M  V30 11577 O 1106.19 -3.44147 4.93808 0
M  V30 11578 H 1110.02 -0.817846 2.92481 0
M  V30 11579 H 1107.6 -0.338649 1.45511 0
M  V30 11580 H 1109.49 -3.2577 2.67305 0
M  V30 11581 H 1108.16 -2.84052 1.55229 0
M  V30 11582 H 1107.07 -1.4866 3.43294 0
M  V30 11583 H 1108.4 -1.97395 4.50883 0
M  V30 11584 N 1110.05 -1.5248 -0.398459 0
M  V30 11585 C 1111.47 -1.4152 -0.737854 0
M  V30 11586 C 1111.67 -0.528122 -1.94456 0
M  V30 11587 O 1110.73 0.00203799 -2.525 0
M  V30 11588 C 1112.04 -2.8422 -0.9818 0
M  V30 11589 C 1113.59 -2.93635 -1.08386 0
M  V30 11590 C 1114.06 -4.37327 -1.3605 0
M  V30 11591 N 1115.55 -4.40609 -1.42892 0
M  V30 11592 C 1116.29 -5.48863 -1.65944 0
M  V30 11593 N 1115.78 -6.67217 -1.86529 0
M  V30 11594 N 1117.58 -5.36393 -1.68046 0
M  V30 11595 H 1109.73 -2.08681 0.395705 0
M  V30 11596 H 1111.99 -0.941023 0.114801 0
M  V30 11597 H 1111.7 -3.51302 -0.167358 0
M  V30 11598 H 1111.57 -3.25907 -1.89907 0
M  V30 11599 H 1113.96 -2.26728 -1.88888 0
M  V30 11600 H 1114.04 -2.5539 -0.144714 0
M  V30 11601 H 1113.68 -5.04797 -0.56061 0
M  V30 11602 H 1113.61 -4.73116 -2.31233 0
M  V30 11603 H 1116.1 -3.55298 -1.2873 0
M  V30 11604 H 1116.42 -7.45498 -2.03599 0
M  V30 11605 H 1114.76 -6.70263 -1.83773 0
M  V30 11606 H 1117.95 -4.42903 -1.51509 0
M  V30 11607 H 1118.13 -6.2083 -1.85672 0
M  V30 11608 N 1111.53 0.65634 -1.43283 0
M  V30 11609 C 1112.44 1.79847 -1.50639 0
M  V30 11610 C 1113.46 1.69487 -0.393714 0
M  V30 11611 O 1114.63 1.90712 -0.647379 0
M  V30 11612 C 1111.7 3.16107 -1.42398 0
M  V30 11613 C 1110.76 3.38287 -2.64312 0
M  V30 11614 C 1109.99 4.68046 -2.56454 0
M  V30 11615 O 1110.22 5.4719 -1.61056 0
M  V30 11616 O 1109.15 4.91877 -3.46902 0
M  V30 11617 H 1112.98 1.76596 -2.47078 0
M  V30 11618 H 1110.56 0.814428 -1.25249 0
M  V30 11619 H 1112.44 3.97382 -1.40233 0
M  V30 11620 H 1111.12 3.19956 -0.490929 0
M  V30 11621 H 1110.02 2.56788 -2.72049 0
M  V30 11622 H 1111.36 3.39282 -3.56579 0
M  V30 11623 N 1113.01 1.29761 0.894412 0
M  V30 11624 C 1113.97 1.15335 1.98067 0
M  V30 11625 C 1114.97 0.0872804 1.60563 0
M  V30 11626 O 1116.16 0.334645 1.70955 0
M  V30 11627 C 1113.29 0.764907 3.32208 0
M  V30 11628 H 1114.49 2.11829 2.12293 0
M  V30 11629 H 1112.04 1.13023 1.0796 0
M  V30 11630 H 1112.78 -0.199948 3.23683 0
M  V30 11631 H 1112.56 1.53523 3.60795 0
M  V30 11632 H 1114.05 0.687176 4.11907 0
M  V30 11633 N 1114.49 -1.10549 1.12324 0
M  V30 11634 C 1115.45 -2.15039 0.793156 0
M  V30 11635 C 1116.45 -1.59651 -0.19192 0
M  V30 11636 O 1117.64 -1.74167 0.0337262 0
M  V30 11637 C 1114.77 -3.40433 0.17842 0
M  V30 11638 H 1115.97 -2.4575 1.71892 0
M  V30 11639 H 1113.52 -1.25892 0.926333 0
M  V30 11640 H 1114.25 -3.15338 -0.757122 0
M  V30 11641 H 1114.04 -3.81921 0.887645 0
M  V30 11642 H 1115.53 -4.17584 -0.0360724 0
M  V30 11643 N 1115.97 -0.914965 -1.28321 0
M  V30 11644 C 1116.9 -0.421292 -2.29668 0
M  V30 11645 C 1117.88 0.511743 -1.6222 0
M  V30 11646 O 1119.06 0.419218 -1.89621 0
M  V30 11647 C 1116.19 0.338364 -3.45648 0
M  V30 11648 C 1115.15 -0.505646 -4.25003 0
M  V30 11649 C 1114.47 0.382421 -5.33331 0
M  V30 11650 C 1115.77 -1.76354 -4.91626 0
M  V30 11651 H 1117.47 -1.26826 -2.71211 0
M  V30 11652 H 1115.01 -0.611291 -1.30381 0
M  V30 11653 H 1116.96 0.694578 -4.15636 0
M  V30 11654 H 1115.69 1.21925 -3.02988 0
M  V30 11655 H 1114.35 -0.844395 -3.56743 0
M  V30 11656 H 1114 1.26189 -4.86914 0
M  V30 11657 H 1113.7 -0.17871 -5.87328 0
M  V30 11658 H 1115.22 0.73449 -6.06166 0
M  V30 11659 H 1116.63 -1.47616 -5.5397 0
M  V30 11660 H 1115.03 -2.26717 -5.55625 0
M  V30 11661 H 1116.1 -2.49063 -4.16048 0
M  V30 11662 N 1117.44 1.42219 -0.679077 0
M  V30 11663 C 1118.38 2.28152 0.0468359 0
M  V30 11664 C 1119.35 1.41307 0.804433 0
M  V30 11665 O 1120.54 1.70744 0.798673 0
M  V30 11666 C 1117.67 3.21236 1.07355 0
M  V30 11667 C 1116.71 4.24515 0.411042 0
M  V30 11668 S 1117.54 5.28958 -0.834506 0
M  V30 11669 C 1118.7 6.25608 0.191029 0
M  V30 11670 H 1118.93 2.89371 -0.682045 0
M  V30 11671 H 1116.47 1.47112 -0.468767 0
M  V30 11672 H 1118.42 3.75402 1.66082 0
M  V30 11673 H 1117.09 2.59145 1.7749 0
M  V30 11674 H 1116.28 4.89849 1.1859 0
M  V30 11675 H 1115.88 3.73859 -0.102742 0
M  V30 11676 H 1118.17 6.69323 1.04944 0
M  V30 11677 H 1119.12 7.06806 -0.427959 0
M  V30 11678 H 1119.52 5.61926 0.538422 0
M  V30 11679 N 1118.92 0.422693 1.51826 0
M  V30 11680 C 1119.88 -0.384307 2.25955 0
M  V30 11681 C 1120.88 -0.962184 1.28836 0
M  V30 11682 O 1122.07 -0.838931 1.52668 0
M  V30 11683 C 1119.21 -1.54228 3.04018 0
M  V30 11684 H 1120.4 0.265157 2.98726 0
M  V30 11685 H 1117.95 0.175515 1.55311 0
M  V30 11686 H 1118.69 -2.22822 2.35629 0
M  V30 11687 H 1118.47 -1.13425 3.75336 0
M  V30 11688 H 1119.96 -2.1128 3.60209 0
M  V30 11689 N 1120.4 -1.5685 0.153553 0
M  V30 11690 C 1121.63 -2.00701 -0.502678 0
M  V30 11691 C 1122.04 -1.0337 -1.57988 0
M  V30 11692 O 1121.4 -0.0317233 -1.82472 0
M  V30 11693 C 1121.45 -3.44443 -1.09732 0
M  V30 11694 O 1121.17 -4.38054 -0.0631405 0
M  V30 11695 C 1122.67 -4.03605 -1.83352 0
M  V30 11696 H 1119.89 -0.658229 -0.130289 0
M  V30 11697 H 1122.44 -2.02965 0.250063 0
M  V30 11698 H 1120.59 -3.43009 -1.80065 0
M  V30 11699 H 1121.01 -5.22114 -0.499681 0
M  V30 11700 H 1122.48 -5.0616 -2.20241 0
M  V30 11701 H 1122.96 -3.44687 -2.7219 0
M  V30 11702 H 1123.56 -4.08688 -1.17703 0
M  V30 11703 N 1121.88 0.120221 -1.57141 0
M  V30 11704 C 1122.84 1.13159 -1.99318 0
M  V30 11705 C 1123.84 1.34376 -0.883158 0
M  V30 11706 O 1125.03 1.30914 -1.14922 0
M  V30 11707 C 1122.16 2.48632 -2.33227 0
M  V30 11708 H 1123.36 0.769119 -2.8987 0
M  V30 11709 H 1120.91 0.364475 -1.51991 0
M  V30 11710 H 1121.64 2.89802 -1.45551 0
M  V30 11711 H 1121.43 2.34587 -3.14184 0
M  V30 11712 H 1122.92 3.21423 -2.66603 0
M  V30 11713 N 1123.36 1.52689 0.390367 0
M  V30 11714 C 1124.77 1.41909 0.730338 0
M  V30 11715 C 1124.97 0.538427 1.94173 0
M  V30 11716 O 1124.03 0.0113527 2.52497 0
M  V30 11717 C 1125.34 2.84737 0.966714 0
M  V30 11718 C 1126.89 2.94206 1.06827 0
M  V30 11719 C 1127.36 4.38042 1.33728 0
M  V30 11720 N 1128.86 4.4136 1.40553 0
M  V30 11721 C 1129.59 5.49735 1.63031 0
M  V30 11722 N 1129.09 6.68197 1.82988 0
M  V30 11723 N 1130.88 5.37276 1.65199 0
M  V30 11724 H 1123.03 2.08469 -0.406766 0
M  V30 11725 H 1125.29 0.940401 -0.11979 0
M  V30 11726 H 1125 3.51385 0.148725 0
M  V30 11727 H 1124.87 3.26909 1.88176 0
M  V30 11728 H 1127.26 2.27726 1.87683 0
M  V30 11729 H 1127.34 2.55463 0.131168 0
M  V30 11730 H 1126.99 5.05087 0.533832 0
M  V30 11731 H 1126.92 4.74336 2.28721 0
M  V30 11732 H 1129.41 3.55976 1.26844 0
M  V30 11733 H 1129.72 7.46567 1.99643 0
M  V30 11734 H 1128.06 6.71228 1.80215 0
M  V30 11735 H 1131.26 4.437 1.49158 0
M  V30 11736 H 1131.43 6.21806 1.82377 0
M  V30 11737 N 1124.83 -0.648732 1.43629 0
M  V30 11738 C 1125.76 -1.77298 1.51947 0
M  V30 11739 C 1126.75 -1.65942 0.373785 0
M  V30 11740 O 1127.93 -1.8497 0.591596 0
M  V30 11741 C 1125.06 -3.15749 1.44638 0
M  V30 11742 C 1124.01 -3.41872 2.57502 0
M  V30 11743 C 1123.34 -4.8017 2.35246 0
M  V30 11744 C 1124.64 -3.36173 3.99731 0
M  V30 11745 H 1126.33 -1.70594 2.46045 0
M  V30 11746 H 1123.88 -0.819306 1.1842 0
M  V30 11747 H 1125.83 -3.94156 1.4906 0
M  V30 11748 H 1124.56 -3.23194 0.470466 0
M  V30 11749 H 1123.22 -2.65838 2.5244 0
M  V30 11750 H 1122.86 -4.84297 1.35887 0
M  V30 11751 H 1122.56 -4.9861 3.10906 0
M  V30 11752 H 1124.09 -5.6083 2.41459 0
M  V30 11753 H 1125.5 -4.0451 4.06257 0
M  V30 11754 H 1123.9 -3.66148 4.75453 0
M  V30 11755 H 1124.97 -2.34277 4.24549 0
M  V30 11756 N 1126.31 -1.30234 -0.887518 0
M  V30 11757 C 1127.25 -1.10726 -1.99537 0
M  V30 11758 C 1128.22 -0.0156237 -1.62592 0
M  V30 11759 O 1129.41 -0.168687 -1.87744 0
M  V30 11760 C 1126.53 -0.688185 -3.31635 0
M  V30 11761 C 1125.58 -1.78031 -3.87566 0
M  V30 11762 S 1126.41 -3.38219 -4.15172 0
M  V30 11763 C 1127.57 -2.98208 -5.50293 0
M  V30 11764 H 1127.8 -2.04516 -2.15778 0
M  V30 11765 H 1125.34 -1.14519 -1.0356 0
M  V30 11766 H 1127.29 -0.453124 -4.07991 0
M  V30 11767 H 1125.95 0.230315 -3.13254 0
M  V30 11768 H 1125.15 -1.43931 -4.83011 0
M  V30 11769 H 1124.75 -1.96952 -3.1794 0
M  V30 11770 H 1127.04 -2.4601 -6.31257 0
M  V30 11771 H 1127.98 -3.92551 -5.89329 0
M  V30 11772 H 1128.39 -2.36149 -5.12732 0
M  V30 11773 N 1127.79 1.09952 -1.12909 0
M  V30 11774 C 1128.7 2.19999 -0.81471 0
M  V30 11775 C 1129.72 1.72864 0.19851 0
M  V30 11776 O 1130.89 2.01376 0.0308832 0
M  V30 11777 C 1127.96 3.45573 -0.279363 0
M  V30 11778 C 1127.02 4.07417 -1.35314 0
M  V30 11779 C 1126.25 5.26996 -0.843247 0
M  V30 11780 O 1126.47 5.69495 0.321164 0
M  V30 11781 O 1125.41 5.79826 -1.61511 0
M  V30 11782 H 1129.23 2.49333 -1.73398 0
M  V30 11783 H 1126.82 1.18784 -0.906128 0
M  V30 11784 H 1128.7 4.21398 0.0140531 0
M  V30 11785 H 1127.38 3.17854 0.612401 0
M  V30 11786 H 1126.28 3.33253 -1.6998 0
M  V30 11787 H 1127.62 4.39349 -2.21885 0
M  V30 11788 N 1129.27 0.921757 1.27833 0
M  V30 11789 C 1130.22 0.406628 2.29018 0
M  V30 11790 C 1131.21 -0.505914 1.61669 0
M  V30 11791 O 1132.42 -0.386273 1.75807 0
M  V30 11792 H 1128.79 0.112914 0.743475 0
M  V30 11793 H 1130.76 1.27295 2.69886 0
M  V30 11794 C 1129.51 -0.330783 3.46123 0
M  V30 11795 H 1128.83 0.362207 3.98156 0
M  V30 11796 H 1130.27 -0.655738 4.18899 0
M  V30 11797 C 1128.73 -1.54161 2.9956 0
M  V30 11798 O 1129.26 -2.64052 3.0272 0
M  V30 11799 N 1127.47 -1.39137 2.55126 0
M  V30 11800 H 1127.02 -0.497319 2.52754 0
M  V30 11801 H 1126.97 -2.20278 2.24333 0
M  V30 11802 N 1130.75 -1.41857 0.686609 0
M  V30 11803 C 1132.16 -1.55549 0.357288 0
M  V30 11804 C 1132.36 -1.66394 -1.13646 0
M  V30 11805 O 1131.42 -1.63739 -1.92213 0
M  V30 11806 C 1132.73 -2.79938 1.09796 0
M  V30 11807 C 1134.28 -2.93724 1.08143 0
M  V30 11808 C 1134.75 -4.20989 1.80367 0
M  V30 11809 N 1136.25 -4.27927 1.77293 0
M  V30 11810 C 1136.98 -5.2524 2.30022 0
M  V30 11811 N 1136.48 -6.28636 2.91185 0
M  V30 11812 N 1138.27 -5.17118 2.20329 0
M  V30 11813 H 1130.42 -1.33063 1.65554 0
M  V30 11814 H 1132.68 -0.641335 0.698135 0
M  V30 11815 H 1132.39 -2.78104 2.15293 0
M  V30 11816 H 1132.26 -3.71188 0.670763 0
M  V30 11817 H 1134.65 -2.9508 0.0347554 0
M  V30 11818 H 1134.73 -2.03673 1.54761 0
M  V30 11819 H 1134.38 -4.20395 2.85009 0
M  V30 11820 H 1134.31 -5.09997 1.3119 0
M  V30 11821 H 1136.8 -3.53838 1.32692 0
M  V30 11822 H 1137.11 -6.99265 3.29011 0
M  V30 11823 H 1135.45 -6.29164 2.95259 0
M  V30 11824 H 1138.65 -4.35265 1.72226 0
M  V30 11825 H 1138.82 -5.92792 2.61728 0
M  V30 11826 N 1132.22 -0.430739 -1.51599 0
M  V30 11827 C 1133.13 0.390347 -2.3133 0
M  V30 11828 C 1134.15 1.03376 -1.39962 0
M  V30 11829 O 1135.33 1.03057 -1.73035 0
M  V30 11830 C 1132.39 1.48039 -3.13505 0
M  V30 11831 C 1131.45 0.857792 -4.20643 0
M  V30 11832 C 1130.69 1.89589 -4.9889 0
M  V30 11833 O 1130.91 3.11717 -4.77691 0
M  V30 11834 O 1129.84 1.49009 -5.83164 0
M  V30 11835 H 1133.67 -0.260358 -3.02582 0
M  V30 11836 H 1131.25 -0.193428 -1.48143 0
M  V30 11837 H 1133.14 2.11272 -3.64612 0
M  V30 11838 H 1131.81 2.1153 -2.45024 0
M  V30 11839 H 1130.72 0.187592 -3.73629 0
M  V30 11840 H 1132.05 0.266474 -4.91478 0
M  V30 11841 N 1133.7 1.56767 -0.161869 0
M  V30 11842 C 1134.65 2.17502 0.772102 0
M  V30 11843 C 1135.62 1.11223 1.23364 0
M  V30 11844 O 1136.8 1.39332 1.30351 0
M  V30 11845 C 1133.94 2.81248 1.99984 0
M  V30 11846 C 1133.06 4.01962 1.58274 0
M  V30 11847 C 1132.19 4.53662 2.76341 0
M  V30 11848 C 1131.23 5.66807 2.31076 0
M  V30 11849 N 1130.37 6.13059 3.42203 0
M  V30 11850 H 1135.21 2.96971 0.247382 0
M  V30 11851 H 1132.75 1.46685 0.110382 0
M  V30 11852 H 1134.7 3.16359 2.7198 0
M  V30 11853 H 1133.33 2.04398 2.49842 0
M  V30 11854 H 1132.39 3.72733 0.759874 0
M  V30 11855 H 1133.7 4.83891 1.2104 0
M  V30 11856 H 1132.85 4.90905 3.56507 0
M  V30 11857 H 1131.59 3.7077 3.16829 0
M  V30 11858 H 1130.6 5.29125 1.49354 0
M  V30 11859 H 1131.82 6.51494 1.91657 0
M  V30 11860 H 1129.77 5.33099 3.82285 0
M  V30 11861 H 1129.68 6.89953 3.09033 0
M  V30 11862 H 1130.95 6.54951 4.22682 0
M  V30 11863 N 1135.18 -0.111886 1.57202 0
M  V30 11864 C 1136.6 -0.465629 1.52657 0
M  V30 11865 C 1136.8 -1.81463 0.875989 0
M  V30 11866 O 1135.85 -2.4825 0.461345 0
M  V30 11867 C 1137.17 -0.443571 2.9741 0
M  V30 11868 C 1138.71 -0.52662 3.08538 0
M  V30 11869 C 1139.19 -0.53488 4.54866 0
M  V30 11870 N 1140.68 -0.596117 4.59348 0
M  V30 11871 C 1141.41 -0.624073 5.69994 0
M  V30 11872 N 1140.91 -0.609245 6.90116 0
M  V30 11873 N 1142.7 -0.667619 5.58121 0
M  V30 11874 H 1134.85 0.771925 1.97876 0
M  V30 11875 H 1137.12 0.285534 0.903977 0
M  V30 11876 H 1136.82 0.480138 3.48407 0
M  V30 11877 H 1136.7 -1.26876 3.55221 0
M  V30 11878 H 1139.08 -1.44075 2.57539 0
M  V30 11879 H 1139.17 0.326396 2.53709 0
M  V30 11880 H 1138.81 0.375233 5.06512 0
M  V30 11881 H 1138.74 -1.40488 5.07514 0
M  V30 11882 H 1141.23 -0.613452 3.72888 0
M  V30 11883 H 1141.54 -0.633396 7.702 0
M  V30 11884 H 1139.89 -0.576557 6.92604 0
M  V30 11885 H 1143.08 -0.676616 4.63184 0
M  V30 11886 H 1143.25 -0.685938 6.44359 0
M  V30 11887 N 1136.66 -1.52894 -0.382264 0
M  V30 11888 C 1137.59 -1.81122 -1.47367 0
M  V30 11889 C 1138.57 -0.663653 -1.56619 0
M  V30 11890 O 1139.75 -0.911898 -1.71459 0
M  V30 11891 C 1136.88 -1.98615 -2.84902 0
M  V30 11892 C 1135.84 -3.14328 -2.90485 0
M  V30 11893 C 1135.16 -3.17086 -4.30535 0
M  V30 11894 C 1136.46 -4.53263 -2.59519 0
M  V30 11895 H 1138.16 -2.72518 -1.23993 0
M  V30 11896 H 1135.7 -1.3113 -0.595049 0
M  V30 11897 H 1137.66 -2.16946 -3.61265 0
M  V30 11898 H 1136.38 -1.03915 -3.09628 0
M  V30 11899 H 1135.04 -2.95791 -2.16572 0
M  V30 11900 H 1134.69 -2.20055 -4.52311 0
M  V30 11901 H 1134.39 -3.94821 -4.3519 0
M  V30 11902 H 1135.91 -3.3758 -5.08795 0
M  V30 11903 H 1137.33 -4.71867 -3.25598 0
M  V30 11904 H 1135.72 -5.33115 -2.75514 0
M  V30 11905 H 1136.79 -4.59516 -1.54831 0
M  V30 11906 N 1138.14 0.641106 -1.43971 0
M  V30 11907 C 1139.1 1.73539 -1.49723 0
M  V30 11908 C 1140.1 1.56235 -0.380438 0
M  V30 11909 O 1141.29 1.61912 -0.642673 0
M  V30 11910 C 1138.42 3.1253 -1.36153 0
M  V30 11911 H 1139.62 1.69816 -2.47189 0
M  V30 11912 H 1137.17 0.853867 -1.30915 0
M  V30 11913 H 1137.9 3.21856 -0.39742 0
M  V30 11914 H 1137.69 3.26496 -2.17124 0
M  V30 11915 H 1139.18 3.92303 -1.43138 0
M  V30 11916 N 1139.62 1.30703 0.880598 0
M  V30 11917 C 1140.86 1.19955 1.63519 0
M  V30 11918 C 1141.19 -0.244214 1.92658 0
M  V30 11919 O 1140.47 -1.17412 1.55063 0
M  V30 11920 C 1140.75 2.03302 2.97221 0
M  V30 11921 C 1140.61 3.55921 2.75028 0
M  V30 11922 C 1141.92 1.87421 3.98198 0
M  V30 11923 H 1139.04 0.43712 0.593376 0
M  V30 11924 H 1141.69 1.60382 1.01871 0
M  V30 11925 H 1139.84 1.68953 3.49839 0
M  V30 11926 H 1141.51 4.00352 2.29164 0
M  V30 11927 H 1139.75 3.79885 2.09452 0
M  V30 11928 H 1140.42 4.09533 3.70117 0
M  V30 11929 H 1142.9 2.17459 3.54755 0
M  V30 11930 H 1141.77 2.48057 4.89652 0
M  V30 11931 H 1142.03 0.834563 4.34151 0
M  V30 11932 N 1141.09 -1.09351 1.1349 0
M  V30 11933 C 1142.02 -2.18037 0.835588 0
M  V30 11934 C 1143 -1.68856 -0.205373 0
M  V30 11935 O 1144.19 -1.94094 -0.0641357 0
M  V30 11936 C 1141.32 -3.45987 0.301661 0
M  V30 11937 C 1140.27 -4.08507 1.27696 0
M  V30 11938 C 1139.6 -5.31292 0.602758 0
M  V30 11939 C 1140.9 -4.50916 2.63575 0
M  V30 11940 H 1142.59 -2.43332 1.74441 0
M  V30 11941 H 1140.14 -1.1695 0.840166 0
M  V30 11942 H 1142.09 -4.21324 0.079928 0
M  V30 11943 H 1140.82 -3.20217 -0.642552 0
M  V30 11944 H 1139.48 -3.3519 1.4847 0
M  V30 11945 H 1139.12 -5.01802 -0.346953 0
M  V30 11946 H 1138.82 -5.74075 1.25345 0
M  V30 11947 H 1140.35 -6.09351 0.390325 0
M  V30 11948 H 1141.76 -5.17474 2.46765 0
M  V30 11949 H 1140.16 -5.04586 3.24827 0
M  V30 11950 H 1141.23 -3.63279 3.2118 0
M  V30 11951 N 1142.57 -0.928524 -1.27343 0
M  V30 11952 C 1143.8 -0.58516 -1.98974 0
M  V30 11953 C 1144.22 0.829964 -1.68799 0
M  V30 11954 O 1143.58 1.55705 -0.928738 0
M  V30 11955 C 1143.63 -0.818662 -3.51184 0
M  V30 11956 O 1142.73 0.115355 -4.12239 0
M  V30 11957 H 1142.07 -0.225203 -0.624644 0
M  V30 11958 H 1144.6 -1.248 -1.6213 0
M  V30 11959 H 1144.61 -0.734554 -4.01333 0
M  V30 11960 H 1143.29 -1.8502 -3.72479 0
M  V30 11961 H 1141.86 -0.0187371 -3.72895 0
M  V30 11962 N 1144.05 1.41491 -0.694123 0
M  V30 11963 C 1144.96 2.34583 -0.0283414 0
M  V30 11964 C 1145.98 1.5615 0.767662 0
M  V30 11965 O 1147.15 1.88637 0.705556 0
M  V30 11966 C 1144.22 3.34876 0.897726 0
M  V30 11967 C 1143.28 4.29197 0.0940905 0
M  V30 11968 C 1142.51 5.24699 0.976051 0
M  V30 11969 O 1142.73 5.25613 2.21556 0
M  V30 11970 O 1141.67 6.00387 0.426503 0
M  V30 11971 H 1145.49 2.93092 -0.795656 0
M  V30 11972 H 1143.08 1.4232 -0.45445 0
M  V30 11973 H 1144.96 3.96438 1.4288 0
M  V30 11974 H 1143.64 2.78812 1.64456 0
M  V30 11975 H 1142.54 3.70988 -0.481552 0
M  V30 11976 H 1143.88 4.88355 -0.614045 0
M  V30 11977 N 1145.53 0.438773 1.51369 0
M  V30 11978 C 1146.47 -0.37195 2.27783 0
M  V30 11979 C 1147.44 -1.01558 1.31435 0
M  V30 11980 O 1148.63 -1.03421 1.60339 0
M  V30 11981 C 1145.77 -1.46636 3.12397 0
M  V30 11982 C 1144.88 -0.840727 4.2374 0
M  V30 11983 C 1144.02 -1.91031 4.95662 0
M  V30 11984 C 1143.06 -1.26318 5.98924 0
M  V30 11985 N 1142.19 -2.27419 6.64248 0
M  V30 11986 H 1147.03 0.286048 2.96624 0
M  V30 11987 H 1144.57 0.152909 1.46303 0
M  V30 11988 H 1146.53 -2.11219 3.59781 0
M  V30 11989 H 1145.16 -2.09397 2.45668 0
M  V30 11990 H 1144.21 -0.0831588 3.80309 0
M  V30 11991 H 1145.52 -0.328285 4.97719 0
M  V30 11992 H 1144.68 -2.63272 5.46601 0
M  V30 11993 H 1143.42 -2.45649 4.21317 0
M  V30 11994 H 1142.42 -0.526246 5.47276 0
M  V30 11995 H 1143.65 -0.724324 6.75226 0
M  V30 11996 H 1141.59 -2.81114 5.92715 0
M  V30 11997 H 1141.51 -1.81071 7.33996 0
M  V30 11998 H 1142.78 -2.99139 7.19817 0
M  V30 11999 N 1147.01 -1.56678 0.170181 0
M  V30 12000 C 1147.94 -2.20916 -0.756213 0
M  V30 12001 C 1148.92 -1.16442 -1.23997 0
M  V30 12002 O 1150.1 -1.44867 -1.29333 0
M  V30 12003 C 1147.23 -2.84901 -1.98617 0
M  V30 12004 C 1146.19 -3.95403 -1.63831 0
M  V30 12005 C 1145.51 -4.46432 -2.94282 0
M  V30 12006 C 1146.81 -5.15051 -0.867195 0
M  V30 12007 H 1148.51 -2.98585 -0.220776 0
M  V30 12008 H 1146.05 -1.43619 -0.104748 0
M  V30 12009 H 1148 -3.28514 -2.63926 0
M  V30 12010 H 1146.73 -2.04598 -2.54572 0
M  V30 12011 H 1145.39 -3.52444 -1.00891 0
M  V30 12012 H 1145.04 -3.62923 -3.48276 0
M  V30 12013 H 1144.74 -5.20979 -2.71762 0
M  V30 12014 H 1146.26 -4.92731 -3.60622 0
M  V30 12015 H 1147.67 -5.55363 -1.42285 0
M  V30 12016 H 1146.07 -5.95507 -0.741065 0
M  V30 12017 H 1147.14 -4.84707 0.136693 0
M  V30 12018 N 1148.48 0.103547 -1.57259 0
M  V30 12019 C 1149.45 1.11039 -2.00507 0
M  V30 12020 C 1150.45 1.33432 -0.897361 0
M  V30 12021 O 1151.64 1.29688 -1.16304 0
M  V30 12022 C 1148.77 2.46144 -2.35851 0
M  V30 12023 H 1149.96 0.738332 -2.90669 0
M  V30 12024 H 1147.51 0.348334 -1.52369 0
M  V30 12025 H 1148.25 2.88242 -1.48617 0
M  V30 12026 H 1148.03 2.31241 -3.16654 0
M  V30 12027 H 1149.52 3.18577 -2.69997 0
M  V30 12028 N 1149.96 1.53094 0.37415 0
M  V30 12029 C 1150.87 1.81872 1.48188 0
M  V30 12030 C 1151.89 0.706487 1.59012 0
M  V30 12031 O 1153.06 0.995648 1.75068 0
M  V30 12032 C 1150.13 1.99494 2.83554 0
M  V30 12033 C 1149.19 3.23402 2.82329 0
M  V30 12034 C 1148.42 3.40174 4.11239 0
M  V30 12035 O 1148.65 2.61425 5.06965 0
M  V30 12036 O 1147.58 4.33493 4.17573 0
M  V30 12037 H 1151.41 2.75965 1.26795 0
M  V30 12038 H 1148.99 1.38368 0.56343 0
M  V30 12039 H 1150.87 2.12705 3.63778 0
M  V30 12040 H 1149.55 1.08591 3.04942 0
M  V30 12041 H 1148.45 3.15621 2.00834 0
M  V30 12042 H 1149.79 4.14199 2.65894 0
M  V30 12043 N 1151.44 -0.633461 1.44309 0
M  V30 12044 C 1152.69 -1.38902 1.4625 0
M  V30 12045 C 1153 -1.95354 0.0980699 0
M  V30 12046 O 1154.21 -2.715 -0.0049983 0
M  V30 12047 C 1152.66 -2.51477 2.57463 0
M  V30 12048 C 1152.27 -2.01549 4.00103 0
M  V30 12049 C 1154.02 -3.28698 2.68622 0
M  V30 12050 C 1151.92 -3.11452 5.02744 0
M  V30 12051 H 1150.85 -0.521976 0.544112 0
M  V30 12052 H 1153.5 -0.681725 1.70367 0
M  V30 12053 H 1151.89 -3.24771 2.26582 0
M  V30 12054 H 1153.06 -1.35135 4.4054 0
M  V30 12055 H 1151.37 -1.3715 3.93165 0
M  V30 12056 H 1153.97 -4.10624 3.42479 0
M  V30 12057 H 1154.31 -3.78027 1.7436 0
M  V30 12058 H 1154.85 -2.62494 2.98901 0
M  V30 12059 H 1151.59 -2.6707 5.98627 0
M  V30 12060 H 1151.11 -3.76514 4.66902 0
M  V30 12061 H 1152.79 -3.76265 5.2634 0
M  V30 12062 N 1152.92 -1.31168 -0.873655 0
M  V30 12063 C 1153.88 -1.18471 -1.96207 0
M  V30 12064 C 1154.88 -0.112814 -1.60404 0
M  V30 12065 O 1156.07 -0.3618 -1.70401 0
M  V30 12066 C 1153.2 -0.817662 -3.30949 0
M  V30 12067 H 1154.4 -2.1518 -2.08896 0
M  V30 12068 H 1151.95 -1.14727 -1.06149 0
M  V30 12069 H 1152.68 0.148428 -3.2396 0
M  V30 12070 H 1152.47 -1.59244 -3.58307 0
M  V30 12071 H 1153.96 -0.75262 -4.10762 0
M  V30 12072 N 1154.4 1.08748 -1.14068 0
M  V30 12073 C 1155.31 2.19123 -0.837998 0
M  V30 12074 C 1156.32 1.73065 0.180164 0
M  V30 12075 O 1157.5 2.01398 0.00952285 0
M  V30 12076 C 1154.56 3.45257 -0.316 0
M  V30 12077 C 1153.62 4.05959 -1.39628 0
M  V30 12078 C 1152.86 5.26072 -0.899095 0
M  V30 12079 O 1153.08 5.69804 0.260744 0
M  V30 12080 O 1152.01 5.7808 -1.67652 0
M  V30 12081 H 1155.84 2.4748 -1.76033 0
M  V30 12082 H 1153.43 1.17816 -0.918675 0
M  V30 12083 H 1155.31 4.21389 -0.0306425 0
M  V30 12084 H 1153.98 3.18486 0.578654 0
M  V30 12085 H 1152.89 3.31432 -1.73505 0
M  V30 12086 H 1154.22 4.36971 -2.26533 0
M  V30 12087 N 1155.87 0.935264 1.26849 0
M  V30 12088 C 1157.12 0.578545 1.93642 0
M  V30 12089 C 1157.44 -0.884296 1.73796 0
M  V30 12090 O 1156.71 -1.62768 1.09011 0
M  V30 12091 H 1155.29 0.210976 0.716588 0
M  V30 12092 H 1157.96 1.1893 1.54407 0
M  V30 12093 H 1157.05 0.791268 3.01903 0
M  V30 12094 N 1157.35 -1.41121 0.701616 0
M  V30 12095 C 1158.28 -2.33436 0.0545974 0
M  V30 12096 C 1159.26 -1.52144 -0.760662 0
M  V30 12097 O 1160.45 -1.80661 -0.712414 0
M  V30 12098 C 1157.58 -3.36015 -0.878117 0
M  V30 12099 C 1156.53 -4.27664 -0.169511 0
M  V30 12100 C 1155.86 -5.20666 -1.21699 0
M  V30 12101 C 1157.16 -5.13254 0.967859 0
M  V30 12102 H 1158.85 -2.87791 0.825637 0
M  V30 12103 H 1156.4 -1.38377 0.398484 0
M  V30 12104 H 1158.35 -3.99526 -1.34004 0
M  V30 12105 H 1157.08 -2.80024 -1.68089 0
M  V30 12106 H 1155.73 -3.65586 0.272441 0
M  V30 12107 H 1155.38 -4.60987 -2.01246 0
M  V30 12108 H 1155.08 -5.82822 -0.747836 0
M  V30 12109 H 1156.61 -5.87053 -1.6793 0
M  V30 12110 H 1158.02 -5.70298 0.585944 0
M  V30 12111 H 1156.42 -5.84381 1.3645 0
M  V30 12112 H 1157.49 -4.5006 1.80483 0
M  V30 12113 N 1158.83 -0.446794 -1.51134 0
M  V30 12114 C 1159.78 0.378002 -2.24845 0
M  V30 12115 C 1160.76 0.982126 -1.27448 0
M  V30 12116 O 1161.96 0.8987 -1.52487 0
M  V30 12117 C 1159.09 1.4733 -3.10079 0
M  V30 12118 C 1158.17 0.878102 -4.1491 0
M  V30 12119 N 1158.56 0.0129452 -5.05798 0
M  V30 12120 C 1156.86 1.14468 -4.3106 0
M  V30 12121 C 1157.56 -0.322333 -5.80806 0
M  V30 12122 N 1156.54 0.296438 -5.42791 0
M  V30 12123 H 1160.34 -0.28885 -2.92477 0
M  V30 12124 H 1157.85 -0.259439 -1.60314 0
M  V30 12125 H 1159.85 2.07713 -3.6147 0
M  V30 12126 H 1158.51 2.14239 -2.43992 0
M  V30 12127 H 1159.52 -0.354177 -5.16688 0
M  V30 12128 H 1156.2 1.81056 -3.76198 0
M  V30 12129 H 1157.59 -1.02693 -6.64006 0
M  V30 12130 N 1160.31 1.56586 -0.178487 0
M  V30 12131 C 1161.22 2.21903 0.761321 0
M  V30 12132 C 1162.23 1.21289 1.2476 0
M  V30 12133 O 1163.41 1.53974 1.29823 0
M  V30 12134 C 1160.48 2.85259 1.97048 0
M  V30 12135 C 1159.54 4.01095 1.53039 0
M  V30 12136 C 1158.77 4.61421 2.68191 0
M  V30 12137 O 1158.99 4.20644 3.85247 0
M  V30 12138 O 1157.93 5.51171 2.41855 0
M  V30 12139 H 1161.75 3.02788 0.235141 0
M  V30 12140 H 1159.34 1.49316 0.0500442 0
M  V30 12141 H 1161.22 3.25404 2.6775 0
M  V30 12142 H 1159.89 2.07366 2.48558 0
M  V30 12143 H 1158.8 3.65606 0.792661 0
M  V30 12144 H 1160.13 4.80603 1.06213 0
M  V30 12145 N 1161.79 -0.095206 1.57312 0
M  V30 12146 C 1162.7 -1.13388 2.05379 0
M  V30 12147 C 1163.71 -1.43868 0.978668 0
M  V30 12148 O 1164.89 -1.54512 1.29182 0
M  V30 12149 C 1161.95 -2.43444 2.46852 0
M  V30 12150 C 1161.01 -2.20146 3.68557 0
M  V30 12151 C 1160.25 -3.44001 4.08043 0
M  V30 12152 O 1160.47 -4.52233 3.47623 0
M  V30 12153 O 1159.4 -3.33596 5.00997 0
M  V30 12154 H 1163.23 -0.755622 2.9415 0
M  V30 12155 H 1160.82 -0.307707 1.46197 0
M  V30 12156 H 1162.7 -3.20027 2.74155 0
M  V30 12157 H 1161.37 -2.80696 1.61219 0
M  V30 12158 H 1160.28 -1.41345 3.46371 0
M  V30 12159 H 1161.61 -1.87787 4.54969 0
M  V30 12160 N 1163.26 -1.53291 -0.366026 0
M  V30 12161 C 1164.68 -1.43053 -0.707669 0
M  V30 12162 C 1164.88 -0.56925 -1.93292 0
M  V30 12163 O 1163.94 -0.0515214 -2.52447 0
M  V30 12164 C 1165.25 -2.86239 -0.921292 0
M  V30 12165 C 1166.8 -2.95868 -1.02133 0
M  V30 12166 C 1167.27 -4.40114 -1.26743 0
M  V30 12167 N 1168.76 -4.43541 -1.33514 0
M  V30 12168 C 1169.5 -5.52259 -1.54264 0
M  V30 12169 N 1168.99 -6.71024 -1.72335 0
M  V30 12170 N 1170.79 -5.39836 -1.5663 0
M  V30 12171 H 1162.94 -2.07795 0.43988 0
M  V30 12172 H 1165.2 -0.938376 0.134736 0
M  V30 12173 H 1164.91 -3.51578 -0.0928042 0
M  V30 12174 H 1164.78 -3.29862 -1.82951 0
M  V30 12175 H 1167.17 -2.30683 -1.84036 0
M  V30 12176 H 1167.25 -2.5564 -0.0905097 0
M  V30 12177 H 1166.89 -5.05872 -0.453409 0
M  V30 12178 H 1166.82 -4.77914 -2.21146 0
M  V30 12179 H 1169.31 -3.57949 -1.21165 0
M  V30 12180 H 1169.63 -7.49649 -1.8774 0
M  V30 12181 H 1167.97 -6.7401 -1.69514 0
M  V30 12182 H 1171.16 -4.46017 -1.4208 0
M  V30 12183 H 1171.34 -6.24629 -1.72461 0
M  V30 12184 N 1164.74 0.6258 -1.44643 0
M  V30 12185 C 1165.69 1.73751 -1.51919 0
M  V30 12186 C 1166.66 1.62007 -0.36647 0
M  V30 12187 O 1167.84 1.81852 -0.577439 0
M  V30 12188 C 1164.98 3.12015 -1.47448 0
M  V30 12189 C 1164.1 3.34696 -2.73135 0
M  V30 12190 C 1163.23 4.62962 -2.6046 0
M  V30 12191 C 1162.27 4.7884 -3.81286 0
M  V30 12192 N 1161.41 5.98388 -3.67255 0
M  V30 12193 H 1166.25 1.66867 -2.46899 0
M  V30 12194 H 1163.79 0.813921 -1.22531 0
M  V30 12195 H 1165.74 3.91983 -1.42846 0
M  V30 12196 H 1164.37 3.179 -0.560312 0
M  V30 12197 H 1163.43 2.4863 -2.87901 0
M  V30 12198 H 1164.74 3.42306 -3.62806 0
M  V30 12199 H 1163.89 5.51099 -2.53722 0
M  V30 12200 H 1162.63 4.57719 -1.68359 0
M  V30 12201 H 1161.64 3.89131 -3.88403 0
M  V30 12202 H 1162.86 4.85893 -4.74431 0
M  V30 12203 H 1160.81 5.94224 -2.77909 0
M  V30 12204 H 1160.72 6.07078 -4.50547 0
M  V30 12205 H 1161.99 6.89072 -3.64417 0
M  V30 12206 N 1166.22 1.31629 0.866686 0
M  V30 12207 C 1167.64 1.10358 1.15296 0
M  V30 12208 C 1167.84 -0.123807 2.01119 0
M  V30 12209 O 1166.89 -0.81219 2.39081 0
M  V30 12210 C 1168.21 2.37684 1.84193 0
M  V30 12211 C 1169.75 2.43326 1.9688 0
M  V30 12212 C 1170.23 3.70541 2.69191 0
M  V30 12213 N 1171.72 3.71454 2.76724 0
M  V30 12214 C 1172.45 4.66585 3.33295 0
M  V30 12215 N 1171.95 5.72075 3.90771 0
M  V30 12216 N 1173.74 4.541 3.31284 0
M  V30 12217 H 1165.89 2.10343 0.29487 0
M  V30 12218 H 1168.16 0.928096 0.193239 0
M  V30 12219 H 1167.86 3.27352 1.28582 0
M  V30 12220 H 1167.74 2.47731 2.84445 0
M  V30 12221 H 1170.12 1.54124 2.51654 0
M  V30 12222 H 1170.21 2.3724 0.956596 0
M  V30 12223 H 1169.85 4.60111 2.15083 0
M  V30 12224 H 1169.78 3.73894 3.70825 0
M  V30 12225 H 1172.27 2.952 2.35936 0
M  V30 12226 H 1172.58 6.40738 4.32058 0
M  V30 12227 H 1170.93 5.75844 3.89138 0
M  V30 12228 H 1174.12 3.70861 2.85622 0
M  V30 12229 H 1174.29 5.28416 3.75074 0
M  V30 12230 N 1167.7 -1.08142 1.14644 0
M  V30 12231 C 1168.63 -2.17139 0.858667 0
M  V30 12232 C 1169.61 -1.69064 -0.187452 0
M  V30 12233 O 1170.8 -1.94151 -0.0435458 0
M  V30 12234 C 1167.93 -3.45648 0.33834 0
M  V30 12235 C 1166.88 -4.07129 1.32021 0
M  V30 12236 C 1166.21 -5.30623 0.659075 0
M  V30 12237 C 1167.51 -4.48095 2.68343 0
M  V30 12238 H 1169.2 -2.41468 1.77012 0
M  V30 12239 H 1166.75 -1.16052 0.852523 0
M  V30 12240 H 1168.7 -4.21216 0.124611 0
M  V30 12241 H 1167.42 -3.2088 -0.608553 0
M  V30 12242 H 1166.08 -3.33596 1.52016 0
M  V30 12243 H 1165.73 -5.02142 -0.293711 0
M  V30 12244 H 1165.43 -5.72714 1.31427 0
M  V30 12245 H 1166.95 -6.08903 0.454933 0
M  V30 12246 H 1168.37 -5.14828 2.5224 0
M  V30 12247 H 1166.76 -5.01113 3.30161 0
M  V30 12248 H 1167.83 -3.59852 3.25015 0
M  V30 12249 N 1169.18 -0.941978 -1.26351 0
M  V30 12250 C 1170.12 -0.450906 -2.26353 0
M  V30 12251 C 1171.09 0.489857 -1.58712 0
M  V30 12252 O 1172.28 0.40589 -1.86433 0
M  V30 12253 C 1169.42 0.277054 -3.43986 0
M  V30 12254 C 1168.53 -0.699474 -4.263 0
M  V30 12255 C 1167.67 0.0497661 -5.31177 0
M  V30 12256 C 1166.71 -0.918531 -6.05169 0
M  V30 12257 N 1165.84 -0.200993 -7.01812 0
M  V30 12258 H 1170.68 -1.30861 -2.6773 0
M  V30 12259 H 1168.22 -0.656514 -1.31637 0
M  V30 12260 H 1170.18 0.715567 -4.11018 0
M  V30 12261 H 1168.81 1.09889 -3.0352 0
M  V30 12262 H 1167.86 -1.2565 -3.59049 0
M  V30 12263 H 1169.17 -1.4389 -4.77595 0
M  V30 12264 H 1168.33 0.547521 -6.04224 0
M  V30 12265 H 1167.07 0.822068 -4.80722 0
M  V30 12266 H 1166.07 -1.4274 -5.30947 0
M  V30 12267 H 1167.3 -1.69085 -6.57713 0
M  V30 12268 H 1165.24 0.552803 -6.53667 0
M  V30 12269 H 1165.16 -0.879735 -7.50864 0
M  V30 12270 H 1166.43 0.275642 -7.79012 0
M  V30 12271 N 1170.66 1.40747 -0.709091 0
M  V30 12272 C 1172.07 1.83955 -0.318968 0
M  V30 12273 C 1172.42 1.59304 1.14527 0
M  V30 12274 O 1171.54 1.07052 1.88066 0
M  V30 12275 C 1172.14 3.33934 -0.572147 0
M  V30 12276 C 1170.7 3.75661 -0.235802 0
M  V30 12277 C 1169.84 2.64024 -0.847743 0
M  V30 12278 H 1172.79 1.30107 -0.908734 0
M  V30 12279 H 1172.82 3.80143 0.164752 0
M  V30 12280 H 1172.33 3.51844 -1.63791 0
M  V30 12281 H 1170.43 3.63348 0.825164 0
M  V30 12282 H 1170.54 4.73955 -0.700263 0
M  V30 12283 H 1168.91 2.53197 -0.276283 0
M  V30 12284 H 1169.69 2.84748 -1.91765 0
M  V30 12285 N 1172.13 0.454803 1.50895 0
M  V30 12286 C 1173.07 -0.393395 2.24784 0
M  V30 12287 C 1174.04 -1.01005 1.27424 0
M  V30 12288 O 1175.23 -1.04914 1.56605 0
M  V30 12289 C 1172.36 -1.54978 3.01164 0
M  V30 12290 C 1171.4 -1.0521 4.1332 0
M  V30 12291 S 1172.23 0.0200486 5.35496 0
M  V30 12292 C 1173.39 -1.14059 6.1542 0
M  V30 12293 H 1173.62 0.233864 2.96379 0
M  V30 12294 H 1171.16 0.239498 1.52531 0
M  V30 12295 H 1173.11 -2.21262 3.45765 0
M  V30 12296 H 1171.78 -2.1485 2.29125 0
M  V30 12297 H 1170.97 -1.91734 4.66105 0
M  V30 12298 H 1170.57 -0.467234 3.7107 0
M  V30 12299 H 1172.86 -2.05552 6.45565 0
M  V30 12300 H 1173.81 -0.652339 7.05089 0
M  V30 12301 H 1174.21 -1.38705 5.47194 0
M  V30 12302 N 1173.61 -1.56489 0.186789 0
M  V30 12303 C 1174.52 -2.22304 -0.749543 0
M  V30 12304 C 1175.54 -1.21949 -1.24115 0
M  V30 12305 O 1176.71 -1.5466 -1.29005 0
M  V30 12306 C 1173.78 -2.863 -1.95533 0
M  V30 12307 C 1172.84 -4.01901 -1.5091 0
M  V30 12308 C 1172.07 -4.62837 -2.6574 0
M  V30 12309 O 1172.3 -4.22681 -3.8301 0
M  V30 12310 O 1171.23 -5.52446 -2.38929 0
M  V30 12311 H 1175.06 -3.02909 -0.21908 0
M  V30 12312 H 1172.64 -1.49341 -0.0421249 0
M  V30 12313 H 1174.52 -3.2682 -2.6602 0
M  V30 12314 H 1173.2 -2.08681 -2.47455 0
M  V30 12315 H 1172.1 -3.66021 -0.773261 0
M  V30 12316 H 1173.44 -4.8116 -1.03663 0
M  V30 12317 N 1175.09 0.086862 -1.5736 0
M  V30 12318 C 1176 1.12297 -2.05977 0
M  V30 12319 C 1177.02 1.43347 -0.986284 0
M  V30 12320 O 1178.19 1.53825 -1.3 0
M  V30 12321 C 1175.26 2.42131 -2.4814 0
M  V30 12322 C 1174.32 2.18189 -3.69719 0
M  V30 12323 C 1173.55 3.41833 -4.09861 0
M  V30 12324 O 1173.77 4.50383 -3.50016 0
M  V30 12325 O 1172.71 3.30934 -5.02759 0
M  V30 12326 H 1176.53 0.740012 -2.94546 0
M  V30 12327 H 1174.12 0.29995 -1.46358 0
M  V30 12328 H 1176 3.18568 -2.75848 0
M  V30 12329 H 1174.68 2.79837 -1.62705 0
M  V30 12330 H 1173.58 1.39506 -3.47115 0
M  V30 12331 H 1174.92 1.85372 -4.55959 0
M  V30 12332 N 1176.57 1.53483 0.357892 0
M  V30 12333 C 1177.81 1.70037 1.09971 0
M  V30 12334 C 1178.14 0.456112 1.89076 0
M  V30 12335 O 1177.4 -0.562029 1.87456 0
M  V30 12336 C 1177.7 2.90654 2.07978 0
M  V30 12337 C 1177.36 4.26849 1.45295 0
M  V30 12338 C 1176.02 4.63884 1.27928 0
M  V30 12339 C 1178.38 5.11514 1.00013 0
M  V30 12340 C 1175.7 5.83213 0.638745 0
M  V30 12341 C 1178.06 6.31496 0.373568 0
M  V30 12342 C 1176.72 6.67237 0.187457 0
M  V30 12343 H 1175.99 0.622209 0.402414 0
M  V30 12344 H 1178.64 1.87679 0.380615 0
M  V30 12345 H 1176.94 2.67556 2.86219 0
M  V30 12346 H 1178.64 3.00656 2.65343 0
M  V30 12347 H 1175.23 3.97693 1.59807 0
M  V30 12348 H 1179.41 4.83446 1.12221 0
M  V30 12349 H 1174.67 6.09489 0.483035 0
M  V30 12350 H 1178.84 6.96398 0.0145346 0
M  V30 12351 H 1176.47 7.59564 -0.310933 0
M  V30 12352 N 1178.05 -0.61812 1.44973 0
M  V30 12353 C 1178.99 -1.72942 1.52838 0
M  V30 12354 C 1179.96 -1.6181 0.375056 0
M  V30 12355 O 1181.15 -1.81544 0.587075 0
M  V30 12356 C 1178.29 -3.11228 1.49101 0
M  V30 12357 C 1177.4 -3.33243 2.74906 0
M  V30 12358 C 1176.54 -4.61574 2.62912 0
M  V30 12359 C 1175.57 -4.76811 3.8382 0
M  V30 12360 N 1174.71 -5.96432 3.70424 0
M  V30 12361 H 1179.55 -1.65556 2.47781 0
M  V30 12362 H 1177.09 -0.807411 1.2296 0
M  V30 12363 H 1179.05 -3.9122 1.44923 0
M  V30 12364 H 1177.68 -3.17598 0.577163 0
M  V30 12365 H 1176.73 -2.471 2.89216 0
M  V30 12366 H 1178.04 -3.40377 3.64616 0
M  V30 12367 H 1177.19 -5.49746 2.56641 0
M  V30 12368 H 1175.93 -4.5682 1.70784 0
M  V30 12369 H 1174.94 -3.87066 3.90461 0
M  V30 12370 H 1176.16 -4.83371 4.77001 0
M  V30 12371 H 1174.11 -5.92742 2.81057 0
M  V30 12372 H 1174.03 -6.0468 4.5376 0
M  V30 12373 H 1175.29 -6.8713 3.68067 0
M  V30 12374 N 1179.52 -1.32087 -0.859693 0
M  V30 12375 C 1180.75 -1.25348 -1.64607 0
M  V30 12376 C 1181.17 0.179425 -1.87945 0
M  V30 12377 O 1180.52 1.11487 -1.44489 0
M  V30 12378 C 1180.57 -2.0047 -3.00822 0
M  V30 12379 O 1180.3 -3.38169 -2.7852 0
M  V30 12380 C 1181.8 -2.00694 -3.95268 0
M  V30 12381 H 1179.02 -0.432692 -0.512854 0
M  V30 12382 H 1181.56 -1.7413 -1.07234 0
M  V30 12383 H 1179.72 -1.55423 -3.54855 0
M  V30 12384 H 1180.13 -3.76553 -3.65113 0
M  V30 12385 H 1181.6 -2.57748 -4.88129 0
M  V30 12386 H 1182.08 -0.99196 -4.27851 0
M  V30 12387 H 1182.69 -2.45666 -3.47172 0
M  V30 12388 N 1181 1.07532 -1.15215 0
M  V30 12389 C 1182.41 1.61567 -0.935568 0
M  V30 12390 C 1182.76 1.89085 0.523557 0
M  V30 12391 O 1181.89 1.65495 1.39429 0
M  V30 12392 C 1182.48 2.93531 -1.69189 0
M  V30 12393 C 1181.04 3.44316 -1.52063 0
M  V30 12394 C 1180.19 2.18404 -1.70866 0
M  V30 12395 H 1183.14 0.906431 -1.30267 0
M  V30 12396 H 1183.16 3.62377 -1.16031 0
M  V30 12397 H 1182.67 2.73471 -2.75381 0
M  V30 12398 H 1180.77 3.69462 -0.482567 0
M  V30 12399 H 1180.89 4.20478 -2.29642 0
M  V30 12400 H 1179.25 2.28012 -1.13502 0
M  V30 12401 H 1180.03 2.00841 -2.7842 0
M  V30 12402 N 1182.48 0.948665 1.2585 0
M  V30 12403 C 1183.72 0.60782 1.95154 0
M  V30 12404 C 1184.08 -0.838703 1.72713 0
M  V30 12405 O 1185.29 -1.28885 2.35886 0
M  V30 12406 C 1183.56 0.949628 3.44553 0
M  V30 12407 S 1185.12 0.720456 4.32845 0
M  V30 12408 H 1181.93 0.223613 0.674921 0
M  V30 12409 H 1184.54 1.22157 1.52636 0
M  V30 12410 H 1183.24 1.99966 3.58388 0
M  V30 12411 H 1182.77 0.325891 3.92048 0
M  V30 12412 H 1184.79 -0.411697 4.94489 0
M  V30 12413 N 1183.96 -1.40369 0.716545 0
M  V30 12414 C 1185.21 -2.00869 0.256466 0
M  V30 12415 C 1185.53 -1.56816 -1.15061 0
M  V30 12416 O 1184.79 -0.779696 -1.79497 0
M  V30 12417 C 1185.09 -3.56257 0.285583 0
M  V30 12418 C 1184.75 -4.19897 1.64309 0
M  V30 12419 C 1183.42 -4.36994 2.01469 0
M  V30 12420 C 1185.77 -4.55385 2.53524 0
M  V30 12421 C 1183.1 -4.86862 3.27387 0
M  V30 12422 C 1185.45 -5.06653 3.78795 0
M  V30 12423 C 1184.11 -5.21959 4.16071 0
M  V30 12424 H 1183.38 -0.735033 0.0938475 0
M  V30 12425 H 1186.03 -1.67966 0.919765 0
M  V30 12426 H 1184.33 -3.89075 -0.461287 0
M  V30 12427 H 1186.03 -4.00903 -0.0882496 0
M  V30 12428 H 1182.62 -4.06978 1.34413 0
M  V30 12429 H 1186.8 -4.41811 2.2609 0
M  V30 12430 H 1182.06 -4.96897 3.56235 0
M  V30 12431 H 1186.23 -5.33089 4.48095 0
M  V30 12432 H 1183.86 -5.60362 5.1371 0
M  V30 12433 N 1185.44 -0.462799 -1.50652 0
M  V30 12434 C 1186.66 0.0952726 -2.07181 0
M  V30 12435 C 1187.09 1.33479 -1.32533 0
M  V30 12436 O 1186.44 1.77473 -0.370564 0
M  V30 12437 C 1186.49 0.370592 -3.58691 0
M  V30 12438 O 1185.6 1.4526 -3.85971 0
M  V30 12439 H 1184.94 -0.00932702 -0.663934 0
M  V30 12440 H 1187.47 -0.651458 -1.93951 0
M  V30 12441 H 1187.48 0.613551 -4.0336 0
M  V30 12442 H 1186.15 -0.535219 -4.12442 0
M  V30 12443 H 1184.73 1.1976 -3.53146 0
M  V30 12444 N 1186.91 1.56388 -0.195085 0
M  V30 12445 C 1188.33 1.58788 0.160758 0
M  V30 12446 C 1188.53 1.21125 1.61031 0
M  V30 12447 O 1187.59 0.933994 2.34591 0
M  V30 12448 C 1188.9 3.00366 -0.141588 0
M  V30 12449 C 1190.45 3.12893 -0.0816947 0
M  V30 12450 C 1190.92 4.56604 -0.35735 0
M  V30 12451 N 1192.41 4.62188 -0.305968 0
M  V30 12452 C 1193.15 5.71276 -0.493108 0
M  V30 12453 N 1192.64 6.8883 -0.740595 0
M  V30 12454 N 1194.44 5.60473 -0.427365 0
M  V30 12455 H 1186.59 1.79151 -1.14099 0
M  V30 12456 H 1188.85 0.831446 -0.455413 0
M  V30 12457 H 1188.56 3.32483 -1.14666 0
M  V30 12458 H 1188.43 3.73082 0.555834 0
M  V30 12459 H 1190.82 2.80589 0.913978 0
M  V30 12460 H 1190.9 2.42564 -0.812193 0
M  V30 12461 H 1190.54 4.8962 -1.35034 0
M  V30 12462 H 1190.47 5.25124 0.394036 0
M  V30 12463 H 1192.96 3.77705 -0.121298 0
M  V30 12464 H 1193.28 7.67862 -0.872201 0
M  V30 12465 H 1191.62 6.90637 -0.777488 0
M  V30 12466 H 1194.81 4.67513 -0.234436 0
M  V30 12467 H 1194.99 6.45429 -0.576627 0
M  V30 12468 N 1188.39 -0.0785156 1.57404 0
M  V30 12469 C 1189.3 -1.11203 2.0657 0
M  V30 12470 C 1190.32 -1.42822 0.993872 0
M  V30 12471 O 1191.49 -1.53133 1.30814 0
M  V30 12472 C 1188.56 -2.40812 2.4942 0
M  V30 12473 C 1187.62 -2.16225 3.70871 0
M  V30 12474 C 1186.85 -3.39654 4.11668 0
M  V30 12475 O 1187.08 -4.48521 3.524 0
M  V30 12476 O 1186.01 -3.28263 5.04507 0
M  V30 12477 H 1189.84 -0.724381 2.94935 0
M  V30 12478 H 1187.42 -0.292184 1.46515 0
M  V30 12479 H 1189.3 -3.17101 2.77534 0
M  V30 12480 H 1187.98 -2.7897 1.64187 0
M  V30 12481 H 1186.89 -1.37663 3.4785 0
M  V30 12482 H 1188.22 -1.82951 4.56935 0
M  V30 12483 N 1189.87 -1.5367 -0.349747 0
M  V30 12484 C 1191.1 -1.74547 -1.11089 0
M  V30 12485 C 1191.51 -0.481741 -1.82551 0
M  V30 12486 O 1190.87 0.546272 -1.74132 0
M  V30 12487 C 1190.92 -2.92148 -2.12913 0
M  V30 12488 O 1190.64 -4.13633 -1.44358 0
M  V30 12489 C 1192.14 -3.25027 -3.01451 0
M  V30 12490 H 1189.36 -0.583376 -0.331532 0
M  V30 12491 H 1191.91 -2.00473 -0.403841 0
M  V30 12492 H 1190.06 -2.68572 -2.79192 0
M  V30 12493 H 1190.48 -4.79601 -2.12329 0
M  V30 12494 H 1191.95 -4.10679 -3.68845 0
M  V30 12495 H 1192.43 -2.41064 -3.67131 0
M  V30 12496 H 1193.03 -3.50586 -2.40768 0
M  V30 12497 N 1191.35 0.610423 -1.45298 0
M  V30 12498 C 1192.26 1.74964 -1.56285 0
M  V30 12499 C 1193.27 1.68149 -0.447436 0
M  V30 12500 O 1194.45 1.88556 -0.707725 0
M  V30 12501 C 1191.52 3.11417 -1.52383 0
M  V30 12502 C 1190.58 3.29707 -2.7494 0
M  V30 12503 C 1189.81 4.5965 -2.71215 0
M  V30 12504 O 1190.03 5.41789 -1.78383 0
M  V30 12505 O 1188.97 4.80591 -3.62375 0
M  V30 12506 H 1192.79 1.68646 -2.52571 0
M  V30 12507 H 1190.38 0.774168 -1.27777 0
M  V30 12508 H 1192.26 3.9272 -1.52805 0
M  V30 12509 H 1190.93 3.18232 -0.592472 0
M  V30 12510 H 1189.84 2.48003 -2.80081 0
M  V30 12511 H 1191.17 3.27766 -3.67192 0
M  V30 12512 N 1192.83 1.32541 0.852676 0
M  V30 12513 C 1193.76 1.24254 1.97694 0
M  V30 12514 C 1194.74 0.125971 1.69633 0
M  V30 12515 O 1195.92 0.31347 1.91653 0
M  V30 12516 C 1193.05 0.966874 3.3357 0
M  V30 12517 C 1192.01 2.0449 3.75989 0
M  V30 12518 C 1191.33 1.6216 5.09518 0
M  V30 12519 C 1192.63 3.46013 3.91244 0
M  V30 12520 H 1194.33 2.18317 2.04886 0
M  V30 12521 H 1191.87 1.05101 0.984371 0
M  V30 12522 H 1193.83 0.895444 4.11776 0
M  V30 12523 H 1192.55 -0.0093893 3.26599 0
M  V30 12524 H 1191.21 2.10651 3.00036 0
M  V30 12525 H 1190.86 0.632729 4.99005 0
M  V30 12526 H 1190.56 2.3429 5.38871 0
M  V30 12527 H 1192.08 1.56457 5.90215 0
M  V30 12528 H 1193.49 3.4243 4.59799 0
M  V30 12529 H 1191.89 4.1651 4.32017 0
M  V30 12530 H 1192.96 3.8553 2.941 0
M  V30 12531 N 1194.3 -1.0692 1.15784 0
M  V30 12532 C 1195.55 -1.78983 0.929944 0
M  V30 12533 C 1195.87 -1.87884 -0.543969 0
M  V30 12534 O 1197.07 -2.56513 -0.889578 0
M  V30 12535 C 1195.53 -3.21657 1.61446 0
M  V30 12536 C 1195.14 -3.20943 3.12569 0
M  V30 12537 C 1196.88 -3.98299 1.46828 0
M  V30 12538 C 1194.79 -4.58298 3.73788 0
M  V30 12539 H 1193.72 -0.670809 0.344284 0
M  V30 12540 H 1196.37 -1.19975 1.38846 0
M  V30 12541 H 1194.75 -3.80885 1.08364 0
M  V30 12542 H 1195.92 -2.71334 3.72444 0
M  V30 12543 H 1194.24 -2.57799 3.26999 0
M  V30 12544 H 1196.84 -4.99822 1.89952 0
M  V30 12545 H 1197.18 -4.14213 0.416358 0
M  V30 12546 H 1197.71 -3.45577 1.97031 0
M  V30 12547 H 1194.45 -4.47588 4.789 0
M  V30 12548 H 1193.97 -5.08126 3.18698 0
M  V30 12549 H 1195.65 -5.27262 3.74972 0
M  V30 12550 N 1195.78 -0.955326 -1.25345 0
M  V30 12551 C 1197.01 -0.627233 -1.97688 0
M  V30 12552 C 1197.43 0.793973 -1.70522 0
M  V30 12553 O 1196.79 1.537 -0.961556 0
M  V30 12554 C 1196.84 -0.892969 -3.49369 0
M  V30 12555 O 1195.94 0.0278871 -4.12391 0
M  V30 12556 H 1195.28 -0.238402 -0.619726 0
M  V30 12557 H 1197.81 -1.28211 -1.59446 0
M  V30 12558 H 1197.82 -0.819517 -3.99685 0
M  V30 12559 H 1196.5 -1.92879 -3.6847 0
M  V30 12560 H 1195.08 -0.0978295 -3.72772 0
M  V30 12561 N 1197.26 1.39987 -0.723979 0
M  V30 12562 C 1198.17 2.3447 -0.0780936 0
M  V30 12563 C 1199.19 1.57744 0.734368 0
M  V30 12564 O 1200.36 1.90091 0.665385 0
M  V30 12565 C 1197.43 3.36705 0.826492 0
M  V30 12566 C 1196.49 4.293 0.00303036 0
M  V30 12567 C 1195.72 5.26651 0.864535 0
M  V30 12568 O 1195.95 5.30194 2.10357 0
M  V30 12569 O 1194.88 6.01157 0.299057 0
M  V30 12570 H 1198.71 2.91338 -0.857646 0
M  V30 12571 H 1196.29 1.41324 -0.484536 0
M  V30 12572 H 1198.17 3.9938 1.34439 0
M  V30 12573 H 1196.85 2.82237 1.58505 0
M  V30 12574 H 1195.75 3.69883 -0.560136 0
M  V30 12575 H 1197.09 4.86942 -0.717494 0
M  V30 12576 N 1198.74 0.470782 1.50404 0
M  V30 12577 C 1199.65 -0.328877 2.32283 0
M  V30 12578 C 1200.67 -0.99629 1.42654 0
M  V30 12579 O 1201.84 -0.984331 1.75707 0
M  V30 12580 C 1198.91 -1.39675 3.1732 0
M  V30 12581 C 1197.97 -0.745965 4.22769 0
M  V30 12582 C 1197.2 -1.76295 5.03742 0
M  V30 12583 O 1197.42 -2.98943 4.85788 0
M  V30 12584 O 1196.36 -1.33495 5.86909 0
M  V30 12585 H 1200.18 0.340491 3.01785 0
M  V30 12586 H 1197.77 0.232637 1.47578 0
M  V30 12587 H 1199.65 -2.0153 3.70086 0
M  V30 12588 H 1198.33 -2.04959 2.50546 0
M  V30 12589 H 1197.23 -0.0884647 3.73995 0
M  V30 12590 H 1198.57 -0.136074 4.92012 0
M  V30 12591 N 1200.22 -1.56282 0.203376 0
M  V30 12592 C 1201.44 -2.02643 -0.441658 0
M  V30 12593 C 1201.87 -1.0825 -1.5383 0
M  V30 12594 O 1201.23 -0.0674337 -1.81175 0
M  V30 12595 C 1201.27 -3.47382 -0.967369 0
M  V30 12596 O 1200.38 -3.56115 -2.07981 0
M  V30 12597 H 1199.72 -0.656081 -0.102242 0
M  V30 12598 H 1202.25 -2.02134 0.316684 0
M  V30 12599 H 1202.26 -3.8734 -1.28186 0
M  V30 12600 H 1200.93 -4.15574 -0.164625 0
M  V30 12601 H 1199.51 -3.28035 -1.77334 0
M  V30 12602 N 1201.7 0.070167 -1.57444 0
M  V30 12603 C 1202.66 1.06761 -2.02817 0
M  V30 12604 C 1203.66 1.31498 -0.925462 0
M  V30 12605 O 1204.85 1.27192 -1.19029 0
M  V30 12606 C 1201.98 2.41086 -2.41019 0
M  V30 12607 H 1203.17 0.67651 -2.9217 0
M  V30 12608 H 1200.73 0.315936 -1.53074 0
M  V30 12609 H 1201.46 2.85025 -1.54697 0
M  V30 12610 H 1201.25 2.24472 -3.21488 0
M  V30 12611 H 1202.74 3.12778 -2.76694 0
M  V30 12612 N 1203.17 1.53854 0.341593 0
M  V30 12613 C 1204.4 1.75447 1.10604 0
M  V30 12614 C 1204.82 0.493225 1.81518 0
M  V30 12615 O 1204.18 -0.554253 1.7262 0
M  V30 12616 C 1204.23 2.93593 2.09369 0
M  V30 12617 O 1203.33 2.63878 3.16926 0
M  V30 12618 H 1202.67 0.581923 0.319783 0
M  V30 12619 H 1205.2 2.00822 0.391388 0
M  V30 12620 H 1205.21 3.20437 2.52556 0
M  V30 12621 H 1203.89 3.85067 1.57151 0
M  V30 12622 H 1202.47 2.47929 2.78542 0
M  V30 12623 N 1204.65 -0.602709 1.4562 0
M  V30 12624 C 1205.58 -1.72705 1.49159 0
M  V30 12625 C 1206.56 -1.58843 0.347494 0
M  V30 12626 O 1207.75 -1.80337 0.548716 0
M  V30 12627 C 1204.87 -3.10579 1.35125 0
M  V30 12628 C 1203.92 -3.43016 2.53461 0
M  V30 12629 S 1204.75 -3.37311 4.1591 0
M  V30 12630 C 1205.91 -4.77757 4.0435 0
M  V30 12631 H 1206.14 -1.69441 2.44289 0
M  V30 12632 H 1203.67 -0.779776 1.33262 0
M  V30 12633 H 1205.63 -3.90127 1.27715 0
M  V30 12634 H 1204.29 -3.11352 0.414568 0
M  V30 12635 H 1203.49 -4.43415 2.39581 0
M  V30 12636 H 1203.09 -2.70993 2.57757 0
M  V30 12637 H 1205.38 -5.67677 3.69796 0
M  V30 12638 H 1206.32 -4.96694 5.04679 0
M  V30 12639 H 1206.73 -4.53667 3.35926 0
M  V30 12640 N 1206.13 -1.32992 -0.845635 0
M  V30 12641 C 1207.41 -1.14671 -1.58461 0
M  V30 12642 C 1207.79 0.289498 -2.09106 0
M  V30 12643 O 1207.13 1.28751 -1.88773 0
M  V30 12644 C 1207.34 -2.18206 -2.72373 0
M  V30 12645 C 1208.69 -2.5201 -3.41726 0
M  V30 12646 O 1209.72 -2.16821 -2.82608 0
M  V30 12647 O 1208.58 -3.12368 -4.48429 0
M  V30 12648 H 1205.67 -0.443088 -0.698285 0
M  V30 12649 H 1208.22 -1.44552 -0.888978 0
M  V30 12650 H 1206.99 -3.14707 -2.32541 0
M  V30 12651 H 1206.61 -1.89372 -3.49605 0
M  V30 12652 N 1207.61 1.06304 -1.1635 0
M  V30 12653 C 1208.85 1.79366 -0.94634 0
M  V30 12654 C 1209.19 1.86981 0.524569 0
M  V30 12655 O 1208.46 1.36134 1.38917 0
M  V30 12656 C 1208.74 3.23861 -1.57436 0
M  V30 12657 C 1208.6 3.24327 -3.1166 0
M  V30 12658 C 1209.92 4.21409 -1.26895 0
M  V30 12659 H 1207.04 0.65115 -0.345215 0
M  V30 12660 H 1209.68 1.24325 -1.43678 0
M  V30 12661 H 1207.83 3.70862 -1.15731 0
M  V30 12662 H 1209.5 2.85488 -3.62346 0
M  V30 12663 H 1207.74 2.62983 -3.44997 0
M  V30 12664 H 1208.41 4.2626 -3.50723 0
M  V30 12665 H 1210.89 3.8285 -1.62989 0
M  V30 12666 H 1209.77 5.20778 -1.73439 0
M  V30 12667 H 1210.03 4.41701 -0.187768 0
M  V30 12668 N 1209.09 0.96196 1.24836 0
M  V30 12669 C 1210.31 0.63814 1.96813 0
M  V30 12670 C 1210.73 -0.79127 1.71419 0
M  V30 12671 O 1210.09 -1.5302 0.994546 0
M  V30 12672 C 1210.14 0.89626 3.50213 0
M  V30 12673 O 1209.86 2.26947 3.74735 0
M  V30 12674 C 1211.36 0.585836 4.39412 0
M  V30 12675 H 1208.58 0.238598 0.627146 0
M  V30 12676 H 1211.12 1.28833 1.58815 0
M  V30 12677 H 1209.28 0.292368 3.86295 0
M  V30 12678 H 1209.69 2.34514 4.69152 0
M  V30 12679 H 1211.17 0.816935 5.45921 0
M  V30 12680 H 1211.64 -0.479784 4.36572 0
M  V30 12681 H 1212.25 1.16938 4.08908 0
M  V30 12682 N 1210.56 -1.39601 0.731392 0
M  V30 12683 C 1211.51 -2.27907 0.0651931 0
M  V30 12684 C 1212.5 -1.44075 -0.716334 0
M  V30 12685 O 1213.69 -1.6702 -0.585936 0
M  V30 12686 C 1210.82 -3.32763 -0.844023 0
M  V30 12687 C 1209.9 -4.24062 -0.0568388 0
M  V30 12688 N 1210.3 -4.96448 0.968146 0
M  V30 12689 C 1208.59 -4.45075 -0.287037 0
M  V30 12690 C 1209.29 -5.6353 1.44252 0
M  V30 12691 N 1208.27 -5.38236 0.761772 0
M  V30 12692 H 1212.07 -2.81324 0.850539 0
M  V30 12693 H 1209.59 -1.5224 0.565396 0
M  V30 12694 H 1211.58 -3.94888 -1.33674 0
M  V30 12695 H 1210.24 -2.80905 -1.62857 0
M  V30 12696 H 1211.25 -5.00011 1.34942 0
M  V30 12697 H 1207.93 -4.04167 -1.04667 0
M  V30 12698 H 1209.32 -6.31487 2.29508 0
M  V30 12699 N 1212.04 -0.478751 -1.50152 0
M  V30 12700 C 1213.46 -0.133356 -1.59042 0
M  V30 12701 C 1213.66 1.36069 -1.48618 0
M  V30 12702 O 1212.71 2.13468 -1.34862 0
M  V30 12703 C 1214.03 -0.690369 -2.92668 0
M  V30 12704 C 1215.58 -0.654481 -3.06081 0
M  V30 12705 C 1216.05 -1.18917 -4.42293 0
M  V30 12706 N 1217.54 -1.14891 -4.48725 0
M  V30 12707 C 1218.28 -1.53305 -5.52526 0
M  V30 12708 N 1217.77 -1.99205 -6.63543 0
M  V30 12709 N 1219.57 -1.4486 -5.43113 0
M  V30 12710 H 1211.72 -1.45037 -1.55171 0
M  V30 12711 H 1213.98 -0.600254 -0.733757 0
M  V30 12712 H 1213.69 -1.7373 -3.05795 0
M  V30 12713 H 1213.56 -0.138227 -3.76947 0
M  V30 12714 H 1215.95 0.383564 -2.92597 0
M  V30 12715 H 1216.03 -1.24352 -2.2354 0
M  V30 12716 H 1215.67 -2.22588 -4.56527 0
M  V30 12717 H 1215.6 -0.57628 -5.23437 0
M  V30 12718 H 1218.09 -0.812344 -3.69066 0
M  V30 12719 H 1218.41 -2.26645 -7.38818 0
M  V30 12720 H 1216.75 -2.03164 -6.64642 0
M  V30 12721 H 1219.94 -1.08836 -4.55272 0
M  V30 12722 H 1220.11 -1.75123 -6.23888 0
M  V30 12723 N 1213.52 1.56172 -0.211661 0
M  V30 12724 C 1214.77 1.98039 0.422706 0
M  V30 12725 C 1215.1 1.09904 1.60472 0
M  V30 12726 O 1214.35 0.141771 1.95186 0
M  V30 12727 C 1214.65 3.45636 0.909442 0
M  V30 12728 C 1214.32 4.50613 -0.160982 0
M  V30 12729 C 1212.98 4.79043 -0.455064 0
M  V30 12730 C 1215.33 5.13624 -0.885426 0
M  V30 12731 C 1212.66 5.67771 -1.47828 0
M  V30 12732 C 1215.01 6.03459 -1.8979 0
M  V30 12733 C 1213.67 6.30238 -2.19901 0
M  V30 12734 H 1212.94 0.724676 0.154679 0
M  V30 12735 H 1215.59 1.8894 -0.312106 0
M  V30 12736 H 1213.9 3.51889 1.72283 0
M  V30 12737 H 1215.59 3.75395 1.40995 0
M  V30 12738 H 1212.18 4.28528 0.0783864 0
M  V30 12739 H 1216.37 4.91737 -0.671463 0
M  V30 12740 H 1211.62 5.86787 -1.7173 0
M  V30 12741 H 1215.8 6.51338 -2.46438 0
M  V30 12742 H 1213.42 6.98788 -2.9933 0
M  V30 12743 N 1215 -0.0618163 1.57479 0
M  V30 12744 C 1216.22 -0.775513 1.92355 0
M  V30 12745 C 1216.65 -1.69816 0.808949 0
M  V30 12746 O 1216.01 -1.79736 -0.23761 0
M  V30 12747 C 1216.05 -1.5367 3.26218 0
M  V30 12748 O 1215.16 -2.64802 3.16155 0
M  V30 12749 H 1214.5 -0.210909 0.629614 0
M  V30 12750 H 1217.03 -0.0270752 2.04582 0
M  V30 12751 H 1217.04 -1.91379 3.6033 0
M  V30 12752 H 1215.71 -0.859798 4.06916 0
M  V30 12753 H 1214.29 -2.29876 2.93618 0
M  V30 12754 N 1216.48 -1.54033 -0.333429 0
M  V30 12755 C 1217.7 -1.75716 -1.09232 0
M  V30 12756 C 1218.12 -0.501076 -1.82029 0
M  V30 12757 O 1217.48 0.527772 -1.74702 0
M  V30 12758 C 1217.53 -2.9439 -2.09802 0
M  V30 12759 O 1217.25 -4.15141 -1.39963 0
M  V30 12760 C 1218.75 -3.28206 -2.97987 0
M  V30 12761 H 1215.97 -0.586859 -0.325326 0
M  V30 12762 H 1218.51 -2.0089 -0.382555 0
M  V30 12763 H 1216.67 -2.71518 -2.76327 0
M  V30 12764 H 1217.08 -4.81826 -2.0723 0
M  V30 12765 H 1218.56 -4.14568 -3.64469 0
M  V30 12766 H 1219.03 -2.44944 -3.64553 0
M  V30 12767 H 1219.64 -3.5312 -2.37036 0
M  V30 12768 N 1217.95 0.594978 -1.45938 0
M  V30 12769 C 1218.89 1.71909 -1.51591 0
M  V30 12770 C 1219.9 1.57671 -0.405416 0
M  V30 12771 O 1221.09 1.65321 -0.673144 0
M  V30 12772 C 1218.19 3.10041 -1.3685 0
M  V30 12773 C 1217.36 3.50399 -2.61801 0
M  V30 12774 C 1216.42 4.67542 -2.41435 0
M  V30 12775 O 1215.45 4.74022 -3.15106 0
M  V30 12776 N 1216.65 5.6163 -1.46808 0
M  V30 12777 H 1219.41 1.67518 -2.48511 0
M  V30 12778 H 1216.97 0.78062 -1.41838 0
M  V30 12779 H 1218.97 3.86183 -1.21017 0
M  V30 12780 H 1217.54 3.08868 -0.481589 0
M  V30 12781 H 1216.76 2.64088 -2.92662 0
M  V30 12782 H 1218.04 3.74125 -3.44831 0
M  V30 12783 H 1217.44 5.5912 -0.860333 0
M  V30 12784 H 1216 6.37252 -1.36942 0
M  V30 12785 N 1219.43 1.33438 0.838571 0
M  V30 12786 C 1220.68 1.26106 1.59589 0
M  V30 12787 C 1221.03 -0.171524 1.91634 0
M  V30 12788 O 1220.33 -1.11368 1.55909 0
M  V30 12789 C 1220.52 2.07002 2.9135 0
M  V30 12790 C 1220.35 3.57981 2.72175 0
M  V30 12791 C 1219.12 4.27293 2.69719 0
M  V30 12792 C 1221.32 4.52308 2.4479 0
M  V30 12793 N 1219.3 5.64221 2.41925 0
M  V30 12794 C 1220.67 5.77127 2.26549 0
M  V30 12795 C 1222.73 4.4139 2.3039 0
M  V30 12796 C 1221.43 6.9226 1.95368 0
M  V30 12797 C 1223.45 5.56339 2.00602 0
M  V30 12798 C 1222.82 6.80167 1.83173 0
M  V30 12799 H 1218.92 0.516656 0.587018 0
M  V30 12800 H 1221.5 1.67982 0.984382 0
M  V30 12801 H 1219.67 1.67446 3.50452 0
M  V30 12802 H 1221.4 1.91437 3.56558 0
M  V30 12803 H 1218.16 3.79571 2.83236 0
M  V30 12804 H 1218.58 6.36403 2.30911 0
M  V30 12805 H 1223.22 3.46289 2.42577 0
M  V30 12806 H 1220.94 7.87357 1.81918 0
M  V30 12807 H 1224.53 5.49827 1.90214 0
M  V30 12808 H 1223.41 7.67609 1.60455 0
M  V30 12809 N 1220.91 -1.05686 1.16912 0
M  V30 12810 C 1221.82 -2.16824 0.8958 0
M  V30 12811 C 1222.84 -1.73482 -0.134215 0
M  V30 12812 O 1224.01 -2.01352 0.0438776 0
M  V30 12813 C 1221.08 -3.44298 0.407427 0
M  V30 12814 C 1220.14 -4.02114 1.50342 0
M  V30 12815 C 1219.37 -5.23503 1.03826 0
M  V30 12816 O 1219.59 -5.70295 -0.109579 0
M  V30 12817 O 1218.53 -5.73432 1.8292 0
M  V30 12818 H 1222.35 -2.42725 1.82533 0
M  V30 12819 H 1219.94 -1.15339 0.949589 0
M  V30 12820 H 1221.82 -4.21159 0.142356 0
M  V30 12821 H 1220.5 -3.19908 -0.494009 0
M  V30 12822 H 1219.4 -3.26715 1.82231 0
M  V30 12823 H 1220.74 -4.30811 2.38039 0
M  V30 12824 N 1222.39 -0.968567 -1.24324 0
M  V30 12825 C 1223.35 -0.504307 -2.23583 0
M  V30 12826 C 1224.35 0.399626 -1.55755 0
M  V30 12827 O 1225.54 0.194966 -1.73106 0
M  V30 12828 C 1222.67 0.26956 -3.39833 0
M  V30 12829 H 1223.87 -1.3818 -2.6617 0
M  V30 12830 H 1221.42 -0.753241 -1.36952 0
M  V30 12831 H 1222.15 1.16411 -3.02686 0
M  V30 12832 H 1221.94 -0.379133 -3.90263 0
M  V30 12833 H 1223.43 0.583376 -4.13505 0
M  V30 12834 N 1223.87 1.39211 -0.738786 0
M  V30 12835 C 1224.78 2.34374 -0.102958 0
M  V30 12836 C 1225.79 1.58514 0.717596 0
M  V30 12837 O 1226.97 1.90786 0.645186 0
M  V30 12838 C 1224.03 3.37562 0.790733 0
M  V30 12839 C 1223.09 4.29279 -0.0425028 0
M  V30 12840 C 1222.33 5.27539 0.808628 0
M  V30 12841 O 1222.55 5.32396 2.04722 0
M  V30 12842 O 1221.48 6.0144 0.235279 0
M  V30 12843 H 1225.31 2.90412 -0.888498 0
M  V30 12844 H 1222.9 1.40803 -0.499498 0
M  V30 12845 H 1224.78 4.00783 1.30196 0
M  V30 12846 H 1223.45 2.83903 1.55502 0
M  V30 12847 H 1222.36 3.69268 -0.599335 0
M  V30 12848 H 1223.69 4.86154 -0.7691 0
M  V30 12849 N 1225.34 0.486708 1.49896 0
M  V30 12850 C 1226.59 -0.0627279 2.02003 0
M  V30 12851 C 1226.91 -1.38799 1.36967 0
M  V30 12852 O 1226.18 -1.88868 0.520173 0
M  V30 12853 H 1224.76 -0.0261718 0.746541 0
M  V30 12854 H 1227.43 0.640692 1.84068 0
M  V30 12855 H 1226.52 -0.202856 3.1144 0
M  V30 12856 N 1226.82 -1.56058 0.219941 0
M  V30 12857 C 1228.24 -1.59024 -0.135476 0
M  V30 12858 C 1228.44 -1.23672 -1.59083 0
M  V30 12859 O 1227.5 -0.971197 -2.33075 0
M  V30 12860 C 1228.81 -3.00103 0.189356 0
M  V30 12861 C 1230.36 -3.12724 0.131463 0
M  V30 12862 C 1230.83 -4.55977 0.429947 0
M  V30 12863 N 1232.32 -4.61643 0.37946 0
M  V30 12864 C 1233.06 -5.70419 0.58393 0
M  V30 12865 N 1232.55 -6.87565 0.850088 0
M  V30 12866 N 1234.35 -5.59722 0.516477 0
M  V30 12867 H 1226.5 -1.77313 1.16935 0
M  V30 12868 H 1228.76 -0.824096 0.468583 0
M  V30 12869 H 1228.47 -3.30616 1.19941 0
M  V30 12870 H 1228.34 -3.73919 -0.49641 0
M  V30 12871 H 1230.73 -2.82008 -0.869223 0
M  V30 12872 H 1230.81 -2.41241 0.85068 0
M  V30 12873 H 1230.45 -4.8741 1.42806 0
M  V30 12874 H 1230.38 -5.25684 -0.310444 0
M  V30 12875 H 1232.87 -3.77465 0.181373 0
M  V30 12876 H 1233.19 -7.66378 0.994251 0
M  V30 12877 H 1231.53 -6.89313 0.887265 0
M  V30 12878 H 1234.72 -4.6708 0.308784 0
M  V30 12879 H 1234.9 -6.4443 0.679236 0
M  V30 12880 N 1228.3 0.053464 -1.57509 0
M  V30 12881 C 1229.23 1.06151 -2.07977 0
M  V30 12882 C 1230.21 1.3924 -0.977047 0
M  V30 12883 O 1231.4 1.48549 -1.25087 0
M  V30 12884 C 1228.53 2.36969 -2.53895 0
M  V30 12885 C 1227.48 2.18186 -3.6821 0
M  V30 12886 C 1226.81 3.54551 -4.00247 0
M  V30 12887 C 1228.11 1.588 -4.97574 0
M  V30 12888 H 1229.8 0.641483 -2.92447 0
M  V30 12889 H 1227.35 0.307122 -1.40687 0
M  V30 12890 H 1229.3 3.07797 -2.87817 0
M  V30 12891 H 1228.02 2.80986 -1.66476 0
M  V30 12892 H 1226.68 1.49796 -3.34599 0
M  V30 12893 H 1226.33 3.96171 -3.09932 0
M  V30 12894 H 1226.03 3.42816 -4.77232 0
M  V30 12895 H 1227.56 4.2678 -4.36682 0
M  V30 12896 H 1228.97 2.19515 -5.29609 0
M  V30 12897 H 1227.37 1.57711 -5.79006 0
M  V30 12898 H 1228.44 0.551254 -4.81756 0
M  V30 12899 N 1229.78 1.54207 0.325255 0
M  V30 12900 C 1230.74 1.82757 1.38321 0
M  V30 12901 C 1231.74 0.699312 1.44797 0
M  V30 12902 O 1232.93 0.96762 1.44854 0
M  V30 12903 C 1230.06 1.98608 2.7707 0
M  V30 12904 H 1231.26 2.7728 1.14261 0
M  V30 12905 H 1228.81 1.45899 0.560647 0
M  V30 12906 H 1229.55 1.0629 3.06387 0
M  V30 12907 H 1229.33 2.80707 2.73763 0
M  V30 12908 H 1230.82 2.2215 3.53609 0
M  V30 12909 N 1231.26 -0.58723 1.46251 0
M  V30 12910 C 1232.67 -0.910129 1.31106 0
M  V30 12911 C 1232.87 -1.99557 0.279141 0
M  V30 12912 O 1231.93 -2.50466 -0.319867 0
M  V30 12913 C 1233.24 -1.33177 2.69601 0
M  V30 12914 C 1234.79 -1.44486 2.77656 0
M  V30 12915 C 1235.27 -1.90018 4.16722 0
M  V30 12916 N 1236.76 -1.97219 4.19117 0
M  V30 12917 C 1237.49 -2.33714 5.23608 0
M  V30 12918 N 1236.99 -2.69034 6.3843 0
M  V30 12919 N 1238.78 -2.3423 5.10972 0
M  V30 12920 H 1230.93 0.12987 2.12003 0
M  V30 12921 H 1233.19 -0.00456718 0.947989 0
M  V30 12922 H 1232.9 -0.608243 3.464 0
M  V30 12923 H 1232.77 -2.29421 2.99409 0
M  V30 12924 H 1235.16 -2.15926 2.01147 0
M  V30 12925 H 1235.24 -0.465047 2.51537 0
M  V30 12926 H 1234.89 -1.19159 4.93724 0
M  V30 12927 H 1234.82 -2.88949 4.40245 0
M  V30 12928 H 1237.31 -1.72431 3.36268 0
M  V30 12929 H 1237.62 -2.95822 7.13939 0
M  V30 12930 H 1235.97 -2.66683 6.41798 0
M  V30 12931 H 1239.16 -2.06056 4.20308 0
M  V30 12932 H 1239.33 -2.62345 5.92519 0
M  V30 12933 N 1232.74 -1.33881 -0.831482 0
M  V30 12934 C 1233.68 -1.24748 -1.94182 0
M  V30 12935 C 1234.65 -0.124516 -1.65633 0
M  V30 12936 O 1235.84 -0.304045 -1.88362 0
M  V30 12937 C 1232.98 -1.00016 -3.30289 0
M  V30 12938 C 1232.09 -2.21007 -3.71187 0
M  V30 12939 C 1231.23 -1.89629 -4.962 0
M  V30 12940 C 1230.26 -3.06811 -5.29654 0
M  V30 12941 N 1229.4 -2.75372 -6.45844 0
M  V30 12942 H 1234.24 -2.19709 -2.01325 0
M  V30 12943 H 1231.78 -1.09245 -0.985081 0
M  V30 12944 H 1233.74 -0.837167 -4.08714 0
M  V30 12945 H 1232.37 -0.0872582 -3.22682 0
M  V30 12946 H 1231.42 -2.48256 -2.88224 0
M  V30 12947 H 1232.73 -3.08587 -3.91887 0
M  V30 12948 H 1231.88 -1.70016 -5.82391 0
M  V30 12949 H 1230.62 -0.992964 -4.77485 0
M  V30 12950 H 1229.63 -3.27029 -4.41964 0
M  V30 12951 H 1230.85 -3.97909 -5.50314 0
M  V30 12952 H 1228.8 -1.87607 -6.28601 0
M  V30 12953 H 1228.72 -3.56483 -6.66675 0
M  V30 12954 H 1229.98 -2.59244 -7.35128 0
M  V30 12955 N 1234.21 1.05064 -1.1747 0
M  V30 12956 C 1235.44 1.81497 -0.987031 0
M  V30 12957 C 1235.85 1.83323 0.467921 0
M  V30 12958 O 1235.19 1.26006 1.33672 0
M  V30 12959 C 1235.26 3.28826 -1.45306 0
M  V30 12960 C 1234.92 3.50681 -2.93039 0
M  V30 12961 C 1235.92 3.42699 -3.90965 0
M  V30 12962 C 1233.6 3.77602 -3.31243 0
M  V30 12963 C 1235.6 3.61325 -5.25093 0
M  V30 12964 C 1233.28 3.95876 -4.65538 0
M  V30 12965 C 1234.28 3.87737 -5.62271 0
M  V30 12966 O 1233.97 4.055 -6.94136 0
M  V30 12967 H 1233.7 0.578734 -0.349347 0
M  V30 12968 H 1236.26 1.33373 -1.56208 0
M  V30 12969 H 1234.49 3.77872 -0.821581 0
M  V30 12970 H 1236.17 3.86788 -1.23085 0
M  V30 12971 H 1236.94 3.21877 -3.62795 0
M  V30 12972 H 1232.82 3.8304 -2.56517 0
M  V30 12973 H 1236.36 3.54888 -6.00583 0
M  V30 12974 H 1232.26 4.16191 -4.93412 0
M  V30 12975 H 1233.03 4.22718 -7.00894 0
M  V30 12976 N 1235.69 0.975146 1.23809 0
M  V30 12977 C 1237.11 0.682899 1.44252 0
M  V30 12978 C 1237.31 -0.752739 1.86912 0
M  V30 12979 O 1236.36 -1.52579 2.01186 0
M  V30 12980 C 1237.68 1.67335 2.49839 0
M  V30 12981 C 1239.22 1.6868 2.63659 0
M  V30 12982 C 1239.7 2.66542 3.72451 0
M  V30 12983 N 1241.19 2.65028 3.79887 0
M  V30 12984 C 1241.93 3.37421 4.63611 0
M  V30 12985 N 1241.42 4.19355 5.51465 0
M  V30 12986 N 1243.21 3.2621 4.57759 0
M  V30 12987 H 1235.37 1.9026 0.94418 0
M  V30 12988 H 1237.63 0.819543 0.476502 0
M  V30 12989 H 1237.33 2.69978 2.25399 0
M  V30 12990 H 1237.21 1.45201 3.48133 0
M  V30 12991 H 1239.6 0.667438 2.87453 0
M  V30 12992 H 1239.68 1.94878 1.65699 0
M  V30 12993 H 1239.32 3.68617 3.49405 0
M  V30 12994 H 1239.25 2.3762 4.69941 0
M  V30 12995 H 1241.74 2.05562 3.171 0
M  V30 12996 H 1242.05 4.71461 6.12327 0
M  V30 12997 H 1240.4 4.23447 5.51106 0
M  V30 12998 H 1243.59 2.61656 3.88142 0
M  V30 12999 H 1243.76 3.82889 5.22781 0
M  V30 13000 N 1237.17 -1.38817 0.746158 0
M  V30 13001 C 1238.08 -2.34316 0.115386 0
M  V30 13002 C 1239.1 -1.58892 -0.709179 0
M  V30 13003 O 1240.27 -1.91126 -0.635059 0
M  V30 13004 C 1237.34 -3.37977 -0.772821 0
M  V30 13005 C 1236.4 -4.2925 0.0652679 0
M  V30 13006 C 1235.63 -5.2796 -0.78064 0
M  V30 13007 O 1235.85 -5.33474 -2.01896 0
M  V30 13008 O 1234.79 -6.01556 -0.20338 0
M  V30 13009 H 1238.61 -2.89937 0.903887 0
M  V30 13010 H 1236.2 -1.40536 0.506958 0
M  V30 13011 H 1238.08 -4.01468 -1.28068 0
M  V30 13012 H 1236.76 -2.84723 -1.53994 0
M  V30 13013 H 1235.66 -3.68945 0.61891 0
M  V30 13014 H 1237 -4.85739 0.794871 0
M  V30 13015 N 1238.65 -0.49465 -1.49636 0
M  V30 13016 C 1239.58 0.276606 -2.31856 0
M  V30 13017 C 1240.56 0.968499 -1.39836 0
M  V30 13018 O 1241.74 0.96113 -1.68748 0
M  V30 13019 C 1238.87 1.34522 -3.20189 0
M  V30 13020 C 1237.83 0.773571 -4.20951 0
M  V30 13021 C 1237.15 1.94223 -4.98178 0
M  V30 13022 C 1238.45 -0.231096 -5.21788 0
M  V30 13023 H 1240.15 -0.409668 -2.96584 0
M  V30 13024 H 1237.69 -0.198461 -1.42626 0
M  V30 13025 H 1239.65 1.89244 -3.76517 0
M  V30 13026 H 1238.37 2.06059 -2.53392 0
M  V30 13027 H 1237.03 0.248144 -3.65759 0
M  V30 13028 H 1236.68 2.64514 -4.27834 0
M  V30 13029 H 1236.38 1.56584 -5.66353 0
M  V30 13030 H 1237.9 2.49391 -5.57348 0
M  V30 13031 H 1239.32 0.227768 -5.72847 0
M  V30 13032 H 1237.71 -0.522984 -5.97817 0
M  V30 13033 H 1238.78 -1.14914 -4.71087 0
M  V30 13034 N 1240.13 1.55939 -0.228214 0
M  V30 13035 C 1241.4 1.90329 0.451033 0
M  V30 13036 C 1241.78 1.14646 1.77255 0
M  V30 13037 O 1241.13 0.257912 2.2704 0
M  V30 13038 C 1241.34 3.43129 0.637456 0
M  V30 13039 C 1242.69 4.14022 0.94186 0
M  V30 13040 O 1243.71 3.48764 0.724002 0
M  V30 13041 O 1242.57 5.29418 1.35568 0
M  V30 13042 H 1239.67 0.791591 0.2394 0
M  V30 13043 H 1242.21 1.67524 -0.270893 0
M  V30 13044 H 1240.98 3.90191 -0.294435 0
M  V30 13045 H 1240.61 3.71735 1.41062 0
M  V30 13046 N 1241.6 -0.0451101 1.57535 0
M  V30 13047 C 1242.51 -1.06796 2.08882 0
M  V30 13048 C 1243.53 -1.40682 1.02394 0
M  V30 13049 O 1244.71 -1.50324 1.34033 0
M  V30 13050 C 1241.77 -2.35467 2.54472 0
M  V30 13051 C 1240.83 -2.0831 3.75374 0
M  V30 13052 C 1240.07 -3.30846 4.1878 0
M  V30 13053 O 1240.29 -4.40945 3.61834 0
M  V30 13054 O 1239.22 -3.17488 5.11356 0
M  V30 13055 H 1243.05 -0.661658 2.96405 0
M  V30 13056 H 1240.63 -0.26104 1.47102 0
M  V30 13057 H 1242.52 -3.11143 2.84198 0
M  V30 13058 H 1241.19 -2.75425 1.70068 0
M  V30 13059 H 1240.1 -1.30254 3.50692 0
M  V30 13060 H 1241.43 -1.73218 4.60713 0
M  V30 13061 N 1243.08 -1.54377 -0.317073 0
M  V30 13062 C 1244.01 -1.8721 -1.39552 0
M  V30 13063 C 1244.99 -0.729483 -1.53664 0
M  V30 13064 O 1246.18 -0.983799 -1.67437 0
M  V30 13065 C 1243.31 -2.1052 -2.76222 0
M  V30 13066 C 1242.26 -3.26366 -2.76892 0
M  V30 13067 C 1241.59 -3.35061 -4.16699 0
M  V30 13068 C 1242.89 -4.63862 -2.40061 0
M  V30 13069 H 1244.58 -2.77532 -1.12323 0
M  V30 13070 H 1242.13 -1.33536 -0.538897 0
M  V30 13071 H 1244.08 -2.32073 -3.51739 0
M  V30 13072 H 1242.81 -1.16953 -3.04942 0
M  V30 13073 H 1241.46 -3.0471 -2.03831 0
M  V30 13074 H 1241.11 -2.39041 -4.4257 0
M  V30 13075 H 1240.81 -4.12923 -4.18053 0
M  V30 13076 H 1242.34 -3.58856 -4.94019 0
M  V30 13077 H 1243.75 -4.85252 -3.05292 0
M  V30 13078 H 1242.15 -5.44321 -2.52655 0
M  V30 13079 H 1243.22 -4.6567 -1.35202 0
M  V30 13080 N 1244.56 0.579466 -1.4656 0
M  V30 13081 C 1245.49 1.69846 -1.60233 0
M  V30 13082 C 1246.47 1.6397 -0.452533 0
M  V30 13083 O 1247.66 1.81936 -0.679174 0
M  V30 13084 C 1244.79 3.08488 -1.59538 0
M  V30 13085 C 1243.74 3.29197 -2.7352 0
M  V30 13086 C 1243.07 4.684 -2.57887 0
M  V30 13087 C 1244.37 3.16718 -4.15315 0
M  V30 13088 H 1246.06 1.5866 -2.53904 0
M  V30 13089 H 1243.61 0.761873 -1.22194 0
M  V30 13090 H 1245.56 3.86595 -1.67696 0
M  V30 13091 H 1244.28 3.20581 -0.62413 0
M  V30 13092 H 1242.94 2.53491 -2.64836 0
M  V30 13093 H 1242.59 4.77262 -1.58839 0
M  V30 13094 H 1242.29 4.83208 -3.34341 0
M  V30 13095 H 1243.81 5.48671 -2.67942 0
M  V30 13096 H 1245.23 3.84666 -4.25094 0
M  V30 13097 H 1243.63 3.43047 -4.92381 0
M  V30 13098 H 1244.7 2.13755 -4.35244 0
M  V30 13099 N 1246.04 1.3432 0.824371 0
M  V30 13100 C 1246.97 1.2842 1.95014 0
M  V30 13101 C 1247.95 0.161925 1.69328 0
M  V30 13102 O 1249.13 0.354052 1.90945 0
M  V30 13103 C 1246.26 1.03741 3.31444 0
M  V30 13104 C 1245.22 2.12419 3.71567 0
M  V30 13105 C 1244.54 1.72931 5.05963 0
M  V30 13106 C 1245.84 3.54235 3.83817 0
M  V30 13107 H 1247.54 2.22614 2.00209 0
M  V30 13108 H 1245.08 1.07165 0.961856 0
M  V30 13109 H 1247.04 0.982586 4.09784 0
M  V30 13110 H 1245.76 0.0598892 3.26545 0
M  V30 13111 H 1244.42 2.16968 2.955 0
M  V30 13112 H 1244.07 0.738433 4.9755 0
M  V30 13113 H 1243.77 2.45668 5.3378 0
M  V30 13114 H 1245.29 1.68941 5.86763 0
M  V30 13115 H 1246.71 3.52106 4.52432 0
M  V30 13116 H 1245.1 4.25581 4.23085 0
M  V30 13117 H 1246.17 3.91682 2.85856 0
M  V30 13118 N 1247.52 -1.0444 1.18026 0
M  V30 13119 C 1248.77 -1.7697 0.9677 0
M  V30 13120 C 1249.08 -1.88995 -0.503994 0
M  V30 13121 O 1250.28 -2.58342 -0.834968 0
M  V30 13122 C 1248.74 -3.1816 1.68232 0
M  V30 13123 C 1248.35 -3.14241 3.19307 0
M  V30 13124 C 1250.09 -3.95095 1.55244 0
M  V30 13125 C 1248 -4.50266 3.83425 0
M  V30 13126 H 1246.93 -0.663355 0.358436 0
M  V30 13127 H 1249.58 -1.17003 1.4136 0
M  V30 13128 H 1247.96 -3.78501 1.16418 0
M  V30 13129 H 1249.14 -2.63373 3.78115 0
M  V30 13130 H 1247.45 -2.50805 3.32394 0
M  V30 13131 H 1250.05 -4.95681 2.00511 0
M  V30 13132 H 1250.39 -4.13236 0.504125 0
M  V30 13133 H 1250.92 -3.4132 2.04317 0
M  V30 13134 H 1247.66 -4.37329 4.88286 0
M  V30 13135 H 1247.18 -5.01251 3.29404 0
M  V30 13136 H 1248.86 -5.1919 3.86071 0
M  V30 13137 N 1248.99 -0.981699 -1.2329 0
M  V30 13138 C 1250.24 -0.652266 -1.92024 0
M  V30 13139 C 1250.57 0.812297 -1.76396 0
M  V30 13140 O 1249.85 1.5861 -1.12575 0
M  V30 13141 C 1250.13 -1.04506 -3.44602 0
M  V30 13142 C 1249.98 -2.56735 -3.69333 0
M  V30 13143 C 1251.3 -0.589937 -4.36128 0
M  V30 13144 H 1248.42 -0.238437 -0.697364 0
M  V30 13145 H 1251.06 -1.22322 -1.45387 0
M  V30 13146 H 1249.21 -0.559242 -3.84454 0
M  V30 13147 H 1250.89 -3.12901 -3.38955 0
M  V30 13148 H 1249.13 -2.9931 -3.14 0
M  V30 13149 H 1249.8 -2.79269 -4.76144 0
M  V30 13150 H 1252.28 -1.00706 -4.0373 0
M  V30 13151 H 1251.15 -0.893192 -5.41584 0
M  V30 13152 H 1251.41 0.509707 -4.39152 0
M  V30 13153 N 1250.47 1.3842 -0.753509 0
M  V30 13154 C 1251.89 1.53668 -0.431095 0
M  V30 13155 C 1252.09 1.71626 1.05578 0
M  V30 13156 O 1251.14 1.72723 1.84182 0
M  V30 13157 C 1252.46 2.74381 -1.23027 0
M  V30 13158 C 1254.01 2.8823 -1.22034 0
M  V30 13159 C 1254.48 4.11904 -2.00248 0
M  V30 13160 N 1255.97 4.18981 -1.97508 0
M  V30 13161 C 1256.71 5.13667 -2.5482 0
M  V30 13162 N 1256.2 6.14027 -3.20846 0
M  V30 13163 N 1258 5.06017 -2.44751 0
M  V30 13164 H 1250.15 1.25012 -1.71714 0
M  V30 13165 H 1252.41 0.607296 -0.727939 0
M  V30 13166 H 1252.12 2.67515 -2.28317 0
M  V30 13167 H 1251.99 3.67565 -0.847098 0
M  V30 13168 H 1254.38 2.94578 -0.175502 0
M  V30 13169 H 1254.46 1.96057 -1.64303 0
M  V30 13170 H 1254.1 4.06318 -3.04742 0
M  V30 13171 H 1254.03 5.03157 -1.55373 0
M  V30 13172 H 1256.52 3.47104 -1.49423 0
M  V30 13173 H 1256.84 6.82771 -3.61999 0
M  V30 13174 H 1255.18 6.1436 -3.24941 0
M  V30 13175 H 1258.37 4.26552 -1.92797 0
M  V30 13176 H 1258.54 5.7963 -2.89713 0
M  V30 13177 N 1251.95 0.502579 1.49372 0
M  V30 13178 C 1252.91 -0.263993 2.27675 0
M  V30 13179 C 1253.91 -0.892538 1.33755 0
M  V30 13180 O 1255.1 -0.756826 1.56901 0
M  V30 13181 C 1252.24 -1.37895 3.11765 0
M  V30 13182 H 1253.43 0.423132 2.969 0
M  V30 13183 H 1250.98 0.257595 1.54163 0
M  V30 13184 H 1251.72 -2.10018 2.47109 0
M  V30 13185 H 1251.5 -0.933694 3.80821 0
M  V30 13186 H 1252.99 -1.91889 3.70902 0
M  V30 13187 N 1253.43 -1.55816 0.23648 0
M  V30 13188 C 1254.36 -2.16945 -0.707826 0
M  V30 13189 C 1255.34 -1.11832 -1.18036 0
M  V30 13190 O 1256.52 -1.40166 -1.26039 0
M  V30 13191 C 1253.65 -2.76175 -1.96074 0
M  V30 13192 C 1252.7 -3.9425 -1.62695 0
M  V30 13193 S 1253.53 -5.30381 -0.738663 0
M  V30 13194 C 1254.69 -5.93059 -2.00081 0
M  V30 13195 H 1254.92 -2.96703 -0.188303 0
M  V30 13196 H 1252.45 -1.54386 0.0210284 0
M  V30 13197 H 1254.41 -3.10938 -2.68007 0
M  V30 13198 H 1253.07 -1.96382 -2.45138 0
M  V30 13199 H 1252.26 -4.34247 -2.55823 0
M  V30 13200 H 1251.87 -3.6071 -0.988129 0
M  V30 13201 H 1254.16 -6.09941 -2.94921 0
M  V30 13202 H 1255.1 -6.88739 -1.64449 0
M  V30 13203 H 1255.51 -5.2203 -2.14815 0
M  V30 13204 N 1254.91 0.036755 -1.57557 0
M  V30 13205 C 1256.32 0.392264 -1.54704 0
M  V30 13206 C 1256.52 1.77076 -0.96157 0
M  V30 13207 O 1255.58 2.45766 -0.579263 0
M  V30 13208 C 1256.89 0.301168 -2.99188 0
M  V30 13209 C 1258.44 0.378813 -3.10699 0
M  V30 13210 C 1258.91 0.317249 -4.569 0
M  V30 13211 N 1260.41 0.376277 -4.61669 0
M  V30 13212 C 1261.14 0.351411 -5.72322 0
M  V30 13213 N 1260.64 0.279288 -6.92237 0
M  V30 13214 N 1262.43 0.400571 -5.60671 0
M  V30 13215 H 1254.58 -0.865455 -1.93968 0
M  V30 13216 H 1256.84 -0.328339 -0.889324 0
M  V30 13217 H 1256.55 -0.64582 -3.4572 0
M  V30 13218 H 1256.42 1.09784 -3.6087 0
M  V30 13219 H 1258.81 1.31623 -2.6412 0
M  V30 13220 H 1258.89 -0.447072 -2.51863 0
M  V30 13221 H 1258.54 -0.616469 -5.04145 0
M  V30 13222 H 1258.47 1.16114 -5.13639 0
M  V30 13223 H 1260.96 0.434843 -3.7539 0
M  V30 13224 H 1261.27 0.265202 -7.72345 0
M  V30 13225 H 1259.61 0.24545 -6.94566 0
M  V30 13226 H 1262.81 0.454854 -4.65885 0
M  V30 13227 H 1262.98 0.377724 -6.46898 0
M  V30 13228 N 1256.39 1.54543 0.308881 0
M  V30 13229 C 1257.32 1.79818 1.40502 0
M  V30 13230 C 1258.3 0.648927 1.4909 0
M  V30 13231 O 1259.48 0.888009 1.66273 0
M  V30 13232 C 1256.61 1.92787 2.7848 0
M  V30 13233 C 1255.65 3.15167 2.87353 0
M  V30 13234 S 1256.49 4.73427 2.50255 0
M  V30 13235 C 1257.64 4.89321 3.90276 0
M  V30 13236 H 1257.88 2.7251 1.18852 0
M  V30 13237 H 1255.41 1.45854 0.506551 0
M  V30 13238 H 1257.37 2.00944 3.57955 0
M  V30 13239 H 1256.03 1.01047 2.97403 0
M  V30 13240 H 1255.22 3.2102 3.88538 0
M  V30 13241 H 1254.82 3.05416 2.15864 0
M  V30 13242 H 1257.11 4.7286 4.8519 0
M  V30 13243 H 1258.06 5.91418 3.89398 0
M  V30 13244 H 1258.47 4.17524 3.79913 0
M  V30 13245 N 1257.86 -0.571685 1.46866 0
M  V30 13246 C 1259.11 -1.32685 1.52444 0
M  V30 13247 C 1259.43 -1.94147 0.182225 0
M  V30 13248 O 1258.7 -1.79159 -0.792385 0
M  V30 13249 H 1257.28 -0.492679 0.561495 0
M  V30 13250 H 1259.94 -0.668694 1.8307 0
M  V30 13251 H 1259.04 -2.12788 2.28315 0
M  V30 13252 N 1259.34 -1.34755 -0.817236 0
M  V30 13253 C 1260.57 -1.30333 -1.60303 0
M  V30 13254 C 1260.98 0.12357 -1.88796 0
M  V30 13255 O 1260.32 1.08279 -1.48396 0
M  V30 13256 C 1260.38 -2.03179 -2.96578 0
M  V30 13257 C 1260.05 -3.52414 -2.90952 0
M  V30 13258 C 1261.05 -4.47213 -2.65136 0
M  V30 13259 C 1258.73 -3.9491 -3.10405 0
M  V30 13260 C 1260.72 -5.82481 -2.58832 0
M  V30 13261 C 1258.41 -5.30277 -3.03726 0
M  V30 13262 C 1259.41 -6.23875 -2.77973 0
M  V30 13263 O 1259.1 -7.5676 -2.71237 0
M  V30 13264 H 1258.83 -0.449615 -0.5048 0
M  V30 13265 H 1261.38 -1.7803 -1.02443 0
M  V30 13266 H 1259.61 -1.50104 -3.56379 0
M  V30 13267 H 1261.3 -1.91972 -3.57633 0
M  V30 13268 H 1262.07 -4.157 -2.49836 0
M  V30 13269 H 1257.95 -3.22451 -3.29464 0
M  V30 13270 H 1261.49 -6.55508 -2.38652 0
M  V30 13271 H 1257.39 -5.61406 -3.1858 0
M  V30 13272 H 1258.16 -7.66562 -2.86923 0
M  V30 13273 N 1260.82 1.03812 -1.18578 0
M  V30 13274 C 1261.78 2.10049 -0.91718 0
M  V30 13275 C 1262.78 1.60498 0.0985122 0
M  V30 13276 O 1263.97 1.73674 -0.135213 0
M  V30 13277 C 1261.1 3.38813 -0.376599 0
M  V30 13278 H 1262.3 2.3531 -1.85927 0
M  V30 13279 H 1259.85 1.20277 -0.998156 0
M  V30 13280 H 1260.59 3.19216 0.571983 0
M  V30 13281 H 1260.37 3.76096 -1.10881 0
M  V30 13282 H 1261.86 4.17084 -0.207453 0
M  V30 13283 N 1262.3 0.988223 1.22768 0
M  V30 13284 C 1263.26 0.539813 2.22752 0
M  V30 13285 C 1264.26 -0.374796 1.56371 0
M  V30 13286 O 1265.45 -0.167402 1.73394 0
M  V30 13287 C 1262.58 -0.215461 3.40218 0
M  V30 13288 H 1263.78 1.42397 2.63938 0
M  V30 13289 H 1261.33 0.774933 1.35737 0
M  V30 13290 H 1262.06 -1.11581 3.045 0
M  V30 13291 H 1261.85 0.441173 3.8961 0
M  V30 13292 H 1263.34 -0.517517 4.14381 0
M  V30 13293 N 1263.78 -1.38018 0.760839 0
M  V30 13294 C 1265.19 -1.53437 0.439239 0
M  V30 13295 C 1265.39 -1.72184 -1.04666 0
M  V30 13296 O 1264.45 -1.73698 -1.83263 0
M  V30 13297 C 1265.76 -2.73724 1.24481 0
M  V30 13298 C 1267.31 -2.87579 1.23561 0
M  V30 13299 C 1267.78 -4.10836 2.02429 0
M  V30 13300 N 1269.27 -4.17928 1.99727 0
M  V30 13301 C 1270.01 -5.12309 2.57541 0
M  V30 13302 N 1269.51 -6.12317 3.24098 0
M  V30 13303 N 1271.3 -5.04712 2.47431 0
M  V30 13304 H 1263.45 -1.241 1.72375 0
M  V30 13305 H 1265.71 -0.603427 0.73115 0
M  V30 13306 H 1265.42 -2.663 2.29732 0
M  V30 13307 H 1265.29 -3.67111 0.866579 0
M  V30 13308 H 1267.68 -2.9448 0.191122 0
M  V30 13309 H 1267.76 -1.95183 1.6534 0
M  V30 13310 H 1267.4 -4.04696 3.06893 0
M  V30 13311 H 1267.33 -5.02326 1.58039 0
M  V30 13312 H 1269.83 -3.46307 1.51262 0
M  V30 13313 H 1270.14 -6.80842 3.65615 0
M  V30 13314 H 1268.48 -6.12628 3.28195 0
M  V30 13315 H 1271.67 -4.25524 1.95057 0
M  V30 13316 H 1271.85 -5.78085 2.92783 0
M  V30 13317 N 1265.25 -0.510493 -1.49103 0
M  V30 13318 C 1266.67 -0.167061 -1.58723 0
M  V30 13319 C 1266.87 1.32886 -1.51471 0
M  V30 13320 O 1265.93 2.10559 -1.39359 0
M  V30 13321 C 1267.24 -0.752293 -2.91137 0
M  V30 13322 C 1268.79 -0.719258 -3.04624 0
M  V30 13323 C 1269.26 -1.28272 -4.39671 0
M  V30 13324 N 1270.75 -1.24383 -4.46187 0
M  V30 13325 C 1271.49 -1.6499 -5.4915 0
M  V30 13326 N 1270.98 -2.13235 -6.59168 0
M  V30 13327 N 1272.78 -1.56348 -5.39918 0
M  V30 13328 H 1264.93 -1.48296 -1.5206 0
M  V30 13329 H 1267.19 -0.615683 -0.72086 0
M  V30 13330 H 1266.9 -1.80178 -3.02041 0
M  V30 13331 H 1266.77 -0.218152 -3.76569 0
M  V30 13332 H 1269.16 0.321413 -2.93344 0
M  V30 13333 H 1269.24 -1.29065 -2.20852 0
M  V30 13334 H 1268.88 -2.32222 -4.51703 0
M  V30 13335 H 1268.81 -0.687179 -5.22097 0
M  V30 13336 H 1271.3 -0.890446 -3.67259 0
M  V30 13337 H 1271.62 -2.42266 -7.33844 0
M  V30 13338 H 1269.96 -2.17216 -6.60183 0
M  V30 13339 H 1273.15 -1.18469 -4.52861 0
M  V30 13340 H 1273.33 -1.88317 -6.20033 0
M  V30 13341 N 1266.73 1.55688 -0.24474 0
M  V30 13342 C 1267.68 2.22682 0.67198 0
M  V30 13343 C 1268.67 1.21369 1.18178 0
M  V30 13344 O 1269.88 1.39387 1.13892 0
M  V30 13345 H 1266.25 0.714279 0.235181 0
M  V30 13346 H 1268.23 2.98282 0.0837704 0
M  V30 13347 C 1266.97 2.93835 1.85893 0
M  V30 13348 H 1266.3 3.71565 1.4758 0
M  V30 13349 H 1267.74 3.44077 2.47764 0
M  V30 13350 C 1266.2 1.97589 2.72874 0
M  V30 13351 O 1266.73 1.50758 3.72337 0
M  V30 13352 N 1264.93 1.64737 2.39395 0
M  V30 13353 H 1264.48 2.03015 1.58564 0
M  V30 13354 H 1264.44 1.00605 2.97869 0
M  V30 13355 N 1268.21 -0.0283989 1.57574 0
M  V30 13356 C 1269.44 -0.730831 1.93563 0
M  V30 13357 C 1269.85 -1.68857 0.844556 0
M  V30 13358 O 1269.21 -1.8162 -0.178971 0
M  V30 13359 C 1269.26 -1.48731 3.29486 0
M  V30 13360 O 1268.98 -0.568017 4.34402 0
M  V30 13361 C 1270.48 -2.28684 3.79761 0
M  V30 13362 H 1267.7 -0.205346 0.638807 0
M  V30 13363 H 1270.25 0.0142728 2.04495 0
M  V30 13364 H 1268.4 -2.18429 3.19949 0
M  V30 13365 H 1268.82 -1.09861 5.12865 0
M  V30 13366 H 1270.29 -2.77157 4.77376 0
M  V30 13367 H 1270.77 -3.10133 3.10989 0
M  V30 13368 H 1271.37 -1.64059 3.92383 0
M  V30 13369 N 1269.69 -1.54705 -0.300681 0
M  V30 13370 C 1270.64 -1.82062 -1.37249 0
M  V30 13371 C 1271.62 -0.677804 -1.45927 0
M  V30 13372 O 1272.81 -0.938447 -1.50074 0
M  V30 13373 C 1269.94 -2.07168 -2.73745 0
M  V30 13374 C 1269.03 -3.27634 -2.69289 0
M  V30 13375 N 1269.42 -4.48182 -2.34449 0
M  V30 13376 C 1267.72 -3.29668 -3.00391 0
M  V30 13377 C 1268.42 -5.30199 -2.39298 0
M  V30 13378 N 1267.39 -4.67929 -2.76665 0
M  V30 13379 H 1271.2 -2.72829 -1.09277 0
M  V30 13380 H 1268.71 -1.54209 -0.509259 0
M  V30 13381 H 1270.71 -2.24914 -3.51026 0
M  V30 13382 H 1269.37 -1.17668 -3.02629 0
M  V30 13383 H 1270.38 -4.74778 -2.06898 0
M  V30 13384 H 1267.06 -2.50276 -3.34168 0
M  V30 13385 H 1268.45 -6.36519 -2.15157 0
M  V30 13386 N 1271.17 0.563888 -1.47167 0
M  V30 13387 C 1272.1 1.68137 -1.62025 0
M  V30 13388 C 1273.08 1.63481 -0.469899 0
M  V30 13389 O 1274.26 1.81206 -0.698432 0
M  V30 13390 C 1271.39 3.06779 -1.62801 0
M  V30 13391 C 1270.35 3.26278 -2.76996 0
M  V30 13392 C 1269.67 4.65638 -2.62841 0
M  V30 13393 C 1270.97 3.12295 -4.18651 0
M  V30 13394 H 1272.67 1.55958 -2.55573 0
M  V30 13395 H 1270.21 0.74887 -1.22996 0
M  V30 13396 H 1272.17 3.84795 -1.71787 0
M  V30 13397 H 1270.89 3.19901 -0.658097 0
M  V30 13398 H 1269.55 2.50668 -2.67509 0
M  V30 13399 H 1269.2 4.75551 -1.63892 0
M  V30 13400 H 1268.9 4.79635 -3.39447 0
M  V30 13401 H 1270.42 5.45798 -2.73746 0
M  V30 13402 H 1271.83 3.80136 -4.2915 0
M  V30 13403 H 1270.23 3.37805 -4.95992 0
M  V30 13404 H 1271.3 2.09126 -4.37486 0
M  V30 13405 N 1272.64 1.35187 0.810078 0
M  V30 13406 C 1273.89 1.28011 1.56389 0
M  V30 13407 C 1274.21 -0.14622 1.94451 0
M  V30 13408 O 1273.48 -1.08185 1.63318 0
M  V30 13409 H 1272.06 0.470837 0.579932 0
M  V30 13410 H 1274.73 1.69249 0.966476 0
M  V30 13411 H 1273.82 1.89362 2.4809 0
M  V30 13412 N 1274.12 -1.03182 1.19127 0
M  V30 13413 C 1275.37 -1.76917 1.00359 0
M  V30 13414 C 1275.72 -1.86794 -0.461075 0
M  V30 13415 O 1275.02 -1.37151 -1.33791 0
M  V30 13416 C 1275.21 -3.19452 1.60267 0
M  V30 13417 C 1275.04 -3.2347 3.12406 0
M  V30 13418 C 1273.81 -3.31587 3.81285 0
M  V30 13419 C 1276.01 -3.10754 4.09801 0
M  V30 13420 N 1273.99 -3.24948 5.20848 0
M  V30 13421 C 1275.36 -3.11715 5.35942 0
M  V30 13422 C 1277.42 -2.9486 4.01201 0
M  V30 13423 C 1276.12 -2.98413 6.54479 0
M  V30 13424 C 1278.14 -2.82907 5.19344 0
M  V30 13425 C 1277.51 -2.8452 6.44382 0
M  V30 13426 H 1273.61 -0.658788 0.421334 0
M  V30 13427 H 1276.19 -1.22849 1.51051 0
M  V30 13428 H 1274.36 -3.71847 1.1218 0
M  V30 13429 H 1276.09 -3.81533 1.34963 0
M  V30 13430 H 1272.85 -3.37686 3.32062 0
M  V30 13431 H 1273.27 -3.25043 5.93865 0
M  V30 13432 H 1277.91 -2.92437 3.05353 0
M  V30 13433 H 1275.63 -2.99587 7.50515 0
M  V30 13434 H 1279.22 -2.71649 5.14488 0
M  V30 13435 H 1278.1 -2.75369 7.34263 0
M  V30 13436 N 1275.6 -0.99472 -1.22242 0
M  V30 13437 C 1276.55 -0.546504 -2.24236 0
M  V30 13438 C 1277.52 0.422101 -1.60647 0
M  V30 13439 O 1278.7 0.326452 -1.87987 0
M  V30 13440 C 1275.84 0.130909 -3.44852 0
M  V30 13441 C 1274.96 -0.879653 -4.22949 0
M  V30 13442 C 1274.09 -0.175569 -5.3091 0
M  V30 13443 C 1273.13 -1.17438 -6.00729 0
M  V30 13444 N 1272.27 -0.498474 -7.00328 0
M  V30 13445 H 1277.11 -1.42099 -2.61939 0
M  V30 13446 H 1274.64 -0.711755 -1.28734 0
M  V30 13447 H 1276.6 0.540596 -4.13683 0
M  V30 13448 H 1275.23 0.96917 -3.07907 0
M  V30 13449 H 1274.28 -1.40765 -3.53397 0
M  V30 13450 H 1275.6 -1.64017 -4.71062 0
M  V30 13451 H 1274.75 0.290756 -6.06003 0
M  V30 13452 H 1273.49 0.617438 -4.83776 0
M  V30 13453 H 1272.49 -1.65131 -5.24416 0
M  V30 13454 H 1273.72 -1.96829 -6.4995 0
M  V30 13455 H 1271.66 0.275063 -6.55423 0
M  V30 13456 H 1271.58 -1.19741 -7.46457 0
M  V30 13457 H 1272.85 -0.0550119 -7.79481 0
M  V30 13458 N 1277.08 1.37613 -0.768148 0
M  V30 13459 C 1278.04 2.28653 -0.158283 0
M  V30 13460 C 1279.04 1.47862 0.631936 0
M  V30 13461 O 1280.23 1.68124 0.456055 0
M  V30 13462 C 1277.36 3.31776 0.783435 0
M  V30 13463 H 1278.56 2.84094 -0.960772 0
M  V30 13464 H 1276.11 1.46818 -0.536116 0
M  V30 13465 H 1276.84 2.81452 1.61106 0
M  V30 13466 H 1276.63 3.91488 0.219016 0
M  V30 13467 H 1278.12 3.99816 1.20568 0
M  V30 13468 N 1278.56 0.518393 1.4883 0
M  V30 13469 C 1279.49 -0.239685 2.32267 0
M  V30 13470 C 1280.47 -0.94613 1.41359 0
M  V30 13471 O 1281.65 -0.934162 1.70256 0
M  V30 13472 C 1278.78 -1.29411 3.22289 0
M  V30 13473 C 1277.74 -0.706504 4.22129 0
M  V30 13474 C 1277.06 -1.86273 5.01205 0
M  V30 13475 C 1278.36 0.314079 5.21355 0
M  V30 13476 H 1280.06 0.4568 2.95895 0
M  V30 13477 H 1277.6 0.221126 1.42292 0
M  V30 13478 H 1279.56 -1.8323 3.7948 0
M  V30 13479 H 1278.28 -2.02001 2.56638 0
M  V30 13480 H 1276.94 -0.189924 3.66108 0
M  V30 13481 H 1276.59 -2.57674 4.31988 0
M  V30 13482 H 1276.29 -1.47554 5.68772 0
M  V30 13483 H 1277.81 -2.40492 5.61245 0
M  V30 13484 H 1279.22 -0.136604 5.73137 0
M  V30 13485 H 1277.62 0.618026 5.96909 0
M  V30 13486 H 1278.69 1.22394 4.69199 0
M  V30 13487 N 1280.03 -1.55556 0.252993 0
M  V30 13488 C 1281.26 -2.03945 -0.376965 0
M  V30 13489 C 1281.68 -1.13089 -1.50308 0
M  V30 13490 O 1281.04 -0.125039 -1.80868 0
M  V30 13491 C 1281.09 -3.50284 -0.856363 0
M  V30 13492 O 1280.19 -3.62551 -1.96546 0
M  V30 13493 H 1279.54 -0.659002 -0.081317 0
M  V30 13494 H 1282.07 -2.01024 0.380831 0
M  V30 13495 H 1282.08 -3.91222 -1.15798 0
M  V30 13496 H 1280.75 -4.15887 -0.0323302 0
M  V30 13497 H 1279.33 -3.33511 -1.66808 0
M  V30 13498 N 1281.51 0.0200419 -1.57587 0
M  V30 13499 C 1282.48 1.00255 -2.06111 0
M  V30 13500 C 1283.48 1.28488 -0.966829 0
M  V30 13501 O 1284.67 1.2334 -1.23015 0
M  V30 13502 C 1281.8 2.33296 -2.48567 0
M  V30 13503 H 1282.99 0.583216 -2.94174 0
M  V30 13504 H 1280.54 0.267077 -1.54001 0
M  V30 13505 H 1281.28 2.79959 -1.63687 0
M  V30 13506 H 1281.06 2.14131 -3.28467 0
M  V30 13507 H 1282.55 3.03817 -2.86505 0
M  V30 13508 N 1282.99 1.54862 0.292472 0
M  V30 13509 C 1284.22 1.7855 1.04534 0
M  V30 13510 C 1284.63 0.549161 1.80637 0
M  V30 13511 O 1283.99 -0.481268 1.7604 0
M  V30 13512 C 1284.04 2.99849 2.01923 0
M  V30 13513 O 1283.76 4.18706 1.28907 0
M  V30 13514 C 1285.26 3.35991 2.8918 0
M  V30 13515 H 1282.48 0.595279 0.309652 0
M  V30 13516 H 1285.03 2.01834 0.329159 0
M  V30 13517 H 1283.18 2.78749 2.69032 0
M  V30 13518 H 1283.6 4.87151 1.94383 0
M  V30 13519 H 1285.07 4.24085 3.53349 0
M  V30 13520 H 1285.55 2.54524 3.57931 0
M  V30 13521 H 1286.15 3.59281 2.27591 0
M  V30 13522 N 1284.47 -0.556076 1.47464 0
M  V30 13523 C 1285.4 -1.67275 1.62915 0
M  V30 13524 C 1286.38 -1.63229 0.478562 0
M  V30 13525 O 1287.56 -1.80833 0.708032 0
M  V30 13526 C 1284.69 -3.05911 1.64426 0
M  V30 13527 C 1283.65 -3.24804 2.78722 0
M  V30 13528 C 1282.97 -4.64238 2.65307 0
M  V30 13529 C 1284.27 -3.10071 4.20302 0
M  V30 13530 H 1285.97 -1.54601 2.56396 0
M  V30 13531 H 1283.51 -0.742337 1.23391 0
M  V30 13532 H 1285.47 -3.83878 1.73826 0
M  V30 13533 H 1284.19 -3.19547 0.675053 0
M  V30 13534 H 1282.85 -2.49246 2.68835 0
M  V30 13535 H 1282.5 -4.74675 1.66412 0
M  V30 13536 H 1282.2 -4.77828 3.41986 0
M  V30 13537 H 1283.72 -5.44339 2.76637 0
M  V30 13538 H 1285.14 -3.77855 4.3116 0
M  V30 13539 H 1283.53 -3.3517 4.97776 0
M  V30 13540 H 1284.6 -2.06803 4.38589 0
M  V30 13541 N 1285.95 -1.35615 -0.802897 0
M  V30 13542 C 1286.91 -1.28705 -1.89651 0
M  V30 13543 C 1287.91 -0.197681 -1.5958 0
M  V30 13544 O 1289.1 -0.451618 -1.68244 0
M  V30 13545 C 1286.23 -0.991941 -3.26149 0
M  V30 13546 H 1287.43 -2.25951 -1.97196 0
M  V30 13547 H 1284.98 -1.20192 -0.999179 0
M  V30 13548 H 1285.71 -0.0235051 -3.24291 0
M  V30 13549 H 1285.5 -1.78013 -3.49362 0
M  V30 13550 H 1286.99 -0.969298 -4.06195 0
M  V30 13551 N 1287.43 1.02549 -1.19673 0
M  V30 13552 C 1288.34 2.14373 -0.952972 0
M  V30 13553 C 1289.35 1.73776 0.0881727 0
M  V30 13554 O 1290.53 2.01165 -0.0972471 0
M  V30 13555 C 1287.59 3.43096 -0.498569 0
M  V30 13556 C 1286.65 3.97987 -1.60951 0
M  V30 13557 C 1285.89 5.20567 -1.17669 0
M  V30 13558 O 1286.11 5.70385 -0.0416636 0
M  V30 13559 O 1285.04 5.6838 -1.98059 0
M  V30 13560 H 1288.87 2.378 -1.88904 0
M  V30 13561 H 1286.45 1.12781 -0.979836 0
M  V30 13562 H 1288.34 4.20634 -0.253968 0
M  V30 13563 H 1287.01 3.21105 0.409018 0
M  V30 13564 H 1285.92 3.21768 -1.90829 0
M  V30 13565 H 1287.25 4.24349 -2.49377 0
M  V30 13566 N 1288.9 1.00119 1.21713 0
M  V30 13567 C 1290.32 0.713343 1.42771 0
M  V30 13568 C 1290.52 -0.712923 1.88467 0
M  V30 13569 O 1289.58 -1.48277 2.04378 0
M  V30 13570 C 1290.89 1.72596 2.46234 0
M  V30 13571 C 1292.44 1.74235 2.60022 0
M  V30 13572 C 1292.91 2.74382 3.66713 0
M  V30 13573 N 1294.4 2.73027 3.7418 0
M  V30 13574 C 1295.14 3.47178 4.56349 0
M  V30 13575 N 1294.63 4.30958 5.42446 0
M  V30 13576 N 1296.43 3.35846 4.50737 0
M  V30 13577 H 1288.58 1.9222 0.903611 0
M  V30 13578 H 1290.84 0.829466 0.459011 0
M  V30 13579 H 1290.55 2.74699 2.19621 0
M  V30 13580 H 1290.42 1.52553 3.44975 0
M  V30 13581 H 1292.81 0.728261 2.85973 0
M  V30 13582 H 1292.89 1.98349 1.61528 0
M  V30 13583 H 1292.53 3.75945 3.41508 0
M  V30 13584 H 1292.46 2.47534 4.64795 0
M  V30 13585 H 1294.95 2.12242 3.12669 0
M  V30 13586 H 1295.27 4.84344 6.02189 0
M  V30 13587 H 1293.61 4.35042 5.42 0
M  V30 13588 H 1296.8 2.6983 3.82504 0
M  V30 13589 H 1296.98 3.93892 5.14541 0
M  V30 13590 N 1290.38 -1.37203 0.775435 0
M  V30 13591 C 1291.29 -2.34019 0.165062 0
M  V30 13592 C 1292.31 -1.6036 -0.675316 0
M  V30 13593 O 1293.48 -1.9243 -0.594375 0
M  V30 13594 C 1290.55 -3.3954 -0.700957 0
M  V30 13595 C 1289.61 -4.29015 0.156304 0
M  V30 13596 C 1288.84 -5.29497 -0.668476 0
M  V30 13597 O 1289.07 -5.37636 -1.90535 0
M  V30 13598 O 1288 -6.01852 -0.0757351 0
M  V30 13599 H 1291.83 -2.87955 0.965184 0
M  V30 13600 H 1289.41 -1.39429 0.536654 0
M  V30 13601 H 1291.29 -4.04094 -1.19524 0
M  V30 13602 H 1289.97 -2.87926 -1.4792 0
M  V30 13603 H 1288.87 -3.67549 0.69703 0
M  V30 13604 H 1290.21 -4.83944 0.897725 0
M  V30 13605 N 1291.86 -0.526279 -1.48553 0
M  V30 13606 C 1292.82 0.227739 -2.28066 0
M  V30 13607 C 1293.82 0.871146 -1.35158 0
M  V30 13608 O 1295.01 0.731769 -1.58085 0
M  V30 13609 C 1292.14 1.32918 -3.1392 0
M  V30 13610 H 1293.34 -0.470313 -2.96189 0
M  V30 13611 H 1290.89 -0.282089 -1.53733 0
M  V30 13612 H 1291.63 2.0606 -2.50419 0
M  V30 13613 H 1291.41 0.872991 -3.82258 0
M  V30 13614 H 1292.9 1.85964 -3.73908 0
M  V30 13615 N 1293.34 1.5542 -0.261239 0
M  V30 13616 C 1294.3 2.20683 0.619011 0
M  V30 13617 C 1295.3 1.18042 1.09192 0
M  V30 13618 O 1296.49 1.43035 0.99432 0
M  V30 13619 C 1293.62 2.86179 1.85242 0
M  V30 13620 H 1294.82 2.99859 0.0493924 0
M  V30 13621 H 1292.37 1.56296 -0.0117687 0
M  V30 13622 H 1293.1 2.10978 2.4629 0
M  V30 13623 H 1292.89 3.61381 1.52138 0
M  V30 13624 H 1294.38 3.36081 2.47869 0
M  V30 13625 N 1294.82 -0.0116844 1.57596 0
M  V30 13626 C 1296.06 -0.698089 1.89234 0
M  V30 13627 C 1296.38 -1.75581 0.862016 0
M  V30 13628 O 1297.58 -2.49602 1.06822 0
M  V30 13629 C 1296.04 -1.29277 3.3588 0
M  V30 13630 C 1295.65 -0.27049 4.47183 0
M  V30 13631 C 1297.39 -1.95805 3.76644 0
M  V30 13632 C 1295.3 -0.874502 5.84899 0
M  V30 13633 H 1294.23 -0.264495 0.706087 0
M  V30 13634 H 1296.88 0.0469451 1.8344 0
M  V30 13635 H 1295.26 -2.08809 3.36474 0
M  V30 13636 H 1296.44 0.499381 4.58086 0
M  V30 13637 H 1294.75 0.293676 4.15363 0
M  V30 13638 H 1297.35 -2.41879 4.76863 0
M  V30 13639 H 1297.69 -2.78366 3.09545 0
M  V30 13640 H 1298.22 -1.23023 3.78299 0
M  V30 13641 H 1294.96 -0.0879263 6.55441 0
M  V30 13642 H 1294.48 -1.61381 5.77682 0
M  V30 13643 H 1296.16 -1.37665 6.32185 0
M  V30 13644 N 1296.29 -1.55015 -0.284256 0
M  V30 13645 C 1297.52 -1.79102 -1.03586 0
M  V30 13646 C 1297.94 -0.558733 -1.80343 0
M  V30 13647 O 1297.29 0.471925 -1.76293 0
M  V30 13648 C 1297.34 -3.00915 -2.0033 0
M  V30 13649 O 1297.07 -4.19384 -1.26685 0
M  V30 13650 C 1298.57 -3.3752 -2.87394 0
M  V30 13651 H 1295.79 -0.596912 -0.306491 0
M  V30 13652 H 1298.33 -2.02005 -0.31845 0
M  V30 13653 H 1296.49 -2.80171 -2.67549 0
M  V30 13654 H 1296.9 -4.88175 -1.91796 0
M  V30 13655 H 1298.37 -4.25953 -3.51095 0
M  V30 13656 H 1298.85 -2.56418 -3.56576 0
M  V30 13657 H 1299.46 -3.60483 -2.25682 0
M  V30 13658 N 1297.77 0.548248 -1.47757 0
M  V30 13659 C 1298.68 1.68178 -1.63565 0
M  V30 13660 C 1299.7 1.661 -0.518351 0
M  V30 13661 O 1300.87 1.85384 -0.787061 0
M  V30 13662 C 1297.94 3.04673 -1.65454 0
M  V30 13663 C 1297 3.17749 -2.88677 0
M  V30 13664 C 1296.23 4.47733 -2.90466 0
M  V30 13665 O 1296.46 5.33736 -2.01201 0
M  V30 13666 O 1295.39 4.64789 -3.82433 0
M  V30 13667 H 1299.22 1.57781 -2.59497 0
M  V30 13668 H 1296.8 0.719277 -1.30946 0
M  V30 13669 H 1298.68 3.85885 -1.69324 0
M  V30 13670 H 1297.36 3.15433 -0.726912 0
M  V30 13671 H 1296.26 2.359 -2.90348 0
M  V30 13672 H 1297.6 3.11897 -3.80763 0
M  V30 13673 N 1299.25 1.36039 0.795694 0
M  V30 13674 C 1300.21 1.29709 1.88966 0
M  V30 13675 C 1301.21 0.206142 1.59473 0
M  V30 13676 O 1302.4 0.460534 1.68002 0
M  V30 13677 C 1299.53 1.00922 3.25619 0
M  V30 13678 H 1300.73 2.26993 1.95995 0
M  V30 13679 H 1298.28 1.2072 0.992791 0
M  V30 13680 H 1299.02 0.0407027 3.24274 0
M  V30 13681 H 1298.8 1.79863 3.48413 0
M  V30 13682 H 1300.29 0.990826 4.05675 0
M  V30 13683 N 1300.73 -1.01913 1.20215 0
M  V30 13684 C 1301.97 -1.7573 1.01226 0
M  V30 13685 C 1302.31 -1.88799 -0.45481 0
M  V30 13686 O 1301.58 -1.41196 -1.33768 0
M  V30 13687 C 1301.87 -3.17795 1.69348 0
M  V30 13688 C 1301.72 -3.12536 3.23483 0
M  V30 13689 C 1303.04 -4.16409 1.42448 0
M  V30 13690 H 1300.16 -0.637889 0.369144 0
M  V30 13691 H 1302.8 -1.18907 1.48193 0
M  V30 13692 H 1300.95 -3.66311 1.29416 0
M  V30 13693 H 1302.62 -2.71843 3.72692 0
M  V30 13694 H 1300.86 -2.49997 3.54519 0
M  V30 13695 H 1301.53 -4.12949 3.66302 0
M  V30 13696 H 1304.01 -3.76537 1.77086 0
M  V30 13697 H 1302.89 -5.13983 1.92648 0
M  V30 13698 H 1303.15 -4.407 0.351574 0
M  V30 13699 N 1302.21 -1.00763 -1.2118 0
M  V30 13700 C 1303.12 -0.579646 -2.27326 0
M  V30 13701 C 1304.13 0.378592 -1.69831 0
M  V30 13702 O 1305.31 0.241772 -1.99944 0
M  V30 13703 C 1302.37 0.0843648 -3.46597 0
M  V30 13704 C 1301.43 -0.918685 -4.19355 0
M  V30 13705 C 1300.67 -0.286267 -5.32932 0
M  V30 13706 O 1300.89 0.916274 -5.62993 0
M  V30 13707 O 1299.82 -0.998513 -5.9356 0
M  V30 13708 H 1303.65 -1.46311 -2.66133 0
M  V30 13709 H 1301.24 -0.776641 -1.27627 0
M  V30 13710 H 1303.12 0.455636 -4.18929 0
M  V30 13711 H 1301.79 0.942166 -3.09685 0
M  V30 13712 H 1300.7 -1.34116 -3.49233 0
M  V30 13713 H 1302.03 -1.74616 -4.60185 0
M  V30 13714 N 1303.68 1.3679 -0.7827 0
M  V30 13715 C 1304.61 2.32721 -0.190604 0
M  V30 13716 C 1305.6 1.56321 0.670663 0
M  V30 13717 O 1306.78 1.84507 0.605871 0
M  V30 13718 C 1303.91 3.40564 0.680717 0
M  V30 13719 C 1302.86 4.27925 -0.080118 0
M  V30 13720 C 1302.19 5.26876 0.911361 0
M  V30 13721 C 1303.49 5.06738 -1.26545 0
M  V30 13722 H 1305.18 2.82488 -0.992023 0
M  V30 13723 H 1302.73 1.35818 -0.478484 0
M  V30 13724 H 1304.68 4.06659 1.10482 0
M  V30 13725 H 1303.41 2.89348 1.51477 0
M  V30 13726 H 1302.07 3.63376 -0.485125 0
M  V30 13727 H 1301.71 4.71936 1.74026 0
M  V30 13728 H 1301.41 5.8619 0.406762 0
M  V30 13729 H 1302.94 5.95846 1.33418 0
M  V30 13730 H 1304.35 5.65911 -0.917448 0
M  V30 13731 H 1302.75 5.75432 -1.70289 0
M  V30 13732 H 1303.82 4.38772 -2.06415 0
M  V30 13733 N 1305.16 0.53415 1.48272 0
M  V30 13734 C 1306.39 0.00368464 2.074 0
M  V30 13735 C 1306.81 -1.27003 1.38751 0
M  V30 13736 O 1306.17 -1.75502 0.454817 0
M  V30 13737 C 1306.22 -0.199034 3.6005 0
M  V30 13738 O 1305.32 -1.26679 3.92462 0
M  V30 13739 H 1304.66 0.0409936 0.662733 0
M  V30 13740 H 1307.19 0.743253 1.90622 0
M  V30 13741 H 1307.2 -0.420404 4.05828 0
M  V30 13742 H 1305.88 0.731391 4.09418 0
M  V30 13743 H 1304.46 -1.02775 3.58457 0
M  V30 13744 N 1306.64 -1.55279 0.269478 0
M  V30 13745 C 1308.06 -1.59374 -0.0848147 0
M  V30 13746 C 1308.26 -1.2867 -1.55068 0
M  V30 13747 O 1307.31 -1.04486 -2.29867 0
M  V30 13748 C 1308.63 -2.99349 0.284735 0
M  V30 13749 C 1310.17 -3.12147 0.230887 0
M  V30 13750 C 1310.65 -4.54379 0.574795 0
M  V30 13751 N 1312.14 -4.60202 0.526136 0
M  V30 13752 C 1312.87 -5.68273 0.765109 0
M  V30 13753 N 1312.37 -6.84512 1.0684 0
M  V30 13754 N 1314.16 -5.57796 0.694287 0
M  V30 13755 H 1306.31 -1.73503 1.22517 0
M  V30 13756 H 1308.58 -0.808771 0.494564 0
M  V30 13757 H 1308.28 -3.26633 1.30398 0
M  V30 13758 H 1308.16 -3.75309 -0.377199 0
M  V30 13759 H 1310.54 -2.84631 -0.779064 0
M  V30 13760 H 1310.63 -2.38412 0.926998 0
M  V30 13761 H 1310.27 -4.8262 1.58241 0
M  V30 13762 H 1310.2 -5.26406 -0.143044 0
M  V30 13763 H 1312.69 -3.76696 0.301368 0
M  V30 13764 H 1313 -7.62826 1.23757 0
M  V30 13765 H 1311.35 -6.86141 1.10612 0
M  V30 13766 H 1314.54 -4.65862 0.457226 0
M  V30 13767 H 1314.71 -6.41943 0.883913 0
M  V30 13768 N 1308.12 0.00332656 -1.576 0
M  V30 13769 C 1309.05 1.02391 -2.05058 0
M  V30 13770 C 1310.06 1.30903 -0.967901 0
M  V30 13771 O 1311.25 1.27937 -1.24476 0
M  V30 13772 C 1308.35 2.35947 -2.43274 0
M  V30 13773 C 1307.53 2.26423 -3.74234 0
M  V30 13774 C 1306.58 3.4264 -3.99355 0
M  V30 13775 O 1305.61 3.20977 -4.70067 0
M  V30 13776 N 1306.81 4.65379 -3.46991 0
M  V30 13777 H 1309.58 0.619216 -2.93233 0
M  V30 13778 H 1307.14 0.190777 -1.60772 0
M  V30 13779 H 1309.13 3.12462 -2.57196 0
M  V30 13780 H 1307.7 2.6817 -1.60635 0
M  V30 13781 H 1306.92 1.34841 -3.70421 0
M  V30 13782 H 1308.21 2.17229 -4.60097 0
M  V30 13783 H 1307.61 4.85878 -2.89723 0
M  V30 13784 H 1306.16 5.39171 -3.66249 0
M  V30 13785 N 1309.6 1.55164 0.276031 0
M  V30 13786 C 1311.01 1.46936 0.623061 0
M  V30 13787 C 1311.21 0.680977 1.89644 0
M  V30 13788 O 1310.27 0.198618 2.51718 0
M  V30 13789 C 1311.58 2.91123 0.752839 0
M  V30 13790 C 1313.13 3.01319 0.847093 0
M  V30 13791 C 1313.6 4.46755 1.00867 0
M  V30 13792 N 1315.1 4.5057 1.07427 0
M  V30 13793 C 1315.83 5.60314 1.21804 0
M  V30 13794 N 1315.33 6.7993 1.32919 0
M  V30 13795 N 1317.12 5.4805 1.2489 0
M  V30 13796 H 1309.27 2.04877 -0.560282 0
M  V30 13797 H 1311.53 0.928925 -0.189217 0
M  V30 13798 H 1311.24 3.51521 -0.112333 0
M  V30 13799 H 1311.11 3.39967 1.63408 0
M  V30 13800 H 1313.5 2.41021 1.70274 0
M  V30 13801 H 1313.58 2.55733 -0.0586896 0
M  V30 13802 H 1313.23 5.07655 0.1577 0
M  V30 13803 H 1313.16 4.89995 1.92906 0
M  V30 13804 H 1315.65 3.64404 1.00089 0
M  V30 13805 H 1315.96 7.59319 1.43714 0
M  V30 13806 H 1314.3 6.82747 1.29929 0
M  V30 13807 H 1317.5 4.53542 1.15834 0
M  V30 13808 H 1317.67 6.33621 1.3575 0
M  V30 13809 N 1311.07 -0.540404 1.48045 0
M  V30 13810 C 1312.49 -0.867958 1.33935 0
M  V30 13811 C 1312.69 -1.98568 0.342488 0
M  V30 13812 O 1311.75 -2.51357 -0.240022 0
M  V30 13813 C 1313.06 -1.24532 2.73701 0
M  V30 13814 C 1314.61 -1.3558 2.82112 0
M  V30 13815 C 1315.08 -1.76664 4.22556 0
M  V30 13816 N 1316.57 -1.83785 4.25179 0
M  V30 13817 C 1317.31 -2.16938 5.30778 0
M  V30 13818 N 1316.8 -2.48587 6.46666 0
M  V30 13819 N 1318.6 -2.17855 5.18166 0
M  V30 13820 H 1310.75 0.197251 2.11482 0
M  V30 13821 H 1313.01 0.0255947 0.947654 0
M  V30 13822 H 1312.72 -0.497731 3.4816 0
M  V30 13823 H 1312.59 -2.19779 3.06556 0
M  V30 13824 H 1314.98 -2.09417 2.07915 0
M  V30 13825 H 1315.06 -0.384787 2.52889 0
M  V30 13826 H 1314.7 -1.03391 4.97265 0
M  V30 13827 H 1314.63 -2.74797 4.49215 0
M  V30 13828 H 1317.12 -1.61645 3.41583 0
M  V30 13829 H 1317.44 -2.72959 7.22989 0
M  V30 13830 H 1315.78 -2.4613 6.49958 0
M  V30 13831 H 1318.97 -1.9258 4.2665 0
M  V30 13832 H 1319.15 -2.43361 6.00566 0
M  V30 13833 N 1312.55 -1.36459 -0.788468 0
M  V30 13834 C 1313.97 -1.16893 -1.08666 0
M  V30 13835 C 1314.17 0.00633808 -2.01499 0
M  V30 13836 O 1313.22 0.671417 -2.4341 0
M  V30 13837 C 1314.54 -2.48018 -1.70022 0
M  V30 13838 C 1316.09 -2.5439 -1.82358 0
M  V30 13839 C 1316.56 -3.85605 -2.47129 0
M  V30 13840 N 1318.05 -3.86956 -2.54597 0
M  V30 13841 C 1318.79 -4.85224 -3.05525 0
M  V30 13842 N 1318.28 -5.93885 -3.56753 0
M  V30 13843 N 1320.08 -4.72643 -3.04246 0
M  V30 13844 H 1312.23 -2.11705 -0.171733 0
M  V30 13845 H 1314.49 -0.937784 -0.1388 0
M  V30 13846 H 1314.2 -3.34292 -1.09277 0
M  V30 13847 H 1314.07 -2.63894 -2.69518 0
M  V30 13848 H 1316.46 -1.68534 -2.4224 0
M  V30 13849 H 1316.54 -2.42414 -0.816651 0
M  V30 13850 H 1316.18 -4.71868 -1.87891 0
M  V30 13851 H 1316.11 -3.94878 -3.48395 0
M  V30 13852 H 1318.6 -3.08453 -2.18323 0
M  V30 13853 H 1318.92 -6.64839 -3.93966 0
M  V30 13854 H 1317.26 -5.97553 -3.54902 0
M  V30 13855 H 1320.45 -3.86883 -2.63513 0
M  V30 13856 H 1320.62 -5.49385 -3.43627 0
M  V30 13857 N 1314.03 1.01274 -1.20754 0
M  V30 13858 C 1314.98 2.08285 -0.927426 0
M  V30 13859 C 1315.96 1.60494 0.114286 0
M  V30 13860 O 1317.16 1.76752 -0.0936086 0
M  V30 13861 C 1314.29 3.39849 -0.485546 0
M  V30 13862 C 1313.37 3.94331 -1.5609 0
M  V30 13863 N 1313.76 4.22274 -2.78421 0
M  V30 13864 C 1312.06 4.22522 -1.42797 0
M  V30 13865 C 1312.76 4.66262 -3.47813 0
M  V30 13866 N 1311.74 4.68771 -2.75235 0
M  V30 13867 H 1315.54 2.27804 -1.85695 0
M  V30 13868 H 1313.05 1.19278 -1.10211 0
M  V30 13869 H 1315.05 4.16049 -0.266263 0
M  V30 13870 H 1313.71 3.21742 0.437301 0
M  V30 13871 H 1314.72 4.11063 -3.15036 0
M  V30 13872 H 1311.4 4.13593 -0.569819 0
M  V30 13873 H 1312.79 4.9667 -4.52513 0
M  V30 13874 N 1315.51 1.01404 1.20644 0
M  V30 13875 C 1316.44 0.602465 2.25594 0
M  V30 13876 C 1317.42 -0.381216 1.65773 0
M  V30 13877 O 1318.61 -0.267209 1.92353 0
M  V30 13878 C 1315.74 -0.0626245 3.47244 0
M  V30 13879 C 1314.69 0.841776 4.1964 0
M  V30 13880 C 1314.02 0.0426002 5.34683 0
M  V30 13881 C 1315.32 2.14864 4.76058 0
M  V30 13882 H 1317.01 1.47977 2.60275 0
M  V30 13883 H 1314.56 0.712966 1.25111 0
M  V30 13884 H 1316.51 -0.362095 4.19841 0
M  V30 13885 H 1315.23 -0.974627 3.11719 0
M  V30 13886 H 1313.89 1.12521 3.48905 0
M  V30 13887 H 1313.54 -0.870973 4.95402 0
M  V30 13888 H 1313.24 0.644866 5.84051 0
M  V30 13889 H 1314.76 -0.250476 6.10086 0
M  V30 13890 H 1316.18 1.9117 5.40488 0
M  V30 13891 H 1314.57 2.70153 5.35852 0
M  V30 13892 H 1315.64 2.81336 3.9494 0
M  V30 13893 N 1316.99 -1.36373 0.789944 0
M  V30 13894 C 1317.9 -2.3383 0.189873 0
M  V30 13895 C 1318.91 -1.61068 -0.65827 0
M  V30 13896 O 1320.09 -1.93049 -0.573932 0
M  V30 13897 C 1317.15 -3.40264 -0.664905 0
M  V30 13898 C 1316.22 -4.28825 0.201798 0
M  V30 13899 C 1315.45 -5.30176 -0.612278 0
M  V30 13900 O 1315.67 -5.39627 -1.84821 0
M  V30 13901 O 1314.61 -6.01899 -0.0118964 0
M  V30 13902 H 1318.43 -2.86915 0.995671 0
M  V30 13903 H 1316.02 -1.38852 0.551412 0
M  V30 13904 H 1317.9 -4.05339 -1.15231 0
M  V30 13905 H 1316.57 -2.89478 -1.44858 0
M  V30 13906 H 1315.48 -3.66789 0.735974 0
M  V30 13907 H 1316.81 -4.82965 0.949003 0
M  V30 13908 N 1318.47 -0.542005 -1.47987 0
M  V30 13909 C 1319.38 0.217677 -2.33588 0
M  V30 13910 C 1320.39 0.927093 -1.47245 0
M  V30 13911 O 1321.57 0.899378 -1.80203 0
M  V30 13912 C 1318.63 1.24376 -3.23622 0
M  V30 13913 C 1317.69 0.543407 -4.25847 0
M  V30 13914 C 1316.93 1.5206 -5.11579 0
M  V30 13915 O 1317.15 2.75425 -4.99497 0
M  V30 13916 O 1316.08 1.05341 -5.9261 0
M  V30 13917 H 1319.91 -0.484089 -2.99817 0
M  V30 13918 H 1317.49 -0.302783 -1.463 0
M  V30 13919 H 1319.38 1.83644 -3.7928 0
M  V30 13920 H 1318.05 1.92772 -2.6004 0
M  V30 13921 H 1316.96 -0.090074 -3.73992 0
M  V30 13922 H 1318.29 -0.0988264 -4.92101 0
M  V30 13923 N 1319.94 1.55134 -0.277709 0
M  V30 13924 C 1321.19 1.99259 0.337662 0
M  V30 13925 C 1321.51 1.16755 1.56183 0
M  V30 13926 O 1320.78 0.257707 1.94198 0
M  V30 13927 H 1319.36 0.735995 0.127751 0
M  V30 13928 H 1322.02 1.91087 -0.383646 0
M  V30 13929 H 1321.12 3.05763 0.625747 0
M  V30 13930 N 1321.42 0.00503138 1.57599 0
M  V30 13931 C 1322.84 -0.351109 1.5569 0
M  V30 13932 C 1323.04 -1.74465 1.00818 0
M  V30 13933 O 1322.09 -2.44144 0.64422 0
M  V30 13934 C 1323.41 -0.221738 2.99881 0
M  V30 13935 C 1324.95 -0.296303 3.11594 0
M  V30 13936 C 1325.43 -0.195998 4.5758 0
M  V30 13937 N 1326.92 -0.253741 4.62504 0
M  V30 13938 C 1327.66 -0.199546 5.73053 0
M  V30 13939 N 1327.15 -0.0956553 6.92734 0
M  V30 13940 N 1328.94 -0.251779 5.61536 0
M  V30 13941 H 1321.1 0.916578 1.91605 0
M  V30 13942 H 1323.36 0.351802 0.880306 0
M  V30 13943 H 1323.06 0.737255 3.43886 0
M  V30 13944 H 1322.94 -1.00178 3.63654 0
M  V30 13945 H 1325.33 -1.24574 2.67517 0
M  V30 13946 H 1325.41 0.513692 2.50589 0
M  V30 13947 H 1325.05 0.749918 5.02333 0
M  V30 13948 H 1324.98 -1.02455 5.16537 0
M  V30 13949 H 1327.47 -0.335163 3.76411 0
M  V30 13950 H 1327.78 -0.0603357 7.72776 0
M  V30 13951 H 1326.13 -0.0612113 6.94973 0
M  V30 13952 H 1329.32 -0.331173 4.66927 0
M  V30 13953 H 1329.49 -0.206078 6.47672 0
M  V30 13954 N 1322.9 -1.55308 -0.267798 0
M  V30 13955 C 1324.15 -1.75811 -0.996734 0
M  V30 13956 C 1324.47 -0.565161 -1.8663 0
M  V30 13957 O 1323.74 0.419775 -1.9135 0
M  V30 13958 H 1322.32 -0.648353 -0.371008 0
M  V30 13959 H 1324.98 -1.92719 -0.290775 0
M  V30 13960 H 1324.08 -2.66113 -1.63064 0
M  V30 13961 N 1324.38 0.532545 -1.4833 0
M  V30 13962 C 1325.31 1.64662 -1.65555 0
M  V30 13963 C 1326.29 1.62447 -0.50447 0
M  V30 13964 O 1327.47 1.79684 -0.736712 0
M  V30 13965 C 1324.6 3.03256 -1.69272 0
M  V30 13966 C 1323.56 3.20329 -2.83854 0
M  V30 13967 C 1322.88 4.59958 -2.72659 0
M  V30 13968 C 1324.18 3.03345 -4.25181 0
M  V30 13969 H 1325.88 1.50502 -2.58823 0
M  V30 13970 H 1323.42 0.722612 -1.24556 0
M  V30 13971 H 1325.38 3.81064 -1.79911 0
M  V30 13972 H 1324.1 3.18433 -0.725805 0
M  V30 13973 H 1322.76 2.44937 -2.72766 0
M  V30 13974 H 1322.41 4.71967 -1.73942 0
M  V30 13975 H 1322.11 4.72327 -3.49544 0
M  V30 13976 H 1323.63 5.39869 -2.85262 0
M  V30 13977 H 1325.05 3.70948 -4.37116 0
M  V30 13978 H 1323.44 3.27208 -5.03045 0
M  V30 13979 H 1324.51 1.998 -4.41824 0
M  V30 13980 N 1325.86 1.36875 0.78122 0
M  V30 13981 C 1326.81 1.28392 1.88413 0
M  V30 13982 C 1327.79 0.173687 1.5996 0
M  V30 13983 O 1328.98 0.407238 1.72251 0
M  V30 13984 C 1326.11 1.08368 3.25747 0
M  V30 13985 C 1325.2 2.23894 3.60184 0
M  V30 13986 N 1325.59 3.49247 3.65869 0
M  V30 13987 C 1323.89 2.1584 3.90294 0
M  V30 13988 C 1324.59 4.2537 3.96781 0
M  V30 13989 N 1323.56 3.54402 4.1219 0
M  V30 13990 H 1327.36 2.23334 1.91047 0
M  V30 13991 H 1324.88 1.29711 0.977175 0
M  V30 13992 H 1326.88 1.00376 4.04636 0
M  V30 13993 H 1325.54 0.143334 3.24383 0
M  V30 13994 H 1326.55 3.83276 3.4831 0
M  V30 13995 H 1323.22 1.29808 3.96807 0
M  V30 13996 H 1324.61 5.33814 4.08035 0
M  V30 13997 N 1327.33 -1.00632 1.21289 0
M  V30 13998 C 1328.74 -1.55838 1.02817 0
M  V30 13999 C 1329.1 -1.91816 -0.412425 0
M  V30 14000 O 1328.22 -1.73342 -1.29543 0
M  V30 14001 C 1328.82 -2.83168 1.86014 0
M  V30 14002 C 1327.37 -3.34865 1.71879 0
M  V30 14003 C 1326.52 -2.0807 1.83309 0
M  V30 14004 H 1329.47 -0.828939 1.3533 0
M  V30 14005 H 1329.49 -3.54996 1.36961 0
M  V30 14006 H 1329.01 -2.56951 2.90857 0
M  V30 14007 H 1327.11 -3.6602 0.697153 0
M  V30 14008 H 1327.22 -4.06374 2.53766 0
M  V30 14009 H 1325.58 -2.21006 1.26603 0
M  V30 14010 H 1326.37 -1.84267 2.89656 0
M  V30 14011 N 1328.81 -1.02043 -1.20104 0
M  V30 14012 C 1330.04 -0.731315 -1.93544 0
M  V30 14013 C 1330.45 0.708582 -1.74999 0
M  V30 14014 O 1329.81 1.481 -1.06642 0
M  V30 14015 C 1329.86 -1.06233 -3.45538 0
M  V30 14016 O 1329.58 -2.44568 -3.63481 0
M  V30 14017 C 1331.08 -0.794818 -4.36116 0
M  V30 14018 H 1328.3 -0.268248 -0.615048 0
M  V30 14019 H 1330.85 -1.36264 -1.52488 0
M  V30 14020 H 1329 -0.476341 -3.8446 0
M  V30 14021 H 1329.42 -2.5663 -4.57429 0
M  V30 14022 H 1330.89 -1.07647 -5.41402 0
M  V30 14023 H 1331.37 0.270944 -4.38363 0
M  V30 14024 H 1331.97 -1.36314 -4.02863 0
M  V30 14025 N 1330.29 1.35952 -0.797165 0
M  V30 14026 C 1331.25 2.28266 -0.206748 0
M  V30 14027 C 1332.25 1.49169 0.60043 0
M  V30 14028 O 1333.44 1.69054 0.42029 0
M  V30 14029 C 1330.58 3.33363 0.712884 0
M  V30 14030 H 1331.77 2.81992 -1.02082 0
M  V30 14031 H 1329.32 1.45648 -0.567138 0
M  V30 14032 H 1330.06 2.84806 1.551 0
M  V30 14033 H 1329.84 3.91864 0.135926 0
M  V30 14034 H 1331.33 4.02284 1.1206 0
M  V30 14035 N 1331.77 0.549846 1.47697 0
M  V30 14036 C 1333 0.0276889 2.06881 0
M  V30 14037 C 1333.41 -1.26273 1.40359 0
M  V30 14038 O 1332.77 -1.75584 0.497644 0
M  V30 14039 C 1332.82 -0.179291 3.61055 0
M  V30 14040 O 1332.54 1.06002 4.25083 0
M  V30 14041 C 1334.04 -0.739571 4.37087 0
M  V30 14042 H 1331.26 0.0425016 0.669653 0
M  V30 14043 H 1333.81 0.761158 1.89807 0
M  V30 14044 H 1331.96 -0.862867 3.77668 0
M  V30 14045 H 1332.37 0.853137 5.17515 0
M  V30 14046 H 1333.85 -0.833722 5.45668 0
M  V30 14047 H 1334.33 -1.74915 4.02867 0
M  V30 14048 H 1334.93 -0.0919294 4.25201 0
M  V30 14049 N 1333.25 -1.54984 0.285932 0
M  V30 14050 C 1334.18 -2.20365 -0.630236 0
M  V30 14051 C 1335.19 -1.19168 -1.10918 0
M  V30 14052 O 1336.38 -1.45839 -1.02923 0
M  V30 14053 C 1333.48 -2.8244 -1.87299 0
M  V30 14054 C 1332.65 -4.09429 -1.53905 0
M  V30 14055 C 1331.71 -4.55449 -2.63538 0
M  V30 14056 O 1330.74 -5.20985 -2.29267 0
M  V30 14057 N 1331.94 -4.26498 -3.93802 0
M  V30 14058 H 1334.71 -2.99617 -0.0706044 0
M  V30 14059 H 1332.27 -1.61543 0.107486 0
M  V30 14060 H 1334.26 -3.10167 -2.59959 0
M  V30 14061 H 1332.83 -2.07117 -2.34139 0
M  V30 14062 H 1332.05 -3.88875 -0.645774 0
M  V30 14063 H 1333.34 -4.92146 -1.29111 0
M  V30 14064 H 1332.73 -3.73964 -4.24461 0
M  V30 14065 H 1331.29 -4.5897 -4.62807 0
M  V30 14066 N 1334.72 -0.0133892 -1.57594 0
M  V30 14067 C 1335.65 0.972341 -2.12292 0
M  V30 14068 C 1336.64 1.34971 -1.03522 0
M  V30 14069 O 1337.82 1.4311 -1.31275 0
M  V30 14070 C 1334.95 2.25988 -2.63717 0
M  V30 14071 C 1333.9 2.02373 -3.77133 0
M  V30 14072 C 1333.23 3.37256 -4.14925 0
M  V30 14073 C 1334.53 1.37553 -5.03861 0
M  V30 14074 H 1336.22 0.516869 -2.94905 0
M  V30 14075 H 1333.77 0.247176 -1.41863 0
M  V30 14076 H 1335.72 2.95313 -3.00613 0
M  V30 14077 H 1334.45 2.73672 -1.78244 0
M  V30 14078 H 1333.11 1.3547 -3.40651 0
M  V30 14079 H 1332.75 3.82669 -3.26456 0
M  V30 14080 H 1332.45 3.22267 -4.91343 0
M  V30 14081 H 1333.98 4.07875 -4.5439 0
M  V30 14082 H 1335.39 1.96855 -5.38443 0
M  V30 14083 H 1333.79 1.33011 -5.85174 0
M  V30 14084 H 1334.86 0.346429 -4.83661 0
M  V30 14085 N 1336.2 1.55448 0.259558 0
M  V30 14086 C 1337.48 1.6742 1.01143 0
M  V30 14087 C 1337.86 0.549525 2.03822 0
M  V30 14088 O 1337.21 -0.448699 2.24051 0
M  V30 14089 C 1337.42 3.07201 1.65616 0
M  V30 14090 C 1338.77 3.6539 2.16277 0
M  V30 14091 O 1339.79 3.0992 1.7558 0
M  V30 14092 O 1338.65 4.62604 2.90963 0
M  V30 14093 H 1335.74 0.680469 0.469991 0
M  V30 14094 H 1338.29 1.67783 0.254348 0
M  V30 14095 H 1337.06 3.80504 0.912819 0
M  V30 14096 H 1336.68 3.10794 2.47977 0
M  V30 14097 N 1337.68 -0.524672 1.4861 0
M  V30 14098 C 1339.1 -0.853703 1.34848 0
M  V30 14099 C 1339.3 -1.98194 0.363529 0
M  V30 14100 O 1338.35 -2.51597 -0.213348 0
M  V30 14101 C 1339.67 -1.21622 2.75006 0
M  V30 14102 C 1341.21 -1.3258 2.83534 0
M  V30 14103 C 1341.69 -1.72172 4.24406 0
M  V30 14104 N 1343.18 -1.79265 4.27105 0
M  V30 14105 C 1343.91 -2.11296 5.33049 0
M  V30 14106 N 1343.41 -2.41714 6.49266 0
M  V30 14107 N 1345.2 -2.12347 5.20447 0
M  V30 14108 H 1337.35 0.219671 2.11261 0
M  V30 14109 H 1339.62 0.0356444 0.94733 0
M  V30 14110 H 1339.32 -0.460776 3.48669 0
M  V30 14111 H 1339.2 -2.16516 3.0887 0
M  V30 14112 H 1341.58 -2.072 2.10124 0
M  V30 14113 H 1341.67 -0.357943 2.53283 0
M  V30 14114 H 1341.31 -0.981108 4.98334 0
M  V30 14115 H 1341.24 -2.70017 4.52104 0
M  V30 14116 H 1343.73 -1.58013 3.43279 0
M  V30 14117 H 1344.04 -2.65276 7.25843 0
M  V30 14118 H 1342.39 -2.39222 6.52532 0
M  V30 14119 H 1345.58 -1.88044 4.28669 0
M  V30 14120 H 1345.75 -2.36978 6.03113 0
M  V30 14121 N 1339.16 -1.37287 -0.77395 0
M  V30 14122 C 1340.09 -1.35569 -1.90114 0
M  V30 14123 C 1341.07 -0.224658 -1.6861 0
M  V30 14124 O 1342.25 -0.424676 -1.895 0
M  V30 14125 C 1339.38 -1.15971 -3.27365 0
M  V30 14126 C 1338.34 -2.26063 -3.63427 0
M  V30 14127 C 1337.66 -1.9159 -4.99197 0
M  V30 14128 C 1338.96 -3.68236 -3.70405 0
M  V30 14129 H 1340.66 -2.29891 -1.91808 0
M  V30 14130 H 1338.2 -1.10661 -0.92142 0
M  V30 14131 H 1340.16 -1.134 -4.05855 0
M  V30 14132 H 1338.88 -0.181043 -3.26098 0
M  V30 14133 H 1337.54 -2.27786 -2.87244 0
M  V30 14134 H 1337.19 -0.922586 -4.94467 0
M  V30 14135 H 1336.89 -2.65309 -5.24294 0
M  V30 14136 H 1338.41 -1.90602 -5.80089 0
M  V30 14137 H 1339.83 -3.68655 -4.39052 0
M  V30 14138 H 1338.22 -4.4099 -4.06999 0
M  V30 14139 H 1339.29 -4.02021 -2.71122 0
M  V30 14140 N 1340.64 0.999871 -1.21821 0
M  V30 14141 C 1341.55 2.12303 -0.99823 0
M  V30 14142 C 1342.56 1.73924 0.0512923 0
M  V30 14143 O 1343.74 2.00914 -0.139895 0
M  V30 14144 C 1340.8 3.41962 -0.571232 0
M  V30 14145 C 1339.86 3.94483 -1.69356 0
M  V30 14146 C 1339.1 5.17954 -1.28685 0
M  V30 14147 O 1339.32 5.70168 -0.162641 0
M  V30 14148 O 1338.25 5.64051 -2.10071 0
M  V30 14149 H 1342.08 2.3374 -1.93905 0
M  V30 14150 H 1339.67 1.10677 -1.00354 0
M  V30 14151 H 1341.55 4.20001 -0.343134 0
M  V30 14152 H 1340.22 3.21901 0.340814 0
M  V30 14153 H 1339.13 3.17648 -1.97612 0
M  V30 14154 H 1340.46 4.18964 -2.58322 0
M  V30 14155 N 1342.11 1.02678 1.19562 0
M  V30 14156 C 1343.06 0.599259 2.24748 0
M  V30 14157 C 1344.06 -0.367079 1.65375 0
M  V30 14158 O 1345.26 -0.235887 1.78448 0
M  V30 14159 H 1341.64 0.175517 0.73123 0
M  V30 14160 H 1343.61 1.4971 2.58127 0
M  V30 14161 C 1342.36 -0.0362515 3.47681 0
M  V30 14162 H 1341.68 0.698343 3.93654 0
M  V30 14163 H 1343.12 -0.298361 4.22949 0
M  V30 14164 C 1341.58 -1.28218 3.11547 0
M  V30 14165 O 1342.11 -2.37446 3.24009 0
M  V30 14166 N 1340.32 -1.17014 2.66 0
M  V30 14167 H 1339.86 -0.28132 2.56059 0
M  V30 14168 H 1339.82 -2.00473 2.42194 0
M  V30 14169 N 1343.59 -1.35528 0.804364 0
M  V30 14170 C 1344.56 -2.28153 0.21885 0
M  V30 14171 C 1345.56 -1.49486 -0.592511 0
M  V30 14172 O 1346.75 -1.69274 -0.411319 0
M  V30 14173 C 1343.88 -3.33736 -0.695195 0
M  V30 14174 H 1345.07 -2.81446 1.03576 0
M  V30 14175 H 1342.62 -1.45345 0.574854 0
M  V30 14176 H 1343.36 -2.85625 -1.53587 0
M  V30 14177 H 1343.14 -3.91931 -0.115143 0
M  V30 14178 H 1344.63 -4.02872 -1.09925 0
M  V30 14179 N 1345.07 -0.557671 -1.47404 0
M  V30 14180 C 1346.32 -0.0316382 -2.01675 0
M  V30 14181 C 1346.63 1.32656 -1.43742 0
M  V30 14182 O 1347.84 1.94253 -1.89678 0
M  V30 14183 C 1346.3 -0.00606931 -3.59899 0
M  V30 14184 C 1345.9 -1.36106 -4.26825 0
M  V30 14185 C 1347.65 0.467332 -4.2192 0
M  V30 14186 C 1345.55 -1.29457 -5.77057 0
M  V30 14187 H 1344.48 -0.00805738 -0.753957 0
M  V30 14188 H 1347.14 -0.705592 -1.69392 0
M  V30 14189 H 1345.52 0.733541 -3.89147 0
M  V30 14190 H 1346.69 -2.11842 -4.09218 0
M  V30 14191 H 1345.01 -1.77243 -3.76794 0
M  V30 14192 H 1347.6 0.535478 -5.32012 0
M  V30 14193 H 1347.95 1.47942 -3.89126 0
M  V30 14194 H 1348.48 -0.217434 -3.97205 0
M  V30 14195 H 1345.22 -2.28267 -6.14471 0
M  V30 14196 H 1344.74 -0.579022 -5.96999 0
M  V30 14197 H 1346.42 -0.996834 -6.39275 0
M  V30 14198 N 1346.55 1.54831 -0.294147 0
M  V30 14199 C 1347.8 2.00001 0.317135 0
M  V30 14200 C 1348.12 1.18256 1.54421 0
M  V30 14201 O 1347.38 0.245035 1.9416 0
M  V30 14202 C 1347.68 3.4997 0.72495 0
M  V30 14203 C 1347.34 4.49126 -0.399616 0
M  V30 14204 C 1346.01 4.75958 -0.708354 0
M  V30 14205 C 1348.36 5.08208 -1.15644 0
M  V30 14206 C 1345.69 5.59137 -1.77716 0
M  V30 14207 C 1348.04 5.9255 -2.21512 0
M  V30 14208 C 1346.7 6.17695 -2.52999 0
M  V30 14209 H 1345.97 0.731856 0.116048 0
M  V30 14210 H 1348.62 1.87019 -0.41182 0
M  V30 14211 H 1346.92 3.60526 1.53388 0
M  V30 14212 H 1348.62 3.82341 1.20898 0
M  V30 14213 H 1345.21 4.28341 -0.148877 0
M  V30 14214 H 1349.4 4.87486 -0.931178 0
M  V30 14215 H 1344.65 5.76859 -2.02592 0
M  V30 14216 H 1348.83 6.37359 -2.80617 0
M  V30 14217 H 1346.45 6.81939 -3.35951 0
M  V30 14218 N 1348.03 0.0217466 1.57585 0
M  V30 14219 C 1348.96 -0.99116 2.06661 0
M  V30 14220 C 1349.97 -1.29346 0.988604 0
M  V30 14221 O 1351.16 -1.25941 1.26496 0
M  V30 14222 C 1348.26 -2.32047 2.46997 0
M  V30 14223 C 1347.43 -2.20441 3.77789 0
M  V30 14224 C 1346.49 -3.36243 4.04755 0
M  V30 14225 O 1345.52 -3.13458 4.75114 0
M  V30 14226 N 1346.72 -4.598 3.54351 0
M  V30 14227 H 1349.49 -0.572486 2.94181 0
M  V30 14228 H 1347.05 -0.165175 1.61055 0
M  V30 14229 H 1349.04 -3.0833 2.62135 0
M  V30 14230 H 1347.61 -2.65581 1.64881 0
M  V30 14231 H 1346.83 -1.28931 3.72519 0
M  V30 14232 H 1348.12 -2.09882 4.63494 0
M  V30 14233 H 1347.52 -4.81207 2.97416 0
M  V30 14234 H 1346.07 -5.33276 3.7478 0
M  V30 14235 N 1349.51 -1.55583 -0.251311 0
M  V30 14236 C 1350.44 -1.9296 -1.31486 0
M  V30 14237 C 1351.42 -0.794001 -1.50431 0
M  V30 14238 O 1352.6 -1.05393 -1.63113 0
M  V30 14239 C 1349.73 -2.22046 -2.67045 0
M  V30 14240 C 1348.69 -3.37816 -2.62801 0
M  V30 14241 C 1348.01 -3.52433 -4.02113 0
M  V30 14242 C 1349.31 -4.73626 -2.20171 0
M  V30 14243 H 1351.01 -2.82046 -1.00451 0
M  V30 14244 H 1348.55 -1.35702 -0.481775 0
M  V30 14245 H 1350.5 -2.46783 -3.41579 0
M  V30 14246 H 1349.23 -1.29782 -2.99707 0
M  V30 14247 H 1347.89 -3.13081 -1.90724 0
M  V30 14248 H 1347.54 -2.57597 -4.32034 0
M  V30 14249 H 1347.24 -4.30283 -4.00163 0
M  V30 14250 H 1348.76 -3.79486 -4.78354 0
M  V30 14251 H 1350.17 -4.97764 -2.84436 0
M  V30 14252 H 1348.57 -5.54547 -2.29341 0
M  V30 14253 H 1349.64 -4.70985 -1.1533 0
M  V30 14254 N 1350.98 0.516783 -1.48886 0
M  V30 14255 C 1351.92 1.63715 -1.58974 0
M  V30 14256 C 1352.89 1.56547 -0.439513 0
M  V30 14257 O 1354.08 1.76831 -0.652924 0
M  V30 14258 C 1351.21 3.02172 -1.53002 0
M  V30 14259 C 1350.25 3.27655 -2.73029 0
M  V30 14260 S 1351.08 3.12489 -4.34869 0
M  V30 14261 C 1352.24 4.53369 -4.31517 0
M  V30 14262 H 1352.47 1.5491 -2.53752 0
M  V30 14263 H 1350.01 0.700754 -1.37582 0
M  V30 14264 H 1351.96 3.82017 -1.50243 0
M  V30 14265 H 1350.63 3.08405 -0.59539 0
M  V30 14266 H 1349.82 4.28693 -2.65026 0
M  V30 14267 H 1349.42 2.55504 -2.73119 0
M  V30 14268 H 1351.71 5.45151 -4.02264 0
M  V30 14269 H 1352.66 4.66425 -5.32779 0
M  V30 14270 H 1353.06 4.3331 -3.61804 0
M  V30 14271 N 1352.46 1.37696 0.766659 0
M  V30 14272 C 1353.69 1.36564 1.56093 0
M  V30 14273 C 1354.11 -0.0455828 1.88045 0
M  V30 14274 O 1353.47 -1.02405 1.49609 0
M  V30 14275 C 1353.52 2.21592 2.84481 0
M  V30 14276 O 1352.62 1.62404 3.79076 0
M  V30 14277 H 1351.96 0.466394 0.472623 0
M  V30 14278 H 1354.49 1.81287 0.948486 0
M  V30 14279 H 1354.5 2.34987 3.33534 0
M  V30 14280 H 1353.18 3.24167 2.60554 0
M  V30 14281 H 1351.75 1.58078 3.37736 0
M  V30 14282 N 1353.94 -0.993397 1.22349 0
M  V30 14283 C 1354.9 -2.065 0.994506 0
M  V30 14284 C 1355.9 -1.60753 -0.0388766 0
M  V30 14285 O 1357.09 -1.73053 0.199578 0
M  V30 14286 C 1354.22 -3.37182 0.502088 0
M  V30 14287 H 1355.42 -2.28248 1.94533 0
M  V30 14288 H 1352.97 -1.16489 1.04211 0
M  V30 14289 H 1353.71 -3.21119 -0.453114 0
M  V30 14290 H 1353.49 -3.71721 1.24763 0
M  V30 14291 H 1354.98 -4.16027 0.362108 0
M  V30 14292 N 1355.42 -1.03311 -1.19015 0
M  V30 14293 C 1356.65 -0.751802 -1.92758 0
M  V30 14294 C 1357.06 0.689982 -1.7574 0
M  V30 14295 O 1356.42 1.46961 -1.08207 0
M  V30 14296 C 1356.47 -1.09892 -3.44392 0
M  V30 14297 O 1356.19 -2.48409 -3.60866 0
M  V30 14298 C 1357.69 -0.841029 -4.35249 0
M  V30 14299 H 1354.91 -0.274757 -0.612168 0
M  V30 14300 H 1357.45 -1.37873 -1.51034 0
M  V30 14301 H 1355.61 -0.517092 -3.83933 0
M  V30 14302 H 1356.02 -2.61468 -4.54681 0
M  V30 14303 H 1357.5 -1.13383 -5.4023 0
M  V30 14304 H 1357.97 0.224434 -4.38626 0
M  V30 14305 H 1358.58 -1.40579 -4.01395 0
M  V30 14306 N 1356.9 1.35099 -0.81154 0
M  V30 14307 C 1358.12 2.0286 -0.406855 0
M  V30 14308 C 1358.54 1.61147 0.98372 0
M  V30 14309 O 1357.9 0.811398 1.6347 0
M  V30 14310 C 1357.95 3.58214 -0.486305 0
M  V30 14311 O 1357.67 3.98412 -1.82206 0
M  V30 14312 C 1359.17 4.43236 -0.0750619 0
M  V30 14313 H 1356.39 0.650482 -0.164664 0
M  V30 14314 H 1358.93 1.72616 -1.09654 0
M  V30 14315 H 1357.09 3.87089 0.155177 0
M  V30 14316 H 1357.5 4.93072 -1.78831 0
M  V30 14317 H 1358.98 5.51701 -0.181759 0
M  V30 14318 H 1359.45 4.28123 0.980169 0
M  V30 14319 H 1360.06 4.19667 -0.689894 0
M  V30 14320 N 1358.37 0.56548 1.47106 0
M  V30 14321 C 1359.3 -0.16567 2.32912 0
M  V30 14322 C 1360.28 -0.900678 1.44298 0
M  V30 14323 O 1361.47 -0.879523 1.73142 0
M  V30 14324 C 1358.6 -1.19092 3.26243 0
M  V30 14325 C 1357.55 -0.571849 4.24163 0
M  V30 14326 C 1356.88 -1.70233 5.06878 0
M  V30 14327 C 1358.18 0.479785 5.20092 0
M  V30 14328 H 1359.87 0.550705 2.94292 0
M  V30 14329 H 1357.42 0.266284 1.41517 0
M  V30 14330 H 1359.37 -1.71064 3.85117 0
M  V30 14331 H 1358.1 -1.93734 2.62934 0
M  V30 14332 H 1356.76 -0.073353 3.66527 0
M  V30 14333 H 1356.4 -2.438 4.39967 0
M  V30 14334 H 1356.1 -1.29384 5.73178 0
M  V30 14335 H 1357.63 -2.22515 5.68612 0
M  V30 14336 H 1359.04 0.0458042 5.73282 0
M  V30 14337 H 1357.44 0.807615 5.94641 0
M  V30 14338 H 1358.51 1.37259 4.65068 0
M  V30 14339 N 1359.85 -1.54672 0.302354 0
M  V30 14340 C 1360.78 -2.2653 -0.566265 0
M  V30 14341 C 1361.76 -1.26532 -1.13682 0
M  V30 14342 O 1362.95 -1.55307 -1.1659 0
M  V30 14343 C 1360.08 -3.00709 -1.73757 0
M  V30 14344 C 1359.03 -4.07865 -1.29731 0
M  V30 14345 C 1358.36 -4.69767 -2.55388 0
M  V30 14346 C 1359.66 -5.20547 -0.427567 0
M  V30 14347 H 1361.35 -2.99382 0.033071 0
M  V30 14348 H 1358.9 -1.4399 0.0173458 0
M  V30 14349 H 1360.85 -3.497 -2.35134 0
M  V30 14350 H 1359.58 -2.25437 -2.36317 0
M  V30 14351 H 1358.23 -3.59726 -0.706586 0
M  V30 14352 H 1357.88 -3.91134 -3.16265 0
M  V30 14353 H 1357.58 -5.42137 -2.26631 0
M  V30 14354 H 1359.11 -5.21521 -3.17566 0
M  V30 14355 H 1360.52 -5.65424 -0.947053 0
M  V30 14356 H 1358.92 -5.99645 -0.233704 0
M  V30 14357 H 1359.99 -4.81805 0.546993 0
M  V30 14358 N 1361.33 -0.0301034 -1.57571 0
M  V30 14359 C 1362.56 0.658488 -1.96142 0
M  V30 14360 C 1362.97 1.65606 -0.906644 0
M  V30 14361 O 1362.33 1.82159 0.111441 0
M  V30 14362 C 1362.38 1.364 -3.34779 0
M  V30 14363 O 1362.1 0.4064 -4.36211 0
M  V30 14364 C 1363.6 2.14432 -3.87987 0
M  V30 14365 H 1360.82 0.181496 -0.645988 0
M  V30 14366 H 1363.37 -0.09016 -2.04301 0
M  V30 14367 H 1361.52 2.06404 -3.27836 0
M  V30 14368 H 1361.94 0.907503 -5.16589 0
M  V30 14369 H 1363.41 2.59248 -4.87334 0
M  V30 14370 H 1363.89 2.98377 -3.22285 0
M  V30 14371 H 1364.49 1.49383 -3.98202 0
M  V30 14372 N 1362.81 1.55714 0.243056 0
M  V30 14373 C 1363.74 1.87093 1.32396 0
M  V30 14374 C 1364.75 0.757482 1.44104 0
M  V30 14375 O 1365.94 1.03563 1.45386 0
M  V30 14376 C 1363.04 2.04546 2.70212 0
M  V30 14377 C 1362.22 3.3543 2.80723 0
M  V30 14378 C 1361.27 3.42578 3.99408 0
M  V30 14379 O 1360.3 4.15762 3.88755 0
M  V30 14380 N 1361.5 2.7215 5.12752 0
M  V30 14381 H 1364.27 2.80399 1.05813 0
M  V30 14382 H 1361.83 1.55998 0.433151 0
M  V30 14383 H 1363.82 2.06665 3.47954 0
M  V30 14384 H 1362.39 1.17966 2.89487 0
M  V30 14385 H 1361.61 3.45594 1.89626 0
M  V30 14386 H 1362.9 4.21692 2.84698 0
M  V30 14387 H 1362.3 2.1243 5.24299 0
M  V30 14388 H 1360.85 2.79957 5.88615 0
M  V30 14389 N 1364.29 -0.50888 1.49158 0
M  V30 14390 C 1365.53 -1.27375 1.59859 0
M  V30 14391 C 1365.89 -1.90012 0.275547 0
M  V30 14392 O 1367.09 -2.67562 0.257682 0
M  V30 14393 C 1365.36 -2.31821 2.72018 0
M  V30 14394 S 1366.92 -3.17752 3.0262 0
M  V30 14395 H 1363.74 -0.432991 0.56395 0
M  V30 14396 H 1366.34 -0.577341 1.86781 0
M  V30 14397 H 1365.05 -1.84321 3.6668 0
M  V30 14398 H 1364.58 -3.06142 2.47065 0
M  V30 14399 H 1366.59 -4.32324 2.43537 0
M  V30 14400 O 1365.8 -1.47661 -0.65409 0
M  V30 14401 H 1366.49 -1.42912 -1.30751 0
M  V30 END ATOM
M  V30 BEGIN BOND
M  V30 END BOND
M  V30 END CTAB
M  END
$$$$
