drugbank_target|Q51225 Dihydrolipoyl dehydrogenase (DB03147)
 OpenBabel12092120263D

  0  0  0     0  0            999 V3000
M  V30 BEGIN CTAB
M  V30 COUNTS 8730 8804 0 0 0
M  V30 BEGIN ATOM
M  V30 1 H -0.908 1.98254 -0.117106 0
M  V30 2 N 0 1.576 0 0
M  V30 3 C 0.933 2.03868 1.02534 0
M  V30 4 C 1.911 0.928543 1.3348 0
M  V30 5 O 3.095 1.19667 1.45644 0
M  V30 6 C 0.222 2.43627 2.35294 0
M  V30 7 C -0.732 3.65373 2.2001 0
M  V30 8 S 0.101 5.13292 1.52614 0
M  V30 9 C 1.257 5.56322 2.86805 0
M  V30 10 H 1.49 2.90518 0.631377 0
M  V30 11 H -0.977 1.52953 0.210867 0
M  V30 12 H 0.981 2.67203 3.11629 0
M  V30 13 H -0.358 1.57376 2.7183 0
M  V30 14 H -1.165 3.90944 3.18086 0
M  V30 15 H -1.563 3.418 1.51819 0
M  V30 16 H 0.729 5.58782 3.83104 0
M  V30 17 H 1.672 6.56266 2.65933 0
M  V30 18 H 2.08 4.83886 2.90714 0
M  V30 19 N 1.4781 -0.272755 1.55222 0
M  V30 20 C 2.4411 -1.32041 1.87344 0
M  V30 21 C 3.4411 -1.42342 0.74803 0
M  V30 22 O 4.6311 -1.41488 1.0162 0
M  V30 23 C 1.7631 -2.70173 2.07893 0
M  V30 24 H 2.9561 -1.04789 2.80997 0
M  V30 25 H 0.5091 -0.51083 1.47717 0
M  V30 26 H 1.2441 -3.02605 1.16622 0
M  V30 27 H 1.0291 -2.64082 2.89833 0
M  V30 28 H 2.5191 -3.45869 2.34017 0
M  V30 29 N 2.9562 -1.48159 -0.537278 0
M  V30 30 C 3.8862 -1.65029 -1.6519 0
M  V30 31 C 4.8672 -0.499281 -1.62607 0
M  V30 32 O 6.0522 -0.730972 -1.79918 0
M  V30 33 C 3.1822 -1.68303 -3.03795 0
M  V30 34 C 2.1362 -2.8283 -3.21234 0
M  V30 35 C 1.4622 -2.71189 -4.60826 0
M  V30 36 C 2.7622 -4.24211 -3.04701 0
M  V30 37 H 4.4562 -2.58341 -1.51328 0
M  V30 38 H 2.0022 -1.24325 -0.726585 0
M  V30 39 H 3.9552 -1.78693 -3.81637 0
M  V30 40 H 2.6792 -0.715635 -3.18663 0
M  V30 41 H 1.3382 -2.71983 -2.45807 0
M  V30 42 H 0.9862 -1.72435 -4.7252 0
M  V30 43 H 0.6862 -3.48035 -4.7344 0
M  V30 44 H 2.2102 -2.83537 -5.40777 0
M  V30 45 H 3.6242 -4.3593 -3.72341 0
M  V30 46 H 2.0212 -5.01998 -3.28813 0
M  V30 47 H 3.0912 -4.41184 -2.01209 0
M  V30 48 N 4.4343 0.785586 -1.36625 0
M  V30 49 C 5.6803 1.54591 -1.31261 0
M  V30 50 C 6.0133 1.93906 0.106823 0
M  V30 51 O 5.2883 1.63007 1.06108 0
M  V30 52 C 5.5713 2.82038 -2.23889 0
M  V30 53 C 5.4243 2.49066 -3.74548 0
M  V30 54 C 6.7433 3.83887 -2.15217 0
M  V30 55 H 3.8623 0.560846 -0.478143 0
M  V30 56 H 6.5043 0.902278 -1.67209 0
M  V30 57 H 4.6543 3.36961 -1.93363 0
M  V30 58 H 6.3263 2.00164 -4.15611 0
M  V30 59 H 4.5693 1.81954 -3.93796 0
M  V30 60 H 5.2403 3.40109 -4.34776 0
M  V30 61 H 7.7163 3.38421 -2.42096 0
M  V30 62 H 6.5923 4.70806 -2.82193 0
M  V30 63 H 6.8533 4.27131 -1.14068 0
M  V30 64 N 5.9124 1.20967 1.01018 0
M  V30 65 C 6.8224 0.980157 2.13143 0
M  V30 66 C 7.8384 -0.0660665 1.73875 0
M  V30 67 O 9.0144 0.122821 2.01025 0
M  V30 68 C 6.0794 0.54216 3.42435 0
M  V30 69 C 5.1404 1.65999 3.95908 0
M  V30 70 C 4.3734 1.2428 5.19028 0
M  V30 71 O 4.5964 0.114196 5.70286 0
M  V30 72 O 3.5304 2.05271 5.65816 0
M  V30 73 H 7.3564 1.91913 2.35379 0
M  V30 74 H 4.9414 0.994099 1.11526 0
M  V30 75 H 6.8234 0.30744 4.20277 0
M  V30 76 H 5.4984 -0.36815 3.216 0
M  V30 77 H 4.4054 1.94906 3.19316 0
M  V30 78 H 5.7384 2.54753 4.21143 0
M  V30 79 N 7.3905 -1.2043 1.01659 0
M  V30 80 C 8.3205 -2.25466 0.607226 0
M  V30 81 C 9.3015 -1.65853 -0.377716 0
M  V30 82 O 10.4865 -1.92409 -0.263149 0
M  V30 83 C 7.6165 -3.47256 -0.0552949 0
M  V30 84 C 6.5705 -4.19462 0.850632 0
M  V30 85 C 5.8965 -5.34673 0.0538859 0
M  V30 86 C 7.1965 -4.75603 2.15868 0
M  V30 87 H 8.8905 -2.59962 1.48526 0
M  V30 88 H 6.4365 -1.2496 0.715605 0
M  V30 89 H 8.3895 -4.19917 -0.353233 0
M  V30 90 H 7.1135 -3.11924 -0.968045 0
M  V30 91 H 5.7725 -3.48667 1.13257 0
M  V30 92 H 5.4205 -4.95585 -0.860514 0
M  V30 93 H 5.1205 -5.83913 0.657192 0
M  V30 94 H 6.6445 -6.10138 -0.237598 0
M  V30 95 H 8.0585 -5.40083 1.92311 0
M  V30 96 H 6.4555 -5.3528 2.71284 0
M  V30 97 H 7.5255 -3.94346 2.82169 0
M  V30 98 N 8.8686 -0.792821 -1.36206 0
M  V30 99 C 9.8156 -0.191653 -2.30003 0
M  V30 100 C 10.7856 0.666453 -1.52143 0
M  V30 101 O 11.9706 0.61442 -1.80636 0
M  V30 102 C 9.1106 0.664848 -3.38635 0
M  V30 103 C 8.2236 -0.212175 -4.31479 0
M  V30 104 C 7.3586 0.651022 -5.27196 0
M  V30 105 C 6.3976 -0.227247 -6.11678 0
M  V30 106 N 5.5346 0.595127 -6.99573 0
M  V30 107 H 10.3746 -0.996978 -2.80828 0
M  V30 108 H 7.9116 -0.503206 -1.38225 0
M  V30 109 H 9.8696 1.17645 -4.00269 0
M  V30 110 H 8.4996 1.43557 -2.89122 0
M  V30 111 H 7.5516 -0.841777 -3.70969 0
M  V30 112 H 8.8636 -0.888751 -4.90818 0
M  V30 113 H 8.0176 1.2283 -5.94136 0
M  V30 114 H 6.7566 1.36121 -4.68319 0
M  V30 115 H 5.7616 -0.816904 -5.43697 0
M  V30 116 H 6.9866 -0.93509 -6.72631 0
M  V30 117 H 4.9326 1.28955 -6.432 0
M  V30 118 H 4.8496 -0.0236952 -7.55996 0
M  V30 119 H 6.1176 1.15613 -7.70879 0
M  V30 120 N 10.3467 1.47872 -0.545128 0
M  V30 121 C 11.5927 2.02793 -0.0166104 0
M  V30 122 C 11.9257 1.41987 1.32489 0
M  V30 123 O 11.2007 0.571045 1.85928 0
M  V30 124 C 11.4837 3.59989 0.0893294 0
M  V30 125 C 11.3367 4.3125 -1.27841 0
M  V30 126 C 12.6557 4.32606 0.808724 0
M  V30 127 H 9.7747 0.736962 -0.00751035 0
M  V30 128 H 12.4167 1.76433 -0.705085 0
M  V30 129 H 10.5667 3.82579 0.675681 0
M  V30 130 H 12.2387 4.20035 -1.90704 0
M  V30 131 H 10.4817 3.92076 -1.85632 0
M  V30 132 H 11.1527 5.39736 -1.15713 0
M  V30 133 H 13.6287 4.14936 0.310992 0
M  V30 134 H 12.5047 5.42251 0.851782 0
M  V30 135 H 12.7657 4.00963 1.86229 0
M  V30 136 N 11.8248 0.280983 1.55075 0
M  V30 137 C 13.2358 -0.215629 1.85451 0
M  V30 138 C 13.5868 -1.54991 1.203 0
M  V30 139 O 12.7118 -2.10699 0.493435 0
M  V30 140 C 13.3068 -0.398026 3.36454 0
M  V30 141 C 11.8658 -0.838866 3.66933 0
M  V30 142 C 11.0128 0.064458 2.77225 0
M  V30 143 H 13.9638 0.502601 1.50531 0
M  V30 144 H 13.9848 -1.23569 3.59876 0
M  V30 145 H 13.4968 0.573241 3.83843 0
M  V30 146 H 11.5978 -1.8214 3.25048 0
M  V30 147 H 11.7108 -0.672123 4.74362 0
M  V30 148 H 10.0748 -0.452863 2.50642 0
M  V30 149 H 10.8578 1.03172 3.2743 0
M  V30 150 N 13.3029 -1.57598 0.00835791 0
M  V30 151 C 14.5799 -1.82172 -0.712235 0
M  V30 152 C 14.9599 -0.887873 -1.9152 0
M  V30 153 O 14.3079 0.06146 -2.28417 0
M  V30 154 C 14.5179 -3.30875 -1.11008 0
M  V30 155 C 15.8659 -3.96826 -1.51044 0
M  V30 156 O 16.8899 -3.35248 -1.20364 0
M  V30 157 O 15.7489 -5.05318 -2.08125 0
M  V30 158 H 12.8429 -0.750435 -0.347529 0
M  V30 159 H 15.3889 -1.69665 0.0344523 0
M  V30 160 H 14.1609 -3.90481 -0.252982 0
M  V30 161 H 13.7839 -3.48412 -1.9156 0
M  V30 162 N 14.781 0.264519 -1.55364 0
M  V30 163 C 16.03 0.992812 -1.75574 0
M  V30 164 C 16.343 1.87142 -0.568979 0
M  V30 165 O 17.549 2.63513 -0.653682 0
M  V30 166 C 16.005 1.81519 -3.10771 0
M  V30 167 C 15.613 0.984839 -4.37041 0
M  V30 168 C 17.357 2.53727 -3.40327 0
M  V30 169 C 15.264 1.80209 -5.63275 0
M  V30 170 H 14.194 0.374412 -0.65447 0
M  V30 171 H 16.845 0.248138 -1.81815 0
M  V30 172 H 15.227 2.60115 -2.98591 0
M  V30 173 H 16.401 0.242455 -4.60162 0
M  V30 174 H 14.716 0.37691 -4.14691 0
M  V30 175 H 17.313 3.15292 -4.3185 0
M  V30 176 H 17.656 3.24447 -2.60845 0
M  V30 177 H 18.189 1.82156 -3.53644 0
M  V30 178 H 14.928 1.13896 -6.45529 0
M  V30 179 H 14.448 2.52022 -5.44284 0
M  V30 180 H 16.127 2.37364 -6.01887 0
M  V30 181 N 16.2591 1.48442 0.529413 0
M  V30 182 C 17.5071 1.56179 1.28267 0
M  V30 183 C 17.8281 0.237721 1.93546 0
M  V30 184 O 17.0981 -0.740779 1.81354 0
M  V30 185 H 15.6781 0.575367 0.476405 0
M  V30 186 H 18.3401 1.84909 0.61602 0
M  V30 187 H 17.4361 2.34312 2.06165 0
M  V30 188 N 17.7372 -0.778329 1.37039 0
M  V30 189 C 18.9852 -1.53361 1.31623 0
M  V30 190 C 19.3062 -1.94739 -0.100831 0
M  V30 191 O 18.5762 -1.65797 -1.04347 0
M  V30 192 H 17.1562 -0.568794 0.484234 0
M  V30 193 H 19.8182 -0.926742 1.71457 0
M  V30 194 H 18.9142 -2.43606 1.95096 0
M  V30 195 N 19.2153 -1.21501 -1.00376 0
M  V30 196 C 20.1653 -0.942843 -2.07592 0
M  V30 197 C 21.1493 0.102384 -1.60574 0
M  V30 198 O 22.3413 -0.10671 -1.76678 0
M  V30 199 C 19.4703 -0.510729 -3.3948 0
M  V30 200 C 18.5563 -1.59009 -3.93163 0
M  V30 201 N 18.9473 -2.81544 -4.20198 0
M  V30 202 C 17.2453 -1.45925 -4.21452 0
M  V30 203 C 17.9463 -3.51261 -4.63671 0
M  V30 204 N 16.9223 -2.78703 -4.66718 0
M  V30 205 H 20.7243 -1.87378 -2.26421 0
M  V30 206 H 18.2383 -1.11093 -1.18458 0
M  V30 207 H 20.2353 -0.297101 -4.1584 0
M  V30 208 H 18.8953 0.413436 -3.22057 0
M  V30 209 H 19.9063 -3.18075 -4.08716 0
M  V30 210 H 16.5833 -0.600467 -4.13159 0
M  V30 211 H 17.9733 -4.56183 -4.93302 0
M  V30 212 N 20.6934 1.19889 -1.02296 0
M  V30 213 C 21.6034 2.26571 -0.608508 0
M  V30 214 C 22.6194 1.70299 0.356964 0
M  V30 215 O 23.7954 2.00235 0.216326 0
M  V30 216 C 20.8604 3.46677 0.0402814 0
M  V30 217 C 19.9214 4.18153 -0.97194 0
M  V30 218 C 19.1544 5.32525 -0.354016 0
M  V30 219 O 19.3774 5.64112 0.844604 0
M  V30 220 O 18.3114 5.92242 -1.07391 0
M  V30 221 H 22.1374 2.64251 -1.49684 0
M  V30 222 H 19.7224 1.26629 -0.792809 0
M  V30 223 H 21.6044 4.19475 0.402324 0
M  V30 224 H 20.2794 3.10858 0.902707 0
M  V30 225 H 19.1864 3.47499 -1.38546 0
M  V30 226 H 20.5194 4.57927 -1.80454 0
M  V30 227 N 22.1715 0.800033 1.35784 0
M  V30 228 C 23.1195 0.193851 2.31791 0
M  V30 229 C 24.1135 -0.652744 1.56319 0
M  V30 230 O 25.3195 -0.546641 1.71499 0
M  V30 231 H 21.6945 0.04392 0.750716 0
M  V30 232 H 23.6655 1.01883 2.80468 0
M  V30 233 C 22.4145 -0.648338 3.41602 0
M  V30 234 H 21.7375 -0.00624665 3.998 0
M  V30 235 H 23.1775 -1.03898 4.11073 0
M  V30 236 C 21.6365 -1.8111 2.84079 0
M  V30 237 O 22.1665 -2.90825 2.77099 0
M  V30 238 N 20.3725 -1.62056 2.41218 0
M  V30 239 H 19.9195 -0.728123 2.47095 0
M  V30 240 H 19.8775 -2.40013 2.03079 0
M  V30 241 N 23.6496 -1.47581 0.552962 0
M  V30 242 C 24.8956 -2.02782 0.0273648 0
M  V30 243 C 25.2286 -1.42687 -1.31734 0
M  V30 244 O 24.5036 -0.580897 -1.85623 0
M  V30 245 C 24.7866 -3.60031 -0.0702371 0
M  V30 246 C 24.6396 -4.30566 1.30126 0
M  V30 247 C 25.9586 -4.33028 -0.785771 0
M  V30 248 H 23.0776 -0.736912 0.0114185 0
M  V30 249 H 25.7196 -1.76056 0.714432 0
M  V30 250 H 23.8696 -3.82932 -0.655382 0
M  V30 251 H 25.5416 -4.19018 1.92929 0
M  V30 252 H 23.7846 -3.91086 1.87709 0
M  V30 253 H 24.4556 -5.39114 1.18573 0
M  V30 254 H 26.9316 -4.15095 -0.288982 0
M  V30 255 H 25.8076 -5.42695 -0.823013 0
M  V30 256 H 26.0686 -4.01945 -1.841 0
M  V30 257 N 25.1277 -0.289203 -1.54924 0
M  V30 258 C 26.4047 0.376032 -1.91951 0
M  V30 259 C 26.7847 1.72622 -1.21511 0
M  V30 260 O 26.1327 2.25853 -0.346767 0
M  V30 261 C 26.3427 0.502378 -3.45365 0
M  V30 262 C 27.6907 0.778741 -4.17398 0
M  V30 263 O 28.7147 0.586647 -3.51336 0
M  V30 264 O 27.5737 1.14698 -5.34328 0
M  V30 265 H 24.6677 0.208167 -0.800372 0
M  V30 266 H 27.2137 -0.336394 -1.66332 0
M  V30 267 H 25.9857 -0.447255 -3.88736 0
M  V30 268 H 25.6087 1.26373 -3.76982 0
M  V30 269 N 26.6058 1.57591 -0.0167156 0
M  V30 270 C 27.8548 1.90461 0.663877 0
M  V30 271 C 28.1678 0.893515 1.73999 0
M  V30 272 O 29.3738 1.11302 2.47637 0
M  V30 273 C 27.8298 3.38155 1.23204 0
M  V30 274 C 27.4378 4.47597 0.189866 0
M  V30 275 C 29.1818 3.80111 1.88986 0
M  V30 276 C 27.0888 5.86379 0.768964 0
M  V30 277 H 26.0188 0.710738 0.251729 0
M  V30 278 H 28.6698 1.83326 -0.0799926 0
M  V30 279 H 27.0518 3.40182 2.02712 0
M  V30 280 H 28.2258 4.57112 -0.581846 0
M  V30 281 H 26.5408 4.14766 -0.368475 0
M  V30 282 H 29.1378 4.81145 2.33247 0
M  V30 283 H 29.4808 3.14511 2.72743 0
M  V30 284 H 30.0138 3.80454 1.16187 0
M  V30 285 H 26.7528 6.55493 -0.0301957 0
M  V30 286 H 26.2728 5.80496 1.50945 0
M  V30 287 H 27.9518 6.34563 1.26251 0
M  V30 288 N 28.0839 -0.256276 1.55502 0
M  V30 289 C 29.3329 -0.983486 1.76098 0
M  V30 290 C 29.6459 -1.86837 0.578896 0
M  V30 291 O 30.8519 -2.63163 0.667648 0
M  V30 292 C 29.3079 -1.79868 3.1173 0
M  V30 293 C 28.9159 -0.961648 4.37557 0
M  V30 294 C 30.6599 -2.51919 3.41668 0
M  V30 295 C 28.5669 -1.77219 5.64223 0
M  V30 296 H 27.4969 -0.370936 0.656447 0
M  V30 297 H 30.1479 -0.238492 1.81944 0
M  V30 298 H 28.5299 -2.58527 2.99966 0
M  V30 299 H 29.7039 -0.218048 4.60284 0
M  V30 300 H 28.0189 -0.354913 4.14885 0
M  V30 301 H 30.6159 -3.12998 4.33516 0
M  V30 302 H 30.9589 -3.23059 2.62562 0
M  V30 303 H 31.4919 -1.80278 3.54605 0
M  V30 304 H 28.2309 -1.10471 6.46124 0
M  V30 305 H 27.7509 -2.49132 5.45613 0
M  V30 306 H 29.4299 -2.34169 6.03137 0
M  V30 307 N 29.562 -1.4872 -0.521534 0
M  V30 308 C 30.525 -1.63379 -1.60748 0
M  V30 309 C 31.525 -0.50661 -1.52611 0
M  V30 310 O 32.715 -0.772601 -1.5613 0
M  V30 311 C 29.847 -1.61192 -3.00383 0
M  V30 312 H 31.04 -2.60217 -1.49087 0
M  V30 313 H 28.593 -1.37444 -0.744235 0
M  V30 314 H 29.328 -0.65863 -3.17541 0
M  V30 315 H 29.113 -2.43032 -3.07698 0
M  V30 316 H 30.603 -1.7466 -3.7932 0
M  V30 317 N 31.0401 0.771051 -1.3745 0
M  V30 318 C 32.2861 1.5319 -1.32894 0
M  V30 319 C 32.6191 1.94008 0.0862511 0
M  V30 320 O 31.8941 1.64124 1.04373 0
M  V30 321 C 32.1771 2.79648 -2.26868 0
M  V30 322 C 32.0301 2.45079 -3.77169 0
M  V30 323 C 33.3491 3.81583 -2.19277 0
M  V30 324 H 30.4681 0.555744 -0.484064 0
M  V30 325 H 33.1101 0.884492 -1.68157 0
M  V30 326 H 31.2601 3.34891 -1.96926 0
M  V30 327 H 32.9321 1.95745 -4.1771 0
M  V30 328 H 31.1751 1.77767 -3.95704 0
M  V30 329 H 31.8461 3.35478 -4.38359 0
M  V30 330 H 34.3221 3.35835 -2.45671 0
M  V30 331 H 33.1981 4.67787 -2.87171 0
M  V30 332 H 33.4591 4.25897 -1.18592 0
M  V30 333 N 32.5182 1.22032 0.997298 0
M  V30 334 C 33.4282 1.00271 2.12092 0
M  V30 335 C 34.4442 -0.047621 1.73935 0
M  V30 336 O 35.6202 0.144136 2.00884 0
M  V30 337 C 32.6852 0.578449 3.4184 0
M  V30 338 C 31.7462 1.70189 3.94125 0
M  V30 339 C 30.9792 1.29778 5.17681 0
M  V30 340 O 31.2022 0.174676 5.70132 0
M  V30 341 O 30.1362 2.11261 5.63607 0
M  V30 342 H 33.9622 1.94398 2.3333 0
M  V30 343 H 31.5472 1.00587 1.10465 0
M  V30 344 H 33.4292 0.351998 4.19927 0
M  V30 345 H 32.1042 -0.334019 3.21972 0
M  V30 346 H 31.0112 1.98282 3.1723 0
M  V30 347 H 32.3442 2.59206 4.18417 0
M  V30 348 N 33.9963 -1.19345 1.0293 0
M  V30 349 C 35.2423 -1.89318 0.727083 0
M  V30 350 C 35.5753 -1.79446 -0.742483 0
M  V30 351 O 34.8503 -1.1871 -1.54072 0
M  V30 352 C 35.1333 -3.40238 1.17942 0
M  V30 353 C 34.9863 -3.58979 2.71024 0
M  V30 354 C 36.3053 -4.33479 0.760548 0
M  V30 355 H 33.4243 -0.687475 0.265606 0
M  V30 356 H 36.0663 -1.40477 1.2793 0
M  V30 357 H 34.2163 -3.81964 0.709608 0
M  V30 358 H 35.8883 -3.26421 3.25955 0
M  V30 359 H 34.1313 -3.02018 3.11396 0
M  V30 360 H 34.8023 -4.64823 2.9773 0
M  V30 361 H 37.2783 -3.99469 1.16464 0
M  V30 362 H 36.1543 -5.37664 1.10493 0
M  V30 363 H 36.4153 -4.40813 -0.337063 0
M  V30 364 N 35.4744 -0.807222 -1.35358 0
M  V30 365 C 36.4224 -0.20614 -2.31685 0
M  V30 366 C 37.4164 0.644445 -1.56663 0
M  V30 367 O 38.6224 0.537538 -1.71786 0
M  V30 368 H 34.9974 -0.0479006 -0.750473 0
M  V30 369 H 36.9684 -1.03369 -2.79924 0
M  V30 370 C 35.7174 0.630212 -3.41941 0
M  V30 371 H 35.0404 -0.0149558 -3.99797 0
M  V30 372 H 36.4804 1.01716 -4.11619 0
M  V30 373 C 34.9394 1.79601 -2.85035 0
M  V30 374 O 35.4694 2.89351 -2.78637 0
M  V30 375 N 33.6754 1.60774 -2.42074 0
M  V30 376 H 33.2224 0.715009 -2.47478 0
M  V30 377 H 33.1804 2.38933 -2.04349 0
M  V30 378 N 36.9525 1.47285 -0.560781 0
M  V30 379 C 38.1985 2.02764 -0.0381184 0
M  V30 380 C 38.5315 1.43384 1.30976 0
M  V30 381 O 37.8065 0.590733 1.85312 0
M  V30 382 C 38.0895 3.60064 0.0511427 0
M  V30 383 C 37.9425 4.2987 -1.32408 0
M  V30 384 C 39.2615 4.33439 0.762795 0
M  V30 385 H 36.3805 0.736841 -0.0153264 0
M  V30 386 H 39.0225 1.75675 -0.723759 0
M  V30 387 H 37.1725 3.83274 0.635065 0
M  V30 388 H 38.8445 4.17989 -1.95148 0
M  V30 389 H 37.0875 3.90085 -1.8978 0
M  V30 390 H 37.7585 5.38478 -1.21431 0
M  V30 391 H 40.2345 4.15243 0.266965 0
M  V30 392 H 39.1105 5.43124 0.794221 0
M  V30 393 H 39.3715 4.02915 1.81966 0
M  V30 394 N 38.4306 0.297415 1.54768 0
M  V30 395 C 39.6786 -0.312295 1.99673 0
M  V30 396 C 39.9996 -1.54686 1.18732 0
M  V30 397 O 39.2696 -1.93854 0.282382 0
M  V30 398 H 37.8496 -0.118381 0.73756 0
M  V30 399 H 40.5116 0.407915 1.90583 0
M  V30 400 H 39.6076 -0.586813 3.06534 0
M  V30 401 N 39.9087 -1.5758 0.0250728 0
M  V30 402 C 41.1857 -1.82917 -0.692873 0
M  V30 403 C 41.5657 -0.908137 -1.90568 0
M  V30 404 O 40.9137 0.0372298 -2.2847 0
M  V30 405 C 41.1237 -3.32034 -1.07492 0
M  V30 406 C 42.4717 -3.98406 -1.46826 0
M  V30 407 O 43.4957 -3.36505 -1.16801 0
M  V30 408 O 42.3547 -5.07497 -2.02754 0
M  V30 409 H 39.4487 -0.754079 -0.33955 0
M  V30 410 H 41.9947 -1.69619 0.0524456 0
M  V30 411 H 40.7667 -3.90728 -0.211552 0
M  V30 412 H 40.3897 -3.50424 -1.87854 0
M  V30 413 N 41.3868 0.248026 -1.55636 0
M  V30 414 C 42.6148 0.993808 -1.81469 0
M  V30 415 C 43.0298 1.78991 -0.60064 0
M  V30 416 O 42.3868 1.77345 0.430682 0
M  V30 417 C 42.4378 1.93258 -3.05506 0
M  V30 418 O 42.1588 1.16869 -4.22224 0
M  V30 419 C 43.6598 2.79444 -3.4413 0
M  V30 420 H 40.8798 0.292486 -0.603898 0
M  V30 421 H 43.4238 0.271253 -2.02693 0
M  V30 422 H 41.5788 2.60943 -2.86335 0
M  V30 423 H 41.9928 1.80359 -4.92515 0
M  V30 424 H 43.4668 3.41066 -4.34026 0
M  V30 425 H 43.9438 3.50499 -2.64665 0
M  V30 426 H 44.5498 2.17214 -3.65648 0
M  V30 427 N 42.8649 1.48995 0.513639 0
M  V30 428 C 44.1139 1.57093 1.2651 0
M  V30 429 C 44.4269 0.257091 1.93903 0
M  V30 430 O 45.6329 0.216478 2.70636 0
M  V30 431 C 44.0889 2.77118 2.29638 0
M  V30 432 C 43.6969 4.15209 1.68241 0
M  V30 433 C 45.4409 2.94538 3.05692 0
M  V30 434 C 43.3479 5.26474 2.69406 0
M  V30 435 H 42.2779 0.584876 0.475854 0
M  V30 436 H 44.9289 1.7536 0.540487 0
M  V30 437 H 43.3109 2.52319 3.05207 0
M  V30 438 H 44.4849 4.50094 0.987505 0
M  V30 439 H 42.7999 4.03042 1.04623 0
M  V30 440 H 45.3969 3.74832 3.8132 0
M  V30 441 H 45.7399 2.04614 3.62545 0
M  V30 442 H 46.2729 3.19316 2.37238 0
M  V30 443 H 43.0119 6.18417 2.17351 0
M  V30 444 H 42.5319 4.96058 3.37175 0
M  V30 445 H 44.2109 5.55277 3.32078 0
M  V30 446 N 44.343 -0.763751 1.37857 0
M  V30 447 C 45.306 -1.85889 1.34081 0
M  V30 448 C 46.306 -1.58949 0.243277 0
M  V30 449 O 47.496 -1.66882 0.499589 0
M  V30 450 C 44.628 -3.23176 1.08489 0
M  V30 451 H 45.821 -1.90648 2.31502 0
M  V30 452 H 43.374 -0.964367 1.23003 0
M  V30 453 H 44.109 -3.24091 0.116318 0
M  V30 454 H 43.894 -3.44124 1.8794 0
M  V30 455 H 45.384 -4.03254 1.08517 0
M  V30 456 N 45.8211 -1.22559 -0.990812 0
M  V30 457 C 47.0671 -1.05297 -1.73322 0
M  V30 458 C 47.4001 0.410655 -1.89808 0
M  V30 459 O 46.6751 1.30439 -1.44277 0
M  V30 460 C 46.9581 -1.76713 -3.13759 0
M  V30 461 C 46.8111 -3.30684 -3.04907 0
M  V30 462 C 48.1301 -1.52121 -4.12974 0
M  V30 463 H 45.2491 -0.38392 -0.629106 0
M  V30 464 H 47.8911 -1.50926 -1.15418 0
M  V30 465 H 46.0411 -1.37924 -3.63193 0
M  V30 466 H 47.7131 -3.7893 -2.63077 0
M  V30 467 H 45.9561 -3.60253 -2.41661 0
M  V30 468 H 46.6271 -3.75833 -4.04294 0
M  V30 469 H 49.1031 -1.85819 -3.72304 0
M  V30 470 H 47.9791 -2.04582 -5.0935 0
M  V30 471 H 48.2401 -0.454257 -4.3976 0
M  V30 472 N 47.2992 1.18797 -1.03562 0
M  V30 473 C 48.5762 1.84469 -0.650434 0
M  V30 474 C 48.9562 1.92319 0.870433 0
M  V30 475 O 48.3042 1.44528 1.76986 0
M  V30 476 C 48.5142 3.2306 -1.32036 0
M  V30 477 C 49.8622 3.9915 -1.44792 0
M  V30 478 O 50.8862 3.32481 -1.27806 0
M  V30 479 O 49.7452 5.18587 -1.72423 0
M  V30 480 H 46.8392 0.795251 -0.226946 0
M  V30 481 H 49.3852 1.26231 -1.13419 0
M  V30 482 H 48.1572 3.1222 -2.3587 0
M  V30 483 H 47.7802 3.88949 -0.8249 0
M  V30 484 N 48.7773 0.814389 1.34928 0
M  V30 485 C 50.0543 0.321363 1.92942 0
M  V30 486 C 50.4343 -1.19014 1.74353 0
M  V30 487 O 49.7823 -1.99328 1.11716 0
M  V30 488 C 49.9923 0.741323 3.41036 0
M  V30 489 C 51.3403 0.735266 4.18185 0
M  V30 490 O 52.3643 0.68336 3.49584 0
M  V30 491 O 51.2233 0.800703 5.40602 0
M  V30 492 H 48.3173 0.0858893 0.822528 0
M  V30 493 H 50.8633 0.898609 1.43955 0
M  V30 494 H 49.6353 1.78276 3.4833 0
M  V30 495 H 49.2583 0.139307 3.97356 0
M  V30 496 N 50.2554 -1.46986 0.568584 0
M  V30 497 C 51.4834 -2.0683 0.0539956 0
M  V30 498 C 51.8984 -1.41953 -1.24478 0
M  V30 499 O 51.2554 -0.519933 -1.74937 0
M  V30 500 C 51.3064 -3.61254 -0.133362 0
M  V30 501 O 51.0274 -4.237 1.11399 0
M  V30 502 C 52.5284 -4.37992 -0.683927 0
M  V30 503 H 49.7484 -0.669058 0.0510141 0
M  V30 504 H 52.2924 -1.88824 0.785234 0
M  V30 505 H 50.4474 -3.78735 -0.81477 0
M  V30 506 H 50.8614 -5.16388 0.91888 0
M  V30 507 H 52.3354 -5.46684 -0.764263 0
M  V30 508 H 52.8124 -4.05058 -1.69778 0
M  V30 509 H 53.4184 -4.25283 -0.0378494 0
M  V30 510 N 51.7335 -0.305618 -1.54608 0
M  V30 511 C 52.6635 0.561482 -2.26649 0
M  V30 512 C 53.6445 1.13415 -1.26772 0
M  V30 513 O 54.8295 1.16262 -1.55553 0
M  V30 514 C 51.9595 1.73122 -3.01075 0
M  V30 515 C 50.9135 1.2887 -4.08138 0
M  V30 516 C 50.2395 2.54396 -4.70305 0
M  V30 517 C 51.5395 0.416578 -5.20636 0
M  V30 518 H 53.2335 -0.0393902 -2.99374 0
M  V30 519 H 50.7795 -0.020385 -1.43986 0
M  V30 520 H 52.7325 2.34396 -3.50195 0
M  V30 521 H 51.4565 2.3584 -2.25936 0
M  V30 522 H 50.1155 0.698991 -3.59875 0
M  V30 523 H 49.7635 3.15439 -3.918 0
M  V30 524 H 49.4635 2.25486 -5.42614 0
M  V30 525 H 50.9875 3.16464 -5.2219 0
M  V30 526 H 52.4015 0.935116 -5.65622 0
M  V30 527 H 50.7985 0.221046 -5.99693 0
M  V30 528 H 51.8685 -0.557162 -4.81688 0
M  V30 529 N 53.2116 1.57565 -0.0334293 0
M  V30 530 C 54.4606 1.91155 0.643639 0
M  V30 531 C 54.7736 0.91192 1.73042 0
M  V30 532 O 55.9796 1.13923 2.46442 0
M  V30 533 C 54.4356 3.39443 1.1961 0
M  V30 534 C 54.0436 4.47774 0.142381 0
M  V30 535 C 55.7876 3.82094 1.84944 0
M  V30 536 C 53.6946 5.87162 0.706727 0
M  V30 537 H 52.6246 0.713368 0.244176 0
M  V30 538 H 55.2756 1.8323 -0.0994323 0
M  V30 539 H 53.6576 3.42313 1.99092 0
M  V30 540 H 54.8316 4.56469 -0.630296 0
M  V30 541 H 53.1466 4.14352 -0.412446 0
M  V30 542 H 55.7436 4.83591 2.2813 0
M  V30 543 H 56.0866 3.17386 2.69392 0
M  V30 544 H 56.6196 3.81665 1.12145 0
M  V30 545 H 53.3586 6.55424 -0.0997178 0
M  V30 546 H 52.8786 5.82064 1.44779 0
M  V30 547 H 54.5576 6.35866 1.19514 0
M  V30 548 N 54.6897 -0.239769 1.55765 0
M  V30 549 C 55.9177 -0.98417 1.81994 0
M  V30 550 C 56.3327 -1.7867 0.610124 0
M  V30 551 O 55.6897 -1.77571 -0.421271 0
M  V30 552 C 55.7407 -1.91635 3.06526 0
M  V30 553 O 55.4617 -1.14629 4.22838 0
M  V30 554 C 56.9627 -2.77616 3.45607 0
M  V30 555 H 54.1827 -0.28928 0.605441 0
M  V30 556 H 56.7267 -0.260499 2.02834 0
M  V30 557 H 54.8817 -2.5942 2.87715 0
M  V30 558 H 55.2957 -1.77745 4.93464 0
M  V30 559 H 56.7697 -3.38759 4.35828 0
M  V30 560 H 57.2467 -3.4909 2.6652 0
M  V30 561 H 57.8527 -2.15271 3.66795 0
M  V30 562 N 56.1678 -1.49265 -0.50573 0
M  V30 563 C 57.0978 -1.68495 -1.61653 0
M  V30 564 C 58.0788 -0.53366 -1.61512 0
M  V30 565 O 59.2638 -0.76897 -1.78327 0
M  V30 566 C 56.3938 -1.74709 -3.00157 0
M  V30 567 C 55.3478 -2.89581 -3.15162 0
M  V30 568 C 54.6738 -2.80903 -4.5497 0
M  V30 569 C 55.9738 -4.30578 -2.95634 0
M  V30 570 H 57.6678 -2.61493 -1.45814 0
M  V30 571 H 55.2138 -1.25838 -0.70005 0
M  V30 572 H 57.1668 -1.86748 -3.77761 0
M  V30 573 H 55.8908 -0.783067 -3.17074 0
M  V30 574 H 54.5498 -2.77136 -2.39982 0
M  V30 575 H 54.1978 -1.82419 -4.68756 0
M  V30 576 H 53.8978 -3.57999 -4.65951 0
M  V30 577 H 55.4218 -2.94944 -5.34641 0
M  V30 578 H 56.8358 -4.4373 -3.63011 0
M  V30 579 H 55.2328 -5.0886 -3.18091 0
M  V30 580 H 56.3028 -4.45352 -1.91806 0
M  V30 581 N 57.6459 0.756429 -1.3826 0
M  V30 582 C 58.5559 1.9009 -1.37488 0
M  V30 583 C 59.5719 1.71855 -0.272366 0
M  V30 584 O 60.7479 1.94827 -0.510318 0
M  V30 585 C 57.8129 3.25421 -1.19592 0
M  V30 586 C 56.8739 3.56202 -2.39622 0
M  V30 587 C 56.1069 4.85075 -2.2257 0
M  V30 588 O 56.3299 5.57246 -1.21793 0
M  V30 589 O 55.2639 5.15269 -3.11098 0
M  V30 590 H 59.0899 1.93695 -2.33914 0
M  V30 591 H 56.6749 0.901313 -1.1915 0
M  V30 592 H 58.5569 4.06337 -1.11661 0
M  V30 593 H 57.2319 3.22634 -0.262486 0
M  V30 594 H 56.1389 2.75458 -2.53128 0
M  V30 595 H 57.4719 3.63747 -3.31586 0
M  V30 596 N 59.124 1.23083 0.984299 0
M  V30 597 C 60.352 1.08714 1.76037 0
M  V30 598 C 60.767 -0.361691 1.85303 0
M  V30 599 O 60.124 -1.25034 1.32939 0
M  V30 600 C 60.175 1.70206 3.18923 0
M  V30 601 O 59.896 3.09423 3.10144 0
M  V30 602 C 61.397 1.61227 4.12941 0
M  V30 603 H 58.617 0.380664 0.552572 0
M  V30 604 H 61.161 1.62853 1.23689 0
M  V30 605 H 59.316 1.20109 3.6831 0
M  V30 606 H 59.73 3.39188 4.00065 0
M  V30 607 H 61.204 2.08962 5.10919 0
M  V30 608 H 61.681 0.570375 4.35481 0
M  V30 609 H 62.287 2.10671 3.69456 0
M  V30 610 N 60.6021 -1.18246 1.0419 0
M  V30 611 C 61.8791 -1.84121 0.660208 0
M  V30 612 C 62.2591 -1.92778 -0.860221 0
M  V30 613 O 61.6071 -1.45464 -1.76217 0
M  V30 614 C 61.8171 -3.22355 1.33747 0
M  V30 615 C 63.1651 -3.98376 1.46906 0
M  V30 616 O 64.1891 -3.31799 1.29568 0
M  V30 617 O 63.0481 -5.17665 1.75171 0
M  V30 618 H 60.1421 -0.794036 0.231161 0
M  V30 619 H 62.6881 -1.25628 1.14087 0
M  V30 620 H 61.4601 -3.10964 2.37522 0
M  V30 621 H 61.0831 -3.88506 0.845515 0
M  V30 622 N 62.0802 -0.821533 -1.34494 0
M  V30 623 C 63.0272 -0.240397 -2.29545 0
M  V30 624 C 63.9972 0.634031 -1.53523 0
M  V30 625 O 65.1822 0.575966 -1.81899 0
M  V30 626 C 62.3222 0.592869 -3.39969 0
M  V30 627 C 61.4352 -0.30365 -4.30932 0
M  V30 628 C 60.5702 0.539049 -5.28458 0
M  V30 629 C 59.6092 -0.356942 -6.11058 0
M  V30 630 N 58.7462 0.446603 -7.00678 0
M  V30 631 H 63.5862 -1.05632 -2.7865 0
M  V30 632 H 61.1232 -0.532413 -1.37127 0
M  V30 633 H 63.0812 1.09129 -4.02675 0
M  V30 634 H 61.7112 1.37392 -2.92102 0
M  V30 635 H 60.7632 -0.920276 -3.691 0
M  V30 636 H 62.0752 -0.992661 -4.88823 0
M  V30 637 H 61.2292 1.102 -5.96608 0
M  V30 638 H 59.9682 1.26157 -4.71101 0
M  V30 639 H 58.9732 -0.932047 -5.41842 0
M  V30 640 H 60.1982 -1.07755 -6.70497 0
M  V30 641 H 58.1442 1.15282 -6.45791 0
M  V30 642 H 58.0612 -0.184048 -7.55776 0
M  V30 643 H 59.3292 0.992352 -7.73158 0
M  V30 644 N 63.5583 1.46682 -0.576371 0
M  V30 645 C 64.5213 2.28707 0.150239 0
M  V30 646 C 65.5213 1.38035 0.824794 0
M  V30 647 O 66.7113 1.60476 0.677719 0
M  V30 648 C 63.8433 3.18248 1.22192 0
M  V30 649 H 65.0363 2.94423 -0.570521 0
M  V30 650 H 62.5893 1.52688 -0.334078 0
M  V30 651 H 63.3243 2.57265 1.97447 0
M  V30 652 H 63.1093 3.85 0.742812 0
M  V30 653 H 64.5993 3.80001 1.73172 0
M  V30 654 N 65.0364 0.313813 1.54444 0
M  V30 655 C 66.2644 -0.293918 2.04802 0
M  V30 656 C 66.6794 -1.46537 1.19047 0
M  V30 657 O 66.0364 -1.81182 0.218939 0
M  V30 658 C 66.0874 -0.737806 3.53891 0
M  V30 659 O 65.8084 0.387038 4.36387 0
M  V30 660 C 67.3094 -1.40936 4.203 0
M  V30 661 H 64.5294 -0.0620057 0.668129 0
M  V30 662 H 67.0734 0.457169 1.99324 0
M  V30 663 H 65.2284 -1.43889 3.59687 0
M  V30 664 H 65.6424 0.0391274 5.24485 0
M  V30 665 H 67.1164 -1.67099 5.26101 0
M  V30 666 H 67.5934 -2.35355 3.70816 0
M  V30 667 H 68.1994 -0.751117 4.18615 0
M  V30 668 N 66.5145 -1.57545 0.0417849 0
M  V30 669 C 67.4475 -2.06514 -0.970928 0
M  V30 670 C 68.4255 -0.963607 -1.30971 0
M  V30 671 O 69.6095 -1.23486 -1.4242 0
M  V30 672 C 66.7365 -2.4978 -2.28752 0
M  V30 673 C 65.7825 -3.71078 -2.10246 0
M  V30 674 S 66.6155 -5.17158 -1.38952 0
M  V30 675 C 67.7715 -5.6373 -2.71954 0
M  V30 676 H 68.0045 -2.9209 -0.554129 0
M  V30 677 H 65.5375 -1.53459 -0.17024 0
M  V30 678 H 67.4955 -2.75371 -3.04435 0
M  V30 679 H 66.1565 -1.64527 -2.67562 0
M  V30 680 H 65.3495 -3.9924 -3.07609 0
M  V30 681 H 64.9515 -3.45705 -1.42704 0
M  V30 682 H 67.2435 -5.68743 -3.68154 0
M  V30 683 H 68.1865 -6.63086 -2.4844 0
M  V30 684 H 68.5945 -4.91424 -2.77782 0
M  V30 685 N 67.9926 0.231505 -1.5589 0
M  V30 686 C 69.2696 0.981096 -1.69215 0
M  V30 687 C 69.6496 2.02799 -0.586164 0
M  V30 688 O 68.9976 2.24823 0.408253 0
M  V30 689 C 69.2076 1.60054 -3.10135 0
M  V30 690 C 70.5556 2.09658 -3.69227 0
M  V30 691 O 71.5796 1.69967 -3.13033 0
M  V30 692 O 70.4386 2.8258 -4.67772 0
M  V30 693 H 67.5326 0.457653 -0.688827 0
M  V30 694 H 70.0786 0.224073 -1.68214 0
M  V30 695 H 68.8506 0.844105 -3.82087 0
M  V30 696 H 68.4736 2.42336 -3.15212 0
M  V30 697 N 69.4707 1.49531 0.497807 0
M  V30 698 C 70.7167 1.59415 1.25358 0
M  V30 699 C 71.0497 0.281422 1.9215 0
M  V30 700 O 70.3247 -0.715249 1.80871 0
M  V30 701 C 70.6077 2.75566 2.3181 0
M  V30 702 C 70.4607 4.16642 1.69498 0
M  V30 703 C 71.7797 2.87347 3.33346 0
M  V30 704 H 68.8987 0.580244 0.454408 0
M  V30 705 H 71.5407 1.81827 0.551262 0
M  V30 706 H 69.6907 2.56587 2.91711 0
M  V30 707 H 71.3627 4.47145 1.13399 0
M  V30 708 H 69.6057 4.22141 0.998978 0
M  V30 709 H 70.2767 4.93792 2.46725 0
M  V30 710 H 72.7527 3.04634 2.83438 0
M  V30 711 H 71.6287 3.70289 4.05188 0
M  V30 712 H 71.8897 1.96834 3.95865 0
M  V30 713 N 70.9488 -0.749086 1.3866 0
M  V30 714 C 72.3598 -1.32664 1.31366 0
M  V30 715 C 72.7108 -1.96179 -0.028484 0
M  V30 716 O 71.8358 -1.9537 -0.93057 0
M  V30 717 C 72.4308 -2.41219 2.37905 0
M  V30 718 C 70.9898 -2.94684 2.34176 0
M  V30 719 C 70.1368 -1.68108 2.20533 0
M  V30 720 H 73.0878 -0.547628 1.48952 0
M  V30 721 H 73.1088 -3.21268 2.0388 0
M  V30 722 H 72.6208 -1.94962 3.35576 0
M  V30 723 H 70.7218 -3.45258 1.401 0
M  V30 724 H 70.8348 -3.48757 3.2849 0
M  V30 725 H 69.1988 -1.91907 1.67463 0
M  V30 726 H 69.9818 -1.23923 3.20153 0
M  V30 727 N 72.4269 -1.23603 -0.977757 0
M  V30 728 C 73.3899 -1.02069 -2.05218 0
M  V30 729 C 74.3899 0.0184305 -1.60789 0
M  V30 730 O 75.5799 -0.221569 -1.72785 0
M  V30 731 C 72.7119 -0.544926 -3.36517 0
M  V30 732 H 73.9049 -1.9742 -2.25755 0
M  V30 733 H 71.4579 -1.05684 -1.15155 0
M  V30 734 H 72.1929 0.412241 -3.21669 0
M  V30 735 H 71.9779 -1.2948 -3.70105 0
M  V30 736 H 73.4679 -0.414985 -4.15533 0
M  V30 737 N 73.905 1.17692 -1.04816 0
M  V30 738 C 74.815 2.25229 -0.65643 0
M  V30 739 C 75.831 1.71018 0.320761 0
M  V30 740 O 77.007 2.00649 0.173805 0
M  V30 741 C 74.072 3.46684 -0.0332629 0
M  V30 742 C 73.133 4.15997 -1.06042 0
M  V30 743 C 72.366 5.31654 -0.466893 0
M  V30 744 O 72.589 5.65777 0.724758 0
M  V30 745 O 71.523 5.89831 -1.1993 0
M  V30 746 H 75.349 2.61016 -1.55255 0
M  V30 747 H 72.934 1.24919 -0.81949 0
M  V30 748 H 74.816 4.20234 0.313256 0
M  V30 749 H 73.491 3.12703 0.836566 0
M  V30 750 H 72.398 3.44482 -1.45886 0
M  V30 751 H 73.731 4.53996 -1.90127 0
M  V30 752 N 75.3831 0.828654 1.34056 0
M  V30 753 C 76.6291 0.42008 1.98402 0
M  V30 754 C 76.9621 -1.01564 1.65525 0
M  V30 755 O 76.2371 -1.70834 0.929831 0
M  V30 756 C 76.5201 0.62927 3.54559 0
M  V30 757 C 76.3731 2.11152 3.97159 0
M  V30 758 C 77.6921 0.0688756 4.40046 0
M  V30 759 H 74.8111 0.154104 0.720709 0
M  V30 760 H 77.4531 1.04228 1.5886 0
M  V30 761 H 75.6031 0.0996418 3.88372 0
M  V30 762 H 77.2751 2.70522 3.73651 0
M  V30 763 H 75.5181 2.59985 3.47261 0
M  V30 764 H 76.1891 2.20868 5.05887 0
M  V30 765 H 78.6651 0.521458 4.1282 0
M  V30 766 H 77.5411 0.245006 5.48353 0
M  V30 767 H 77.8021 -1.0266 4.30015 0
M  V30 768 N 76.8612 -1.46375 0.584142 0
M  V30 769 C 77.8242 -2.28784 -0.138108 0
M  V30 770 C 78.8242 -1.38471 -0.817462 0
M  V30 771 O 80.0142 -1.60833 -0.669199 0
M  V30 772 C 77.1462 -3.18892 -1.20503 0
M  V30 773 H 78.3392 -2.94117 0.586127 0
M  V30 774 H 75.8922 -1.52509 0.342171 0
M  V30 775 H 76.6272 -2.58309 -1.96079 0
M  V30 776 H 76.4122 -3.85388 -0.722384 0
M  V30 777 H 77.9022 -3.80914 -1.71155 0
M  V30 778 N 78.3393 -0.321999 -1.54275 0
M  V30 779 C 79.5873 0.280489 -2.00144 0
M  V30 780 C 79.9083 1.52777 -1.21178 0
M  V30 781 O 79.1783 1.9338 -0.313187 0
M  V30 782 H 77.7583 0.106632 -0.73935 0
M  V30 783 H 80.4203 -0.438184 -1.8991 0
M  V30 784 H 79.5163 0.537972 -3.07428 0
M  V30 785 N 79.8174 1.5752 -0.0501392 0
M  V30 786 C 81.0634 1.92936 0.624798 0
M  V30 787 C 81.3964 0.928685 1.70555 0
M  V30 788 O 80.6714 -0.0454779 1.94447 0
M  V30 789 C 80.9544 3.38737 1.22185 0
M  V30 790 C 80.8074 4.49552 0.149218 0
M  V30 791 C 82.1264 3.84913 2.13378 0
M  V30 792 H 79.2454 0.701604 0.225657 0
M  V30 793 H 81.8874 1.89671 -0.111693 0
M  V30 794 H 80.0374 3.4165 1.84953 0
M  V30 795 H 81.7094 4.58768 -0.482648 0
M  V30 796 H 79.9524 4.30638 -0.522841 0
M  V30 797 H 80.6234 5.48653 0.606966 0
M  V30 798 H 83.0994 3.8387 1.60572 0
M  V30 799 H 81.9754 4.87584 2.52097 0
M  V30 800 H 82.2364 3.21611 3.03346 0
M  V30 801 N 81.2955 -0.223234 1.56011 0
M  V30 802 C 82.5415 -0.949279 1.79211 0
M  V30 803 C 82.8745 -1.84054 0.619494 0
M  V30 804 O 82.1495 -1.90726 -0.381317 0
M  V30 805 C 82.4325 -1.78965 3.12479 0
M  V30 806 C 82.2855 -0.924997 4.40186 0
M  V30 807 C 83.6045 -2.76774 3.42175 0
M  V30 808 H 80.7235 -0.343676 0.651963 0
M  V30 809 H 83.3655 -0.218253 1.88742 0
M  V30 810 H 81.5155 -2.41291 3.04485 0
M  V30 811 H 83.1875 -0.318615 4.60198 0
M  V30 812 H 81.4305 -0.230344 4.33188 0
M  V30 813 H 82.1015 -1.54735 5.29869 0
M  V30 814 H 84.5775 -2.24584 3.50287 0
M  V30 815 H 83.4535 -3.32678 4.36597 0
M  V30 816 H 83.7145 -3.54429 2.64258 0
M  V30 817 N 82.7736 -1.49793 -0.48987 0
M  V30 818 C 83.7206 -1.67281 -1.59014 0
M  V30 819 C 84.6906 -0.514177 -1.57941 0
M  V30 820 O 85.8756 -0.742533 -1.75759 0
M  V30 821 C 83.0156 -1.75569 -2.97102 0
M  V30 822 C 82.1286 -3.0281 -3.08107 0
M  V30 823 C 81.2636 -3.02008 -4.36995 0
M  V30 824 C 80.3026 -4.23782 -4.41673 0
M  V30 825 N 79.4396 -4.20826 -5.62005 0
M  V30 826 H 84.2796 -2.61224 -1.43409 0
M  V30 827 H 81.8166 -1.29508 -0.697565 0
M  V30 828 H 83.7746 -1.78354 -3.77155 0
M  V30 829 H 82.4046 -0.850827 -3.11385 0
M  V30 830 H 81.4566 -3.09584 -2.21047 0
M  V30 831 H 82.7686 -3.92801 -3.07423 0
M  V30 832 H 81.9226 -3.03418 -5.25378 0
M  V30 833 H 80.6616 -2.09815 -4.4026 0
M  V30 834 H 79.6666 -4.22604 -3.5169 0
M  V30 835 H 80.8916 -5.17181 -4.40115 0
M  V30 836 H 78.8376 -3.31476 -5.66091 0
M  V30 837 H 78.7546 -5.04564 -5.62984 0
M  V30 838 H 80.0226 -4.26355 -6.52565 0
M  V30 839 N 84.2517 0.741722 -1.39055 0
M  V30 840 C 85.1617 1.88621 -1.39496 0
M  V30 841 C 86.1777 1.71557 -0.290578 0
M  V30 842 O 87.3537 1.94275 -0.530954 0
M  V30 843 C 84.4187 3.24134 -1.23037 0
M  V30 844 C 83.4797 3.5364 -2.43387 0
M  V30 845 C 82.7127 4.82687 -2.27703 0
M  V30 846 O 82.9357 5.55922 -1.27696 0
M  V30 847 O 81.8697 5.1194 -3.16545 0
M  V30 848 H 85.6957 1.91203 -2.35956 0
M  V30 849 H 83.2807 0.888625 -1.20099 0
M  V30 850 H 85.1627 4.0513 -1.15964 0
M  V30 851 H 83.8377 3.22337 -0.296691 0
M  V30 852 H 82.7447 2.72758 -2.56035 0
M  V30 853 H 84.0777 3.60209 -3.35425 0
M  V30 854 N 85.7298 1.2412 0.971189 0
M  V30 855 C 86.9758 1.08041 1.71625 0
M  V30 856 C 87.3088 -0.380407 1.90438 0
M  V30 857 O 86.5838 -1.28127 1.46334 0
M  V30 858 C 86.8668 1.81682 3.10908 0
M  V30 859 C 86.7198 3.35493 2.99608 0
M  V30 860 C 88.0388 1.58671 4.10501 0
M  V30 861 H 85.1578 0.39388 0.622919 0
M  V30 862 H 87.7998 1.52743 1.13003 0
M  V30 863 H 85.9498 1.43684 3.60953 0
M  V30 864 H 87.6218 3.83068 2.57015 0
M  V30 865 H 85.8648 3.64052 2.35899 0
M  V30 866 H 86.5358 3.82217 3.98264 0
M  V30 867 H 89.0118 1.91719 3.69301 0
M  V30 868 H 87.8878 2.1266 5.06031 0
M  V30 869 H 88.1488 0.524161 4.38982 0
M  V30 870 N 87.2079 -1.17134 1.05439 0
M  V30 871 C 88.1549 -2.21235 0.657539 0
M  V30 872 C 89.1249 -1.62551 -0.341543 0
M  V30 873 O 90.3099 -1.89379 -0.232393 0
M  V30 874 C 87.4499 -3.45076 0.0410575 0
M  V30 875 C 86.5629 -4.18042 1.08927 0
M  V30 876 C 85.6979 -5.29376 0.439848 0
M  V30 877 C 84.7369 -5.94132 1.4722 0
M  V30 878 N 83.8739 -6.96975 0.846756 0
M  V30 879 H 88.7139 -2.54534 1.54972 0
M  V30 880 H 86.2509 -1.25028 0.775006 0
M  V30 881 H 88.2089 -4.15862 -0.33383 0
M  V30 882 H 86.8389 -3.12353 -0.814568 0
M  V30 883 H 85.8909 -3.45945 1.58196 0
M  V30 884 H 87.2029 -4.62306 1.87282 0
M  V30 885 H 86.3569 -6.06699 0.0115125 0
M  V30 886 H 85.0959 -4.86251 -0.375656 0
M  V30 887 H 84.1009 -5.15538 1.91052 0
M  V30 888 H 85.3259 -6.39337 2.28965 0
M  V30 889 H 83.2719 -6.5598 0.0518075 0
M  V30 890 H 83.1889 -7.39565 1.5678 0
M  V30 891 H 84.4569 -7.78239 0.443277 0
M  V30 892 N 88.686 -0.835752 -1.33615 0
M  V30 893 C 89.932 -0.430596 -1.98176 0
M  V30 894 C 90.265 1.00684 -1.66061 0
M  V30 895 O 89.54 1.70339 -0.938877 0
M  V30 896 C 89.823 -0.648065 -3.5422 0
M  V30 897 C 89.676 -2.13255 -3.96033 0
M  V30 898 C 90.995 -0.0922113 -4.40003 0
M  V30 899 H 88.114 -0.157924 -0.719881 0
M  V30 900 H 90.756 -1.05069 -1.58305 0
M  V30 901 H 88.906 -0.120237 -3.88314 0
M  V30 902 H 90.578 -2.725 -3.72211 0
M  V30 903 H 88.821 -2.61823 -3.45878 0
M  V30 904 H 89.492 -2.23547 -5.04708 0
M  V30 905 H 91.968 -0.543343 -4.12537 0
M  V30 906 H 90.844 -0.274083 -5.48215 0
M  V30 907 H 91.105 1.00378 -4.30554 0
M  V30 908 N 90.1641 1.46063 -0.591896 0
M  V30 909 C 91.1111 2.30399 0.136069 0
M  V30 910 C 92.0811 1.41169 0.875238 0
M  V30 911 O 93.2661 1.70112 0.86409 0
M  V30 912 C 90.4061 3.25804 1.13781 0
M  V30 913 C 89.5191 4.30134 0.401137 0
M  V30 914 C 88.6541 5.12659 1.39121 0
M  V30 915 C 87.6931 6.0873 0.641462 0
M  V30 916 N 86.8301 6.8409 1.58004 0
M  V30 917 H 91.6701 2.92118 -0.589144 0
M  V30 918 H 89.2071 1.43959 -0.302342 0
M  V30 919 H 91.1651 3.79569 1.73156 0
M  V30 920 H 89.7951 2.65872 1.83062 0
M  V30 921 H 88.8471 3.79152 -0.307826 0
M  V30 922 H 90.1591 4.98458 -0.184565 0
M  V30 923 H 89.3131 5.70747 2.05749 0
M  V30 924 H 88.0521 4.44316 2.01084 0
M  V30 925 H 87.0571 5.49786 -0.0385419 0
M  V30 926 H 88.2821 6.79095 0.0270945 0
M  V30 927 H 86.2281 6.18449 2.18761 0
M  V30 928 H 86.1451 7.48709 1.04738 0
M  V30 929 H 87.4131 7.4673 2.23639 0
M  V30 930 N 91.6422 0.330177 1.54103 0
M  V30 931 C 92.8882 -0.270806 2.00984 0
M  V30 932 C 93.2212 -1.51265 1.21789 0
M  V30 933 O 92.4962 -1.92142 0.301927 0
M  V30 934 C 92.7792 -0.598339 3.55094 0
M  V30 935 C 92.6322 0.654674 4.4501 0
M  V30 936 C 93.9512 -1.41334 4.16789 0
M  V30 937 H 91.0702 -0.0969531 0.730595 0
M  V30 938 H 93.7122 0.448066 1.84641 0
M  V30 939 H 91.8622 -1.21078 3.69151 0
M  V30 940 H 93.5342 1.29285 4.42813 0
M  V30 941 H 91.7772 1.28224 4.14416 0
M  V30 942 H 92.4482 0.380944 5.50684 0
M  V30 943 H 94.9242 -0.895597 4.06347 0
M  V30 944 H 93.8002 -1.61127 5.24718 0
M  V30 945 H 94.0612 -2.41146 3.70541 0
M  V30 946 N 93.1203 -1.57491 0.0584922 0
M  V30 947 C 94.3683 -1.92597 -0.612436 0
M  V30 948 C 94.6893 -0.938162 -1.70949 0
M  V30 949 O 93.9593 0.0158301 -1.95894 0
M  V30 950 H 92.5393 -0.710964 -0.229214 0
M  V30 951 H 95.2013 -1.94571 0.113218 0
M  V30 952 H 94.2973 -2.94038 -1.04633 0
M  V30 953 N 94.5984 0.214957 -1.56127 0
M  V30 954 C 95.8754 0.963093 -1.70247 0
M  V30 955 C 96.2554 2.02166 -0.60764 0
M  V30 956 O 95.6034 2.25244 0.384385 0
M  V30 957 C 95.8134 1.56756 -3.11815 0
M  V30 958 C 97.1614 2.0573 -3.7143 0
M  V30 959 O 98.1854 1.66637 -3.14818 0
M  V30 960 O 97.0444 2.77603 -4.70743 0
M  V30 961 H 94.1384 0.450321 -0.693643 0
M  V30 962 H 96.6844 0.206219 -1.68442 0
M  V30 963 H 95.4564 0.803533 -3.82961 0
M  V30 964 H 95.0794 2.3898 -3.17765 0
M  V30 965 N 96.0765 1.50051 0.48192 0
M  V30 966 C 97.0235 1.68122 1.58125 0
M  V30 967 C 97.9935 0.522545 1.57666 0
M  V30 968 O 99.1785 0.751844 1.75362 0
M  V30 969 C 96.3185 1.77142 2.96167 0
M  V30 970 C 95.4315 3.0444 3.06497 0
M  V30 971 C 94.5665 3.04321 4.35387 0
M  V30 972 C 93.6055 4.26118 4.3942 0
M  V30 973 N 92.7425 4.238 5.59766 0
M  V30 974 H 97.5825 2.6198 1.42022 0
M  V30 975 H 95.1195 1.29877 0.690687 0
M  V30 976 H 97.0775 1.80352 3.76203 0
M  V30 977 H 95.7075 0.867329 3.1093 0
M  V30 978 H 94.7595 3.10752 2.19402 0
M  V30 979 H 96.0715 3.94426 3.05336 0
M  V30 980 H 95.2255 3.062 5.23762 0
M  V30 981 H 93.9645 2.12147 4.39141 0
M  V30 982 H 92.9695 4.24463 3.49444 0
M  V30 983 H 94.1945 5.19507 4.37366 0
M  V30 984 H 92.1405 3.34474 5.64326 0
M  V30 985 H 92.0575 5.07542 5.60301 0
M  V30 986 H 93.3255 4.2981 6.50295 0
M  V30 987 N 97.5546 -0.734337 1.39446 0
M  V30 988 C 98.8036 -1.48937 1.36017 0
M  V30 989 C 99.1166 -1.95557 -0.0409005 0
M  V30 990 O 100.323 -2.70779 -0.19778 0
M  V30 991 C 98.7786 -2.69125 2.38955 0
M  V30 992 C 98.3866 -2.29452 3.8478 0
M  V30 993 C 100.131 -3.46944 2.44603 0
M  V30 994 C 98.0376 -3.46366 4.79358 0
M  V30 995 H 96.9676 -0.559296 0.505672 0
M  V30 996 H 99.6186 -0.800983 1.65095 0
M  V30 997 H 98.0006 -3.40041 2.02948 0
M  V30 998 H 99.1746 -1.66077 4.29831 0
M  V30 999 H 97.4896 -1.64723 3.82433 0
M  V30 1000 H 100.087 -4.33907 3.12456 0
M  V30 1001 H 100.43 -3.89454 1.47076 0
M  V30 1002 H 100.963 -2.83056 2.79507 0
M  V30 1003 H 97.7016 -3.08905 5.78151 0
M  V30 1004 H 97.2216 -4.08719 4.38986 0
M  V30 1005 H 98.9006 -4.12691 4.98292 0
M  V30 1006 N 99.0327 -1.24633 -0.964593 0
M  V30 1007 C 100.258 -1.11596 -1.74818 0
M  V30 1008 C 100.683 0.32723 -1.85232 0
M  V30 1009 O 100.041 1.23695 -1.32549 0
M  V30 1010 C 100.089 -1.76397 -3.1451 0
M  V30 1011 O 99.1927 -1.03685 -3.99153 0
M  V30 1012 H 98.5337 -0.390196 -0.537255 0
M  V30 1013 H 101.064 -1.65002 -1.20977 0
M  V30 1014 H 101.074 -1.8228 -3.65018 0
M  V30 1015 H 99.7487 -2.81401 -3.06246 0
M  V30 1016 H 98.3257 -1.05611 -3.57632 0
M  V30 1017 N 100.511 1.16574 -1.06058 0
M  V30 1018 C 101.421 2.2452 -0.680282 0
M  V30 1019 C 102.437 1.71348 0.302604 0
M  V30 1020 O 103.613 2.00822 0.152513 0
M  V30 1021 C 100.678 3.46629 -0.0700315 0
M  V30 1022 C 99.7388 4.14849 -1.10448 0
M  V30 1023 C 98.9718 5.31129 -0.523256 0
M  V30 1024 O 99.1948 5.66514 0.664709 0
M  V30 1025 O 98.1288 5.88526 -1.26179 0
M  V30 1026 H 101.955 2.59355 -1.58015 0
M  V30 1027 H 99.5398 1.24043 -0.832694 0
M  V30 1028 H 101.422 4.20543 0.268667 0
M  V30 1029 H 100.097 3.13573 0.803353 0
M  V30 1030 H 99.0038 3.42916 -1.49532 0
M  V30 1031 H 100.337 4.51954 -1.94931 0
M  V30 1032 N 101.989 0.842826 1.3317 0
M  V30 1033 C 103.237 0.439577 1.97262 0
M  V30 1034 C 103.558 -1.00548 1.67078 0
M  V30 1035 O 102.828 -1.70098 0.971779 0
M  V30 1036 H 101.408 0.159558 0.72976 0
M  V30 1037 H 104.07 1.07665 1.62463 0
M  V30 1038 H 103.166 0.574886 3.0676 0
M  V30 1039 N 103.467 -1.45747 0.599634 0
M  V30 1040 C 104.715 -2.01893 0.0915472 0
M  V30 1041 C 105.036 -1.47155 -1.27946 0
M  V30 1042 O 104.306 -0.66273 -1.84349 0
M  V30 1043 H 102.886 -0.746363 0.0308524 0
M  V30 1044 H 105.548 -1.78645 0.779237 0
M  V30 1045 H 104.644 -3.1208 0.0353086 0
M  V30 1046 N 104.945 -0.338344 -1.53925 0
M  V30 1047 C 105.875 0.51328 -2.27789 0
M  V30 1048 C 106.856 1.107 -1.29149 0
M  V30 1049 O 108.041 1.12937 -1.57984 0
M  V30 1050 C 105.171 1.66697 -3.04679 0
M  V30 1051 C 104.125 1.20183 -4.1078 0
M  V30 1052 C 103.451 2.44363 -4.75595 0
M  V30 1053 C 104.751 0.30605 -5.21403 0
M  V30 1054 H 106.445 -0.102883 -2.99223 0
M  V30 1055 H 103.991 -0.0509219 -1.4391 0
M  V30 1056 H 105.944 2.26915 -3.55088 0
M  V30 1057 H 104.668 2.30995 -2.30887 0
M  V30 1058 H 103.327 0.622499 -3.61276 0
M  V30 1059 H 102.975 3.07057 -3.98403 0
M  V30 1060 H 102.675 2.13925 -5.47275 0
M  V30 1061 H 104.199 3.05317 -5.28786 0
M  V30 1062 H 105.613 0.814929 -5.67478 0
M  V30 1063 H 104.01 0.0937929 -6.00027 0
M  V30 1064 H 105.08 -0.65921 -4.80398 0
M  V30 1065 N 106.423 1.57458 -0.0668435 0
M  V30 1066 C 107.672 1.92477 0.602947 0
M  V30 1067 C 107.985 0.948419 1.71068 0
M  V30 1068 O 109.191 1.19124 2.43971 0
M  V30 1069 C 107.647 3.41903 1.12383 0
M  V30 1070 C 107.255 4.47975 0.04737 0
M  V30 1071 C 108.999 3.85931 1.76797 0
M  V30 1072 C 106.906 5.88529 0.582022 0
M  V30 1073 H 105.836 0.718387 0.22899 0
M  V30 1074 H 108.487 1.82978 -0.138276 0
M  V30 1075 H 106.869 3.46459 1.91787 0
M  V30 1076 H 108.043 4.55029 -0.726978 0
M  V30 1077 H 106.358 4.13384 -0.500243 0
M  V30 1078 H 108.955 4.88322 2.17821 0
M  V30 1079 H 109.298 3.23029 2.62599 0
M  V30 1080 H 109.831 3.83958 1.04024 0
M  V30 1081 H 106.57 6.55065 -0.238721 0
M  V30 1082 H 106.09 5.85004 1.324 0
M  V30 1083 H 107.769 6.38258 1.05999 0
M  V30 1084 N 107.901 -0.206675 1.56239 0
M  V30 1085 C 109.147 -0.930218 1.80208 0
M  V30 1086 C 109.48 -1.83387 0.638981 0
M  V30 1087 O 108.755 -1.91119 -0.361066 0
M  V30 1088 C 109.038 -1.75641 3.1436 0
M  V30 1089 C 108.891 -0.878257 4.41142 0
M  V30 1090 C 110.21 -2.73129 3.45092 0
M  V30 1091 H 107.329 -0.336742 0.655571 0
M  V30 1092 H 109.971 -0.198222 1.88963 0
M  V30 1093 H 108.121 -2.38048 3.07027 0
M  V30 1094 H 109.793 -0.269787 4.6051 0
M  V30 1095 H 108.036 -0.184385 4.33408 0
M  V30 1096 H 108.707 -1.49106 5.3148 0
M  V30 1097 H 111.183 -2.20856 3.52649 0
M  V30 1098 H 110.059 -3.28028 4.40101 0
M  V30 1099 H 110.32 -3.51606 2.68003 0
M  V30 1100 N 109.379 -1.50304 -0.473955 0
M  V30 1101 C 110.625 -1.61389 -1.22806 0
M  V30 1102 C 110.958 -0.311955 -1.91678 0
M  V30 1103 O 110.233 0.686384 -1.81986 0
M  V30 1104 C 110.516 -2.79219 -2.27396 0
M  V30 1105 C 110.369 -4.19286 -1.62848 0
M  V30 1106 C 111.688 -2.92614 -3.28732 0
M  V30 1107 H 108.807 -0.587399 -0.445119 0
M  V30 1108 H 111.449 -1.82681 -0.522265 0
M  V30 1109 H 109.599 -2.61195 -2.87592 0
M  V30 1110 H 111.271 -4.48892 -1.06271 0
M  V30 1111 H 109.514 -4.23677 -0.931693 0
M  V30 1112 H 110.185 -4.97655 -2.38838 0
M  V30 1113 H 112.661 -3.09105 -2.78556 0
M  V30 1114 H 111.537 -3.76688 -3.99246 0
M  V30 1115 H 111.798 -2.03107 -3.92683 0
M  V30 1116 N 110.857 0.726932 -1.39834 0
M  V30 1117 C 112.103 1.48884 -1.377 0
M  V30 1118 C 112.436 1.94185 0.0244852 0
M  V30 1119 O 111.711 1.67361 0.990986 0
M  V30 1120 C 111.994 2.72288 -2.3565 0
M  V30 1121 C 111.847 2.32956 -3.84775 0
M  V30 1122 C 113.166 3.74414 -2.31306 0
M  V30 1123 H 110.285 0.540062 -0.5015 0
M  V30 1124 H 112.927 0.830547 -1.70886 0
M  V30 1125 H 111.077 3.28457 -2.07481 0
M  V30 1126 H 112.749 1.82356 -4.23726 0
M  V30 1127 H 110.992 1.65088 -4.01159 0
M  V30 1128 H 111.663 3.21362 -4.4881 0
M  V30 1129 H 114.139 3.27849 -2.56231 0
M  V30 1130 H 113.015 4.58414 -3.01907 0
M  V30 1131 H 113.276 4.21909 -1.32081 0
M  V30 1132 N 112.336 1.25143 0.95797 0
M  V30 1133 C 113.246 1.06968 2.08794 0
M  V30 1134 C 114.262 0.00773911 1.73998 0
M  V30 1135 O 115.438 0.207972 2.00323 0
M  V30 1136 C 112.503 0.68691 3.39827 0
M  V30 1137 C 111.564 1.82641 3.88511 0
M  V30 1138 C 110.797 1.46181 5.1329 0
M  V30 1139 O 111.02 0.355971 5.69288 0
M  V30 1140 O 109.954 2.29085 5.566 0
M  V30 1141 H 113.78 2.01723 2.27027 0
M  V30 1142 H 111.365 1.04051 1.07209 0
M  V30 1143 H 113.247 0.485417 4.18595 0
M  V30 1144 H 111.922 -0.231417 3.22872 0
M  V30 1145 H 110.829 2.08274 3.10762 0
M  V30 1146 H 112.162 2.72386 4.09959 0
M  V30 1147 N 113.814 -1.1601 1.06675 0
M  V30 1148 C 114.777 -2.18724 0.685001 0
M  V30 1149 C 115.777 -1.58496 -0.271246 0
M  V30 1150 O 116.967 -1.74119 -0.0531156 0
M  V30 1151 C 114.099 -3.40899 0.00853648 0
M  V30 1152 H 115.292 -2.54011 1.59431 0
M  V30 1153 H 112.845 -1.30352 0.862441 0
M  V30 1154 H 113.58 -3.11173 -0.913337 0
M  V30 1155 H 113.365 -3.8587 0.696204 0
M  V30 1156 H 114.855 -4.16886 -0.24414 0
M  V30 1157 N 115.292 -0.849877 -1.32721 0
M  V30 1158 C 116.202 -0.293791 -2.32753 0
M  V30 1159 C 117.218 0.585906 -1.63839 0
M  V30 1160 O 118.394 0.487413 -1.95413 0
M  V30 1161 C 115.459 0.512752 -3.42887 0
M  V30 1162 C 114.52 -0.39252 -4.27502 0
M  V30 1163 C 113.753 0.375625 -5.32377 0
M  V30 1164 O 113.976 1.60613 -5.4732 0
M  V30 1165 O 112.91 -0.256094 -6.01355 0
M  V30 1166 H 116.736 -1.12242 -2.82197 0
M  V30 1167 H 114.321 -0.612685 -1.36259 0
M  V30 1168 H 116.203 0.970704 -4.10067 0
M  V30 1169 H 114.878 1.31826 -2.95641 0
M  V30 1170 H 113.785 -0.898547 -3.63149 0
M  V30 1171 H 115.118 -1.16309 -4.7826 0
M  V30 1172 N 116.77 1.45427 -0.607355 0
M  V30 1173 C 118.018 2.01841 -0.102253 0
M  V30 1174 C 118.339 1.47832 1.27164 0
M  V30 1175 O 117.609 0.672497 1.83995 0
M  V30 1176 H 116.189 0.746188 -0.0348101 0
M  V30 1177 H 118.851 1.78229 -0.7887 0
M  V30 1178 H 117.947 3.12057 -0.0518585 0
M  V30 1179 N 118.248 0.346503 1.53744 0
M  V30 1180 C 119.476 -0.25041 2.05379 0
M  V30 1181 C 119.891 -1.43979 1.22129 0
M  V30 1182 O 119.248 -1.80677 0.257321 0
M  V30 1183 C 119.299 -0.662575 3.55376 0
M  V30 1184 O 119.02 0.479515 4.35468 0
M  V30 1185 C 120.521 -1.31989 4.23195 0
M  V30 1186 H 117.741 -0.0478198 0.669294 0
M  V30 1187 H 120.285 0.499346 1.9831 0
M  V30 1188 H 118.44 -1.36227 3.62658 0
M  V30 1189 H 118.854 0.15037 5.24284 0
M  V30 1190 H 120.328 -1.55902 5.29527 0
M  V30 1191 H 120.805 -2.27436 3.75725 0
M  V30 1192 H 121.411 -0.662154 4.20114 0
M  V30 1193 N 119.726 -1.57421 0.075193 0
M  V30 1194 C 120.689 -2.11791 -0.876203 0
M  V30 1195 C 121.689 -1.04268 -1.22412 0
M  V30 1196 O 122.879 -1.30242 -1.15684 0
M  V30 1197 C 120.011 -2.62207 -2.17854 0
M  V30 1198 H 121.204 -2.9716 -0.40444 0
M  V30 1199 H 118.757 -1.55333 -0.173557 0
M  V30 1200 H 119.492 -1.803 -2.6956 0
M  V30 1201 H 119.277 -3.40802 -1.93897 0
M  V30 1202 H 120.767 -3.04335 -2.85955 0
M  V30 1203 N 121.204 0.198386 -1.56346 0
M  V30 1204 C 122.167 1.22952 -1.93431 0
M  V30 1205 C 123.167 1.38611 -0.815092 0
M  V30 1206 O 124.357 1.36479 -1.08255 0
M  V30 1207 C 121.489 2.59946 -2.20546 0
M  V30 1208 H 122.682 0.912626 -2.85677 0
M  V30 1209 H 120.235 0.43977 -1.49986 0
M  V30 1210 H 120.97 2.96696 -1.30927 0
M  V30 1211 H 120.755 2.49953 -3.02102 0
M  V30 1212 H 122.245 3.3431 -2.50253 0
M  V30 1213 N 122.682 1.50554 0.465978 0
M  V30 1214 C 123.645 1.69233 1.54574 0
M  V30 1215 C 124.645 0.562901 1.50626 0
M  V30 1216 O 125.835 0.830016 1.53155 0
M  V30 1217 C 122.967 1.7223 2.94193 0
M  V30 1218 H 124.16 2.65571 1.39327 0
M  V30 1219 H 121.713 1.40111 0.692711 0
M  V30 1220 H 122.448 0.77603 3.14878 0
M  V30 1221 H 122.233 2.54285 2.98466 0
M  V30 1222 H 123.723 1.88618 3.72576 0
M  V30 1223 N 124.16 -0.719506 1.40217 0
M  V30 1224 C 125.571 -1.29848 1.34151 0
M  V30 1225 C 125.922 -1.96196 0.0131349 0
M  V30 1226 O 125.047 -1.973 -0.88892 0
M  V30 1227 C 125.642 -2.36118 2.42968 0
M  V30 1228 C 124.201 -2.8965 2.40374 0
M  V30 1229 C 123.348 -1.63393 2.24049 0
M  V30 1230 H 126.299 -0.51591 1.5008 0
M  V30 1231 H 126.32 -3.16871 2.10649 0
M  V30 1232 H 125.832 -1.878 3.39636 0
M  V30 1233 H 123.933 -3.42208 1.47392 0
M  V30 1234 H 124.046 -3.4171 3.35814 0
M  V30 1235 H 122.41 -1.88312 1.71495 0
M  V30 1236 H 123.193 -1.17104 3.2271 0
M  V30 1237 N 125.638 -1.25649 -0.95132 0
M  V30 1238 C 126.585 -1.06323 -2.04851 0
M  V30 1239 C 127.555 0.0286491 -1.66075 0
M  V30 1240 O 128.74 -0.12917 -1.90362 0
M  V30 1241 C 125.88 -0.691529 -3.381 0
M  V30 1242 C 124.993 -1.85861 -3.89974 0
M  V30 1243 C 124.128 -1.43096 -5.11563 0
M  V30 1244 C 123.167 -2.56696 -5.55674 0
M  V30 1245 N 122.304 -2.14684 -6.68472 0
M  V30 1246 H 127.144 -2.00222 -2.20715 0
M  V30 1247 H 124.681 -0.997027 -1.08156 0
M  V30 1248 H 126.639 -0.456963 -4.1469 0
M  V30 1249 H 125.269 0.210474 -3.22113 0
M  V30 1250 H 124.321 -2.20639 -3.09875 0
M  V30 1251 H 125.633 -2.71161 -4.18657 0
M  V30 1252 H 124.787 -1.15624 -5.9558 0
M  V30 1253 H 123.526 -0.548722 -4.84603 0
M  V30 1254 H 122.531 -2.84909 -4.7022 0
M  V30 1255 H 123.756 -3.45503 -5.8464 0
M  V30 1256 H 121.702 -1.28881 -6.43215 0
M  V30 1257 H 121.619 -2.9353 -6.96689 0
M  V30 1258 H 122.887 -1.90397 -7.5589 0
M  V30 1259 N 127.117 1.15442 -1.07289 0
M  V30 1260 C 128.08 2.18358 -0.696591 0
M  V30 1261 C 129.08 1.58637 0.262837 0
M  V30 1262 O 130.27 1.74145 0.0438809 0
M  V30 1263 C 127.402 3.4089 -0.0266151 0
M  V30 1264 H 128.595 2.53162 -1.60776 0
M  V30 1265 H 126.148 1.29893 -0.869342 0
M  V30 1266 H 126.883 3.11653 0.896822 0
M  V30 1267 H 126.668 3.85495 -0.716657 0
M  V30 1268 H 128.158 4.17009 0.222028 0
M  V30 1269 N 128.595 0.856903 1.32268 0
M  V30 1270 C 129.505 0.306131 2.32594 0
M  V30 1271 C 130.521 -0.577209 1.64147 0
M  V30 1272 O 131.697 -0.477043 1.95669 0
M  V30 1273 C 128.762 -0.494561 3.43154 0
M  V30 1274 C 127.823 0.415186 4.27288 0
M  V30 1275 C 127.056 -0.347387 5.32568 0
M  V30 1276 O 127.279 -1.57708 5.48165 0
M  V30 1277 O 126.213 0.287982 6.01211 0
M  V30 1278 H 130.039 1.13737 2.81598 0
M  V30 1279 H 127.624 0.619902 1.35932 0
M  V30 1280 H 129.506 -0.948944 4.10576 0
M  V30 1281 H 128.181 -1.30257 2.96336 0
M  V30 1282 H 127.088 0.917793 3.62667 0
M  V30 1283 H 128.421 1.18844 4.77637 0
M  V30 1284 N 130.073 -1.45103 0.615059 0
M  V30 1285 C 131.036 -2.29025 -0.0895485 0
M  V30 1286 C 132.036 -1.40174 -0.787906 0
M  V30 1287 O 133.226 -1.62217 -0.634933 0
M  V30 1288 C 130.358 -3.21376 -1.13711 0
M  V30 1289 H 131.551 -2.92807 0.648382 0
M  V30 1290 H 129.104 -1.51749 0.374444 0
M  V30 1291 H 129.839 -2.6241 -1.90556 0
M  V30 1292 H 129.624 -3.86834 -0.640475 0
M  V30 1293 H 131.114 -3.84459 -1.63036 0
M  V30 1294 N 131.551 -0.354651 -1.53558 0
M  V30 1295 C 132.514 0.484566 -2.24019 0
M  V30 1296 C 133.514 1.01861 -1.24422 0
M  V30 1297 O 134.704 0.906097 -1.4878 0
M  V30 1298 C 131.836 1.67615 -2.96847 0
M  V30 1299 H 133.029 -0.131843 -2.9961 0
M  V30 1300 H 130.582 -0.106165 -1.55939 0
M  V30 1301 H 131.317 2.33095 -2.25471 0
M  V30 1302 H 131.102 1.30029 -3.69912 0
M  V30 1303 H 132.592 2.27114 -3.50441 0
M  V30 1304 N 133.029 1.57378 -0.0835403 0
M  V30 1305 C 133.992 2.12252 0.864959 0
M  V30 1306 C 134.992 1.04916 1.21858 0
M  V30 1307 O 136.182 1.30853 1.14991 0
M  V30 1308 C 133.314 2.63358 2.16461 0
M  V30 1309 H 134.507 2.97371 0.388676 0
M  V30 1310 H 132.06 1.55423 0.165317 0
M  V30 1311 H 132.795 1.81727 2.686 0
M  V30 1312 H 132.58 3.41826 1.92087 0
M  V30 1313 H 134.07 3.05847 2.84337 0
M  V30 1314 N 134.507 -0.190092 1.56449 0
M  V30 1315 C 135.47 -1.21925 1.9408 0
M  V30 1316 C 136.47 -1.38176 0.822431 0
M  V30 1317 O 137.66 -1.35903 1.08977 0
M  V30 1318 C 134.792 -2.58773 2.21922 0
M  V30 1319 H 135.985 -0.897464 2.86157 0
M  V30 1320 H 133.538 -0.43181 1.50217 0
M  V30 1321 H 134.273 -2.95998 1.32499 0
M  V30 1322 H 134.058 -2.48348 3.03424 0
M  V30 1323 H 135.548 -3.32978 2.52022 0
M  V30 1324 N 135.985 -1.50799 -0.457987 0
M  V30 1325 C 137.396 -1.55152 -1.0385 0
M  V30 1326 C 137.747 -0.362719 -1.92818 0
M  V30 1327 O 136.872 0.522915 -2.09987 0
M  V30 1328 C 137.467 -2.81173 -1.89017 0
M  V30 1329 C 136.026 -2.88164 -2.42154 0
M  V30 1330 C 135.173 -2.49591 -1.20829 0
M  V30 1331 H 138.124 -1.56874 -0.240068 0
M  V30 1332 H 138.145 -2.63769 -2.74238 0
M  V30 1333 H 137.657 -3.67677 -1.24238 0
M  V30 1334 H 135.758 -2.06042 -3.10447 0
M  V30 1335 H 135.871 -3.91356 -2.76364 0
M  V30 1336 H 134.235 -2.02322 -1.54719 0
M  V30 1337 H 135.018 -3.38418 -0.576927 0
M  V30 1338 N 137.463 0.71206 -1.40597 0
M  V30 1339 C 138.426 1.80785 -1.40888 0
M  V30 1340 C 139.426 1.57937 -0.302103 0
M  V30 1341 O 140.616 1.64913 -0.561182 0
M  V30 1342 C 137.748 3.18927 -1.20409 0
M  V30 1343 H 138.941 1.81924 -2.38419 0
M  V30 1344 H 136.494 0.91805 -1.26497 0
M  V30 1345 H 137.229 3.23436 -0.236522 0
M  V30 1346 H 137.014 3.36911 -2.00582 0
M  V30 1347 H 138.504 3.98949 -1.23408 0
M  V30 1348 N 138.941 1.26152 0.944643 0
M  V30 1349 C 139.873 1.03199 2.04652 0
M  V30 1350 C 140.886 -0.00642356 1.62799 0
M  V30 1351 O 142.075 0.233263 1.76969 0
M  V30 1352 C 139.175 0.540111 3.34568 0
M  V30 1353 C 138.348 1.64697 4.05208 0
M  V30 1354 C 137.407 1.15374 5.13396 0
M  V30 1355 O 136.433 1.85013 5.38293 0
M  V30 1356 N 137.635 0.00031529 5.805 0
M  V30 1357 H 140.4 1.9808 2.2491 0
M  V30 1358 H 137.961 1.17491 1.11389 0
M  V30 1359 H 139.953 0.194401 4.04233 0
M  V30 1360 H 138.523 -0.315021 3.11009 0
M  V30 1361 H 137.743 2.16379 3.29506 0
M  V30 1362 H 139.031 2.3903 4.49157 0
M  V30 1363 H 138.429 -0.581336 5.62705 0
M  V30 1364 H 136.986 -0.286346 6.51171 0
M  V30 1365 N 140.419 -1.14872 1.07899 0
M  V30 1366 C 141.329 -2.2341 0.715915 0
M  V30 1367 C 142.345 -1.71808 -0.275306 0
M  V30 1368 O 143.521 -2.01039 -0.120545 0
M  V30 1369 C 140.586 -3.46474 0.125168 0
M  V30 1370 C 139.647 -4.13039 1.17034 0
M  V30 1371 C 138.88 -5.30229 0.607688 0
M  V30 1372 O 139.103 -5.675 -0.574497 0
M  V30 1373 O 138.037 -5.86444 1.35526 0
M  V30 1374 H 141.863 -2.56808 1.62121 0
M  V30 1375 H 139.448 -1.22702 0.852322 0
M  V30 1376 H 141.33 -4.20917 -0.201729 0
M  V30 1377 H 140.005 -3.14811 -0.753364 0
M  V30 1378 H 138.912 -3.40493 1.54968 0
M  V30 1379 H 140.245 -4.48796 2.02097 0
M  V30 1380 N 141.898 -0.863906 -1.31812 0
M  V30 1381 C 142.861 -0.320212 -2.26952 0
M  V30 1382 C 143.861 0.525369 -1.51975 0
M  V30 1383 O 145.051 0.335547 -1.70938 0
M  V30 1384 C 142.183 0.545919 -3.365 0
M  V30 1385 H 143.376 -1.16004 -2.76556 0
M  V30 1386 H 140.929 -0.638995 -1.42641 0
M  V30 1387 H 141.664 1.40718 -2.92179 0
M  V30 1388 H 141.449 -0.0594674 -3.92055 0
M  V30 1389 H 142.939 0.918796 -4.07367 0
M  V30 1390 N 143.376 1.44774 -0.622745 0
M  V30 1391 C 144.787 1.85546 -0.207226 0
M  V30 1392 C 145.138 1.52093 1.23944 0
M  V30 1393 O 144.263 0.95492 1.94191 0
M  V30 1394 C 144.858 3.36781 -0.369313 0
M  V30 1395 C 143.417 3.76399 -0.00836847 0
M  V30 1396 C 142.564 2.68664 -0.686651 0
M  V30 1397 H 145.515 1.3536 -0.828454 0
M  V30 1398 H 145.536 3.78453 0.394162 0
M  V30 1399 H 145.048 3.61098 -1.42231 0
M  V30 1400 H 143.149 3.57698 1.04322 0
M  V30 1401 H 143.262 4.7732 -0.412584 0
M  V30 1402 H 141.626 2.54404 -0.122777 0
M  V30 1403 H 142.409 2.95815 -1.74208 0
M  V30 1404 N 144.854 0.36279 1.53368 0
M  V30 1405 C 145.801 -0.485008 2.25646 0
M  V30 1406 C 146.771 -1.07982 1.2621 0
M  V30 1407 O 147.956 -1.11284 1.54986 0
M  V30 1408 C 145.096 -1.62023 3.04701 0
M  V30 1409 C 144.209 -1.05086 4.19024 0
M  V30 1410 C 143.344 -2.15496 4.85525 0
M  V30 1411 C 142.383 -1.5601 5.91884 0
M  V30 1412 N 141.52 -2.60241 6.52088 0
M  V30 1413 H 146.36 0.137864 2.97681 0
M  V30 1414 H 143.897 0.0798061 1.46883 0
M  V30 1415 H 145.855 -2.28887 3.48807 0
M  V30 1416 H 144.485 -2.2138 2.34927 0
M  V30 1417 H 143.537 -0.27259 3.79422 0
M  V30 1418 H 144.849 -0.575926 4.95464 0
M  V30 1419 H 144.003 -2.90186 5.32801 0
M  V30 1420 H 142.742 -2.66341 4.08551 0
M  V30 1421 H 141.747 -0.798338 5.43973 0
M  V30 1422 H 142.972 -1.05994 6.70777 0
M  V30 1423 H 140.918 -3.10304 5.77968 0
M  V30 1424 H 140.835 -2.17426 7.24059 0
M  V30 1425 H 142.103 -3.34641 7.04014 0
M  V30 1426 N 146.332 -1.57332 0.0918853 0
M  V30 1427 C 147.295 -2.12708 -0.85369 0
M  V30 1428 C 148.295 -1.05561 -1.213 0
M  V30 1429 O 149.485 -1.31461 -1.14296 0
M  V30 1430 C 146.617 -2.64503 -2.15061 0
M  V30 1431 H 147.81 -2.97573 -0.3729 0
M  V30 1432 H 145.363 -1.55509 -0.157072 0
M  V30 1433 H 146.098 -1.83149 -2.67632 0
M  V30 1434 H 145.883 -3.4284 -1.90272 0
M  V30 1435 H 147.373 -3.07351 -2.82711 0
M  V30 1436 N 147.81 0.181792 -1.56548 0
M  V30 1437 C 148.773 1.20894 -1.94724 0
M  V30 1438 C 149.773 1.37738 -0.829747 0
M  V30 1439 O 150.963 1.35323 -1.09697 0
M  V30 1440 C 148.095 2.57593 -2.23291 0
M  V30 1441 H 149.288 0.882275 -2.86629 0
M  V30 1442 H 146.841 0.423838 -1.50444 0
M  V30 1443 H 147.576 2.95291 -1.34067 0
M  V30 1444 H 147.361 2.46735 -3.04736 0
M  V30 1445 H 148.851 3.31637 -2.53785 0
M  V30 1446 N 149.288 1.51039 0.449983 0
M  V30 1447 C 150.251 1.70863 1.5277 0
M  V30 1448 C 151.251 0.578846 1.5002 0
M  V30 1449 O 152.441 0.846213 1.52266 0
M  V30 1450 C 149.573 1.75341 2.9235 0
M  V30 1451 H 150.766 2.67034 1.36502 0
M  V30 1452 H 148.319 1.40838 0.677812 0
M  V30 1453 H 149.054 0.809383 3.14037 0
M  V30 1454 H 148.839 2.57436 2.95752 0
M  V30 1455 H 150.329 1.92559 3.70555 0
M  V30 1456 N 150.766 -0.704594 1.40972 0
M  V30 1457 C 152.177 -1.28418 1.3552 0
M  V30 1458 C 152.528 -1.96171 0.0339434 0
M  V30 1459 O 151.653 -1.98231 -0.867944 0
M  V30 1460 C 152.248 -2.33528 2.45459 0
M  V30 1461 C 150.807 -2.87085 2.43433 0
M  V30 1462 C 149.954 -1.61007 2.2577 0
M  V30 1463 H 152.905 -0.499963 1.50619 0
M  V30 1464 H 152.926 -3.14619 2.13998 0
M  V30 1465 H 152.438 -1.84187 3.41609 0
M  V30 1466 H 150.539 -3.40626 1.51013 0
M  V30 1467 H 150.652 -3.3813 3.39419 0
M  V30 1468 H 149.016 -1.86482 1.73483 0
M  V30 1469 H 149.799 -1.13675 3.23933 0
M  V30 1470 N 152.244 -1.26651 -0.937939 0
M  V30 1471 C 153.207 -1.08546 -2.01867 0
M  V30 1472 C 154.207 -0.0327327 -1.60767 0
M  V30 1473 O 155.397 -0.276427 -1.71993 0
M  V30 1474 C 152.529 -0.651711 -3.34613 0
M  V30 1475 H 153.722 -2.04502 -2.1936 0
M  V30 1476 H 151.275 -1.09294 -1.11734 0
M  V30 1477 H 152.01 0.309696 -3.22818 0
M  V30 1478 H 151.795 -1.41189 -3.65798 0
M  V30 1479 H 153.285 -0.546973 -4.14002 0
M  V30 1480 N 153.722 1.14298 -1.08507 0
M  V30 1481 C 155.133 1.66926 -0.836227 0
M  V30 1482 C 155.484 1.85576 0.63686 0
M  V30 1483 O 154.609 1.56767 1.49175 0
M  V30 1484 C 155.204 3.03219 -1.51142 0
M  V30 1485 C 153.763 3.52876 -1.30979 0
M  V30 1486 C 152.91 2.2833 -1.57356 0
M  V30 1487 H 155.861 0.983491 -1.24552 0
M  V30 1488 H 155.882 3.68726 -0.939211 0
M  V30 1489 H 155.394 2.89612 -2.58353 0
M  V30 1490 H 153.495 3.71703 -0.258429 0
M  V30 1491 H 153.608 4.33586 -2.03814 0
M  V30 1492 H 151.972 2.34454 -0.995164 0
M  V30 1493 H 152.755 2.17298 -2.65775 0
M  V30 1494 N 155.201 0.870884 1.31352 0
M  V30 1495 C 156.133 0.28455 2.27427 0
M  V30 1496 C 157.146 -0.552927 1.53123 0
M  V30 1497 O 158.335 -0.374771 1.74521 0
M  V30 1498 C 155.435 -0.615164 3.3327 0
M  V30 1499 C 154.608 0.190079 4.36987 0
M  V30 1500 C 153.667 -0.637917 5.22319 0
M  V30 1501 O 152.693 -0.065626 5.69162 0
M  V30 1502 N 153.895 -1.94973 5.46778 0
M  V30 1503 H 156.66 1.11017 2.7838 0
M  V30 1504 H 154.221 0.732458 1.44384 0
M  V30 1505 H 156.213 -1.1748 3.87273 0
M  V30 1506 H 154.783 -1.34146 2.82354 0
M  V30 1507 H 154.003 0.931165 3.83044 0
M  V30 1508 H 155.291 0.742579 5.03352 0
M  V30 1509 H 154.689 -2.4378 5.10478 0
M  V30 1510 H 153.246 -2.45713 6.03712 0
M  V30 1511 N 156.679 -1.44442 0.630414 0
M  V30 1512 C 157.642 -2.29107 -0.0652523 0
M  V30 1513 C 158.642 -1.41002 -0.772995 0
M  V30 1514 O 159.832 -1.62881 -0.617692 0
M  V30 1515 C 156.964 -3.22564 -1.10296 0
M  V30 1516 H 158.157 -2.92103 0.679401 0
M  V30 1517 H 155.71 -1.51343 0.390517 0
M  V30 1518 H 156.445 -2.64416 -1.87762 0
M  V30 1519 H 156.23 -3.87491 -0.59941 0
M  V30 1520 H 157.72 -3.86167 -1.5895 0
M  V30 1521 N 158.157 -0.370918 -1.53173 0
M  V30 1522 C 159.12 0.460778 -2.24521 0
M  V30 1523 C 160.12 1.00536 -1.25496 0
M  V30 1524 O 161.31 0.890266 -1.49733 0
M  V30 1525 C 158.442 1.64457 -2.98608 0
M  V30 1526 H 159.635 -0.163613 -2.99453 0
M  V30 1527 H 157.188 -0.122699 -1.55818 0
M  V30 1528 H 157.923 2.30691 -2.2793 0
M  V30 1529 H 157.708 1.26099 -3.7127 0
M  V30 1530 H 159.198 2.23384 -3.5283 0
M  V30 1531 N 159.635 1.57281 -0.100228 0
M  V30 1532 C 160.567 2.11342 0.886972 0
M  V30 1533 C 161.58 1.05182 1.24261 0
M  V30 1534 O 162.769 1.32613 1.19483 0
M  V30 1535 C 159.869 2.5825 2.19454 0
M  V30 1536 C 159.042 3.88302 2.01346 0
M  V30 1537 C 158.101 4.21004 3.15661 0
M  V30 1538 O 157.127 4.9014 2.89398 0
M  V30 1539 N 158.329 3.76818 4.41575 0
M  V30 1540 H 161.094 2.96668 0.425216 0
M  V30 1541 H 158.655 1.61678 0.0847334 0
M  V30 1542 H 160.647 2.7717 2.94888 0
M  V30 1543 H 159.217 1.77907 2.57037 0
M  V30 1544 H 158.437 3.7848 1.10212 0
M  V30 1545 H 159.725 4.73375 1.8653 0
M  V30 1546 H 159.123 3.2102 4.65792 0
M  V30 1547 H 157.68 4.00882 5.13942 0
M  V30 1548 N 161.113 -0.173488 1.56642 0
M  V30 1549 C 162.36 -0.890465 1.81871 0
M  V30 1550 C 162.688 -1.82339 0.67696 0
M  V30 1551 O 161.943 -1.92795 -0.335926 0
M  V30 1552 C 162.242 -1.72069 3.13252 0
M  V30 1553 C 161.908 -0.936878 4.41059 0
M  V30 1554 C 160.57 -0.720545 4.75775 0
M  V30 1555 C 162.922 -0.386919 5.19762 0
M  V30 1556 C 160.25 0.0568829 5.86672 0
M  V30 1557 C 162.602 0.37741 6.31473 0
M  V30 1558 C 161.266 0.604563 6.64757 0
M  V30 1559 H 160.536 -0.325844 0.665512 0
M  V30 1560 H 163.183 -0.155527 1.90867 0
M  V30 1561 H 161.488 -2.52496 2.99588 0
M  V30 1562 H 163.185 -2.27844 3.29982 0
M  V30 1563 H 159.775 -1.11553 4.13828 0
M  V30 1564 H 163.959 -0.541398 4.93338 0
M  V30 1565 H 159.215 0.242635 6.10918 0
M  V30 1566 H 163.389 0.810825 6.91664 0
M  V30 1567 H 161.016 1.20885 7.50527 0
M  V30 1568 N 162.591 -1.51276 -0.441967 0
M  V30 1569 C 163.839 -1.63392 -1.18943 0
M  V30 1570 C 164.16 -0.350159 -1.9183 0
M  V30 1571 O 163.43 0.633784 -1.85364 0
M  V30 1572 H 162.01 -0.602164 -0.442049 0
M  V30 1573 H 164.672 -1.88186 -0.507165 0
M  V30 1574 H 163.768 -2.45934 -1.92154 0
M  V30 1575 N 164.069 0.697108 -1.41344 0
M  V30 1576 C 165.317 1.45426 -1.40341 0
M  V30 1577 C 165.638 1.94996 -0.0128787 0
M  V30 1578 O 164.908 1.71599 0.945027 0
M  V30 1579 H 163.488 0.539594 -0.516573 0
M  V30 1580 H 166.15 0.825201 -1.76569 0
M  V30 1581 H 165.246 2.31817 -2.08967 0
M  V30 1582 N 165.547 1.27147 0.931209 0
M  V30 1583 C 166.772 1.16191 1.71797 0
M  V30 1584 C 167.197 -0.278004 1.86034 0
M  V30 1585 O 166.555 -1.20137 1.35782 0
M  V30 1586 C 166.603 1.84673 3.09723 0
M  V30 1587 O 165.707 1.14231 3.96264 0
M  V30 1588 H 165.048 0.404303 0.526721 0
M  V30 1589 H 167.578 1.68152 1.1656 0
M  V30 1590 H 167.588 1.91893 3.60057 0
M  V30 1591 H 166.263 2.89421 2.98677 0
M  V30 1592 H 164.84 1.15056 3.54706 0
M  V30 1593 N 167.025 -1.13721 1.09112 0
M  V30 1594 C 167.988 -2.17222 0.731241 0
M  V30 1595 C 168.988 -1.59035 -0.237566 0
M  V30 1596 O 170.178 -1.74192 -0.0161704 0
M  V30 1597 C 167.31 -3.40804 0.0808443 0
M  V30 1598 H 168.503 -2.50573 1.64783 0
M  V30 1599 H 166.056 -1.28493 0.889897 0
M  V30 1600 H 166.791 -3.1304 -0.847127 0
M  V30 1601 H 166.576 -3.84306 0.777896 0
M  V30 1602 H 168.066 -4.1731 -0.155657 0
M  V30 1603 N 168.503 -0.877838 -1.30888 0
M  V30 1604 C 169.78 -0.413052 -1.91189 0
M  V30 1605 C 170.16 1.1056 -1.79832 0
M  V30 1606 O 169.508 1.93771 -1.21099 0
M  V30 1607 C 169.718 -0.903191 -3.3711 0
M  V30 1608 C 171.066 -0.93395 -4.14201 0
M  V30 1609 O 172.09 -0.849373 -3.45925 0
M  V30 1610 O 170.949 -1.05772 -5.36167 0
M  V30 1611 H 168.043 -0.125035 -0.817493 0
M  V30 1612 H 170.589 -0.966269 -1.39504 0
M  V30 1613 H 169.361 -1.94692 -3.39427 0
M  V30 1614 H 168.984 -0.328732 -3.96239 0
M  V30 1615 N 169.982 1.44106 -0.638065 0
M  V30 1616 C 170.945 2.29138 0.0531013 0
M  V30 1617 C 171.945 1.41409 0.765506 0
M  V30 1618 O 173.135 1.63206 0.609046 0
M  V30 1619 C 170.267 3.23144 1.08584 0
M  V30 1620 H 171.46 2.91739 -0.694883 0
M  V30 1621 H 169.013 1.51134 -0.398538 0
M  V30 1622 H 169.748 2.65408 1.86357 0
M  V30 1623 H 169.533 3.87804 0.578852 0
M  V30 1624 H 171.023 3.87004 1.56899 0
M  V30 1625 N 171.46 0.379036 1.52974 0
M  V30 1626 C 172.37 -0.468639 2.29872 0
M  V30 1627 C 173.386 -1.08067 1.36373 0
M  V30 1628 O 174.562 -1.08871 1.69438 0
M  V30 1629 C 171.627 -1.58594 3.083 0
M  V30 1630 C 170.688 -1.00007 4.17489 0
M  V30 1631 C 169.921 -2.06413 4.92168 0
M  V30 1632 O 170.144 -3.27751 4.66835 0
M  V30 1633 O 169.078 -1.68717 5.7777 0
M  V30 1634 H 172.904 0.157508 3.03291 0
M  V30 1635 H 170.489 0.143035 1.48714 0
M  V30 1636 H 172.371 -2.23525 3.57232 0
M  V30 1637 H 171.046 -2.19724 2.37703 0
M  V30 1638 H 169.953 -0.314299 3.72777 0
M  V30 1639 H 171.286 -0.433135 4.90291 0
M  V30 1640 N 172.938 -1.57226 0.108567 0
M  V30 1641 C 174.168 -1.9889 -0.559142 0
M  V30 1642 C 174.576 -0.986889 -1.61422 0
M  V30 1643 O 173.919 0.0298705 -1.83676 0
M  V30 1644 C 173.981 -3.36952 -1.25315 0
M  V30 1645 C 173.645 -4.55679 -0.347248 0
M  V30 1646 C 174.642 -5.18281 0.409996 0
M  V30 1647 C 172.327 -5.0162 -0.261367 0
M  V30 1648 C 174.321 -6.25203 1.24096 0
M  V30 1649 C 172.008 -6.08405 0.573238 0
M  V30 1650 C 173.006 -6.70063 1.32304 0
M  V30 1651 O 172.694 -7.74788 2.14381 0
M  V30 1652 H 172.426 -0.658343 -0.153492 0
M  V30 1653 H 174.98 -2.04532 0.188584 0
M  V30 1654 H 173.21 -3.28032 -2.04773 0
M  V30 1655 H 174.899 -3.62974 -1.81673 0
M  V30 1656 H 175.665 -4.8371 0.353457 0
M  V30 1657 H 171.544 -4.53381 -0.834656 0
M  V30 1658 H 175.088 -6.73259 1.82669 0
M  V30 1659 H 170.985 -6.42406 0.631208 0
M  V30 1660 H 171.753 -7.91837 2.07209 0
M  V30 1661 N 174.416 0.165178 -1.56732 0
M  V30 1662 C 175.693 0.908443 -1.73224 0
M  V30 1663 C 176.073 2.0013 -0.67165 0
M  V30 1664 O 175.421 2.26353 0.31253 0
M  V30 1665 C 175.631 1.46756 -3.16644 0
M  V30 1666 C 176.979 1.93809 -3.77787 0
M  V30 1667 O 178.003 1.56537 -3.1996 0
M  V30 1668 O 176.862 2.62486 -4.79336 0
M  V30 1669 H 173.956 0.428025 -0.707618 0
M  V30 1670 H 176.502 0.152526 -1.69013 0
M  V30 1671 H 175.274 0.68129 -3.85323 0
M  V30 1672 H 174.897 2.28749 -3.25207 0
M  V30 1673 N 175.894 1.51508 0.433938 0
M  V30 1674 C 177.14 1.64588 1.18484 0
M  V30 1675 C 177.473 0.362666 1.90784 0
M  V30 1676 O 176.748 -0.637892 1.83742 0
M  V30 1677 C 177.031 2.85149 2.19913 0
M  V30 1678 C 176.884 4.23456 1.51674 0
M  V30 1679 C 178.203 3.01227 3.20858 0
M  V30 1680 H 175.322 0.598994 0.429389 0
M  V30 1681 H 177.964 1.84002 0.473647 0
M  V30 1682 H 176.114 2.68729 2.80566 0
M  V30 1683 H 177.786 4.51552 0.943322 0
M  V30 1684 H 176.029 4.25998 0.819035 0
M  V30 1685 H 176.7 5.03812 2.2556 0
M  V30 1686 H 179.176 3.16382 2.70263 0
M  V30 1687 H 178.052 3.87141 3.89118 0
M  V30 1688 H 178.313 2.13447 3.8716 0
M  V30 1689 N 177.372 -0.689602 1.41712 0
M  V30 1690 C 178.618 -1.45181 1.41599 0
M  V30 1691 C 178.951 -1.94181 0.0270081 0
M  V30 1692 O 178.226 -1.6993 -0.946265 0
M  V30 1693 C 178.509 -2.65945 2.42787 0
M  V30 1694 C 178.362 -2.22672 3.90816 0
M  V30 1695 C 179.681 -3.68149 2.41151 0
M  V30 1696 H 176.8 -0.526576 0.515642 0
M  V30 1697 H 179.442 -0.784947 1.73028 0
M  V30 1698 H 177.592 -3.2284 2.16116 0
M  V30 1699 H 179.264 -1.71058 4.28412 0
M  V30 1700 H 177.507 -1.54394 4.05395 0
M  V30 1701 H 178.178 -3.0935 4.57172 0
M  V30 1702 H 180.654 -3.2094 2.64834 0
M  V30 1703 H 179.53 -4.50248 3.13955 0
M  V30 1704 H 179.791 -4.18259 1.43221 0
M  V30 1705 N 178.85 -1.27639 -0.924453 0
M  V30 1706 C 180.096 -1.14336 -1.67497 0
M  V30 1707 C 180.429 0.309465 -1.91718 0
M  V30 1708 O 179.704 1.22608 -1.50989 0
M  V30 1709 C 179.987 -1.93096 -3.0395 0
M  V30 1710 C 179.84 -3.46381 -2.8695 0
M  V30 1711 C 181.159 -1.73798 -4.0433 0
M  V30 1712 H 178.278 -0.416728 -0.607871 0
M  V30 1713 H 180.92 -1.56832 -1.07256 0
M  V30 1714 H 179.07 -1.56982 -3.55372 0
M  V30 1715 H 180.742 -3.92343 -2.42621 0
M  V30 1716 H 178.985 -3.72557 -2.22225 0
M  V30 1717 H 179.656 -3.96735 -3.83804 0
M  V30 1718 H 182.132 -2.05293 -3.61931 0
M  V30 1719 H 181.008 -2.31294 -4.97789 0
M  V30 1720 H 181.269 -0.686725 -4.36734 0
M  V30 1721 N 180.328 1.1314 -1.09713 0
M  V30 1722 C 181.258 2.20748 -0.761102 0
M  V30 1723 C 182.239 1.68061 0.262566 0
M  V30 1724 O 183.424 1.93765 0.129977 0
M  V30 1725 C 180.554 3.46812 -0.184054 0
M  V30 1726 C 179.508 4.12606 -1.13757 0
M  V30 1727 C 178.834 5.33031 -0.422083 0
M  V30 1728 C 180.134 4.59603 -2.48118 0
M  V30 1729 H 181.828 2.49113 -1.66082 0
M  V30 1730 H 179.374 1.19734 -0.799987 0
M  V30 1731 H 181.327 4.21353 0.0631215 0
M  V30 1732 H 180.051 3.17851 0.750868 0
M  V30 1733 H 178.71 3.40036 -1.37007 0
M  V30 1734 H 178.358 5.00335 0.517072 0
M  V30 1735 H 178.058 5.77999 -1.05788 0
M  V30 1736 H 179.582 6.10325 -0.183277 0
M  V30 1737 H 180.996 5.25552 -2.29059 0
M  V30 1738 H 179.393 5.15321 -3.07514 0
M  V30 1739 H 180.463 3.73971 -3.08665 0
M  V30 1740 N 181.806 0.884767 1.30421 0
M  V30 1741 C 183.054 0.502112 1.95763 0
M  V30 1742 C 183.375 -0.951815 1.70192 0
M  V30 1743 O 182.645 -1.6692 1.0254 0
M  V30 1744 H 181.225 0.182694 0.724315 0
M  V30 1745 H 183.887 1.1278 1.58955 0
M  V30 1746 H 182.983 0.672188 3.04775 0
M  V30 1747 N 183.284 -1.43765 0.645699 0
M  V30 1748 C 184.532 -2.01499 0.155731 0
M  V30 1749 C 184.853 -1.51151 -1.232 0
M  V30 1750 O 184.123 -0.721044 -1.82148 0
M  V30 1751 H 182.703 -0.745003 0.0545817 0
M  V30 1752 H 185.365 -1.76075 0.835677 0
M  V30 1753 H 184.461 -3.1181 0.134577 0
M  V30 1754 N 184.763 -0.387143 -1.52771 0
M  V30 1755 C 186.011 0.195349 -2.01154 0
M  V30 1756 C 186.332 1.475 -1.27549 0
M  V30 1757 O 185.602 1.91878 -0.394924 0
M  V30 1758 H 184.182 0.075178 -0.743207 0
M  V30 1759 H 186.844 -0.518337 -1.87881 0
M  V30 1760 H 185.94 0.407096 -3.09434 0
M  V30 1761 N 186.241 1.57166 -0.116904 0
M  V30 1762 C 187.652 1.82169 0.408809 0
M  V30 1763 C 188.003 1.03393 1.66746 0
M  V30 1764 O 187.128 0.269886 2.1471 0
M  V30 1765 C 187.723 3.30429 0.748466 0
M  V30 1766 C 186.282 3.5612 1.21882 0
M  V30 1767 C 185.429 2.76374 0.226452 0
M  V30 1768 H 188.38 1.5497 -0.342063 0
M  V30 1769 H 188.401 3.44943 1.60607 0
M  V30 1770 H 187.913 3.87737 -0.167784 0
M  V30 1771 H 186.014 3.04168 2.15204 0
M  V30 1772 H 186.127 4.64705 1.16559 0
M  V30 1773 H 184.491 2.44515 0.713063 0
M  V30 1774 H 185.274 3.3644 -0.682859 0
M  V30 1775 N 187.719 -0.156864 1.56817 0
M  V30 1776 C 188.967 -0.869404 1.82444 0
M  V30 1777 C 189.288 -1.82147 0.69623 0
M  V30 1778 O 188.558 -1.93847 -0.28287 0
M  V30 1779 H 187.138 -0.324043 0.673056 0
M  V30 1780 H 189.8 -0.153224 1.94297 0
M  V30 1781 H 188.896 -1.43761 2.77019 0
M  V30 1782 N 189.197 -1.51736 -0.425897 0
M  V30 1783 C 190.445 -1.64644 -1.17204 0
M  V30 1784 C 190.766 -0.370486 -1.91448 0
M  V30 1785 O 190.036 0.614088 -1.86026 0
M  V30 1786 H 188.616 -0.606819 -0.435638 0
M  V30 1787 H 191.278 -1.88713 -0.487177 0
M  V30 1788 H 190.374 -2.47958 -1.89534 0
M  V30 1789 N 190.675 0.682077 -1.42076 0
M  V30 1790 C 191.905 1.46844 -1.45329 0
M  V30 1791 C 192.313 1.89102 -0.0609328 0
M  V30 1792 O 191.656 1.58238 0.933082 0
M  V30 1793 C 191.718 2.75375 -2.31104 0
M  V30 1794 C 191.382 2.55238 -3.79081 0
M  V30 1795 C 192.379 2.20309 -4.70914 0
M  V30 1796 C 190.064 2.70459 -4.2327 0
M  V30 1797 C 192.058 2.00859 -6.04925 0
M  V30 1798 C 189.745 2.50624 -5.57343 0
M  V30 1799 C 190.743 2.15876 -6.47986 0
M  V30 1800 O 190.431 1.96227 -7.79583 0
M  V30 1801 H 190.163 0.4586 -0.496651 0
M  V30 1802 H 192.717 0.846131 -1.87162 0
M  V30 1803 H 190.947 3.40061 -1.84107 0
M  V30 1804 H 192.636 3.37231 -2.25898 0
M  V30 1805 H 193.402 2.08153 -4.38061 0
M  V30 1806 H 189.281 2.96485 -3.53012 0
M  V30 1807 H 192.825 1.7366 -6.75639 0
M  V30 1808 H 188.722 2.62375 -5.89771 0
M  V30 1809 H 189.49 2.10883 -7.90867 0
M  V30 1810 N 192.153 1.28127 0.917671 0
M  V30 1811 C 193.378 1.18007 1.70555 0
M  V30 1812 C 193.803 -0.258257 1.86319 0
M  V30 1813 O 193.161 -1.1869 1.37049 0
M  V30 1814 C 193.209 1.87948 3.07746 0
M  V30 1815 O 192.313 1.18427 3.9503 0
M  V30 1816 H 191.654 0.409867 0.522403 0
M  V30 1817 H 194.184 1.69379 1.1477 0
M  V30 1818 H 194.194 1.95701 3.58001 0
M  V30 1819 H 192.869 2.92573 2.95591 0
M  V30 1820 H 191.446 1.18811 3.53466 0
M  V30 1821 N 193.631 -1.12557 1.10312 0
M  V30 1822 C 194.594 -2.16434 0.75424 0
M  V30 1823 C 195.594 -1.59278 -0.220685 0
M  V30 1824 O 196.784 -1.742 0.00230591 0
M  V30 1825 C 193.916 -3.40699 0.116987 0
M  V30 1826 H 195.109 -2.48811 1.67431 0
M  V30 1827 H 192.662 -1.27542 0.903475 0
M  V30 1828 H 193.397 -3.13921 -0.813877 0
M  V30 1829 H 193.182 -3.83459 0.818613 0
M  V30 1830 H 194.672 -4.17451 -0.111387 0
M  V30 1831 N 195.109 -0.891671 -1.2995 0
M  V30 1832 C 196.072 -0.36828 -2.26222 0
M  V30 1833 C 197.072 0.493014 -1.53056 0
M  V30 1834 O 198.262 0.299213 -1.71611 0
M  V30 1835 C 195.394 0.47442 -3.37583 0
M  V30 1836 H 196.587 -1.21844 -2.74033 0
M  V30 1837 H 194.14 -0.669107 -1.41254 0
M  V30 1838 H 194.875 1.34489 -2.95099 0
M  V30 1839 H 194.66 -0.142615 -3.91841 0
M  V30 1840 H 196.15 0.83218 -4.09224 0
M  V30 1841 N 196.587 1.43421 -0.653314 0
M  V30 1842 C 197.834 2.01812 -0.166745 0
M  V30 1843 C 198.162 1.51535 1.21931 0
M  V30 1844 O 197.417 0.698975 1.82792 0
M  V30 1845 C 197.716 3.57176 -0.126623 0
M  V30 1846 C 197.382 4.26798 -1.45444 0
M  V30 1847 C 196.044 4.45534 -1.81805 0
M  V30 1848 C 198.396 4.66225 -2.32989 0
M  V30 1849 C 195.724 5.00961 -3.05377 0
M  V30 1850 C 198.076 5.23021 -3.55853 0
M  V30 1851 C 196.74 5.39973 -3.9241 0
M  V30 1852 H 196.01 0.738484 -0.0610162 0
M  V30 1853 H 198.657 1.71896 -0.84404 0
M  V30 1854 H 196.962 3.86634 0.634123 0
M  V30 1855 H 198.659 4.00112 0.266723 0
M  V30 1856 H 195.249 4.12561 -1.16153 0
M  V30 1857 H 199.433 4.51443 -2.06187 0
M  V30 1858 H 194.689 5.12271 -3.3375 0
M  V30 1859 H 198.863 5.52518 -4.23907 0
M  V30 1860 H 196.49 5.82687 -4.88242 0
M  V30 1861 N 198.065 0.39524 1.52563 0
M  V30 1862 C 199.028 -0.425001 2.25225 0
M  V30 1863 C 200.028 -0.985266 1.27079 0
M  V30 1864 O 201.218 -0.866332 1.5113 0
M  V30 1865 C 198.35 -1.59686 3.01186 0
M  V30 1866 H 199.543 0.211233 2.99155 0
M  V30 1867 H 197.096 0.147472 1.55603 0
M  V30 1868 H 197.831 -2.27035 2.31572 0
M  V30 1869 H 197.616 -1.20176 3.73229 0
M  V30 1870 H 199.106 -2.17743 3.5634 0
M  V30 1871 N 199.544 -1.57102 0.125237 0
M  V30 1872 C 200.507 -2.14471 -0.80838 0
M  V30 1873 C 201.507 -1.0811 -1.19033 0
M  V30 1874 O 202.697 -1.33856 -1.11482 0
M  V30 1875 C 199.829 -2.69005 -2.09402 0
M  V30 1876 H 201.022 -2.98297 -0.309696 0
M  V30 1877 H 198.575 -1.55807 -0.124051 0
M  V30 1878 H 199.31 -1.88785 -2.63687 0
M  V30 1879 H 199.095 -3.46799 -1.82957 0
M  V30 1880 H 200.585 -3.13278 -2.76128 0
M  V30 1881 N 201.022 0.148545 -1.56898 0
M  V30 1882 C 201.985 1.16736 -1.97244 0
M  V30 1883 C 202.985 1.35947 -0.858777 0
M  V30 1884 O 204.175 1.32966 -1.12542 0
M  V30 1885 C 201.307 2.52798 -2.28705 0
M  V30 1886 H 202.5 0.821279 -2.88435 0
M  V30 1887 H 200.053 0.391831 -1.51309 0
M  V30 1888 H 200.788 2.92381 -1.403 0
M  V30 1889 H 200.573 2.40216 -3.09901 0
M  V30 1890 H 202.063 3.26179 -2.60762 0
M  V30 1891 N 202.5 1.5196 0.417844 0
M  V30 1892 C 203.777 1.56146 1.17803 0
M  V30 1893 C 204.157 0.337275 2.08388 0
M  V30 1894 O 203.505 -0.676447 2.18258 0
M  V30 1895 C 203.715 2.88566 1.96293 0
M  V30 1896 C 205.063 3.41244 2.52662 0
M  V30 1897 O 206.087 2.90247 2.06483 0
M  V30 1898 O 204.946 4.30273 3.36938 0
M  V30 1899 H 202.04 0.628598 0.537395 0
M  V30 1900 H 204.586 1.64283 0.425331 0
M  V30 1901 H 203.358 3.69116 1.2988 0
M  V30 1902 H 202.981 2.83681 2.78587 0
M  V30 1903 N 203.978 -0.674533 1.42435 0
M  V30 1904 C 204.888 -1.81751 1.48337 0
M  V30 1905 C 205.904 -1.69975 0.372099 0
M  V30 1906 O 207.08 -1.91521 0.62304 0
M  V30 1907 C 204.145 -3.17895 1.38361 0
M  V30 1908 C 203.206 -3.41625 2.59982 0
M  V30 1909 C 202.439 -4.71274 2.50473 0
M  V30 1910 O 202.662 -5.49197 1.54075 0
M  V30 1911 O 201.596 -4.96254 3.4061 0
M  V30 1912 H 205.422 -1.79728 2.44809 0
M  V30 1913 H 203.007 -0.830312 1.24202 0
M  V30 1914 H 204.889 -3.99136 1.35161 0
M  V30 1915 H 203.564 -3.20555 0.450144 0
M  V30 1916 H 202.471 -2.60231 2.68757 0
M  V30 1917 H 203.804 -3.43796 3.52229 0
M  V30 1918 N 205.456 -1.28612 -0.910864 0
M  V30 1919 C 206.704 -1.15705 -1.65701 0
M  V30 1920 C 207.025 0.29416 -1.92769 0
M  V30 1921 O 206.295 1.20331 -1.54588 0
M  V30 1922 H 204.875 -0.425216 -0.614167 0
M  V30 1923 H 207.537 -1.61381 -1.0928 0
M  V30 1924 H 206.633 -1.6988 -2.61815 0
M  V30 1925 N 206.934 1.1197 -1.10907 0
M  V30 1926 C 207.864 2.19928 -0.784473 0
M  V30 1927 C 208.845 1.6833 0.244726 0
M  V30 1928 O 210.03 1.93892 0.109418 0
M  V30 1929 C 207.16 3.46597 -0.220827 0
M  V30 1930 C 206.114 4.11376 -1.18127 0
M  V30 1931 C 205.44 5.32554 -0.478594 0
M  V30 1932 C 206.74 4.56945 -2.52979 0
M  V30 1933 H 208.434 2.47337 -1.68715 0
M  V30 1934 H 205.98 1.18879 -0.812642 0
M  V30 1935 H 207.933 4.21396 0.0184278 0
M  V30 1936 H 206.657 3.1863 0.717113 0
M  V30 1937 H 205.316 3.38564 -1.40606 0
M  V30 1938 H 204.964 5.00856 0.463976 0
M  V30 1939 H 204.664 5.76844 -1.11912 0
M  V30 1940 H 206.188 6.10096 -0.248 0
M  V30 1941 H 207.602 5.23093 -2.3462 0
M  V30 1942 H 205.999 5.1203 -3.12962 0
M  V30 1943 H 207.069 3.70676 -3.12614 0
M  V30 1944 N 208.412 0.89855 1.29475 0
M  V30 1945 C 209.359 0.373819 2.27753 0
M  V30 1946 C 210.329 -0.543444 1.56958 0
M  V30 1947 O 211.514 -0.468934 1.84948 0
M  V30 1948 C 208.654 -0.393648 3.42848 0
M  V30 1949 C 207.767 0.554379 4.28428 0
M  V30 1950 C 206.902 -0.230026 5.30702 0
M  V30 1951 C 205.941 0.712599 6.07938 0
M  V30 1952 N 205.078 -0.0373283 7.0209 0
M  V30 1953 H 209.918 1.21699 2.72017 0
M  V30 1954 H 207.455 0.611456 1.33789 0
M  V30 1955 H 209.413 -0.85466 4.08352 0
M  V30 1956 H 208.043 -1.20128 2.99615 0
M  V30 1957 H 207.095 1.13391 3.63107 0
M  V30 1958 H 208.407 1.27597 4.82204 0
M  V30 1959 H 207.561 -0.752288 6.02018 0
M  V30 1960 H 206.3 -0.984758 4.77654 0
M  V30 1961 H 205.305 1.24637 5.35486 0
M  V30 1962 H 206.53 1.46664 6.63074 0
M  V30 1963 H 204.476 -0.774348 6.51414 0
M  V30 1964 H 204.393 0.624374 7.53417 0
M  V30 1965 H 205.661 -0.539891 7.77628 0
M  V30 1966 N 209.89 -1.43072 0.660911 0
M  V30 1967 C 211.136 -2.0202 0.177708 0
M  V30 1968 C 211.469 -1.52066 -1.20787 0
M  V30 1969 O 210.744 -0.716987 -1.80802 0
M  V30 1970 C 211.027 -3.59561 0.197019 0
M  V30 1971 C 210.88 -4.19727 1.61706 0
M  V30 1972 C 212.199 -4.37664 -0.462396 0
M  V30 1973 H 209.318 -0.734034 0.0660494 0
M  V30 1974 H 211.96 -1.70272 0.843058 0
M  V30 1975 H 210.11 -3.86739 -0.369527 0
M  V30 1976 H 211.782 -4.03553 2.23479 0
M  V30 1977 H 210.025 -3.76084 2.16201 0
M  V30 1978 H 210.696 -5.28834 1.58237 0
M  V30 1979 H 213.172 -4.16095 0.0197215 0
M  V30 1980 H 212.048 -5.47305 -0.418188 0
M  V30 1981 H 212.309 -4.14493 -1.53778 0
M  V30 1982 N 211.368 -0.403325 -1.52352 0
M  V30 1983 C 212.331 0.413051 -2.25447 0
M  V30 1984 C 213.331 0.978513 -1.276 0
M  V30 1985 O 214.521 0.858305 -1.51587 0
M  V30 1986 C 211.653 1.58087 -3.02029 0
M  V30 1987 H 212.846 -0.227094 -2.99039 0
M  V30 1988 H 210.399 -0.155722 -1.55522 0
M  V30 1989 H 211.134 2.25804 -2.32772 0
M  V30 1990 H 210.919 1.18195 -3.73861 0
M  V30 1991 H 212.409 2.1585 -3.57489 0
M  V30 1992 N 212.846 1.57033 -0.133567 0
M  V30 1993 C 214.095 1.94861 0.520768 0
M  V30 1994 C 214.408 1.02012 1.66892 0
M  V30 1995 O 215.614 1.29365 2.38699 0
M  V30 1996 C 214.07 3.46362 0.977809 0
M  V30 1997 C 213.678 4.47773 -0.142674 0
M  V30 1998 C 215.422 3.93083 1.60269 0
M  V30 1999 C 213.329 5.90468 0.331883 0
M  V30 2000 H 212.259 0.727453 0.198315 0
M  V30 2001 H 214.91 1.82227 -0.215759 0
M  V30 2002 H 213.292 3.54282 1.7692 0
M  V30 2003 H 214.466 4.51536 -0.919317 0
M  V30 2004 H 212.781 4.10891 -0.675124 0
M  V30 2005 H 215.378 4.97121 1.96914 0
M  V30 2006 H 215.721 3.33876 2.48662 0
M  V30 2007 H 216.254 3.88025 0.876453 0
M  V30 2008 H 212.993 6.53463 -0.516341 0
M  V30 2009 H 212.513 5.90094 1.07469 0
M  V30 2010 H 214.192 6.42179 0.788332 0
M  V30 2011 N 214.325 -0.140222 1.56975 0
M  V30 2012 C 215.571 -0.852949 1.83991 0
M  V30 2013 C 215.904 -1.80512 0.716187 0
M  V30 2014 O 215.179 -1.92479 -0.279681 0
M  V30 2015 C 215.462 -1.6215 3.21527 0
M  V30 2016 C 215.315 -0.690363 4.4447 0
M  V30 2017 C 216.634 -2.58247 3.56366 0
M  V30 2018 H 213.753 -0.308634 0.669264 0
M  V30 2019 H 216.395 -0.117898 1.89634 0
M  V30 2020 H 214.545 -2.24812 3.16847 0
M  V30 2021 H 216.217 -0.0742264 4.6124 0
M  V30 2022 H 214.46 -0.000396433 4.338 0
M  V30 2023 H 215.131 -1.2643 5.37326 0
M  V30 2024 H 217.607 -2.05701 3.61699 0
M  V30 2025 H 216.483 -3.09067 4.53617 0
M  V30 2026 H 216.744 -3.39923 2.82674 0
M  V30 2027 N 215.803 -1.52179 -0.40978 0
M  V30 2028 C 216.713 -1.78364 -1.52392 0
M  V30 2029 C 217.729 -0.669183 -1.60617 0
M  V30 2030 O 218.905 -0.954518 -1.77344 0
M  V30 2031 C 215.97 -1.92822 -2.88133 0
M  V30 2032 C 215.031 -3.16725 -2.898 0
M  V30 2033 C 214.264 -3.30483 -4.19067 0
M  V30 2034 O 214.487 -2.49522 -5.12928 0
M  V30 2035 O 213.421 -4.2363 -4.27576 0
M  V30 2036 H 217.247 -2.72931 -1.33201 0
M  V30 2037 H 214.832 -1.37016 -0.59557 0
M  V30 2038 H 216.714 -2.04157 -3.68643 0
M  V30 2039 H 215.389 -1.01444 -3.07393 0
M  V30 2040 H 214.296 -3.10848 -2.08146 0
M  V30 2041 H 215.629 -4.07881 -2.75489 0
M  V30 2042 N 217.281 0.66697 -1.42791 0
M  V30 2043 C 218.697 0.981027 -1.25889 0
M  V30 2044 C 218.897 2.00793 -0.168695 0
M  V30 2045 O 217.953 2.48321 0.45747 0
M  V30 2046 C 219.266 1.47838 -2.61848 0
M  V30 2047 C 220.814 1.59575 -2.69267 0
M  V30 2048 C 221.289 2.12704 -4.05612 0
M  V30 2049 N 222.78 2.20026 -4.07606 0
M  V30 2050 C 223.515 2.62227 -5.09926 0
M  V30 2051 N 223.011 3.03824 -6.22626 0
M  V30 2052 N 224.804 2.62045 -4.97281 0
M  V30 2053 H 216.955 -0.0127891 -2.12396 0
M  V30 2054 H 219.218 0.0568258 -0.946295 0
M  V30 2055 H 218.924 0.798299 -3.4252 0
M  V30 2056 H 218.798 2.45579 -2.86305 0
M  V30 2057 H 221.185 2.26687 -1.88936 0
M  V30 2058 H 221.266 0.60302 -2.48591 0
M  V30 2059 H 220.91 1.46198 -4.86404 0
M  V30 2060 H 220.84 3.12782 -4.23645 0
M  V30 2061 H 223.331 1.90708 -3.2625 0
M  V30 2062 H 223.644 3.34734 -6.96544 0
M  V30 2063 H 221.989 3.01662 -6.26119 0
M  V30 2064 H 225.18 2.28916 -4.08308 0
M  V30 2065 H 225.353 2.94613 -5.77154 0
M  V30 2066 N 218.759 1.29093 0.90403 0
M  V30 2067 C 219.989 1.19516 1.68522 0
M  V30 2068 C 220.397 -0.24738 1.87576 0
M  V30 2069 O 219.74 -1.17798 1.40959 0
M  V30 2070 C 219.802 1.83249 3.0929 0
M  V30 2071 C 219.466 3.32531 3.13484 0
M  V30 2072 C 220.463 4.28821 2.93953 0
M  V30 2073 C 218.148 3.73656 3.35688 0
M  V30 2074 C 220.142 5.64212 2.96553 0
M  V30 2075 C 217.829 5.0917 3.37919 0
M  V30 2076 C 218.827 6.04258 3.18373 0
M  V30 2077 O 218.515 7.37298 3.20385 0
M  V30 2078 H 218.247 0.415467 0.533257 0
M  V30 2079 H 220.801 1.70912 1.13922 0
M  V30 2080 H 219.031 1.26358 3.65473 0
M  V30 2081 H 220.72 1.68054 3.69476 0
M  V30 2082 H 221.486 3.98382 2.76616 0
M  V30 2083 H 217.365 3.00101 3.49943 0
M  V30 2084 H 220.909 6.38407 2.81216 0
M  V30 2085 H 216.806 5.39256 3.54787 0
M  V30 2086 H 217.574 7.46048 3.36681 0
M  V30 2087 N 220.237 -1.11381 1.11499 0
M  V30 2088 C 221.184 -2.17439 0.773887 0
M  V30 2089 C 222.154 -1.64132 -0.254899 0
M  V30 2090 O 223.339 -1.90345 -0.13168 0
M  V30 2091 C 220.479 -3.44373 0.223917 0
M  V30 2092 C 219.592 -4.1168 1.30934 0
M  V30 2093 C 218.727 -5.263 0.71984 0
M  V30 2094 C 217.766 -5.85493 1.78507 0
M  V30 2095 N 216.903 -6.91507 1.21502 0
M  V30 2096 H 221.743 -2.45962 1.68246 0
M  V30 2097 H 219.28 -1.20744 0.840191 0
M  V30 2098 H 221.238 -4.17047 -0.112921 0
M  V30 2099 H 219.868 -3.16232 -0.647851 0
M  V30 2100 H 218.92 -3.37073 1.76312 0
M  V30 2101 H 220.232 -4.51729 2.11524 0
M  V30 2102 H 219.386 -6.05785 0.333094 0
M  V30 2103 H 218.125 -4.87559 -0.117377 0
M  V30 2104 H 217.13 -5.04686 2.18111 0
M  V30 2105 H 218.355 -6.26301 2.62533 0
M  V30 2106 H 216.301 -6.54783 0.399455 0
M  V30 2107 H 216.218 -7.30214 1.95763 0
M  V30 2108 H 217.486 -7.74795 0.855181 0
M  V30 2109 N 221.715 -0.905404 -1.28997 0
M  V30 2110 C 222.943 -0.549846 -1.9946 0
M  V30 2111 C 223.358 0.866834 -1.67724 0
M  V30 2112 O 222.715 1.57298 -0.925404 0
M  V30 2113 C 222.766 -0.739387 -3.53858 0
M  V30 2114 O 222.487 -2.10031 -3.84472 0
M  V30 2115 C 223.988 -0.389541 -4.41585 0
M  V30 2116 H 221.208 -0.210429 -0.637151 0
M  V30 2117 H 223.752 -1.21632 -1.64396 0
M  V30 2118 H 221.907 -0.120023 -3.87214 0
M  V30 2119 H 222.321 -2.13385 -4.79132 0
M  V30 2120 H 223.795 -0.572972 -5.49018 0
M  V30 2121 H 224.272 0.673756 -4.34001 0
M  V30 2122 H 224.878 -0.986089 -4.1371 0
M  V30 2123 N 223.193 1.4272 -0.668489 0
M  V30 2124 C 224.123 2.335 -0.000100175 0
M  V30 2125 C 225.104 1.50328 0.795964 0
M  V30 2126 O 226.289 1.78949 0.754385 0
M  V30 2127 C 223.419 3.33874 0.956302 0
M  V30 2128 C 222.373 4.27152 0.269278 0
M  V30 2129 C 221.699 5.17684 1.33818 0
M  V30 2130 C 222.999 5.15373 -0.847805 0
M  V30 2131 H 224.693 2.89639 -0.758244 0
M  V30 2132 H 222.239 1.39269 -0.366079 0
M  V30 2133 H 224.192 3.9629 1.43292 0
M  V30 2134 H 222.916 2.76025 1.74579 0
M  V30 2135 H 221.575 3.66123 -0.187042 0
M  V30 2136 H 221.223 4.56165 2.1195 0
M  V30 2137 H 220.923 5.80918 0.883659 0
M  V30 2138 H 222.447 5.82974 1.81586 0
M  V30 2139 H 223.861 5.7151 -0.452681 0
M  V30 2140 H 222.258 5.87407 -1.22773 0
M  V30 2141 H 223.328 4.5415 -1.69929 0
M  V30 2142 N 224.671 0.411399 1.52136 0
M  V30 2143 C 225.919 -0.163322 2.01439 0
M  V30 2144 C 226.24 -1.45453 1.29879 0
M  V30 2145 O 225.51 -1.91225 0.4254 0
M  V30 2146 H 224.09 -0.0633447 0.744309 0
M  V30 2147 H 226.752 0.548161 1.87033 0
M  V30 2148 H 225.848 -0.357817 3.10042 0
M  V30 2149 N 226.149 -1.5696 0.141893 0
M  V30 2150 C 227.397 -1.95573 -0.509484 0
M  V30 2151 C 227.718 -1.02746 -1.65736 0
M  V30 2152 O 226.988 -0.0880311 -1.95702 0
M  V30 2153 H 225.568 -0.722115 -0.191205 0
M  V30 2154 H 228.23 -1.93697 0.216196 0
M  V30 2155 H 227.326 -2.99171 -0.889 0
M  V30 2156 N 227.627 0.131896 -1.57047 0
M  V30 2157 C 228.873 0.843179 -1.84441 0
M  V30 2158 C 229.206 1.80129 -0.725749 0
M  V30 2159 O 228.481 1.92624 0.269469 0
M  V30 2160 C 228.764 1.60442 -3.22382 0
M  V30 2161 C 228.617 0.666782 -4.4483 0
M  V30 2162 C 229.936 2.56354 -3.5773 0
M  V30 2163 H 227.055 0.305081 -0.670891 0
M  V30 2164 H 229.697 0.107839 -1.89694 0
M  V30 2165 H 227.847 2.23128 -3.18035 0
M  V30 2166 H 229.519 0.0497646 -4.61273 0
M  V30 2167 H 227.762 -0.022609 -4.33794 0
M  V30 2168 H 228.433 1.23579 -5.37989 0
M  V30 2169 H 230.909 2.0378 -3.62785 0
M  V30 2170 H 229.785 3.06657 -4.5525 0
M  V30 2171 H 230.046 3.38419 -2.84473 0
M  V30 2172 N 229.106 1.52395 0.401703 0
M  V30 2173 C 230.346 1.68498 1.15705 0
M  V30 2174 C 230.71 0.409748 1.87577 0
M  V30 2175 O 231.911 0.446983 2.65058 0
M  V30 2176 C 230.182 2.87789 2.11924 0
M  V30 2177 S 231.741 3.24415 2.95466 0
M  V30 2178 H 228.559 0.593267 0.391862 0
M  V30 2179 H 231.161 1.90408 0.443282 0
M  V30 2180 H 229.865 3.7884 1.57824 0
M  V30 2181 H 229.396 2.68175 2.87829 0
M  V30 2182 H 231.411 2.73614 4.13944 0
M  V30 2183 N 230.584 -0.659388 1.43143 0
M  V30 2184 C 231.514 -1.78422 1.50625 0
M  V30 2185 C 232.495 -1.66216 0.361443 0
M  V30 2186 O 233.68 -1.85404 0.577834 0
M  V30 2187 C 230.81 -3.16815 1.42287 0
M  V30 2188 C 229.764 -3.43777 2.54954 0
M  V30 2189 C 229.09 -4.81905 2.31671 0
M  V30 2190 C 230.39 -3.39134 3.97222 0
M  V30 2191 H 232.084 -1.72417 2.44771 0
M  V30 2192 H 229.63 -0.828084 1.17808 0
M  V30 2193 H 231.583 -3.95253 1.46127 0
M  V30 2194 H 230.307 -3.23534 0.446435 0
M  V30 2195 H 228.966 -2.67707 2.50457 0
M  V30 2196 H 228.614 -4.85294 1.32284 0
M  V30 2197 H 228.314 -5.00906 3.07192 0
M  V30 2198 H 229.838 -5.62609 2.37284 0
M  V30 2199 H 231.252 -4.07518 4.03239 0
M  V30 2200 H 229.649 -3.69671 4.72719 0
M  V30 2201 H 230.719 -2.37426 4.22797 0
M  V30 2202 N 232.062 -1.29571 -0.897171 0
M  V30 2203 C 233.01 -1.14802 -2.02295 0
M  V30 2204 C 234.004 -0.0629637 -1.69283 0
M  V30 2205 O 235.21 -0.222945 -1.78614 0
M  V30 2206 H 231.585 -0.354692 -0.663097 0
M  V30 2207 H 233.556 -2.10108 -2.11889 0
M  V30 2208 C 232.305 -0.843966 -3.37302 0
M  V30 2209 H 231.628 -1.67093 -3.63208 0
M  V30 2210 H 233.068 -0.780672 -4.16751 0
M  V30 2211 C 231.527 0.452843 -3.33843 0
M  V30 2212 O 232.057 1.47813 -3.73516 0
M  V30 2213 N 230.263 0.459601 -2.86943 0
M  V30 2214 H 229.81 -0.375213 -2.54853 0
M  V30 2215 H 229.768 1.32726 -2.85011 0
M  V30 2216 N 233.54 1.10788 -1.12088 0
M  V30 2217 C 234.786 1.82942 -0.875226 0
M  V30 2218 C 235.119 1.84779 0.597538 0
M  V30 2219 O 234.394 1.30578 1.44152 0
M  V30 2220 C 234.677 3.29789 -1.44606 0
M  V30 2221 C 234.53 3.36307 -2.98693 0
M  V30 2222 C 235.849 4.26064 -1.10261 0
M  V30 2223 H 232.968 0.664195 -0.319397 0
M  V30 2224 H 235.61 1.29867 -1.38689 0
M  V30 2225 H 233.76 3.75118 -1.01089 0
M  V30 2226 H 235.432 2.99487 -3.50864 0
M  V30 2227 H 233.675 2.76318 -3.34411 0
M  V30 2228 H 234.346 4.39694 -3.33726 0
M  V30 2229 H 236.822 3.88951 -1.4784 0
M  V30 2230 H 235.698 5.27183 -1.52869 0
M  V30 2231 H 235.959 4.42098 -0.0142953 0
M  V30 2232 N 235.018 0.912232 1.28515 0
M  V30 2233 C 236.266 0.543523 1.94654 0
M  V30 2234 C 236.587 -0.9155 1.72173 0
M  V30 2235 O 235.857 -1.64708 1.06058 0
M  V30 2236 H 234.437 0.198017 0.720277 0
M  V30 2237 H 237.099 1.16126 1.56527 0
M  V30 2238 H 236.195 0.736684 3.03281 0
M  V30 2239 N 236.496 -1.42363 0.676048 0
M  V30 2240 C 237.736 -2.03392 0.20273 0
M  V30 2241 C 238.1 -1.52306 -1.16906 0
M  V30 2242 O 239.301 -2.05129 -1.73711 0
M  V30 2243 C 237.572 -3.56614 0.236947 0
M  V30 2244 S 239.131 -4.38489 -0.165186 0
M  V30 2245 H 235.949 -0.70611 0.0832418 0
M  V30 2246 H 238.551 -1.74093 0.88948 0
M  V30 2247 H 237.255 -3.91293 1.23767 0
M  V30 2248 H 236.786 -3.90587 -0.469596 0
M  V30 2249 H 238.801 -4.76093 -1.39822 0
M  V30 2250 N 237.974 -0.419461 -1.51915 0
M  V30 2251 C 239.223 0.154346 -2.01109 0
M  V30 2252 C 239.536 1.45338 -1.30905 0
M  V30 2253 O 240.742 2.10906 -1.7097 0
M  V30 2254 C 239.198 0.325615 -3.58424 0
M  V30 2255 C 238.806 -0.961934 -4.37551 0
M  V30 2256 C 240.55 0.854155 -4.15818 0
M  V30 2257 C 238.457 -0.757287 -5.86531 0
M  V30 2258 H 237.387 0.0614563 -0.751491 0
M  V30 2259 H 240.038 -0.54649 -1.75173 0
M  V30 2260 H 238.42 1.08903 -3.80731 0
M  V30 2261 H 239.594 -1.7323 -4.26999 0
M  V30 2262 H 237.909 -1.41766 -3.91524 0
M  V30 2263 H 240.506 1.02346 -5.24814 0
M  V30 2264 H 240.849 1.83172 -3.73837 0
M  V30 2265 H 241.382 0.149528 -3.97519 0
M  V30 2266 H 238.121 -1.70671 -6.32892 0
M  V30 2267 H 237.641 -0.0264061 -5.99794 0
M  V30 2268 H 239.32 -0.403482 -6.45741 0
M  V30 2269 N 239.452 1.56882 -0.150215 0
M  V30 2270 C 240.863 1.82995 0.370076 0
M  V30 2271 C 241.214 1.06907 1.64515 0
M  V30 2272 O 240.339 0.315369 2.1409 0
M  V30 2273 C 240.934 3.31942 0.678208 0
M  V30 2274 C 239.493 3.58625 1.14301 0
M  V30 2275 C 238.64 2.76792 0.167778 0
M  V30 2276 H 241.591 1.54209 -0.374858 0
M  V30 2277 H 241.612 3.48272 1.53254 0
M  V30 2278 H 241.124 3.87294 -0.249991 0
M  V30 2279 H 239.225 3.08664 2.08704 0
M  V30 2280 H 239.338 4.67073 1.06676 0
M  V30 2281 H 237.702 2.45972 0.661037 0
M  V30 2282 H 238.485 3.34916 -0.754069 0
M  V30 2283 N 240.93 -0.123565 1.57115 0
M  V30 2284 C 242.155 -0.850398 1.89164 0
M  V30 2285 C 242.58 -1.7286 0.741688 0
M  V30 2286 O 241.938 -1.78665 -0.307958 0
M  V30 2287 C 241.986 -1.66353 3.19936 0
M  V30 2288 O 241.09 -2.77004 3.0552 0
M  V30 2289 H 240.431 -0.235454 0.620852 0
M  V30 2290 H 242.961 -0.107335 2.04318 0
M  V30 2291 H 242.971 -2.05372 3.52543 0
M  V30 2292 H 241.646 -1.01881 4.03228 0
M  V30 2293 H 240.223 -2.41221 2.84371 0
M  V30 2294 N 242.408 -1.52605 -0.393616 0
M  V30 2295 C 243.355 -1.77055 -1.48054 0
M  V30 2296 C 244.325 -0.61358 -1.54352 0
M  V30 2297 O 245.51 -0.852806 -1.70681 0
M  V30 2298 C 242.65 -1.94108 -2.85335 0
M  V30 2299 C 241.763 -3.21792 -2.88226 0
M  V30 2300 C 240.898 -3.29188 -4.16904 0
M  V30 2301 C 239.937 -4.51013 -4.13828 0
M  V30 2302 N 239.074 -4.55716 -5.34105 0
M  V30 2303 H 243.914 -2.69815 -1.26506 0
M  V30 2304 H 241.451 -1.33683 -0.61379 0
M  V30 2305 H 243.409 -2.01979 -3.65049 0
M  V30 2306 H 242.039 -1.04713 -3.05344 0
M  V30 2307 H 241.091 -3.23015 -2.00911 0
M  V30 2308 H 242.403 -4.11557 -2.8182 0
M  V30 2309 H 241.557 -3.36216 -5.05018 0
M  V30 2310 H 240.296 -2.37389 -4.26026 0
M  V30 2311 H 239.301 -4.44115 -3.24102 0
M  V30 2312 H 240.526 -5.44123 -4.06333 0
M  V30 2313 H 238.472 -3.66807 -5.43865 0
M  V30 2314 H 238.389 -5.39346 -5.29756 0
M  V30 2315 H 239.657 -4.66993 -6.2413 0
M  V30 2316 N 243.887 0.651787 -1.4349 0
M  V30 2317 C 244.85 1.74647 -1.48429 0
M  V30 2318 C 245.85 1.56513 -0.368817 0
M  V30 2319 O 247.04 1.62385 -0.630623 0
M  V30 2320 C 244.172 3.13533 -1.33827 0
M  V30 2321 H 245.365 1.71649 -2.4592 0
M  V30 2322 H 242.918 0.863573 -1.30277 0
M  V30 2323 H 243.653 3.22142 -0.37349 0
M  V30 2324 H 243.438 3.28101 -2.14691 0
M  V30 2325 H 244.928 3.93356 -1.40218 0
M  V30 2326 N 245.365 1.30045 0.890287 0
M  V30 2327 C 246.295 1.18541 2.01172 0
M  V30 2328 C 247.276 0.0773356 1.69924 0
M  V30 2329 O 248.461 0.25845 1.92473 0
M  V30 2330 C 245.591 0.870941 3.36202 0
M  V30 2331 C 244.545 1.93637 3.81692 0
M  V30 2332 C 243.871 1.475 5.13953 0
M  V30 2333 C 245.171 3.34666 4.00994 0
M  V30 2334 H 246.865 2.12359 2.11054 0
M  V30 2335 H 244.411 1.02238 1.01407 0
M  V30 2336 H 246.364 0.777141 4.14172 0
M  V30 2337 H 245.088 -0.102926 3.26438 0
M  V30 2338 H 243.747 2.01972 3.05946 0
M  V30 2339 H 243.395 0.489551 5.00612 0
M  V30 2340 H 243.095 2.1876 5.4536 0
M  V30 2341 H 244.619 1.39489 5.94454 0
M  V30 2342 H 246.033 3.2912 4.69417 0
M  V30 2343 H 244.43 4.03966 4.43769 0
M  V30 2344 H 245.5 3.76949 3.05021 0
M  V30 2345 N 246.843 -1.10192 1.12674 0
M  V30 2346 C 247.773 -2.18652 0.819362 0
M  V30 2347 C 248.754 -1.68698 -0.217915 0
M  V30 2348 O 249.939 -1.94041 -0.0785581 0
M  V30 2349 C 247.069 -3.46202 0.27594 0
M  V30 2350 C 246.023 -4.09444 1.24656 0
M  V30 2351 C 245.349 -5.31725 0.563258 0
M  V30 2352 C 246.649 -4.52863 2.60217 0
M  V30 2353 H 248.343 -2.44622 1.72628 0
M  V30 2354 H 245.889 -1.17571 0.831451 0
M  V30 2355 H 247.842 -4.21372 0.0486149 0
M  V30 2356 H 246.566 -3.1973 -0.666331 0
M  V30 2357 H 245.225 -3.36284 1.45974 0
M  V30 2358 H 244.873 -5.0153 -0.384235 0
M  V30 2359 H 244.573 -5.74991 1.21075 0
M  V30 2360 H 246.097 -6.09624 0.34503 0
M  V30 2361 H 247.511 -5.19294 2.42913 0
M  V30 2362 H 245.908 -5.06986 3.21068 0
M  V30 2363 H 246.978 -3.65656 3.18471 0
M  V30 2364 N 248.321 -0.919034 -1.28029 0
M  V30 2365 C 249.271 -0.382574 -2.24767 0
M  V30 2366 C 250.255 0.508286 -1.52661 0
M  V30 2367 O 251.447 0.347145 -1.73562 0
M  V30 2368 C 248.576 0.371432 -3.41285 0
M  V30 2369 C 247.662 -0.535449 -4.20706 0
M  V30 2370 N 248.053 -1.65141 -4.78082 0
M  V30 2371 C 246.351 -0.336824 -4.44726 0
M  V30 2372 C 247.052 -2.21475 -5.37888 0
M  V30 2373 N 246.028 -1.50537 -5.22341 0
M  V30 2374 H 249.83 -1.23477 -2.66703 0
M  V30 2375 H 247.344 -0.772299 -1.42861 0
M  V30 2376 H 249.341 0.772638 -4.09678 0
M  V30 2377 H 248.001 1.22066 -3.00882 0
M  V30 2378 H 249.012 -2.03392 -4.7629 0
M  V30 2379 H 245.689 0.47246 -4.14818 0
M  V30 2380 H 247.079 -3.15379 -5.93284 0
M  V30 2381 N 249.799 1.42003 -0.683588 0
M  V30 2382 C 250.747 2.326 0.000815408 0
M  V30 2383 C 251.741 1.50308 0.781278 0
M  V30 2384 O 252.947 1.66322 0.688251 0
M  V30 2385 H 249.322 0.751758 0.0190616 0
M  V30 2386 H 251.293 2.88011 -0.780528 0
M  V30 2387 C 250.042 3.34978 0.93195 0
M  V30 2388 H 249.365 3.98345 0.340817 0
M  V30 2389 H 250.805 4.00936 1.37936 0
M  V30 2390 C 249.264 2.67925 2.04249 0
M  V30 2391 O 249.794 2.51788 3.12995 0
M  V30 2392 N 248 2.2681 1.81675 0
M  V30 2393 H 247.547 2.40135 0.932363 0
M  V30 2394 H 247.505 1.8228 2.56167 0
M  V30 2395 N 251.277 0.427512 1.51691 0
M  V30 2396 C 252.24 -0.377132 2.26076 0
M  V30 2397 C 253.24 -0.958089 1.29141 0
M  V30 2398 O 254.43 -0.83408 1.52934 0
M  V30 2399 C 251.562 -1.53262 3.04506 0
M  V30 2400 H 252.755 0.27464 2.9864 0
M  V30 2401 H 250.308 0.180445 1.55255 0
M  V30 2402 H 251.043 -2.22072 2.36335 0
M  V30 2403 H 250.828 -1.12232 3.75694 0
M  V30 2404 H 252.318 -2.10135 3.60878 0
M  V30 2405 N 252.755 -1.56801 0.158532 0
M  V30 2406 C 253.718 -2.16138 -0.762705 0
M  V30 2407 C 254.718 -1.1061 -1.16713 0
M  V30 2408 O 255.908 -1.36191 -1.08617 0
M  V30 2409 C 253.04 -2.73386 -2.03649 0
M  V30 2410 H 254.233 -2.98886 -0.246354 0
M  V30 2411 H 251.786 -1.56035 -0.0909744 0
M  V30 2412 H 252.521 -1.94335 -2.59623 0
M  V30 2413 H 252.306 -3.50601 -1.75559 0
M  V30 2414 H 253.796 -3.19065 -2.6942 0
M  V30 2415 N 254.233 0.115231 -1.57178 0
M  V30 2416 C 255.479 0.82357 -1.85325 0
M  V30 2417 C 255.812 1.79349 -0.744814 0
M  V30 2418 O 255.087 1.92899 0.249024 0
M  V30 2419 C 255.37 1.57014 -3.24066 0
M  V30 2420 C 255.223 0.619565 -4.45513 0
M  V30 2421 C 256.542 2.52545 -3.60429 0
M  V30 2422 H 253.661 0.297948 -0.674089 0
M  V30 2423 H 256.303 0.0877138 -1.89797 0
M  V30 2424 H 254.453 2.19742 -3.20383 0
M  V30 2425 H 256.125 0.000837639 -4.613 0
M  V30 2426 H 254.368 -0.0686174 -4.33746 0
M  V30 2427 H 255.039 1.17866 -5.3927 0
M  V30 2428 H 257.515 1.9992 -3.64926 0
M  V30 2429 H 256.391 3.01811 -4.58477 0
M  V30 2430 H 256.652 3.35383 -2.88047 0
M  V30 2431 N 255.711 1.52812 0.385517 0
M  V30 2432 C 256.96 1.67249 1.12741 0
M  V30 2433 C 257.273 0.4205 1.91027 0
M  V30 2434 O 258.479 0.445064 2.67827 0
M  V30 2435 C 256.935 2.95583 2.05326 0
M  V30 2436 C 256.543 4.27974 1.32447 0
M  V30 2437 C 258.287 3.19386 2.7963 0
M  V30 2438 C 256.194 5.47412 2.23818 0
M  V30 2439 H 255.124 0.6231 0.424573 0
M  V30 2440 H 257.775 1.79309 0.389924 0
M  V30 2441 H 256.157 2.77277 2.82725 0
M  V30 2442 H 257.331 4.56844 0.602495 0
M  V30 2443 H 255.646 4.10459 0.700885 0
M  V30 2444 H 258.243 4.05801 3.48181 0
M  V30 2445 H 258.586 2.34604 3.43899 0
M  V30 2446 H 259.119 3.38274 2.09322 0
M  V30 2447 H 255.858 6.34612 1.64157 0
M  V30 2448 H 255.378 5.22849 2.93921 0
M  V30 2449 H 257.057 5.81423 2.83824 0
M  V30 2450 N 257.189 -0.644168 1.43834 0
M  V30 2451 C 258.466 -1.40188 1.36406 0
M  V30 2452 C 258.846 -2.11094 0.0163124 0
M  V30 2453 O 258.194 -2.05426 -1.00062 0
M  V30 2454 C 258.404 -2.3791 2.55343 0
M  V30 2455 C 259.752 -3.01637 2.98832 0
M  V30 2456 O 260.776 -2.48237 2.55455 0
M  V30 2457 O 259.635 -3.98477 3.74003 0
M  V30 2458 H 256.729 -0.626773 0.539523 0
M  V30 2459 H 259.275 -0.670317 1.559 0
M  V30 2460 H 258.047 -1.84525 3.4506 0
M  V30 2461 H 257.67 -3.18503 2.37995 0
M  V30 2462 N 258.668 -1.30515 -0.883378 0
M  V30 2463 C 259.578 -1.18959 -2.02203 0
M  V30 2464 C 260.594 -0.109172 -1.73657 0
M  V30 2465 O 261.77 -0.324413 -1.9877 0
M  V30 2466 C 258.835 -0.883871 -3.35244 0
M  V30 2467 C 257.896 -2.04982 -3.77201 0
M  V30 2468 C 257.129 -1.75859 -5.03894 0
M  V30 2469 O 257.352 -0.687276 -5.66244 0
M  V30 2470 O 256.286 -2.61146 -5.42297 0
M  V30 2471 H 260.112 -2.14616 -2.1488 0
M  V30 2472 H 257.697 -1.10124 -1.0096 0
M  V30 2473 H 259.579 -0.728644 -4.15053 0
M  V30 2474 H 258.254 0.0427798 -3.23672 0
M  V30 2475 H 257.161 -2.26038 -2.9809 0
M  V30 2476 H 258.494 -2.95825 -3.93381 0
M  V30 2477 N 260.146 1.09593 -1.13257 0
M  V30 2478 C 261.392 1.82003 -0.89458 0
M  V30 2479 C 261.725 1.85402 0.577906 0
M  V30 2480 O 261 1.32099 1.42759 0
M  V30 2481 C 261.283 3.28237 -1.48096 0
M  V30 2482 C 261.136 3.3312 -3.02244 0
M  V30 2483 C 262.455 4.24871 -1.14774 0
M  V30 2484 H 259.574 0.66077 -0.326424 0
M  V30 2485 H 262.216 1.28389 -1.40058 0
M  V30 2486 H 260.366 3.74024 -1.05062 0
M  V30 2487 H 262.038 2.95748 -3.54021 0
M  V30 2488 H 260.281 2.72756 -3.37323 0
M  V30 2489 H 260.952 4.3613 -3.38371 0
M  V30 2490 H 263.428 3.87361 -1.51957 0
M  V30 2491 H 262.304 5.25532 -1.58452 0
M  V30 2492 H 262.565 4.42058 -0.0611849 0
M  V30 2493 N 261.624 0.925811 1.2754 0
M  V30 2494 C 263.04 0.625767 1.46821 0
M  V30 2495 C 263.24 -0.825506 1.83814 0
M  V30 2496 O 262.296 -1.60356 1.95044 0
M  V30 2497 C 263.609 1.57402 2.56213 0
M  V30 2498 C 265.157 1.58204 2.70075 0
M  V30 2499 C 265.632 2.51721 3.82623 0
M  V30 2500 N 267.123 2.49917 3.89994 0
M  V30 2501 C 267.858 3.18968 4.76494 0
M  V30 2502 N 267.354 3.97391 5.67496 0
M  V30 2503 N 269.147 3.07996 4.70208 0
M  V30 2504 H 261.298 1.86409 1.01811 0
M  V30 2505 H 263.561 0.800213 0.508295 0
M  V30 2506 H 263.267 2.60925 2.35819 0
M  V30 2507 H 263.141 1.31428 3.53563 0
M  V30 2508 H 265.528 0.554124 2.89851 0
M  V30 2509 H 265.609 1.88226 1.73218 0
M  V30 2510 H 265.253 3.54622 3.63601 0
M  V30 2511 H 265.183 2.18996 4.78903 0
M  V30 2512 H 267.674 1.9296 3.24923 0
M  V30 2513 H 267.987 4.4707 6.30356 0
M  V30 2514 H 266.332 4.01495 5.67298 0
M  V30 2515 H 269.523 2.46223 3.9811 0
M  V30 2516 H 269.696 3.6208 5.37403 0
M  V30 2517 N 263.102 -1.41638 0.69111 0
M  V30 2518 C 264.052 -2.28 -0.000107832 0
M  V30 2519 C 265.036 -1.41964 -0.757304 0
M  V30 2520 O 266.228 -1.65274 -0.633532 0
M  V30 2521 C 263.357 -3.30209 -0.938983 0
M  V30 2522 C 262.443 -4.23725 -0.17827 0
M  V30 2523 N 262.834 -4.99017 0.825563 0
M  V30 2524 C 261.132 -4.44071 -0.414392 0
M  V30 2525 C 261.833 -5.67431 1.28052 0
M  V30 2526 N 260.809 -5.40197 0.607304 0
M  V30 2527 H 264.611 -2.83644 0.769617 0
M  V30 2528 H 262.125 -1.53797 0.521562 0
M  V30 2529 H 264.122 -3.90898 -1.44929 0
M  V30 2530 H 262.782 -2.76126 -1.70836 0
M  V30 2531 H 263.793 -5.03671 1.20566 0
M  V30 2532 H 260.47 -4.01004 -1.162 0
M  V30 2533 H 261.86 -6.37801 2.11327 0
M  V30 2534 N 264.58 -0.43555 -1.51462 0
M  V30 2535 C 265.51 0.367376 -2.30592 0
M  V30 2536 C 266.491 1.02263 -1.35928 0
M  V30 2537 O 267.676 1.02661 -1.64847 0
M  V30 2538 C 264.806 1.46983 -3.14664 0
M  V30 2539 C 263.76 0.938161 -4.17591 0
M  V30 2540 C 263.086 2.13622 -4.90173 0
M  V30 2541 C 264.386 -0.0261621 -5.22293 0
M  V30 2542 H 266.08 -0.292969 -2.97963 0
M  V30 2543 H 263.626 -0.14234 -1.43295 0
M  V30 2544 H 265.579 2.03873 -3.688 0
M  V30 2545 H 264.303 2.15843 -2.4511 0
M  V30 2546 H 262.962 0.391481 -3.64504 0
M  V30 2547 H 262.61 2.81098 -4.17124 0
M  V30 2548 H 262.31 1.78688 -5.59772 0
M  V30 2549 H 263.834 2.7107 -5.47132 0
M  V30 2550 H 265.248 0.452384 -5.71512 0
M  V30 2551 H 263.645 -0.287992 -5.99409 0
M  V30 2552 H 264.715 -0.963391 -4.75233 0
M  V30 2553 N 266.058 1.56714 -0.166846 0
M  V30 2554 C 267.021 2.16539 0.751232 0
M  V30 2555 C 268.021 1.11228 1.16125 0
M  V30 2556 O 269.211 1.36765 1.07894 0
M  V30 2557 C 266.343 2.74462 2.02196 0
M  V30 2558 H 267.536 2.99013 0.230499 0
M  V30 2559 H 265.089 1.56081 0.0826982 0
M  V30 2560 H 265.824 1.95709 2.58589 0
M  V30 2561 H 265.609 3.51527 1.73698 0
M  V30 2562 H 267.099 3.20489 2.67725 0
M  V30 2563 N 267.536 -0.106894 1.57237 0
M  V30 2564 C 268.499 -1.11466 2.0027 0
M  V30 2565 C 269.499 -1.33623 0.894519 0
M  V30 2566 O 270.689 -1.29935 1.16028 0
M  V30 2567 C 267.821 -2.46646 2.35327 0
M  V30 2568 H 269.014 -0.744516 2.90512 0
M  V30 2569 H 266.567 -0.351576 1.52295 0
M  V30 2570 H 267.302 -2.88558 1.48003 0
M  V30 2571 H 267.087 -2.31915 3.16161 0
M  V30 2572 H 268.577 -3.19151 2.69318 0
M  V30 2573 N 269.014 -1.53014 -0.377408 0
M  V30 2574 C 269.962 -1.7927 -1.48206 0
M  V30 2575 C 270.956 -0.661195 -1.55963 0
M  V30 2576 O 272.162 -0.843908 -1.58991 0
M  V30 2577 H 268.537 -0.567425 -0.493491 0
M  V30 2578 H 270.508 -2.71753 -1.2326 0
M  V30 2579 C 269.257 -1.98894 -2.85196 0
M  V30 2580 H 268.58 -2.85395 -2.79981 0
M  V30 2581 H 270.02 -2.21249 -3.61698 0
M  V30 2582 C 268.479 -0.764691 -3.28107 0
M  V30 2583 O 269.009 0.0523226 -4.01666 0
M  V30 2584 N 267.215 -0.591493 -2.84517 0
M  V30 2585 H 266.762 -1.25749 -2.24822 0
M  V30 2586 H 266.72 0.226253 -3.13585 0
M  V30 2587 N 270.492 0.636531 -1.44174 0
M  V30 2588 C 271.74 1.39343 -1.46383 0
M  V30 2589 C 272.061 1.94766 -0.0955715 0
M  V30 2590 O 271.331 1.75452 0.871395 0
M  V30 2591 H 269.911 0.517199 -0.538994 0
M  V30 2592 H 272.573 0.74957 -1.7991 0
M  V30 2593 H 271.669 2.22746 -2.18611 0
M  V30 2594 N 271.97 1.30982 0.876444 0
M  V30 2595 C 273.219 1.19658 1.62373 0
M  V30 2596 C 273.532 -0.245636 1.94052 0
M  V30 2597 O 274.738 -0.48049 2.67214 0
M  V30 2598 C 273.194 2.09433 2.92687 0
M  V30 2599 C 272.802 3.58613 2.68516 0
M  V30 2600 C 274.546 2.06893 3.70669 0
M  V30 2601 C 272.453 4.40416 3.94699 0
M  V30 2602 H 271.383 0.444268 0.609214 0
M  V30 2603 H 274.034 1.55791 0.969605 0
M  V30 2604 H 272.416 1.66191 3.59439 0
M  V30 2605 H 273.59 4.10058 2.10212 0
M  V30 2606 H 271.905 3.63063 2.03898 0
M  V30 2607 H 274.502 2.65258 4.64265 0
M  V30 2608 H 274.845 1.05448 4.02724 0
M  V30 2609 H 275.378 2.48301 3.10792 0
M  V30 2610 H 272.117 5.42591 3.67798 0
M  V30 2611 H 271.637 3.93731 4.52477 0
M  V30 2612 H 273.316 4.52294 4.62644 0
M  V30 2613 N 273.449 -1.08991 1.13837 0
M  V30 2614 C 274.396 -2.15748 0.819835 0
M  V30 2615 C 275.366 -1.64636 -0.220026 0
M  V30 2616 O 276.551 -1.90582 -0.0912757 0
M  V30 2617 C 273.691 -3.4382 0.296913 0
M  V30 2618 C 272.804 -4.0881 1.39636 0
M  V30 2619 C 271.939 -5.24655 0.831314 0
M  V30 2620 C 270.978 -5.81575 1.90886 0
M  V30 2621 N 270.115 -6.88774 1.36142 0
M  V30 2622 H 274.955 -2.42338 1.73426 0
M  V30 2623 H 272.492 -1.18935 0.865613 0
M  V30 2624 H 274.45 -4.17193 -0.0244339 0
M  V30 2625 H 273.08 -3.17535 -0.580628 0
M  V30 2626 H 272.132 -3.33258 1.83422 0
M  V30 2627 H 273.444 -4.47141 2.21058 0
M  V30 2628 H 272.598 -6.04942 0.461515 0
M  V30 2629 H 271.337 -4.87698 -0.013932 0
M  V30 2630 H 270.342 -4.99946 2.28767 0
M  V30 2631 H 271.567 -6.20592 2.75758 0
M  V30 2632 H 269.513 -6.53788 0.538254 0
M  V30 2633 H 269.43 -7.25898 2.11208 0
M  V30 2634 H 270.698 -7.72806 1.01933 0
M  V30 2635 N 274.927 -0.932562 -1.27047 0
M  V30 2636 C 276.157 -0.591173 -1.97961 0
M  V30 2637 C 276.565 0.836219 -1.69717 0
M  V30 2638 O 275.908 1.56801 -0.957036 0
M  V30 2639 C 275.97 -0.743082 -3.51736 0
M  V30 2640 C 275.634 -2.1435 -4.03613 0
M  V30 2641 C 276.631 -3.11815 -4.16014 0
M  V30 2642 C 274.316 -2.46175 -4.37839 0
M  V30 2643 C 276.31 -4.39211 -4.61923 0
M  V30 2644 C 273.997 -3.73806 -4.83438 0
M  V30 2645 C 274.995 -4.70137 -4.95439 0
M  V30 2646 O 274.683 -5.95496 -5.40037 0
M  V30 2647 H 274.415 -0.222375 -0.638377 0
M  V30 2648 H 276.969 -1.25317 -1.62742 0
M  V30 2649 H 275.199 -0.0239739 -3.86693 0
M  V30 2650 H 276.888 -0.40603 -4.03864 0
M  V30 2651 H 277.654 -2.88549 -3.89826 0
M  V30 2652 H 273.533 -1.71936 -4.27737 0
M  V30 2653 H 277.077 -5.14404 -4.71205 0
M  V30 2654 H 272.974 -3.96888 -5.09068 0
M  V30 2655 H 273.742 -5.98554 -5.58279 0
M  V30 2656 N 276.405 1.4127 -0.698611 0
M  V30 2657 C 277.816 1.84187 -0.305289 0
M  V30 2658 C 278.167 1.58449 1.15708 0
M  V30 2659 O 277.292 1.05651 1.88856 0
M  V30 2660 C 277.887 3.3435 -0.547314 0
M  V30 2661 C 276.446 3.75826 -0.207878 0
M  V30 2662 C 275.593 2.64647 -0.828099 0
M  V30 2663 H 278.544 1.30778 -0.89904 0
M  V30 2664 H 278.565 3.8001 0.192998 0
M  V30 2665 H 278.077 3.53051 -1.61172 0
M  V30 2666 H 276.178 3.62725 0.852143 0
M  V30 2667 H 276.291 4.74462 -0.665021 0
M  V30 2668 H 274.655 2.53395 -0.257458 0
M  V30 2669 H 275.438 2.86165 -1.89643 0
M  V30 2670 N 277.883 0.443576 1.51229 0
M  V30 2671 C 278.793 -0.370721 2.31652 0
M  V30 2672 C 279.809 -1.02186 1.40833 0
M  V30 2673 O 280.985 -1.01586 1.73903 0
M  V30 2674 C 278.05 -1.45376 3.14749 0
M  V30 2675 C 277.111 -0.822099 4.21355 0
M  V30 2676 C 276.344 -1.85353 5.0048 0
M  V30 2677 O 276.567 -3.07656 4.80316 0
M  V30 2678 O 275.501 -1.4406 5.84406 0
M  V30 2679 H 279.327 0.286002 3.0235 0
M  V30 2680 H 276.912 0.20598 1.47973 0
M  V30 2681 H 278.794 -2.08173 3.66391 0
M  V30 2682 H 277.469 -2.09445 2.46809 0
M  V30 2683 H 276.376 -0.155909 3.73775 0
M  V30 2684 H 277.709 -0.224797 4.91686 0
M  V30 2685 N 279.361 -1.56624 0.175154 0
M  V30 2686 C 280.772 -1.83561 -0.340916 0
M  V30 2687 C 281.123 -1.09511 -1.62794 0
M  V30 2688 O 280.248 -0.349389 -2.13561 0
M  V30 2689 C 280.843 -3.32979 -0.625313 0
M  V30 2690 C 279.402 -3.60399 -1.08581 0
M  V30 2691 C 278.549 -2.77024 -0.123722 0
M  V30 2692 H 281.5 -1.53593 0.399344 0
M  V30 2693 H 281.521 -3.50666 -1.47694 0
M  V30 2694 H 281.033 -3.86847 0.311575 0
M  V30 2695 H 279.134 -3.11945 -2.03767 0
M  V30 2696 H 279.247 -4.68711 -0.992317 0
M  V30 2697 H 277.611 -2.46993 -0.621821 0
M  V30 2698 H 278.394 -3.33674 0.807256 0
M  V30 2699 N 280.839 0.0985539 -1.57292 0
M  V30 2700 C 281.749 1.13824 -2.05137 0
M  V30 2701 C 282.765 1.44076 -0.975604 0
M  V30 2702 O 283.941 1.54786 -1.28853 0
M  V30 2703 C 281.006 2.43969 -2.46333 0
M  V30 2704 C 280.067 2.2093 -3.68087 0
M  V30 2705 C 279.3 3.44869 -4.0731 0
M  V30 2706 O 279.523 4.52972 -3.46659 0
M  V30 2707 O 278.457 3.34661 -5.00285 0
M  V30 2708 H 282.283 0.761881 -2.93988 0
M  V30 2709 H 279.868 0.310818 -1.46131 0
M  V30 2710 H 281.75 3.20609 -2.73473 0
M  V30 2711 H 280.425 2.81038 -1.60621 0
M  V30 2712 H 279.332 1.42081 -3.46069 0
M  V30 2713 H 280.665 1.88755 -4.54568 0
M  V30 2714 N 282.317 1.53212 0.369288 0
M  V30 2715 C 283.247 1.82365 1.45826 0
M  V30 2716 C 284.228 0.676907 1.56051 0
M  V30 2717 O 285.413 0.926401 1.70679 0
M  V30 2718 C 282.543 2.01023 2.83208 0
M  V30 2719 C 281.497 3.1678 2.8781 0
M  V30 2720 C 280.823 3.20724 4.27832 0
M  V30 2721 C 282.123 4.55447 2.55667 0
M  V30 2722 H 283.817 2.73559 1.21678 0
M  V30 2723 H 281.363 1.3163 0.583911 0
M  V30 2724 H 283.316 2.20001 3.59413 0
M  V30 2725 H 282.04 1.06536 3.08736 0
M  V30 2726 H 280.699 2.97616 2.14056 0
M  V30 2727 H 280.347 2.23882 4.50429 0
M  V30 2728 H 280.047 3.98496 4.31827 0
M  V30 2729 H 281.571 3.41881 5.05915 0
M  V30 2730 H 282.985 4.74611 3.21586 0
M  V30 2731 H 281.382 5.35432 2.70984 0
M  V30 2732 H 282.452 4.60812 1.5093 0
M  V30 2733 N 283.795 -0.628877 1.44509 0
M  V30 2734 C 285.072 -1.38733 1.37886 0
M  V30 2735 C 285.452 -2.11065 0.0387008 0
M  V30 2736 O 284.8 -2.06476 -0.97878 0
M  V30 2737 C 285.01 -2.35188 2.57852 0
M  V30 2738 C 286.358 -2.9845 3.02014 0
M  V30 2739 O 287.382 -2.45513 2.58073 0
M  V30 2740 O 286.241 -3.94487 3.78209 0
M  V30 2741 H 283.335 -0.621015 0.54614 0
M  V30 2742 H 285.881 -0.653744 1.56602 0
M  V30 2743 H 284.653 -1.80855 3.46998 0
M  V30 2744 H 284.276 -3.1596 2.4136 0
M  V30 2745 N 285.273 -1.31445 -0.869486 0
M  V30 2746 C 286.522 -1.20517 -1.61736 0
M  V30 2747 C 286.835 0.235341 -1.94179 0
M  V30 2748 O 288.041 0.466312 -2.67465 0
M  V30 2749 C 286.497 -2.10982 -2.91573 0
M  V30 2750 C 286.105 -3.60032 -2.66611 0
M  V30 2751 C 287.849 -2.08856 -3.69567 0
M  V30 2752 C 285.756 -4.42503 -3.92358 0
M  V30 2753 H 284.686 -0.447493 -0.606849 0
M  V30 2754 H 287.337 -1.56303 -0.96133 0
M  V30 2755 H 285.719 -1.68095 -3.58553 0
M  V30 2756 H 286.893 -4.11167 -2.08035 0
M  V30 2757 H 285.208 -3.64139 -2.0197 0
M  V30 2758 H 287.805 -2.67716 -4.62852 0
M  V30 2759 H 288.148 -1.07582 -4.02159 0
M  V30 2760 H 288.681 -2.49945 -3.09471 0
M  V30 2761 H 285.42 -5.44533 -3.64916 0
M  V30 2762 H 284.94 -3.96125 -4.50383 0
M  V30 2763 H 286.619 -4.54741 -4.60238 0
M  V30 2764 N 286.751 1.08385 -1.14413 0
M  V30 2765 C 288.028 1.77429 -0.823297 0
M  V30 2766 C 288.408 1.9974 0.683163 0
M  V30 2767 O 287.756 1.60739 1.62405 0
M  V30 2768 C 287.966 3.09004 -1.62227 0
M  V30 2769 C 289.314 3.83532 -1.82177 0
M  V30 2770 O 290.338 3.18786 -1.58915 0
M  V30 2771 O 289.197 4.99792 -2.21067 0
M  V30 2772 H 286.291 0.769999 -0.301712 0
M  V30 2773 H 288.837 1.14846 -1.24934 0
M  V30 2774 H 287.609 2.88316 -2.64555 0
M  V30 2775 H 287.232 3.79316 -1.19187 0
M  V30 2776 N 288.23 0.939286 1.26551 0
M  V30 2777 C 289.163 0.391702 2.24813 0
M  V30 2778 C 290.141 -0.518421 1.54114 0
M  V30 2779 O 291.325 -0.456299 1.82894 0
M  V30 2780 C 288.452 -0.437382 3.35864 0
M  V30 2781 C 287.498 0.410946 4.24516 0
M  V30 2782 S 288.331 1.83372 5.03125 0
M  V30 2783 C 289.487 1.01264 6.17654 0
M  V30 2784 H 289.72 1.22448 2.70913 0
M  V30 2785 H 287.253 0.742269 1.35387 0
M  V30 2786 H 289.211 -0.909837 4.0029 0
M  V30 2787 H 287.872 -1.24482 2.8838 0
M  V30 2788 H 287.065 -0.224191 5.03501 0
M  V30 2789 H 286.667 0.818014 3.64945 0
M  V30 2790 H 288.959 0.254023 6.77024 0
M  V30 2791 H 289.902 1.77589 6.85469 0
M  V30 2792 H 290.31 0.549532 5.61819 0
M  V30 2793 N 289.708 -1.40897 0.706093 0
M  V30 2794 C 290.638 -2.33418 0.0620085 0
M  V30 2795 C 291.619 -1.52385 -0.755827 0
M  V30 2796 O 292.804 -1.80886 -0.706674 0
M  V30 2797 C 289.934 -3.36293 -0.867445 0
M  V30 2798 C 288.888 -4.27716 -0.155932 0
M  V30 2799 C 288.214 -5.2105 -1.20046 0
M  V30 2800 C 289.514 -5.12944 0.984149 0
M  V30 2801 H 291.208 -2.87527 0.83477 0
M  V30 2802 H 288.754 -1.38249 0.402875 0
M  V30 2803 H 290.707 -3.99949 -1.32735 0
M  V30 2804 H 289.431 -2.80556 -1.67199 0
M  V30 2805 H 288.09 -3.65498 0.284047 0
M  V30 2806 H 287.738 -4.61624 -1.99781 0
M  V30 2807 H 287.438 -5.83056 -0.729328 0
M  V30 2808 H 288.962 -5.87584 -1.66066 0
M  V30 2809 H 290.376 -5.70109 0.604048 0
M  V30 2810 H 288.773 -5.83945 1.38304 0
M  V30 2811 H 289.843 -4.49485 1.81911 0
M  V30 2812 N 291.186 -0.45159 -1.50991 0
M  V30 2813 C 292.602 -0.104647 -1.59257 0
M  V30 2814 C 292.802 1.38728 -1.4614 0
M  V30 2815 O 291.858 2.15866 -1.30989 0
M  V30 2816 C 293.171 -0.637468 -2.93865 0
M  V30 2817 C 294.719 -0.599166 -3.07212 0
M  V30 2818 C 295.194 -1.1092 -4.44366 0
M  V30 2819 N 296.685 -1.06778 -4.50725 0
M  V30 2820 C 297.42 -1.43314 -5.55201 0
M  V30 2821 N 296.916 -1.87204 -6.67028 0
M  V30 2822 N 298.709 -1.3504 -5.45638 0
M  V30 2823 H 290.86 -1.42214 -1.57762 0
M  V30 2824 H 293.123 -0.586921 -0.744465 0
M  V30 2825 H 292.829 -1.68187 -3.08879 0
M  V30 2826 H 292.703 -0.0702139 -3.77135 0
M  V30 2827 H 295.09 0.436277 -2.91857 0
M  V30 2828 H 295.171 -1.20299 -2.25747 0
M  V30 2829 H 294.815 -2.14318 -4.60467 0
M  V30 2830 H 294.745 -0.481773 -5.24392 0
M  V30 2831 H 297.236 -0.745643 -3.70471 0
M  V30 2832 H 297.549 -2.13282 -7.42786 0
M  V30 2833 H 295.894 -1.91142 -6.68199 0
M  V30 2834 H 299.085 -1.00607 -4.57161 0
M  V30 2835 H 299.258 -1.63841 -6.26945 0
M  V30 2836 N 292.664 1.56529 -0.183458 0
M  V30 2837 C 293.627 2.17324 0.728223 0
M  V30 2838 C 294.627 1.12453 1.14939 0
M  V30 2839 O 295.817 1.37902 1.06437 0
M  V30 2840 C 292.949 2.76591 1.99274 0
M  V30 2841 H 294.142 2.99241 0.198772 0
M  V30 2842 H 291.695 1.5616 0.0661391 0
M  V30 2843 H 292.43 1.98441 2.56499 0
M  V30 2844 H 292.215 3.5335 1.69959 0
M  V30 2845 H 293.705 3.23311 2.6431 0
M  V30 2846 N 294.142 -0.090211 1.57342 0
M  V30 2847 C 295.372 -0.805055 1.90269 0
M  V30 2848 C 295.78 -1.72561 0.775842 0
M  V30 2849 O 295.123 -1.81839 -0.260843 0
M  V30 2850 C 295.185 -1.66734 3.18497 0
M  V30 2851 C 294.849 -0.918092 4.47683 0
M  V30 2852 C 295.846 -0.245674 5.19319 0
M  V30 2853 C 293.531 -0.890724 4.94339 0
M  V30 2854 C 295.525 0.444088 6.35851 0
M  V30 2855 C 293.212 -0.197179 6.10782 0
M  V30 2856 C 294.21 0.469044 6.81388 0
M  V30 2857 O 293.898 1.15146 7.95611 0
M  V30 2858 H 293.63 -0.235143 0.633785 0
M  V30 2859 H 296.184 -0.0703805 2.05279 0
M  V30 2860 H 294.414 -2.44437 2.99646 0
M  V30 2861 H 296.103 -2.25919 3.37217 0
M  V30 2862 H 296.869 -0.258246 4.84312 0
M  V30 2863 H 292.748 -1.39873 4.39268 0
M  V30 2864 H 296.292 0.964667 6.90898 0
M  V30 2865 H 292.189 -0.18247 6.45242 0
M  V30 2866 H 292.957 1.05885 8.11622 0
M  V30 2867 N 295.62 -1.53406 -0.361157 0
M  V30 2868 C 296.567 -1.80156 -1.44265 0
M  V30 2869 C 297.537 -0.646183 -1.53015 0
M  V30 2870 O 298.722 -0.888818 -1.68833 0
M  V30 2871 C 295.862 -2.00116 -2.81154 0
M  V30 2872 C 294.975 -3.27833 -2.81335 0
M  V30 2873 C 294.11 -3.37957 -4.09828 0
M  V30 2874 C 293.149 -4.59689 -4.04168 0
M  V30 2875 N 292.286 -4.66942 -5.24318 0
M  V30 2876 H 297.126 -2.72438 -1.20754 0
M  V30 2877 H 294.663 -1.34954 -0.585296 0
M  V30 2878 H 296.621 -2.09677 -3.60682 0
M  V30 2879 H 295.251 -1.11167 -3.03054 0
M  V30 2880 H 294.303 -3.27204 -1.94014 0
M  V30 2881 H 295.615 -4.17442 -2.73027 0
M  V30 2882 H 294.769 -3.46853 -4.97773 0
M  V30 2883 H 293.508 -2.46372 -4.20894 0
M  V30 2884 H 292.513 -4.50889 -3.14609 0
M  V30 2885 H 293.738 -5.5262 -3.947 0
M  V30 2886 H 291.684 -3.7826 -5.35962 0
M  V30 2887 H 291.601 -5.50462 -5.18197 0
M  V30 2888 H 292.869 -4.80127 -6.14084 0
M  V30 2889 N 297.098 0.621204 -1.44841 0
M  V30 2890 C 298.375 1.38 -1.38619 0
M  V30 2891 C 298.755 2.11041 -0.0498935 0
M  V30 2892 O 298.103 2.06992 0.967816 0
M  V30 2893 C 298.313 2.33817 -2.59096 0
M  V30 2894 C 299.661 2.96844 -3.03593 0
M  V30 2895 O 300.685 2.44141 -2.59371 0
M  V30 2896 O 299.544 3.92476 -3.80296 0
M  V30 2897 H 296.638 0.61811 -0.549426 0
M  V30 2898 H 299.184 0.645429 -1.56947 0
M  V30 2899 H 297.956 1.79012 -3.47952 0
M  V30 2900 H 297.579 3.14676 -2.43032 0
M  V30 2901 N 298.576 1.31904 0.862503 0
M  V30 2902 C 299.824 1.21776 1.61292 0
M  V30 2903 C 300.145 -0.222413 1.93727 0
M  V30 2904 O 299.415 -1.1451 1.58947 0
M  V30 2905 H 297.995 0.447717 0.597962 0
M  V30 2906 H 300.657 1.65326 1.03215 0
M  V30 2907 H 299.753 1.7948 2.5533 0
M  V30 2908 N 300.054 -1.07777 1.14986 0
M  V30 2909 C 301.3 -1.80557 0.923422 0
M  V30 2910 C 301.633 -1.86298 -0.548337 0
M  V30 2911 O 300.908 -1.34354 -1.40639 0
M  V30 2912 C 301.191 -3.25839 1.53299 0
M  V30 2913 C 301.044 -3.28269 3.07505 0
M  V30 2914 C 302.363 -4.22991 1.21518 0
M  V30 2915 H 299.482 -0.655493 0.336894 0
M  V30 2916 H 302.124 -1.26144 1.42083 0
M  V30 2917 H 300.274 -3.72306 1.10999 0
M  V30 2918 H 301.946 -2.90079 3.58681 0
M  V30 2919 H 300.189 -2.67355 3.4162 0
M  V30 2920 H 300.86 -4.30691 3.45266 0
M  V30 2921 H 303.336 -3.84894 1.581 0
M  V30 2922 H 302.212 -5.22945 1.66793 0
M  V30 2923 H 302.473 -4.41904 0.131505 0
M  V30 2924 N 301.532 -0.945985 -1.26051 0
M  V30 2925 C 302.778 -0.597002 -1.93814 0
M  V30 2926 C 303.111 0.862484 -1.73997 0
M  V30 2927 O 302.386 1.61769 -1.07986 0
M  V30 2928 C 302.669 -0.945937 -3.47454 0
M  V30 2929 C 302.522 -2.46052 -3.76535 0
M  V30 2930 C 303.841 -0.464785 -4.37639 0
M  V30 2931 H 300.96 -0.218366 -0.703907 0
M  V30 2932 H 303.602 -1.18107 -1.48831 0
M  V30 2933 H 301.752 -0.448902 -3.85898 0
M  V30 2934 H 303.424 -3.03065 -3.47778 0
M  V30 2935 H 301.667 -2.90194 -3.22444 0
M  V30 2936 H 302.338 -2.65517 -4.83947 0
M  V30 2937 H 304.814 -0.891016 -4.06448 0
M  V30 2938 H 303.69 -0.737712 -5.4392 0
M  V30 2939 H 303.951 0.635274 -4.37512 0
M  V30 2940 N 303.011 1.40521 -0.713556 0
M  V30 2941 C 304.236 2.05759 -0.26035 0
M  V30 2942 C 304.661 1.53403 1.08854 0
M  V30 2943 O 304.019 0.668535 1.68524 0
M  V30 2944 C 304.067 3.59745 -0.248122 0
M  V30 2945 O 303.171 4.05123 0.77131 0
M  V30 2946 H 302.512 0.652564 -0.122703 0
M  V30 2947 H 305.042 1.79958 -0.973467 0
M  V30 2948 H 305.052 4.07911 -0.0851129 0
M  V30 2949 H 303.727 3.97218 -1.2325 0
M  V30 2950 H 302.304 3.68422 0.57619 0
M  V30 2951 N 304.489 0.459591 1.5075 0
M  V30 2952 C 305.905 0.113092 1.59199 0
M  V30 2953 C 306.105 -1.37951 1.46874 0
M  V30 2954 O 305.161 -2.15168 1.32132 0
M  V30 2955 C 306.474 0.653043 2.93523 0
M  V30 2956 C 308.022 0.615449 3.0689 0
M  V30 2957 C 308.497 1.13275 4.43771 0
M  V30 2958 N 309.988 1.09167 4.50152 0
M  V30 2959 C 310.723 1.46256 5.54434 0
M  V30 2960 N 310.219 1.90739 6.66026 0
M  V30 2961 N 312.012 1.37932 5.44914 0
M  V30 2962 H 304.163 1.43049 1.57005 0
M  V30 2963 H 306.426 0.590861 0.741341 0
M  V30 2964 H 306.132 1.69822 3.07983 0
M  V30 2965 H 306.006 0.0902132 3.77092 0
M  V30 2966 H 308.393 -0.420793 2.92084 0
M  V30 2967 H 308.474 1.21495 2.25106 0
M  V30 2968 H 308.118 2.16757 4.59324 0
M  V30 2969 H 308.048 0.509576 5.24129 0
M  V30 2970 H 310.539 0.76528 3.7007 0
M  V30 2971 H 310.852 2.17218 7.41644 0
M  V30 2972 H 309.197 1.94683 6.67176 0
M  V30 2973 H 312.388 1.0303 4.56621 0
M  V30 2974 H 312.561 1.67164 6.26067 0
M  V30 2975 N 305.967 -1.56429 0.191757 0
M  V30 2976 C 306.897 -2.21937 -0.725696 0
M  V30 2977 C 307.878 -1.1814 -1.2238 0
M  V30 2978 O 309.063 -1.46636 -1.27325 0
M  V30 2979 C 306.193 -2.87611 -1.94672 0
M  V30 2980 C 305.147 -3.97623 -1.58366 0
M  V30 2981 C 304.473 -4.50446 -2.88102 0
M  V30 2982 C 305.773 -5.16197 -0.796133 0
M  V30 2983 H 307.467 -2.98861 -0.179606 0
M  V30 2984 H 305.013 -1.43749 -0.0849464 0
M  V30 2985 H 306.966 -3.3212 -2.59373 0
M  V30 2986 H 305.69 -2.08087 -2.51728 0
M  V30 2987 H 304.349 -3.53801 -0.960247 0
M  V30 2988 H 303.997 -3.67688 -3.43241 0
M  V30 2989 H 303.697 -5.24675 -2.64556 0
M  V30 2990 H 305.221 -4.97654 -3.53798 0
M  V30 2991 H 306.635 -5.57271 -1.34618 0
M  V30 2992 H 305.032 -5.96471 -0.658928 0
M  V30 2993 H 306.102 -4.84473 0.203478 0
M  V30 2994 N 307.445 0.0818655 -1.57387 0
M  V30 2995 C 308.673 0.796108 -1.9097 0
M  V30 2996 C 309.088 1.71626 -0.786757 0
M  V30 2997 O 308.445 1.80908 0.240513 0
M  V30 2998 C 308.496 1.59829 -3.24248 0
M  V30 2999 O 308.217 0.715131 -4.32224 0
M  V30 3000 C 309.718 2.41442 -3.7178 0
M  V30 3001 H 306.938 0.22691 -0.631469 0
M  V30 3002 H 309.482 0.0551439 -2.04426 0
M  V30 3003 H 307.637 2.29163 -3.12351 0
M  V30 3004 H 308.051 1.27205 -5.08841 0
M  V30 3005 H 309.525 2.932 -4.67694 0
M  V30 3006 H 310.002 3.2051 -3.00283 0
M  V30 3007 H 310.608 1.77283 -3.86589 0
M  V30 3008 N 308.923 1.53595 0.353017 0
M  V30 3009 C 310.171 1.70049 1.09215 0
M  V30 3010 C 310.492 0.461406 1.89463 0
M  V30 3011 O 309.762 -0.524633 1.88744 0
M  V30 3012 H 308.342 0.626912 0.40619 0
M  V30 3013 H 311.004 1.90822 0.396585 0
M  V30 3014 H 310.1 2.56718 1.77488 0
M  V30 3015 N 310.401 -0.613514 1.45168 0
M  V30 3016 C 311.649 -1.36997 1.48581 0
M  V30 3017 C 311.97 -1.94589 0.126545 0
M  V30 3018 O 311.24 -1.76816 -0.843372 0
M  V30 3019 H 309.82 -0.508558 0.547154 0
M  V30 3020 H 312.482 -0.720853 1.81079 0
M  V30 3021 H 311.578 -2.1924 2.22127 0
M  V30 3022 N 311.879 -1.3236 -0.855495 0
M  V30 3023 C 312.809 -1.23833 -1.97958 0
M  V30 3024 C 313.79 -0.122361 -1.69659 0
M  V30 3025 O 314.975 -0.30939 -1.9172 0
M  V30 3026 C 312.105 -0.959772 -3.33775 0
M  V30 3027 C 311.059 -2.03689 -3.76424 0
M  V30 3028 C 310.385 -1.61075 -5.09862 0
M  V30 3029 C 311.685 -3.4518 -3.9198 0
M  V30 3030 H 313.379 -2.1788 -2.0535 0
M  V30 3031 H 310.925 -1.04891 -0.986605 0
M  V30 3032 H 312.878 -0.886678 -4.11966 0
M  V30 3033 H 311.602 0.0163404 -3.26596 0
M  V30 3034 H 310.261 -2.10012 -3.00484 0
M  V30 3035 H 309.909 -0.622107 -4.99138 0
M  V30 3036 H 309.609 -2.33143 -5.39368 0
M  V30 3037 H 311.133 -1.55201 -5.90546 0
M  V30 3038 H 312.547 -3.4145 -4.60526 0
M  V30 3039 H 310.944 -4.1559 -4.32903 0
M  V30 3040 H 312.014 -3.84903 -2.94919 0
M  V30 3041 N 313.357 1.07166 -1.15556 0
M  V30 3042 C 314.32 2.12589 -0.856644 0
M  V30 3043 C 315.32 1.6015 0.14444 0
M  V30 3044 O 316.51 1.7399 -0.0854163 0
M  V30 3045 C 313.642 3.39753 -0.279405 0
M  V30 3046 H 314.835 2.40539 -1.79112 0
M  V30 3047 H 312.388 1.23086 -0.963298 0
M  V30 3048 H 313.123 3.17447 0.663174 0
M  V30 3049 H 312.908 3.79117 -1.00063 0
M  V30 3050 H 314.398 4.17507 -0.0879113 0
M  V30 3051 N 314.835 0.952656 1.25548 0
M  V30 3052 C 316.083 0.605176 1.92826 0
M  V30 3053 C 316.404 -0.860261 1.74999 0
M  V30 3054 O 315.674 -1.6125 1.11244 0
M  V30 3055 H 314.254 0.220832 0.713612 0
M  V30 3056 H 316.916 1.21047 1.52754 0
M  V30 3057 H 316.012 0.832798 3.00784 0
M  V30 3058 N 316.313 -1.40141 0.720998 0
M  V30 3059 C 317.246 -2.2819 0.020916 0
M  V30 3060 C 318.224 -1.43633 -0.762129 0
M  V30 3061 O 319.408 -1.7304 -0.747633 0
M  V30 3062 C 316.535 -3.24281 -0.977715 0
M  V30 3063 C 315.581 -4.25548 -0.284836 0
M  V30 3064 S 316.414 -5.26247 0.991169 0
M  V30 3065 C 317.57 -6.259 -0.0052214 0
M  V30 3066 H 317.803 -2.87218 0.767649 0
M  V30 3067 H 315.336 -1.45656 0.512233 0
M  V30 3068 H 317.294 -3.80167 -1.54865 0
M  V30 3069 H 315.955 -2.643 -1.69719 0
M  V30 3070 H 315.148 -4.93154 -1.03996 0
M  V30 3071 H 314.75 -3.73389 0.213684 0
M  V30 3072 H 317.042 -6.72143 -0.850279 0
M  V30 3073 H 317.985 -7.05224 0.637599 0
M  V30 3074 H 318.393 -5.63277 -0.371366 0
M  V30 3075 N 317.792 -0.46758 -1.50504 0
M  V30 3076 C 318.755 0.317059 -2.26996 0
M  V30 3077 C 319.755 0.923513 -1.31635 0
M  V30 3078 O 320.945 0.793239 -1.55091 0
M  V30 3079 C 318.077 1.45134 -3.08462 0
M  V30 3080 H 319.27 -0.353723 -2.97807 0
M  V30 3081 H 316.823 -0.221545 -1.54722 0
M  V30 3082 H 317.558 2.15728 -2.4214 0
M  V30 3083 H 317.343 1.02232 -3.78538 0
M  V30 3084 H 318.833 2.00493 -3.66323 0
M  V30 3085 N 319.27 1.56325 -0.20005 0
M  V30 3086 C 320.217 2.1932 0.718833 0
M  V30 3087 C 321.187 1.14198 1.20615 0
M  V30 3088 O 322.372 1.42469 1.26914 0
M  V30 3089 C 319.512 2.86041 1.93066 0
M  V30 3090 C 318.625 4.05702 1.48425 0
M  V30 3091 C 317.76 4.60266 2.65196 0
M  V30 3092 C 316.799 5.72273 2.17185 0
M  V30 3093 N 315.936 6.21221 3.27152 0
M  V30 3094 H 320.776 2.97486 0.17489 0
M  V30 3095 H 318.313 1.46911 0.0745794 0
M  V30 3096 H 320.271 3.22897 2.64184 0
M  V30 3097 H 318.901 2.1043 2.44783 0
M  V30 3098 H 317.953 3.74475 0.668755 0
M  V30 3099 H 319.265 4.86699 1.09204 0
M  V30 3100 H 318.419 4.99453 3.4443 0
M  V30 3101 H 317.158 3.78386 3.07693 0
M  V30 3102 H 316.163 5.3261 1.36407 0
M  V30 3103 H 317.388 6.55974 1.75713 0
M  V30 3104 H 315.334 5.42263 3.69171 0
M  V30 3105 H 315.251 6.97284 2.92116 0
M  V30 3106 H 316.519 6.65063 4.06585 0
M  V30 3107 N 320.748 -0.0735177 1.57428 0
M  V30 3108 C 321.973 -0.789787 1.91774 0
M  V30 3109 C 322.398 -1.70413 0.796306 0
M  V30 3110 O 321.756 -1.79555 -0.250961 0
M  V30 3111 C 321.804 -1.5609 3.25067 0
M  V30 3112 O 320.908 -2.67144 3.14178 0
M  V30 3113 H 320.249 -0.215582 0.628029 0
M  V30 3114 H 322.779 -0.0422781 2.04556 0
M  V30 3115 H 322.789 -1.94052 3.58898 0
M  V30 3116 H 321.464 -0.890015 4.06265 0
M  V30 3117 H 320.041 -2.32052 2.91901 0
M  V30 3118 N 322.226 -1.5378 -0.344866 0
M  V30 3119 C 323.642 -1.44015 -0.687888 0
M  V30 3120 C 323.842 -0.595834 -1.92489 0
M  V30 3121 O 322.898 -0.0863064 -2.52352 0
M  V30 3122 C 324.211 -2.87481 -0.881758 0
M  V30 3123 C 325.759 -2.97247 -0.980459 0
M  V30 3124 C 326.234 -4.41819 -1.20665 0
M  V30 3125 N 327.725 -4.45339 -1.27389 0
M  V30 3126 C 328.46 -5.54333 -1.46639 0
M  V30 3127 N 327.956 -6.73335 -1.63071 0
M  V30 3128 N 329.749 -5.41944 -1.49176 0
M  V30 3129 H 321.9 -2.07169 0.468475 0
M  V30 3130 H 324.163 -0.93643 0.147655 0
M  V30 3131 H 323.869 -3.51672 -0.0443444 0
M  V30 3132 H 323.743 -3.32352 -1.78388 0
M  V30 3133 H 326.13 -2.33197 -1.8084 0
M  V30 3134 H 326.211 -2.5574 -0.0552713 0
M  V30 3135 H 325.855 -5.06449 -0.383652 0
M  V30 3136 H 325.785 -4.80917 -2.14539 0
M  V30 3137 H 328.276 -3.59585 -1.1622 0
M  V30 3138 H 328.589 -7.52165 -1.77391 0
M  V30 3139 H 326.934 -6.76282 -1.60209 0
M  V30 3140 H 330.125 -4.47932 -1.3592 0
M  V30 3141 H 330.298 -6.26946 -1.63837 0
M  V30 3142 N 323.704 0.605807 -1.45491 0
M  V30 3143 C 324.651 1.7164 -1.54299 0
M  V30 3144 C 325.621 1.61486 -0.388761 0
M  V30 3145 O 326.806 1.81039 -0.602445 0
M  V30 3146 C 323.946 3.09953 -1.51734 0
M  V30 3147 C 323.059 3.309 -2.77721 0
M  V30 3148 C 322.194 4.59329 -2.66816 0
M  V30 3149 C 321.233 4.7354 -3.87848 0
M  V30 3150 N 320.37 5.9327 -3.75467 0
M  V30 3151 H 325.21 1.63449 -2.49176 0
M  V30 3152 H 322.747 0.796957 -1.23641 0
M  V30 3153 H 324.705 3.89977 -1.48235 0
M  V30 3154 H 323.335 3.17098 -0.604068 0
M  V30 3155 H 322.387 2.44639 -2.913 0
M  V30 3156 H 323.699 3.37274 -3.67488 0
M  V30 3157 H 322.853 5.4755 -2.61292 0
M  V30 3158 H 321.592 4.55355 -1.74651 0
M  V30 3159 H 320.597 3.83741 -3.93729 0
M  V30 3160 H 321.822 4.79309 -4.81082 0
M  V30 3161 H 319.768 5.90338 -2.86072 0
M  V30 3162 H 319.685 6.00811 -4.5887 0
M  V30 3163 H 320.953 6.83984 -3.73879 0
M  V30 3164 N 325.182 1.32811 0.848464 0
M  V30 3165 C 326.428 1.23907 1.60546 0
M  V30 3166 C 326.761 -0.197161 1.93197 0
M  V30 3167 O 326.036 -1.13596 1.5788 0
M  V30 3168 C 326.319 2.10489 2.92175 0
M  V30 3169 C 326.172 3.62522 2.66266 0
M  V30 3170 C 327.491 1.97075 3.93509 0
M  V30 3171 H 324.61 0.451459 0.58254 0
M  V30 3172 H 327.252 1.62818 0.979296 0
M  V30 3173 H 325.402 1.77434 3.45614 0
M  V30 3174 H 327.074 4.05821 2.19334 0
M  V30 3175 H 325.317 3.84879 2.00126 0
M  V30 3176 H 325.988 4.18437 3.6002 0
M  V30 3177 H 328.464 2.26045 3.49346 0
M  V30 3178 H 327.34 2.59923 4.83457 0
M  V30 3179 H 327.601 0.940186 4.31987 0
M  V30 3180 N 326.66 -1.06551 1.16123 0
M  V30 3181 C 327.937 -1.76097 0.85142 0
M  V30 3182 C 328.317 -2.00802 -0.6513 0
M  V30 3183 O 327.665 -1.63302 -1.59827 0
M  V30 3184 C 327.875 -3.06384 1.67122 0
M  V30 3185 C 329.223 -3.80585 1.88255 0
M  V30 3186 O 330.247 -3.16218 1.63966 0
M  V30 3187 O 329.106 -4.96212 2.2899 0
M  V30 3188 H 326.2 -0.765102 0.313923 0
M  V30 3189 H 328.746 -1.12844 1.26745 0
M  V30 3190 H 327.518 -2.84071 2.69108 0
M  V30 3191 H 327.141 -3.77371 1.25206 0
M  V30 3192 N 328.138 -0.959301 -1.25041 0
M  V30 3193 C 329.384 -0.617525 -1.9317 0
M  V30 3194 C 329.717 0.843981 -1.74902 0
M  V30 3195 O 328.992 1.60615 -1.09696 0
M  V30 3196 C 329.275 -0.982736 -3.46431 0
M  V30 3197 C 329.128 -2.50032 -3.73904 0
M  V30 3198 C 330.447 -0.511176 -4.37121 0
M  V30 3199 H 327.566 -0.22582 -0.701552 0
M  V30 3200 H 330.208 -1.19679 -1.4757 0
M  V30 3201 H 328.358 -0.489806 -3.854 0
M  V30 3202 H 330.03 -3.06737 -3.44544 0
M  V30 3203 H 328.273 -2.93598 -3.19348 0
M  V30 3204 H 328.944 -2.70635 -4.81103 0
M  V30 3205 H 331.42 -0.934075 -4.0548 0
M  V30 3206 H 330.296 -0.795361 -5.43107 0
M  V30 3207 H 330.557 0.588834 -4.38161 0
M  V30 3208 N 329.616 1.39756 -0.72842 0
M  V30 3209 C 330.865 1.99879 -0.270407 0
M  V30 3210 C 331.178 1.58449 1.14688 0
M  V30 3211 O 332.384 2.11362 1.70407 0
M  V30 3212 C 330.84 3.57292 -0.43252 0
M  V30 3213 C 330.448 4.07688 -1.85727 0
M  V30 3214 C 332.192 4.24485 -0.0359507 0
M  V30 3215 C 330.099 5.5765 -1.96928 0
M  V30 3216 H 329.029 0.747689 -0.0973472 0
M  V30 3217 H 331.68 1.59837 -0.901355 0
M  V30 3218 H 330.062 3.95097 0.267219 0
M  V30 3219 H 331.236 3.81231 -2.58843 0
M  V30 3220 H 329.551 3.53135 -2.20646 0
M  V30 3221 H 332.148 5.34609 -0.0987484 0
M  V30 3222 H 332.491 4.03915 1.00787 0
M  V30 3223 H 333.024 3.9183 -0.686604 0
M  V30 3224 H 329.763 5.8309 -2.99476 0
M  V30 3225 H 329.283 5.8593 -1.28241 0
M  V30 3226 H 330.962 6.22957 -1.74737 0
M  V30 3227 N 331.094 0.475555 1.50254 0
M  V30 3228 C 332.026 -0.352649 2.26471 0
M  V30 3229 C 333.039 -0.953165 1.3198 0
M  V30 3230 O 334.228 -0.840815 1.57457 0
M  V30 3231 C 331.328 -1.50902 3.0345 0
M  V30 3232 C 330.501 -1.02047 4.25329 0
M  V30 3233 C 329.56 -2.05142 4.84565 0
M  V30 3234 O 328.586 -1.63023 5.45355 0
M  V30 3235 N 329.788 -3.37987 4.71959 0
M  V30 3236 H 332.553 0.300767 2.98187 0
M  V30 3237 H 330.114 0.306598 1.5897 0
M  V30 3238 H 332.106 -2.19572 3.39956 0
M  V30 3239 H 330.676 -2.06705 2.34504 0
M  V30 3240 H 329.896 -0.159507 3.93877 0
M  V30 3241 H 331.184 -0.672061 5.04342 0
M  V30 3242 H 330.582 -3.74913 4.23623 0
M  V30 3243 H 329.139 -4.02443 5.12721 0
M  V30 3244 N 332.573 -1.56217 0.208337 0
M  V30 3245 C 333.821 -1.97558 -0.426076 0
M  V30 3246 C 334.142 -1.09683 -1.61229 0
M  V30 3247 O 333.412 -0.170956 -1.95153 0
M  V30 3248 H 331.992 -0.729575 -0.160405 0
M  V30 3249 H 334.654 -1.92606 0.298155 0
M  V30 3250 H 333.75 -3.02672 -0.761312 0
M  V30 3251 N 334.051 0.0651679 -1.57465 0
M  V30 3252 C 335.328 0.79644 -1.78651 0
M  V30 3253 C 335.708 1.95454 -0.797566 0
M  V30 3254 O 335.056 2.27882 0.167946 0
M  V30 3255 C 335.266 1.26322 -3.25337 0
M  V30 3256 C 336.614 1.6939 -3.89348 0
M  V30 3257 O 337.638 1.35872 -3.29268 0
M  V30 3258 O 336.497 2.31471 -4.95059 0
M  V30 3259 H 333.591 0.382157 -0.733407 0
M  V30 3260 H 336.137 0.0447311 -1.69641 0
M  V30 3261 H 334.909 0.434859 -3.88876 0
M  V30 3262 H 334.532 2.07604 -3.39096 0
M  V30 3263 N 335.529 1.53961 0.336706 0
M  V30 3264 C 336.777 1.71197 1.07405 0
M  V30 3265 C 337.098 0.481475 1.88962 0
M  V30 3266 O 336.368 -0.504585 1.8929 0
M  V30 3267 H 334.948 0.631185 0.399517 0
M  V30 3268 H 337.61 1.91232 0.376323 0
M  V30 3269 H 336.706 2.58587 1.74755 0
M  V30 3270 N 337.007 -0.598083 1.45811 0
M  V30 3271 C 337.939 -1.72231 1.51225 0
M  V30 3272 C 338.952 -1.57757 0.402059 0
M  V30 3273 O 340.141 -1.65464 0.669624 0
M  V30 3274 C 337.241 -3.10331 1.3619 0
M  V30 3275 C 336.414 -3.50955 2.61054 0
M  V30 3276 C 335.473 -4.68055 2.40439 0
M  V30 3277 O 334.499 -4.74691 3.14097 0
M  V30 3278 N 335.701 -5.61941 1.45612 0
M  V30 3279 H 338.466 -1.68046 2.48154 0
M  V30 3280 H 336.027 -0.783637 1.41671 0
M  V30 3281 H 338.019 -3.86439 1.20195 0
M  V30 3282 H 336.589 -3.0897 0.475015 0
M  V30 3283 H 335.809 -2.64711 2.92099 0
M  V30 3284 H 337.097 -3.74858 3.44034 0
M  V30 3285 H 336.495 -5.59301 0.848431 0
M  V30 3286 H 335.052 -6.37542 1.35585 0
M  V30 3287 N 338.485 -1.33259 -0.841409 0
M  V30 3288 C 339.732 -1.24572 -1.5965 0
M  V30 3289 C 340.06 0.189137 -1.93578 0
M  V30 3290 O 339.315 1.14566 -1.5866 0
M  V30 3291 C 339.614 -2.06381 -2.9179 0
M  V30 3292 C 339.28 -3.556 -2.77235 0
M  V30 3293 C 337.942 -3.96282 -2.72973 0
M  V30 3294 C 340.294 -4.50433 -2.62221 0
M  V30 3295 C 337.622 -5.30017 -2.51592 0
M  V30 3296 C 339.974 -5.84327 -2.42374 0
M  V30 3297 C 338.638 -6.24194 -2.36512 0
M  V30 3298 H 337.908 -0.455842 -0.5842 0
M  V30 3299 H 340.555 -1.6482 -0.975016 0
M  V30 3300 H 338.86 -1.58903 -3.5813 0
M  V30 3301 H 340.557 -1.97019 -3.49263 0
M  V30 3302 H 337.147 -3.23298 -2.81384 0
M  V30 3303 H 341.331 -4.19914 -2.64549 0
M  V30 3304 H 336.587 -5.59947 -2.45499 0
M  V30 3305 H 340.761 -6.57414 -2.29739 0
M  V30 3306 H 338.388 -7.27759 -2.19706 0
M  V30 3307 N 339.963 1.05934 -1.16686 0
M  V30 3308 C 340.893 2.1546 -0.899949 0
M  V30 3309 C 341.874 1.69391 0.155154 0
M  V30 3310 O 343.059 1.94199 0.00648693 0
M  V30 3311 C 340.189 3.44939 -0.404241 0
M  V30 3312 C 339.143 4.04536 -1.39767 0
M  V30 3313 C 338.469 5.29268 -0.760216 0
M  V30 3314 C 339.769 4.42893 -2.76845 0
M  V30 3315 H 341.463 2.38046 -1.81588 0
M  V30 3316 H 339.009 1.14404 -0.874514 0
M  V30 3317 H 340.962 4.20901 -0.204971 0
M  V30 3318 H 339.686 3.21983 0.547206 0
M  V30 3319 H 338.345 3.30635 -1.58355 0
M  V30 3320 H 337.993 5.02611 0.197831 0
M  V30 3321 H 337.693 5.70101 -1.42332 0
M  V30 3322 H 339.217 6.07924 -0.57105 0
M  V30 3323 H 340.631 5.09921 -2.62019 0
M  V30 3324 H 339.028 4.94721 -3.39663 0
M  V30 3325 H 340.098 3.53584 -3.31823 0
M  V30 3326 N 341.441 0.965919 1.2453 0
M  V30 3327 C 342.718 0.543777 1.87889 0
M  V30 3328 C 343.098 -0.97909 1.87021 0
M  V30 3329 O 342.446 -1.84969 1.3416 0
M  V30 3330 C 342.656 1.13327 3.30088 0
M  V30 3331 C 344.004 1.21707 4.06783 0
M  V30 3332 O 345.028 1.08566 3.39252 0
M  V30 3333 O 343.887 1.42456 5.27606 0
M  V30 3334 H 340.981 0.181054 0.806938 0
M  V30 3335 H 343.527 1.06007 1.32516 0
M  V30 3336 H 342.299 2.17612 3.25209 0
M  V30 3337 H 341.922 0.600911 3.93033 0
M  V30 3338 N 342.919 -1.39368 0.735821 0
M  V30 3339 C 344.33 -1.83313 0.354015 0
M  V30 3340 C 344.681 -1.61461 -1.11466 0
M  V30 3341 O 343.806 -1.10621 -1.85989 0
M  V30 3342 C 344.401 -3.32781 0.635769 0
M  V30 3343 C 342.96 -3.75142 0.307448 0
M  V30 3344 C 342.107 -2.62358 0.897974 0
M  V30 3345 H 345.058 -1.28349 0.933398 0
M  V30 3346 H 345.079 -3.80388 -0.0921773 0
M  V30 3347 H 344.591 -3.48654 1.70476 0
M  V30 3348 H 342.692 -3.64857 -0.755674 0
M  V30 3349 H 342.805 -4.72532 0.790583 0
M  V30 3350 H 341.169 -2.52624 0.324551 0
M  V30 3351 H 341.952 -2.81036 1.97164 0
M  V30 3352 N 344.397 -0.483516 -1.5 0
M  V30 3353 C 345.347 0.32306 -2.257 0
M  V30 3354 C 346.331 0.950755 -1.29805 0
M  V30 3355 O 347.523 0.861247 -1.54634 0
M  V30 3356 C 344.652 1.39724 -3.13579 0
M  V30 3357 C 343.738 0.776663 -4.16928 0
M  V30 3358 N 344.129 -0.1104 -5.0568 0
M  V30 3359 C 342.427 1.03922 -4.33724 0
M  V30 3360 C 343.128 -0.46387 -5.79848 0
M  V30 3361 N 342.104 0.163987 -5.43353 0
M  V30 3362 H 345.906 -0.360086 -2.91686 0
M  V30 3363 H 343.42 -0.298456 -1.59634 0
M  V30 3364 H 345.417 1.98837 -3.66428 0
M  V30 3365 H 344.077 2.08225 -2.49143 0
M  V30 3366 H 345.088 -0.480069 -5.1567 0
M  V30 3367 H 341.765 1.71829 -3.80501 0
M  V30 3368 H 343.155 -1.18854 -6.61304 0
M  V30 3369 N 345.875 1.56104 -0.216619 0
M  V30 3370 C 346.825 2.16703 0.708798 0
M  V30 3371 C 347.809 1.11392 1.16106 0
M  V30 3372 O 349.001 1.37395 1.11587 0
M  V30 3373 C 346.13 2.84666 1.91886 0
M  V30 3374 C 345.216 3.97195 1.48651 0
M  V30 3375 N 345.607 4.99959 0.766434 0
M  V30 3376 C 343.905 4.09193 1.77418 0
M  V30 3377 C 344.606 5.79126 0.546659 0
M  V30 3378 N 343.582 5.32315 1.10188 0
M  V30 3379 H 347.384 2.93516 0.150162 0
M  V30 3380 H 344.898 1.6239 -0.0176768 0
M  V30 3381 H 346.895 3.26486 2.59253 0
M  V30 3382 H 345.555 2.09347 2.48202 0
M  V30 3383 H 346.566 5.16197 0.419634 0
M  V30 3384 H 343.243 3.45021 2.35088 0
M  V30 3385 H 344.633 6.71895 -0.026103 0
M  V30 3386 N 347.353 -0.0568162 1.57498 0
M  V30 3387 C 348.283 -1.06593 2.0775 0
M  V30 3388 C 349.264 -1.39448 0.974082 0
M  V30 3389 O 350.449 -1.48815 1.24771 0
M  V30 3390 C 347.579 -2.37509 2.5339 0
M  V30 3391 C 346.533 -2.1897 3.67745 0
M  V30 3392 C 345.859 -3.55402 3.99492 0
M  V30 3393 C 347.159 -1.59859 4.97235 0
M  V30 3394 H 348.853 -0.647706 2.9231 0
M  V30 3395 H 346.399 -0.310116 1.40621 0
M  V30 3396 H 348.352 -3.08409 2.87162 0
M  V30 3397 H 347.076 -2.8134 1.65878 0
M  V30 3398 H 345.735 -1.50508 3.3428 0
M  V30 3399 H 345.383 -3.9683 3.09088 0
M  V30 3400 H 345.083 -3.43831 4.76502 0
M  V30 3401 H 346.607 -4.27708 4.35773 0
M  V30 3402 H 348.021 -2.20642 5.29141 0
M  V30 3403 H 346.418 -1.58942 5.78669 0
M  V30 3404 H 347.488 -0.561506 4.81638 0
M  V30 3405 N 348.832 -1.54138 -0.328536 0
M  V30 3406 C 349.742 -1.86192 -1.42723 0
M  V30 3407 C 350.758 -0.753382 -1.56844 0
M  V30 3408 O 351.934 -1.04718 -1.72035 0
M  V30 3409 C 348.999 -2.07824 -2.77507 0
M  V30 3410 C 348.06 -3.31641 -2.72603 0
M  V30 3411 C 347.293 -3.52232 -4.00959 0
M  V30 3412 O 347.516 -2.7636 -4.9898 0
M  V30 3413 O 346.45 -4.45699 -4.0452 0
M  V30 3414 H 350.276 -2.79608 -1.18547 0
M  V30 3415 H 347.861 -1.3998 -0.522104 0
M  V30 3416 H 349.743 -2.23411 -3.57303 0
M  V30 3417 H 348.418 -1.17596 -3.01584 0
M  V30 3418 H 347.325 -3.21444 -1.91376 0
M  V30 3419 H 348.658 -4.2191 -2.53481 0
M  V30 3420 N 350.31 0.590341 -1.46126 0
M  V30 3421 C 351.556 1.35082 -1.51264 0
M  V30 3422 C 351.889 1.93534 -0.160711 0
M  V30 3423 O 351.164 1.76045 0.826956 0
M  V30 3424 C 351.447 2.48588 -2.6053 0
M  V30 3425 C 351.3 1.95221 -4.05227 0
M  V30 3426 C 352.619 3.50662 -2.6594 0
M  V30 3427 H 349.738 0.489803 -0.550692 0
M  V30 3428 H 352.38 0.663887 -1.78024 0
M  V30 3429 H 350.53 3.07186 -2.37843 0
M  V30 3430 H 352.202 1.41139 -4.39178 0
M  V30 3431 H 350.445 1.26101 -4.15068 0
M  V30 3432 H 351.116 2.77121 -4.77397 0
M  V30 3433 H 353.592 3.01934 -2.86313 0
M  V30 3434 H 352.468 4.27551 -3.44226 0
M  V30 3435 H 352.729 4.07399 -1.71694 0
M  V30 3436 N 351.788 1.33704 0.83433 0
M  V30 3437 C 353.013 1.28615 1.62705 0
M  V30 3438 C 353.438 -0.139242 1.87584 0
M  V30 3439 O 352.796 -1.09734 1.4432 0
M  V30 3440 C 352.844 2.07139 2.95171 0
M  V30 3441 O 351.948 1.4331 3.86699 0
M  V30 3442 H 351.289 0.44226 0.49528 0
M  V30 3443 H 353.819 1.76335 1.03766 0
M  V30 3444 H 353.829 2.18073 3.44831 0
M  V30 3445 H 352.504 3.10779 2.76386 0
M  V30 3446 H 351.081 1.4105 3.45195 0
M  V30 3447 N 353.266 -1.05314 1.17247 0
M  V30 3448 C 354.196 -2.1498 0.911362 0
M  V30 3449 C 355.177 -1.69471 -0.146169 0
M  V30 3450 O 356.362 -1.942 0.003812 0
M  V30 3451 C 353.492 -3.4472 0.422528 0
M  V30 3452 C 352.446 -4.03789 1.4191 0
M  V30 3453 C 351.772 -5.28858 0.788274 0
M  V30 3454 C 353.072 -4.41418 2.7919 0
M  V30 3455 H 354.766 -2.3708 1.82848 0
M  V30 3456 H 352.312 -1.13938 0.880569 0
M  V30 3457 H 354.265 -4.20787 0.227289 0
M  V30 3458 H 352.989 -3.22269 -0.530123 0
M  V30 3459 H 351.648 -3.2979 1.60106 0
M  V30 3460 H 351.296 -5.02709 -0.171173 0
M  V30 3461 H 350.996 -5.69338 1.45353 0
M  V30 3462 H 352.52 -6.07612 0.603282 0
M  V30 3463 H 353.934 -5.08524 2.64719 0
M  V30 3464 H 352.331 -4.92913 3.42282 0
M  V30 3465 H 353.401 -3.51819 3.33693 0
M  V30 3466 N 354.744 -0.972509 -1.24016 0
M  V30 3467 C 355.972 -0.654803 -1.96265 0
M  V30 3468 C 356.387 0.776708 -1.72083 0
M  V30 3469 O 355.744 1.52171 -1.00748 0
M  V30 3470 C 355.795 -0.92592 -3.49441 0
M  V30 3471 O 355.516 -2.30116 -3.72798 0
M  V30 3472 C 357.017 -0.623068 -4.38899 0
M  V30 3473 H 354.237 -0.243907 -0.6251 0
M  V30 3474 H 356.781 -1.30175 -1.57717 0
M  V30 3475 H 354.936 -0.325108 -3.86033 0
M  V30 3476 H 355.35 -2.38483 -4.67147 0
M  V30 3477 H 356.824 -0.863189 -5.45209 0
M  V30 3478 H 357.301 0.442754 -4.36963 0
M  V30 3479 H 357.907 -1.204 -4.07902 0
M  V30 3480 N 356.222 1.38976 -0.743202 0
M  V30 3481 C 357.185 2.28901 -0.117014 0
M  V30 3482 C 358.185 1.46698 0.658503 0
M  V30 3483 O 359.375 1.67274 0.486305 0
M  V30 3484 C 356.507 3.30309 0.84315 0
M  V30 3485 H 357.7 2.8578 -0.909373 0
M  V30 3486 H 355.253 1.47761 -0.509547 0
M  V30 3487 H 355.988 2.785 1.66157 0
M  V30 3488 H 355.773 3.91029 0.289594 0
M  V30 3489 H 357.263 3.97577 1.2776 0
M  V30 3490 N 357.7 0.491464 1.49741 0
M  V30 3491 C 358.948 -0.0563141 2.02022 0
M  V30 3492 C 359.269 -1.38363 1.37407 0
M  V30 3493 O 358.539 -1.88702 0.526166 0
M  V30 3494 H 357.119 -0.0238014 0.746621 0
M  V30 3495 H 359.781 0.646533 1.83864 0
M  V30 3496 H 358.877 -0.192967 3.11503 0
M  V30 3497 N 359.178 -1.55987 0.224894 0
M  V30 3498 C 360.455 -1.90232 -0.455083 0
M  V30 3499 C 360.835 -1.14269 -1.77499 0
M  V30 3500 O 360.183 -0.253079 -2.27094 0
M  V30 3501 C 360.393 -3.42993 -0.644758 0
M  V30 3502 C 361.741 -4.13821 -0.950669 0
M  V30 3503 O 362.765 -3.4861 -0.731423 0
M  V30 3504 O 361.624 -5.29128 -1.36695 0
M  V30 3505 H 358.718 -0.79108 -0.241084 0
M  V30 3506 H 361.264 -1.67581 0.267327 0
M  V30 3507 H 360.036 -3.90252 0.28613 0
M  V30 3508 H 359.659 -3.71434 -1.41853 0
M  V30 3509 N 360.656 0.0484629 -1.57525 0
M  V30 3510 C 361.619 1.03956 -2.04269 0
M  V30 3511 C 362.619 1.30211 -0.943496 0
M  V30 3512 O 363.809 1.25539 -1.20771 0
M  V30 3513 C 360.941 2.37742 -2.44319 0
M  V30 3514 H 362.134 0.636182 -2.93075 0
M  V30 3515 H 359.687 0.294811 -1.53494 0
M  V30 3516 H 360.422 2.82866 -1.5861 0
M  V30 3517 H 360.207 2.20021 -3.24551 0
M  V30 3518 H 361.697 3.08936 -2.80978 0
M  V30 3519 N 362.134 1.5431 0.320358 0
M  V30 3520 C 363.364 1.7638 1.07582 0
M  V30 3521 C 363.772 0.513944 1.82086 0
M  V30 3522 O 363.115 -0.525123 1.76035 0
M  V30 3523 C 363.177 2.9055 2.1171 0
M  V30 3524 C 362.841 4.2934 1.56575 0
M  V30 3525 C 363.838 5.10077 1.00586 0
M  V30 3526 C 361.523 4.75893 1.60722 0
M  V30 3527 C 363.517 6.35477 0.494756 0
M  V30 3528 C 361.204 6.0126 1.09224 0
M  V30 3529 C 362.202 6.80886 0.53696 0
M  V30 3530 O 361.89 8.03894 0.0297371 0
M  V30 3531 H 361.622 0.592369 0.325692 0
M  V30 3532 H 364.176 2.02019 0.37116 0
M  V30 3533 H 362.406 2.60489 2.85801 0
M  V30 3534 H 364.095 3.00373 2.73003 0
M  V30 3535 H 364.861 4.75265 0.966869 0
M  V30 3536 H 360.74 4.13957 2.02882 0
M  V30 3537 H 364.284 6.97574 0.0606842 0
M  V30 3538 H 360.181 6.35562 1.12831 0
M  V30 3539 H 360.949 8.18372 0.14486 0
M  V30 3540 N 363.613 -0.582584 1.46437 0
M  V30 3541 C 364.523 -1.71949 1.59595 0
M  V30 3542 C 365.539 -1.67264 0.479443 0
M  V30 3543 O 366.715 -1.87171 0.743579 0
M  V30 3544 C 363.78 -3.08452 1.58298 0
M  V30 3545 C 362.841 -3.244 2.81182 0
M  V30 3546 C 362.074 -4.54391 2.79937 0
M  V30 3547 O 362.297 -5.38287 1.8869 0
M  V30 3548 O 361.231 -4.73588 3.71481 0
M  V30 3549 H 365.057 -1.63795 2.55744 0
M  V30 3550 H 362.642 -0.749643 1.29231 0
M  V30 3551 H 364.524 -3.89732 1.60271 0
M  V30 3552 H 363.199 -3.17043 0.653094 0
M  V30 3553 H 362.106 -2.42613 2.84763 0
M  V30 3554 H 363.439 -3.20699 3.7338 0
M  V30 3555 N 365.091 -1.34144 -0.827227 0
M  V30 3556 C 366.023 -1.21206 -1.9453 0
M  V30 3557 C 367.036 -0.140176 -1.62195 0
M  V30 3558 O 368.225 -0.391647 -1.7415 0
M  V30 3559 C 365.325 -0.839141 -3.28347 0
M  V30 3560 C 364.498 -2.0051 -3.88734 0
M  V30 3561 C 363.557 -1.61128 -5.00923 0
M  V30 3562 O 362.583 -2.32726 -5.19449 0
M  V30 3563 N 363.785 -0.522958 -5.7814 0
M  V30 3564 H 366.55 -2.17525 -2.06162 0
M  V30 3565 H 364.111 -1.27043 -1.00358 0
M  V30 3566 H 366.103 -0.557556 -4.00841 0
M  V30 3567 H 364.673 0.0337293 -3.12582 0
M  V30 3568 H 363.893 -2.45166 -3.08686 0
M  V30 3569 H 365.181 -2.78498 -4.25812 0
M  V30 3570 H 364.579 0.0723518 -5.65654 0
M  V30 3571 H 363.136 -0.301089 -6.51104 0
M  V30 3572 N 366.569 1.04691 -1.17803 0
M  V30 3573 C 367.532 2.10724 -0.901545 0
M  V30 3574 C 368.532 1.6042 0.110437 0
M  V30 3575 O 369.722 1.7377 -0.122303 0
M  V30 3576 C 366.854 3.39084 -0.351409 0
M  V30 3577 H 368.047 2.36686 -1.84174 0
M  V30 3578 H 365.6 1.21015 -0.98919 0
M  V30 3579 H 366.335 3.18782 0.59569 0
M  V30 3580 H 366.12 3.76909 -1.08083 0
M  V30 3581 H 367.61 4.17227 -0.176451 0
M  V30 3582 N 368.047 0.979072 1.23499 0
M  V30 3583 C 369.01 0.523244 2.23147 0
M  V30 3584 C 370.01 -0.386406 1.56088 0
M  V30 3585 O 371.2 -0.180283 1.73265 0
M  V30 3586 C 368.332 -0.240739 3.40049 0
M  V30 3587 H 369.525 1.40432 2.64989 0
M  V30 3588 H 367.078 0.764824 1.36309 0
M  V30 3589 H 367.813 -1.13841 3.03662 0
M  V30 3590 H 367.598 0.412207 3.89927 0
M  V30 3591 H 369.088 -0.548297 4.13985 0
M  V30 3592 N 369.525 -1.3858 0.750561 0
M  V30 3593 C 370.936 -1.82927 0.373438 0
M  V30 3594 C 371.287 -1.62634 -1.09748 0
M  V30 3595 O 370.412 -1.12588 -1.84805 0
M  V30 3596 C 371.007 -3.32088 0.671029 0
M  V30 3597 C 369.566 -3.74795 0.34722 0
M  V30 3598 C 368.713 -2.61391 0.92575 0
M  V30 3599 H 371.664 -1.27351 0.946958 0
M  V30 3600 H 371.685 -3.80465 -0.0518269 0
M  V30 3601 H 371.197 -3.46826 1.74164 0
M  V30 3602 H 369.298 -3.65638 -0.716933 0
M  V30 3603 H 369.411 -4.71667 0.840656 0
M  V30 3604 H 367.775 -2.52265 0.351327 0
M  V30 3605 H 368.558 -2.78929 2.00133 0
M  V30 3606 N 371.003 -0.499398 -1.49478 0
M  V30 3607 C 372.231 0.0425456 -2.06856 0
M  V30 3608 C 372.646 1.30964 -1.35992 0
M  V30 3609 O 372.003 1.77172 -0.437762 0
M  V30 3610 C 372.054 0.301735 -3.60239 0
M  V30 3611 O 371.775 -0.915127 -4.28436 0
M  V30 3612 C 373.276 0.887499 -4.34325 0
M  V30 3613 H 370.496 -0.0197482 -0.670709 0
M  V30 3614 H 373.04 -0.696297 -1.92281 0
M  V30 3615 H 371.195 0.990556 -3.74522 0
M  V30 3616 H 371.609 -0.676993 -5.20113 0
M  V30 3617 H 373.083 1.01845 -5.42523 0
M  V30 3618 H 373.56 1.88488 -3.96698 0
M  V30 3619 H 374.166 0.236196 -4.24644 0
M  V30 3620 N 372.481 1.55866 -0.233164 0
M  V30 3621 C 373.729 1.9821 0.394593 0
M  V30 3622 C 374.05 1.12234 1.59463 0
M  V30 3623 O 373.32 0.201981 1.94856 0
M  V30 3624 H 371.9 0.732034 0.148778 0
M  V30 3625 H 374.562 1.92107 -0.32876 0
M  V30 3626 H 373.658 3.03845 0.713063 0
M  V30 3627 N 373.959 -0.0401083 1.57549 0
M  V30 3628 C 374.869 -1.06133 2.0922 0
M  V30 3629 C 375.885 -1.40356 1.0284 0
M  V30 3630 O 377.061 -1.49897 1.34509 0
M  V30 3631 C 374.126 -2.34658 2.55218 0
M  V30 3632 C 373.187 -2.07117 3.76033 0
M  V30 3633 C 372.42 -3.29514 4.19829 0
M  V30 3634 O 372.643 -4.39794 3.63232 0
M  V30 3635 O 371.577 -3.15863 5.12362 0
M  V30 3636 H 375.403 -0.652244 2.96613 0
M  V30 3637 H 372.988 -0.256368 1.47184 0
M  V30 3638 H 374.87 -3.10239 2.85184 0
M  V30 3639 H 373.545 -2.74883 1.70941 0
M  V30 3640 H 372.452 -1.29139 3.51104 0
M  V30 3641 H 373.785 -1.71754 4.61261 0
M  V30 3642 N 375.437 -1.54477 -0.31217 0
M  V30 3643 C 376.384 -1.84655 -1.38461 0
M  V30 3644 C 377.354 -0.694536 -1.50882 0
M  V30 3645 O 378.539 -0.942081 -1.6592 0
M  V30 3646 C 375.679 -2.0896 -2.74645 0
M  V30 3647 C 374.792 -3.36618 -2.70763 0
M  V30 3648 C 373.927 -3.50824 -3.98868 0
M  V30 3649 C 372.966 -4.72315 -3.89339 0
M  V30 3650 N 372.103 -4.83387 -5.09197 0
M  V30 3651 H 376.943 -2.76142 -1.12026 0
M  V30 3652 H 374.48 -1.36748 -0.542065 0
M  V30 3653 H 376.438 -2.21045 -3.53829 0
M  V30 3654 H 375.068 -1.20752 -2.99364 0
M  V30 3655 H 374.12 -3.33211 -1.83506 0
M  V30 3656 H 375.432 -4.25917 -2.59608 0
M  V30 3657 H 374.586 -3.62513 -4.86486 0
M  V30 3658 H 373.325 -2.59638 -4.12843 0
M  V30 3659 H 372.33 -4.6067 -3.00105 0
M  V30 3660 H 373.555 -5.64897 -3.76919 0
M  V30 3661 H 371.501 -3.9512 -5.23657 0
M  V30 3662 H 371.418 -5.66669 -5.00422 0
M  V30 3663 H 372.686 -4.9942 -5.98498 0
M  V30 3664 N 376.915 0.57481 -1.46744 0
M  V30 3665 C 377.862 1.68329 -1.57905 0
M  V30 3666 C 378.832 1.60625 -0.422927 0
M  V30 3667 O 380.017 1.79721 -0.640711 0
M  V30 3668 C 377.157 3.06665 -1.58274 0
M  V30 3669 C 376.27 3.24935 -2.84678 0
M  V30 3670 C 375.405 4.53566 -2.76499 0
M  V30 3671 C 374.444 4.65207 -3.97806 0
M  V30 3672 N 373.581 5.85172 -3.87967 0
M  V30 3673 H 378.421 1.58127 -2.52587 0
M  V30 3674 H 375.958 0.770552 -1.25303 0
M  V30 3675 H 377.916 3.86745 -1.56473 0
M  V30 3676 H 376.546 3.15745 -0.671194 0
M  V30 3677 H 375.598 2.38405 -2.96424 0
M  V30 3678 H 376.91 3.29403 -3.7456 0
M  V30 3679 H 376.064 5.41885 -2.72848 0
M  V30 3680 H 374.803 4.51548 -1.8427 0
M  V30 3681 H 373.808 3.75304 -4.0178 0
M  V30 3682 H 375.033 4.68997 -4.9114 0
M  V30 3683 H 372.979 5.84137 -2.98529 0
M  V30 3684 H 372.896 5.90943 -4.71511 0
M  V30 3685 H 374.164 6.759 -3.88303 0
M  V30 3686 N 378.394 1.34581 0.820102 0
M  V30 3687 C 379.643 1.26437 1.57151 0
M  V30 3688 C 379.956 -0.163111 1.94919 0
M  V30 3689 O 381.162 -0.366722 2.69012 0
M  V30 3690 C 379.618 2.21658 2.83541 0
M  V30 3691 C 379.226 3.69679 2.53065 0
M  V30 3692 C 380.97 2.22428 3.61561 0
M  V30 3693 C 378.877 4.56761 3.75664 0
M  V30 3694 H 377.807 0.469707 0.589823 0
M  V30 3695 H 380.458 1.59763 0.902656 0
M  V30 3696 H 378.84 1.81287 3.52067 0
M  V30 3697 H 380.014 4.18605 1.92631 0
M  V30 3698 H 378.329 3.71384 1.88316 0
M  V30 3699 H 380.926 2.8471 4.52597 0
M  V30 3700 H 381.269 1.22434 3.97889 0
M  V30 3701 H 381.802 2.61259 2.99981 0
M  V30 3702 H 378.541 5.57702 3.44454 0
M  V30 3703 H 378.061 4.12568 4.35371 0
M  V30 3704 H 379.74 4.71509 4.43044 0
M  V30 3705 N 379.872 -1.04064 1.18357 0
M  V30 3706 C 381.118 -1.77528 0.980397 0
M  V30 3707 C 381.451 -1.87948 -0.48879 0
M  V30 3708 O 380.726 -1.3876 -1.36293 0
M  V30 3709 C 381.009 -3.20797 1.63588 0
M  V30 3710 C 380.862 -3.1832 3.17793 0
M  V30 3711 C 382.181 -4.18911 1.34914 0
M  V30 3712 H 379.3 -0.644443 0.357578 0
M  V30 3713 H 381.942 -1.2156 1.46024 0
M  V30 3714 H 380.092 -3.68586 1.22788 0
M  V30 3715 H 381.764 -2.78521 3.67728 0
M  V30 3716 H 380.007 -2.56351 3.49952 0
M  V30 3717 H 380.678 -4.19489 3.58794 0
M  V30 3718 H 383.154 -3.7967 1.70265 0
M  V30 3719 H 382.03 -5.17374 1.83346 0
M  V30 3720 H 382.291 -4.41262 0.272027 0
M  V30 3721 N 381.35 -0.985608 -1.22978 0
M  V30 3722 C 382.313 -0.535071 -2.22867 0
M  V30 3723 C 383.313 0.378123 -1.56291 0
M  V30 3724 O 384.503 0.171092 -1.73358 0
M  V30 3725 C 381.635 0.222702 -3.40172 0
M  V30 3726 H 382.828 -1.41835 -2.6424 0
M  V30 3727 H 380.381 -0.772042 -1.35901 0
M  V30 3728 H 381.116 1.12229 -3.04262 0
M  V30 3729 H 380.901 -0.43288 -3.89703 0
M  V30 3730 H 382.391 0.526335 -4.1427 0
M  V30 3731 N 382.828 1.3818 -0.7579 0
M  V30 3732 C 384.075 2.00019 -0.315985 0
M  V30 3733 C 384.403 1.60163 1.10355 0
M  V30 3734 O 383.658 0.83264 1.77103 0
M  V30 3735 C 383.957 3.55252 -0.391218 0
M  V30 3736 C 383.623 4.14834 -1.76702 0
M  V30 3737 C 382.285 4.30821 -2.14353 0
M  V30 3738 C 384.637 4.47658 -2.66931 0
M  V30 3739 C 381.965 4.76928 -3.41696 0
M  V30 3740 C 384.317 4.95184 -3.93669 0
M  V30 3741 C 382.981 5.09377 -4.31383 0
M  V30 3742 H 382.251 0.731923 -0.115627 0
M  V30 3743 H 384.898 1.65161 -0.969223 0
M  V30 3744 H 383.203 3.90273 0.34558 0
M  V30 3745 H 384.9 4.00988 -0.030805 0
M  V30 3746 H 381.49 4.02808 -1.46435 0
M  V30 3747 H 385.674 4.34904 -2.39106 0
M  V30 3748 H 380.93 4.86103 -3.70829 0
M  V30 3749 H 385.104 5.19551 -4.63724 0
M  V30 3750 H 382.731 5.44865 -5.30119 0
M  V30 3751 N 384.306 0.507319 1.49211 0
M  V30 3752 C 385.253 -0.267728 2.29242 0
M  V30 3753 C 386.223 -0.954609 1.35928 0
M  V30 3754 O 387.408 -0.960046 1.64887 0
M  V30 3755 C 384.548 -1.32243 3.18756 0
M  V30 3756 C 383.661 -0.64669 4.27132 0
M  V30 3757 C 382.796 -1.68238 5.03855 0
M  V30 3758 C 381.835 -0.98885 6.0406 0
M  V30 3759 N 380.972 -1.96903 6.73924 0
M  V30 3760 H 385.812 0.420968 2.95012 0
M  V30 3761 H 383.349 0.219443 1.45454 0
M  V30 3762 H 385.307 -1.94599 3.69036 0
M  V30 3763 H 383.937 -1.97981 2.54958 0
M  V30 3764 H 382.989 0.0902926 3.80293 0
M  V30 3765 H 384.301 -0.101058 4.98698 0
M  V30 3766 H 383.455 -2.38081 5.58034 0
M  V30 3767 H 382.194 -2.26187 4.32077 0
M  V30 3768 H 381.199 -0.276222 5.49106 0
M  V30 3769 H 382.424 -0.415767 6.77826 0
M  V30 3770 H 380.37 -2.53803 6.04913 0
M  V30 3771 H 380.287 -1.47423 7.41487 0
M  V30 3772 H 381.555 -2.66015 7.32705 0
M  V30 3773 N 385.784 -1.5574 0.241426 0
M  V30 3774 C 386.732 -2.22538 -0.676718 0
M  V30 3775 C 387.726 -1.21117 -1.18436 0
M  V30 3776 O 388.932 -1.39144 -1.14188 0
M  V30 3777 H 385.307 -0.713776 -0.236701 0
M  V30 3778 H 387.278 -2.98264 -0.0901187 0
M  V30 3779 C 386.027 -2.93439 -1.86518 0
M  V30 3780 H 385.35 -3.7125 -1.4837 0
M  V30 3781 H 386.79 -3.43549 -2.48495 0
M  V30 3782 C 385.249 -1.97008 -2.73294 0
M  V30 3783 O 385.779 -1.49965 -3.72657 0
M  V30 3784 N 383.985 -1.64227 -2.39745 0
M  V30 3785 H 383.532 -2.02677 -1.58996 0
M  V30 3786 H 383.49 -0.999708 -2.98083 0
M  V30 3787 N 387.262 0.0317525 -1.57568 0
M  V30 3788 C 388.502 0.727979 -1.90997 0
M  V30 3789 C 388.866 1.72664 -0.839708 0
M  V30 3790 O 390.067 2.47092 -1.05825 0
M  V30 3791 C 388.338 1.38239 -3.29583 0
M  V30 3792 S 389.897 2.10814 -3.84841 0
M  V30 3793 H 386.715 0.241226 -0.668828 0
M  V30 3794 H 389.317 -0.0173037 -1.95492 0
M  V30 3795 H 388.021 0.642288 -4.05343 0
M  V30 3796 H 387.552 2.16628 -3.28384 0
M  V30 3797 H 389.567 3.3792 -3.63352 0
M  V30 3798 N 388.74 1.54641 0.303973 0
M  V30 3799 C 389.989 1.7299 1.03717 0
M  V30 3800 C 390.302 0.521168 1.88529 0
M  V30 3801 O 391.508 0.586408 2.65092 0
M  V30 3802 C 389.964 3.06051 1.89369 0
M  V30 3803 C 389.572 4.34393 1.09574 0
M  V30 3804 C 391.316 3.3376 2.62306 0
M  V30 3805 C 389.223 5.58506 1.94486 0
M  V30 3806 H 388.153 0.64473 0.390947 0
M  V30 3807 H 390.804 1.81124 0.294328 0
M  V30 3808 H 389.186 2.91874 2.67629 0
M  V30 3809 H 390.36 4.59396 0.359485 0
M  V30 3810 H 388.675 4.13597 0.482324 0
M  V30 3811 H 391.272 4.23687 3.26181 0
M  V30 3812 H 391.615 2.52503 3.3098 0
M  V30 3813 H 392.148 3.48894 1.91097 0
M  V30 3814 H 388.887 6.42422 1.30287 0
M  V30 3815 H 388.407 5.37694 2.65792 0
M  V30 3816 H 390.086 5.95651 2.52605 0
M  V30 3817 N 390.218 -0.567019 1.47046 0
M  V30 3818 C 391.467 -1.32091 1.5243 0
M  V30 3819 C 391.78 -1.94704 0.187021 0
M  V30 3820 O 392.986 -2.7124 0.118771 0
M  V30 3821 C 391.442 -2.39479 2.68659 0
M  V30 3822 C 391.05 -1.831 4.08874 0
M  V30 3823 C 392.794 -3.16111 2.83327 0
M  V30 3824 C 390.701 -2.8821 5.16419 0
M  V30 3825 H 389.631 -0.496629 0.56734 0
M  V30 3826 H 392.282 -0.603354 1.73297 0
M  V30 3827 H 390.664 -3.14105 2.41152 0
M  V30 3828 H 391.838 -1.14913 4.46242 0
M  V30 3829 H 390.153 -1.19085 3.99008 0
M  V30 3830 H 392.75 -3.94585 3.60842 0
M  V30 3831 H 393.093 -3.69686 1.91411 0
M  V30 3832 H 393.626 -2.48595 3.10556 0
M  V30 3833 H 390.365 -2.39504 6.10179 0
M  V30 3834 H 389.885 -3.54839 4.8358 0
M  V30 3835 H 391.564 -3.51881 5.42945 0
M  V30 3836 N 391.696 -1.35014 -0.812953 0
M  V30 3837 C 392.659 -1.27292 -1.90602 0
M  V30 3838 C 393.659 -0.185817 -1.59723 0
M  V30 3839 O 394.849 -0.439102 -1.68575 0
M  V30 3840 C 391.981 -0.967676 -3.26877 0
M  V30 3841 H 393.174 -2.24479 -1.9887 0
M  V30 3842 H 390.727 -1.19446 -1.00808 0
M  V30 3843 H 391.462 0.0005954 -3.243 0
M  V30 3844 H 391.247 -1.75412 -3.50675 0
M  V30 3845 H 392.737 -0.939085 -4.06904 0
M  V30 3846 N 393.175 1.03435 -1.18907 0
M  V30 3847 C 394.138 2.09756 -0.923844 0
M  V30 3848 C 395.138 1.60528 0.093416 0
M  V30 3849 O 396.328 1.73631 -0.140727 0
M  V30 3850 C 393.46 3.38692 -0.387354 0
M  V30 3851 H 394.653 2.34719 -1.86674 0
M  V30 3852 H 392.206 1.19959 -1.00197 0
M  V30 3853 H 392.941 3.19396 0.561845 0
M  V30 3854 H 392.726 3.75742 -1.12074 0
M  V30 3855 H 394.216 4.17016 -0.220694 0
M  V30 3856 N 394.653 0.992116 1.22453 0
M  V30 3857 C 395.901 0.666215 1.90804 0
M  V30 3858 C 396.222 -0.804152 1.77647 0
M  V30 3859 O 395.492 -1.57629 1.16318 0
M  V30 3860 H 394.072 0.243423 0.706225 0
M  V30 3861 H 396.734 1.25845 1.48825 0
M  V30 3862 H 395.83 0.928069 2.97982 0
M  V30 3863 N 396.131 -1.37776 0.765217 0
M  V30 3864 C 397.356 -2.04651 0.336537 0
M  V30 3865 C 397.781 -1.57337 -1.03086 0
M  V30 3866 O 397.139 -0.730621 -1.65927 0
M  V30 3867 C 397.187 -3.58577 0.381468 0
M  V30 3868 O 396.291 -4.07706 -0.62042 0
M  V30 3869 H 395.632 -0.64756 0.146838 0
M  V30 3870 H 398.162 -1.76221 1.03959 0
M  V30 3871 H 398.172 -4.07314 0.236448 0
M  V30 3872 H 396.847 -3.9237 1.37907 0
M  V30 3873 H 395.424 -3.70306 -0.439056 0
M  V30 3874 N 397.609 -0.515225 -1.4894 0
M  V30 3875 C 399.025 -0.172099 -1.58669 0
M  V30 3876 C 399.225 1.32405 -1.51892 0
M  V30 3877 O 398.281 2.10116 -1.40027 0
M  V30 3878 C 399.594 -0.761533 -2.90897 0
M  V30 3879 C 401.142 -0.728926 -3.04394 0
M  V30 3880 C 401.617 -1.29667 -4.39261 0
M  V30 3881 N 403.108 -1.25799 -4.4579 0
M  V30 3882 C 403.843 -1.66733 -5.48623 0
M  V30 3883 N 403.339 -2.15327 -6.58488 0
M  V30 3884 N 405.132 -1.58061 -5.39419 0
M  V30 3885 H 397.283 -1.48778 -1.51588 0
M  V30 3886 H 399.546 -0.617968 -0.718901 0
M  V30 3887 H 399.252 -1.81136 -3.01468 0
M  V30 3888 H 399.126 -0.230106 -3.76497 0
M  V30 3889 H 401.513 0.312098 -2.93445 0
M  V30 3890 H 401.594 -1.29766 -2.20442 0
M  V30 3891 H 401.238 -2.33655 -4.50963 0
M  V30 3892 H 401.168 -0.703752 -5.21876 0
M  V30 3893 H 403.659 -0.902102 -3.66975 0
M  V30 3894 H 403.972 -2.44594 -7.33071 0
M  V30 3895 H 402.317 -2.19311 -6.59491 0
M  V30 3896 H 405.508 -1.19906 -4.52482 0
M  V30 3897 H 405.681 -1.90284 -6.19432 0
M  V30 3898 N 399.087 1.5561 -0.249682 0
M  V30 3899 C 400.333 1.99306 0.374841 0
M  V30 3900 C 400.666 1.13767 1.57387 0
M  V30 3901 O 399.941 0.201711 1.93451 0
M  V30 3902 C 400.224 3.51507 0.781986 0
M  V30 3903 C 400.077 4.4781 -0.422629 0
M  V30 3904 C 401.396 4.08884 1.62793 0
M  V30 3905 H 398.515 0.724572 0.134773 0
M  V30 3906 H 401.157 1.86719 -0.351549 0
M  V30 3907 H 399.307 3.62363 1.4009 0
M  V30 3908 H 400.979 4.48931 -1.06108 0
M  V30 3909 H 399.222 4.20518 -1.06524 0
M  V30 3910 H 399.893 5.51919 -0.0943766 0
M  V30 3911 H 402.369 4.01147 1.10547 0
M  V30 3912 H 401.245 5.1564 1.88166 0
M  V30 3913 H 401.506 3.57515 2.60068 0
M  V30 3914 N 400.565 -0.0233959 1.57583 0
M  V30 3915 C 401.793 -0.724682 1.93794 0
M  V30 3916 C 402.208 -1.68588 0.849912 0
M  V30 3917 O 401.565 -1.81676 -0.173204 0
M  V30 3918 C 401.616 -1.47684 3.29957 0
M  V30 3919 O 401.337 -0.554222 4.3458 0
M  V30 3920 C 402.838 -2.27477 3.80485 0
M  V30 3921 H 400.058 -0.203317 0.639455 0
M  V30 3922 H 402.602 0.0207653 2.04489 0
M  V30 3923 H 400.757 -2.17412 3.20641 0
M  V30 3924 H 401.171 -1.08232 5.13212 0
M  V30 3925 H 402.645 -2.7564 4.78254 0
M  V30 3926 H 403.122 -3.09144 3.11972 0
M  V30 3927 H 403.728 -1.62813 3.92902 0
M  V30 3928 N 402.043 -1.548 -0.295768 0
M  V30 3929 C 402.99 -1.86113 -1.36494 0
M  V30 3930 C 403.96 -0.7105 -1.50137 0
M  V30 3931 O 405.145 -0.959626 -1.64912 0
M  V30 3932 C 402.285 -2.11861 -2.72413 0
M  V30 3933 C 401.398 -3.39471 -2.67177 0
M  V30 3934 C 400.533 -3.55035 -3.95125 0
M  V30 3935 C 399.572 -4.76418 -3.84308 0
M  V30 3936 N 398.709 -4.8876 -5.04042 0
M  V30 3937 H 403.549 -2.77314 -1.09091 0
M  V30 3938 H 401.086 -1.37315 -0.52753 0
M  V30 3939 H 403.044 -2.24786 -3.51464 0
M  V30 3940 H 401.674 -1.2392 -2.98066 0
M  V30 3941 H 400.726 -3.35139 -1.79962 0
M  V30 3942 H 402.038 -4.28646 -2.55076 0
M  V30 3943 H 401.192 -3.67653 -4.82614 0
M  V30 3944 H 399.931 -2.64002 -4.10066 0
M  V30 3945 H 398.936 -4.63827 -2.95202 0
M  V30 3946 H 400.161 -5.68863 -3.70906 0
M  V30 3947 H 398.107 -4.00652 -5.19436 0
M  V30 3948 H 398.024 -5.71945 -4.94384 0
M  V30 3949 H 399.292 -5.0574 -5.93167 0
M  V30 3950 N 403.521 0.559213 -1.47345 0
M  V30 3951 C 404.451 1.67622 -1.62558 0
M  V30 3952 C 405.432 1.63331 -0.475087 0
M  V30 3953 O 406.617 1.80983 -0.704182 0
M  V30 3954 C 403.747 3.0626 -1.63774 0
M  V30 3955 C 402.701 3.25397 -2.7803 0
M  V30 3956 C 402.027 4.64801 -2.64318 0
M  V30 3957 C 403.327 3.10965 -4.19641 0
M  V30 3958 H 405.021 1.55146 -2.56067 0
M  V30 3959 H 402.567 0.744961 -1.23233 0
M  V30 3960 H 404.52 3.84247 -1.73008 0
M  V30 3961 H 403.244 3.1969 -0.66825 0
M  V30 3962 H 401.903 2.49817 -2.68304 0
M  V30 3963 H 401.551 4.75028 -1.65401 0
M  V30 3964 H 401.251 4.78555 -3.40968 0
M  V30 3965 H 402.775 5.44926 -2.75478 0
M  V30 3966 H 404.189 3.78772 -4.30354 0
M  V30 3967 H 402.586 3.36229 -4.97062 0
M  V30 3968 H 403.656 2.07736 -4.38148 0
M  V30 3969 N 404.999 1.35443 0.805782 0
M  V30 3970 C 406.41 1.25768 1.37983 0
M  V30 3971 C 406.761 -0.10958 1.95894 0
M  V30 3972 O 405.886 -1.01056 1.91355 0
M  V30 3973 C 406.481 2.27727 2.5085 0
M  V30 3974 C 405.04 2.2179 3.04115 0
M  V30 3975 C 404.187 2.13393 1.77084 0
M  V30 3976 H 407.138 1.4656 0.608752 0
M  V30 3977 H 407.159 1.90422 3.29424 0
M  V30 3978 H 406.671 3.27227 2.08671 0
M  V30 3979 H 404.772 1.25703 3.50756 0
M  V30 3980 H 404.885 3.13788 3.62042 0
M  V30 3981 H 403.249 1.59384 1.98668 0
M  V30 3982 H 404.032 3.14755 1.37056 0
M  V30 3983 N 406.477 -1.02803 1.19454 0
M  V30 3984 C 407.724 -1.76217 0.997693 0
M  V30 3985 C 408.052 -1.887 -0.47144 0
M  V30 3986 O 407.307 -1.4011 -1.3663 0
M  V30 3987 C 407.606 -3.18941 1.6128 0
M  V30 3988 C 407.272 -3.26463 3.11019 0
M  V30 3989 C 405.934 -3.28223 3.51885 0
M  V30 3990 C 408.286 -3.25542 4.07028 0
M  V30 3991 C 405.614 -3.26719 4.8731 0
M  V30 3992 C 407.966 -3.25579 5.42385 0
M  V30 3993 C 406.63 -3.25637 5.82681 0
M  V30 3994 H 405.9 -0.644823 0.365082 0
M  V30 3995 H 408.547 -1.20655 1.4871 0
M  V30 3996 H 406.852 -3.77587 1.04572 0
M  V30 3997 H 408.549 -3.74415 1.43577 0
M  V30 3998 H 405.139 -3.25822 2.78457 0
M  V30 3999 H 409.323 -3.23362 3.76498 0
M  V30 4000 H 404.579 -3.25089 5.1781 0
M  V30 4001 H 408.753 -3.23817 6.16535 0
M  V30 4002 H 406.38 -3.24226 6.87591 0
M  V30 4003 N 407.956 -0.998596 -1.21925 0
M  V30 4004 C 409.205 -0.673085 -1.90138 0
M  V30 4005 C 409.518 0.79895 -1.78539 0
M  V30 4006 O 410.724 1.23628 -2.4172 0
M  V30 4007 C 409.18 -1.15339 -3.40918 0
M  V30 4008 C 408.788 -2.65106 -3.61141 0
M  V30 4009 C 410.532 -0.902476 -4.14796 0
M  V30 4010 C 408.439 -3.0671 -5.05651 0
M  V30 4011 H 407.369 -0.248057 -0.712028 0
M  V30 4012 H 410.02 -1.20891 -1.38049 0
M  V30 4013 H 408.402 -0.545658 -3.92223 0
M  V30 4014 H 409.576 -3.31274 -3.20304 0
M  V30 4015 H 407.891 -2.88142 -3.00605 0
M  V30 4016 H 410.488 -1.18895 -5.21314 0
M  V30 4017 H 410.831 0.161349 -4.15987 0
M  V30 4018 H 411.364 -1.47269 -3.69536 0
M  V30 4019 H 408.103 -4.12292 -5.09603 0
M  V30 4020 H 407.623 -2.45249 -5.47369 0
M  V30 4021 H 409.302 -2.9833 -5.74115 0
M  V30 4022 N 409.434 1.37368 -0.772513 0
M  V30 4023 C 410.845 1.8231 -0.402493 0
M  V30 4024 C 411.196 1.6436 1.07146 0
M  V30 4025 O 410.321 1.15514 1.82991 0
M  V30 4026 C 410.916 3.30979 -0.723776 0
M  V30 4027 C 409.475 3.74195 -0.406802 0
M  V30 4028 C 408.622 2.59885 -0.967218 0
M  V30 4029 H 411.573 1.25829 -0.967099 0
M  V30 4030 H 411.594 3.80499 -0.00870832 0
M  V30 4031 H 411.106 3.44011 -1.7966 0
M  V30 4032 H 409.207 3.66732 0.658673 0
M  V30 4033 H 409.32 4.7027 -0.915588 0
M  V30 4034 H 407.684 2.51674 -0.391416 0
M  V30 4035 H 408.467 2.7571 -2.04546 0
M  V30 4036 N 410.912 0.523116 1.48665 0
M  V30 4037 C 411.822 -0.247406 2.33292 0
M  V30 4038 C 412.838 -0.945769 1.46052 0
M  V30 4039 O 414.014 -0.922253 1.79043 0
M  V30 4040 C 411.079 -1.28487 3.22012 0
M  V30 4041 C 410.14 -0.597592 4.2512 0
M  V30 4042 C 409.373 -1.58563 5.09601 0
M  V30 4043 O 409.596 -2.81763 4.95949 0
M  V30 4044 O 408.53 -1.12879 5.91221 0
M  V30 4045 H 412.356 0.445869 3.00409 0
M  V30 4046 H 409.941 0.284128 1.46673 0
M  V30 4047 H 411.823 -1.88459 3.7691 0
M  V30 4048 H 410.498 -1.96068 2.57564 0
M  V30 4049 H 409.405 0.0424407 3.74076 0
M  V30 4050 H 410.738 0.0361517 4.92187 0
M  V30 4051 N 412.39 -1.55475 0.257931 0
M  V30 4052 C 413.667 -1.91155 -0.414629 0
M  V30 4053 C 414.047 -1.18008 -1.75035 0
M  V30 4054 O 413.395 -0.301193 -2.26506 0
M  V30 4055 C 413.605 -3.44283 -0.571859 0
M  V30 4056 C 414.953 -4.15744 -0.862678 0
M  V30 4057 O 415.977 -3.50083 -0.657314 0
M  V30 4058 O 414.836 -5.31909 -1.2544 0
M  V30 4059 H 411.93 -0.796016 -0.22425 0
M  V30 4060 H 414.476 -1.66976 0.302814 0
M  V30 4061 H 413.248 -3.89558 0.368844 0
M  V30 4062 H 412.871 -3.7436 -1.33943 0
M  V30 4063 N 413.868 0.0150385 -1.57593 0
M  V30 4064 C 415.279 0.559832 -1.78109 0
M  V30 4065 C 415.63 1.74814 -0.890756 0
M  V30 4066 O 414.755 2.16216 -0.0892482 0
M  V30 4067 C 415.35 1.02238 -3.23006 0
M  V30 4068 C 413.909 1.51258 -3.44671 0
M  V30 4069 C 413.056 0.456955 -2.73509 0
M  V30 4070 H 416.007 -0.211169 -1.57289 0
M  V30 4071 H 416.028 1.88912 -3.30292 0
M  V30 4072 H 415.54 0.157302 -3.87781 0
M  V30 4073 H 413.641 2.39905 -2.8509 0
M  V30 4074 H 413.754 1.55042 -4.5332 0
M  V30 4075 H 412.118 0.915196 -2.37689 0
M  V30 4076 H 412.901 -0.398896 -3.40975 0
M  V30 4077 N 415.346 1.54954 0.287554 0
M  V30 4078 C 416.762 1.46469 0.633964 0
M  V30 4079 C 416.962 0.666865 1.90145 0
M  V30 4080 O 416.018 0.179906 2.51858 0
M  V30 4081 C 417.331 2.90556 0.774454 0
M  V30 4082 C 418.879 3.00681 0.869462 0
M  V30 4083 C 419.354 4.45993 1.04184 0
M  V30 4084 N 420.845 4.4976 1.10772 0
M  V30 4085 C 421.58 5.59393 1.25964 0
M  V30 4086 N 421.076 6.78923 1.37968 0
M  V30 4087 N 422.869 5.47107 1.28959 0
M  V30 4088 H 415.02 2.05288 -0.545041 0
M  V30 4089 H 417.283 0.930305 -0.182308 0
M  V30 4090 H 416.989 3.51594 -0.086207 0
M  V30 4091 H 416.863 3.38743 1.6593 0
M  V30 4092 H 419.25 2.39749 1.7206 0
M  V30 4093 H 419.331 2.55769 -0.0396831 0
M  V30 4094 H 418.975 5.07524 0.195422 0
M  V30 4095 H 418.905 4.88548 1.96542 0
M  V30 4096 H 421.396 3.63651 1.02794 0
M  V30 4097 H 421.709 7.58231 1.49353 0
M  V30 4098 H 420.054 6.81763 1.34999 0
M  V30 4099 H 423.245 4.52668 1.19202 0
M  V30 4100 H 423.418 6.32595 1.40455 0
M  V30 4101 N 416.824 -0.551391 1.4764 0
M  V30 4102 C 418.073 -1.30467 1.53822 0
M  V30 4103 C 418.386 -1.94495 0.207661 0
M  V30 4104 O 419.592 -2.71099 0.147533 0
M  V30 4105 C 418.048 -2.36616 2.71184 0
M  V30 4106 C 417.656 -1.78754 4.10793 0
M  V30 4107 C 419.4 -3.13088 2.86663 0
M  V30 4108 C 417.307 -2.82717 5.19447 0
M  V30 4109 H 416.237 -0.490584 0.572576 0
M  V30 4110 H 418.888 -0.58494 1.73927 0
M  V30 4111 H 417.27 -3.11529 2.4447 0
M  V30 4112 H 418.444 -1.10173 4.47435 0
M  V30 4113 H 416.759 -1.14846 4.00249 0
M  V30 4114 H 419.356 -3.90736 3.65007 0
M  V30 4115 H 419.699 -3.67635 1.95321 0
M  V30 4116 H 420.232 -2.45288 3.13175 0
M  V30 4117 H 416.971 -2.33018 6.12685 0
M  V30 4118 H 416.491 -3.4969 4.87316 0
M  V30 4119 H 418.17 -3.46102 5.46646 0
M  V30 4120 N 418.302 -1.35869 -0.798587 0
M  V30 4121 C 419.551 -1.28921 -1.5512 0
M  V30 4122 C 419.864 0.13208 -1.95154 0
M  V30 4123 O 421.07 0.323879 -2.69561 0
M  V30 4124 C 419.526 -2.26141 -2.79979 0
M  V30 4125 C 419.134 -3.73658 -2.47151 0
M  V30 4126 C 420.878 -2.28152 -3.57976 0
M  V30 4127 C 418.785 -4.62679 -3.6835 0
M  V30 4128 H 417.715 -0.479031 -0.582276 0
M  V30 4129 H 420.366 -1.61179 -0.877125 0
M  V30 4130 H 418.748 -1.86865 -3.49138 0
M  V30 4131 H 419.922 -4.21616 -1.85947 0
M  V30 4132 H 418.237 -3.74333 -1.82383 0
M  V30 4133 H 420.834 -2.91875 -4.4801 0
M  V30 4134 H 421.177 -1.28748 -3.95891 0
M  V30 4135 H 421.71 -2.65998 -2.95787 0
M  V30 4136 H 418.449 -5.63111 -3.35538 0
M  V30 4137 H 417.969 -4.19442 -4.28752 0
M  V30 4138 H 419.648 -4.78498 -4.35487 0
M  V30 4139 N 419.78 1.02168 -1.19998 0
M  V30 4140 C 421.057 1.72816 -0.916191 0
M  V30 4141 C 421.437 2.03081 0.576325 0
M  V30 4142 O 420.785 1.69122 1.53656 0
M  V30 4143 C 420.995 2.9997 -1.78378 0
M  V30 4144 C 422.343 3.73336 -2.02251 0
M  V30 4145 O 423.367 3.09914 -1.75589 0
M  V30 4146 O 422.226 4.87371 -2.47249 0
M  V30 4147 H 419.32 0.752924 -0.342103 0
M  V30 4148 H 421.866 1.08062 -1.30846 0
M  V30 4149 H 420.638 2.73888 -2.79466 0
M  V30 4150 H 420.261 3.72464 -1.39126 0
M  V30 4151 N 421.258 1.00505 1.21394 0
M  V30 4152 C 422.483 0.706367 1.95001 0
M  V30 4153 C 422.908 -0.72463 1.73582 0
M  V30 4154 O 422.266 -1.49702 1.0227 0
M  V30 4155 C 422.314 1.03299 3.45487 0
M  V30 4156 O 421.418 0.138275 4.12168 0
M  V30 4157 H 420.759 0.263175 0.609619 0
M  V30 4158 H 423.289 1.34531 1.54151 0
M  V30 4159 H 423.299 0.979872 3.96059 0
M  V30 4160 H 421.974 2.07567 3.60401 0
M  V30 4161 H 420.551 0.247928 3.72075 0
M  V30 4162 N 422.737 -1.36956 0.779787 0
M  V30 4163 C 423.962 -2.04283 0.358224 0
M  V30 4164 C 424.387 -1.58422 -1.01411 0
M  V30 4165 O 423.745 -0.748179 -1.65142 0
M  V30 4166 C 423.793 -3.58152 0.419479 0
M  V30 4167 O 422.897 -4.08342 -0.577142 0
M  V30 4168 H 422.238 -0.645967 0.153698 0
M  V30 4169 H 424.768 -1.75108 1.05822 0
M  V30 4170 H 424.778 -4.07041 0.279636 0
M  V30 4171 H 423.453 -3.90886 1.42061 0
M  V30 4172 H 422.03 -3.70751 -0.399755 0
M  V30 4173 N 424.215 -0.530993 -1.48385 0
M  V30 4174 C 425.463 0.00273189 -2.021 0
M  V30 4175 C 425.784 1.34672 -1.41027 0
M  V30 4176 O 425.054 1.8724 -0.576012 0
M  V30 4177 H 423.634 0.00399774 -0.746989 0
M  V30 4178 H 426.296 -0.695054 -1.82085 0
M  V30 4179 H 425.392 0.11031 -3.11905 0
M  V30 4180 N 425.693 1.55336 -0.266172 0
M  V30 4181 C 426.656 2.20878 0.612001 0
M  V30 4182 C 427.656 1.18388 1.08816 0
M  V30 4183 O 428.846 1.4335 0.989774 0
M  V30 4184 C 425.978 2.86765 1.84332 0
M  V30 4185 H 427.171 2.99873 0.0398718 0
M  V30 4186 H 424.724 1.56291 -0.0167309 0
M  V30 4187 H 425.459 2.11759 2.45619 0
M  V30 4188 H 425.244 3.61862 1.5099 0
M  V30 4189 H 426.734 3.36867 2.46801 0
M  V30 4190 N 427.171 -0.0066808 1.57599 0
M  V30 4191 C 428.101 -0.999296 2.11036 0
M  V30 4192 C 429.082 -1.36278 1.01795 0
M  V30 4193 O 430.267 -1.4477 1.29442 0
M  V30 4194 C 427.397 -2.29328 2.60818 0
M  V30 4195 C 426.351 -2.07159 3.74525 0
M  V30 4196 C 425.677 -3.42512 4.10596 0
M  V30 4197 C 426.977 -1.43959 5.02069 0
M  V30 4198 H 428.671 -0.554382 2.94223 0
M  V30 4199 H 426.217 -0.265221 1.41536 0
M  V30 4200 H 428.17 -2.99117 2.96828 0
M  V30 4201 H 426.894 -2.7592 1.74745 0
M  V30 4202 H 425.553 -1.39797 3.38899 0
M  V30 4203 H 425.201 -3.86795 3.21556 0
M  V30 4204 H 424.901 -3.28498 4.87199 0
M  V30 4205 H 426.425 -4.13628 4.4916 0
M  V30 4206 H 427.839 -2.03696 5.35893 0
M  V30 4207 H 426.236 -1.40452 5.83432 0
M  V30 4208 H 427.306 -0.407992 4.83181 0
M  V30 4209 N 428.649 -1.55105 -0.279332 0
M  V30 4210 C 429.612 -1.86783 -1.32834 0
M  V30 4211 C 430.612 -0.74199 -1.42657 0
M  V30 4212 O 431.802 -1.0102 -1.41918 0
M  V30 4213 C 428.934 -2.06746 -2.71052 0
M  V30 4214 H 430.127 -2.8055 -1.05979 0
M  V30 4215 H 427.68 -1.47499 -0.517087 0
M  V30 4216 H 428.415 -1.15339 -3.03097 0
M  V30 4217 H 428.2 -2.88711 -2.65309 0
M  V30 4218 H 429.69 -2.32549 -3.46858 0
M  V30 4219 N 430.127 0.543554 -1.4793 0
M  V30 4220 C 431.057 1.65888 -1.64327 0
M  V30 4221 C 432.038 1.62818 -0.492383 0
M  V30 4222 O 433.223 1.80226 -0.723338 0
M  V30 4223 C 430.353 3.04506 -1.67013 0
M  V30 4224 C 429.307 3.2243 -2.81466 0
M  V30 4225 C 428.633 4.61972 -2.69233 0
M  V30 4226 C 429.933 3.06496 -4.22915 0
M  V30 4227 H 431.627 1.52421 -2.57698 0
M  V30 4228 H 429.173 0.731849 -1.24016 0
M  V30 4229 H 431.126 3.82391 -1.77074 0
M  V30 4230 H 429.85 3.18964 -0.70212 0
M  V30 4231 H 428.509 2.46957 -2.70938 0
M  V30 4232 H 428.157 4.73247 -1.7043 0
M  V30 4233 H 427.857 4.74911 -3.46025 0
M  V30 4234 H 429.381 5.41974 -2.81242 0
M  V30 4235 H 430.795 3.74186 -4.34348 0
M  V30 4236 H 429.192 3.30938 -5.006 0
M  V30 4237 H 430.262 2.03077 -4.40327 0
M  V30 4238 N 431.605 1.3629 0.791371 0
M  V30 4239 C 432.552 1.30458 1.90393 0
M  V30 4240 C 433.522 0.173632 1.6519 0
M  V30 4241 O 434.707 0.35983 1.87376 0
M  V30 4242 C 431.847 1.09777 3.27174 0
M  V30 4243 C 430.96 2.31929 3.64462 0
M  V30 4244 C 430.095 2.04276 4.90352 0
M  V30 4245 C 429.134 3.224 5.20312 0
M  V30 4246 N 428.271 2.94424 6.37385 0
M  V30 4247 H 433.111 2.25589 1.94714 0
M  V30 4248 H 430.648 1.12122 0.952216 0
M  V30 4249 H 432.606 0.958133 4.06049 0
M  V30 4250 H 431.236 0.183014 3.22281 0
M  V30 4251 H 430.288 2.56703 2.80727 0
M  V30 4252 H 431.6 3.20085 3.82553 0
M  V30 4253 H 430.754 1.87231 5.77087 0
M  V30 4254 H 429.493 1.13428 4.74326 0
M  V30 4255 H 428.498 3.40005 4.32061 0
M  V30 4256 H 429.723 4.14071 5.38258 0
M  V30 4257 H 427.669 2.06185 6.22755 0
M  V30 4258 H 427.586 3.76118 6.55798 0
M  V30 4259 H 428.854 2.80953 7.27108 0
M  V30 4260 N 433.083 -1.0153 1.20538 0
M  V30 4261 C 433.993 -2.13557 0.971113 0
M  V30 4262 C 435.009 -1.73845 -0.0734366 0
M  V30 4263 O 436.185 -2.01075 0.114299 0
M  V30 4264 C 433.25 -3.42661 0.527639 0
M  V30 4265 C 432.311 -3.96608 1.64319 0
M  V30 4266 C 431.544 -5.1955 1.22078 0
M  V30 4267 O 431.767 -5.70329 0.0900198 0
M  V30 4268 O 430.701 -5.66681 2.02871 0
M  V30 4269 H 434.527 -2.3619 1.90913 0
M  V30 4270 H 432.112 -1.11946 0.989362 0
M  V30 4271 H 433.994 -4.20404 0.289621 0
M  V30 4272 H 432.669 -3.21441 -0.381779 0
M  V30 4273 H 431.576 -3.20139 1.93551 0
M  V30 4274 H 432.909 -4.22219 2.52966 0
M  V30 4275 N 434.561 -1.01147 -1.20859 0
M  V30 4276 C 435.807 -0.698899 -1.90377 0
M  V30 4277 C 436.14 0.76904 -1.78324 0
M  V30 4278 O 435.415 1.55817 -1.16409 0
M  V30 4279 C 435.698 -1.12878 -3.41951 0
M  V30 4280 C 435.551 -2.65665 -3.62963 0
M  V30 4281 C 436.87 -0.696114 -4.3456 0
M  V30 4282 H 433.989 -0.255372 -0.691342 0
M  V30 4283 H 436.631 -1.25831 -1.42361 0
M  V30 4284 H 434.781 -0.652827 -3.82976 0
M  V30 4285 H 436.453 -3.21074 -3.31224 0
M  V30 4286 H 434.696 -3.06878 -3.06608 0
M  V30 4287 H 435.367 -2.90797 -4.69192 0
M  V30 4288 H 437.843 -1.10521 -4.01154 0
M  V30 4289 H 436.719 -1.025 -5.39245 0
M  V30 4290 H 436.98 0.402465 -4.40264 0
M  V30 4291 N 436.039 1.36541 -0.78704 0
M  V30 4292 C 437.45 1.81873 -0.421807 0
M  V30 4293 C 437.801 1.65487 1.05397 0
M  V30 4294 O 436.926 1.17448 1.81755 0
M  V30 4295 C 437.521 3.30192 -0.758841 0
M  V30 4296 C 436.08 3.73743 -0.446468 0
M  V30 4297 C 435.227 2.58844 -0.994728 0
M  V30 4298 H 438.178 1.24796 -0.98039 0
M  V30 4299 H 438.199 3.80468 -0.0490648 0
M  V30 4300 H 437.711 3.42087 -1.83299 0
M  V30 4301 H 435.812 3.6741 0.619739 0
M  V30 4302 H 435.925 4.69272 -0.965415 0
M  V30 4303 H 434.289 2.51245 -0.418087 0
M  V30 4304 H 435.072 2.73525 -2.07458 0
M  V30 4305 N 437.518 0.538854 1.48102 0
M  V30 4306 C 438.766 0.00798599 2.02098 0
M  V30 4307 C 439.087 -1.33922 1.41739 0
M  V30 4308 O 438.357 -1.86932 0.585934 0
M  V30 4309 H 436.937 -3.62179e-05 0.747 0
M  V30 4310 H 439.599 0.7047 1.81714 0
M  V30 4311 H 438.695 -0.0937672 3.11959 0
M  V30 4312 N 438.996 -1.55193 0.274407 0
M  V30 4313 C 439.943 -2.225 -0.613374 0
M  V30 4314 C 440.913 -1.19823 -1.15029 0
M  V30 4315 O 442.098 -1.48362 -1.19973 0
M  V30 4316 C 439.238 -2.94927 -1.79199 0
M  V30 4317 C 438.351 -4.12322 -1.28899 0
M  V30 4318 C 437.486 -4.72394 -2.42934 0
M  V30 4319 C 436.525 -5.81984 -1.89634 0
M  V30 4320 N 435.662 -6.36123 -2.9714 0
M  V30 4321 H 440.502 -2.97982 -0.032756 0
M  V30 4322 H 438.039 -1.47099 -0.00440146 0
M  V30 4323 H 439.997 -3.35134 -2.48478 0
M  V30 4324 H 438.627 -2.2187 -2.34465 0
M  V30 4325 H 437.679 -3.7724 -0.489327 0
M  V30 4326 H 438.991 -4.91355 -0.858587 0
M  V30 4327 H 438.145 -5.15317 -3.20208 0
M  V30 4328 H 436.884 -3.92636 -2.8929 0
M  V30 4329 H 435.889 -5.38511 -1.1084 0
M  V30 4330 H 437.114 -6.6361 -1.44215 0
M  V30 4331 H 435.06 -5.59259 -3.42878 0
M  V30 4332 H 434.977 -7.10427 -2.58515 0
M  V30 4333 H 436.245 -6.83704 -3.74391 0
M  V30 4334 N 440.474 -0.00167713 -1.576 0
M  V30 4335 C 441.404 0.988091 -2.11563 0
M  V30 4336 C 442.385 1.35736 -1.02517 0
M  V30 4337 O 443.57 1.44082 -1.30208 0
M  V30 4338 C 440.7 2.27941 -2.62031 0
M  V30 4339 C 439.654 2.0517 -3.75619 0
M  V30 4340 C 438.98 3.4033 -4.12407 0
M  V30 4341 C 440.28 1.41294 -5.02825 0
M  V30 4342 H 441.974 0.538771 -2.94513 0
M  V30 4343 H 439.52 0.257712 -1.41675 0
M  V30 4344 H 441.473 2.97539 -2.9841 0
M  V30 4345 H 440.197 2.74989 -1.76205 0
M  V30 4346 H 438.856 1.37998 -3.39635 0
M  V30 4347 H 438.504 3.85085 -3.23603 0
M  V30 4348 H 438.204 3.25909 -4.88935 0
M  V30 4349 H 439.728 4.1124 -4.51347 0
M  V30 4350 H 441.142 2.00851 -5.36965 0
M  V30 4351 H 439.539 1.37356 -5.84169 0
M  V30 4352 H 440.609 0.382362 -4.8339 0
M  V30 4353 N 441.952 1.55251 0.271103 0
M  V30 4354 C 442.882 1.9127 1.33933 0
M  V30 4355 C 443.863 0.77478 1.5143 0
M  V30 4356 O 445.048 1.03307 1.64442 0
M  V30 4357 C 442.178 2.18627 2.69851 0
M  V30 4358 C 441.132 3.34442 2.67081 0
M  V30 4359 C 440.458 3.47284 4.06569 0
M  V30 4360 C 441.758 4.70784 2.26185 0
M  V30 4361 H 443.452 2.80744 1.04035 0
M  V30 4362 H 440.998 1.35077 0.499017 0
M  V30 4363 H 442.951 2.42413 3.44694 0
M  V30 4364 H 441.675 1.25955 3.01335 0
M  V30 4365 H 440.334 3.10627 1.94695 0
M  V30 4366 H 439.982 2.52074 4.35279 0
M  V30 4367 H 439.682 4.25152 4.0561 0
M  V30 4368 H 441.206 3.73363 4.83148 0
M  V30 4369 H 442.62 4.94102 2.90751 0
M  V30 4370 H 441.017 5.51582 2.36384 0
M  V30 4371 H 442.087 4.69478 1.21319 0
M  V30 4372 N 443.43 -0.535701 1.48216 0
M  V30 4373 C 444.679 -1.28828 1.55197 0
M  V30 4374 C 444.992 -1.94263 0.228278 0
M  V30 4375 O 446.198 -2.70927 0.176278 0
M  V30 4376 C 444.654 -2.33727 2.73678 0
M  V30 4377 C 444.262 -1.74386 4.12666 0
M  V30 4378 C 446.006 -3.1003 2.89968 0
M  V30 4379 C 443.913 -2.77192 5.22416 0
M  V30 4380 H 442.843 -0.484484 0.577747 0
M  V30 4381 H 445.494 -0.56646 1.74538 0
M  V30 4382 H 443.876 -3.08919 2.4776 0
M  V30 4383 H 445.05 -1.05421 4.48579 0
M  V30 4384 H 443.365 -1.10595 4.01445 0
M  V30 4385 H 445.962 -3.86842 3.6913 0
M  V30 4386 H 446.305 -3.65542 1.9921 0
M  V30 4387 H 446.838 -2.41952 3.15759 0
M  V30 4388 H 443.577 -2.26507 6.15122 0
M  V30 4389 H 443.097 -3.44502 4.90998 0
M  V30 4390 H 444.776 -3.40285 5.50286 0
M  V30 4391 N 444.908 -1.36708 -0.784132 0
M  V30 4392 C 446.157 -1.30559 -1.53744 0
M  V30 4393 C 446.47 0.111374 -1.95283 0
M  V30 4394 O 447.676 0.29527 -2.6989 0
M  V30 4395 C 446.132 -2.29098 -2.77565 0
M  V30 4396 C 445.74 -3.76258 -2.43174 0
M  V30 4397 C 447.484 -2.31936 -3.55536 0
M  V30 4398 C 445.391 -4.6656 -3.63422 0
M  V30 4399 H 444.321 -0.48518 -0.577162 0
M  V30 4400 H 446.972 -1.62101 -0.859981 0
M  V30 4401 H 445.354 -1.90557 -3.47137 0
M  V30 4402 H 446.528 -4.23565 -1.81465 0
M  V30 4403 H 444.843 -3.76246 -1.78403 0
M  V30 4404 H 447.44 -2.9661 -4.44889 0
M  V30 4405 H 447.783 -1.3294 -3.94503 0
M  V30 4406 H 448.316 -2.6912 -2.92949 0
M  V30 4407 H 445.055 -5.66638 -3.29547 0
M  V30 4408 H 444.575 -4.23966 -4.24279 0
M  V30 4409 H 446.254 -4.8309 -4.30387 0
M  V30 4410 N 446.386 1.0089 -1.21074 0
M  V30 4411 C 447.634 1.74262 -1.02358 0
M  V30 4412 C 447.955 1.89869 0.444393 0
M  V30 4413 O 447.225 1.44677 1.32081 0
M  V30 4414 H 445.805 0.645615 -0.375754 0
M  V30 4415 H 448.467 1.21596 -1.52317 0
M  V30 4416 H 447.563 2.74328 -1.4883 0
M  V30 4417 N 447.864 1.01787 1.20321 0
M  V30 4418 C 449.112 0.706538 1.89347 0
M  V30 4419 C 449.433 -0.766289 1.79313 0
M  V30 4420 O 448.703 -1.55126 1.19635 0
M  V30 4421 H 447.283 0.258348 0.700903 0
M  V30 4422 H 449.945 1.28974 1.46122 0
M  V30 4423 H 449.041 0.991066 2.95946 0
M  V30 4424 N 449.342 -1.36122 0.79427 0
M  V30 4425 C 450.59 -1.98718 0.368177 0
M  V30 4426 C 450.911 -1.63345 -1.06506 0
M  V30 4427 O 450.181 -0.909825 -1.73491 0
M  V30 4428 H 448.761 -0.735038 0.133146 0
M  V30 4429 H 451.423 -1.66239 1.01739 0
M  V30 4430 H 450.519 -3.08633 0.463923 0
M  V30 4431 N 450.82 -0.546701 -1.47814 0
M  V30 4432 C 452.069 -0.0166497 -2.01693 0
M  V30 4433 C 452.382 1.33721 -1.42752 0
M  V30 4434 O 453.588 1.95658 -1.8823 0
M  V30 4435 C 452.044 0.0206769 -3.59894 0
M  V30 4436 C 451.652 -1.3293 -4.27824 0
M  V30 4437 C 453.396 0.498674 -4.21561 0
M  V30 4438 C 451.303 -1.25165 -5.78003 0
M  V30 4439 H 450.233 -0.0024541 -0.753996 0
M  V30 4440 H 452.884 -0.692984 -1.69912 0
M  V30 4441 H 451.266 0.76244 -3.88591 0
M  V30 4442 H 452.44 -2.08795 -4.10781 0
M  V30 4443 H 450.755 -1.74438 -3.78101 0
M  V30 4444 H 453.352 0.575 -5.31599 0
M  V30 4445 H 453.695 1.5083 -3.88016 0
M  V30 4446 H 454.228 -0.18791 -3.97356 0
M  V30 4447 H 450.967 -2.23695 -6.1615 0
M  V30 4448 H 450.487 -0.53464 -5.97412 0
M  V30 4449 H 452.166 -0.949299 -6.39998 0
M  V30 4450 N 452.299 1.55045 -0.282633 0
M  V30 4451 C 453.548 1.98938 0.332667 0
M  V30 4452 C 453.861 1.17455 1.56409 0
M  V30 4453 O 455.067 1.51527 2.25282 0
M  V30 4454 C 453.523 3.54105 0.643226 0
M  V30 4455 C 453.131 4.44374 -0.568814 0
M  V30 4456 C 454.875 4.06569 1.22074 0
M  V30 4457 C 452.782 5.90943 -0.232426 0
M  V30 4458 H 451.712 0.743043 0.128075 0
M  V30 4459 H 454.363 1.79341 -0.388464 0
M  V30 4460 H 452.745 3.69532 1.42346 0
M  V30 4461 H 453.919 4.40718 -1.34551 0
M  V30 4462 H 452.234 4.02585 -1.06369 0
M  V30 4463 H 454.831 5.13626 1.48635 0
M  V30 4464 H 455.174 3.56057 2.15707 0
M  V30 4465 H 455.707 3.94612 0.502621 0
M  V30 4466 H 452.446 6.45567 -1.13683 0
M  V30 4467 H 451.966 5.9765 0.507357 0
M  V30 4468 H 453.645 6.4677 0.172657 0
M  V30 4469 N 453.777 0.010035 1.57597 0
M  V30 4470 C 455.025 -0.671371 1.90623 0
M  V30 4471 C 455.346 -1.73753 0.885151 0
M  V30 4472 O 454.616 -1.95752 -0.0760611 0
M  V30 4473 H 453.196 -0.250968 0.703579 0
M  V30 4474 H 455.858 0.0533325 1.94827 0
M  V30 4475 H 454.954 -1.13626 2.90681 0
M  V30 4476 N 455.255 -1.55392 -0.262866 0
M  V30 4477 C 456.185 -1.91978 -1.32917 0
M  V30 4478 C 457.166 -0.7828 -1.51017 0
M  V30 4479 O 458.351 -1.04178 -1.63892 0
M  V30 4480 C 455.481 -2.20055 -2.68687 0
M  V30 4481 C 454.435 -3.35854 -2.65304 0
M  V30 4482 C 453.761 -3.49435 -4.04721 0
M  V30 4483 C 455.061 -4.71977 -2.23685 0
M  V30 4484 H 456.755 -2.81292 -1.02544 0
M  V30 4485 H 454.301 -1.3534 -0.491846 0
M  V30 4486 H 456.254 -2.44237 -3.43404 0
M  V30 4487 H 454.978 -1.27551 -3.00663 0
M  V30 4488 H 453.637 -3.11655 -1.93045 0
M  V30 4489 H 453.285 -2.54379 -4.33936 0
M  V30 4490 H 452.985 -4.27297 -4.0335 0
M  V30 4491 H 454.509 -3.7592 -4.81161 0
M  V30 4492 H 455.923 -4.95637 -2.88127 0
M  V30 4493 H 454.32 -5.52828 -2.33456 0
M  V30 4494 H 455.39 -4.70115 -1.18827 0
M  V30 4495 N 456.733 0.527833 -1.48498 0
M  V30 4496 C 457.643 1.65907 -1.65867 0
M  V30 4497 C 458.659 1.6537 -0.541192 0
M  V30 4498 O 459.835 1.84282 -0.812534 0
M  V30 4499 C 456.9 3.02364 -1.69637 0
M  V30 4500 C 455.961 3.1374 -2.93028 0
M  V30 4501 C 455.194 4.43688 -2.96609 0
M  V30 4502 O 455.417 5.30913 -2.08538 0
M  V30 4503 O 454.351 4.59475 -3.88802 0
M  V30 4504 H 458.177 1.5419 -2.61647 0
M  V30 4505 H 455.762 0.701163 -1.31924 0
M  V30 4506 H 457.644 3.83515 -1.74625 0
M  V30 4507 H 456.319 3.14401 -0.770312 0
M  V30 4508 H 455.226 2.31877 -2.93571 0
M  V30 4509 H 456.559 3.06621 -3.85026 0
M  V30 4510 N 458.211 1.37122 0.776871 0
M  V30 4511 C 459.144 1.26835 1.89705 0
M  V30 4512 C 460.122 0.14992 1.61907 0
M  V30 4513 O 461.306 0.323242 1.85708 0
M  V30 4514 C 458.433 0.95986 3.24814 0
M  V30 4515 C 457.479 2.09447 3.7153 0
M  V30 4516 S 458.312 3.71368 3.85806 0
M  V30 4517 C 459.468 3.42659 5.23771 0
M  V30 4518 H 459.701 2.21647 1.98141 0
M  V30 4519 H 457.234 1.22685 0.937433 0
M  V30 4520 H 459.192 0.788696 4.02852 0
M  V30 4521 H 457.853 0.0293137 3.14086 0
M  V30 4522 H 457.046 1.8335 4.69467 0
M  V30 4523 H 456.648 2.2255 3.00578 0
M  V30 4524 H 458.94 2.9733 6.0877 0
M  V30 4525 H 459.883 4.39905 5.54878 0
M  V30 4526 H 460.291 2.77708 4.91466 0
M  V30 4527 N 459.689 -1.00246 1.21608 0
M  V30 4528 C 460.937 -1.73717 1.0328 0
M  V30 4529 C 461.258 -1.90102 -0.434318 0
M  V30 4530 O 460.528 -1.45376 -1.31311 0
M  V30 4531 H 459.108 -0.643613 0.379172 0
M  V30 4532 H 461.77 -1.20787 1.52959 0
M  V30 4533 H 460.866 -2.73535 1.50283 0
M  V30 4534 N 461.167 -1.02423 -1.1978 0
M  V30 4535 C 462.395 -0.737456 -1.93311 0
M  V30 4536 C 462.81 0.703023 -1.75223 0
M  V30 4537 O 462.167 1.47761 -1.07112 0
M  V30 4538 C 462.218 -1.0733 -3.45199 0
M  V30 4539 O 461.939 -2.4572 -3.62702 0
M  V30 4540 C 463.44 -0.80866 -4.35862 0
M  V30 4541 H 460.66 -0.2702 -0.614193 0
M  V30 4542 H 463.204 -1.36747 -1.52054 0
M  V30 4543 H 461.359 -0.488545 -3.84307 0
M  V30 4544 H 461.773 -2.58081 -4.56612 0
M  V30 4545 H 463.247 -1.09365 -5.41057 0
M  V30 4546 H 463.724 0.257025 -4.38447 0
M  V30 4547 H 464.33 -1.37592 -4.02428 0
M  V30 4548 N 462.645 1.35699 -0.801477 0
M  V30 4549 C 463.891 1.99208 -0.380022 0
M  V30 4550 C 464.224 1.63445 1.04878 0
M  V30 4551 O 463.499 0.895223 1.72673 0
M  V30 4552 C 463.782 3.55755 -0.557708 0
M  V30 4553 C 463.635 4.01332 -2.03107 0
M  V30 4554 C 464.954 4.40096 0.0197968 0
M  V30 4555 H 462.073 0.723667 -0.139552 0
M  V30 4556 H 464.715 1.60928 -1.01006 0
M  V30 4557 H 462.865 3.88494 -0.0213741 0
M  V30 4558 H 464.537 3.79026 -2.62939 0
M  V30 4559 H 462.78 3.52429 -2.52936 0
M  V30 4560 H 463.451 5.10234 -2.1063 0
M  V30 4561 H 465.927 4.13786 -0.438179 0
M  V30 4562 H 464.803 5.48735 -0.134477 0
M  V30 4563 H 465.064 4.2786 1.11303 0
M  V30 4564 N 464.123 0.554532 1.47522 0
M  V30 4565 C 465.353 0.0342074 2.06572 0
M  V30 4566 C 465.761 -1.26375 1.40805 0
M  V30 4567 O 465.104 -1.7683 0.49769 0
M  V30 4568 C 465.166 -0.235096 3.5873 0
M  V30 4569 C 464.83 0.973024 4.46521 0
M  V30 4570 C 465.827 1.8779 4.848 0
M  V30 4571 C 463.512 1.18694 4.88075 0
M  V30 4572 C 465.506 2.98039 5.63428 0
M  V30 4573 C 463.193 2.29254 5.66468 0
M  V30 4574 C 464.191 3.18757 6.04055 0
M  V30 4575 O 463.879 4.27401 6.8087 0
M  V30 4576 H 463.611 0.041587 0.67472 0
M  V30 4577 H 466.165 0.766748 1.90552 0
M  V30 4578 H 464.395 -1.02191 3.72953 0
M  V30 4579 H 466.084 -0.700477 3.9981 0
M  V30 4580 H 466.85 1.72467 4.53299 0
M  V30 4581 H 462.729 0.49947 4.58286 0
M  V30 4582 H 466.273 3.67926 5.92685 0
M  V30 4583 H 462.17 2.4455 5.97382 0
M  V30 4584 H 462.938 4.25415 6.9926 0
M  V30 4585 N 465.601 -1.54893 0.290851 0
M  V30 4586 C 466.826 -2.04804 -0.32712 0
M  V30 4587 C 467.251 -1.16721 -1.47506 0
M  V30 4588 O 466.609 -0.169107 -1.8051 0
M  V30 4589 C 466.657 -3.52268 -0.770689 0
M  V30 4590 O 465.761 -3.67236 -1.87647 0
M  V30 4591 H 465.102 -0.660789 -0.0652227 0
M  V30 4592 H 467.632 -2.00036 0.429739 0
M  V30 4593 H 467.642 -3.9393 -1.06223 0
M  V30 4594 H 466.317 -4.15843 0.069096 0
M  V30 4595 H 464.894 -3.37479 -1.58626 0
M  V30 4596 N 467.08 -0.0183926 -1.57589 0
M  V30 4597 C 468.308 0.673046 -1.95647 0
M  V30 4598 C 468.723 1.66275 -0.894312 0
M  V30 4599 O 468.08 1.82072 0.124975 0
M  V30 4600 C 468.131 1.38884 -3.33756 0
M  V30 4601 O 467.852 0.438806 -4.35897 0
M  V30 4602 C 469.353 2.1731 -3.86383 0
M  V30 4603 H 466.573 0.186292 -0.644621 0
M  V30 4604 H 469.117 -0.0749748 -2.04363 0
M  V30 4605 H 467.272 2.08835 -3.26293 0
M  V30 4606 H 467.686 0.945869 -5.15901 0
M  V30 4607 H 469.16 2.62863 -4.85394 0
M  V30 4608 H 469.637 3.00764 -3.20059 0
M  V30 4609 H 470.243 1.52339 -3.97081 0
M  V30 4610 N 468.558 1.5553 0.254621 0
M  V30 4611 C 469.488 1.9268 1.31897 0
M  V30 4612 C 470.469 0.790797 1.506 0
M  V30 4613 O 471.654 1.05045 1.63337 0
M  V30 4614 C 468.784 2.21477 2.67517 0
M  V30 4615 C 467.738 3.37256 2.63519 0
M  V30 4616 C 467.064 3.51576 4.02862 0
M  V30 4617 C 468.364 4.73157 2.21179 0
M  V30 4618 H 470.058 2.81832 1.01051 0
M  V30 4619 H 467.604 1.35599 0.484662 0
M  V30 4620 H 469.557 2.46055 3.42104 0
M  V30 4621 H 468.281 1.29144 2.99982 0
M  V30 4622 H 466.94 3.12675 1.9139 0
M  V30 4623 H 466.588 2.56676 4.32581 0
M  V30 4624 H 466.288 4.2943 4.01078 0
M  V30 4625 H 467.812 3.78467 4.79161 0
M  V30 4626 H 469.226 4.97158 2.85494 0
M  V30 4627 H 467.623 5.54058 2.30521 0
M  V30 4628 H 468.693 4.70739 1.16332 0
M  V30 4629 N 470.036 -0.519951 1.48776 0
M  V30 4630 C 471.284 -1.2727 1.56993 0
M  V30 4631 C 471.605 -1.9339 0.25004 0
M  V30 4632 O 470.875 -1.81822 -0.729216 0
M  V30 4633 H 469.455 -0.472732 0.578389 0
M  V30 4634 H 472.117 -0.604234 1.85297 0
M  V30 4635 H 471.213 -2.04669 2.3562 0
M  V30 4636 N 471.514 -1.37532 -0.769588 0
M  V30 4637 C 472.739 -1.36231 -1.56384 0
M  V30 4638 C 473.164 0.0495849 -1.88035 0
M  V30 4639 O 472.522 1.02723 -1.49391 0
M  V30 4640 C 472.57 -2.20986 -2.84952 0
M  V30 4641 O 471.674 -1.61597 -3.79421 0
M  V30 4642 H 471.015 -0.465387 -0.473615 0
M  V30 4643 H 473.545 -1.81085 -0.952342 0
M  V30 4644 H 473.555 -2.34277 -3.34034 0
M  V30 4645 H 472.23 -3.23612 -2.61243 0
M  V30 4646 H 470.807 -1.57359 -3.38072 0
M  V30 4647 N 472.992 0.995999 -1.22138 0
M  V30 4648 C 474.408 1.25917 -0.980667 0
M  V30 4649 C 474.608 1.98819 0.327604 0
M  V30 4650 O 473.664 2.29587 1.05101 0
M  V30 4651 C 474.977 2.07399 -2.17729 0
M  V30 4652 C 476.525 2.20594 -2.22052 0
M  V30 4653 C 477 3.05462 -3.41258 0
M  V30 4654 N 478.491 3.13049 -3.41401 0
M  V30 4655 C 479.226 3.78997 -4.30289 0
M  V30 4656 N 478.722 4.46899 -5.2939 0
M  V30 4657 N 480.515 3.75728 -4.18073 0
M  V30 4658 H 472.666 0.507158 -2.06256 0
M  V30 4659 H 474.929 0.28658 -0.903646 0
M  V30 4660 H 474.635 1.61191 -3.12586 0
M  V30 4661 H 474.509 3.08154 -2.17534 0
M  V30 4662 H 476.896 2.66017 -1.27745 0
M  V30 4663 H 476.977 1.1928 -2.26287 0
M  V30 4664 H 476.621 2.60739 -4.35864 0
M  V30 4665 H 476.551 4.06911 -3.34262 0
M  V30 4666 H 479.042 2.64721 -2.69688 0
M  V30 4667 H 479.355 4.94952 -5.935 0
M  V30 4668 H 477.7 4.45657 -5.33306 0
M  V30 4669 H 480.891 3.2184 -3.39907 0
M  V30 4670 H 481.064 4.26845 -4.87553 0
M  V30 4671 N 474.47 1.03057 1.19235 0
M  V30 4672 C 475.4 0.633497 2.24742 0
M  V30 4673 C 476.381 -0.358335 1.66283 0
M  V30 4674 O 477.566 -0.240676 1.92703 0
M  V30 4675 C 474.696 -0.0147648 3.47297 0
M  V30 4676 C 473.65 0.899527 4.18441 0
M  V30 4677 C 472.976 0.116281 5.34574 0
M  V30 4678 C 474.276 2.21404 4.73051 0
M  V30 4679 H 475.97 1.5155 2.58211 0
M  V30 4680 H 473.516 0.73014 1.24117 0
M  V30 4681 H 475.469 -0.304202 4.20301 0
M  V30 4682 H 474.193 -0.931577 3.13032 0
M  V30 4683 H 472.852 1.17319 3.47321 0
M  V30 4684 H 472.5 -0.802619 4.96555 0
M  V30 4685 H 472.2 0.725293 5.83107 0
M  V30 4686 H 473.724 -0.166376 6.10373 0
M  V30 4687 H 475.138 1.98601 5.37802 0
M  V30 4688 H 473.535 2.77512 5.32078 0
M  V30 4689 H 474.605 2.86752 3.91026 0
M  V30 4690 N 475.948 -1.35272 0.808662 0
M  V30 4691 C 477.225 -1.93077 0.313181 0
M  V30 4692 C 477.605 -1.73847 -1.19752 0
M  V30 4693 O 476.953 -1.1087 -1.998 0
M  V30 4694 C 477.163 -3.41347 0.726859 0
M  V30 4695 C 478.511 -4.18493 0.717532 0
M  V30 4696 O 479.535 -3.4987 0.668535 0
M  V30 4697 O 478.394 -5.40937 0.777779 0
M  V30 4698 H 475.488 -0.822885 0.0824018 0
M  V30 4699 H 478.034 -1.44335 0.892499 0
M  V30 4700 H 476.806 -3.49082 1.76797 0
M  V30 4701 H 476.429 -3.97411 0.122461 0
M  V30 4702 N 477.426 -0.562348 -1.47226 0
M  V30 4703 C 478.672 -0.0402761 -2.0276 0
M  V30 4704 C 479.005 1.30823 -1.43523 0
M  V30 4705 O 478.28 1.85249 -0.592705 0
M  V30 4706 C 478.563 0.047311 -3.60069 0
M  V30 4707 C 478.416 -1.32865 -4.29729 0
M  V30 4708 C 479.735 0.758182 -4.3352 0
M  V30 4709 H 476.854 -0.0161105 -0.736824 0
M  V30 4710 H 479.496 -0.725628 -1.75598 0
M  V30 4711 H 477.646 0.630986 -3.83342 0
M  V30 4712 H 479.318 -1.95593 -4.17781 0
M  V30 4713 H 477.561 -1.90195 -3.89882 0
M  V30 4714 H 478.232 -1.22004 -5.38349 0
M  V30 4715 H 480.708 0.262546 -4.15271 0
M  V30 4716 H 479.584 0.78844 -5.43208 0
M  V30 4717 H 479.845 1.81537 -4.03109 0
M  V30 4718 N 478.904 1.54736 -0.299062 0
M  V30 4719 C 480.15 2.00397 0.311244 0
M  V30 4720 C 480.483 1.18716 1.53688 0
M  V30 4721 O 479.758 0.263154 1.92712 0
M  V30 4722 C 480.041 3.53817 0.669761 0
M  V30 4723 C 479.894 4.46239 -0.564882 0
M  V30 4724 C 481.213 4.13856 1.49702 0
M  V30 4725 H 478.332 0.728493 0.111653 0
M  V30 4726 H 480.974 1.85506 -0.410774 0
M  V30 4727 H 479.124 3.66637 1.28491 0
M  V30 4728 H 480.796 4.45328 -1.20337 0
M  V30 4729 H 479.039 4.16916 -1.19849 0
M  V30 4730 H 479.71 5.5134 -0.269918 0
M  V30 4731 H 482.186 4.04461 0.977284 0
M  V30 4732 H 481.062 5.21365 1.71666 0
M  V30 4733 H 481.323 3.65608 2.48563 0
M  V30 4734 N 480.382 0.0267497 1.57577 0
M  V30 4735 C 481.292 -0.971633 2.13533 0
M  V30 4736 C 482.308 -1.35868 1.08701 0
M  V30 4737 O 483.484 -1.44058 1.40746 0
M  V30 4738 C 480.549 -2.23622 2.64941 0
M  V30 4739 C 479.61 -1.90982 3.8448 0
M  V30 4740 C 478.843 -3.11411 4.33427 0
M  V30 4741 O 479.066 -4.23992 3.81558 0
M  V30 4742 O 478 -2.93848 5.25297 0
M  V30 4743 H 481.826 -0.525853 2.99113 0
M  V30 4744 H 479.411 -0.193712 1.48139 0
M  V30 4745 H 481.293 -2.97864 2.98086 0
M  V30 4746 H 479.968 -2.67386 1.82446 0
M  V30 4747 H 478.875 -1.14132 3.56265 0
M  V30 4748 H 480.208 -1.52036 4.6813 0
M  V30 4749 N 481.861 -1.55662 -0.24637 0
M  V30 4750 C 482.794 -1.85332 -1.33143 0
M  V30 4751 C 483.772 -0.708464 -1.46354 0
M  V30 4752 O 484.956 -0.954274 -1.6256 0
M  V30 4753 C 482.083 -2.0385 -2.70487 0
M  V30 4754 C 481.129 -3.26488 -2.74423 0
M  V30 4755 S 481.962 -4.83124 -2.30979 0
M  V30 4756 C 483.118 -5.04647 -3.70246 0
M  V30 4757 H 483.351 -2.77077 -1.07777 0
M  V30 4758 H 480.884 -1.47776 -0.44738 0
M  V30 4759 H 482.842 -2.15202 -3.49569 0
M  V30 4760 H 481.503 -1.12947 -2.9309 0
M  V30 4761 H 480.696 -3.36413 -3.7529 0
M  V30 4762 H 480.298 -3.13864 -2.03385 0
M  V30 4763 H 482.59 -4.92023 -4.65746 0
M  V30 4764 H 483.533 -6.06625 -3.65255 0
M  V30 4765 H 483.941 -4.32491 -3.62784 0
M  V30 4766 N 483.339 0.512053 -1.4905 0
M  V30 4767 C 484.272 1.63209 -1.59493 0
M  V30 4768 C 485.25 1.56407 -0.444481 0
M  V30 4769 O 486.434 1.76623 -0.658535 0
M  V30 4770 C 483.561 3.01685 -1.53961 0
M  V30 4771 C 482.607 3.26786 -2.74068 0
M  V30 4772 S 483.44 3.11107 -4.35859 0
M  V30 4773 C 484.596 4.51997 -4.32954 0
M  V30 4774 H 484.829 1.54104 -2.54243 0
M  V30 4775 H 482.362 0.696382 -1.37804 0
M  V30 4776 H 484.32 3.81538 -1.51455 0
M  V30 4777 H 482.981 3.08215 -0.605178 0
M  V30 4778 H 482.174 4.27849 -2.66386 0
M  V30 4779 H 481.776 2.54635 -2.73928 0
M  V30 4780 H 484.068 5.43871 -4.03993 0
M  V30 4781 H 485.011 4.64731 -5.34257 0
M  V30 4782 H 485.419 4.32159 -3.63178 0
M  V30 4783 N 484.817 1.37938 0.762283 0
M  V30 4784 C 486.094 1.24196 1.51112 0
M  V30 4785 C 486.474 -0.160409 2.1049 0
M  V30 4786 O 485.822 -1.16904 1.96331 0
M  V30 4787 C 486.032 2.34537 2.58445 0
M  V30 4788 C 487.38 2.7254 3.25588 0
M  V30 4789 O 488.404 2.33783 2.68745 0
M  V30 4790 O 487.263 3.39343 4.28379 0
M  V30 4791 H 484.357 0.485175 0.669727 0
M  V30 4792 H 486.903 1.49743 0.798438 0
M  V30 4793 H 485.675 3.28406 2.12756 0
M  V30 4794 H 485.298 2.10505 3.37303 0
M  V30 4795 N 486.295 -0.989507 1.22664 0
M  V30 4796 C 487.543 -1.72612 1.05117 0
M  V30 4797 C 487.864 -1.90552 -0.414131 0
M  V30 4798 O 487.134 -1.4676 -1.29762 0
M  V30 4799 H 485.714 -0.639555 0.385977 0
M  V30 4800 H 488.376 -1.19158 1.54232 0
M  V30 4801 H 487.472 -2.71926 1.53175 0
M  V30 4802 N 487.773 -1.03688 -1.18687 0
M  V30 4803 C 488.703 -0.645407 -2.24403 0
M  V30 4804 C 489.684 0.349511 -1.66471 0
M  V30 4805 O 490.869 0.230453 -1.92828 0
M  V30 4806 C 487.999 -0.00365337 -3.473 0
M  V30 4807 C 486.953 -0.921705 -4.17958 0
M  V30 4808 C 486.279 -0.144629 -5.34504 0
M  V30 4809 C 487.579 -2.23909 -4.71871 0
M  V30 4810 H 489.273 -1.52917 -2.57404 0
M  V30 4811 H 486.819 -0.736711 -1.23728 0
M  V30 4812 H 488.772 0.281908 -4.20456 0
M  V30 4813 H 487.496 0.914963 -3.13522 0
M  V30 4814 H 486.155 -1.19159 -3.46694 0
M  V30 4815 H 485.803 0.776274 -4.96974 0
M  V30 4816 H 485.503 -0.756206 -5.82714 0
M  V30 4817 H 487.027 0.134004 -6.10453 0
M  V30 4818 H 488.441 -2.0145 -5.36741 0
M  V30 4819 H 486.838 -2.8033 -5.30599 0
M  V30 4820 H 487.908 -2.88822 -3.895 0
M  V30 4821 N 489.251 1.34841 -0.815825 0
M  V30 4822 C 490.184 2.27504 -0.178062 0
M  V30 4823 C 491.162 1.48542 0.661373 0
M  V30 4824 O 492.346 1.77779 0.626653 0
M  V30 4825 C 489.473 3.30246 0.752002 0
M  V30 4826 C 488.519 4.26499 -0.00899172 0
M  V30 4827 S 489.352 5.18169 -1.35134 0
M  V30 4828 C 490.508 6.24449 -0.42596 0
M  V30 4829 H 490.741 2.81248 -0.963684 0
M  V30 4830 H 488.274 1.41781 -0.611355 0
M  V30 4831 H 490.232 3.89933 1.28308 0
M  V30 4832 H 488.893 2.75363 1.51109 0
M  V30 4833 H 488.086 4.99146 0.697766 0
M  V30 4834 H 487.688 3.7103 -0.470396 0
M  V30 4835 H 489.98 6.76404 0.385234 0
M  V30 4836 H 490.923 6.99156 -1.1219 0
M  V30 4837 H 491.331 5.64497 -0.0175461 0
M  V30 4838 N 490.729 0.570148 1.46925 0
M  V30 4839 C 491.661 -0.207909 2.28255 0
M  V30 4840 C 492.674 -0.867301 1.37774 0
M  V30 4841 O 493.863 -0.738976 1.62485 0
M  V30 4842 C 490.963 -1.31298 3.12433 0
M  V30 4843 C 490.136 -0.747915 4.30958 0
M  V30 4844 C 489.195 -1.7391 4.9663 0
M  V30 4845 O 488.221 -1.2801 5.54619 0
M  V30 4846 N 489.423 -3.07288 4.92498 0
M  V30 4847 H 492.188 0.489794 2.95671 0
M  V30 4848 H 489.749 0.407076 1.56699 0
M  V30 4849 H 491.741 -1.97507 3.53232 0
M  V30 4850 H 490.311 -1.91373 2.47175 0
M  V30 4851 H 489.531 0.0913066 3.94094 0
M  V30 4852 H 490.819 -0.349958 5.07595 0
M  V30 4853 H 490.217 -3.47213 4.46609 0
M  V30 4854 H 488.774 -3.69021 5.37277 0
M  V30 4855 N 492.207 -1.54576 0.307264 0
M  V30 4856 C 493.455 -1.99867 -0.299574 0
M  V30 4857 C 493.776 -1.19714 -1.53927 0
M  V30 4858 O 493.046 -0.29472 -1.9367 0
M  V30 4859 H 491.626 -0.738299 -0.113683 0
M  V30 4860 H 494.288 -1.9032 0.420042 0
M  V30 4861 H 493.384 -3.06901 -0.567283 0
M  V30 4862 N 493.685 -0.035106 -1.57561 0
M  V30 4863 C 494.648 0.929819 -2.09492 0
M  V30 4864 C 495.648 1.25026 -1.01119 0
M  V30 4865 O 496.838 1.18961 -1.27255 0
M  V30 4866 C 493.97 2.24457 -2.56577 0
M  V30 4867 H 495.163 0.479935 -2.96035 0
M  V30 4868 H 492.716 0.213033 -1.54841 0
M  V30 4869 H 493.451 2.74061 -1.73382 0
M  V30 4870 H 493.236 2.02508 -3.35757 0
M  V30 4871 H 494.726 2.93607 -2.96959 0
M  V30 4872 N 495.163 1.55791 0.238111 0
M  V30 4873 C 496.44 1.68798 0.98826 0
M  V30 4874 C 496.82 0.577562 2.03045 0
M  V30 4875 O 496.168 -0.41778 2.24648 0
M  V30 4876 C 496.378 3.09454 1.61367 0
M  V30 4877 C 497.726 3.68335 2.11221 0
M  V30 4878 O 498.75 3.1231 1.71292 0
M  V30 4879 O 497.609 4.6657 2.84561 0
M  V30 4880 H 494.703 0.686881 0.460568 0
M  V30 4881 H 497.249 1.68118 0.231202 0
M  V30 4882 H 496.021 3.81726 0.860295 0
M  V30 4883 H 495.644 3.14182 2.4367 0
M  V30 4884 N 496.642 -0.504142 1.49319 0
M  V30 4885 C 498.058 -0.835039 1.36012 0
M  V30 4886 C 498.258 -1.97674 0.390808 0
M  V30 4887 O 497.314 -2.51867 -0.178655 0
M  V30 4888 C 498.627 -1.17821 2.76656 0
M  V30 4889 C 500.175 -1.2866 2.85334 0
M  V30 4890 C 500.65 -1.66307 4.26739 0
M  V30 4891 N 502.141 -1.73362 4.29534 0
M  V30 4892 C 502.876 -2.0393 5.35911 0
M  V30 4893 N 502.372 -2.32744 6.52535 0
M  V30 4894 N 504.165 -2.05155 5.23324 0
M  V30 4895 H 496.316 0.248764 2.10938 0
M  V30 4896 H 498.579 0.0486962 0.946748 0
M  V30 4897 H 498.285 -0.412682 3.4927 0
M  V30 4898 H 498.159 -2.12239 3.11825 0
M  V30 4899 H 500.546 -2.04285 2.1296 0
M  V30 4900 H 500.627 -0.323004 2.53752 0
M  V30 4901 H 500.271 -0.91234 4.99639 0
M  V30 4902 H 500.201 -2.63761 4.55782 0
M  V30 4903 H 502.692 -1.53268 3.45424 0
M  V30 4904 H 503.005 -2.55248 7.2943 0
M  V30 4905 H 501.35 -2.30207 6.55767 0
M  V30 4906 H 504.541 -1.82119 4.3122 0
M  V30 4907 H 504.714 -2.28644 6.06322 0
M  V30 4908 N 498.12 -1.38341 -0.754957 0
M  V30 4909 C 499.397 -1.24995 -1.50451 0
M  V30 4910 C 499.777 0.149244 -2.10572 0
M  V30 4911 O 499.125 1.15861 -1.96948 0
M  V30 4912 C 499.335 -2.35904 -2.57197 0
M  V30 4913 C 500.683 -2.74262 -3.24138 0
M  V30 4914 O 501.707 -2.35205 -2.67501 0
M  V30 4915 O 500.566 -3.4161 -4.26574 0
M  V30 4916 H 497.66 -0.48872 -0.667144 0
M  V30 4917 H 500.206 -1.50165 -0.790486 0
M  V30 4918 H 498.978 -3.2953 -2.11011 0
M  V30 4919 H 498.601 -2.12291 -3.36182 0
M  V30 4920 N 499.598 0.982988 -1.23187 0
M  V30 4921 C 500.528 2.09301 -1.03515 0
M  V30 4922 C 501.509 1.70035 0.0471136 0
M  V30 4923 O 502.694 1.93847 -0.117029 0
M  V30 4924 C 499.824 3.4167 -0.622791 0
M  V30 4925 C 498.778 3.94828 -1.65211 0
M  V30 4926 C 498.104 5.23362 -1.09527 0
M  V30 4927 C 499.404 4.2439 -3.04451 0
M  V30 4928 H 501.098 2.26016 -1.96359 0
M  V30 4929 H 498.644 1.08611 -0.945501 0
M  V30 4930 H 500.597 4.18746 -0.472233 0
M  V30 4931 H 499.321 3.24811 0.341329 0
M  V30 4932 H 497.98 3.19895 -1.79061 0
M  V30 4933 H 497.628 5.02852 -0.122211 0
M  V30 4934 H 497.328 5.59895 -1.783 0
M  V30 4935 H 498.852 6.03062 -0.956511 0
M  V30 4936 H 500.266 4.92225 -2.93917 0
M  V30 4937 H 498.663 4.72118 -3.70438 0
M  V30 4938 H 499.733 3.31765 -3.53638 0
M  V30 4939 N 501.076 1.04316 1.18135 0
M  V30 4940 C 502.322 0.749128 1.88457 0
M  V30 4941 C 502.655 -0.72149 1.803 0
M  V30 4942 O 501.93 -1.52676 1.205 0
M  V30 4943 C 502.213 1.21905 3.38838 0
M  V30 4944 C 502.066 2.75195 3.55792 0
M  V30 4945 C 503.385 0.811085 4.32561 0
M  V30 4946 H 500.504 0.273611 0.684329 0
M  V30 4947 H 503.146 1.29561 1.38975 0
M  V30 4948 H 501.296 0.754137 3.8111 0
M  V30 4949 H 502.968 3.29743 3.22595 0
M  V30 4950 H 501.211 3.14899 2.98364 0
M  V30 4951 H 501.882 3.03135 4.61317 0
M  V30 4952 H 504.358 1.21118 3.98082 0
M  V30 4953 H 503.234 1.16761 5.36338 0
M  V30 4954 H 503.495 -0.285596 4.41177 0
M  V30 4955 N 502.554 -1.34406 0.822964 0
M  V30 4956 C 503.501 -2.29519 0.24284 0
M  V30 4957 C 504.471 -1.5359 -0.632397 0
M  V30 4958 O 505.656 -1.8196 -0.57403 0
M  V30 4959 C 502.796 -3.40032 -0.58925 0
M  V30 4960 C 501.909 -4.30899 0.308236 0
M  V30 4961 C 501.044 -5.28515 -0.533425 0
M  V30 4962 C 500.083 -6.1102 0.363444 0
M  V30 4963 N 499.22 -7.00725 -0.439147 0
M  V30 4964 H 504.06 -2.78537 1.05929 0
M  V30 4965 H 501.597 -1.3707 0.533872 0
M  V30 4966 H 503.555 -4.0279 -1.087 0
M  V30 4967 H 502.185 -2.92248 -1.37081 0
M  V30 4968 H 501.237 -3.69002 0.924203 0
M  V30 4969 H 502.549 -4.88717 0.997862 0
M  V30 4970 H 501.703 -5.96725 -1.09565 0
M  V30 4971 H 500.442 -4.71235 -1.25656 0
M  V30 4972 H 499.447 -5.41743 0.937812 0
M  V30 4973 H 500.672 -6.70381 1.08469 0
M  V30 4974 H 498.618 -6.45913 -1.14595 0
M  V30 4975 H 498.535 -7.55756 0.19209 0
M  V30 4976 H 499.803 -7.73263 -0.984124 0
M  V30 4977 N 504.032 -0.577932 -1.46621 0
M  V30 4978 C 505.278 -0.0617793 -2.02706 0
M  V30 4979 C 505.611 1.29294 -1.44903 0
M  V30 4980 O 504.886 1.8461 -0.61232 0
M  V30 4981 C 505.169 0.00911824 -3.60099 0
M  V30 4982 C 505.022 -1.37416 -4.28295 0
M  V30 4983 C 506.341 0.712159 -4.343 0
M  V30 4984 H 503.46 -0.0239246 -0.736612 0
M  V30 4985 H 506.102 -0.744211 -1.74818 0
M  V30 4986 H 504.252 0.590292 -3.83989 0
M  V30 4987 H 505.924 -2.00013 -4.15683 0
M  V30 4988 H 504.167 -1.94319 -3.87843 0
M  V30 4989 H 504.838 -1.27707 -5.37024 0
M  V30 4990 H 507.314 0.218486 -4.15526 0
M  V30 4991 H 506.19 0.730782 -5.44014 0
M  V30 4992 H 506.451 1.77251 -4.05012 0
M  V30 4993 N 505.51 1.54411 -0.315457 0
M  V30 4994 C 506.756 2.01425 0.282775 0
M  V30 4995 C 507.111 1.19978 1.5041 0
M  V30 4996 O 506.404 0.271766 1.89663 0
M  V30 4997 C 506.598 3.50936 0.676652 0
M  V30 4998 C 506.427 4.46856 -0.504954 0
M  V30 4999 C 505.197 4.95275 -1.00152 0
M  V30 5000 C 507.395 4.96141 -1.35456 0
M  V30 5001 N 505.377 5.75081 -2.14838 0
M  V30 5002 C 506.748 5.73791 -2.3487 0
M  V30 5003 C 508.803 4.78299 -1.38327 0
M  V30 5004 C 507.506 6.35498 -3.36949 0
M  V30 5005 C 509.532 5.40836 -2.39271 0
M  V30 5006 C 508.894 6.1833 -3.37413 0
M  V30 5007 H 504.993 0.779078 0.0675398 0
M  V30 5008 H 507.577 1.8946 -0.448656 0
M  V30 5009 H 505.748 3.63162 1.37723 0
M  V30 5010 H 507.48 3.84728 1.25566 0
M  V30 5011 H 504.235 4.70107 -0.574123 0
M  V30 5012 H 504.659 6.19664 -2.72665 0
M  V30 5013 H 509.301 4.17956 -0.638196 0
M  V30 5014 H 507.019 6.94967 -4.12367 0
M  V30 5015 H 510.605 5.28952 -2.42284 0
M  V30 5016 H 509.485 6.65861 -4.14244 0
M  V30 5017 N 506.988 0.0434614 1.5754 0
M  V30 5018 C 507.92 -0.962586 2.08007 0
M  V30 5019 C 508.933 -1.27972 1.00634 0
M  V30 5020 O 510.122 -1.24186 1.28219 0
M  V30 5021 C 507.222 -2.28621 2.50171 0
M  V30 5022 C 506.395 -2.15214 3.80791 0
M  V30 5023 C 505.454 -3.30633 4.09351 0
M  V30 5024 O 504.48 -3.0688 4.79388 0
M  V30 5025 N 505.682 -4.54873 3.60654 0
M  V30 5026 H 508.447 -0.531891 2.94942 0
M  V30 5027 H 506.008 -0.142965 1.61268 0
M  V30 5028 H 508 -3.04689 2.66359 0
M  V30 5029 H 506.57 -2.63283 1.68525 0
M  V30 5030 H 505.79 -1.23785 3.74261 0
M  V30 5031 H 507.078 -2.03475 4.66343 0
M  V30 5032 H 506.476 -4.77063 3.04019 0
M  V30 5033 H 505.033 -5.2806 3.82094 0
M  V30 5034 N 508.466 -1.55915 -0.229846 0
M  V30 5035 C 509.413 -1.91734 -1.28478 0
M  V30 5036 C 510.383 -0.773539 -1.46988 0
M  V30 5037 O 511.568 -1.02871 -1.60693 0
M  V30 5038 C 508.708 -2.23224 -2.63182 0
M  V30 5039 C 507.821 -3.50497 -2.52539 0
M  V30 5040 C 506.956 -3.71474 -3.79711 0
M  V30 5041 C 505.995 -4.92289 -3.63755 0
M  V30 5042 N 505.132 -5.09698 -4.82858 0
M  V30 5043 H 509.972 -2.81692 -0.972308 0
M  V30 5044 H 507.509 -1.39429 -0.468815 0
M  V30 5045 H 509.467 -2.3949 -3.41614 0
M  V30 5046 H 508.097 -1.36451 -2.92542 0
M  V30 5047 H 507.149 -3.4247 -1.65585 0
M  V30 5048 H 508.461 -4.39079 -2.36666 0
M  V30 5049 H 507.615 -3.87791 -4.66586 0
M  V30 5050 H 506.354 -2.81157 -3.985 0
M  V30 5051 H 505.359 -4.7593 -2.75264 0
M  V30 5052 H 506.584 -5.84083 -3.46445 0
M  V30 5053 H 504.53 -4.22322 -5.01976 0
M  V30 5054 H 504.447 -5.92399 -4.69681 0
M  V30 5055 H 505.715 -5.30443 -5.71183 0
M  V30 5056 N 509.944 0.496216 -1.49584 0
M  V30 5057 C 510.876 1.61404 -1.62731 0
M  V30 5058 C 511.889 1.54613 -0.50978 0
M  V30 5059 O 513.078 1.60458 -0.782017 0
M  V30 5060 C 510.178 3.00212 -1.57245 0
M  V30 5061 C 509.351 3.32138 -2.84611 0
M  V30 5062 C 508.41 4.5038 -2.72112 0
M  V30 5063 O 507.436 4.51926 -3.46051 0
M  V30 5064 N 508.638 5.50575 -1.83977 0
M  V30 5065 H 511.403 1.50552 -2.59141 0
M  V30 5066 H 508.964 0.684182 -1.46733 0
M  V30 5067 H 510.956 3.77241 -1.4653 0
M  V30 5068 H 509.526 3.04964 -0.686729 0
M  V30 5069 H 508.746 2.4396 -3.09641 0
M  V30 5070 H 510.034 3.50268 -3.69039 0
M  V30 5071 H 509.432 5.52128 -1.23171 0
M  V30 5072 H 507.989 6.26687 -1.79182 0
M  V30 5073 N 511.423 1.38739 0.74761 0
M  V30 5074 C 512.371 1.36573 1.88283 0
M  V30 5075 C 513.365 0.250712 1.67534 0
M  V30 5076 O 514.571 0.420073 1.7503 0
M  V30 5077 H 510.946 0.42619 0.619569 0
M  V30 5078 H 512.917 2.32356 1.87226 0
M  V30 5079 C 511.666 1.21361 3.25832 0
M  V30 5080 H 510.989 2.06424 3.42388 0
M  V30 5081 H 512.429 1.23901 4.05493 0
M  V30 5082 C 510.888 -0.0790099 3.36807 0
M  V30 5083 O 511.418 -1.05385 3.8763 0
M  V30 5084 N 509.624 -0.13785 2.90273 0
M  V30 5085 H 509.171 0.656128 2.49104 0
M  V30 5086 H 509.129 -1.00228 2.97996 0
M  V30 5087 N 512.901 -0.976442 1.23707 0
M  V30 5088 C 513.811 -2.10359 1.03856 0
M  V30 5089 C 514.827 -1.73991 -0.0180919 0
M  V30 5090 O 516.003 -2.0061 0.178211 0
M  V30 5091 C 513.068 -3.40809 0.636387 0
M  V30 5092 C 512.129 -3.91179 1.76854 0
M  V30 5093 C 511.362 -5.15404 1.38546 0
M  V30 5094 O 511.585 -5.69754 0.27142 0
M  V30 5095 O 510.519 -5.5994 2.20797 0
M  V30 5096 H 514.345 -2.29997 1.98331 0
M  V30 5097 H 511.93 -1.08742 1.02448 0
M  V30 5098 H 513.812 -4.19269 0.423223 0
M  V30 5099 H 512.487 -3.22493 -0.279322 0
M  V30 5100 H 511.394 -3.13819 2.03638 0
M  V30 5101 H 512.727 -4.13958 2.6627 0
M  V30 5102 N 514.379 -1.04941 -1.1758 0
M  V30 5103 C 515.609 -0.777166 -1.91425 0
M  V30 5104 C 516.017 0.670647 -1.76915 0
M  V30 5105 O 515.36 1.46965 -1.10213 0
M  V30 5106 C 515.422 -1.07495 -3.43052 0
M  V30 5107 C 515.086 -2.51844 -3.81345 0
M  V30 5108 C 516.083 -3.50047 -3.844 0
M  V30 5109 C 513.768 -2.86787 -4.12382 0
M  V30 5110 C 515.762 -4.81239 -4.17957 0
M  V30 5111 C 513.449 -4.18182 -4.45608 0
M  V30 5112 C 514.447 -5.15219 -4.48373 0
M  V30 5113 O 514.135 -6.44258 -4.80819 0
M  V30 5114 H 513.867 -0.282209 -0.614275 0
M  V30 5115 H 516.421 -1.40258 -1.50056 0
M  V30 5116 H 514.651 -0.392437 -3.84704 0
M  V30 5117 H 516.34 -0.78912 -3.98155 0
M  V30 5118 H 517.106 -3.24391 -3.60548 0
M  V30 5119 H 512.985 -2.11922 -4.09402 0
M  V30 5120 H 516.529 -5.56974 -4.2003 0
M  V30 5121 H 512.426 -4.43602 -4.68922 0
M  V30 5122 H 513.194 -6.49041 -4.98686 0
M  V30 5123 N 515.857 1.33968 -0.830081 0
M  V30 5124 C 517.273 1.51003 -0.516742 0
M  V30 5125 C 517.473 1.77286 0.957694 0
M  V30 5126 O 516.529 1.82797 1.74188 0
M  V30 5127 C 517.842 2.67036 -1.38247 0
M  V30 5128 C 519.39 2.80919 -1.38034 0
M  V30 5129 C 519.865 4.00004 -2.23071 0
M  V30 5130 N 521.356 4.07224 -2.20733 0
M  V30 5131 C 522.091 4.98541 -2.83275 0
M  V30 5132 N 521.587 5.95033 -3.54835 0
M  V30 5133 N 523.38 4.91469 -2.72791 0
M  V30 5134 H 515.531 1.15168 -1.78466 0
M  V30 5135 H 517.794 0.565443 -0.760906 0
M  V30 5136 H 517.5 2.54266 -2.42985 0
M  V30 5137 H 517.374 3.62226 -1.05225 0
M  V30 5138 H 519.761 2.93127 -0.340713 0
M  V30 5139 H 519.842 1.86517 -1.75057 0
M  V30 5140 H 519.486 3.88557 -3.27087 0
M  V30 5141 H 519.416 4.93634 -1.83394 0
M  V30 5142 H 521.907 3.38162 -1.68687 0
M  V30 5143 H 522.22 6.61357 -3.99784 0
M  V30 5144 H 520.565 5.95135 -3.58942 0
M  V30 5145 H 523.756 4.15048 -2.16456 0
M  V30 5146 H 523.929 5.62439 -3.21818 0
M  V30 5147 N 517.335 0.585699 1.46312 0
M  V30 5148 C 518.582 0.0724211 2.0237 0
M  V30 5149 C 518.91 -1.28868 1.45683 0
M  V30 5150 O 518.165 -1.85853 0.612945 0
M  V30 5151 C 518.464 -0.0401312 3.57377 0
M  V30 5152 C 518.13 1.25376 4.33119 0
M  V30 5153 C 516.792 1.60824 4.5353 0
M  V30 5154 C 519.144 2.10987 4.76586 0
M  V30 5155 C 516.472 2.81676 5.14661 0
M  V30 5156 C 518.824 3.31068 5.39052 0
M  V30 5157 C 517.488 3.66794 5.5769 0
M  V30 5158 H 516.758 0.0265007 0.740526 0
M  V30 5159 H 519.405 0.762935 1.75646 0
M  V30 5160 H 517.71 -0.813791 3.83255 0
M  V30 5161 H 519.407 -0.453078 3.98432 0
M  V30 5162 H 515.997 0.967808 4.1753 0
M  V30 5163 H 520.181 1.84904 4.60569 0
M  V30 5164 H 515.437 3.0949 5.27282 0
M  V30 5165 H 519.611 3.97672 5.71691 0
M  V30 5166 H 517.238 4.60529 6.04828 0
M  V30 5167 N 518.813 -1.54241 0.323641 0
M  V30 5168 C 520.09 -1.92741 -0.333181 0
M  V30 5169 C 520.47 -1.25326 -1.69872 0
M  V30 5170 O 519.818 -0.396991 -2.25025 0
M  V30 5171 C 520.028 -3.46399 -0.425322 0
M  V30 5172 C 521.376 -4.19029 -0.68557 0
M  V30 5173 O 522.4 -3.52555 -0.50824 0
M  V30 5174 O 521.259 -5.36751 -1.02767 0
M  V30 5175 H 518.353 -0.804811 -0.190286 0
M  V30 5176 H 520.899 -1.65542 0.373361 0
M  V30 5177 H 519.671 -3.87643 0.533737 0
M  V30 5178 H 519.294 -3.79704 -1.17944 0
M  V30 5179 N 520.291 -0.0518155 -1.57515 0
M  V30 5180 C 521.239 0.940195 -2.12751 0
M  V30 5181 C 522.233 1.3218 -1.05948 0
M  V30 5182 O 523.439 1.30138 -1.24355 0
M  V30 5183 H 519.814 0.321066 -0.680015 0
M  V30 5184 H 521.785 0.449217 -2.94999 0
M  V30 5185 C 520.534 2.2055 -2.68799 0
M  V30 5186 H 519.857 1.92066 -3.50643 0
M  V30 5187 H 521.297 2.88119 -3.11068 0
M  V30 5188 C 519.756 2.95061 -1.62605 0
M  V30 5189 O 520.286 3.88025 -1.03921 0
M  V30 5190 N 518.492 2.57804 -1.34111 0
M  V30 5191 H 518.039 1.82281 -1.8202 0
M  V30 5192 H 517.997 3.07964 -0.632872 0
M  V30 5193 N 521.769 1.56035 0.221574 0
M  V30 5194 C 523.018 1.78245 0.944016 0
M  V30 5195 C 523.331 0.620371 1.85501 0
M  V30 5196 O 524.537 0.726103 2.6161 0
M  V30 5197 C 522.993 3.15659 1.7288 0
M  V30 5198 C 522.601 4.39591 0.863942 0
M  V30 5199 C 524.345 3.47195 2.44246 0
M  V30 5200 C 522.252 5.6803 1.64607 0
M  V30 5201 H 521.182 0.664547 0.356222 0
M  V30 5202 H 523.833 1.8243 0.197904 0
M  V30 5203 H 522.215 3.0565 2.51781 0
M  V30 5204 H 523.389 4.60655 0.115464 0
M  V30 5205 H 521.704 4.15572 0.262407 0
M  V30 5206 H 524.301 4.40381 3.03263 0
M  V30 5207 H 524.644 2.69693 3.1713 0
M  V30 5208 H 525.177 3.58533 1.72334 0
M  V30 5209 H 521.916 6.48425 0.960507 0
M  V30 5210 H 521.436 5.51027 2.36917 0
M  V30 5211 H 523.115 6.08203 2.20675 0
M  V30 5212 N 523.247 -0.488276 1.49845 0
M  V30 5213 C 524.18 -1.60651 1.62069 0
M  V30 5214 C 525.158 -1.5568 0.469308 0
M  V30 5215 O 526.342 -1.75553 0.686551 0
M  V30 5216 C 523.469 -2.99197 1.58741 0
M  V30 5217 C 522.515 -3.22385 2.79232 0
M  V30 5218 S 523.348 -3.04133 4.40753 0
M  V30 5219 C 524.504 -4.45052 4.4009 0
M  V30 5220 H 524.737 -1.50039 2.56662 0
M  V30 5221 H 522.27 -0.674371 1.38894 0
M  V30 5222 H 524.228 -3.79081 1.57506 0
M  V30 5223 H 522.889 -3.07213 0.654136 0
M  V30 5224 H 522.082 -4.23557 2.73159 0
M  V30 5225 H 521.684 -2.50245 2.77945 0
M  V30 5226 H 523.976 -5.37375 4.12594 0
M  V30 5227 H 524.919 -4.56172 5.41583 0
M  V30 5228 H 525.327 -4.26327 3.70008 0
M  V30 5229 N 524.725 -1.39134 -0.740242 0
M  V30 5230 C 525.971 -1.36273 -1.50192 0
M  V30 5231 C 526.304 0.0430136 -1.94152 0
M  V30 5232 O 525.579 1.00691 -1.66408 0
M  V30 5233 C 525.862 -2.33041 -2.74525 0
M  V30 5234 C 525.715 -3.82535 -2.36617 0
M  V30 5235 C 527.034 -2.27723 -3.76604 0
M  V30 5236 H 524.153 -0.496323 -0.544823 0
M  V30 5237 H 526.795 -1.70085 -0.846815 0
M  V30 5238 H 524.945 -2.04337 -3.30422 0
M  V30 5239 H 526.617 -4.21967 -1.86391 0
M  V30 5240 H 524.86 -3.99565 -1.68909 0
M  V30 5241 H 525.531 -4.45723 -3.2563 0
M  V30 5242 H 528.007 -2.53091 -3.30279 0
M  V30 5243 H 526.883 -2.97519 -4.61274 0
M  V30 5244 H 527.144 -1.28049 -4.2315 0
M  V30 5245 N 526.204 0.969867 -1.24223 0
M  V30 5246 C 527.152 2.08535 -1.03034 0
M  V30 5247 C 528.146 1.69366 0.0340379 0
M  V30 5248 O 529.352 1.79597 -0.12034 0
M  V30 5249 H 525.727 0.682313 -0.316154 0
M  V30 5250 H 527.698 2.23569 -1.97635 0
M  V30 5251 C 526.447 3.4158 -0.649509 0
M  V30 5252 H 525.77 3.72177 -1.46028 0
M  V30 5253 H 527.21 4.20536 -0.540841 0
M  V30 5254 C 525.669 3.30703 0.643194 0
M  V30 5255 O 526.199 3.64443 1.68951 0
M  V30 5256 N 524.405 2.83841 0.623095 0
M  V30 5257 H 523.952 2.56583 -0.228719 0
M  V30 5258 H 523.91 2.76946 1.48823 0
M  V30 5259 N 527.682 1.05563 1.17022 0
M  V30 5260 C 528.91 0.78845 1.91288 0
M  V30 5261 C 529.325 -0.656318 1.77025 0
M  V30 5262 O 528.682 -1.44869 1.10992 0
M  V30 5263 C 528.733 1.16444 3.42232 0
M  V30 5264 O 528.454 2.5525 3.5606 0
M  V30 5265 C 529.955 0.923937 4.33565 0
M  V30 5266 H 527.175 0.286389 0.606813 0
M  V30 5267 H 529.719 1.4073 1.48375 0
M  V30 5268 H 527.874 0.590266 3.82877 0
M  V30 5269 H 528.288 2.70097 4.49609 0
M  V30 5270 H 529.762 1.23672 5.37968 0
M  V30 5271 H 530.239 -0.140688 4.38975 0
M  V30 5272 H 530.845 1.48214 3.98639 0
M  V30 5273 N 529.16 -1.33526 0.837174 0
M  V30 5274 C 530.107 -2.29248 0.267169 0
M  V30 5275 C 531.077 -1.54252 -0.616071 0
M  V30 5276 O 532.262 -1.82559 -0.554699 0
M  V30 5277 C 529.402 -3.40638 -0.553152 0
M  V30 5278 C 528.515 -4.30548 0.353921 0
M  V30 5279 C 527.65 -5.29051 -0.477339 0
M  V30 5280 C 526.689 -6.106 0.42823 0
M  V30 5281 N 525.826 -7.01152 -0.364801 0
M  V30 5282 H 530.666 -2.77398 1.08877 0
M  V30 5283 H 528.203 -1.36496 0.54838 0
M  V30 5284 H 530.161 -4.03921 -1.04422 0
M  V30 5285 H 528.791 -2.93685 -1.33973 0
M  V30 5286 H 527.843 -3.68001 0.963289 0
M  V30 5287 H 529.155 -4.87631 1.04964 0
M  V30 5288 H 528.309 -5.97853 -1.0323 0
M  V30 5289 H 527.048 -4.72541 -1.2065 0
M  V30 5290 H 526.053 -5.40718 0.995219 0
M  V30 5291 H 527.278 -6.69193 1.15573 0
M  V30 5292 H 525.224 -6.47092 -1.07738 0
M  V30 5293 H 525.141 -7.5551 0.272238 0
M  V30 5294 H 526.409 -7.74263 -0.902054 0
M  V30 5295 N 530.638 -0.59345 -1.46 0
M  V30 5296 C 531.866 -0.0890934 -2.06708 0
M  V30 5297 C 532.281 1.2205 -1.44046 0
M  V30 5298 O 531.638 1.74029 -0.549551 0
M  V30 5299 C 531.689 0.0720263 -3.61428 0
M  V30 5300 O 531.41 -1.18574 -4.21748 0
M  V30 5301 C 532.911 0.609487 -4.3909 0
M  V30 5302 H 530.131 -0.0623628 -0.668096 0
M  V30 5303 H 532.675 -0.817171 -1.87464 0
M  V30 5304 H 530.83 0.750369 -3.80063 0
M  V30 5305 H 531.244 -1.0064 -5.14754 0
M  V30 5306 H 532.718 0.671363 -5.47902 0
M  V30 5307 H 533.195 1.62878 -4.07882 0
M  V30 5308 H 533.801 -0.03434 -4.25286 0
M  V30 5309 N 532.116 1.54067 -0.331816 0
M  V30 5310 C 533.362 2.01012 0.268667 0
M  V30 5311 C 533.695 1.2195 1.51136 0
M  V30 5312 O 532.97 0.303972 1.9211 0
M  V30 5313 C 533.253 3.55158 0.59456 0
M  V30 5314 C 533.106 4.4494 -0.659409 0
M  V30 5315 C 534.425 4.16939 1.4089 0
M  V30 5316 H 531.544 0.730698 0.0961756 0
M  V30 5317 H 534.186 1.84593 -0.450031 0
M  V30 5318 H 532.336 3.6928 1.20685 0
M  V30 5319 H 534.008 4.42675 -1.29756 0
M  V30 5320 H 532.251 4.1428 -1.28665 0
M  V30 5321 H 532.922 5.50643 -0.386804 0
M  V30 5322 H 535.398 4.06443 0.891272 0
M  V30 5323 H 534.274 5.24889 1.60569 0
M  V30 5324 H 534.535 3.70798 2.40752 0
M  V30 5325 N 533.594 0.0601682 1.57485 0
M  V30 5326 C 534.557 -0.896373 2.10945 0
M  V30 5327 C 535.557 -1.23402 1.03095 0
M  V30 5328 O 536.747 -1.16921 1.29132 0
M  V30 5329 C 533.879 -2.20346 2.60116 0
M  V30 5330 H 535.072 -0.432778 2.96761 0
M  V30 5331 H 532.625 -0.188372 1.55161 0
M  V30 5332 H 533.36 -2.71268 1.7772 0
M  V30 5333 H 533.145 -1.9714 3.38937 0
M  V30 5334 H 534.635 -2.88846 3.01592 0
M  V30 5335 N 535.072 -1.5615 -0.213296 0
M  V30 5336 C 536.318 -1.79812 -0.937849 0
M  V30 5337 C 536.651 -0.631201 -1.83656 0
M  V30 5338 O 535.926 0.369165 -1.90964 0
M  V30 5339 C 536.209 -3.13613 -1.76972 0
M  V30 5340 C 536.062 -4.40766 -0.89695 0
M  V30 5341 C 537.381 -3.43931 -2.7459 0
M  V30 5342 H 534.5 -0.654138 -0.339518 0
M  V30 5343 H 537.142 -1.88877 -0.20623 0
M  V30 5344 H 535.292 -3.06015 -2.39347 0
M  V30 5345 H 536.964 -4.60392 -0.289306 0
M  V30 5346 H 535.207 -4.33326 -0.202756 0
M  V30 5347 H 535.878 -5.30843 -1.51358 0
M  V30 5348 H 538.354 -3.5171 -2.22349 0
M  V30 5349 H 537.23 -4.38706 -3.29891 0
M  V30 5350 H 537.491 -2.6651 -3.52739 0
M  V30 5351 N 536.55 0.480323 -1.50102 0
M  V30 5352 C 537.46 1.60547 -1.71061 0
M  V30 5353 C 538.476 1.63564 -0.593529 0
M  V30 5354 O 539.652 1.81604 -0.870751 0
M  V30 5355 C 536.717 2.96814 -1.79171 0
M  V30 5356 C 535.778 3.04259 -3.02861 0
M  V30 5357 C 535.011 4.34027 -3.10574 0
M  V30 5358 O 535.234 5.24009 -2.25323 0
M  V30 5359 O 534.168 4.46873 -4.03223 0
M  V30 5360 H 537.994 1.45788 -2.6642 0
M  V30 5361 H 535.579 0.658838 -1.34088 0
M  V30 5362 H 537.461 3.77765 -1.86738 0
M  V30 5363 H 536.136 3.11791 -0.869947 0
M  V30 5364 H 535.043 2.22419 -3.008 0
M  V30 5365 H 536.376 2.94216 -3.94586 0
M  V30 5366 N 538.028 1.39524 0.732853 0
M  V30 5367 C 539.439 1.32905 1.31122 0
M  V30 5368 C 539.79 -0.00558708 1.96199 0
M  V30 5369 O 538.915 -0.907706 1.96443 0
M  V30 5370 C 539.51 2.40704 2.38426 0
M  V30 5371 C 538.069 2.37599 2.91931 0
M  V30 5372 C 537.216 2.2248 1.65523 0
M  V30 5373 H 540.167 1.49581 0.530207 0
M  V30 5374 H 540.188 2.07616 3.18867 0
M  V30 5375 H 539.7 3.37829 1.91033 0
M  V30 5376 H 537.801 1.44119 3.43599 0
M  V30 5377 H 537.914 3.32538 3.44899 0
M  V30 5378 H 536.278 1.69691 1.8994 0
M  V30 5379 H 537.061 3.21577 1.20178 0
M  V30 5380 N 539.506 -0.963266 1.24736 0
M  V30 5381 C 540.453 -2.05857 1.04363 0
M  V30 5382 C 541.423 -1.6604 -0.0444951 0
M  V30 5383 O 542.608 -1.90477 0.110999 0
M  V30 5384 C 539.748 -3.38745 0.659235 0
M  V30 5385 C 538.861 -3.9173 1.82131 0
M  V30 5386 C 537.996 -5.12906 1.38208 0
M  V30 5387 C 537.035 -5.58098 2.51382 0
M  V30 5388 N 536.172 -6.7049 2.08295 0
M  V30 5389 H 541.012 -2.22616 1.98107 0
M  V30 5390 H 538.549 -1.09103 0.986661 0
M  V30 5391 H 540.507 -4.15107 0.417371 0
M  V30 5392 H 539.137 -3.21898 -0.241201 0
M  V30 5393 H 538.189 -3.11966 2.17672 0
M  V30 5394 H 539.501 -4.21225 2.67153 0
M  V30 5395 H 538.655 -5.96657 1.09935 0
M  V30 5396 H 537.394 -4.85105 0.502456 0
M  V30 5397 H 536.399 -4.72917 2.80409 0
M  V30 5398 H 537.624 -5.87911 3.39909 0
M  V30 5399 H 535.57 -6.44416 1.22737 0
M  V30 5400 H 535.487 -6.99458 2.86869 0
M  V30 5401 H 536.755 -7.57672 1.83175 0
M  V30 5402 N 540.985 -1.06182 -1.16461 0
M  V30 5403 C 541.895 -0.682671 -2.24448 0
M  V30 5404 C 542.911 0.30078 -1.71381 0
M  V30 5405 O 544.087 0.150376 -2.00838 0
M  V30 5406 C 541.152 -0.0737202 -3.46622 0
M  V30 5407 C 540.213 -1.10889 -4.14731 0
M  V30 5408 C 539.446 -0.528908 -5.31073 0
M  V30 5409 O 539.669 0.65868 -5.66584 0
M  V30 5410 O 538.603 -1.26805 -5.88391 0
M  V30 5411 H 542.429 -1.58291 -2.59187 0
M  V30 5412 H 540.014 -0.834013 -1.23954 0
M  V30 5413 H 541.896 0.264192 -4.20571 0
M  V30 5414 H 540.571 0.800015 -3.13658 0
M  V30 5415 H 539.478 -1.49896 -3.42756 0
M  V30 5416 H 540.811 -1.95412 -4.51747 0
M  V30 5417 N 542.463 1.3308 -0.844243 0
M  V30 5418 C 543.74 1.92178 -0.364261 0
M  V30 5419 C 544.12 1.76961 1.15101 0
M  V30 5420 O 543.468 1.16128 1.9679 0
M  V30 5421 C 543.678 3.393 -0.817106 0
M  V30 5422 C 545.026 4.16444 -0.828236 0
M  V30 5423 O 546.05 3.47975 -0.761062 0
M  V30 5424 O 544.909 5.38685 -0.920926 0
M  V30 5425 H 542.003 0.820411 -0.10419 0
M  V30 5426 H 544.549 1.41918 -0.930453 0
M  V30 5427 H 543.321 3.44272 -1.85991 0
M  V30 5428 H 542.944 3.96947 -0.227785 0
M  V30 5429 N 543.941 0.601185 1.45683 0
M  V30 5430 C 545.189 0.0936957 2.01883 0
M  V30 5431 C 545.51 -1.2779 1.47291 0
M  V30 5432 O 544.78 -1.84279 0.664691 0
M  V30 5433 H 543.36 0.0316466 0.746329 0
M  V30 5434 H 546.022 0.781137 1.78562 0
M  V30 5435 H 545.118 0.0386297 3.12076 0
M  V30 5436 N 545.419 -1.53889 0.339982 0
M  V30 5437 C 546.665 -2.01152 -0.258003 0
M  V30 5438 C 546.998 -1.22749 -1.50487 0
M  V30 5439 O 546.273 -0.314156 -1.91946 0
M  V30 5440 C 546.556 -3.55468 -0.575717 0
M  V30 5441 C 546.409 -4.44584 0.682996 0
M  V30 5442 C 547.728 -4.1768 -1.38677 0
M  V30 5443 H 544.847 -0.731198 -0.0922992 0
M  V30 5444 H 547.489 -1.84352 0.459814 0
M  V30 5445 H 545.639 -3.69914 -1.18725 0
M  V30 5446 H 547.311 -4.41981 1.32102 0
M  V30 5447 H 545.554 -4.13592 1.3086 0
M  V30 5448 H 546.225 -5.5043 0.416001 0
M  V30 5449 H 548.701 -4.0691 -0.869705 0
M  V30 5450 H 547.577 -5.25734 -1.57783 0
M  V30 5451 H 547.838 -3.72069 -2.38782 0
M  V30 5452 N 546.897 -0.0685191 -1.57451 0
M  V30 5453 C 548.127 0.609577 -1.97402 0
M  V30 5454 C 548.535 1.63882 -0.945489 0
M  V30 5455 O 547.878 1.8354 0.0766052 0
M  V30 5456 C 547.94 1.3385 -3.33653 0
M  V30 5457 C 547.604 0.463103 -4.54648 0
M  V30 5458 C 548.601 -0.277964 -5.19156 0
M  V30 5459 C 546.286 0.388941 -5.00792 0
M  V30 5460 C 548.28 -1.08145 -6.28159 0
M  V30 5461 C 545.967 -0.418217 -6.09667 0
M  V30 5462 C 546.965 -1.15208 -6.73213 0
M  V30 5463 O 546.653 -1.94594 -7.79993 0
M  V30 5464 H 546.385 0.170197 -0.654224 0
M  V30 5465 H 548.939 -0.13647 -2.04946 0
M  V30 5466 H 547.169 2.13055 -3.22714 0
M  V30 5467 H 548.858 1.90851 -3.58233 0
M  V30 5468 H 549.624 -0.230241 -4.84453 0
M  V30 5469 H 545.503 0.949769 -4.5111 0
M  V30 5470 H 549.047 -1.65476 -6.7769 0
M  V30 5471 H 544.944 -0.467515 -6.43805 0
M  V30 5472 H 545.712 -1.8699 -7.96854 0
M  V30 5473 N 548.375 1.56261 0.205012 0
M  V30 5474 C 549.621 1.80306 0.9283 0
M  V30 5475 C 549.954 0.640932 1.83319 0
M  V30 5476 O 549.229 -0.359032 1.91158 0
M  V30 5477 C 549.512 3.14547 1.75306 0
M  V30 5478 C 549.365 4.41236 0.873562 0
M  V30 5479 C 550.684 3.45382 2.72762 0
M  V30 5480 H 547.803 0.655929 0.336044 0
M  V30 5481 H 550.445 1.88984 0.196211 0
M  V30 5482 H 548.595 3.0728 2.37721 0
M  V30 5483 H 550.267 4.60539 0.264887 0
M  V30 5484 H 548.51 4.33427 0.179773 0
M  V30 5485 H 549.181 5.31639 1.48541 0
M  V30 5486 H 551.657 3.52884 2.20481 0
M  V30 5487 H 550.533 4.40449 3.2756 0
M  V30 5488 H 550.794 2.68377 3.51321 0
M  V30 5489 N 549.853 -0.472356 1.50355 0
M  V30 5490 C 551.081 -1.24784 1.65035 0
M  V30 5491 C 551.496 -1.85837 0.333176 0
M  V30 5492 O 550.853 -1.69168 -0.68472 0
M  V30 5493 C 550.904 -2.35747 2.74054 0
M  V30 5494 O 550.625 -1.77197 4.00665 0
M  V30 5495 C 552.126 -3.26645 2.99696 0
M  V30 5496 H 549.346 -0.377432 0.554785 0
M  V30 5497 H 551.89 -0.563962 1.9657 0
M  V30 5498 H 550.045 -2.99912 2.45217 0
M  V30 5499 H 550.459 -2.5026 4.60945 0
M  V30 5500 H 551.933 -4.00718 3.79644 0
M  V30 5501 H 552.41 -3.8535 2.10718 0
M  V30 5502 H 553.016 -2.68218 3.3006 0
M  V30 5503 N 551.331 -1.39911 -0.725443 0
M  V30 5504 C 552.578 -1.37654 -1.48518 0
M  V30 5505 C 552.906 0.0243982 -1.94485 0
M  V30 5506 O 552.161 1.00708 -1.67799 0
M  V30 5507 C 552.46 -2.30368 -2.7325 0
M  V30 5508 C 552.126 -3.77817 -2.461 0
M  V30 5509 C 550.788 -4.17991 -2.38405 0
M  V30 5510 C 553.14 -4.71036 -2.23103 0
M  V30 5511 C 550.468 -5.49433 -2.05768 0
M  V30 5512 C 552.82 -6.02766 -1.9198 0
M  V30 5513 C 551.484 -6.41993 -1.82761 0
M  V30 5514 H 550.754 -0.503713 -0.543465 0
M  V30 5515 H 553.401 -1.7249 -0.831822 0
M  V30 5516 H 551.706 -1.88683 -3.43375 0
M  V30 5517 H 553.403 -2.2591 -3.31309 0
M  V30 5518 H 549.993 -3.45982 -2.52972 0
M  V30 5519 H 554.177 -4.40823 -2.2801 0
M  V30 5520 H 549.433 -5.78738 -1.9716 0
M  V30 5521 H 553.607 -6.74519 -1.73197 0
M  V30 5522 H 551.234 -7.43761 -1.57237 0
M  V30 5523 N 552.809 0.956637 -1.25245 0
M  V30 5524 C 553.719 2.0868 -1.0719 0
M  V30 5525 C 554.735 1.73997 -0.00959074 0
M  V30 5526 O 555.911 2.00301 -0.210104 0
M  V30 5527 C 552.976 3.39754 -0.690526 0
M  V30 5528 C 552.037 3.88316 -1.83055 0
M  V30 5529 C 551.27 5.13134 -1.46728 0
M  V30 5530 O 551.493 5.6925 -0.362029 0
M  V30 5531 O 550.427 5.56356 -2.29677 0
M  V30 5532 H 554.253 2.26813 -2.01965 0
M  V30 5533 H 551.838 1.07098 -1.04165 0
M  V30 5534 H 553.72 4.18543 -0.489871 0
M  V30 5535 H 552.395 3.22896 0.227981 0
M  V30 5536 H 551.302 3.1054 -2.08604 0
M  V30 5537 H 552.635 4.09669 -2.72822 0
M  V30 5538 N 554.287 1.06798 1.15896 0
M  V30 5539 C 555.535 0.786211 1.8618 0
M  V30 5540 C 555.856 -0.689547 1.82401 0
M  V30 5541 O 555.126 -1.49913 1.26107 0
M  V30 5542 H 553.706 0.287843 0.689315 0
M  V30 5543 H 556.368 1.35055 1.40521 0
M  V30 5544 H 555.464 1.1157 2.91477 0
M  V30 5545 N 555.766 -1.3263 0.851289 0
M  V30 5546 C 556.729 -2.27247 0.298541 0
M  V30 5547 C 557.729 -1.51467 -0.539847 0
M  V30 5548 O 558.919 -1.7061 -0.351843 0
M  V30 5549 C 556.051 -3.35964 -0.578004 0
M  V30 5550 H 557.244 -2.7765 1.13359 0
M  V30 5551 H 554.797 -1.43245 0.625354 0
M  V30 5552 H 555.532 -2.90823 -1.435 0
M  V30 5553 H 555.317 -3.92094 0.0220539 0
M  V30 5554 H 556.807 -4.06472 -0.957626 0
M  V30 5555 N 557.244 -0.608902 -1.45362 0
M  V30 5556 C 558.192 0.121639 -2.32282 0
M  V30 5557 C 559.186 0.858301 -1.46046 0
M  V30 5558 O 560.392 0.773718 -1.62523 0
M  V30 5559 H 556.767 0.058086 -0.749753 0
M  V30 5560 H 558.738 -0.629866 -2.91677 0
M  V30 5561 C 557.487 1.1047 -3.29684 0
M  V30 5562 H 556.81 0.547278 -3.96036 0
M  V30 5563 H 558.25 1.58576 -3.9323 0
M  V30 5564 C 556.709 2.17891 -2.56954 0
M  V30 5565 O 557.239 3.25652 -2.35189 0
M  V30 5566 N 555.445 1.93211 -2.17066 0
M  V30 5567 H 554.992 1.05584 -2.34967 0
M  V30 5568 H 554.95 2.6529 -1.68727 0
M  V30 5569 N 558.722 1.53707 -0.348139 0
M  V30 5570 C 559.685 2.23812 0.494058 0
M  V30 5571 C 560.685 1.23989 1.02388 0
M  V30 5572 O 561.875 1.48395 0.912396 0
M  V30 5573 C 559.007 2.96133 1.68872 0
M  V30 5574 H 560.2 2.99663 -0.119141 0
M  V30 5575 H 557.753 1.55983 -0.0995539 0
M  V30 5576 H 558.488 2.24481 2.34049 0
M  V30 5577 H 558.273 3.69357 1.31596 0
M  V30 5578 H 559.763 3.49475 2.28597 0
M  V30 5579 N 560.2 0.0768682 1.57412 0
M  V30 5580 C 561.611 -0.455037 1.8107 0
M  V30 5581 C 561.962 -1.69323 0.991162 0
M  V30 5582 O 561.087 -2.15328 0.215156 0
M  V30 5583 C 561.682 -0.832316 3.28417 0
M  V30 5584 C 560.241 -1.30906 3.52903 0
M  V30 5585 C 559.388 -0.296714 2.75708 0
M  V30 5586 H 562.339 0.302514 1.5579 0
M  V30 5587 H 562.36 -1.69333 3.40744 0
M  V30 5588 H 561.872 0.0690532 3.88039 0
M  V30 5589 H 559.973 -2.22875 2.98592 0
M  V30 5590 H 560.086 -1.28348 4.61588 0
M  V30 5591 H 558.45 -0.775059 2.42621 0
M  V30 5592 H 559.233 0.597015 3.38069 0
M  V30 5593 N 561.678 -1.56367 -0.196722 0
M  V30 5594 C 562.625 -1.94417 -1.24382 0
M  V30 5595 C 563.595 -0.804543 -1.45315 0
M  V30 5596 O 564.78 -1.06256 -1.58475 0
M  V30 5597 C 561.92 -2.28757 -2.58388 0
M  V30 5598 C 561.033 -3.55775 -2.45047 0
M  V30 5599 C 560.168 -3.79445 -3.71746 0
M  V30 5600 C 559.207 -4.99894 -3.53231 0
M  V30 5601 N 558.344 -5.19826 -4.71938 0
M  V30 5602 H 563.184 -2.83691 -0.912338 0
M  V30 5603 H 560.721 -1.40392 -0.439135 0
M  V30 5604 H 562.679 -2.46682 -3.36457 0
M  V30 5605 H 561.309 -1.42625 -2.89582 0
M  V30 5606 H 560.361 -3.45905 -1.58284 0
M  V30 5607 H 561.673 -4.44 -2.27299 0
M  V30 5608 H 560.827 -3.97601 -4.58256 0
M  V30 5609 H 559.566 -2.89546 -3.92446 0
M  V30 5610 H 558.571 -4.81662 -2.65107 0
M  V30 5611 H 559.796 -5.913 -3.33978 0
M  V30 5612 H 557.742 -4.32875 -4.92905 0
M  V30 5613 H 557.659 -6.02228 -4.57009 0
M  V30 5614 H 558.927 -5.42439 -5.59803 0
M  V30 5615 N 563.156 0.464375 -1.50603 0
M  V30 5616 C 564.066 1.58723 -1.72754 0
M  V30 5617 C 565.082 1.62925 -0.610844 0
M  V30 5618 O 566.258 1.8067 -0.889963 0
M  V30 5619 C 563.323 2.94897 -1.82309 0
M  V30 5620 C 562.384 3.0103 -3.06071 0
M  V30 5621 C 561.617 4.30708 -3.1516 0
M  V30 5622 O 561.84 5.2159 -2.30868 0
M  V30 5623 O 560.774 4.42571 -4.0794 0
M  V30 5624 H 564.6 1.42954 -2.67951 0
M  V30 5625 H 562.185 0.644579 -1.3478 0
M  V30 5626 H 564.067 3.75764 -1.90735 0
M  V30 5627 H 562.742 3.10851 -0.902967 0
M  V30 5628 H 561.649 2.19217 -3.03142 0
M  V30 5629 H 562.982 2.90014 -3.97684 0
M  V30 5630 N 564.634 1.40294 0.718013 0
M  V30 5631 C 566.045 1.34289 1.29705 0
M  V30 5632 C 566.396 0.0152228 1.96194 0
M  V30 5633 O 565.521 -0.88682 1.97394 0
M  V30 5634 C 566.116 2.43219 2.3586 0
M  V30 5635 C 564.675 2.40682 2.89394 0
M  V30 5636 C 563.822 2.24223 1.63154 0
M  V30 5637 H 566.773 1.50135 0.514312 0
M  V30 5638 H 566.794 2.10986 3.16647 0
M  V30 5639 H 566.306 3.39836 1.87439 0
M  V30 5640 H 564.407 1.47756 3.42051 0
M  V30 5641 H 564.52 3.36177 3.41353 0
M  V30 5642 H 562.884 1.71696 1.88129 0
M  V30 5643 H 563.667 3.22834 1.16761 0
M  V30 5644 N 566.112 -0.949982 1.2575 0
M  V30 5645 C 567.044 -2.05088 1.02331 0
M  V30 5646 C 568.057 -1.62795 -0.0133247 0
M  V30 5647 O 569.246 -1.77067 0.225759 0
M  V30 5648 C 566.346 -3.34794 0.525924 0
M  V30 5649 C 565.519 -4.05903 1.62978 0
M  V30 5650 C 564.578 -5.1388 1.13196 0
M  V30 5651 O 563.604 -5.39072 1.82729 0
M  V30 5652 N 564.806 -5.80495 -0.0242926 0
M  V30 5653 H 567.571 -2.25747 1.97125 0
M  V30 5654 H 565.132 -1.11886 1.17018 0
M  V30 5655 H 567.124 -4.04312 0.177263 0
M  V30 5656 H 565.694 -3.10872 -0.328202 0
M  V30 5657 H 564.914 -3.3042 2.1498 0
M  V30 5658 H 566.202 -4.50166 2.37124 0
M  V30 5659 H 565.6 -5.62454 -0.605184 0
M  V30 5660 H 564.157 -6.51043 -0.313947 0
M  V30 5661 N 567.59 -1.07411 -1.15328 0
M  V30 5662 C 569.006 -0.799759 -1.38116 0
M  V30 5663 C 569.206 0.59572 -1.92493 0
M  V30 5664 O 568.262 1.35433 -2.13106 0
M  V30 5665 C 569.575 -1.87407 -2.35158 0
M  V30 5666 C 571.123 -1.89889 -2.48819 0
M  V30 5667 C 571.598 -2.96406 -3.49153 0
M  V30 5668 N 573.089 -2.95512 -3.56689 0
M  V30 5669 C 573.824 -3.74575 -4.34144 0
M  V30 5670 N 573.32 -4.63488 -5.14928 0
M  V30 5671 N 575.113 -3.62919 -4.29239 0
M  V30 5672 H 567.264 -1.97411 -0.78374 0
M  V30 5673 H 569.527 -0.856113 -0.407154 0
M  V30 5674 H 569.233 -2.8768 -2.0232 0
M  V30 5675 H 569.107 -1.73471 -3.34944 0
M  V30 5676 H 571.494 -0.902677 -2.80955 0
M  V30 5677 H 571.575 -2.07904 -1.49029 0
M  V30 5678 H 571.219 -3.96227 -3.17752 0
M  V30 5679 H 571.149 -2.75638 -4.48699 0
M  V30 5680 H 573.64 -2.31061 -2.99031 0
M  V30 5681 H 573.953 -5.20445 -5.71276 0
M  V30 5682 H 572.298 -4.67537 -5.14232 0
M  V30 5683 H 575.489 -2.92833 -3.65194 0
M  V30 5684 H 575.662 -4.24777 -4.89355 0
M  V30 5685 N 569.068 1.32177 -0.85831 0
M  V30 5686 C 570.298 2.01021 -0.476889 0
M  V30 5687 C 570.706 1.64653 0.931995 0
M  V30 5688 O 570.049 0.865713 1.62022 0
M  V30 5689 C 570.111 3.55413 -0.540528 0
M  V30 5690 C 569.775 4.1522 -1.90895 0
M  V30 5691 C 570.772 4.3318 -2.87491 0
M  V30 5692 C 568.457 4.51212 -2.20709 0
M  V30 5693 C 570.451 4.86306 -4.1205 0
M  V30 5694 C 568.138 5.04042 -3.45521 0
M  V30 5695 C 569.136 5.21538 -4.41007 0
M  V30 5696 O 568.824 5.73238 -5.63608 0
M  V30 5697 H 568.556 0.650059 -0.18547 0
M  V30 5698 H 571.11 1.69648 -1.15796 0
M  V30 5699 H 569.34 3.86196 0.19741 0
M  V30 5700 H 571.029 4.05526 -0.174191 0
M  V30 5701 H 571.795 4.05704 -2.65762 0
M  V30 5702 H 567.674 4.36878 -1.4717 0
M  V30 5703 H 571.218 4.99877 -4.86589 0
M  V30 5704 H 567.115 5.30952 -3.67098 0
M  V30 5705 H 567.883 5.91625 -5.65617 0
M  V30 5706 N 570.547 0.616602 1.45037 0
M  V30 5707 C 571.824 0.0469086 1.95544 0
M  V30 5708 C 572.204 -1.42345 1.55888 0
M  V30 5709 O 571.552 -2.13055 0.825824 0
M  V30 5710 C 571.762 0.254489 3.48071 0
M  V30 5711 C 573.11 0.140025 4.24369 0
M  V30 5712 O 574.134 0.185084 3.55719 0
M  V30 5713 O 572.993 0.0327034 5.4649 0
M  V30 5714 H 570.087 -0.0306051 0.826433 0
M  V30 5715 H 572.633 0.687293 1.55159 0
M  V30 5716 H 571.405 1.27532 3.69934 0
M  V30 5717 H 571.028 -0.42073 3.95368 0
M  V30 5718 N 572.025 -1.5352 0.356285 0
M  V30 5719 C 572.988 -2.24071 -0.482182 0
M  V30 5720 C 573.988 -1.24531 -1.01729 0
M  V30 5721 O 575.178 -1.48876 -0.904513 0
M  V30 5722 C 572.31 -2.97025 -1.67299 0
M  V30 5723 H 573.503 -2.99596 0.135031 0
M  V30 5724 H 571.056 -1.55928 0.107825 0
M  V30 5725 H 571.791 -2.25719 -2.32855 0
M  V30 5726 H 571.576 -3.7005 -1.29636 0
M  V30 5727 H 573.066 -3.50683 -2.26741 0
M  V30 5728 N 573.503 -0.0852151 -1.57369 0
M  V30 5729 C 574.749 0.581666 -1.94279 0
M  V30 5730 C 575.082 1.68444 -0.966446 0
M  V30 5731 O 574.357 1.945 0.00215277 0
M  V30 5732 C 574.64 1.14609 -3.41375 0
M  V30 5733 C 574.493 0.0490414 -4.49773 0
M  V30 5734 C 575.812 2.04751 -3.8957 0
M  V30 5735 H 572.931 0.209972 -0.706456 0
M  V30 5736 H 575.573 -0.153915 -1.89376 0
M  V30 5737 H 573.723 1.77297 -3.45685 0
M  V30 5738 H 575.395 -0.584721 -4.57579 0
M  V30 5739 H 573.638 -0.618638 -4.29366 0
M  V30 5740 H 574.309 0.484601 -5.49869 0
M  V30 5741 H 576.785 1.51981 -3.87351 0
M  V30 5742 H 575.661 2.41173 -4.93079 0
M  V30 5743 H 575.922 2.96107 -3.28288 0
M  V30 5744 N 574.981 1.5647 0.188427 0
M  V30 5745 C 575.911 1.98101 1.23606 0
M  V30 5746 C 576.892 0.853961 1.47111 0
M  V30 5747 O 578.077 1.11879 1.58735 0
M  V30 5748 C 575.207 2.32624 2.57882 0
M  V30 5749 C 574.161 3.48129 2.48978 0
M  V30 5750 C 573.487 3.68347 3.87588 0
M  V30 5751 C 574.787 4.82112 2.00911 0
M  V30 5752 H 576.481 2.85864 0.890068 0
M  V30 5753 H 574.027 1.37532 0.426714 0
M  V30 5754 H 575.98 2.60343 3.3136 0
M  V30 5755 H 574.704 1.41751 2.94235 0
M  V30 5756 H 573.363 3.20511 1.77956 0
M  V30 5757 H 573.011 2.74793 4.21305 0
M  V30 5758 H 572.711 4.46055 3.82503 0
M  V30 5759 H 574.235 3.98449 4.62678 0
M  V30 5760 H 575.649 5.08819 2.64151 0
M  V30 5761 H 574.046 5.63337 2.06814 0
M  V30 5762 H 575.116 4.75249 0.96262 0
M  V30 5763 N 576.459 -0.456382 1.50847 0
M  V30 5764 C 577.705 -1.20914 1.62811 0
M  V30 5765 C 578.038 -1.91301 0.334304 0
M  V30 5766 O 577.313 -1.82775 -0.665098 0
M  V30 5767 C 577.596 -2.24122 2.81853 0
M  V30 5768 C 577.449 -1.57944 4.21158 0
M  V30 5769 C 578.768 -3.25295 2.96431 0
M  V30 5770 H 575.887 -0.438233 0.592554 0
M  V30 5771 H 578.529 -0.50091 1.83278 0
M  V30 5772 H 576.679 -2.84524 2.64534 0
M  V30 5773 H 578.351 -1.01025 4.50102 0
M  V30 5774 H 576.594 -0.882185 4.24735 0
M  V30 5775 H 577.265 -2.33014 5.00408 0
M  V30 5776 H 579.741 -2.7493 3.12335 0
M  V30 5777 H 578.617 -3.94822 3.81322 0
M  V30 5778 H 578.878 -3.90286 2.07676 0
M  V30 5779 N 577.937 -1.40673 -0.710563 0
M  V30 5780 C 578.9 -1.4108 -1.80635 0
M  V30 5781 C 579.9 -0.303783 -1.57904 0
M  V30 5782 O 581.09 -0.562937 -1.64853 0
M  V30 5783 C 578.222 -1.20748 -3.18799 0
M  V30 5784 H 579.415 -2.38612 -1.81671 0
M  V30 5785 H 576.968 -1.26595 -0.916704 0
M  V30 5786 H 577.703 -0.239964 -3.23411 0
M  V30 5787 H 577.488 -2.00941 -3.36698 0
M  V30 5788 H 578.978 -1.23833 -3.98817 0
M  V30 5789 N 579.415 0.9433 -1.26252 0
M  V30 5790 C 580.378 2.02326 -1.07689 0
M  V30 5791 C 581.378 1.60779 -0.0259174 0
M  V30 5792 O 582.568 1.72108 -0.269134 0
M  V30 5793 C 579.7 3.34886 -0.63752 0
M  V30 5794 H 580.893 2.20225 -2.0357 0
M  V30 5795 H 578.446 1.12197 -1.08819 0
M  V30 5796 H 579.181 3.22684 0.323377 0
M  V30 5797 H 578.966 3.66393 -1.39637 0
M  V30 5798 H 580.456 4.14231 -0.529418 0
M  V30 5799 N 580.893 1.08022 1.14757 0
M  V30 5800 C 582.141 0.805913 1.85336 0
M  V30 5801 C 582.462 -0.670162 1.83122 0
M  V30 5802 O 581.732 -1.48567 1.2769 0
M  V30 5803 H 580.312 0.295138 0.686223 0
M  V30 5804 H 582.974 1.36538 1.3908 0
M  V30 5805 H 582.07 1.14655 2.90277 0
M  V30 5806 N 582.371 -1.3172 0.865308 0
M  V30 5807 C 583.787 -1.4958 0.556596 0
M  V30 5808 C 583.987 -1.79763 -0.910353 0
M  V30 5809 O 583.043 -1.87351 -1.6928 0
M  V30 5810 C 584.356 -2.63277 1.45279 0
M  V30 5811 C 585.904 -2.77161 1.45433 0
M  V30 5812 C 586.379 -3.93949 2.33598 0
M  V30 5813 N 587.87 -4.01228 2.31453 0
M  V30 5814 C 588.605 -4.90855 2.96393 0
M  V30 5815 N 588.101 -5.85416 3.70486 0
M  V30 5816 N 589.894 -4.84063 2.85726 0
M  V30 5817 H 582.045 -1.10396 1.81456 0
M  V30 5818 H 584.308 -0.54507 0.775631 0
M  V30 5819 H 584.014 -2.47734 2.49641 0
M  V30 5820 H 583.888 -3.59309 1.14792 0
M  V30 5821 H 586.275 -2.9212 0.41831 0
M  V30 5822 H 586.356 -1.8181 1.79941 0
M  V30 5823 H 586 -3.79748 3.37274 0
M  V30 5824 H 585.93 -4.88598 1.96417 0
M  V30 5825 H 588.421 -3.3357 1.77593 0
M  V30 5826 H 588.734 -6.50525 4.17178 0
M  V30 5827 H 587.079 -5.85409 3.74594 0
M  V30 5828 H 590.27 -4.09163 2.27384 0
M  V30 5829 H 590.443 -5.53708 3.36617 0
M  V30 5830 N 583.85 -0.624285 -1.44708 0
M  V30 5831 C 584.812 0.0749638 -2.29077 0
M  V30 5832 C 585.812 0.778965 -1.40673 0
M  V30 5833 O 587.003 0.624591 -1.62618 0
M  V30 5834 C 584.135 1.11663 -3.22094 0
M  V30 5835 H 585.327 -0.667013 -2.92388 0
M  V30 5836 H 582.88 -0.384098 -1.51507 0
M  V30 5837 H 583.615 1.88881 -2.63618 0
M  V30 5838 H 583.401 0.61583 -3.87234 0
M  V30 5839 H 584.891 1.60585 -3.8549 0
M  V30 5840 N 585.328 1.53329 -0.364422 0
M  V30 5841 C 586.739 1.86345 0.115039 0
M  V30 5842 C 587.09 1.28505 1.4826 0
M  V30 5843 O 586.215 0.606639 2.07723 0
M  V30 5844 C 586.81 3.38114 0.215522 0
M  V30 5845 C 585.369 3.70932 0.639237 0
M  V30 5846 C 584.516 2.76471 -0.214261 0
M  V30 5847 H 587.467 1.47593 -0.583258 0
M  V30 5848 H 587.488 3.66031 1.0393 0
M  V30 5849 H 587 3.80182 -0.779948 0
M  V30 5850 H 585.101 3.3442 1.64298 0
M  V30 5851 H 585.214 4.77302 0.41465 0
M  V30 5852 H 583.578 2.52724 0.316678 0
M  V30 5853 H 584.361 3.21373 -1.20725 0
M  V30 5854 N 586.806 0.0935595 1.57322 0
M  V30 5855 C 587.754 -0.883457 2.15169 0
M  V30 5856 C 588.748 -1.29324 1.09415 0
M  V30 5857 O 589.954 -1.26795 1.27762 0
M  V30 5858 H 586.329 -0.302923 0.688289 0
M  V30 5859 H 588.3 -0.370845 2.96087 0
M  V30 5860 C 587.049 -2.13345 2.74552 0
M  V30 5861 H 586.372 -1.82702 3.55612 0
M  V30 5862 H 587.812 -2.7977 3.18598 0
M  V30 5863 C 586.271 -2.90646 1.70371 0
M  V30 5864 O 586.801 -3.85133 1.14173 0
M  V30 5865 N 585.007 -2.54157 1.40899 0
M  V30 5866 H 584.554 -1.77391 1.86789 0
M  V30 5867 H 584.512 -3.06178 0.714301 0
M  V30 5868 N 588.284 -1.56567 -0.180126 0
M  V30 5869 C 589.532 -1.81133 -0.896392 0
M  V30 5870 C 589.853 -0.669114 -1.83161 0
M  V30 5871 O 589.123 0.311616 -1.93406 0
M  V30 5872 H 587.703 -0.668172 -0.333999 0
M  V30 5873 H 590.365 -1.94048 -0.182051 0
M  V30 5874 H 589.461 -2.74854 -1.47857 0
M  V30 5875 N 589.762 0.448376 -1.51087 0
M  V30 5876 C 590.709 1.54341 -1.71603 0
M  V30 5877 C 591.679 1.56463 -0.557536 0
M  V30 5878 O 592.864 1.73644 -0.79072 0
M  V30 5879 C 590.004 2.92148 -1.83695 0
M  V30 5880 C 589.117 2.99639 -3.11192 0
M  V30 5881 C 588.252 4.285 -3.13944 0
M  V30 5882 C 587.291 4.29819 -4.35801 0
M  V30 5883 N 586.428 5.50186 -4.36164 0
M  V30 5884 H 591.268 1.36151 -2.65079 0
M  V30 5885 H 588.805 0.661585 -1.31383 0
M  V30 5886 H 590.763 3.72093 -1.88687 0
M  V30 5887 H 589.393 3.0892 -0.936374 0
M  V30 5888 H 588.445 2.12425 -3.15562 0
M  V30 5889 H 589.757 2.96474 -4.01129 0
M  V30 5890 H 588.911 5.16811 -3.17791 0
M  V30 5891 H 587.65 4.34307 -2.21876 0
M  V30 5892 H 586.655 3.39902 -4.32142 0
M  V30 5893 H 587.88 4.25685 -5.29121 0
M  V30 5894 H 585.826 5.56735 -3.46961 0
M  V30 5895 H 585.743 5.48856 -5.19897 0
M  V30 5896 H 587.011 6.40559 -4.44189 0
M  V30 5897 N 591.24 1.41047 0.703093 0
M  V30 5898 C 592.17 1.45067 1.82969 0
M  V30 5899 C 593.151 0.31016 1.67248 0
M  V30 5900 O 594.336 0.520548 1.87093 0
M  V30 5901 C 591.466 1.32478 3.2104 0
M  V30 5902 C 590.42 2.44262 3.51454 0
M  V30 5903 C 589.746 2.16742 4.88801 0
M  V30 5904 C 591.046 3.86606 3.51189 0
M  V30 5905 H 592.74 2.39353 1.79863 0
M  V30 5906 H 590.286 1.15206 0.863919 0
M  V30 5907 H 592.239 1.33904 3.99559 0
M  V30 5908 H 590.963 0.346735 3.24754 0
M  V30 5909 H 589.622 2.42107 2.75282 0
M  V30 5910 H 589.27 1.17299 4.89132 0
M  V30 5911 H 588.97 2.91643 5.10116 0
M  V30 5912 H 590.494 2.19872 5.69639 0
M  V30 5913 H 591.908 3.90517 4.19725 0
M  V30 5914 H 590.305 4.61128 3.84033 0
M  V30 5915 H 591.375 4.15296 2.50315 0
M  V30 5916 N 592.718 -0.936591 1.26751 0
M  V30 5917 C 593.967 -1.67778 1.11953 0
M  V30 5918 C 594.28 -1.92694 -0.33589 0
M  V30 5919 O 595.486 -2.64682 -0.604618 0
M  V30 5920 C 593.942 -3.02138 1.95551 0
M  V30 5921 C 593.55 -2.84953 3.45696 0
M  V30 5922 C 595.294 -3.79917 1.89377 0
M  V30 5923 C 593.201 -4.14814 4.21525 0
M  V30 5924 H 592.131 -0.629275 0.415366 0
M  V30 5925 H 594.782 -1.04122 1.51099 0
M  V30 5926 H 593.164 -3.668 1.49243 0
M  V30 5927 H 594.338 -2.29112 3.99805 0
M  V30 5928 H 592.653 -2.20612 3.53156 0
M  V30 5929 H 595.25 -4.76134 2.43312 0
M  V30 5930 H 595.593 -4.07204 0.865464 0
M  V30 5931 H 596.126 -3.22037 2.33532 0
M  V30 5932 H 592.865 -3.92709 5.24843 0
M  V30 5933 H 592.385 -4.70352 3.72195 0
M  V30 5934 H 594.064 -4.83239 4.3022 0
M  V30 5935 N 594.196 -1.08629 -1.14182 0
M  V30 5936 C 595.421 -0.83902 -1.89671 0
M  V30 5937 C 595.846 0.603332 -1.78161 0
M  V30 5938 O 595.204 1.42301 -1.12339 0
M  V30 5939 C 595.252 -1.26854 -3.37551 0
M  V30 5940 O 594.356 -0.42188 -4.10236 0
M  V30 5941 H 593.697 -0.304545 -0.590041 0
M  V30 5942 H 596.227 -1.4483 -1.44518 0
M  V30 5943 H 596.237 -1.25038 -3.88368 0
M  V30 5944 H 594.912 -2.31901 -3.45246 0
M  V30 5945 H 593.489 -0.503654 -3.69483 0
M  V30 5946 N 595.674 1.31259 -0.872281 0
M  V30 5947 C 596.637 2.26744 -0.334656 0
M  V30 5948 C 597.637 1.52307 0.515681 0
M  V30 5949 O 598.827 1.71148 0.324656 0
M  V30 5950 C 595.959 3.36841 0.524482 0
M  V30 5951 H 597.152 2.75812 -1.17762 0
M  V30 5952 H 594.705 1.42232 -0.648064 0
M  V30 5953 H 595.44 2.93069 1.38855 0
M  V30 5954 H 595.225 3.92009 -0.0844299 0
M  V30 5955 H 596.715 4.07944 0.892838 0
M  V30 5956 N 597.152 0.631951 1.44375 0
M  V30 5957 C 598.062 -0.073674 2.34484 0
M  V30 5958 C 599.078 -0.834825 1.52665 0
M  V30 5959 O 600.254 -0.786902 1.85391 0
M  V30 5960 C 597.319 -1.04247 3.30656 0
M  V30 5961 C 596.38 -0.280602 4.28382 0
M  V30 5962 C 595.613 -1.20325 5.19959 0
M  V30 5963 O 595.836 -2.44199 5.15484 0
M  V30 5964 O 594.77 -0.687128 5.97965 0
M  V30 5965 H 598.596 0.667477 2.96274 0
M  V30 5966 H 596.181 0.392144 1.44162 0
M  V30 5967 H 598.063 -1.59981 3.89851 0
M  V30 5968 H 596.738 -1.76422 2.71398 0
M  V30 5969 H 595.645 0.319804 3.72731 0
M  V30 5970 H 596.978 0.401144 4.90563 0
M  V30 5971 N 598.631 -1.53133 0.372548 0
M  V30 5972 C 599.578 -2.25951 -0.470631 0
M  V30 5973 C 600.548 -1.26895 -1.07176 0
M  V30 5974 O 601.733 -1.55691 -1.10294 0
M  V30 5975 C 598.873 -3.05726 -1.6008 0
M  V30 5976 C 597.986 -4.19684 -1.02416 0
M  V30 5977 C 597.121 -4.86888 -2.124 0
M  V30 5978 C 596.16 -5.92866 -1.52238 0
M  V30 5979 N 595.297 -6.53732 -2.56084 0
M  V30 5980 H 600.137 -2.97587 0.156816 0
M  V30 5981 H 597.674 -1.4683 0.0891571 0
M  V30 5982 H 599.632 -3.50258 -2.26661 0
M  V30 5983 H 598.262 -2.36331 -2.1988 0
M  V30 5984 H 597.314 -3.79588 -0.248426 0
M  V30 5985 H 598.626 -4.95821 -0.544366 0
M  V30 5986 H 597.78 -5.34638 -2.86787 0
M  V30 5987 H 596.519 -4.10239 -2.63734 0
M  V30 5988 H 595.524 -5.4447 -0.763685 0
M  V30 5989 H 596.749 -6.71439 -1.0172 0
M  V30 5990 H 594.695 -5.79932 -3.06618 0
M  V30 5991 H 594.612 -7.25429 -2.12811 0
M  V30 5992 H 595.88 -7.0613 -3.30152 0
M  V30 5993 N 600.109 -0.101901 -1.5727 0
M  V30 5994 C 601.072 0.840129 -2.13247 0
M  V30 5995 C 602.072 1.20625 -1.06331 0
M  V30 5996 O 603.262 1.13456 -1.32186 0
M  V30 5997 C 600.394 2.13372 -2.65867 0
M  V30 5998 H 601.587 0.353945 -2.97804 0
M  V30 5999 H 599.14 0.147167 -1.55606 0
M  V30 6000 H 599.875 2.66461 -1.84849 0
M  V30 6001 H 599.66 1.88085 -3.44044 0
M  V30 6002 H 601.15 2.80748 -3.09145 0
M  V30 6003 N 601.587 1.56661 0.17182 0
M  V30 6004 C 602.835 1.81606 0.886774 0
M  V30 6005 C 603.156 0.678818 1.82803 0
M  V30 6006 O 602.426 -0.301354 1.93568 0
M  V30 6007 H 601.006 0.669934 0.330451 0
M  V30 6008 H 603.668 1.94142 0.171757 0
M  V30 6009 H 602.764 2.75634 1.46398 0
M  V30 6010 N 603.065 -0.440357 1.51323 0
M  V30 6011 C 604.311 -1.19181 1.64085 0
M  V30 6012 C 604.644 -1.90936 0.354575 0
M  V30 6013 O 603.919 -1.8347 -0.645675 0
M  V30 6014 C 604.202 -2.2112 2.84215 0
M  V30 6015 C 604.055 -1.53468 4.22809 0
M  V30 6016 C 605.374 -3.22133 2.99864 0
M  V30 6017 H 602.493 -0.431924 0.597169 0
M  V30 6018 H 605.135 -0.481443 1.83799 0
M  V30 6019 H 603.285 -2.81703 2.67537 0
M  V30 6020 H 604.957 -0.962455 4.51148 0
M  V30 6021 H 603.2 -0.837086 4.25647 0
M  V30 6022 H 603.871 -2.27694 5.02852 0
M  V30 6023 H 606.347 -2.71601 3.15233 0
M  V30 6024 H 605.223 -3.90756 3.85488 0
M  V30 6025 H 605.484 -3.88061 2.11804 0
M  V30 6026 N 604.543 -1.41418 -0.695603 0
M  V30 6027 C 605.506 -1.42988 -1.79129 0
M  V30 6028 C 606.506 -0.320514 -1.57573 0
M  V30 6029 O 607.696 -0.58039 -1.64247 0
M  V30 6030 C 604.828 -1.24122 -3.175 0
M  V30 6031 H 606.021 -2.40526 -1.7913 0
M  V30 6032 H 603.574 -1.2756 -0.903225 0
M  V30 6033 H 604.309 -0.274253 -3.23138 0
M  V30 6034 H 604.094 -2.045 -3.34547 0
M  V30 6035 H 605.584 -1.28056 -3.97481 0
M  V30 6036 N 606.021 0.929856 -1.27246 0
M  V30 6037 C 607.267 1.6798 -1.13625 0
M  V30 6038 C 607.6 1.91586 0.317589 0
M  V30 6039 O 606.875 1.50467 1.23247 0
M  V30 6040 C 607.158 3.04766 -1.91806 0
M  V30 6041 C 607.011 2.88415 -3.45162 0
M  V30 6042 C 608.33 4.05063 -1.72082 0
M  V30 6043 H 605.449 0.609632 -0.414147 0
M  V30 6044 H 608.091 1.0792 -1.56376 0
M  V30 6045 H 606.241 3.56034 -1.55474 0
M  V30 6046 H 607.913 2.44282 -3.91311 0
M  V30 6047 H 606.156 2.23802 -3.71611 0
M  V30 6048 H 606.827 3.85482 -3.95105 0
M  V30 6049 H 609.303 3.62798 -2.03757 0
M  V30 6050 H 608.179 4.98765 -2.29182 0
M  V30 6051 H 608.44 4.37021 -0.668206 0
M  V30 6052 N 607.499 1.09233 1.13605 0
M  V30 6053 C 608.727 0.848908 1.88683 0
M  V30 6054 C 609.142 -0.599667 1.79024 0
M  V30 6055 O 608.499 -1.41265 1.15544 0
M  V30 6056 C 608.55 1.27273 3.38355 0
M  V30 6057 O 608.271 2.66449 3.47759 0
M  V30 6058 C 609.772 1.0614 4.30406 0
M  V30 6059 H 606.992 0.305549 0.597395 0
M  V30 6060 H 609.536 1.4538 1.43823 0
M  V30 6061 H 607.691 0.711776 3.80805 0
M  V30 6062 H 608.105 2.84264 4.40788 0
M  V30 6063 H 609.579 1.40725 5.33761 0
M  V30 6064 H 610.056 -0.000960332 4.392 0
M  V30 6065 H 610.662 1.60821 3.93722 0
M  V30 6066 N 608.977 -1.30795 0.87923 0
M  V30 6067 C 610.254 -1.91145 0.415086 0
M  V30 6068 C 610.634 -1.7995 -1.10368 0
M  V30 6069 O 609.982 -1.21305 -1.93642 0
M  V30 6070 C 610.192 -3.37014 0.906778 0
M  V30 6071 C 611.54 -4.14101 0.938358 0
M  V30 6072 O 612.564 -3.45834 0.853053 0
M  V30 6073 O 611.423 -5.36054 1.06342 0
M  V30 6074 H 608.517 -0.81736 0.125905 0
M  V30 6075 H 611.063 -1.39401 0.967753 0
M  V30 6076 H 609.835 -3.3922 1.95053 0
M  V30 6077 H 609.458 -3.96204 0.332948 0
M  V30 6078 N 610.455 -0.639598 -1.44038 0
M  V30 6079 C 611.871 -0.305953 -1.5664 0
M  V30 6080 C 612.071 1.19055 -1.62567 0
M  V30 6081 O 611.127 1.97492 -1.57331 0
M  V30 6082 C 612.44 -1.00533 -2.83397 0
M  V30 6083 C 613.988 -0.984278 -2.97121 0
M  V30 6084 C 614.463 -1.66428 -4.26691 0
M  V30 6085 N 615.954 -1.63127 -4.33525 0
M  V30 6086 C 616.689 -2.12629 -5.32519 0
M  V30 6087 N 616.185 -2.70359 -6.3787 0
M  V30 6088 N 617.978 -2.03208 -5.24083 0
M  V30 6089 H 610.129 -1.6109 -1.38434 0
M  V30 6090 H 612.392 -0.676672 -0.663942 0
M  V30 6091 H 612.098 -2.06034 -2.85032 0
M  V30 6092 H 611.972 -0.548362 -3.73193 0
M  V30 6093 H 614.359 0.0622792 -2.95034 0
M  V30 6094 H 614.44 -1.47981 -2.08651 0
M  V30 6095 H 614.084 -2.71034 -4.29538 0
M  V30 6096 H 614.014 -1.14351 -5.14034 0
M  V30 6097 H 616.505 -1.20987 -3.58009 0
M  V30 6098 H 616.818 -3.05842 -7.09704 0
M  V30 6099 H 615.163 -2.74414 -6.38531 0
M  V30 6100 H 618.354 -1.57823 -4.40692 0
M  V30 6101 H 618.527 -2.42097 -6.01077 0
M  V30 6102 N 611.933 1.52934 -0.380664 0
M  V30 6103 C 613.181 2.01069 0.203874 0
M  V30 6104 C 613.502 1.26922 1.4804 0
M  V30 6105 O 612.772 0.386787 1.92044 0
M  V30 6106 H 611.352 0.742882 0.0783279 0
M  V30 6107 H 614.014 1.88099 -0.510368 0
M  V30 6108 H 613.11 3.09258 0.42021 0
M  V30 6109 N 613.412 0.11024 1.57214 0
M  V30 6110 C 614.659 -0.54987 1.94891 0
M  V30 6111 C 614.987 -1.67243 0.992984 0
M  V30 6112 O 614.242 -1.95694 0.0152703 0
M  V30 6113 C 614.541 -1.13102 3.39032 0
M  V30 6114 C 614.207 -0.130713 4.5071 0
M  V30 6115 C 612.869 0.14437 4.80983 0
M  V30 6116 C 615.221 0.551472 5.18274 0
M  V30 6117 C 612.549 1.10807 5.76141 0
M  V30 6118 C 614.901 1.50375 6.14467 0
M  V30 6119 C 613.565 1.78691 6.43138 0
M  V30 6120 H 612.835 -0.201212 0.713158 0
M  V30 6121 H 615.482 0.189288 1.90562 0
M  V30 6122 H 613.787 -1.94675 3.40013 0
M  V30 6123 H 615.484 -1.64973 3.65493 0
M  V30 6124 H 612.074 -0.355301 4.27125 0
M  V30 6125 H 616.258 0.35211 4.95049 0
M  V30 6126 H 611.514 1.3343 5.96663 0
M  V30 6127 H 615.688 2.03808 6.65909 0
M  V30 6128 H 613.315 2.53522 7.1668 0
M  V30 6129 N 614.89 -1.56749 -0.16351 0
M  V30 6130 C 616.139 -1.81626 -0.877211 0
M  V30 6131 C 616.452 -0.688791 -1.83071 0
M  V30 6132 O 617.658 -0.822697 -2.58735 0
M  V30 6133 C 616.114 -3.21858 -1.61045 0
M  V30 6134 C 615.722 -4.42494 -0.700195 0
M  V30 6135 C 617.466 -3.56021 -2.31192 0
M  V30 6136 C 615.373 -5.73748 -1.43412 0
M  V30 6137 H 614.303 -0.67731 -0.331312 0
M  V30 6138 H 616.954 -1.83039 -0.13006 0
M  V30 6139 H 615.336 -3.14784 -2.40264 0
M  V30 6140 H 616.51 -4.60766 0.0555849 0
M  V30 6141 H 614.825 -4.1626 -0.10799 0
M  V30 6142 H 617.422 -4.51333 -2.8671 0
M  V30 6143 H 617.765 -2.81277 -3.06902 0
M  V30 6144 H 618.298 -3.64682 -1.58909 0
M  V30 6145 H 615.037 -6.51543 -0.719186 0
M  V30 6146 H 614.557 -5.5944 -2.16302 0
M  V30 6147 H 616.236 -6.15975 -1.9795 0
M  V30 6148 N 616.368 0.432326 -1.51554 0
M  V30 6149 C 617.278 1.55023 -1.76082 0
M  V30 6150 C 618.294 1.61593 -0.645265 0
M  V30 6151 O 619.47 1.78742 -0.928086 0
M  V30 6152 C 616.535 2.90964 -1.88523 0
M  V30 6153 C 615.596 2.9447 -3.12388 0
M  V30 6154 C 614.829 4.23926 -3.24225 0
M  V30 6155 O 615.052 5.16576 -2.4188 0
M  V30 6156 O 613.986 4.33818 -4.17235 0
M  V30 6157 H 617.812 1.37238 -2.70923 0
M  V30 6158 H 615.397 0.615845 -1.36117 0
M  V30 6159 H 617.279 3.71633 -1.98662 0
M  V30 6160 H 615.954 3.08865 -0.9687 0
M  V30 6161 H 614.861 2.12737 -3.07723 0
M  V30 6162 H 616.194 2.81514 -4.03746 0
M  V30 6163 N 617.846 1.41785 0.688094 0
M  V30 6164 C 619.092 1.41753 1.4503 0
M  V30 6165 C 619.425 0.0290745 1.94178 0
M  V30 6166 O 618.7 -0.944456 1.7003 0
M  V30 6167 C 618.983 2.43069 2.65686 0
M  V30 6168 C 618.836 3.91053 2.22256 0
M  V30 6169 C 620.155 2.41543 3.67893 0
M  V30 6170 H 617.274 0.516202 0.526027 0
M  V30 6171 H 619.916 1.73111 0.783105 0
M  V30 6172 H 618.066 2.1646 3.2261 0
M  V30 6173 H 619.738 4.28594 1.70602 0
M  V30 6174 H 617.981 4.05559 1.53963 0
M  V30 6175 H 618.652 4.57501 3.08863 0
M  V30 6176 H 621.128 2.65175 3.20658 0
M  V30 6177 H 620.004 3.14434 4.49914 0
M  V30 6178 H 620.265 1.43666 4.18106 0
M  V30 6179 N 619.324 -0.923095 1.27737 0
M  V30 6180 C 620.601 -1.64989 1.05062 0
M  V30 6181 C 620.981 -2.07018 -0.413124 0
M  V30 6182 O 620.329 -1.80797 -1.39731 0
M  V30 6183 C 620.539 -2.84847 2.01652 0
M  V30 6184 C 621.887 -3.56083 2.31279 0
M  V30 6185 O 622.911 -2.94981 1.99662 0
M  V30 6186 O 621.77 -4.66182 2.85196 0
M  V30 6187 H 618.864 -0.723357 0.400853 0
M  V30 6188 H 621.41 -0.973224 1.3902 0
M  V30 6189 H 620.182 -2.50814 3.00347 0
M  V30 6190 H 619.805 -3.60231 1.68284 0
M  V30 6191 N 620.802 -1.09834 -1.13024 0
M  V30 6192 C 621.749 -0.741522 -2.18564 0
M  V30 6193 C 622.719 0.279236 -1.63736 0
M  V30 6194 O 623.904 0.159923 -1.90129 0
M  V30 6195 C 621.044 -0.17277 -3.44667 0
M  V30 6196 C 620.157 -1.24808 -4.13578 0
M  V30 6197 C 619.292 -0.641631 -5.27311 0
M  V30 6198 C 618.331 -1.69795 -5.88078 0
M  V30 6199 N 617.468 -1.11223 -6.93234 0
M  V30 6200 H 622.308 -1.64576 -2.48432 0
M  V30 6201 H 619.845 -0.822174 -1.21978 0
M  V30 6202 H 621.803 0.17482 -4.16834 0
M  V30 6203 H 620.433 0.694725 -3.15235 0
M  V30 6204 H 619.485 -1.71288 -3.39653 0
M  V30 6205 H 620.797 -2.04795 -4.54819 0
M  V30 6206 H 619.951 -0.243128 -6.06213 0
M  V30 6207 H 618.69 0.189742 -4.87331 0
M  V30 6208 H 617.695 -2.10595 -5.07868 0
M  V30 6209 H 618.92 -2.53206 -6.3013 0
M  V30 6210 H 616.866 -0.302208 -6.55304 0
M  V30 6211 H 616.783 -1.84901 -7.3304 0
M  V30 6212 H 618.051 -0.740068 -7.75979 0
M  V30 6213 N 622.28 1.30327 -0.886154 0
M  V30 6214 C 623.212 2.27079 -0.311072 0
M  V30 6215 C 624.225 1.53758 0.53502 0
M  V30 6216 O 625.414 1.74947 0.354378 0
M  V30 6217 C 622.514 3.33965 0.576228 0
M  V30 6218 C 621.687 4.36735 -0.241064 0
M  V30 6219 C 620.746 5.23028 0.576916 0
M  V30 6220 O 619.772 5.692 -0.000802231 0
M  V30 6221 N 620.974 5.49016 1.88579 0
M  V30 6222 H 623.739 2.77065 -1.14259 0
M  V30 6223 H 621.3 1.43519 -0.749258 0
M  V30 6224 H 623.292 3.88618 1.12953 0
M  V30 6225 H 621.862 2.839 1.30842 0
M  V30 6226 H 621.082 3.81932 -0.975805 0
M  V30 6227 H 622.37 5.02451 -0.801272 0
M  V30 6228 H 621.768 5.13288 2.37806 0
M  V30 6229 H 620.325 6.06539 2.38651 0
M  V30 6230 N 623.758 0.647228 1.43697 0
M  V30 6231 C 624.691 -0.097646 2.27991 0
M  V30 6232 C 625.669 -0.83571 1.3948 0
M  V30 6233 O 626.853 -0.836509 1.68922 0
M  V30 6234 C 623.98 -1.14484 3.18765 0
M  V30 6235 C 623.026 -0.505503 4.23494 0
M  V30 6236 S 623.859 0.716471 5.30685 0
M  V30 6237 C 625.015 -0.330339 6.25028 0
M  V30 6238 H 625.248 0.617417 2.90818 0
M  V30 6239 H 622.781 0.435881 1.4812 0
M  V30 6240 H 624.739 -1.74403 3.7161 0
M  V30 6241 H 623.4 -1.83219 2.55127 0
M  V30 6242 H 622.593 -1.29473 4.87086 0
M  V30 6243 H 622.195 0.0194377 3.73995 0
M  V30 6244 H 624.487 -1.19828 6.66819 0
M  V30 6245 H 625.43 0.270409 7.07583 0
M  V30 6246 H 625.838 -0.663459 5.60588 0
M  V30 6247 N 625.236 -1.5273 0.388769 0
M  V30 6248 C 626.652 -1.59553 0.0387049 0
M  V30 6249 C 626.852 -1.40278 -1.44652 0
M  V30 6250 O 625.908 -1.21951 -2.21098 0
M  V30 6251 C 627.221 -2.9625 0.515409 0
M  V30 6252 C 628.769 -3.09426 0.471621 0
M  V30 6253 C 629.244 -4.48572 0.924505 0
M  V30 6254 N 630.735 -4.54754 0.880496 0
M  V30 6255 C 631.47 -5.60653 1.20234 0
M  V30 6256 N 630.966 -6.74198 1.59463 0
M  V30 6257 N 632.759 -5.50755 1.12363 0
M  V30 6258 H 624.91 -1.63508 1.35569 0
M  V30 6259 H 627.173 -0.768097 0.555636 0
M  V30 6260 H 626.879 -3.15569 1.5527 0
M  V30 6261 H 626.753 -3.77102 -0.085792 0
M  V30 6262 H 629.14 -2.89804 -0.556588 0
M  V30 6263 H 629.221 -2.30528 1.10862 0
M  V30 6264 H 628.865 -4.68936 1.95094 0
M  V30 6265 H 628.795 -5.25935 0.264524 0
M  V30 6266 H 631.286 -3.73237 0.591815 0
M  V30 6267 H 631.599 -7.5097 1.82385 0
M  V30 6268 H 629.944 -6.75531 1.63349 0
M  V30 6269 H 633.135 -4.6093 0.816169 0
M  V30 6270 H 633.308 -6.33184 1.37777 0
M  V30 6271 N 626.714 -0.118576 -1.57153 0
M  V30 6272 C 627.942 0.54726 -1.99531 0
M  V30 6273 C 628.357 1.60251 -0.998246 0
M  V30 6274 O 627.714 1.82498 0.00893106 0
M  V30 6275 C 627.765 1.17378 -3.41913 0
M  V30 6276 O 627.486 0.160703 -4.37805 0
M  V30 6277 C 628.987 1.92297 -3.9942 0
M  V30 6278 H 626.207 0.144919 -0.655164 0
M  V30 6279 H 628.751 -0.20479 -2.03472 0
M  V30 6280 H 626.906 1.87661 -3.38913 0
M  V30 6281 H 627.32 0.61586 -5.20872 0
M  V30 6282 H 628.794 2.31462 -5.01128 0
M  V30 6283 H 629.271 2.79801 -3.38538 0
M  V30 6284 H 629.877 1.26777 -4.05965 0
M  V30 6285 N 628.193 1.56834 0.155195 0
M  V30 6286 C 629.141 1.98584 1.21107 0
M  V30 6287 C 630.135 0.876987 1.44932 0
M  V30 6288 O 631.341 1.06215 1.45322 0
M  V30 6289 H 627.716 0.632039 0.407469 0
M  V30 6290 H 629.687 2.86561 0.832195 0
M  V30 6291 C 628.436 2.37555 2.53895 0
M  V30 6292 H 627.759 3.22428 2.3639 0
M  V30 6293 H 629.199 2.70598 3.26424 0
M  V30 6294 C 627.658 1.22507 3.13837 0
M  V30 6295 O 628.188 0.521388 3.98302 0
M  V30 6296 N 626.394 0.991444 2.73164 0
M  V30 6297 H 625.941 1.56544 2.04577 0
M  V30 6298 H 625.899 0.223546 3.13604 0
M  V30 6299 N 629.671 -0.424282 1.51781 0
M  V30 6300 C 630.917 -1.17434 1.6534 0
M  V30 6301 C 631.25 -1.90549 0.374806 0
M  V30 6302 O 630.525 -1.84145 -0.626179 0
M  V30 6303 C 630.808 -2.18093 2.86544 0
M  V30 6304 C 630.661 -1.48975 4.24413 0
M  V30 6305 C 631.98 -3.18934 3.03264 0
M  V30 6306 H 629.099 -0.425566 0.601716 0
M  V30 6307 H 631.741 -0.461921 1.84299 0
M  V30 6308 H 629.891 -2.78849 2.7051 0
M  V30 6309 H 631.563 -0.914551 4.52143 0
M  V30 6310 H 629.806 -0.791893 4.26511 0
M  V30 6311 H 630.477 -2.22347 5.05238 0
M  V30 6312 H 632.953 -2.68243 3.18096 0
M  V30 6313 H 631.829 -3.86645 3.89611 0
M  V30 6314 H 632.09 -3.85793 2.15908 0
M  V30 6315 N 631.149 -1.42148 -0.680565 0
M  V30 6316 C 632.56 -1.3768 -1.26099 0
M  V30 6317 C 632.911 -0.0672348 -1.96085 0
M  V30 6318 O 632.036 0.834172 -1.99676 0
M  V30 6319 C 632.631 -2.49387 -2.29328 0
M  V30 6320 C 631.19 -2.4827 -2.82911 0
M  V30 6321 C 630.337 -2.2847 -1.57152 0
M  V30 6322 H 633.288 -1.51446 -0.474326 0
M  V30 6323 H 633.309 -2.19307 -3.10941 0
M  V30 6324 H 632.821 -3.44686 -1.78363 0
M  V30 6325 H 630.922 -1.56773 -3.38013 0
M  V30 6326 H 631.035 -3.45109 -3.3232 0
M  V30 6327 H 629.399 -1.76623 -1.83511 0
M  V30 6328 H 630.182 -3.25816 -1.0816 0
M  V30 6329 N 632.627 0.916307 -1.28225 0
M  V30 6330 C 633.577 2.00488 -1.08574 0
M  V30 6331 C 634.561 1.60897 -0.0101874 0
M  V30 6332 O 635.753 1.75499 -0.230034 0
M  V30 6333 C 632.882 3.35076 -0.746943 0
M  V30 6334 C 631.968 3.81077 -1.86121 0
M  V30 6335 N 632.359 3.99475 -3.10247 0
M  V30 6336 C 630.657 4.10212 -1.75048 0
M  V30 6337 C 631.358 4.37965 -3.82834 0
M  V30 6338 N 630.334 4.4608 -3.10667 0
M  V30 6339 H 634.136 2.1276 -2.02757 0
M  V30 6340 H 631.65 1.10397 -1.19107 0
M  V30 6341 H 633.647 4.12743 -0.587252 0
M  V30 6342 H 632.307 3.2416 0.187146 0
M  V30 6343 H 633.318 3.85466 -3.45885 0
M  V30 6344 H 629.995 4.07947 -0.887999 0
M  V30 6345 H 631.385 4.60183 -4.89572 0
M  V30 6346 N 634.105 1.10431 1.1244 0
M  V30 6347 C 635.354 0.841539 1.83306 0
M  V30 6348 C 635.667 -0.634961 1.85007 0
M  V30 6349 O 636.873 -1.01363 2.51869 0
M  V30 6350 C 635.329 1.45565 3.29149 0
M  V30 6351 C 634.937 2.96544 3.35806 0
M  V30 6352 C 636.681 1.27227 4.04986 0
M  V30 6353 C 634.588 3.5099 4.75983 0
M  V30 6354 H 633.518 0.311156 0.686803 0
M  V30 6355 H 636.169 1.32829 1.26604 0
M  V30 6356 H 634.551 0.896574 3.85717 0
M  V30 6357 H 635.725 3.58766 2.89177 0
M  V30 6358 H 634.04 3.14036 2.73442 0
M  V30 6359 H 636.637 1.65348 5.08492 0
M  V30 6360 H 636.98 0.213834 4.1575 0
M  V30 6361 H 637.513 1.79941 3.54776 0
M  V30 6362 H 634.252 4.56499 4.70413 0
M  V30 6363 H 633.772 2.93535 5.23065 0
M  V30 6364 H 635.451 3.48808 5.44924 0
M  V30 6365 N 635.583 -1.29855 0.893053 0
M  V30 6366 C 636.813 -1.99686 0.530019 0
M  V30 6367 C 637.221 -1.67066 -0.888012 0
M  V30 6368 O 636.564 -0.908366 -1.5967 0
M  V30 6369 C 636.626 -3.53855 0.63457 0
M  V30 6370 C 636.29 -4.10013 2.01837 0
M  V30 6371 C 637.287 -4.25406 2.98874 0
M  V30 6372 C 634.972 -4.45202 2.32595 0
M  V30 6373 C 636.966 -4.7521 4.24799 0
M  V30 6374 C 634.653 -4.94704 3.58763 0
M  V30 6375 C 635.651 -5.09662 4.5468 0
M  V30 6376 O 635.339 -5.58093 5.78608 0
M  V30 6377 H 635.071 -0.644913 0.20264 0
M  V30 6378 H 637.625 -1.66518 1.20253 0
M  V30 6379 H 635.855 -3.86583 -0.0949477 0
M  V30 6380 H 637.544 -4.04922 0.281648 0
M  V30 6381 H 638.31 -3.98515 2.76425 0
M  V30 6382 H 634.189 -4.32822 1.58701 0
M  V30 6383 H 637.733 -4.86801 4.99671 0
M  V30 6384 H 633.63 -5.21032 3.81046 0
M  V30 6385 H 634.398 -5.7642 5.81104 0
M  V30 6386 N 637.061 -0.65484 -1.43351 0
M  V30 6387 C 638.024 0.0263562 -2.29185 0
M  V30 6388 C 639.024 0.748951 -1.42293 0
M  V30 6389 O 640.214 0.589957 -1.63906 0
M  V30 6390 C 637.346 1.04806 -3.2439 0
M  V30 6391 H 638.539 -0.728883 -2.90908 0
M  V30 6392 H 636.092 -0.416149 -1.50658 0
M  V30 6393 H 636.827 1.83247 -2.67565 0
M  V30 6394 H 636.612 0.533554 -3.88453 0
M  V30 6395 H 638.102 1.52372 -3.88809 0
M  V30 6396 N 638.539 1.52521 -0.396863 0
M  V30 6397 C 639.788 2.00857 0.184184 0
M  V30 6398 C 640.101 1.28733 1.47265 0
M  V30 6399 O 641.307 1.67821 2.13421 0
M  V30 6400 C 639.763 3.57901 0.378787 0
M  V30 6401 C 639.371 4.38931 -0.896873 0
M  V30 6402 C 641.115 4.14504 0.915789 0
M  V30 6403 C 639.022 5.87591 -0.670133 0
M  V30 6404 H 637.952 0.750496 0.0726055 0
M  V30 6405 H 640.603 1.75965 -0.520425 0
M  V30 6406 H 638.985 3.79072 1.14543 0
M  V30 6407 H 640.159 4.29524 -1.66872 0
M  V30 6408 H 638.474 3.93586 -1.35938 0
M  V30 6409 H 641.071 5.23236 1.10126 0
M  V30 6410 H 641.414 3.71076 1.88701 0
M  V30 6411 H 641.947 3.97253 0.208523 0
M  V30 6412 H 638.686 6.35355 -1.61257 0
M  V30 6413 H 638.206 5.99767 0.0626368 0
M  V30 6414 H 639.885 6.46268 -0.307577 0
M  V30 6415 N 640.017 0.126909 1.57088 0
M  V30 6416 C 641.265 -0.528123 1.95078 0
M  V30 6417 C 641.586 -1.66708 1.0116 0
M  V30 6418 O 640.856 -1.95777 0.0693527 0
M  V30 6419 H 639.436 -0.198087 0.720257 0
M  V30 6420 H 642.098 0.197703 1.93895 0
M  V30 6421 H 641.194 -0.917507 2.98309 0
M  V30 6422 N 641.495 -1.56914 -0.146875 0
M  V30 6423 C 642.772 -1.74273 -0.888165 0
M  V30 6424 C 643.152 -0.69496 -1.99333 0
M  V30 6425 O 642.5 0.286093 -2.26702 0
M  V30 6426 C 642.71 -3.18336 -1.43051 0
M  V30 6427 C 644.058 -3.80024 -1.89387 0
M  V30 6428 O 645.082 -3.21765 -1.52792 0
M  V30 6429 O 643.941 -4.82367 -2.56874 0
M  V30 6430 H 641.035 -0.712565 -0.419738 0
M  V30 6431 H 643.581 -1.6918 -0.132791 0
M  V30 6432 H 642.353 -3.86092 -0.636274 0
M  V30 6433 H 641.976 -3.27854 -2.24938 0
M  V30 6434 N 642.974 0.416227 -1.52004 0
M  V30 6435 C 644.223 1.16088 -1.64944 0
M  V30 6436 C 644.536 1.91835 -0.381928 0
M  V30 6437 O 645.742 2.6867 -0.391013 0
M  V30 6438 C 644.198 2.1124 -2.91386 0
M  V30 6439 C 643.806 1.41042 -4.25219 0
M  V30 6440 C 645.55 2.86008 -3.13688 0
M  V30 6441 C 643.457 2.34801 -5.42791 0
M  V30 6442 H 642.387 0.437041 -0.61442 0
M  V30 6443 H 645.038 0.425971 -1.78487 0
M  V30 6444 H 643.42 2.88254 -2.71525 0
M  V30 6445 H 644.594 0.694416 -4.55538 0
M  V30 6446 H 642.909 0.78344 -4.08964 0
M  V30 6447 H 645.506 3.56286 -3.98703 0
M  V30 6448 H 645.849 3.48556 -2.27628 0
M  V30 6449 H 646.382 2.16095 -3.33988 0
M  V30 6450 H 643.121 1.7691 -6.31176 0
M  V30 6451 H 642.641 3.04395 -5.16821 0
M  V30 6452 H 644.32 2.9548 -5.75587 0
M  V30 6453 N 644.452 1.42507 0.673017 0
M  V30 6454 C 645.698 1.43284 1.43519 0
M  V30 6455 C 646.031 0.049668 1.94136 0
M  V30 6456 O 645.306 -0.926369 1.71022 0
M  V30 6457 C 645.589 2.45874 2.63093 0
M  V30 6458 C 645.442 3.93388 2.18096 0
M  V30 6459 C 646.761 2.45431 3.6531 0
M  V30 6460 H 643.88 0.521752 0.520522 0
M  V30 6461 H 646.522 1.73932 0.764701 0
M  V30 6462 H 644.672 2.19869 3.20296 0
M  V30 6463 H 646.344 4.30379 1.66046 0
M  V30 6464 H 644.587 4.07169 1.49652 0
M  V30 6465 H 645.258 4.60752 3.03993 0
M  V30 6466 H 647.734 2.68561 3.17827 0
M  V30 6467 H 646.61 3.19189 4.46553 0
M  V30 6468 H 646.871 1.48092 4.16559 0
M  V30 6469 N 645.93 -0.909495 1.28709 0
M  V30 6470 C 647.178 -1.65577 1.15882 0
M  V30 6471 C 647.499 -1.928 -0.292108 0
M  V30 6472 O 646.769 -1.54716 -1.20166 0
M  V30 6473 H 645.349 -0.613714 0.425869 0
M  V30 6474 H 648.011 -1.09108 1.61498 0
M  V30 6475 H 647.107 -2.61634 1.70159 0
M  V30 6476 N 647.408 -1.11026 -1.11852 0
M  V30 6477 C 648.34 -0.72249 -2.17515 0
M  V30 6478 C 649.353 0.243782 -1.60964 0
M  V30 6479 O 650.542 0.0273252 -1.78479 0
M  V30 6480 C 647.642 -0.0463979 -3.38868 0
M  V30 6481 C 646.815 -1.0384 -4.24895 0
M  V30 6482 C 645.874 -0.392659 -5.24733 0
M  V30 6483 O 644.9 -1.0453 -5.5952 0
M  V30 6484 N 646.102 0.846296 -5.74298 0
M  V30 6485 H 648.867 -1.63161 -2.51393 0
M  V30 6486 H 646.428 -0.999899 -1.27333 0
M  V30 6487 H 648.42 0.397215 -4.02746 0
M  V30 6488 H 646.99 0.765231 -3.03089 0
M  V30 6489 H 646.21 -1.6601 -3.57539 0
M  V30 6490 H 647.498 -1.70968 -4.79215 0
M  V30 6491 H 646.896 1.39578 -5.4821 0
M  V30 6492 H 645.453 1.23296 -6.40032 0
M  V30 6493 N 648.886 1.2938 -0.899927 0
M  V30 6494 C 650.297 1.77644 -0.574427 0
M  V30 6495 C 650.648 1.73824 0.909928 0
M  V30 6496 O 649.773 1.32429 1.71147 0
M  V30 6497 C 650.368 3.22573 -1.03595 0
M  V30 6498 C 648.927 3.68614 -0.76161 0
M  V30 6499 C 648.074 2.49483 -1.21052 0
M  V30 6500 H 651.025 1.16038 -1.08263 0
M  V30 6501 H 651.046 3.78684 -0.371337 0
M  V30 6502 H 650.558 3.25321 -2.11631 0
M  V30 6503 H 648.659 3.7134 0.306127 0
M  V30 6504 H 648.772 4.59402 -1.35965 0
M  V30 6505 H 647.136 2.46798 -0.629515 0
M  V30 6506 H 647.919 2.54959 -2.29893 0
M  V30 6507 N 650.364 0.662433 1.43002 0
M  V30 6508 C 651.297 -0.073459 2.28082 0
M  V30 6509 C 652.275 -0.820869 1.40358 0
M  V30 6510 O 653.459 -0.818545 1.698 0
M  V30 6511 C 650.586 -1.11097 3.19961 0
M  V30 6512 C 649.632 -0.460557 4.24006 0
M  V30 6513 S 650.465 0.772717 5.29896 0
M  V30 6514 C 651.621 -0.264028 6.25343 0
M  V30 6515 H 651.854 0.648227 2.90147 0
M  V30 6516 H 649.387 0.451566 1.47649 0
M  V30 6517 H 651.345 -1.70452 3.73439 0
M  V30 6518 H 650.006 -1.80503 2.57056 0
M  V30 6519 H 649.199 -1.24299 4.88432 0
M  V30 6520 H 648.801 0.0591038 3.73953 0
M  V30 6521 H 651.093 -1.12748 6.68052 0
M  V30 6522 H 652.036 0.345443 7.07257 0
M  V30 6523 H 652.444 -0.603964 5.6126 0
M  V30 6524 N 651.842 -1.52309 0.404946 0
M  V30 6525 C 652.772 -2.29805 -0.41376 0
M  V30 6526 C 653.753 -1.3384 -1.0498 0
M  V30 6527 O 654.938 -1.62745 -1.05961 0
M  V30 6528 C 652.068 -3.11639 -1.53292 0
M  V30 6529 C 651.022 -4.15616 -1.02211 0
M  V30 6530 C 650.348 -4.8577 -2.23455 0
M  V30 6531 C 651.648 -5.2224 -0.0790725 0
M  V30 6532 H 653.342 -2.98493 0.232878 0
M  V30 6533 H 650.888 -1.43552 0.113441 0
M  V30 6534 H 652.841 -3.64618 -2.11262 0
M  V30 6535 H 651.565 -2.40712 -2.20738 0
M  V30 6536 H 650.224 -3.63641 -0.46484 0
M  V30 6537 H 649.872 -4.11376 -2.89445 0
M  V30 6538 H 649.572 -5.56058 -1.89929 0
M  V30 6539 H 651.096 -5.4156 -2.82038 0
M  V30 6540 H 652.51 -5.70485 -0.567438 0
M  V30 6541 H 650.907 -5.99867 0.167167 0
M  V30 6542 H 651.977 -4.77078 0.867447 0
M  V30 6543 N 653.32 -0.135238 -1.57019 0
M  V30 6544 C 654.283 0.794707 -2.14981 0
M  V30 6545 C 655.283 1.18342 -1.08866 0
M  V30 6546 O 656.473 1.10627 -1.34563 0
M  V30 6547 C 653.605 2.07685 -2.70333 0
M  V30 6548 H 654.798 0.290696 -2.98488 0
M  V30 6549 H 652.351 0.114128 -1.55883 0
M  V30 6550 H 653.086 2.6248 -1.9046 0
M  V30 6551 H 652.871 1.80745 -3.47957 0
M  V30 6552 H 654.361 2.74127 -3.1503 0
M  V30 6553 N 654.798 1.5699 0.138552 0
M  V30 6554 C 655.748 1.9532 1.17619 0
M  V30 6555 C 656.732 0.825545 1.38107 0
M  V30 6556 O 657.924 1.08908 1.39528 0
M  V30 6557 C 655.053 2.34451 2.50774 0
M  V30 6558 C 654.139 3.53805 2.33844 0
M  V30 6559 N 654.53 4.70088 1.86685 0
M  V30 6560 C 652.828 3.59055 2.64567 0
M  V30 6561 C 653.529 5.52165 1.82998 0
M  V30 6562 N 652.505 4.94108 2.26624 0
M  V30 6563 H 656.307 2.82694 0.803809 0
M  V30 6564 H 653.821 1.5866 0.346519 0
M  V30 6565 H 655.818 2.60119 3.25797 0
M  V30 6566 H 654.478 1.48431 2.88788 0
M  V30 6567 H 655.489 4.93681 1.56523 0
M  V30 6568 H 652.166 2.83596 3.06398 0
M  V30 6569 H 653.556 6.55407 1.47957 0
M  V30 6570 N 656.276 -0.40816 1.52223 0
M  V30 6571 C 657.223 -1.49737 1.75635 0
M  V30 6572 C 658.193 -1.5493 0.598824 0
M  V30 6573 O 659.378 -1.71487 0.83648 0
M  V30 6574 C 656.518 -2.87174 1.91376 0
M  V30 6575 C 655.631 -2.91283 3.19027 0
M  V30 6576 C 654.766 -4.20026 3.25195 0
M  V30 6577 C 653.805 -4.18113 4.47044 0
M  V30 6578 N 652.942 -5.38429 4.50598 0
M  V30 6579 H 657.782 -1.29075 2.68596 0
M  V30 6580 H 655.319 -0.626518 1.33091 0
M  V30 6581 H 657.277 -3.66959 1.98486 0
M  V30 6582 H 655.907 -3.06329 1.01795 0
M  V30 6583 H 654.959 -2.03984 3.21084 0
M  V30 6584 H 656.271 -2.85734 4.08849 0
M  V30 6585 H 655.425 -5.08204 3.31382 0
M  V30 6586 H 654.164 -4.28271 2.33313 0
M  V30 6587 H 653.169 -3.28325 4.41002 0
M  V30 6588 H 654.394 -4.11507 5.40221 0
M  V30 6589 H 652.34 -5.4734 3.616 0
M  V30 6590 H 652.257 -5.34879 5.34266 0
M  V30 6591 H 653.525 -6.28557 4.61016 0
M  V30 6592 N 657.755 -1.42862 -0.66545 0
M  V30 6593 C 658.718 -1.46756 -1.76055 0
M  V30 6594 C 659.718 -0.353866 -1.56858 0
M  V30 6595 O 660.908 -0.615099 -1.62979 0
M  V30 6596 C 658.04 -1.30829 -3.14796 0
M  V30 6597 H 659.233 -2.44271 -1.73987 0
M  V30 6598 H 656.786 -1.29447 -0.875965 0
M  V30 6599 H 657.521 -0.342733 -3.22484 0
M  V30 6600 H 657.306 -2.11551 -3.30134 0
M  V30 6601 H 658.796 -1.36458 -3.94676 0
M  V30 6602 N 659.233 0.902656 -1.29189 0
M  V30 6603 C 660.479 1.65532 -1.17163 0
M  V30 6604 C 660.812 1.92216 0.276879 0
M  V30 6605 O 660.087 1.53048 1.20027 0
M  V30 6606 C 660.37 3.00629 -1.98228 0
M  V30 6607 C 660.223 2.81029 -3.51202 0
M  V30 6608 C 661.542 4.01321 -1.80635 0
M  V30 6609 H 658.661 0.60071 -0.426985 0
M  V30 6610 H 661.303 1.04578 -1.5863 0
M  V30 6611 H 659.453 3.52656 -1.62991 0
M  V30 6612 H 661.125 2.35927 -3.96404 0
M  V30 6613 H 659.368 2.1587 -3.76275 0
M  V30 6614 H 660.039 3.77014 -4.03192 0
M  V30 6615 H 662.515 3.58394 -2.11406 0
M  V30 6616 H 661.391 4.93792 -2.3971 0
M  V30 6617 H 661.652 4.35505 -0.760754 0
M  V30 6618 N 660.711 1.11618 1.11262 0
M  V30 6619 C 661.661 0.745274 2.15475 0
M  V30 6620 C 662.645 -0.251585 1.58921 0
M  V30 6621 O 663.837 -0.0584093 1.76904 0
M  V30 6622 C 660.966 0.192128 3.42762 0
M  V30 6623 C 660.052 1.21676 4.0627 0
M  V30 6624 N 660.443 2.41158 4.44608 0
M  V30 6625 C 658.741 1.06013 4.33217 0
M  V30 6626 C 659.442 3.0652 4.94389 0
M  V30 6627 N 658.418 2.33994 4.9066 0
M  V30 6628 H 662.22 1.65462 2.42898 0
M  V30 6629 H 659.734 0.995695 1.28295 0
M  V30 6630 H 661.731 -0.0917339 4.16799 0
M  V30 6631 H 660.391 -0.711778 3.16802 0
M  V30 6632 H 661.402 2.786 4.3658 0
M  V30 6633 H 658.079 0.212809 4.16957 0
M  V30 6634 H 659.469 4.08225 5.33669 0
M  V30 6635 N 662.189 -1.289 0.906776 0
M  V30 6636 C 663.099 -2.31256 0.394707 0
M  V30 6637 C 664.115 -1.66231 -0.514121 0
M  V30 6638 O 665.291 -1.97347 -0.401994 0
M  V30 6639 C 662.356 -3.44792 -0.363191 0
M  V30 6640 C 661.417 -4.25391 0.578012 0
M  V30 6641 C 660.65 -5.33506 -0.143811 0
M  V30 6642 O 660.873 -5.53786 -1.36665 0
M  V30 6643 O 659.807 -5.99673 0.5173 0
M  V30 6644 H 663.633 -2.77051 1.24405 0
M  V30 6645 H 661.218 -1.33466 0.671346 0
M  V30 6646 H 663.1 -4.139 -0.791503 0
M  V30 6647 H 661.775 -3.01093 -1.18848 0
M  V30 6648 H 660.682 -3.58899 1.05558 0
M  V30 6649 H 662.015 -4.72752 1.36992 0
M  V30 6650 N 663.667 -0.670007 -1.42649 0
M  V30 6651 C 664.915 -0.18991 -2.01206 0
M  V30 6652 C 665.236 1.20617 -1.53221 0
M  V30 6653 O 664.506 1.80898 -0.751856 0
M  V30 6654 H 663.086 -0.0672189 -0.743969 0
M  V30 6655 H 665.748 -0.865442 -1.74631 0
M  V30 6656 H 664.844 -0.187481 -3.11536 0
M  V30 6657 N 665.145 1.52092 -0.413018 0
M  V30 6658 C 666.095 2.23947 0.427993 0
M  V30 6659 C 667.079 1.25229 1.01027 0
M  V30 6660 O 668.271 1.50448 0.932444 0
M  V30 6661 C 665.4 3.0672 1.542 0
M  V30 6662 C 664.486 4.12851 0.970307 0
M  V30 6663 N 664.877 5.05644 0.125611 0
M  V30 6664 C 663.175 4.28404 1.24042 0
M  V30 6665 C 663.876 5.8138 -0.192876 0
M  V30 6666 N 662.852 5.41996 0.417273 0
M  V30 6667 H 666.654 2.93048 -0.223628 0
M  V30 6668 H 664.168 1.60852 -0.223664 0
M  V30 6669 H 666.165 3.56754 2.15714 0
M  V30 6670 H 664.825 2.39159 2.19621 0
M  V30 6671 H 665.836 5.17348 -0.238995 0
M  V30 6672 H 662.513 3.72071 1.89391 0
M  V30 6673 H 663.903 6.66129 -0.878762 0
M  V30 6674 N 666.623 0.143563 1.56945 0
M  V30 6675 C 667.869 -0.50916 1.96304 0
M  V30 6676 C 668.202 -1.64741 1.0283 0
M  V30 6677 O 667.477 -1.94374 0.0700361 0
M  V30 6678 C 667.76 -1.0186 3.45393 0
M  V30 6679 C 667.613 0.117923 4.49645 0
M  V30 6680 C 668.932 -1.90151 3.96901 0
M  V30 6681 H 666.051 -0.183608 0.713763 0
M  V30 6682 H 668.693 0.224095 1.88674 0
M  V30 6683 H 666.843 -1.64345 3.52027 0
M  V30 6684 H 668.515 0.754145 4.55094 0
M  V30 6685 H 666.758 0.777568 4.26774 0
M  V30 6686 H 667.429 -0.280187 5.51288 0
M  V30 6687 H 669.905 -1.375 3.92725 0
M  V30 6688 H 668.781 -2.22707 5.0169 0
M  V30 6689 H 669.042 -2.83718 3.39052 0
M  V30 6690 N 668.101 -1.57061 -0.130224 0
M  V30 6691 C 669.064 -1.98593 -1.14426 0
M  V30 6692 C 670.064 -0.874584 -1.34936 0
M  V30 6693 O 671.254 -1.14086 -1.31643 0
M  V30 6694 C 668.386 -2.31639 -2.50112 0
M  V30 6695 H 669.579 -2.89374 -0.787561 0
M  V30 6696 H 667.132 -1.51756 -0.374146 0
M  V30 6697 H 667.867 -1.43703 -2.90723 0
M  V30 6698 H 667.652 -3.12684 -2.36583 0
M  V30 6699 H 669.142 -2.64551 -3.23114 0
M  V30 6700 N 669.579 0.400081 -1.52437 0
M  V30 6701 C 670.542 1.4707 -1.75793 0
M  V30 6702 C 671.542 1.48036 -0.627856 0
M  V30 6703 O 672.732 1.49401 -0.895817 0
M  V30 6704 C 669.864 2.86427 -1.84858 0
M  V30 6705 H 671.057 1.27649 -2.71377 0
M  V30 6706 H 668.61 0.631141 -1.42991 0
M  V30 6707 H 669.345 3.11207 -0.912194 0
M  V30 6708 H 669.13 2.87128 -2.6702 0
M  V30 6709 H 670.62 3.64023 -2.04638 0
M  V30 6710 N 671.057 1.43213 0.657864 0
M  V30 6711 C 671.967 1.50448 1.80007 0
M  V30 6712 C 672.983 0.39191 1.69529 0
M  V30 6713 O 674.159 0.645349 1.90781 0
M  V30 6714 C 671.224 1.42062 3.16258 0
M  V30 6715 C 670.285 2.63951 3.38568 0
M  V30 6716 C 669.518 2.55956 4.68318 0
M  V30 6717 O 669.741 1.60473 5.47361 0
M  V30 6718 O 668.675 3.46378 4.92245 0
M  V30 6719 H 672.501 2.4689 1.76858 0
M  V30 6720 H 670.086 1.25163 0.81576 0
M  V30 6721 H 671.968 1.3981 3.97531 0
M  V30 6722 H 670.643 0.487524 3.20008 0
M  V30 6723 H 669.55 2.71776 2.57077 0
M  V30 6724 H 670.883 3.56217 3.39662 0
M  V30 6725 N 672.536 -0.895792 1.29666 0
M  V30 6726 C 673.484 -2.02173 1.15017 0
M  V30 6727 C 674.478 -1.69276 0.0647651 0
M  V30 6728 O 675.684 -1.7859 0.224846 0
M  V30 6729 H 672.059 -0.662719 0.355397 0
M  V30 6730 H 674.03 -2.11666 2.10334 0
M  V30 6731 C 672.779 -3.37212 0.847555 0
M  V30 6732 H 672.102 -3.6303 1.67479 0
M  V30 6733 H 673.542 -4.16668 0.785106 0
M  V30 6734 C 672.001 -3.33891 -0.44929 0
M  V30 6735 O 672.531 -3.73673 -1.47415 0
M  V30 6736 N 670.737 -2.86991 -0.456547 0
M  V30 6737 H 670.284 -2.54813 0.377925 0
M  V30 6738 H 670.242 -2.85152 -1.32423 0
M  V30 6739 N 674.014 -1.12206 -1.10668 0
M  V30 6740 C 675.254 -0.885935 -1.84202 0
M  V30 6741 C 675.618 0.577849 -1.83098 0
M  V30 6742 O 676.819 0.931051 -2.5216 0
M  V30 6743 C 675.09 -1.44197 -3.2702 0
M  V30 6744 S 676.649 -1.34402 -4.1771 0
M  V30 6745 H 673.467 -0.319653 -0.635093 0
M  V30 6746 H 676.069 -1.43112 -1.33189 0
M  V30 6747 H 674.773 -2.50096 -3.25392 0
M  V30 6748 H 674.304 -0.894173 -3.83103 0
M  V30 6749 H 676.319 -0.313873 -4.95206 0
M  V30 6750 N 675.492 1.28418 -0.913599 0
M  V30 6751 C 676.455 2.25564 -0.406624 0
M  V30 6752 C 677.455 1.5387 0.466965 0
M  V30 6753 O 678.645 1.72094 0.270042 0
M  V30 6754 C 675.777 3.38339 0.417053 0
M  V30 6755 H 676.97 2.71926 -1.26477 0
M  V30 6756 H 674.523 1.40098 -0.692986 0
M  V30 6757 H 675.258 2.97339 1.29461 0
M  V30 6758 H 675.043 3.91542 -0.209102 0
M  V30 6759 H 676.533 4.10578 0.762602 0
M  V30 6760 N 676.97 0.677563 1.42291 0
M  V30 6761 C 678.218 0.200578 2.01102 0
M  V30 6762 C 678.539 -1.19803 1.53858 0
M  V30 6763 O 677.809 -1.80496 0.761439 0
M  V30 6764 H 676.389 0.0711634 0.743603 0
M  V30 6765 H 679.051 0.874691 1.7417 0
M  V30 6766 H 678.147 0.204 3.11433 0
M  V30 6767 N 678.448 -1.51871 0.421078 0
M  V30 6768 C 679.398 -2.24171 -0.416111 0
M  V30 6769 C 680.382 -1.25763 -1.00362 0
M  V30 6770 O 681.574 -1.5094 -0.924452 0
M  V30 6771 C 678.703 -3.07533 -1.52571 0
M  V30 6772 C 677.789 -4.1336 -0.948399 0
M  V30 6773 N 678.18 -5.05704 -0.0987933 0
M  V30 6774 C 676.478 -4.29055 -1.21768 0
M  V30 6775 C 677.179 -5.8127 0.223705 0
M  V30 6776 N 676.155 -5.4221 -0.388524 0
M  V30 6777 H 679.957 -2.92925 0.239166 0
M  V30 6778 H 677.471 -1.60732 0.232191 0
M  V30 6779 H 679.468 -3.57893 -2.13819 0
M  V30 6780 H 678.128 -2.4032 -2.18349 0
M  V30 6781 H 679.139 -5.17214 0.266428 0
M  V30 6782 H 675.816 -3.73071 -1.87416 0
M  V30 6783 H 677.206 -6.65653 0.914076 0
M  V30 6784 N 679.926 -0.151884 -1.56866 0
M  V30 6785 C 680.873 0.785936 -2.17006 0
M  V30 6786 C 681.843 1.2407 -1.10435 0
M  V30 6787 O 683.028 1.31235 -1.38499 0
M  V30 6788 C 680.168 2.01771 -2.79969 0
M  V30 6789 C 679.281 1.6083 -4.00946 0
M  V30 6790 C 678.416 2.79224 -4.51893 0
M  V30 6791 C 677.455 2.3468 -5.65324 0
M  V30 6792 N 676.592 3.461 -6.10867 0
M  V30 6793 H 681.432 0.266286 -2.96808 0
M  V30 6794 H 678.969 0.11972 -1.46612 0
M  V30 6795 H 680.927 2.73989 -3.14621 0
M  V30 6796 H 679.557 2.51139 -2.02803 0
M  V30 6797 H 678.609 0.783592 -3.72242 0
M  V30 6798 H 679.921 1.24119 -4.83111 0
M  V30 6799 H 679.075 3.59625 -4.88625 0
M  V30 6800 H 677.814 3.19183 -3.68746 0
M  V30 6801 H 676.819 1.52721 -5.28163 0
M  V30 6802 H 678.044 1.95801 -6.5026 0
M  V30 6803 H 675.99 3.85671 -5.30654 0
M  V30 6804 H 675.907 3.1342 -6.87971 0
M  V30 6805 H 677.175 4.26844 -6.52246 0
M  V30 6806 N 681.404 1.57128 0.121893 0
M  V30 6807 C 682.367 1.99197 1.13372 0
M  V30 6808 C 683.367 0.881728 1.3447 0
M  V30 6809 O 684.557 1.14783 1.31036 0
M  V30 6810 C 681.689 2.32963 2.4888 0
M  V30 6811 H 682.882 2.89788 0.772204 0
M  V30 6812 H 680.435 1.51952 0.366093 0
M  V30 6813 H 681.17 1.45243 2.89957 0
M  V30 6814 H 680.955 3.13934 2.34921 0
M  V30 6815 H 682.445 2.66261 3.21706 0
M  V30 6816 N 682.882 -0.391992 1.52647 0
M  V30 6817 C 684.112 -1.15692 1.71169 0
M  V30 6818 C 684.52 -1.84285 0.428444 0
M  V30 6819 O 683.863 -1.73393 -0.606669 0
M  V30 6820 C 683.925 -2.25033 2.80357 0
M  V30 6821 C 683.589 -1.76433 4.21569 0
M  V30 6822 C 684.586 -1.2427 5.0483 0
M  V30 6823 C 682.271 -1.82746 4.67877 0
M  V30 6824 C 684.265 -0.790657 6.32477 0
M  V30 6825 C 681.952 -1.37153 5.9551 0
M  V30 6826 C 682.95 -0.853997 6.7764 0
M  V30 6827 O 682.638 -0.404708 8.02881 0
M  V30 6828 H 682.37 -0.35297 0.576531 0
M  V30 6829 H 684.924 -0.464994 2.00067 0
M  V30 6830 H 683.154 -2.97641 2.46874 0
M  V30 6831 H 684.843 -2.86718 2.87311 0
M  V30 6832 H 685.609 -1.18752 4.70237 0
M  V30 6833 H 681.488 -2.21971 4.04042 0
M  V30 6834 H 685.032 -0.386024 6.96531 0
M  V30 6835 H 680.929 -1.42356 6.29607 0
M  V30 6836 H 681.697 -0.526459 8.16805 0
M  V30 6837 N 684.36 -1.4356 -0.65026 0
M  V30 6838 C 685.607 -1.45333 -1.41012 0
M  V30 6839 C 685.935 -0.0787282 -1.94341 0
M  V30 6840 O 685.19 0.916715 -1.72901 0
M  V30 6841 C 685.489 -2.44528 -2.60654 0
M  V30 6842 C 685.155 -3.90331 -2.25727 0
M  V30 6843 C 683.817 -4.3004 -2.15914 0
M  V30 6844 C 686.169 -4.822 -1.97821 0
M  V30 6845 C 683.497 -5.59568 -1.76354 0
M  V30 6846 C 685.849 -6.12095 -1.59759 0
M  V30 6847 C 684.513 -6.50778 -1.48473 0
M  V30 6848 H 683.783 -0.531813 -0.516 0
M  V30 6849 H 686.43 -1.76657 -0.739219 0
M  V30 6850 H 684.735 -2.06619 -3.3289 0
M  V30 6851 H 686.432 -2.43155 -3.18868 0
M  V30 6852 H 683.022 -3.58905 -2.34276 0
M  V30 6853 H 687.206 -4.5229 -2.04322 0
M  V30 6854 H 682.462 -5.88376 -1.66205 0
M  V30 6855 H 686.636 -6.82751 -1.37198 0
M  V30 6856 H 684.263 -7.5105 -1.17591 0
M  V30 6857 N 685.838 0.888903 -1.30139 0
M  V30 6858 C 687.115 1.62145 -1.094 0
M  V30 6859 C 687.495 2.08041 0.358091 0
M  V30 6860 O 686.843 1.84438 1.34888 0
M  V30 6861 C 687.053 2.794 -2.09133 0
M  V30 6862 C 688.401 3.49826 -2.40638 0
M  V30 6863 O 689.425 2.89583 -2.07412 0
M  V30 6864 O 688.284 4.58457 -2.97455 0
M  V30 6865 H 685.378 0.712475 -0.41989 0
M  V30 6866 H 687.924 0.936023 -1.41551 0
M  V30 6867 H 686.696 2.42762 -3.06891 0
M  V30 6868 H 686.319 3.55643 -1.77776 0
M  V30 6869 N 687.317 1.12792 1.10072 0
M  V30 6870 C 688.28 0.802264 2.14701 0
M  V30 6871 C 689.28 -0.18515 1.59731 0
M  V30 6872 O 690.47 0.041109 1.74151 0
M  V30 6873 C 687.602 0.19285 3.40354 0
M  V30 6874 H 688.795 1.72932 2.45019 0
M  V30 6875 H 686.348 0.931662 1.25498 0
M  V30 6876 H 687.083 -0.743748 3.15656 0
M  V30 6877 H 686.868 0.903827 3.81541 0
M  V30 6878 H 688.358 -0.0183704 4.17596 0
M  V30 6879 N 688.795 -1.27931 0.920396 0
M  V30 6880 C 690.211 -1.47085 0.619537 0
M  V30 6881 C 690.411 -1.83463 -0.833291 0
M  V30 6882 O 689.467 -1.94363 -1.61181 0
M  V30 6883 C 690.78 -2.56878 1.56314 0
M  V30 6884 C 692.328 -2.70743 1.57058 0
M  V30 6885 C 692.803 -3.83687 2.50097 0
M  V30 6886 N 694.294 -3.9105 2.48262 0
M  V30 6887 C 695.029 -4.77842 3.16945 0
M  V30 6888 N 694.525 -5.69176 3.94982 0
M  V30 6889 N 696.318 -4.71509 3.06 0
M  V30 6890 H 688.469 -1.02601 1.85975 0
M  V30 6891 H 690.732 -0.511682 0.798051 0
M  V30 6892 H 690.438 -2.36923 2.59923 0
M  V30 6893 H 690.312 -3.54117 1.29928 0
M  V30 6894 H 692.699 -2.90083 0.541832 0
M  V30 6895 H 692.78 -1.74015 1.8749 0
M  V30 6896 H 692.424 -3.65101 3.53077 0
M  V30 6897 H 692.354 -4.79827 2.16964 0
M  V30 6898 H 694.845 -3.25738 1.91581 0
M  V30 6899 H 695.158 -6.32245 4.44394 0
M  V30 6900 H 693.503 -5.68995 3.99086 0
M  V30 6901 H 696.694 -3.99151 2.44533 0
M  V30 6902 H 696.867 -5.38933 3.59799 0
M  V30 6903 N 690.273 -0.685099 -1.4193 0
M  V30 6904 C 691.519 -0.211971 -2.01689 0
M  V30 6905 C 691.852 1.18189 -1.54094 0
M  V30 6906 O 691.127 1.79559 -0.747572 0
M  V30 6907 C 691.41 -0.258019 -3.59174 0
M  V30 6908 C 691.263 -1.68807 -4.16922 0
M  V30 6909 C 692.582 0.388044 -4.38386 0
M  V30 6910 H 689.701 -0.0784987 -0.732808 0
M  V30 6911 H 692.343 -0.871837 -1.68816 0
M  V30 6912 H 690.493 0.303832 -3.8731 0
M  V30 6913 H 692.165 -2.30296 -3.99702 0
M  V30 6914 H 690.408 -2.22553 -3.72361 0
M  V30 6915 H 691.079 -1.6719 -5.26072 0
M  V30 6916 H 693.555 -0.0903432 -4.16002 0
M  V30 6917 H 692.431 0.325232 -5.47936 0
M  V30 6918 H 692.692 1.4672 -4.17044 0
M  V30 6919 N 691.751 1.51645 -0.429126 0
M  V30 6920 C 693 2.01203 0.141538 0
M  V30 6921 C 693.313 1.31828 1.44502 0
M  V30 6922 O 694.519 1.7231 2.09813 0
M  V30 6923 C 692.975 3.58624 0.302786 0
M  V30 6924 C 692.583 4.3693 -0.989775 0
M  V30 6925 C 694.327 4.16353 0.827661 0
M  V30 6926 C 692.234 5.86037 -0.794619 0
M  V30 6927 H 691.164 0.751867 0.05667 0
M  V30 6928 H 693.815 1.74822 -0.557633 0
M  V30 6929 H 692.197 3.81417 1.06476 0
M  V30 6930 H 693.371 4.25887 -1.75945 0
M  V30 6931 H 691.686 3.90614 -1.44256 0
M  V30 6932 H 694.283 5.25455 0.990026 0
M  V30 6933 H 694.626 3.74995 1.80787 0
M  V30 6934 H 695.159 3.97606 0.124213 0
M  V30 6935 H 691.898 6.31792 -1.74697 0
M  V30 6936 H 691.418 5.99765 -0.0645968 0
M  V30 6937 H 693.097 6.45471 -0.444591 0
M  V30 6938 N 693.229 0.160201 1.56784 0
M  V30 6939 C 694.64 -0.358417 1.83227 0
M  V30 6940 C 694.991 -1.63831 1.07952 0
M  V30 6941 O 694.116 -2.13885 0.328995 0
M  V30 6942 C 694.711 -0.657058 3.32368 0
M  V30 6943 C 693.27 -1.12015 3.59346 0
M  V30 6944 C 692.417 -0.15015 2.76893 0
M  V30 6945 H 695.368 0.384669 1.53967 0
M  V30 6946 H 695.389 -1.51033 3.49241 0
M  V30 6947 H 694.901 0.274647 3.87127 0
M  V30 6948 H 693.002 -2.06734 3.09987 0
M  V30 6949 H 693.115 -1.037 4.67743 0
M  V30 6950 H 691.479 -0.645361 2.46388 0
M  V30 6951 H 692.262 0.775379 3.34429 0
M  V30 6952 N 694.707 -1.5719 -0.113559 0
M  V30 6953 C 695.955 -1.84772 -0.818761 0
M  V30 6954 C 696.276 -0.746196 -1.80158 0
M  V30 6955 O 695.546 0.229305 -1.94553 0
M  V30 6956 H 694.126 -0.681737 -0.305359 0
M  V30 6957 H 696.788 -1.94645 -0.0995845 0
M  V30 6958 H 695.884 -2.80878 -1.36067 0
M  V30 6959 N 696.185 0.383891 -1.52853 0
M  V30 6960 C 697.431 1.13009 -1.68395 0
M  V30 6961 C 697.764 1.89488 -0.425195 0
M  V30 6962 O 697.039 1.8574 0.577136 0
M  V30 6963 C 697.322 2.10419 -2.92226 0
M  V30 6964 C 697.175 1.3767 -4.28214 0
M  V30 6965 C 698.494 3.10781 -3.11614 0
M  V30 6966 H 695.613 0.409463 -0.612788 0
M  V30 6967 H 698.255 0.412895 -1.85459 0
M  V30 6968 H 696.405 2.71579 -2.77808 0
M  V30 6969 H 698.077 0.794352 -4.54409 0
M  V30 6970 H 696.32 0.678533 -4.2846 0
M  V30 6971 H 696.991 2.08874 -5.10956 0
M  V30 6972 H 699.467 2.59715 -3.25096 0
M  V30 6973 H 698.343 3.76179 -3.99725 0
M  V30 6974 H 698.604 3.79933 -2.2606 0
M  V30 6975 N 697.663 1.43903 0.642637 0
M  V30 6976 C 698.626 1.49538 1.73698 0
M  V30 6977 C 699.626 0.378776 1.56275 0
M  V30 6978 O 700.816 0.64095 1.6198 0
M  V30 6979 C 697.948 1.35821 3.12675 0
M  V30 6980 H 699.141 2.47008 1.70079 0
M  V30 6981 H 696.694 1.30824 0.85526 0
M  V30 6982 H 697.429 0.393994 3.21898 0
M  V30 6983 H 697.214 2.16776 3.26727 0
M  V30 6984 H 698.704 1.4272 3.92455 0
M  V30 6985 N 699.141 -0.881989 1.30609 0
M  V30 6986 C 700.371 -1.66469 1.22359 0
M  V30 6987 C 700.779 -1.87969 -0.215507 0
M  V30 6988 O 700.122 -1.42938 -1.15388 0
M  V30 6989 C 700.184 -3.06135 1.88472 0
M  V30 6990 C 699.848 -3.07795 3.37804 0
M  V30 6991 C 700.845 -2.86633 4.33749 0
M  V30 6992 C 698.53 -3.29297 3.793 0
M  V30 6993 C 700.524 -2.86934 5.69164 0
M  V30 6994 C 698.211 -3.29228 5.14832 0
M  V30 6995 C 699.209 -3.08071 6.09574 0
M  V30 6996 O 698.897 -3.07824 7.4263 0
M  V30 6997 H 698.629 -0.526129 0.424458 0
M  V30 6998 H 701.183 -1.11004 1.72821 0
M  V30 6999 H 699.413 -3.63276 1.32543 0
M  V30 7000 H 701.102 -3.66571 1.74301 0
M  V30 7001 H 701.868 -2.69814 4.0302 0
M  V30 7002 H 697.747 -3.44799 3.05998 0
M  V30 7003 H 701.291 -2.70339 6.43088 0
M  V30 7004 H 697.188 -3.45583 5.452 0
M  V30 7005 H 697.956 -3.2397 7.51656 0
M  V30 7006 N 700.619 -1.13374 -1.09472 0
M  V30 7007 C 701.847 -0.918351 -1.85402 0
M  V30 7008 C 702.262 0.53281 -1.81126 0
M  V30 7009 O 701.619 1.36879 -1.20708 0
M  V30 7010 C 701.67 -1.39743 -3.33398 0
M  V30 7011 O 701.391 -2.79172 -3.37631 0
M  V30 7012 C 702.892 -1.22042 -4.2617 0
M  V30 7013 H 700.112 -0.327511 -0.585643 0
M  V30 7014 H 702.656 -1.50617 -1.38328 0
M  V30 7015 H 700.811 -0.852619 -3.77901 0
M  V30 7016 H 701.225 -3.00428 -4.29934 0
M  V30 7017 H 702.699 -1.60438 -5.2817 0
M  V30 7018 H 703.176 -0.162047 -4.38901 0
M  V30 7019 H 703.782 -1.75323 -3.87482 0
M  V30 7020 N 702.098 1.27442 -0.927168 0
M  V30 7021 C 703.323 1.99036 -0.583042 0
M  V30 7022 C 703.748 1.68711 0.83176 0
M  V30 7023 O 703.106 0.927081 1.55804 0
M  V30 7024 C 703.154 3.51271 -0.814925 0
M  V30 7025 O 702.258 4.12226 0.119742 0
M  V30 7026 H 701.599 0.624883 -0.224538 0
M  V30 7027 H 704.129 1.62263 -1.24628 0
M  V30 7028 H 704.139 4.01411 -0.730282 0
M  V30 7029 H 702.814 3.72676 -1.84623 0
M  V30 7030 H 701.391 3.72897 -0.0147688 0
M  V30 7031 N 703.576 0.692616 1.41565 0
M  V30 7032 C 704.987 0.297478 1.84315 0
M  V30 7033 C 705.338 -1.16379 1.57957 0
M  V30 7034 O 704.463 -1.89303 1.0485 0
M  V30 7035 C 705.058 0.533136 3.34579 0
M  V30 7036 C 703.617 0.191944 3.7591 0
M  V30 7037 C 702.764 0.816873 2.64995 0
M  V30 7038 H 705.715 0.893488 1.31158 0
M  V30 7039 H 705.736 -0.209105 3.79925 0
M  V30 7040 H 705.248 1.59674 3.53731 0
M  V30 7041 H 703.349 -0.867512 3.6236 0
M  V30 7042 H 703.462 0.644902 4.7474 0
M  V30 7043 H 701.826 0.246715 2.53502 0
M  V30 7044 H 702.609 1.88429 2.86966 0
M  V30 7045 N 705.054 -1.51416 0.437162 0
M  V30 7046 C 705.964 -2.31493 -0.380537 0
M  V30 7047 C 706.98 -1.40399 -1.02782 0
M  V30 7048 O 708.156 -1.73471 -1.02323 0
M  V30 7049 C 705.221 -3.1413 -1.46709 0
M  V30 7050 C 704.282 -4.21003 -0.839953 0
M  V30 7051 C 703.515 -4.9969 -1.87473 0
M  V30 7052 O 703.738 -4.79008 -3.09689 0
M  V30 7053 O 702.672 -5.8379 -1.46536 0
M  V30 7054 H 706.498 -3.02469 0.273183 0
M  V30 7055 H 704.083 -1.48059 0.199706 0
M  V30 7056 H 705.965 -3.65505 -2.09724 0
M  V30 7057 H 704.64 -2.45919 -2.10489 0
M  V30 7058 H 703.547 -3.73706 -0.171752 0
M  V30 7059 H 704.88 -4.91587 -0.245638 0
M  V30 7060 N 706.532 -0.168513 -1.56696 0
M  V30 7061 C 707.778 0.477865 -1.9709 0
M  V30 7062 C 708.111 1.63084 -1.05438 0
M  V30 7063 O 707.386 1.94238 -0.10095 0
M  V30 7064 C 707.669 0.963521 -3.4697 0
M  V30 7065 C 707.522 -0.189443 -4.49401 0
M  V30 7066 C 708.841 1.83813 -3.99876 0
M  V30 7067 H 705.96 0.172229 -0.716593 0
M  V30 7068 H 708.602 -0.254083 -1.88293 0
M  V30 7069 H 706.752 1.58724 -3.54597 0
M  V30 7070 H 708.424 -0.826451 -4.53836 0
M  V30 7071 H 706.667 -0.845366 -4.25483 0
M  V30 7072 H 707.338 0.192446 -5.51664 0
M  V30 7073 H 709.814 1.31235 -3.94863 0
M  V30 7074 H 708.69 2.14697 -5.0517 0
M  V30 7075 H 708.951 2.78289 -3.43523 0
M  V30 7076 N 708.01 1.57248 0.105221 0
M  V30 7077 C 708.973 2.00388 1.11252 0
M  V30 7078 C 709.973 0.89594 1.33527 0
M  V30 7079 O 711.163 1.16166 1.29811 0
M  V30 7080 C 708.295 2.35589 2.46395 0
M  V30 7081 H 709.488 2.90591 0.741424 0
M  V30 7082 H 707.041 1.52332 0.349956 0
M  V30 7083 H 707.776 1.4831 2.884 0
M  V30 7084 H 707.561 3.16408 2.31578 0
M  V30 7085 H 709.051 2.69658 3.18864 0
M  V30 7086 N 709.488 -0.375779 1.53054 0
M  V30 7087 C 710.734 -1.11767 1.6994 0
M  V30 7088 C 711.089 -1.87288 0.440574 0
M  V30 7089 O 710.382 -1.83045 -0.566146 0
M  V30 7090 C 710.576 -2.11356 2.88207 0
M  V30 7091 C 710.405 -1.45619 4.25471 0
M  V30 7092 C 709.175 -1.21464 4.90484 0
M  V30 7093 C 711.373 -0.899276 5.06377 0
M  V30 7094 N 709.355 -0.519705 6.11696 0
M  V30 7095 C 710.726 -0.333138 6.19104 0
M  V30 7096 C 712.781 -0.79697 4.9148 0
M  V30 7097 C 711.484 0.325316 7.18564 0
M  V30 7098 C 713.51 -0.152315 5.91204 0
M  V30 7099 C 712.872 0.402994 7.03246 0
M  V30 7100 H 708.971 -0.394489 0.675206 0
M  V30 7101 H 711.555 -0.40541 1.90432 0
M  V30 7102 H 709.726 -2.79905 2.69272 0
M  V30 7103 H 711.458 -2.78148 2.93966 0
M  V30 7104 H 708.213 -1.49319 4.49445 0
M  V30 7105 H 708.637 -0.187896 6.76739 0
M  V30 7106 H 713.279 -1.21208 4.05054 0
M  V30 7107 H 710.997 0.752399 8.0459 0
M  V30 7108 H 714.583 -0.074223 5.81753 0
M  V30 7109 H 713.463 0.89394 7.79088 0
M  V30 7110 N 710.966 -1.44241 -0.634997 0
M  V30 7111 C 712.212 -1.47038 -1.39669 0
M  V30 7112 C 712.545 -0.101122 -1.93937 0
M  V30 7113 O 711.82 0.880699 -1.73418 0
M  V30 7114 C 712.103 -2.52763 -2.56482 0
M  V30 7115 C 711.956 -3.99032 -2.07589 0
M  V30 7116 C 713.275 -2.55031 -3.58674 0
M  V30 7117 H 710.394 -0.53537 -0.506506 0
M  V30 7118 H 713.036 -1.75898 -0.718317 0
M  V30 7119 H 711.186 -2.28284 -3.14354 0
M  V30 7120 H 712.858 -4.3463 -1.54577 0
M  V30 7121 H 711.101 -4.10994 -1.38804 0
M  V30 7122 H 711.772 -4.68649 -2.91671 0
M  V30 7123 H 714.248 -2.76893 -3.10595 0
M  V30 7124 H 713.124 -3.30916 -4.37934 0
M  V30 7125 H 713.385 -1.59085 -4.12486 0
M  V30 7126 N 712.444 0.87505 -1.31075 0
M  V30 7127 C 713.692 1.62447 -1.20231 0
M  V30 7128 C 714.013 1.93506 0.240888 0
M  V30 7129 O 713.283 1.57847 1.16022 0
M  V30 7130 H 711.863 0.602207 -0.441991 0
M  V30 7131 H 714.525 1.04788 -1.64334 0
M  V30 7132 H 713.621 2.57031 -1.77036 0
M  V30 7133 N 713.922 1.13953 1.08869 0
M  V30 7134 C 714.832 0.835666 2.19212 0
M  V30 7135 C 715.848 -0.182005 1.73045 0
M  V30 7136 O 717.024 -0.0116661 2.01397 0
M  V30 7137 C 714.089 0.312325 3.4529 0
M  V30 7138 C 713.15 1.39196 4.06107 0
M  V30 7139 C 712.383 0.893496 5.26168 0
M  V30 7140 O 712.606 -0.266807 5.69776 0
M  V30 7141 O 711.54 1.67037 5.78258 0
M  V30 7142 H 715.366 1.75769 2.47667 0
M  V30 7143 H 712.951 0.917421 1.17914 0
M  V30 7144 H 714.833 0.0261582 4.21392 0
M  V30 7145 H 713.508 -0.582042 3.18424 0
M  V30 7146 H 712.415 1.73152 3.31616 0
M  V30 7147 H 713.748 2.26068 4.37212 0
M  V30 7148 N 715.4 -1.26948 0.933913 0
M  V30 7149 C 716.628 -1.98186 0.59414 0
M  V30 7150 C 717.043 -1.69614 -0.829257 0
M  V30 7151 O 716.4 -0.960213 -1.55197 0
M  V30 7152 C 716.451 -3.52123 0.818026 0
M  V30 7153 O 716.172 -3.79698 2.18543 0
M  V30 7154 C 717.673 -4.40608 0.48781 0
M  V30 7155 H 714.893 -0.632305 0.224569 0
M  V30 7156 H 717.437 -1.61646 1.25263 0
M  V30 7157 H 715.592 -3.86851 0.206246 0
M  V30 7158 H 716.006 -4.7426 2.24005 0
M  V30 7159 H 717.48 -5.47606 0.695126 0
M  V30 7160 H 717.957 -4.35394 -0.576913 0
M  V30 7161 H 718.563 -4.11411 1.078 0
M  V30 7162 N 716.879 -0.700114 -1.41195 0
M  V30 7163 C 717.789 -0.0382854 -2.34569 0
M  V30 7164 C 718.805 0.761036 -1.56474 0
M  V30 7165 O 719.981 0.697553 -1.88934 0
M  V30 7166 C 717.046 0.883522 -3.35253 0
M  V30 7167 C 716.107 0.0758957 -4.29233 0
M  V30 7168 C 715.34 0.9538 -5.25108 0
M  V30 7169 O 715.563 2.19326 -5.26547 0
M  V30 7170 O 714.497 0.401049 -6.00562 0
M  V30 7171 H 718.323 -0.808073 -2.92752 0
M  V30 7172 H 715.908 -0.460479 -1.42127 0
M  V30 7173 H 717.79 1.41199 -3.9704 0
M  V30 7174 H 716.465 1.63272 -2.79506 0
M  V30 7175 H 715.372 -0.497274 -3.7078 0
M  V30 7176 H 716.705 -0.634741 -4.8809 0
M  V30 7177 N 718.357 1.51182 -0.445186 0
M  V30 7178 C 719.287 2.30821 0.352686 0
M  V30 7179 C 720.268 1.36576 1.01395 0
M  V30 7180 O 721.453 1.65497 1.01609 0
M  V30 7181 C 718.583 3.15593 1.44976 0
M  V30 7182 C 717.537 4.1818 0.911553 0
M  V30 7183 C 716.863 4.91523 2.10497 0
M  V30 7184 C 718.163 5.22266 -0.059418 0
M  V30 7185 H 719.857 2.97771 -0.311936 0
M  V30 7186 H 717.403 1.43201 -0.151461 0
M  V30 7187 H 719.356 3.70091 2.01521 0
M  V30 7188 H 718.08 2.4648 2.14278 0
M  V30 7189 H 716.739 3.64746 0.368264 0
M  V30 7190 H 716.387 4.18906 2.78437 0
M  V30 7191 H 716.087 5.60898 1.7512 0
M  V30 7192 H 717.611 5.48847 2.6758 0
M  V30 7193 H 719.025 5.71789 0.415985 0
M  V30 7194 H 717.422 5.99213 -0.326152 0
M  V30 7195 H 718.492 4.7461 -0.993631 0
M  V30 7196 N 719.835 0.176821 1.56605 0
M  V30 7197 C 721.06 -0.47599 2.01864 0
M  V30 7198 C 721.485 -1.55645 1.05623 0
M  V30 7199 O 720.843 -1.81263 0.0366729 0
M  V30 7200 C 720.891 -1.02619 3.4569 0
M  V30 7201 O 719.995 -2.13996 3.52533 0
M  V30 7202 H 719.336 -0.113363 0.654251 0
M  V30 7203 H 721.866 0.28233 2.02643 0
M  V30 7204 H 721.876 -1.34742 3.85109 0
M  V30 7205 H 720.551 -0.235138 4.15235 0
M  V30 7206 H 719.128 -1.82876 3.24978 0
M  V30 7207 N 721.313 -1.57302 -0.09688 0
M  V30 7208 C 722.276 -2.00976 -1.10188 0
M  V30 7209 C 723.276 -0.903009 -1.3305 0
M  V30 7210 O 724.466 -1.16853 -1.29194 0
M  V30 7211 C 721.598 -2.36893 -2.45142 0
M  V30 7212 H 722.791 -2.9098 -0.726003 0
M  V30 7213 H 720.344 -1.52515 -0.341872 0
M  V30 7214 H 721.079 -1.49837 -2.8761 0
M  V30 7215 H 720.864 -3.17632 -2.29897 0
M  V30 7216 H 722.354 -2.71345 -3.1743 0
M  V30 7217 N 722.791 0.367657 -1.53252 0
M  V30 7218 C 723.738 1.45028 -1.79543 0
M  V30 7219 C 724.708 1.53288 -0.63969 0
M  V30 7220 O 725.893 1.69209 -0.881653 0
M  V30 7221 C 723.033 2.82 -1.98923 0
M  V30 7222 C 722.146 2.82722 -3.26638 0
M  V30 7223 C 721.281 4.11257 -3.36216 0
M  V30 7224 C 720.32 4.06113 -4.57972 0
M  V30 7225 N 719.457 5.26293 -4.64715 0
M  V30 7226 H 724.297 1.21908 -2.71923 0
M  V30 7227 H 721.834 0.591011 -1.34705 0
M  V30 7228 H 723.792 3.61568 -2.08146 0
M  V30 7229 H 722.422 3.03523 -1.09881 0
M  V30 7230 H 721.474 1.95399 -3.26379 0
M  V30 7231 H 722.786 2.74794 -4.16281 0
M  V30 7232 H 721.94 4.99239 -3.44739 0
M  V30 7233 H 720.679 4.21935 -2.44586 0
M  V30 7234 H 719.684 3.16517 -4.49552 0
M  V30 7235 H 720.909 3.97039 -5.50942 0
M  V30 7236 H 718.855 5.37561 -3.75985 0
M  V30 7237 H 718.772 5.20526 -5.4826 0
M  V30 7238 H 720.04 6.16113 -4.77519 0
M  V30 7239 N 724.269 1.44576 0.627338 0
M  V30 7240 C 725.232 1.51372 1.72102 0
M  V30 7241 C 726.232 0.395329 1.55865 0
M  V30 7242 O 727.422 0.658094 1.61291 0
M  V30 7243 C 724.554 1.39129 3.11217 0
M  V30 7244 H 725.747 2.48798 1.6745 0
M  V30 7245 H 723.3 1.31724 0.841336 0
M  V30 7246 H 724.035 0.428114 3.21462 0
M  V30 7247 H 723.82 2.20229 3.24409 0
M  V30 7248 H 725.31 1.46874 3.90919 0
M  V30 7249 N 725.747 -0.868086 1.31537 0
M  V30 7250 C 726.972 -1.65926 1.24432 0
M  V30 7251 C 727.397 -1.87169 -0.186936 0
M  V30 7252 O 726.755 -1.4148 -1.13371 0
M  V30 7253 C 726.803 -3.00347 1.9956 0
M  V30 7254 O 725.907 -3.90221 1.33422 0
M  V30 7255 H 725.248 -0.506375 0.429512 0
M  V30 7256 H 727.778 -1.0822 1.73637 0
M  V30 7257 H 727.788 -3.50269 2.09226 0
M  V30 7258 H 726.463 -2.84205 3.03645 0
M  V30 7259 H 725.04 -3.48672 1.32219 0
M  V30 7260 N 727.225 -1.14528 -1.08264 0
M  V30 7261 C 728.473 -0.912599 -1.80322 0
M  V30 7262 C 728.794 0.562256 -1.86718 0
M  V30 7263 O 728.064 1.40869 -1.36135 0
M  V30 7264 H 726.644 -0.334645 -0.667849 0
M  V30 7265 H 729.306 -1.44415 -1.30883 0
M  V30 7266 H 728.402 -1.31384 -2.83098 0
M  V30 7267 N 728.703 1.26451 -0.940633 0
M  V30 7268 C 730.119 1.4608 -0.642859 0
M  V30 7269 C 730.319 1.84765 0.803998 0
M  V30 7270 O 729.375 1.96902 1.58069 0
M  V30 7271 C 730.688 2.54359 -1.60381 0
M  V30 7272 C 732.236 2.6821 -1.61345 0
M  V30 7273 C 732.711 3.79659 -2.56169 0
M  V30 7274 N 734.202 3.87051 -2.54452 0
M  V30 7275 C 734.937 4.72739 -3.24507 0
M  V30 7276 N 734.433 5.6282 -4.03987 0
M  V30 7277 N 736.226 4.66581 -3.13462 0
M  V30 7278 H 728.377 0.996289 -1.87584 0
M  V30 7279 H 730.64 0.498921 -0.80609 0
M  V30 7280 H 730.346 2.32758 -2.6366 0
M  V30 7281 H 730.22 3.52005 -1.35545 0
M  V30 7282 H 732.607 2.89184 -0.587913 0
M  V30 7283 H 732.688 1.7101 -1.90235 0
M  V30 7284 H 732.332 3.59438 -3.58841 0
M  V30 7285 H 732.262 4.76315 -2.2457 0
M  V30 7286 H 734.753 3.22649 -1.96739 0
M  V30 7287 H 735.066 6.25095 -4.54396 0
M  V30 7288 H 733.411 5.62574 -4.08088 0
M  V30 7289 H 736.602 3.9521 -2.50852 0
M  V30 7290 H 736.775 5.33141 -3.68327 0
M  V30 7291 N 730.181 0.707592 1.40822 0
M  V30 7292 C 731.128 0.0499029 2.30746 0
M  V30 7293 C 732.098 -0.758718 1.47759 0
M  V30 7294 O 733.283 -0.724299 1.76518 0
M  V30 7295 C 730.423 -0.871756 3.33908 0
M  V30 7296 C 729.536 -0.0534655 4.31967 0
M  V30 7297 C 728.671 -0.973869 5.22197 0
M  V30 7298 C 727.71 -0.149194 6.11918 0
M  V30 7299 N 726.847 -1.02404 6.94592 0
M  V30 7300 H 731.687 0.822461 2.86426 0
M  V30 7301 H 729.224 0.417285 1.41057 0
M  V30 7302 H 731.182 -1.42028 3.9228 0
M  V30 7303 H 729.812 -1.61058 2.7975 0
M  V30 7304 H 728.864 0.612142 3.75442 0
M  V30 7305 H 730.176 0.585354 4.95353 0
M  V30 7306 H 729.33 -1.59121 5.85462 0
M  V30 7307 H 728.069 -1.64652 4.59065 0
M  V30 7308 H 727.074 0.481137 5.47691 0
M  V30 7309 H 728.299 0.519841 6.77107 0
M  V30 7310 H 726.245 -1.6825 6.34057 0
M  V30 7311 H 726.162 -0.441076 7.54712 0
M  V30 7312 H 727.43 -1.62782 7.62314 0
M  V30 7313 N 731.66 -1.50943 0.453197 0
M  V30 7314 C 732.909 -2.01402 -0.10951 0
M  V30 7315 C 733.222 -1.3411 -1.42386 0
M  V30 7316 O 734.428 -1.75626 -2.07045 0
M  V30 7317 C 732.884 -3.5906 -0.245693 0
M  V30 7318 C 732.492 -4.353 1.05916 0
M  V30 7319 C 734.236 -4.17617 -0.761318 0
M  V30 7320 C 732.143 -5.84699 0.887752 0
M  V30 7321 H 731.073 -0.752674 -0.0447013 0
M  V30 7322 H 733.724 -1.73913 0.585375 0
M  V30 7323 H 732.106 -3.83062 -1.00395 0
M  V30 7324 H 733.28 -4.23034 1.82698 0
M  V30 7325 H 731.595 -3.88269 1.50452 0
M  V30 7326 H 734.192 -5.26963 -0.906306 0
M  V30 7327 H 734.535 -3.77824 -1.74799 0
M  V30 7328 H 735.068 -3.97753 -0.0609416 0
M  V30 7329 H 731.807 -6.28933 1.84726 0
M  V30 7330 H 731.327 -5.99587 0.160006 0
M  V30 7331 H 733.006 -6.44682 0.547223 0
M  V30 7332 N 733.138 -0.185124 -1.56509 0
M  V30 7333 C 734.366 0.462139 -2.01673 0
M  V30 7334 C 734.781 1.55873 -1.06532 0
M  V30 7335 O 734.138 1.82371 -0.0684805 0
M  V30 7336 C 734.189 1.0277 -3.46584 0
M  V30 7337 O 733.91 -0.0251296 -4.38093 0
M  V30 7338 C 735.411 1.75183 -4.07217 0
M  V30 7339 H 732.631 0.117001 -0.660721 0
M  V30 7340 H 735.175 -0.290905 -2.0242 0
M  V30 7341 H 733.33 1.73118 -3.46568 0
M  V30 7342 H 733.744 0.394387 -5.23015 0
M  V30 7343 H 735.218 2.09999 -5.10494 0
M  V30 7344 H 735.695 2.6519 -3.50101 0
M  V30 7345 H 736.301 1.09445 -4.10977 0
M  V30 7346 N 734.616 1.57351 0.0885366 0
M  V30 7347 C 735.563 2.02523 1.10693 0
M  V30 7348 C 736.533 0.902736 1.39427 0
M  V30 7349 O 737.718 1.16921 1.50779 0
M  V30 7350 C 734.858 2.46013 2.42016 0
M  V30 7351 C 733.971 3.7181 2.19957 0
M  V30 7352 C 733.106 4.04152 3.44724 0
M  V30 7353 C 732.145 5.2304 3.17956 0
M  V30 7354 N 731.282 5.51102 4.35007 0
M  V30 7355 H 736.122 2.89302 0.714742 0
M  V30 7356 H 733.659 1.43084 0.341378 0
M  V30 7357 H 735.617 2.69274 3.18665 0
M  V30 7358 H 734.247 1.62235 2.79069 0
M  V30 7359 H 733.299 3.55987 1.34079 0
M  V30 7360 H 734.611 4.58604 1.96173 0
M  V30 7361 H 733.765 4.28225 4.29777 0
M  V30 7362 H 732.504 3.15893 3.71568 0
M  V30 7363 H 731.509 4.98781 2.31296 0
M  V30 7364 H 732.734 6.12902 2.92451 0
M  V30 7365 H 730.68 4.65802 4.61914 0
M  V30 7366 H 730.597 6.3228 4.14437 0
M  V30 7367 H 731.865 5.79714 5.21106 0
M  V30 7368 N 736.094 -0.359525 1.53444 0
M  V30 7369 C 737.057 -1.42357 1.7963 0
M  V30 7370 C 738.057 -1.46319 0.666884 0
M  V30 7371 O 739.247 -1.46974 0.935113 0
M  V30 7372 C 736.379 -2.81425 1.92387 0
M  V30 7373 H 737.572 -1.20409 2.74666 0
M  V30 7374 H 735.125 -0.593007 1.44614 0
M  V30 7375 H 735.86 -3.08679 0.994384 0
M  V30 7376 H 735.645 -2.79947 2.74539 0
M  V30 7377 H 737.135 -3.5847 2.14218 0
M  V30 7378 N 737.572 -1.44907 -0.619662 0
M  V30 7379 C 738.52 -1.52971 -1.75222 0
M  V30 7380 C 739.514 -0.400531 -1.64597 0
M  V30 7381 O 740.72 -0.575952 -1.70537 0
M  V30 7382 H 737.095 -0.480241 -0.578682 0
M  V30 7383 H 739.066 -2.48269 -1.65545 0
M  V30 7384 C 737.815 -1.50204 -3.13583 0
M  V30 7385 H 737.138 -2.36412 -3.22412 0
M  V30 7386 H 738.578 -1.59905 -3.92691 0
M  V30 7387 C 737.037 -0.22455 -3.36151 0
M  V30 7388 O 737.567 0.700574 -3.95544 0
M  V30 7389 N 735.773 -0.124052 -2.90335 0
M  V30 7390 H 735.32 -0.87774 -2.42185 0
M  V30 7391 H 735.278 0.729914 -3.0581 0
M  V30 7392 N 739.05 0.861098 -1.31996 0
M  V30 7393 C 740.297 1.61481 -1.22188 0
M  V30 7394 C 740.625 1.93276 0.217853 0
M  V30 7395 O 739.88 1.56942 1.16909 0
M  V30 7396 C 740.179 2.94822 -2.02027 0
M  V30 7397 C 739.845 2.82483 -3.51446 0
M  V30 7398 C 738.507 2.78825 -3.92186 0
M  V30 7399 C 740.859 2.68878 -4.46491 0
M  V30 7400 C 738.187 2.59433 -5.26224 0
M  V30 7401 C 740.539 2.51022 -5.80664 0
M  V30 7402 C 739.203 2.45753 -6.20614 0
M  V30 7403 H 738.473 0.590902 -0.447119 0
M  V30 7404 H 741.12 0.999376 -1.63355 0
M  V30 7405 H 739.425 3.6045 -1.53569 0
M  V30 7406 H 741.122 3.52149 -1.91812 0
M  V30 7407 H 737.712 2.86152 -3.19085 0
M  V30 7408 H 741.896 2.70754 -4.1594 0
M  V30 7409 H 737.152 2.53784 -5.5624 0
M  V30 7410 H 741.326 2.39473 -6.53931 0
M  V30 7411 H 738.953 2.30485 -7.24417 0
M  V30 7412 N 740.528 1.15101 1.07655 0
M  V30 7413 C 741.939 0.933848 1.61667 0
M  V30 7414 C 742.29 -0.525569 1.8903 0
M  V30 7415 O 741.415 -1.39605 1.65346 0
M  V30 7416 C 742.01 1.68876 2.93711 0
M  V30 7417 C 740.569 1.51697 3.44478 0
M  V30 7418 C 739.716 1.70633 2.18586 0
M  V30 7419 H 742.667 1.30171 0.907816 0
M  V30 7420 H 742.688 1.15645 3.625 0
M  V30 7421 H 742.2 2.7509 2.73764 0
M  V30 7422 H 740.301 0.478635 3.69513 0
M  V30 7423 H 740.414 2.29194 4.20722 0
M  V30 7424 H 738.778 1.13259 2.28132 0
M  V30 7425 H 739.561 2.78206 2.01137 0
M  V30 7426 N 742.006 -1.2595 0.947325 0
M  V30 7427 C 743.252 -1.94081 0.608604 0
M  V30 7428 C 743.607 -1.72899 -0.844021 0
M  V30 7429 O 742.9 -1.05908 -1.59669 0
M  V30 7430 C 743.094 -3.46034 0.894158 0
M  V30 7431 C 742.923 -3.81994 2.37299 0
M  V30 7432 C 741.693 -4.04431 3.02925 0
M  V30 7433 C 743.891 -3.90069 3.35188 0
M  V30 7434 N 741.873 -4.27325 4.40757 0
M  V30 7435 C 743.244 -4.17567 4.58299 0
M  V30 7436 C 745.299 -3.72721 3.30127 0
M  V30 7437 C 744.002 -4.2952 5.76979 0
M  V30 7438 C 746.028 -3.8591 4.48138 0
M  V30 7439 C 745.39 -4.13812 5.70034 0
M  V30 7440 H 741.489 -0.73273 0.273187 0
M  V30 7441 H 744.073 -1.51898 1.218 0
M  V30 7442 H 742.244 -3.87131 0.313758 0
M  V30 7443 H 743.976 -4.01396 0.516082 0
M  V30 7444 H 740.731 -4.0003 2.53521 0
M  V30 7445 H 741.155 -4.42792 5.12118 0
M  V30 7446 H 745.797 -3.50172 2.36938 0
M  V30 7447 H 743.515 -4.50888 6.70616 0
M  V30 7448 H 747.101 -3.73882 4.45762 0
M  V30 7449 H 745.981 -4.23791 6.59827 0
M  V30 7450 N 743.484 -0.715051 -1.40445 0
M  V30 7451 C 744.447 -0.0708726 -2.2909 0
M  V30 7452 C 745.447 0.687926 -1.45342 0
M  V30 7453 O 746.637 0.519908 -1.66261 0
M  V30 7454 C 743.769 0.909528 -3.28543 0
M  V30 7455 H 744.962 -0.851611 -2.87555 0
M  V30 7456 H 742.515 -0.479674 -1.48758 0
M  V30 7457 H 743.25 1.71734 -2.75096 0
M  V30 7458 H 743.035 0.368318 -3.90366 0
M  V30 7459 H 744.525 1.35744 -3.94922 0
M  V30 7460 N 744.962 1.50701 -0.461195 0
M  V30 7461 C 745.925 2.2686 0.326679 0
M  V30 7462 C 746.925 1.31243 0.929085 0
M  V30 7463 O 748.115 1.54754 0.799807 0
M  V30 7464 C 745.247 3.07844 1.46441 0
M  V30 7465 H 746.44 2.97954 -0.341095 0
M  V30 7466 H 743.993 1.54814 -0.214984 0
M  V30 7467 H 744.728 2.41223 2.16753 0
M  V30 7468 H 744.513 3.78101 1.03836 0
M  V30 7469 H 746.003 3.65469 2.02044 0
M  V30 7470 N 746.441 0.193421 1.56409 0
M  V30 7471 C 747.666 -0.454552 2.02358 0
M  V30 7472 C 748.091 -1.54516 1.07268 0
M  V30 7473 O 747.449 -1.81214 0.0558962 0
M  V30 7474 C 747.497 -0.989469 3.46759 0
M  V30 7475 O 746.601 -2.10244 3.54783 0
M  V30 7476 H 745.942 -0.106417 0.655417 0
M  V30 7477 H 748.472 0.303807 2.02332 0
M  V30 7478 H 748.482 -1.30649 3.86516 0
M  V30 7479 H 747.157 -0.191083 4.15461 0
M  V30 7480 H 745.734 -1.79419 3.26899 0
M  V30 7481 N 747.919 -1.57396 -0.0801906 0
M  V30 7482 C 749.167 -1.86467 -0.779384 0
M  V30 7483 C 749.488 -0.784243 -1.78535 0
M  V30 7484 O 748.758 0.187986 -1.94996 0
M  V30 7485 H 747.338 -0.68806 -0.29083 0
M  V30 7486 H 750 -1.94813 -0.0582749 0
M  V30 7487 H 749.096 -2.83701 -1.30078 0
M  V30 7488 N 749.397 0.351382 -1.53633 0
M  V30 7489 C 750.813 0.693987 -1.43722 0
M  V30 7490 C 751.013 1.9274 -0.587669 0
M  V30 7491 O 750.069 2.52387 -0.0756082 0
M  V30 7492 C 751.382 0.893937 -2.87105 0
M  V30 7493 C 752.93 0.993051 -2.96829 0
M  V30 7494 C 753.405 1.22537 -4.41303 0
M  V30 7495 N 754.896 1.29275 -4.44795 0
M  V30 7496 C 755.631 1.48988 -5.53706 0
M  V30 7497 N 755.127 1.65924 -6.72637 0
M  V30 7498 N 756.92 1.51472 -5.41306 0
M  V30 7499 H 749.071 -0.459688 -2.07366 0
M  V30 7500 H 751.334 -0.143684 -0.937048 0
M  V30 7501 H 751.04 0.0592517 -3.5165 0
M  V30 7502 H 750.914 1.79795 -3.31592 0
M  V30 7503 H 753.301 1.81827 -2.32429 0
M  V30 7504 H 753.382 0.0661119 -2.55715 0
M  V30 7505 H 753.026 0.405117 -5.06282 0
M  V30 7506 H 752.956 2.16575 -4.80003 0
M  V30 7507 H 755.447 1.17743 -3.59089 0
M  V30 7508 H 755.76 1.80578 -7.51406 0
M  V30 7509 H 754.105 1.63075 -6.75597 0
M  V30 7510 H 757.296 1.37818 -4.47352 0
M  V30 7511 H 757.469 1.66493 -6.26246 0
M  V30 7512 N 750.875 1.45233 0.611969 0
M  V30 7513 C 751.838 1.53189 1.70487 0
M  V30 7514 C 752.838 0.411839 1.55437 0
M  V30 7515 O 754.028 0.675164 1.60584 0
M  V30 7516 C 751.16 1.42422 3.09723 0
M  V30 7517 H 752.353 2.5056 1.64802 0
M  V30 7518 H 749.906 1.32609 0.827318 0
M  V30 7519 H 750.641 0.462185 3.2099 0
M  V30 7520 H 750.426 2.23658 3.22055 0
M  V30 7521 H 751.916 1.51012 3.89339 0
M  V30 7522 N 752.353 -0.854086 1.3245 0
M  V30 7523 C 753.602 -1.60318 1.22397 0
M  V30 7524 C 753.915 -1.9444 -0.212664 0
M  V30 7525 O 755.121 -2.67991 -0.435066 0
M  V30 7526 C 753.577 -2.8909 2.1437 0
M  V30 7527 C 753.185 -2.62391 3.63119 0
M  V30 7528 C 754.929 -3.67104 2.13155 0
M  V30 7529 C 752.836 -3.87167 4.47052 0
M  V30 7530 H 751.766 -0.601586 0.454544 0
M  V30 7531 H 754.417 -0.943023 1.57415 0
M  V30 7532 H 752.799 -3.56567 1.72268 0
M  V30 7533 H 753.973 -2.03222 4.13567 0
M  V30 7534 H 752.288 -1.97706 3.66471 0
M  V30 7535 H 754.885 -4.59696 2.731 0
M  V30 7536 H 755.228 -4.00876 1.12268 0
M  V30 7537 H 755.761 -3.06533 2.5354 0
M  V30 7538 H 752.5 -3.58536 5.48755 0
M  V30 7539 H 752.02 -4.45729 4.01355 0
M  V30 7540 H 753.699 -4.549 4.60081 0
M  V30 7541 N 753.831 -1.1567 -1.07043 0
M  V30 7542 C 754.794 -0.858906 -2.12498 0
M  V30 7543 C 755.794 0.142735 -1.60165 0
M  V30 7544 O 756.984 -0.0872678 -1.73981 0
M  V30 7545 C 754.116 -0.283021 -3.39723 0
M  V30 7546 H 755.309 -1.79368 -2.40348 0
M  V30 7547 H 752.862 -0.964608 -1.22984 0
M  V30 7548 H 753.597 0.659796 -3.17517 0
M  V30 7549 H 753.382 -1.00467 -3.7901 0
M  V30 7550 H 754.872 -0.0923543 -4.17498 0
M  V30 7551 N 755.309 1.25446 -0.953992 0
M  V30 7552 C 756.257 2.27909 -0.46478 0
M  V30 7553 C 757.251 1.62904 0.464607 0
M  V30 7554 O 758.457 1.76733 0.341407 0
M  V30 7555 H 754.832 0.74036 -0.131798 0
M  V30 7556 H 756.803 2.66559 -1.34122 0
M  V30 7557 C 755.552 3.46853 0.242589 0
M  V30 7558 H 754.875 3.97105 -0.463418 0
M  V30 7559 H 756.315 4.20432 0.548919 0
M  V30 7560 C 754.774 3.03386 1.46487 0
M  V30 7561 O 755.304 3.09342 2.56262 0
M  V30 7562 N 753.51 2.58584 1.32599 0
M  V30 7563 H 753.057 2.53938 0.432834 0
M  V30 7564 H 753.015 2.29866 2.14497 0
M  V30 7565 N 756.787 0.722489 1.40064 0
M  V30 7566 C 758.035 0.264455 2.00362 0
M  V30 7567 C 758.356 -1.14847 1.57592 0
M  V30 7568 O 757.626 -1.77982 0.818477 0
M  V30 7569 H 756.206 0.0947846 0.740962 0
M  V30 7570 H 758.868 0.929659 1.71299 0
M  V30 7571 H 757.964 0.302977 3.10626 0
M  V30 7572 N 758.265 -1.50454 0.469181 0
M  V30 7573 C 759.505 -2.04222 -0.0852381 0
M  V30 7574 C 759.869 -1.34357 -1.37158 0
M  V30 7575 O 761.07 -1.78669 -2.00825 0
M  V30 7576 C 759.341 -3.56403 -0.266778 0
M  V30 7577 S 760.9 -4.31811 -0.780028 0
M  V30 7578 H 757.718 -0.7108 -0.0168589 0
M  V30 7579 H 760.32 -1.8487 0.635883 0
M  V30 7580 H 759.024 -4.04807 0.67525 0
M  V30 7581 H 758.555 -3.80106 -1.01407 0
M  V30 7582 H 760.57 -4.51706 -2.05368 0
M  V30 7583 N 759.743 -0.201713 -1.56304 0
M  V30 7584 C 761.02 0.483273 -1.89536 0
M  V30 7585 C 761.4 1.79176 -1.11621 0
M  V30 7586 O 760.748 2.27445 -0.219339 0
M  V30 7587 C 760.958 0.695604 -3.41998 0
M  V30 7588 C 762.306 1.012 -4.12364 0
M  V30 7589 O 763.33 0.783094 -3.47485 0
M  V30 7590 O 762.189 1.44534 -5.27041 0
M  V30 7591 H 759.283 0.252801 -0.787414 0
M  V30 7592 H 761.829 -0.24242 -1.6796 0
M  V30 7593 H 760.601 -0.228165 -3.90634 0
M  V30 7594 H 760.224 1.47351 -3.69288 0
M  V30 7595 N 761.222 1.57436 0.0718424 0
M  V30 7596 C 762.169 2.03686 1.08539 0
M  V30 7597 C 763.139 0.917474 1.38462 0
M  V30 7598 O 764.324 1.18513 1.4953 0
M  V30 7599 C 761.464 2.48566 2.39393 0
M  V30 7600 C 760.577 3.74122 2.16001 0
M  V30 7601 C 759.712 4.07786 3.40418 0
M  V30 7602 C 758.751 5.26383 3.1239 0
M  V30 7603 N 757.888 5.55685 4.29138 0
M  V30 7604 H 762.728 2.90043 0.684018 0
M  V30 7605 H 760.265 1.43438 0.326183 0
M  V30 7606 H 762.223 2.72639 3.15791 0
M  V30 7607 H 760.853 1.65186 2.77333 0
M  V30 7608 H 759.905 3.57389 1.30296 0
M  V30 7609 H 761.217 4.60659 1.91298 0
M  V30 7610 H 760.371 4.32759 4.25211 0
M  V30 7611 H 759.11 3.19817 3.68197 0
M  V30 7612 H 758.115 5.01206 2.25993 0
M  V30 7613 H 759.34 6.1597 2.85934 0
M  V30 7614 H 757.286 4.70675 4.56948 0
M  V30 7615 H 757.203 6.3664 4.07708 0
M  V30 7616 H 758.471 5.85209 5.14928 0
M  V30 7617 N 762.7 -0.34323 1.53817 0
M  V30 7618 C 764.111 -0.918823 1.62525 0
M  V30 7619 C 764.462 -1.89542 0.506765 0
M  V30 7620 O 763.587 -2.13326 -0.363441 0
M  V30 7621 C 764.182 -1.67326 2.94597 0
M  V30 7622 C 762.741 -2.19786 3.05567 0
M  V30 7623 C 761.888 -1.01708 2.57974 0
M  V30 7624 H 764.839 -0.121358 1.58235 0
M  V30 7625 H 764.86 -2.53615 2.83654 0
M  V30 7626 H 764.372 -0.962223 3.75983 0
M  V30 7627 H 762.473 -2.94065 2.28816 0
M  V30 7628 H 762.586 -2.46135 4.1104 0
M  V30 7629 H 760.95 -1.39058 2.13389 0
M  V30 7630 H 761.733 -0.320671 3.41799 0
M  V30 7631 N 764.178 -1.45556 -0.604258 0
M  V30 7632 C 765.425 -1.49746 -1.36317 0
M  V30 7633 C 765.753 -0.140516 -1.93992 0
M  V30 7634 O 765.008 0.861244 -1.7573 0
M  V30 7635 C 765.307 -2.52697 -2.52743 0
M  V30 7636 C 764.973 -3.97315 -2.13195 0
M  V30 7637 C 763.635 -4.36692 -2.02123 0
M  V30 7638 C 765.987 -4.88249 -1.8238 0
M  V30 7639 C 763.315 -5.64895 -1.58463 0
M  V30 7640 C 765.667 -6.16867 -1.40205 0
M  V30 7641 C 764.331 -6.55172 -1.27694 0
M  V30 7642 H 763.601 -0.54796 -0.49882 0
M  V30 7643 H 766.248 -1.7892 -0.682643 0
M  V30 7644 H 764.553 -2.17105 -3.26148 0
M  V30 7645 H 766.25 -2.53176 -3.10971 0
M  V30 7646 H 762.84 -3.66176 -2.22739 0
M  V30 7647 H 767.024 -4.58561 -1.89829 0
M  V30 7648 H 762.28 -5.93365 -1.47402 0
M  V30 7649 H 766.454 -6.86771 -1.15408 0
M  V30 7650 H 764.081 -7.54411 -0.936375 0
M  V30 7651 N 765.656 0.84705 -1.32902 0
M  V30 7652 C 766.884 1.63403 -1.26913 0
M  V30 7653 C 767.299 1.88108 0.161483 0
M  V30 7654 O 766.656 1.45546 1.10103 0
M  V30 7655 C 766.707 2.98896 -2.03331 0
M  V30 7656 O 766.428 2.75281 -3.40811 0
M  V30 7657 C 767.929 3.93335 -2.04457 0
M  V30 7658 H 765.149 0.508701 -0.437566 0
M  V30 7659 H 767.693 1.05567 -1.75145 0
M  V30 7660 H 765.848 3.53356 -1.58802 0
M  V30 7661 H 766.262 3.61504 -3.8002 0
M  V30 7662 H 767.736 4.85647 -2.62394 0
M  V30 7663 H 768.213 4.26885 -1.03274 0
M  V30 7664 H 768.819 3.44812 -2.48967 0
M  V30 7665 N 767.134 1.16236 1.06428 0
M  V30 7666 C 768.081 0.86769 2.13869 0
M  V30 7667 C 769.051 -0.183298 1.65086 0
M  V30 7668 O 770.236 -0.0488002 1.90738 0
M  V30 7669 C 767.376 0.373427 3.43074 0
M  V30 7670 C 766.489 1.48708 4.05598 0
M  V30 7671 C 765.624 0.947977 5.22673 0
M  V30 7672 C 764.663 2.03793 5.77178 0
M  V30 7673 N 763.8 1.51451 6.85571 0
M  V30 7674 H 768.64 1.78781 2.38414 0
M  V30 7675 H 766.177 0.891892 1.16977 0
M  V30 7676 H 768.135 0.0685035 4.17144 0
M  V30 7677 H 766.765 -0.509752 3.1875 0
M  V30 7678 H 765.817 1.908 3.29089 0
M  V30 7679 H 767.129 2.30964 4.42105 0
M  V30 7680 H 766.283 0.596154 6.03764 0
M  V30 7681 H 765.022 0.0947081 4.87608 0
M  V30 7682 H 764.027 2.39847 4.94726 0
M  V30 7683 H 765.252 2.89514 6.14295 0
M  V30 7684 H 763.198 0.683755 6.52427 0
M  V30 7685 H 763.115 2.27325 7.21013 0
M  V30 7686 H 764.383 1.19123 7.70344 0
M  V30 7687 N 768.612 -1.24939 0.960631 0
M  V30 7688 C 769.542 -2.28 0.503815 0
M  V30 7689 C 770.523 -1.63959 -0.452928 0
M  V30 7690 O 771.708 -1.91009 -0.350585 0
M  V30 7691 C 768.838 -3.46643 -0.213535 0
M  V30 7692 C 767.792 -4.22903 0.658535 0
M  V30 7693 C 767.118 -5.34363 -0.189902 0
M  V30 7694 C 768.418 -4.84949 1.93963 0
M  V30 7695 H 770.112 -2.66462 1.36521 0
M  V30 7696 H 767.658 -1.28093 0.657897 0
M  V30 7697 H 769.611 -4.1787 -0.544286 0
M  V30 7698 H 768.335 -3.07187 -1.10923 0
M  V30 7699 H 766.994 -3.53467 0.972455 0
M  V30 7700 H 766.642 -4.91147 -1.08553 0
M  V30 7701 H 766.342 -5.86302 0.390331 0
M  V30 7702 H 767.866 -6.0842 -0.515484 0
M  V30 7703 H 769.28 -5.48288 1.67491 0
M  V30 7704 H 767.677 -5.47091 2.46601 0
M  V30 7705 H 768.747 -4.06799 2.639 0
M  V30 7706 N 770.09 -0.729906 -1.39679 0
M  V30 7707 C 771.339 -0.272534 -1.9985 0
M  V30 7708 C 771.652 1.14519 -1.58571 0
M  V30 7709 O 772.858 1.70182 -2.11543 0
M  V30 7710 C 771.314 -0.436322 -3.57245 0
M  V30 7711 C 770.922 -1.86161 -4.0749 0
M  V30 7712 C 772.666 -0.0404679 -4.24481 0
M  V30 7713 C 770.573 -1.97522 -5.5744 0
M  V30 7714 H 769.503 -0.0981428 -0.747585 0
M  V30 7715 H 772.154 -0.903056 -1.59741 0
M  V30 7716 H 770.536 0.263015 -3.95126 0
M  V30 7717 H 771.71 -2.59248 -3.80955 0
M  V30 7718 H 770.025 -2.21021 -3.529 0
M  V30 7719 H 772.622 -0.104437 -5.34598 0
M  V30 7720 H 772.965 1.00357 -4.04023 0
M  V30 7721 H 773.498 -0.690774 -3.91757 0
M  V30 7722 H 770.237 -3.00096 -5.82771 0
M  V30 7723 H 769.757 -1.28864 -5.85794 0
M  V30 7724 H 771.436 -1.754 -6.22771 0
M  V30 7725 N 771.568 1.50203 -0.477153 0
M  V30 7726 C 772.815 2.02358 0.0757385 0
M  V30 7727 C 773.143 1.3587 1.39174 0
M  V30 7728 O 772.398 0.475415 1.89838 0
M  V30 7729 C 772.697 3.56127 0.301325 0
M  V30 7730 C 772.363 4.41126 -0.933725 0
M  V30 7731 C 771.025 4.64075 -1.27233 0
M  V30 7732 C 773.377 4.90737 -1.75576 0
M  V30 7733 C 770.705 5.33878 -2.43292 0
M  V30 7734 C 773.057 5.61816 -2.90768 0
M  V30 7735 C 771.721 5.83016 -3.25036 0
M  V30 7736 H 770.991 0.740482 0.0277147 0
M  V30 7737 H 773.638 1.80754 -0.632467 0
M  V30 7738 H 771.943 3.76279 1.09183 0
M  V30 7739 H 773.64 3.94053 0.743184 0
M  V30 7740 H 770.23 4.23489 -0.659935 0
M  V30 7741 H 774.414 4.72856 -1.50734 0
M  V30 7742 H 769.67 5.48499 -2.70109 0
M  V30 7743 H 773.844 5.99237 -3.54807 0
M  V30 7744 H 771.471 6.36881 -4.15074 0
M  V30 7745 N 773.046 0.209999 1.56195 0
M  V30 7746 C 774.323 -0.473214 1.89789 0
M  V30 7747 C 774.703 -1.78581 1.1257 0
M  V30 7748 O 774.051 -2.27325 0.231398 0
M  V30 7749 C 774.261 -0.677458 3.42362 0
M  V30 7750 C 775.609 -0.990114 4.12895 0
M  V30 7751 O 776.633 -0.764655 3.47896 0
M  V30 7752 O 775.492 -1.41737 5.278 0
M  V30 7753 H 772.586 -0.248622 0.788743 0
M  V30 7754 H 775.132 0.251324 1.67829 0
M  V30 7755 H 773.904 0.248878 3.90508 0
M  V30 7756 H 773.527 -1.45391 3.70064 0
M  V30 7757 N 774.524 -1.57472 -0.0634922 0
M  V30 7758 C 775.487 -2.03268 -1.059 0
M  V30 7759 C 776.487 -0.931028 -1.31105 0
M  V30 7760 O 777.677 -1.19567 -1.26686 0
M  V30 7761 C 774.809 -2.42039 -2.40062 0
M  V30 7762 H 776.002 -2.92454 -0.664119 0
M  V30 7763 H 773.555 -1.53206 -0.309444 0
M  V30 7764 H 774.29 -1.55904 -2.84367 0
M  V30 7765 H 774.075 -3.22437 -2.23108 0
M  V30 7766 H 775.565 -2.78017 -3.11603 0
M  V30 7767 N 776.003 0.335068 -1.53997 0
M  V30 7768 C 776.913 1.43511 -1.85585 0
M  V30 7769 C 777.929 1.57162 -0.746726 0
M  V30 7770 O 779.105 1.72477 -1.03988 0
M  V30 7771 C 776.17 2.78386 -2.06646 0
M  V30 7772 C 775.231 2.74007 -3.30483 0
M  V30 7773 C 774.464 4.02449 -3.50529 0
M  V30 7774 O 774.687 5.00147 -2.74242 0
M  V30 7775 O 773.621 4.06405 -4.4398 0
M  V30 7776 H 777.447 1.19731 -2.79102 0
M  V30 7777 H 775.032 0.528033 -1.39758 0
M  V30 7778 H 776.914 3.58247 -2.21894 0
M  V30 7779 H 775.589 3.0208 -1.16317 0
M  V30 7780 H 774.496 1.92736 -3.2063 0
M  V30 7781 H 775.829 2.55267 -4.20832 0
M  V30 7782 N 777.481 1.45874 0.596531 0
M  V30 7783 C 778.709 1.54013 1.38158 0
M  V30 7784 C 779.124 0.17648 1.87973 0
M  V30 7785 O 778.481 -0.823895 1.62844 0
M  V30 7786 C 778.532 2.53363 2.57855 0
M  V30 7787 O 778.253 3.8443 2.10108 0
M  V30 7788 C 779.754 2.71308 3.50581 0
M  V30 7789 H 776.974 0.521251 0.422538 0
M  V30 7790 H 779.518 1.9116 0.726493 0
M  V30 7791 H 777.673 2.19257 3.19382 0
M  V30 7792 H 778.087 4.38384 2.87958 0
M  V30 7793 H 779.561 3.44776 4.31084 0
M  V30 7794 H 780.038 1.77728 4.01633 0
M  V30 7795 H 780.644 3.06455 2.94899 0
M  V30 7796 N 778.959 -0.83999 1.33349 0
M  V30 7797 C 780.207 -1.59202 1.24496 0
M  V30 7798 C 780.528 -1.94077 -0.189499 0
M  V30 7799 O 779.798 -1.60868 -1.11796 0
M  V30 7800 H 778.378 -0.590276 0.457802 0
M  V30 7801 H 781.04 -1.00394 1.67054 0
M  V30 7802 H 780.136 -2.52247 1.83788 0
M  V30 7803 N 780.437 -1.16799 -1.0581 0
M  V30 7804 C 781.853 -0.913935 -1.30841 0
M  V30 7805 C 782.053 0.430439 -1.96849 0
M  V30 7806 O 781.109 1.16885 -2.23817 0
M  V30 7807 C 782.422 -2.06662 -2.18429 0
M  V30 7808 C 783.97 -2.10294 -2.31831 0
M  V30 7809 C 784.445 -3.2493 -3.22776 0
M  V30 7810 N 785.936 -3.24678 -3.30361 0
M  V30 7811 C 786.671 -4.10021 -4.00837 0
M  V30 7812 N 786.167 -5.05461 -4.73795 0
M  V30 7813 N 787.96 -3.97991 -3.96937 0
M  V30 7814 H 780.111 -2.03343 -0.613613 0
M  V30 7815 H 782.374 -0.88754 -0.333133 0
M  V30 7816 H 782.08 -3.03791 -1.77211 0
M  V30 7817 H 781.954 -2.01233 -3.19038 0
M  V30 7818 H 784.341 -1.13754 -2.72294 0
M  V30 7819 H 784.422 -2.19786 -1.30873 0
M  V30 7820 H 784.066 -4.21731 -2.83028 0
M  V30 7821 H 783.996 -3.12674 -4.23725 0
M  V30 7822 H 786.487 -2.55573 -2.78372 0
M  V30 7823 H 786.8 -5.66989 -5.25113 0
M  V30 7824 H 785.145 -5.09436 -4.72758 0
M  V30 7825 H 788.336 -3.2273 -3.39062 0
M  V30 7826 H 788.509 -4.64722 -4.51594 0
M  V30 7827 N 781.915 1.24427 -0.967243 0
M  V30 7828 C 783.164 1.91789 -0.624478 0
M  V30 7829 C 783.477 1.76448 0.844129 0
M  V30 7830 O 784.683 2.38495 1.2974 0
M  V30 7831 C 783.139 3.43743 -1.06626 0
M  V30 7832 C 782.747 3.67771 -2.55829 0
M  V30 7833 C 784.491 4.16958 -0.79662 0
M  V30 7834 C 782.398 5.13293 -2.93742 0
M  V30 7835 H 781.328 0.71811 -0.229856 0
M  V30 7836 H 783.979 1.41081 -1.17339 0
M  V30 7837 H 782.361 3.93484 -0.445663 0
M  V30 7838 H 783.535 3.28631 -3.23015 0
M  V30 7839 H 781.85 3.07841 -2.80398 0
M  V30 7840 H 784.447 5.24171 -1.05589 0
M  V30 7841 H 784.79 4.15442 0.267163 0
M  V30 7842 H 785.323 3.73164 -1.37816 0
M  V30 7843 H 782.062 5.19931 -3.9919 0
M  V30 7844 H 781.582 5.53433 -2.3124 0
M  V30 7845 H 783.261 5.81521 -2.83623 0
M  V30 7846 N 783.393 0.737304 1.3929 0
M  V30 7847 C 784.642 0.283129 1.99703 0
M  V30 7848 C 784.955 -1.13677 1.59176 0
M  V30 7849 O 786.161 -1.69058 2.12442 0
M  V30 7850 C 784.617 0.455262 3.57009 0
M  V30 7851 C 784.225 1.88319 4.06497 0
M  V30 7852 C 785.969 0.0629786 4.24453 0
M  V30 7853 C 783.876 2.00475 5.56385 0
M  V30 7854 H 782.806 0.102106 0.747054 0
M  V30 7855 H 785.457 0.911515 1.5926 0
M  V30 7856 H 783.839 -0.242057 3.9526 0
M  V30 7857 H 785.013 2.61265 3.79575 0
M  V30 7858 H 783.328 2.2289 3.51723 0
M  V30 7859 H 785.925 0.132787 5.34535 0
M  V30 7860 H 786.268 -0.982128 4.04549 0
M  V30 7861 H 786.801 0.71154 3.91385 0
M  V30 7862 H 783.54 3.03182 5.81172 0
M  V30 7863 H 783.06 1.31969 5.85102 0
M  V30 7864 H 784.739 1.787 6.21832 0
M  V30 7865 N 784.871 -1.49948 0.485112 0
M  V30 7866 C 786.119 -2.01996 -0.0648775 0
M  V30 7867 C 786.44 -1.36819 -1.38945 0
M  V30 7868 O 785.71 -0.518163 -1.88923 0
M  V30 7869 H 784.29 -0.746513 -0.0269662 0
M  V30 7870 H 786.952 -1.84136 0.638733 0
M  V30 7871 H 786.048 -3.11418 -0.20617 0
M  V30 7872 N 786.349 -0.21828 -1.56081 0
M  V30 7873 C 787.597 0.413488 -1.97825 0
M  V30 7874 C 787.918 1.60527 -1.10707 0
M  V30 7875 O 787.188 1.9504 -0.183378 0
M  V30 7876 H 785.768 0.155757 -0.730581 0
M  V30 7877 H 788.43 -0.310413 -1.92412 0
M  V30 7878 H 787.526 0.742024 -3.03151 0
M  V30 7879 N 787.827 1.57504 0.0551401 0
M  V30 7880 C 789.075 1.87684 0.74962 0
M  V30 7881 C 789.396 0.812547 1.77264 0
M  V30 7882 O 788.666 -0.15694 1.9527 0
M  V30 7883 H 787.246 0.6926 0.279846 0
M  V30 7884 H 789.908 1.94881 0.0272745 0
M  V30 7885 H 789.004 2.85734 1.25548 0
M  V30 7886 N 789.305 -0.326896 1.54172 0
M  V30 7887 C 790.554 -1.06274 1.71431 0
M  V30 7888 C 790.867 -1.89282 0.493123 0
M  V30 7889 O 792.073 -2.65933 0.54699 0
M  V30 7890 C 790.529 -1.93892 3.03206 0
M  V30 7891 C 790.137 -1.16011 4.32719 0
M  V30 7892 C 791.881 -2.67232 3.29829 0
M  V30 7893 C 789.788 -2.02755 5.55558 0
M  V30 7894 H 788.718 -0.400475 0.638855 0
M  V30 7895 H 791.369 -0.321184 1.80667 0
M  V30 7896 H 789.751 -2.71933 2.87869 0
M  V30 7897 H 790.925 -0.427643 4.58811 0
M  V30 7898 H 789.24 -0.54367 4.12836 0
M  V30 7899 H 791.837 -3.32434 4.18798 0
M  V30 7900 H 792.18 -3.34692 2.47562 0
M  V30 7901 H 792.713 -1.96255 3.46018 0
M  V30 7902 H 789.452 -1.3981 6.40417 0
M  V30 7903 H 788.972 -2.73745 5.33689 0
M  V30 7904 H 790.651 -2.61419 5.91835 0
M  V30 7905 N 790.784 -1.46188 -0.588786 0
M  V30 7906 C 792.03 -1.51407 -1.34921 0
M  V30 7907 C 792.363 -0.162771 -1.93517 0
M  V30 7908 O 791.638 0.825082 -1.76132 0
M  V30 7909 C 791.921 -2.60795 -2.48311 0
M  V30 7910 C 791.774 -4.05435 -1.94789 0
M  V30 7911 C 793.093 -2.66313 -3.50379 0
M  V30 7912 H 790.212 -0.551213 -0.489217 0
M  V30 7913 H 792.854 -1.78095 -0.661993 0
M  V30 7914 H 791.004 -2.3817 -3.06932 0
M  V30 7915 H 792.676 -4.39328 -1.40672 0
M  V30 7916 H 790.919 -4.15202 -1.25659 0
M  V30 7917 H 791.59 -4.77691 -2.76613 0
M  V30 7918 H 794.066 -2.86634 -3.01629 0
M  V30 7919 H 792.942 -3.44681 -4.27184 0
M  V30 7920 H 793.203 -1.72127 -4.07216 0
M  V30 7921 N 792.262 0.832906 -1.33792 0
M  V30 7922 C 793.51 1.58539 -1.25338 0
M  V30 7923 C 793.831 1.94175 0.179204 0
M  V30 7924 O 793.101 1.61458 1.10941 0
M  V30 7925 H 791.681 0.58784 -0.460926 0
M  V30 7926 H 794.343 0.995064 -1.67584 0
M  V30 7927 H 793.439 2.51268 -1.85123 0
M  V30 7928 N 793.74 1.17359 1.05189 0
M  V30 7929 C 795.151 0.96793 1.5965 0
M  V30 7930 C 795.502 -0.485355 1.90102 0
M  V30 7931 O 794.627 -1.36066 1.6827 0
M  V30 7932 C 795.222 1.75068 2.90063 0
M  V30 7933 C 793.781 1.58969 3.41183 0
M  V30 7934 C 792.928 1.75231 2.14917 0
M  V30 7935 H 795.879 1.32067 0.880001 0
M  V30 7936 H 795.9 1.23308 3.59966 0
M  V30 7937 H 795.412 2.80835 2.67868 0
M  V30 7938 H 793.513 0.556906 3.68415 0
M  V30 7939 H 793.626 2.38067 4.15766 0
M  V30 7940 H 791.99 1.18073 2.25679 0
M  V30 7941 H 792.773 2.8241 1.95191 0
M  V30 7942 N 795.218 -1.23913 0.973828 0
M  V30 7943 C 796.166 -2.27141 0.50098 0
M  V30 7944 C 797.16 -1.63623 -0.438631 0
M  V30 7945 O 798.366 -1.77253 -0.313247 0
M  V30 7946 H 794.741 -0.73817 0.14356 0
M  V30 7947 H 796.712 -2.64392 1.38346 0
M  V30 7948 C 795.461 -3.47195 -0.187377 0
M  V30 7949 H 794.784 -3.96318 0.526535 0
M  V30 7950 H 796.224 -4.21252 -0.481962 0
M  V30 7951 C 794.683 -3.05678 -1.41642 0
M  V30 7952 O 795.213 -3.1338 -2.51309 0
M  V30 7953 N 793.419 -2.60661 -1.28469 0
M  V30 7954 H 792.966 -2.54594 -0.39238 0
M  V30 7955 H 792.924 -2.33249 -2.10813 0
M  V30 7956 N 796.696 -0.74468 -1.38897 0
M  V30 7957 C 797.944 -0.296298 -1.99916 0
M  V30 7958 C 798.265 1.12325 -1.59399 0
M  V30 7959 O 797.535 1.76658 -0.846689 0
M  V30 7960 H 796.115 -0.106561 -0.73936 0
M  V30 7961 H 798.777 -0.956793 -1.69798 0
M  V30 7962 H 797.873 -0.352356 -3.10105 0
M  V30 7963 N 798.174 1.49689 -0.493057 0
M  V30 7964 C 799.422 2.02027 0.0541642 0
M  V30 7965 C 799.743 1.37554 1.38217 0
M  V30 7966 O 799.013 0.528174 1.88646 0
M  V30 7967 H 797.593 0.746646 0.0230069 0
M  V30 7968 H 800.255 1.83795 -0.648489 0
M  V30 7969 H 799.351 3.11523 0.189652 0
M  V30 7970 N 799.652 0.226554 1.55963 0
M  V30 7971 C 800.929 -0.453058 1.90281 0
M  V30 7972 C 801.309 -1.77377 1.14458 0
M  V30 7973 O 800.657 -2.27067 0.255496 0
M  V30 7974 C 800.867 -0.641108 3.43061 0
M  V30 7975 C 802.215 -0.946265 4.13921 0
M  V30 7976 O 803.239 -0.727713 3.48687 0
M  V30 7977 O 802.098 -1.36131 5.29274 0
M  V30 7978 H 799.192 -0.240242 0.791336 0
M  V30 7979 H 801.738 0.26911 1.67553 0
M  V30 7980 H 800.51 0.290283 3.90222 0
M  V30 7981 H 800.133 -1.41458 3.71585 0
M  V30 7982 N 801.13 -1.57531 -0.0467866 0
M  V30 7983 C 802.063 -2.00734 -1.08541 0
M  V30 7984 C 803.041 -0.888508 -1.36177 0
M  V30 7985 O 804.225 -1.1529 -1.49132 0
M  V30 7986 C 801.352 -2.36535 -2.42423 0
M  V30 7987 C 800.398 -3.58681 -2.3076 0
M  V30 7988 S 801.231 -5.08536 -1.67785 0
M  V30 7989 C 802.387 -5.47562 -3.03194 0
M  V30 7990 H 802.62 -2.88516 -0.717345 0
M  V30 7991 H 800.153 -1.5226 -0.256181 0
M  V30 7992 H 802.111 -2.57834 -3.19424 0
M  V30 7993 H 800.772 -1.49236 -2.76382 0
M  V30 7994 H 799.965 -3.81329 -3.29552 0
M  V30 7995 H 799.567 -3.37142 -1.61899 0
M  V30 7996 H 801.859 -5.47163 -3.99524 0
M  V30 7997 H 802.802 -6.48082 -2.85299 0
M  V30 7998 H 803.21 -4.75042 -3.04951 0
M  V30 7999 N 802.608 0.318715 -1.54344 0
M  V30 8000 C 803.857 1.05363 -1.71993 0
M  V30 8001 C 804.17 1.89018 -0.503155 0
M  V30 8002 O 805.376 2.65639 -0.561085 0
M  V30 8003 C 803.832 1.92281 -3.0423 0
M  V30 8004 C 803.44 1.13715 -4.33328 0
M  V30 8005 C 805.184 2.65479 -3.31242 0
M  V30 8006 C 803.091 1.99806 -5.56625 0
M  V30 8007 H 802.021 0.397081 -0.64097 0
M  V30 8008 H 804.672 0.311598 -1.80835 0
M  V30 8009 H 803.054 2.70402 -2.89307 0
M  V30 8010 H 804.228 0.403305 -4.59032 0
M  V30 8011 H 802.543 0.521769 -4.13118 0
M  V30 8012 H 805.14 3.30209 -4.20555 0
M  V30 8013 H 805.483 3.33374 -2.49334 0
M  V30 8014 H 806.016 1.94417 -3.47054 0
M  V30 8015 H 802.755 1.36411 -6.41149 0
M  V30 8016 H 802.275 2.70911 -5.35133 0
M  V30 8017 H 803.954 2.58277 -5.93213 0
M  V30 8018 N 804.086 1.46499 0.581025 0
M  V30 8019 C 805.334 1.51596 1.33653 0
M  V30 8020 C 805.655 0.169859 1.94259 0
M  V30 8021 O 804.925 -0.803776 1.78651 0
M  V30 8022 H 803.505 0.558346 0.496244 0
M  V30 8023 H 806.167 1.8264 0.680338 0
M  V30 8024 H 805.263 2.26956 2.14237 0
M  V30 8025 N 805.565 -0.825799 1.34232 0
M  V30 8026 C 806.475 -1.9684 1.27638 0
M  V30 8027 C 807.491 -1.73018 0.184569 0
M  V30 8028 O 808.667 -1.97172 0.410525 0
M  V30 8029 C 805.732 -3.31084 1.02879 0
M  V30 8030 C 804.793 -3.67933 2.21188 0
M  V30 8031 C 804.026 -4.95772 1.976 0
M  V30 8032 O 804.249 -5.62721 0.93281 0
M  V30 8033 O 803.183 -5.30431 2.84477 0
M  V30 8034 H 807.009 -2.05346 2.23756 0
M  V30 8035 H 804.594 -0.960772 1.1441 0
M  V30 8036 H 806.476 -4.11492 0.908406 0
M  V30 8037 H 805.151 -3.23552 0.0979821 0
M  V30 8038 H 804.058 -2.87981 2.38784 0
M  V30 8039 H 805.391 -3.80147 3.12648 0
M  V30 8040 N 807.043 -1.17915 -1.04565 0
M  V30 8041 C 808.289 -0.972863 -1.77942 0
M  V30 8042 C 808.622 0.496753 -1.87739 0
M  V30 8043 O 807.897 1.3688 -1.38181 0
M  V30 8044 C 808.18 -1.62227 -3.21488 0
M  V30 8045 C 808.033 -3.16441 -3.19664 0
M  V30 8046 C 809.352 -1.33137 -4.19479 0
M  V30 8047 H 806.471 -0.354843 -0.645953 0
M  V30 8048 H 809.113 -1.45508 -1.22178 0
M  V30 8049 H 807.263 -1.21224 -3.69103 0
M  V30 8050 H 808.935 -3.66544 -2.80077 0
M  V30 8051 H 807.178 -3.48863 -2.57832 0
M  V30 8052 H 807.849 -3.57012 -4.21006 0
M  V30 8053 H 810.325 -1.68654 -3.80388 0
M  V30 8054 H 809.201 -1.81151 -5.18146 0
M  V30 8055 H 809.462 -0.253319 -4.41374 0
M  V30 8056 N 808.521 1.23394 -0.980386 0
M  V30 8057 C 809.761 1.93543 -0.657288 0
M  V30 8058 C 810.125 1.74791 0.794477 0
M  V30 8059 O 811.326 2.39089 1.2284 0
M  V30 8060 C 809.597 3.42025 -1.03701 0
M  V30 8061 S 811.156 4.30871 -0.830379 0
M  V30 8062 H 807.974 0.669012 -0.240717 0
M  V30 8063 H 810.576 1.49478 -1.26002 0
M  V30 8064 H 809.28 3.53183 -2.09022 0
M  V30 8065 H 808.811 3.91091 -0.425559 0
M  V30 8066 H 810.826 4.95377 0.285719 0
M  V30 8067 N 809.999 0.752036 1.385 0
M  V30 8068 C 810.929 0.138718 2.33088 0
M  V30 8069 C 811.91 -0.705318 1.54788 0
M  V30 8070 O 813.095 -0.646821 1.83112 0
M  V30 8071 C 810.225 -0.75641 3.38963 0
M  V30 8072 C 809.179 -0.0152239 4.27997 0
M  V30 8073 C 808.505 -1.0285 5.24715 0
M  V30 8074 C 809.805 1.15226 5.09431 0
M  V30 8075 H 811.499 0.928852 2.84627 0
M  V30 8076 H 809.045 0.448111 1.3685 0
M  V30 8077 H 810.998 -1.19513 4.04097 0
M  V30 8078 H 809.722 -1.57885 2.85902 0
M  V30 8079 H 808.381 0.404061 3.64366 0
M  V30 8080 H 808.029 -1.84496 4.67943 0
M  V30 8081 H 807.729 -0.537238 5.85139 0
M  V30 8082 H 809.253 -1.46657 5.92726 0
M  V30 8083 H 810.667 0.791161 5.67815 0
M  V30 8084 H 809.064 1.57428 5.79082 0
M  V30 8085 H 810.134 1.9659 4.43261 0
M  V30 8086 N 811.477 -1.49425 0.500989 0
M  V30 8087 C 812.44 -2.27646 -0.266416 0
M  V30 8088 C 813.44 -1.3366 -0.893961 0
M  V30 8089 O 814.63 -1.5682 -0.758495 0
M  V30 8090 C 811.762 -3.11618 -1.38227 0
M  V30 8091 H 812.955 -2.96945 0.419973 0
M  V30 8092 H 810.508 -1.5419 0.255954 0
M  V30 8093 H 811.243 -2.46885 -2.10281 0
M  V30 8094 H 811.028 -3.80721 -0.937746 0
M  V30 8095 H 812.518 -3.70698 -1.92283 0
M  V30 8096 N 812.955 -0.234822 -1.55841 0
M  V30 8097 C 814.204 0.393685 -1.97821 0
M  V30 8098 C 814.517 1.59947 -1.1259 0
M  V30 8099 O 815.723 2.29835 -1.44528 0
M  V30 8100 C 814.179 0.751811 -3.5196 0
M  V30 8101 C 813.787 -0.431898 -4.45913 0
M  V30 8102 C 815.531 1.34518 -4.02623 0
M  V30 8103 C 813.438 -0.0505976 -5.91378 0
M  V30 8104 H 812.368 0.150864 -0.738753 0
M  V30 8105 H 815.019 -0.333132 -1.80451 0
M  V30 8106 H 813.401 1.53642 -3.6498 0
M  V30 8107 H 814.575 -1.20935 -4.44647 0
M  V30 8108 H 812.89 -0.939385 -4.05666 0
M  V30 8109 H 815.487 1.64359 -5.08813 0
M  V30 8110 H 815.83 2.26554 -3.49255 0
M  V30 8111 H 816.363 0.623729 -3.9288 0
M  V30 8112 H 813.102 -0.937779 -6.48757 0
M  V30 8113 H 812.622 0.690898 -5.95808 0
M  V30 8114 H 814.301 0.37146 -6.45933 0
M  V30 8115 N 814.433 1.57553 0.0384317 0
M  V30 8116 C 815.343 2.09333 1.0591 0
M  V30 8117 C 816.359 1.0299 1.40247 0
M  V30 8118 O 817.535 1.34669 1.49754 0
M  V30 8119 C 814.6 2.55468 2.34386 0
M  V30 8120 C 813.661 3.76254 2.06716 0
M  V30 8121 C 812.894 4.20179 3.29067 0
M  V30 8122 O 813.117 3.637 4.39407 0
M  V30 8123 O 812.051 5.12697 3.15317 0
M  V30 8124 H 815.877 2.96683 0.649087 0
M  V30 8125 H 813.462 1.47211 0.254802 0
M  V30 8126 H 815.344 2.85514 3.09935 0
M  V30 8127 H 814.019 1.71234 2.74701 0
M  V30 8128 H 812.926 3.51241 1.28766 0
M  V30 8129 H 814.259 4.61443 1.71263 0
M  V30 8130 N 815.911 -0.310526 1.54511 0
M  V30 8131 C 816.844 -1.40693 1.79668 0
M  V30 8132 C 817.822 -1.49159 0.64734 0
M  V30 8133 O 819.006 -1.66367 0.886239 0
M  V30 8134 C 816.133 -2.78685 1.92491 0
M  V30 8135 C 815.179 -2.87688 3.14861 0
M  V30 8136 S 816.012 -2.50759 4.7316 0
M  V30 8137 C 817.168 -3.90797 4.88906 0
M  V30 8138 H 817.401 -1.19142 2.72383 0
M  V30 8139 H 814.934 -0.508103 1.458 0
M  V30 8140 H 816.892 -3.58168 2.00563 0
M  V30 8141 H 815.553 -2.9751 1.00731 0
M  V30 8142 H 814.746 -3.8888 3.20607 0
M  V30 8143 H 814.348 -2.16189 3.05186 0
M  V30 8144 H 816.64 -4.85693 4.72344 0
M  V30 8145 H 817.583 -3.90027 5.91003 0
M  V30 8146 H 817.991 -3.80357 4.1712 0
M  V30 8147 N 817.389 -1.46805 -0.573248 0
M  V30 8148 C 818.637 -1.52302 -1.32847 0
M  V30 8149 C 818.958 -0.180159 -1.94166 0
M  V30 8150 O 818.228 0.794291 -1.79075 0
M  V30 8151 H 816.808 -0.56097 -0.493276 0
M  V30 8152 H 819.47 -1.82998 -0.670642 0
M  V30 8153 H 818.566 -2.28089 -2.13031 0
M  V30 8154 N 818.867 0.818669 -1.34668 0
M  V30 8155 C 820.107 1.58862 -1.28617 0
M  V30 8156 C 820.471 1.91483 0.140845 0
M  V30 8157 O 821.672 2.66821 0.325583 0
M  V30 8158 C 819.943 2.85044 -2.15604 0
M  V30 8159 S 821.502 3.75553 -2.26948 0
M  V30 8160 H 818.32 0.544454 -0.457265 0
M  V30 8161 H 820.922 0.966679 -1.69928 0
M  V30 8162 H 819.626 2.59083 -3.18284 0
M  V30 8163 H 819.157 3.52231 -1.75205 0
M  V30 8164 H 821.172 4.74682 -1.44539 0
M  V30 8165 N 820.346 1.18468 1.03938 0
M  V30 8166 C 821.623 0.890435 1.74157 0
M  V30 8167 C 822.003 -0.606409 2.02203 0
M  V30 8168 O 821.351 -1.5615 1.66822 0
M  V30 8169 C 821.561 1.73906 3.02585 0
M  V30 8170 C 822.909 1.96686 3.76297 0
M  V30 8171 O 823.933 1.70969 3.12487 0
M  V30 8172 O 822.792 2.39986 4.90988 0
M  V30 8173 H 819.886 0.330889 0.757919 0
M  V30 8174 H 822.432 1.29228 1.09992 0
M  V30 8175 H 821.204 2.75369 2.78006 0
M  V30 8176 H 820.827 1.33581 3.74489 0
M  V30 8177 N 821.824 -1.22873 0.986916 0
M  V30 8178 C 822.787 -2.2281 0.537442 0
M  V30 8179 C 823.787 -1.56331 -0.37646 0
M  V30 8180 O 824.977 -1.73376 -0.169247 0
M  V30 8181 C 822.109 -3.40195 -0.219082 0
M  V30 8182 H 823.302 -2.64089 1.42116 0
M  V30 8183 H 820.855 -1.35819 0.773488 0
M  V30 8184 H 821.59 -3.04381 -1.11905 0
M  V30 8185 H 821.375 -3.89657 0.437026 0
M  V30 8186 H 822.865 -4.14326 -0.521926 0
M  V30 8187 N 823.302 -0.75937 -1.38099 0
M  V30 8188 C 824.265 -0.14372 -2.28749 0
M  V30 8189 C 825.265 0.641338 -1.47457 0
M  V30 8190 O 826.455 0.466751 -1.67831 0
M  V30 8191 C 823.587 0.804545 -3.3127 0
M  V30 8192 H 824.78 -0.942663 -2.847 0
M  V30 8193 H 822.333 -0.526757 -1.47156 0
M  V30 8194 H 823.068 1.62895 -2.80421 0
M  V30 8195 H 822.853 0.243939 -3.9134 0
M  V30 8196 H 824.343 1.23111 -3.99041 0
M  V30 8197 N 824.78 1.49157 -0.508906 0
M  V30 8198 C 826.057 1.95363 0.0961913 0
M  V30 8199 C 826.437 1.45064 1.53362 0
M  V30 8200 O 825.785 0.667835 2.18523 0
M  V30 8201 C 825.995 3.49 0.000688881 0
M  V30 8202 C 827.343 4.24257 0.170632 0
M  V30 8203 O 828.367 3.5612 0.0754994 0
M  V30 8204 O 827.226 5.45267 0.366957 0
M  V30 8205 H 824.32 0.821984 0.0909489 0
M  V30 8206 H 826.866 1.59769 -0.572007 0
M  V30 8207 H 825.638 3.78269 -1.00143 0
M  V30 8208 H 825.261 3.91233 0.708682 0
M  V30 8209 N 826.258 0.243083 1.55714 0
M  V30 8210 C 827.507 -0.383188 1.98027 0
M  V30 8211 C 827.82 -1.59347 1.13436 0
M  V30 8212 O 829.026 -2.29065 1.45745 0
M  V30 8213 C 827.482 -0.733135 3.52354 0
M  V30 8214 C 827.09 0.455539 4.45678 0
M  V30 8215 C 828.834 -1.32381 4.03331 0
M  V30 8216 C 826.741 0.0819591 5.91343 0
M  V30 8217 H 825.671 -0.146944 0.739543 0
M  V30 8218 H 828.322 0.342697 1.80272 0
M  V30 8219 H 826.704 -1.51704 3.65789 0
M  V30 8220 H 827.878 1.23291 4.44 0
M  V30 8221 H 826.193 0.960886 4.05162 0
M  V30 8222 H 828.79 -1.61658 5.09677 0
M  V30 8223 H 829.133 -2.24698 3.50452 0
M  V30 8224 H 829.666 -0.602885 3.93205 0
M  V30 8225 H 826.405 0.972171 6.48251 0
M  V30 8226 H 825.925 -0.659291 5.96166 0
M  V30 8227 H 827.604 -0.3372 6.46121 0
M  V30 8228 N 827.736 -1.57571 -0.0300757 0
M  V30 8229 C 828.984 -1.88852 -0.719666 0
M  V30 8230 C 829.305 -0.840645 -1.75949 0
M  V30 8231 O 828.575 0.125854 -1.95495 0
M  V30 8232 H 827.155 -0.696965 -0.268792 0
M  V30 8233 H 829.817 -1.949 0.00373285 0
M  V30 8234 H 828.913 -2.87695 -1.20987 0
M  V30 8235 N 829.214 0.302327 -1.54673 0
M  V30 8236 C 830.161 1.37282 -1.85532 0
M  V30 8237 C 831.131 1.50437 -0.704129 0
M  V30 8238 O 832.316 1.65317 -0.952627 0
M  V30 8239 C 829.456 2.73309 -2.10704 0
M  V30 8240 C 828.569 2.68614 -3.38335 0
M  V30 8241 C 827.704 3.96626 -3.53357 0
M  V30 8242 C 826.743 3.86324 -4.74784 0
M  V30 8243 N 825.88 5.06109 -4.86619 0
M  V30 8244 H 830.72 1.10265 -2.76849 0
M  V30 8245 H 828.257 0.533346 -1.37091 0
M  V30 8246 H 830.215 3.52414 -2.23294 0
M  V30 8247 H 828.845 2.98589 -1.22656 0
M  V30 8248 H 827.897 1.81381 -3.34373 0
M  V30 8249 H 829.209 2.56891 -4.27561 0
M  V30 8250 H 828.363 4.84168 -3.65604 0
M  V30 8251 H 827.102 4.11182 -2.62261 0
M  V30 8252 H 826.107 2.97166 -4.62572 0
M  V30 8253 H 827.332 3.73315 -5.67286 0
M  V30 8254 H 825.278 5.2113 -3.98446 0
M  V30 8255 H 825.195 4.96804 -5.69844 0
M  V30 8256 H 826.463 5.95306 -5.03221 0
M  V30 8257 N 830.692 1.47107 0.565454 0
M  V30 8258 C 831.92 1.56909 1.3486 0
M  V30 8259 C 832.335 0.216312 1.87557 0
M  V30 8260 O 831.692 -0.789168 1.64555 0
M  V30 8261 C 831.743 2.58776 2.52423 0
M  V30 8262 O 831.464 3.888 2.01906 0
M  V30 8263 C 832.965 2.78683 3.44747 0
M  V30 8264 H 830.185 0.530096 0.411387 0
M  V30 8265 H 832.729 1.92658 0.685782 0
M  V30 8266 H 830.884 2.25983 3.1466 0
M  V30 8267 H 831.298 4.44393 2.78595 0
M  V30 8268 H 832.772 3.53842 4.23674 0
M  V30 8269 H 833.249 1.86208 3.97773 0
M  V30 8270 H 833.855 3.12641 2.88333 0
M  V30 8271 N 832.17 -0.811516 1.35101 0
M  V30 8272 C 833.419 -1.56343 1.27435 0
M  V30 8273 C 833.732 -1.95019 -0.150696 0
M  V30 8274 O 834.938 -2.6924 -0.349586 0
M  V30 8275 C 833.394 -2.82124 2.23459 0
M  V30 8276 C 833.002 -2.50706 3.71283 0
M  V30 8277 C 834.746 -3.60137 2.24726 0
M  V30 8278 C 832.653 -3.72748 4.59143 0
M  V30 8279 H 831.583 -0.58682 0.473453 0
M  V30 8280 H 834.234 -0.892465 1.60335 0
M  V30 8281 H 832.616 -3.50905 1.83525 0
M  V30 8282 H 833.79 -1.89962 4.19823 0
M  V30 8283 H 832.105 -1.85947 3.72576 0
M  V30 8284 H 834.702 -4.50775 2.87587 0
M  V30 8285 H 835.045 -3.97101 1.24965 0
M  V30 8286 H 835.578 -2.98311 2.63164 0
M  V30 8287 H 832.317 -3.40896 5.59884 0
M  V30 8288 H 831.837 -4.32735 4.15332 0
M  V30 8289 H 833.516 -4.40033 4.74321 0
M  V30 8290 N 833.648 -1.19017 -1.03309 0
M  V30 8291 C 834.598 -0.89194 -2.0983 0
M  V30 8292 C 835.582 0.14151 -1.60277 0
M  V30 8293 O 836.774 -0.0635946 -1.76886 0
M  V30 8294 C 833.903 -0.427793 -3.40624 0
M  V30 8295 C 832.989 -1.49374 -3.96923 0
M  V30 8296 N 833.38 -2.71213 -4.26939 0
M  V30 8297 C 831.678 -1.35605 -4.24885 0
M  V30 8298 C 832.379 -3.39849 -4.72099 0
M  V30 8299 N 831.355 -2.67239 -4.73375 0
M  V30 8300 H 835.157 -1.81801 -2.30923 0
M  V30 8301 H 832.671 -1.08171 -1.21131 0
M  V30 8302 H 834.668 -0.195608 -4.16441 0
M  V30 8303 H 833.328 0.491848 -3.20953 0
M  V30 8304 H 834.339 -3.08014 -4.16351 0
M  V30 8305 H 831.016 -0.499537 -4.14501 0
M  V30 8306 H 832.406 -4.44018 -5.04279 0
M  V30 8307 N 835.127 1.22348 -0.993418 0
M  V30 8308 C 836.538 1.72893 -0.704616 0
M  V30 8309 C 836.889 1.80095 0.778483 0
M  V30 8310 O 836.014 1.4476 1.60853 0
M  V30 8311 C 836.609 3.14 -1.27237 0
M  V30 8312 C 835.168 3.61949 -1.03294 0
M  V30 8313 C 834.315 2.39816 -1.39225 0
M  V30 8314 H 837.266 1.07688 -1.16572 0
M  V30 8315 H 837.287 3.74886 -0.651212 0
M  V30 8316 H 836.799 3.08727 -2.3518 0
M  V30 8317 H 834.9 3.72588 0.0298329 0
M  V30 8318 H 835.013 4.48051 -1.69668 0
M  V30 8319 H 833.377 2.41448 -0.810849 0
M  V30 8320 H 834.16 2.37203 -2.48172 0
M  V30 8321 N 836.605 0.766683 1.37694 0
M  V30 8322 C 837.555 0.123173 2.27667 0
M  V30 8323 C 838.539 -0.679436 1.45851 0
M  V30 8324 O 839.731 -0.54324 1.68457 0
M  V30 8325 C 836.86 -0.759064 3.34803 0
M  V30 8326 C 835.946 0.0511009 4.24069 0
M  V30 8327 N 836.337 1.09418 4.93823 0
M  V30 8328 C 834.635 -0.173675 4.45662 0
M  V30 8329 C 835.336 1.58546 5.59677 0
M  V30 8330 N 834.312 0.898503 5.36123 0
M  V30 8331 H 838.114 0.921859 2.79068 0
M  V30 8332 H 835.628 0.603957 1.50752 0
M  V30 8333 H 837.625 -1.23581 3.98163 0
M  V30 8334 H 836.285 -1.55655 2.84959 0
M  V30 8335 H 837.296 1.47623 4.96415 0
M  V30 8336 H 833.973 -0.943473 4.067 0
M  V30 8337 H 835.363 2.45504 6.25442 0
M  V30 8338 N 838.083 -1.48885 0.516809 0
M  V30 8339 C 839.494 -1.86557 0.0729921 0
M  V30 8340 C 839.845 -1.42767 -1.34581 0
M  V30 8341 O 838.97 -0.812514 -2.00567 0
M  V30 8342 C 839.565 -3.38567 0.125686 0
M  V30 8343 C 838.124 -3.75481 -0.262867 0
M  V30 8344 C 837.271 -2.72913 0.491281 0
M  V30 8345 H 840.222 -1.40978 0.728767 0
M  V30 8346 H 840.243 -3.74629 -0.665831 0
M  V30 8347 H 839.755 -3.70408 1.15842 0
M  V30 8348 H 837.856 -3.49251 -1.29824 0
M  V30 8349 H 837.969 -4.79052 0.067579 0
M  V30 8350 H 836.333 -2.54627 -0.0608525 0
M  V30 8351 H 837.116 -3.07599 1.5244 0
M  V30 8352 N 839.561 -0.251338 -1.55583 0
M  V30 8353 C 840.789 0.376187 -2.03451 0
M  V30 8354 C 841.204 1.51215 -1.13047 0
M  V30 8355 O 840.561 1.81917 -0.145769 0
M  V30 8356 C 840.612 0.879779 -3.50631 0
M  V30 8357 O 840.333 -0.210917 -4.37592 0
M  V30 8358 C 841.834 1.57754 -4.14281 0
M  V30 8359 H 839.054 0.0888722 -0.665089 0
M  V30 8360 H 841.598 -0.376497 -2.01004 0
M  V30 8361 H 839.753 1.58263 -3.53598 0
M  V30 8362 H 840.167 0.172203 -5.24217 0
M  V30 8363 H 841.641 1.88158 -5.18942 0
M  V30 8364 H 842.118 2.50103 -3.61034 0
M  V30 8365 H 842.724 0.919154 -4.15249 0
M  V30 8366 N 841.039 1.57585 0.0217189 0
M  V30 8367 C 841.969 2.10073 1.01939 0
M  V30 8368 C 842.95 1.0049 1.37243 0
M  V30 8369 O 844.135 1.28055 1.45999 0
M  V30 8370 C 841.265 2.58618 2.31806 0
M  V30 8371 C 840.219 3.72531 2.10724 0
M  V30 8372 C 839.545 4.07309 3.46415 0
M  V30 8373 C 840.845 5.00672 1.48743 0
M  V30 8374 H 842.539 2.9368 0.582432 0
M  V30 8375 H 840.085 1.41277 0.278715 0
M  V30 8376 H 842.038 2.9396 3.01936 0
M  V30 8377 H 840.762 1.72104 2.77575 0
M  V30 8378 H 839.421 3.37549 1.43025 0
M  V30 8379 H 839.069 3.17851 3.89846 0
M  V30 8380 H 838.769 4.84042 3.33132 0
M  V30 8381 H 840.293 4.45192 4.17895 0
M  V30 8382 H 841.707 5.33925 2.088 0
M  V30 8383 H 840.104 5.82065 1.46013 0
M  V30 8384 H 841.174 4.82769 0.45408 0
M  V30 8385 N 842.517 -0.29412 1.54831 0
M  V30 8386 C 843.765 -1.02643 1.74094 0
M  V30 8387 C 844.086 -1.87563 0.533402 0
M  V30 8388 O 843.356 -1.9061 -0.452192 0
M  V30 8389 H 841.936 -0.381959 0.641963 0
M  V30 8390 H 844.598 -0.323444 1.92197 0
M  V30 8391 H 843.694 -1.67558 2.63307 0
M  V30 8392 N 843.995 -1.47404 -0.557645 0
M  V30 8393 C 844.905 -1.62491 -1.69216 0
M  V30 8394 C 845.921 -0.507764 -1.66426 0
M  V30 8395 O 847.097 -0.775241 -1.85882 0
M  V30 8396 C 844.162 -1.63511 -3.05721 0
M  V30 8397 C 843.223 -2.86648 -3.1958 0
M  V30 8398 C 842.456 -2.87609 -4.49574 0
M  V30 8399 O 842.679 -1.97799 -5.35006 0
M  V30 8400 O 841.613 -3.79465 -4.67215 0
M  V30 8401 H 845.439 -2.58487 -1.59431 0
M  V30 8402 H 843.024 -1.30485 -0.7276 0
M  V30 8403 H 844.906 -1.66863 -3.86956 0
M  V30 8404 H 843.581 -0.706812 -3.15889 0
M  V30 8405 H 842.488 -2.8884 -2.37744 0
M  V30 8406 H 843.821 -3.7877 -3.14316 0
M  V30 8407 N 845.473 0.80434 -1.35529 0
M  V30 8408 C 846.698 1.598 -1.32207 0
M  V30 8409 C 847.123 1.87848 0.0974226 0
M  V30 8410 O 846.481 1.46728 1.06492 0
M  V30 8411 C 846.529 2.90483 -2.13663 0
M  V30 8412 O 845.633 3.83411 -1.51888 0
M  V30 8413 H 844.974 0.485305 -0.453183 0
M  V30 8414 H 847.504 0.998119 -1.78602 0
M  V30 8415 H 847.514 3.39888 -2.257 0
M  V30 8416 H 846.189 2.69395 -3.16859 0
M  V30 8417 H 844.766 3.41967 -1.48704 0
M  V30 8418 N 846.951 1.19563 1.02676 0
M  V30 8419 C 848.2 0.993864 1.75514 0
M  V30 8420 C 848.513 -0.475882 1.89723 0
M  V30 8421 O 849.719 -0.796525 2.59553 0
M  V30 8422 C 848.175 1.72937 3.15628 0
M  V30 8423 C 847.783 3.23937 3.09466 0
M  V30 8424 C 849.527 1.61092 3.92746 0
M  V30 8425 C 847.434 3.90067 4.44524 0
M  V30 8426 H 846.364 0.368244 0.657961 0
M  V30 8427 H 849.015 1.43081 1.14891 0
M  V30 8428 H 847.397 1.22025 3.76731 0
M  V30 8429 H 848.571 3.81983 2.57731 0
M  V30 8430 H 846.886 3.3608 2.45843 0
M  V30 8431 H 849.483 2.07848 4.92649 0
M  V30 8432 H 849.826 0.565415 4.12442 0
M  V30 8433 H 850.359 2.09361 3.3825 0
M  V30 8434 H 847.098 4.94725 4.30032 0
M  V30 8435 H 846.618 3.36809 4.96306 0
M  V30 8436 H 848.297 3.93736 5.13401 0
M  V30 8437 N 848.429 -1.21819 0.999893 0
M  V30 8438 C 849.677 -1.90375 0.678351 0
M  V30 8439 C 849.998 -1.78155 -0.792824 0
M  V30 8440 O 849.268 -1.17319 -1.56885 0
M  V30 8441 H 847.848 -0.704661 0.247915 0
M  V30 8442 H 850.51 -1.48021 1.2679 0
M  V30 8443 H 849.606 -2.97385 0.947023 0
M  V30 8444 N 849.908 -0.773975 -1.37286 0
M  V30 8445 C 850.841 -0.108019 -2.27944 0
M  V30 8446 C 851.819 0.706737 -1.46438 0
M  V30 8447 O 853.003 0.681025 -1.75768 0
M  V30 8448 C 850.13 0.853199 -3.27778 0
M  V30 8449 C 849.176 0.122164 -4.26325 0
M  V30 8450 S 850.009 -1.19136 -5.22079 0
M  V30 8451 C 851.165 -0.233737 -6.25463 0
M  V30 8452 H 851.398 -0.876743 -2.84078 0
M  V30 8453 H 848.931 -0.567468 -1.43594 0
M  V30 8454 H 850.889 1.40238 -3.85803 0
M  V30 8455 H 849.55 1.59505 -2.70586 0
M  V30 8456 H 848.743 0.850926 -4.96765 0
M  V30 8457 H 848.345 -0.356079 -3.72301 0
M  V30 8458 H 850.637 0.59305 -6.74899 0
M  V30 8459 H 851.58 -0.906373 -7.02275 0
M  V30 8460 H 851.988 0.156048 -5.64284 0
M  V30 8461 N 851.386 1.48609 -0.524698 0
M  V30 8462 C 852.349 2.28041 0.230166 0
M  V30 8463 C 853.349 1.35065 0.872584 0
M  V30 8464 O 854.539 1.58007 0.73345 0
M  V30 8465 C 851.671 3.13778 1.33252 0
M  V30 8466 H 852.864 2.96239 -0.467161 0
M  V30 8467 H 850.417 1.53763 -0.280452 0
M  V30 8468 H 851.152 2.502 2.06327 0
M  V30 8469 H 850.937 3.82165 0.877058 0
M  V30 8470 H 852.427 3.7371 1.86362 0
M  V30 8471 N 852.864 0.259585 1.55447 0
M  V30 8472 C 853.827 -0.621359 2.20617 0
M  V30 8473 C 854.827 -1.09317 1.17925 0
M  V30 8474 O 856.017 -0.995842 1.42929 0
M  V30 8475 C 853.149 -1.85546 2.85982 0
M  V30 8476 H 854.342 -0.0525833 2.99854 0
M  V30 8477 H 851.895 0.0101055 1.56297 0
M  V30 8478 H 852.63 -2.46515 2.10715 0
M  V30 8479 H 852.415 -1.52523 3.61219 0
M  V30 8480 H 853.905 -2.48227 3.35817 0
M  V30 8481 N 854.342 -1.57594 -0.0133615 0
M  V30 8482 C 855.252 -2.10991 -1.02566 0
M  V30 8483 C 856.268 -1.05208 -1.3859 0
M  V30 8484 O 857.444 -1.37034 -1.47593 0
M  V30 8485 C 854.509 -2.59165 -2.30292 0
M  V30 8486 C 853.57 -3.79495 -2.00704 0
M  V30 8487 C 852.803 -4.25361 -3.22341 0
M  V30 8488 O 853.026 -3.70645 -4.33565 0
M  V30 8489 O 851.96 -5.17649 -3.07121 0
M  V30 8490 H 855.786 -2.97678 -0.601806 0
M  V30 8491 H 853.371 -1.47598 -0.23135 0
M  V30 8492 H 855.253 -2.90409 -3.05354 0
M  V30 8493 H 853.928 -1.75582 -2.71942 0
M  V30 8494 H 852.835 -3.53245 -1.23161 0
M  V30 8495 H 854.168 -4.64109 -1.639 0
M  V30 8496 N 855.82 0.285905 -1.54985 0
M  V30 8497 C 857.066 1.02071 -1.75241 0
M  V30 8498 C 857.399 1.864 -0.544842 0
M  V30 8499 O 856.674 1.89034 0.457844 0
M  V30 8500 C 856.957 1.91409 -3.05016 0
M  V30 8501 C 856.81 1.10158 -4.36102 0
M  V30 8502 C 858.129 2.90335 -3.30747 0
M  V30 8503 H 855.248 0.369663 -0.637588 0
M  V30 8504 H 857.89 0.294114 -1.8771 0
M  V30 8505 H 856.04 2.53362 -2.94517 0
M  V30 8506 H 857.712 0.503756 -4.58541 0
M  V30 8507 H 855.955 0.404675 -4.31908 0
M  V30 8508 H 856.626 1.75956 -5.23205 0
M  V30 8509 H 859.102 2.38514 -3.40955 0
M  V30 8510 H 857.978 3.49997 -4.2284 0
M  V30 8511 H 858.239 3.64787 -2.49765 0
M  V30 8512 N 857.298 1.47698 0.54982 0
M  V30 8513 C 858.261 1.60282 1.63837 0
M  V30 8514 C 859.261 0.477394 1.5355 0
M  V30 8515 O 860.451 0.742665 1.57576 0
M  V30 8516 C 857.583 1.55431 3.03404 0
M  V30 8517 H 858.776 2.57325 1.54026 0
M  V30 8518 H 856.329 1.35999 0.770329 0
M  V30 8519 H 857.064 0.597912 3.1874 0
M  V30 8520 H 856.849 2.37116 3.12279 0
M  V30 8521 H 858.339 1.6739 3.82584 0
M  V30 8522 N 858.776 -0.797141 1.35954 0
M  V30 8523 C 859.706 -1.92387 1.32323 0
M  V30 8524 C 860.687 -1.68967 0.196007 0
M  V30 8525 O 861.872 -1.90193 0.39245 0
M  V30 8526 C 859.002 -3.29286 1.10398 0
M  V30 8527 C 857.956 -3.67212 2.19862 0
M  V30 8528 C 857.282 -5.02377 1.8309 0
M  V30 8529 C 858.582 -3.76602 3.61896 0
M  V30 8530 H 860.276 -1.95683 2.26602 0
M  V30 8531 H 857.822 -0.94007 1.09081 0
M  V30 8532 H 859.775 -4.07721 1.06495 0
M  V30 8533 H 858.499 -3.26358 0.125668 0
M  V30 8534 H 857.158 -2.91069 2.22878 0
M  V30 8535 H 856.806 -4.95961 0.838527 0
M  V30 8536 H 856.506 -5.28722 2.56372 0
M  V30 8537 H 858.03 -5.8324 1.80729 0
M  V30 8538 H 859.444 -4.45246 3.6115 0
M  V30 8539 H 857.841 -4.14425 4.34018 0
M  V30 8540 H 858.911 -2.77906 3.97361 0
M  V30 8541 N 860.254 -1.20106 -1.0204 0
M  V30 8542 C 861.502 -1.0069 -1.75231 0
M  V30 8543 C 861.823 0.462491 -1.89436 0
M  V30 8544 O 861.093 1.33455 -1.4341 0
M  V30 8545 H 859.673 -0.369576 -0.649171 0
M  V30 8546 H 862.335 -1.51149 -1.23044 0
M  V30 8547 H 861.431 -1.46205 -2.75736 0
M  V30 8548 N 861.732 1.21287 -1.00634 0
M  V30 8549 C 862.96 1.94385 -0.708678 0
M  V30 8550 C 863.375 1.7416 0.728957 0
M  V30 8551 O 862.732 1.04906 1.49335 0
M  V30 8552 C 862.783 3.46755 -1.02193 0
M  V30 8553 O 862.504 3.6631 -2.40309 0
M  V30 8554 C 864.005 4.37014 -0.743867 0
M  V30 8555 H 861.225 0.618136 -0.261052 0
M  V30 8556 H 863.769 1.54067 -1.34475 0
M  V30 8557 H 861.924 3.8499 -0.431441 0
M  V30 8558 H 862.338 4.60393 -2.51274 0
M  V30 8559 H 863.812 5.42621 -1.01321 0
M  V30 8560 H 864.289 4.38017 0.322084 0
M  V30 8561 H 864.895 4.04426 -1.31603 0
M  V30 8562 N 863.21 0.781244 1.36873 0
M  V30 8563 C 864.45 0.355185 2.0129 0
M  V30 8564 C 864.814 -1.05115 1.6067 0
M  V30 8565 O 866.015 -1.57785 2.17618 0
M  V30 8566 C 864.286 0.504587 3.5382 0
M  V30 8567 S 865.845 0.165196 4.38489 0
M  V30 8568 H 862.663 0.136133 0.697846 0
M  V30 8569 H 865.265 1.01794 1.66908 0
M  V30 8570 H 863.969 1.52857 3.80871 0
M  V30 8571 H 863.5 -0.174392 3.93013 0
M  V30 8572 H 865.515 -1.03605 4.85263 0
M  V30 8573 N 864.689 -1.48329 0.532571 0
M  V30 8574 C 865.917 -2.069 0.00354299 0
M  V30 8575 C 866.332 -1.38876 -1.27902 0
M  V30 8576 O 865.689 -0.477119 -1.76153 0
M  V30 8577 C 865.74 -3.60821 -0.221416 0
M  V30 8578 O 865.461 -4.26291 1.01034 0
M  V30 8579 C 866.962 -4.36194 -0.790531 0
M  V30 8580 H 864.182 -0.670103 0.0346836 0
M  V30 8581 H 866.726 -1.90682 0.738955 0
M  V30 8582 H 864.881 -3.76636 -0.906884 0
M  V30 8583 H 865.295 -5.18475 0.792683 0
M  V30 8584 H 866.769 -5.44657 -0.897347 0
M  V30 8585 H 867.246 -4.00798 -1.79605 0
M  V30 8586 H 867.852 -4.25064 -0.141546 0
M  V30 8587 N 866.167 -0.267825 -1.55308 0
M  V30 8588 C 867.444 0.402449 -1.91415 0
M  V30 8589 C 867.824 1.7428 -1.1912 0
M  V30 8590 O 867.172 2.2631 -0.315609 0
M  V30 8591 C 867.382 0.549926 -3.4464 0
M  V30 8592 C 868.73 0.836188 -4.16285 0
M  V30 8593 O 869.754 0.635009 -3.50494 0
M  V30 8594 O 868.613 1.22051 -5.32697 0
M  V30 8595 H 865.707 0.219177 -0.797427 0
M  V30 8596 H 868.253 -0.313439 -1.6678 0
M  V30 8597 H 867.025 -0.393641 -3.89315 0
M  V30 8598 H 866.648 1.31556 -3.75205 0
M  V30 8599 N 867.645 1.57599 0.00500368 0
M  V30 8600 C 868.575 2.11143 0.99705 0
M  V30 8601 C 869.556 1.0194 1.3617 0
M  V30 8602 O 870.741 1.29596 1.44632 0
M  V30 8603 C 867.871 2.61062 2.2905 0
M  V30 8604 C 866.825 3.74745 2.0676 0
M  V30 8605 C 866.151 4.10961 3.42075 0
M  V30 8606 C 867.451 5.02222 1.43424 0
M  V30 8607 H 869.145 2.94281 0.551251 0
M  V30 8608 H 866.691 1.41565 0.263715 0
M  V30 8609 H 868.644 2.97146 2.98801 0
M  V30 8610 H 867.368 1.75038 2.75734 0
M  V30 8611 H 866.027 3.39047 1.39436 0
M  V30 8612 H 865.675 3.21968 3.86453 0
M  V30 8613 H 865.375 4.87549 3.27979 0
M  V30 8614 H 866.899 4.49599 4.1315 0
M  V30 8615 H 868.313 5.36109 2.03125 0
M  V30 8616 H 866.71 5.83581 1.39831 0
M  V30 8617 H 867.78 4.83224 0.40285 0
M  V30 8618 N 869.123 -0.277682 1.55134 0
M  V30 8619 C 870.534 -0.849063 1.66276 0
M  V30 8620 C 870.885 -1.87223 0.5867 0
M  V30 8621 O 870.01 -2.14676 -0.272635 0
M  V30 8622 C 870.605 -1.54681 3.01429 0
M  V30 8623 C 869.164 -2.06628 3.14614 0
M  V30 8624 C 868.311 -0.906748 2.62056 0
M  V30 8625 H 871.262 -0.0541357 1.58608 0
M  V30 8626 H 871.283 -2.41356 2.94156 0
M  V30 8627 H 870.795 -0.80189 3.79725 0
M  V30 8628 H 868.896 -2.84095 2.41082 0
M  V30 8629 H 869.009 -2.2848 4.2111 0
M  V30 8630 H 867.373 -1.29882 2.19095 0
M  V30 8631 H 868.156 -0.175414 3.42852 0
M  V30 8632 N 870.601 -1.47988 -0.541979 0
M  V30 8633 C 872.012 -1.49073 -1.12402 0
M  V30 8634 C 872.363 -0.253825 -1.94551 0
M  V30 8635 O 871.488 0.640056 -2.06718 0
M  V30 8636 C 872.083 -2.7011 -2.04514 0
M  V30 8637 C 870.642 -2.74105 -2.5796 0
M  V30 8638 C 869.789 -2.42409 -1.3466 0
M  V30 8639 H 872.74 -1.55277 -0.327818 0
M  V30 8640 H 872.761 -2.47946 -2.88623 0
M  V30 8641 H 872.273 -3.60117 -1.44697 0
M  V30 8642 H 870.374 -1.88276 -3.21532 0
M  V30 8643 H 870.487 -3.75213 -2.97913 0
M  V30 8644 H 868.851 -1.9331 -1.65841 0
M  V30 8645 H 869.634 -3.34642 -0.766133 0
M  V30 8646 N 872.079 0.78992 -1.36375 0
M  V30 8647 C 873.011 1.91113 -1.26524 0
M  V30 8648 C 874.024 1.61747 -0.184851 0
M  V30 8649 O 875.213 1.73004 -0.439524 0
M  V30 8650 C 872.313 3.25908 -0.92937 0
M  V30 8651 C 871.486 3.83057 -2.11154 0
M  V30 8652 C 870.545 4.96289 -1.74881 0
M  V30 8653 O 869.571 5.12834 -2.46962 0
M  V30 8654 N 870.773 5.76478 -0.682193 0
M  V30 8655 H 873.538 2.00085 -2.23128 0
M  V30 8656 H 871.099 0.968165 -1.29762 0
M  V30 8657 H 873.091 3.99151 -0.667884 0
M  V30 8658 H 871.661 3.12556 -0.0524843 0
M  V30 8659 H 870.881 3.01808 -2.53586 0
M  V30 8660 H 872.169 4.1797 -2.90135 0
M  V30 8661 H 871.567 5.65638 -0.0836661 0
M  V30 8662 H 870.124 6.50026 -0.480529 0
M  V30 8663 N 873.557 1.20646 1.01402 0
M  V30 8664 C 874.504 0.957618 2.09996 0
M  V30 8665 C 875.474 -0.113115 1.65714 0
M  V30 8666 O 876.659 0.032142 1.90773 0
M  V30 8667 C 873.799 0.5186 3.41181 0
M  V30 8668 C 872.912 1.65777 3.98926 0
M  V30 8669 C 872.047 1.16881 5.18182 0
M  V30 8670 C 871.086 2.2809 5.68015 0
M  V30 8671 N 870.223 1.80392 6.7853 0
M  V30 8672 H 875.063 1.88732 2.30617 0
M  V30 8673 H 872.6 0.940703 1.13089 0
M  V30 8674 H 874.558 0.245367 4.16478 0
M  V30 8675 H 873.188 -0.3741 3.20625 0
M  V30 8676 H 872.24 2.04586 3.207 0
M  V30 8677 H 873.552 2.49507 4.31912 0
M  V30 8678 H 872.706 0.851694 6.00692 0
M  V30 8679 H 871.445 0.301434 4.86768 0
M  V30 8680 H 870.45 2.60614 4.84108 0
M  V30 8681 H 871.675 3.15308 6.01463 0
M  V30 8682 H 869.621 0.959856 6.4894 0
M  V30 8683 H 869.538 2.57701 7.10722 0
M  V30 8684 H 870.806 1.51688 7.64598 0
M  V30 8685 N 875.035 -1.20752 1.01276 0
M  V30 8686 C 875.982 -2.234 0.579732 0
M  V30 8687 C 876.952 -1.61256 -0.398206 0
M  V30 8688 O 878.137 -1.8845 -0.29851 0
M  V30 8689 C 875.277 -3.45008 -0.0797006 0
M  V30 8690 C 874.39 -4.21597 0.942343 0
M  V30 8691 C 873.525 -5.30591 0.254364 0
M  V30 8692 C 872.564 -5.98919 1.26343 0
M  V30 8693 N 871.701 -6.99511 0.602384 0
M  V30 8694 H 876.541 -2.59801 1.45971 0
M  V30 8695 H 874.078 -1.27663 0.730787 0
M  V30 8696 H 876.036 -4.1444 -0.479125 0
M  V30 8697 H 874.666 -3.09312 -0.923354 0
M  V30 8698 H 873.718 -3.51268 1.45996 0
M  V30 8699 H 875.03 -4.68576 1.70992 0
M  V30 8700 H 874.184 -6.06368 -0.200763 0
M  V30 8701 H 872.923 -4.84639 -0.545553 0
M  V30 8702 H 871.928 -5.21906 1.72898 0
M  V30 8703 H 873.153 -6.46957 2.06456 0
M  V30 8704 H 871.099 -6.55759 -0.177734 0
M  V30 8705 H 871.016 -7.44597 1.30809 0
M  V30 8706 H 872.284 -7.79313 0.17072 0
M  V30 8707 N 876.513 -0.788492 -1.36457 0
M  V30 8708 C 877.46 -0.18435 -2.30063 0
M  V30 8709 C 878.43 0.67128 -1.51931 0
M  V30 8710 O 879.615 0.620152 -1.8044 0
M  V30 8711 C 876.755 0.675596 -3.38422 0
M  V30 8712 C 875.868 -0.198475 -4.31544 0
M  V30 8713 C 875.003 0.667757 -5.26986 0
M  V30 8714 C 874.042 -0.207825 -6.11747 0
M  V30 8715 N 873.179 0.617335 -6.99381 0
M  V30 8716 H 878.019 -0.988056 -2.81143 0
M  V30 8717 H 875.556 -0.498815 -1.38384 0
M  V30 8718 H 877.514 1.18916 -3.99894 0
M  V30 8719 H 876.144 1.44474 -2.88664 0
M  V30 8720 H 875.196 -0.829995 -3.71235 0
M  V30 8721 H 876.508 -0.873163 -4.91098 0
M  V30 8722 H 875.662 1.24716 -5.93743 0
M  V30 8723 H 874.401 1.37607 -4.67884 0
M  V30 8724 H 873.406 -0.799638 -5.43954 0
M  V30 8725 H 874.631 -0.913729 -6.72925 0
M  V30 8726 H 872.577 1.30996 -6.42788 0
M  V30 8727 H 872.494 0.000307255 -7.56 0
M  V30 8728 H 873.762 1.1806 -7.70508 0
M  V30 8729 O 878.03 1.46408 -0.681684 0
M  V30 8730 H 878.721 1.92492 -0.21602 0
M  V30 END ATOM
M  V30 BEGIN BOND
M  V30 END BOND
M  V30 END CTAB
M  END
$$$$
