drugbank_target|Q51366 GDP-mannose 4,6-dehydratase (DB04315)
 OpenBabel12092120293D

  0  0  0     0  0            999 V3000
M  V30 BEGIN CTAB
M  V30 COUNTS 5101 5154 0 0 0
M  V30 BEGIN ATOM
M  V30 1 H -0.908 1.98254 -0.117106 0
M  V30 2 N 0 1.576 0 0
M  V30 3 C 0.933 2.03868 1.02534 0
M  V30 4 C 1.911 0.928543 1.3348 0
M  V30 5 O 3.095 1.19667 1.45644 0
M  V30 6 C 0.222 2.43627 2.35294 0
M  V30 7 C -0.732 3.65373 2.2001 0
M  V30 8 S 0.101 5.13292 1.52614 0
M  V30 9 C 1.257 5.56322 2.86805 0
M  V30 10 H 1.49 2.90518 0.631377 0
M  V30 11 H -0.977 1.52953 0.210867 0
M  V30 12 H 0.981 2.67203 3.11629 0
M  V30 13 H -0.358 1.57376 2.7183 0
M  V30 14 H -1.165 3.90944 3.18086 0
M  V30 15 H -1.563 3.418 1.51819 0
M  V30 16 H 0.729 5.58782 3.83104 0
M  V30 17 H 1.672 6.56266 2.65933 0
M  V30 18 H 2.08 4.83886 2.90714 0
M  V30 19 N 1.4781 -0.272755 1.55222 0
M  V30 20 C 2.7061 -1.02255 1.79865 0
M  V30 21 C 3.1211 -1.79924 0.572088 0
M  V30 22 O 2.4781 -1.76638 -0.458842 0
M  V30 23 C 2.5291 -1.98094 3.02392 0
M  V30 24 O 2.2501 -1.23572 4.20311 0
M  V30 25 C 3.7511 -2.84884 3.39641 0
M  V30 26 H 0.9711 -0.302057 0.599168 0
M  V30 27 H 3.5151 -0.303465 2.02236 0
M  V30 28 H 1.6701 -2.65465 2.82147 0
M  V30 29 H 2.0841 -1.88172 4.89583 0
M  V30 30 H 3.5581 -3.47927 4.28545 0
M  V30 31 H 4.0351 -3.54665 2.59055 0
M  V30 32 H 4.6411 -2.23003 3.62146 0
M  V30 33 N 2.9562 -1.48159 -0.537278 0
M  V30 34 C 4.3722 -1.34118 -0.865129 0
M  V30 35 C 4.5722 -0.346678 -1.98495 0
M  V30 36 O 3.6282 0.234715 -2.51407 0
M  V30 37 C 4.9412 -2.73963 -1.23954 0
M  V30 38 C 6.4892 -2.82397 -1.34984 0
M  V30 39 C 6.9642 -4.22928 -1.75772 0
M  V30 40 N 8.4552 -4.25566 -1.82887 0
M  V30 41 C 9.1902 -5.31235 -2.15817 0
M  V30 42 N 8.6862 -6.47189 -2.47222 0
M  V30 43 N 10.4792 -5.18624 -2.16761 0
M  V30 44 H 2.6302 -2.1144 0.201715 0
M  V30 45 H 4.8932 -0.947598 0.0275949 0
M  V30 46 H 4.5992 -3.48264 -0.490381 0
M  V30 47 H 4.4732 -3.0702 -2.19132 0
M  V30 48 H 6.8602 -2.08356 -2.08978 0
M  V30 49 H 6.9412 -2.5297 -0.379448 0
M  V30 50 H 6.5852 -4.97482 -1.02341 0
M  V30 51 H 6.5152 -4.49794 -2.73848 0
M  V30 52 H 9.0062 -3.41924 -1.60924 0
M  V30 53 H 9.3192 -7.23564 -2.71433 0
M  V30 54 H 7.6642 -6.50476 -2.44757 0
M  V30 55 H 10.8552 -4.27056 -1.91679 0
M  V30 56 H 11.0282 -6.01078 -2.42093 0
M  V30 57 N 4.4343 0.785586 -1.36625 0
M  V30 58 C 5.6593 1.57963 -1.34397 0
M  V30 59 C 6.0843 1.87964 0.071526 0
M  V30 60 O 5.4423 1.48182 1.0446 0
M  V30 61 C 5.4903 2.87511 -2.17646 0
M  V30 62 O 4.5943 3.81281 -1.57158 0
M  V30 63 H 3.9353 0.479014 -0.459828 0
M  V30 64 H 6.4653 0.973411 -1.79961 0
M  V30 65 H 6.4753 3.36745 -2.30362 0
M  V30 66 H 5.1503 2.65002 -3.20541 0
M  V30 67 H 3.7273 3.39885 -1.53403 0
M  V30 68 N 5.9124 1.20967 1.01018 0
M  V30 69 C 6.8754 0.965918 2.07853 0
M  V30 70 C 7.8754 -0.0610545 1.60684 0
M  V30 71 O 9.0654 0.175681 1.73312 0
M  V30 72 C 6.1974 0.455513 3.37843 0
M  V30 73 H 7.3904 1.91365 2.3091 0
M  V30 74 H 4.9434 1.02594 1.17916 0
M  V30 75 H 5.6784 -0.497381 3.20463 0
M  V30 76 H 5.4634 1.19622 3.73407 0
M  V30 77 H 6.9534 0.304667 4.16487 0
M  V30 78 N 7.3905 -1.2043 1.01659 0
M  V30 79 C 8.3205 -2.25466 0.607226 0
M  V30 80 C 9.3015 -1.65853 -0.377716 0
M  V30 81 O 10.4865 -1.92409 -0.263149 0
M  V30 82 C 7.6165 -3.47256 -0.0552949 0
M  V30 83 C 6.5705 -4.19462 0.850632 0
M  V30 84 C 5.8965 -5.34673 0.0538859 0
M  V30 85 C 7.1965 -4.75603 2.15868 0
M  V30 86 H 8.8905 -2.59962 1.48526 0
M  V30 87 H 6.4365 -1.2496 0.715605 0
M  V30 88 H 8.3895 -4.19917 -0.353233 0
M  V30 89 H 7.1135 -3.11924 -0.968045 0
M  V30 90 H 5.7725 -3.48667 1.13257 0
M  V30 91 H 5.4205 -4.95585 -0.860514 0
M  V30 92 H 5.1205 -5.83913 0.657192 0
M  V30 93 H 6.6445 -6.10138 -0.237598 0
M  V30 94 H 8.0585 -5.40083 1.92311 0
M  V30 95 H 6.4555 -5.3528 2.71284 0
M  V30 96 H 7.5255 -3.94346 2.82169 0
M  V30 97 N 8.8686 -0.792821 -1.36206 0
M  V30 98 C 10.1146 -0.36733 -1.99446 0
M  V30 99 C 10.4476 1.05917 -1.62774 0
M  V30 100 O 9.7226 1.7324 -0.88421 0
M  V30 101 C 10.0056 -0.535044 -3.56103 0
M  V30 102 C 9.8586 -2.00548 -4.02617 0
M  V30 103 C 11.1776 0.0478191 -4.40074 0
M  V30 104 H 8.2966 -0.134941 -0.724541 0
M  V30 105 H 10.9386 -0.999794 -1.61568 0
M  V30 106 H 9.0886 0.00336329 -3.885 0
M  V30 107 H 10.7606 -2.60521 -3.80692 0
M  V30 108 H 9.0036 -2.50686 -3.54032 0
M  V30 109 H 9.6746 -2.07377 -5.11565 0
M  V30 110 H 12.1506 -0.411822 -4.14057 0
M  V30 111 H 11.0266 -0.0995336 -5.4881 0
M  V30 112 H 11.2876 1.14025 -4.27142 0
M  V30 113 N 10.3467 1.47872 -0.545128 0
M  V30 114 C 11.5747 2.06889 -0.021084 0
M  V30 115 C 11.9897 1.39955 1.2672 0
M  V30 116 O 11.3467 0.492036 1.75742 0
M  V30 117 C 11.3977 3.60996 0.190817 0
M  V30 118 O 11.1187 4.25419 -1.04644 0
M  V30 119 C 12.6197 4.36849 0.753521 0
M  V30 120 H 9.8397 0.669785 -0.0403635 0
M  V30 121 H 12.3837 1.90049 -0.755095 0
M  V30 122 H 10.5387 3.77391 0.87492 0
M  V30 123 H 10.9527 5.17785 -0.836611 0
M  V30 124 H 12.4267 5.45399 0.851139 0
M  V30 125 H 12.9037 4.02306 1.762 0
M  V30 126 H 13.5097 4.25169 0.105503 0
M  V30 127 N 11.8248 0.280983 1.55075 0
M  V30 128 C 13.0728 -0.333455 1.9933 0
M  V30 129 C 13.3938 -1.55937 1.17085 0
M  V30 130 O 12.6638 -1.94143 0.261805 0
M  V30 131 H 11.2438 -0.126197 0.736263 0
M  V30 132 H 13.9058 0.387678 1.91005 0
M  V30 133 H 13.0018 -0.619292 3.05894 0
M  V30 134 N 13.3029 -1.57598 0.00835791 0
M  V30 135 C 14.5519 -1.90107 -0.673968 0
M  V30 136 C 14.8649 -0.884275 -1.7447 0
M  V30 137 O 16.0709 -1.09987 -2.48224 0
M  V30 138 C 14.5269 -3.37497 -1.24995 0
M  V30 139 C 14.1349 -4.47491 -0.2136 0
M  V30 140 C 15.8789 -3.79104 -1.90999 0
M  V30 141 C 13.7859 -5.85963 -0.80005 0
M  V30 142 H 12.7159 -0.709393 -0.255495 0
M  V30 143 H 15.3669 -1.83365 0.0702693 0
M  V30 144 H 13.7489 -3.39102 -2.04513 0
M  V30 145 H 14.9229 -4.57414 0.557596 0
M  V30 146 H 13.2379 -4.14956 0.346474 0
M  V30 147 H 15.8349 -4.79901 -2.35795 0
M  V30 148 H 16.1779 -3.1306 -2.74407 0
M  V30 149 H 16.7109 -3.79833 -1.18203 0
M  V30 150 H 13.4499 -6.555 -0.00456708 0
M  V30 151 H 12.9699 -5.79687 -1.54021 0
M  V30 152 H 14.6489 -6.33884 -1.29615 0
M  V30 153 N 14.781 0.264519 -1.55364 0
M  V30 154 C 16.009 1.013 -1.80405 0
M  V30 155 C 16.424 1.79618 -0.581622 0
M  V30 156 O 15.781 1.76879 0.449468 0
M  V30 157 C 15.832 1.96487 -3.03439 0
M  V30 158 O 15.553 1.21341 -4.20961 0
M  V30 159 C 17.054 2.83079 -3.41147 0
M  V30 160 H 14.274 0.298875 -0.600762 0
M  V30 161 H 16.818 0.292736 -2.02394 0
M  V30 162 H 14.973 2.63965 -2.83551 0
M  V30 163 H 15.387 1.85573 -4.90574 0
M  V30 164 H 16.861 3.4565 -4.30384 0
M  V30 165 H 17.338 3.53286 -2.60932 0
M  V30 166 H 17.944 2.2108 -3.63323 0
M  V30 167 N 16.2591 1.48442 0.529413 0
M  V30 168 C 17.5071 1.56179 1.28267 0
M  V30 169 C 17.8281 0.237721 1.93546 0
M  V30 170 O 17.0981 -0.740779 1.81354 0
M  V30 171 H 15.6781 0.575367 0.476405 0
M  V30 172 H 18.3401 1.84909 0.61602 0
M  V30 173 H 17.4361 2.34312 2.06165 0
M  V30 174 N 17.7372 -0.778329 1.37039 0
M  V30 175 C 18.6692 -1.90034 1.2814 0
M  V30 176 C 19.6822 -1.61585 0.198558 0
M  V30 177 O 20.8712 -1.72625 0.454175 0
M  V30 178 C 17.9712 -3.25108 0.956968 0
M  V30 179 C 17.1442 -3.81253 2.14394 0
M  V30 180 C 16.2032 -4.94789 1.79082 0
M  V30 181 O 15.2292 -5.10721 2.51301 0
M  V30 182 N 16.4312 -5.75878 0.731043 0
M  V30 183 H 19.1962 -1.98186 2.24816 0
M  V30 184 H 16.7572 -0.957129 1.30578 0
M  V30 185 H 18.7492 -3.9857 0.701701 0
M  V30 186 H 17.3192 -3.125 0.0789812 0
M  V30 187 H 16.5392 -2.99647 2.56135 0
M  V30 188 H 17.8272 -4.15495 2.93668 0
M  V30 189 H 17.2252 -5.65547 0.131618 0
M  V30 190 H 15.7822 -6.49596 0.535622 0
M  V30 191 N 19.2153 -1.21501 -1.00376 0
M  V30 192 C 20.4923 -0.941745 -1.71437 0
M  V30 193 C 20.8723 0.546114 -2.03914 0
M  V30 194 O 20.2203 1.51128 -1.71384 0
M  V30 195 C 20.4303 -1.82812 -2.97289 0
M  V30 196 C 21.7783 -2.07771 -3.70292 0
M  V30 197 O 22.8023 -1.80171 -3.07273 0
M  V30 198 O 21.6613 -2.54456 -4.83647 0
M  V30 199 H 18.7553 -0.353243 -0.747762 0
M  V30 200 H 21.3013 -1.32436 -1.06108 0
M  V30 201 H 20.0733 -2.83501 -2.69709 0
M  V30 202 H 19.6963 -1.4464 -3.70358 0
M  V30 203 N 20.6934 1.19889 -1.02296 0
M  V30 204 C 21.9414 1.89046 -0.714558 0
M  V30 205 C 22.2624 1.79636 0.758681 0
M  V30 206 O 21.5324 1.20292 1.54618 0
M  V30 207 H 20.1124 0.699802 -0.261317 0
M  V30 208 H 22.7744 1.45574 -1.29592 0
M  V30 209 H 21.8704 2.95524 -1.0036 0
M  V30 210 N 22.1715 0.800033 1.35784 0
M  V30 211 C 23.1345 0.211565 2.28221 0
M  V30 212 C 24.1345 -0.59728 1.49296 0
M  V30 213 O 25.3245 -0.416721 1.69142 0
M  V30 214 C 22.4565 -0.705846 3.33513 0
M  V30 215 H 23.6495 1.02677 2.81776 0
M  V30 216 H 21.2025 0.570211 1.45528 0
M  V30 217 H 21.9375 -1.54498 2.85133 0
M  V30 218 H 21.7225 -0.127655 3.91892 0
M  V30 219 H 23.2125 -1.11211 4.02519 0
M  V30 220 N 23.6496 -1.47581 0.552962 0
M  V30 221 C 24.8796 -2.06575 0.0320091 0
M  V30 222 C 25.2876 -1.4067 -1.26525 0
M  V30 223 O 24.6306 -0.495808 -1.76883 0
M  V30 224 C 24.6926 -3.58705 -0.238913 0
M  V30 225 C 24.3566 -4.46625 0.968272 0
M  V30 226 C 25.3536 -4.85 1.87274 0
M  V30 227 C 23.0386 -4.88201 1.18175 0
M  V30 228 C 25.0326 -5.63745 2.9744 0
M  V30 229 C 22.7196 -5.66712 2.28651 0
M  V30 230 C 23.7176 -6.04394 3.18114 0
M  V30 231 O 23.4056 -6.81324 4.26676 0
M  V30 232 H 23.1376 -0.674763 0.0408689 0
M  V30 233 H 25.6916 -1.90634 0.764719 0
M  V30 234 H 23.9216 -3.72844 -1.02588 0
M  V30 235 H 25.6106 -3.99735 -0.704731 0
M  V30 236 H 26.3766 -4.53482 1.71984 0
M  V30 237 H 22.2556 -4.58339 0.494593 0
M  V30 238 H 25.7996 -5.93077 3.67296 0
M  V30 239 H 21.6966 -5.97642 2.43915 0
M  V30 240 H 22.4646 -6.99712 4.24671 0
M  V30 241 N 25.1277 -0.289203 -1.54924 0
M  V30 242 C 26.0577 0.58549 -2.2604 0
M  V30 243 C 27.0387 1.14753 -1.25562 0
M  V30 244 O 28.2237 1.17906 -1.54311 0
M  V30 245 C 25.3537 1.76305 -2.99222 0
M  V30 246 C 24.3077 1.33191 -4.06748 0
M  V30 247 C 23.6337 2.5937 -4.6758 0
M  V30 248 C 24.9337 0.471775 -5.20165 0
M  V30 249 H 26.6277 -0.00763532 -2.99399 0
M  V30 250 H 24.1737 -0.00511229 -1.43999 0
M  V30 251 H 26.1267 2.38097 -3.47689 0
M  V30 252 H 24.8507 2.38223 -2.23422 0
M  V30 253 H 23.5097 0.737121 -3.59113 0
M  V30 254 H 23.1577 3.19576 -3.88433 0
M  V30 255 H 22.8577 2.31228 -5.40192 0
M  V30 256 H 24.3817 3.21985 -5.18804 0
M  V30 257 H 25.7957 0.995056 -5.64599 0
M  V30 258 H 24.1927 0.284639 -5.99425 0
M  V30 259 H 25.2627 -0.506041 -4.82252 0
M  V30 260 N 26.6058 1.57591 -0.0167156 0
M  V30 261 C 27.5688 2.08393 0.954204 0
M  V30 262 C 28.5688 0.996531 1.26198 0
M  V30 263 O 29.7588 1.25858 1.20438 0
M  V30 264 C 26.8908 2.5394 2.27436 0
M  V30 265 H 28.0838 2.95455 0.514451 0
M  V30 266 H 25.6368 1.54582 0.231089 0
M  V30 267 H 26.3718 1.70171 2.76066 0
M  V30 268 H 26.1568 3.33371 2.06412 0
M  V30 269 H 27.6468 2.93512 2.97053 0
M  V30 270 N 28.0839 -0.256276 1.55502 0
M  V30 271 C 29.0309 -1.31714 1.89526 0
M  V30 272 C 30.0009 -1.4828 0.748479 0
M  V30 273 O 31.1859 -1.62416 1.00128 0
M  V30 274 C 28.3259 -2.66933 2.18725 0
M  V30 275 C 27.4389 -2.58452 3.4616 0
M  V30 276 C 26.5739 -3.85961 3.64976 0
M  V30 277 C 25.6129 -3.72059 4.86044 0
M  V30 278 N 24.7499 -4.9144 5.01429 0
M  V30 279 H 29.5899 -1.01998 2.80001 0
M  V30 280 H 27.1269 -0.492413 1.38613 0
M  V30 281 H 29.0849 -3.4563 2.33657 0
M  V30 282 H 27.7149 -2.94816 1.31466 0
M  V30 283 H 26.7669 -1.71374 3.3961 0
M  V30 284 H 28.0789 -2.44085 4.34999 0
M  V30 285 H 27.2329 -4.73101 3.79816 0
M  V30 286 H 25.9719 -4.03215 2.74353 0
M  V30 287 H 24.9769 -2.83302 4.7119 0
M  V30 288 H 26.2019 -3.56309 5.78118 0
M  V30 289 H 24.1479 -5.09072 4.13741 0
M  V30 290 H 24.0649 -4.79668 5.84341 0
M  V30 291 H 25.3329 -5.80104 5.20672 0
M  V30 292 N 29.562 -1.4872 -0.521534 0
M  V30 293 C 30.492 -1.66771 -1.63431 0
M  V30 294 C 31.473 -0.516499 -1.62069 0
M  V30 295 O 32.658 -0.750013 -1.79132 0
M  V30 296 C 29.788 -1.71515 -3.01993 0
M  V30 297 C 28.742 -2.86222 -3.18216 0
M  V30 298 C 28.068 -2.76061 -4.57924 0
M  V30 299 C 29.368 -4.27419 -3.00184 0
M  V30 300 H 31.062 -2.59932 -1.48579 0
M  V30 301 H 28.608 -1.25089 -0.713358 0
M  V30 302 H 30.561 -1.82731 -3.7972 0
M  V30 303 H 29.285 -0.749393 -3.17886 0
M  V30 304 H 27.944 -2.74575 -2.42908 0
M  V30 305 H 27.592 -1.77437 -4.70665 0
M  V30 306 H 27.292 -3.53037 -4.69722 0
M  V30 307 H 28.816 -2.89256 -5.37739 0
M  V30 308 H 30.23 -4.39855 -3.67697 0
M  V30 309 H 28.627 -5.05458 -3.2347 0
M  V30 310 H 29.697 -4.43293 -1.96518 0
M  V30 311 N 31.0401 0.771051 -1.3745 0
M  V30 312 C 31.9701 1.89827 -1.3597 0
M  V30 313 C 32.9511 1.68562 -0.228216 0
M  V30 314 O 34.1361 1.8941 -0.428675 0
M  V30 315 C 31.2661 3.2712 -1.16662 0
M  V30 316 C 30.2201 3.6295 -2.2683 0
M  V30 317 C 29.5461 4.98791 -1.92644 0
M  V30 318 C 30.8461 3.69627 -3.69017 0
M  V30 319 H 32.5401 1.91323 -2.30295 0
M  V30 320 H 30.0861 0.919082 -1.10855 0
M  V30 321 H 32.0391 4.05615 -1.14256 0
M  V30 322 H 30.7631 3.26059 -0.187926 0
M  V30 323 H 29.4221 2.86763 -2.28392 0
M  V30 324 H 29.0701 4.94271 -0.933021 0
M  V30 325 H 28.7701 5.23733 -2.66416 0
M  V30 326 H 30.2941 5.79685 -1.91826 0
M  V30 327 H 31.7081 4.38273 -3.69581 0
M  V30 328 H 30.1051 4.06067 -4.41848 0
M  V30 329 H 31.1751 2.70273 -4.02592 0
M  V30 330 N 32.5182 1.22032 0.997298 0
M  V30 331 C 33.4482 1.01065 2.10495 0
M  V30 332 C 34.4292 -0.0669542 1.69968 0
M  V30 333 O 35.6142 0.0943987 1.9397 0
M  V30 334 C 32.7442 0.582874 3.42374 0
M  V30 335 C 31.6982 1.60592 3.96729 0
M  V30 336 C 31.0242 1.03412 5.24605 0
M  V30 337 C 32.3242 2.99478 4.27914 0
M  V30 338 H 34.0182 1.93708 2.28292 0
M  V30 339 H 31.5642 0.932761 1.09707 0
M  V30 340 H 33.5172 0.423332 4.19268 0
M  V30 341 H 32.2412 -0.379213 3.24391 0
M  V30 342 H 30.9002 1.75316 3.21963 0
M  V30 343 H 30.5482 0.063518 5.0296 0
M  V30 344 H 30.2482 1.71754 5.61938 0
M  V30 345 H 31.7722 0.886066 6.04137 0
M  V30 346 H 33.1862 2.88153 4.95622 0
M  V30 347 H 31.5832 3.64903 4.76409 0
M  V30 348 H 32.6532 3.49742 3.3587 0
M  V30 349 N 33.9963 -1.19345 1.0293 0
M  V30 350 C 34.9063 -2.26245 0.620515 0
M  V30 351 C 35.9223 -1.70486 -0.347928 0
M  V30 352 O 37.0983 -2.00347 -0.205704 0
M  V30 353 C 34.1633 -3.46693 -0.0218957 0
M  V30 354 C 33.2243 -4.17632 0.994102 0
M  V30 355 C 32.4573 -5.32329 0.382253 0
M  V30 356 O 32.6803 -5.64552 -0.814676 0
M  V30 357 O 31.6143 -5.91664 1.10531 0
M  V30 358 H 35.4403 -2.63453 1.51083 0
M  V30 359 H 33.0253 -1.26207 0.799513 0
M  V30 360 H 34.9073 -4.19683 -0.380072 0
M  V30 361 H 33.5823 -3.11333 -0.886209 0
M  V30 362 H 32.4893 -3.4676 1.40387 0
M  V30 363 H 33.8223 -4.56964 1.8288 0
M  V30 364 N 35.4744 -0.807222 -1.35358 0
M  V30 365 C 36.4214 -0.216037 -2.29787 0
M  V30 366 C 37.3914 0.650278 -1.52842 0
M  V30 367 O 38.5764 0.595227 -1.81278 0
M  V30 368 C 35.7164 0.628893 -3.39321 0
M  V30 369 C 34.8294 -0.257927 -4.31229 0
M  V30 370 C 33.9644 0.595069 -5.27856 0
M  V30 371 C 33.0034 -0.292111 -6.11403 0
M  V30 372 N 32.1404 0.520895 -7.00165 0
M  V30 373 H 36.9804 -1.02671 -2.79755 0
M  V30 374 H 34.5174 -0.517839 -1.37684 0
M  V30 375 H 36.4754 1.13393 -4.01494 0
M  V30 376 H 35.1054 1.40482 -2.90628 0
M  V30 377 H 34.1574 -0.881076 -3.70056 0
M  V30 378 H 35.4694 -0.940759 -4.89848 0
M  V30 379 H 34.6234 1.16522 -5.95405 0
M  V30 380 H 33.3624 1.31146 -4.69736 0
M  V30 381 H 32.3674 -0.874525 -5.428 0
M  V30 382 H 33.5924 -1.00638 -6.71602 0
M  V30 383 H 31.5384 1.22125 -6.44532 0
M  V30 384 H 31.4554 -0.103877 -7.55929 0
M  V30 385 H 32.7234 1.0743 -7.72062 0
M  V30 386 N 36.9525 1.47285 -0.560781 0
M  V30 387 C 38.2005 2.02064 -0.0379868 0
M  V30 388 C 38.5215 1.43711 1.31803 0
M  V30 389 O 37.7915 0.61362 1.86042 0
M  V30 390 H 36.3715 0.746918 -0.0110531 0
M  V30 391 H 39.0335 1.80648 -0.731598 0
M  V30 392 H 38.1295 3.12064 0.0474463 0
M  V30 393 N 38.4306 0.297415 1.54768 0
M  V30 394 C 39.6606 -0.315165 2.04182 0
M  V30 395 C 40.0686 -1.4834 1.17439 0
M  V30 396 O 39.4116 -1.82695 0.191891 0
M  V30 397 C 39.4736 -0.837583 3.49607 0
M  V30 398 C 39.1376 0.204912 4.5654 0
M  V30 399 C 40.1346 1.03214 5.09552 0
M  V30 400 C 37.8196 0.345578 5.0111 0
M  V30 401 C 39.8136 1.986 6.05671 0
M  V30 402 C 37.5006 1.30289 5.97049 0
M  V30 403 C 38.4986 2.12159 6.49213 0
M  V30 404 O 38.1866 3.06268 7.43273 0
M  V30 405 H 37.9186 -0.0729646 0.672051 0
M  V30 406 H 40.4726 0.433907 2.00765 0
M  V30 407 H 38.7026 -1.63712 3.50336 0
M  V30 408 H 40.3916 -1.36566 3.82236 0
M  V30 409 H 41.1576 0.934312 4.75916 0
M  V30 410 H 37.0366 -0.28171 4.60138 0
M  V30 411 H 40.5806 2.62542 6.46311 0
M  V30 412 H 36.4776 1.40145 6.30103 0
M  V30 413 H 37.2456 3.01205 7.61064 0
M  V30 414 N 39.9087 -1.5758 0.0250728 0
M  V30 415 C 41.3247 -1.56124 -0.331282 0
M  V30 416 C 41.5247 -1.03029 -1.73169 0
M  V30 417 O 40.5807 -0.675215 -2.43305 0
M  V30 418 C 41.8937 -3.00139 -0.183584 0
M  V30 419 C 43.4417 -3.11946 -0.256654 0
M  V30 420 C 43.9167 -4.57793 -0.137792 0
M  V30 421 N 45.4077 -4.6279 -0.194904 0
M  V30 422 C 46.1427 -5.7326 -0.126655 0
M  V30 423 N 45.6387 -6.928 -0.00755288 0
M  V30 424 N 47.4317 -5.61811 -0.180348 0
M  V30 425 H 39.5827 -1.90424 0.94087 0
M  V30 426 H 41.8457 -0.875761 0.362968 0
M  V30 427 H 41.5517 -3.4292 0.780927 0
M  V30 428 H 41.4257 -3.64899 -0.955448 0
M  V30 429 H 43.8127 -2.69079 -1.21162 0
M  V30 430 H 43.8937 -2.49915 0.545517 0
M  V30 431 H 43.5377 -5.01339 0.813739 0
M  V30 432 H 43.4677 -5.17798 -0.958775 0
M  V30 433 H 45.9587 -3.76807 -0.287267 0
M  V30 434 H 46.2717 -7.72791 0.0379428 0
M  V30 435 H 44.6167 -6.94995 0.0271731 0
M  V30 436 H 47.8077 -4.6731 -0.271767 0
M  V30 437 H 47.9807 -6.47882 -0.123697 0
M  V30 438 N 41.3868 0.248026 -1.55636 0
M  V30 439 C 42.6328 0.97767 -1.77678 0
M  V30 440 C 42.9658 1.85016 -0.590135 0
M  V30 441 O 42.2408 1.90095 0.411611 0
M  V30 442 C 42.5238 1.83914 -3.09593 0
M  V30 443 C 42.3768 0.99491 -4.38659 0
M  V30 444 C 43.6958 2.82183 -3.37729 0
M  V30 445 H 40.8148 0.354005 -0.646413 0
M  V30 446 H 43.4568 0.248253 -1.88371 0
M  V30 447 H 41.6068 2.46104 -3.00608 0
M  V30 448 H 43.2788 0.391789 -4.59633 0
M  V30 449 H 41.5218 0.299231 -4.32767 0
M  V30 450 H 42.1928 1.63145 -5.2734 0
M  V30 451 H 44.6688 2.30129 -3.4667 0
M  V30 452 H 43.5448 3.39582 -4.31249 0
M  V30 453 H 43.8058 3.58588 -2.58586 0
M  V30 454 N 42.8649 1.48995 0.513639 0
M  V30 455 C 43.8149 1.61127 1.61314 0
M  V30 456 C 44.7989 0.467521 1.53958 0
M  V30 457 O 45.9909 0.719826 1.61702 0
M  V30 458 C 43.1199 1.66937 2.99978 0
M  V30 459 C 42.2059 2.86847 3.12377 0
M  V30 460 N 42.5969 4.11078 2.94701 0
M  V30 461 C 40.8949 2.84521 3.43459 0
M  V30 462 C 41.5959 4.91615 3.10949 0
M  V30 463 N 40.5719 4.24739 3.3926 0
M  V30 464 H 44.3739 2.54909 1.46282 0
M  V30 465 H 41.8879 1.45593 0.719483 0
M  V30 466 H 43.8849 1.73725 3.78979 0
M  V30 467 H 42.5449 0.742831 3.16089 0
M  V30 468 H 43.5559 4.41258 2.71131 0
M  V30 469 H 40.2329 2.01192 3.65825 0
M  V30 470 H 41.6229 6.00264 3.01882 0
M  V30 471 N 44.343 -0.763751 1.37857 0
M  V30 472 C 45.591 -1.51957 1.33243 0
M  V30 473 C 45.912 -1.94835 -0.0801709 0
M  V30 474 O 45.182 -1.66894 -1.02582 0
M  V30 475 H 43.762 -0.563626 0.49024 0
M  V30 476 H 46.424 -0.908504 1.7243 0
M  V30 477 H 45.52 -2.41523 1.97669 0
M  V30 478 N 45.8211 -1.22559 -0.990812 0
M  V30 479 C 46.7511 -1.0218 -2.09956 0
M  V30 480 C 47.7321 0.0579394 -1.70001 0
M  V30 481 O 48.9171 -0.104684 -1.93918 0
M  V30 482 C 46.0471 -0.601023 -3.4206 0
M  V30 483 C 45.0011 -1.62694 -3.95872 0
M  V30 484 C 44.3271 -1.06193 -5.24049 0
M  V30 485 C 45.6271 -3.01743 -4.2632 0
M  V30 486 H 47.3211 -1.94916 -2.27262 0
M  V30 487 H 44.8671 -0.938566 -1.09211 0
M  V30 488 H 46.8201 -0.445561 -4.19038 0
M  V30 489 H 45.5441 0.362005 -3.24588 0
M  V30 490 H 44.2031 -1.77021 -3.21028 0
M  V30 491 H 43.8511 -0.0901903 -5.02919 0
M  V30 492 H 43.5511 -1.74732 -5.61019 0
M  V30 493 H 45.0751 -0.918092 -6.03658 0
M  V30 494 H 46.4891 -2.90777 -4.94087 0
M  V30 495 H 44.8861 -3.67425 -4.74467 0
M  V30 496 H 45.9561 -3.51518 -3.34011 0
M  V30 497 N 47.2992 1.18797 -1.03562 0
M  V30 498 C 48.5452 1.8893 -0.737113 0
M  V30 499 C 48.8782 1.79837 0.732956 0
M  V30 500 O 48.1532 1.19525 1.5344 0
M  V30 501 C 48.4362 3.39607 -1.19745 0
M  V30 502 C 48.2892 3.57537 -2.72924 0
M  V30 503 C 49.6082 4.33069 -0.783526 0
M  V30 504 H 46.7272 0.686057 -0.269249 0
M  V30 505 H 49.3692 1.39797 -1.28673 0
M  V30 506 H 47.5192 3.81583 -0.729855 0
M  V30 507 H 49.1912 3.24688 -3.27682 0
M  V30 508 H 47.4342 3.00363 -3.12993 0
M  V30 509 H 48.1052 4.63238 -3.00191 0
M  V30 510 H 50.5812 3.98846 -1.18581 0
M  V30 511 H 49.4572 5.3707 -1.13343 0
M  V30 512 H 49.7182 4.40986 0.313681 0
M  V30 513 N 48.7773 0.814389 1.34928 0
M  V30 514 C 49.7403 0.235759 2.27984 0
M  V30 515 C 50.7403 -0.581412 1.49921 0
M  V30 516 O 51.9303 -0.398758 1.69575 0
M  V30 517 C 49.0623 -0.670433 3.34242 0
M  V30 518 H 50.2553 1.05659 2.80671 0
M  V30 519 H 47.8083 0.585614 1.44915 0
M  V30 520 H 48.5433 -1.51466 2.86755 0
M  V30 521 H 48.3283 -0.0860822 3.92005 0
M  V30 522 H 49.8183 -1.06935 4.03676 0
M  V30 523 N 50.2554 -1.46986 0.568584 0
M  V30 524 C 51.6714 -1.57946 0.229189 0
M  V30 525 C 51.8714 -1.56567 -1.26843 0
M  V30 526 O 50.9274 -1.47511 -2.04931 0
M  V30 527 C 52.2404 -2.87963 0.865909 0
M  V30 528 C 53.7884 -3.01568 0.838188 0
M  V30 529 C 54.2634 -4.34301 1.45419 0
M  V30 530 N 55.7544 -4.40965 1.41788 0
M  V30 531 C 56.4894 -5.42256 1.86403 0
M  V30 532 N 55.9854 -6.50297 2.38926 0
M  V30 533 N 57.7784 -5.3337 1.77405 0
M  V30 534 H 49.9294 -1.46126 1.54146 0
M  V30 535 H 52.1924 -0.696156 0.643484 0
M  V30 536 H 51.8984 -2.94742 1.91886 0
M  V30 537 H 51.7724 -3.75423 0.365687 0
M  V30 538 H 54.1594 -2.94379 -0.206106 0
M  V30 539 H 54.2404 -2.1562 1.37629 0
M  V30 540 H 53.8844 -4.42247 2.49761 0
M  V30 541 H 53.8144 -5.19 0.891435 0
M  V30 542 H 56.3054 -3.63484 1.03381 0
M  V30 543 H 56.6184 -7.23777 2.70863 0
M  V30 544 H 54.9634 -6.51155 2.42944 0
M  V30 545 H 58.1544 -4.47865 1.3614 0
M  V30 546 H 58.3274 -6.12169 2.12492 0
M  V30 547 N 51.7335 -0.305618 -1.54608 0
M  V30 548 C 53.1495 0.0476228 -1.59529 0
M  V30 549 C 53.3495 1.52025 -1.32252 0
M  V30 550 O 52.4055 2.27368 -1.09818 0
M  V30 551 C 53.7185 -0.354471 -2.98603 0
M  V30 552 C 55.2665 -0.303622 -3.11524 0
M  V30 553 C 55.7415 -0.680608 -4.52915 0
M  V30 554 N 57.2325 -0.63332 -4.5885 0
M  V30 555 C 57.9675 -0.897432 -5.66334 0
M  V30 556 N 57.4635 -1.22775 -6.81834 0
M  V30 557 N 59.2565 -0.824186 -5.56025 0
M  V30 558 H 51.4075 -1.2653 -1.70599 0
M  V30 559 H 53.6705 -0.513291 -0.797017 0
M  V30 560 H 53.3765 -1.3798 -3.23503 0
M  V30 561 H 53.2505 0.289568 -3.76087 0
M  V30 562 H 55.6375 0.712472 -2.8637 0
M  V30 563 H 55.7185 -0.982348 -2.36185 0
M  V30 564 H 55.3625 -1.69453 -4.78799 0
M  V30 565 H 55.2925 0.0202385 -5.26596 0
M  V30 566 H 57.7835 -0.389138 -3.75891 0
M  V30 567 H 58.0965 -1.41513 -7.59733 0
M  V30 568 H 56.4415 -1.26583 -6.83375 0
M  V30 569 H 59.6325 -0.565748 -4.64669 0
M  V30 570 H 59.8055 -1.03338 -6.39707 0
M  V30 571 N 53.2116 1.57565 -0.0334293 0
M  V30 572 C 54.4366 1.96689 0.657895 0
M  V30 573 C 54.8616 0.910057 1.64619 0
M  V30 574 O 54.2196 -0.128598 1.80843 0
M  V30 575 C 54.2676 3.34905 1.33683 0
M  V30 576 O 53.3716 3.31574 2.45219 0
M  V30 577 H 52.7126 0.641205 0.172489 0
M  V30 578 H 55.2426 2.04372 -0.0965621 0
M  V30 579 H 55.2526 3.71234 1.69262 0
M  V30 580 H 53.9276 4.11366 0.612411 0
M  V30 581 H 52.5046 3.06968 2.11719 0
M  V30 582 N 54.6897 -0.239769 1.55765 0
M  V30 583 C 55.9147 -0.988373 1.82335 0
M  V30 584 C 56.3397 -1.77886 0.611421 0
M  V30 585 O 55.6977 -1.75889 -0.439639 0
M  V30 586 C 55.7457 -1.89627 3.06715 0
M  V30 587 O 54.8497 -2.98904 2.84131 0
M  V30 588 H 54.1907 -0.280858 0.601677 0
M  V30 589 H 56.7207 -0.258597 2.02959 0
M  V30 590 H 56.7307 -2.30957 3.36338 0
M  V30 591 H 55.4057 -1.31511 3.9456 0
M  V30 592 H 53.9827 -2.61651 2.65694 0
M  V30 593 N 56.1678 -1.49265 -0.50573 0
M  V30 594 C 57.4448 -1.49012 -1.26707 0
M  V30 595 C 57.8248 -0.215205 -2.1 0
M  V30 596 O 57.1728 0.802547 -2.13943 0
M  V30 597 C 57.3828 -2.7663 -2.12783 0
M  V30 598 C 58.7308 -3.25932 -2.72127 0
M  V30 599 O 59.7548 -2.77715 -2.23054 0
M  V30 600 O 58.6138 -4.09897 -3.61451 0
M  V30 601 H 55.7078 -0.596197 -0.57313 0
M  V30 602 H 58.2538 -1.61524 -0.52039 0
M  V30 603 H 57.0258 -3.60916 -1.5118 0
M  V30 604 H 56.6488 -2.66956 -2.94653 0
M  V30 605 N 57.6459 0.756429 -1.3826 0
M  V30 606 C 58.8739 1.54565 -1.3754 0
M  V30 607 C 59.2889 1.88767 0.0355331 0
M  V30 608 O 58.6459 1.52572 1.0014 0
M  V30 609 C 58.6969 2.84654 -2.22833 0
M  V30 610 O 58.4179 2.51912 -3.5843 0
M  V30 611 C 59.9189 3.78807 -2.30261 0
M  V30 612 H 57.1389 0.478353 -0.470553 0
M  V30 613 H 59.6829 0.936381 -1.81803 0
M  V30 614 H 57.8379 3.41965 -1.8204 0
M  V30 615 H 58.2519 3.35325 -4.03308 0
M  V30 616 H 59.7259 4.67045 -2.94233 0
M  V30 617 H 60.2029 4.19038 -1.31545 0
M  V30 618 H 60.8089 3.2742 -2.71433 0
M  V30 619 N 59.124 1.23083 0.984299 0
M  V30 620 C 60.54 0.992637 1.24975 0
M  V30 621 C 60.74 -0.308618 1.99123 0
M  V30 622 O 59.796 -1.02905 2.30579 0
M  V30 623 C 61.109 2.19698 2.05312 0
M  V30 624 C 62.657 2.24147 2.18465 0
M  V30 625 C 63.132 3.44157 3.02192 0
M  V30 626 N 64.623 3.44372 3.09777 0
M  V30 627 C 65.358 4.33886 3.74874 0
M  V30 628 N 64.854 5.3363 4.41827 0
M  V30 629 N 66.647 4.21639 3.71721 0
M  V30 630 H 58.798 2.06731 0.487453 0
M  V30 631 H 61.061 0.906339 0.277944 0
M  V30 632 H 60.767 3.1411 1.58201 0
M  V30 633 H 60.641 2.20465 3.06064 0
M  V30 634 H 63.028 1.30277 2.64786 0
M  V30 635 H 63.109 2.27415 1.17115 0
M  V30 636 H 62.753 4.38332 2.56568 0
M  V30 637 H 62.683 3.3813 4.03702 0
M  V30 638 H 65.174 2.72201 2.62135 0
M  V30 639 H 65.487 5.98196 4.89266 0
M  V30 640 H 63.832 5.37534 4.40548 0
M  V30 641 H 67.023 3.42962 3.18582 0
M  V30 642 H 67.196 4.91604 4.22173 0
M  V30 643 N 60.6021 -1.18246 1.0419 0
M  V30 644 C 61.8481 -1.88793 0.75689 0
M  V30 645 C 62.2031 -1.78909 -0.707767 0
M  V30 646 O 61.4961 -1.1794 -1.50999 0
M  V30 647 C 61.6901 -3.38082 1.15911 0
M  V30 648 C 61.5191 -3.62496 2.66133 0
M  V30 649 C 60.2891 -3.7979 3.33298 0
M  V30 650 C 62.4871 -3.62976 3.64353 0
M  V30 651 N 60.4691 -3.91955 4.72487 0
M  V30 652 C 61.8401 -3.80869 4.89222 0
M  V30 653 C 63.8951 -3.46071 3.57965 0
M  V30 654 C 62.5981 -3.83608 6.08471 0
M  V30 655 C 64.6241 -3.50093 4.76643 0
M  V30 656 C 63.9861 -3.68484 6.00332 0
M  V30 657 H 60.0851 -0.709406 0.32904 0
M  V30 658 H 62.6691 -1.42022 1.33183 0
M  V30 659 H 60.8401 -3.83544 0.612238 0
M  V30 660 H 62.5721 -3.96202 0.824989 0
M  V30 661 H 59.3271 -3.79224 2.83701 0
M  V30 662 H 59.7511 -4.01857 5.44831 0
M  V30 663 H 64.3931 -3.30797 2.63311 0
M  V30 664 H 62.1111 -3.97669 7.0348 0
M  V30 665 H 65.6971 -3.38285 4.73344 0
M  V30 666 H 64.5771 -3.71488 6.90627 0
M  V30 667 N 62.0802 -0.821533 -1.34494 0
M  V30 668 C 63.4962 -0.507117 -1.51329 0
M  V30 669 C 63.6962 0.968964 -1.76673 0
M  V30 670 O 62.7522 1.75348 -1.81685 0
M  V30 671 C 64.0652 -1.36544 -2.67911 0
M  V30 672 C 65.6132 -1.36242 -2.81793 0
M  V30 673 C 66.0882 -2.2052 -4.01416 0
M  V30 674 N 67.5792 -2.18136 -4.08621 0
M  V30 675 C 68.3142 -2.80095 -5.00334 0
M  V30 676 N 67.8102 -3.51039 -5.9728 0
M  V30 677 N 69.6032 -2.69656 -4.93196 0
M  V30 678 H 61.7542 -1.77729 -1.16302 0
M  V30 679 H 64.0172 -0.757291 -0.570276 0
M  V30 680 H 63.7232 -2.41361 -2.55808 0
M  V30 681 H 63.5972 -1.02917 -3.62888 0
M  V30 682 H 65.9842 -0.322041 -2.93338 0
M  V30 683 H 66.0652 -1.73866 -1.87628 0
M  V30 684 H 65.7092 -3.24607 -3.90631 0
M  V30 685 H 65.6392 -1.80247 -4.94791 0
M  V30 686 H 68.1302 -1.6653 -3.39229 0
M  V30 687 H 68.4432 -3.95565 -6.63889 0
M  V30 688 H 66.7882 -3.55145 -5.97409 0
M  V30 689 H 69.9792 -2.13808 -4.16418 0
M  V30 690 H 70.1522 -3.1823 -5.64476 0
M  V30 691 N 63.5583 1.46682 -0.576371 0
M  V30 692 C 64.4883 2.33028 0.148397 0
M  V30 693 C 65.4693 1.44961 0.889956 0
M  V30 694 O 66.6543 1.73789 0.866662 0
M  V30 695 C 63.7843 3.27117 1.1667 0
M  V30 696 C 62.7383 4.24575 0.540386 0
M  V30 697 C 62.0643 5.08126 1.6647 0
M  V30 698 C 63.3643 5.19722 -0.518331 0
M  V30 699 H 65.0583 2.93875 -0.572509 0
M  V30 700 H 62.6043 1.41315 -0.276768 0
M  V30 701 H 64.5573 3.86374 1.68204 0
M  V30 702 H 63.2813 2.64364 1.9178 0
M  V30 703 H 61.9403 3.66571 0.0461769 0
M  V30 704 H 61.5883 4.41762 2.40531 0
M  V30 705 H 61.2883 5.74122 1.25131 0
M  V30 706 H 62.8123 5.70246 2.18293 0
M  V30 707 H 64.2263 5.73232 -0.0883058 0
M  V30 708 H 62.6233 5.94026 -0.851679 0
M  V30 709 H 63.6933 4.64037 -1.40703 0
M  V30 710 N 65.0364 0.313813 1.54444 0
M  V30 711 C 66.4524 -0.0391619 1.59552 0
M  V30 712 C 66.6524 -1.51322 1.33056 0
M  V30 713 O 65.7084 -2.26782 1.11022 0
M  V30 714 C 67.0214 0.370302 2.98411 0
M  V30 715 C 68.5694 0.320139 3.11358 0
M  V30 716 C 69.0444 0.704617 4.52547 0
M  V30 717 N 70.5354 0.657645 4.58508 0
M  V30 718 C 71.2704 0.927453 5.6585 0
M  V30 719 N 70.7664 1.26389 6.81174 0
M  V30 720 N 72.5594 0.853662 5.5558 0
M  V30 721 H 64.7104 1.27433 1.69925 0
M  V30 722 H 66.9734 0.517511 0.794284 0
M  V30 723 H 66.6794 1.39694 3.22767 0
M  V30 724 H 66.5534 -0.269619 3.76235 0
M  V30 725 H 68.9404 -0.697275 2.86744 0
M  V30 726 H 69.0214 0.99486 2.35661 0
M  V30 727 H 68.6654 1.7199 4.77893 0
M  V30 728 H 68.5954 0.00768843 5.26599 0
M  V30 729 H 71.0864 0.409067 3.75679 0
M  V30 730 H 71.3994 1.4554 7.58972 0
M  V30 731 H 69.7444 1.30206 6.82694 0
M  V30 732 H 72.9354 0.590383 4.64362 0
M  V30 733 H 73.1084 1.0673 6.3915 0
M  V30 734 N 66.5145 -1.57545 0.0417849 0
M  V30 735 C 67.4245 -2.14451 -0.951213 0
M  V30 736 C 68.4405 -1.09992 -1.34825 0
M  V30 737 O 69.6165 -1.42114 -1.42708 0
M  V30 738 C 66.6815 -2.67063 -2.21084 0
M  V30 739 C 65.7425 -3.86284 -1.87304 0
M  V30 740 C 64.9755 -4.36378 -3.07261 0
M  V30 741 O 65.1985 -3.85587 -4.20332 0
M  V30 742 O 64.1325 -5.28077 -2.88822 0
M  V30 743 H 67.9585 -2.99601 -0.497287 0
M  V30 744 H 65.5435 -1.48317 -0.179567 0
M  V30 745 H 67.4255 -3.00914 -2.95006 0
M  V30 746 H 66.1005 -1.84989 -2.65633 0
M  V30 747 H 65.0075 -3.57338 -1.10727 0
M  V30 748 H 66.3405 -4.6956 -1.47562 0
M  V30 749 N 67.9926 0.231505 -1.5589 0
M  V30 750 C 68.9226 1.29022 -1.94617 0
M  V30 751 C 69.9036 1.4941 -0.813067 0
M  V30 752 O 71.0886 1.6176 -1.07459 0
M  V30 753 C 68.2186 2.64199 -2.25424 0
M  V30 754 C 67.1726 2.58484 -3.41131 0
M  V30 755 C 66.4986 3.97599 -3.57518 0
M  V30 756 C 67.7986 2.1413 -4.76388 0
M  V30 757 H 69.4926 0.968563 -2.83301 0
M  V30 758 H 67.0386 0.464479 -1.36303 0
M  V30 759 H 68.9916 3.38413 -2.51107 0
M  V30 760 H 67.7156 2.98032 -1.33583 0
M  V30 761 H 66.3746 1.86727 -3.15481 0
M  V30 762 H 66.0226 4.28723 -2.6307 0
M  V30 763 H 65.7226 3.94659 -4.35337 0
M  V30 764 H 67.2466 4.7349 -3.85538 0
M  V30 765 H 68.6606 2.78083 -5.01341 0
M  V30 766 H 67.0576 2.2227 -5.57419 0
M  V30 767 H 68.1276 1.09331 -4.72414 0
M  V30 768 N 69.4707 1.49531 0.497807 0
M  V30 769 C 70.7187 1.58865 1.24926 0
M  V30 770 C 71.0397 0.278721 1.92998 0
M  V30 771 O 70.3097 -0.702144 1.82885 0
M  V30 772 H 68.8897 0.585343 0.464094 0
M  V30 773 H 71.5517 1.86174 0.57666 0
M  V30 774 H 70.6477 2.38633 2.01149 0
M  V30 775 N 70.9488 -0.749086 1.3866 0
M  V30 776 C 72.1978 -1.50371 1.3443 0
M  V30 777 C 72.5108 -1.95503 -0.0616397 0
M  V30 778 O 73.7168 -2.70554 -0.226489 0
M  V30 779 C 72.1728 -2.71644 2.36088 0
M  V30 780 C 71.7808 -2.3352 3.82325 0
M  V30 781 C 73.5248 -3.49518 2.40909 0
M  V30 782 C 71.4318 -3.51431 4.75658 0
M  V30 783 H 70.3618 -0.564628 0.499712 0
M  V30 784 H 73.0128 -0.818449 1.64237 0
M  V30 785 H 71.3948 -3.42175 1.9933 0
M  V30 786 H 72.5688 -1.70627 4.28046 0
M  V30 787 H 70.8838 -1.6877 3.80665 0
M  V30 788 H 73.4808 -4.37197 3.07836 0
M  V30 789 H 73.8238 -3.90992 1.42937 0
M  V30 790 H 74.3568 -2.86005 2.76489 0
M  V30 791 H 71.0958 -3.15019 5.74842 0
M  V30 792 H 70.6158 -4.13352 4.34627 0
M  V30 793 H 72.2948 -4.17953 4.93887 0
M  V30 794 N 72.4269 -1.23603 -0.977757 0
M  V30 795 C 73.3369 -1.03632 -2.1047 0
M  V30 796 C 74.3529 0.0199435 -1.73989 0
M  V30 797 O 75.5289 -0.176076 -2.00629 0
M  V30 798 C 72.5939 -0.63276 -3.40877 0
M  V30 799 C 71.6549 -1.76437 -3.91367 0
M  V30 800 C 70.8879 -1.37997 -5.15551 0
M  V30 801 O 71.1109 -0.265357 -5.69782 0
M  V30 802 O 70.0449 -2.20201 -5.60174 0
M  V30 803 H 73.8709 -1.98086 -2.30208 0
M  V30 804 H 71.4559 -1.02332 -1.08851 0
M  V30 805 H 73.3379 -0.418761 -4.19314 0
M  V30 806 H 72.0129 0.282754 -3.22463 0
M  V30 807 H 70.9199 -2.03304 -3.14036 0
M  V30 808 H 72.2529 -2.6583 -4.14241 0
M  V30 809 N 73.905 1.17692 -1.04816 0
M  V30 810 C 75.153 1.87488 -0.754497 0
M  V30 811 C 75.474 1.81205 0.720407 0
M  V30 812 O 74.744 1.23544 1.52032 0
M  V30 813 H 73.324 0.694101 -0.276102 0
M  V30 814 H 75.986 1.42793 -1.32651 0
M  V30 815 H 75.082 2.93328 -1.06606 0
M  V30 816 N 75.3831 0.828654 1.34056 0
M  V30 817 C 76.6601 0.341809 1.9259 0
M  V30 818 C 77.0401 -1.17158 1.75605 0
M  V30 819 O 76.3881 -1.98132 1.13824 0
M  V30 820 C 76.5981 0.777453 3.4023 0
M  V30 821 C 77.9461 0.779579 4.17382 0
M  V30 822 O 78.9701 0.7204 3.48839 0
M  V30 823 O 77.8291 0.857996 5.39723 0
M  V30 824 H 74.9231 0.0946085 0.821571 0
M  V30 825 H 77.4691 0.913827 1.42994 0
M  V30 826 H 76.2411 1.8196 3.46419 0
M  V30 827 H 75.8641 0.181444 3.97186 0
M  V30 828 N 76.8612 -1.46375 0.584142 0
M  V30 829 C 78.1102 -2.01585 0.0679741 0
M  V30 830 C 78.4232 -1.46109 -1.30045 0
M  V30 831 O 79.6292 -1.93148 -1.90804 0
M  V30 832 C 78.0852 -3.5983 0.0709207 0
M  V30 833 C 77.6932 -4.24303 1.43775 0
M  V30 834 C 79.4372 -4.22693 -0.391228 0
M  V30 835 C 77.3442 -5.74631 1.39834 0
M  V30 836 H 76.2742 -0.753689 0.0216421 0
M  V30 837 H 78.9252 -1.68093 0.736001 0
M  V30 838 H 77.3072 -3.90405 -0.663299 0
M  V30 839 H 78.4812 -4.05335 2.19181 0
M  V30 840 H 76.7962 -3.73539 1.84004 0
M  V30 841 H 79.3932 -5.3289 -0.439524 0
M  V30 842 H 79.7362 -3.91728 -1.40906 0
M  V30 843 H 80.2692 -3.96749 0.288974 0
M  V30 844 H 77.0082 -6.10258 2.39303 0
M  V30 845 H 76.5282 -5.95858 0.686505 0
M  V30 846 H 78.2072 -6.37375 1.11187 0
M  V30 847 N 78.3393 -0.321999 -1.54275 0
M  V30 848 C 79.2713 0.578671 -2.21775 0
M  V30 849 C 80.2843 1.08109 -1.21722 0
M  V30 850 O 81.4733 0.994938 -1.482 0
M  V30 851 C 78.5733 1.80661 -2.86731 0
M  V30 852 C 77.7463 1.44314 -4.12907 0
M  V30 853 C 76.8053 2.52845 -4.61472 0
M  V30 854 O 75.8313 2.17054 -5.2619 0
M  V30 855 N 77.0333 3.83748 -4.35566 0
M  V30 856 H 79.7983 0.000709447 -2.997 0
M  V30 857 H 77.3593 -0.145132 -1.61248 0
M  V30 858 H 79.3513 2.52655 -3.16145 0
M  V30 859 H 77.9213 2.29245 -2.12521 0
M  V30 860 H 77.1413 0.554906 -3.90275 0
M  V30 861 H 78.4293 1.17598 -4.95023 0
M  V30 862 H 77.8273 4.15625 -3.83761 0
M  V30 863 H 76.3843 4.51977 -4.69638 0
M  V30 864 N 79.8174 1.5752 -0.0501392 0
M  V30 865 C 81.0474 1.96678 0.632573 0
M  V30 866 C 81.4554 0.926298 1.64974 0
M  V30 867 O 80.7984 -0.09802 1.83438 0
M  V30 868 C 80.8604 3.32068 1.37735 0
M  V30 869 C 80.5244 4.54076 0.516131 0
M  V30 870 C 81.5214 5.19445 -0.217357 0
M  V30 871 C 79.2064 5.00304 0.44736 0
M  V30 872 C 81.2004 6.29378 -1.00807 0
M  V30 873 C 78.8874 6.10114 -0.347038 0
M  V30 874 C 79.8854 6.74512 -1.07344 0
M  V30 875 O 79.5734 7.82211 -1.85477 0
M  V30 876 H 79.3054 0.652193 0.177821 0
M  V30 877 H 81.8594 2.05091 -0.112543 0
M  V30 878 H 80.0894 3.20206 2.16807 0
M  V30 879 H 81.7784 3.55981 1.95019 0
M  V30 880 H 82.5444 4.84689 -0.173688 0
M  V30 881 H 78.4234 4.49971 1.00235 0
M  V30 882 H 81.9674 6.79575 -1.57556 0
M  V30 883 H 77.8644 6.44307 -0.392349 0
M  V30 884 H 78.6324 7.98982 -1.77678 0
M  V30 885 N 81.2955 -0.223234 1.56011 0
M  V30 886 C 82.2055 -1.29766 1.95443 0
M  V30 887 C 83.2215 -1.51373 0.858028 0
M  V30 888 O 84.3975 -1.64536 1.16146 0
M  V30 889 C 81.4625 -2.62772 2.26167 0
M  V30 890 C 80.5235 -2.49482 3.49367 0
M  V30 891 C 79.7565 -3.76145 3.78616 0
M  V30 892 O 79.9795 -4.79087 3.09568 0
M  V30 893 O 78.9135 -3.73358 4.72109 0
M  V30 894 H 82.7395 -0.99309 2.87004 0
M  V30 895 H 80.3245 -0.425958 1.43199 0
M  V30 896 H 82.2065 -3.41327 2.47131 0
M  V30 897 H 80.8815 -2.92913 1.37781 0
M  V30 898 H 79.7885 -1.69133 3.33684 0
M  V30 899 H 81.1215 -2.2428 4.38131 0
M  V30 900 N 82.7736 -1.49793 -0.48987 0
M  V30 901 C 84.0506 -1.50348 -1.25119 0
M  V30 902 C 84.4306 -0.237466 -2.0976 0
M  V30 903 O 83.7786 0.77981 -2.14782 0
M  V30 904 C 83.9886 -2.78872 -2.09837 0
M  V30 905 C 85.3366 -3.288 -2.68655 0
M  V30 906 O 86.3606 -2.80065 -2.20096 0
M  V30 907 O 85.2196 -4.13707 -3.57083 0
M  V30 908 H 82.3136 -0.602242 -0.566775 0
M  V30 909 H 84.8596 -1.62067 -0.503229 0
M  V30 910 H 83.6316 -3.62499 -1.47343 0
M  V30 911 H 83.2546 -2.70066 -2.91805 0
M  V30 912 N 84.2517 0.741722 -1.39055 0
M  V30 913 C 85.4997 1.49818 -1.35643 0
M  V30 914 C 85.8207 1.94938 0.0491642 0
M  V30 915 O 85.0907 1.68505 0.999141 0
M  V30 916 H 83.6707 0.555755 -0.499144 0
M  V30 917 H 86.3327 0.880957 -1.73854 0
M  V30 918 H 85.4287 2.38348 -2.01486 0
M  V30 919 N 85.7298 1.2412 0.971189 0
M  V30 920 C 87.0068 0.986867 1.6888 0
M  V30 921 C 87.3868 -0.491857 2.0529 0
M  V30 922 O 86.7348 -1.46531 1.75331 0
M  V30 923 C 86.9448 1.9063 2.92338 0
M  V30 924 C 88.2928 2.17515 3.64654 0
M  V30 925 O 89.3168 1.88254 3.02388 0
M  V30 926 O 88.1758 2.6719 4.7673 0
M  V30 927 H 85.2698 0.372944 0.738134 0
M  V30 928 H 87.8158 1.35203 1.02559 0
M  V30 929 H 86.5878 2.90552 2.62097 0
M  V30 930 H 86.2108 1.54408 3.66393 0
M  V30 931 N 87.2079 -1.17134 1.05439 0
M  V30 932 C 88.1409 -2.2012 0.601855 0
M  V30 933 C 89.1189 -1.58314 -0.370854 0
M  V30 934 O 90.3029 -1.8638 -0.281882 0
M  V30 935 C 87.4299 -3.38491 -0.118868 0
M  V30 936 C 86.4759 -4.18752 0.809242 0
M  V30 937 S 87.3089 -4.83602 2.29977 0
M  V30 938 C 88.4649 -6.0536 1.59029 0
M  V30 939 H 88.6979 -2.58165 1.47438 0
M  V30 940 H 86.2309 -1.27788 0.866573 0
M  V30 941 H 88.1889 -4.07084 -0.528495 0
M  V30 942 H 86.8499 -2.98829 -0.967465 0
M  V30 943 H 86.0429 -5.03373 0.251379 0
M  V30 944 H 85.6449 -3.5561 1.15835 0
M  V30 945 H 87.9369 -6.71615 0.891017 0
M  V30 946 H 88.8799 -6.65679 2.41407 0
M  V30 947 H 89.2879 -5.54138 1.07663 0
M  V30 948 N 88.686 -0.835752 -1.33615 0
M  V30 949 C 89.649 -0.272 -2.2758 0
M  V30 950 C 90.649 0.557487 -1.50827 0
M  V30 951 O 91.839 0.37173 -1.70188 0
M  V30 952 C 88.971 0.617173 -3.35267 0
M  V30 953 H 90.164 -1.10111 -2.78954 0
M  V30 954 H 87.717 -0.608594 -1.43965 0
M  V30 955 H 88.452 1.46884 -2.89129 0
M  V30 956 H 88.237 0.0237066 -3.92093 0
M  V30 957 H 89.727 1.005 -4.05326 0
M  V30 958 N 90.1641 1.46063 -0.591896 0
M  V30 959 C 91.4411 1.95595 -0.0137119 0
M  V30 960 C 91.8211 1.5345 1.4497 0
M  V30 961 O 91.1691 0.789543 2.14426 0
M  V30 962 C 91.3791 3.48453 -0.195373 0
M  V30 963 C 92.7271 4.24546 -0.0679765 0
M  V30 964 O 93.7511 3.55982 -0.124681 0
M  V30 965 O 92.6101 5.46467 0.0600579 0
M  V30 966 H 89.7041 0.825795 0.0446279 0
M  V30 967 H 92.2501 1.56303 -0.660859 0
M  V30 968 H 91.0221 3.72045 -1.21235 0
M  V30 969 H 90.6451 3.94597 0.487775 0
M  V30 970 N 91.6422 0.330177 1.54103 0
M  V30 971 C 92.6052 -0.520144 2.2322 0
M  V30 972 C 93.6052 -1.03828 1.22786 0
M  V30 973 O 94.7952 -0.929652 1.4732 0
M  V30 974 C 91.9272 -1.72317 2.94142 0
M  V30 975 H 93.1202 0.0841605 2.99782 0
M  V30 976 H 90.6732 0.0813433 1.56088 0
M  V30 977 H 91.4082 -2.36653 2.21734 0
M  V30 978 H 91.1932 -1.35898 3.67796 0
M  V30 979 H 92.6832 -2.3266 3.46784 0
M  V30 980 N 93.1203 -1.57491 0.0584922 0
M  V30 981 C 94.3603 -1.94851 -0.617458 0
M  V30 982 C 94.7243 -0.937165 -1.67575 0
M  V30 983 O 95.9253 -1.19795 -2.40629 0
M  V30 984 C 94.1963 -3.36955 -1.19147 0
M  V30 985 S 95.7553 -3.96277 -1.8844 0
M  V30 986 H 92.5733 -0.681539 -0.202547 0
M  V30 987 H 95.1753 -1.95073 0.129176 0
M  V30 988 H 93.8793 -4.08355 -0.409215 0
M  V30 989 H 93.4103 -3.40245 -1.97476 0
M  V30 990 H 95.4253 -3.82099 -3.16568 0
M  V30 991 N 94.5984 0.214957 -1.56127 0
M  V30 992 C 95.8234 0.95924 -1.83884 0
M  V30 993 C 96.2484 1.7689 -0.639644 0
M  V30 994 O 95.6064 1.76566 0.411601 0
M  V30 995 C 95.6544 1.84723 -3.09693 0
M  V30 996 O 94.7584 2.94346 -2.8885 0
M  V30 997 H 94.0994 0.27125 -0.606069 0
M  V30 998 H 96.6294 0.226276 -2.03345 0
M  V30 999 H 96.6394 2.25576 -3.39969 0
M  V30 1000 H 95.3144 1.25218 -3.96602 0
M  V30 1001 H 93.8914 2.57391 -2.69823 0
M  V30 1002 N 96.0765 1.50051 0.48192 0
M  V30 1003 C 97.3225 1.60736 1.2366 0
M  V30 1004 C 97.6555 0.301786 1.91841 0
M  V30 1005 O 96.9305 -0.696025 1.8162 0
M  V30 1006 C 97.2135 2.78009 2.28874 0
M  V30 1007 C 97.0665 4.18416 1.65069 0
M  V30 1008 C 98.3855 2.90867 3.30279 0
M  V30 1009 H 95.5045 0.585031 0.448228 0
M  V30 1010 H 98.1465 1.82402 0.531946 0
M  V30 1011 H 96.2965 2.59667 2.88973 0
M  V30 1012 H 97.9685 4.48322 1.0865 0
M  V30 1013 H 96.2115 4.23177 0.954148 0
M  V30 1014 H 96.8825 4.96381 2.41474 0
M  V30 1015 H 99.3585 3.07623 2.80191 0
M  V30 1016 H 98.2345 3.74566 4.01238 0
M  V30 1017 H 98.4955 2.01021 3.93755 0
M  V30 1018 N 97.5546 -0.734337 1.39446 0
M  V30 1019 C 98.4866 -1.85861 1.34121 0
M  V30 1020 C 99.4996 -1.60871 0.249864 0
M  V30 1021 O 100.689 -1.71093 0.508865 0
M  V30 1022 C 97.7886 -3.21899 1.05991 0
M  V30 1023 C 96.9616 -3.74239 2.26415 0
M  V30 1024 C 96.0206 -4.88841 1.94733 0
M  V30 1025 O 95.0466 -5.02468 2.67422 0
M  V30 1026 N 96.2486 -5.73261 0.913884 0
M  V30 1027 H 99.0136 -1.90934 2.31007 0
M  V30 1028 H 96.5746 -0.915102 1.33557 0
M  V30 1029 H 98.5666 -3.96136 0.828147 0
M  V30 1030 H 97.1366 -3.12091 0.178361 0
M  V30 1031 H 96.3566 -2.91347 2.65539 0
M  V30 1032 H 97.6446 -4.05942 3.06738 0
M  V30 1033 H 97.0426 -5.64842 0.311476 0
M  V30 1034 H 95.5996 -6.47563 0.742015 0
M  V30 1035 N 99.0327 -1.24633 -0.964593 0
M  V30 1036 C 100.449 -1.01239 -1.2338 0
M  V30 1037 C 100.649 0.2769 -1.99588 0
M  V30 1038 O 99.7047 0.992241 -2.32187 0
M  V30 1039 C 101.018 -2.22937 -2.01791 0
M  V30 1040 C 102.566 -2.27594 -2.14872 0
M  V30 1041 C 103.041 -3.48921 -2.96678 0
M  V30 1042 N 104.532 -3.49257 -3.04259 0
M  V30 1043 C 105.267 -4.39795 -3.67924 0
M  V30 1044 N 104.763 -5.40591 -4.33281 0
M  V30 1045 N 106.556 -4.275 -3.64966 0
M  V30 1046 H 98.7067 -2.0748 -0.454502 0
M  V30 1047 H 100.97 -0.910647 -0.26349 0
M  V30 1048 H 100.676 -3.16587 -1.53184 0
M  V30 1049 H 100.55 -2.25306 -3.02518 0
M  V30 1050 H 102.937 -1.34473 -2.6268 0
M  V30 1051 H 103.018 -2.2925 -1.13482 0
M  V30 1052 H 102.662 -4.42359 -2.49562 0
M  V30 1053 H 102.592 -3.4451 -3.98272 0
M  V30 1054 H 105.083 -2.76337 -2.57771 0
M  V30 1055 H 105.396 -6.05904 -4.79687 0
M  V30 1056 H 103.741 -5.44475 -4.3194 0
M  V30 1057 H 106.932 -3.47987 -3.13086 0
M  V30 1058 H 107.105 -4.98258 -4.14298 0
M  V30 1059 N 100.511 1.16574 -1.06058 0
M  V30 1060 C 101.474 2.19085 -0.673392 0
M  V30 1061 C 102.474 1.5835 0.279648 0
M  V30 1062 O 103.664 1.74088 0.0623488 0
M  V30 1063 C 100.796 3.40899 0.00954234 0
M  V30 1064 H 101.989 2.54853 -1.58081 0
M  V30 1065 H 99.5418 1.30808 -0.855516 0
M  V30 1066 H 100.277 3.10684 0.929826 0
M  V30 1067 H 100.062 3.86233 -0.67573 0
M  V30 1068 H 101.552 4.1675 0.266245 0
M  V30 1069 N 101.989 0.842826 1.3317 0
M  V30 1070 C 103.235 0.441099 1.97945 0
M  V30 1071 C 103.568 -0.998024 1.66593 0
M  V30 1072 O 102.843 -1.69839 0.947898 0
M  V30 1073 C 103.126 0.666841 3.53872 0
M  V30 1074 C 102.979 2.15352 3.94897 0
M  V30 1075 C 104.298 0.115544 4.39948 0
M  V30 1076 H 101.417 0.161739 0.719034 0
M  V30 1077 H 104.059 1.05907 1.57746 0
M  V30 1078 H 102.209 0.140828 3.88245 0
M  V30 1079 H 103.881 2.7447 3.70761 0
M  V30 1080 H 102.124 2.63653 3.44484 0
M  V30 1081 H 102.795 2.26221 5.03516 0
M  V30 1082 H 105.271 0.565213 4.12243 0
M  V30 1083 H 104.147 0.303152 5.48062 0
M  V30 1084 H 104.408 -0.980935 4.3108 0
M  V30 1085 N 103.467 -1.45747 0.599634 0
M  V30 1086 C 104.716 -2.01502 0.0893511 0
M  V30 1087 C 105.029 -1.4748 -1.28488 0
M  V30 1088 O 106.235 -1.95161 -1.88745 0
M  V30 1089 C 104.691 -3.59735 0.109082 0
M  V30 1090 C 104.299 -4.22754 1.48267 0
M  V30 1091 C 106.043 -4.23085 -0.346374 0
M  V30 1092 C 103.95 -5.73115 1.45921 0
M  V30 1093 H 102.88 -0.753417 0.0296347 0
M  V30 1094 H 105.531 -1.67303 0.753788 0
M  V30 1095 H 103.913 -3.91087 -0.621854 0
M  V30 1096 H 105.087 -4.02987 2.23468 0
M  V30 1097 H 103.402 -3.71567 1.87955 0
M  V30 1098 H 105.999 -5.33327 -0.38298 0
M  V30 1099 H 106.342 -3.93201 -1.36743 0
M  V30 1100 H 106.875 -3.9642 0.331038 0
M  V30 1101 H 103.614 -6.07685 2.45762 0
M  V30 1102 H 103.134 -5.95097 0.749665 0
M  V30 1103 H 104.813 -6.3616 1.17941 0
M  V30 1104 N 104.945 -0.338344 -1.53925 0
M  V30 1105 C 105.892 0.520845 -2.24846 0
M  V30 1106 C 106.862 1.09976 -1.24477 0
M  V30 1107 O 108.047 1.13735 -1.53196 0
M  V30 1108 C 105.187 1.6685 -3.02084 0
M  V30 1109 C 104.3 1.11739 -4.17299 0
M  V30 1110 C 103.435 2.23193 -4.82036 0
M  V30 1111 C 102.474 1.65407 -5.89328 0
M  V30 1112 N 101.611 2.70582 -6.47866 0
M  V30 1113 H 106.451 -0.0904881 -2.97863 0
M  V30 1114 H 103.988 -0.0564282 -1.46992 0
M  V30 1115 H 105.946 2.34407 -3.45122 0
M  V30 1116 H 104.576 2.2509 -2.31375 0
M  V30 1117 H 103.628 0.332919 -3.7894 0
M  V30 1118 H 104.94 0.654677 -4.94485 0
M  V30 1119 H 104.094 2.98626 -5.28117 0
M  V30 1120 H 102.833 2.72807 -4.04262 0
M  V30 1121 H 101.838 0.884779 -5.42634 0
M  V30 1122 H 103.063 1.16652 -6.69006 0
M  V30 1123 H 101.009 3.1946 -5.72959 0
M  V30 1124 H 100.926 2.28917 -7.20509 0
M  V30 1125 H 102.194 3.45799 -6.98601 0
M  V30 1126 N 106.423 1.57458 -0.0668435 0
M  V30 1127 C 107.386 2.11323 0.887422 0
M  V30 1128 C 108.386 1.03618 1.22964 0
M  V30 1129 O 109.576 1.29626 1.16373 0
M  V30 1130 C 106.708 2.61048 2.19242 0
M  V30 1131 H 107.901 2.96942 0.420194 0
M  V30 1132 H 105.454 1.55239 0.181793 0
M  V30 1133 H 106.189 1.78868 2.70512 0
M  V30 1134 H 105.974 3.39769 1.95702 0
M  V30 1135 H 107.464 3.02814 2.87565 0
M  V30 1136 N 107.901 -0.206675 1.56239 0
M  V30 1137 C 108.833 -1.27997 1.9013 0
M  V30 1138 C 109.846 -1.42299 0.790883 0
M  V30 1139 O 111.035 -1.42931 1.06925 0
M  V30 1140 C 108.135 -2.65368 2.10792 0
M  V30 1141 C 107.308 -2.72824 3.41886 0
M  V30 1142 C 106.367 -3.9131 3.51799 0
M  V30 1143 O 105.393 -3.78953 4.24716 0
M  V30 1144 N 106.595 -5.06265 2.84035 0
M  V30 1145 H 109.36 -0.992444 2.82791 0
M  V30 1146 H 106.921 -0.396652 1.56966 0
M  V30 1147 H 108.913 -3.43039 2.14724 0
M  V30 1148 H 107.483 -2.86657 1.24685 0
M  V30 1149 H 106.703 -1.81515 3.49923 0
M  V30 1150 H 107.991 -2.74786 4.28217 0
M  V30 1151 H 107.389 -5.19203 2.246 0
M  V30 1152 H 105.946 -5.81925 2.93609 0
M  V30 1153 N 109.379 -1.50304 -0.473955 0
M  V30 1154 C 110.79 -1.54042 -1.0549 0
M  V30 1155 C 111.141 -0.342248 -1.93192 0
M  V30 1156 O 110.266 0.545157 -2.09421 0
M  V30 1157 C 110.861 -2.79152 -1.91989 0
M  V30 1158 C 109.42 -2.8558 -2.45196 0
M  V30 1159 C 108.567 -2.48295 -1.2347 0
M  V30 1160 H 111.518 -1.5661 -0.256693 0
M  V30 1161 H 111.539 -2.60845 -2.7702 0
M  V30 1162 H 111.051 -3.66339 -1.28131 0
M  V30 1163 H 109.152 -2.02738 -3.12615 0
M  V30 1164 H 109.265 -3.88403 -2.80499 0
M  V30 1165 H 107.629 -2.00669 -1.56856 0
M  V30 1166 H 108.412 -3.37787 -0.612789 0
M  V30 1167 N 110.857 0.726932 -1.39834 0
M  V30 1168 C 111.789 1.85147 -1.35104 0
M  V30 1169 C 112.802 1.60736 -0.258392 0
M  V30 1170 O 113.991 1.70821 -0.517931 0
M  V30 1171 C 111.091 3.21332 -1.07697 0
M  V30 1172 C 110.264 3.73033 -2.28396 0
M  V30 1173 C 109.323 4.87802 -1.97322 0
M  V30 1174 O 108.349 5.01043 -2.70083 0
M  V30 1175 N 109.551 5.72768 -0.944273 0
M  V30 1176 H 112.316 1.89706 -2.32017 0
M  V30 1177 H 109.877 0.908006 -1.3404 0
M  V30 1178 H 111.869 3.95691 -0.849144 0
M  V30 1179 H 110.439 3.11992 -0.194909 0
M  V30 1180 H 109.659 2.89934 -2.6708 0
M  V30 1181 H 110.947 4.0431 -3.08887 0
M  V30 1182 H 110.345 5.64669 -0.341427 0
M  V30 1183 H 108.902 6.4716 -0.776346 0
M  V30 1184 N 112.336 1.25143 0.95797 0
M  V30 1185 C 113.246 1.06968 2.08794 0
M  V30 1186 C 114.262 0.00773911 1.73998 0
M  V30 1187 O 115.438 0.207972 2.00323 0
M  V30 1188 C 112.503 0.68691 3.39827 0
M  V30 1189 C 111.564 1.82641 3.88511 0
M  V30 1190 C 110.797 1.46181 5.1329 0
M  V30 1191 O 111.02 0.355971 5.69288 0
M  V30 1192 O 109.954 2.29085 5.566 0
M  V30 1193 H 113.78 2.01723 2.27027 0
M  V30 1194 H 111.365 1.04051 1.07209 0
M  V30 1195 H 113.247 0.485417 4.18595 0
M  V30 1196 H 111.922 -0.231417 3.22872 0
M  V30 1197 H 110.829 2.08274 3.10762 0
M  V30 1198 H 112.162 2.72386 4.09959 0
M  V30 1199 N 113.814 -1.1601 1.06675 0
M  V30 1200 C 115.06 -1.86909 0.786945 0
M  V30 1201 C 115.393 -1.81717 -0.685018 0
M  V30 1202 O 114.668 -1.23551 -1.50218 0
M  V30 1203 C 114.951 -3.36313 1.28707 0
M  V30 1204 C 114.804 -3.50175 2.82308 0
M  V30 1205 C 116.123 -4.3084 0.898071 0
M  V30 1206 H 113.242 -0.678677 0.287343 0
M  V30 1207 H 115.884 -1.36336 1.32334 0
M  V30 1208 H 114.034 -3.79513 0.830768 0
M  V30 1209 H 115.706 -3.15886 3.36175 0
M  V30 1210 H 113.949 -2.91959 3.20847 0
M  V30 1211 H 114.62 -4.55116 3.12368 0
M  V30 1212 H 117.096 -3.95561 1.29114 0
M  V30 1213 H 115.972 -5.33876 1.27543 0
M  V30 1214 H 116.233 -4.41662 -0.196651 0
M  V30 1215 N 115.292 -0.849877 -1.32721 0
M  V30 1216 C 116.522 -0.46408 -2.0132 0
M  V30 1217 C 116.93 0.94246 -1.64056 0
M  V30 1218 O 116.273 1.6257 -0.855379 0
M  V30 1219 C 116.335 -0.517887 -3.5575 0
M  V30 1220 C 115.999 -1.88248 -4.16427 0
M  V30 1221 C 116.996 -2.84726 -4.35002 0
M  V30 1222 C 114.681 -2.17832 -4.52609 0
M  V30 1223 C 116.675 -4.08945 -4.8892 0
M  V30 1224 C 114.362 -3.42304 -5.06232 0
M  V30 1225 C 115.36 -4.37677 -5.24335 0
M  V30 1226 O 115.048 -5.59946 -5.76815 0
M  V30 1227 H 114.78 -0.181327 -0.651227 0
M  V30 1228 H 117.334 -1.14713 -1.70382 0
M  V30 1229 H 115.564 0.221997 -3.86062 0
M  V30 1230 H 117.253 -0.148366 -4.05629 0
M  V30 1231 H 118.019 -2.63174 -4.07388 0
M  V30 1232 H 113.898 -1.44385 -4.37806 0
M  V30 1233 H 117.442 -4.83396 -5.02966 0
M  V30 1234 H 113.339 -3.63709 -5.33278 0
M  V30 1235 H 114.107 -5.61838 -5.95214 0
M  V30 1236 N 116.77 1.45427 -0.607355 0
M  V30 1237 C 117.718 2.32269 0.12411 0
M  V30 1238 C 118.712 1.45955 0.859854 0
M  V30 1239 O 119.918 1.6244 0.775447 0
M  V30 1240 H 116.293 0.749691 0.0588839 0
M  V30 1241 H 118.264 2.91743 -0.626762 0
M  V30 1242 C 117.013 3.29567 1.1082 0
M  V30 1243 H 116.336 3.95978 0.551492 0
M  V30 1244 H 117.776 3.93061 1.58995 0
M  V30 1245 C 116.235 2.56722 2.18164 0
M  V30 1246 O 116.765 2.34842 3.25902 0
M  V30 1247 N 114.971 2.16861 1.93442 0
M  V30 1248 H 114.518 2.34855 1.05834 0
M  V30 1249 H 114.476 1.68444 2.65469 0
M  V30 1250 N 118.248 0.346503 1.53744 0
M  V30 1251 C 119.178 -0.501193 2.28058 0
M  V30 1252 C 120.159 -1.10014 1.29734 0
M  V30 1253 O 121.344 -1.12097 1.58581 0
M  V30 1254 C 118.474 -1.65078 3.05559 0
M  V30 1255 C 117.428 -1.18003 4.11411 0
M  V30 1256 C 116.754 -2.41837 4.76884 0
M  V30 1257 C 118.054 -0.278394 5.21558 0
M  V30 1258 H 119.748 0.11875 2.99164 0
M  V30 1259 H 117.294 0.0585531 1.43881 0
M  V30 1260 H 119.247 -2.25028 3.56287 0
M  V30 1261 H 117.971 -2.29767 2.32109 0
M  V30 1262 H 116.63 -0.603331 3.61601 0
M  V30 1263 H 116.278 -3.0494 4.00026 0
M  V30 1264 H 115.978 -2.1102 5.48402 0
M  V30 1265 H 117.502 -3.02508 5.30397 0
M  V30 1266 H 118.916 -0.784823 5.67903 0
M  V30 1267 H 117.313 -0.0619707 6.00068 0
M  V30 1268 H 118.383 0.684677 4.80042 0
M  V30 1269 N 119.726 -1.57421 0.075193 0
M  V30 1270 C 120.689 -2.11791 -0.876203 0
M  V30 1271 C 121.689 -1.04268 -1.22412 0
M  V30 1272 O 122.879 -1.30242 -1.15684 0
M  V30 1273 C 120.011 -2.62207 -2.17854 0
M  V30 1274 H 121.204 -2.9716 -0.40444 0
M  V30 1275 H 118.757 -1.55333 -0.173557 0
M  V30 1276 H 119.492 -1.803 -2.6956 0
M  V30 1277 H 119.277 -3.40802 -1.93897 0
M  V30 1278 H 120.767 -3.04335 -2.85955 0
M  V30 1279 N 121.204 0.198386 -1.56346 0
M  V30 1280 C 122.167 1.22952 -1.93431 0
M  V30 1281 C 123.167 1.38611 -0.815092 0
M  V30 1282 O 124.357 1.36479 -1.08255 0
M  V30 1283 C 121.489 2.59946 -2.20546 0
M  V30 1284 H 122.682 0.912626 -2.85677 0
M  V30 1285 H 120.235 0.43977 -1.49986 0
M  V30 1286 H 120.97 2.96696 -1.30927 0
M  V30 1287 H 120.755 2.49953 -3.02102 0
M  V30 1288 H 122.245 3.3431 -2.50253 0
M  V30 1289 N 122.682 1.50554 0.465978 0
M  V30 1290 C 123.614 1.65949 1.58093 0
M  V30 1291 C 124.627 0.540827 1.53554 0
M  V30 1292 O 125.816 0.814187 1.5885 0
M  V30 1293 C 122.916 1.63261 2.96983 0
M  V30 1294 C 122.089 2.91245 3.26336 0
M  V30 1295 C 121.148 2.8113 4.44806 0
M  V30 1296 O 120.174 3.55086 4.44862 0
M  V30 1297 N 121.376 1.95032 5.46756 0
M  V30 1298 H 124.141 2.62122 1.45301 0
M  V30 1299 H 121.702 1.48082 0.65448 0
M  V30 1300 H 123.694 1.54101 3.74212 0
M  V30 1301 H 122.264 0.748032 3.03518 0
M  V30 1302 H 121.484 3.14493 2.37672 0
M  V30 1303 H 122.772 3.76022 3.42761 0
M  V30 1304 H 122.17 1.3427 5.49534 0
M  V30 1305 H 120.727 1.91772 6.2295 0
M  V30 1306 N 124.16 -0.719506 1.40217 0
M  V30 1307 C 125.385 -1.51371 1.4178 0
M  V30 1308 C 125.81 -1.88091 0.0182355 0
M  V30 1309 O 125.168 -1.52997 -0.972707 0
M  V30 1310 C 125.216 -2.768 2.31115 0
M  V30 1311 O 124.32 -3.73349 1.7517 0
M  V30 1312 H 123.661 -0.456529 0.482159 0
M  V30 1313 H 126.191 -0.88644 1.844 0
M  V30 1314 H 126.201 -3.25371 2.46167 0
M  V30 1315 H 124.876 -2.49407 3.3282 0
M  V30 1316 H 123.453 -3.32179 1.69444 0
M  V30 1317 N 125.638 -1.25649 -0.95132 0
M  V30 1318 C 126.885 -1.10594 -1.69633 0
M  V30 1319 C 127.213 0.352515 -1.91279 0
M  V30 1320 O 126.468 1.27601 -1.4838 0
M  V30 1321 C 126.767 -1.80909 -3.08231 0
M  V30 1322 C 126.433 -3.30825 -3.06375 0
M  V30 1323 C 125.095 -3.71722 -3.05576 0
M  V30 1324 C 127.447 -4.26589 -2.99452 0
M  V30 1325 C 124.775 -5.06788 -2.95606 0
M  V30 1326 C 127.127 -5.61683 -2.91024 0
M  V30 1327 C 125.791 -6.01904 -2.88562 0
M  V30 1328 H 125.061 -0.404691 -0.620731 0
M  V30 1329 H 127.708 -1.55964 -1.11119 0
M  V30 1330 H 126.013 -1.27979 -3.70309 0
M  V30 1331 H 127.71 -1.6671 -3.64704 0
M  V30 1332 H 124.3 -2.98287 -3.07771 0
M  V30 1333 H 128.484 -3.95982 -2.99185 0
M  V30 1334 H 123.74 -5.37126 -2.92071 0
M  V30 1335 H 127.914 -6.35578 -2.84629 0
M  V30 1336 H 125.541 -7.06521 -2.80593 0
M  V30 1337 N 127.117 1.15442 -1.07289 0
M  V30 1338 C 128.363 1.86489 -0.796846 0
M  V30 1339 C 128.696 1.82078 0.675371 0
M  V30 1340 O 127.971 1.24346 1.4956 0
M  V30 1341 C 128.254 3.35626 -1.30489 0
M  V30 1342 C 128.107 3.48673 -2.84161 0
M  V30 1343 C 129.426 4.30357 -0.920907 0
M  V30 1344 H 126.545 0.677144 -0.290939 0
M  V30 1345 H 129.187 1.35633 -1.33056 0
M  V30 1346 H 127.337 3.79068 -0.850883 0
M  V30 1347 H 129.009 3.14099 -3.37846 0
M  V30 1348 H 127.252 2.90253 -3.22391 0
M  V30 1349 H 127.923 4.53453 -3.14777 0
M  V30 1350 H 130.399 3.94871 -1.3121 0
M  V30 1351 H 129.275 5.33193 -1.30372 0
M  V30 1352 H 129.536 4.4176 0.173226 0
M  V30 1353 N 128.595 0.856903 1.32268 0
M  V30 1354 C 129.843 0.460474 1.96784 0
M  V30 1355 C 130.164 -0.987701 1.68135 0
M  V30 1356 O 129.434 -1.69058 0.989765 0
M  V30 1357 H 128.014 0.167289 0.728027 0
M  V30 1358 H 130.676 1.09383 1.61312 0
M  V30 1359 H 129.772 0.60739 3.06133 0
M  V30 1360 N 130.073 -1.45103 0.615059 0
M  V30 1361 C 131.036 -2.29025 -0.0895485 0
M  V30 1362 C 132.036 -1.40174 -0.787906 0
M  V30 1363 O 133.226 -1.62217 -0.634933 0
M  V30 1364 C 130.358 -3.21376 -1.13711 0
M  V30 1365 H 131.551 -2.92807 0.648382 0
M  V30 1366 H 129.104 -1.51749 0.374444 0
M  V30 1367 H 129.839 -2.6241 -1.90556 0
M  V30 1368 H 129.624 -3.86834 -0.640475 0
M  V30 1369 H 131.114 -3.84459 -1.63036 0
M  V30 1370 N 131.551 -0.354651 -1.53558 0
M  V30 1371 C 132.776 0.242153 -2.05981 0
M  V30 1372 C 133.201 1.42553 -1.2272 0
M  V30 1373 O 132.559 1.79656 -0.243604 0
M  V30 1374 C 132.607 0.624367 -3.55154 0
M  V30 1375 O 131.711 1.72301 -3.74681 0
M  V30 1376 H 131.052 0.0378432 -0.662921 0
M  V30 1377 H 133.582 -0.512087 -1.98088 0
M  V30 1378 H 133.592 0.898433 -3.97985 0
M  V30 1379 H 132.267 -0.240989 -4.15201 0
M  V30 1380 H 130.844 1.44535 -3.4375 0
M  V30 1381 N 133.029 1.57378 -0.0835403 0
M  V30 1382 C 134.275 1.95025 0.577664 0
M  V30 1383 C 134.63 0.964049 1.66505 0
M  V30 1384 O 133.923 -0.0118235 1.91596 0
M  V30 1385 C 134.117 3.37063 1.1884 0
M  V30 1386 C 133.946 4.49409 0.16171 0
M  V30 1387 C 132.716 5.04642 -0.257756 0
M  V30 1388 C 134.914 5.10722 -0.605634 0
M  V30 1389 N 132.896 6.00537 -1.27393 0
M  V30 1390 C 134.267 6.02225 -1.47395 0
M  V30 1391 C 136.322 4.93501 -0.660418 0
M  V30 1392 C 135.025 6.78355 -2.39221 0
M  V30 1393 C 137.051 5.70283 -1.56623 0
M  V30 1394 C 136.413 6.61444 -2.4222 0
M  V30 1395 H 132.512 0.760512 0.182058 0
M  V30 1396 H 135.096 1.94013 -0.163419 0
M  V30 1397 H 133.267 3.3879 1.89936 0
M  V30 1398 H 134.999 3.61917 1.81103 0
M  V30 1399 H 131.754 4.73428 0.127702 0
M  V30 1400 H 132.178 6.53184 -1.77987 0
M  V30 1401 H 136.82 4.22798 -0.0128221 0
M  V30 1402 H 134.538 7.48327 -3.05011 0
M  V30 1403 H 138.124 5.58976 -1.61361 0
M  V30 1404 H 137.004 7.1982 -3.11174 0
M  V30 1405 N 134.507 -0.190092 1.56449 0
M  V30 1406 C 135.455 -1.25501 1.95837 0
M  V30 1407 C 136.449 -1.4685 0.844485 0
M  V30 1408 O 137.655 -1.47651 1.02952 0
M  V30 1409 H 134.03 -0.421447 0.622805 0
M  V30 1410 H 136.001 -0.895821 2.84636 0
M  V30 1411 C 134.75 -2.59124 2.31841 0
M  V30 1412 H 134.073 -2.43514 3.17082 0
M  V30 1413 H 135.513 -3.32371 2.6326 0
M  V30 1414 C 133.972 -3.16488 1.15486 0
M  V30 1415 O 134.502 -3.99365 0.432535 0
M  V30 1416 N 132.708 -2.75305 0.930349 0
M  V30 1417 H 132.255 -2.08013 1.51948 0
M  V30 1418 H 132.213 -3.14024 0.153634 0
M  V30 1419 N 135.985 -1.50799 -0.457987 0
M  V30 1420 C 136.917 -1.66786 -1.57211 0
M  V30 1421 C 137.93 -0.548962 -1.53265 0
M  V30 1422 O 139.119 -0.8226 -1.58416 0
M  V30 1423 C 136.219 -1.64834 -2.96113 0
M  V30 1424 C 135.392 -2.92971 -3.24787 0
M  V30 1425 C 134.451 -2.83485 -4.43309 0
M  V30 1426 O 133.477 -3.5744 -4.42973 0
M  V30 1427 N 134.679 -1.97929 -5.45714 0
M  V30 1428 H 137.444 -2.62889 -1.43909 0
M  V30 1429 H 135.005 -1.48427 -0.646617 0
M  V30 1430 H 136.997 -1.56084 -3.7339 0
M  V30 1431 H 135.567 -0.764118 -3.03117 0
M  V30 1432 H 134.787 -3.15749 -2.36 0
M  V30 1433 H 136.075 -3.77834 -3.40762 0
M  V30 1434 H 135.473 -1.37182 -5.48815 0
M  V30 1435 H 134.03 -1.95073 -6.21924 0
M  V30 1436 N 137.463 0.71206 -1.40597 0
M  V30 1437 C 138.874 1.29135 -1.34837 0
M  V30 1438 C 139.225 1.96186 -0.0235395 0
M  V30 1439 O 138.35 1.97768 0.878444 0
M  V30 1440 C 138.945 2.34827 -2.44217 0
M  V30 1441 C 137.504 2.88371 -2.41907 0
M  V30 1442 C 136.651 1.62202 -2.24913 0
M  V30 1443 H 139.602 0.507944 -1.50352 0
M  V30 1444 H 139.623 3.15749 -2.12327 0
M  V30 1445 H 139.135 1.85996 -3.40627 0
M  V30 1446 H 137.236 3.41422 -1.49204 0
M  V30 1447 H 137.349 3.39925 -3.37621 0
M  V30 1448 H 135.713 1.874 -1.72492 0
M  V30 1449 H 136.496 1.15391 -3.23326 0
M  V30 1450 N 138.941 1.26152 0.944643 0
M  V30 1451 C 140.187 1.11657 1.69294 0
M  V30 1452 C 140.52 -0.339926 1.91202 0
M  V30 1453 O 139.795 -1.24994 1.49019 0
M  V30 1454 C 140.078 1.88236 3.06984 0
M  V30 1455 C 139.931 3.41772 2.92424 0
M  V30 1456 C 141.25 1.67343 4.07043 0
M  V30 1457 H 138.369 0.407004 0.614424 0
M  V30 1458 H 141.011 1.55106 1.09737 0
M  V30 1459 H 139.161 1.51308 3.57824 0
M  V30 1460 H 140.833 3.88433 2.48832 0
M  V30 1461 H 139.076 3.68974 2.28124 0
M  V30 1462 H 139.747 3.90579 3.90067 0
M  V30 1463 H 142.223 1.99509 3.65151 0
M  V30 1464 H 141.099 2.23346 5.01406 0
M  V30 1465 H 141.36 0.617158 4.37771 0
M  V30 1466 N 140.419 -1.14872 1.07899 0
M  V30 1467 C 141.647 -1.89661 0.82683 0
M  V30 1468 C 142.062 -1.78312 -0.620519 0
M  V30 1469 O 141.419 -1.13888 -1.42604 0
M  V30 1470 C 141.47 -3.39817 1.23316 0
M  V30 1471 O 141.191 -3.50845 2.62372 0
M  V30 1472 C 142.692 -4.31615 1.0111 0
M  V30 1473 H 139.912 -0.60092 0.298557 0
M  V30 1474 H 142.456 -1.4551 1.43691 0
M  V30 1475 H 140.611 -3.8161 0.667286 0
M  V30 1476 H 141.025 -4.44076 2.79101 0
M  V30 1477 H 142.499 -5.35367 1.34486 0
M  V30 1478 H 142.976 -4.39169 -0.0522168 0
M  V30 1479 H 143.582 -3.95572 1.56215 0
M  V30 1480 N 141.898 -0.863906 -1.31812 0
M  V30 1481 C 143.126 -0.486111 -2.01108 0
M  V30 1482 C 143.541 0.919755 -1.64882 0
M  V30 1483 O 142.898 1.60162 -0.874893 0
M  V30 1484 C 142.949 -0.626435 -3.56031 0
M  V30 1485 O 142.67 -1.97693 -3.90959 0
M  V30 1486 C 144.171 -0.248857 -4.42601 0
M  V30 1487 H 141.391 -0.190052 -0.643523 0
M  V30 1488 H 143.935 -1.1634 -1.68182 0
M  V30 1489 H 142.09 0.00322717 -3.874 0
M  V30 1490 H 142.504 -1.98034 -4.85678 0
M  V30 1491 H 143.978 -0.398016 -5.50563 0
M  V30 1492 H 144.455 0.811489 -4.31638 0
M  V30 1493 H 145.061 -0.853971 -4.16638 0
M  V30 1494 N 143.376 1.44774 -0.622745 0
M  V30 1495 C 144.624 2.01721 -0.123655 0
M  V30 1496 C 144.945 1.49172 1.25589 0
M  V30 1497 O 144.215 0.691974 1.83272 0
M  V30 1498 H 142.795 0.745777 -0.0427225 0
M  V30 1499 H 145.457 1.77382 -0.807559 0
M  V30 1500 H 144.553 3.11984 -0.0849534 0
M  V30 1501 N 144.854 0.36279 1.53368 0
M  V30 1502 C 146.1 -0.228113 2.01513 0
M  V30 1503 C 146.433 -1.48648 1.2497 0
M  V30 1504 O 145.708 -1.91459 0.342616 0
M  V30 1505 C 145.991 -0.522884 3.56284 0
M  V30 1506 C 145.844 0.74892 4.43521 0
M  V30 1507 C 147.163 -1.32461 4.19693 0
M  V30 1508 H 144.282 -0.0814343 0.732487 0
M  V30 1509 H 146.924 0.48713 1.83649 0
M  V30 1510 H 145.074 -1.1322 3.71636 0
M  V30 1511 H 146.746 1.38648 4.39971 0
M  V30 1512 H 144.989 1.36986 4.11603 0
M  V30 1513 H 145.66 0.497667 5.49752 0
M  V30 1514 H 148.136 -0.809203 4.08156 0
M  V30 1515 H 147.012 -1.49961 5.28018 0
M  V30 1516 H 147.273 -2.33232 3.75573 0
M  V30 1517 N 146.332 -1.57332 0.0918853 0
M  V30 1518 C 147.578 -1.94524 -0.573425 0
M  V30 1519 C 147.911 -0.973578 -1.68033 0
M  V30 1520 O 147.186 -0.00609226 -1.94499 0
M  V30 1521 C 147.469 -3.41858 -1.13161 0
M  V30 1522 C 147.322 -4.4979 -0.0299747 0
M  V30 1523 C 148.641 -3.90435 -2.03098 0
M  V30 1524 H 145.76 -0.70734 -0.206975 0
M  V30 1525 H 148.402 -1.89309 0.161942 0
M  V30 1526 H 146.552 -3.46433 -1.7583 0
M  V30 1527 H 148.224 -4.57327 0.604112 0
M  V30 1528 H 146.467 -4.291 0.636833 0
M  V30 1529 H 147.138 -5.50069 -0.461287 0
M  V30 1530 H 149.614 -3.87992 -1.50338 0
M  V30 1531 H 148.49 -4.94097 -2.39081 0
M  V30 1532 H 148.751 -3.29541 -2.94712 0
M  V30 1533 N 147.81 0.181792 -1.56548 0
M  V30 1534 C 149.087 0.926765 -1.72251 0
M  V30 1535 C 149.467 2.00831 -0.650386 0
M  V30 1536 O 148.815 2.26008 0.336521 0
M  V30 1537 C 149.025 1.50106 -3.1507 0
M  V30 1538 C 150.373 1.97805 -3.75711 0
M  V30 1539 O 151.397 1.59922 -3.18282 0
M  V30 1540 O 150.256 2.67555 -4.76525 0
M  V30 1541 H 147.35 0.435506 -0.703039 0
M  V30 1542 H 149.896 0.170443 -1.68842 0
M  V30 1543 H 148.668 0.72212 -3.84579 0
M  V30 1544 H 148.291 2.32186 -3.22763 0
M  V30 1545 N 149.288 1.51039 0.449983 0
M  V30 1546 C 150.536 1.62759 1.19808 0
M  V30 1547 C 150.857 0.339981 1.92013 0
M  V30 1548 O 150.127 -0.643606 1.85026 0
M  V30 1549 H 148.707 0.599811 0.445237 0
M  V30 1550 H 151.369 1.87914 0.517138 0
M  V30 1551 H 150.465 2.44911 1.93455 0
M  V30 1552 N 150.766 -0.704594 1.40972 0
M  V30 1553 C 151.696 -1.83124 1.44872 0
M  V30 1554 C 152.677 -1.67281 0.30838 0
M  V30 1555 O 153.862 -1.87149 0.518556 0
M  V30 1556 C 150.992 -3.21181 1.32136 0
M  V30 1557 C 149.946 -3.51714 2.43888 0
M  V30 1558 C 149.272 -4.89032 2.16222 0
M  V30 1559 C 150.572 -3.516 3.86232 0
M  V30 1560 H 152.266 -1.80117 2.39161 0
M  V30 1561 H 149.812 -0.865145 1.15114 0
M  V30 1562 H 151.765 -3.99702 1.33479 0
M  V30 1563 H 150.489 -3.24791 0.343279 0
M  V30 1564 H 149.148 -2.75539 2.41813 0
M  V30 1565 H 148.796 -4.89256 1.16778 0
M  V30 1566 H 148.496 -5.10426 2.911 0
M  V30 1567 H 150.02 -5.69873 2.19265 0
M  V30 1568 H 151.434 -4.2014 3.9007 0
M  V30 1569 H 149.831 -3.84523 4.60719 0
M  V30 1570 H 150.901 -2.50757 4.15029 0
M  V30 1571 N 152.244 -1.26651 -0.937939 0
M  V30 1572 C 153.492 -1.12165 -1.68118 0
M  V30 1573 C 153.813 0.334983 -1.92101 0
M  V30 1574 O 153.083 1.23583 -1.52 0
M  V30 1575 H 151.663 -0.412093 -0.623048 0
M  V30 1576 H 154.325 -1.59027 -1.12678 0
M  V30 1577 H 153.421 -1.64289 -2.6536 0
M  V30 1578 N 153.722 1.14298 -1.08507 0
M  V30 1579 C 154.968 1.85633 -0.816581 0
M  V30 1580 C 155.301 1.82784 0.656021 0
M  V30 1581 O 154.576 1.25926 1.48233 0
M  V30 1582 C 154.859 3.34223 -1.34041 0
M  V30 1583 C 154.712 3.45639 -2.87843 0
M  V30 1584 C 156.031 4.29356 -0.9665 0
M  V30 1585 H 153.15 0.67402 -0.298104 0
M  V30 1586 H 155.792 1.34214 -1.34487 0
M  V30 1587 H 153.942 3.78144 -0.89104 0
M  V30 1588 H 155.614 3.10498 -3.41158 0
M  V30 1589 H 153.857 2.86817 -3.25451 0
M  V30 1590 H 154.528 4.50089 -3.19569 0
M  V30 1591 H 157.004 3.93457 -1.35391 0
M  V30 1592 H 155.88 5.3178 -1.3602 0
M  V30 1593 H 156.141 4.41919 0.126362 0
M  V30 1594 N 155.201 0.870884 1.31352 0
M  V30 1595 C 156.429 0.49677 2.00848 0
M  V30 1596 C 156.844 -0.910998 1.65367 0
M  V30 1597 O 156.201 -1.59696 0.883374 0
M  V30 1598 C 156.252 0.645308 3.55694 0
M  V30 1599 O 155.973 1.99764 3.89905 0
M  V30 1600 C 157.474 0.272326 4.42463 0
M  V30 1601 H 154.694 0.193462 0.642506 0
M  V30 1602 H 157.238 1.1723 1.67563 0
M  V30 1603 H 155.393 0.0173176 3.87396 0
M  V30 1604 H 155.807 2.00607 4.84621 0
M  V30 1605 H 157.281 0.427208 5.50344 0
M  V30 1606 H 157.758 -0.788587 4.32062 0
M  V30 1607 H 158.364 0.876054 4.1618 0
M  V30 1608 N 156.679 -1.44442 0.630414 0
M  V30 1609 C 157.629 -2.27794 -0.0968103 0
M  V30 1610 C 158.613 -1.38624 -0.816834 0
M  V30 1611 O 159.805 -1.62438 -0.70306 0
M  V30 1612 C 156.934 -3.25929 -1.07819 0
M  V30 1613 C 156.02 -4.22588 -0.357826 0
M  V30 1614 N 156.411 -5.0207 0.613169 0
M  V30 1615 C 154.709 -4.41914 -0.602365 0
M  V30 1616 C 155.41 -5.72351 1.03871 0
M  V30 1617 N 154.386 -5.42287 0.377642 0
M  V30 1618 H 158.188 -2.86653 0.648621 0
M  V30 1619 H 155.702 -1.55871 0.455862 0
M  V30 1620 H 157.699 -3.84399 -1.61378 0
M  V30 1621 H 156.359 -2.68631 -1.82393 0
M  V30 1622 H 157.37 -5.08331 0.990947 0
M  V30 1623 H 154.047 -3.95714 -1.33103 0
M  V30 1624 H 155.437 -6.4619 1.84086 0
M  V30 1625 N 158.157 -0.370918 -1.53173 0
M  V30 1626 C 159.087 0.464847 -2.28826 0
M  V30 1627 C 160.068 1.07936 -1.31468 0
M  V30 1628 O 161.253 1.0956 -1.60344 0
M  V30 1629 C 158.383 1.60196 -3.08147 0
M  V30 1630 C 157.337 1.11443 -4.13237 0
M  V30 1631 C 156.663 2.3422 -4.80672 0
M  V30 1632 C 157.963 0.195384 -5.21934 0
M  V30 1633 H 159.657 -0.166329 -2.98938 0
M  V30 1634 H 157.203 -0.0814359 -1.4377 0
M  V30 1635 H 159.156 2.19332 -3.59822 0
M  V30 1636 H 157.88 2.26045 -2.35735 0
M  V30 1637 H 156.539 0.545727 -3.62515 0
M  V30 1638 H 156.187 2.98537 -4.04827 0
M  V30 1639 H 155.887 2.02269 -5.51689 0
M  V30 1640 H 157.411 2.94032 -5.35143 0
M  V30 1641 H 158.825 0.694375 -5.69079 0
M  V30 1642 H 157.222 -0.0335027 -6.00091 0
M  V30 1643 H 158.292 -0.760961 -4.78892 0
M  V30 1644 N 159.635 1.57281 -0.100228 0
M  V30 1645 C 160.565 2.17328 0.853857 0
M  V30 1646 C 161.546 1.10804 1.2906 0
M  V30 1647 O 162.731 1.38963 1.35657 0
M  V30 1648 C 159.861 2.75772 2.11109 0
M  V30 1649 C 158.815 3.87713 1.81279 0
M  V30 1650 C 158.141 4.32882 3.13874 0
M  V30 1651 C 159.441 5.10677 1.09574 0
M  V30 1652 H 161.135 2.97305 0.353545 0
M  V30 1653 H 158.681 1.43009 0.168612 0
M  V30 1654 H 160.634 3.16433 2.78296 0
M  V30 1655 H 159.358 1.93057 2.63432 0
M  V30 1656 H 158.017 3.476 1.16489 0
M  V30 1657 H 157.665 3.47051 3.64095 0
M  V30 1658 H 157.365 5.08358 2.94696 0
M  V30 1659 H 158.889 4.7618 3.82211 0
M  V30 1660 H 160.303 5.48474 1.66879 0
M  V30 1661 H 158.7 5.91615 1.00557 0
M  V30 1662 H 159.77 4.84835 0.0793299 0
M  V30 1663 N 161.113 -0.173488 1.56642 0
M  V30 1664 C 162.023 -1.23482 1.99473 0
M  V30 1665 C 163.039 -1.48567 0.905752 0
M  V30 1666 O 164.215 -1.60758 1.21321 0
M  V30 1667 C 161.28 -2.55444 2.34413 0
M  V30 1668 C 160.341 -2.38241 3.57127 0
M  V30 1669 C 159.574 -3.63909 3.90392 0
M  V30 1670 O 159.797 -4.68996 3.24653 0
M  V30 1671 O 158.731 -3.58149 4.83749 0
M  V30 1672 H 162.557 -0.901279 2.90018 0
M  V30 1673 H 160.142 -0.380185 1.44482 0
M  V30 1674 H 162.024 -3.33292 2.57865 0
M  V30 1675 H 160.699 -2.88382 1.4703 0
M  V30 1676 H 159.606 -1.58431 3.38896 0
M  V30 1677 H 160.939 -2.10228 4.45045 0
M  V30 1678 N 162.591 -1.51276 -0.441967 0
M  V30 1679 C 163.554 -1.7167 -1.51862 0
M  V30 1680 C 164.554 -0.586793 -1.49711 0
M  V30 1681 O 165.744 -0.854276 -1.51815 0
M  V30 1682 C 162.876 -1.76889 -2.91416 0
M  V30 1683 H 164.069 -2.67754 -1.35084 0
M  V30 1684 H 161.622 -1.41196 -0.670333 0
M  V30 1685 H 162.357 -0.826026 -3.13604 0
M  V30 1686 H 162.142 -2.59001 -2.94382 0
M  V30 1687 H 163.632 -1.94522 -3.69528 0
M  V30 1688 N 164.069 0.697108 -1.41344 0
M  V30 1689 C 165.318 1.45279 -1.39918 0
M  V30 1690 C 165.631 1.95597 -0.0109624 0
M  V30 1691 O 166.837 2.71208 0.125919 0
M  V30 1692 C 165.293 2.62695 -2.46007 0
M  V30 1693 C 164.901 2.19169 -3.90729 0
M  V30 1694 C 166.645 3.40336 -2.53715 0
M  V30 1695 C 164.552 3.33535 -4.88373 0
M  V30 1696 H 163.482 0.545692 -0.520323 0
M  V30 1697 H 166.133 0.756929 -1.67161 0
M  V30 1698 H 164.515 3.34541 -2.11892 0
M  V30 1699 H 165.689 1.54623 -4.34083 0
M  V30 1700 H 164.004 1.54525 -3.86666 0
M  V30 1701 H 166.601 4.2547 -3.2385 0
M  V30 1702 H 166.944 3.85418 -1.5735 0
M  V30 1703 H 167.477 2.75546 -2.86913 0
M  V30 1704 H 164.216 2.93468 -5.86137 0
M  V30 1705 H 163.736 3.96936 -4.49668 0
M  V30 1706 H 165.415 3.99335 -5.09059 0
M  V30 1707 N 165.547 1.27147 0.931209 0
M  V30 1708 C 166.963 1.04475 1.20653 0
M  V30 1709 C 167.163 -0.223885 2.00252 0
M  V30 1710 O 166.219 -0.930332 2.34736 0
M  V30 1711 C 167.532 2.28209 1.95809 0
M  V30 1712 C 169.08 2.33211 2.08762 0
M  V30 1713 C 169.555 3.56665 2.87323 0
M  V30 1714 N 171.046 3.57201 2.94892 0
M  V30 1715 C 171.781 4.49395 3.56134 0
M  V30 1716 N 171.277 5.51889 4.18796 0
M  V30 1717 N 173.07 4.37026 3.53504 0
M  V30 1718 H 165.221 2.08612 0.399333 0
M  V30 1719 H 167.484 0.917312 0.239253 0
M  V30 1720 H 167.19 3.20538 1.44736 0
M  V30 1721 H 167.064 2.33247 2.96438 0
M  V30 1722 H 169.451 1.41391 2.59023 0
M  V30 1723 H 169.532 2.32178 1.07364 0
M  V30 1724 H 169.176 4.4882 2.37746 0
M  V30 1725 H 169.106 3.54948 3.88998 0
M  V30 1726 H 171.597 2.83074 2.50354 0
M  V30 1727 H 171.91 6.18409 4.63454 0
M  V30 1728 H 170.255 5.55735 4.17353 0
M  V30 1729 H 173.446 3.56166 3.03749 0
M  V30 1730 H 173.619 5.09067 4.00942 0
M  V30 1731 N 167.025 -1.13721 1.09112 0
M  V30 1732 C 167.957 -2.1871 0.685467 0
M  V30 1733 C 168.97 -1.60527 -0.271068 0
M  V30 1734 O 170.159 -1.78407 -0.0576148 0
M  V30 1735 C 167.259 -3.38898 -0.0111255 0
M  V30 1736 C 166.432 -4.26597 0.966131 0
M  V30 1737 C 165.491 -5.25324 0.303539 0
M  V30 1738 O 164.517 -5.61213 0.950177 0
M  V30 1739 N 165.719 -5.72779 -0.943651 0
M  V30 1740 H 168.484 -2.54126 1.58871 0
M  V30 1741 H 166.045 -1.29012 0.978143 0
M  V30 1742 H 168.037 -4.02014 -0.465517 0
M  V30 1743 H 166.607 -3.01747 -0.816565 0
M  V30 1744 H 165.827 -3.60306 1.59917 0
M  V30 1745 H 167.115 -4.82048 1.6281 0
M  V30 1746 H 166.513 -5.45762 -1.48862 0
M  V30 1747 H 165.07 -6.37847 -1.34142 0
M  V30 1748 N 168.503 -0.877838 -1.30888 0
M  V30 1749 C 169.75 -0.492696 -1.96415 0
M  V30 1750 C 170.078 0.956671 -1.69346 0
M  V30 1751 O 169.333 1.68993 -0.986913 0
M  V30 1752 C 169.632 -0.705748 -3.50363 0
M  V30 1753 C 169.298 -2.1291 -3.97467 0
M  V30 1754 C 167.96 -2.51834 -4.1004 0
M  V30 1755 C 170.312 -3.05702 -4.22132 0
M  V30 1756 C 167.64 -3.82775 -4.44635 0
M  V30 1757 C 169.992 -4.36166 -4.58194 0
M  V30 1758 C 168.656 -4.74993 -4.68975 0
M  V30 1759 H 167.926 -0.18029 -0.718733 0
M  V30 1760 H 170.573 -1.11233 -1.55883 0
M  V30 1761 H 168.878 -0.00303058 -3.918 0
M  V30 1762 H 170.575 -0.387456 -3.99124 0
M  V30 1763 H 167.165 -1.81694 -3.88182 0
M  V30 1764 H 171.349 -2.76853 -4.11906 0
M  V30 1765 H 166.605 -4.12609 -4.51181 0
M  V30 1766 H 170.779 -5.08111 -4.76231 0
M  V30 1767 H 168.406 -5.76495 -4.95537 0
M  V30 1768 N 169.982 1.44106 -0.638065 0
M  V30 1769 C 171.207 2.0685 -0.150916 0
M  V30 1770 C 171.632 1.47417 1.16833 0
M  V30 1771 O 170.99 0.578264 1.71831 0
M  V30 1772 C 171.038 3.60555 -0.05708 0
M  V30 1773 O 170.142 4.00465 0.984972 0
M  V30 1774 H 169.483 0.658151 -0.0879399 0
M  V30 1775 H 172.013 1.84865 -0.876707 0
M  V30 1776 H 172.023 4.07789 0.131232 0
M  V30 1777 H 170.698 4.03193 -1.02021 0
M  V30 1778 H 169.275 3.64849 0.770672 0
M  V30 1779 N 171.46 0.379036 1.52974 0
M  V30 1780 C 172.871 -0.0972525 1.86447 0
M  V30 1781 C 173.222 -1.47027 1.29914 0
M  V30 1782 O 172.347 -2.07135 0.626433 0
M  V30 1783 C 172.942 -0.183248 3.38304 0
M  V30 1784 C 171.501 -0.603812 3.71525 0
M  V30 1785 C 170.648 0.240632 2.76254 0
M  V30 1786 H 173.599 0.597316 1.4703 0
M  V30 1787 H 173.62 -1.00432 3.67006 0
M  V30 1788 H 173.132 0.816191 3.79421 0
M  V30 1789 H 171.233 -1.61099 3.35973 0
M  V30 1790 H 171.346 -0.369086 4.77676 0
M  V30 1791 H 169.71 -0.292548 2.53014 0
M  V30 1792 H 170.493 1.23786 3.20206 0
M  V30 1793 N 172.938 -1.57226 0.108567 0
M  V30 1794 C 173.848 -2.18292 -0.859401 0
M  V30 1795 C 174.864 -1.15612 -1.30038 0
M  V30 1796 O 176.04 -1.48039 -1.36552 0
M  V30 1797 C 173.105 -2.762 -2.09558 0
M  V30 1798 C 172.166 -3.93881 -1.70752 0
M  V30 1799 C 171.399 -4.49018 -2.88477 0
M  V30 1800 O 171.622 -4.03068 -4.036 0
M  V30 1801 O 170.556 -5.39852 -2.66164 0
M  V30 1802 H 174.382 -3.01441 -0.369769 0
M  V30 1803 H 171.967 -1.48945 -0.1165 0
M  V30 1804 H 173.849 -3.13156 -2.81978 0
M  V30 1805 H 172.524 -1.96089 -2.57548 0
M  V30 1806 H 171.431 -3.61713 -0.954714 0
M  V30 1807 H 172.764 -4.75396 -1.27513 0
M  V30 1808 N 174.416 0.165178 -1.56732 0
M  V30 1809 C 175.644 0.896218 -1.86482 0
M  V30 1810 C 176.059 1.75555 -0.694675 0
M  V30 1811 O 175.416 1.79379 0.33607 0
M  V30 1812 C 175.467 1.76792 -3.1532 0
M  V30 1813 O 175.188 0.943239 -4.27825 0
M  V30 1814 C 176.689 2.6081 -3.58459 0
M  V30 1815 H 173.909 0.260064 -0.618553 0
M  V30 1816 H 176.453 0.163428 -2.03846 0
M  V30 1817 H 174.608 2.45398 -2.99764 0
M  V30 1818 H 175.022 1.53998 -5.01383 0
M  V30 1819 H 176.496 3.17579 -4.51495 0
M  V30 1820 H 176.973 3.35977 -2.82872 0
M  V30 1821 H 177.579 1.97526 -3.76648 0
M  V30 1822 N 175.894 1.51508 0.433938 0
M  V30 1823 C 177.31 1.39759 0.770682 0
M  V30 1824 C 177.51 0.482594 1.95636 0
M  V30 1825 O 176.566 -0.0609691 2.52426 0
M  V30 1826 C 177.879 2.81851 1.04787 0
M  V30 1827 C 179.427 2.91025 1.1521 0
M  V30 1828 C 179.902 4.34032 1.46219 0
M  V30 1829 N 181.393 4.37154 1.53136 0
M  V30 1830 C 182.128 5.4484 1.78709 0
M  V30 1831 N 181.624 6.62682 2.02051 0
M  V30 1832 N 183.417 5.32324 1.80519 0
M  V30 1833 H 175.568 2.09548 -0.346892 0
M  V30 1834 H 177.831 0.943446 -0.0928074 0
M  V30 1835 H 177.537 3.50815 0.249304 0
M  V30 1836 H 177.411 3.21386 1.97461 0
M  V30 1837 H 179.798 2.22257 1.94128 0
M  V30 1838 H 179.879 2.54983 0.204281 0
M  V30 1839 H 179.523 5.03351 0.678274 0
M  V30 1840 H 179.453 4.6759 2.42212 0
M  V30 1841 H 181.944 3.52197 1.36987 0
M  V30 1842 H 182.257 7.40543 2.20943 0
M  V30 1843 H 180.602 6.65791 1.99366 0
M  V30 1844 H 183.793 4.39246 1.61805 0
M  V30 1845 H 183.966 6.16328 2.00111 0
M  V30 1846 N 177.372 -0.689602 1.41712 0
M  V30 1847 C 178.619 -1.44966 1.4139 0
M  V30 1848 C 178.947 -1.94484 0.025105 0
M  V30 1849 O 178.202 -1.70307 -0.964048 0
M  V30 1850 C 178.501 -2.67298 2.37247 0
M  V30 1851 C 178.167 -2.36405 3.83958 0
M  V30 1852 C 176.829 -2.27691 4.23923 0
M  V30 1853 C 179.181 -2.11043 4.76561 0
M  V30 1854 C 176.509 -1.91719 5.54492 0
M  V30 1855 C 178.861 -1.76578 6.07456 0
M  V30 1856 C 177.525 -1.66363 6.46436 0
M  V30 1857 H 176.795 -0.53047 0.517381 0
M  V30 1858 H 179.442 -0.787655 1.74552 0
M  V30 1859 H 177.747 -3.38461 1.9736 0
M  V30 1860 H 179.444 -3.25452 2.34269 0
M  V30 1861 H 176.034 -2.44085 3.52308 0
M  V30 1862 H 180.218 -2.16717 4.46483 0
M  V30 1863 H 175.474 -1.82367 5.83568 0
M  V30 1864 H 179.648 -1.55974 6.78708 0
M  V30 1865 H 177.275 -1.38258 7.47522 0
M  V30 1866 N 178.85 -1.27639 -0.924453 0
M  V30 1867 C 180.08 -1.16819 -1.70402 0
M  V30 1868 C 180.488 0.277191 -1.87158 0
M  V30 1869 O 179.831 1.20025 -1.39067 0
M  V30 1870 C 179.893 -1.78305 -3.12166 0
M  V30 1871 C 179.557 -3.27502 -3.18734 0
M  V30 1872 C 180.554 -4.2409 -3.00738 0
M  V30 1873 C 178.239 -3.68269 -3.4159 0
M  V30 1874 C 180.233 -5.59422 -3.05492 0
M  V30 1875 C 177.92 -5.0373 -3.45977 0
M  V30 1876 C 178.918 -5.99116 -3.27946 0
M  V30 1877 O 178.606 -7.32108 -3.32074 0
M  V30 1878 H 178.338 -0.406931 -0.539799 0
M  V30 1879 H 180.892 -1.69078 -1.16626 0
M  V30 1880 H 179.122 -1.20528 -3.67437 0
M  V30 1881 H 180.811 -1.62154 -3.72103 0
M  V30 1882 H 181.577 -3.93931 -2.82919 0
M  V30 1883 H 177.456 -2.94496 -3.54673 0
M  V30 1884 H 181 -6.33852 -2.91337 0
M  V30 1885 H 176.897 -5.33543 -3.63321 0
M  V30 1886 H 177.665 -7.40598 -3.48507 0
M  V30 1887 N 180.328 1.1314 -1.09713 0
M  V30 1888 C 181.26 2.18343 -0.697056 0
M  V30 1889 C 182.273 1.60669 0.262551 0
M  V30 1890 O 183.462 1.78435 0.0481527 0
M  V30 1891 C 180.562 3.38899 -0.00684728 0
M  V30 1892 C 179.735 4.26078 -0.988741 0
M  V30 1893 C 178.794 5.25155 -0.331394 0
M  V30 1894 O 177.82 5.60701 -0.979926 0
M  V30 1895 N 179.022 5.73271 0.913261 0
M  V30 1896 H 181.787 2.5328 -1.60216 0
M  V30 1897 H 179.348 1.28491 -0.984971 0
M  V30 1898 H 181.34 4.02255 0.444191 0
M  V30 1899 H 179.91 3.02175 0.800551 0
M  V30 1900 H 179.13 3.59453 -1.61826 0
M  V30 1901 H 180.418 4.81178 -1.65364 0
M  V30 1902 H 179.816 5.46544 1.45966 0
M  V30 1903 H 178.373 6.3855 1.30757 0
M  V30 1904 N 181.806 0.884767 1.30421 0
M  V30 1905 C 182.769 0.356277 2.26414 0
M  V30 1906 C 183.769 -0.501124 1.52792 0
M  V30 1907 O 184.959 -0.30831 1.7145 0
M  V30 1908 C 182.091 -0.492316 3.37326 0
M  V30 1909 H 183.284 1.20389 2.74675 0
M  V30 1910 H 180.837 0.661607 1.41607 0
M  V30 1911 H 181.572 -1.36052 2.94381 0
M  V30 1912 H 181.357 0.121832 3.91911 0
M  V30 1913 H 182.847 -0.853871 4.08777 0
M  V30 1914 N 183.284 -1.43765 0.645699 0
M  V30 1915 C 184.509 -2.06767 0.161883 0
M  V30 1916 C 184.934 -1.48034 -1.16049 0
M  V30 1917 O 184.292 -0.587369 -1.71522 0
M  V30 1918 C 184.34 -3.60519 0.0762003 0
M  V30 1919 O 183.444 -4.00982 -0.963721 0
M  V30 1920 H 182.785 -0.657675 0.091429 0
M  V30 1921 H 185.315 -1.84397 0.886499 0
M  V30 1922 H 185.325 -4.07853 -0.109604 0
M  V30 1923 H 184 -4.02646 1.04157 0
M  V30 1924 H 182.577 -3.65253 -0.751312 0
M  V30 1925 N 184.763 -0.387143 -1.52771 0
M  V30 1926 C 185.991 0.195869 -2.05971 0
M  V30 1927 C 186.406 1.40691 -1.25903 0
M  V30 1928 O 185.763 1.79931 -0.305134 0
M  V30 1929 C 185.814 0.56812 -3.57008 0
M  V30 1930 O 185.535 -0.594803 -4.34043 0
M  V30 1931 C 187.036 1.20723 -4.26545 0
M  V30 1932 H 184.256 0.0300578 -0.670326 0
M  V30 1933 H 186.8 -0.551749 -1.96916 0
M  V30 1934 H 184.955 1.26564 -3.66143 0
M  V30 1935 H 185.369 -0.289322 -5.23701 0
M  V30 1936 H 186.843 1.41807 -5.33474 0
M  V30 1937 H 187.32 2.17395 -3.81623 0
M  V30 1938 H 187.926 0.550535 -4.21722 0
M  V30 1939 N 186.241 1.57166 -0.116904 0
M  V30 1940 C 187.466 1.999 0.55271 0
M  V30 1941 C 187.891 0.996039 1.59564 0
M  V30 1942 O 187.249 -0.032556 1.81271 0
M  V30 1943 C 187.297 3.4152 1.15742 0
M  V30 1944 O 186.401 3.44106 2.27299 0
M  V30 1945 H 185.742 0.649447 0.138258 0
M  V30 1946 H 188.272 2.03573 -0.204759 0
M  V30 1947 H 188.282 3.79684 1.49346 0
M  V30 1948 H 186.957 4.14034 0.393493 0
M  V30 1949 H 185.534 3.17759 1.9515 0
M  V30 1950 N 187.719 -0.156864 1.56817 0
M  V30 1951 C 188.629 -1.2136 2.00771 0
M  V30 1952 C 189.645 -1.47598 0.921459 0
M  V30 1953 O 190.821 -1.59462 1.2302 0
M  V30 1954 C 187.886 -2.52943 2.37109 0
M  V30 1955 C 186.947 -2.34439 3.59634 0
M  V30 1956 C 186.18 -3.59748 3.94229 0
M  V30 1957 O 186.403 -4.65526 3.29609 0
M  V30 1958 O 185.337 -3.52998 4.8752 0
M  V30 1959 H 189.163 -0.870468 2.90958 0
M  V30 1960 H 186.748 -0.36484 1.44877 0
M  V30 1961 H 188.63 -3.30538 2.61386 0
M  V30 1962 H 187.305 -2.86806 1.5008 0
M  V30 1963 H 186.212 -1.54828 3.40557 0
M  V30 1964 H 187.545 -2.05496 4.4725 0
M  V30 1965 N 189.197 -1.51736 -0.425897 0
M  V30 1966 C 190.13 -1.68574 -1.53812 0
M  V30 1967 C 191.108 -0.53328 -1.53606 0
M  V30 1968 O 192.292 -0.758555 -1.72564 0
M  V30 1969 C 189.419 -1.70977 -2.92377 0
M  V30 1970 C 188.465 -2.92324 -3.10563 0
M  V30 1971 S 189.298 -4.52952 -2.85648 0
M  V30 1972 C 190.454 -4.58117 -4.26474 0
M  V30 1973 H 190.687 -2.62647 -1.39298 0
M  V30 1974 H 188.22 -1.41564 -0.616361 0
M  V30 1975 H 190.178 -1.73047 -3.72243 0
M  V30 1976 H 188.839 -0.78061 -3.04245 0
M  V30 1977 H 188.032 -2.90439 -4.11899 0
M  V30 1978 H 187.634 -2.88055 -2.38538 0
M  V30 1979 H 189.926 -4.34462 -5.19855 0
M  V30 1980 H 190.869 -5.59983 -4.33388 0
M  V30 1981 H 191.277 -3.8732 -4.10662 0
M  V30 1982 N 190.675 0.682077 -1.42076 0
M  V30 1983 C 191.922 1.44215 -1.42156 0
M  V30 1984 C 192.25 1.94468 -0.0354186 0
M  V30 1985 O 191.505 1.70816 0.955002 0
M  V30 1986 C 191.804 2.66036 -2.38662 0
M  V30 1987 C 191.47 2.34366 -3.85206 0
M  V30 1988 C 190.132 2.25439 -4.25124 0
M  V30 1989 C 192.484 2.08513 -4.77673 0
M  V30 1990 C 189.812 1.88775 -5.55501 0
M  V30 1991 C 192.164 1.73354 -6.08384 0
M  V30 1992 C 190.828 1.62933 -6.47309 0
M  V30 1993 H 190.098 0.527718 -0.520187 0
M  V30 1994 H 192.745 0.778387 -1.74967 0
M  V30 1995 H 191.05 3.3741 -1.99152 0
M  V30 1996 H 192.747 3.24205 -2.35991 0
M  V30 1997 H 189.337 2.42213 -3.53597 0
M  V30 1998 H 193.521 2.14346 -4.47626 0
M  V30 1999 H 188.777 1.7927 -5.84527 0
M  V30 2000 H 192.951 1.52373 -6.79526 0
M  V30 2001 H 190.578 1.34292 -7.48244 0
M  V30 2002 N 192.153 1.28127 0.917671 0
M  V30 2003 C 193.401 1.14825 1.66312 0
M  V30 2004 C 193.722 -0.304379 1.9261 0
M  V30 2005 O 192.992 -1.21149 1.53947 0
M  V30 2006 H 191.572 0.421953 0.616413 0
M  V30 2007 H 194.234 1.608 1.10134 0
M  V30 2008 H 193.33 1.68489 2.62712 0
M  V30 2009 N 193.631 -1.12557 1.10312 0
M  V30 2010 C 194.561 -2.20341 0.772798 0
M  V30 2011 C 195.542 -1.68198 -0.25365 0
M  V30 2012 O 196.727 -1.93831 -0.119699 0
M  V30 2013 C 193.857 -3.46709 0.202443 0
M  V30 2014 C 192.811 -4.11996 1.15943 0
M  V30 2015 C 192.137 -5.328 0.450345 0
M  V30 2016 C 193.437 -4.5828 2.50552 0
M  V30 2017 H 195.131 -2.48229 1.674 0
M  V30 2018 H 192.677 -1.19308 0.806326 0
M  V30 2019 H 194.63 -4.2138 -0.0407752 0
M  V30 2020 H 193.354 -3.18245 -0.734001 0
M  V30 2021 H 192.013 -3.39305 1.38808 0
M  V30 2022 H 191.661 -5.00602 -0.490531 0
M  V30 2023 H 191.361 -5.7743 1.08851 0
M  V30 2024 H 192.885 -6.10219 0.215642 0
M  V30 2025 H 194.299 -5.2433 2.31843 0
M  V30 2026 H 192.696 -5.13683 3.10242 0
M  V30 2027 H 193.766 -3.72329 3.10643 0
M  V30 2028 N 195.109 -0.891671 -1.2995 0
M  V30 2029 C 196.358 -0.509521 -1.95158 0
M  V30 2030 C 196.671 0.947388 -1.71125 0
M  V30 2031 O 197.877 1.43669 -2.30372 0
M  V30 2032 C 196.333 -0.860315 -3.49466 0
M  V30 2033 C 195.941 -2.33545 -3.8231 0
M  V30 2034 C 197.685 -0.547687 -4.20952 0
M  V30 2035 C 195.592 -2.62752 -5.29826 0
M  V30 2036 H 194.522 -0.18682 -0.730489 0
M  V30 2037 H 197.173 -1.08756 -1.47798 0
M  V30 2038 H 195.555 -0.211285 -3.95436 0
M  V30 2039 H 196.729 -3.02936 -3.47227 0
M  V30 2040 H 195.044 -2.61629 -3.23944 0
M  V30 2041 H 197.641 -0.742854 -5.29515 0
M  V30 2042 H 197.984 0.51332 -4.13123 0
M  V30 2043 H 198.517 -1.1542 -3.80688 0
M  V30 2044 H 195.256 -3.6762 -5.42712 0
M  V30 2045 H 194.776 -1.97977 -5.66185 0
M  V30 2046 H 196.455 -2.48601 -5.97333 0
M  V30 2047 N 196.587 1.43421 -0.653314 0
M  V30 2048 C 197.519 2.29071 0.0769134 0
M  V30 2049 C 198.532 1.42513 0.787017 0
M  V30 2050 O 199.721 1.66449 0.644757 0
M  V30 2051 C 196.821 3.19436 1.13199 0
M  V30 2052 C 195.994 4.34533 0.500006 0
M  V30 2053 C 195.053 5.05771 1.45198 0
M  V30 2054 O 194.079 5.61037 0.960538 0
M  V30 2055 N 195.281 5.0928 2.78594 0
M  V30 2056 H 198.046 2.92382 -0.658235 0
M  V30 2057 H 195.607 1.54112 -0.496104 0
M  V30 2058 H 197.599 3.63958 1.76964 0
M  V30 2059 H 196.169 2.57724 1.7691 0
M  V30 2060 H 195.389 3.92925 -0.316738 0
M  V30 2061 H 196.677 5.08766 0.0588345 0
M  V30 2062 H 196.075 4.65751 3.2108 0
M  V30 2063 H 194.632 5.57519 3.37662 0
M  V30 2064 N 198.065 0.39524 1.52563 0
M  V30 2065 C 199.028 -0.425001 2.25225 0
M  V30 2066 C 200.028 -0.985266 1.27079 0
M  V30 2067 O 201.218 -0.866332 1.5113 0
M  V30 2068 C 198.35 -1.59686 3.01186 0
M  V30 2069 H 199.543 0.211233 2.99155 0
M  V30 2070 H 197.096 0.147472 1.55603 0
M  V30 2071 H 197.831 -2.27035 2.31572 0
M  V30 2072 H 197.616 -1.20176 3.73229 0
M  V30 2073 H 199.106 -2.17743 3.5634 0
M  V30 2074 N 199.544 -1.57102 0.125237 0
M  V30 2075 C 200.454 -2.19191 -0.8362 0
M  V30 2076 C 201.47 -1.16985 -1.28805 0
M  V30 2077 O 202.646 -1.49479 -1.34974 0
M  V30 2078 C 199.711 -2.78407 -2.06617 0
M  V30 2079 C 198.772 -3.9567 -1.66565 0
M  V30 2080 C 198.005 -4.52052 -2.83698 0
M  V30 2081 O 198.228 -4.07326 -3.99302 0
M  V30 2082 O 197.162 -5.42645 -2.60423 0
M  V30 2083 H 200.988 -3.01816 -0.337776 0
M  V30 2084 H 198.573 -1.4906 -0.100695 0
M  V30 2085 H 200.455 -3.16129 -2.7864 0
M  V30 2086 H 199.13 -1.9881 -2.55453 0
M  V30 2087 H 198.037 -3.62705 -0.916296 0
M  V30 2088 H 199.37 -4.76722 -1.22464 0
M  V30 2089 N 201.022 0.148545 -1.56898 0
M  V30 2090 C 202.438 0.501131 -1.51528 0
M  V30 2091 C 202.638 1.83458 -0.833399 0
M  V30 2092 O 201.694 2.49259 -0.40328 0
M  V30 2093 C 203.007 0.512864 -2.96294 0
M  V30 2094 C 204.555 0.598487 -3.07225 0
M  V30 2095 C 205.03 0.640897 -4.53494 0
M  V30 2096 N 206.521 0.703163 -4.57832 0
M  V30 2097 C 207.256 0.756935 -5.68382 0
M  V30 2098 N 206.752 0.770147 -6.88506 0
M  V30 2099 N 208.545 0.797698 -5.56411 0
M  V30 2100 H 200.696 -0.725532 -1.99624 0
M  V30 2101 H 202.959 -0.264358 -0.910395 0
M  V30 2102 H 202.665 -0.398691 -3.49433 0
M  V30 2103 H 202.539 1.35133 -3.52163 0
M  V30 2104 H 204.926 1.50046 -2.54106 0
M  V30 2105 H 205.007 -0.267093 -2.54402 0
M  V30 2106 H 204.651 -0.256915 -5.0725 0
M  V30 2107 H 204.581 1.52295 -5.04097 0
M  V30 2108 H 207.072 0.700314 -3.71354 0
M  V30 2109 H 207.385 0.812983 -7.68512 0
M  V30 2110 H 205.73 0.738049 -6.9107 0
M  V30 2111 H 208.921 0.784535 -4.61479 0
M  V30 2112 H 209.094 0.83614 -6.42583 0
M  V30 2113 N 202.5 1.5196 0.417844 0
M  V30 2114 C 203.432 1.70895 1.52733 0
M  V30 2115 C 204.445 0.589405 1.51756 0
M  V30 2116 O 205.634 0.864312 1.56179 0
M  V30 2117 C 202.734 1.72627 2.91639 0
M  V30 2118 C 201.907 3.01479 3.16905 0
M  V30 2119 C 200.966 2.95139 4.35637 0
M  V30 2120 O 199.992 3.69059 4.3334 0
M  V30 2121 N 201.194 2.12328 5.40275 0
M  V30 2122 H 203.959 2.66612 1.36888 0
M  V30 2123 H 201.52 1.50089 0.607037 0
M  V30 2124 H 203.512 1.65928 3.6912 0
M  V30 2125 H 202.082 0.844216 3.00985 0
M  V30 2126 H 201.302 3.21895 2.27546 0
M  V30 2127 H 202.59 3.86736 3.30625 0
M  V30 2128 H 201.988 1.51685 5.44985 0
M  V30 2129 H 200.545 2.11494 6.16534 0
M  V30 2130 N 203.978 -0.674533 1.42435 0
M  V30 2131 C 205.255 -1.4305 1.33402 0
M  V30 2132 C 205.635 -2.11081 -0.0284674 0
M  V30 2133 O 204.983 -2.03257 -1.04397 0
M  V30 2134 C 205.193 -2.43272 2.50239 0
M  V30 2135 C 206.541 -3.07907 2.92367 0
M  V30 2136 O 207.565 -2.53599 2.50132 0
M  V30 2137 O 206.424 -4.0632 3.65467 0
M  V30 2138 H 203.518 -0.638076 0.526106 0
M  V30 2139 H 206.064 -0.703235 1.54443 0
M  V30 2140 H 204.836 -1.91803 3.41068 0
M  V30 2141 H 204.459 -3.23479 2.31186 0
M  V30 2142 N 205.456 -1.28612 -0.910864 0
M  V30 2143 C 206.366 -1.14643 -2.0468 0
M  V30 2144 C 207.382 -0.0723121 -1.7385 0
M  V30 2145 O 208.558 -0.282178 -1.99413 0
M  V30 2146 C 205.623 -0.812561 -3.37044 0
M  V30 2147 C 204.684 -1.96935 -3.81465 0
M  V30 2148 C 203.917 -1.65131 -5.07511 0
M  V30 2149 O 204.14 -0.567013 -5.67575 0
M  V30 2150 O 203.074 -2.49585 -5.47714 0
M  V30 2151 H 206.9 -2.1001 -2.19384 0
M  V30 2152 H 204.485 -1.07958 -1.03274 0
M  V30 2153 H 206.367 -0.640441 -4.16505 0
M  V30 2154 H 205.042 0.111426 -3.23508 0
M  V30 2155 H 203.949 -2.19664 -3.02818 0
M  V30 2156 H 205.282 -2.87414 -3.99567 0
M  V30 2157 N 206.934 1.1197 -1.10907 0
M  V30 2158 C 207.882 2.19927 -0.757303 0
M  V30 2159 C 208.876 1.67564 0.248747 0
M  V30 2160 O 210.082 1.79672 0.108605 0
M  V30 2161 H 206.457 0.716925 -0.226987 0
M  V30 2162 H 208.428 2.46847 -1.67658 0
M  V30 2163 C 207.177 3.47061 -0.210671 0
M  V30 2164 H 206.5 3.87703 -0.976049 0
M  V30 2165 H 207.94 4.24 -0.0026584 0
M  V30 2166 C 206.399 3.19864 1.05777 0
M  V30 2167 O 206.929 3.40049 2.13845 0
M  V30 2168 N 205.135 2.73636 0.978349 0
M  V30 2169 H 204.682 2.5741 0.0988246 0
M  V30 2170 H 204.64 2.55815 1.82773 0
M  V30 2171 N 208.412 0.89855 1.29475 0
M  V30 2172 C 209.64 0.539261 1.99749 0
M  V30 2173 C 210.055 -0.875716 1.67262 0
M  V30 2174 O 209.412 -1.57786 0.917049 0
M  V30 2175 C 209.463 0.72061 3.54245 0
M  V30 2176 O 209.184 2.07989 3.8558 0
M  V30 2177 C 210.685 0.366118 4.41786 0
M  V30 2178 H 207.905 0.207047 0.638258 0
M  V30 2179 H 210.449 1.20758 1.65039 0
M  V30 2180 H 208.604 0.0994862 3.87272 0
M  V30 2181 H 209.018 2.10841 4.80257 0
M  V30 2182 H 210.492 0.543848 5.49314 0
M  V30 2183 H 210.969 -0.696763 4.33638 0
M  V30 2184 H 211.575 0.964135 4.14228 0
M  V30 2185 N 209.89 -1.43072 0.660911 0
M  V30 2186 C 211.301 -1.84932 0.256348 0
M  V30 2187 C 211.652 -1.55325 -1.19868 0
M  V30 2188 O 210.777 -1.00607 -1.91591 0
M  V30 2189 C 211.372 -3.35684 0.458475 0
M  V30 2190 C 209.931 -3.76245 0.108161 0
M  V30 2191 C 209.078 -2.66749 0.757641 0
M  V30 2192 H 212.029 -1.33116 0.864051 0
M  V30 2193 H 212.05 -3.79365 -0.293683 0
M  V30 2194 H 211.562 -3.572 1.51755 0
M  V30 2195 H 209.663 -3.60338 -0.948014 0
M  V30 2196 H 209.776 -4.76058 0.538992 0
M  V30 2197 H 208.14 -2.53989 0.190185 0
M  V30 2198 H 208.923 -2.91092 1.81989 0
M  V30 2199 N 211.368 -0.403325 -1.52352 0
M  V30 2200 C 212.615 0.174347 -2.01748 0
M  V30 2201 C 212.943 1.45636 -1.2892 0
M  V30 2202 O 212.198 1.9193 -0.382258 0
M  V30 2203 C 212.497 0.474665 -3.54234 0
M  V30 2204 C 212.163 -0.717458 -4.45155 0
M  V30 2205 C 210.825 -1.04447 -4.69728 0
M  V30 2206 C 213.177 -1.51432 -4.98716 0
M  V30 2207 C 210.505 -2.16963 -5.45109 0
M  V30 2208 C 212.857 -2.6302 -5.75329 0
M  V30 2209 C 211.521 -2.96213 -5.98175 0
M  V30 2210 H 210.791 0.0637981 -0.738248 0
M  V30 2211 H 213.438 -0.543553 -1.83624 0
M  V30 2212 H 211.743 1.27406 -3.70506 0
M  V30 2213 H 213.44 0.934496 -3.89959 0
M  V30 2214 H 210.03 -0.452596 -4.26204 0
M  V30 2215 H 214.214 -1.27491 -4.79645 0
M  V30 2216 H 209.47 -2.43034 -5.61021 0
M  V30 2217 H 213.644 -3.25158 -6.15829 0
M  V30 2218 H 211.271 -3.83516 -6.56368 0
M  V30 2219 N 212.846 1.57033 -0.133567 0
M  V30 2220 C 214.076 1.99754 0.527429 0
M  V30 2221 C 214.484 1.01245 1.59832 0
M  V30 2222 O 213.827 -0.000645496 1.837 0
M  V30 2223 C 213.889 3.38903 1.19939 0
M  V30 2224 C 213.553 4.56174 0.274709 0
M  V30 2225 C 214.55 5.17563 -0.492398 0
M  V30 2226 C 212.235 5.01972 0.18153 0
M  V30 2227 C 214.229 6.2315 -1.34027 0
M  V30 2228 C 211.916 6.07416 -0.669958 0
M  V30 2229 C 212.914 6.67874 -1.42947 0
M  V30 2230 O 212.602 7.71279 -2.2668 0
M  V30 2231 H 212.334 0.660702 0.142999 0
M  V30 2232 H 214.888 2.04207 -0.221099 0
M  V30 2233 H 213.118 3.31248 1.99528 0
M  V30 2234 H 214.807 3.65818 1.75875 0
M  V30 2235 H 215.573 4.83087 -0.430367 0
M  V30 2236 H 211.452 4.54652 0.762422 0
M  V30 2237 H 214.996 6.70268 -1.93357 0
M  V30 2238 H 210.893 6.41321 -0.73333 0
M  V30 2239 H 211.661 7.88441 -2.1978 0
M  V30 2240 N 214.325 -0.140222 1.56975 0
M  V30 2241 C 215.736 -0.699596 1.73097 0
M  V30 2242 C 216.087 -1.8134 0.749022 0
M  V30 2243 O 215.212 -2.16241 -0.0828503 0
M  V30 2244 C 215.807 -1.27582 3.1386 0
M  V30 2245 C 214.366 -1.78169 3.31561 0
M  V30 2246 C 213.513 -0.672855 2.69013 0
M  V30 2247 H 216.464 0.0855115 1.58469 0
M  V30 2248 H 216.485 -2.14561 3.14235 0
M  V30 2249 H 215.997 -0.464955 3.85305 0
M  V30 2250 H 214.098 -2.61801 2.65124 0
M  V30 2251 H 214.211 -1.90574 4.39566 0
M  V30 2252 H 212.575 -1.10118 2.29665 0
M  V30 2253 H 213.358 0.126679 3.43066 0
M  V30 2254 N 215.803 -1.52179 -0.40978 0
M  V30 2255 C 217.219 -1.40968 -0.74835 0
M  V30 2256 C 217.419 -0.513657 -1.94843 0
M  V30 2257 O 216.475 0.0208026 -2.52491 0
M  V30 2258 C 217.788 -2.83483 -1.0029 0
M  V30 2259 C 219.336 -2.92821 -1.10565 0
M  V30 2260 C 219.811 -4.36303 -1.39296 0
M  V30 2261 N 221.302 -4.39535 -1.46162 0
M  V30 2262 C 222.037 -5.47614 -1.70018 0
M  V30 2263 N 221.533 -6.65812 -1.91483 0
M  V30 2264 N 223.326 -5.35129 -1.72027 0
M  V30 2265 H 215.477 -2.0897 0.380186 0
M  V30 2266 H 217.74 -0.94185 0.107805 0
M  V30 2267 H 217.446 -3.51168 -0.193461 0
M  V30 2268 H 217.32 -3.24487 -1.92323 0
M  V30 2269 H 219.707 -2.25318 -1.90568 0
M  V30 2270 H 219.788 -2.55276 -0.16369 0
M  V30 2271 H 219.432 -5.04366 -0.598109 0
M  V30 2272 H 219.362 -4.71385 -2.34743 0
M  V30 2273 H 221.853 -3.54332 -1.31367 0
M  V30 2274 H 222.166 -7.43964 -2.09134 0
M  V30 2275 H 220.511 -6.68879 -1.88749 0
M  V30 2276 H 223.702 -4.41764 -1.54796 0
M  V30 2277 H 223.875 -6.19433 -1.9028 0
M  V30 2278 N 217.281 0.66697 -1.42791 0
M  V30 2279 C 218.506 1.46004 -1.47301 0
M  V30 2280 C 218.931 1.87894 -0.0880317 0
M  V30 2281 O 218.289 1.56502 0.915253 0
M  V30 2282 C 218.337 2.68031 -2.41229 0
M  V30 2283 O 217.441 3.6659 -1.88906 0
M  V30 2284 H 216.782 0.43832 -0.49877 0
M  V30 2285 H 219.312 0.817391 -1.87563 0
M  V30 2286 H 219.322 3.1601 -2.58073 0
M  V30 2287 H 217.997 2.36883 -3.41847 0
M  V30 2288 H 216.574 3.25661 -1.81656 0
M  V30 2289 N 218.759 1.29093 0.90403 0
M  V30 2290 C 220.17 1.15186 1.46932 0
M  V30 2291 C 220.521 -0.254587 1.94541 0
M  V30 2292 O 219.646 -1.14972 1.83332 0
M  V30 2293 C 220.241 2.08492 2.67051 0
M  V30 2294 C 218.8 1.98621 3.19729 0
M  V30 2295 C 217.947 1.9967 1.92425 0
M  V30 2296 H 220.898 1.41641 0.715789 0
M  V30 2297 H 220.919 1.65461 3.42641 0
M  V30 2298 H 220.431 3.10847 2.3237 0
M  V30 2299 H 218.532 0.993389 3.59114 0
M  V30 2300 H 218.645 2.86068 3.8432 0
M  V30 2301 H 217.009 1.44208 2.09943 0
M  V30 2302 H 217.792 3.03721 1.60026 0
M  V30 2303 N 220.237 -1.11381 1.11499 0
M  V30 2304 C 221.467 -1.86663 0.885464 0
M  V30 2305 C 221.875 -1.80464 -0.568281 0
M  V30 2306 O 221.218 -1.18445 -1.40415 0
M  V30 2307 C 221.28 -3.36337 1.26956 0
M  V30 2308 C 220.944 -3.66304 2.73259 0
M  V30 2309 C 221.941 -3.63733 3.71476 0
M  V30 2310 C 219.626 -3.9529 3.09921 0
M  V30 2311 C 221.62 -3.89725 5.04374 0
M  V30 2312 C 219.307 -4.20941 4.43004 0
M  V30 2313 C 220.305 -4.18147 5.40039 0
M  V30 2314 O 219.993 -4.43153 6.70724 0
M  V30 2315 H 219.725 -0.597114 0.316908 0
M  V30 2316 H 222.279 -1.41782 1.48617 0
M  V30 2317 H 220.509 -3.81826 0.611999 0
M  V30 2318 H 222.198 -3.92986 1.01573 0
M  V30 2319 H 222.964 -3.41389 3.44498 0
M  V30 2320 H 218.843 -3.966 2.35009 0
M  V30 2321 H 222.387 -3.8746 5.80104 0
M  V30 2322 H 218.284 -4.42761 4.69716 0
M  V30 2323 H 219.052 -4.60717 6.76522 0
M  V30 2324 N 221.715 -0.905404 -1.28997 0
M  V30 2325 C 222.963 -0.533192 -1.9494 0
M  V30 2326 C 223.284 0.924618 -1.71685 0
M  V30 2327 O 222.554 1.65268 -1.05183 0
M  V30 2328 H 221.134 -0.194194 -0.721317 0
M  V30 2329 H 223.796 -1.15294 -1.57141 0
M  V30 2330 H 222.892 -0.72059 -3.03667 0
M  V30 2331 N 223.193 1.4272 -0.668489 0
M  V30 2332 C 224.439 2.01923 -0.188419 0
M  V30 2333 C 224.772 1.52704 1.19979 0
M  V30 2334 O 224.047 0.726566 1.8042 0
M  V30 2335 C 224.33 3.59451 -0.216085 0
M  V30 2336 C 224.183 4.18864 -1.6393 0
M  V30 2337 C 225.502 4.37903 0.439179 0
M  V30 2338 H 222.621 0.733674 -0.0699412 0
M  V30 2339 H 225.263 1.69822 -0.852076 0
M  V30 2340 H 223.413 3.86929 0.349012 0
M  V30 2341 H 225.085 4.02362 -2.25616 0
M  V30 2342 H 223.328 3.74933 -2.18193 0
M  V30 2343 H 223.999 5.27987 -1.61039 0
M  V30 2344 H 226.475 4.16079 -0.0417878 0
M  V30 2345 H 225.351 5.47519 0.389157 0
M  V30 2346 H 225.612 4.15303 1.51577 0
M  V30 2347 N 224.671 0.411399 1.52136 0
M  V30 2348 C 225.634 -0.401089 2.25663 0
M  V30 2349 C 226.634 -0.971732 1.28117 0
M  V30 2350 O 227.824 -0.850254 1.52041 0
M  V30 2351 C 224.956 -1.56483 3.02863 0
M  V30 2352 H 226.149 0.24295 2.98914 0
M  V30 2353 H 223.702 0.163968 1.55438 0
M  V30 2354 H 224.437 -2.24567 2.33967 0
M  V30 2355 H 224.222 -1.16211 3.74483 0
M  V30 2356 H 225.712 -2.13951 3.58629 0
M  V30 2357 N 226.149 -1.5696 0.141893 0
M  V30 2358 C 227.096 -2.16501 -0.799737 0
M  V30 2359 C 228.066 -1.09643 -1.24771 0
M  V30 2360 O 229.251 -1.3766 -1.32115 0
M  V30 2361 C 226.391 -2.78679 -2.03549 0
M  V30 2362 C 225.504 -3.99914 -1.6338 0
M  V30 2363 C 224.639 -4.50106 -2.82096 0
M  V30 2364 C 223.678 -5.63819 -2.38275 0
M  V30 2365 N 222.815 -6.08651 -3.49983 0
M  V30 2366 H 227.655 -2.96632 -0.285179 0
M  V30 2367 H 225.192 -1.46533 -0.129053 0
M  V30 2368 H 227.15 -3.1287 -2.75986 0
M  V30 2369 H 225.78 -2.012 -2.52425 0
M  V30 2370 H 224.832 -3.71735 -0.807279 0
M  V30 2371 H 226.144 -4.82311 -1.27192 0
M  V30 2372 H 225.298 -4.86325 -3.62729 0
M  V30 2373 H 224.037 -3.66706 -3.21525 0
M  V30 2374 H 223.042 -5.2718 -1.56081 0
M  V30 2375 H 224.267 -6.49 -1.99938 0
M  V30 2376 H 222.213 -5.28188 -3.89042 0
M  V30 2377 H 222.13 -6.85961 -3.17794 0
M  V30 2378 H 223.398 -6.49515 -4.30988 0
M  V30 2379 N 227.627 0.131896 -1.57047 0
M  V30 2380 C 228.557 1.16384 -2.02428 0
M  V30 2381 C 229.538 1.43936 -0.90644 0
M  V30 2382 O 230.723 1.54599 -1.17528 0
M  V30 2383 C 227.853 2.49328 -2.4177 0
M  V30 2384 C 226.807 2.36266 -3.56879 0
M  V30 2385 C 226.133 3.74057 -3.8208 0
M  V30 2386 C 227.433 1.834 -4.89042 0
M  V30 2387 H 229.127 0.786433 -2.88887 0
M  V30 2388 H 226.673 0.376855 -1.38981 0
M  V30 2389 H 228.626 3.21759 -2.7212 0
M  V30 2390 H 227.35 2.88934 -1.52266 0
M  V30 2391 H 226.009 1.66286 -3.26718 0
M  V30 2392 H 225.657 4.11125 -2.89803 0
M  V30 2393 H 225.357 3.66174 -4.59554 0
M  V30 2394 H 226.881 4.48012 -4.1487 0
M  V30 2395 H 228.295 2.45636 -5.18011 0
M  V30 2396 H 226.692 1.8637 -5.70426 0
M  V30 2397 H 227.762 0.790662 -4.7841 0
M  V30 2398 N 229.106 1.52395 0.401703 0
M  V30 2399 C 230.336 1.70429 1.1678 0
M  V30 2400 C 230.744 0.416702 1.84554 0
M  V30 2401 O 230.087 -0.617697 1.73003 0
M  V30 2402 C 230.149 2.78919 2.26814 0
M  V30 2403 C 229.813 4.20437 1.79113 0
M  V30 2404 C 230.81 5.04028 1.27482 0
M  V30 2405 C 228.495 4.66704 1.85722 0
M  V30 2406 C 230.489 6.31961 0.830913 0
M  V30 2407 C 228.176 5.94625 1.40942 0
M  V30 2408 C 229.174 6.77082 0.897128 0
M  V30 2409 O 228.862 8.02607 0.455822 0
M  V30 2410 H 228.594 0.574272 0.356634 0
M  V30 2411 H 231.148 1.99767 0.477724 0
M  V30 2412 H 229.378 2.44973 2.99207 0
M  V30 2413 H 231.067 2.8548 2.88541 0
M  V30 2414 H 231.833 4.69471 1.21744 0
M  V30 2415 H 227.712 4.0262 2.24539 0
M  V30 2416 H 231.256 6.96271 0.430368 0
M  V30 2417 H 227.153 6.28688 1.46362 0
M  V30 2418 H 227.921 8.16453 0.578457 0
M  V30 2419 N 230.584 -0.659388 1.43143 0
M  V30 2420 C 231.832 -1.41654 1.44147 0
M  V30 2421 C 232.153 -1.94893 0.0645739 0
M  V30 2422 O 231.423 -1.74044 -0.899198 0
M  V30 2423 H 230.003 -0.525708 0.530697 0
M  V30 2424 H 232.665 -0.778097 1.78694 0
M  V30 2425 H 231.761 -2.26195 2.1504 0
M  V30 2426 N 232.062 -1.29571 -0.897171 0
M  V30 2427 C 233.012 -1.11539 -1.98855 0
M  V30 2428 C 233.996 -0.0340716 -1.60864 0
M  V30 2429 O 235.188 -0.256062 -1.75138 0
M  V30 2430 C 232.317 -0.796603 -3.3393 0
M  V30 2431 C 231.403 -1.91758 -3.78272 0
M  V30 2432 N 231.794 -3.16143 -3.94826 0
M  V30 2433 C 230.092 -1.81119 -4.07568 0
M  V30 2434 C 230.793 -3.89293 -4.32233 0
M  V30 2435 N 229.769 -3.17255 -4.41419 0
M  V30 2436 H 233.571 -2.05894 -2.09726 0
M  V30 2437 H 231.085 -1.20732 -1.08616 0
M  V30 2438 H 233.082 -0.648459 -4.11826 0
M  V30 2439 H 231.742 0.139003 -3.24402 0
M  V30 2440 H 232.753 -3.5157 -3.80288 0
M  V30 2441 H 229.43 -0.948461 -4.06584 0
M  V30 2442 H 230.82 -4.9635 -4.52865 0
M  V30 2443 N 233.54 1.10788 -1.12088 0
M  V30 2444 C 234.786 1.8313 -0.885148 0
M  V30 2445 C 235.141 1.8336 0.582839 0
M  V30 2446 O 234.434 1.28062 1.42516 0
M  V30 2447 C 234.628 3.29294 -1.38926 0
M  V30 2448 C 234.457 3.43302 -2.90472 0
M  V30 2449 C 233.227 3.55928 -3.58669 0
M  V30 2450 C 235.425 3.37014 -3.88492 0
M  V30 2451 N 233.407 3.58475 -4.98366 0
M  V30 2452 C 234.778 3.46263 -5.14298 0
M  V30 2453 C 236.833 3.20589 -3.80955 0
M  V30 2454 C 235.536 3.4078 -6.33452 0
M  V30 2455 C 237.562 3.16427 -4.99628 0
M  V30 2456 C 236.924 3.26253 -6.2429 0
M  V30 2457 H 233.023 0.685054 -0.377128 0
M  V30 2458 H 235.607 1.3251 -1.4265 0
M  V30 2459 H 233.778 3.78416 -0.874999 0
M  V30 2460 H 235.51 3.89578 -1.09596 0
M  V30 2461 H 232.265 3.58779 -3.09151 0
M  V30 2462 H 232.689 3.6337 -5.71219 0
M  V30 2463 H 237.331 3.11873 -2.85474 0
M  V30 2464 H 235.049 3.48263 -7.29204 0
M  V30 2465 H 238.635 3.04874 -4.95523 0
M  V30 2466 H 237.515 3.2303 -7.14578 0
M  V30 2467 N 235.018 0.912232 1.28515 0
M  V30 2468 C 236.267 0.540504 1.94323 0
M  V30 2469 C 236.58 -0.920044 1.72611 0
M  V30 2470 O 237.786 -1.39986 2.32629 0
M  V30 2471 C 236.242 0.915803 3.48053 0
M  V30 2472 C 235.85 2.39598 3.78546 0
M  V30 2473 C 237.594 0.614588 4.20027 0
M  V30 2474 C 235.501 2.71148 5.25578 0
M  V30 2475 H 234.431 0.198418 0.727424 0
M  V30 2476 H 237.082 1.11094 1.46049 0
M  V30 2477 H 235.464 0.274168 3.9505 0
M  V30 2478 H 236.638 3.08422 3.42364 0
M  V30 2479 H 234.953 2.66749 3.1974 0
M  V30 2480 H 237.55 0.827002 5.28266 0
M  V30 2481 H 237.893 -0.447531 4.13887 0
M  V30 2482 H 238.426 1.21462 3.78803 0
M  V30 2483 H 235.165 3.76207 5.36794 0
M  V30 2484 H 234.685 2.0696 5.62963 0
M  V30 2485 H 236.364 2.58072 5.93302 0
M  V30 2486 N 236.496 -1.42363 0.676048 0
M  V30 2487 C 237.724 -2.05859 0.207268 0
M  V30 2488 C 238.139 -1.50796 -1.13605 0
M  V30 2489 O 237.496 -0.648265 -1.70598 0
M  V30 2490 C 237.547 -3.61248 0.134975 0
M  V30 2491 O 237.268 -4.1427 1.42521 0
M  V30 2492 C 238.769 -4.41859 -0.357151 0
M  V30 2493 H 235.989 -0.663431 0.100503 0
M  V30 2494 H 238.533 -1.82479 0.923136 0
M  V30 2495 H 236.688 -3.83735 -0.531588 0
M  V30 2496 H 237.102 -5.0815 1.29939 0
M  V30 2497 H 238.576 -5.50847 -0.356641 0
M  V30 2498 H 239.053 -4.16536 -1.39264 0
M  V30 2499 H 239.659 -4.24392 0.27772 0
M  V30 2500 N 237.974 -0.419461 -1.51915 0
M  V30 2501 C 239.22 0.153166 -2.02221 0
M  V30 2502 C 239.553 1.43907 -1.30401 0
M  V30 2503 O 238.828 1.90055 -0.413438 0
M  V30 2504 C 239.111 0.390291 -3.57979 0
M  V30 2505 C 238.964 -0.913014 -4.40436 0
M  V30 2506 C 240.283 1.16794 -4.2432 0
M  V30 2507 H 237.402 0.0541924 -0.735005 0
M  V30 2508 H 240.044 -0.554955 -1.81715 0
M  V30 2509 H 238.194 0.993491 -3.75582 0
M  V30 2510 H 239.866 -1.54882 -4.34522 0
M  V30 2511 H 238.109 -1.52168 -4.06236 0
M  V30 2512 H 238.78 -0.701361 -5.47526 0
M  V30 2513 H 241.256 0.657161 -4.10878 0
M  V30 2514 H 240.132 1.3026 -5.3322 0
M  V30 2515 H 240.393 2.19132 -3.83971 0
M  V30 2516 N 239.452 1.56882 -0.150215 0
M  V30 2517 C 240.4 2.18214 0.805313 0
M  V30 2518 C 241.394 1.14006 1.25296 0
M  V30 2519 O 242.6 1.3225 1.22107 0
M  V30 2520 H 238.975 0.698762 0.277913 0
M  V30 2521 H 240.946 2.97231 0.263862 0
M  V30 2522 C 239.695 2.82065 2.03309 0
M  V30 2523 H 239.018 3.61968 1.69763 0
M  V30 2524 H 240.458 3.28477 2.68103 0
M  V30 2525 C 238.917 1.80739 2.84315 0
M  V30 2526 O 239.447 1.27983 3.80767 0
M  V30 2527 N 237.653 1.4997 2.48913 0
M  V30 2528 H 237.2 1.93062 1.70542 0
M  V30 2529 H 237.158 0.824217 3.03404 0
M  V30 2530 N 240.93 -0.123565 1.57115 0
M  V30 2531 C 242.16 -0.845233 1.88519 0
M  V30 2532 C 242.568 -1.74168 0.739064 0
M  V30 2533 O 241.911 -1.81244 -0.299355 0
M  V30 2534 C 241.973 -1.73452 3.14888 0
M  V30 2535 C 241.637 -1.01285 4.45635 0
M  V30 2536 C 242.634 -0.355774 5.18681 0
M  V30 2537 C 240.319 -0.99538 4.92339 0
M  V30 2538 C 242.313 0.309114 6.3665 0
M  V30 2539 C 240 -0.32669 6.10226 0
M  V30 2540 C 240.998 0.324406 6.82229 0
M  V30 2541 O 240.686 0.982437 7.97874 0
M  V30 2542 H 240.418 -0.248534 0.628655 0
M  V30 2543 H 242.972 -0.113907 2.05084 0
M  V30 2544 H 241.202 -2.50737 2.94394 0
M  V30 2545 H 242.891 -2.33021 3.32349 0
M  V30 2546 H 243.657 -0.360918 4.83655 0
M  V30 2547 H 239.536 -1.49159 4.36202 0
M  V30 2548 H 243.08 0.8179 6.92789 0
M  V30 2549 H 238.977 -0.319294 6.4471 0
M  V30 2550 H 239.745 0.886454 8.13686 0
M  V30 2551 N 242.408 -1.52605 -0.393616 0
M  V30 2552 C 243.824 -1.41753 -0.733357 0
M  V30 2553 C 244.024 -0.534293 -1.94287 0
M  V30 2554 O 243.08 -0.0059787 -2.52499 0
M  V30 2555 C 244.393 -2.84531 -0.972772 0
M  V30 2556 C 245.941 -2.93978 -1.07453 0
M  V30 2557 C 246.416 -4.37756 -1.3466 0
M  V30 2558 N 247.907 -4.4106 -1.41492 0
M  V30 2559 C 248.642 -5.49387 -1.642 0
M  V30 2560 N 248.138 -6.67806 -1.8441 0
M  V30 2561 N 249.931 -5.36923 -1.66342 0
M  V30 2562 H 242.082 -2.08555 0.402328 0
M  V30 2563 H 244.345 -0.940654 0.117789 0
M  V30 2564 H 244.051 -3.51353 -0.156204 0
M  V30 2565 H 243.925 -3.26508 -1.88871 0
M  V30 2566 H 246.312 -2.27326 -1.88167 0
M  V30 2567 H 246.393 -2.55435 -0.136605 0
M  V30 2568 H 246.037 -5.04972 -0.544581 0
M  V30 2569 H 245.967 -4.73848 -2.2973 0
M  V30 2570 H 248.458 -3.55705 -1.27601 0
M  V30 2571 H 248.771 -7.46141 -2.01231 0
M  V30 2572 H 247.116 -6.70843 -1.81644 0
M  V30 2573 H 250.307 -4.43381 -1.50102 0
M  V30 2574 H 250.48 -6.21416 -1.837 0
M  V30 2575 N 243.887 0.651787 -1.4349 0
M  V30 2576 C 244.797 1.79368 -1.5121 0
M  V30 2577 C 245.813 1.69361 -0.399093 0
M  V30 2578 O 246.989 1.90505 -0.653431 0
M  V30 2579 C 244.054 3.15653 -1.43401 0
M  V30 2580 C 243.115 3.37446 -2.65384 0
M  V30 2581 C 242.348 4.67229 -2.57939 0
M  V30 2582 O 242.571 5.46676 -1.62792 0
M  V30 2583 O 241.505 4.90773 -3.48462 0
M  V30 2584 H 245.331 1.7581 -2.47638 0
M  V30 2585 H 242.916 0.810447 -1.25507 0
M  V30 2586 H 244.798 3.96935 -1.41494 0
M  V30 2587 H 243.473 3.19798 -0.501085 0
M  V30 2588 H 242.38 2.55923 -2.72863 0
M  V30 2589 H 243.713 3.38148 -3.57654 0
M  V30 2590 N 245.365 1.30045 0.890287 0
M  V30 2591 C 246.59 1.21598 1.68014 0
M  V30 2592 C 247.015 -0.218678 1.86825 0
M  V30 2593 O 246.373 -1.15756 1.39536 0
M  V30 2594 C 246.421 1.94434 3.03691 0
M  V30 2595 O 245.525 1.2678 3.92429 0
M  V30 2596 H 244.866 0.420856 0.513592 0
M  V30 2597 H 247.396 1.71775 1.11151 0
M  V30 2598 H 247.406 2.03251 3.5377 0
M  V30 2599 H 246.081 2.98777 2.89318 0
M  V30 2600 H 244.658 1.26282 3.50866 0
M  V30 2601 N 246.843 -1.10192 1.12674 0
M  V30 2602 C 248.09 -1.82205 0.883606 0
M  V30 2603 C 248.418 -1.8532 -0.590492 0
M  V30 2604 O 247.673 -1.31137 -1.45264 0
M  V30 2605 C 247.972 -3.28552 1.4067 0
M  V30 2606 C 247.638 -3.45582 2.89627 0
M  V30 2607 C 246.3 -3.49937 3.30299 0
M  V30 2608 C 248.652 -3.50768 3.85501 0
M  V30 2609 C 245.98 -3.57049 4.65546 0
M  V30 2610 C 248.332 -3.59414 5.20581 0
M  V30 2611 C 246.996 -3.62034 5.60792 0
M  V30 2612 H 246.266 -0.666735 0.323334 0
M  V30 2613 H 248.913 -1.29868 1.40736 0
M  V30 2614 H 247.218 -3.83473 0.80347 0
M  V30 2615 H 248.915 -3.82788 1.19475 0
M  V30 2616 H 245.505 -3.42871 2.57172 0
M  V30 2617 H 249.689 -3.46651 3.55171 0
M  V30 2618 H 244.945 -3.57361 4.96088 0
M  V30 2619 H 249.119 -3.62371 5.94693 0
M  V30 2620 H 246.746 -3.67298 6.6558 0
M  V30 2621 N 248.321 -0.919034 -1.28029 0
M  V30 2622 C 249.569 -0.553838 -1.94363 0
M  V30 2623 C 249.89 0.906357 -1.72656 0
M  V30 2624 O 249.16 1.64143 -1.0693 0
M  V30 2625 H 247.74 -0.201834 -0.719216 0
M  V30 2626 H 250.402 -1.16954 -1.55909 0
M  V30 2627 H 249.498 -0.752758 -3.02886 0
M  V30 2628 N 249.799 1.42003 -0.683588 0
M  V30 2629 C 250.729 2.33487 -0.024866 0
M  V30 2630 C 251.71 1.51163 0.779975 0
M  V30 2631 O 252.895 1.79739 0.735362 0
M  V30 2632 C 250.025 3.3487 0.920836 0
M  V30 2633 C 248.979 4.27414 0.223958 0
M  V30 2634 C 248.305 5.19074 1.2832 0
M  V30 2635 C 249.605 5.14445 -0.90242 0
M  V30 2636 H 251.299 2.88819 -0.788921 0
M  V30 2637 H 248.845 1.38873 -0.38083 0
M  V30 2638 H 250.798 3.97787 1.39081 0
M  V30 2639 H 249.522 2.77861 1.71642 0
M  V30 2640 H 248.181 3.65904 -0.225864 0
M  V30 2641 H 247.829 4.58387 2.071 0
M  V30 2642 H 247.529 5.81822 0.821995 0
M  V30 2643 H 249.053 5.84867 1.75392 0
M  V30 2644 H 250.467 5.70998 -0.513272 0
M  V30 2645 H 248.864 5.86072 -1.28997 0
M  V30 2646 H 249.934 4.52322 -1.74737 0
M  V30 2647 N 251.277 0.427512 1.51691 0
M  V30 2648 C 252.227 -0.406604 2.24345 0
M  V30 2649 C 253.211 -0.998276 1.26187 0
M  V30 2650 O 254.403 -0.918045 1.51331 0
M  V30 2651 C 251.532 -1.51266 3.08177 0
M  V30 2652 C 250.618 -0.930868 4.13758 0
M  V30 2653 N 251.009 -0.0773552 5.05741 0
M  V30 2654 C 249.307 -1.19948 4.29568 0
M  V30 2655 C 250.008 0.248344 5.8117 0
M  V30 2656 N 248.984 -0.365535 5.4237 0
M  V30 2657 H 252.786 0.251581 2.92821 0
M  V30 2658 H 250.3 0.239003 1.60632 0
M  V30 2659 H 252.297 -2.123 3.58796 0
M  V30 2660 H 250.957 -2.17328 2.41244 0
M  V30 2661 H 251.968 0.288351 5.17097 0
M  V30 2662 H 248.645 -1.85832 3.73862 0
M  V30 2663 H 250.035 0.942286 6.6526 0
M  V30 2664 N 252.755 -1.56801 0.158532 0
M  V30 2665 C 253.718 -2.16138 -0.762705 0
M  V30 2666 C 254.718 -1.1061 -1.16713 0
M  V30 2667 O 255.908 -1.36191 -1.08617 0
M  V30 2668 C 253.04 -2.73386 -2.03649 0
M  V30 2669 H 254.233 -2.98886 -0.246354 0
M  V30 2670 H 251.786 -1.56035 -0.0909744 0
M  V30 2671 H 252.521 -1.94335 -2.59623 0
M  V30 2672 H 252.306 -3.50601 -1.75559 0
M  V30 2673 H 253.796 -3.19065 -2.6942 0
M  V30 2674 N 254.233 0.115231 -1.57178 0
M  V30 2675 C 255.458 0.840354 -1.89612 0
M  V30 2676 C 255.883 1.72464 -0.750845 0
M  V30 2677 O 255.241 1.78826 0.298478 0
M  V30 2678 C 255.289 1.64654 -3.20814 0
M  V30 2679 O 254.393 2.7538 -3.06985 0
M  V30 2680 H 253.734 0.232158 -0.622092 0
M  V30 2681 H 256.264 0.0964977 -2.04372 0
M  V30 2682 H 256.274 2.03499 -3.53627 0
M  V30 2683 H 254.949 0.997416 -4.03763 0
M  V30 2684 H 253.526 2.3971 -2.85646 0
M  V30 2685 N 255.711 1.52812 0.385517 0
M  V30 2686 C 256.936 1.72207 1.15583 0
M  V30 2687 C 257.361 0.441034 1.82857 0
M  V30 2688 O 256.719 -0.603465 1.70962 0
M  V30 2689 C 256.767 2.87476 2.17692 0
M  V30 2690 O 255.871 2.54693 3.24354 0
M  V30 2691 H 255.212 0.572526 0.336319 0
M  V30 2692 H 257.742 1.99618 0.448744 0
M  V30 2693 H 257.752 3.13072 2.6163 0
M  V30 2694 H 256.427 3.80408 1.68115 0
M  V30 2695 H 255.004 2.3985 2.85529 0
M  V30 2696 N 257.189 -0.644168 1.43834 0
M  V30 2697 C 258.437 -1.40117 1.45642 0
M  V30 2698 C 258.758 -1.94814 0.0852413 0
M  V30 2699 O 258.028 -1.74988 -0.880688 0
M  V30 2700 H 256.608 -0.52005 0.536243 0
M  V30 2701 H 259.27 -0.7591 1.7951 0
M  V30 2702 H 258.366 -2.23902 2.17427 0
M  V30 2703 N 258.668 -1.30515 -0.883378 0
M  V30 2704 C 259.917 -1.18795 -1.63005 0
M  V30 2705 C 260.23 0.255923 -1.93919 0
M  V30 2706 O 261.436 0.494654 -2.66956 0
M  V30 2707 C 259.892 -2.07878 -2.93794 0
M  V30 2708 C 259.5 -3.57184 -2.70414 0
M  V30 2709 C 261.244 -2.04924 -3.71761 0
M  V30 2710 C 259.151 -4.38317 -3.97029 0
M  V30 2711 H 258.081 -0.441031 -0.611562 0
M  V30 2712 H 260.732 -1.55275 -0.977854 0
M  V30 2713 H 259.114 -1.64283 -3.60315 0
M  V30 2714 H 260.288 -4.08937 -2.12384 0
M  V30 2715 H 258.603 -3.61976 -2.0582 0
M  V30 2716 H 261.2 -2.62792 -4.65665 0
M  V30 2717 H 261.543 -1.0331 -4.03277 0
M  V30 2718 H 262.076 -2.46649 -3.12104 0
M  V30 2719 H 258.815 -5.40632 -3.70671 0
M  V30 2720 H 258.335 -3.91326 -4.54559 0
M  V30 2721 H 260.014 -4.49834 -4.65036 0
M  V30 2722 N 260.146 1.09593 -1.13257 0
M  V30 2723 C 261.076 2.18214 -0.830946 0
M  V30 2724 C 262.057 1.68812 0.208966 0
M  V30 2725 O 263.242 1.9408 0.0682666 0
M  V30 2726 C 260.372 3.46051 -0.294296 0
M  V30 2727 C 259.326 4.08778 -1.26826 0
M  V30 2728 C 258.652 5.31419 -0.591449 0
M  V30 2729 C 259.952 4.51476 -2.62615 0
M  V30 2730 H 261.646 2.43703 -1.73923 0
M  V30 2731 H 259.192 1.17128 -0.837675 0
M  V30 2732 H 261.145 4.2134 -0.0709606 0
M  V30 2733 H 259.869 3.20079 0.649366 0
M  V30 2734 H 258.528 3.35505 -1.47756 0
M  V30 2735 H 258.176 5.01727 0.357633 0
M  V30 2736 H 257.876 5.74341 -1.24123 0
M  V30 2737 H 259.4 6.09433 -0.377355 0
M  V30 2738 H 260.814 5.17999 -2.45663 0
M  V30 2739 H 259.211 5.05277 -3.23752 0
M  V30 2740 H 260.281 3.63962 -3.20406 0
M  V30 2741 N 261.624 0.925811 1.2754 0
M  V30 2742 C 262.871 0.565255 1.94451 0
M  V30 2743 C 263.199 -0.89316 1.7278 0
M  V30 2744 O 262.454 -1.65213 1.04895 0
M  V30 2745 C 262.753 0.835296 3.47502 0
M  V30 2746 C 262.419 2.27515 3.89291 0
M  V30 2747 C 261.081 2.66879 4.00411 0
M  V30 2748 C 263.433 3.21158 4.10496 0
M  V30 2749 C 260.761 3.99014 4.30122 0
M  V30 2750 C 263.113 4.52871 4.4169 0
M  V30 2751 C 261.777 4.92072 4.51023 0
M  V30 2752 H 261.047 0.206841 0.711546 0
M  V30 2753 H 263.694 1.16942 1.51647 0
M  V30 2754 H 261.999 0.148442 3.91519 0
M  V30 2755 H 263.696 0.535322 3.97411 0
M  V30 2756 H 260.286 1.95976 3.81171 0
M  V30 2757 H 264.47 2.9195 4.01346 0
M  V30 2758 H 259.726 4.2907 4.35556 0
M  V30 2759 H 263.9 5.25436 4.57045 0
M  V30 2760 H 261.527 5.9449 4.738 0
M  V30 2761 N 263.102 -1.41638 0.69111 0
M  V30 2762 C 264.05 -2.32597 0.0115199 0
M  V30 2763 C 265.044 -1.5072 -0.773296 0
M  V30 2764 O 266.25 -1.66685 -0.67942 0
M  V30 2765 H 262.625 -0.751849 -0.0150746 0
M  V30 2766 H 264.596 -2.87593 0.795791 0
M  V30 2767 C 263.345 -3.35467 -0.914172 0
M  V30 2768 H 262.668 -3.9852 -0.319687 0
M  V30 2769 H 264.108 -4.01662 -1.35808 0
M  V30 2770 C 262.567 -2.69004 -2.02826 0
M  V30 2771 O 263.097 -2.53444 -3.11655 0
M  V30 2772 N 261.303 -2.2777 -1.80469 0
M  V30 2773 H 260.85 -2.40626 -0.919615 0
M  V30 2774 H 260.808 -1.83635 -2.55197 0
M  V30 2775 N 264.58 -0.43555 -1.51462 0
M  V30 2776 C 265.53 0.394701 -2.24558 0
M  V30 2777 C 266.514 0.99157 -1.26715 0
M  V30 2778 O 267.706 0.910007 -1.51815 0
M  V30 2779 C 264.835 1.4963 -3.08975 0
M  V30 2780 C 263.921 0.908912 -4.14246 0
M  V30 2781 N 264.312 0.0505335 -5.05775 0
M  V30 2782 C 262.61 1.17668 -4.30198 0
M  V30 2783 C 263.311 -0.279161 -5.8103 0
M  V30 2784 N 262.287 0.336767 -5.42556 0
M  V30 2785 H 266.089 -0.267106 -2.92684 0
M  V30 2786 H 263.603 -0.247518 -1.60503 0
M  V30 2787 H 265.6 2.10394 -3.59917 0
M  V30 2788 H 264.26 2.16046 -2.42393 0
M  V30 2789 H 265.271 -0.31577 -5.16936 0
M  V30 2790 H 261.948 1.83847 -3.74842 0
M  V30 2791 H 263.338 -0.977553 -6.64751 0
M  V30 2792 N 266.058 1.56714 -0.166846 0
M  V30 2793 C 266.968 2.21331 0.777791 0
M  V30 2794 C 267.984 1.20358 1.25658 0
M  V30 2795 O 269.16 1.53005 1.30964 0
M  V30 2796 C 266.225 2.83787 1.99163 0
M  V30 2797 C 265.286 3.99947 1.56016 0
M  V30 2798 C 264.519 4.59415 2.71613 0
M  V30 2799 O 264.742 4.17769 3.88362 0
M  V30 2800 O 263.676 5.49359 2.45945 0
M  V30 2801 H 267.502 3.02605 0.257636 0
M  V30 2802 H 265.087 1.49275 0.0611393 0
M  V30 2803 H 266.969 3.23405 2.70161 0
M  V30 2804 H 265.644 2.05513 2.50092 0
M  V30 2805 H 264.551 3.65007 0.819809 0
M  V30 2806 H 265.884 4.79801 1.09782 0
M  V30 2807 N 267.536 -0.106894 1.57237 0
M  V30 2808 C 268.761 -0.830287 1.90055 0
M  V30 2809 C 269.186 -1.72064 0.75998 0
M  V30 2810 O 268.544 -1.78982 -0.288991 0
M  V30 2811 C 268.592 -1.6295 3.21683 0
M  V30 2812 O 267.696 -2.73748 3.08441 0
M  V30 2813 H 267.037 -0.228855 0.623315 0
M  V30 2814 H 269.567 -0.085658 2.04421 0
M  V30 2815 H 269.577 -2.01621 3.54701 0
M  V30 2816 H 268.252 -0.975989 4.04286 0
M  V30 2817 H 266.829 -2.38192 2.86913 0
M  V30 2818 N 269.014 -1.53014 -0.377408 0
M  V30 2819 C 270.425 -1.60438 -0.954798 0
M  V30 2820 C 270.776 -0.464418 -1.90624 0
M  V30 2821 O 269.901 0.41087 -2.12464 0
M  V30 2822 C 270.496 -2.90797 -1.73847 0
M  V30 2823 C 269.055 -3.00595 -2.26538 0
M  V30 2824 C 268.202 -2.55645 -1.07429 0
M  V30 2825 H 271.153 -1.57926 -0.156575 0
M  V30 2826 H 271.174 -2.77935 -2.5987 0
M  V30 2827 H 270.686 -3.73746 -1.04574 0
M  V30 2828 H 268.787 -2.22208 -2.99089 0
M  V30 2829 H 268.9 -4.05456 -2.5523 0
M  V30 2830 H 267.264 -2.10239 -1.43777 0
M  V30 2831 H 268.047 -3.41 -0.396728 0
M  V30 2832 N 270.492 0.636531 -1.44174 0
M  V30 2833 C 271.422 1.76003 -1.53444 0
M  V30 2834 C 272.403 1.65619 -0.387841 0
M  V30 2835 O 273.588 1.84461 -0.607257 0
M  V30 2836 C 270.718 3.14511 -1.4731 0
M  V30 2837 C 269.672 3.39677 -2.60391 0
M  V30 2838 C 268.998 4.78159 -2.39308 0
M  V30 2839 C 270.298 3.32772 -4.02567 0
M  V30 2840 H 271.992 1.68501 -2.47483 0
M  V30 2841 H 269.538 0.809237 -1.19111 0
M  V30 2842 H 271.491 3.92878 -1.52397 0
M  V30 2843 H 270.215 3.22783 -0.49785 0
M  V30 2844 H 268.874 2.63688 -2.54684 0
M  V30 2845 H 268.522 4.83128 -1.39988 0
M  V30 2846 H 268.222 4.95956 -3.15122 0
M  V30 2847 H 269.746 5.58762 -2.46205 0
M  V30 2848 H 271.16 4.01051 -4.09672 0
M  V30 2849 H 269.557 3.62104 -4.7854 0
M  V30 2850 H 270.627 2.30669 -4.2652 0
M  V30 2851 N 271.97 1.30982 0.876444 0
M  V30 2852 C 273.386 1.09498 1.16113 0
M  V30 2853 C 273.586 -0.13875 2.01022 0
M  V30 2854 O 272.642 -0.829935 2.38471 0
M  V30 2855 C 273.955 2.36308 1.85954 0
M  V30 2856 C 275.503 2.41856 1.98683 0
M  V30 2857 C 275.978 3.6853 2.71937 0
M  V30 2858 N 277.469 3.69387 2.79477 0
M  V30 2859 C 278.204 4.64096 3.36753 0
M  V30 2860 N 277.7 5.69155 3.95012 0
M  V30 2861 N 279.493 4.51626 3.3465 0
M  V30 2862 H 271.644 2.10118 0.310494 0
M  V30 2863 H 273.907 0.926634 0.200131 0
M  V30 2864 H 273.613 3.26388 1.31011 0
M  V30 2865 H 273.487 2.4561 2.86278 0
M  V30 2866 H 275.874 1.52249 2.52793 0
M  V30 2867 H 275.955 2.36523 0.9742 0
M  V30 2868 H 275.599 4.58499 2.18496 0
M  V30 2869 H 275.529 3.71127 3.73593 0
M  V30 2870 H 278.02 2.93438 2.38123 0
M  V30 2871 H 278.333 6.3751 4.36808 0
M  V30 2872 H 276.678 5.72937 3.93406 0
M  V30 2873 H 279.869 3.68728 2.8837 0
M  V30 2874 H 280.042 5.25614 3.7899 0
M  V30 2875 N 273.449 -1.08991 1.13837 0
M  V30 2876 C 274.697 -1.80899 0.901098 0
M  V30 2877 C 275.018 -1.86356 -0.574134 0
M  V30 2878 O 274.288 -1.35235 -1.41733 0
M  V30 2879 H 272.868 -0.669966 0.330386 0
M  V30 2880 H 275.53 -1.318 1.43578 0
M  V30 2881 H 274.626 -2.83929 1.29578 0
M  V30 2882 N 274.927 -0.932562 -1.27047 0
M  V30 2883 C 276.176 -0.571351 -1.93439 0
M  V30 2884 C 276.489 0.892467 -1.74053 0
M  V30 2885 O 277.695 1.36267 -2.34826 0
M  V30 2886 C 276.151 -0.97106 -3.46552 0
M  V30 2887 C 275.759 -2.4559 -3.74686 0
M  V30 2888 C 277.503 -0.681333 -4.18997 0
M  V30 2889 C 275.41 -2.79475 -5.21198 0
M  V30 2890 H 274.34 -0.209966 -0.724176 0
M  V30 2891 H 276.991 -1.13403 -1.44263 0
M  V30 2892 H 275.373 -0.336983 -3.94564 0
M  V30 2893 H 276.547 -3.13829 -3.37414 0
M  V30 2894 H 274.862 -2.71802 -3.15456 0
M  V30 2895 H 277.459 -0.910939 -5.26883 0
M  V30 2896 H 277.802 0.381628 -4.14547 0
M  V30 2897 H 278.335 -1.27473 -3.76823 0
M  V30 2898 H 275.074 -3.847 -5.30741 0
M  V30 2899 H 274.594 -2.1589 -5.596 0
M  V30 2900 H 276.273 -2.67478 -5.89122 0
M  V30 2901 N 276.405 1.4127 -0.698611 0
M  V30 2902 C 277.315 2.34573 -0.0357891 0
M  V30 2903 C 278.331 1.56393 0.762701 0
M  V30 2904 O 279.507 1.8886 0.699564 0
M  V30 2905 C 276.572 3.35159 0.887089 0
M  V30 2906 C 275.633 4.29225 0.0804634 0
M  V30 2907 C 274.866 5.25006 0.959387 0
M  V30 2908 O 275.089 5.26314 2.19886 0
M  V30 2909 O 274.023 6.00519 0.407439 0
M  V30 2910 H 277.849 2.92838 -0.804957 0
M  V30 2911 H 275.434 1.42175 -0.458966 0
M  V30 2912 H 277.316 3.9689 1.41621 0
M  V30 2913 H 275.991 2.79333 1.6357 0
M  V30 2914 H 274.898 3.70833 -0.493328 0
M  V30 2915 H 276.231 4.88157 -0.629547 0
M  V30 2916 N 277.883 0.443576 1.51229 0
M  V30 2917 C 279.13 -0.120796 2.02139 0
M  V30 2918 C 279.458 -1.42166 1.32736 0
M  V30 2919 O 278.713 -1.90849 0.43301 0
M  V30 2920 C 279.012 -0.380579 3.55368 0
M  V30 2921 C 278.678 0.83523 4.43097 0
M  V30 2922 C 277.34 1.16864 4.66794 0
M  V30 2923 C 279.692 1.64601 4.94526 0
M  V30 2924 C 277.02 2.31339 5.39165 0
M  V30 2925 C 279.372 2.78181 5.68153 0
M  V30 2926 C 278.036 3.11969 5.90112 0
M  V30 2927 H 277.306 -0.0442023 0.73968 0
M  V30 2928 H 279.953 0.592046 1.82118 0
M  V30 2929 H 278.258 -1.17538 3.73754 0
M  V30 2930 H 279.955 -0.830777 3.923 0
M  V30 2931 H 276.545 0.565437 4.24854 0
M  V30 2932 H 280.729 1.40163 4.76097 0
M  V30 2933 H 275.985 2.57823 5.5438 0
M  V30 2934 H 280.159 3.41371 6.06992 0
M  V30 2935 H 277.786 4.00784 6.45969 0
M  V30 2936 N 279.361 -1.56624 0.175154 0
M  V30 2937 C 280.607 -1.9729 -0.469506 0
M  V30 2938 C 280.94 -1.06128 -1.62636 0
M  V30 2939 O 280.215 -0.109183 -1.94193 0
M  V30 2940 C 280.498 -3.47375 -0.948804 0
M  V30 2941 C 280.351 -4.49317 0.208491 0
M  V30 2942 C 281.67 -4.00652 -1.82116 0
M  V30 2943 H 278.789 -0.717317 -0.16919 0
M  V30 2944 H 281.431 -1.88184 0.262062 0
M  V30 2945 H 279.581 -3.55267 -1.57219 0
M  V30 2946 H 281.253 -4.53482 0.845682 0
M  V30 2947 H 279.496 -4.25121 0.863395 0
M  V30 2948 H 280.167 -5.51741 -0.169059 0
M  V30 2949 H 282.643 -3.95416 -1.2956 0
M  V30 2950 H 281.519 -5.06075 -2.12554 0
M  V30 2951 H 281.78 -3.44699 -2.7683 0
M  V30 2952 N 280.839 0.0985539 -1.57292 0
M  V30 2953 C 282.067 0.816318 -1.90115 0
M  V30 2954 C 282.482 1.72451 -0.768509 0
M  V30 2955 O 281.839 1.80643 0.259687 0
M  V30 2956 C 281.89 1.63259 -3.22535 0
M  V30 2957 O 281.611 0.760934 -4.31441 0
M  V30 2958 C 283.112 2.45372 -3.69199 0
M  V30 2959 H 280.332 0.233595 -0.629027 0
M  V30 2960 H 282.876 0.0768229 -2.04356 0
M  V30 2961 H 281.031 2.32463 -3.09903 0
M  V30 2962 H 281.445 1.32595 -5.07463 0
M  V30 2963 H 282.919 2.98144 -4.64558 0
M  V30 2964 H 283.396 3.23677 -2.96867 0
M  V30 2965 H 284.002 1.81373 -3.84687 0
M  V30 2966 N 282.317 1.53212 0.369288 0
M  V30 2967 C 283.733 1.42902 0.710712 0
M  V30 2968 C 283.933 0.565135 1.93413 0
M  V30 2969 O 282.989 0.0461484 2.52458 0
M  V30 2970 C 284.302 2.86042 0.927382 0
M  V30 2971 C 285.85 2.9565 1.02762 0
M  V30 2972 C 286.325 4.39843 1.27679 0
M  V30 2973 N 287.816 4.43256 1.34457 0
M  V30 2974 C 288.551 5.51929 1.55439 0
M  V30 2975 N 288.047 6.70655 1.73762 0
M  V30 2976 N 289.84 5.39502 1.57779 0
M  V30 2977 H 281.991 2.07888 -0.435457 0
M  V30 2978 H 284.254 0.938661 -0.132739 0
M  V30 2979 H 283.96 3.51557 0.100287 0
M  V30 2980 H 283.834 3.29472 1.83653 0
M  V30 2981 H 286.221 2.30291 1.84527 0
M  V30 2982 H 286.302 2.5562 0.0959504 0
M  V30 2983 H 285.946 5.05774 0.464175 0
M  V30 2984 H 285.876 4.77443 2.22162 0
M  V30 2985 H 288.367 3.5769 1.21926 0
M  V30 2986 H 288.68 7.49248 1.89335 0
M  V30 2987 H 287.025 6.73648 1.70948 0
M  V30 2988 H 290.216 4.45713 1.43029 0
M  V30 2989 H 290.389 6.2426 1.7379 0
M  V30 2990 N 283.795 -0.628877 1.44509 0
M  V30 2991 C 284.742 -1.74074 1.51549 0
M  V30 2992 C 285.712 -1.62084 0.363021 0
M  V30 2993 O 286.897 -1.81975 0.573567 0
M  V30 2994 C 284.037 -3.12328 1.46784 0
M  V30 2995 C 283.15 -3.35277 2.72422 0
M  V30 2996 C 282.285 -4.63515 2.59475 0
M  V30 2997 C 281.324 -4.7965 3.80266 0
M  V30 2998 N 280.461 -5.99168 3.65981 0
M  V30 2999 H 285.301 -1.67392 2.46544 0
M  V30 3000 H 282.838 -0.816527 1.22357 0
M  V30 3001 H 284.796 -3.92286 1.42012 0
M  V30 3002 H 283.426 -3.18018 0.553544 0
M  V30 3003 H 282.478 -2.49242 2.87372 0
M  V30 3004 H 283.79 -3.43078 3.62076 0
M  V30 3005 H 282.944 -5.51638 2.52548 0
M  V30 3006 H 281.683 -4.58076 1.67384 0
M  V30 3007 H 280.688 -3.89957 3.87574 0
M  V30 3008 H 281.913 -4.86902 4.73395 0
M  V30 3009 H 279.859 -5.94814 2.76644 0
M  V30 3010 H 279.776 -6.08035 4.49254 0
M  V30 3011 H 281.044 -6.89846 3.6295 0
M  V30 3012 N 285.273 -1.31445 -0.869486 0
M  V30 3013 C 286.519 -1.21337 -1.62496 0
M  V30 3014 C 286.852 0.227872 -1.92858 0
M  V30 3015 O 286.127 1.16094 -1.56053 0
M  V30 3016 C 286.41 -2.05814 -2.95487 0
M  V30 3017 C 286.263 -3.5824 -2.72 0
M  V30 3018 C 287.582 -1.9079 -3.96594 0
M  V30 3019 H 284.701 -0.442135 -0.589649 0
M  V30 3020 H 287.343 -1.6124 -1.00507 0
M  V30 3021 H 285.493 -1.71913 -3.48394 0
M  V30 3022 H 287.165 -4.0228 -2.25762 0
M  V30 3023 H 285.408 -3.81647 -2.06224 0
M  V30 3024 H 286.079 -4.12657 -3.66631 0
M  V30 3025 H 288.555 -2.20459 -3.52898 0
M  V30 3026 H 287.431 -2.52199 -4.87531 0
M  V30 3027 H 287.692 -0.871341 -4.33428 0
M  V30 3028 N 286.751 1.08385 -1.14413 0
M  V30 3029 C 287.979 1.84517 -0.936001 0
M  V30 3030 C 288.394 1.81626 0.515503 0
M  V30 3031 O 287.751 1.22008 1.35721 0
M  V30 3032 C 287.802 3.32049 -1.42918 0
M  V30 3033 O 287.523 3.34951 -2.82381 0
M  V30 3034 C 289.024 4.24986 -1.26103 0
M  V30 3035 H 286.244 0.582491 -0.333084 0
M  V30 3036 H 288.788 1.36885 -1.5193 0
M  V30 3037 H 286.943 3.7707 -0.888641 0
M  V30 3038 H 287.357 4.27048 -3.04517 0
M  V30 3039 H 288.831 5.26615 -1.6547 0
M  V30 3040 H 289.308 4.38726 -0.20392 0
M  V30 3041 H 289.914 3.85791 -1.79012 0
M  V30 3042 N 288.23 0.939286 1.26551 0
M  V30 3043 C 289.507 0.5038 1.89001 0
M  V30 3044 C 289.887 -1.01854 1.84903 0
M  V30 3045 O 289.235 -1.87773 1.30206 0
M  V30 3046 C 289.445 1.063 3.32417 0
M  V30 3047 C 290.793 1.13051 4.09273 0
M  V30 3048 O 291.817 1.01345 3.41479 0
M  V30 3049 O 290.676 1.31233 5.30509 0
M  V30 3050 H 287.77 0.163897 0.810597 0
M  V30 3051 H 290.316 1.03173 1.34735 0
M  V30 3052 H 289.088 2.10665 3.29752 0
M  V30 3053 H 288.711 0.517408 3.94219 0
M  V30 3054 N 289.708 -1.40897 0.706093 0
M  V30 3055 C 290.671 -2.29131 0.0562841 0
M  V30 3056 C 291.671 -1.44901 -0.697166 0
M  V30 3057 O 292.861 -1.65926 -0.530484 0
M  V30 3058 C 289.993 -3.27957 -0.93043 0
M  V30 3059 H 291.186 -2.88091 0.833284 0
M  V30 3060 H 288.739 -1.4906 0.470192 0
M  V30 3061 H 289.474 -2.73997 -1.73482 0
M  V30 3062 H 289.259 -3.90124 -0.393166 0
M  V30 3063 H 290.749 -3.94049 -1.38256 0
M  V30 3064 N 291.186 -0.45159 -1.50991 0
M  V30 3065 C 292.432 0.110237 -2.025 0
M  V30 3066 C 292.765 1.41109 -1.33424 0
M  V30 3067 O 292.04 1.89135 -0.453659 0
M  V30 3068 C 292.323 0.314271 -3.58726 0
M  V30 3069 C 292.176 -1.00623 -4.38401 0
M  V30 3070 C 293.495 1.07767 -4.26702 0
M  V30 3071 H 290.614 0.0385897 -0.735989 0
M  V30 3072 H 293.256 -0.593374 -1.80497 0
M  V30 3073 H 291.406 0.913601 -3.77605 0
M  V30 3074 H 293.078 -1.64064 -4.31139 0
M  V30 3075 H 291.321 -1.6075 -4.02917 0
M  V30 3076 H 291.992 -0.817341 -5.45915 0
M  V30 3077 H 294.468 0.56986 -4.12179 0
M  V30 3078 H 293.344 1.18921 -5.35863 0
M  V30 3079 H 293.605 2.10939 -3.88532 0
M  V30 3080 N 292.664 1.56529 -0.183458 0
M  V30 3081 C 293.627 2.17324 0.728223 0
M  V30 3082 C 294.627 1.12453 1.14939 0
M  V30 3083 O 295.817 1.37902 1.06437 0
M  V30 3084 C 292.949 2.76591 1.99274 0
M  V30 3085 H 294.142 2.99241 0.198772 0
M  V30 3086 H 291.695 1.5616 0.0661391 0
M  V30 3087 H 292.43 1.98441 2.56499 0
M  V30 3088 H 292.215 3.5335 1.69959 0
M  V30 3089 H 293.705 3.23311 2.6431 0
M  V30 3090 N 294.142 -0.090211 1.57342 0
M  V30 3091 C 295.558 -0.444547 1.53284 0
M  V30 3092 C 295.758 -1.80238 0.900914 0
M  V30 3093 O 294.814 -2.4759 0.495513 0
M  V30 3094 C 296.127 -0.402543 2.97993 0
M  V30 3095 C 297.675 -0.48405 3.09234 0
M  V30 3096 C 298.15 -0.472144 4.5556 0
M  V30 3097 N 299.641 -0.532757 4.60126 0
M  V30 3098 C 300.376 -0.545462 5.708 0
M  V30 3099 N 299.872 -0.514082 6.9089 0
M  V30 3100 N 301.665 -0.59064 5.58988 0
M  V30 3101 H 293.816 0.799121 1.96794 0
M  V30 3102 H 296.079 0.297965 0.899956 0
M  V30 3103 H 295.785 0.528106 3.47712 0
M  V30 3104 H 295.659 -1.21969 3.56936 0
M  V30 3105 H 298.046 -1.40512 2.595 0
M  V30 3106 H 298.127 0.361328 2.53235 0
M  V30 3107 H 297.771 0.445 5.05947 0
M  V30 3108 H 297.701 -1.3348 5.09402 0
M  V30 3109 H 300.192 -0.562006 3.73698 0
M  V30 3110 H 300.505 -0.527195 7.71 0
M  V30 3111 H 298.85 -0.481054 6.93333 0
M  V30 3112 H 302.041 -0.61272 4.64073 0
M  V30 3113 H 302.214 -0.597073 6.45243 0
M  V30 3114 N 295.62 -1.53406 -0.361157 0
M  V30 3115 C 296.869 -1.69022 -1.10066 0
M  V30 3116 C 297.182 -0.450838 -1.90333 0
M  V30 3117 O 298.388 -0.487617 -2.67085 0
M  V30 3118 C 296.844 -2.98812 -2.00598 0
M  V30 3119 C 296.452 -4.30027 -1.25621 0
M  V30 3120 C 298.196 -3.23795 -2.74513 0
M  V30 3121 C 296.103 -5.50903 -2.1508 0
M  V30 3122 H 295.033 -0.629776 -0.414606 0
M  V30 3123 H 297.684 -1.79907 -0.361348 0
M  V30 3124 H 296.066 -2.8174 -2.78278 0
M  V30 3125 H 297.24 -4.57745 -0.529739 0
M  V30 3126 H 295.555 -4.11522 -0.635496 0
M  V30 3127 H 298.152 -4.11289 -3.41681 0
M  V30 3128 H 298.495 -2.40045 -3.40123 0
M  V30 3129 H 299.028 -3.41561 -2.03914 0
M  V30 3130 H 295.767 -6.37143 -1.54041 0
M  V30 3131 H 295.287 -5.27459 -2.85565 0
M  V30 3132 H 296.966 -5.85865 -2.74538 0
M  V30 3133 N 297.098 0.621204 -1.44841 0
M  V30 3134 C 298.045 1.73267 -1.5247 0
M  V30 3135 C 299.015 1.6189 -0.371611 0
M  V30 3136 O 300.2 1.81668 -0.58321 0
M  V30 3137 C 297.34 3.11545 -1.48438 0
M  V30 3138 C 296.453 3.33827 -2.74196 0
M  V30 3139 C 295.588 4.62133 -2.61929 0
M  V30 3140 C 294.627 4.77627 -3.82804 0
M  V30 3141 N 293.764 5.97219 -3.69153 0
M  V30 3142 H 298.604 1.66082 -2.47428 0
M  V30 3143 H 296.141 0.810026 -1.22788 0
M  V30 3144 H 298.099 3.91528 -1.4409 0
M  V30 3145 H 296.729 3.1772 -0.570402 0
M  V30 3146 H 295.781 2.47715 -2.88689 0
M  V30 3147 H 297.093 3.41153 -3.6389 0
M  V30 3148 H 296.247 5.50291 -2.5547 0
M  V30 3149 H 294.986 4.57182 -1.69811 0
M  V30 3150 H 293.991 3.87896 -3.89637 0
M  V30 3151 H 295.216 4.84385 -4.75971 0
M  V30 3152 H 293.162 5.93339 -2.79794 0
M  V30 3153 H 293.079 6.05644 -4.52472 0
M  V30 3154 H 294.347 6.87912 -3.66603 0
M  V30 3155 N 298.576 1.31904 0.862503 0
M  V30 3156 C 299.506 1.22782 1.98612 0
M  V30 3157 C 300.487 0.113362 1.69722 0
M  V30 3158 O 301.672 0.299218 1.91881 0
M  V30 3159 C 298.802 0.942058 3.34279 0
M  V30 3160 C 297.756 2.0169 3.77499 0
M  V30 3161 C 297.082 1.58369 5.10709 0
M  V30 3162 C 298.382 3.43096 3.93805 0
M  V30 3163 H 300.076 2.16788 2.06502 0
M  V30 3164 H 297.622 1.04366 0.992154 0
M  V30 3165 H 299.575 0.864818 4.1243 0
M  V30 3166 H 298.299 -0.0336603 3.26583 0
M  V30 3167 H 296.958 2.08416 3.01593 0
M  V30 3168 H 296.606 0.595628 4.99461 0
M  V30 3169 H 296.306 2.30279 5.40597 0
M  V30 3170 H 297.83 1.52067 5.91361 0
M  V30 3171 H 299.244 3.39003 4.62331 0
M  V30 3172 H 297.641 4.13288 4.35101 0
M  V30 3173 H 298.711 3.83334 2.96957 0
M  V30 3174 N 300.054 -1.07777 1.14986 0
M  V30 3175 C 301.302 -1.79934 0.920235 0
M  V30 3176 C 301.623 -1.86955 -0.554336 0
M  V30 3177 O 300.893 -1.36731 -1.40291 0
M  V30 3178 H 299.473 -0.666424 0.337473 0
M  V30 3179 H 302.135 -1.3027 1.44968 0
M  V30 3180 H 301.231 -2.82539 1.32583 0
M  V30 3181 N 301.532 -0.945985 -1.26051 0
M  V30 3182 C 302.479 -0.45809 -2.26208 0
M  V30 3183 C 303.449 0.484816 -1.58867 0
M  V30 3184 O 304.634 0.399969 -1.86561 0
M  V30 3185 C 301.774 0.266131 -3.44072 0
M  V30 3186 C 300.887 -0.713005 -4.26075 0
M  V30 3187 C 300.022 0.0329013 -5.3119 0
M  V30 3188 C 299.061 -0.93774 -6.04874 0
M  V30 3189 N 298.198 -0.223274 -7.01745 0
M  V30 3190 H 303.038 -1.3171 -2.67313 0
M  V30 3191 H 300.575 -0.66069 -1.31428 0
M  V30 3192 H 302.533 0.702514 -4.11243 0
M  V30 3193 H 301.163 1.08925 -3.03867 0
M  V30 3194 H 300.215 -1.26789 -3.58648 0
M  V30 3195 H 301.527 -1.45406 -4.77136 0
M  V30 3196 H 300.681 0.528335 -6.04395 0
M  V30 3197 H 299.42 0.806801 -4.8098 0
M  V30 3198 H 298.425 -1.44425 -5.30492 0
M  V30 3199 H 299.65 -1.71172 -6.57173 0
M  V30 3200 H 297.596 0.532046 -6.53839 0
M  V30 3201 H 297.513 -0.90357 -7.50581 0
M  V30 3202 H 298.781 0.250907 -7.79096 0
M  V30 3203 N 303.011 1.40521 -0.713556 0
M  V30 3204 C 303.943 2.29191 -0.0203126 0
M  V30 3205 C 304.956 1.45723 0.725864 0
M  V30 3206 O 306.145 1.69033 0.573581 0
M  V30 3207 C 303.245 3.2395 0.995486 0
M  V30 3208 C 302.418 4.36262 0.315256 0
M  V30 3209 C 301.477 5.11474 1.23616 0
M  V30 3210 O 300.503 5.64606 0.721719 0
M  V30 3211 N 301.705 5.20638 2.56743 0
M  V30 3212 H 304.47 2.89327 -0.781652 0
M  V30 3213 H 302.031 1.51869 -0.561022 0
M  V30 3214 H 304.023 3.71137 1.61368 0
M  V30 3215 H 302.593 2.64995 1.6582 0
M  V30 3216 H 301.813 3.91228 -0.483106 0
M  V30 3217 H 303.101 5.08558 -0.157004 0
M  V30 3218 H 302.499 4.7895 3.01037 0
M  V30 3219 H 301.056 5.71339 3.13712 0
M  V30 3220 N 304.489 0.459591 1.5075 0
M  V30 3221 C 305.421 -0.37665 2.26084 0
M  V30 3222 C 306.434 -0.967109 1.30961 0
M  V30 3223 O 307.623 -0.857468 1.56556 0
M  V30 3224 C 304.723 -1.54112 3.01832 0
M  V30 3225 C 303.896 -1.06553 4.24223 0
M  V30 3226 C 302.955 -2.1027 4.82362 0
M  V30 3227 O 301.981 -1.68798 5.43595 0
M  V30 3228 N 303.183 -3.42974 4.68347 0
M  V30 3229 H 305.948 0.269124 2.98489 0
M  V30 3230 H 303.509 0.28972 1.59287 0
M  V30 3231 H 305.501 -2.23165 3.37608 0
M  V30 3232 H 304.071 -2.0918 2.32298 0
M  V30 3233 H 303.291 -0.201274 3.93686 0
M  V30 3234 H 304.579 -0.725516 5.03601 0
M  V30 3235 H 303.977 -3.79385 4.19623 0
M  V30 3236 H 302.534 -4.07858 5.08424 0
M  V30 3237 N 305.967 -1.56429 0.191757 0
M  V30 3238 C 306.877 -2.22541 -0.742481 0
M  V30 3239 C 307.893 -1.22342 -1.23727 0
M  V30 3240 O 309.069 -1.55069 -1.28513 0
M  V30 3241 C 306.134 -2.8692 -1.94623 0
M  V30 3242 C 305.195 -4.02378 -1.49633 0
M  V30 3243 C 304.428 -4.63678 -2.6427 0
M  V30 3244 O 304.651 -4.23895 -3.81666 0
M  V30 3245 O 303.585 -5.53202 -2.37174 0
M  V30 3246 H 307.411 -3.02977 -0.209462 0
M  V30 3247 H 304.996 -1.49353 -0.0373832 0
M  V30 3248 H 306.878 -3.27663 -2.64982 0
M  V30 3249 H 305.553 -2.09466 -2.46791 0
M  V30 3250 H 304.46 -3.66265 -0.761636 0
M  V30 3251 H 305.793 -4.81487 -1.02134 0
M  V30 3252 N 307.445 0.0818655 -1.57387 0
M  V30 3253 C 308.375 1.09885 -2.06028 0
M  V30 3254 C 309.356 1.4098 -0.951774 0
M  V30 3255 O 310.541 1.50781 -1.22387 0
M  V30 3256 C 307.671 2.4151 -2.4958 0
M  V30 3257 C 306.625 2.24792 -3.64215 0
M  V30 3258 C 305.951 3.61712 -3.93787 0
M  V30 3259 C 307.251 1.67749 -4.94629 0
M  V30 3260 H 308.945 0.694128 -2.91243 0
M  V30 3261 H 306.491 0.332448 -1.4011 0
M  V30 3262 H 308.444 3.12939 -2.82219 0
M  V30 3263 H 307.168 2.83943 -1.61381 0
M  V30 3264 H 305.827 1.55807 -3.31843 0
M  V30 3265 H 305.475 4.01697 -3.02735 0
M  V30 3266 H 305.175 3.51368 -4.70971 0
M  V30 3267 H 306.699 4.34587 -4.28913 0
M  V30 3268 H 308.113 2.29032 -5.25564 0
M  V30 3269 H 306.51 1.68128 -5.76067 0
M  V30 3270 H 307.58 0.638059 -4.80684 0
M  V30 3271 N 308.923 1.53595 0.353017 0
M  V30 3272 C 310.339 1.43648 0.695516 0
M  V30 3273 C 310.539 0.585617 1.92802 0
M  V30 3274 O 309.595 0.0729223 2.52395 0
M  V30 3275 C 310.908 2.8701 0.896991 0
M  V30 3276 C 312.456 2.96723 0.996209 0
M  V30 3277 C 312.931 4.41173 1.23007 0
M  V30 3278 N 314.422 4.44657 1.29749 0
M  V30 3279 C 315.157 5.53547 1.49577 0
M  V30 3280 N 314.653 6.72461 1.66639 0
M  V30 3281 N 316.446 5.41145 1.52048 0
M  V30 3282 H 308.597 2.07415 -0.457481 0
M  V30 3283 H 310.86 0.9372 -0.142687 0
M  V30 3284 H 310.566 3.51644 0.0629938 0
M  V30 3285 H 310.44 3.31401 1.80148 0
M  V30 3286 H 312.827 2.32235 1.82074 0
M  V30 3287 H 312.908 2.55707 0.0688331 0
M  V30 3288 H 312.552 5.06238 0.410505 0
M  V30 3289 H 312.482 4.79772 2.17086 0
M  V30 3290 H 314.973 3.58963 1.18126 0
M  V30 3291 H 315.286 7.51214 1.81378 0
M  V30 3292 H 313.631 6.75423 1.63794 0
M  V30 3293 H 316.822 4.47205 1.38294 0
M  V30 3294 H 316.995 6.26068 1.67159 0
M  V30 3295 N 310.401 -0.613514 1.45168 0
M  V30 3296 C 311.331 -1.7354 1.56225 0
M  V30 3297 C 312.312 -1.64981 0.41414 0
M  V30 3298 O 313.497 -1.83472 0.636526 0
M  V30 3299 C 310.627 -3.12128 1.52295 0
M  V30 3300 C 309.581 -3.35491 2.65762 0
M  V30 3301 C 308.907 -4.74291 2.46885 0
M  V30 3302 C 310.207 -3.26325 4.0781 0
M  V30 3303 H 311.901 -1.64543 2.50132 0
M  V30 3304 H 309.447 -0.790185 1.20383 0
M  V30 3305 H 311.4 -3.90404 1.58628 0
M  V30 3306 H 310.124 -3.2195 0.549139 0
M  V30 3307 H 308.783 -2.59603 2.58847 0
M  V30 3308 H 308.431 -4.80839 1.47657 0
M  V30 3309 H 308.131 -4.9088 3.22972 0
M  V30 3310 H 309.655 -5.54775 2.55063 0
M  V30 3311 H 311.069 -3.94483 4.16 0
M  V30 3312 H 309.466 -3.54445 4.8424 0
M  V30 3313 H 310.536 -2.23855 4.30136 0
M  V30 3314 N 311.879 -1.3236 -0.855495 0
M  V30 3315 C 313.127 -1.22629 -1.60644 0
M  V30 3316 C 313.448 0.212136 -1.93843 0
M  V30 3317 O 312.718 1.13666 -1.59552 0
M  V30 3318 H 311.298 -0.450882 -0.595579 0
M  V30 3319 H 313.96 -1.65871 -1.02337 0
M  V30 3320 H 313.056 -1.80832 -2.54374 0
M  V30 3321 N 313.357 1.07166 -1.15556 0
M  V30 3322 C 314.305 2.16517 -0.8499 0
M  V30 3323 C 315.299 1.68468 0.177454 0
M  V30 3324 O 316.505 1.79971 0.0323026 0
M  V30 3325 H 312.88 0.706652 -0.25719 0
M  V30 3326 H 314.851 2.39514 -1.77976 0
M  V30 3327 C 313.6 3.45855 -0.357682 0
M  V30 3328 H 312.923 3.83214 -1.13961 0
M  V30 3329 H 314.363 4.23607 -0.182489 0
M  V30 3330 C 312.822 3.24062 0.921152 0
M  V30 3331 O 313.352 3.48813 1.9923 0
M  V30 3332 N 311.558 2.77539 0.86141 0
M  V30 3333 H 311.105 2.57598 -0.0104408 0
M  V30 3334 H 311.063 2.63337 1.71758 0
M  V30 3335 N 314.835 0.952656 1.25548 0
M  V30 3336 C 316.081 0.607272 1.93494 0
M  V30 3337 C 316.414 -0.853245 1.74452 0
M  V30 3338 O 315.689 -1.61194 1.08843 0
M  V30 3339 C 315.972 0.96435 3.46947 0
M  V30 3340 C 315.825 2.48045 3.75225 0
M  V30 3341 C 317.144 0.487987 4.37386 0
M  V30 3342 H 314.263 0.222096 0.702739 0
M  V30 3343 H 316.905 1.18895 1.48203 0
M  V30 3344 H 315.055 0.469361 3.85654 0
M  V30 3345 H 316.727 3.04905 3.46166 0
M  V30 3346 H 314.97 2.919 3.209 0
M  V30 3347 H 315.641 2.6808 4.82532 0
M  V30 3348 H 318.117 0.912558 4.0597 0
M  V30 3349 H 316.993 0.766547 5.43521 0
M  V30 3350 H 317.254 -0.612063 4.37843 0
M  V30 3351 N 316.313 -1.40141 0.720998 0
M  V30 3352 C 317.59 -1.94677 0.189757 0
M  V30 3353 C 317.97 -1.65879 -1.30566 0
M  V30 3354 O 317.318 -0.979391 -2.06447 0
M  V30 3355 C 317.528 -3.45279 0.508304 0
M  V30 3356 C 318.876 -4.22209 0.449934 0
M  V30 3357 O 319.9 -3.53413 0.444677 0
M  V30 3358 O 318.759 -5.44788 0.432189 0
M  V30 3359 H 315.853 -0.826459 0.0299026 0
M  V30 3360 H 318.399 -1.49719 0.7989 0
M  V30 3361 H 317.171 -3.59619 1.54239 0
M  V30 3362 H 316.794 -3.97386 -0.130525 0
M  V30 3363 N 317.792 -0.46758 -1.50504 0
M  V30 3364 C 318.755 0.317059 -2.26996 0
M  V30 3365 C 319.755 0.923513 -1.31635 0
M  V30 3366 O 320.945 0.793239 -1.55091 0
M  V30 3367 C 318.077 1.45134 -3.08462 0
M  V30 3368 H 319.27 -0.353723 -2.97807 0
M  V30 3369 H 316.823 -0.221545 -1.54722 0
M  V30 3370 H 317.558 2.15728 -2.4214 0
M  V30 3371 H 317.343 1.02232 -3.78538 0
M  V30 3372 H 318.833 2.00493 -3.66323 0
M  V30 3373 N 319.27 1.56325 -0.20005 0
M  V30 3374 C 320.217 2.1932 0.718833 0
M  V30 3375 C 321.187 1.14198 1.20615 0
M  V30 3376 O 322.372 1.42469 1.26914 0
M  V30 3377 C 319.512 2.86041 1.93066 0
M  V30 3378 C 318.625 4.05702 1.48425 0
M  V30 3379 C 317.76 4.60266 2.65196 0
M  V30 3380 C 316.799 5.72273 2.17185 0
M  V30 3381 N 315.936 6.21221 3.27152 0
M  V30 3382 H 320.776 2.97486 0.17489 0
M  V30 3383 H 318.313 1.46911 0.0745794 0
M  V30 3384 H 320.271 3.22897 2.64184 0
M  V30 3385 H 318.901 2.1043 2.44783 0
M  V30 3386 H 317.953 3.74475 0.668755 0
M  V30 3387 H 319.265 4.86699 1.09204 0
M  V30 3388 H 318.419 4.99453 3.4443 0
M  V30 3389 H 317.158 3.78386 3.07693 0
M  V30 3390 H 316.163 5.3261 1.36407 0
M  V30 3391 H 317.388 6.55974 1.75713 0
M  V30 3392 H 315.334 5.42263 3.69171 0
M  V30 3393 H 315.251 6.97284 2.92116 0
M  V30 3394 H 316.519 6.65063 4.06585 0
M  V30 3395 N 320.748 -0.0735177 1.57428 0
M  V30 3396 C 322.164 -0.428264 1.53747 0
M  V30 3397 C 322.364 -1.79272 0.91998 0
M  V30 3398 O 321.42 -2.47051 0.521745 0
M  V30 3399 C 322.733 -0.370914 2.98404 0
M  V30 3400 C 324.281 -0.451224 3.0973 0
M  V30 3401 C 324.756 -0.4238 4.56035 0
M  V30 3402 N 326.247 -0.483925 4.60665 0
M  V30 3403 C 326.982 -0.484891 5.71346 0
M  V30 3404 N 326.478 -0.440775 6.91396 0
M  V30 3405 N 328.271 -0.531319 5.59583 0
M  V30 3406 H 320.422 0.819949 1.95935 0
M  V30 3407 H 322.685 0.307493 0.896745 0
M  V30 3408 H 322.391 0.564956 3.47133 0
M  V30 3409 H 322.265 -1.18176 3.5821 0
M  V30 3410 H 324.652 -1.37752 2.60976 0
M  V30 3411 H 324.733 0.388167 2.52838 0
M  V30 3412 H 324.377 0.498638 5.05446 0
M  V30 3413 H 324.307 -1.2807 5.10789 0
M  V30 3414 H 326.798 -0.522338 3.74273 0
M  V30 3415 H 327.111 -0.44539 7.71515 0
M  V30 3416 H 325.456 -0.40749 6.93804 0
M  V30 3417 H 328.647 -0.563464 4.64696 0
M  V30 3418 H 328.82 -0.528603 6.4584 0
M  V30 3419 N 322.226 -1.5378 -0.344866 0
M  V30 3420 C 323.503 -1.61589 -1.10219 0
M  V30 3421 C 323.883 -0.436316 -2.06542 0
M  V30 3422 O 323.231 0.571543 -2.21237 0
M  V30 3423 C 323.441 -2.97602 -1.82301 0
M  V30 3424 C 324.789 -3.5291 -2.36093 0
M  V30 3425 O 325.813 -2.99768 -1.924 0
M  V30 3426 O 324.672 -4.45859 -3.16026 0
M  V30 3427 H 321.766 -0.653522 -0.506792 0
M  V30 3428 H 324.312 -1.66126 -0.346465 0
M  V30 3429 H 323.084 -3.74893 -1.12121 0
M  V30 3430 H 322.707 -2.9665 -2.64735 0
M  V30 3431 N 323.704 0.605807 -1.45491 0
M  V30 3432 C 324.95 1.36481 -1.50813 0
M  V30 3433 C 325.305 1.91826 -0.148469 0
M  V30 3434 O 324.598 1.72211 0.839869 0
M  V30 3435 C 324.792 2.53012 -2.52428 0
M  V30 3436 C 324.621 2.09078 -3.98141 0
M  V30 3437 C 323.391 1.95167 -4.66088 0
M  V30 3438 C 325.589 1.66438 -4.86624 0
M  V30 3439 N 323.571 1.45062 -5.96515 0
M  V30 3440 C 324.942 1.27761 -6.06694 0
M  V30 3441 C 326.997 1.54046 -4.7347 0
M  V30 3442 C 325.7 0.779286 -7.15066 0
M  V30 3443 C 327.726 1.05618 -5.81892 0
M  V30 3444 C 327.088 0.67906 -7.01119 0
M  V30 3445 H 323.187 0.493267 -0.606805 0
M  V30 3446 H 325.771 0.692347 -1.81974 0
M  V30 3447 H 323.942 3.17851 -2.23215 0
M  V30 3448 H 325.674 3.19897 -2.47887 0
M  V30 3449 H 322.429 2.16407 -4.21266 0
M  V30 3450 H 322.853 1.22237 -6.65873 0
M  V30 3451 H 327.495 1.81827 -3.81705 0
M  V30 3452 H 325.213 0.489026 -8.06619 0
M  V30 3453 H 328.799 0.964529 -5.73749 0
M  V30 3454 H 327.679 0.310091 -7.83587 0
M  V30 3455 N 325.182 1.32811 0.848464 0
M  V30 3456 C 326.43 1.23479 1.59991 0
M  V30 3457 C 326.751 -0.201853 1.93952 0
M  V30 3458 O 326.021 -1.12818 1.60153 0
M  V30 3459 H 324.601 0.454034 0.593179 0
M  V30 3460 H 327.263 1.66412 1.01455 0
M  V30 3461 H 326.359 1.82178 2.53412 0
M  V30 3462 N 326.66 -1.06551 1.16123 0
M  V30 3463 C 327.907 -1.79302 0.941126 0
M  V30 3464 C 328.235 -1.87105 -0.531235 0
M  V30 3465 O 327.49 -1.35692 -1.41018 0
M  V30 3466 C 327.789 -3.23911 1.51052 0
M  V30 3467 C 327.455 -3.36193 3.00475 0
M  V30 3468 C 326.117 -3.39252 3.41265 0
M  V30 3469 C 328.469 -3.38326 3.96465 0
M  V30 3470 C 325.797 -3.42057 4.76669 0
M  V30 3471 C 328.149 -3.4267 5.31752 0
M  V30 3472 C 326.813 -3.4401 5.72026 0
M  V30 3473 H 326.083 -0.656111 0.344382 0
M  V30 3474 H 328.73 -1.25325 1.44796 0
M  V30 3475 H 327.035 -3.80723 0.925063 0
M  V30 3476 H 328.732 -3.78793 1.31593 0
M  V30 3477 H 325.322 -3.34516 2.6795 0
M  V30 3478 H 329.506 -3.35176 3.6602 0
M  V30 3479 H 324.762 -3.41398 5.07206 0
M  V30 3480 H 328.936 -3.43268 6.05921 0
M  V30 3481 H 326.563 -3.45937 6.76928 0
M  V30 3482 N 328.138 -0.959301 -1.25041 0
M  V30 3483 C 329.101 -0.487677 -2.23952 0
M  V30 3484 C 330.101 0.41119 -1.55454 0
M  V30 3485 O 331.291 0.207825 -1.72956 0
M  V30 3486 C 328.423 0.294807 -3.39623 0
M  V30 3487 H 329.616 -1.36198 -2.67189 0
M  V30 3488 H 327.169 -0.743042 -1.37508 0
M  V30 3489 H 327.904 1.18658 -3.01813 0
M  V30 3490 H 327.689 -0.35012 -3.90534 0
M  V30 3491 H 329.179 0.614089 -4.1306 0
M  V30 3492 N 329.616 1.39756 -0.72842 0
M  V30 3493 C 330.864 2.00248 -0.272946 0
M  V30 3494 C 331.185 1.58077 1.14178 0
M  V30 3495 O 330.455 0.826014 1.77634 0
M  V30 3496 H 329.035 0.740554 -0.0979247 0
M  V30 3497 H 331.697 1.70903 -0.936912 0
M  V30 3498 H 330.793 3.10495 -0.316142 0
M  V30 3499 N 331.094 0.475555 1.50254 0
M  V30 3500 C 332.371 -0.139685 1.95101 0
M  V30 3501 C 332.751 -1.56555 1.41611 0
M  V30 3502 O 332.099 -2.19956 0.618993 0
M  V30 3503 C 332.309 -0.0784298 3.48912 0
M  V30 3504 C 333.657 -0.265095 4.23772 0
M  V30 3505 O 334.681 -0.154808 3.55863 0
M  V30 3506 O 333.54 -0.488327 5.44314 0
M  V30 3507 H 330.634 -0.109236 0.819754 0
M  V30 3508 H 333.18 0.536276 1.61004 0
M  V30 3509 H 331.952 0.916918 3.80405 0
M  V30 3510 H 331.575 -0.795655 3.89558 0
M  V30 3511 N 332.573 -1.56217 0.208337 0
M  V30 3512 C 333.803 -2.02043 -0.431523 0
M  V30 3513 C 334.211 -1.08755 -1.54819 0
M  V30 3514 O 333.554 -0.0870009 -1.83494 0
M  V30 3515 C 333.616 -3.44239 -1.03633 0
M  V30 3516 C 333.28 -4.56965 -0.0567502 0
M  V30 3517 C 334.277 -5.14624 0.738773 0
M  V30 3518 C 331.962 -5.02266 0.0581736 0
M  V30 3519 C 333.956 -6.16045 1.63605 0
M  V30 3520 C 331.643 -6.03528 0.959001 0
M  V30 3521 C 332.641 -6.60293 1.7465 0
M  V30 3522 O 332.329 -7.59586 2.6322 0
M  V30 3523 H 332.061 -0.666772 -0.111313 0
M  V30 3524 H 334.615 -2.02919 0.318277 0
M  V30 3525 H 332.845 -3.40391 -1.83497 0
M  V30 3526 H 334.534 -3.73793 -1.58221 0
M  V30 3527 H 335.3 -4.80483 0.660364 0
M  V30 3528 H 331.179 -4.57771 -0.544633 0
M  V30 3529 H 334.723 -6.60279 2.25116 0
M  V30 3530 H 330.62 -6.37092 1.03848 0
M  V30 3531 H 331.388 -7.77057 2.57148 0
M  V30 3532 N 334.051 0.0651679 -1.57465 0
M  V30 3533 C 335.297 0.764193 -1.87851 0
M  V30 3534 C 335.63 1.76889 -0.801495 0
M  V30 3535 O 334.905 1.93594 0.187528 0
M  V30 3536 C 335.188 1.46625 -3.28897 0
M  V30 3537 C 335.041 0.477515 -4.47258 0
M  V30 3538 C 336.36 2.4095 -3.68281 0
M  V30 3539 H 333.479 0.276351 -0.683227 0
M  V30 3540 H 336.121 0.0272868 -1.8998 0
M  V30 3541 H 334.271 2.09438 -3.27212 0
M  V30 3542 H 335.943 -0.145922 -4.61069 0
M  V30 3543 H 334.186 -0.206576 -4.33308 0
M  V30 3544 H 334.857 1.0065 -5.42746 0
M  V30 3545 H 337.333 1.88209 -3.71102 0
M  V30 3546 H 336.209 2.87072 -4.67847 0
M  V30 3547 H 336.47 3.26049 -2.98571 0
M  V30 3548 N 335.529 1.53961 0.336706 0
M  V30 3549 C 336.439 1.85432 1.43708 0
M  V30 3550 C 337.455 0.745053 1.57242 0
M  V30 3551 O 338.631 1.03804 1.72588 0
M  V30 3552 C 335.696 2.06349 2.78605 0
M  V30 3553 C 334.757 3.30191 2.74358 0
M  V30 3554 C 333.99 3.50101 4.02822 0
M  V30 3555 O 334.213 2.7371 5.00439 0
M  V30 3556 O 333.147 4.43547 4.06878 0
M  V30 3557 H 336.973 2.78975 1.20028 0
M  V30 3558 H 334.558 1.39701 0.52952 0
M  V30 3559 H 336.44 2.21513 3.58483 0
M  V30 3560 H 335.115 1.15995 3.02203 0
M  V30 3561 H 334.022 3.20425 1.93078 0
M  V30 3562 H 335.355 4.2056 2.55715 0
M  V30 3563 N 337.007 -0.598083 1.45811 0
M  V30 3564 C 337.97 -1.69018 1.54808 0
M  V30 3565 C 338.97 -1.55037 0.426652 0
M  V30 3566 O 340.16 -1.59932 0.690456 0
M  V30 3567 C 337.292 -3.0835 1.45371 0
M  V30 3568 H 338.485 -1.62403 2.52121 0
M  V30 3569 H 336.038 -0.814626 1.33392 0
M  V30 3570 H 336.773 -3.20534 0.492793 0
M  V30 3571 H 336.558 -3.19907 2.26721 0
M  V30 3572 H 338.048 -3.8788 1.54721 0
M  V30 3573 N 338.485 -1.33259 -0.841409 0
M  V30 3574 C 339.418 -1.1764 -1.95541 0
M  V30 3575 C 340.396 -0.072501 -1.62438 0
M  V30 3576 O 341.58 -0.23427 -1.87039 0
M  V30 3577 C 338.707 -0.803794 -3.29024 0
M  V30 3578 C 337.753 -1.91482 -3.81099 0
M  V30 3579 S 338.586 -3.52538 -4.03085 0
M  V30 3580 C 339.742 -3.17279 -5.39523 0
M  V30 3581 H 339.975 -2.11941 -2.08491 0
M  V30 3582 H 337.508 -1.18072 -0.9949 0
M  V30 3583 H 339.466 -0.595592 -4.06156 0
M  V30 3584 H 338.127 0.120574 -3.13868 0
M  V30 3585 H 337.32 -1.60742 -4.7768 0
M  V30 3586 H 336.922 -2.07956 -3.10854 0
M  V30 3587 H 339.214 -2.67946 -6.22263 0
M  V30 3588 H 340.157 -4.1293 -5.75234 0
M  V30 3589 H 340.565 -2.53943 -5.04156 0
M  V30 3590 N 339.963 1.05934 -1.16686 0
M  V30 3591 C 341.209 1.79211 -0.962023 0
M  V30 3592 C 341.564 1.85667 0.504545 0
M  V30 3593 O 340.857 1.33991 1.36956 0
M  V30 3594 C 341.051 3.23105 -1.52767 0
M  V30 3595 C 340.88 3.30673 -3.04771 0
M  V30 3596 C 339.65 3.40395 -3.73442 0
M  V30 3597 C 341.848 3.20234 -4.02436 0
M  V30 3598 N 339.83 3.37015 -5.13122 0
M  V30 3599 C 341.201 3.24138 -5.28521 0
M  V30 3600 C 343.256 3.04143 -3.9421 0
M  V30 3601 C 341.959 3.13607 -6.47336 0
M  V30 3602 C 343.985 2.94951 -5.12599 0
M  V30 3603 C 343.347 2.99481 -6.37566 0
M  V30 3604 H 339.446 0.668442 -0.405844 0
M  V30 3605 H 342.03 1.26341 -1.48142 0
M  V30 3606 H 340.201 3.74364 -1.03471 0
M  V30 3607 H 341.933 3.84579 -1.26021 0
M  V30 3608 H 338.688 3.45344 -3.2409 0
M  V30 3609 H 339.112 3.38815 -5.86117 0
M  V30 3610 H 343.754 2.99484 -2.98445 0
M  V30 3611 H 341.472 3.17022 -7.43319 0
M  V30 3612 H 345.058 2.83583 -5.08008 0
M  V30 3613 H 343.938 2.92431 -7.27636 0
M  V30 3614 N 341.441 0.965919 1.2453 0
M  V30 3615 C 342.371 0.513476 2.27784 0
M  V30 3616 C 343.352 -0.445974 1.6415 0
M  V30 3617 O 344.537 -0.342485 1.91156 0
M  V30 3618 C 341.667 -0.198839 3.4673 0
M  V30 3619 C 340.621 0.676456 4.2262 0
M  V30 3620 C 339.947 -0.167248 5.34438 0
M  V30 3621 C 341.247 1.96017 4.84123 0
M  V30 3622 H 342.941 1.3765 2.65881 0
M  V30 3623 H 340.487 0.663321 1.27813 0
M  V30 3624 H 342.44 -0.526567 4.18097 0
M  V30 3625 H 341.164 -1.0962 3.07654 0
M  V30 3626 H 339.823 0.98743 3.53052 0
M  V30 3627 H 339.471 -1.0647 4.91603 0
M  V30 3628 H 339.171 0.415181 5.86131 0
M  V30 3629 H 340.695 -0.489688 6.08633 0
M  V30 3630 H 342.109 1.69814 5.47573 0
M  V30 3631 H 340.506 2.48918 5.4604 0
M  V30 3632 H 341.576 2.65622 4.05676 0
M  V30 3633 N 342.919 -1.39368 0.735821 0
M  V30 3634 C 343.852 -2.28155 0.0451175 0
M  V30 3635 C 344.83 -1.44433 -0.746852 0
M  V30 3636 O 346.014 -1.73823 -0.729237 0
M  V30 3637 C 343.141 -3.253 -0.943266 0
M  V30 3638 C 342.187 -4.25826 -0.239685 0
M  V30 3639 S 343.02 -5.25166 1.04693 0
M  V30 3640 C 344.176 -6.2587 0.0611639 0
M  V30 3641 H 344.409 -2.86388 0.79807 0
M  V30 3642 H 341.942 -1.45104 0.527653 0
M  V30 3643 H 343.9 -3.81789 -1.50824 0
M  V30 3644 H 342.561 -2.66085 -1.66906 0
M  V30 3645 H 341.754 -4.94229 -0.987596 0
M  V30 3646 H 341.356 -3.73141 0.253274 0
M  V30 3647 H 343.648 -6.73007 -0.778941 0
M  V30 3648 H 344.591 -7.04508 0.712362 0
M  V30 3649 H 344.999 -5.63639 -0.311602 0
M  V30 3650 N 344.397 -0.483516 -1.5 0
M  V30 3651 C 345.327 0.293829 -2.31644 0
M  V30 3652 C 346.308 0.978864 -1.39112 0
M  V30 3653 O 347.493 0.973644 -1.68029 0
M  V30 3654 C 344.623 1.36897 -3.19181 0
M  V30 3655 C 343.577 0.804833 -4.20365 0
M  V30 3656 C 342.903 1.9792 -4.96721 0
M  V30 3657 C 344.203 -0.192313 -5.21946 0
M  V30 3658 H 345.897 -0.387616 -2.9688 0
M  V30 3659 H 343.443 -0.187856 -1.42769 0
M  V30 3660 H 345.396 1.92037 -3.751 0
M  V30 3661 H 344.12 2.07936 -2.51853 0
M  V30 3662 H 342.779 0.275319 -3.65565 0
M  V30 3663 H 342.427 2.67686 -4.25856 0
M  V30 3664 H 342.127 1.60789 -5.65173 0
M  V30 3665 H 343.651 2.53526 -5.55479 0
M  V30 3666 H 345.065 0.270333 -5.72662 0
M  V30 3667 H 343.462 -0.478543 -5.98189 0
M  V30 3668 H 344.532 -1.11409 -4.71928 0
M  V30 3669 N 345.875 1.56104 -0.216619 0
M  V30 3670 C 346.807 2.17339 0.72776 0
M  V30 3671 C 347.82 1.14109 1.16116 0
M  V30 3672 O 349.009 1.4111 1.09317 0
M  V30 3673 C 346.109 2.73818 1.99693 0
M  V30 3674 C 345.282 4.02168 1.71988 0
M  V30 3675 C 344.341 4.43259 2.83562 0
M  V30 3676 O 343.367 5.10257 2.52244 0
M  V30 3677 N 344.569 4.08535 4.12407 0
M  V30 3678 H 347.334 2.99005 0.203983 0
M  V30 3679 H 344.895 1.61861 -0.0354289 0
M  V30 3680 H 346.887 2.9828 2.73516 0
M  V30 3681 H 345.457 1.96483 2.43132 0
M  V30 3682 H 344.677 3.85612 0.818337 0
M  V30 3683 H 345.965 4.85907 1.50903 0
M  V30 3684 H 345.363 3.54687 4.40696 0
M  V30 3685 H 343.92 4.37901 4.8279 0
M  V30 3686 N 347.353 -0.0568162 1.57498 0
M  V30 3687 C 348.285 -1.09292 2.01464 0
M  V30 3688 C 349.298 -1.34112 0.922913 0
M  V30 3689 O 350.487 -1.32089 1.20062 0
M  V30 3690 C 347.587 -2.44068 2.35125 0
M  V30 3691 C 346.76 -2.38995 3.66333 0
M  V30 3692 C 345.819 -3.55997 3.87495 0
M  V30 3693 O 344.845 -3.36746 4.58901 0
M  V30 3694 N 346.047 -4.76888 3.30996 0
M  V30 3695 H 348.812 -0.718386 2.90963 0
M  V30 3696 H 346.373 -0.245235 1.60032 0
M  V30 3697 H 348.365 -3.21011 2.46443 0
M  V30 3698 H 346.935 -2.73468 1.5144 0
M  V30 3699 H 346.155 -1.47336 3.65631 0
M  V30 3700 H 347.443 -2.3272 4.52458 0
M  V30 3701 H 346.841 -4.95431 2.73065 0
M  V30 3702 H 345.398 -5.51291 3.47738 0
M  V30 3703 N 348.832 -1.54138 -0.328536 0
M  V30 3704 C 350.109 -1.62749 -1.08499 0
M  V30 3705 C 350.489 -0.458198 -2.06067 0
M  V30 3706 O 349.837 0.548046 -2.2183 0
M  V30 3707 C 350.047 -2.99519 -1.79135 0
M  V30 3708 C 351.395 -3.55394 -2.32337 0
M  V30 3709 O 352.419 -3.01792 -1.89209 0
M  V30 3710 O 351.278 -4.49186 -3.11279 0
M  V30 3711 H 348.372 -0.65886 -0.499832 0
M  V30 3712 H 350.918 -1.66484 -0.328826 0
M  V30 3713 H 349.69 -3.76061 -1.08139 0
M  V30 3714 H 349.313 -2.99441 -2.61574 0
M  V30 3715 N 350.31 0.590341 -1.46126 0
M  V30 3716 C 351.257 1.69994 -1.56111 0
M  V30 3717 C 352.227 1.61065 -0.405867 0
M  V30 3718 O 353.412 1.8039 -0.621613 0
M  V30 3719 C 350.552 3.08326 -1.55013 0
M  V30 3720 C 349.665 3.27936 -2.81215 0
M  V30 3721 C 348.8 4.56473 -2.71673 0
M  V30 3722 C 347.839 4.694 -3.92849 0
M  V30 3723 N 346.976 5.89254 -3.81738 0
M  V30 3724 H 351.816 1.60797 -2.50895 0
M  V30 3725 H 349.353 0.783799 -1.24479 0
M  V30 3726 H 351.311 3.88383 -1.52362 0
M  V30 3727 H 349.941 3.16439 -0.637667 0
M  V30 3728 H 348.993 2.41536 -2.93879 0
M  V30 3729 H 350.305 3.33357 -3.71045 0
M  V30 3730 H 349.459 5.44748 -2.67085 0
M  V30 3731 H 348.198 4.53477 -1.7947 0
M  V30 3732 H 347.203 3.79544 -3.97777 0
M  V30 3733 H 348.428 4.7418 -4.86138 0
M  V30 3734 H 346.374 5.87271 -2.92317 0
M  V30 3735 H 346.291 5.95911 -4.65217 0
M  V30 3736 H 347.559 6.79981 -3.81112 0
M  V30 3737 N 351.788 1.33704 0.83433 0
M  V30 3738 C 352.751 1.24244 1.92603 0
M  V30 3739 C 353.751 0.160383 1.59998 0
M  V30 3740 O 354.941 0.412228 1.69252 0
M  V30 3741 C 352.073 0.91555 3.28376 0
M  V30 3742 H 353.266 2.21287 2.02416 0
M  V30 3743 H 350.819 1.17827 1.02696 0
M  V30 3744 H 351.554 -0.0521886 3.24258 0
M  V30 3745 H 351.339 1.69811 3.53422 0
M  V30 3746 H 352.829 0.874231 4.08347 0
M  V30 3747 N 353.266 -1.05314 1.17247 0
M  V30 3748 C 354.543 -1.75184 0.87005 0
M  V30 3749 C 354.923 -2.01481 -0.629965 0
M  V30 3750 O 354.271 -1.64988 -1.58086 0
M  V30 3751 C 354.481 -3.04594 1.70363 0
M  V30 3752 C 355.829 -3.78567 1.92281 0
M  V30 3753 O 356.853 -3.14461 1.67311 0
M  V30 3754 O 355.712 -4.93755 2.3424 0
M  V30 3755 H 352.806 -0.761729 0.322021 0
M  V30 3756 H 355.352 -1.11493 1.27935 0
M  V30 3757 H 354.124 -2.81201 2.72106 0
M  V30 3758 H 353.747 -3.76022 1.29202 0
M  V30 3759 N 354.744 -0.972509 -1.24016 0
M  V30 3760 C 356.021 -0.553733 -1.87598 0
M  V30 3761 C 356.401 0.969158 -1.87538 0
M  V30 3762 O 355.749 1.84255 -1.35139 0
M  V30 3763 C 355.959 -1.15076 -3.29482 0
M  V30 3764 C 357.307 -1.23862 -4.06132 0
M  V30 3765 O 358.331 -1.10363 -3.38672 0
M  V30 3766 O 357.19 -1.45252 -5.26844 0
M  V30 3767 H 354.284 -0.185331 -0.805966 0
M  V30 3768 H 356.83 -1.06709 -1.31952 0
M  V30 3769 H 355.602 -2.19333 -3.2405 0
M  V30 3770 H 355.225 -0.621746 -3.92709 0
M  V30 3771 N 356.222 1.38976 -0.743202 0
M  V30 3772 C 357.452 2.04339 -0.304807 0
M  V30 3773 C 357.86 1.56162 1.06819 0
M  V30 3774 O 357.203 0.725284 1.68776 0
M  V30 3775 C 357.265 3.58716 -0.237369 0
M  V30 3776 C 356.929 4.29905 -1.55018 0
M  V30 3777 C 357.926 4.55987 -2.49744 0
M  V30 3778 C 355.611 4.68294 -1.81675 0
M  V30 3779 C 357.605 5.19478 -3.69353 0
M  V30 3780 C 355.292 5.31512 -3.0156 0
M  V30 3781 C 356.29 5.57037 -3.9522 0
M  V30 3782 O 355.978 6.18941 -5.12998 0
M  V30 3783 H 355.71 0.663439 -0.12971 0
M  V30 3784 H 358.264 1.78852 -1.01001 0
M  V30 3785 H 356.494 3.83133 0.524003 0
M  V30 3786 H 358.183 4.05543 0.170121 0
M  V30 3787 H 358.949 4.26767 -2.30423 0
M  V30 3788 H 354.828 4.47779 -1.09615 0
M  V30 3789 H 358.372 5.39318 -4.42473 0
M  V30 3790 H 354.269 5.60153 -3.20778 0
M  V30 3791 H 355.037 6.37433 -5.13441 0
M  V30 3792 N 357.7 0.491464 1.49741 0
M  V30 3793 C 358.946 -0.0565092 2.02721 0
M  V30 3794 C 359.279 -1.37522 1.37118 0
M  V30 3795 O 358.554 -1.87866 0.503645 0
M  V30 3796 C 358.837 -0.219051 3.59433 0
M  V30 3797 C 358.69 1.12211 4.35579 0
M  V30 3798 C 360.009 -0.964157 4.29409 0
M  V30 3799 H 357.128 -0.0190627 0.736753 0
M  V30 3800 H 359.77 0.641021 1.7886 0
M  V30 3801 H 357.92 -0.813165 3.79895 0
M  V30 3802 H 359.592 1.75437 4.26637 0
M  V30 3803 H 357.835 1.71377 3.98513 0
M  V30 3804 H 358.506 0.961794 5.43556 0
M  V30 3805 H 360.982 -0.460378 4.13545 0
M  V30 3806 H 359.858 -1.04671 5.38828 0
M  V30 3807 H 360.119 -2.00563 3.93988 0
M  V30 3808 N 359.178 -1.55987 0.224894 0
M  V30 3809 C 360.424 -1.98684 -0.406502 0
M  V30 3810 C 360.757 -1.11248 -1.59177 0
M  V30 3811 O 360.032 -0.170909 -1.93748 0
M  V30 3812 C 360.315 -3.50218 -0.837808 0
M  V30 3813 C 360.168 -4.48426 0.351332 0
M  V30 3814 C 361.487 -4.06243 -1.69278 0
M  V30 3815 H 358.606 -0.722337 -0.146283 0
M  V30 3816 H 361.248 -1.87255 0.321799 0
M  V30 3817 H 359.398 -3.60089 -1.45837 0
M  V30 3818 H 361.07 -4.50562 0.989526 0
M  V30 3819 H 359.313 -4.22159 0.998207 0
M  V30 3820 H 359.984 -5.52 0.00655905 0
M  V30 3821 H 362.46 -3.99337 -1.16914 0
M  V30 3822 H 361.336 -5.12581 -1.96346 0
M  V30 3823 H 361.597 -3.53332 -2.65723 0
M  V30 3824 N 360.656 0.0484629 -1.57525 0
M  V30 3825 C 361.619 1.03956 -2.04269 0
M  V30 3826 C 362.619 1.30211 -0.943496 0
M  V30 3827 O 363.809 1.25539 -1.20771 0
M  V30 3828 C 360.941 2.37742 -2.44319 0
M  V30 3829 H 362.134 0.636182 -2.93075 0
M  V30 3830 H 359.687 0.294811 -1.53494 0
M  V30 3831 H 360.422 2.82866 -1.5861 0
M  V30 3832 H 360.207 2.20021 -3.24551 0
M  V30 3833 H 361.697 3.08936 -2.80978 0
M  V30 3834 N 362.134 1.5431 0.320358 0
M  V30 3835 C 363.362 1.76636 1.07738 0
M  V30 3836 C 363.777 0.51649 1.81598 0
M  V30 3837 O 363.134 -0.512942 1.75143 0
M  V30 3838 C 363.185 2.96158 2.07299 0
M  V30 3839 O 362.906 4.16313 1.36438 0
M  V30 3840 C 364.407 3.3072 2.95193 0
M  V30 3841 H 361.627 0.589597 0.320339 0
M  V30 3842 H 364.171 2.01207 0.36551 0
M  V30 3843 H 362.326 2.73851 2.74016 0
M  V30 3844 H 362.74 4.83565 2.03138 0
M  V30 3845 H 364.214 4.17643 3.60941 0
M  V30 3846 H 364.691 2.48026 3.62463 0
M  V30 3847 H 365.297 3.55117 2.34034 0
M  V30 3848 N 363.613 -0.582584 1.46437 0
M  V30 3849 C 364.861 -1.33814 1.51453 0
M  V30 3850 C 365.182 -1.94277 0.167792 0
M  V30 3851 O 364.452 -1.78566 -0.805677 0
M  V30 3852 H 363.032 -0.496838 0.557818 0
M  V30 3853 H 365.694 -0.682281 1.82568 0
M  V30 3854 H 364.79 -2.14479 2.26728 0
M  V30 3855 N 365.091 -1.34144 -0.827227 0
M  V30 3856 C 366.337 -1.26446 -1.58554 0
M  V30 3857 C 366.67 0.1664 -1.93486 0
M  V30 3858 O 365.945 1.1107 -1.59667 0
M  V30 3859 C 366.228 -2.15111 -2.8879 0
M  V30 3860 C 366.081 -3.66712 -2.60465 0
M  V30 3861 C 367.4 -2.03311 -3.90324 0
M  V30 3862 H 364.519 -0.46067 -0.575284 0
M  V30 3863 H 367.161 -1.64356 -0.953269 0
M  V30 3864 H 365.311 -1.8291 -3.42748 0
M  V30 3865 H 366.983 -4.09259 -2.1285 0
M  V30 3866 H 365.226 -3.88014 -1.93978 0
M  V30 3867 H 365.897 -4.24112 -3.53317 0
M  V30 3868 H 368.373 -2.31574 -3.45706 0
M  V30 3869 H 367.249 -2.67582 -4.79261 0
M  V30 3870 H 367.51 -1.00879 -4.30437 0
M  V30 3871 N 366.569 1.04691 -1.17803 0
M  V30 3872 C 367.797 1.81446 -0.99423 0
M  V30 3873 C 368.212 1.83174 0.457459 0
M  V30 3874 O 367.569 1.26265 1.31771 0
M  V30 3875 C 367.62 3.27334 -1.5341 0
M  V30 3876 O 367.341 3.25798 -2.92895 0
M  V30 3877 C 368.842 4.20759 -1.39559 0
M  V30 3878 H 366.062 0.571599 -0.351447 0
M  V30 3879 H 368.606 1.31982 -1.56208 0
M  V30 3880 H 366.761 3.74052 -1.00815 0
M  V30 3881 H 367.175 4.17144 -3.17949 0
M  V30 3882 H 368.649 5.21084 -1.82141 0
M  V30 3883 H 369.126 4.37856 -0.343394 0
M  V30 3884 H 369.732 3.79901 -1.91195 0
M  V30 3885 N 368.047 0.979072 1.23499 0
M  V30 3886 C 369.275 0.665202 1.95915 0
M  V30 3887 C 369.69 -0.767571 1.72493 0
M  V30 3888 O 369.047 -1.51635 1.01554 0
M  V30 3889 C 369.098 0.944438 3.48945 0
M  V30 3890 O 368.819 2.3209 3.71572 0
M  V30 3891 C 370.32 0.646336 4.38563 0
M  V30 3892 H 367.54 0.247218 0.623798 0
M  V30 3893 H 370.084 1.31009 1.57025 0
M  V30 3894 H 368.239 0.345575 3.85856 0
M  V30 3895 H 368.653 2.40957 4.65876 0
M  V30 3896 H 370.127 0.892091 5.44744 0
M  V30 3897 H 370.604 -0.419575 4.37191 0
M  V30 3898 H 371.21 1.22562 4.07258 0
M  V30 3899 N 369.525 -1.3858 0.750561 0
M  V30 3900 C 370.753 -2.04471 0.316098 0
M  V30 3901 C 371.168 -1.56606 -1.05452 0
M  V30 3902 O 370.525 -0.737784 -1.66922 0
M  V30 3903 C 370.576 -3.60025 0.326275 0
M  V30 3904 O 370.297 -4.06133 1.6428 0
M  V30 3905 C 371.798 -4.43131 -0.122429 0
M  V30 3906 H 369.018 -0.65717 0.135528 0
M  V30 3907 H 371.562 -1.77329 1.01857 0
M  V30 3908 H 369.717 -3.86014 -0.327431 0
M  V30 3909 H 370.131 -5.00547 1.56693 0
M  V30 3910 H 371.605 -5.51963 -0.0641473 0
M  V30 3911 H 372.082 -4.23333 -1.16988 0
M  V30 3912 H 372.688 -4.22323 0.50229 0
M  V30 3913 N 371.003 -0.499398 -1.49478 0
M  V30 3914 C 372.249 0.0457576 -2.02748 0
M  V30 3915 C 372.582 1.36793 -1.37846 0
M  V30 3916 O 371.857 1.87596 -0.513601 0
M  V30 3917 C 372.14 0.199986 -3.59544 0
M  V30 3918 C 371.993 -1.1452 -4.34977 0
M  V30 3919 C 373.312 0.94137 -4.29914 0
M  V30 3920 H 370.431 0.0151552 -0.736844 0
M  V30 3921 H 373.073 -0.650498 -1.78518 0
M  V30 3922 H 371.223 0.793007 -3.8032 0
M  V30 3923 H 372.895 -1.77697 -4.25701 0
M  V30 3924 H 371.138 -1.73488 -3.97598 0
M  V30 3925 H 371.809 -0.990607 -5.43039 0
M  V30 3926 H 374.285 0.43844 -4.13784 0
M  V30 3927 H 373.161 1.01812 -5.39375 0
M  V30 3928 H 373.422 1.98471 -3.95046 0
M  V30 3929 N 372.481 1.55866 -0.233164 0
M  V30 3930 C 373.897 1.59133 0.121988 0
M  V30 3931 C 374.097 1.25016 1.58029 0
M  V30 3932 O 373.153 0.990922 2.32243 0
M  V30 3933 C 374.466 2.99932 -0.214792 0
M  V30 3934 C 376.014 3.12601 -0.157971 0
M  V30 3935 C 376.489 4.55597 -0.46859 0
M  V30 3936 N 377.98 4.61305 -0.418585 0
M  V30 3937 C 378.715 5.69903 -0.63227 0
M  V30 3938 N 378.211 6.86819 -0.90835 0
M  V30 3939 N 380.004 5.59264 -0.563913 0
M  V30 3940 H 372.155 1.76315 -1.18434 0
M  V30 3941 H 374.418 0.820093 -0.475553 0
M  V30 3942 H 374.124 3.29588 -1.22739 0
M  V30 3943 H 373.998 3.74327 0.464691 0
M  V30 3944 H 376.385 2.82735 0.845283 0
M  V30 3945 H 376.466 2.40511 -0.871102 0
M  V30 3946 H 376.11 4.86182 -1.46934 0
M  V30 3947 H 376.04 5.25928 0.265865 0
M  V30 3948 H 378.531 3.77297 -0.213368 0
M  V30 3949 H 378.844 7.65507 -1.05919 0
M  V30 3950 H 377.189 6.88536 -0.945673 0
M  V30 3951 H 380.38 4.66802 -0.348372 0
M  V30 3952 H 380.553 6.43831 -0.733847 0
M  V30 3953 N 373.959 -0.0401083 1.57549 0
M  V30 3954 C 375.236 -0.767917 1.79896 0
M  V30 3955 C 375.616 -1.9416 0.82856 0
M  V30 3956 O 374.964 -2.2812 -0.131671 0
M  V30 3957 C 375.174 -1.2113 3.27305 0
M  V30 3958 C 376.522 -1.63175 3.91994 0
M  V30 3959 O 377.546 -1.30616 3.31388 0
M  V30 3960 O 376.405 -2.23565 4.98679 0
M  V30 3961 H 373.499 -0.370441 0.739393 0
M  V30 3962 H 376.045 -0.017737 1.69691 0
M  V30 3963 H 374.817 -0.372937 3.89519 0
M  V30 3964 H 374.44 -2.02183 3.42356 0
M  V30 3965 N 375.437 -1.54477 -0.31217 0
M  V30 3966 C 376.37 -1.79519 -1.40884 0
M  V30 3967 C 377.348 -0.645753 -1.49227 0
M  V30 3968 O 378.532 -0.884468 -1.66461 0
M  V30 3969 C 375.659 -1.92194 -2.78889 0
M  V30 3970 C 374.705 -3.14555 -2.88023 0
M  V30 3971 S 375.538 -4.72893 -2.51262 0
M  V30 3972 C 376.694 -4.8849 -3.91317 0
M  V30 3973 H 376.927 -2.72256 -1.19432 0
M  V30 3974 H 374.46 -1.45746 -0.509654 0
M  V30 3975 H 376.418 -2.00182 -3.58382 0
M  V30 3976 H 375.079 -1.00414 -2.97617 0
M  V30 3977 H 374.272 -3.20193 -3.89221 0
M  V30 3978 H 373.874 -3.04955 -2.16514 0
M  V30 3979 H 376.166 -4.71826 -4.86196 0
M  V30 3980 H 377.109 -5.90588 -3.90656 0
M  V30 3981 H 377.517 -4.16715 -3.80801 0
M  V30 3982 N 376.915 0.57481 -1.46744 0
M  V30 3983 C 378.155 1.34369 -1.54027 0
M  V30 3984 C 378.519 1.91051 -0.190642 0
M  V30 3985 O 379.72 2.68444 -0.138255 0
M  V30 3986 C 377.991 2.43706 -2.61423 0
M  V30 3987 S 379.55 3.30915 -2.88167 0
M  V30 3988 H 376.368 0.45768 -0.544105 0
M  V30 3989 H 378.97 0.659959 -1.84024 0
M  V30 3990 H 377.674 2.0047 -3.58106 0
M  V30 3991 H 377.205 3.16842 -2.33184 0
M  V30 3992 H 379.22 4.42742 -2.24039 0
M  V30 3993 N 378.394 1.34581 0.820102 0
M  V30 3994 C 379.326 1.22236 1.93884 0
M  V30 3995 C 380.339 0.148776 1.62119 0
M  V30 3996 O 381.528 0.400877 1.7394 0
M  V30 3997 C 378.628 0.856542 3.27897 0
M  V30 3998 C 377.801 2.02569 3.87666 0
M  V30 3999 C 376.86 1.63782 5.00062 0
M  V30 4000 O 375.886 2.35477 5.18208 0
M  V30 4001 N 377.088 0.553611 5.77854 0
M  V30 4002 H 379.853 2.18615 2.05006 0
M  V30 4003 H 377.414 1.27573 0.99683 0
M  V30 4004 H 379.406 0.578806 4.0054 0
M  V30 4005 H 377.976 -0.0171518 3.12595 0
M  V30 4006 H 377.196 2.468 3.07382 0
M  V30 4007 H 378.484 2.80752 4.24329 0
M  V30 4008 H 377.882 -0.0423528 5.65684 0
M  V30 4009 H 376.439 0.335614 6.50935 0
M  V30 4010 N 379.872 -1.04064 1.18357 0
M  V30 4011 C 381.121 -1.76662 0.973313 0
M  V30 4012 C 381.434 -1.89154 -0.497991 0
M  V30 4013 O 382.64 -2.58606 -0.826762 0
M  V30 4014 C 381.096 -3.17624 1.69242 0
M  V30 4015 C 380.704 -3.13225 3.20303 0
M  V30 4016 C 382.448 -3.946 1.56497 0
M  V30 4017 C 380.355 -4.49046 3.84853 0
M  V30 4018 H 379.285 -0.662214 0.36054 0
M  V30 4019 H 381.936 -1.16553 1.41731 0
M  V30 4020 H 380.318 -3.78129 1.1762 0
M  V30 4021 H 381.492 -2.62172 3.78949 0
M  V30 4022 H 379.807 -2.49749 3.33189 0
M  V30 4023 H 382.404 -4.95042 2.02084 0
M  V30 4024 H 382.747 -4.13074 0.517243 0
M  V30 4025 H 383.28 -3.4067 2.05399 0
M  V30 4026 H 380.019 -4.35777 4.89672 0
M  V30 4027 H 379.539 -5.00203 3.30994 0
M  V30 4028 H 381.218 -5.17961 3.87718 0
M  V30 4029 N 381.35 -0.985608 -1.22978 0
M  V30 4030 C 382.313 -0.535071 -2.22867 0
M  V30 4031 C 383.313 0.378123 -1.56291 0
M  V30 4032 O 384.503 0.171092 -1.73358 0
M  V30 4033 C 381.635 0.222702 -3.40172 0
M  V30 4034 H 382.828 -1.41835 -2.6424 0
M  V30 4035 H 380.381 -0.772042 -1.35901 0
M  V30 4036 H 381.116 1.12229 -3.04262 0
M  V30 4037 H 380.901 -0.43288 -3.89703 0
M  V30 4038 H 382.391 0.526335 -4.1427 0
M  V30 4039 N 382.828 1.3818 -0.7579 0
M  V30 4040 C 384.075 2.00019 -0.315985 0
M  V30 4041 C 384.403 1.60163 1.10355 0
M  V30 4042 O 383.658 0.83264 1.77103 0
M  V30 4043 C 383.957 3.55252 -0.391218 0
M  V30 4044 C 383.623 4.14834 -1.76702 0
M  V30 4045 C 382.285 4.30821 -2.14353 0
M  V30 4046 C 384.637 4.47658 -2.66931 0
M  V30 4047 C 381.965 4.76928 -3.41696 0
M  V30 4048 C 384.317 4.95184 -3.93669 0
M  V30 4049 C 382.981 5.09377 -4.31383 0
M  V30 4050 H 382.251 0.731923 -0.115627 0
M  V30 4051 H 384.898 1.65161 -0.969223 0
M  V30 4052 H 383.203 3.90273 0.34558 0
M  V30 4053 H 384.9 4.00988 -0.030805 0
M  V30 4054 H 381.49 4.02808 -1.46435 0
M  V30 4055 H 385.674 4.34904 -2.39106 0
M  V30 4056 H 380.93 4.86103 -3.70829 0
M  V30 4057 H 385.104 5.19551 -4.63724 0
M  V30 4058 H 382.731 5.44865 -5.30119 0
M  V30 4059 N 384.306 0.507319 1.49211 0
M  V30 4060 C 385.216 -0.272136 2.33016 0
M  V30 4061 C 386.232 -0.961206 1.45041 0
M  V30 4062 O 387.408 -0.941191 1.78055 0
M  V30 4063 C 384.473 -1.31895 3.20631 0
M  V30 4064 C 383.534 -0.642648 4.24463 0
M  V30 4065 C 382.767 -1.63959 5.07891 0
M  V30 4066 O 382.99 -2.87007 4.92933 0
M  V30 4067 O 381.924 -1.19143 5.8999 0
M  V30 4068 H 385.75 0.413982 3.00865 0
M  V30 4069 H 383.335 0.268556 1.46966 0
M  V30 4070 H 385.217 -1.92446 3.7489 0
M  V30 4071 H 383.892 -1.98788 2.5547 0
M  V30 4072 H 382.799 0.00276252 3.741 0
M  V30 4073 H 384.132 -0.0160534 4.92197 0
M  V30 4074 N 385.784 -1.5574 0.241426 0
M  V30 4075 C 386.734 -2.17803 -0.674233 0
M  V30 4076 C 387.718 -1.13225 -1.14319 0
M  V30 4077 O 388.91 -1.39153 -1.09387 0
M  V30 4078 C 386.039 -2.87682 -1.87333 0
M  V30 4079 C 385.125 -3.99509 -1.42313 0
M  V30 4080 N 385.516 -5.01115 -0.686798 0
M  V30 4081 C 383.814 -4.11964 -1.70885 0
M  V30 4082 C 384.515 -5.79922 -0.454456 0
M  V30 4083 N 383.491 -5.34001 -1.01705 0
M  V30 4084 H 387.293 -2.93718 -0.103447 0
M  V30 4085 H 384.807 -1.62342 0.0435095 0
M  V30 4086 H 386.804 -3.3057 -2.54026 0
M  V30 4087 H 385.464 -2.13269 -2.4484 0
M  V30 4088 H 386.475 -5.16799 -0.337459 0
M  V30 4089 H 383.152 -3.48718 -2.2957 0
M  V30 4090 H 384.542 -6.71768 0.132992 0
M  V30 4091 N 387.262 0.0317525 -1.57568 0
M  V30 4092 C 388.508 0.724175 -1.8943 0
M  V30 4093 C 388.841 1.75149 -0.838836 0
M  V30 4094 O 388.116 1.93948 0.146422 0
M  V30 4095 C 388.399 1.39615 -3.31933 0
M  V30 4096 C 388.252 0.382537 -4.4817 0
M  V30 4097 C 389.571 2.33084 -3.73309 0
M  V30 4098 H 386.69 0.261797 -0.688935 0
M  V30 4099 H 389.332 -0.013017 -1.89996 0
M  V30 4100 H 387.482 2.02451 -3.31581 0
M  V30 4101 H 389.154 -0.243689 -4.60656 0
M  V30 4102 H 387.397 -0.29844 -4.32772 0
M  V30 4103 H 388.068 0.891145 -5.44759 0
M  V30 4104 H 390.544 1.80295 -3.7501 0
M  V30 4105 H 389.42 2.77084 -4.73831 0
M  V30 4106 H 389.681 3.19643 -3.05419 0
M  V30 4107 N 388.74 1.54641 0.303973 0
M  V30 4108 C 389.988 1.73437 1.0375 0
M  V30 4109 C 390.309 0.521449 1.87899 0
M  V30 4110 O 389.579 -0.46432 1.90318 0
M  V30 4111 H 388.159 0.639518 0.386039 0
M  V30 4112 H 390.821 1.91988 0.335675 0
M  V30 4113 H 389.917 2.62235 1.69231 0
M  V30 4114 N 390.218 -0.567019 1.47046 0
M  V30 4115 C 391.148 -1.68482 1.61667 0
M  V30 4116 C 392.129 -1.6358 0.466418 0
M  V30 4117 O 393.314 -1.81354 0.694574 0
M  V30 4118 C 390.444 -3.07124 1.62148 0
M  V30 4119 C 389.398 -3.26867 2.76301 0
M  V30 4120 C 388.724 -4.66196 2.61849 0
M  V30 4121 C 390.024 -3.13186 4.17986 0
M  V30 4122 H 391.718 -1.56502 2.5524 0
M  V30 4123 H 389.264 -0.751486 1.22836 0
M  V30 4124 H 391.217 -3.8516 1.70968 0
M  V30 4125 H 389.941 -3.2004 0.651287 0
M  V30 4126 H 388.6 -2.51237 2.66975 0
M  V30 4127 H 388.248 -4.75898 1.62879 0
M  V30 4128 H 387.948 -4.80356 3.38425 0
M  V30 4129 H 389.472 -5.46379 2.72584 0
M  V30 4130 H 390.886 -3.81049 4.2834 0
M  V30 4131 H 389.283 -3.3886 4.95272 0
M  V30 4132 H 390.353 -2.10057 4.3704 0
M  V30 4133 N 391.696 -1.35014 -0.812953 0
M  V30 4134 C 392.973 -1.18502 -1.55617 0
M  V30 4135 C 393.353 0.238421 -2.09749 0
M  V30 4136 O 392.701 1.2411 -1.91857 0
M  V30 4137 C 392.911 -2.24783 -2.66971 0
M  V30 4138 C 394.259 -2.60268 -3.35478 0
M  V30 4139 O 395.283 -2.23648 -2.77236 0
M  V30 4140 O 394.142 -3.2321 -4.40678 0
M  V30 4141 H 391.236 -0.459984 -0.687272 0
M  V30 4142 H 393.782 -1.46677 -0.853464 0
M  V30 4143 H 392.554 -3.20284 -2.24798 0
M  V30 4144 H 392.177 -1.97841 -3.44884 0
M  V30 4145 N 393.175 1.03435 -1.18907 0
M  V30 4146 C 394.405 1.8012 -1.01195 0
M  V30 4147 C 394.813 1.8395 0.442613 0
M  V30 4148 O 394.156 1.27836 1.31923 0
M  V30 4149 C 394.218 3.26792 -1.49823 0
M  V30 4150 C 393.882 3.46609 -2.97844 0
M  V30 4151 C 394.879 3.37278 -3.95651 0
M  V30 4152 C 392.564 3.73001 -3.36416 0
M  V30 4153 C 394.558 3.54054 -5.30023 0
M  V30 4154 C 392.245 3.89423 -4.70949 0
M  V30 4155 C 393.243 3.79951 -5.67562 0
M  V30 4156 O 392.931 3.95895 -6.99659 0
M  V30 4157 H 392.663 0.573865 -0.357289 0
M  V30 4158 H 395.217 1.31207 -1.58031 0
M  V30 4159 H 393.447 3.76703 -0.873578 0
M  V30 4160 H 395.136 3.85055 -1.28404 0
M  V30 4161 H 395.902 3.16846 -3.67197 0
M  V30 4162 H 391.781 3.79469 -2.61772 0
M  V30 4163 H 395.325 3.46577 -6.05417 0
M  V30 4164 H 391.222 4.09351 -4.99101 0
M  V30 4165 H 391.99 4.13019 -7.06653 0
M  V30 4166 N 394.653 0.992116 1.22453 0
M  V30 4167 C 396.069 0.702713 1.43297 0
M  V30 4168 C 396.269 -0.726909 1.87932 0
M  V30 4169 O 395.325 -1.49792 2.0327 0
M  V30 4170 C 396.638 1.70762 2.47509 0
M  V30 4171 C 398.186 1.72298 2.61309 0
M  V30 4172 C 398.661 2.71649 3.68742 0
M  V30 4173 N 400.152 2.70239 3.76199 0
M  V30 4174 C 400.887 3.43778 4.58917 0
M  V30 4175 N 400.383 4.26914 5.45633 0
M  V30 4176 N 402.176 3.32487 4.5322 0
M  V30 4177 H 394.327 1.91543 0.917871 0
M  V30 4178 H 396.59 0.826031 0.465162 0
M  V30 4179 H 396.296 2.73059 2.21657 0
M  V30 4180 H 396.17 1.49985 3.46099 0
M  V30 4181 H 398.557 0.706989 2.86506 0
M  V30 4182 H 398.638 1.97143 1.62997 0
M  V30 4183 H 398.282 3.73397 3.44292 0
M  V30 4184 H 398.212 2.44074 4.66622 0
M  V30 4185 H 400.703 2.09912 3.14237 0
M  V30 4186 H 401.016 4.79855 6.05771 0
M  V30 4187 H 399.361 4.31002 5.45218 0
M  V30 4188 H 402.552 2.6698 3.84499 0
M  V30 4189 H 402.725 3.90058 5.17454 0
M  V30 4190 N 396.131 -1.37776 0.765217 0
M  V30 4191 C 397.408 -1.93975 0.251596 0
M  V30 4192 C 397.788 -1.69949 -1.25222 0
M  V30 4193 O 397.136 -1.04457 -2.03226 0
M  V30 4194 C 397.346 -3.43487 0.617895 0
M  V30 4195 C 398.694 -4.20564 0.584029 0
M  V30 4196 O 399.718 -3.5182 0.556888 0
M  V30 4197 O 398.577 -5.43138 0.605291 0
M  V30 4198 H 395.671 -0.82509 0.0561806 0
M  V30 4199 H 398.217 -1.47101 0.846128 0
M  V30 4200 H 396.989 -3.5453 1.65602 0
M  V30 4201 H 396.612 -3.976 -0.00403411 0
M  V30 4202 N 397.609 -0.515225 -1.4894 0
M  V30 4203 C 398.856 0.024215 -2.02486 0
M  V30 4204 C 399.184 1.35671 -1.39368 0
M  V30 4205 O 398.439 1.88566 -0.523574 0
M  V30 4206 C 398.738 0.210595 -3.56779 0
M  V30 4207 C 398.404 -1.04569 -4.38607 0
M  V30 4208 C 397.066 -1.39002 -4.60686 0
M  V30 4209 C 399.418 -1.88008 -4.86109 0
M  V30 4210 C 396.746 -2.568 -5.27514 0
M  V30 4211 C 399.098 -3.04972 -5.54234 0
M  V30 4212 C 397.762 -3.39768 -5.74555 0
M  V30 4213 H 397.032 0.00886088 -0.740947 0
M  V30 4214 H 399.679 -0.678263 -1.79086 0
M  V30 4215 H 397.984 0.99572 -3.78936 0
M  V30 4216 H 399.681 0.642659 -3.95817 0
M  V30 4217 H 396.271 -0.767497 -4.21672 0
M  V30 4218 H 400.455 -1.62719 -4.68867 0
M  V30 4219 H 395.711 -2.8398 -5.41447 0
M  V30 4220 H 399.885 -3.69943 -5.90013 0
M  V30 4221 H 397.512 -4.31148 -6.26112 0
M  V30 4222 N 399.087 1.5561 -0.249682 0
M  V30 4223 C 400.017 2.24477 0.642826 0
M  V30 4224 C 400.998 1.22601 1.17911 0
M  V30 4225 O 402.183 1.5126 1.21795 0
M  V30 4226 C 399.313 2.94638 1.83863 0
M  V30 4227 C 398.267 4.03227 1.435 0
M  V30 4228 C 397.593 4.60828 2.71186 0
M  V30 4229 C 398.893 5.18796 0.604002 0
M  V30 4230 H 400.587 2.99321 0.0685625 0
M  V30 4231 H 398.133 1.43965 0.0315363 0
M  V30 4232 H 400.086 3.41517 2.46868 0
M  V30 4233 H 398.81 2.17287 2.43832 0
M  V30 4234 H 397.469 3.57121 0.828275 0
M  V30 4235 H 397.117 3.80174 3.29358 0
M  V30 4236 H 396.817 5.34132 2.44901 0
M  V30 4237 H 398.341 5.10442 3.35084 0
M  V30 4238 H 399.755 5.61883 1.13842 0
M  V30 4239 H 398.152 5.98506 0.437097 0
M  V30 4240 H 399.222 4.83384 -0.383147 0
M  V30 4241 N 400.565 -0.0233959 1.57583 0
M  V30 4242 C 401.512 -1.02224 2.06927 0
M  V30 4243 C 402.482 -1.35575 0.959617 0
M  V30 4244 O 403.667 -1.45815 1.23055 0
M  V30 4245 C 400.807 -2.31636 2.5581 0
M  V30 4246 C 399.92 -2.04394 3.80588 0
M  V30 4247 C 399.055 -3.27717 4.18061 0
M  V30 4248 C 398.094 -2.96056 5.3574 0
M  V30 4249 N 397.231 -4.11847 5.68618 0
M  V30 4250 H 402.071 -0.594504 2.9201 0
M  V30 4251 H 399.608 -0.281921 1.44373 0
M  V30 4252 H 401.566 -3.07258 2.82221 0
M  V30 4253 H 400.196 -2.72122 1.73636 0
M  V30 4254 H 399.248 -1.19244 3.61227 0
M  V30 4255 H 400.56 -1.77042 4.66323 0
M  V30 4256 H 399.714 -4.11702 4.4563 0
M  V30 4257 H 398.453 -3.58188 3.30988 0
M  V30 4258 H 397.458 -2.10474 5.07918 0
M  V30 4259 H 398.683 -2.66857 6.24471 0
M  V30 4260 H 396.629 -4.42258 4.84504 0
M  V30 4261 H 396.546 -3.87938 6.48876 0
M  V30 4262 H 397.814 -4.96689 6.00766 0
M  V30 4263 N 402.043 -1.548 -0.295768 0
M  V30 4264 C 403.292 -1.73538 -1.02798 0
M  V30 4265 C 403.605 -0.531159 -1.8825 0
M  V30 4266 O 404.811 -0.600458 -2.64777 0
M  V30 4267 C 403.267 -3.07051 -1.87744 0
M  V30 4268 C 402.875 -4.34968 -1.07269 0
M  V30 4269 C 404.619 -3.35146 -2.60533 0
M  V30 4270 C 402.526 -5.5953 -1.91521 0
M  V30 4271 H 401.456 -0.646794 -0.387522 0
M  V30 4272 H 404.107 -1.81278 -0.284718 0
M  V30 4273 H 402.489 -2.93289 -2.66078 0
M  V30 4274 H 403.663 -4.5958 -0.335117 0
M  V30 4275 H 401.978 -4.13847 -0.460384 0
M  V30 4276 H 404.575 -4.2541 -3.23929 0
M  V30 4277 H 404.918 -2.54255 -3.29636 0
M  V30 4278 H 405.451 -3.49902 -1.89244 0
M  V30 4279 H 402.19 -6.43103 -1.26878 0
M  V30 4280 H 401.71 -5.39096 -2.62937 0
M  V30 4281 H 403.389 -5.96982 -2.49442 0
M  V30 4282 N 403.521 0.559213 -1.47345 0
M  V30 4283 C 404.798 1.31997 -1.44348 0
M  V30 4284 C 405.178 2.1064 -0.139358 0
M  V30 4285 O 404.526 2.1091 0.879153 0
M  V30 4286 C 404.736 2.22618 -2.68779 0
M  V30 4287 C 406.084 2.83701 -3.1591 0
M  V30 4288 O 407.108 2.32921 -2.69493 0
M  V30 4289 O 405.967 3.75993 -3.966 0
M  V30 4290 H 403.061 0.594251 -0.575147 0
M  V30 4291 H 405.607 0.578282 -1.59543 0
M  V30 4292 H 404.379 1.64093 -3.55231 0
M  V30 4293 H 404.002 3.04085 -2.5616 0
M  V30 4294 N 404.999 1.35443 0.805782 0
M  V30 4295 C 406.41 1.25768 1.37983 0
M  V30 4296 C 406.761 -0.10958 1.95894 0
M  V30 4297 O 405.886 -1.01056 1.91355 0
M  V30 4298 C 406.481 2.27727 2.5085 0
M  V30 4299 C 405.04 2.2179 3.04115 0
M  V30 4300 C 404.187 2.13393 1.77084 0
M  V30 4301 H 407.138 1.4656 0.608752 0
M  V30 4302 H 407.159 1.90422 3.29424 0
M  V30 4303 H 406.671 3.27227 2.08671 0
M  V30 4304 H 404.772 1.25703 3.50756 0
M  V30 4305 H 404.885 3.13788 3.62042 0
M  V30 4306 H 403.249 1.59384 1.98668 0
M  V30 4307 H 404.032 3.14755 1.37056 0
M  V30 4308 N 406.477 -1.02803 1.19454 0
M  V30 4309 C 407.44 -2.09264 0.934955 0
M  V30 4310 C 408.44 -1.60576 -0.0849015 0
M  V30 4311 O 409.63 -1.73554 0.149933 0
M  V30 4312 C 406.762 -3.38482 0.40531 0
M  V30 4313 H 407.955 -2.33726 1.87916 0
M  V30 4314 H 405.508 -1.19426 1.00832 0
M  V30 4315 H 406.243 -3.19689 -0.544899 0
M  V30 4316 H 406.028 -3.75142 1.14065 0
M  V30 4317 H 407.518 -4.16894 0.242806 0
M  V30 4318 N 407.956 -0.998596 -1.21925 0
M  V30 4319 C 409.203 -0.677663 -1.90824 0
M  V30 4320 C 409.531 0.790905 -1.77693 0
M  V30 4321 O 408.786 1.58817 -1.14349 0
M  V30 4322 C 409.085 -1.03648 -3.42041 0
M  V30 4323 C 408.751 -2.49825 -3.75364 0
M  V30 4324 C 407.413 -2.8977 -3.8417 0
M  V30 4325 C 409.765 -3.44545 -3.91073 0
M  V30 4326 C 407.093 -4.23412 -4.06127 0
M  V30 4327 C 409.445 -4.77853 -4.14535 0
M  V30 4328 C 408.109 -5.17531 -4.21566 0
M  V30 4329 H 407.379 -0.247975 -0.698276 0
M  V30 4330 H 410.026 -1.25584 -1.44571 0
M  V30 4331 H 408.331 -0.376457 -3.89987 0
M  V30 4332 H 410.028 -0.766113 -3.93614 0
M  V30 4333 H 406.618 -2.17866 -3.69097 0
M  V30 4334 H 410.802 -3.14853 -3.83642 0
M  V30 4335 H 406.058 -4.53734 -4.09799 0
M  V30 4336 H 410.232 -5.51189 -4.25633 0
M  V30 4337 H 407.859 -6.21102 -4.38333 0
M  V30 4338 N 409.434 1.37368 -0.772513 0
M  V30 4339 C 410.681 1.99673 -0.337182 0
M  V30 4340 C 411.009 1.61324 1.0865 0
M  V30 4341 O 410.264 0.851377 1.7621 0
M  V30 4342 C 410.563 3.54817 -0.428876 0
M  V30 4343 C 410.229 4.12936 -1.81092 0
M  V30 4344 C 408.891 4.28523 -2.1891 0
M  V30 4345 C 411.243 4.44801 -2.71664 0
M  V30 4346 C 408.571 4.73277 -3.46735 0
M  V30 4347 C 410.923 4.90981 -3.98899 0
M  V30 4348 C 409.587 5.04773 -4.36761 0
M  V30 4349 H 408.857 0.730656 -0.123384 0
M  V30 4350 H 411.504 1.64124 -0.986686 0
M  V30 4351 H 409.809 3.90618 0.304167 0
M  V30 4352 H 411.506 4.00933 -0.0733334 0
M  V30 4353 H 408.096 4.01233 -1.50699 0
M  V30 4354 H 412.28 4.32344 -2.43706 0
M  V30 4355 H 407.536 4.82142 -3.75964 0
M  V30 4356 H 411.71 5.14603 -4.69208 0
M  V30 4357 H 409.337 5.39211 -5.35868 0
M  V30 4358 N 410.912 0.523116 1.48665 0
M  V30 4359 C 412.328 0.180511 1.58576 0
M  V30 4360 C 412.528 -1.31597 1.52592 0
M  V30 4361 O 411.584 -2.0937 1.4114 0
M  V30 4362 C 412.897 0.776949 2.90489 0
M  V30 4363 C 414.445 0.745058 3.04003 0
M  V30 4364 C 414.92 1.31995 4.38567 0
M  V30 4365 N 416.411 1.28162 4.45117 0
M  V30 4366 C 417.146 1.6964 5.47731 0
M  V30 4367 N 416.642 2.18816 6.57337 0
M  V30 4368 N 418.435 1.6092 5.38573 0
M  V30 4369 H 410.586 1.4958 1.50797 0
M  V30 4370 H 412.849 0.621772 0.715614 0
M  V30 4371 H 412.555 1.82732 3.00503 0
M  V30 4372 H 412.429 0.25007 3.7637 0
M  V30 4373 H 414.816 -0.296532 2.93606 0
M  V30 4374 H 414.897 1.30933 2.1975 0
M  V30 4375 H 414.541 2.36043 4.49718 0
M  V30 4376 H 414.471 0.731418 5.21496 0
M  V30 4377 H 416.962 0.92155 3.66491 0
M  V30 4378 H 417.275 2.48478 7.31764 0
M  V30 4379 H 415.62 2.22805 6.58318 0
M  V30 4380 H 418.811 1.22304 4.5184 0
M  V30 4381 H 418.984 1.93567 6.18414 0
M  V30 4382 N 412.39 -1.55475 0.257931 0
M  V30 4383 C 413.801 -1.8511 -0.243135 0
M  V30 4384 C 414.152 -1.17986 -1.5676 0
M  V30 4385 O 413.277 -0.462102 -2.11409 0
M  V30 4386 C 413.872 -3.35826 -0.447929 0
M  V30 4387 C 412.431 -3.65647 -0.893245 0
M  V30 4388 C 411.578 -2.7729 0.0232965 0
M  V30 4389 H 414.529 -1.51261 0.480199 0
M  V30 4390 H 414.55 -3.58002 -1.28898 0
M  V30 4391 H 414.062 -3.84652 0.516196 0
M  V30 4392 H 412.163 -3.22308 -1.86945 0
M  V30 4393 H 412.276 -4.73312 -0.742469 0
M  V30 4394 H 410.64 -2.49942 -0.490021 0
M  V30 4395 H 411.423 -3.28926 0.982994 0
M  V30 4396 N 413.868 0.0150385 -1.57593 0
M  V30 4397 C 414.831 0.995996 -2.06428 0
M  V30 4398 C 415.831 1.2818 -0.970903 0
M  V30 4399 O 417.021 1.22949 -1.23406 0
M  V30 4400 C 414.153 2.32506 -2.49307 0
M  V30 4401 H 415.346 0.573873 -2.94358 0
M  V30 4402 H 412.899 0.262186 -1.54085 0
M  V30 4403 H 413.634 2.79438 -1.64575 0
M  V30 4404 H 413.419 2.13087 -3.29145 0
M  V30 4405 H 414.909 3.02906 -2.87468 0
M  V30 4406 N 415.346 1.54954 0.287554 0
M  V30 4407 C 416.256 1.8991 1.37736 0
M  V30 4408 C 417.272 0.794701 1.54792 0
M  V30 4409 O 418.448 1.09243 1.69198 0
M  V30 4410 C 415.513 2.15108 2.71899 0
M  V30 4411 C 414.574 3.38752 2.63715 0
M  V30 4412 C 413.807 3.62739 3.91479 0
M  V30 4413 O 414.03 2.89492 4.91478 0
M  V30 4414 O 412.964 4.56267 3.92561 0
M  V30 4415 H 416.79 2.82652 1.11092 0
M  V30 4416 H 414.375 1.41315 0.484807 0
M  V30 4417 H 416.257 2.32806 3.51254 0
M  V30 4418 H 414.932 1.25551 2.9836 0
M  V30 4419 H 413.839 3.26405 1.82786 0
M  V30 4420 H 415.172 4.28483 2.42205 0
M  V30 4421 N 416.824 -0.551391 1.4764 0
M  V30 4422 C 418.07 -1.31024 1.54792 0
M  V30 4423 C 418.403 -1.9304 0.211967 0
M  V30 4424 O 417.678 -1.78175 -0.77999 0
M  V30 4425 C 417.961 -2.41593 2.67029 0
M  V30 4426 C 417.814 -1.84408 4.10261 0
M  V30 4427 C 419.133 -3.43488 2.75143 0
M  V30 4428 H 416.252 -0.475031 0.563485 0
M  V30 4429 H 418.894 -0.616454 1.79722 0
M  V30 4430 H 417.044 -3.00772 2.45904 0
M  V30 4431 H 418.716 -1.29445 4.42766 0
M  V30 4432 H 416.959 -1.15051 4.18265 0
M  V30 4433 H 417.63 -2.64367 4.84576 0
M  V30 4434 H 420.106 -2.94236 2.94218 0
M  V30 4435 H 418.982 -4.18274 3.55441 0
M  V30 4436 H 419.243 -4.02703 1.82435 0
M  V30 4437 N 418.302 -1.35869 -0.798587 0
M  V30 4438 C 419.579 -1.20145 -1.54352 0
M  V30 4439 C 419.959 0.216161 -2.0999 0
M  V30 4440 O 419.307 1.22068 -1.93162 0
M  V30 4441 C 419.517 -2.27602 -2.64572 0
M  V30 4442 C 420.865 -2.63811 -3.32699 0
M  V30 4443 O 421.889 -2.26576 -2.74849 0
M  V30 4444 O 420.748 -3.27866 -4.37226 0
M  V30 4445 H 417.842 -0.467248 -0.682355 0
M  V30 4446 H 420.388 -1.47574 -0.837859 0
M  V30 4447 H 419.16 -3.2265 -2.21388 0
M  V30 4448 H 418.783 -2.01488 -3.42766 0
M  V30 4449 N 419.78 1.02168 -1.19998 0
M  V30 4450 C 421.026 1.75945 -1.00852 0
M  V30 4451 C 421.359 1.88702 0.458828 0
M  V30 4452 O 420.634 1.40911 1.34069 0
M  V30 4453 C 420.917 3.18154 -1.68671 0
M  V30 4454 C 420.77 3.13224 -3.22817 0
M  V30 4455 C 422.089 4.16711 -1.41561 0
M  V30 4456 H 419.208 0.638673 -0.367785 0
M  V30 4457 H 421.85 1.19222 -1.4794 0
M  V30 4458 H 420 3.66586 -1.28636 0
M  V30 4459 H 421.672 2.72635 -3.72112 0
M  V30 4460 H 419.915 2.50751 -3.53986 0
M  V30 4461 H 420.586 4.13728 -3.65422 0
M  V30 4462 H 423.062 3.76913 -1.76284 0
M  V30 4463 H 421.938 5.14391 -1.91553 0
M  V30 4464 H 422.199 4.40774 -0.342193 0
M  V30 4465 N 421.258 1.00505 1.21394 0
M  V30 4466 C 422.188 0.585684 2.26035 0
M  V30 4467 C 423.169 -0.393525 1.65485 0
M  V30 4468 O 424.354 -0.281497 1.92149 0
M  V30 4469 C 421.484 -0.0884283 3.47187 0
M  V30 4470 C 420.438 0.810567 4.20254 0
M  V30 4471 C 419.764 0.00286382 5.347 0
M  V30 4472 C 421.064 2.1132 4.77641 0
M  V30 4473 H 422.758 1.46039 2.61368 0
M  V30 4474 H 420.304 0.703648 1.25638 0
M  V30 4475 H 422.257 -0.393286 4.19561 0
M  V30 4476 H 420.981 -0.997766 3.10986 0
M  V30 4477 H 419.64 1.09925 3.49731 0
M  V30 4478 H 419.288 -0.907765 4.94741 0
M  V30 4479 H 418.988 0.601444 5.84514 0
M  V30 4480 H 420.512 -0.295808 6.09883 0
M  V30 4481 H 421.926 1.87148 5.41893 0
M  V30 4482 H 420.323 2.66164 5.37845 0
M  V30 4483 H 421.393 2.78393 3.9702 0
M  V30 4484 N 422.737 -1.36956 0.779787 0
M  V30 4485 C 423.667 -2.32761 0.185651 0
M  V30 4486 C 424.648 -1.56177 -0.673989 0
M  V30 4487 O 425.833 -1.84378 -0.609797 0
M  V30 4488 C 422.963 -3.40418 -0.687964 0
M  V30 4489 C 421.917 -4.27941 0.0710102 0
M  V30 4490 C 421.243 -5.26681 -0.922573 0
M  V30 4491 C 422.543 -5.07006 1.25467 0
M  V30 4492 H 424.237 -2.82698 0.986008 0
M  V30 4493 H 421.783 -1.3592 0.475592 0
M  V30 4494 H 423.736 -4.06423 -1.11348 0
M  V30 4495 H 422.46 -2.89025 -1.52093 0
M  V30 4496 H 421.119 -3.63478 0.47739 0
M  V30 4497 H 420.767 -4.71565 -1.7503 0
M  V30 4498 H 420.467 -5.86103 -0.419237 0
M  V30 4499 H 421.991 -5.9556 -1.34686 0
M  V30 4500 H 423.405 -5.66105 0.905401 0
M  V30 4501 H 421.802 -5.75793 1.69063 0
M  V30 4502 H 422.872 -4.3921 2.05481 0
M  V30 4503 N 424.215 -0.530993 -1.48385 0
M  V30 4504 C 425.463 0.00273189 -2.021 0
M  V30 4505 C 425.784 1.34672 -1.41027 0
M  V30 4506 O 425.054 1.8724 -0.576012 0
M  V30 4507 H 423.634 0.00399774 -0.746989 0
M  V30 4508 H 426.296 -0.695054 -1.82085 0
M  V30 4509 H 425.392 0.11031 -3.11905 0
M  V30 4510 N 425.693 1.55336 -0.266172 0
M  V30 4511 C 426.641 2.23587 0.641228 0
M  V30 4512 C 427.635 1.22986 1.16494 0
M  V30 4513 O 428.841 1.40943 1.1196 0
M  V30 4514 H 425.216 0.717452 0.225315 0
M  V30 4515 H 427.187 2.9837 0.0426561 0
M  V30 4516 C 425.936 2.96369 1.81826 0
M  V30 4517 H 425.259 3.73563 1.42445 0
M  V30 4518 H 426.699 3.47459 2.42998 0
M  V30 4519 C 425.158 2.0133 2.70125 0
M  V30 4520 O 425.688 1.55875 3.70224 0
M  V30 4521 N 423.894 1.6802 2.37102 0
M  V30 4522 H 423.441 2.05181 1.55751 0
M  V30 4523 H 423.399 1.047 2.96454 0
M  V30 4524 N 427.171 -0.0066808 1.57599 0
M  V30 4525 C 428.582 -0.550379 1.78403 0
M  V30 4526 C 428.933 -1.74339 0.900014 0
M  V30 4527 O 428.058 -2.16166 0.100713 0
M  V30 4528 C 428.653 -1.00523 3.23544 0
M  V30 4529 C 427.212 -1.49428 3.45468 0
M  V30 4530 C 426.359 -0.442444 2.73748 0
M  V30 4531 H 429.31 0.219508 1.57175 0
M  V30 4532 H 429.331 -1.87157 3.31289 0
M  V30 4533 H 428.843 -0.136735 3.87859 0
M  V30 4534 H 426.944 -2.3839 2.86358 0
M  V30 4535 H 427.057 -1.52635 4.54136 0
M  V30 4536 H 425.421 -0.902578 2.38171 0
M  V30 4537 H 426.204 0.416973 3.40758 0
M  V30 4538 N 428.649 -1.55105 -0.279332 0
M  V30 4539 C 429.612 -1.86783 -1.32834 0
M  V30 4540 C 430.612 -0.74199 -1.42657 0
M  V30 4541 O 431.802 -1.0102 -1.41918 0
M  V30 4542 C 428.934 -2.06746 -2.71052 0
M  V30 4543 H 430.127 -2.8055 -1.05979 0
M  V30 4544 H 427.68 -1.47499 -0.517087 0
M  V30 4545 H 428.415 -1.15339 -3.03097 0
M  V30 4546 H 428.2 -2.88711 -2.65309 0
M  V30 4547 H 429.69 -2.32549 -3.46858 0
M  V30 4548 N 430.127 0.543554 -1.4793 0
M  V30 4549 C 431.074 1.64942 -1.6144 0
M  V30 4550 C 432.044 1.59692 -0.456903 0
M  V30 4551 O 433.229 1.78321 -0.678688 0
M  V30 4552 C 430.369 3.03238 -1.64744 0
M  V30 4553 C 429.482 3.18823 -2.91506 0
M  V30 4554 C 428.617 4.47599 -2.86057 0
M  V30 4555 C 427.656 4.56664 -4.07584 0
M  V30 4556 N 426.793 5.76811 -4.00292 0
M  V30 4557 H 431.633 1.52733 -2.55884 0
M  V30 4558 H 429.17 0.7438 -1.2691 0
M  V30 4559 H 431.128 3.83339 -1.64641 0
M  V30 4560 H 429.758 3.1425 -0.738017 0
M  V30 4561 H 428.81 2.32064 -3.01414 0
M  V30 4562 H 430.122 3.21384 -3.81463 0
M  V30 4563 H 429.276 5.35975 -2.84281 0
M  V30 4564 H 428.015 4.47538 -1.93807 0
M  V30 4565 H 427.02 3.66697 -4.09651 0
M  V30 4566 H 428.245 4.58474 -5.00978 0
M  V30 4567 H 426.191 5.77673 -3.10853 0
M  V30 4568 H 426.108 5.80808 -4.8394 0
M  V30 4569 H 427.376 6.67512 -4.02553 0
M  V30 4570 N 431.605 1.3629 0.791371 0
M  V30 4571 C 432.568 1.30309 1.88553 0
M  V30 4572 C 433.568 0.211204 1.59407 0
M  V30 4573 O 434.758 0.465865 1.67855 0
M  V30 4574 C 431.89 1.01956 3.25297 0
M  V30 4575 H 433.083 2.27614 1.95273 0
M  V30 4576 H 430.636 1.21035 0.988953 0
M  V30 4577 H 431.371 0.050998 3.2426 0
M  V30 4578 H 431.156 1.80968 3.4784 0
M  V30 4579 H 432.646 1.0037 4.05359 0
M  V30 4580 N 433.083 -1.0153 1.20538 0
M  V30 4581 C 434.015 -2.10224 0.913155 0
M  V30 4582 C 435.028 -1.62495 -0.0995998 0
M  V30 4583 O 436.217 -1.78014 0.131582 0
M  V30 4584 C 433.317 -3.37111 0.347717 0
M  V30 4585 C 432.49 -4.13971 1.41233 0
M  V30 4586 C 431.549 -5.19158 0.857976 0
M  V30 4587 O 430.575 -5.48 1.53897 0
M  V30 4588 N 431.777 -5.7955 -0.331966 0
M  V30 4589 H 434.542 -2.35879 1.84881 0
M  V30 4590 H 432.103 -1.17931 1.10923 0
M  V30 4591 H 434.095 -4.04683 -0.0373026 0
M  V30 4592 H 432.665 -3.08696 -0.492527 0
M  V30 4593 H 431.885 -3.41351 1.97163 0
M  V30 4594 H 433.173 -4.62103 2.12928 0
M  V30 4595 H 432.571 -5.58455 -0.902478 0
M  V30 4596 H 431.128 -6.48464 -0.65861 0
M  V30 4597 N 434.561 -1.01147 -1.20859 0
M  V30 4598 C 435.977 -0.725422 -1.42161 0
M  V30 4599 C 436.177 0.696919 -1.89064 0
M  V30 4600 O 435.233 1.46539 -2.05627 0
M  V30 4601 C 436.546 -1.74678 -2.44761 0
M  V30 4602 C 438.094 -1.76433 -2.58535 0
M  V30 4603 C 438.569 -2.77481 -3.64374 0
M  V30 4604 N 440.06 -2.76189 -3.71852 0
M  V30 4605 C 440.795 -3.51035 -4.53389 0
M  V30 4606 N 440.291 -4.35541 -5.38773 0
M  V30 4607 N 442.084 -3.39655 -4.47873 0
M  V30 4608 H 434.235 -1.92979 -0.887282 0
M  V30 4609 H 436.498 -0.833327 -0.451962 0
M  V30 4610 H 436.204 -2.76551 -2.17285 0
M  V30 4611 H 436.078 -1.55472 -3.43669 0
M  V30 4612 H 438.465 -0.75248 -2.85345 0
M  V30 4613 H 438.546 -1.99712 -1.5984 0
M  V30 4614 H 438.19 -3.78827 -3.38308 0
M  V30 4615 H 438.12 -2.51466 -4.6268 0
M  V30 4616 H 440.611 -2.14885 -3.10858 0
M  V30 4617 H 440.924 -4.89432 -5.98061 0
M  V30 4618 H 439.269 -4.39621 -5.38292 0
M  V30 4619 H 442.46 -2.73063 -3.80203 0
M  V30 4620 H 442.633 -3.9824 -5.11184 0
M  V30 4621 N 436.039 1.36541 -0.78704 0
M  V30 4622 C 437.285 1.99599 -0.358872 0
M  V30 4623 C 437.618 1.62323 1.06606 0
M  V30 4624 O 436.893 0.876858 1.73613 0
M  V30 4625 C 437.176 3.56327 -0.519944 0
M  V30 4626 C 437.029 4.03464 -1.98839 0
M  V30 4627 C 438.348 4.4005 0.0664737 0
M  V30 4628 H 435.467 0.725107 -0.131869 0
M  V30 4629 H 438.109 1.6199 -0.992936 0
M  V30 4630 H 436.259 3.88495 0.0198321 0
M  V30 4631 H 437.931 3.81793 -2.58905 0
M  V30 4632 H 436.174 3.55092 -2.49183 0
M  V30 4633 H 436.845 5.12439 -2.05207 0
M  V30 4634 H 439.321 4.14228 -0.394267 0
M  V30 4635 H 438.197 5.48847 -0.0762682 0
M  V30 4636 H 438.458 4.26655 1.15835 0
M  V30 4637 N 437.518 0.538854 1.48102 0
M  V30 4638 C 438.448 -0.207654 2.32575 0
M  V30 4639 C 439.429 -0.926559 1.4265 0
M  V30 4640 O 440.614 -0.91061 1.71527 0
M  V30 4641 C 437.744 -1.24957 3.24042 0
M  V30 4642 C 436.698 -0.648263 4.23062 0
M  V30 4643 C 436.024 -1.79348 5.03725 0
M  V30 4644 C 437.324 0.385897 5.20872 0
M  V30 4645 H 439.018 0.497534 2.95237 0
M  V30 4646 H 436.564 0.240715 1.41974 0
M  V30 4647 H 438.517 -1.77983 3.81969 0
M  V30 4648 H 437.241 -1.98446 2.59397 0
M  V30 4649 H 435.9 -0.139452 3.66335 0
M  V30 4650 H 435.548 -2.51696 4.35498 0
M  V30 4651 H 435.248 -1.39702 5.70751 0
M  V30 4652 H 436.772 -2.32735 5.64506 0
M  V30 4653 H 438.186 -0.057607 5.73271 0
M  V30 4654 H 436.583 0.700227 5.96001 0
M  V30 4655 H 437.653 1.28848 4.67468 0
M  V30 4656 N 438.996 -1.55193 0.274407 0
M  V30 4657 C 440.244 -1.99187 -0.341902 0
M  V30 4658 C 440.565 -1.16422 -1.56431 0
M  V30 4659 O 439.835 -0.253573 -1.94252 0
M  V30 4660 H 438.415 -0.735721 -0.129317 0
M  V30 4661 H 441.077 -1.91168 0.379578 0
M  V30 4662 H 440.173 -3.05629 -0.632253 0
M  V30 4663 N 440.474 -0.00167713 -1.576 0
M  V30 4664 C 441.72 0.67819 -1.91761 0
M  V30 4665 C 442.075 1.71288 -0.876256 0
M  V30 4666 O 441.368 1.91276 0.111333 0
M  V30 4667 C 441.562 1.36189 -3.30435 0
M  V30 4668 C 441.391 0.394938 -4.47962 0
M  V30 4669 C 440.161 0.00472875 -5.053 0
M  V30 4670 C 442.359 -0.339521 -5.13178 0
M  V30 4671 N 440.341 -0.960257 -6.06343 0
M  V30 4672 C 441.712 -1.15914 -6.09068 0
M  V30 4673 C 443.767 -0.403177 -4.96265 0
M  V30 4674 C 442.47 -2.03661 -6.89866 0
M  V30 4675 C 444.496 -1.26788 -5.77649 0
M  V30 4676 C 443.858 -2.07535 -6.73134 0
M  V30 4677 H 439.957 0.221317 -0.750028 0
M  V30 4678 H 442.541 -0.0624182 -1.946 0
M  V30 4679 H 440.712 2.07278 -3.28467 0
M  V30 4680 H 442.444 1.99658 -3.52021 0
M  V30 4681 H 439.199 0.373452 -4.72125 0
M  V30 4682 H 439.623 -1.43817 -6.61548 0
M  V30 4683 H 444.265 0.206818 -4.22294 0
M  V30 4684 H 441.983 -2.65727 -7.63161 0
M  V30 4685 H 445.569 -1.32107 -5.66603 0
M  V30 4686 H 444.449 -2.73363 -7.35012 0
M  V30 4687 N 441.952 1.55251 0.271103 0
M  V30 4688 C 442.899 1.88261 1.33516 0
M  V30 4689 C 443.869 0.734296 1.48988 0
M  V30 4690 O 445.054 0.985741 1.63364 0
M  V30 4691 C 442.194 2.16168 2.69008 0
M  V30 4692 C 441.307 3.43678 2.61743 0
M  V30 4693 C 440.442 3.61276 3.89427 0
M  V30 4694 C 439.481 4.82472 3.7668 0
M  V30 4695 N 438.618 4.96717 4.96202 0
M  V30 4696 H 443.458 2.79015 1.04665 0
M  V30 4697 H 440.995 1.38137 0.505618 0
M  V30 4698 H 442.953 2.30349 3.47844 0
M  V30 4699 H 441.583 1.28646 2.96057 0
M  V30 4700 H 440.635 3.37959 1.74607 0
M  V30 4701 H 441.947 4.3265 2.48224 0
M  V30 4702 H 441.101 3.75284 4.76704 0
M  V30 4703 H 439.84 2.70492 4.05814 0
M  V30 4704 H 438.845 4.68465 2.87786 0
M  V30 4705 H 440.07 5.74692 3.61809 0
M  V30 4706 H 438.016 4.08865 5.12997 0
M  V30 4707 H 437.933 5.79738 4.85222 0
M  V30 4708 H 439.201 5.15113 5.85046 0
M  V30 4709 N 443.43 -0.535701 1.48216 0
M  V30 4710 C 444.841 -1.11769 1.49548 0
M  V30 4711 C 445.192 -1.94442 0.26207 0
M  V30 4712 O 444.317 -2.06987 -0.631287 0
M  V30 4713 C 444.912 -2.03367 2.70975 0
M  V30 4714 C 443.471 -2.56795 2.75196 0
M  V30 4715 C 442.618 -1.33631 2.42977 0
M  V30 4716 H 445.569 -0.321232 1.55415 0
M  V30 4717 H 445.59 -2.87569 2.49167 0
M  V30 4718 H 445.102 -1.43169 3.60727 0
M  V30 4719 H 443.203 -3.20731 1.89638 0
M  V30 4720 H 443.316 -2.9632 3.76472 0
M  V30 4721 H 441.68 -1.6502 1.94012 0
M  V30 4722 H 442.463 -0.75194 3.34964 0
M  V30 4723 N 444.908 -1.36708 -0.784132 0
M  V30 4724 C 446.324 -1.17237 -1.08294 0
M  V30 4725 C 446.524 -5.93947e-05 -2.015 0
M  V30 4726 O 445.58 0.663686 -2.43622 0
M  V30 4727 C 446.893 -2.48557 -1.69233 0
M  V30 4728 C 448.441 -2.54968 -1.8155 0
M  V30 4729 C 448.916 -3.86388 -2.45904 0
M  V30 4730 N 450.407 -3.87762 -2.53367 0
M  V30 4731 C 451.142 -4.86191 -3.03983 0
M  V30 4732 N 450.638 -5.95015 -3.54866 0
M  V30 4733 N 452.431 -4.73606 -3.02743 0
M  V30 4734 H 444.582 -2.11758 -0.16501 0
M  V30 4735 H 446.845 -0.93822 -0.135822 0
M  V30 4736 H 446.551 -3.34638 -1.08215 0
M  V30 4737 H 446.425 -2.64748 -2.68679 0
M  V30 4738 H 448.812 -1.69302 -2.41704 0
M  V30 4739 H 448.893 -2.42672 -0.80895 0
M  V30 4740 H 448.537 -4.72462 -1.86392 0
M  V30 4741 H 448.467 -3.95982 -3.4714 0
M  V30 4742 H 450.958 -3.09145 -2.17343 0
M  V30 4743 H 451.271 -6.66086 -3.91854 0
M  V30 4744 H 449.616 -5.98676 -3.53003 0
M  V30 4745 H 452.807 -3.87717 -2.62284 0
M  V30 4746 H 452.98 -5.50473 -3.41881 0
M  V30 4747 N 446.386 1.0089 -1.21074 0
M  V30 4748 C 447.614 1.78191 -1.05145 0
M  V30 4749 C 448.029 1.84537 0.398952 0
M  V30 4750 O 447.386 1.30393 1.27687 0
M  V30 4751 C 447.437 3.22288 -1.63746 0
M  V30 4752 O 447.158 3.16315 -3.03111 0
M  V30 4753 C 448.659 4.16106 -1.52875 0
M  V30 4754 H 445.879 0.560129 -0.369454 0
M  V30 4755 H 448.423 1.26945 -1.60328 0
M  V30 4756 H 446.578 3.70655 -1.12664 0
M  V30 4757 H 446.992 4.06817 -3.31059 0
M  V30 4758 H 448.466 5.15026 -1.98626 0
M  V30 4759 H 448.943 4.36541 -0.482521 0
M  V30 4760 H 449.549 3.73625 -2.03185 0
M  V30 4761 N 447.864 1.01787 1.20321 0
M  V30 4762 C 449.089 0.727009 1.9424 0
M  V30 4763 C 449.514 -0.706179 1.74341 0
M  V30 4764 O 448.872 -1.48609 1.03852 0
M  V30 4765 C 448.92 1.06958 3.44372 0
M  V30 4766 O 448.024 0.181983 4.11998 0
M  V30 4767 H 447.365 0.269626 0.606793 0
M  V30 4768 H 449.895 1.36158 1.52716 0
M  V30 4769 H 449.905 1.02182 3.94997 0
M  V30 4770 H 448.58 2.11378 3.58179 0
M  V30 4771 H 447.157 0.287378 3.71791 0
M  V30 4772 N 449.342 -1.36122 0.79427 0
M  V30 4773 C 450.272 -2.32551 0.210328 0
M  V30 4774 C 451.253 -1.56884 -0.657386 0
M  V30 4775 O 452.438 -1.85014 -0.590207 0
M  V30 4776 C 449.568 -3.41128 -0.651819 0
M  V30 4777 C 448.522 -4.27842 0.116395 0
M  V30 4778 C 447.848 -5.2763 -0.86666 0
M  V30 4779 C 449.148 -5.05647 1.30837 0
M  V30 4780 H 450.842 -2.81636 1.01594 0
M  V30 4781 H 448.388 -1.35407 0.489981 0
M  V30 4782 H 450.341 -4.07581 -1.07031 0
M  V30 4783 H 449.065 -2.90622 -1.49019 0
M  V30 4784 H 447.724 -3.62952 0.515915 0
M  V30 4785 H 447.372 -4.73395 -1.70019 0
M  V30 4786 H 447.072 -5.86514 -0.35705 0
M  V30 4787 H 448.596 -5.96955 -1.28361 0
M  V30 4788 H 450.01 -5.65113 0.965393 0
M  V30 4789 H 448.407 -5.73967 1.75161 0
M  V30 4790 H 449.477 -4.37006 2.10128 0
M  V30 4791 N 450.82 -0.546701 -1.47814 0
M  V30 4792 C 452.097 0.0464413 -1.95545 0
M  V30 4793 C 452.477 1.4962 -1.48919 0
M  V30 4794 O 451.825 2.16752 -0.723232 0
M  V30 4795 C 452.035 -0.0881298 -3.48889 0
M  V30 4796 C 453.383 0.0626059 -4.24554 0
M  V30 4797 O 454.407 -0.0151555 -3.56197 0
M  V30 4798 O 453.266 0.228071 -5.46024 0
M  V30 4799 H 450.36 0.0700004 -0.824032 0
M  V30 4800 H 452.906 -0.612482 -1.58262 0
M  V30 4801 H 451.678 -1.09737 -3.75597 0
M  V30 4802 H 451.301 0.608886 -3.9291 0
M  V30 4803 N 452.299 1.55045 -0.282633 0
M  V30 4804 C 453.209 2.26491 0.61147 0
M  V30 4805 C 454.225 1.29348 1.16384 0
M  V30 4806 O 455.401 1.62298 1.19253 0
M  V30 4807 C 452.466 2.97779 1.77563 0
M  V30 4808 C 451.527 4.10418 1.25919 0
M  V30 4809 C 450.76 4.78297 2.36786 0
M  V30 4810 O 450.983 4.45426 3.56303 0
M  V30 4811 O 449.917 5.66089 2.04517 0
M  V30 4812 H 453.743 3.03683 0.0324615 0
M  V30 4813 H 451.328 1.49317 -0.0497576 0
M  V30 4814 H 453.21 3.42554 2.45427 0
M  V30 4815 H 451.885 2.23498 2.34159 0
M  V30 4816 H 450.792 3.70082 0.546797 0
M  V30 4817 H 452.125 4.86622 0.738887 0
M  V30 4818 N 453.777 0.010035 1.57597 0
M  V30 4819 C 454.707 -0.976857 2.12084 0
M  V30 4820 C 455.688 -1.35191 1.03235 0
M  V30 4821 O 456.873 -1.43389 1.3097 0
M  V30 4822 C 454.003 -2.26548 2.63236 0
M  V30 4823 C 452.957 -2.03175 3.76701 0
M  V30 4824 C 452.283 -3.38138 4.14206 0
M  V30 4825 C 453.583 -1.38625 5.03568 0
M  V30 4826 H 455.277 -0.523145 2.94794 0
M  V30 4827 H 452.823 -0.250195 1.4181 0
M  V30 4828 H 454.776 -2.95952 2.99984 0
M  V30 4829 H 453.5 -2.74051 1.77661 0
M  V30 4830 H 452.159 -1.36195 3.40362 0
M  V30 4831 H 451.807 -3.83363 3.25641 0
M  V30 4832 H 451.507 -3.23312 4.90656 0
M  V30 4833 H 453.031 -4.08841 4.53521 0
M  V30 4834 H 454.445 -1.98 5.38023 0
M  V30 4835 H 452.842 -1.34256 5.84889 0
M  V30 4836 H 453.912 -0.356722 4.83586 0
M  V30 4837 N 455.255 -1.55392 -0.262866 0
M  V30 4838 C 456.504 -1.75679 -0.990943 0
M  V30 4839 C 456.817 -0.57097 -1.87081 0
M  V30 4840 O 458.023 -0.656486 -2.63444 0
M  V30 4841 C 456.479 -3.10964 -1.81188 0
M  V30 4842 C 456.087 -4.37146 -0.980188 0
M  V30 4843 C 457.831 -3.40597 -2.53365 0
M  V30 4844 C 455.738 -5.63466 -1.7961 0
M  V30 4845 H 454.668 -0.654868 -0.373716 0
M  V30 4846 H 457.319 -1.81841 -0.246203 0
M  V30 4847 H 455.701 -2.98867 -2.59797 0
M  V30 4848 H 456.875 -4.60187 -0.237558 0
M  V30 4849 H 455.19 -4.14731 -0.372497 0
M  V30 4850 H 457.787 -4.32186 -3.14833 0
M  V30 4851 H 458.13 -2.6119 -3.24169 0
M  V30 4852 H 458.663 -3.53838 -1.81779 0
M  V30 4853 H 455.402 -6.4565 -1.13209 0
M  V30 4854 H 454.922 -5.44552 -2.51443 0
M  V30 4855 H 456.601 -6.02139 -2.36723 0
M  V30 4856 N 456.733 0.527833 -1.48498 0
M  V30 4857 C 458.149 0.856571 -1.34666 0
M  V30 4858 C 458.349 1.98271 -0.35931 0
M  V30 4859 O 457.405 2.51551 0.218703 0
M  V30 4860 C 458.718 1.22207 -2.74747 0
M  V30 4861 C 460.266 1.33183 -2.83251 0
M  V30 4862 C 460.741 1.73075 -4.24039 0
M  V30 4863 N 462.232 1.80174 -4.26722 0
M  V30 4864 C 462.967 2.1243 -5.32598 0
M  V30 4865 N 462.463 2.43096 -6.4875 0
M  V30 4866 N 464.256 2.13454 -5.19994 0
M  V30 4867 H 456.407 -0.215174 -2.11307 0
M  V30 4868 H 458.67 -0.0336281 -0.947403 0
M  V30 4869 H 458.376 0.468195 -3.4857 0
M  V30 4870 H 458.25 2.17173 -3.08409 0
M  V30 4871 H 460.637 2.07647 -2.09683 0
M  V30 4872 H 460.718 0.363333 -2.53206 0
M  V30 4873 H 460.362 0.991712 -4.98124 0
M  V30 4874 H 460.292 2.70979 -4.51529 0
M  V30 4875 H 462.783 1.58744 -3.42942 0
M  V30 4876 H 463.096 2.6682 -7.25277 0
M  V30 4877 H 461.441 2.40611 -6.52021 0
M  V30 4878 H 464.632 1.88956 -4.28268 0
M  V30 4879 H 464.805 2.38261 -6.02608 0
M  V30 4880 N 458.211 1.37122 0.776871 0
M  V30 4881 C 459.144 1.26835 1.89705 0
M  V30 4882 C 460.122 0.14992 1.61907 0
M  V30 4883 O 461.306 0.323242 1.85708 0
M  V30 4884 C 458.433 0.95986 3.24814 0
M  V30 4885 C 457.479 2.09447 3.7153 0
M  V30 4886 S 458.312 3.71368 3.85806 0
M  V30 4887 C 459.468 3.42659 5.23771 0
M  V30 4888 H 459.701 2.21647 1.98141 0
M  V30 4889 H 457.234 1.22685 0.937433 0
M  V30 4890 H 459.192 0.788696 4.02852 0
M  V30 4891 H 457.853 0.0293137 3.14086 0
M  V30 4892 H 457.046 1.8335 4.69467 0
M  V30 4893 H 456.648 2.2255 3.00578 0
M  V30 4894 H 458.94 2.9733 6.0877 0
M  V30 4895 H 459.883 4.39905 5.54878 0
M  V30 4896 H 460.291 2.77708 4.91466 0
M  V30 4897 N 459.689 -1.00246 1.21608 0
M  V30 4898 C 460.622 -2.08794 0.920892 0
M  V30 4899 C 461.6 -1.62059 -0.132552 0
M  V30 4900 O 462.784 -1.885 -0.0030366 0
M  V30 4901 C 459.911 -3.36525 0.383226 0
M  V30 4902 C 458.957 -4.02172 1.41987 0
M  V30 4903 S 459.79 -4.44256 2.98994 0
M  V30 4904 C 460.946 -5.7517 2.4684 0
M  V30 4905 H 461.179 -2.33511 1.8401 0
M  V30 4906 H 458.712 -1.13562 1.04609 0
M  V30 4907 H 460.67 -4.10423 0.0795871 0
M  V30 4908 H 459.331 -3.09854 -0.514711 0
M  V30 4909 H 458.524 -4.94114 0.993335 0
M  V30 4910 H 458.126 -3.34559 1.67171 0
M  V30 4911 H 460.418 -6.51042 1.87484 0
M  V30 4912 H 461.361 -6.22638 3.37235 0
M  V30 4913 H 461.769 -5.32112 1.88461 0
M  V30 4914 N 461.167 -1.02423 -1.1978 0
M  V30 4915 C 462.413 -0.719051 -1.89625 0
M  V30 4916 C 462.746 0.750083 -1.7913 0
M  V30 4917 O 462.021 1.54574 -1.18056 0
M  V30 4918 C 462.304 -1.16499 -3.40735 0
M  V30 4919 C 462.157 -2.695 -3.60125 0
M  V30 4920 C 463.476 -0.742166 -4.33797 0
M  V30 4921 H 460.595 -0.26269 -0.688595 0
M  V30 4922 H 463.237 -1.27333 -1.41018 0
M  V30 4923 H 461.387 -0.69341 -3.82262 0
M  V30 4924 H 463.059 -3.24569 -3.278 0
M  V30 4925 H 461.302 -3.10113 -3.03336 0
M  V30 4926 H 461.973 -2.95757 -4.66081 0
M  V30 4927 H 464.449 -1.1477 -3.99959 0
M  V30 4928 H 463.325 -1.08213 -5.38127 0
M  V30 4929 H 463.586 0.355747 -4.40666 0
M  V30 4930 N 462.645 1.35699 -0.801477 0
M  V30 4931 C 463.555 2.33661 -0.209691 0
M  V30 4932 C 464.571 1.6162 0.644591 0
M  V30 4933 O 465.747 1.93529 0.557545 0
M  V30 4934 C 462.812 3.40816 0.636033 0
M  V30 4935 C 461.873 4.28639 -0.238147 0
M  V30 4936 C 461.106 5.30676 0.567307 0
M  V30 4937 O 461.329 5.41174 1.8024 0
M  V30 4938 O 460.263 6.01887 -0.0391336 0
M  V30 4939 H 464.089 2.8606 -1.01996 0
M  V30 4940 H 461.674 1.38379 -0.563164 0
M  V30 4941 H 463.556 4.06301 1.11791 0
M  V30 4942 H 462.231 2.90696 1.42399 0
M  V30 4943 H 461.138 3.66152 -0.767044 0
M  V30 4944 H 462.471 4.82143 -0.989915 0
M  V30 4945 N 464.123 0.554532 1.47522 0
M  V30 4946 C 465.086 -0.184174 2.28459 0
M  V30 4947 C 466.086 -0.845195 1.36796 0
M  V30 4948 O 467.276 -0.701467 1.59452 0
M  V30 4949 C 464.408 -1.26903 3.16399 0
M  V30 4950 H 465.601 0.526751 2.95238 0
M  V30 4951 H 463.154 0.311375 1.53167 0
M  V30 4952 H 463.889 -2.01244 2.54306 0
M  V30 4953 H 463.674 -0.799883 3.83854 0
M  V30 4954 H 465.164 -1.78794 3.77389 0
M  V30 4955 N 465.601 -1.54893 0.290851 0
M  V30 4956 C 466.878 -1.91991 -0.373989 0
M  V30 4957 C 467.258 -1.21694 -1.72493 0
M  V30 4958 O 466.606 -0.34917 -2.25816 0
M  V30 4959 C 466.816 -3.45419 -0.498703 0
M  V30 4960 C 468.164 -4.1748 -0.774298 0
M  V30 4961 O 469.188 -3.51398 -0.582908 0
M  V30 4962 O 468.047 -5.3445 -1.14129 0
M  V30 4963 H 465.141 -0.800593 -0.207315 0
M  V30 4964 H 467.687 -1.66297 0.338164 0
M  V30 4965 H 466.459 -3.88688 0.451392 0
M  V30 4966 H 466.082 -3.77117 -1.25972 0
M  V30 4967 N 467.08 -0.0183926 -1.57589 0
M  V30 4968 C 468.01 0.965596 -2.12599 0
M  V30 4969 C 468.991 1.34641 -1.0395 0
M  V30 4970 O 470.176 1.42693 -1.31729 0
M  V30 4971 C 467.306 2.25149 -2.64434 0
M  V30 4972 C 466.26 2.01175 -3.77773 0
M  V30 4973 C 465.586 3.35937 -4.15994 0
M  V30 4974 C 466.886 1.35953 -5.04296 0
M  V30 4975 H 468.58 0.507504 -2.95067 0
M  V30 4976 H 466.126 0.242671 -1.41941 0
M  V30 4977 H 468.079 2.94357 -3.01549 0
M  V30 4978 H 466.803 2.73105 -1.79112 0
M  V30 4979 H 465.462 1.34388 -3.4108 0
M  V30 4980 H 465.11 3.81631 -3.27669 0
M  V30 4981 H 464.81 3.20705 -4.92364 0
M  V30 4982 H 466.334 4.0643 -4.55683 0
M  V30 4983 H 467.748 1.95144 -5.39065 0
M  V30 4984 H 466.145 1.31152 -5.85593 0
M  V30 4985 H 467.215 0.331071 -4.83768 0
M  V30 4986 N 468.558 1.5553 0.254621 0
M  V30 4987 C 469.974 1.4778 0.602753 0
M  V30 4988 C 470.174 0.707047 1.88688 0
M  V30 4989 O 469.23 0.233288 2.5142 0
M  V30 4990 C 470.543 2.92133 0.712648 0
M  V30 4991 C 472.091 3.02458 0.805488 0
M  V30 4992 C 472.566 4.48102 0.947009 0
M  V30 4993 N 474.057 4.52008 1.01207 0
M  V30 4994 C 474.792 5.61939 1.1407 0
M  V30 4995 N 474.288 6.81697 1.23536 0
M  V30 4996 N 476.081 5.49719 1.17325 0
M  V30 4997 H 468.232 2.04085 -0.588463 0
M  V30 4998 H 470.495 0.926229 -0.202001 0
M  V30 4999 H 470.201 3.51332 -0.160766 0
M  V30 5000 H 470.075 3.42187 1.58707 0
M  V30 5001 H 472.462 2.43344 1.66936 0
M  V30 5002 H 472.543 2.55627 -0.0939266 0
M  V30 5003 H 472.187 5.07824 0.087725 0
M  V30 5004 H 472.117 4.92607 1.86135 0
M  V30 5005 H 474.608 3.65749 0.950577 0
M  V30 5006 H 474.921 7.61228 1.33236 0
M  V30 5007 H 473.266 6.84473 1.20508 0
M  V30 5008 H 476.457 4.55095 1.09573 0
M  V30 5009 H 476.63 6.35432 1.27005 0
M  V30 5010 N 470.036 -0.519951 1.48776 0
M  V30 5011 C 471.452 -0.849418 1.35119 0
M  V30 5012 C 471.652 -1.98077 0.36982 0
M  V30 5013 O 470.708 -2.51664 -0.205359 0
M  V30 5014 C 472.021 -1.20748 2.75391 0
M  V30 5015 C 473.569 -1.31679 2.83954 0
M  V30 5016 C 474.044 -1.70824 4.24951 0
M  V30 5017 N 475.535 -1.77908 4.27672 0
M  V30 5018 C 476.27 -2.09603 5.33717 0
M  V30 5019 N 475.766 -2.39652 6.5003 0
M  V30 5020 N 477.559 -2.10694 5.21119 0
M  V30 5021 H 469.71 0.226377 2.1119 0
M  V30 5022 H 471.973 0.0386519 0.947212 0
M  V30 5023 H 471.679 -0.449703 3.48813 0
M  V30 5024 H 471.553 -2.15534 3.09556 0
M  V30 5025 H 473.94 -2.06532 2.10781 0
M  V30 5026 H 474.021 -0.3499 2.53396 0
M  V30 5027 H 473.665 -0.965282 4.98643 0
M  V30 5028 H 473.595 -2.6858 4.52959 0
M  V30 5029 H 476.086 -1.56923 3.43779 0
M  V30 5030 H 476.399 -2.6297 7.26682 0
M  V30 5031 H 474.744 -2.37149 6.53288 0
M  V30 5032 H 477.935 -1.86682 4.29264 0
M  V30 5033 H 478.108 -2.35062 6.03863 0
M  V30 5034 N 471.514 -1.37532 -0.769588 0
M  V30 5035 C 472.76 -1.33057 -1.53048 0
M  V30 5036 C 473.093 0.0841865 -1.94017 0
M  V30 5037 O 472.368 1.04198 -1.64235 0
M  V30 5038 C 472.651 -2.27166 -2.79406 0
M  V30 5039 C 472.504 -3.77429 -2.44677 0
M  V30 5040 C 473.823 -2.19683 -3.81349 0
M  V30 5041 H 470.942 -0.484655 -0.555228 0
M  V30 5042 H 473.584 -1.68251 -0.882702 0
M  V30 5043 H 471.734 -1.97283 -3.34682 0
M  V30 5044 H 473.406 -4.17918 -1.953 0
M  V30 5045 H 471.649 -3.95892 -1.77346 0
M  V30 5046 H 472.32 -4.38716 -3.35011 0
M  V30 5047 H 474.796 -2.46029 -3.35573 0
M  V30 5048 H 473.672 -2.87668 -4.67481 0
M  V30 5049 H 473.933 -1.19045 -4.25771 0
M  V30 5050 N 472.992 0.995999 -1.22138 0
M  V30 5051 C 474.217 1.77601 -1.0711 0
M  V30 5052 C 474.642 1.84339 0.374264 0
M  V30 5053 O 474 1.29359 1.27028 0
M  V30 5054 C 474.048 3.18897 -1.68336 0
M  V30 5055 O 473.152 4.01663 -0.934928 0
M  V30 5056 H 472.493 0.547011 -0.376397 0
M  V30 5057 H 475.023 1.25137 -1.6187 0
M  V30 5058 H 475.033 3.69539 -1.72931 0
M  V30 5059 H 473.708 3.13308 -2.73516 0
M  V30 5060 H 472.285 3.60204 -0.964751 0
M  V30 5061 N 474.47 1.03057 1.19235 0
M  V30 5062 C 475.886 0.747947 1.40989 0
M  V30 5063 C 476.086 -0.666752 1.90149 0
M  V30 5064 O 475.142 -1.43249 2.07933 0
M  V30 5065 C 476.455 1.7855 2.41951 0
M  V30 5066 C 478.003 1.80524 2.55695 0
M  V30 5067 C 478.478 2.83243 3.59913 0
M  V30 5068 N 479.969 2.8207 3.67411 0
M  V30 5069 C 480.704 3.58204 4.47747 0
M  V30 5070 N 480.2 4.44057 5.31775 0
M  V30 5071 N 481.993 3.46738 4.42413 0
M  V30 5072 H 474.144 1.94367 0.856468 0
M  V30 5073 H 476.407 0.840412 0.438647 0
M  V30 5074 H 476.113 2.79973 2.12857 0
M  V30 5075 H 475.987 1.6092 3.41152 0
M  V30 5076 H 478.374 0.79778 2.84112 0
M  V30 5077 H 478.455 2.02229 1.56643 0
M  V30 5078 H 478.099 3.84161 3.32239 0
M  V30 5079 H 478.029 2.58795 4.5862 0
M  V30 5080 H 480.52 2.19803 3.074 0
M  V30 5081 H 480.833 4.98884 5.90199 0
M  V30 5082 H 479.178 4.48129 5.3123 0
M  V30 5083 H 482.369 2.79077 3.75811 0
M  V30 5084 H 482.542 4.06322 5.04783 0
M  V30 5085 N 475.948 -1.35272 0.808662 0
M  V30 5086 C 476.858 -2.33546 0.222079 0
M  V30 5087 C 477.874 -1.6196 -0.636011 0
M  V30 5088 O 479.05 -1.93822 -0.547274 0
M  V30 5089 C 476.115 -3.41148 -0.61795 0
M  V30 5090 C 475.176 -4.28507 0.260875 0
M  V30 5091 C 474.409 -5.3097 -0.539156 0
M  V30 5092 O 474.632 -5.42123 -1.77367 0
M  V30 5093 O 473.566 -6.01858 0.0710526 0
M  V30 5094 H 477.392 -2.85515 1.03512 0
M  V30 5095 H 474.977 -1.38079 0.570495 0
M  V30 5096 H 476.859 -4.06889 -1.09634 0
M  V30 5097 H 475.534 -2.91447 -1.40855 0
M  V30 5098 H 474.441 -3.6574 0.786451 0
M  V30 5099 H 475.774 -4.81611 1.01547 0
M  V30 5100 O 477.465 -0.703344 -1.4538 0
M  V30 5101 H 478.156 -0.244572 -1.9215 0
M  V30 END ATOM
M  V30 BEGIN BOND
M  V30 END BOND
M  V30 END CTAB
M  END
$$$$
