drugbank_target|Q51782 Phosphonoacetate hydrolase (DB01694)
 OpenBabel12092120223D

  0  0  0     0  0            999 V3000
M  V30 BEGIN CTAB
M  V30 COUNTS 6211 6272 0 0 0
M  V30 BEGIN ATOM
M  V30 1 H -0.908 1.98254 -0.117106 0
M  V30 2 N 0 1.576 0 0
M  V30 3 C 0.933 2.03868 1.02534 0
M  V30 4 C 1.911 0.928543 1.3348 0
M  V30 5 O 3.095 1.19667 1.45644 0
M  V30 6 C 0.222 2.43627 2.35294 0
M  V30 7 C -0.732 3.65373 2.2001 0
M  V30 8 S 0.101 5.13292 1.52614 0
M  V30 9 C 1.257 5.56322 2.86805 0
M  V30 10 H 1.49 2.90518 0.631377 0
M  V30 11 H -0.977 1.52953 0.210867 0
M  V30 12 H 0.981 2.67203 3.11629 0
M  V30 13 H -0.358 1.57376 2.7183 0
M  V30 14 H -1.165 3.90944 3.18086 0
M  V30 15 H -1.563 3.418 1.51819 0
M  V30 16 H 0.729 5.58782 3.83104 0
M  V30 17 H 1.672 6.56266 2.65933 0
M  V30 18 H 2.08 4.83886 2.90714 0
M  V30 19 N 1.4781 -0.272755 1.55222 0
M  V30 20 C 2.7061 -1.02255 1.79865 0
M  V30 21 C 3.1211 -1.79924 0.572088 0
M  V30 22 O 2.4781 -1.76638 -0.458842 0
M  V30 23 C 2.5291 -1.98094 3.02392 0
M  V30 24 O 2.2501 -1.23572 4.20311 0
M  V30 25 C 3.7511 -2.84884 3.39641 0
M  V30 26 H 0.9711 -0.302057 0.599168 0
M  V30 27 H 3.5151 -0.303465 2.02236 0
M  V30 28 H 1.6701 -2.65465 2.82147 0
M  V30 29 H 2.0841 -1.88172 4.89583 0
M  V30 30 H 3.5581 -3.47927 4.28545 0
M  V30 31 H 4.0351 -3.54665 2.59055 0
M  V30 32 H 4.6411 -2.23003 3.62146 0
M  V30 33 N 2.9562 -1.48159 -0.537278 0
M  V30 34 C 3.8882 -1.58218 -1.65831 0
M  V30 35 C 4.9012 -0.466948 -1.5596 0
M  V30 36 O 6.0902 -0.73747 -1.62553 0
M  V30 37 C 3.1902 -1.48906 -3.04434 0
M  V30 38 C 2.3632 -2.75343 -3.3986 0
M  V30 39 C 1.4222 -2.59588 -4.57712 0
M  V30 40 O 0.4482 -3.33457 -4.61297 0
M  V30 41 N 1.6502 -1.68724 -5.55439 0
M  V30 42 H 4.4152 -2.54891 -1.57641 0
M  V30 43 H 1.9762 -1.4479 -0.724386 0
M  V30 44 H 3.9682 -1.36072 -3.81139 0
M  V30 45 H 2.5382 -0.602368 -3.06741 0
M  V30 46 H 1.7582 -3.02795 -2.52406 0
M  V30 47 H 3.0462 -3.5924 -3.60311 0
M  V30 48 H 2.4442 -1.07898 -5.55315 0
M  V30 49 H 1.0012 -1.61832 -6.3139 0
M  V30 50 N 4.4343 0.785586 -1.36625 0
M  V30 51 C 5.3643 1.91259 -1.33949 0
M  V30 52 C 6.3453 1.68795 -0.210325 0
M  V30 53 O 7.5303 1.89854 -0.408561 0
M  V30 54 C 4.6603 3.28339 -1.13186 0
M  V30 55 C 3.6143 3.65335 -2.22967 0
M  V30 56 C 2.9403 5.00806 -1.87342 0
M  V30 57 C 4.2403 3.7352 -3.65075 0
M  V30 58 H 5.9343 1.93755 -2.28253 0
M  V30 59 H 3.4803 0.930788 -1.09874 0
M  V30 60 H 5.4333 4.06804 -1.09948 0
M  V30 61 H 4.1573 3.2624 -0.153332 0
M  V30 62 H 2.8163 2.89169 -2.25337 0
M  V30 63 H 2.4643 4.95233 -0.880545 0
M  V30 64 H 2.1643 5.26529 -2.60846 0
M  V30 65 H 3.6883 5.81687 -1.85667 0
M  V30 66 H 5.1023 4.42168 -3.64911 0
M  V30 67 H 3.4993 4.10731 -4.37516 0
M  V30 68 H 4.5693 2.74527 -3.99703 0
M  V30 69 N 5.9124 1.20967 1.01018 0
M  V30 70 C 7.1614 1.01796 1.74128 0
M  V30 71 C 7.4744 -0.449691 1.90361 0
M  V30 72 O 8.6804 -0.76068 2.60626 0
M  V30 73 C 7.1364 1.7727 3.13215 0
M  V30 74 C 6.7444 3.28171 3.04972 0
M  V30 75 C 8.4884 1.66489 3.90489 0
M  V30 76 C 6.3954 3.96156 4.39107 0
M  V30 77 H 5.3254 0.377276 0.652824 0
M  V30 78 H 7.9764 1.44651 1.12909 0
M  V30 79 H 6.3584 1.27205 3.75013 0
M  V30 80 H 7.5324 3.85499 2.52443 0
M  V30 81 H 5.8474 3.39437 2.41188 0
M  V30 82 H 8.4444 2.14617 4.89738 0
M  V30 83 H 8.7874 0.6222 4.11624 0
M  V30 84 H 9.3204 2.14003 3.35332 0
M  V30 85 H 6.0594 5.00604 4.23174 0
M  V30 86 H 5.5794 3.43617 4.91617 0
M  V30 87 H 7.2584 4.00774 5.07926 0
M  V30 88 N 7.3905 -1.2043 1.01659 0
M  V30 89 C 8.6155 -1.94318 0.724942 0
M  V30 90 C 9.0405 -1.74266 -0.708034 0
M  V30 91 O 8.3985 -1.03694 -1.48719 0
M  V30 92 C 8.4465 -3.44486 1.06591 0
M  V30 93 O 7.5505 -4.12017 0.177599 0
M  V30 94 H 6.8915 -0.60708 0.26898 0
M  V30 95 H 9.4215 -1.52861 1.35995 0
M  V30 96 H 9.4315 -3.95106 1.01762 0
M  V30 97 H 8.1065 -3.58404 2.10997 0
M  V30 98 H 6.6835 -3.71821 0.283421 0
M  V30 99 N 8.8686 -0.792821 -1.36206 0
M  V30 100 C 10.1146 -0.36733 -1.99446 0
M  V30 101 C 10.4476 1.05917 -1.62774 0
M  V30 102 O 9.7226 1.7324 -0.88421 0
M  V30 103 C 10.0056 -0.535044 -3.56103 0
M  V30 104 C 9.8586 -2.00548 -4.02617 0
M  V30 105 C 11.1776 0.0478191 -4.40074 0
M  V30 106 H 8.2966 -0.134941 -0.724541 0
M  V30 107 H 10.9386 -0.999794 -1.61568 0
M  V30 108 H 9.0886 0.00336329 -3.885 0
M  V30 109 H 10.7606 -2.60521 -3.80692 0
M  V30 110 H 9.0036 -2.50686 -3.54032 0
M  V30 111 H 9.6746 -2.07377 -5.11565 0
M  V30 112 H 12.1506 -0.411822 -4.14057 0
M  V30 113 H 11.0266 -0.0995336 -5.4881 0
M  V30 114 H 11.2876 1.14025 -4.27142 0
M  V30 115 N 10.3467 1.47872 -0.545128 0
M  V30 116 C 11.2947 2.31533 0.222512 0
M  V30 117 C 12.2887 1.42177 0.920985 0
M  V30 118 O 13.4947 1.59005 0.843645 0
M  V30 119 H 9.8697 0.746519 0.0906278 0
M  V30 120 H 11.8407 2.94139 -0.50246 0
M  V30 121 C 10.5897 3.2457 1.24699 0
M  V30 122 H 9.9127 3.93283 0.718944 0
M  V30 123 H 11.3527 3.85963 1.75523 0
M  V30 124 C 9.8117 2.47237 2.28856 0
M  V30 125 O 10.3417 2.20808 3.35569 0
M  V30 126 N 8.5477 2.08461 2.02466 0
M  V30 127 H 8.0947 2.30155 1.157 0
M  V30 128 H 8.0527 1.57033 2.72375 0
M  V30 129 N 11.8248 0.280983 1.55075 0
M  V30 130 C 13.0498 -0.340154 2.04592 0
M  V30 131 C 13.4748 -1.48246 1.15779 0
M  V30 132 O 12.8328 -1.80614 0.15761 0
M  V30 133 C 12.8808 -0.793104 3.5177 0
M  V30 134 O 11.9848 -1.89981 3.66034 0
M  V30 135 H 11.3258 -0.0694289 0.66036 0
M  V30 136 H 13.8558 0.416993 2.00306 0
M  V30 137 H 13.8658 -1.08729 3.93245 0
M  V30 138 H 12.5408 0.0426163 4.15878 0
M  V30 139 H 11.1178 -1.60771 3.36463 0
M  V30 140 N 13.3029 -1.57598 0.00835791 0
M  V30 141 C 14.7189 -1.55764 -0.347822 0
M  V30 142 C 14.9189 -1.01186 -1.74252 0
M  V30 143 O 13.9749 -0.649371 -2.44007 0
M  V30 144 C 15.2879 -2.99927 -0.215407 0
M  V30 145 C 16.8359 -3.11656 -0.289725 0
M  V30 146 C 17.3109 -4.57621 -0.18634 0
M  V30 147 N 18.8019 -4.62557 -0.243978 0
M  V30 148 C 19.5369 -5.73094 -0.18745 0
M  V30 149 N 19.0329 -6.92753 -0.0810331 0
M  V30 150 N 20.8259 -5.61588 -0.239925 0
M  V30 151 H 12.9769 -1.91411 0.92062 0
M  V30 152 H 15.2399 -0.879562 0.353659 0
M  V30 153 H 14.9459 -3.43729 0.744512 0
M  V30 154 H 14.8199 -3.63865 -0.994097 0
M  V30 155 H 17.2069 -2.67779 -1.24009 0
M  V30 156 H 17.2879 -2.5048 0.51898 0
M  V30 157 H 16.9319 -5.02174 0.760519 0
M  V30 158 H 16.8619 -5.16752 -1.01364 0
M  V30 159 H 19.3529 -3.76481 -0.327217 0
M  V30 160 H 19.6659 -7.72787 -0.0440241 0
M  V30 161 H 18.0109 -6.94984 -0.0465419 0
M  V30 162 H 21.2019 -4.66996 -0.321317 0
M  V30 163 H 21.3749 -6.47714 -0.192407 0
M  V30 164 N 14.781 0.264519 -1.55364 0
M  V30 165 C 16.006 1.01726 -1.80739 0
M  V30 166 C 16.431 1.78836 -0.583044 0
M  V30 167 O 15.789 1.75167 0.467566 0
M  V30 168 C 15.837 1.94482 -3.03659 0
M  V30 169 O 14.941 3.03386 -2.7934 0
M  V30 170 H 14.282 0.290395 -0.597132 0
M  V30 171 H 16.812 0.290854 -2.02522 0
M  V30 172 H 16.822 2.36278 -3.32621 0
M  V30 173 H 15.497 1.37772 -3.92418 0
M  V30 174 H 14.074 2.65844 -2.61498 0
M  V30 175 N 16.2591 1.48442 0.529413 0
M  V30 176 C 17.4891 1.59919 1.30804 0
M  V30 177 C 17.8971 0.258792 1.87422 0
M  V30 178 O 17.2401 -0.762096 1.67146 0
M  V30 179 C 17.3021 2.58693 2.49636 0
M  V30 180 C 16.9661 4.03745 2.14101 0
M  V30 181 C 17.9631 4.9141 1.6974 0
M  V30 182 C 15.6481 4.49285 2.24607 0
M  V30 183 C 17.6421 6.22645 1.36351 0
M  V30 184 C 15.3291 5.8054 1.9083 0
M  V30 185 C 16.3271 6.67043 1.46773 0
M  V30 186 O 16.0151 7.95856 1.1344 0
M  V30 187 H 15.7471 0.541981 0.404021 0
M  V30 188 H 18.3011 1.95 0.645309 0
M  V30 189 H 16.5311 2.18734 3.18892 0
M  V30 190 H 18.2201 2.59999 3.11698 0
M  V30 191 H 18.9861 4.57465 1.61094 0
M  V30 192 H 14.8651 3.82142 2.57854 0
M  V30 193 H 18.4091 6.90119 1.01891 0
M  V30 194 H 14.3061 6.14022 1.99117 0
M  V30 195 H 15.0741 8.08613 1.26832 0
M  V30 196 N 17.7372 -0.778329 1.37039 0
M  V30 197 C 19.1532 -1.07796 1.17695 0
M  V30 198 C 19.3532 -2.01498 0.00860115 0
M  V30 199 O 18.4092 -2.43901 -0.653352 0
M  V30 200 C 19.7222 -1.68178 2.49272 0
M  V30 201 C 21.2702 -1.80467 2.55735 0
M  V30 202 C 21.7452 -2.44263 3.87427 0
M  V30 203 N 23.2362 -2.51721 3.88833 0
M  V30 204 C 23.9712 -3.01919 4.87476 0
M  V30 205 N 23.4672 -3.5234 5.96513 0
M  V30 206 N 25.2602 -3.00733 4.74885 0
M  V30 207 H 17.4112 -0.156032 2.11826 0
M  V30 208 H 19.6742 -0.131844 0.938787 0
M  V30 209 H 19.3802 -1.06796 3.35093 0
M  V30 210 H 19.2542 -2.67554 2.65885 0
M  V30 211 H 21.6412 -2.40984 1.70325 0
M  V30 212 H 21.7222 -0.798656 2.43013 0
M  V30 213 H 21.3662 -1.84388 4.73248 0
M  V30 214 H 21.2962 -3.45458 3.9745 0
M  V30 215 H 23.7872 -2.1603 3.10063 0
M  V30 216 H 24.1002 -3.89027 6.67741 0
M  V30 217 H 22.4452 -3.50462 6.00168 0
M  V30 218 H 25.6362 -2.60638 3.88826 0
M  V30 219 H 25.8092 -3.39545 5.51918 0
M  V30 220 N 19.2153 -1.21501 -1.00376 0
M  V30 221 C 20.1453 -0.999478 -2.11028 0
M  V30 222 C 21.1263 0.0759671 -1.6993 0
M  V30 223 O 22.3113 -0.0841106 -1.94018 0
M  V30 224 C 19.4413 -0.564709 -3.42678 0
M  V30 225 C 18.3953 -1.58486 -3.97576 0
M  V30 226 C 17.7213 -1.00628 -5.25146 0
M  V30 227 C 19.0213 -2.97204 -4.29496 0
M  V30 228 H 20.7153 -1.92495 -2.29317 0
M  V30 229 H 18.2613 -0.92693 -1.102 0
M  V30 230 H 20.2143 -0.401091 -4.19487 0
M  V30 231 H 18.9383 0.396411 -3.24185 0
M  V30 232 H 17.5973 -1.73606 -3.22888 0
M  V30 233 H 17.2453 -0.0368439 -5.02987 0
M  V30 234 H 16.9453 -1.68771 -5.62841 0
M  V30 235 H 18.4693 -0.854015 -6.04598 0
M  V30 236 H 19.8833 -2.8552 -4.97143 0
M  V30 237 H 18.2803 -3.62372 -4.78338 0
M  V30 238 H 19.3503 -3.47956 -3.3772 0
M  V30 239 N 20.6934 1.19889 -1.02296 0
M  V30 240 C 21.9184 1.9393 -0.735237 0
M  V30 241 C 22.3434 1.74639 0.698782 0
M  V30 242 O 21.7014 1.04481 1.48167 0
M  V30 243 C 21.7494 3.43916 -1.08417 0
M  V30 244 O 20.8534 4.11917 -0.199446 0
M  V30 245 H 20.1944 0.605645 -0.272196 0
M  V30 246 H 22.7244 1.52137 -1.36804 0
M  V30 247 H 22.7344 3.9456 -1.03856 0
M  V30 248 H 21.4094 3.5728 -2.12894 0
M  V30 249 H 19.9864 3.71666 -0.303136 0
M  V30 250 N 22.1715 0.800033 1.35784 0
M  V30 251 C 23.3965 0.388511 2.03729 0
M  V30 252 C 23.8215 -0.990481 1.5991 0
M  V30 253 O 23.1795 -1.64013 0.772612 0
M  V30 254 C 23.2275 0.4726 3.5749 0
M  V30 255 O 22.3315 -0.51646 4.09153 0
M  V30 256 H 21.6725 0.163271 0.643614 0
M  V30 257 H 24.2025 1.0841 1.73518 0
M  V30 258 H 24.2125 0.34003 4.06581 0
M  V30 259 H 22.8875 1.47848 3.88734 0
M  V30 260 H 21.4645 -0.344673 3.71304 0
M  V30 261 N 23.6496 -1.47581 0.552962 0
M  V30 262 C 24.6126 -2.28439 -0.186605 0
M  V30 263 C 25.6126 -1.36706 -0.84665 0
M  V30 264 O 26.8026 -1.59378 -0.703164 0
M  V30 265 C 23.9346 -3.16264 -1.2724 0
M  V30 266 H 25.1276 -2.95294 0.523609 0
M  V30 267 H 22.6806 -1.532 0.309745 0
M  V30 268 H 23.4156 -2.54091 -2.01514 0
M  V30 269 H 23.2006 -3.83769 -0.803968 0
M  V30 270 H 24.6906 -3.77198 -1.79196 0
M  V30 271 N 25.1277 -0.289203 -1.54924 0
M  V30 272 C 26.5387 0.205791 -1.85562 0
M  V30 273 C 26.8897 1.54351 -1.2112 0
M  V30 274 O 26.0147 2.10435 -0.504601 0
M  V30 275 C 26.6097 0.380177 -3.3666 0
M  V30 276 C 25.1687 0.819395 -3.67373 0
M  V30 277 C 24.3157 -0.079159 -2.77187 0
M  V30 278 H 27.2667 -0.510577 -1.50262 0
M  V30 279 H 27.2877 1.21659 -3.60526 0
M  V30 280 H 26.7997 -0.593589 -3.83534 0
M  V30 281 H 24.9007 1.80413 -3.26009 0
M  V30 282 H 25.0137 0.646957 -4.74712 0
M  V30 283 H 23.3777 0.439565 -2.50878 0
M  V30 284 H 24.1607 -1.04906 -3.26878 0
M  V30 285 N 26.6058 1.57591 -0.0167156 0
M  V30 286 C 27.8338 1.95575 0.675128 0
M  V30 287 C 28.2488 0.892542 1.6637 0
M  V30 288 O 27.6058 -0.126912 1.82058 0
M  V30 289 C 27.6568 3.33608 1.39239 0
M  V30 290 O 27.3778 4.3585 0.443444 0
M  V30 291 C 28.8788 3.86151 2.17721 0
M  V30 292 H 26.0988 0.644423 0.186978 0
M  V30 293 H 28.6428 2.0437 -0.0728 0
M  V30 294 H 26.7978 3.2607 2.09182 0
M  V30 295 H 27.2118 5.158 0.951358 0
M  V30 296 H 28.6858 4.85114 2.63379 0
M  V30 297 H 29.1628 3.19738 3.01105 0
M  V30 298 H 29.7688 3.96918 1.52761 0
M  V30 299 N 28.0839 -0.256276 1.55502 0
M  V30 300 C 29.3329 -0.983486 1.76098 0
M  V30 301 C 29.6459 -1.86837 0.578896 0
M  V30 302 O 30.8519 -2.63163 0.667648 0
M  V30 303 C 29.3079 -1.79868 3.1173 0
M  V30 304 C 28.9159 -0.961648 4.37557 0
M  V30 305 C 30.6599 -2.51919 3.41668 0
M  V30 306 C 28.5669 -1.77219 5.64223 0
M  V30 307 H 27.4969 -0.370936 0.656447 0
M  V30 308 H 30.1479 -0.238492 1.81944 0
M  V30 309 H 28.5299 -2.58527 2.99966 0
M  V30 310 H 29.7039 -0.218048 4.60284 0
M  V30 311 H 28.0189 -0.354913 4.14885 0
M  V30 312 H 30.6159 -3.12998 4.33516 0
M  V30 313 H 30.9589 -3.23059 2.62562 0
M  V30 314 H 31.4919 -1.80278 3.54605 0
M  V30 315 H 28.2309 -1.10471 6.46124 0
M  V30 316 H 27.7509 -2.49132 5.45613 0
M  V30 317 H 29.4299 -2.34169 6.03137 0
M  V30 318 N 29.562 -1.4872 -0.521534 0
M  V30 319 C 30.808 -1.574 -1.27879 0
M  V30 320 C 31.141 -0.250817 -1.92573 0
M  V30 321 O 30.416 0.743934 -1.79711 0
M  V30 322 C 30.699 -2.71843 -2.36164 0
M  V30 323 C 30.552 -4.13893 -1.76105 0
M  V30 324 C 31.871 -2.82008 -3.37875 0
M  V30 325 H 28.99 -0.572941 -0.463581 0
M  V30 326 H 31.632 -1.80927 -0.580119 0
M  V30 327 H 29.782 -2.51914 -2.95756 0
M  V30 328 H 31.454 -4.45284 -1.20499 0
M  V30 329 H 29.697 -4.20498 -1.06601 0
M  V30 330 H 30.368 -4.89804 -2.5455 0
M  V30 331 H 32.844 -3.00086 -2.88249 0
M  V30 332 H 31.72 -3.63796 -4.11028 0
M  V30 333 H 31.981 -1.90511 -3.98946 0
M  V30 334 N 31.0401 0.771051 -1.3745 0
M  V30 335 C 32.2891 1.52491 -1.3202 0
M  V30 336 C 32.6021 1.9538 0.0927347 0
M  V30 337 O 33.8081 2.70159 0.269503 0
M  V30 338 C 32.2641 2.75366 -2.31736 0
M  V30 339 C 31.8721 2.39573 -3.78562 0
M  V30 340 C 33.6161 3.53307 -2.35318 0
M  V30 341 C 31.5231 3.58954 -4.70007 0
M  V30 342 H 30.4531 0.572506 -0.490666 0
M  V30 343 H 33.1041 0.844474 -1.62914 0
M  V30 344 H 31.4861 3.45303 -1.93861 0
M  V30 345 H 32.6601 1.77415 -4.25277 0
M  V30 346 H 30.9751 1.74805 -3.77932 0
M  V30 347 H 33.5721 4.42039 -3.00842 0
M  V30 348 H 33.9151 3.93217 -1.36698 0
M  V30 349 H 34.4481 2.90367 -2.71904 0
M  V30 350 H 31.1871 3.24125 -5.69757 0
M  V30 351 H 30.7071 4.20214 -4.27996 0
M  V30 352 H 32.3861 4.25758 -4.87175 0
M  V30 353 N 32.5182 1.22032 0.997298 0
M  V30 354 C 33.7582 1.05375 1.75144 0
M  V30 355 C 34.1222 -0.404696 1.87686 0
M  V30 356 O 35.3232 -0.691998 2.5974 0
M  V30 357 C 33.5942 1.74046 3.12158 0
M  V30 358 S 35.1532 1.72745 4.03366 0
M  V30 359 H 31.9712 0.377449 0.602539 0
M  V30 360 H 34.5732 1.54902 1.19272 0
M  V30 361 H 33.2772 2.79332 3.00669 0
M  V30 362 H 32.8082 1.24731 3.73103 0
M  V30 363 H 34.8232 0.774015 4.90126 0
M  V30 364 N 33.9963 -1.19345 1.0293 0
M  V30 365 C 35.2423 -1.89318 0.727083 0
M  V30 366 C 35.5753 -1.79446 -0.742483 0
M  V30 367 O 34.8503 -1.1871 -1.54072 0
M  V30 368 C 35.1333 -3.40238 1.17942 0
M  V30 369 C 34.9863 -3.58979 2.71024 0
M  V30 370 C 36.3053 -4.33479 0.760548 0
M  V30 371 H 33.4243 -0.687475 0.265606 0
M  V30 372 H 36.0663 -1.40477 1.2793 0
M  V30 373 H 34.2163 -3.81964 0.709608 0
M  V30 374 H 35.8883 -3.26421 3.25955 0
M  V30 375 H 34.1313 -3.02018 3.11396 0
M  V30 376 H 34.8023 -4.64823 2.9773 0
M  V30 377 H 37.2783 -3.99469 1.16464 0
M  V30 378 H 36.1543 -5.37664 1.10493 0
M  V30 379 H 36.4153 -4.40813 -0.337063 0
M  V30 380 N 35.4744 -0.807222 -1.35358 0
M  V30 381 C 36.7514 -0.311126 -1.9311 0
M  V30 382 C 37.1314 1.19937 -1.73719 0
M  V30 383 O 36.4794 1.99918 -1.10657 0
M  V30 384 C 36.6894 -0.723226 -3.41424 0
M  V30 385 C 38.0374 -0.713078 -4.18569 0
M  V30 386 O 39.0614 -0.664811 -3.49941 0
M  V30 387 O 37.9204 -0.772022 -5.41019 0
M  V30 388 H 35.0144 -0.081526 -0.822972 0
M  V30 389 H 37.5604 -0.890962 -1.4443 0
M  V30 390 H 36.3324 -1.76426 -3.4927 0
M  V30 391 H 35.9554 -0.118232 -3.97424 0
M  V30 392 N 36.9525 1.47285 -0.560781 0
M  V30 393 C 38.2005 2.02064 -0.0379868 0
M  V30 394 C 38.5215 1.43711 1.31803 0
M  V30 395 O 37.7915 0.61362 1.86042 0
M  V30 396 H 36.3715 0.746918 -0.0110531 0
M  V30 397 H 39.0335 1.80648 -0.731598 0
M  V30 398 H 38.1295 3.12064 0.0474463 0
M  V30 399 N 38.4306 0.297415 1.54768 0
M  V30 400 C 39.6706 -0.313829 2.01976 0
M  V30 401 C 40.0346 -1.51366 1.1812 0
M  V30 402 O 41.2356 -2.19603 1.5501 0
M  V30 403 C 39.5066 -0.664964 3.51159 0
M  V30 404 S 41.0656 -1.25958 4.20333 0
M  V30 405 H 37.8836 -0.0965014 0.704421 0
M  V30 406 H 40.4856 0.424451 1.90837 0
M  V30 407 H 39.1896 0.21681 4.09827 0
M  V30 408 H 38.7206 -1.43413 3.66328 0
M  V30 409 H 40.7356 -2.54751 4.25813 0
M  V30 410 N 39.9087 -1.5758 0.0250728 0
M  V30 411 C 40.8187 -2.1343 -0.973905 0
M  V30 412 C 41.8347 -1.08556 -1.35984 0
M  V30 413 O 43.0107 -1.40592 -1.44207 0
M  V30 414 C 40.0757 -2.64703 -2.23904 0
M  V30 415 C 39.1367 -3.84276 -1.91391 0
M  V30 416 C 38.3697 -4.33095 -3.11873 0
M  V30 417 O 38.5927 -3.81107 -4.24398 0
M  V30 418 O 37.5267 -5.24984 -2.94406 0
M  V30 419 H 41.3527 -2.99057 -0.529036 0
M  V30 420 H 38.9377 -1.48118 -0.195288 0
M  V30 421 H 40.8197 -2.97769 -2.98181 0
M  V30 422 H 39.4947 -1.82161 -2.6758 0
M  V30 423 H 38.4017 -3.56143 -1.14511 0
M  V30 424 H 39.7347 -4.67968 -1.52534 0
M  V30 425 N 41.3868 0.248026 -1.55636 0
M  V30 426 C 42.3188 1.32993 -1.8667 0
M  V30 427 C 43.3318 1.44345 -0.752877 0
M  V30 428 O 44.5208 1.45715 -1.03098 0
M  V30 429 C 41.6208 2.70863 -2.03682 0
M  V30 430 C 40.7938 2.81792 -3.34532 0
M  V30 431 C 39.8528 4.005 -3.41301 0
M  V30 432 O 38.8788 3.9008 -4.14519 0
M  V30 433 N 40.0808 5.13618 -2.70512 0
M  V30 434 H 42.8458 1.06707 -2.8006 0
M  V30 435 H 40.4068 0.438129 -1.55859 0
M  V30 436 H 42.3988 3.48612 -2.05553 0
M  V30 437 H 40.9688 2.89862 -1.17041 0
M  V30 438 H 40.1888 1.90729 -3.44987 0
M  V30 439 H 41.4768 2.86043 -4.20781 0
M  V30 440 H 40.8748 5.24975 -2.10755 0
M  V30 441 H 39.4318 5.89505 -2.78077 0
M  V30 442 N 42.8649 1.48995 0.513639 0
M  V30 443 C 43.7749 1.67443 1.64317 0
M  V30 444 C 44.7909 0.556947 1.64846 0
M  V30 445 O 45.9669 0.830082 1.83498 0
M  V30 446 C 43.0319 1.72515 3.00732 0
M  V30 447 C 42.0929 2.96009 3.1093 0
M  V30 448 C 41.3259 3.00829 4.40837 0
M  V30 449 O 41.5489 2.13594 5.28898 0
M  V30 450 O 40.4829 3.93168 4.55744 0
M  V30 451 H 44.3089 2.63106 1.51687 0
M  V30 452 H 41.8939 1.32588 0.688543 0
M  V30 453 H 43.7759 1.78277 3.81831 0
M  V30 454 H 42.4509 0.800278 3.13651 0
M  V30 455 H 41.3579 2.9577 2.29065 0
M  V30 456 H 42.6909 3.87934 3.02933 0
M  V30 457 N 44.343 -0.763751 1.37857 0
M  V30 458 C 45.573 -1.55067 1.3652 0
M  V30 459 C 45.981 -1.89135 -0.0494227 0
M  V30 460 O 45.324 -1.52529 -1.02375 0
M  V30 461 C 45.386 -2.8838 2.14656 0
M  V30 462 C 45.05 -2.76905 3.63555 0
M  V30 463 C 46.047 -2.4739 4.57268 0
M  V30 464 C 43.732 -2.94676 4.06781 0
M  V30 465 C 45.726 -2.35786 5.92186 0
M  V30 466 C 43.413 -2.82692 5.41782 0
M  V30 467 C 44.411 -2.53289 6.34298 0
M  V30 468 O 44.099 -2.41345 7.66817 0
M  V30 469 H 43.831 -0.486776 0.469069 0
M  V30 470 H 46.385 -0.953812 1.81911 0
M  V30 471 H 44.615 -3.50217 1.63967 0
M  V30 472 H 46.304 -3.49828 2.05852 0
M  V30 473 H 47.07 -2.33339 4.2518 0
M  V30 474 H 42.949 -3.16563 3.35126 0
M  V30 475 H 46.493 -2.12757 6.64365 0
M  V30 476 H 42.39 -2.96314 5.7347 0
M  V30 477 H 43.158 -2.56634 7.77226 0
M  V30 478 N 45.8211 -1.22559 -0.990812 0
M  V30 479 C 47.0701 -1.04553 -1.72486 0
M  V30 480 C 47.3831 0.419349 -1.91052 0
M  V30 481 O 48.5891 0.719121 -2.61803 0
M  V30 482 C 47.0451 -1.82231 -3.10355 0
M  V30 483 C 46.6531 -3.32981 -2.99713 0
M  V30 484 C 48.3971 -1.7268 -3.87791 0
M  V30 485 C 46.3041 -4.03091 -4.32748 0
M  V30 486 H 45.2341 -0.387614 -0.646739 0
M  V30 487 H 47.8851 -1.46429 -1.10593 0
M  V30 488 H 46.2671 -1.33155 -3.72942 0
M  V30 489 H 47.4411 -3.89466 -2.46278 0
M  V30 490 H 45.7561 -3.43231 -2.35758 0
M  V30 491 H 48.3531 -2.22381 -4.86262 0
M  V30 492 H 48.6961 -0.687607 -4.10582 0
M  V30 493 H 49.2291 -2.1931 -3.31885 0
M  V30 494 H 45.9681 -5.07273 -4.15156 0
M  V30 495 H 45.4881 -3.51394 -4.86089 0
M  V30 496 H 47.1671 -4.08804 -5.01486 0
M  V30 497 N 47.2992 1.18797 -1.03562 0
M  V30 498 C 48.2472 2.24297 -0.615905 0
M  V30 499 C 49.2412 1.65643 0.354808 0
M  V30 500 O 50.4472 1.78618 0.22265 0
M  V30 501 H 46.8222 0.729909 -0.180934 0
M  V30 502 H 48.7932 2.5701 -1.5162 0
M  V30 503 C 47.5422 3.47698 0.0104735 0
M  V30 504 H 46.8652 3.93125 -0.727509 0
M  V30 505 H 48.3052 4.23159 0.266995 0
M  V30 506 C 46.7642 3.12489 1.25905 0
M  V30 507 O 47.2942 3.25761 2.35038 0
M  V30 508 N 45.5002 2.6686 1.15039 0
M  V30 509 H 45.0472 2.56261 0.262328 0
M  V30 510 H 45.0052 2.43674 1.98672 0
M  V30 511 N 48.7773 0.814389 1.34928 0
M  V30 512 C 49.7093 0.187834 2.28429 0
M  V30 513 C 50.7223 -0.617374 1.5064 0
M  V30 514 O 51.9113 -0.448454 1.72775 0
M  V30 515 C 49.0113 -0.755962 3.30361 0
M  V30 516 C 48.1843 0.00456686 4.374 0
M  V30 517 C 47.2433 -0.858876 5.19143 0
M  V30 518 O 46.2693 -0.306968 5.68372 0
M  V30 519 N 47.4713 -2.17988 5.38016 0
M  V30 520 H 50.2363 0.991105 2.82838 0
M  V30 521 H 47.7973 0.670561 1.4736 0
M  V30 522 H 49.7893 -1.338 3.81942 0
M  V30 523 H 48.3593 -1.46001 2.7641 0
M  V30 524 H 47.5793 0.767865 3.86649 0
M  V30 525 H 48.8673 0.528422 5.06049 0
M  V30 526 H 48.2653 -2.65212 4.99679 0
M  V30 527 H 46.8223 -2.71098 5.92747 0
M  V30 528 N 50.2554 -1.46986 0.568584 0
M  V30 529 C 51.2184 -2.28624 -0.162366 0
M  V30 530 C 52.2184 -1.37596 -0.832103 0
M  V30 531 O 53.4084 -1.60115 -0.68622 0
M  V30 532 C 50.5404 -3.17596 -1.23878 0
M  V30 533 H 51.7334 -2.94722 0.554899 0
M  V30 534 H 49.2864 -1.52863 0.325976 0
M  V30 535 H 50.0214 -2.56214 -1.98808 0
M  V30 536 H 49.8064 -3.846 -0.763219 0
M  V30 537 H 51.2964 -3.79078 -1.75185 0
M  V30 538 N 51.7335 -0.305618 -1.54608 0
M  V30 539 C 52.9825 0.303098 -1.9941 0
M  V30 540 C 53.2955 1.54648 -1.19764 0
M  V30 541 O 54.5015 2.23007 -1.54855 0
M  V30 542 C 52.9575 0.590588 -3.55021 0
M  V30 543 C 52.5655 -0.634719 -4.43481 0
M  V30 544 C 54.3095 1.16025 -4.08336 0
M  V30 545 C 52.2165 -0.320126 -5.90533 0
M  V30 546 H 51.1465 0.117031 -0.744862 0
M  V30 547 H 53.7975 -0.415045 -1.78745 0
M  V30 548 H 52.1795 1.36845 -3.71604 0
M  V30 549 H 53.3535 -1.41079 -4.38672 0
M  V30 550 H 51.6685 -1.12333 -4.00962 0
M  V30 551 H 54.2655 1.40994 -5.15776 0
M  V30 552 H 54.6085 2.10397 -3.5922 0
M  V30 553 H 55.1415 0.443985 -3.95315 0
M  V30 554 H 51.8805 -1.23254 -6.43808 0
M  V30 555 H 51.4005 0.418579 -5.98338 0
M  V30 556 H 53.0795 0.0766241 -6.46955 0
M  V30 557 N 53.2116 1.57565 -0.0334293 0
M  V30 558 C 54.1436 2.0739 0.975811 0
M  V30 559 C 55.1566 0.998166 1.2861 0
M  V30 560 O 56.3456 1.27426 1.25 0
M  V30 561 C 53.4456 2.4871 2.30209 0
M  V30 562 C 52.6186 3.79413 2.17634 0
M  V30 563 C 51.6776 4.07237 3.33233 0
M  V30 564 O 50.7036 4.77425 3.09927 0
M  V30 565 N 51.9056 3.5775 4.5716 0
M  V30 566 H 54.6706 2.94598 0.55066 0
M  V30 567 H 52.2316 1.61173 0.15323 0
M  V30 568 H 54.2236 2.64413 3.06378 0
M  V30 569 H 52.7936 1.66845 2.64351 0
M  V30 570 H 52.0136 3.73465 1.26165 0
M  V30 571 H 53.3016 4.65038 2.0644 0
M  V30 572 H 52.6996 3.00976 4.78989 0
M  V30 573 H 51.2566 3.78724 5.30482 0
M  V30 574 N 54.6897 -0.239769 1.55765 0
M  V30 575 C 55.6527 -1.28038 1.90103 0
M  V30 576 C 56.6527 -1.40723 0.778055 0
M  V30 577 O 57.8427 -1.39301 1.04599 0
M  V30 578 C 54.9747 -2.65702 2.13577 0
M  V30 579 H 56.1677 -0.988048 2.83157 0
M  V30 580 H 53.7207 -0.479382 1.48767 0
M  V30 581 H 54.4557 -3.00063 1.23015 0
M  V30 582 H 54.2407 -2.57875 2.95369 0
M  V30 583 H 55.7307 -3.40828 2.41301 0
M  V30 584 N 56.1678 -1.49265 -0.50573 0
M  V30 585 C 57.4158 -1.582 -1.25766 0
M  V30 586 C 57.7368 -0.268482 -1.93143 0
M  V30 587 O 57.0068 0.711833 -1.8251 0
M  V30 588 H 55.5868 -0.582873 -0.467191 0
M  V30 589 H 58.2488 -1.85865 -0.586525 0
M  V30 590 H 57.3448 -2.37563 -2.02412 0
M  V30 591 N 57.6459 0.756429 -1.3826 0
M  V30 592 C 58.5779 1.87971 -1.31147 0
M  V30 593 C 59.5909 1.61248 -0.224239 0
M  V30 594 O 60.7799 1.71881 -0.481581 0
M  V30 595 C 57.8799 3.23545 -1.00857 0
M  V30 596 C 57.0529 3.77794 -2.20432 0
M  V30 597 C 56.1119 4.91877 -1.86931 0
M  V30 598 O 55.1379 5.06659 -2.59395 0
M  V30 599 N 56.3399 5.74643 -0.822568 0
M  V30 600 H 59.1049 1.94585 -2.2794 0
M  V30 601 H 56.6659 0.936234 -1.32084 0
M  V30 602 H 58.6579 3.97403 -0.765021 0
M  V30 603 H 57.2279 3.12335 -0.128687 0
M  V30 604 H 56.4479 2.95534 -2.6087 0
M  V30 605 H 57.7359 4.10771 -3.00241 0
M  V30 606 H 57.1339 5.65266 -0.221575 0
M  V30 607 H 55.6909 6.48661 -0.638899 0
M  V30 608 N 59.124 1.23083 0.984299 0
M  V30 609 C 60.087 1.00979 2.05757 0
M  V30 610 C 61.087 -0.0269573 1.60777 0
M  V30 611 O 62.277 0.212403 1.729 0
M  V30 612 C 59.409 0.527072 3.36801 0
M  V30 613 H 60.602 1.9622 2.26799 0
M  V30 614 H 58.155 1.05072 1.15714 0
M  V30 615 H 58.89 -0.429294 3.21446 0
M  V30 616 H 58.675 1.27515 3.70786 0
M  V30 617 H 60.165 0.392942 4.15747 0
M  V30 618 N 60.6021 -1.18246 1.0419 0
M  V30 619 C 62.0131 -1.69914 0.773698 0
M  V30 620 C 62.3641 -1.83085 -0.705297 0
M  V30 621 O 61.4891 -1.51123 -1.5489 0
M  V30 622 C 62.0841 -3.08619 1.39784 0
M  V30 623 C 60.6431 -3.57494 1.17792 0
M  V30 624 C 59.7901 -2.34013 1.48773 0
M  V30 625 H 62.7411 -1.02904 1.20816 0
M  V30 626 H 62.7621 -3.71958 0.801714 0
M  V30 627 H 62.2741 -2.99001 2.47426 0
M  V30 628 H 60.3751 -3.72406 0.120295 0
M  V30 629 H 60.4881 -4.40852 1.87581 0
M  V30 630 H 58.8521 -2.37986 0.907463 0
M  V30 631 H 59.6351 -2.27013 2.57527 0
M  V30 632 N 62.0802 -0.821533 -1.34494 0
M  V30 633 C 63.3272 -0.408946 -1.98328 0
M  V30 634 C 63.6552 1.02764 -1.65136 0
M  V30 635 O 62.9102 1.73026 -0.914349 0
M  V30 636 C 63.2092 -0.556512 -3.53041 0
M  V30 637 C 62.8752 -1.95861 -4.0614 0
M  V30 638 C 61.5372 -2.34217 -4.20352 0
M  V30 639 C 63.8892 -2.87523 -4.34718 0
M  V30 640 C 61.2172 -3.63572 -4.6047 0
M  V30 641 C 63.5692 -4.1634 -4.76281 0
M  V30 642 C 62.2332 -4.54675 -4.88699 0
M  V30 643 H 61.5032 -0.149644 -0.725732 0
M  V30 644 H 64.1502 -1.04521 -1.6046 0
M  V30 645 H 62.4552 0.163148 -3.9146 0
M  V30 646 H 64.1522 -0.217826 -4.00408 0
M  V30 647 H 60.7422 -1.65066 -3.95539 0
M  V30 648 H 64.9262 -2.59133 -4.23277 0
M  V30 649 H 60.1822 -3.93101 -4.68275 0
M  V30 650 H 64.3562 -4.87455 -4.97354 0
M  V30 651 H 61.9832 -5.54959 -5.19542 0
M  V30 652 N 63.5583 1.46682 -0.576371 0
M  V30 653 C 64.4883 2.33028 0.148397 0
M  V30 654 C 65.4693 1.44961 0.889956 0
M  V30 655 O 66.6543 1.73789 0.866662 0
M  V30 656 C 63.7843 3.27117 1.1667 0
M  V30 657 C 62.7383 4.24575 0.540386 0
M  V30 658 C 62.0643 5.08126 1.6647 0
M  V30 659 C 63.3643 5.19722 -0.518331 0
M  V30 660 H 65.0583 2.93875 -0.572509 0
M  V30 661 H 62.6043 1.41315 -0.276768 0
M  V30 662 H 64.5573 3.86374 1.68204 0
M  V30 663 H 63.2813 2.64364 1.9178 0
M  V30 664 H 61.9403 3.66571 0.0461769 0
M  V30 665 H 61.5883 4.41762 2.40531 0
M  V30 666 H 61.2883 5.74122 1.25131 0
M  V30 667 H 62.8123 5.70246 2.18293 0
M  V30 668 H 64.2263 5.73232 -0.0883058 0
M  V30 669 H 62.6233 5.94026 -0.851679 0
M  V30 670 H 63.6933 4.64037 -1.40703 0
M  V30 671 N 65.0364 0.313813 1.54444 0
M  V30 672 C 65.9994 -0.54379 2.22656 0
M  V30 673 C 66.9994 -1.05124 1.21678 0
M  V30 674 O 68.1894 -0.945225 1.46325 0
M  V30 675 C 65.3214 -1.75427 2.92298 0
M  V30 676 H 66.5144 0.0523599 2.99854 0
M  V30 677 H 64.0674 0.0647834 1.56166 0
M  V30 678 H 64.8024 -2.38991 2.19211 0
M  V30 679 H 64.5874 -1.39791 3.66334 0
M  V30 680 H 66.0774 -2.36325 3.44297 0
M  V30 681 N 66.5145 -1.57545 0.0417849 0
M  V30 682 C 67.4245 -2.14451 -0.951213 0
M  V30 683 C 68.4405 -1.09992 -1.34825 0
M  V30 684 O 69.6165 -1.42114 -1.42708 0
M  V30 685 C 66.6815 -2.67063 -2.21084 0
M  V30 686 C 65.7425 -3.86284 -1.87304 0
M  V30 687 C 64.9755 -4.36378 -3.07261 0
M  V30 688 O 65.1985 -3.85587 -4.20332 0
M  V30 689 O 64.1325 -5.28077 -2.88822 0
M  V30 690 H 67.9585 -2.99601 -0.497287 0
M  V30 691 H 65.5435 -1.48317 -0.179567 0
M  V30 692 H 67.4255 -3.00914 -2.95006 0
M  V30 693 H 66.1005 -1.84989 -2.65633 0
M  V30 694 H 65.0075 -3.57338 -1.10727 0
M  V30 695 H 66.3405 -4.6956 -1.47562 0
M  V30 696 N 67.9926 0.231505 -1.5589 0
M  V30 697 C 68.9226 1.29022 -1.94617 0
M  V30 698 C 69.9036 1.4941 -0.813067 0
M  V30 699 O 71.0886 1.6176 -1.07459 0
M  V30 700 C 68.2186 2.64199 -2.25424 0
M  V30 701 C 67.1726 2.58484 -3.41131 0
M  V30 702 C 66.4986 3.97599 -3.57518 0
M  V30 703 C 67.7986 2.1413 -4.76388 0
M  V30 704 H 69.4926 0.968563 -2.83301 0
M  V30 705 H 67.0386 0.464479 -1.36303 0
M  V30 706 H 68.9916 3.38413 -2.51107 0
M  V30 707 H 67.7156 2.98032 -1.33583 0
M  V30 708 H 66.3746 1.86727 -3.15481 0
M  V30 709 H 66.0226 4.28723 -2.6307 0
M  V30 710 H 65.7226 3.94659 -4.35337 0
M  V30 711 H 67.2466 4.7349 -3.85538 0
M  V30 712 H 68.6606 2.78083 -5.01341 0
M  V30 713 H 67.0576 2.2227 -5.57419 0
M  V30 714 H 68.1276 1.09331 -4.72414 0
M  V30 715 N 69.4707 1.49531 0.497807 0
M  V30 716 C 70.6987 1.62893 1.27567 0
M  V30 717 C 71.1137 0.301585 1.86376 0
M  V30 718 O 70.4707 -0.713335 1.67982 0
M  V30 719 C 70.5217 2.70013 2.40364 0
M  V30 720 O 70.2427 3.976 1.83972 0
M  V30 721 C 71.7437 2.94109 3.31685 0
M  V30 722 H 68.9637 0.548298 0.386794 0
M  V30 723 H 71.5077 1.95584 0.597245 0
M  V30 724 H 69.6627 2.40092 3.04031 0
M  V30 725 H 70.0767 4.56631 2.58047 0
M  V30 726 H 71.5507 3.72788 4.07104 0
M  V30 727 H 72.0277 2.04147 3.88871 0
M  V30 728 H 72.6337 3.2546 2.73781 0
M  V30 729 N 70.9488 -0.749086 1.3866 0
M  V30 730 C 72.1968 -1.50535 1.34847 0
M  V30 731 C 72.5178 -1.94909 -0.0595016 0
M  V30 732 O 71.7878 -1.67973 -1.00806 0
M  V30 733 H 70.3678 -0.558395 0.49619 0
M  V30 734 H 73.0298 -0.890165 1.73384 0
M  V30 735 H 72.1258 -2.39413 2.00219 0
M  V30 736 N 72.4269 -1.23603 -0.977757 0
M  V30 737 C 73.6739 -1.06971 -1.71941 0
M  V30 738 C 74.0019 0.393009 -1.90488 0
M  V30 739 O 73.2569 1.30719 -1.4564 0
M  V30 740 C 73.5559 -1.7433 -3.11999 0
M  V30 741 C 73.2219 -3.24252 -3.13323 0
M  V30 742 C 71.8839 -3.65156 -3.13392 0
M  V30 743 C 74.2359 -4.20141 -3.08433 0
M  V30 744 C 71.5639 -5.00403 -3.0629 0
M  V30 745 C 73.9159 -5.55384 -3.02873 0
M  V30 746 C 72.5799 -5.95647 -3.01265 0
M  V30 747 H 71.8499 -0.391433 -0.629175 0
M  V30 748 H 74.4969 -1.53572 -1.14403 0
M  V30 749 H 72.8019 -1.20096 -3.7294 0
M  V30 750 H 74.4989 -1.58936 -3.68158 0
M  V30 751 H 71.0889 -2.91692 -3.14029 0
M  V30 752 H 75.2729 -3.89547 -3.07517 0
M  V30 753 H 70.5289 -5.3081 -3.03399 0
M  V30 754 H 74.7029 -6.29398 -2.98046 0
M  V30 755 H 72.3299 -7.0041 -2.95516 0
M  V30 756 N 73.905 1.17692 -1.04816 0
M  V30 757 C 75.153 1.87488 -0.754497 0
M  V30 758 C 75.474 1.81205 0.720407 0
M  V30 759 O 74.744 1.23544 1.52032 0
M  V30 760 H 73.324 0.694101 -0.276102 0
M  V30 761 H 75.986 1.42793 -1.32651 0
M  V30 762 H 75.082 2.93328 -1.06606 0
M  V30 763 N 75.3831 0.828654 1.34056 0
M  V30 764 C 76.6111 0.43262 2.02326 0
M  V30 765 C 77.0261 -0.963147 1.62385 0
M  V30 766 O 76.3831 -1.62425 0.832121 0
M  V30 767 C 76.4341 0.53182 3.57567 0
M  V30 768 O 76.1551 1.87258 3.96063 0
M  V30 769 C 77.6561 0.131422 4.43105 0
M  V30 770 H 74.8761 0.172923 0.648335 0
M  V30 771 H 77.4201 1.1184 1.71208 0
M  V30 772 H 75.5751 -0.105938 3.87255 0
M  V30 773 H 75.9891 1.85087 4.90758 0
M  V30 774 H 77.4631 0.251904 5.51425 0
M  V30 775 H 77.9401 -0.925645 4.29335 0
M  V30 776 H 78.5461 0.743207 4.18756 0
M  V30 777 N 76.8612 -1.46375 0.584142 0
M  V30 778 C 78.1072 -2.02678 0.0703716 0
M  V30 779 C 78.4402 -1.4545 -1.28678 0
M  V30 780 O 77.7152 -0.62014 -1.84349 0
M  V30 781 C 77.9982 -3.60099 0.00614674 0
M  V30 782 C 77.8512 -4.27709 1.3923 0
M  V30 783 C 79.1702 -4.34598 -0.693742 0
M  V30 784 H 76.2892 -0.736504 0.027047 0
M  V30 785 H 78.9312 -1.74501 0.751615 0
M  V30 786 H 77.0812 -3.84236 -0.574009 0
M  V30 787 H 78.7532 -4.14832 2.01773 0
M  V30 788 H 76.9962 -3.87016 1.95962 0
M  V30 789 H 77.6672 -5.36478 1.29982 0
M  V30 790 H 80.1432 -4.15615 -0.200869 0
M  V30 791 H 79.0192 -5.44318 -0.707714 0
M  V30 792 H 79.2802 -4.05759 -1.75533 0
M  V30 793 N 78.3393 -0.321999 -1.54275 0
M  V30 794 C 79.2693 0.537411 -2.27231 0
M  V30 795 C 80.2503 1.12064 -1.27968 0
M  V30 796 O 81.4353 1.14606 -1.56777 0
M  V30 797 C 78.5653 1.69919 -3.02894 0
M  V30 798 C 77.5193 1.24534 -4.09482 0
M  V30 799 C 76.8453 2.49394 -4.72977 0
M  V30 800 C 78.1453 0.361335 -5.21049 0
M  V30 801 H 79.8393 -0.0711406 -2.99315 0
M  V30 802 H 77.3853 -0.0356555 -1.43956 0
M  V30 803 H 79.3383 2.30668 -3.52662 0
M  V30 804 H 78.0623 2.33431 -2.28424 0
M  V30 805 H 76.7213 0.660782 -3.60596 0
M  V30 806 H 76.3693 3.11265 -3.95124 0
M  V30 807 H 76.0693 2.19718 -5.44975 0
M  V30 808 H 77.5933 3.10908 -5.25517 0
M  V30 809 H 79.0073 0.875072 -5.66582 0
M  V30 810 H 77.4043 0.157428 -5.99893 0
M  V30 811 H 78.4743 -0.60822 -4.8107 0
M  V30 812 N 79.8174 1.5752 -0.0501392 0
M  V30 813 C 81.0454 1.96963 0.633492 0
M  V30 814 C 81.4604 0.927631 1.6444 0
M  V30 815 O 80.8174 -0.0882665 1.82286 0
M  V30 816 C 80.8684 3.36487 1.32132 0
M  V30 817 O 80.5894 4.36693 0.350894 0
M  V30 818 C 82.0904 3.90682 2.09481 0
M  V30 819 H 79.3104 0.648244 0.173266 0
M  V30 820 H 81.8544 2.0417 -0.116134 0
M  V30 821 H 80.0094 3.30434 2.02218 0
M  V30 822 H 80.4234 5.17702 0.841735 0
M  V30 823 H 81.8974 4.90591 2.5303 0
M  V30 824 H 82.3744 3.26053 2.94255 0
M  V30 825 H 82.9804 4.00069 1.44307 0
M  V30 826 N 81.2955 -0.223234 1.56011 0
M  V30 827 C 82.5435 -0.946003 1.78592 0
M  V30 828 C 82.8645 -1.84936 0.618349 0
M  V30 829 O 82.1345 -1.92473 -0.364833 0
M  V30 830 H 80.7145 -0.352298 0.658707 0
M  V30 831 H 83.3765 -0.235494 1.93472 0
M  V30 832 H 82.4725 -1.55381 2.70672 0
M  V30 833 N 82.7736 -1.49793 -0.48987 0
M  V30 834 C 84.0506 -1.50348 -1.25119 0
M  V30 835 C 84.4306 -0.237466 -2.0976 0
M  V30 836 O 83.7786 0.77981 -2.14782 0
M  V30 837 C 83.9886 -2.78872 -2.09837 0
M  V30 838 C 85.3366 -3.288 -2.68655 0
M  V30 839 O 86.3606 -2.80065 -2.20096 0
M  V30 840 O 85.2196 -4.13707 -3.57083 0
M  V30 841 H 82.3136 -0.602242 -0.566775 0
M  V30 842 H 84.8596 -1.62067 -0.503229 0
M  V30 843 H 83.6316 -3.62499 -1.47343 0
M  V30 844 H 83.2546 -2.70066 -2.91805 0
M  V30 845 N 84.2517 0.741722 -1.39055 0
M  V30 846 C 85.4917 1.51385 -1.37338 0
M  V30 847 C 85.8557 1.91972 0.0330513 0
M  V30 848 O 87.0567 2.68229 0.175174 0
M  V30 849 C 85.3277 2.72481 -2.31276 0
M  V30 850 S 86.8867 3.62211 -2.47687 0
M  V30 851 H 83.7047 0.517906 -0.487129 0
M  V30 852 H 86.3067 0.86969 -1.7509 0
M  V30 853 H 85.0107 2.40793 -3.32336 0
M  V30 854 H 84.5417 3.41832 -1.94716 0
M  V30 855 H 86.5567 4.65812 -1.70978 0
M  V30 856 N 85.7298 1.2412 0.971189 0
M  V30 857 C 86.9758 1.08041 1.71625 0
M  V30 858 C 87.3088 -0.380407 1.90438 0
M  V30 859 O 86.5838 -1.28127 1.46334 0
M  V30 860 C 86.8668 1.81682 3.10908 0
M  V30 861 C 86.7198 3.35493 2.99608 0
M  V30 862 C 88.0388 1.58671 4.10501 0
M  V30 863 H 85.1578 0.39388 0.622919 0
M  V30 864 H 87.7998 1.52743 1.13003 0
M  V30 865 H 85.9498 1.43684 3.60953 0
M  V30 866 H 87.6218 3.83068 2.57015 0
M  V30 867 H 85.8648 3.64052 2.35899 0
M  V30 868 H 86.5358 3.82217 3.98264 0
M  V30 869 H 89.0118 1.91719 3.69301 0
M  V30 870 H 87.8878 2.1266 5.06031 0
M  V30 871 H 88.1488 0.524161 4.38982 0
M  V30 872 N 87.2079 -1.17134 1.05439 0
M  V30 873 C 88.4539 -1.87733 0.767077 0
M  V30 874 C 88.7869 -1.8098 -0.704253 0
M  V30 875 O 88.0619 -1.21951 -1.5152 0
M  V30 876 C 88.3449 -3.37659 1.25133 0
M  V30 877 C 88.1979 -3.53149 2.78578 0
M  V30 878 C 89.5169 -4.31768 0.852324 0
M  V30 879 H 86.6359 -0.681687 0.280129 0
M  V30 880 H 89.2779 -1.37732 1.30881 0
M  V30 881 H 87.4279 -3.80373 0.790469 0
M  V30 882 H 89.0999 -3.19434 3.32806 0
M  V30 883 H 87.3429 -2.95345 3.17732 0
M  V30 884 H 88.0139 -4.58403 3.07523 0
M  V30 885 H 90.4899 -3.96909 1.24911 0
M  V30 886 H 89.3659 -5.35199 1.21873 0
M  V30 887 H 89.6269 -4.41429 -0.243485 0
M  V30 888 N 88.686 -0.835752 -1.33615 0
M  V30 889 C 90.097 -0.487099 -1.80234 0
M  V30 890 C 90.448 0.993627 -1.69179 0
M  V30 891 O 89.573 1.77403 -1.23924 0
M  V30 892 C 90.168 -0.877385 -3.27242 0
M  V30 893 C 88.727 -0.580915 -3.7189 0
M  V30 894 C 87.874 -1.0874 -2.5509 0
M  V30 895 H 90.825 -1.02474 -1.2118 0
M  V30 896 H 90.846 -0.186195 -3.80044 0
M  V30 897 H 90.358 -1.95512 -3.35256 0
M  V30 898 H 88.459 0.486881 -3.69405 0
M  V30 899 H 88.572 -1.13396 -4.65487 0
M  V30 900 H 86.936 -0.508392 -2.49575 0
M  V30 901 H 87.719 -2.17184 -2.65868 0
M  V30 902 N 90.1641 1.46063 -0.591896 0
M  V30 903 C 91.3891 2.07226 -0.0850314 0
M  V30 904 C 91.8141 1.43625 1.21463 0
M  V30 905 O 91.1721 0.523305 1.73583 0
M  V30 906 C 91.2201 3.60554 0.0576567 0
M  V30 907 O 90.3241 3.97128 1.11188 0
M  V30 908 H 89.6651 0.660615 -0.0669568 0
M  V30 909 H 92.1951 1.8756 -0.81745 0
M  V30 910 H 92.2051 4.07165 0.2609 0
M  V30 911 H 90.8801 4.06235 -0.891416 0
M  V30 912 H 89.4571 3.62213 0.886356 0
M  V30 913 N 91.6422 0.330177 1.54103 0
M  V30 914 C 92.8892 -0.270405 2.00686 0
M  V30 915 C 93.2172 -1.51621 1.21825 0
M  V30 916 O 92.4722 -1.93536 0.29025 0
M  V30 917 C 92.7712 -0.643134 3.51566 0
M  V30 918 C 92.4372 0.504251 4.48072 0
M  V30 919 C 91.0992 0.819163 4.74176 0
M  V30 920 C 93.4512 1.27465 5.05373 0
M  V30 921 C 90.7792 1.90708 5.5484 0
M  V30 922 C 93.1312 2.35271 5.87223 0
M  V30 923 C 91.7952 2.67336 6.11627 0
M  V30 924 H 91.0652 -0.0989482 0.734364 0
M  V30 925 H 93.7122 0.455324 1.86008 0
M  V30 926 H 92.0172 -1.44938 3.64006 0
M  V30 927 H 93.7142 -1.11949 3.85056 0
M  V30 928 H 90.3042 0.248733 4.27878 0
M  V30 929 H 94.4882 1.04462 4.85182 0
M  V30 930 H 89.7442 2.15991 5.71977 0
M  V30 931 H 93.9182 2.95405 6.30641 0
M  V30 932 H 91.5452 3.51763 6.73919 0
M  V30 933 N 93.1203 -1.57491 0.0584922 0
M  V30 934 C 94.3483 -1.97296 -0.623037 0
M  V30 935 C 94.7633 -0.936338 -1.63946 0
M  V30 936 O 94.1203 0.0785981 -1.82331 0
M  V30 937 C 94.1713 -3.37183 -1.30345 0
M  V30 938 O 93.8923 -4.36872 -0.32773 0
M  V30 939 C 95.3933 -3.91788 -2.07406 0
M  V30 940 H 92.6133 -0.649153 -0.169826 0
M  V30 941 H 95.1573 -2.04106 0.12696 0
M  V30 942 H 93.3123 -3.31502 -2.00463 0
M  V30 943 H 93.7263 -5.18141 -0.814269 0
M  V30 944 H 95.2003 -4.91926 -2.50425 0
M  V30 945 H 95.6773 -3.27609 -2.92521 0
M  V30 946 H 96.2833 -4.00829 -1.42184 0
M  V30 947 N 94.5984 0.214957 -1.56127 0
M  V30 948 C 95.5464 1.28601 -1.93816 0
M  V30 949 C 96.5404 1.48175 -0.821016 0
M  V30 950 O 97.7464 1.49271 -1.0059 0
M  V30 951 H 94.1214 0.431302 -0.616022 0
M  V30 952 H 96.0924 0.940991 -2.83175 0
M  V30 953 C 94.8414 2.62779 -2.27689 0
M  V30 954 H 94.1644 2.48527 -3.13168 0
M  V30 955 H 95.6044 3.36517 -2.57939 0
M  V30 956 C 94.0634 3.18285 -1.10436 0
M  V30 957 O 94.5934 4.00002 -0.368945 0
M  V30 958 N 92.7994 2.7675 -0.886433 0
M  V30 959 H 92.3464 2.10404 -1.48619 0
M  V30 960 H 92.3044 3.14229 -0.103656 0
M  V30 961 N 96.0765 1.50051 0.48192 0
M  V30 962 C 97.4875 1.5348 1.06305 0
M  V30 963 C 97.8385 0.331997 1.93371 0
M  V30 964 O 96.9635 -0.556256 2.09129 0
M  V30 965 C 97.5585 2.7813 1.93466 0
M  V30 966 C 96.1175 2.84275 2.46707 0
M  V30 967 C 95.2645 2.47637 1.24785 0
M  V30 968 H 98.2155 1.56472 0.264995 0
M  V30 969 H 98.2365 2.59372 2.78399 0
M  V30 970 H 97.7485 3.65654 1.30072 0
M  V30 971 H 95.8495 2.01077 3.13686 0
M  V30 972 H 95.9625 3.8691 2.82555 0
M  V30 973 H 94.3265 1.99835 1.57918 0
M  V30 974 H 95.1095 3.37457 0.630694 0
M  V30 975 N 97.5546 -0.734337 1.39446 0
M  V30 976 C 98.5026 -1.86971 1.38364 0
M  V30 977 C 99.4966 -1.67288 0.266687 0
M  V30 978 O 100.703 -1.74621 0.436755 0
M  V30 979 H 97.0776 -0.615474 0.432082 0
M  V30 980 H 99.0486 -1.85 2.34132 0
M  V30 981 C 97.7976 -3.2466 1.24465 0
M  V30 982 H 97.1206 -3.40402 2.09682 0
M  V30 983 H 98.5606 -4.04292 1.27764 0
M  V30 984 C 97.0196 -3.36867 -0.0468674 0
M  V30 985 O 97.5496 -3.88618 -1.01681 0
M  V30 986 N 95.7556 -2.90391 -0.110145 0
M  V30 987 H 95.3026 -2.48466 0.679868 0
M  V30 988 H 95.2606 -2.98939 -0.973799 0
M  V30 989 N 99.0327 -1.24633 -0.964593 0
M  V30 990 C 99.9807 -1.03917 -2.08096 0
M  V30 991 C 100.975 0.0268581 -1.69379 0
M  V30 992 O 102.181 -0.127952 -1.79545 0
M  V30 993 H 98.5557 -0.319044 -0.680966 0
M  V30 994 H 100.527 -1.98581 -2.22729 0
M  V30 995 C 99.2757 -0.663983 -3.41301 0
M  V30 996 H 98.5987 -1.47605 -3.71555 0
M  V30 997 H 100.039 -0.558663 -4.20303 0
M  V30 998 C 98.4977 0.629169 -3.30973 0
M  V30 999 O 99.0277 1.67404 -3.65156 0
M  V30 1000 N 97.2337 0.611057 -2.84103 0
M  V30 1001 H 96.7807 -0.239593 -2.56483 0
M  V30 1002 H 96.7387 1.47647 -2.77575 0
M  V30 1003 N 100.511 1.16574 -1.06058 0
M  V30 1004 C 101.441 2.23057 -0.690488 0
M  V30 1005 C 102.422 1.67141 0.315901 0
M  V30 1006 O 103.607 1.93253 0.191556 0
M  V30 1007 C 100.737 3.47222 -0.073625 0
M  V30 1008 C 99.6908 4.16016 -1.00573 0
M  V30 1009 C 99.0168 5.34104 -0.252289 0
M  V30 1010 C 100.317 4.67264 -2.33371 0
M  V30 1011 H 102.011 2.54271 -1.58072 0
M  V30 1012 H 99.5568 1.22218 -0.76149 0
M  V30 1013 H 101.51 4.20939 0.19714 0
M  V30 1014 H 100.234 3.15302 0.85161 0
M  V30 1015 H 98.8928 3.44223 -1.2612 0
M  V30 1016 H 98.5408 4.98437 0.675988 0
M  V30 1017 H 98.2408 5.81072 -0.873455 0
M  V30 1018 H 99.7648 6.10599 0.0109857 0
M  V30 1019 H 101.179 5.32573 -2.12223 0
M  V30 1020 H 99.5758 5.24843 -2.90963 0
M  V30 1021 H 100.646 3.83602 -2.96611 0
M  V30 1022 N 101.989 0.842826 1.3317 0
M  V30 1023 C 103.214 0.453129 2.02389 0
M  V30 1024 C 103.639 -0.939105 1.6298 0
M  V30 1025 O 102.997 -1.61472 0.8244 0
M  V30 1026 C 103.045 0.586094 3.55805 0
M  V30 1027 O 102.149 -0.386029 4.10589 0
M  V30 1028 H 101.49 0.183664 0.638094 0
M  V30 1029 H 104.02 1.13875 1.69981 0
M  V30 1030 H 104.03 0.469209 4.05293 0
M  V30 1031 H 102.705 1.6014 3.83833 0
M  V30 1032 H 101.282 -0.226371 3.72212 0
M  V30 1033 N 103.467 -1.45747 0.599634 0
M  V30 1034 C 104.716 -2.01502 0.0893511 0
M  V30 1035 C 105.029 -1.4748 -1.28488 0
M  V30 1036 O 106.235 -1.95161 -1.88745 0
M  V30 1037 C 104.691 -3.59735 0.109082 0
M  V30 1038 C 104.299 -4.22754 1.48267 0
M  V30 1039 C 106.043 -4.23085 -0.346374 0
M  V30 1040 C 103.95 -5.73115 1.45921 0
M  V30 1041 H 102.88 -0.753417 0.0296347 0
M  V30 1042 H 105.531 -1.67303 0.753788 0
M  V30 1043 H 103.913 -3.91087 -0.621854 0
M  V30 1044 H 105.087 -4.02987 2.23468 0
M  V30 1045 H 103.402 -3.71567 1.87955 0
M  V30 1046 H 105.999 -5.33327 -0.38298 0
M  V30 1047 H 106.342 -3.93201 -1.36743 0
M  V30 1048 H 106.875 -3.9642 0.331038 0
M  V30 1049 H 103.614 -6.07685 2.45762 0
M  V30 1050 H 103.134 -5.95097 0.749665 0
M  V30 1051 H 104.813 -6.3616 1.17941 0
M  V30 1052 N 104.945 -0.338344 -1.53925 0
M  V30 1053 C 106.191 0.260143 -2.01125 0
M  V30 1054 C 106.524 1.50617 -1.22589 0
M  V30 1055 O 105.799 1.91979 -0.312113 0
M  V30 1056 C 106.082 0.579499 -3.55407 0
M  V30 1057 C 105.935 -0.678264 -4.44657 0
M  V30 1058 C 107.254 1.39122 -4.17532 0
M  V30 1059 H 104.373 0.0930772 -0.731099 0
M  V30 1060 H 107.015 -0.457852 -1.84401 0
M  V30 1061 H 105.165 1.19118 -3.69788 0
M  V30 1062 H 106.837 -1.31631 -4.42121 0
M  V30 1063 H 105.08 -1.3042 -4.13731 0
M  V30 1064 H 105.751 -0.410143 -5.50474 0
M  V30 1065 H 108.227 0.874035 -4.06817 0
M  V30 1066 H 107.103 1.58342 -5.25565 0
M  V30 1067 H 107.364 2.39178 -3.71815 0
M  V30 1068 N 106.423 1.57458 -0.0668435 0
M  V30 1069 C 107.651 1.97624 0.612565 0
M  V30 1070 C 108.066 0.94502 1.63447 0
M  V30 1071 O 107.423 -0.0689276 1.8237 0
M  V30 1072 C 107.474 3.37869 1.28555 0
M  V30 1073 O 107.195 4.3704 0.304557 0
M  V30 1074 C 108.696 3.92882 2.05325 0
M  V30 1075 H 105.916 0.650045 0.166381 0
M  V30 1076 H 108.46 2.04035 -0.137782 0
M  V30 1077 H 106.615 3.3256 1.98702 0
M  V30 1078 H 107.029 5.18565 0.786779 0
M  V30 1079 H 108.503 4.93247 2.47812 0
M  V30 1080 H 108.98 3.29156 2.9078 0
M  V30 1081 H 109.586 4.01577 1.40056 0
M  V30 1082 N 107.901 -0.206675 1.56239 0
M  V30 1083 C 109.149 -0.927007 1.79586 0
M  V30 1084 C 109.47 -1.8427 0.637929 0
M  V30 1085 O 108.74 -1.92849 -0.344398 0
M  V30 1086 H 107.32 -0.345292 0.662407 0
M  V30 1087 H 109.982 -0.21496 1.93711 0
M  V30 1088 H 109.078 -1.52501 2.72305 0
M  V30 1089 N 109.379 -1.50304 -0.473955 0
M  V30 1090 C 110.342 -1.6841 -1.55469 0
M  V30 1091 C 111.342 -0.554905 -1.50922 0
M  V30 1092 O 112.532 -0.821882 -1.53593 0
M  V30 1093 C 109.664 -1.70667 -2.95102 0
M  V30 1094 H 110.857 -2.64828 -1.40733 0
M  V30 1095 H 108.41 -1.39742 -0.700132 0
M  V30 1096 H 109.145 -0.75932 -3.15285 0
M  V30 1097 H 108.93 -2.52698 -2.9981 0
M  V30 1098 H 110.42 -1.8664 -3.73571 0
M  V30 1099 N 110.857 0.726932 -1.39834 0
M  V30 1100 C 112.268 1.30558 -1.3346 0
M  V30 1101 C 112.619 1.962 -0.00273003 0
M  V30 1102 O 111.744 1.96826 0.899371 0
M  V30 1103 C 112.339 2.37404 -2.41713 0
M  V30 1104 C 110.898 2.90921 -2.38835 0
M  V30 1105 C 110.045 1.64578 -2.2318 0
M  V30 1106 H 112.996 0.523862 -1.49804 0
M  V30 1107 H 113.017 3.17984 -2.08966 0
M  V30 1108 H 112.529 1.89599 -3.38635 0
M  V30 1109 H 110.63 3.42985 -1.45575 0
M  V30 1110 H 110.743 3.43487 -3.33997 0
M  V30 1111 H 109.107 1.89219 -1.70494 0
M  V30 1112 H 109.89 1.18814 -3.22084 0
M  V30 1113 N 112.336 1.25143 0.95797 0
M  V30 1114 C 113.747 1.08851 1.51685 0
M  V30 1115 C 114.098 -0.33687 1.93286 0
M  V30 1116 O 113.223 -1.22644 1.7829 0
M  V30 1117 C 113.818 1.96978 2.75654 0
M  V30 1118 C 112.377 1.84881 3.27866 0
M  V30 1119 C 111.524 1.91329 2.0072 0
M  V30 1120 H 114.475 1.38478 0.77522 0
M  V30 1121 H 114.496 1.5078 3.4935 0
M  V30 1122 H 114.008 3.00712 2.45345 0
M  V30 1123 H 112.109 0.840182 3.63004 0
M  V30 1124 H 112.222 2.6951 3.96107 0
M  V30 1125 H 110.586 1.35174 2.15871 0
M  V30 1126 H 111.369 2.96661 1.72764 0
M  V30 1127 N 113.814 -1.1601 1.06675 0
M  V30 1128 C 115.039 -1.91068 0.806706 0
M  V30 1129 C 115.464 -1.77112 -0.633485 0
M  V30 1130 O 114.822 -1.09908 -1.44187 0
M  V30 1131 C 114.87 -3.39655 1.21106 0
M  V30 1132 O 113.974 -4.10893 0.352189 0
M  V30 1133 H 113.315 -0.595125 0.294486 0
M  V30 1134 H 115.845 -1.46955 1.42356 0
M  V30 1135 H 115.855 -3.90434 1.18428 0
M  V30 1136 H 114.53 -3.49132 2.26008 0
M  V30 1137 H 113.107 -3.70285 0.440868 0
M  V30 1138 N 115.292 -0.849877 -1.32721 0
M  V30 1139 C 116.538 -0.451591 -1.97708 0
M  V30 1140 C 116.871 0.989175 -1.6712 0
M  V30 1141 O 116.146 1.69334 -0.956891 0
M  V30 1142 C 116.429 -0.685598 -3.53513 0
M  V30 1143 C 116.282 -2.17444 -3.93749 0
M  V30 1144 C 117.601 -0.138874 -4.39881 0
M  V30 1145 H 114.72 -0.16555 -0.718166 0
M  V30 1146 H 117.362 -1.06742 -1.57182 0
M  V30 1147 H 115.512 -0.161416 -3.88165 0
M  V30 1148 H 117.184 -2.76433 -3.693 0
M  V30 1149 H 115.427 -2.65476 -3.43081 0
M  V30 1150 H 116.098 -2.28888 -5.02309 0
M  V30 1151 H 118.574 -0.587068 -4.11938 0
M  V30 1152 H 117.45 -0.332213 -5.47894 0
M  V30 1153 H 117.711 0.95806 -4.31594 0
M  V30 1154 N 116.77 1.45427 -0.607355 0
M  V30 1155 C 117.72 2.27612 0.133038 0
M  V30 1156 C 118.704 1.37307 0.838785 0
M  V30 1157 O 119.896 1.61299 0.728813 0
M  V30 1158 C 117.025 3.24173 1.12991 0
M  V30 1159 C 116.111 4.21965 0.425011 0
M  V30 1160 N 116.502 5.02982 -0.533217 0
M  V30 1161 C 114.8 4.40899 0.672593 0
M  V30 1162 C 115.501 5.73931 -0.947518 0
M  V30 1163 N 114.477 5.42819 -0.291321 0
M  V30 1164 H 118.279 2.87649 -0.602935 0
M  V30 1165 H 115.793 1.56576 -0.431006 0
M  V30 1166 H 117.79 3.81783 1.67473 0
M  V30 1167 H 116.45 2.65696 1.86644 0
M  V30 1168 H 117.461 5.09843 -0.90995 0
M  V30 1169 H 114.138 3.93547 1.39382 0
M  V30 1170 H 115.528 6.49037 -1.73782 0
M  V30 1171 N 118.248 0.346503 1.53744 0
M  V30 1172 C 119.496 -0.248612 2.00565 0
M  V30 1173 C 119.817 -1.5083 1.23593 0
M  V30 1174 O 119.087 -1.92858 0.343912 0
M  V30 1175 H 117.667 -0.0948564 0.740953 0
M  V30 1176 H 120.329 0.468341 1.89189 0
M  V30 1177 H 119.425 -0.488994 3.08245 0
M  V30 1178 N 119.726 -1.57421 0.075193 0
M  V30 1179 C 120.975 -1.92794 -0.592731 0
M  V30 1180 C 121.288 -0.957478 -1.70563 0
M  V30 1181 O 122.494 -1.20417 -2.43335 0
M  V30 1182 C 120.95 -3.42495 -1.10569 0
M  V30 1183 C 120.558 -4.47994 -0.0236121 0
M  V30 1184 C 122.302 -3.86864 -1.74748 0
M  V30 1185 C 120.209 -5.88829 -0.550803 0
M  V30 1186 H 119.139 -0.719591 -0.225177 0
M  V30 1187 H 121.79 -1.82902 0.147978 0
M  V30 1188 H 120.172 -3.47471 -1.89947 0
M  V30 1189 H 121.346 -4.54637 0.751099 0
M  V30 1190 H 119.661 -4.13113 0.522159 0
M  V30 1191 H 122.258 -4.8947 -2.15229 0
M  V30 1192 H 122.601 -3.24417 -2.60882 0
M  V30 1193 H 123.134 -3.84504 -1.01986 0
M  V30 1194 H 119.873 -6.54929 0.273457 0
M  V30 1195 H 119.393 -5.85698 -1.29296 0
M  V30 1196 H 121.072 -6.38811 -1.02613 0
M  V30 1197 N 121.204 0.198386 -1.56346 0
M  V30 1198 C 122.444 0.92609 -1.82217 0
M  V30 1199 C 122.808 1.80584 -0.652195 0
M  V30 1200 O 124.009 2.56907 -0.790716 0
M  V30 1201 C 122.28 1.72354 -3.13096 0
M  V30 1202 S 123.839 2.50371 -3.6036 0
M  V30 1203 H 120.657 0.310677 -0.639532 0
M  V30 1204 H 123.259 0.189755 -1.94577 0
M  V30 1205 H 121.963 1.0678 -3.96265 0
M  V30 1206 H 121.494 2.50175 -3.03605 0
M  V30 1207 H 123.509 3.74488 -3.25535 0
M  V30 1208 N 122.682 1.50554 0.465978 0
M  V30 1209 C 123.93 1.61479 1.21528 0
M  V30 1210 C 124.251 0.319596 1.92363 0
M  V30 1211 O 123.521 -0.663194 1.84333 0
M  V30 1212 H 122.101 0.595055 0.451573 0
M  V30 1213 H 124.763 1.87355 0.53704 0
M  V30 1214 H 123.859 2.42846 1.96042 0
M  V30 1215 N 124.16 -0.719506 1.40217 0
M  V30 1216 C 125.108 -1.85493 1.40339 0
M  V30 1217 C 126.102 -1.66995 0.284415 0
M  V30 1218 O 127.308 -1.74148 0.455252 0
M  V30 1219 H 123.683 -0.610857 0.438586 0
M  V30 1220 H 125.654 -1.82506 2.36081 0
M  V30 1221 C 124.403 -3.23321 1.27901 0
M  V30 1222 H 123.726 -3.38159 2.1328 0
M  V30 1223 H 125.166 -4.02914 1.32045 0
M  V30 1224 C 123.625 -3.36898 -0.0111355 0
M  V30 1225 O 124.155 -3.89674 -0.975538 0
M  V30 1226 N 122.361 -2.90492 -0.0793393 0
M  V30 1227 H 121.908 -2.47731 0.706183 0
M  V30 1228 H 121.866 -2.99955 -0.942038 0
M  V30 1229 N 125.638 -1.25649 -0.95132 0
M  V30 1230 C 126.885 -1.10594 -1.69633 0
M  V30 1231 C 127.213 0.352515 -1.91279 0
M  V30 1232 O 126.468 1.27601 -1.4838 0
M  V30 1233 C 126.767 -1.80909 -3.08231 0
M  V30 1234 C 126.433 -3.30825 -3.06375 0
M  V30 1235 C 125.095 -3.71722 -3.05576 0
M  V30 1236 C 127.447 -4.26589 -2.99452 0
M  V30 1237 C 124.775 -5.06788 -2.95606 0
M  V30 1238 C 127.127 -5.61683 -2.91024 0
M  V30 1239 C 125.791 -6.01904 -2.88562 0
M  V30 1240 H 125.061 -0.404691 -0.620731 0
M  V30 1241 H 127.708 -1.55964 -1.11119 0
M  V30 1242 H 126.013 -1.27979 -3.70309 0
M  V30 1243 H 127.71 -1.6671 -3.64704 0
M  V30 1244 H 124.3 -2.98287 -3.07771 0
M  V30 1245 H 128.484 -3.95982 -2.99185 0
M  V30 1246 H 123.74 -5.37126 -2.92071 0
M  V30 1247 H 127.914 -6.35578 -2.84629 0
M  V30 1248 H 125.541 -7.06521 -2.80593 0
M  V30 1249 N 127.117 1.15442 -1.07289 0
M  V30 1250 C 128.364 1.86213 -0.795668 0
M  V30 1251 C 128.692 1.82291 0.678238 0
M  V30 1252 O 127.947 1.24057 1.51355 0
M  V30 1253 C 128.246 3.3489 -1.24834 0
M  V30 1254 C 127.912 3.59007 -2.72809 0
M  V30 1255 C 126.574 3.65298 -3.13227 0
M  V30 1256 C 128.926 3.68762 -3.68326 0
M  V30 1257 C 126.254 3.78854 -4.4798 0
M  V30 1258 C 128.606 3.83842 -5.0284 0
M  V30 1259 C 127.27 3.88378 -5.4288 0
M  V30 1260 H 126.54 0.681403 -0.291155 0
M  V30 1261 H 129.187 1.36435 -1.34379 0
M  V30 1262 H 127.492 3.8687 -0.619595 0
M  V30 1263 H 129.189 3.88052 -1.01076 0
M  V30 1264 H 125.779 3.5475 -2.40521 0
M  V30 1265 H 129.963 3.63202 -3.38227 0
M  V30 1266 H 125.219 3.80623 -4.78472 0
M  V30 1267 H 129.393 3.90332 -5.76727 0
M  V30 1268 H 127.02 3.98635 -6.47298 0
M  V30 1269 N 128.595 0.856903 1.32268 0
M  V30 1270 C 129.842 0.461386 1.97174 0
M  V30 1271 C 130.17 -0.983491 1.67803 0
M  V30 1272 O 129.425 -1.70541 0.959903 0
M  V30 1273 C 129.724 0.649919 3.51441 0
M  V30 1274 C 129.39 2.0656 4.00804 0
M  V30 1275 C 128.052 2.45279 4.13995 0
M  V30 1276 C 130.404 2.98947 4.26943 0
M  V30 1277 C 127.732 3.75653 4.50668 0
M  V30 1278 C 130.084 4.28822 4.65075 0
M  V30 1279 C 128.748 4.67472 4.76472 0
M  V30 1280 H 128.018 0.168833 0.72151 0
M  V30 1281 H 130.665 1.08739 1.57633 0
M  V30 1282 H 128.97 -0.0593018 3.91755 0
M  V30 1283 H 130.667 0.32391 3.9969 0
M  V30 1284 H 127.257 1.75495 3.91024 0
M  V30 1285 H 131.441 2.70265 4.16258 0
M  V30 1286 H 126.697 4.05379 4.57688 0
M  V30 1287 H 130.871 5.0047 4.84255 0
M  V30 1288 H 128.498 5.68539 5.04646 0
M  V30 1289 N 130.073 -1.45103 0.615059 0
M  V30 1290 C 131.35 -1.95549 0.0448276 0
M  V30 1291 C 131.73 -1.55737 -1.4251 0
M  V30 1292 O 131.078 -0.823556 -2.13143 0
M  V30 1293 C 131.288 -3.48098 0.250785 0
M  V30 1294 C 132.636 -4.24384 0.135509 0
M  V30 1295 O 133.66 -3.55738 0.181299 0
M  V30 1296 O 132.519 -5.46493 0.0268878 0
M  V30 1297 H 129.613 -0.8264 -0.0314845 0
M  V30 1298 H 132.159 -1.55232 0.685642 0
M  V30 1299 H 130.931 -3.7007 1.27139 0
M  V30 1300 H 130.554 -3.95323 -0.424937 0
M  V30 1301 N 131.551 -0.354651 -1.53558 0
M  V30 1302 C 132.483 0.5315 -2.22952 0
M  V30 1303 C 133.496 1.05503 -1.23988 0
M  V30 1304 O 134.685 0.963279 -1.50277 0
M  V30 1305 C 131.785 1.74538 -2.90499 0
M  V30 1306 C 130.958 1.35524 -4.15875 0
M  V30 1307 C 130.017 2.42999 -4.66731 0
M  V30 1308 O 129.043 2.05844 -5.30676 0
M  V30 1309 N 130.245 3.74423 -4.43608 0
M  V30 1310 H 133.01 -0.0628615 -2.99634 0
M  V30 1311 H 130.571 -0.179302 -1.60904 0
M  V30 1312 H 132.563 2.45892 -3.21433 0
M  V30 1313 H 131.133 2.24686 -2.17336 0
M  V30 1314 H 130.353 0.471998 -3.91364 0
M  V30 1315 H 131.641 1.07071 -4.97406 0
M  V30 1316 H 131.039 4.07391 -3.92491 0
M  V30 1317 H 129.596 4.41913 -4.7912 0
M  V30 1318 N 133.029 1.57378 -0.0835403 0
M  V30 1319 C 133.939 2.16897 0.894021 0
M  V30 1320 C 134.955 1.13528 1.31861 0
M  V30 1321 O 136.131 1.45848 1.3889 0
M  V30 1322 C 133.196 2.72831 2.13925 0
M  V30 1323 C 132.257 3.91115 1.76997 0
M  V30 1324 C 131.49 4.44371 2.95584 0
M  V30 1325 O 131.713 3.96596 4.09961 0
M  V30 1326 O 130.647 5.35549 2.74719 0
M  V30 1327 H 134.473 3.00814 0.417679 0
M  V30 1328 H 132.058 1.48741 0.140181 0
M  V30 1329 H 133.94 3.0863 2.86924 0
M  V30 1330 H 132.615 1.91967 2.60635 0
M  V30 1331 H 131.522 3.60148 1.01214 0
M  V30 1332 H 132.855 4.73307 1.3506 0
M  V30 1333 N 134.507 -0.190092 1.56449 0
M  V30 1334 C 135.735 -0.925772 1.85033 0
M  V30 1335 C 136.15 -1.76638 0.666658 0
M  V30 1336 O 135.507 -1.78822 -0.364565 0
M  V30 1337 C 135.558 -1.81786 3.12468 0
M  V30 1338 O 135.279 -1.01118 4.26271 0
M  V30 1339 C 136.78 -2.6648 3.54265 0
M  V30 1340 H 134 -0.269872 0.614337 0
M  V30 1341 H 136.544 -0.195837 2.0356 0
M  V30 1342 H 134.699 -2.50136 2.95822 0
M  V30 1343 H 135.113 -1.61956 4.98869 0
M  V30 1344 H 136.587 -3.24722 4.46385 0
M  V30 1345 H 137.064 -3.40434 2.77491 0
M  V30 1346 H 137.67 -2.03493 3.73458 0
M  V30 1347 N 135.985 -1.50799 -0.457987 0
M  V30 1348 C 136.917 -1.66786 -1.57211 0
M  V30 1349 C 137.93 -0.548962 -1.53265 0
M  V30 1350 O 139.119 -0.8226 -1.58416 0
M  V30 1351 C 136.219 -1.64834 -2.96113 0
M  V30 1352 C 135.392 -2.92971 -3.24787 0
M  V30 1353 C 134.451 -2.83485 -4.43309 0
M  V30 1354 O 133.477 -3.5744 -4.42973 0
M  V30 1355 N 134.679 -1.97929 -5.45714 0
M  V30 1356 H 137.444 -2.62889 -1.43909 0
M  V30 1357 H 135.005 -1.48427 -0.646617 0
M  V30 1358 H 136.997 -1.56084 -3.7339 0
M  V30 1359 H 135.567 -0.764118 -3.03117 0
M  V30 1360 H 134.787 -3.15749 -2.36 0
M  V30 1361 H 136.075 -3.77834 -3.40762 0
M  V30 1362 H 135.473 -1.37182 -5.48815 0
M  V30 1363 H 134.03 -1.95073 -6.21924 0
M  V30 1364 N 137.463 0.71206 -1.40597 0
M  V30 1365 C 138.373 1.8562 -1.43466 0
M  V30 1366 C 139.389 1.70902 -0.326902 0
M  V30 1367 O 140.565 1.93105 -0.572043 0
M  V30 1368 C 137.63 3.21451 -1.29884 0
M  V30 1369 C 136.691 3.48398 -2.50833 0
M  V30 1370 C 135.924 4.77749 -2.3789 0
M  V30 1371 O 136.147 5.53089 -1.39459 0
M  V30 1372 O 135.081 5.05111 -3.27333 0
M  V30 1373 H 138.907 1.86155 -2.39958 0
M  V30 1374 H 136.492 0.86295 -1.21957 0
M  V30 1375 H 138.374 4.02579 -1.24531 0
M  V30 1376 H 137.049 3.21636 -0.364997 0
M  V30 1377 H 135.956 2.67265 -2.61763 0
M  V30 1378 H 137.289 3.53014 -3.4299 0
M  V30 1379 N 138.941 1.26152 0.944643 0
M  V30 1380 C 139.851 1.09176 2.07648 0
M  V30 1381 C 140.867 0.0261935 1.7398 0
M  V30 1382 O 142.043 0.229208 2.00091 0
M  V30 1383 C 139.108 0.722915 3.39079 0
M  V30 1384 C 138.169 1.86752 3.86552 0
M  V30 1385 C 137.402 1.51617 5.11711 0
M  V30 1386 O 137.625 0.416331 5.68879 0
M  V30 1387 O 136.559 2.34975 5.54139 0
M  V30 1388 H 140.385 2.0412 2.24875 0
M  V30 1389 H 137.97 1.05182 1.061 0
M  V30 1390 H 139.852 0.529787 4.18056 0
M  V30 1391 H 138.527 -0.197159 3.23099 0
M  V30 1392 H 137.434 2.11558 3.08535 0
M  V30 1393 H 138.767 2.76719 4.07047 0
M  V30 1394 N 140.419 -1.14872 1.07899 0
M  V30 1395 C 141.665 -1.86064 0.806725 0
M  V30 1396 C 141.998 -1.82434 -0.665706 0
M  V30 1397 O 141.273 -1.25138 -1.48899 0
M  V30 1398 C 141.556 -3.34929 1.32267 0
M  V30 1399 C 141.409 -3.47161 2.86006 0
M  V30 1400 C 142.728 -4.29863 0.943717 0
M  V30 1401 H 139.847 -0.675591 0.294526 0
M  V30 1402 H 142.489 -1.34925 1.33773 0
M  V30 1403 H 140.639 -3.78611 0.870974 0
M  V30 1404 H 142.311 -3.12302 3.39507 0
M  V30 1405 H 140.554 -2.88539 3.23925 0
M  V30 1406 H 141.225 -4.51777 3.17177 0
M  V30 1407 H 143.701 -3.9417 1.33302 0
M  V30 1408 H 142.577 -5.32494 1.33198 0
M  V30 1409 H 142.838 -4.41846 -0.149796 0
M  V30 1410 N 141.898 -0.863906 -1.31812 0
M  V30 1411 C 142.828 -0.330843 -2.31144 0
M  V30 1412 C 143.809 0.575005 -1.60087 0
M  V30 1413 O 144.994 0.493304 -1.8783 0
M  V30 1414 C 142.124 0.47374 -3.44054 0
M  V30 1415 C 141.078 -0.338481 -4.26659 0
M  V30 1416 C 140.404 0.591412 -5.31419 0
M  V30 1417 C 141.704 -1.56926 -4.98168 0
M  V30 1418 H 143.398 -1.16086 -2.75979 0
M  V30 1419 H 140.944 -0.559657 -1.32679 0
M  V30 1420 H 142.897 0.857143 -4.12591 0
M  V30 1421 H 141.621 1.33721 -2.9797 0
M  V30 1422 H 140.28 -0.703754 -3.59782 0
M  V30 1423 H 139.928 1.45199 -4.81587 0
M  V30 1424 H 139.628 0.0519022 -5.87577 0
M  V30 1425 H 141.152 0.97179 -6.02817 0
M  V30 1426 H 142.566 -1.25764 -5.59336 0
M  V30 1427 H 140.963 -2.04739 -5.64094 0
M  V30 1428 H 142.033 -2.32544 -4.25501 0
M  V30 1429 N 143.376 1.44774 -0.622745 0
M  V30 1430 C 144.309 2.27792 0.136329 0
M  V30 1431 C 145.287 1.38041 0.859264 0
M  V30 1432 O 146.471 1.67478 0.86506 0
M  V30 1433 C 143.598 3.16776 1.19878 0
M  V30 1434 C 142.644 4.22575 0.57731 0
M  V30 1435 S 143.477 5.31825 -0.626294 0
M  V30 1436 C 144.633 6.24377 0.436378 0
M  V30 1437 H 144.866 2.91824 -0.567967 0
M  V30 1438 H 142.399 1.48838 -0.410677 0
M  V30 1439 H 144.357 3.68596 1.80686 0
M  V30 1440 H 143.018 2.5198 1.87523 0
M  V30 1441 H 142.211 4.84818 1.37721 0
M  V30 1442 H 141.813 3.73974 0.0440439 0
M  V30 1443 H 144.105 6.64689 1.31128 0
M  V30 1444 H 145.048 7.07941 -0.150271 0
M  V30 1445 H 145.456 5.59381 0.758513 0
M  V30 1446 N 144.854 0.36279 1.53368 0
M  V30 1447 C 145.802 -0.500155 2.27159 0
M  V30 1448 C 146.796 -1.08575 1.3003 0
M  V30 1449 O 148.002 -1.02927 1.47668 0
M  V30 1450 H 144.377 -0.180009 0.730138 0
M  V30 1451 H 146.348 0.14401 2.98052 0
M  V30 1452 C 145.097 -1.62937 3.07159 0
M  V30 1453 H 144.42 -1.18806 3.8174 0
M  V30 1454 H 145.86 -2.20795 3.61975 0
M  V30 1455 C 144.319 -2.57007 2.17829 0
M  V30 1456 O 144.849 -3.59752 1.78721 0
M  V30 1457 N 143.055 -2.26131 1.82518 0
M  V30 1458 H 142.602 -1.42616 2.14519 0
M  V30 1459 H 142.56 -2.89327 1.23034 0
M  V30 1460 N 146.332 -1.57332 0.0918853 0
M  V30 1461 C 147.609 -1.85691 -0.614668 0
M  V30 1462 C 147.989 -0.988146 -1.86545 0
M  V30 1463 O 147.337 -0.0597055 -2.28422 0
M  V30 1464 C 147.547 -3.36294 -0.933126 0
M  V30 1465 C 148.895 -4.04275 -1.29796 0
M  V30 1466 O 149.919 -3.41157 -1.02424 0
M  V30 1467 O 148.778 -5.1564 -1.81047 0
M  V30 1468 H 145.872 -0.767802 -0.307261 0
M  V30 1469 H 148.418 -1.69244 0.12434 0
M  V30 1470 H 147.19 -3.91273 -0.0456404 0
M  V30 1471 H 146.813 -3.58076 -1.72822 0
M  V30 1472 N 147.81 0.181792 -1.56548 0
M  V30 1473 C 148.773 1.20894 -1.94724 0
M  V30 1474 C 149.773 1.37738 -0.829747 0
M  V30 1475 O 150.963 1.35323 -1.09697 0
M  V30 1476 C 148.095 2.57593 -2.23291 0
M  V30 1477 H 149.288 0.882275 -2.86629 0
M  V30 1478 H 146.841 0.423838 -1.50444 0
M  V30 1479 H 147.576 2.95291 -1.34067 0
M  V30 1480 H 147.361 2.46735 -3.04736 0
M  V30 1481 H 148.851 3.31637 -2.53785 0
M  V30 1482 N 149.288 1.51039 0.449983 0
M  V30 1483 C 150.235 1.71439 1.54523 0
M  V30 1484 C 151.205 0.555871 1.56522 0
M  V30 1485 O 152.39 0.788871 1.73728 0
M  V30 1486 C 149.53 1.83384 2.92343 0
M  V30 1487 C 148.643 3.10873 2.9997 0
M  V30 1488 C 147.778 3.13488 4.28834 0
M  V30 1489 C 146.817 4.35343 4.30282 0
M  V30 1490 N 145.954 4.35579 5.5065 0
M  V30 1491 H 150.794 2.64934 1.36433 0
M  V30 1492 H 148.331 1.31312 0.662982 0
M  V30 1493 H 150.289 1.88291 3.72293 0
M  V30 1494 H 148.919 0.933086 3.0902 0
M  V30 1495 H 147.971 3.15336 2.12761 0
M  V30 1496 H 149.283 4.00814 2.96901 0
M  V30 1497 H 148.437 3.17241 5.17149 0
M  V30 1498 H 147.176 2.21414 4.34543 0
M  V30 1499 H 146.181 4.3178 3.40362 0
M  V30 1500 H 147.406 5.28668 4.26248 0
M  V30 1501 H 145.352 3.46369 5.57104 0
M  V30 1502 H 145.269 5.19313 5.49409 0
M  V30 1503 H 146.537 4.43507 6.41032 0
M  V30 1504 N 150.766 -0.704594 1.40972 0
M  V30 1505 C 151.996 -1.49138 1.42974 0
M  V30 1506 C 152.404 -1.89175 0.0308406 0
M  V30 1507 O 151.747 -1.56734 -0.958138 0
M  V30 1508 C 151.809 -2.79016 2.26694 0
M  V30 1509 C 151.473 -2.61236 3.74973 0
M  V30 1510 C 152.47 -2.27773 4.67349 0
M  V30 1511 C 150.155 -2.77158 4.18914 0
M  V30 1512 C 152.149 -2.10457 6.01653 0
M  V30 1513 C 149.836 -2.59459 5.53285 0
M  V30 1514 C 150.834 -2.26158 6.4447 0
M  V30 1515 O 150.522 -2.08605 7.76363 0
M  V30 1516 H 150.254 -0.466443 0.489292 0
M  V30 1517 H 152.808 -0.8758 1.85793 0
M  V30 1518 H 151.038 -3.42947 1.78673 0
M  V30 1519 H 152.727 -3.40782 2.20504 0
M  V30 1520 H 153.493 -2.15095 4.34694 0
M  V30 1521 H 149.372 -3.02064 3.48251 0
M  V30 1522 H 152.916 -1.84387 6.72791 0
M  V30 1523 H 148.813 -2.71725 5.85522 0
M  V30 1524 H 149.581 -2.23439 7.87412 0
M  V30 1525 N 152.244 -1.26651 -0.937939 0
M  V30 1526 C 153.174 -1.10993 -2.05433 0
M  V30 1527 C 154.155 -0.0142161 -1.70094 0
M  V30 1528 O 155.34 -0.186837 -1.93299 0
M  V30 1529 C 152.47 -0.745561 -3.39203 0
M  V30 1530 C 151.424 -1.79337 -3.88616 0
M  V30 1531 C 150.75 -1.28324 -5.19073 0
M  V30 1532 C 152.05 -3.19553 -4.13138 0
M  V30 1533 H 153.744 -2.0438 -2.1879 0
M  V30 1534 H 151.29 -0.984041 -1.05131 0
M  V30 1535 H 153.243 -0.622888 -4.16771 0
M  V30 1536 H 151.967 0.22401 -3.25831 0
M  V30 1537 H 150.626 -1.90477 -3.13231 0
M  V30 1538 H 150.274 -0.303414 -5.02084 0
M  V30 1539 H 149.974 -1.98369 -5.53103 0
M  V30 1540 H 151.498 -1.1733 -5.99221 0
M  V30 1541 H 152.912 -3.11471 -4.81309 0
M  V30 1542 H 151.309 -3.87218 -4.58457 0
M  V30 1543 H 152.379 -3.65368 -3.18801 0
M  V30 1544 N 153.722 1.14298 -1.08507 0
M  V30 1545 C 155.138 1.37347 -0.812901 0
M  V30 1546 C 155.338 1.93052 0.577325 0
M  V30 1547 O 154.394 2.14389 1.33393 0
M  V30 1548 C 155.707 2.33359 -1.89642 0
M  V30 1549 C 157.255 2.46996 -1.92255 0
M  V30 1550 C 157.73 3.46309 -2.99724 0
M  V30 1551 N 159.221 3.53853 -2.98902 0
M  V30 1552 C 159.956 4.3055 -3.787 0
M  V30 1553 N 159.452 5.10482 -4.6838 0
M  V30 1554 N 161.245 4.25757 -3.66998 0
M  V30 1555 H 153.396 0.764867 -1.9815 0
M  V30 1556 H 155.659 0.398966 -0.859959 0
M  V30 1557 H 155.365 1.99565 -2.89597 0
M  V30 1558 H 155.239 3.33274 -1.76659 0
M  V30 1559 H 157.626 2.80081 -0.929445 0
M  V30 1560 H 157.707 1.47039 -2.09316 0
M  V30 1561 H 157.351 3.13957 -3.99241 0
M  V30 1562 H 157.281 4.46049 -2.79907 0
M  V30 1563 H 159.772 2.96812 -2.33904 0
M  V30 1564 H 160.085 5.66284 -5.25873 0
M  V30 1565 H 158.43 5.09747 -4.72422 0
M  V30 1566 H 161.621 3.62383 -2.96304 0
M  V30 1567 H 161.794 4.85279 -4.29427 0
M  V30 1568 N 155.201 0.870884 1.31352 0
M  V30 1569 C 156.164 0.332243 2.26779 0
M  V30 1570 C 157.164 -0.517302 1.52252 0
M  V30 1571 O 158.354 -0.326477 1.71113 0
M  V30 1572 C 155.486 -0.528066 3.36785 0
M  V30 1573 H 156.679 1.17469 2.75937 0
M  V30 1574 H 154.232 0.64655 1.423 0
M  V30 1575 H 154.967 -1.39167 2.92922 0
M  V30 1576 H 154.752 0.0802582 3.92018 0
M  V30 1577 H 156.242 -0.897179 4.07849 0
M  V30 1578 N 156.679 -1.44442 0.630414 0
M  V30 1579 C 158.09 -1.85434 0.217063 0
M  V30 1580 C 158.441 -1.52748 -1.23136 0
M  V30 1581 O 157.566 -0.965205 -1.93682 0
M  V30 1582 C 158.161 -3.36581 0.387168 0
M  V30 1583 C 156.72 -3.76389 0.0283297 0
M  V30 1584 C 155.867 -2.68296 0.700889 0
M  V30 1585 H 158.818 -1.34919 0.83562 0
M  V30 1586 H 158.839 -3.78657 -0.374086 0
M  V30 1587 H 158.351 -3.60339 1.44144 0
M  V30 1588 H 156.452 -3.58246 -1.02423 0
M  V30 1589 H 156.565 -4.77095 0.437892 0
M  V30 1590 H 154.929 -2.54335 0.136267 0
M  V30 1591 H 155.712 -2.94887 1.75774 0
M  V30 1592 N 158.157 -0.370918 -1.53173 0
M  V30 1593 C 159.385 0.217704 -2.05751 0
M  V30 1594 C 159.8 1.42018 -1.24404 0
M  V30 1595 O 159.157 1.80245 -0.286033 0
M  V30 1596 C 159.208 0.605954 -3.56385 0
M  V30 1597 O 158.929 -0.548734 -4.3465 0
M  V30 1598 C 160.43 1.2524 -4.25241 0
M  V30 1599 H 157.65 0.0371659 -0.66997 0
M  V30 1600 H 160.194 -0.530832 -1.9749 0
M  V30 1601 H 158.349 1.3044 -3.6478 0
M  V30 1602 H 158.763 -0.23376 -5.23979 0
M  V30 1603 H 160.237 1.47458 -5.3194 0
M  V30 1604 H 160.714 2.2143 -3.79296 0
M  V30 1605 H 161.32 0.595233 -4.21114 0
M  V30 1606 N 159.635 1.57281 -0.100228 0
M  V30 1607 C 160.884 1.93713 0.561984 0
M  V30 1608 C 161.197 0.984492 1.69018 0
M  V30 1609 O 162.403 1.24273 2.41389 0
M  V30 1610 C 160.859 3.4421 1.05106 0
M  V30 1611 C 160.467 4.47975 -0.0476628 0
M  V30 1612 C 162.211 3.89595 1.68571 0
M  V30 1613 C 160.118 5.89631 0.457055 0
M  V30 1614 H 159.048 0.723082 0.2137 0
M  V30 1615 H 161.699 1.82644 -0.177057 0
M  V30 1616 H 160.081 3.50449 1.84395 0
M  V30 1617 H 161.255 4.53385 -0.823333 0
M  V30 1618 H 159.57 4.1223 -0.587816 0
M  V30 1619 H 162.167 4.92832 2.07414 0
M  V30 1620 H 162.51 3.28526 2.55688 0
M  V30 1621 H 163.043 3.86078 0.958562 0
M  V30 1622 H 159.782 6.54411 -0.377616 0
M  V30 1623 H 159.302 5.87681 1.19962 0
M  V30 1624 H 160.981 6.40363 0.92437 0
M  V30 1625 N 161.113 -0.173488 1.56642 0
M  V30 1626 C 162.043 -1.2171 1.99271 0
M  V30 1627 C 163.024 -1.46289 0.867959 0
M  V30 1628 O 164.209 -1.5766 1.13388 0
M  V30 1629 C 161.339 -2.55651 2.35074 0
M  V30 1630 C 160.293 -2.45645 3.50489 0
M  V30 1631 C 159.619 -3.84056 3.72028 0
M  V30 1632 C 160.919 -1.96302 4.84007 0
M  V30 1633 H 162.613 -0.86275 2.867 0
M  V30 1634 H 160.159 -0.413571 1.37933 0
M  V30 1635 H 162.112 -3.2886 2.63494 0
M  V30 1636 H 160.836 -2.92869 1.44552 0
M  V30 1637 H 159.495 -1.7489 3.22194 0
M  V30 1638 H 159.143 -4.18664 2.788 0
M  V30 1639 H 158.843 -3.7823 4.49684 0
M  V30 1640 H 160.367 -4.58854 4.02846 0
M  V30 1641 H 161.781 -2.59284 5.11317 0
M  V30 1642 H 160.178 -2.01429 5.65284 0
M  V30 1643 H 161.248 -0.917226 4.76146 0
M  V30 1644 N 162.591 -1.51276 -0.441967 0
M  V30 1645 C 163.554 -1.7167 -1.51862 0
M  V30 1646 C 164.554 -0.586793 -1.49711 0
M  V30 1647 O 165.744 -0.854276 -1.51815 0
M  V30 1648 C 162.876 -1.76889 -2.91416 0
M  V30 1649 H 164.069 -2.67754 -1.35084 0
M  V30 1650 H 161.622 -1.41196 -0.670333 0
M  V30 1651 H 162.357 -0.826026 -3.13604 0
M  V30 1652 H 162.142 -2.59001 -2.94382 0
M  V30 1653 H 163.632 -1.94522 -3.69528 0
M  V30 1654 N 164.069 0.697108 -1.41344 0
M  V30 1655 C 164.979 1.84088 -1.45427 0
M  V30 1656 C 165.995 1.70545 -0.34501 0
M  V30 1657 O 167.171 1.92488 -0.592492 0
M  V30 1658 C 164.236 3.20056 -1.33286 0
M  V30 1659 C 163.297 3.45718 -2.54514 0
M  V30 1660 C 162.53 4.75199 -2.42944 0
M  V30 1661 O 162.753 5.51579 -1.45318 0
M  V30 1662 O 161.687 5.0161 -3.32672 0
M  V30 1663 H 165.513 1.836 -2.41919 0
M  V30 1664 H 163.098 0.849966 -1.22866 0
M  V30 1665 H 164.98 4.01236 -1.28794 0
M  V30 1666 H 163.655 3.2123 -0.39909 0
M  V30 1667 H 162.562 2.64474 -2.64583 0
M  V30 1668 H 163.895 3.49356 -3.46715 0
M  V30 1669 N 165.547 1.27147 0.931209 0
M  V30 1670 C 166.48 1.0389 2.0318 0
M  V30 1671 C 167.458 -0.0395716 1.62552 0
M  V30 1672 O 168.642 0.104867 1.88208 0
M  V30 1673 C 165.769 0.575227 3.3378 0
M  V30 1674 C 164.815 1.64774 3.93385 0
M  V30 1675 S 165.648 3.23933 4.26413 0
M  V30 1676 C 166.804 2.79358 5.60098 0
M  V30 1677 H 167.037 1.97075 2.22596 0
M  V30 1678 H 164.57 1.10938 1.07387 0
M  V30 1679 H 166.528 0.314385 4.09294 0
M  V30 1680 H 165.189 -0.336505 3.12292 0
M  V30 1681 H 164.382 1.27454 4.87618 0
M  V30 1682 H 163.984 1.86048 3.24441 0
M  V30 1683 H 166.276 2.24443 6.39243 0
M  V30 1684 H 167.219 3.72322 6.02314 0
M  V30 1685 H 167.627 2.1861 5.20452 0
M  V30 1686 N 167.025 -1.13721 1.09112 0
M  V30 1687 C 167.988 -2.17222 0.731241 0
M  V30 1688 C 168.988 -1.59035 -0.237566 0
M  V30 1689 O 170.178 -1.74192 -0.0161704 0
M  V30 1690 C 167.31 -3.40804 0.0808443 0
M  V30 1691 H 168.503 -2.50573 1.64783 0
M  V30 1692 H 166.056 -1.28493 0.889897 0
M  V30 1693 H 166.791 -3.1304 -0.847127 0
M  V30 1694 H 166.576 -3.84306 0.777896 0
M  V30 1695 H 168.066 -4.1731 -0.155657 0
M  V30 1696 N 168.503 -0.877838 -1.30888 0
M  V30 1697 C 169.45 -0.337538 -2.28318 0
M  V30 1698 C 170.42 0.568346 -1.56074 0
M  V30 1699 O 171.605 0.498298 -1.84178 0
M  V30 1700 C 168.745 0.448142 -3.42178 0
M  V30 1701 C 167.858 -0.48615 -4.29256 0
M  V30 1702 C 166.993 0.314427 -5.30269 0
M  V30 1703 C 166.032 -0.615791 -6.08995 0
M  V30 1704 N 165.169 0.14902 -7.01942 0
M  V30 1705 H 170.009 -1.17356 -2.73919 0
M  V30 1706 H 167.546 -0.590094 -1.34745 0
M  V30 1707 H 169.504 0.919517 -4.06941 0
M  V30 1708 H 168.134 1.24879 -2.97666 0
M  V30 1709 H 167.186 -1.076 -3.64865 0
M  V30 1710 H 168.498 -1.19909 -4.84173 0
M  V30 1711 H 167.652 0.847969 -6.00745 0
M  V30 1712 H 166.391 1.06062 -4.76027 0
M  V30 1713 H 165.396 -1.16102 -5.37401 0
M  V30 1714 H 166.621 -1.36097 -6.65323 0
M  V30 1715 H 164.567 0.877884 -6.50099 0
M  V30 1716 H 164.484 -0.504433 -7.54315 0
M  V30 1717 H 165.752 0.663537 -7.76671 0
M  V30 1718 N 169.982 1.44106 -0.638065 0
M  V30 1719 C 170.945 2.29138 0.0531013 0
M  V30 1720 C 171.945 1.41409 0.765506 0
M  V30 1721 O 173.135 1.63206 0.609046 0
M  V30 1722 C 170.267 3.23144 1.08584 0
M  V30 1723 H 171.46 2.91739 -0.694883 0
M  V30 1724 H 169.013 1.51134 -0.398538 0
M  V30 1725 H 169.748 2.65408 1.86357 0
M  V30 1726 H 169.533 3.87804 0.578852 0
M  V30 1727 H 171.023 3.87004 1.56899 0
M  V30 1728 N 171.46 0.379036 1.52974 0
M  V30 1729 C 172.708 -0.206014 2.01047 0
M  V30 1730 C 173.029 -1.48175 1.26765 0
M  V30 1731 O 172.299 -1.92085 0.384743 0
M  V30 1732 H 170.879 -0.0791184 0.742798 0
M  V30 1733 H 173.541 0.508366 1.88153 0
M  V30 1734 H 172.637 -0.423501 3.09213 0
M  V30 1735 N 172.938 -1.57226 0.108567 0
M  V30 1736 C 173.87 -2.11809 -0.875752 0
M  V30 1737 C 174.883 -1.05839 -1.23701 0
M  V30 1738 O 176.072 -1.33245 -1.18778 0
M  V30 1739 C 173.172 -2.59411 -2.18081 0
M  V30 1740 C 172.345 -3.89364 -1.99284 0
M  V30 1741 C 171.404 -4.22672 -3.13424 0
M  V30 1742 O 170.43 -4.91668 -2.86795 0
M  V30 1743 N 171.632 -3.79154 -4.3957 0
M  V30 1744 H 174.397 -2.9689 -0.409477 0
M  V30 1745 H 171.958 -1.61721 -0.076158 0
M  V30 1746 H 173.95 -2.7873 -2.93414 0
M  V30 1747 H 172.52 -1.79268 -2.5609 0
M  V30 1748 H 171.74 -3.79059 -1.08203 0
M  V30 1749 H 173.028 -4.74358 -1.84017 0
M  V30 1750 H 172.426 -3.23486 -4.64083 0
M  V30 1751 H 170.983 -4.03602 -5.11809 0
M  V30 1752 N 174.416 0.165178 -1.56732 0
M  V30 1753 C 175.346 1.20651 -1.99914 0
M  V30 1754 C 176.327 1.45827 -0.875705 0
M  V30 1755 O 177.512 1.57057 -1.14223 0
M  V30 1756 C 174.642 2.54401 -2.36427 0
M  V30 1757 C 173.596 2.43782 -3.51787 0
M  V30 1758 C 172.922 3.82078 -3.7406 0
M  V30 1759 C 174.222 1.93732 -4.85041 0
M  V30 1760 H 175.916 0.847534 -2.87154 0
M  V30 1761 H 173.462 0.40625 -1.38151 0
M  V30 1762 H 175.415 3.27458 -2.65234 0
M  V30 1763 H 174.139 2.92098 -1.46103 0
M  V30 1764 H 172.798 1.73178 -3.23117 0
M  V30 1765 H 172.446 4.17179 -2.81017 0
M  V30 1766 H 172.146 3.7584 -4.51684 0
M  V30 1767 H 173.67 4.56712 -4.05274 0
M  V30 1768 H 175.084 2.56569 -5.12684 0
M  V30 1769 H 173.481 1.98428 -5.66345 0
M  V30 1770 H 174.551 0.891962 -4.76626 0
M  V30 1771 N 175.894 1.51508 0.433938 0
M  V30 1772 C 177.14 1.64588 1.18484 0
M  V30 1773 C 177.473 0.362666 1.90784 0
M  V30 1774 O 176.748 -0.637892 1.83742 0
M  V30 1775 C 177.031 2.85149 2.19913 0
M  V30 1776 C 176.884 4.23456 1.51674 0
M  V30 1777 C 178.203 3.01227 3.20858 0
M  V30 1778 H 175.322 0.598994 0.429389 0
M  V30 1779 H 177.964 1.84002 0.473647 0
M  V30 1780 H 176.114 2.68729 2.80566 0
M  V30 1781 H 177.786 4.51552 0.943322 0
M  V30 1782 H 176.029 4.25998 0.819035 0
M  V30 1783 H 176.7 5.03812 2.2556 0
M  V30 1784 H 179.176 3.16382 2.70263 0
M  V30 1785 H 178.052 3.87141 3.89118 0
M  V30 1786 H 178.313 2.13447 3.8716 0
M  V30 1787 N 177.372 -0.689602 1.41712 0
M  V30 1788 C 178.335 -1.78521 1.43746 0
M  V30 1789 C 179.335 -1.57436 0.327191 0
M  V30 1790 O 180.525 -1.64 0.587348 0
M  V30 1791 C 177.657 -3.16971 1.25467 0
M  V30 1792 H 178.85 -1.78108 2.41283 0
M  V30 1793 H 176.403 -0.89781 1.27942 0
M  V30 1794 H 177.138 -3.23019 0.287948 0
M  V30 1795 H 176.923 -3.33678 2.05917 0
M  V30 1796 H 178.413 -3.96935 1.2974 0
M  V30 1797 N 178.85 -1.27639 -0.924453 0
M  V30 1798 C 180.096 -1.14336 -1.67497 0
M  V30 1799 C 180.429 0.309465 -1.91718 0
M  V30 1800 O 179.704 1.22608 -1.50989 0
M  V30 1801 C 179.987 -1.93096 -3.0395 0
M  V30 1802 C 179.84 -3.46381 -2.8695 0
M  V30 1803 C 181.159 -1.73798 -4.0433 0
M  V30 1804 H 178.278 -0.416728 -0.607871 0
M  V30 1805 H 180.92 -1.56832 -1.07256 0
M  V30 1806 H 179.07 -1.56982 -3.55372 0
M  V30 1807 H 180.742 -3.92343 -2.42621 0
M  V30 1808 H 178.985 -3.72557 -2.22225 0
M  V30 1809 H 179.656 -3.96735 -3.83804 0
M  V30 1810 H 182.132 -2.05293 -3.61931 0
M  V30 1811 H 181.008 -2.31294 -4.97789 0
M  V30 1812 H 181.269 -0.686725 -4.36734 0
M  V30 1813 N 180.328 1.1314 -1.09713 0
M  V30 1814 C 181.574 1.84757 -0.836224 0
M  V30 1815 C 181.907 1.8347 0.636598 0
M  V30 1816 O 181.182 1.27491 1.46889 0
M  V30 1817 C 181.465 3.32782 -1.37578 0
M  V30 1818 C 181.318 3.42567 -2.91493 0
M  V30 1819 C 182.637 4.28307 -1.01198 0
M  V30 1820 H 179.756 0.67082 -0.305236 0
M  V30 1821 H 182.398 1.3278 -1.35903 0
M  V30 1822 H 180.548 3.77177 -0.931097 0
M  V30 1823 H 182.22 3.06862 -3.44432 0
M  V30 1824 H 180.463 2.83349 -3.28475 0
M  V30 1825 H 181.134 4.46674 -3.24324 0
M  V30 1826 H 183.61 3.91999 -1.39556 0
M  V30 1827 H 182.486 5.30307 -1.41653 0
M  V30 1828 H 182.747 4.42029 0.0794833 0
M  V30 1829 N 181.806 0.884767 1.30421 0
M  V30 1830 C 183.034 0.518044 2.0031 0
M  V30 1831 C 183.449 -0.893408 1.66324 0
M  V30 1832 O 182.806 -1.5875 0.900262 0
M  V30 1833 C 182.857 0.682997 3.54989 0
M  V30 1834 O 182.578 2.03888 3.87764 0
M  V30 1835 C 184.079 0.31924 4.42149 0
M  V30 1836 H 181.299 0.200265 0.640418 0
M  V30 1837 H 183.843 1.19001 1.6631 0
M  V30 1838 H 181.998 0.0584052 3.87356 0
M  V30 1839 H 182.412 2.05735 4.82466 0
M  V30 1840 H 183.886 0.485555 5.4986 0
M  V30 1841 H 184.363 -0.742717 4.32875 0
M  V30 1842 H 184.969 0.920147 4.15227 0
M  V30 1843 N 183.284 -1.43765 0.645699 0
M  V30 1844 C 184.247 -2.29163 -0.0409488 0
M  V30 1845 C 185.247 -1.41813 -0.757996 0
M  V30 1846 O 186.437 -1.63527 -0.600382 0
M  V30 1847 C 183.569 -3.23716 -1.06869 0
M  V30 1848 H 184.762 -2.91366 0.710345 0
M  V30 1849 H 182.315 -1.5092 0.406547 0
M  V30 1850 H 183.05 -2.66393 -1.84947 0
M  V30 1851 H 182.835 -3.88105 -0.558277 0
M  V30 1852 H 184.325 -3.87831 -1.54845 0
M  V30 1853 N 184.763 -0.387143 -1.52771 0
M  V30 1854 C 185.71 0.449048 -2.26389 0
M  V30 1855 C 186.68 1.05961 -1.27912 0
M  V30 1856 O 187.865 1.08804 -1.56737 0
M  V30 1857 C 185.005 1.57155 -3.0724 0
M  V30 1858 C 184.118 0.984066 -4.20643 0
M  V30 1859 C 183.253 2.07745 -4.88892 0
M  V30 1860 C 182.292 1.46574 -5.94292 0
M  V30 1861 N 181.429 2.49834 -6.56146 0
M  V30 1862 H 186.269 -0.185205 -2.97424 0
M  V30 1863 H 183.806 -0.103164 -1.46738 0
M  V30 1864 H 185.764 2.23309 -3.52405 0
M  V30 1865 H 184.394 2.17615 -2.38419 0
M  V30 1866 H 183.446 0.212193 -3.79808 0
M  V30 1867 H 184.758 0.497029 -4.96318 0
M  V30 1868 H 183.912 2.81673 -5.3735 0
M  V30 1869 H 182.651 2.59807 -4.12737 0
M  V30 1870 H 181.656 0.711696 -5.45174 0
M  V30 1871 H 182.881 0.953088 -6.72379 0
M  V30 1872 H 180.827 3.0107 -5.82832 0
M  V30 1873 H 180.744 2.05879 -7.27427 0
M  V30 1874 H 182.012 3.23399 -7.09249 0
M  V30 1875 N 186.241 1.57166 -0.116904 0
M  V30 1876 C 187.518 1.86645 0.585049 0
M  V30 1877 C 187.898 1.0177 1.84949 0
M  V30 1878 O 187.246 0.0960379 2.28298 0
M  V30 1879 C 187.456 3.37736 0.879507 0
M  V30 1880 C 188.804 4.06289 1.23348 0
M  V30 1881 O 189.828 3.42743 0.969836 0
M  V30 1882 O 188.687 5.18455 1.7282 0
M  V30 1883 H 185.781 0.772593 0.295007 0
M  V30 1884 H 188.327 1.69025 -0.151249 0
M  V30 1885 H 187.099 3.91296 -0.0166136 0
M  V30 1886 H 186.722 3.6078 1.67103 0
M  V30 1887 N 187.719 -0.156864 1.56817 0
M  V30 1888 C 188.666 -1.19394 1.97519 0
M  V30 1889 C 189.636 -1.4322 0.841265 0
M  V30 1890 O 190.821 -1.55719 1.10255 0
M  V30 1891 C 187.961 -2.52483 2.35258 0
M  V30 1892 C 187.074 -2.35914 3.61896 0
M  V30 1893 C 186.209 -3.61969 3.88782 0
M  V30 1894 C 185.248 -3.40395 5.08722 0
M  V30 1895 N 184.385 -4.58556 5.31668 0
M  V30 1896 H 189.225 -0.839845 2.85921 0
M  V30 1897 H 186.762 -0.403264 1.41464 0
M  V30 1898 H 188.72 -3.30071 2.55165 0
M  V30 1899 H 187.35 -2.85859 1.49949 0
M  V30 1900 H 186.402 -1.49429 3.49821 0
M  V30 1901 H 187.714 -2.15926 4.49641 0
M  V30 1902 H 186.868 -4.47989 4.09135 0
M  V30 1903 H 185.607 -3.84951 2.9944 0
M  V30 1904 H 184.612 -2.52763 4.88253 0
M  V30 1905 H 185.837 -3.18822 5.99608 0
M  V30 1906 H 183.783 -4.81729 4.45279 0
M  V30 1907 H 183.7 -4.41535 6.13664 0
M  V30 1908 H 184.968 -5.45817 5.5651 0
M  V30 1909 N 189.197 -1.51736 -0.425897 0
M  V30 1910 C 190.127 -1.76827 -1.52494 0
M  V30 1911 C 191.108 -0.618524 -1.58456 0
M  V30 1912 O 192.293 -0.862416 -1.74 0
M  V30 1913 C 189.423 -1.90374 -2.90474 0
M  V30 1914 C 188.377 -3.0588 -2.99369 0
M  V30 1915 C 187.703 -3.04625 -4.3944 0
M  V30 1916 C 189.003 -4.45644 -2.72394 0
M  V30 1917 H 190.697 -2.68855 -1.31748 0
M  V30 1918 H 188.243 -1.29372 -0.632362 0
M  V30 1919 H 190.196 -2.0651 -3.6733 0
M  V30 1920 H 188.92 -0.95004 -3.12477 0
M  V30 1921 H 187.579 -2.89467 -2.24954 0
M  V30 1922 H 187.227 -2.0701 -4.58428 0
M  V30 1923 H 186.927 -3.82195 -4.46319 0
M  V30 1924 H 188.451 -3.22869 -5.18255 0
M  V30 1925 H 189.865 -4.62348 -3.38979 0
M  V30 1926 H 188.262 -5.25006 -2.9067 0
M  V30 1927 H 189.332 -4.54893 -1.67929 0
M  V30 1928 N 190.675 0.682077 -1.42076 0
M  V30 1929 C 192.091 0.994324 -1.24841 0
M  V30 1930 C 192.291 2.0096 -0.147389 0
M  V30 1931 O 191.347 2.47822 0.483782 0
M  V30 1932 C 192.66 1.50607 -2.60265 0
M  V30 1933 C 194.208 1.62421 -2.6756 0
M  V30 1934 C 194.683 2.16994 -4.03333 0
M  V30 1935 N 196.174 2.24337 -4.0525 0
M  V30 1936 C 196.909 2.67621 -5.07116 0
M  V30 1937 N 196.405 3.1041 -6.19368 0
M  V30 1938 N 198.198 2.67305 -4.94474 0
M  V30 1939 H 190.349 0.00973908 -2.12398 0
M  V30 1940 H 192.612 0.0668593 -0.945639 0
M  V30 1941 H 192.318 0.834583 -3.41654 0
M  V30 1942 H 192.192 2.48602 -2.83684 0
M  V30 1943 H 194.579 2.28678 -1.86521 0
M  V30 1944 H 194.66 0.629352 -2.47937 0
M  V30 1945 H 194.304 1.51349 -4.84826 0
M  V30 1946 H 194.234 3.17258 -4.20304 0
M  V30 1947 H 196.725 1.94158 -3.24209 0
M  V30 1948 H 197.038 3.42103 -6.92954 0
M  V30 1949 H 195.383 3.08286 -6.22884 0
M  V30 1950 H 198.574 2.33233 -4.05857 0
M  V30 1951 H 198.747 3.00718 -5.73997 0
M  V30 1952 N 192.153 1.28127 0.917671 0
M  V30 1953 C 193.101 1.11569 2.04096 0
M  V30 1954 C 194.095 0.0360242 1.69362 0
M  V30 1955 O 195.301 0.194501 1.78946 0
M  V30 1956 H 191.676 0.344097 0.668656 0
M  V30 1957 H 193.647 2.06711 2.15205 0
M  V30 1958 C 192.396 0.790197 3.38602 0
M  V30 1959 H 191.719 1.61293 3.6582 0
M  V30 1960 H 193.159 0.714271 4.1794 0
M  V30 1961 C 191.618 -0.505897 3.3308 0
M  V30 1962 O 192.148 -1.53736 3.71117 0
M  V30 1963 N 190.354 -0.505193 2.86175 0
M  V30 1964 H 189.901 0.334621 2.55417 0
M  V30 1965 H 189.859 -1.37243 2.82863 0
M  V30 1966 N 193.631 -1.12557 1.10312 0
M  V30 1967 C 194.561 -2.20341 0.772798 0
M  V30 1968 C 195.542 -1.68198 -0.25365 0
M  V30 1969 O 196.727 -1.93831 -0.119699 0
M  V30 1970 C 193.857 -3.46709 0.202443 0
M  V30 1971 C 192.811 -4.11996 1.15943 0
M  V30 1972 C 192.137 -5.328 0.450345 0
M  V30 1973 C 193.437 -4.5828 2.50552 0
M  V30 1974 H 195.131 -2.48229 1.674 0
M  V30 1975 H 192.677 -1.19308 0.806326 0
M  V30 1976 H 194.63 -4.2138 -0.0407752 0
M  V30 1977 H 193.354 -3.18245 -0.734001 0
M  V30 1978 H 192.013 -3.39305 1.38808 0
M  V30 1979 H 191.661 -5.00602 -0.490531 0
M  V30 1980 H 191.361 -5.7743 1.08851 0
M  V30 1981 H 192.885 -6.10219 0.215642 0
M  V30 1982 H 194.299 -5.2433 2.31843 0
M  V30 1983 H 192.696 -5.13683 3.10242 0
M  V30 1984 H 193.766 -3.72329 3.10643 0
M  V30 1985 N 195.109 -0.891671 -1.2995 0
M  V30 1986 C 196.039 -0.379797 -2.30391 0
M  V30 1987 C 197.02 0.540919 -1.6127 0
M  V30 1988 O 198.205 0.453352 -1.88834 0
M  V30 1989 C 195.335 0.400654 -3.44981 0
M  V30 1990 C 194.289 -0.428905 -4.25846 0
M  V30 1991 C 193.615 0.478557 -5.32554 0
M  V30 1992 C 194.915 -1.67458 -4.94727 0
M  V30 1993 H 196.609 -1.21914 -2.73454 0
M  V30 1994 H 194.155 -0.587675 -1.31462 0
M  V30 1995 H 196.108 0.769434 -4.14316 0
M  V30 1996 H 194.832 1.27371 -3.0074 0
M  V30 1997 H 193.491 -0.779911 -3.58208 0
M  V30 1998 H 193.139 1.34951 -4.84559 0
M  V30 1999 H 192.839 -0.0727433 -5.87555 0
M  V30 2000 H 194.363 0.843705 -6.04743 0
M  V30 2001 H 195.777 -1.376 -5.56542 0
M  V30 2002 H 194.174 -2.16659 -5.59624 0
M  V30 2003 H 195.244 -2.41518 -4.20473 0
M  V30 2004 N 196.587 1.43421 -0.653314 0
M  V30 2005 C 197.835 2.01414 -0.166415 0
M  V30 2006 C 198.156 1.51803 1.22397 0
M  V30 2007 O 197.426 0.730693 1.81763 0
M  V30 2008 H 196.006 0.744703 -0.0585319 0
M  V30 2009 H 198.668 1.75629 -0.845003 0
M  V30 2010 H 197.764 3.11734 -0.151111 0
M  V30 2011 N 198.065 0.39524 1.52563 0
M  V30 2012 C 199.015 -0.4541 2.23432 0
M  V30 2013 C 199.999 -1.02482 1.24042 0
M  V30 2014 O 201.191 -0.949938 1.49349 0
M  V30 2015 C 198.32 -1.57769 3.049 0
M  V30 2016 C 197.406 -1.01842 4.1169 0
M  V30 2017 N 197.797 -0.184613 5.05463 0
M  V30 2018 C 196.095 -1.29033 4.26927 0
M  V30 2019 C 196.796 0.125013 5.81566 0
M  V30 2020 N 195.772 -0.480498 5.41472 0
M  V30 2021 H 199.574 0.189413 2.93289 0
M  V30 2022 H 197.088 0.204877 1.61102 0
M  V30 2023 H 199.085 -2.19862 3.54212 0
M  V30 2024 H 197.745 -2.22397 2.36579 0
M  V30 2025 H 198.756 0.178602 5.17592 0
M  V30 2026 H 195.433 -1.93721 3.69836 0
M  V30 2027 H 196.823 0.800962 6.67109 0
M  V30 2028 N 199.544 -1.57102 0.125237 0
M  V30 2029 C 200.476 -2.12726 -0.853237 0
M  V30 2030 C 201.489 -1.07145 -1.22571 0
M  V30 2031 O 202.678 -1.34497 -1.17358 0
M  V30 2032 C 199.778 -2.61709 -2.15317 0
M  V30 2033 C 198.951 -3.91456 -1.95143 0
M  V30 2034 C 198.01 -4.25973 -3.08923 0
M  V30 2035 O 197.036 -4.94682 -2.81564 0
M  V30 2036 N 198.238 -3.83795 -4.35524 0
M  V30 2037 H 201.003 -2.97307 -0.377964 0
M  V30 2038 H 198.564 -1.61792 -0.0590011 0
M  V30 2039 H 200.556 -2.81826 -2.90441 0
M  V30 2040 H 199.126 -1.81974 -2.54174 0
M  V30 2041 H 198.346 -3.80185 -1.04177 0
M  V30 2042 H 199.634 -4.76283 -1.78976 0
M  V30 2043 H 199.032 -3.2839 -4.60626 0
M  V30 2044 H 197.589 -4.09008 -5.07499 0
M  V30 2045 N 201.022 0.148545 -1.56898 0
M  V30 2046 C 201.952 1.18524 -2.01182 0
M  V30 2047 C 202.933 1.4489 -0.891123 0
M  V30 2048 O 204.118 1.55836 -1.15882 0
M  V30 2049 C 201.248 2.51879 -2.39112 0
M  V30 2050 C 200.202 2.40038 -3.54353 0
M  V30 2051 C 199.528 3.78089 -3.78091 0
M  V30 2052 C 200.828 1.88577 -4.87069 0
M  V30 2053 H 202.522 0.817029 -2.88036 0
M  V30 2054 H 200.068 0.391575 -1.38574 0
M  V30 2055 H 202.021 3.24627 -2.68692 0
M  V30 2056 H 200.745 2.90532 -1.49193 0
M  V30 2057 H 199.404 1.69742 -3.24936 0
M  V30 2058 H 199.052 4.14175 -2.85426 0
M  V30 2059 H 198.752 3.71028 -4.55645 0
M  V30 2060 H 200.276 4.52387 -4.10095 0
M  V30 2061 H 201.69 2.51117 -5.15377 0
M  V30 2062 H 200.087 1.9241 -5.68417 0
M  V30 2063 H 201.157 0.84136 -4.77545 0
M  V30 2064 N 202.5 1.5196 0.417844 0
M  V30 2065 C 203.447 1.74678 1.50852 0
M  V30 2066 C 204.417 0.588947 1.55308 0
M  V30 2067 O 205.602 0.825544 1.72016 0
M  V30 2068 C 202.742 1.89544 2.88387 0
M  V30 2069 C 201.855 3.17166 2.93309 0
M  V30 2070 C 200.99 3.22513 4.22088 0
M  V30 2071 C 200.029 4.44372 4.20951 0
M  V30 2072 N 199.166 4.47161 5.41287 0
M  V30 2073 H 204.006 2.67768 1.30783 0
M  V30 2074 H 201.543 1.32689 0.63498 0
M  V30 2075 H 203.501 1.96146 3.68216 0
M  V30 2076 H 202.131 0.998424 3.06971 0
M  V30 2077 H 201.183 3.19778 2.06024 0
M  V30 2078 H 202.495 4.07021 2.88332 0
M  V30 2079 H 201.649 3.28139 5.10303 0
M  V30 2080 H 200.388 2.30581 4.29748 0
M  V30 2081 H 199.393 4.38902 3.31127 0
M  V30 2082 H 200.618 5.3759 4.14938 0
M  V30 2083 H 198.564 3.58108 5.49632 0
M  V30 2084 H 198.481 5.3085 5.3827 0
M  V30 2085 H 199.749 4.57005 6.3148 0
M  V30 2086 N 203.978 -0.674533 1.42435 0
M  V30 2087 C 205.226 -1.43175 1.42637 0
M  V30 2088 C 205.547 -1.94951 0.0438992 0
M  V30 2089 O 204.817 -1.7308 -0.917607 0
M  V30 2090 H 203.397 -0.531307 0.525092 0
M  V30 2091 H 206.059 -0.797006 1.77859 0
M  V30 2092 H 205.155 -2.28463 2.12629 0
M  V30 2093 N 205.456 -1.28612 -0.910864 0
M  V30 2094 C 206.705 -1.15311 -1.65488 0
M  V30 2095 C 207.018 0.296999 -1.93332 0
M  V30 2096 O 208.224 0.551168 -2.65847 0
M  V30 2097 C 206.68 -2.01599 -2.98137 0
M  V30 2098 C 206.288 -3.51367 -2.7793 0
M  V30 2099 C 208.032 -1.96993 -3.76024 0
M  V30 2100 C 205.939 -4.29797 -4.06237 0
M  V30 2101 H 204.869 -0.42796 -0.620779 0
M  V30 2102 H 207.52 -1.53166 -1.01057 0
M  V30 2103 H 205.902 -1.56603 -3.63719 0
M  V30 2104 H 207.076 -4.0434 -2.21011 0
M  V30 2105 H 205.391 -3.57529 -2.13452 0
M  V30 2106 H 207.988 -2.52856 -4.71135 0
M  V30 2107 H 208.331 -0.94733 -4.05378 0
M  V30 2108 H 208.864 -2.39973 -3.17266 0
M  V30 2109 H 205.603 -5.32648 -3.82055 0
M  V30 2110 H 205.123 -3.81596 -4.62757 0
M  V30 2111 H 206.802 -4.39869 -4.74473 0
M  V30 2112 N 206.934 1.1197 -1.10907 0
M  V30 2113 C 208.174 1.85224 -0.864378 0
M  V30 2114 C 208.538 1.82411 0.599178 0
M  V30 2115 O 209.739 2.51057 0.960416 0
M  V30 2116 C 208.01 3.2868 -1.40371 0
M  V30 2117 S 209.569 4.1925 -1.29518 0
M  V30 2118 H 206.387 0.63878 -0.312219 0
M  V30 2119 H 208.989 1.3485 -1.41548 0
M  V30 2120 H 207.693 3.28289 -2.46281 0
M  V30 2121 H 207.224 3.84121 -0.849402 0
M  V30 2122 H 209.239 4.95539 -0.256059 0
M  V30 2123 N 208.412 0.89855 1.29475 0
M  V30 2124 C 209.659 0.523882 1.95606 0
M  V30 2125 C 209.987 -0.929608 1.70847 0
M  V30 2126 O 209.242 -1.67401 1.01367 0
M  V30 2127 C 209.541 0.761398 3.49195 0
M  V30 2128 C 209.207 2.19207 3.94029 0
M  V30 2129 C 207.869 2.58326 4.05982 0
M  V30 2130 C 210.221 3.12379 4.17216 0
M  V30 2131 C 207.549 3.898 4.38489 0
M  V30 2132 C 209.901 4.43401 4.51197 0
M  V30 2133 C 208.565 4.82394 4.61359 0
M  V30 2134 H 207.835 0.191702 0.715773 0
M  V30 2135 H 210.482 1.13699 1.54094 0
M  V30 2136 H 208.787 0.0653622 3.91745 0
M  V30 2137 H 210.484 0.450904 3.98457 0
M  V30 2138 H 207.074 1.87846 3.85242 0
M  V30 2139 H 211.258 2.83371 4.07449 0
M  V30 2140 H 206.514 4.19734 4.44559 0
M  V30 2141 H 210.688 5.15623 4.68087 0
M  V30 2142 H 208.315 5.84306 4.86303 0
M  V30 2143 N 209.89 -1.43072 0.660911 0
M  V30 2144 C 211.115 -2.06584 0.183805 0
M  V30 2145 C 211.54 -1.49257 -1.14472 0
M  V30 2146 O 210.898 -0.605528 -1.70889 0
M  V30 2147 C 210.946 -3.60418 0.114434 0
M  V30 2148 O 210.05 -4.01981 -0.921137 0
M  V30 2149 H 209.391 -0.656669 0.0983994 0
M  V30 2150 H 211.921 -1.83447 0.906006 0
M  V30 2151 H 211.931 -4.07946 -0.0663394 0
M  V30 2152 H 210.606 -4.01519 1.08422 0
M  V30 2153 H 209.183 -3.66029 -0.71253 0
M  V30 2154 N 211.368 -0.403325 -1.52352 0
M  V30 2155 C 212.331 0.413051 -2.25447 0
M  V30 2156 C 213.331 0.978513 -1.276 0
M  V30 2157 O 214.521 0.858305 -1.51587 0
M  V30 2158 C 211.653 1.58087 -3.02029 0
M  V30 2159 H 212.846 -0.227094 -2.99039 0
M  V30 2160 H 210.399 -0.155722 -1.55522 0
M  V30 2161 H 211.134 2.25804 -2.32772 0
M  V30 2162 H 210.919 1.18195 -3.73861 0
M  V30 2163 H 212.409 2.1585 -3.57489 0
M  V30 2164 N 212.846 1.57033 -0.133567 0
M  V30 2165 C 213.756 2.19632 0.824564 0
M  V30 2166 C 214.772 1.17666 1.28182 0
M  V30 2167 O 215.948 1.50193 1.3418 0
M  V30 2168 C 213.013 2.79499 2.05137 0
M  V30 2169 C 212.074 3.96548 1.64464 0
M  V30 2170 C 211.307 4.5355 2.81297 0
M  V30 2171 O 211.53 4.09438 3.97136 0
M  V30 2172 O 210.464 5.44018 2.57542 0
M  V30 2173 H 214.29 3.01991 0.321766 0
M  V30 2174 H 211.875 1.49112 0.0927889 0
M  V30 2175 H 213.757 3.17602 2.7696 0
M  V30 2176 H 212.432 2.00162 2.54395 0
M  V30 2177 H 211.339 3.63186 0.897048 0
M  V30 2178 H 212.672 4.77364 1.19934 0
M  V30 2179 N 214.325 -0.140222 1.56975 0
M  V30 2180 C 215.272 -1.17292 1.98774 0
M  V30 2181 C 216.242 -1.4232 0.856408 0
M  V30 2182 O 217.427 -1.54541 1.119 0
M  V30 2183 C 214.567 -2.49973 2.37923 0
M  V30 2184 C 213.68 -2.32062 3.64378 0
M  V30 2185 C 212.815 -3.57825 3.926 0
M  V30 2186 C 211.854 -3.3498 5.12303 0
M  V30 2187 N 210.991 -4.52891 5.36502 0
M  V30 2188 H 215.831 -0.809472 2.86795 0
M  V30 2189 H 213.368 -0.388237 1.41884 0
M  V30 2190 H 215.326 -3.27346 2.58652 0
M  V30 2191 H 213.956 -2.84252 1.52972 0
M  V30 2192 H 213.008 -1.45711 3.51387 0
M  V30 2193 H 214.32 -2.11145 4.51906 0
M  V30 2194 H 213.474 -4.43624 4.13863 0
M  V30 2195 H 212.213 -3.81753 3.03506 0
M  V30 2196 H 211.218 -2.4757 4.90906 0
M  V30 2197 H 212.443 -3.12444 6.02956 0
M  V30 2198 H 210.389 -4.76979 4.50363 0
M  V30 2199 H 210.306 -4.35001 6.18312 0
M  V30 2200 H 211.574 -5.39884 5.62268 0
M  V30 2201 N 215.803 -1.52179 -0.40978 0
M  V30 2202 C 216.766 -1.74853 -1.48186 0
M  V30 2203 C 217.766 -0.618417 -1.48433 0
M  V30 2204 O 218.956 -0.886286 -1.49969 0
M  V30 2205 C 216.088 -1.8303 -2.87598 0
M  V30 2206 H 217.281 -2.70559 -1.29374 0
M  V30 2207 H 214.834 -1.42586 -0.640233 0
M  V30 2208 H 215.569 -0.89236 -3.11781 0
M  V30 2209 H 215.354 -2.65187 -2.88822 0
M  V30 2210 H 216.844 -2.02316 -3.65319 0
M  V30 2211 N 217.281 0.66697 -1.42791 0
M  V30 2212 C 218.558 1.4234 -1.34159 0
M  V30 2213 C 218.938 2.11093 0.0172729 0
M  V30 2214 O 218.286 2.03808 1.03318 0
M  V30 2215 C 218.496 2.41942 -2.51526 0
M  V30 2216 C 219.844 3.06353 -2.93995 0
M  V30 2217 O 220.868 2.52269 -2.51473 0
M  V30 2218 O 219.727 4.04376 -3.67617 0
M  V30 2219 H 216.821 0.635277 -0.529483 0
M  V30 2220 H 219.367 0.695034 -1.54814 0
M  V30 2221 H 218.139 1.89991 -3.42081 0
M  V30 2222 H 217.762 3.22249 -2.32898 0
M  V30 2223 N 218.759 1.29093 0.90403 0
M  V30 2224 C 219.691 1.09658 2.01266 0
M  V30 2225 C 220.704 0.0453729 1.62737 0
M  V30 2226 O 221.893 0.289446 1.76138 0
M  V30 2227 C 218.993 0.646278 3.32681 0
M  V30 2228 C 218.166 1.77505 3.99763 0
M  V30 2229 C 217.225 1.31649 5.09465 0
M  V30 2230 O 216.251 2.02045 5.32134 0
M  V30 2231 N 217.453 0.184997 5.80205 0
M  V30 2232 H 220.218 2.05135 2.18494 0
M  V30 2233 H 217.779 1.20975 1.07594 0
M  V30 2234 H 219.771 0.322906 4.0341 0
M  V30 2235 H 218.341 -0.215916 3.11853 0
M  V30 2236 H 217.561 2.26752 3.22455 0
M  V30 2237 H 218.849 2.53198 4.41325 0
M  V30 2238 H 218.247 -0.402021 5.6427 0
M  V30 2239 H 216.804 -0.0790358 6.51752 0
M  V30 2240 N 220.237 -1.11381 1.11499 0
M  V30 2241 C 221.483 -1.83403 0.865512 0
M  V30 2242 C 221.816 -1.84459 -0.607329 0
M  V30 2243 O 221.091 -1.29811 -1.44842 0
M  V30 2244 C 221.374 -3.30552 1.42855 0
M  V30 2245 C 221.227 -3.37886 2.96906 0
M  V30 2246 C 222.546 -4.26643 1.08 0
M  V30 2247 H 219.665 -0.665879 0.31587 0
M  V30 2248 H 222.307 -1.30601 1.37998 0
M  V30 2249 H 220.457 -3.75648 0.990985 0
M  V30 2250 H 222.129 -3.01343 3.49271 0
M  V30 2251 H 220.372 -2.78088 3.32941 0
M  V30 2252 H 221.043 -4.41458 3.31389 0
M  V30 2253 H 223.519 -3.89729 1.45775 0
M  V30 2254 H 222.395 -5.27986 1.50072 0
M  V30 2255 H 222.656 -4.42099 -0.00915037 0
M  V30 2256 N 221.715 -0.905404 -1.28997 0
M  V30 2257 C 222.663 -0.377431 -2.29517 0
M  V30 2258 C 223.657 0.526461 -1.61012 0
M  V30 2259 O 224.863 0.40863 -1.753 0
M  V30 2260 H 221.238 -0.103437 -0.744852 0
M  V30 2261 H 223.209 -1.23848 -2.71485 0
M  V30 2262 C 221.958 0.374833 -3.45674 0
M  V30 2263 H 221.281 -0.311474 -3.98585 0
M  V30 2264 H 222.721 0.70903 -4.1803 0
M  V30 2265 C 221.18 1.57963 -2.97572 0
M  V30 2266 O 221.71 2.67886 -2.99333 0
M  V30 2267 N 219.916 1.42375 -2.53333 0
M  V30 2268 H 219.463 0.529466 -2.521 0
M  V30 2269 H 219.421 2.23117 -2.21509 0
M  V30 2270 N 223.193 1.4272 -0.668489 0
M  V30 2271 C 224.123 2.335 -0.000100175 0
M  V30 2272 C 225.104 1.50328 0.795964 0
M  V30 2273 O 226.289 1.78949 0.754385 0
M  V30 2274 C 223.419 3.33874 0.956302 0
M  V30 2275 C 222.373 4.27152 0.269278 0
M  V30 2276 C 221.699 5.17684 1.33818 0
M  V30 2277 C 222.999 5.15373 -0.847805 0
M  V30 2278 H 224.693 2.89639 -0.758244 0
M  V30 2279 H 222.239 1.39269 -0.366079 0
M  V30 2280 H 224.192 3.9629 1.43292 0
M  V30 2281 H 222.916 2.76025 1.74579 0
M  V30 2282 H 221.575 3.66123 -0.187042 0
M  V30 2283 H 221.223 4.56165 2.1195 0
M  V30 2284 H 220.923 5.80918 0.883659 0
M  V30 2285 H 222.447 5.82974 1.81586 0
M  V30 2286 H 223.861 5.7151 -0.452681 0
M  V30 2287 H 222.258 5.87407 -1.22773 0
M  V30 2288 H 223.328 4.5415 -1.69929 0
M  V30 2289 N 224.671 0.411399 1.52136 0
M  V30 2290 C 225.581 -0.419774 2.30814 0
M  V30 2291 C 226.597 -1.0515 1.38634 0
M  V30 2292 O 227.773 -1.05252 1.71709 0
M  V30 2293 C 224.838 -1.52019 3.11594 0
M  V30 2294 C 223.899 -0.91129 4.19516 0
M  V30 2295 C 223.132 -1.95927 4.96436 0
M  V30 2296 O 223.355 -3.17775 4.73683 0
M  V30 2297 O 222.289 -1.56423 5.81219 0
M  V30 2298 H 226.115 0.221805 3.02889 0
M  V30 2299 H 223.7 0.174547 1.48377 0
M  V30 2300 H 225.582 -2.15898 3.61892 0
M  V30 2301 H 224.257 -2.14633 2.42311 0
M  V30 2302 H 223.164 -0.235157 3.7336 0
M  V30 2303 H 224.497 -0.32904 4.91099 0
M  V30 2304 N 226.149 -1.5696 0.141893 0
M  V30 2305 C 227.059 -2.20066 -0.812905 0
M  V30 2306 C 228.075 -1.18344 -1.27557 0
M  V30 2307 O 229.251 -1.50902 -1.33381 0
M  V30 2308 C 226.316 -2.80583 -2.03652 0
M  V30 2309 C 225.377 -3.97414 -1.62359 0
M  V30 2310 C 224.61 -4.55036 -2.78887 0
M  V30 2311 O 224.833 -4.11538 -3.94959 0
M  V30 2312 O 223.767 -5.45376 -2.54653 0
M  V30 2313 H 227.593 -3.02157 -0.305746 0
M  V30 2314 H 225.178 -1.49159 -0.0848799 0
M  V30 2315 H 227.06 -3.19067 -2.75272 0
M  V30 2316 H 225.735 -2.01508 -2.5333 0
M  V30 2317 H 224.642 -3.63656 -0.877775 0
M  V30 2318 H 225.975 -4.77994 -1.17401 0
M  V30 2319 N 227.627 0.131896 -1.57047 0
M  V30 2320 C 228.577 1.1679 -1.95816 0
M  V30 2321 C 229.561 1.37756 -0.831393 0
M  V30 2322 O 230.753 1.39065 -1.09499 0
M  V30 2323 C 227.882 2.49778 -2.35512 0
M  V30 2324 C 226.968 2.32342 -3.54793 0
M  V30 2325 N 227.359 1.8469 -4.70875 0
M  V30 2326 C 225.657 2.63043 -3.60173 0
M  V30 2327 C 226.358 1.80656 -5.52936 0
M  V30 2328 N 225.334 2.24528 -4.95064 0
M  V30 2329 H 229.136 0.791818 -2.83033 0
M  V30 2330 H 226.65 0.339791 -1.58805 0
M  V30 2331 H 228.647 3.24692 -2.61498 0
M  V30 2332 H 227.307 2.88156 -1.49654 0
M  V30 2333 H 228.318 1.54429 -4.9434 0
M  V30 2334 H 224.995 3.05193 -2.84892 0
M  V30 2335 H 226.385 1.45178 -6.56028 0
M  V30 2336 N 229.106 1.52395 0.401703 0
M  V30 2337 C 230.354 1.66488 1.14569 0
M  V30 2338 C 230.675 0.400897 1.90835 0
M  V30 2339 O 229.945 -0.584415 1.8698 0
M  V30 2340 H 228.525 0.613672 0.425929 0
M  V30 2341 H 231.187 1.89464 0.457093 0
M  V30 2342 H 230.283 2.50942 1.85566 0
M  V30 2343 N 230.584 -0.659388 1.43143 0
M  V30 2344 C 231.83 -1.42145 1.44647 0
M  V30 2345 C 232.163 -1.9408 0.0681907 0
M  V30 2346 O 231.438 -1.71899 -0.910007 0
M  V30 2347 C 231.721 -2.60735 2.48373 0
M  V30 2348 C 231.574 -2.14332 3.95451 0
M  V30 2349 C 232.893 -3.62951 2.48906 0
M  V30 2350 H 230.012 -0.51552 0.526696 0
M  V30 2351 H 232.654 -0.748069 1.74654 0
M  V30 2352 H 230.804 -3.18184 2.22916 0
M  V30 2353 H 232.476 -1.61932 4.31944 0
M  V30 2354 H 230.719 -1.4576 4.08578 0
M  V30 2355 H 231.39 -2.99583 4.63631 0
M  V30 2356 H 233.866 -3.1525 2.71582 0
M  V30 2357 H 232.742 -4.43487 3.23435 0
M  V30 2358 H 233.003 -4.15126 1.52061 0
M  V30 2359 N 232.062 -1.29571 -0.897171 0
M  V30 2360 C 232.972 -1.16808 -2.03453 0
M  V30 2361 C 233.988 -0.0907471 -1.73763 0
M  V30 2362 O 235.164 -0.303312 -1.99103 0
M  V30 2363 C 232.229 -0.848264 -3.36163 0
M  V30 2364 C 231.29 -2.0097 -3.79354 0
M  V30 2365 C 230.523 -1.70505 -5.05731 0
M  V30 2366 O 230.746 -0.62718 -5.66941 0
M  V30 2367 O 229.68 -2.5538 -5.45036 0
M  V30 2368 H 233.506 -2.12325 -2.17144 0
M  V30 2369 H 231.091 -1.09047 -1.02123 0
M  V30 2370 H 232.973 -0.684581 -4.15802 0
M  V30 2371 H 231.648 0.0771071 -3.23608 0
M  V30 2372 H 230.555 -2.22863 -3.00471 0
M  V30 2373 H 231.888 -2.91636 -3.96496 0
M  V30 2374 N 233.54 1.10788 -1.12088 0
M  V30 2375 C 234.488 2.19111 -0.780587 0
M  V30 2376 C 235.482 1.67818 0.230961 0
M  V30 2377 O 236.688 1.79777 0.0895427 0
M  V30 2378 H 233.063 0.714477 -0.234578 0
M  V30 2379 H 235.034 2.45055 -1.70266 0
M  V30 2380 C 233.783 3.46818 -0.24747 0
M  V30 2381 H 233.106 3.86646 -1.01712 0
M  V30 2382 H 234.546 4.23973 -0.0476291 0
M  V30 2383 C 233.005 3.20968 1.02378 0
M  V30 2384 O 233.535 3.42298 2.10226 0
M  V30 2385 N 231.741 2.74658 0.949271 0
M  V30 2386 H 231.288 2.57501 0.0715173 0
M  V30 2387 H 231.246 2.57739 1.80049 0
M  V30 2388 N 235.018 0.912232 1.28515 0
M  V30 2389 C 236.267 0.540504 1.94323 0
M  V30 2390 C 236.58 -0.920044 1.72611 0
M  V30 2391 O 237.786 -1.39986 2.32629 0
M  V30 2392 C 236.242 0.915803 3.48053 0
M  V30 2393 C 235.85 2.39598 3.78546 0
M  V30 2394 C 237.594 0.614588 4.20027 0
M  V30 2395 C 235.501 2.71148 5.25578 0
M  V30 2396 H 234.431 0.198418 0.727424 0
M  V30 2397 H 237.082 1.11094 1.46049 0
M  V30 2398 H 235.464 0.274168 3.9505 0
M  V30 2399 H 236.638 3.08422 3.42364 0
M  V30 2400 H 234.953 2.66749 3.1974 0
M  V30 2401 H 237.55 0.827002 5.28266 0
M  V30 2402 H 237.893 -0.447531 4.13887 0
M  V30 2403 H 238.426 1.21462 3.78803 0
M  V30 2404 H 235.165 3.76207 5.36794 0
M  V30 2405 H 234.685 2.0696 5.62963 0
M  V30 2406 H 236.364 2.58072 5.93302 0
M  V30 2407 N 236.496 -1.42363 0.676048 0
M  V30 2408 C 237.426 -2.33497 0.0124832 0
M  V30 2409 C 238.407 -1.50748 -0.787981 0
M  V30 2410 O 239.592 -1.79346 -0.744884 0
M  V30 2411 C 236.722 -3.34377 -0.938582 0
M  V30 2412 C 235.676 -4.27289 -0.246622 0
M  V30 2413 C 235.002 -5.18386 -1.31071 0
M  V30 2414 C 236.302 -5.14916 0.875125 0
M  V30 2415 H 237.996 -2.89233 0.773593 0
M  V30 2416 H 235.542 -1.39073 0.37346 0
M  V30 2417 H 237.495 -3.97044 -1.41188 0
M  V30 2418 H 236.219 -2.76947 -1.73113 0
M  V30 2419 H 234.878 -3.66018 0.206456 0
M  V30 2420 H 234.526 -4.57282 -2.09528 0
M  V30 2421 H 234.226 -5.81378 -0.852839 0
M  V30 2422 H 235.75 -5.83929 -1.78492 0
M  V30 2423 H 237.164 -5.71262 0.482983 0
M  V30 2424 H 235.561 -5.86747 1.25887 0
M  V30 2425 H 236.631 -4.53242 1.72335 0
M  V30 2426 N 237.974 -0.419461 -1.51915 0
M  V30 2427 C 238.937 0.389116 -2.25873 0
M  V30 2428 C 239.937 0.964924 -1.28631 0
M  V30 2429 O 241.127 0.842179 -1.52489 0
M  V30 2430 C 238.259 1.54874 -3.03689 0
M  V30 2431 H 239.452 -0.258799 -2.98781 0
M  V30 2432 H 237.005 -0.172209 -1.55348 0
M  V30 2433 H 237.74 2.23323 -2.35154 0
M  V30 2434 H 237.525 1.14223 -3.75094 0
M  V30 2435 H 239.015 2.12046 -3.59759 0
M  V30 2436 N 239.452 1.56882 -0.150215 0
M  V30 2437 C 240.868 1.58263 0.20617 0
M  V30 2438 C 241.068 1.16464 1.64434 0
M  V30 2439 O 240.124 0.866422 2.3717 0
M  V30 2440 C 241.437 3.00649 -0.0555025 0
M  V30 2441 C 242.985 3.12999 0.00795388 0
M  V30 2442 C 243.46 4.5744 -0.226429 0
M  V30 2443 N 244.951 4.62875 -0.173469 0
M  V30 2444 C 245.686 5.72454 -0.329288 0
M  V30 2445 N 245.182 6.90669 -0.543005 0
M  V30 2446 N 246.975 5.61467 -0.266666 0
M  V30 2447 H 239.126 1.82345 -1.08922 0
M  V30 2448 H 241.389 0.844149 -0.431413 0
M  V30 2449 H 241.095 3.3563 -1.05096 0
M  V30 2450 H 240.969 3.71337 0.66246 0
M  V30 2451 H 243.356 2.77857 0.993966 0
M  V30 2452 H 243.437 2.4479 -0.742388 0
M  V30 2453 H 243.081 4.93287 -1.20956 0
M  V30 2454 H 243.011 5.2378 0.544274 0
M  V30 2455 H 245.502 3.77898 -0.0130709 0
M  V30 2456 H 245.815 7.70045 -0.651922 0
M  V30 2457 H 244.16 6.92581 -0.579366 0
M  V30 2458 H 247.351 4.67992 -0.100441 0
M  V30 2459 H 247.524 6.46816 -0.391535 0
M  V30 2460 N 240.93 -0.123565 1.57115 0
M  V30 2461 C 242.176 -0.833386 1.84885 0
M  V30 2462 C 242.509 -1.79742 0.735292 0
M  V30 2463 O 241.784 -1.92764 -0.25925 0
M  V30 2464 C 242.067 -1.5873 3.23228 0
M  V30 2465 C 241.92 -0.643183 4.45178 0
M  V30 2466 C 243.239 -2.54453 3.59085 0
M  V30 2467 H 240.358 -0.301518 0.6725 0
M  V30 2468 H 243 -0.097778 1.89748 0
M  V30 2469 H 241.15 -2.21438 3.19214 0
M  V30 2470 H 242.822 -0.0253015 4.61293 0
M  V30 2471 H 241.065 0.0456139 4.33776 0
M  V30 2472 H 241.736 -1.20724 5.38637 0
M  V30 2473 H 244.212 -2.01853 3.63861 0
M  V30 2474 H 243.088 -3.04238 4.5687 0
M  V30 2475 H 243.349 -3.36906 2.86264 0
M  V30 2476 N 242.408 -1.52605 -0.393616 0
M  V30 2477 C 243.656 -1.67093 -1.13685 0
M  V30 2478 C 243.977 -0.411011 -1.90619 0
M  V30 2479 O 243.247 0.574491 -1.87287 0
M  V30 2480 H 241.827 -0.615923 -0.422668 0
M  V30 2481 H 244.489 -1.89704 -0.447039 0
M  V30 2482 H 243.585 -2.51922 -1.84232 0
M  V30 2483 N 243.887 0.651787 -1.4349 0
M  V30 2484 C 244.82 1.77668 -1.43211 0
M  V30 2485 C 245.798 1.59931 -0.29338 0
M  V30 2486 O 246.982 1.82095 -0.487191 0
M  V30 2487 C 244.109 3.14986 -1.24505 0
M  V30 2488 C 243.155 3.51421 -2.41673 0
M  V30 2489 S 243.988 3.51234 -4.04222 0
M  V30 2490 C 245.144 4.91206 -3.87902 0
M  V30 2491 H 245.377 1.77635 -2.38397 0
M  V30 2492 H 242.91 0.824558 -1.30539 0
M  V30 2493 H 244.868 3.94237 -1.144 0
M  V30 2494 H 243.529 3.1258 -0.308651 0
M  V30 2495 H 242.722 4.51291 -2.24393 0
M  V30 2496 H 242.324 2.79585 -2.48411 0
M  V30 2497 H 244.616 5.79902 -3.50315 0
M  V30 2498 H 245.559 5.13537 -4.8753 0
M  V30 2499 H 245.967 4.64808 -3.20334 0
M  V30 2500 N 245.365 1.30045 0.890287 0
M  V30 2501 C 246.776 1.16738 1.45702 0
M  V30 2502 C 247.127 -0.233939 1.948 0
M  V30 2503 O 246.252 -1.13021 1.84541 0
M  V30 2504 C 246.847 2.11313 2.64825 0
M  V30 2505 C 245.406 2.02001 3.17604 0
M  V30 2506 C 244.553 2.01699 1.90296 0
M  V30 2507 H 247.504 1.42392 0.700726 0
M  V30 2508 H 247.525 1.69086 3.40867 0
M  V30 2509 H 247.037 3.13294 2.2906 0
M  V30 2510 H 245.138 1.03142 3.5804 0
M  V30 2511 H 245.251 2.90128 3.81264 0
M  V30 2512 H 243.615 1.46427 2.08402 0
M  V30 2513 H 244.398 3.05402 1.56795 0
M  V30 2514 N 246.843 -1.10192 1.12674 0
M  V30 2515 C 248.089 -1.82475 0.884915 0
M  V30 2516 C 248.422 -1.85093 -0.58773 0
M  V30 2517 O 247.697 -1.3134 -1.43457 0
M  V30 2518 C 247.98 -3.29018 1.46353 0
M  V30 2519 C 247.833 -3.34718 3.00473 0
M  V30 2520 C 249.152 -4.25473 1.12519 0
M  V30 2521 H 246.271 -0.662492 0.322915 0
M  V30 2522 H 248.913 -1.2913 1.39375 0
M  V30 2523 H 247.063 -3.74576 1.03077 0
M  V30 2524 H 248.735 -2.97622 3.52447 0
M  V30 2525 H 246.978 -2.74541 3.35872 0
M  V30 2526 H 247.649 -4.37918 3.36053 0
M  V30 2527 H 250.125 -3.88161 1.499 0
M  V30 2528 H 249.001 -5.26365 1.55663 0
M  V30 2529 H 249.262 -4.42084 0.0377407 0
M  V30 2530 N 248.321 -0.919034 -1.28029 0
M  V30 2531 C 249.732 -0.600735 -1.76771 0
M  V30 2532 C 250.083 0.884024 -1.75156 0
M  V30 2533 O 249.208 1.69163 -1.34956 0
M  V30 2534 C 249.803 -1.08372 -3.21 0
M  V30 2535 C 248.362 -0.816248 -3.67443 0
M  V30 2536 C 247.509 -1.24742 -2.47658 0
M  V30 2537 H 250.46 -1.09974 -1.14418 0
M  V30 2538 H 250.481 -0.427512 -3.78091 0
M  V30 2539 H 249.993 -2.16437 -3.22144 0
M  V30 2540 H 248.094 0.250968 -3.71754 0
M  V30 2541 H 248.207 -1.4277 -4.57333 0
M  V30 2542 H 246.571 -0.666083 -2.45836 0
M  V30 2543 H 247.354 -2.33653 -2.51518 0
M  V30 2544 N 249.799 1.42003 -0.683588 0
M  V30 2545 C 251.024 2.06265 -0.216647 0
M  V30 2546 C 251.449 1.51059 1.12083 0
M  V30 2547 O 250.807 0.632638 1.69904 0
M  V30 2548 C 250.855 3.60191 -0.171759 0
M  V30 2549 O 249.959 4.03396 0.857069 0
M  V30 2550 H 249.3 0.65502 -0.108834 0
M  V30 2551 H 251.83 1.81982 -0.935077 0
M  V30 2552 H 251.84 4.08 0.0014303 0
M  V30 2553 H 250.515 3.99743 -1.14796 0
M  V30 2554 H 249.092 3.67117 0.654208 0
M  V30 2555 N 251.277 0.427512 1.51691 0
M  V30 2556 C 252.523 -0.142439 2.02299 0
M  V30 2557 C 252.856 -1.43214 1.31162 0
M  V30 2558 O 252.131 -1.89833 0.423511 0
M  V30 2559 C 252.414 -0.371301 3.58181 0
M  V30 2560 C 252.267 0.936358 4.39946 0
M  V30 2561 C 253.586 -1.14542 4.24933 0
M  V30 2562 H 250.705 -0.0502937 0.735282 0
M  V30 2563 H 253.347 0.564584 1.81418 0
M  V30 2564 H 251.497 -0.973559 3.76104 0
M  V30 2565 H 253.169 1.57184 4.33694 0
M  V30 2566 H 251.412 1.5432 4.05423 0
M  V30 2567 H 252.083 0.730388 5.47147 0
M  V30 2568 H 254.559 -0.635362 4.11221 0
M  V30 2569 H 253.435 -1.27431 5.33903 0
M  V30 2570 H 253.696 -2.17093 3.85127 0
M  V30 2571 N 252.755 -1.56801 0.158532 0
M  V30 2572 C 253.985 -2.00568 -0.495583 0
M  V30 2573 C 254.393 -1.03774 -1.58201 0
M  V30 2574 O 253.736 -0.0285797 -1.83678 0
M  V30 2575 C 253.798 -3.40768 -1.14532 0
M  V30 2576 C 253.462 -4.56553 -0.202101 0
M  V30 2577 C 254.459 -5.16714 0.574675 0
M  V30 2578 C 252.144 -5.02197 -0.101648 0
M  V30 2579 C 254.138 -6.20939 1.43924 0
M  V30 2580 C 251.825 -6.06274 0.766508 0
M  V30 2581 C 252.823 -6.65515 1.53555 0
M  V30 2582 O 252.511 -7.67575 2.38922 0
M  V30 2583 H 252.243 -0.662893 -0.13247 0
M  V30 2584 H 254.797 -2.03829 0.253559 0
M  V30 2585 H 253.027 -3.34381 -1.94233 0
M  V30 2586 H 254.716 -3.6857 -1.70033 0
M  V30 2587 H 255.482 -4.82341 0.507167 0
M  V30 2588 H 251.361 -4.55807 -0.689994 0
M  V30 2589 H 254.905 -6.67107 2.03996 0
M  V30 2590 H 250.802 -6.40073 0.835266 0
M  V30 2591 H 251.57 -7.84844 2.32296 0
M  V30 2592 N 254.233 0.115231 -1.57178 0
M  V30 2593 C 255.458 0.840354 -1.89612 0
M  V30 2594 C 255.883 1.72464 -0.750845 0
M  V30 2595 O 255.241 1.78826 0.298478 0
M  V30 2596 C 255.289 1.64654 -3.20814 0
M  V30 2597 O 254.393 2.7538 -3.06985 0
M  V30 2598 H 253.734 0.232158 -0.622092 0
M  V30 2599 H 256.264 0.0964977 -2.04372 0
M  V30 2600 H 256.274 2.03499 -3.53627 0
M  V30 2601 H 254.949 0.997416 -4.03763 0
M  V30 2602 H 253.526 2.3971 -2.85646 0
M  V30 2603 N 255.711 1.52812 0.385517 0
M  V30 2604 C 256.674 1.77188 1.45386 0
M  V30 2605 C 257.674 0.641953 1.4743 0
M  V30 2606 O 258.864 0.910033 1.4854 0
M  V30 2607 C 255.996 1.87582 2.8465 0
M  V30 2608 H 257.189 2.72583 1.25054 0
M  V30 2609 H 254.742 1.43586 0.617467 0
M  V30 2610 H 255.477 0.941849 3.10322 0
M  V30 2611 H 255.262 2.69748 2.84567 0
M  V30 2612 H 256.752 2.08102 3.62054 0
M  V30 2613 N 257.189 -0.644168 1.43834 0
M  V30 2614 C 258.466 -1.40188 1.36406 0
M  V30 2615 C 258.846 -2.11094 0.0163124 0
M  V30 2616 O 258.194 -2.05426 -1.00062 0
M  V30 2617 C 258.404 -2.3791 2.55343 0
M  V30 2618 C 259.752 -3.01637 2.98832 0
M  V30 2619 O 260.776 -2.48237 2.55455 0
M  V30 2620 O 259.635 -3.98477 3.74003 0
M  V30 2621 H 256.729 -0.626773 0.539523 0
M  V30 2622 H 259.275 -0.670317 1.559 0
M  V30 2623 H 258.047 -1.84525 3.4506 0
M  V30 2624 H 257.67 -3.18503 2.37995 0
M  V30 2625 N 258.668 -1.30515 -0.883378 0
M  V30 2626 C 259.598 -1.19607 -2.00541 0
M  V30 2627 C 260.579 -0.086346 -1.69881 0
M  V30 2628 O 261.764 -0.268654 -1.92333 0
M  V30 2629 C 258.894 -0.888758 -3.35736 0
M  V30 2630 C 257.848 -1.95659 -3.8066 0
M  V30 2631 C 257.174 -1.50224 -5.13164 0
M  V30 2632 C 258.474 -3.36788 -3.99213 0
M  V30 2633 H 260.168 -2.13476 -2.09925 0
M  V30 2634 H 257.714 -1.02775 -1.00863 0
M  V30 2635 H 259.667 -0.799094 -4.13754 0
M  V30 2636 H 258.391 0.0856125 -3.26488 0
M  V30 2637 H 257.05 -2.03591 -3.04871 0
M  V30 2638 H 256.698 -0.516092 -5.00345 0
M  V30 2639 H 256.398 -2.2165 -5.44192 0
M  V30 2640 H 257.922 -1.42639 -5.93706 0
M  V30 2641 H 259.336 -3.31605 -4.67665 0
M  V30 2642 H 257.733 -4.06314 -4.41621 0
M  V30 2643 H 258.803 -3.78561 -3.03017 0
M  V30 2644 N 260.146 1.09593 -1.13257 0
M  V30 2645 C 261.371 1.8604 -0.916732 0
M  V30 2646 C 261.796 1.80504 0.529146 0
M  V30 2647 O 261.154 1.18127 1.37534 0
M  V30 2648 C 261.202 3.32017 -1.40703 0
M  V30 2649 O 260.306 4.08141 -0.591153 0
M  V30 2650 H 259.647 0.576943 -0.328683 0
M  V30 2651 H 262.177 1.38405 -1.50682 0
M  V30 2652 H 262.187 3.82865 -1.4099 0
M  V30 2653 H 260.862 3.35361 -2.45979 0
M  V30 2654 H 259.439 3.67084 -0.656005 0
M  V30 2655 N 261.624 0.925811 1.2754 0
M  V30 2656 C 262.534 0.428993 2.30644 0
M  V30 2657 C 263.55 -0.489387 1.66976 0
M  V30 2658 O 264.726 -0.372653 1.97922 0
M  V30 2659 C 261.791 -0.311967 3.45294 0
M  V30 2660 C 260.852 0.641098 4.24486 0
M  V30 2661 C 260.085 -0.0645955 5.33661 0
M  V30 2662 O 260.308 -1.28429 5.55754 0
M  V30 2663 O 259.242 0.606265 5.98839 0
M  V30 2664 H 263.068 1.28504 2.75173 0
M  V30 2665 H 260.653 0.691086 1.32455 0
M  V30 2666 H 262.535 -0.729972 4.15029 0
M  V30 2667 H 261.21 -1.14365 3.02824 0
M  V30 2668 H 260.117 1.10874 3.57292 0
M  V30 2669 H 261.45 1.43995 4.70666 0
M  V30 2670 N 263.102 -1.41638 0.69111 0
M  V30 2671 C 264.349 -2.01299 0.220193 0
M  V30 2672 C 264.677 -1.54715 -1.17871 0
M  V30 2673 O 263.932 -0.747193 -1.80874 0
M  V30 2674 C 264.231 -3.56714 0.221277 0
M  V30 2675 C 263.897 -4.22792 1.56709 0
M  V30 2676 C 262.559 -4.40557 1.93554 0
M  V30 2677 C 264.911 -4.59883 2.45268 0
M  V30 2678 C 262.239 -4.92688 3.18552 0
M  V30 2679 C 264.591 -5.13403 3.69595 0
M  V30 2680 C 263.255 -5.29379 4.06589 0
M  V30 2681 H 262.525 -0.736606 0.0805743 0
M  V30 2682 H 265.172 -1.69598 0.889319 0
M  V30 2683 H 263.477 -3.8818 -0.531391 0
M  V30 2684 H 265.174 -4.00678 -0.160547 0
M  V30 2685 H 261.764 -4.09336 1.2705 0
M  V30 2686 H 265.948 -4.45817 2.18084 0
M  V30 2687 H 261.204 -5.03242 3.47214 0
M  V30 2688 H 265.378 -5.41084 4.38407 0
M  V30 2689 H 263.005 -5.69537 5.03519 0
M  V30 2690 N 264.58 -0.43555 -1.51462 0
M  V30 2691 C 265.826 0.131709 -2.02372 0
M  V30 2692 C 266.159 1.42516 -1.3192 0
M  V30 2693 O 265.434 1.89606 -0.433573 0
M  V30 2694 C 265.717 0.352301 -3.58373 0
M  V30 2695 C 265.57 -0.959676 -4.39443 0
M  V30 2696 C 266.889 1.12286 -4.25535 0
M  V30 2697 H 264.008 0.0463936 -0.735538 0
M  V30 2698 H 266.65 -0.574197 -1.81116 0
M  V30 2699 H 264.8 0.9536 -3.76615 0
M  V30 2700 H 266.472 -1.59482 -4.32855 0
M  V30 2701 H 264.715 -1.56468 -4.04599 0
M  V30 2702 H 265.386 -0.759394 -5.46752 0
M  V30 2703 H 267.862 0.613545 -4.11552 0
M  V30 2704 H 266.738 1.24598 -5.34571 0
M  V30 2705 H 266.999 2.15048 -3.86273 0
M  V30 2706 N 266.058 1.56714 -0.166846 0
M  V30 2707 C 267.305 1.96747 0.479252 0
M  V30 2708 C 267.633 1.05263 1.63554 0
M  V30 2709 O 266.888 0.0858098 1.95512 0
M  V30 2710 C 267.187 3.42889 1.00806 0
M  V30 2711 C 266.853 4.50889 -0.0318574 0
M  V30 2712 C 265.515 4.8015 -0.317675 0
M  V30 2713 C 267.867 5.15949 -0.737956 0
M  V30 2714 C 265.195 5.71772 -1.31506 0
M  V30 2715 C 267.547 6.08647 -1.72429 0
M  V30 2716 C 266.211 6.36277 -2.0176 0
M  V30 2717 H 265.481 0.719949 0.175371 0
M  V30 2718 H 268.128 1.89756 -0.257864 0
M  V30 2719 H 266.433 3.4681 1.82291 0
M  V30 2720 H 268.13 3.71203 1.51689 0
M  V30 2721 H 264.72 4.28128 0.201088 0
M  V30 2722 H 268.904 4.93458 -0.530351 0
M  V30 2723 H 264.16 5.91465 -1.54853 0
M  V30 2724 H 268.334 6.58129 -2.27682 0
M  V30 2725 H 265.961 7.07075 -2.79194 0
M  V30 2726 N 267.536 -0.106894 1.57237 0
M  V30 2727 C 268.499 -1.11466 2.0027 0
M  V30 2728 C 269.499 -1.33623 0.894519 0
M  V30 2729 O 270.689 -1.29935 1.16028 0
M  V30 2730 C 267.821 -2.46646 2.35327 0
M  V30 2731 H 269.014 -0.744516 2.90512 0
M  V30 2732 H 266.567 -0.351576 1.52295 0
M  V30 2733 H 267.302 -2.88558 1.48003 0
M  V30 2734 H 267.087 -2.31915 3.16161 0
M  V30 2735 H 268.577 -3.19151 2.69318 0
M  V30 2736 N 269.014 -1.53014 -0.377408 0
M  V30 2737 C 269.977 -1.77957 -1.44444 0
M  V30 2738 C 270.977 -0.649763 -1.47087 0
M  V30 2739 O 272.167 -0.917897 -1.48055 0
M  V30 2740 C 269.299 -1.89089 -2.83651 0
M  V30 2741 H 270.492 -2.73243 -1.23606 0
M  V30 2742 H 268.045 -1.43912 -0.609844 0
M  V30 2743 H 268.78 -0.958293 -3.09818 0
M  V30 2744 H 268.565 -2.71254 -2.83132 0
M  V30 2745 H 270.055 -2.1002 -3.60945 0
M  V30 2746 N 270.492 0.636531 -1.44174 0
M  V30 2747 C 271.74 1.39343 -1.46383 0
M  V30 2748 C 272.061 1.94766 -0.0955715 0
M  V30 2749 O 271.331 1.75452 0.871395 0
M  V30 2750 H 269.911 0.517199 -0.538994 0
M  V30 2751 H 272.573 0.74957 -1.7991 0
M  V30 2752 H 271.669 2.22746 -2.18611 0
M  V30 2753 N 271.97 1.30982 0.876444 0
M  V30 2754 C 272.9 1.20668 1.99903 0
M  V30 2755 C 273.881 0.095354 1.69833 0
M  V30 2756 O 275.066 0.27885 1.92188 0
M  V30 2757 C 272.196 0.90655 3.3526 0
M  V30 2758 C 271.15 1.97675 3.79617 0
M  V30 2759 C 270.476 1.52943 5.1236 0
M  V30 2760 C 271.776 3.389 3.97422 0
M  V30 2761 H 273.47 2.14586 2.0879 0
M  V30 2762 H 271.016 1.03308 1.00317 0
M  V30 2763 H 272.969 0.821025 4.13324 0
M  V30 2764 H 271.693 -0.0682969 3.26529 0
M  V30 2765 H 270.352 2.05205 3.03787 0
M  V30 2766 H 270 0.54262 5.00065 0
M  V30 2767 H 269.7 2.24532 5.43009 0
M  V30 2768 H 271.224 1.45786 5.92941 0
M  V30 2769 H 272.638 3.34081 4.659 0
M  V30 2770 H 271.035 4.0865 4.3946 0
M  V30 2771 H 272.105 3.80163 3.01006 0
M  V30 2772 N 273.449 -1.08991 1.13837 0
M  V30 2773 C 274.674 -1.85551 0.926585 0
M  V30 2774 C 275.099 -1.80782 -0.519566 0
M  V30 2775 O 274.457 -1.18855 -1.36906 0
M  V30 2776 C 274.505 -3.31266 1.42462 0
M  V30 2777 O 273.609 -4.07822 0.612789 0
M  V30 2778 H 272.95 -0.575192 0.331738 0
M  V30 2779 H 275.48 -1.37604 1.51414 0
M  V30 2780 H 275.49 -3.82112 1.43019 0
M  V30 2781 H 274.165 -3.34052 2.47754 0
M  V30 2782 H 272.742 -3.66731 0.675463 0
M  V30 2783 N 274.927 -0.932562 -1.27047 0
M  V30 2784 C 275.857 -0.452902 -2.29066 0
M  V30 2785 C 276.838 0.489338 -1.62909 0
M  V30 2786 O 278.023 0.393046 -1.90181 0
M  V30 2787 C 275.153 0.290698 -3.46081 0
M  V30 2788 C 274.107 -0.564168 -4.24265 0
M  V30 2789 C 273.433 0.308886 -5.33807 0
M  V30 2790 C 274.733 -1.83112 -4.89149 0
M  V30 2791 H 276.427 -1.30552 -2.69437 0
M  V30 2792 H 273.973 -0.629201 -1.29526 0
M  V30 2793 H 275.926 0.637233 -4.16554 0
M  V30 2794 H 274.65 1.17738 -3.0464 0
M  V30 2795 H 273.309 -0.893477 -3.55545 0
M  V30 2796 H 272.957 1.19467 -4.88607 0
M  V30 2797 H 272.657 -0.259633 -5.87026 0
M  V30 2798 H 274.181 0.650884 -6.07121 0
M  V30 2799 H 275.595 -1.55236 -5.51883 0
M  V30 2800 H 273.992 -2.34353 -5.52448 0
M  V30 2801 H 275.062 -2.54772 -4.12576 0
M  V30 2802 N 276.405 1.4127 -0.698611 0
M  V30 2803 C 277.335 2.33447 -0.049629 0
M  V30 2804 C 278.316 1.51982 0.763898 0
M  V30 2805 O 279.501 1.80509 0.716257 0
M  V30 2806 C 276.631 3.35828 0.885267 0
M  V30 2807 C 275.585 4.27627 0.178613 0
M  V30 2808 C 274.911 5.20406 1.22807 0
M  V30 2809 C 276.211 5.13459 -0.956933 0
M  V30 2810 H 277.905 2.87966 -0.81951 0
M  V30 2811 H 275.451 1.38461 -0.395538 0
M  V30 2812 H 277.404 3.9924 1.34854 0
M  V30 2813 H 276.128 2.79666 1.68685 0
M  V30 2814 H 274.787 3.65643 -0.26466 0
M  V30 2815 H 274.435 4.60558 2.02226 0
M  V30 2816 H 274.135 5.82661 0.760239 0
M  V30 2817 H 275.659 5.86695 1.69179 0
M  V30 2818 H 277.073 5.70421 -0.573805 0
M  V30 2819 H 275.47 5.8467 -1.35205 0
M  V30 2820 H 276.54 4.50443 -1.79524 0
M  V30 2821 N 277.883 0.443576 1.51229 0
M  V30 2822 C 279.111 -0.11929 2.06556 0
M  V30 2823 C 279.526 -1.35921 1.31038 0
M  V30 2824 O 278.883 -1.78675 0.371704 0
M  V30 2825 C 278.934 -0.435228 3.5887 0
M  V30 2826 O 278.655 0.755486 4.31537 0
M  V30 2827 C 280.156 -1.04808 4.30732 0
M  V30 2828 H 277.376 -0.0051584 0.67098 0
M  V30 2829 H 279.92 0.624453 1.94733 0
M  V30 2830 H 278.075 -1.12887 3.70588 0
M  V30 2831 H 278.489 0.483491 5.22267 0
M  V30 2832 H 279.963 -1.2191 5.3837 0
M  V30 2833 H 280.44 -2.03081 3.89429 0
M  V30 2834 H 281.046 -0.393637 4.23474 0
M  V30 2835 N 279.361 -1.56624 0.175154 0
M  V30 2836 C 280.309 -2.19468 -0.770495 0
M  V30 2837 C 281.303 -1.15985 -1.23466 0
M  V30 2838 O 282.509 -1.34176 -1.19987 0
M  V30 2839 H 278.884 -0.703095 -0.266761 0
M  V30 2840 H 280.855 -2.97613 -0.216542 0
M  V30 2841 C 279.604 -2.85264 -1.98796 0
M  V30 2842 H 278.927 -3.64623 -1.63983 0
M  V30 2843 H 280.367 -3.327 -2.62843 0
M  V30 2844 C 278.826 -1.85239 -2.81404 0
M  V30 2845 O 279.356 -1.34024 -3.78682 0
M  V30 2846 N 277.562 -1.53911 -2.46495 0
M  V30 2847 H 277.109 -1.95751 -1.67449 0
M  V30 2848 H 277.067 -0.872382 -3.02054 0
M  V30 2849 N 280.839 0.0985539 -1.57292 0
M  V30 2850 C 281.749 1.13824 -2.05137 0
M  V30 2851 C 282.765 1.44076 -0.975604 0
M  V30 2852 O 283.941 1.54786 -1.28853 0
M  V30 2853 C 281.006 2.43969 -2.46333 0
M  V30 2854 C 280.067 2.2093 -3.68087 0
M  V30 2855 C 279.3 3.44869 -4.0731 0
M  V30 2856 O 279.523 4.52972 -3.46659 0
M  V30 2857 O 278.457 3.34661 -5.00285 0
M  V30 2858 H 282.283 0.761881 -2.93988 0
M  V30 2859 H 279.868 0.310818 -1.46131 0
M  V30 2860 H 281.75 3.20609 -2.73473 0
M  V30 2861 H 280.425 2.81038 -1.60621 0
M  V30 2862 H 279.332 1.42081 -3.46069 0
M  V30 2863 H 280.665 1.88755 -4.54568 0
M  V30 2864 N 282.317 1.53212 0.369288 0
M  V30 2865 C 283.733 1.42902 0.710712 0
M  V30 2866 C 283.933 0.565135 1.93413 0
M  V30 2867 O 282.989 0.0461484 2.52458 0
M  V30 2868 C 284.302 2.86042 0.927382 0
M  V30 2869 C 285.85 2.9565 1.02762 0
M  V30 2870 C 286.325 4.39843 1.27679 0
M  V30 2871 N 287.816 4.43256 1.34457 0
M  V30 2872 C 288.551 5.51929 1.55439 0
M  V30 2873 N 288.047 6.70655 1.73762 0
M  V30 2874 N 289.84 5.39502 1.57779 0
M  V30 2875 H 281.991 2.07888 -0.435457 0
M  V30 2876 H 284.254 0.938661 -0.132739 0
M  V30 2877 H 283.96 3.51557 0.100287 0
M  V30 2878 H 283.834 3.29472 1.83653 0
M  V30 2879 H 286.221 2.30291 1.84527 0
M  V30 2880 H 286.302 2.5562 0.0959504 0
M  V30 2881 H 285.946 5.05774 0.464175 0
M  V30 2882 H 285.876 4.77443 2.22162 0
M  V30 2883 H 288.367 3.5769 1.21926 0
M  V30 2884 H 288.68 7.49248 1.89335 0
M  V30 2885 H 287.025 6.73648 1.70948 0
M  V30 2886 H 290.216 4.45713 1.43029 0
M  V30 2887 H 290.389 6.2426 1.7379 0
M  V30 2888 N 283.795 -0.628877 1.44509 0
M  V30 2889 C 285.206 -1.21054 1.42137 0
M  V30 2890 C 285.557 -1.95715 0.137881 0
M  V30 2891 O 284.682 -2.02554 -0.761645 0
M  V30 2892 C 285.277 -2.20189 2.57493 0
M  V30 2893 C 283.836 -2.73777 2.58308 0
M  V30 2894 C 282.983 -1.48813 2.33987 0
M  V30 2895 H 285.934 -0.41942 1.53057 0
M  V30 2896 H 285.955 -3.02833 2.30375 0
M  V30 2897 H 285.467 -1.6582 3.50892 0
M  V30 2898 H 283.568 -3.32142 1.68856 0
M  V30 2899 H 283.681 -3.19662 3.56865 0
M  V30 2900 H 282.045 -1.77024 1.83124 0
M  V30 2901 H 282.828 -0.963442 3.29504 0
M  V30 2902 N 285.273 -1.31445 -0.869486 0
M  V30 2903 C 286.55 -1.11795 -1.60503 0
M  V30 2904 C 286.93 0.327168 -2.08549 0
M  V30 2905 O 286.278 1.32135 -1.8642 0
M  V30 2906 C 286.488 -2.13258 -2.76265 0
M  V30 2907 C 287.836 -2.45805 -3.46215 0
M  V30 2908 O 288.86 -2.11688 -2.86473 0
M  V30 2909 O 287.719 -3.04228 -4.5399 0
M  V30 2910 H 284.813 -0.430421 -0.706163 0
M  V30 2911 H 287.359 -1.42925 -0.914907 0
M  V30 2912 H 286.131 -3.10461 -2.3818 0
M  V30 2913 H 285.754 -1.83035 -3.52964 0
M  V30 2914 N 286.751 1.08385 -1.14413 0
M  V30 2915 C 287.998 1.80776 -0.912482 0
M  V30 2916 C 288.326 1.86236 0.560934 0
M  V30 2917 O 287.581 1.33431 1.43159 0
M  V30 2918 C 287.88 3.26273 -1.45879 0
M  V30 2919 C 287.546 3.4093 -2.95089 0
M  V30 2920 C 286.208 3.44638 -3.35824 0
M  V30 2921 C 288.56 3.44591 -3.91033 0
M  V30 2922 C 285.888 3.49597 -4.71167 0
M  V30 2923 C 288.24 3.51086 -5.26233 0
M  V30 2924 C 286.904 3.53067 -5.6648 0
M  V30 2925 H 286.174 0.661507 -0.333901 0
M  V30 2926 H 288.821 1.27613 -1.42784 0
M  V30 2927 H 287.126 3.82146 -0.864376 0
M  V30 2928 H 288.823 3.80839 -1.2555 0
M  V30 2929 H 285.413 3.38736 -2.62594 0
M  V30 2930 H 289.597 3.40957 -3.60641 0
M  V30 2931 H 284.853 3.49424 -5.0171 0
M  V30 2932 H 289.027 3.52864 -6.00383 0
M  V30 2933 H 286.654 3.56662 -6.71339 0
M  V30 2934 N 288.23 0.939286 1.26551 0
M  V30 2935 C 289.163 0.391702 2.24813 0
M  V30 2936 C 290.141 -0.518421 1.54114 0
M  V30 2937 O 291.325 -0.456299 1.82894 0
M  V30 2938 C 288.452 -0.437382 3.35864 0
M  V30 2939 C 287.498 0.410946 4.24516 0
M  V30 2940 S 288.331 1.83372 5.03125 0
M  V30 2941 C 289.487 1.01264 6.17654 0
M  V30 2942 H 289.72 1.22448 2.70913 0
M  V30 2943 H 287.253 0.742269 1.35387 0
M  V30 2944 H 289.211 -0.909837 4.0029 0
M  V30 2945 H 287.872 -1.24482 2.8838 0
M  V30 2946 H 287.065 -0.224191 5.03501 0
M  V30 2947 H 286.667 0.818014 3.64945 0
M  V30 2948 H 288.959 0.254023 6.77024 0
M  V30 2949 H 289.902 1.77589 6.85469 0
M  V30 2950 H 290.31 0.549532 5.61819 0
M  V30 2951 N 289.708 -1.40897 0.706093 0
M  V30 2952 C 290.938 -2.05075 0.250523 0
M  V30 2953 C 291.346 -1.53275 -1.10921 0
M  V30 2954 O 290.689 -0.680281 -1.7064 0
M  V30 2955 C 290.751 -3.59219 0.142178 0
M  V30 2956 C 290.415 -4.33864 1.43566 0
M  V30 2957 C 291.412 -4.62448 2.37566 0
M  V30 2958 C 289.097 -4.72946 1.69195 0
M  V30 2959 C 291.091 -5.29088 3.5545 0
M  V30 2960 C 288.778 -5.3932 2.87362 0
M  V30 2961 C 289.776 -5.6732 3.80312 0
M  V30 2962 O 289.464 -6.32325 4.96408 0
M  V30 2963 H 289.196 -0.666645 0.112074 0
M  V30 2964 H 291.75 -1.81467 0.962239 0
M  V30 2965 H 289.98 -3.81609 -0.6254 0
M  V30 2966 H 291.669 -4.0495 -0.277584 0
M  V30 2967 H 292.435 -4.32727 2.19027 0
M  V30 2968 H 288.314 -4.50527 0.977042 0
M  V30 2969 H 291.858 -5.50859 4.28018 0
M  V30 2970 H 287.755 -5.68461 3.05814 0
M  V30 2971 H 288.523 -6.50821 4.9636 0
M  V30 2972 N 291.186 -0.45159 -1.50991 0
M  V30 2973 C 292.116 0.342898 -2.30969 0
M  V30 2974 C 293.097 1.00815 -1.37005 0
M  V30 2975 O 294.282 1.00907 -1.65926 0
M  V30 2976 C 291.412 1.43637 -3.16205 0
M  V30 2977 C 290.366 0.893818 -4.18563 0
M  V30 2978 C 289.692 2.08411 -4.92411 0
M  V30 2979 C 290.992 -0.0815568 -5.22236 0
M  V30 2980 H 292.686 -0.324556 -2.97636 0
M  V30 2981 H 290.232 -0.157531 -1.43136 0
M  V30 2982 H 292.185 1.9995 -3.70942 0
M  V30 2983 H 290.909 2.13232 -2.47386 0
M  V30 2984 H 289.568 0.352798 -3.64898 0
M  V30 2985 H 289.216 2.76658 -4.20082 0
M  V30 2986 H 288.916 1.72741 -5.61636 0
M  V30 2987 H 290.44 2.65251 -5.49976 0
M  V30 2988 H 291.854 0.391742 -5.7196 0
M  V30 2989 H 290.251 -0.351551 -5.99069 0
M  V30 2990 H 291.321 -1.01374 -4.74185 0
M  V30 2991 N 292.664 1.56529 -0.183458 0
M  V30 2992 C 293.889 2.02064 0.467428 0
M  V30 2993 C 294.314 1.06282 1.55196 0
M  V30 2994 O 293.672 0.0443565 1.81246 0
M  V30 2995 C 293.72 3.46122 1.01153 0
M  V30 2996 O 292.824 3.53437 2.12499 0
M  V30 2997 H 292.165 0.654726 0.110588 0
M  V30 2998 H 294.695 2.02521 -0.290917 0
M  V30 2999 H 294.705 3.85676 1.33108 0
M  V30 3000 H 293.38 4.15331 0.217533 0
M  V30 3001 H 291.957 3.2575 1.81497 0
M  V30 3002 N 294.142 -0.090211 1.57342 0
M  V30 3003 C 295.37 -0.806224 1.90546 0
M  V30 3004 C 295.785 -1.72041 0.777644 0
M  V30 3005 O 295.142 -1.80778 -0.250103 0
M  V30 3006 C 295.193 -1.61546 3.23396 0
M  V30 3007 O 294.914 -0.738043 4.31839 0
M  V30 3008 C 296.415 -2.4341 3.70495 0
M  V30 3009 H 293.635 -0.230256 0.630257 0
M  V30 3010 H 296.179 -0.0659843 2.04394 0
M  V30 3011 H 294.334 -2.30816 3.11131 0
M  V30 3012 H 294.748 -1.29901 5.08159 0
M  V30 3013 H 296.222 -2.95676 4.66133 0
M  V30 3014 H 296.699 -3.22098 2.98579 0
M  V30 3015 H 297.305 -1.79331 3.85643 0
M  V30 3016 N 295.62 -1.53406 -0.361157 0
M  V30 3017 C 296.848 -1.73717 -1.12383 0
M  V30 3018 C 297.263 -0.468161 -1.82904 0
M  V30 3019 O 296.62 0.559198 -1.73722 0
M  V30 3020 C 296.671 -2.90558 -2.15078 0
M  V30 3021 O 296.392 -4.12549 -1.47428 0
M  V30 3022 C 297.893 -3.22777 -3.03858 0
M  V30 3023 H 295.113 -0.580896 -0.335858 0
M  V30 3024 H 297.657 -2.00167 -0.418728 0
M  V30 3025 H 295.812 -2.66489 -2.8118 0
M  V30 3026 H 296.226 -4.78009 -2.15887 0
M  V30 3027 H 297.7 -4.07927 -3.71887 0
M  V30 3028 H 298.177 -2.38329 -3.68912 0
M  V30 3029 H 298.783 -3.48787 -2.43367 0
M  V30 3030 N 297.098 0.621204 -1.44841 0
M  V30 3031 C 298.375 1.38 -1.38619 0
M  V30 3032 C 298.755 2.11041 -0.0498935 0
M  V30 3033 O 298.103 2.06992 0.967816 0
M  V30 3034 C 298.313 2.33817 -2.59096 0
M  V30 3035 C 299.661 2.96844 -3.03593 0
M  V30 3036 O 300.685 2.44141 -2.59371 0
M  V30 3037 O 299.544 3.92476 -3.80296 0
M  V30 3038 H 296.638 0.61811 -0.549426 0
M  V30 3039 H 299.184 0.645429 -1.56947 0
M  V30 3040 H 297.956 1.79012 -3.47952 0
M  V30 3041 H 297.579 3.14676 -2.43032 0
M  V30 3042 N 298.576 1.31904 0.862503 0
M  V30 3043 C 299.806 1.24817 1.64634 0
M  V30 3044 C 300.214 -0.187579 1.88268 0
M  V30 3045 O 299.557 -1.13253 1.44635 0
M  V30 3046 C 299.619 1.92996 3.03303 0
M  V30 3047 C 299.283 3.42336 3.02746 0
M  V30 3048 C 300.28 4.37956 2.80162 0
M  V30 3049 C 297.965 3.84147 3.2363 0
M  V30 3050 C 299.959 5.73361 2.78453 0
M  V30 3051 C 297.646 5.19663 3.21549 0
M  V30 3052 C 298.644 6.14081 2.98988 0
M  V30 3053 O 298.332 7.47118 2.96766 0
M  V30 3054 H 298.064 0.432222 0.519769 0
M  V30 3055 H 300.618 1.7445 1.08427 0
M  V30 3056 H 298.848 1.37922 3.61268 0
M  V30 3057 H 300.537 1.79723 3.63943 0
M  V30 3058 H 301.303 4.06981 2.63802 0
M  V30 3059 H 297.182 3.11083 3.40218 0
M  V30 3060 H 300.726 6.4703 2.60763 0
M  V30 3061 H 296.623 5.5027 3.37451 0
M  V30 3062 H 297.391 7.56382 3.12775 0
M  V30 3063 N 300.054 -1.07777 1.14986 0
M  V30 3064 C 301.3 -1.80557 0.923422 0
M  V30 3065 C 301.633 -1.86298 -0.548337 0
M  V30 3066 O 300.908 -1.34354 -1.40639 0
M  V30 3067 C 301.191 -3.25839 1.53299 0
M  V30 3068 C 301.044 -3.28269 3.07505 0
M  V30 3069 C 302.363 -4.22991 1.21518 0
M  V30 3070 H 299.482 -0.655493 0.336894 0
M  V30 3071 H 302.124 -1.26144 1.42083 0
M  V30 3072 H 300.274 -3.72306 1.10999 0
M  V30 3073 H 301.946 -2.90079 3.58681 0
M  V30 3074 H 300.189 -2.67355 3.4162 0
M  V30 3075 H 300.86 -4.30691 3.45266 0
M  V30 3076 H 303.336 -3.84894 1.581 0
M  V30 3077 H 302.212 -5.22945 1.66793 0
M  V30 3078 H 302.473 -4.41904 0.131505 0
M  V30 3079 N 301.532 -0.945985 -1.26051 0
M  V30 3080 C 302.464 -0.416662 -2.25381 0
M  V30 3081 C 303.477 0.462712 -1.56086 0
M  V30 3082 O 304.666 0.272383 -1.7641 0
M  V30 3083 C 301.766 0.419812 -3.3629 0
M  V30 3084 C 300.939 -0.444531 -4.35135 0
M  V30 3085 C 299.998 0.332305 -5.2515 0
M  V30 3086 O 299.024 -0.266324 -5.68577 0
M  V30 3087 N 300.226 1.62763 -5.57215 0
M  V30 3088 H 302.991 -1.27059 -2.71433 0
M  V30 3089 H 300.552 -0.815392 -1.39868 0
M  V30 3090 H 302.544 0.947013 -3.93464 0
M  V30 3091 H 301.114 1.17456 -2.89694 0
M  V30 3092 H 300.334 -1.15291 -3.76964 0
M  V30 3093 H 301.622 -1.03478 -4.98166 0
M  V30 3094 H 301.02 2.13603 -5.23823 0
M  V30 3095 H 299.577 2.10097 -6.17011 0
M  V30 3096 N 303.011 1.40521 -0.713556 0
M  V30 3097 C 303.961 2.27971 -0.036165 0
M  V30 3098 C 304.945 1.43151 0.734623 0
M  V30 3099 O 306.137 1.66261 0.607158 0
M  V30 3100 C 303.266 3.31661 0.886331 0
M  V30 3101 C 302.352 4.23955 0.110836 0
M  V30 3102 N 302.743 4.97641 -0.904847 0
M  V30 3103 C 301.041 4.44674 0.343692 0
M  V30 3104 C 301.742 5.65322 -1.37064 0
M  V30 3105 N 300.718 5.39162 -0.693168 0
M  V30 3106 H 304.52 2.82384 -0.814645 0
M  V30 3107 H 302.034 1.52948 -0.545963 0
M  V30 3108 H 304.031 3.93154 1.38692 0
M  V30 3109 H 302.691 2.78808 1.66421 0
M  V30 3110 H 303.702 5.01689 -1.28563 0
M  V30 3111 H 300.379 4.02801 1.09805 0
M  V30 3112 H 301.769 6.34359 -2.21447 0
M  V30 3113 N 304.489 0.459591 1.5075 0
M  V30 3114 C 305.436 -0.340524 2.28274 0
M  V30 3115 C 306.406 -0.997371 1.32822 0
M  V30 3116 O 307.591 -1.01202 1.61749 0
M  V30 3117 C 304.731 -1.42317 3.14388 0
M  V30 3118 C 303.844 -0.782251 4.24859 0
M  V30 3119 C 302.979 -1.84182 4.98247 0
M  V30 3120 C 302.018 -1.18053 6.00608 0
M  V30 3121 N 301.155 -2.18244 6.67319 0
M  V30 3122 H 305.995 0.326899 2.96202 0
M  V30 3123 H 303.532 0.173057 1.46078 0
M  V30 3124 H 305.49 -2.06241 3.62658 0
M  V30 3125 H 304.12 -2.05992 2.4853 0
M  V30 3126 H 303.172 -0.0307404 3.80388 0
M  V30 3127 H 304.484 -0.259663 4.98124 0
M  V30 3128 H 303.638 -2.55714 5.50177 0
M  V30 3129 H 302.377 -2.39819 4.24662 0
M  V30 3130 H 301.382 -0.450776 5.47949 0
M  V30 3131 H 302.607 -0.631202 6.7616 0
M  V30 3132 H 300.553 -2.72919 5.96533 0
M  V30 3133 H 300.47 -1.70938 7.36421 0
M  V30 3134 H 301.738 -2.89191 7.23871 0
M  V30 3135 N 305.967 -1.56429 0.191757 0
M  V30 3136 C 306.917 -2.15548 -0.743184 0
M  V30 3137 C 307.901 -1.09531 -1.17863 0
M  V30 3138 O 309.093 -1.35602 -1.13759 0
M  V30 3139 C 306.222 -2.81577 -1.96391 0
M  V30 3140 C 305.308 -3.9478 -1.54951 0
M  V30 3141 N 305.699 -4.98677 -0.845876 0
M  V30 3142 C 303.997 -4.06319 -1.83905 0
M  V30 3143 C 304.698 -5.78183 -0.638724 0
M  V30 3144 N 303.674 -5.30495 -1.18643 0
M  V30 3145 H 307.476 -2.9324 -0.196839 0
M  V30 3146 H 304.99 -1.62398 -0.0081603 0
M  V30 3147 H 306.987 -3.22321 -2.64415 0
M  V30 3148 H 305.647 -2.05371 -2.51501 0
M  V30 3149 H 306.658 -5.15464 -0.501704 0
M  V30 3150 H 303.335 -3.41238 -2.40548 0
M  V30 3151 H 304.725 -6.71851 -0.0807929 0
M  V30 3152 N 307.445 0.0818655 -1.57387 0
M  V30 3153 C 308.408 1.08265 -2.02018 0
M  V30 3154 C 309.408 1.32183 -0.915664 0
M  V30 3155 O 310.598 1.28073 -1.18081 0
M  V30 3156 C 307.73 2.42871 -2.39221 0
M  V30 3157 H 308.923 0.698204 -2.91659 0
M  V30 3158 H 306.476 0.327303 -1.52835 0
M  V30 3159 H 307.211 2.86167 -1.52575 0
M  V30 3160 H 306.996 2.26855 -3.19811 0
M  V30 3161 H 308.486 3.14826 -2.74362 0
M  V30 3162 N 308.923 1.53595 0.353017 0
M  V30 3163 C 310.334 1.61937 0.929153 0
M  V30 3164 C 310.685 0.494686 1.89861 0
M  V30 3165 O 309.81 -0.377017 2.1309 0
M  V30 3166 C 310.405 2.93526 1.69199 0
M  V30 3167 C 308.964 3.04161 2.21727 0
M  V30 3168 C 308.111 2.57322 1.03348 0
M  V30 3169 H 311.062 1.58155 0.131431 0
M  V30 3170 H 311.083 2.82034 2.55416 0
M  V30 3171 H 310.595 3.75362 0.986144 0
M  V30 3172 H 308.696 2.26938 2.95516 0
M  V30 3173 H 308.809 4.09465 2.48748 0
M  V30 3174 H 307.173 2.12499 1.40414 0
M  V30 3175 H 307.956 3.41588 0.342428 0
M  V30 3176 N 310.401 -0.613514 1.45168 0
M  V30 3177 C 311.649 -1.36997 1.48581 0
M  V30 3178 C 311.97 -1.94589 0.126545 0
M  V30 3179 O 311.24 -1.76816 -0.843372 0
M  V30 3180 H 309.82 -0.508558 0.547154 0
M  V30 3181 H 312.482 -0.720853 1.81079 0
M  V30 3182 H 311.578 -2.1924 2.22127 0
M  V30 3183 N 311.879 -1.3236 -0.855495 0
M  V30 3184 C 313.107 -1.2587 -1.64208 0
M  V30 3185 C 313.522 0.173457 -1.88002 0
M  V30 3186 O 312.879 1.11027 -1.44842 0
M  V30 3187 C 312.93 -2.01424 -3.00184 0
M  V30 3188 O 312.651 -3.39051 -2.77445 0
M  V30 3189 C 314.152 -2.01948 -3.94629 0
M  V30 3190 H 311.372 -0.434318 -0.511477 0
M  V30 3191 H 313.916 -1.74469 -1.0668 0
M  V30 3192 H 312.071 -1.56549 -3.5436 0
M  V30 3193 H 312.485 -3.77711 -3.63916 0
M  V30 3194 H 313.959 -2.59297 -4.87308 0
M  V30 3195 H 314.436 -1.00554 -4.27534 0
M  V30 3196 H 315.042 -2.46767 -3.4639 0
M  V30 3197 N 313.357 1.07166 -1.15556 0
M  V30 3198 C 314.768 1.6127 -0.940693 0
M  V30 3199 C 315.119 1.89251 0.517551 0
M  V30 3200 O 314.244 1.65937 1.38903 0
M  V30 3201 C 314.839 2.92993 -1.7012 0
M  V30 3202 C 313.398 3.43832 -1.53156 0
M  V30 3203 C 312.545 2.1786 -1.71558 0
M  V30 3204 H 315.496 0.90229 -1.30554 0
M  V30 3205 H 315.517 3.62007 -1.17181 0
M  V30 3206 H 315.029 2.72596 -2.76248 0
M  V30 3207 H 313.13 3.69307 -0.494294 0
M  V30 3208 H 313.243 4.19747 -2.30975 0
M  V30 3209 H 311.607 2.2765 -1.14225 0
M  V30 3210 H 312.39 1.99956 -2.79056 0
M  V30 3211 N 314.835 0.952656 1.25548 0
M  V30 3212 C 315.745 0.47782 2.29682 0
M  V30 3213 C 316.761 -0.453859 1.67977 0
M  V30 3214 O 317.937 -0.330587 1.98668 0
M  V30 3215 C 315.002 -0.238655 3.45878 0
M  V30 3216 C 314.063 0.730994 4.23031 0
M  V30 3217 C 313.296 0.0486165 5.33678 0
M  V30 3218 O 313.519 -1.16612 5.58353 0
M  V30 3219 O 312.453 0.733152 5.97418 0
M  V30 3220 H 316.279 1.34312 2.72386 0
M  V30 3221 H 313.864 0.719026 1.30959 0
M  V30 3222 H 315.746 -0.641774 4.16484 0
M  V30 3223 H 314.421 -1.07916 3.05181 0
M  V30 3224 H 313.328 1.18428 3.5486 0
M  V30 3225 H 314.661 1.53946 4.67506 0
M  V30 3226 N 316.313 -1.40141 0.720998 0
M  V30 3227 C 317.276 -2.29058 0.0805834 0
M  V30 3228 C 318.276 -1.45632 -0.681758 0
M  V30 3229 O 319.466 -1.6648 -0.512856 0
M  V30 3230 C 316.598 -3.28925 -0.895593 0
M  V30 3231 H 317.791 -2.87191 0.863793 0
M  V30 3232 H 315.344 -1.48553 0.485975 0
M  V30 3233 H 316.079 -2.75822 -1.70566 0
M  V30 3234 H 315.864 -3.90519 -0.351766 0
M  V30 3235 H 317.354 -3.95494 -1.34069 0
M  V30 3236 N 317.792 -0.46758 -1.50504 0
M  V30 3237 C 318.74 0.342482 -2.30065 0
M  V30 3238 C 319.734 0.993596 -1.37201 0
M  V30 3239 O 320.94 0.925102 -1.54408 0
M  V30 3240 H 317.315 0.129283 -0.740803 0
M  V30 3241 H 319.286 -0.34899 -2.96352 0
M  V30 3242 C 318.035 1.4139 -3.17654 0
M  V30 3243 H 317.358 0.922264 -3.89017 0
M  V30 3244 H 318.798 1.95335 -3.76325 0
M  V30 3245 C 317.257 2.4139 -2.35016 0
M  V30 3246 O 317.787 3.46586 -2.03079 0
M  V30 3247 N 315.993 2.13021 -1.97662 0
M  V30 3248 H 315.54 1.27499 -2.23834 0
M  V30 3249 H 315.498 2.80164 -1.42673 0
M  V30 3250 N 319.27 1.56325 -0.20005 0
M  V30 3251 C 320.233 2.18084 0.705132 0
M  V30 3252 C 321.233 1.13666 1.1374 0
M  V30 3253 O 322.423 1.39023 1.04968 0
M  V30 3254 C 319.555 2.78689 1.96329 0
M  V30 3255 H 320.748 2.99435 0.167023 0
M  V30 3256 H 318.301 1.56221 0.0495725 0
M  V30 3257 H 319.036 2.0115 2.5438 0
M  V30 3258 H 318.821 3.55133 1.66202 0
M  V30 3259 H 320.311 3.26096 2.60866 0
M  V30 3260 N 320.748 -0.0735177 1.57428 0
M  V30 3261 C 321.995 -0.772999 1.87166 0
M  V30 3262 C 322.323 -1.77665 0.791551 0
M  V30 3263 O 321.578 -1.94541 -0.212636 0
M  V30 3264 C 321.877 -1.51799 3.23561 0
M  V30 3265 C 321.543 -0.654484 4.46125 0
M  V30 3266 C 320.205 -0.416511 4.79394 0
M  V30 3267 C 322.557 -0.0555862 5.2117 0
M  V30 3268 C 319.885 0.429869 5.85123 0
M  V30 3269 C 322.237 0.778239 6.27795 0
M  V30 3270 C 320.901 1.0261 6.59566 0
M  V30 3271 H 320.171 -0.282861 0.684888 0
M  V30 3272 H 322.818 -0.0338272 1.9147 0
M  V30 3273 H 321.123 -2.32932 3.1504 0
M  V30 3274 H 322.82 -2.06397 3.43804 0
M  V30 3275 H 319.41 -0.850091 4.20085 0
M  V30 3276 H 323.594 -0.226558 4.95783 0
M  V30 3277 H 318.85 0.630665 6.08139 0
M  V30 3278 H 323.024 1.24906 6.85107 0
M  V30 3279 H 320.651 1.68371 7.4132 0
M  V30 3280 N 322.226 -1.5378 -0.344866 0
M  V30 3281 C 323.456 -1.74646 -1.10374 0
M  V30 3282 C 323.864 -0.48491 -1.8288 0
M  V30 3283 O 323.207 0.553062 -1.75177 0
M  V30 3284 C 323.269 -2.87145 -2.16306 0
M  V30 3285 C 322.933 -4.26795 -1.63386 0
M  V30 3286 C 323.93 -5.08412 -1.08688 0
M  V30 3287 C 321.615 -4.73276 -1.68272 0
M  V30 3288 C 323.609 -6.34609 -0.595792 0
M  V30 3289 C 321.296 -5.99446 -1.18776 0
M  V30 3290 C 322.294 -6.79946 -0.645215 0
M  V30 3291 O 321.982 -8.03745 -0.157626 0
M  V30 3292 H 321.714 -0.587112 -0.335075 0
M  V30 3293 H 324.268 -2.01403 -0.403252 0
M  V30 3294 H 322.498 -2.55909 -2.89909 0
M  V30 3295 H 324.187 -2.95992 -2.77747 0
M  V30 3296 H 324.953 -4.73666 -1.04236 0
M  V30 3297 H 320.832 -4.10677 -2.09442 0
M  V30 3298 H 324.376 -6.97389 -0.171654 0
M  V30 3299 H 320.273 -6.33687 -1.22928 0
M  V30 3300 H 321.041 -8.18038 -0.275037 0
M  V30 3301 N 323.704 0.605807 -1.45491 0
M  V30 3302 C 324.667 1.69836 -1.5391 0
M  V30 3303 C 325.667 1.55261 -0.418424 0
M  V30 3304 O 326.857 1.60296 -0.681965 0
M  V30 3305 C 323.989 3.09117 -1.43734 0
M  V30 3306 H 325.182 1.63738 -2.51257 0
M  V30 3307 H 322.735 0.821689 -1.32959 0
M  V30 3308 H 323.47 3.20791 -0.475788 0
M  V30 3309 H 323.255 3.21104 -2.25021 0
M  V30 3310 H 324.745 3.88696 -1.52661 0
M  V30 3311 N 325.182 1.32811 0.848464 0
M  V30 3312 C 326.115 1.16601 1.96162 0
M  V30 3313 C 327.093 0.0638855 1.62474 0
M  V30 3314 O 328.277 0.224348 1.8716 0
M  V30 3315 C 325.404 0.786333 3.29446 0
M  V30 3316 C 324.45 1.89459 3.8211 0
M  V30 3317 S 325.283 3.50395 4.04949 0
M  V30 3318 C 326.439 3.14413 5.41198 0
M  V30 3319 H 326.672 2.10832 2.09612 0
M  V30 3320 H 324.205 1.17543 1.00115 0
M  V30 3321 H 326.163 0.574044 4.06466 0
M  V30 3322 H 324.824 -0.137218 3.138 0
M  V30 3323 H 324.017 1.58207 4.78526 0
M  V30 3324 H 323.619 2.06304 3.11953 0
M  V30 3325 H 325.911 2.64642 6.23675 0
M  V30 3326 H 326.854 4.09874 5.77416 0
M  V30 3327 H 327.262 2.51266 5.05495 0
M  V30 3328 N 326.66 -1.06551 1.16123 0
M  V30 3329 C 327.593 -2.13382 0.80892 0
M  V30 3330 C 328.571 -1.61128 -0.21827 0
M  V30 3331 O 329.755 -1.88219 -0.102952 0
M  V30 3332 C 326.882 -3.38083 0.204303 0
M  V30 3333 C 325.928 -4.09133 1.20469 0
M  V30 3334 S 326.761 -4.5948 2.75024 0
M  V30 3335 C 327.917 -5.87446 2.16005 0
M  V30 3336 H 328.15 -2.42937 1.71373 0
M  V30 3337 H 325.683 -1.18947 0.984428 0
M  V30 3338 H 327.641 -4.10268 -0.138081 0
M  V30 3339 H 326.302 -3.0669 -0.678234 0
M  V30 3340 H 325.495 -4.98685 0.730019 0
M  V30 3341 H 325.097 -3.4295 1.49202 0
M  V30 3342 H 327.389 -6.60065 1.5271 0
M  V30 3343 H 328.332 -6.39639 3.03756 0
M  V30 3344 H 328.74 -5.41354 1.59989 0
M  V30 3345 N 328.138 -0.959301 -1.25041 0
M  V30 3346 C 329.415 -0.533805 -1.88175 0
M  V30 3347 C 329.795 0.988994 -1.865 0
M  V30 3348 O 329.143 1.85677 -1.33177 0
M  V30 3349 C 329.353 -1.11575 -3.30684 0
M  V30 3350 C 330.701 -1.19548 -4.07423 0
M  V30 3351 O 331.725 -1.06765 -3.39823 0
M  V30 3352 O 330.584 -1.39656 -5.28354 0
M  V30 3353 H 327.678 -0.176772 -0.807887 0
M  V30 3354 H 330.224 -1.05303 -1.33076 0
M  V30 3355 H 328.996 -2.15884 -3.26358 0
M  V30 3356 H 328.619 -0.580059 -3.93346 0
M  V30 3357 N 329.616 1.39756 -0.72842 0
M  V30 3358 C 330.841 2.05472 -0.282159 0
M  V30 3359 C 331.266 1.54549 1.07221 0
M  V30 3360 O 330.624 0.686372 1.67805 0
M  V30 3361 C 330.672 3.59462 -0.286264 0
M  V30 3362 O 329.776 4.05918 0.728298 0
M  V30 3363 H 329.117 0.651226 -0.129618 0
M  V30 3364 H 331.647 1.78915 -0.992499 0
M  V30 3365 H 331.657 4.07798 -0.128373 0
M  V30 3366 H 330.332 3.95889 -1.27456 0
M  V30 3367 H 328.909 3.69012 0.537081 0
M  V30 3368 N 331.094 0.475555 1.50254 0
M  V30 3369 C 332.324 -0.0753399 2.06463 0
M  V30 3370 C 332.732 -1.33661 1.33908 0
M  V30 3371 O 332.075 -1.79219 0.403257 0
M  V30 3372 C 332.137 -0.424921 3.5698 0
M  V30 3373 C 331.801 0.734965 4.51051 0
M  V30 3374 C 332.798 1.61827 4.94073 0
M  V30 3375 C 330.483 0.926557 4.9368 0
M  V30 3376 C 332.477 2.67754 5.78434 0
M  V30 3377 C 330.164 1.98904 5.77824 0
M  V30 3378 C 331.162 2.8629 6.20103 0
M  V30 3379 O 330.85 3.90708 7.02568 0
M  V30 3380 H 330.582 0.00576308 0.675975 0
M  V30 3381 H 333.136 0.664662 1.94349 0
M  V30 3382 H 331.366 -1.21817 3.67012 0
M  V30 3383 H 333.055 -0.911422 3.95535 0
M  V30 3384 H 333.821 1.48196 4.61804 0
M  V30 3385 H 329.7 0.25584 4.6029 0
M  V30 3386 H 333.244 3.35992 6.11355 0
M  V30 3387 H 329.141 2.12541 6.09505 0
M  V30 3388 H 329.909 3.87751 7.20827 0
M  V30 3389 N 332.573 -1.56217 0.208337 0
M  V30 3390 C 333.82 -1.97949 -0.42692 0
M  V30 3391 C 334.148 -1.09562 -1.60706 0
M  V30 3392 O 333.403 -0.137616 -1.95216 0
M  V30 3393 C 333.702 -3.45441 -0.916797 0
M  V30 3394 C 333.368 -4.50646 0.151391 0
M  V30 3395 C 332.03 -4.79139 0.444867 0
M  V30 3396 C 334.382 -5.13811 0.874492 0
M  V30 3397 C 331.71 -5.68084 1.46619 0
M  V30 3398 C 334.062 -6.03861 1.88506 0
M  V30 3399 C 332.726 -6.30704 2.18559 0
M  V30 3400 H 331.996 -0.724345 -0.156221 0
M  V30 3401 H 334.643 -1.89006 0.308084 0
M  V30 3402 H 332.948 -3.51521 -1.73032 0
M  V30 3403 H 334.645 -3.75094 -1.41794 0
M  V30 3404 H 331.235 -4.28511 -0.0875068 0
M  V30 3405 H 335.419 -4.91879 0.660996 0
M  V30 3406 H 330.675 -5.87151 1.7048 0
M  V30 3407 H 334.849 -6.51861 2.45051 0
M  V30 3408 H 332.476 -6.99424 2.97843 0
M  V30 3409 N 334.051 0.0651679 -1.57465 0
M  V30 3410 C 334.998 1.07675 -2.04144 0
M  V30 3411 C 335.968 1.38071 -0.923335 0
M  V30 3412 O 337.153 1.49026 -1.19146 0
M  V30 3413 C 334.293 2.38337 -2.49579 0
M  V30 3414 C 333.406 2.14413 -3.75035 0
M  V30 3415 C 332.541 3.38686 -4.09225 0
M  V30 3416 C 331.58 3.10156 -5.27702 0
M  V30 3417 N 330.717 4.26778 -5.57499 0
M  V30 3418 H 335.557 0.671716 -2.90331 0
M  V30 3419 H 333.094 0.3201 -1.43575 0
M  V30 3420 H 335.052 3.14632 -2.73975 0
M  V30 3421 H 333.682 2.7663 -1.6636 0
M  V30 3422 H 332.734 1.2878 -3.57939 0
M  V30 3423 H 334.046 1.89344 -4.61466 0
M  V30 3424 H 333.2 4.23373 -4.34558 0
M  V30 3425 H 331.939 3.66837 -3.21374 0
M  V30 3426 H 330.944 2.23866 -5.02159 0
M  V30 3427 H 332.169 2.8332 -6.17176 0
M  V30 3428 H 330.115 4.54948 -4.72608 0
M  V30 3429 H 330.032 4.05005 -6.38362 0
M  V30 3430 H 331.3 5.12443 -5.87386 0
M  V30 3431 N 335.529 1.53961 0.336706 0
M  V30 3432 C 336.945 1.44378 0.680241 0
M  V30 3433 C 337.145 0.606034 1.9217 0
M  V30 3434 O 336.201 0.099688 2.52303 0
M  V30 3435 C 337.514 2.87945 0.8665 0
M  V30 3436 C 339.062 2.97763 0.964682 0
M  V30 3437 C 339.537 4.42453 1.18321 0
M  V30 3438 N 341.028 4.46008 1.25025 0
M  V30 3439 C 341.763 5.55102 1.43697 0
M  V30 3440 N 341.259 6.7419 1.59498 0
M  V30 3441 N 343.052 5.42727 1.463 0
M  V30 3442 H 335.203 2.06918 -0.479455 0
M  V30 3443 H 337.466 0.935634 -0.152619 0
M  V30 3444 H 337.172 3.51691 0.0256937 0
M  V30 3445 H 337.046 3.33293 1.76623 0
M  V30 3446 H 339.433 2.34153 1.796 0
M  V30 3447 H 339.514 2.55766 0.041708 0
M  V30 3448 H 339.158 5.06645 0.356788 0
M  V30 3449 H 339.088 4.82048 2.11985 0
M  V30 3450 H 341.579 3.60196 1.14312 0
M  V30 3451 H 341.892 7.53095 1.734 0
M  V30 3452 H 340.237 6.77123 1.56621 0
M  V30 3453 H 343.428 4.48647 1.33543 0
M  V30 3454 H 343.601 6.27806 1.6051 0
M  V30 3455 N 337.007 -0.598083 1.45811 0
M  V30 3456 C 338.237 -1.38121 1.53643 0
M  V30 3457 C 338.645 -1.88425 0.171081 0
M  V30 3458 O 337.988 -1.63409 -0.839237 0
M  V30 3459 C 338.05 -2.61432 2.46766 0
M  V30 3460 C 337.714 -2.32702 3.93318 0
M  V30 3461 C 338.711 -1.92479 4.82957 0
M  V30 3462 C 336.396 -2.45321 4.38318 0
M  V30 3463 C 338.39 -1.65248 6.15607 0
M  V30 3464 C 336.077 -2.17703 5.71007 0
M  V30 3465 C 337.075 -1.7773 6.5947 0
M  V30 3466 O 336.763 -1.50441 7.89698 0
M  V30 3467 H 336.495 -0.428863 0.522544 0
M  V30 3468 H 339.049 -0.73557 1.91777 0
M  V30 3469 H 337.279 -3.28749 2.0362 0
M  V30 3470 H 338.968 -3.23487 2.45175 0
M  V30 3471 H 339.734 -1.82258 4.49452 0
M  V30 3472 H 335.613 -2.75399 3.69697 0
M  V30 3473 H 339.157 -1.33973 6.84614 0
M  V30 3474 H 335.054 -2.27544 6.04065 0
M  V30 3475 H 335.822 -1.64415 8.01817 0
M  V30 3476 N 338.485 -1.33259 -0.841409 0
M  V30 3477 C 339.435 -1.19872 -1.93945 0
M  V30 3478 C 340.419 -0.102269 -1.60575 0
M  V30 3479 O 341.611 -0.330114 -1.73894 0
M  V30 3480 C 338.74 -0.937517 -3.30251 0
M  V30 3481 C 337.826 -2.07629 -3.69799 0
M  V30 3482 N 338.217 -3.32604 -3.81062 0
M  V30 3483 C 336.515 -1.98242 -3.9952 0
M  V30 3484 C 337.216 -4.07275 -4.15333 0
M  V30 3485 N 336.192 -3.35691 -4.27566 0
M  V30 3486 H 339.994 -2.14604 -2.00805 0
M  V30 3487 H 337.508 -1.2523 -1.03398 0
M  V30 3488 H 339.505 -0.822545 -4.08705 0
M  V30 3489 H 338.165 0.00128798 -3.247 0
M  V30 3490 H 339.176 -3.67382 -3.65035 0
M  V30 3491 H 335.853 -1.12005 -4.02195 0
M  V30 3492 H 337.243 -5.1511 -4.31406 0
M  V30 3493 N 339.963 1.05934 -1.16686 0
M  V30 3494 C 340.873 2.17014 -0.891183 0
M  V30 3495 C 341.889 1.73453 0.137907 0
M  V30 3496 O 343.065 2.01361 -0.039592 0
M  V30 3497 C 340.13 3.44384 -0.400099 0
M  V30 3498 C 339.191 4.02433 -1.49486 0
M  V30 3499 C 338.424 5.23723 -1.02711 0
M  V30 3500 O 338.647 5.7027 0.121716 0
M  V30 3501 O 337.581 5.7382 -1.81699 0
M  V30 3502 H 341.407 2.43113 -1.82015 0
M  V30 3503 H 338.992 1.15541 -0.947132 0
M  V30 3504 H 340.874 4.21189 -0.133392 0
M  V30 3505 H 339.549 3.19802 0.500817 0
M  V30 3506 H 338.456 3.27102 -1.81535 0
M  V30 3507 H 339.789 4.31317 -2.37121 0
M  V30 3508 N 341.441 0.965919 1.2453 0
M  V30 3509 C 342.373 0.452465 2.2469 0
M  V30 3510 C 343.386 -0.437821 1.56802 0
M  V30 3511 O 344.575 -0.244283 1.76821 0
M  V30 3512 C 341.675 -0.366258 3.36915 0
M  V30 3513 C 340.848 0.513701 4.34373 0
M  V30 3514 C 339.907 -0.248716 5.25612 0
M  V30 3515 O 338.933 0.356745 5.68081 0
M  V30 3516 N 340.135 -1.53877 5.59734 0
M  V30 3517 H 342.9 1.31361 2.69378 0
M  V30 3518 H 340.461 0.837541 1.38553 0
M  V30 3519 H 342.453 -0.884297 3.94921 0
M  V30 3520 H 341.023 -1.12832 2.91526 0
M  V30 3521 H 340.243 1.21273 3.75082 0
M  V30 3522 H 341.531 1.11391 4.96457 0
M  V30 3523 H 340.929 -2.05243 5.27154 0
M  V30 3524 H 339.486 -2.00254 6.20275 0
M  V30 3525 N 342.919 -1.39368 0.735821 0
M  V30 3526 C 344.167 -2.00101 0.283562 0
M  V30 3527 C 344.488 -1.5868 -1.13338 0
M  V30 3528 O 343.758 -0.835423 -1.77193 0
M  V30 3529 H 342.338 -0.740024 0.101851 0
M  V30 3530 H 345 -1.70404 0.945962 0
M  V30 3531 H 344.096 -3.10323 0.332604 0
M  V30 3532 N 344.397 -0.483516 -1.5 0
M  V30 3533 C 345.36 0.292965 -2.2732 0
M  V30 3534 C 346.36 0.909499 -1.32608 0
M  V30 3535 O 347.55 0.776745 -1.55924 0
M  V30 3536 C 344.682 1.41854 -3.09984 0
M  V30 3537 H 345.875 -0.385289 -2.97415 0
M  V30 3538 H 343.428 -0.237942 -1.54478 0
M  V30 3539 H 344.163 2.13148 -2.44414 0
M  V30 3540 H 343.948 0.982114 -3.79601 0
M  V30 3541 H 345.438 1.96597 -3.68429 0
M  V30 3542 N 345.875 1.56104 -0.216619 0
M  V30 3543 C 347.124 1.97348 0.416744 0
M  V30 3544 C 347.437 1.10715 1.6125 0
M  V30 3545 O 348.643 1.41836 2.31506 0
M  V30 3546 C 347.099 3.51059 0.792835 0
M  V30 3547 C 346.707 4.46387 -0.379828 0
M  V30 3548 C 348.451 4.01026 1.39208 0
M  V30 3549 C 346.358 5.91397 0.0184223 0
M  V30 3550 H 345.288 0.736942 0.159475 0
M  V30 3551 H 347.939 1.80827 -0.31205 0
M  V30 3552 H 346.321 3.63162 1.57891 0
M  V30 3553 H 347.495 4.46029 -1.15737 0
M  V30 3554 H 345.81 4.06734 -0.891979 0
M  V30 3555 H 348.407 5.0686 1.70286 0
M  V30 3556 H 348.75 3.46587 2.30614 0
M  V30 3557 H 349.283 3.92125 0.669537 0
M  V30 3558 H 346.022 6.49807 -0.862002 0
M  V30 3559 H 345.542 5.94961 0.760384 0
M  V30 3560 H 347.221 6.45455 0.446818 0
M  V30 3561 N 347.353 -0.0568162 1.57498 0
M  V30 3562 C 348.599 -0.75422 1.88253 0
M  V30 3563 C 348.932 -1.76461 0.810865 0
M  V30 3564 O 348.207 -1.93691 -0.177259 0
M  V30 3565 C 348.49 -1.44878 3.2967 0
M  V30 3566 C 348.343 -0.453789 4.47505 0
M  V30 3567 C 349.662 -2.38994 3.69554 0
M  V30 3568 H 346.781 -0.272724 0.684683 0
M  V30 3569 H 349.423 -0.0172113 1.89992 0
M  V30 3570 H 347.573 -2.077 3.28318 0
M  V30 3571 H 349.245 0.170371 4.60985 0
M  V30 3572 H 347.488 0.229552 4.33192 0
M  V30 3573 H 348.159 -0.977699 5.43273 0
M  V30 3574 H 350.635 -1.86239 3.72095 0
M  V30 3575 H 349.511 -2.84587 4.69363 0
M  V30 3576 H 349.772 -3.24461 3.00296 0
M  V30 3577 N 348.832 -1.54138 -0.328536 0
M  V30 3578 C 349.795 -1.82462 -1.38709 0
M  V30 3579 C 350.795 -0.696229 -1.44946 0
M  V30 3580 O 351.985 -0.964535 -1.4506 0
M  V30 3581 C 349.117 -1.98018 -2.77492 0
M  V30 3582 H 350.31 -2.77037 -1.14851 0
M  V30 3583 H 347.863 -1.45779 -0.563751 0
M  V30 3584 H 348.598 -1.05637 -3.06613 0
M  V30 3585 H 348.383 -2.80124 -2.74359 0
M  V30 3586 H 349.873 -2.21396 -3.54081 0
M  V30 3587 N 350.31 0.590341 -1.46126 0
M  V30 3588 C 351.559 1.34499 -1.50309 0
M  V30 3589 C 351.872 1.94977 -0.156021 0
M  V30 3590 O 353.078 2.71395 -0.0756037 0
M  V30 3591 C 351.534 2.43723 -2.64815 0
M  V30 3592 C 351.142 1.89582 -4.0591 0
M  V30 3593 C 352.886 3.20579 -2.78262 0
M  V30 3594 C 350.793 2.9639 -5.11769 0
M  V30 3595 H 349.723 0.505593 -0.559368 0
M  V30 3596 H 352.374 0.630848 -1.72315 0
M  V30 3597 H 350.756 3.17902 -2.36124 0
M  V30 3598 H 351.93 1.21997 -4.44357 0
M  V30 3599 H 350.245 1.25418 -3.97063 0
M  V30 3600 H 352.842 4.00276 -3.54519 0
M  V30 3601 H 353.185 3.72684 -1.85505 0
M  V30 3602 H 353.718 2.53505 -3.06562 0
M  V30 3603 H 350.457 2.49181 -6.06291 0
M  V30 3604 H 349.977 3.62487 -4.77873 0
M  V30 3605 H 351.656 3.60474 -5.37278 0
M  V30 3606 N 351.788 1.33704 0.83433 0
M  V30 3607 C 353.016 1.28467 1.62185 0
M  V30 3608 C 353.431 -0.143526 1.88254 0
M  V30 3609 O 352.788 -1.08709 1.4659 0
M  V30 3610 C 352.839 2.06174 2.96942 0
M  V30 3611 O 352.56 3.43422 2.72016 0
M  V30 3612 C 354.061 2.08201 3.91366 0
M  V30 3613 H 351.281 0.4424 0.504503 0
M  V30 3614 H 353.825 1.76145 1.03891 0
M  V30 3615 H 351.98 1.62167 3.51825 0
M  V30 3616 H 352.394 3.83453 3.57861 0
M  V30 3617 H 353.868 2.67017 4.83121 0
M  V30 3618 H 354.345 1.07343 4.2588 0
M  V30 3619 H 354.951 2.52246 3.42421 0
M  V30 3620 N 353.266 -1.05314 1.17247 0
M  V30 3621 C 354.229 -2.112 0.890357 0
M  V30 3622 C 355.229 -1.60359 -0.118943 0
M  V30 3623 O 356.419 -1.73833 0.113086 0
M  V30 3624 C 353.551 -3.39266 0.333422 0
M  V30 3625 H 354.744 -2.37659 1.82916 0
M  V30 3626 H 352.297 -1.21538 0.982758 0
M  V30 3627 H 353.032 -3.18462 -0.612587 0
M  V30 3628 H 352.817 -3.77477 1.06082 0
M  V30 3629 H 354.307 -4.17315 0.154322 0
M  V30 3630 N 354.744 -0.972509 -1.24016 0
M  V30 3631 C 356.021 -0.553733 -1.87598 0
M  V30 3632 C 356.401 0.969158 -1.87538 0
M  V30 3633 O 355.749 1.84255 -1.35139 0
M  V30 3634 C 355.959 -1.15076 -3.29482 0
M  V30 3635 C 357.307 -1.23862 -4.06132 0
M  V30 3636 O 358.331 -1.10363 -3.38672 0
M  V30 3637 O 357.19 -1.45252 -5.26844 0
M  V30 3638 H 354.284 -0.185331 -0.805966 0
M  V30 3639 H 356.83 -1.06709 -1.31952 0
M  V30 3640 H 355.602 -2.19333 -3.2405 0
M  V30 3641 H 355.225 -0.621746 -3.92709 0
M  V30 3642 N 356.222 1.38976 -0.743202 0
M  V30 3643 C 357.172 2.27843 -0.084513 0
M  V30 3644 C 358.156 1.44677 0.704094 0
M  V30 3645 O 359.348 1.67511 0.571755 0
M  V30 3646 C 356.477 3.33466 0.815781 0
M  V30 3647 C 355.563 4.24095 0.0208844 0
M  V30 3648 N 355.954 4.95609 -1.0102 0
M  V30 3649 C 354.252 4.45303 0.249293 0
M  V30 3650 C 354.953 5.62287 -1.49024 0
M  V30 3651 N 353.929 5.37571 -0.807377 0
M  V30 3652 H 357.731 2.80593 -0.87436 0
M  V30 3653 H 355.245 1.51755 -0.578283 0
M  V30 3654 H 357.242 3.96008 1.30321 0
M  V30 3655 H 355.902 2.82276 1.6047 0
M  V30 3656 H 356.913 4.98849 -1.39176 0
M  V30 3657 H 353.59 4.0504 1.01237 0
M  V30 3658 H 354.98 6.29519 -2.34853 0
M  V30 3659 N 357.7 0.491464 1.49741 0
M  V30 3660 C 358.948 -0.0563141 2.02022 0
M  V30 3661 C 359.269 -1.38363 1.37407 0
M  V30 3662 O 358.539 -1.88702 0.526166 0
M  V30 3663 H 357.119 -0.0238014 0.746621 0
M  V30 3664 H 359.781 0.646533 1.83864 0
M  V30 3665 H 358.877 -0.192967 3.11503 0
M  V30 3666 N 359.178 -1.55987 0.224894 0
M  V30 3667 C 360.111 -2.16413 -0.723929 0
M  V30 3668 C 361.089 -1.10952 -1.18863 0
M  V30 3669 O 362.273 -1.39225 -1.27077 0
M  V30 3670 C 359.4 -2.74711 -1.98121 0
M  V30 3671 C 358.446 -3.9303 -1.6562 0
M  V30 3672 S 359.279 -5.29817 -0.778058 0
M  V30 3673 C 360.435 -5.91555 -2.04483 0
M  V30 3674 H 360.668 -2.96555 -0.210347 0
M  V30 3675 H 358.201 -1.54397 0.00955457 0
M  V30 3676 H 360.159 -3.08938 -2.70311 0
M  V30 3677 H 358.82 -1.94555 -2.46591 0
M  V30 3678 H 358.013 -4.32334 -2.59043 0
M  V30 3679 H 357.615 -3.59966 -1.01491 0
M  V30 3680 H 359.907 -6.07732 -2.99446 0
M  V30 3681 H 360.85 -6.87498 -1.69563 0
M  V30 3682 H 361.258 -5.20419 -2.18688 0
M  V30 3683 N 360.656 0.0484629 -1.57525 0
M  V30 3684 C 361.604 1.07359 -2.06341 0
M  V30 3685 C 362.598 1.3865 -0.973269 0
M  V30 3686 O 363.804 1.37783 -1.15827 0
M  V30 3687 H 360.179 0.363662 -0.65822 0
M  V30 3688 H 362.15 0.635916 -2.91545 0
M  V30 3689 C 360.899 2.37198 -2.54229 0
M  V30 3690 H 360.222 2.13977 -3.37719 0
M  V30 3691 H 361.662 3.07319 -2.92115 0
M  V30 3692 C 360.121 3.04805 -1.43511 0
M  V30 3693 O 360.651 3.93848 -0.79034 0
M  V30 3694 N 358.857 2.65811 -1.17444 0
M  V30 3695 H 358.404 1.93488 -1.70059 0
M  V30 3696 H 358.362 3.11366 -0.435737 0
M  V30 3697 N 362.134 1.5431 0.320358 0
M  V30 3698 C 363.097 1.83195 1.3774 0
M  V30 3699 C 364.097 0.703906 1.44575 0
M  V30 3700 O 365.287 0.972214 1.44546 0
M  V30 3701 C 362.419 1.99487 2.76438 0
M  V30 3702 H 363.612 2.77642 1.1338 0
M  V30 3703 H 361.165 1.46076 0.556012 0
M  V30 3704 H 361.9 1.07262 3.06048 0
M  V30 3705 H 361.685 2.81575 2.7287 0
M  V30 3706 H 363.175 2.23271 3.52902 0
M  V30 3707 N 363.613 -0.582584 1.46437 0
M  V30 3708 C 364.56 -1.69164 1.5701 0
M  V30 3709 C 365.53 -1.60847 0.414403 0
M  V30 3710 O 366.715 -1.80058 0.631171 0
M  V30 3711 C 363.855 -3.075 1.56646 0
M  V30 3712 C 362.968 -3.2644 2.82951 0
M  V30 3713 C 362.103 -4.55026 2.7409 0
M  V30 3714 C 361.142 -4.6731 3.95333 0
M  V30 3715 N 360.279 -5.87221 3.84858 0
M  V30 3716 H 365.119 -1.59464 2.51744 0
M  V30 3717 H 362.656 -0.777186 1.24893 0
M  V30 3718 H 364.614 -3.8757 1.5442 0
M  V30 3719 H 363.244 -3.16096 0.654439 0
M  V30 3720 H 362.296 -2.39974 2.95155 0
M  V30 3721 H 363.608 -3.31385 3.72808 0
M  V30 3722 H 362.762 -5.43324 2.6997 0
M  V30 3723 H 361.501 -4.52519 1.81873 0
M  V30 3724 H 360.506 -3.77429 3.99784 0
M  V30 3725 H 361.731 -4.71595 4.88646 0
M  V30 3726 H 359.677 -5.85712 2.95427 0
M  V30 3727 H 359.594 -5.93435 4.6837 0
M  V30 3728 H 360.862 -6.7795 3.84713 0
M  V30 3729 N 365.091 -1.34144 -0.827227 0
M  V30 3730 C 366.319 -1.29325 -1.61501 0
M  V30 3731 C 366.734 0.13354 -1.88327 0
M  V30 3732 O 366.091 1.0793 -1.47164 0
M  V30 3733 C 366.142 -2.07746 -2.95844 0
M  V30 3734 O 365.863 -3.4486 -2.70191 0
M  V30 3735 C 367.364 -2.10273 -3.90256 0
M  V30 3736 H 364.584 -0.445069 -0.50215 0
M  V30 3737 H 367.128 -1.76693 -1.02955 0
M  V30 3738 H 365.283 -1.6403 -3.5096 0
M  V30 3739 H 365.697 -3.85345 -3.55822 0
M  V30 3740 H 367.171 -2.69575 -4.81698 0
M  V30 3741 H 367.648 -1.096 -4.25305 0
M  V30 3742 H 368.254 -2.54059 -3.41078 0
M  V30 3743 N 366.569 1.04691 -1.17803 0
M  V30 3744 C 367.846 1.7472 -0.879328 0
M  V30 3745 C 368.226 2.01812 0.619271 0
M  V30 3746 O 367.574 1.65824 1.57209 0
M  V30 3747 C 367.784 3.03686 -1.71976 0
M  V30 3748 C 369.132 3.77542 -1.94286 0
M  V30 3749 O 370.156 3.13569 -1.68976 0
M  V30 3750 O 369.015 4.92506 -2.36855 0
M  V30 3751 H 366.109 0.760011 -0.326056 0
M  V30 3752 H 368.655 1.10813 -1.28525 0
M  V30 3753 H 367.427 2.79754 -2.73594 0
M  V30 3754 H 367.05 3.75332 -1.31194 0
M  V30 3755 N 368.047 0.979072 1.23499 0
M  V30 3756 C 369.01 0.523244 2.23147 0
M  V30 3757 C 370.01 -0.386406 1.56088 0
M  V30 3758 O 371.2 -0.180283 1.73265 0
M  V30 3759 C 368.332 -0.240739 3.40049 0
M  V30 3760 H 369.525 1.40432 2.64989 0
M  V30 3761 H 367.078 0.764824 1.36309 0
M  V30 3762 H 367.813 -1.13841 3.03662 0
M  V30 3763 H 367.598 0.412207 3.89927 0
M  V30 3764 H 369.088 -0.548297 4.13985 0
M  V30 3765 N 369.525 -1.3858 0.750561 0
M  V30 3766 C 370.774 -1.99424 0.302172 0
M  V30 3767 C 371.087 -1.60254 -1.12152 0
M  V30 3768 O 372.293 -2.14046 -1.67023 0
M  V30 3769 C 370.749 -3.56558 0.489307 0
M  V30 3770 C 370.357 -4.04682 1.92189 0
M  V30 3771 C 372.101 -4.24374 0.103478 0
M  V30 3772 C 370.008 -5.54446 2.05775 0
M  V30 3773 H 368.938 -0.746046 0.10923 0
M  V30 3774 H 371.589 -1.58383 0.92667 0
M  V30 3775 H 369.971 -3.95472 -0.204329 0
M  V30 3776 H 371.145 -3.77065 2.64875 0
M  V30 3777 H 369.46 -3.4958 2.26236 0
M  V30 3778 H 372.057 -5.34384 0.183787 0
M  V30 3779 H 372.4 -4.05468 -0.943481 0
M  V30 3780 H 372.933 -3.90688 0.748854 0
M  V30 3781 H 369.672 -5.78252 3.08714 0
M  V30 3782 H 369.192 -5.83816 1.37546 0
M  V30 3783 H 370.871 -6.20099 1.84626 0
M  V30 3784 N 371.003 -0.499398 -1.49478 0
M  V30 3785 C 372.251 0.0455996 -2.02049 0
M  V30 3786 C 372.572 1.37633 -1.38138 0
M  V30 3787 O 371.842 1.8842 -0.536166 0
M  V30 3788 H 370.422 0.0198416 -0.746736 0
M  V30 3789 H 373.084 -0.656274 -1.83519 0
M  V30 3790 H 372.18 0.176445 -3.11601 0
M  V30 3791 N 372.481 1.55866 -0.233164 0
M  V30 3792 C 373.897 1.59133 0.121988 0
M  V30 3793 C 374.097 1.25016 1.58029 0
M  V30 3794 O 373.153 0.990922 2.32243 0
M  V30 3795 C 374.466 2.99932 -0.214792 0
M  V30 3796 C 376.014 3.12601 -0.157971 0
M  V30 3797 C 376.489 4.55597 -0.46859 0
M  V30 3798 N 377.98 4.61305 -0.418585 0
M  V30 3799 C 378.715 5.69903 -0.63227 0
M  V30 3800 N 378.211 6.86819 -0.90835 0
M  V30 3801 N 380.004 5.59264 -0.563913 0
M  V30 3802 H 372.155 1.76315 -1.18434 0
M  V30 3803 H 374.418 0.820093 -0.475553 0
M  V30 3804 H 374.124 3.29588 -1.22739 0
M  V30 3805 H 373.998 3.74327 0.464691 0
M  V30 3806 H 376.385 2.82735 0.845283 0
M  V30 3807 H 376.466 2.40511 -0.871102 0
M  V30 3808 H 376.11 4.86182 -1.46934 0
M  V30 3809 H 376.04 5.25928 0.265865 0
M  V30 3810 H 378.531 3.77297 -0.213368 0
M  V30 3811 H 378.844 7.65507 -1.05919 0
M  V30 3812 H 377.189 6.88536 -0.945673 0
M  V30 3813 H 380.38 4.66802 -0.348372 0
M  V30 3814 H 380.553 6.43831 -0.733847 0
M  V30 3815 N 373.959 -0.0401083 1.57549 0
M  V30 3816 C 375.37 -0.588097 1.77196 0
M  V30 3817 C 375.721 -1.76209 0.862832 0
M  V30 3818 O 374.846 -2.16331 0.0548389 0
M  V30 3819 C 375.441 -1.07363 3.21339 0
M  V30 3820 C 374 -1.56723 3.42221 0
M  V30 3821 C 373.147 -0.50041 2.72747 0
M  V30 3822 H 376.098 0.186119 1.57605 0
M  V30 3823 H 376.119 -1.94143 3.27244 0
M  V30 3824 H 375.631 -0.218975 3.87482 0
M  V30 3825 H 373.732 -2.4441 2.81237 0
M  V30 3826 H 373.845 -1.62234 4.50796 0
M  V30 3827 H 372.209 -0.952894 2.36203 0
M  V30 3828 H 372.992 0.344599 3.41566 0
M  V30 3829 N 375.437 -1.54477 -0.31217 0
M  V30 3830 C 376.385 -1.85395 -1.40469 0
M  V30 3831 C 377.379 -0.726749 -1.53019 0
M  V30 3832 O 378.585 -0.910582 -1.55269 0
M  V30 3833 H 374.96 -0.587845 -0.46898 0
M  V30 3834 H 376.931 -2.76736 -1.11623 0
M  V30 3835 C 375.68 -2.10811 -2.76503 0
M  V30 3836 H 375.003 -2.97014 -2.67625 0
M  V30 3837 H 376.443 -2.3639 -3.51988 0
M  V30 3838 C 374.902 -0.903165 -3.24568 0
M  V30 3839 O 375.432 -0.118085 -4.01526 0
M  V30 3840 N 373.638 -0.711634 -2.81752 0
M  V30 3841 H 373.185 -1.35171 -2.19286 0
M  V30 3842 H 373.143 0.0930473 -3.14262 0
M  V30 3843 N 376.915 0.57481 -1.46744 0
M  V30 3844 C 378.164 1.32898 -1.51727 0
M  V30 3845 C 378.477 1.948 -0.176692 0
M  V30 3846 O 379.683 2.71299 -0.104385 0
M  V30 3847 C 378.139 2.40901 -2.67385 0
M  V30 3848 C 377.747 1.85266 -4.07898 0
M  V30 3849 C 379.491 3.17609 -2.81646 0
M  V30 3850 C 377.398 2.90945 -5.14883 0
M  V30 3851 H 376.328 0.499631 -0.564699 0
M  V30 3852 H 378.979 0.612536 -1.72975 0
M  V30 3853 H 377.361 3.15379 -2.39483 0
M  V30 3854 H 378.535 1.17278 -4.45626 0
M  V30 3855 H 376.85 1.21199 -3.98371 0
M  V30 3856 H 379.447 3.96493 -3.58744 0
M  V30 3857 H 379.79 3.70696 -1.89448 0
M  V30 3858 H 380.323 2.50239 -3.09233 0
M  V30 3859 H 377.062 2.42736 -6.089 0
M  V30 3860 H 376.582 3.57398 -4.81691 0
M  V30 3861 H 378.261 3.54755 -5.41071 0
M  V30 3862 N 378.394 1.34581 0.820102 0
M  V30 3863 C 379.324 1.29038 1.94606 0
M  V30 3864 C 380.305 0.1673 1.69275 0
M  V30 3865 O 381.49 0.360112 1.90832 0
M  V30 3866 C 378.62 1.04793 3.31113 0
M  V30 3867 C 377.574 2.13597 3.70891 0
M  V30 3868 C 376.9 1.74537 5.05412 0
M  V30 3869 C 378.2 3.55451 3.8269 0
M  V30 3870 H 379.894 2.23248 1.99501 0
M  V30 3871 H 377.44 1.0747 0.958449 0
M  V30 3872 H 379.393 0.995592 4.0947 0
M  V30 3873 H 378.117 0.0702565 3.26524 0
M  V30 3874 H 376.776 2.17905 2.9481 0
M  V30 3875 H 376.424 0.754226 4.97313 0
M  V30 3876 H 376.124 2.47361 5.32997 0
M  V30 3877 H 377.648 1.70803 5.86224 0
M  V30 3878 H 379.062 3.5354 4.51312 0
M  V30 3879 H 377.459 4.26922 4.21732 0
M  V30 3880 H 378.529 3.92587 2.84611 0
M  V30 3881 N 379.872 -1.04064 1.18357 0
M  V30 3882 C 381.119 -1.77265 0.978947 0
M  V30 3883 C 381.447 -1.88189 -0.491428 0
M  V30 3884 O 380.702 -1.38653 -1.38108 0
M  V30 3885 C 381.001 -3.20634 1.57888 0
M  V30 3886 C 380.667 -3.29743 3.07539 0
M  V30 3887 C 379.329 -3.31937 3.48384 0
M  V30 3888 C 381.681 -3.29841 4.03552 0
M  V30 3889 C 379.009 -3.3187 4.83818 0
M  V30 3890 C 381.361 -3.31313 5.38901 0
M  V30 3891 C 380.025 -3.31799 5.79194 0
M  V30 3892 H 379.295 -0.648659 0.358222 0
M  V30 3893 H 381.942 -1.22225 1.47422 0
M  V30 3894 H 380.247 -3.78675 1.00561 0
M  V30 3895 H 381.944 -3.75917 1.39598 0
M  V30 3896 H 378.534 -3.28757 2.74986 0
M  V30 3897 H 382.718 -3.27337 3.73047 0
M  V30 3898 H 377.974 -3.30562 5.14333 0
M  V30 3899 H 382.148 -3.30338 6.13066 0
M  V30 3900 H 379.775 -3.315 6.84114 0
M  V30 3901 N 381.35 -0.985608 -1.22978 0
M  V30 3902 C 382.28 -0.549649 -2.26939 0
M  V30 3903 C 383.261 0.419803 -1.64838 0
M  V30 3904 O 384.446 0.31203 -1.91677 0
M  V30 3905 C 381.576 0.143652 -3.47003 0
M  V30 3906 C 380.53 -0.743606 -4.21491 0
M  V30 3907 C 379.856 0.0822027 -5.34637 0
M  V30 3908 C 381.156 -2.03694 -4.80943 0
M  V30 3909 H 382.85 -1.41862 -2.63658 0
M  V30 3910 H 380.396 -0.683571 -1.26741 0
M  V30 3911 H 382.349 0.459985 -4.18882 0
M  V30 3912 H 381.073 1.04711 -3.09359 0
M  V30 3913 H 379.732 -1.04347 -3.51436 0
M  V30 3914 H 379.38 0.986359 -4.93234 0
M  V30 3915 H 379.08 -0.508377 -5.85397 0
M  V30 3916 H 380.604 0.392797 -6.09335 0
M  V30 3917 H 382.018 -1.78504 -5.44802 0
M  V30 3918 H 380.415 -2.57573 -5.42011 0
M  V30 3919 H 381.485 -2.72042 -4.01399 0
M  V30 3920 N 382.828 1.3818 -0.7579 0
M  V30 3921 C 383.76 2.2901 -0.0932177 0
M  V30 3922 C 384.773 1.47958 0.679136 0
M  V30 3923 O 385.962 1.70773 0.519514 0
M  V30 3924 C 383.062 3.26953 0.89192 0
M  V30 3925 C 382.235 4.37045 0.176303 0
M  V30 3926 C 381.294 5.15148 1.07281 0
M  V30 3927 O 380.32 5.66616 0.541728 0
M  V30 3928 N 381.522 5.28542 2.40049 0
M  V30 3929 H 384.287 2.86694 -0.873303 0
M  V30 3930 H 381.848 1.50007 -0.609054 0
M  V30 3931 H 383.84 3.76083 1.49479 0
M  V30 3932 H 382.41 2.70136 1.57306 0
M  V30 3933 H 381.63 3.89493 -0.607328 0
M  V30 3934 H 382.918 5.07801 -0.318718 0
M  V30 3935 H 382.316 4.88285 2.85647 0
M  V30 3936 H 380.873 5.8103 2.95376 0
M  V30 3937 N 384.306 0.507319 1.49211 0
M  V30 3938 C 385.583 -0.0982702 1.95353 0
M  V30 3939 C 385.963 -1.53516 1.449 0
M  V30 3940 O 385.311 -2.18594 0.66551 0
M  V30 3941 C 385.521 -0.00440283 3.49 0
M  V30 3942 C 386.869 -0.175147 4.24239 0
M  V30 3943 O 387.893 -0.0792891 3.56112 0
M  V30 3944 O 386.752 -0.37276 5.45227 0
M  V30 3945 H 383.846 -0.0918236 0.821887 0
M  V30 3946 H 386.392 0.570307 1.5983 0
M  V30 3947 H 385.164 0.997402 3.78375 0
M  V30 3948 H 384.787 -0.712845 3.91158 0
M  V30 3949 N 385.784 -1.5574 0.241426 0
M  V30 3950 C 386.714 -2.24133 -0.654722 0
M  V30 3951 C 387.695 -1.21974 -1.1856 0
M  V30 3952 O 388.88 -1.50612 -1.22595 0
M  V30 3953 C 386.01 -2.93659 -1.85423 0
M  V30 3954 C 384.964 -4.0246 -1.45636 0
M  V30 3955 C 384.29 -4.59383 -2.73626 0
M  V30 3956 C 385.59 -5.18468 -0.631506 0
M  V30 3957 H 387.284 -2.99281 -0.0844353 0
M  V30 3958 H 384.83 -1.43947 -0.0391707 0
M  V30 3959 H 386.783 -3.40203 -2.48676 0
M  V30 3960 H 385.507 -2.15991 -2.44981 0
M  V30 3961 H 384.166 -3.56676 -0.847202 0
M  V30 3962 H 383.814 -3.78422 -3.3137 0
M  V30 3963 H 383.514 -5.32826 -2.4773 0
M  V30 3964 H 385.038 -5.08658 -3.37786 0
M  V30 3965 H 386.452 -5.61272 -1.1682 0
M  V30 3966 H 384.849 -5.98266 -0.468831 0
M  V30 3967 H 385.919 -4.8358 0.357506 0
M  V30 3968 N 387.262 0.0317525 -1.57568 0
M  V30 3969 C 388.192 1.03274 -2.0942 0
M  V30 3970 C 389.173 1.3788 -0.996143 0
M  V30 3971 O 390.358 1.46811 -1.27122 0
M  V30 3972 C 387.488 2.33448 -2.57137 0
M  V30 3973 C 386.442 2.13091 -3.71182 0
M  V30 3974 C 385.768 3.49001 -4.05095 0
M  V30 3975 C 387.068 1.51928 -4.99715 0
M  V30 3976 H 388.762 0.60112 -2.93303 0
M  V30 3977 H 386.308 0.287705 -1.41097 0
M  V30 3978 H 388.261 3.03802 -2.92032 0
M  V30 3979 H 386.985 2.78665 -1.70333 0
M  V30 3980 H 385.644 1.45171 -3.36632 0
M  V30 3981 H 385.292 3.91862 -3.15362 0
M  V30 3982 H 384.992 3.36207 -4.81911 0
M  V30 3983 H 386.516 4.20721 -4.42522 0
M  V30 3984 H 387.93 2.12196 -5.32584 0
M  V30 3985 H 386.327 1.49716 -5.81124 0
M  V30 3986 H 387.397 0.484811 -4.8247 0
M  V30 3987 N 388.74 1.54641 0.303973 0
M  V30 3988 C 390.017 1.64455 1.05896 0
M  V30 3989 C 390.397 0.490923 2.05312 0
M  V30 3990 O 389.745 -0.512685 2.22674 0
M  V30 3991 C 389.955 3.02331 1.74347 0
M  V30 3992 C 391.303 3.59045 2.26653 0
M  V30 3993 O 392.327 3.04764 1.84384 0
M  V30 3994 O 391.186 4.54081 3.04093 0
M  V30 3995 H 388.28 0.666729 0.489287 0
M  V30 3996 H 390.826 1.66986 0.302298 0
M  V30 3997 H 389.598 3.77734 1.02142 0
M  V30 3998 H 389.221 3.03565 2.56777 0
M  V30 3999 N 390.218 -0.567019 1.47046 0
M  V30 4000 C 391.181 -1.65696 1.58359 0
M  V30 4001 C 392.181 -1.54097 0.459441 0
M  V30 4002 O 393.371 -1.58432 0.724225 0
M  V30 4003 C 390.503 -3.05197 1.51879 0
M  V30 4004 H 391.696 -1.57019 2.5551 0
M  V30 4005 H 389.249 -0.786148 1.3509 0
M  V30 4006 H 389.984 -3.19417 0.560673 0
M  V30 4007 H 389.769 -3.15025 2.33455 0
M  V30 4008 H 391.259 -3.84511 1.62913 0
M  V30 4009 N 391.696 -1.35014 -0.812953 0
M  V30 4010 C 392.628 -1.23262 -1.93233 0
M  V30 4011 C 393.641 -0.157371 -1.62038 0
M  V30 4012 O 394.83 -0.410096 -1.73725 0
M  V30 4013 C 391.93 -0.87392 -3.27438 0
M  V30 4014 C 391.103 -2.04622 -3.86586 0
M  V30 4015 C 390.162 -1.66432 -4.99186 0
M  V30 4016 O 389.188 -2.38222 -5.16951 0
M  V30 4017 N 390.39 -0.584248 -5.77552 0
M  V30 4018 H 393.155 -2.19699 -2.03844 0
M  V30 4019 H 390.716 -1.281 -0.99005 0
M  V30 4020 H 392.708 -0.600039 -4.00227 0
M  V30 4021 H 391.278 0.00057392 -3.126 0
M  V30 4022 H 390.498 -2.48427 -3.06068 0
M  V30 4023 H 391.786 -2.82999 -4.22835 0
M  V30 4024 H 391.184 0.0123526 -5.65699 0
M  V30 4025 H 389.741 -0.37013 -6.50748 0
M  V30 4026 N 393.175 1.03435 -1.18907 0
M  V30 4027 C 394.405 1.8012 -1.01195 0
M  V30 4028 C 394.813 1.8395 0.442613 0
M  V30 4029 O 394.156 1.27836 1.31923 0
M  V30 4030 C 394.218 3.26792 -1.49823 0
M  V30 4031 C 393.882 3.46609 -2.97844 0
M  V30 4032 C 394.879 3.37278 -3.95651 0
M  V30 4033 C 392.564 3.73001 -3.36416 0
M  V30 4034 C 394.558 3.54054 -5.30023 0
M  V30 4035 C 392.245 3.89423 -4.70949 0
M  V30 4036 C 393.243 3.79951 -5.67562 0
M  V30 4037 O 392.931 3.95895 -6.99659 0
M  V30 4038 H 392.663 0.573865 -0.357289 0
M  V30 4039 H 395.217 1.31207 -1.58031 0
M  V30 4040 H 393.447 3.76703 -0.873578 0
M  V30 4041 H 395.136 3.85055 -1.28404 0
M  V30 4042 H 395.902 3.16846 -3.67197 0
M  V30 4043 H 391.781 3.79469 -2.61772 0
M  V30 4044 H 395.325 3.46577 -6.05417 0
M  V30 4045 H 391.222 4.09351 -4.99101 0
M  V30 4046 H 391.99 4.13019 -7.06653 0
M  V30 4047 N 394.653 0.992116 1.22453 0
M  V30 4048 C 395.901 0.666215 1.90804 0
M  V30 4049 C 396.222 -0.804152 1.77647 0
M  V30 4050 O 395.492 -1.57629 1.16318 0
M  V30 4051 H 394.072 0.243423 0.706225 0
M  V30 4052 H 396.734 1.25845 1.48825 0
M  V30 4053 H 395.83 0.928069 2.97982 0
M  V30 4054 N 396.131 -1.37776 0.765217 0
M  V30 4055 C 397.094 -2.28686 0.153416 0
M  V30 4056 C 398.094 -1.47727 -0.635081 0
M  V30 4057 O 399.284 -1.68027 -0.459632 0
M  V30 4058 C 396.416 -3.31608 -0.790495 0
M  V30 4059 H 397.609 -2.84297 0.954723 0
M  V30 4060 H 395.162 -1.46932 0.53299 0
M  V30 4061 H 395.897 -2.81109 -1.61705 0
M  V30 4062 H 395.682 -3.9144 -0.227348 0
M  V30 4063 H 397.172 -3.99559 -1.21419 0
M  V30 4064 N 397.609 -0.515225 -1.4894 0
M  V30 4065 C 398.541 0.292481 -2.27326 0
M  V30 4066 C 399.554 0.917838 -1.3446 0
M  V30 4067 O 400.743 0.798772 -1.5963 0
M  V30 4068 C 397.843 1.42803 -3.07344 0
M  V30 4069 C 397.016 0.907347 -4.27885 0
M  V30 4070 C 396.075 1.92222 -4.89834 0
M  V30 4071 O 395.101 1.48506 -5.49486 0
M  V30 4072 N 396.303 3.25355 -4.80754 0
M  V30 4073 H 399.068 -0.379721 -2.97285 0
M  V30 4074 H 396.629 -0.348638 -1.58102 0
M  V30 4075 H 398.621 2.10481 -3.45658 0
M  V30 4076 H 397.191 2.00414 -2.39902 0
M  V30 4077 H 396.411 0.0550218 -3.94162 0
M  V30 4078 H 397.699 0.538108 -5.05946 0
M  V30 4079 H 397.097 3.6355 -4.33414 0
M  V30 4080 H 395.654 3.88707 -5.23211 0
M  V30 4081 N 399.087 1.5561 -0.249682 0
M  V30 4082 C 400.503 1.59254 0.105103 0
M  V30 4083 C 400.703 1.26685 1.56694 0
M  V30 4084 O 399.759 1.0155 2.31179 0
M  V30 4085 C 401.072 2.99687 -0.246592 0
M  V30 4086 C 402.62 3.12416 -0.191118 0
M  V30 4087 C 403.095 4.55074 -0.516885 0
M  V30 4088 N 404.586 4.60835 -0.467489 0
M  V30 4089 C 405.321 5.69201 -0.69268 0
M  V30 4090 N 404.817 6.85817 -0.981146 0
M  V30 4091 N 406.61 5.58635 -0.623198 0
M  V30 4092 H 398.761 1.75049 -1.20298 0
M  V30 4093 H 401.024 0.815003 -0.484225 0
M  V30 4094 H 400.73 3.28267 -1.26228 0
M  V30 4095 H 400.604 3.74798 0.424962 0
M  V30 4096 H 402.991 2.83615 0.815247 0
M  V30 4097 H 403.072 2.39573 -0.896563 0
M  V30 4098 H 402.716 4.84596 -1.52082 0
M  V30 4099 H 402.646 5.26181 0.210068 0
M  V30 4100 H 405.137 3.7705 -0.253373 0
M  V30 4101 H 405.45 7.64341 -1.14032 0
M  V30 4102 H 403.795 6.87494 -1.01865 0
M  V30 4103 H 406.986 4.66406 -0.397863 0
M  V30 4104 H 407.159 6.43017 -0.802093 0
M  V30 4105 N 400.565 -0.0233959 1.57583 0
M  V30 4106 C 401.793 -0.724682 1.93794 0
M  V30 4107 C 402.208 -1.68588 0.849912 0
M  V30 4108 O 401.565 -1.81676 -0.173204 0
M  V30 4109 C 401.616 -1.47684 3.29957 0
M  V30 4110 O 401.337 -0.554222 4.3458 0
M  V30 4111 C 402.838 -2.27477 3.80485 0
M  V30 4112 H 400.058 -0.203317 0.639455 0
M  V30 4113 H 402.602 0.0207653 2.04489 0
M  V30 4114 H 400.757 -2.17412 3.20641 0
M  V30 4115 H 401.171 -1.08232 5.13212 0
M  V30 4116 H 402.645 -2.7564 4.78254 0
M  V30 4117 H 403.122 -3.09144 3.11972 0
M  V30 4118 H 403.728 -1.62813 3.92902 0
M  V30 4119 N 402.043 -1.548 -0.295768 0
M  V30 4120 C 403.459 -1.4613 -0.641722 0
M  V30 4121 C 403.659 -0.656771 -1.90496 0
M  V30 4122 O 402.715 -0.166547 -2.5195 0
M  V30 4123 C 404.028 -2.90141 -0.789852 0
M  V30 4124 C 405.576 -3.00216 -0.885396 0
M  V30 4125 C 406.051 -4.45434 -1.06548 0
M  V30 4126 N 407.542 -4.49166 -1.13156 0
M  V30 4127 C 408.277 -5.58717 -1.28929 0
M  V30 4128 N 407.773 -6.78182 -1.41567 0
M  V30 4129 N 409.566 -5.46415 -1.31859 0
M  V30 4130 H 401.717 -2.05574 0.534147 0
M  V30 4131 H 403.98 -0.931259 0.177372 0
M  V30 4132 H 403.686 -3.51635 0.0675598 0
M  V30 4133 H 403.56 -3.37859 -1.67724 0
M  V30 4134 H 405.947 -2.38833 -1.73329 0
M  V30 4135 H 406.028 -2.55787 0.0261185 0
M  V30 4136 H 405.672 -5.07413 -0.222335 0
M  V30 4137 H 405.602 -4.87499 -1.9913 0
M  V30 4138 H 408.093 -3.631 -1.04721 0
M  V30 4139 H 408.406 -7.57428 -1.53372 0
M  V30 4140 H 406.751 -6.81037 -1.38613 0
M  V30 4141 H 409.942 -4.5203 -1.21601 0
M  V30 4142 H 410.115 -6.31841 -1.43808 0
M  V30 4143 N 403.521 0.559213 -1.47345 0
M  V30 4144 C 404.767 1.31843 -1.54095 0
M  V30 4145 C 405.1 1.93149 -0.201726 0
M  V30 4146 O 404.375 1.77759 0.789428 0
M  V30 4147 C 404.658 2.43006 -2.65744 0
M  V30 4148 C 404.511 1.86581 -4.09277 0
M  V30 4149 C 405.83 3.44943 -2.73318 0
M  V30 4150 H 402.949 0.478012 -0.560957 0
M  V30 4151 H 405.591 0.625977 -1.79392 0
M  V30 4152 H 403.741 3.02072 -2.44305 0
M  V30 4153 H 405.413 1.31792 -4.42073 0
M  V30 4154 H 403.656 1.17268 -4.17649 0
M  V30 4155 H 404.327 2.66933 -4.83168 0
M  V30 4156 H 406.803 2.95793 -2.92653 0
M  V30 4157 H 405.679 4.20153 -3.53218 0
M  V30 4158 H 405.94 4.03665 -1.80296 0
M  V30 4159 N 404.999 1.35443 0.805782 0
M  V30 4160 C 405.929 1.31095 1.93226 0
M  V30 4161 C 406.91 0.185244 1.69088 0
M  V30 4162 O 408.095 0.380332 1.90439 0
M  V30 4163 C 405.225 1.08299 3.29983 0
M  V30 4164 C 404.179 2.17519 3.68605 0
M  V30 4165 C 403.505 1.79887 5.03532 0
M  V30 4166 C 404.805 3.5949 3.78898 0
M  V30 4167 H 406.499 2.25352 1.97122 0
M  V30 4168 H 404.045 1.0848 0.946996 0
M  V30 4169 H 405.998 1.03897 4.08391 0
M  V30 4170 H 404.722 0.104885 3.26432 0
M  V30 4171 H 403.381 2.2102 2.92482 0
M  V30 4172 H 403.029 0.80693 4.96485 0
M  V30 4173 H 402.729 2.53001 5.30344 0
M  V30 4174 H 404.253 1.77011 5.84379 0
M  V30 4175 H 405.667 3.58307 4.47536 0
M  V30 4176 H 404.064 4.31371 4.1718 0
M  V30 4177 H 405.134 3.95584 2.80431 0
M  V30 4178 N 406.477 -1.02803 1.19454 0
M  V30 4179 C 407.407 -2.12999 0.956758 0
M  V30 4180 C 408.388 -1.69743 -0.110188 0
M  V30 4181 O 409.573 -1.94148 0.0450038 0
M  V30 4182 C 406.703 -3.43746 0.495553 0
M  V30 4183 C 405.657 -4.00688 1.50443 0
M  V30 4184 C 404.983 -5.27067 0.900275 0
M  V30 4185 C 406.283 -4.35397 2.8849 0
M  V30 4186 H 407.977 -2.33148 1.87836 0
M  V30 4187 H 405.523 -1.12045 0.904539 0
M  V30 4188 H 407.476 -4.2021 0.316493 0
M  V30 4189 H 406.2 -3.23321 -0.461646 0
M  V30 4190 H 404.859 -3.2632 1.67065 0
M  V30 4191 H 404.507 -5.02959 -0.064503 0
M  V30 4192 H 404.207 -5.66127 1.57397 0
M  V30 4193 H 405.731 -6.06196 0.73203 0
M  V30 4194 H 407.145 -5.02795 2.75446 0
M  V30 4195 H 405.542 -4.85541 3.52661 0
M  V30 4196 H 406.612 -3.44662 3.41081 0
M  V30 4197 N 407.956 -0.998596 -1.21925 0
M  V30 4198 C 409.367 -0.711939 -1.72593 0
M  V30 4199 C 409.718 0.770842 -1.80423 0
M  V30 4200 O 408.843 1.60237 -1.4544 0
M  V30 4201 C 409.438 -1.28567 -3.13458 0
M  V30 4202 C 407.997 -1.04828 -3.61508 0
M  V30 4203 C 407.144 -1.4024 -2.39224 0
M  V30 4204 H 410.095 -1.17027 -1.07193 0
M  V30 4205 H 410.116 -0.667098 -3.74607 0
M  V30 4206 H 409.628 -2.36486 -3.07727 0
M  V30 4207 H 407.729 0.0140383 -3.72597 0
M  V30 4208 H 407.842 -1.71566 -4.47328 0
M  V30 4209 H 406.206 -0.821077 -2.41103 0
M  V30 4210 H 406.989 -2.49176 -2.36149 0
M  V30 4211 N 409.434 1.37368 -0.772513 0
M  V30 4212 C 410.683 1.98918 -0.333861 0
M  V30 4213 C 410.996 1.62017 1.09589 0
M  V30 4214 O 412.202 2.16676 1.63596 0
M  V30 4215 C 410.658 3.55735 -0.545971 0
M  V30 4216 C 410.266 4.01573 -1.98603 0
M  V30 4217 C 412.01 4.24156 -0.170979 0
M  V30 4218 C 409.917 5.51102 -2.1457 0
M  V30 4219 H 408.847 0.744214 -0.121085 0
M  V30 4220 H 411.498 1.56888 -0.95175 0
M  V30 4221 H 409.88 3.95748 0.141387 0
M  V30 4222 H 411.054 3.72803 -2.7084 0
M  V30 4223 H 409.369 3.45937 -2.31769 0
M  V30 4224 H 411.966 5.34024 -0.26878 0
M  V30 4225 H 412.309 4.06917 0.878855 0
M  V30 4226 H 412.842 3.89447 -0.810914 0
M  V30 4227 H 409.581 5.73268 -3.17875 0
M  V30 4228 H 409.101 5.81554 -1.46817 0
M  V30 4229 H 410.78 6.17083 -1.94468 0
M  V30 4230 N 410.912 0.523116 1.48665 0
M  V30 4231 C 412.14 -0.0096312 2.06898 0
M  V30 4232 C 412.555 -1.28784 1.38059 0
M  V30 4233 O 411.912 -1.76453 0.465893 0
M  V30 4234 C 411.963 -0.244386 3.60673 0
M  V30 4235 O 411.684 0.983172 4.26925 0
M  V30 4236 C 413.185 -0.818289 4.35682 0
M  V30 4237 H 410.405 0.0304161 0.67031 0
M  V30 4238 H 412.949 0.726799 1.91149 0
M  V30 4239 H 411.104 -0.930847 3.76051 0
M  V30 4240 H 411.518 0.759653 5.1897 0
M  V30 4241 H 412.992 -0.93201 5.44075 0
M  V30 4242 H 413.469 -1.82153 3.99646 0
M  V30 4243 H 414.075 -0.168609 4.24966 0
M  V30 4244 N 412.39 -1.55475 0.257931 0
M  V30 4245 C 413.667 -1.91155 -0.414629 0
M  V30 4246 C 414.047 -1.18008 -1.75035 0
M  V30 4247 O 413.395 -0.301193 -2.26506 0
M  V30 4248 C 413.605 -3.44283 -0.571859 0
M  V30 4249 C 414.953 -4.15744 -0.862678 0
M  V30 4250 O 415.977 -3.50083 -0.657314 0
M  V30 4251 O 414.836 -5.31909 -1.2544 0
M  V30 4252 H 411.93 -0.796016 -0.22425 0
M  V30 4253 H 414.476 -1.66976 0.302814 0
M  V30 4254 H 413.248 -3.89558 0.368844 0
M  V30 4255 H 412.871 -3.7436 -1.33943 0
M  V30 4256 N 413.868 0.0150385 -1.57593 0
M  V30 4257 C 415.279 0.559832 -1.78109 0
M  V30 4258 C 415.63 1.74814 -0.890756 0
M  V30 4259 O 414.755 2.16216 -0.0892482 0
M  V30 4260 C 415.35 1.02238 -3.23006 0
M  V30 4261 C 413.909 1.51258 -3.44671 0
M  V30 4262 C 413.056 0.456955 -2.73509 0
M  V30 4263 H 416.007 -0.211169 -1.57289 0
M  V30 4264 H 416.028 1.88912 -3.30292 0
M  V30 4265 H 415.54 0.157302 -3.87781 0
M  V30 4266 H 413.641 2.39905 -2.8509 0
M  V30 4267 H 413.754 1.55042 -4.5332 0
M  V30 4268 H 412.118 0.915196 -2.37689 0
M  V30 4269 H 412.901 -0.398896 -3.40975 0
M  V30 4270 N 415.346 1.54954 0.287554 0
M  V30 4271 C 416.576 1.78622 1.03816 0
M  V30 4272 C 416.984 0.552451 1.80955 0
M  V30 4273 O 416.327 -0.487665 1.77109 0
M  V30 4274 C 416.389 2.94975 2.055 0
M  V30 4275 C 416.053 4.32565 1.47433 0
M  V30 4276 C 417.05 5.12096 0.897436 0
M  V30 4277 C 414.735 4.79195 1.50591 0
M  V30 4278 C 416.729 6.36383 0.359851 0
M  V30 4279 C 414.416 6.03441 0.964459 0
M  V30 4280 C 415.414 6.81872 0.392413 0
M  V30 4281 O 415.102 8.03777 -0.140788 0
M  V30 4282 H 414.834 0.599144 0.313053 0
M  V30 4283 H 417.388 2.02761 0.328225 0
M  V30 4284 H 415.618 2.66493 2.80211 0
M  V30 4285 H 417.307 3.06097 2.6657 0
M  V30 4286 H 418.073 4.77209 0.865841 0
M  V30 4287 H 413.952 4.18167 1.94055 0
M  V30 4288 H 417.496 6.97545 -0.0872951 0
M  V30 4289 H 413.393 6.37813 0.993246 0
M  V30 4290 H 414.161 8.18495 -0.0287617 0
M  V30 4291 N 416.824 -0.551391 1.4764 0
M  V30 4292 C 418.07 -1.31024 1.54792 0
M  V30 4293 C 418.403 -1.9304 0.211967 0
M  V30 4294 O 417.678 -1.78175 -0.77999 0
M  V30 4295 C 417.961 -2.41593 2.67029 0
M  V30 4296 C 417.814 -1.84408 4.10261 0
M  V30 4297 C 419.133 -3.43488 2.75143 0
M  V30 4298 H 416.252 -0.475031 0.563485 0
M  V30 4299 H 418.894 -0.616454 1.79722 0
M  V30 4300 H 417.044 -3.00772 2.45904 0
M  V30 4301 H 418.716 -1.29445 4.42766 0
M  V30 4302 H 416.959 -1.15051 4.18265 0
M  V30 4303 H 417.63 -2.64367 4.84576 0
M  V30 4304 H 420.106 -2.94236 2.94218 0
M  V30 4305 H 418.982 -4.18274 3.55441 0
M  V30 4306 H 419.243 -4.02703 1.82435 0
M  V30 4307 N 418.302 -1.35869 -0.798587 0
M  V30 4308 C 419.548 -1.2978 -1.55836 0
M  V30 4309 C 419.881 0.125322 -1.93795 0
M  V30 4310 O 419.156 1.07658 -1.61987 0
M  V30 4311 C 419.439 -2.21188 -2.84162 0
M  V30 4312 C 419.292 -3.72155 -2.52628 0
M  V30 4313 C 420.611 -2.11545 -3.85923 0
M  V30 4314 H 417.73 -0.472769 -0.565383 0
M  V30 4315 H 420.372 -1.66341 -0.918192 0
M  V30 4316 H 418.522 -1.90139 -3.38791 0
M  V30 4317 H 420.194 -4.13682 -2.04121 0
M  V30 4318 H 418.437 -3.92042 -1.85704 0
M  V30 4319 H 419.108 -4.31511 -3.44242 0
M  V30 4320 H 421.584 -2.38855 -3.40716 0
M  V30 4321 H 420.46 -2.77688 -4.73477 0
M  V30 4322 H 420.721 -1.09987 -4.282 0
M  V30 4323 N 419.78 1.02168 -1.19998 0
M  V30 4324 C 420.73 2.08969 -0.911921 0
M  V30 4325 C 421.714 1.60404 0.12621 0
M  V30 4326 O 422.906 1.76817 -0.0804706 0
M  V30 4327 C 420.035 3.402 -0.460277 0
M  V30 4328 C 419.121 3.9548 -1.53155 0
M  V30 4329 N 419.512 4.24332 -2.75275 0
M  V30 4330 C 417.81 4.23572 -1.39653 0
M  V30 4331 C 418.511 4.68834 -3.44339 0
M  V30 4332 N 417.487 4.70804 -2.71744 0
M  V30 4333 H 421.289 2.29178 -1.83997 0
M  V30 4334 H 418.803 1.20094 -1.09322 0
M  V30 4335 H 420.8 4.16235 -0.235337 0
M  V30 4336 H 419.46 3.21408 0.4612 0
M  V30 4337 H 420.471 4.13393 -3.11973 0
M  V30 4338 H 417.148 4.14005 -0.539067 0
M  V30 4339 H 418.538 5.00019 -4.4881 0
M  V30 4340 N 421.258 1.00505 1.21394 0
M  V30 4341 C 422.208 0.536503 2.21598 0
M  V30 4342 C 423.192 -0.401914 1.55799 0
M  V30 4343 O 424.384 -0.226757 1.75541 0
M  V30 4344 C 421.513 -0.135446 3.43033 0
M  V30 4345 C 420.599 0.823992 4.16018 0
M  V30 4346 N 420.99 1.97683 4.6557 0
M  V30 4347 C 419.288 0.642387 4.4135 0
M  V30 4348 C 419.989 2.58003 5.21354 0
M  V30 4349 N 418.965 1.86162 5.1073 0
M  V30 4350 H 422.767 1.41557 2.57563 0
M  V30 4351 H 420.281 0.868878 1.37202 0
M  V30 4352 H 422.278 -0.488584 4.14027 0
M  V30 4353 H 420.938 -1.01049 3.08576 0
M  V30 4354 H 421.949 2.3572 4.61147 0
M  V30 4355 H 418.626 -0.185578 4.17087 0
M  V30 4356 H 420.016 3.555 5.70149 0
M  V30 4357 N 422.737 -1.36956 0.779787 0
M  V30 4358 C 423.985 -1.99097 0.347079 0
M  V30 4359 C 424.306 -1.62206 -1.08232 0
M  V30 4360 O 423.576 -0.891373 -1.74446 0
M  V30 4361 H 422.156 -0.736409 0.125342 0
M  V30 4362 H 424.818 -1.67308 0.999696 0
M  V30 4363 H 423.914 -3.09107 0.431162 0
M  V30 4364 N 424.215 -0.530993 -1.48385 0
M  V30 4365 C 425.178 0.220497 -2.28137 0
M  V30 4366 C 426.178 0.866851 -1.35434 0
M  V30 4367 O 427.368 0.726746 -1.58316 0
M  V30 4368 C 424.5 1.31921 -3.1434 0
M  V30 4369 H 425.693 -0.479714 -2.96038 0
M  V30 4370 H 423.246 -0.286968 -1.53643 0
M  V30 4371 H 423.981 2.05264 -2.51072 0
M  V30 4372 H 423.766 0.86085 -3.82533 0
M  V30 4373 H 425.256 1.84776 -3.74497 0
M  V30 4374 N 425.693 1.55336 -0.266172 0
M  V30 4375 C 426.623 2.25146 0.618981 0
M  V30 4376 C 427.604 1.23845 1.16604 0
M  V30 4377 O 428.789 1.52544 1.20183 0
M  V30 4378 C 425.919 2.96572 1.80728 0
M  V30 4379 C 424.873 4.04726 1.39215 0
M  V30 4380 C 424.199 4.63678 2.66283 0
M  V30 4381 C 425.499 5.19407 0.548942 0
M  V30 4382 H 427.193 2.99377 0.0368116 0
M  V30 4383 H 424.739 1.43991 0.0162651 0
M  V30 4384 H 426.692 3.44116 2.43232 0
M  V30 4385 H 425.416 2.19861 2.41514 0
M  V30 4386 H 424.075 3.57979 0.790351 0
M  V30 4387 H 423.723 3.83646 3.25308 0
M  V30 4388 H 423.423 5.367 2.39222 0
M  V30 4389 H 424.947 5.13967 3.29651 0
M  V30 4390 H 426.361 5.63059 1.07876 0
M  V30 4391 H 424.758 5.98936 0.373593 0
M  V30 4392 H 425.828 4.8295 -0.434394 0
M  V30 4393 N 427.171 -0.0066808 1.57599 0
M  V30 4394 C 428.419 -0.691552 1.899 0
M  V30 4395 C 428.74 -1.74682 0.866672 0
M  V30 4396 O 428.01 -1.95661 -0.0968189 0
M  V30 4397 H 426.59 -0.258416 0.700878 0
M  V30 4398 H 429.252 0.0326655 1.94873 0
M  V30 4399 H 428.348 -1.16702 2.8946 0
M  V30 4400 N 428.649 -1.55105 -0.279332 0
M  V30 4401 C 429.874 -1.7976 -1.03446 0
M  V30 4402 C 430.299 -0.565952 -1.79384 0
M  V30 4403 O 429.657 0.484259 -1.74713 0
M  V30 4404 C 429.705 -3.0179 -1.97371 0
M  V30 4405 O 428.809 -2.76432 -3.06038 0
M  V30 4406 H 428.15 -0.594334 -0.29608 0
M  V30 4407 H 430.68 -2.02235 -0.310165 0
M  V30 4408 H 430.69 -3.30351 -2.39441 0
M  V30 4409 H 429.365 -3.91085 -1.4151 0
M  V30 4410 H 427.942 -2.58949 -2.68328 0
M  V30 4411 N 430.127 0.543554 -1.4793 0
M  V30 4412 C 431.357 1.32324 -1.58663 0
M  V30 4413 C 431.765 1.8766 -0.240896 0
M  V30 4414 O 431.108 1.66411 0.778011 0
M  V30 4415 C 431.17 2.52094 -2.56299 0
M  V30 4416 C 430.834 2.17944 -4.01683 0
M  V30 4417 C 431.831 1.74422 -4.89768 0
M  V30 4418 C 429.516 2.28884 -4.47121 0
M  V30 4419 C 431.51 1.42287 -6.21316 0
M  V30 4420 C 429.197 1.96361 -5.78693 0
M  V30 4421 C 430.195 1.53132 -6.65612 0
M  V30 4422 O 429.883 1.21029 -7.94737 0
M  V30 4423 H 429.615 0.409174 -0.538101 0
M  V30 4424 H 432.169 0.663887 -1.94375 0
M  V30 4425 H 430.399 3.20965 -2.15681 0
M  V30 4426 H 432.088 3.14165 -2.57012 0
M  V30 4427 H 432.854 1.65452 -4.55907 0
M  V30 4428 H 428.733 2.61488 -3.79664 0
M  V30 4429 H 432.277 1.08472 -6.89115 0
M  V30 4430 H 428.174 2.04967 -6.12094 0
M  V30 4431 H 428.942 1.34543 -8.07366 0
M  V30 4432 N 431.605 1.3629 0.791371 0
M  V30 4433 C 432.568 1.30309 1.88553 0
M  V30 4434 C 433.568 0.211204 1.59407 0
M  V30 4435 O 434.758 0.465865 1.67855 0
M  V30 4436 C 431.89 1.01956 3.25297 0
M  V30 4437 H 433.083 2.27614 1.95273 0
M  V30 4438 H 430.636 1.21035 0.988953 0
M  V30 4439 H 431.371 0.050998 3.2426 0
M  V30 4440 H 431.156 1.80968 3.4784 0
M  V30 4441 H 432.646 1.0037 4.05359 0
M  V30 4442 N 433.083 -1.0153 1.20538 0
M  V30 4443 C 434.311 -1.78746 1.04199 0
M  V30 4444 C 434.726 -1.84323 -0.408733 0
M  V30 4445 O 434.083 -1.29714 -1.28377 0
M  V30 4446 C 434.134 -3.23152 1.62035 0
M  V30 4447 O 433.855 -3.17918 3.0143 0
M  V30 4448 C 435.356 -4.16911 1.50666 0
M  V30 4449 H 432.576 -0.56208 0.366479 0
M  V30 4450 H 435.12 -1.27794 1.59653 0
M  V30 4451 H 433.275 -3.71248 1.10697 0
M  V30 4452 H 433.689 -4.08567 3.28897 0
M  V30 4453 H 435.163 -5.16072 1.95892 0
M  V30 4454 H 435.64 -4.36791 0.459363 0
M  V30 4455 H 436.246 -3.74698 2.01201 0
M  V30 4456 N 434.561 -1.01147 -1.20859 0
M  V30 4457 C 435.807 -0.698899 -1.90377 0
M  V30 4458 C 436.14 0.76904 -1.78324 0
M  V30 4459 O 435.415 1.55817 -1.16409 0
M  V30 4460 C 435.698 -1.12878 -3.41951 0
M  V30 4461 C 435.551 -2.65665 -3.62963 0
M  V30 4462 C 436.87 -0.696114 -4.3456 0
M  V30 4463 H 433.989 -0.255372 -0.691342 0
M  V30 4464 H 436.631 -1.25831 -1.42361 0
M  V30 4465 H 434.781 -0.652827 -3.82976 0
M  V30 4466 H 436.453 -3.21074 -3.31224 0
M  V30 4467 H 434.696 -3.06878 -3.06608 0
M  V30 4468 H 435.367 -2.90797 -4.69192 0
M  V30 4469 H 437.843 -1.10521 -4.01154 0
M  V30 4470 H 436.719 -1.025 -5.39245 0
M  V30 4471 H 436.98 0.402465 -4.40264 0
M  V30 4472 N 436.039 1.36541 -0.78704 0
M  V30 4473 C 437.269 2.03266 -0.369662 0
M  V30 4474 C 437.677 1.59481 1.01796 0
M  V30 4475 O 437.02 0.778612 1.66383 0
M  V30 4476 C 437.082 3.57779 -0.351371 0
M  V30 4477 C 436.746 4.24756 -1.68617 0
M  V30 4478 C 437.743 4.47811 -2.64124 0
M  V30 4479 C 435.428 4.62277 -1.96481 0
M  V30 4480 C 437.422 5.07464 -3.85693 0
M  V30 4481 C 435.109 5.21649 -3.18317 0
M  V30 4482 C 436.107 5.44182 -4.12741 0
M  V30 4483 O 435.795 6.02307 -5.32429 0
M  V30 4484 H 435.527 0.658977 -0.150751 0
M  V30 4485 H 438.081 1.75548 -1.0664 0
M  V30 4486 H 436.311 3.84606 0.401847 0
M  V30 4487 H 438 4.05879 0.0410147 0
M  V30 4488 H 438.766 4.19221 -2.43883 0
M  V30 4489 H 434.645 4.44065 -1.23805 0
M  V30 4490 H 438.189 5.24968 -4.59407 0
M  V30 4491 H 434.086 5.49664 -3.38437 0
M  V30 4492 H 434.854 6.20775 -5.33461 0
M  V30 4493 N 437.518 0.538854 1.48102 0
M  V30 4494 C 438.448 -0.207654 2.32575 0
M  V30 4495 C 439.429 -0.926559 1.4265 0
M  V30 4496 O 440.614 -0.91061 1.71527 0
M  V30 4497 C 437.744 -1.24957 3.24042 0
M  V30 4498 C 436.698 -0.648263 4.23062 0
M  V30 4499 C 436.024 -1.79348 5.03725 0
M  V30 4500 C 437.324 0.385897 5.20872 0
M  V30 4501 H 439.018 0.497534 2.95237 0
M  V30 4502 H 436.564 0.240715 1.41974 0
M  V30 4503 H 438.517 -1.77983 3.81969 0
M  V30 4504 H 437.241 -1.98446 2.59397 0
M  V30 4505 H 435.9 -0.139452 3.66335 0
M  V30 4506 H 435.548 -2.51696 4.35498 0
M  V30 4507 H 435.248 -1.39702 5.70751 0
M  V30 4508 H 436.772 -2.32735 5.64506 0
M  V30 4509 H 438.186 -0.057607 5.73271 0
M  V30 4510 H 436.583 0.700227 5.96001 0
M  V30 4511 H 437.653 1.28848 4.67468 0
M  V30 4512 N 438.996 -1.55193 0.274407 0
M  V30 4513 C 440.412 -1.59401 -0.0797543 0
M  V30 4514 C 440.612 -1.29162 -1.54659 0
M  V30 4515 O 439.668 -1.05215 -2.29534 0
M  V30 4516 C 440.981 -2.99257 0.294238 0
M  V30 4517 C 442.529 -3.12072 0.240796 0
M  V30 4518 C 443.004 -4.54194 0.589218 0
M  V30 4519 N 444.495 -4.60033 0.540744 0
M  V30 4520 C 445.23 -5.68027 0.783147 0
M  V30 4521 N 444.726 -6.8417 1.09013 0
M  V30 4522 N 446.519 -5.57572 0.711993 0
M  V30 4523 H 438.67 -1.73113 1.23067 0
M  V30 4524 H 440.933 -0.807197 0.497129 0
M  V30 4525 H 440.639 -3.26217 1.31435 0
M  V30 4526 H 440.513 -3.75427 -0.365281 0
M  V30 4527 H 442.9 -2.84877 -0.770024 0
M  V30 4528 H 442.981 -2.38117 0.934563 0
M  V30 4529 H 442.625 -4.82115 1.59772 0
M  V30 4530 H 442.555 -5.26448 -0.126331 0
M  V30 4531 H 445.046 -3.76599 0.313327 0
M  V30 4532 H 445.359 -7.6243 1.26178 0
M  V30 4533 H 443.704 -6.85787 1.12789 0
M  V30 4534 H 446.895 -4.65714 0.472014 0
M  V30 4535 H 447.068 -6.41659 0.90429 0
M  V30 4536 N 440.474 -0.00167713 -1.576 0
M  V30 4537 C 441.751 0.719951 -1.81868 0
M  V30 4538 C 442.131 1.91895 -0.879747 0
M  V30 4539 O 441.479 2.28389 0.0711423 0
M  V30 4540 C 441.689 1.12409 -3.30402 0
M  V30 4541 C 443.037 1.52724 -3.96182 0
M  V30 4542 O 444.061 1.21784 -3.34734 0
M  V30 4543 O 442.92 2.10265 -5.04431 0
M  V30 4544 H 440.014 0.350707 -0.748955 0
M  V30 4545 H 442.56 -0.0272597 -1.69678 0
M  V30 4546 H 441.332 0.269532 -3.90371 0
M  V30 4547 H 440.955 1.93035 -3.47596 0
M  V30 4548 N 441.952 1.55251 0.271103 0
M  V30 4549 C 442.915 1.87484 1.31842 0
M  V30 4550 C 443.915 0.749545 1.42262 0
M  V30 4551 O 445.105 1.01771 1.4138 0
M  V30 4552 C 442.237 2.0818 2.69951 0
M  V30 4553 H 443.43 2.81108 1.0449 0
M  V30 4554 H 440.983 1.47771 0.509258 0
M  V30 4555 H 441.718 1.16944 3.02481 0
M  V30 4556 H 441.503 2.90114 2.63774 0
M  V30 4557 H 442.993 2.34385 3.4562 0
M  V30 4558 N 443.43 -0.535701 1.48216 0
M  V30 4559 C 444.676 -1.29375 1.56173 0
M  V30 4560 C 445.009 -1.92804 0.232429 0
M  V30 4561 O 444.284 -1.78992 -0.761048 0
M  V30 4562 C 444.567 -2.38747 2.69577 0
M  V30 4563 C 444.42 -1.80046 4.12193 0
M  V30 4564 C 445.739 -3.40551 2.78771 0
M  V30 4565 H 442.858 -0.469027 0.568491 0
M  V30 4566 H 445.5 -0.597358 1.80365 0
M  V30 4567 H 443.65 -2.98147 2.4908 0
M  V30 4568 H 445.322 -1.24742 4.44114 0
M  V30 4569 H 443.565 -1.10609 4.19462 0
M  V30 4570 H 444.236 -2.59212 4.87353 0
M  V30 4571 H 446.712 -2.91099 2.97322 0
M  V30 4572 H 445.588 -4.1448 3.59857 0
M  V30 4573 H 445.849 -4.00746 1.86696 0
M  V30 4574 N 444.908 -1.36708 -0.784132 0
M  V30 4575 C 446.319 -1.27947 -1.35965 0
M  V30 4576 C 446.67 0.0784013 -1.96043 0
M  V30 4577 O 445.795 0.979989 -1.92938 0
M  V30 4578 C 446.39 -2.31689 -2.47195 0
M  V30 4579 C 444.949 -2.26601 -3.00548 0
M  V30 4580 C 444.096 -2.16184 -1.73666 0
M  V30 4581 H 447.047 -1.4751 -0.585358 0
M  V30 4582 H 447.068 -1.95638 -3.26352 0
M  V30 4583 H 446.58 -3.30506 -2.03439 0
M  V30 4584 H 444.681 -1.31268 -3.48711 0
M  V30 4585 H 444.794 -3.19508 -3.57004 0
M  V30 4586 H 443.158 -1.62524 -1.96107 0
M  V30 4587 H 443.941 -3.16896 -1.32031 0
M  V30 4588 N 446.386 1.0089 -1.21074 0
M  V30 4589 C 447.318 2.09737 -0.924291 0
M  V30 4590 C 448.331 1.62546 0.0909809 0
M  V30 4591 O 449.52 1.77942 -0.141021 0
M  V30 4592 C 446.62 3.36922 -0.36559 0
M  V30 4593 C 445.793 4.13216 -1.43426 0
M  V30 4594 C 444.852 5.18696 -0.885496 0
M  V30 4595 O 443.878 5.47176 -1.56801 0
M  V30 4596 N 445.08 5.79718 0.301227 0
M  V30 4597 H 447.845 2.34895 -1.8613 0
M  V30 4598 H 445.406 1.17341 -1.11546 0
M  V30 4599 H 447.398 4.04697 0.0158407 0
M  V30 4600 H 445.968 3.08952 0.476149 0
M  V30 4601 H 445.188 3.40301 -1.9897 0
M  V30 4602 H 446.476 4.60967 -2.15376 0
M  V30 4603 H 445.874 5.58926 0.872849 0
M  V30 4604 H 444.431 6.48804 0.624211 0
M  V30 4605 N 447.864 1.01787 1.20321 0
M  V30 4606 C 449.28 0.732951 1.41774 0
M  V30 4607 C 449.48 -0.686883 1.89431 0
M  V30 4608 O 448.536 -1.45446 2.06402 0
M  V30 4609 C 449.849 1.75973 2.43832 0
M  V30 4610 C 451.397 1.77802 2.57596 0
M  V30 4611 C 451.872 2.7941 3.62897 0
M  V30 4612 N 453.363 2.78157 3.70382 0
M  V30 4613 C 454.098 3.53434 4.51521 0
M  V30 4614 N 453.594 4.38392 5.36455 0
M  V30 4615 N 455.387 3.42026 4.46066 0
M  V30 4616 H 447.538 1.93447 0.877035 0
M  V30 4617 H 449.801 0.835712 0.447536 0
M  V30 4618 H 449.507 2.77699 2.15815 0
M  V30 4619 H 449.381 1.57292 3.4284 0
M  V30 4620 H 451.768 0.767602 2.84942 0
M  V30 4621 H 451.849 2.00557 1.58779 0
M  V30 4622 H 451.493 3.80616 3.36295 0
M  V30 4623 H 451.423 2.53916 4.61339 0
M  V30 4624 H 453.914 2.16531 3.09714 0
M  V30 4625 H 454.227 4.92596 5.95457 0
M  V30 4626 H 452.572 4.4247 5.35953 0
M  V30 4627 H 455.763 2.75075 3.78749 0
M  V30 4628 H 455.936 4.00946 5.09064 0
M  V30 4629 N 449.342 -1.36122 0.79427 0
M  V30 4630 C 450.619 -1.93398 0.292685 0
M  V30 4631 C 450.999 -1.72567 -1.21589 0
M  V30 4632 O 450.347 -1.08745 -2.00965 0
M  V30 4633 C 450.557 -3.42099 0.690614 0
M  V30 4634 C 451.905 -4.19231 0.673105 0
M  V30 4635 O 452.929 -3.50559 0.631389 0
M  V30 4636 O 451.788 -5.41732 0.720362 0
M  V30 4637 H 448.882 -0.823712 0.0736693 0
M  V30 4638 H 451.428 -1.45273 0.87714 0
M  V30 4639 H 450.2 -3.50938 1.73085 0
M  V30 4640 H 449.823 -3.97519 0.0803036 0
M  V30 4641 N 450.82 -0.546701 -1.47814 0
M  V30 4642 C 451.783 0.196287 -2.28358 0
M  V30 4643 C 452.783 0.852437 -1.36346 0
M  V30 4644 O 453.973 0.709913 -1.59078 0
M  V30 4645 C 451.105 1.28579 -3.15722 0
M  V30 4646 H 452.298 -0.511086 -2.95513 0
M  V30 4647 H 449.851 -0.303248 -1.5333 0
M  V30 4648 H 450.586 2.0259 -2.53235 0
M  V30 4649 H 450.371 0.820229 -3.83425 0
M  V30 4650 H 451.861 1.80793 -3.76435 0
M  V30 4651 N 452.299 1.55045 -0.282633 0
M  V30 4652 C 453.548 1.98938 0.332667 0
M  V30 4653 C 453.861 1.17455 1.56409 0
M  V30 4654 O 455.067 1.51527 2.25282 0
M  V30 4655 C 453.523 3.54105 0.643226 0
M  V30 4656 C 453.131 4.44374 -0.568814 0
M  V30 4657 C 454.875 4.06569 1.22074 0
M  V30 4658 C 452.782 5.90943 -0.232426 0
M  V30 4659 H 451.712 0.743043 0.128075 0
M  V30 4660 H 454.363 1.79341 -0.388464 0
M  V30 4661 H 452.745 3.69532 1.42346 0
M  V30 4662 H 453.919 4.40718 -1.34551 0
M  V30 4663 H 452.234 4.02585 -1.06369 0
M  V30 4664 H 454.831 5.13626 1.48635 0
M  V30 4665 H 455.174 3.56057 2.15707 0
M  V30 4666 H 455.707 3.94612 0.502621 0
M  V30 4667 H 452.446 6.45567 -1.13683 0
M  V30 4668 H 451.966 5.9765 0.507357 0
M  V30 4669 H 453.645 6.4677 0.172657 0
M  V30 4670 N 453.777 0.010035 1.57597 0
M  V30 4671 C 455.054 -0.710296 1.82248 0
M  V30 4672 C 455.434 -1.91426 0.889911 0
M  V30 4673 O 454.782 -2.28424 -0.0590292 0
M  V30 4674 C 454.992 -1.10655 3.30993 0
M  V30 4675 C 456.34 -1.50621 3.96987 0
M  V30 4676 O 457.364 -1.20007 3.35375 0
M  V30 4677 O 456.223 -2.07587 5.05539 0
M  V30 4678 H 453.317 -0.34673 0.750804 0
M  V30 4679 H 455.863 0.0362578 1.69661 0
M  V30 4680 H 454.635 -0.248826 3.90508 0
M  V30 4681 H 454.258 -1.91189 3.48615 0
M  V30 4682 N 455.255 -1.55392 -0.262866 0
M  V30 4683 C 456.502 -1.76476 -0.993109 0
M  V30 4684 C 456.83 -0.571479 -1.85915 0
M  V30 4685 O 456.085 0.445733 -1.90556 0
M  V30 4686 C 456.384 -3.02889 -1.89718 0
M  V30 4687 C 456.05 -4.34974 -1.18781 0
M  V30 4688 C 454.712 -4.7087 -0.991699 0
M  V30 4689 C 457.064 -5.16695 -0.683798 0
M  V30 4690 C 454.392 -5.86036 -0.279024 0
M  V30 4691 C 456.744 -6.32598 0.0153327 0
M  V30 4692 C 455.408 -6.67127 0.223062 0
M  V30 4693 H 454.678 -0.64577 -0.363404 0
M  V30 4694 H 457.325 -1.89664 -0.264525 0
M  V30 4695 H 455.63 -2.84644 -2.6923 0
M  V30 4696 H 457.327 -3.16399 -2.46359 0
M  V30 4697 H 453.917 -4.06765 -1.35058 0
M  V30 4698 H 458.101 -4.8943 -0.8229 0
M  V30 4699 H 453.357 -6.11306 -0.107456 0
M  V30 4700 H 457.531 -6.95171 0.413584 0
M  V30 4701 H 455.158 -7.56216 0.777265 0
M  V30 4702 N 456.733 0.527833 -1.48498 0
M  V30 4703 C 457.663 1.64136 -1.66077 0
M  V30 4704 C 458.644 1.62286 -0.509625 0
M  V30 4705 O 459.829 1.79449 -0.742413 0
M  V30 4706 C 456.959 3.02717 -1.70234 0
M  V30 4707 C 455.913 3.19426 -2.8487 0
M  V30 4708 C 455.239 4.5909 -2.74118 0
M  V30 4709 C 456.539 3.01993 -4.26142 0
M  V30 4710 H 458.233 1.4968 -2.593 0
M  V30 4711 H 455.779 0.718654 -1.24785 0
M  V30 4712 H 457.732 3.80491 -1.8112 0
M  V30 4713 H 456.456 3.18201 -0.735911 0
M  V30 4714 H 455.115 2.4407 -2.73542 0
M  V30 4715 H 454.763 4.71413 -1.7544 0
M  V30 4716 H 454.463 4.71214 -3.51042 0
M  V30 4717 H 455.987 5.3896 -2.86974 0
M  V30 4718 H 457.401 3.69558 -4.38292 0
M  V30 4719 H 455.798 3.2561 -5.04082 0
M  V30 4720 H 456.868 1.98396 -4.42456 0
M  V30 4721 N 458.211 1.37122 0.776871 0
M  V30 4722 C 459.174 1.32301 1.8716 0
M  V30 4723 C 460.174 0.228099 1.59174 0
M  V30 4724 O 461.364 0.483642 1.67352 0
M  V30 4725 C 458.496 1.054 3.24197 0
M  V30 4726 H 459.689 2.29673 1.92848 0
M  V30 4727 H 457.242 1.22077 0.97606 0
M  V30 4728 H 457.977 0.0853872 3.24188 0
M  V30 4729 H 457.762 1.84648 3.45901 0
M  V30 4730 H 459.252 1.04664 4.04271 0
M  V30 4731 N 459.689 -1.00246 1.21608 0
M  V30 4732 C 460.937 -1.73717 1.0328 0
M  V30 4733 C 461.258 -1.90102 -0.434318 0
M  V30 4734 O 460.528 -1.45376 -1.31311 0
M  V30 4735 H 459.108 -0.643613 0.379172 0
M  V30 4736 H 461.77 -1.20787 1.52959 0
M  V30 4737 H 460.866 -2.73535 1.50283 0
M  V30 4738 N 461.167 -1.02423 -1.1978 0
M  V30 4739 C 462.416 -0.713265 -1.88667 0
M  V30 4740 C 462.729 0.7609 -1.80193 0
M  V30 4741 O 463.935 1.18473 -2.44288 0
M  V30 4742 C 462.391 -1.22545 -3.38394 0
M  V30 4743 C 461.999 -2.72706 -3.55437 0
M  V30 4744 C 463.743 -0.990257 -4.12788 0
M  V30 4745 C 461.65 -3.17367 -4.99031 0
M  V30 4746 H 460.58 -0.263105 -0.706606 0
M  V30 4747 H 463.231 -1.23792 -1.35454 0
M  V30 4748 H 461.613 -0.628732 -3.90977 0
M  V30 4749 H 462.787 -3.37993 -3.13205 0
M  V30 4750 H 461.102 -2.94453 -2.94425 0
M  V30 4751 H 463.699 -1.29926 -5.18675 0
M  V30 4752 H 464.042 0.0730761 -4.16236 0
M  V30 4753 H 464.575 -1.55074 -3.66329 0
M  V30 4754 H 461.314 -4.23009 -5.00743 0
M  V30 4755 H 460.834 -2.56805 -5.42044 0
M  V30 4756 H 462.513 -3.10441 -5.67658 0
M  V30 4757 N 462.645 1.35699 -0.801477 0
M  V30 4758 C 463.608 2.28199 -0.213994 0
M  V30 4759 C 464.608 1.49359 0.595691 0
M  V30 4760 O 465.798 1.69186 0.414921 0
M  V30 4761 C 462.93 3.33587 0.702297 0
M  V30 4762 H 464.123 2.81666 -1.02976 0
M  V30 4763 H 461.676 1.45467 -0.571759 0
M  V30 4764 H 462.411 2.85297 1.54195 0
M  V30 4765 H 462.196 3.91906 0.123484 0
M  V30 4766 H 463.686 4.02638 1.10783 0
M  V30 4767 N 464.123 0.554532 1.47522 0
M  V30 4768 C 465.371 0.0294208 2.02079 0
M  V30 4769 C 465.692 -1.32411 1.43151 0
M  V30 4770 O 464.962 -1.863 0.605728 0
M  V30 4771 H 463.542 0.00788672 0.746958 0
M  V30 4772 H 466.204 0.723934 1.80956 0
M  V30 4773 H 465.3 -0.0606745 3.12041 0
M  V30 4774 N 465.601 -1.54893 0.290851 0
M  V30 4775 C 466.847 -2.0023 -0.321867 0
M  V30 4776 C 467.18 -1.179 -1.54316 0
M  V30 4777 O 466.455 -0.25293 -1.92848 0
M  V30 4778 C 466.738 -3.53456 -0.688515 0
M  V30 4779 C 466.591 -4.46532 0.541209 0
M  V30 4780 C 467.91 -4.13057 -1.51895 0
M  V30 4781 H 465.029 -0.727891 -0.115515 0
M  V30 4782 H 467.671 -1.85722 0.400931 0
M  V30 4783 H 465.821 -3.6595 -1.30433 0
M  V30 4784 H 467.493 -4.4596 1.17973 0
M  V30 4785 H 465.736 -4.17545 1.17636 0
M  V30 4786 H 466.407 -5.51475 0.240675 0
M  V30 4787 H 468.883 -4.03937 -0.99872 0
M  V30 4788 H 467.759 -5.20448 -1.74429 0
M  V30 4789 H 468.02 -3.64284 -2.50498 0
M  V30 4790 N 467.08 -0.0183926 -1.57589 0
M  V30 4791 C 467.99 0.982943 -2.13015 0
M  V30 4792 C 469.006 1.36443 -1.07979 0
M  V30 4793 O 470.182 1.44802 -1.3998 0
M  V30 4794 C 467.247 2.25024 -2.63752 0
M  V30 4795 C 466.308 1.93018 -3.83461 0
M  V30 4796 C 465.541 3.13706 -4.31769 0
M  V30 4797 O 465.764 4.2601 -3.79305 0
M  V30 4798 O 464.698 2.96629 -5.23732 0
M  V30 4799 H 468.524 0.541709 -2.9883 0
M  V30 4800 H 466.109 0.201565 -1.48034 0
M  V30 4801 H 467.991 2.99441 -2.96502 0
M  V30 4802 H 466.666 2.68349 -1.81026 0
M  V30 4803 H 465.573 1.16019 -3.55655 0
M  V30 4804 H 466.906 1.54516 -4.67317 0
M  V30 4805 N 468.558 1.5553 0.254621 0
M  V30 4806 C 469.521 1.88872 1.29846 0
M  V30 4807 C 470.521 0.764591 1.41459 0
M  V30 4808 O 471.711 1.03265 1.40293 0
M  V30 4809 C 468.843 2.11032 2.67728 0
M  V30 4810 H 470.036 2.82201 1.01502 0
M  V30 4811 H 467.589 1.48303 0.493556 0
M  V30 4812 H 468.324 1.20146 3.01223 0
M  V30 4813 H 468.109 2.92895 2.60682 0
M  V30 4814 H 469.599 2.38038 3.43115 0
M  V30 4815 N 470.036 -0.519951 1.48776 0
M  V30 4816 C 471.282 -1.27711 1.57536 0
M  V30 4817 C 471.615 -1.92547 0.252866 0
M  V30 4818 O 470.89 -1.7979 -0.742021 0
M  V30 4819 C 471.173 -2.35875 2.72094 0
M  V30 4820 C 471.026 -1.75664 4.1408 0
M  V30 4821 C 472.345 -3.37575 2.82367 0
M  V30 4822 H 469.464 -0.462971 0.573434 0
M  V30 4823 H 472.106 -0.578194 1.80989 0
M  V30 4824 H 470.256 -2.95488 2.52228 0
M  V30 4825 H 471.928 -1.20025 4.45412 0
M  V30 4826 H 470.171 -1.06154 4.20611 0
M  V30 4827 H 470.842 -2.54029 4.90075 0
M  V30 4828 H 473.318 -2.87929 3.00393 0
M  V30 4829 H 472.194 -4.1064 3.64233 0
M  V30 4830 H 472.455 -3.98743 1.90936 0
M  V30 4831 N 471.514 -1.37532 -0.769588 0
M  V30 4832 C 472.444 -1.36172 -1.89682 0
M  V30 4833 C 473.425 -0.23001 -1.68538 0
M  V30 4834 O 474.61 -0.43069 -1.89364 0
M  V30 4835 C 471.74 -1.1701 -3.26995 0
M  V30 4836 C 470.694 -2.27216 -3.62708 0
M  V30 4837 C 470.02 -1.93174 -4.98586 0
M  V30 4838 C 471.32 -3.6941 -3.69234 0
M  V30 4839 H 473.014 -2.30499 -1.91078 0
M  V30 4840 H 470.56 -1.10953 -0.917902 0
M  V30 4841 H 472.513 -1.14688 -4.05493 0
M  V30 4842 H 471.237 -0.191395 -3.26039 0
M  V30 4843 H 469.896 -2.28697 -2.86519 0
M  V30 4844 H 469.544 -0.938281 -4.94171 0
M  V30 4845 H 469.244 -2.66973 -5.23449 0
M  V30 4846 H 470.768 -1.92443 -5.79481 0
M  V30 4847 H 472.182 -3.70047 -4.37879 0
M  V30 4848 H 470.579 -4.4228 -4.05597 0
M  V30 4849 H 471.649 -4.0288 -2.69844 0
M  V30 4850 N 472.992 0.995999 -1.22138 0
M  V30 4851 C 474.22 1.77066 -1.07029 0
M  V30 4852 C 474.635 1.8495 0.379357 0
M  V30 4853 O 473.992 1.3174 1.26297 0
M  V30 4854 C 474.043 3.20533 -1.67155 0
M  V30 4855 O 473.764 3.13082 -3.06449 0
M  V30 4856 C 475.265 4.14461 -1.5728 0
M  V30 4857 H 472.485 0.556179 -0.375374 0
M  V30 4858 H 475.029 1.25238 -1.61666 0
M  V30 4859 H 473.184 3.6944 -1.16589 0
M  V30 4860 H 473.598 4.03283 -3.35355 0
M  V30 4861 H 475.072 5.1289 -2.04078 0
M  V30 4862 H 475.549 4.36005 -0.528795 0
M  V30 4863 H 476.155 3.71449 -2.07136 0
M  V30 4864 N 474.47 1.03057 1.19235 0
M  V30 4865 C 475.886 0.747947 1.40989 0
M  V30 4866 C 476.086 -0.666752 1.90149 0
M  V30 4867 O 475.142 -1.43249 2.07933 0
M  V30 4868 C 476.455 1.7855 2.41951 0
M  V30 4869 C 478.003 1.80524 2.55695 0
M  V30 4870 C 478.478 2.83243 3.59913 0
M  V30 4871 N 479.969 2.8207 3.67411 0
M  V30 4872 C 480.704 3.58204 4.47747 0
M  V30 4873 N 480.2 4.44057 5.31775 0
M  V30 4874 N 481.993 3.46738 4.42413 0
M  V30 4875 H 474.144 1.94367 0.856468 0
M  V30 4876 H 476.407 0.840412 0.438647 0
M  V30 4877 H 476.113 2.79973 2.12857 0
M  V30 4878 H 475.987 1.6092 3.41152 0
M  V30 4879 H 478.374 0.79778 2.84112 0
M  V30 4880 H 478.455 2.02229 1.56643 0
M  V30 4881 H 478.099 3.84161 3.32239 0
M  V30 4882 H 478.029 2.58795 4.5862 0
M  V30 4883 H 480.52 2.19803 3.074 0
M  V30 4884 H 480.833 4.98884 5.90199 0
M  V30 4885 H 479.178 4.48129 5.3123 0
M  V30 4886 H 482.369 2.79077 3.75811 0
M  V30 4887 H 482.542 4.06322 5.04783 0
M  V30 4888 N 475.948 -1.35272 0.808662 0
M  V30 4889 C 477.173 -2.03477 0.401475 0
M  V30 4890 C 477.598 -1.60537 -0.980279 0
M  V30 4891 O 476.956 -0.78304 -1.63518 0
M  V30 4892 C 477.004 -3.57181 0.495354 0
M  V30 4893 O 476.108 -4.09474 -0.490397 0
M  V30 4894 H 475.449 -0.642561 0.167366 0
M  V30 4895 H 477.979 -1.72824 1.09512 0
M  V30 4896 H 477.989 -4.06356 0.365912 0
M  V30 4897 H 476.664 -3.87784 1.5032 0
M  V30 4898 H 475.241 -3.71516 -0.321023 0
M  V30 4899 N 477.426 -0.562348 -1.47226 0
M  V30 4900 C 478.358 0.220011 -2.28142 0
M  V30 4901 C 479.371 0.874596 -1.37312 0
M  V30 4902 O 480.56 0.747583 -1.62091 0
M  V30 4903 C 477.66 1.32953 -3.11732 0
M  V30 4904 C 476.833 0.770759 -4.30556 0
M  V30 4905 C 475.892 1.76541 -4.95701 0
M  V30 4906 O 474.918 1.3095 -5.53932 0
M  V30 4907 N 476.12 3.09896 -4.90861 0
M  V30 4908 H 478.885 -0.474107 -2.95926 0
M  V30 4909 H 476.446 -0.398761 -1.56912 0
M  V30 4910 H 478.438 1.99378 -3.5218 0
M  V30 4911 H 477.008 1.92681 -2.46156 0
M  V30 4912 H 476.228 -0.0704056 -3.94137 0
M  V30 4913 H 477.516 0.376872 -5.07402 0
M  V30 4914 H 476.914 3.49577 -4.44761 0
M  V30 4915 H 475.471 3.71865 -5.35313 0
M  V30 4916 N 478.904 1.54736 -0.299062 0
M  V30 4917 C 479.867 2.22127 0.565012 0
M  V30 4918 C 480.867 1.20669 1.06281 0
M  V30 4919 O 482.057 1.45417 0.959145 0
M  V30 4920 C 479.189 2.90611 1.78208 0
M  V30 4921 H 480.382 2.99891 -0.0237448 0
M  V30 4922 H 477.935 1.5622 -0.0498788 0
M  V30 4923 H 478.67 2.16921 2.41072 0
M  V30 4924 H 478.455 3.64984 1.43281 0
M  V30 4925 H 479.945 3.42026 2.396 0
M  V30 4926 N 480.382 0.0267497 1.57577 0
M  V30 4927 C 481.622 -0.65659 1.93567 0
M  V30 4928 C 481.986 -1.69429 0.903213 0
M  V30 4929 O 483.187 -2.42994 1.14923 0
M  V30 4930 C 481.458 -1.25912 3.34486 0
M  V30 4931 S 483.017 -1.96386 3.924 0
M  V30 4932 H 479.835 -0.216237 0.67732 0
M  V30 4933 H 482.437 0.0898475 1.95293 0
M  V30 4934 H 481.141 -0.491405 4.07447 0
M  V30 4935 H 480.672 -2.04291 3.36198 0
M  V30 4936 H 482.687 -3.24202 3.75643 0
M  V30 4937 N 481.861 -1.55662 -0.24637 0
M  V30 4938 C 482.793 -1.86811 -1.32794 0
M  V30 4939 C 483.806 -0.754413 -1.44265 0
M  V30 4940 O 484.995 -1.03253 -1.45606 0
M  V30 4941 C 482.095 -2.0397 -2.70646 0
M  V30 4942 C 481.268 -3.34832 -2.81436 0
M  V30 4943 C 480.327 -3.41727 -4.00136 0
M  V30 4944 O 479.353 -4.14934 -3.89639 0
M  V30 4945 N 480.555 -2.71058 -5.1333 0
M  V30 4946 H 483.32 -2.80174 -1.06409 0
M  V30 4947 H 480.881 -1.55906 -0.43647 0
M  V30 4948 H 482.873 -2.05924 -3.48393 0
M  V30 4949 H 481.443 -1.1735 -2.89738 0
M  V30 4950 H 480.663 -3.4519 -1.90361 0
M  V30 4951 H 481.951 -4.21085 -2.85595 0
M  V30 4952 H 481.349 -2.11314 -5.2475 0
M  V30 4953 H 479.906 -2.78704 -5.89209 0
M  V30 4954 N 483.339 0.512053 -1.4905 0
M  V30 4955 C 484.755 0.84224 -1.35567 0
M  V30 4956 C 484.955 1.97878 -0.380319 0
M  V30 4957 O 484.011 2.51769 0.19201 0
M  V30 4958 C 485.324 1.19286 -2.76028 0
M  V30 4959 C 486.872 1.30171 -2.84648 0
M  V30 4960 C 487.347 1.68568 -4.25851 0
M  V30 4961 N 488.838 1.75638 -4.28609 0
M  V30 4962 C 489.573 2.06769 -5.34821 0
M  V30 4963 N 489.069 2.36201 -6.51292 0
M  V30 4964 N 490.862 2.07927 -5.22229 0
M  V30 4965 H 483.013 -0.237574 -2.11067 0
M  V30 4966 H 485.276 -0.0436747 -0.946993 0
M  V30 4967 H 484.982 0.431199 -3.49047 0
M  V30 4968 H 484.856 2.13889 -3.10695 0
M  V30 4969 H 487.243 2.05411 -2.11873 0
M  V30 4970 H 487.324 0.336457 -2.53578 0
M  V30 4971 H 486.968 0.938824 -4.99148 0
M  V30 4972 H 486.898 2.66174 -4.54377 0
M  V30 4973 H 489.389 1.55097 -3.44606 0
M  V30 4974 H 489.702 2.59112 -7.28066 0
M  V30 4975 H 488.047 2.33681 -6.54536 0
M  V30 4976 H 491.238 1.84403 -4.30248 0
M  V30 4977 H 491.411 2.31856 -6.05101 0
M  V30 4978 N 484.817 1.37938 0.762283 0
M  V30 4979 C 486.064 1.33668 1.52115 0
M  V30 4980 C 486.392 -0.0759538 1.94352 0
M  V30 4981 O 485.647 -1.05121 1.6507 0
M  V30 4982 C 485.946 2.23042 2.79261 0
M  V30 4983 C 485.612 3.71159 2.56031 0
M  V30 4984 C 484.274 4.11523 2.49404 0
M  V30 4985 C 486.626 4.64955 2.35513 0
M  V30 4986 C 483.954 5.43784 2.20263 0
M  V30 4987 C 486.306 5.97464 2.07894 0
M  V30 4988 C 484.97 6.36922 1.99718 0
M  V30 4989 H 484.24 0.489127 0.556629 0
M  V30 4990 H 486.887 1.70224 0.877262 0
M  V30 4991 H 485.192 1.79512 3.48256 0
M  V30 4992 H 486.889 2.17047 3.37182 0
M  V30 4993 H 483.479 3.39153 2.62056 0
M  V30 4994 H 487.663 4.34623 2.39617 0
M  V30 4995 H 482.919 5.73307 2.12435 0
M  V30 4996 H 487.093 6.6969 1.91019 0
M  V30 4997 H 484.72 7.39331 1.76902 0
M  V30 4998 N 486.295 -0.989507 1.22664 0
M  V30 4999 C 487.205 -2.11449 1.01619 0
M  V30 5000 C 488.221 -1.73962 -0.036545 0
M  V30 5001 O 489.397 -2.00788 0.156924 0
M  V30 5002 C 486.462 -3.41465 0.600204 0
M  V30 5003 C 485.523 -3.93033 1.72695 0
M  V30 5004 C 484.756 -5.16844 1.33071 0
M  V30 5005 O 484.979 -5.7001 0.210975 0
M  V30 5006 O 483.913 -5.6225 2.14845 0
M  V30 5007 H 487.739 -2.32088 1.9588 0
M  V30 5008 H 485.324 -1.09823 1.01289 0
M  V30 5009 H 487.206 -4.19695 0.37873 0
M  V30 5010 H 485.881 -3.22178 -0.313511 0
M  V30 5011 H 484.788 -3.15961 2.00298 0
M  V30 5012 H 486.121 -4.16758 2.61865 0
M  V30 5013 N 487.773 -1.03688 -1.18687 0
M  V30 5014 C 488.703 -0.645407 -2.24403 0
M  V30 5015 C 489.684 0.349511 -1.66471 0
M  V30 5016 O 490.869 0.230453 -1.92828 0
M  V30 5017 C 487.999 -0.00365337 -3.473 0
M  V30 5018 C 486.953 -0.921705 -4.17958 0
M  V30 5019 C 486.279 -0.144629 -5.34504 0
M  V30 5020 C 487.579 -2.23909 -4.71871 0
M  V30 5021 H 489.273 -1.52917 -2.57404 0
M  V30 5022 H 486.819 -0.736711 -1.23728 0
M  V30 5023 H 488.772 0.281908 -4.20456 0
M  V30 5024 H 487.496 0.914963 -3.13522 0
M  V30 5025 H 486.155 -1.19159 -3.46694 0
M  V30 5026 H 485.803 0.776274 -4.96974 0
M  V30 5027 H 485.503 -0.756206 -5.82714 0
M  V30 5028 H 487.027 0.134004 -6.10453 0
M  V30 5029 H 488.441 -2.0145 -5.36741 0
M  V30 5030 H 486.838 -2.8033 -5.30599 0
M  V30 5031 H 487.908 -2.88822 -3.895 0
M  V30 5032 N 489.251 1.34841 -0.815825 0
M  V30 5033 C 490.662 1.80937 -0.46029 0
M  V30 5034 C 491.013 1.67685 1.01863 0
M  V30 5035 O 490.138 1.21277 1.79223 0
M  V30 5036 C 490.733 3.28509 -0.828708 0
M  V30 5037 C 489.292 3.72712 -0.525644 0
M  V30 5038 C 488.439 2.56676 -1.04941 0
M  V30 5039 H 491.39 1.22688 -1.00664 0
M  V30 5040 H 491.411 3.80279 -0.129757 0
M  V30 5041 H 490.923 3.38122 -1.90513 0
M  V30 5042 H 489.024 3.68642 0.541666 0
M  V30 5043 H 489.137 4.67119 -1.06474 0
M  V30 5044 H 487.501 2.50302 -0.471286 0
M  V30 5045 H 488.284 2.69063 -2.13214 0
M  V30 5046 N 490.729 0.570148 1.46925 0
M  V30 5047 C 491.639 -0.173061 2.33961 0
M  V30 5048 C 492.655 -0.898825 1.48987 0
M  V30 5049 O 493.831 -0.864825 1.81887 0
M  V30 5050 C 490.896 -1.18177 3.25937 0
M  V30 5051 C 489.957 -0.462041 4.26806 0
M  V30 5052 C 489.19 -1.4227 5.14388 0
M  V30 5053 O 489.413 -2.65842 5.04662 0
M  V30 5054 O 488.347 -0.940127 5.94513 0
M  V30 5055 H 492.173 0.541216 2.98839 0
M  V30 5056 H 489.758 0.330647 1.45695 0
M  V30 5057 H 491.64 -1.76372 3.82715 0
M  V30 5058 H 490.315 -1.87774 2.63671 0
M  V30 5059 H 489.222 0.161429 3.73752 0
M  V30 5060 H 490.555 0.192719 4.91823 0
M  V30 5061 N 492.207 -1.54576 0.307264 0
M  V30 5062 C 493.484 -1.92377 -0.353605 0
M  V30 5063 C 493.864 -1.23517 -1.71192 0
M  V30 5064 O 493.212 -0.373101 -2.25433 0
M  V30 5065 C 493.422 -3.45928 -0.462039 0
M  V30 5066 C 494.77 -4.18278 -0.729975 0
M  V30 5067 O 495.794 -3.51997 -0.545605 0
M  V30 5068 O 494.653 -5.3563 -1.08454 0
M  V30 5069 H 491.747 -0.802747 -0.198812 0
M  V30 5070 H 494.293 -1.65929 0.355783 0
M  V30 5071 H 493.065 -3.88187 0.492592 0
M  V30 5072 H 492.688 -3.78431 -1.21965 0
M  V30 5073 N 493.685 -0.035106 -1.57561 0
M  V30 5074 C 495.101 0.321334 -1.56332 0
M  V30 5075 C 495.301 1.72509 -1.04129 0
M  V30 5076 O 494.357 2.4287 -0.690694 0
M  V30 5077 C 495.67 0.164469 -3.0025 0
M  V30 5078 C 497.218 0.236786 -3.12103 0
M  V30 5079 C 497.693 0.10864 -4.57871 0
M  V30 5080 N 499.184 0.165433 -4.62904 0
M  V30 5081 C 499.919 0.0901506 -5.73329 0
M  V30 5082 N 499.415 -0.0365606 -6.9279 0
M  V30 5083 N 501.208 0.144572 -5.61914 0
M  V30 5084 H 493.359 -0.952976 -1.89821 0
M  V30 5085 H 495.622 -0.368537 -0.873432 0
M  V30 5086 H 495.328 -0.802746 -3.42416 0
M  V30 5087 H 495.202 0.932194 -3.655 0
M  V30 5088 H 497.589 1.19446 -2.69845 0
M  V30 5089 H 497.67 -0.561419 -2.49563 0
M  V30 5090 H 497.314 -0.845644 -5.00811 0
M  V30 5091 H 497.244 0.925786 -5.18398 0
M  V30 5092 H 499.735 0.263269 -3.76982 0
M  V30 5093 H 500.048 -0.0871487 -7.72751 0
M  V30 5094 H 498.393 -0.0714256 -6.94963 0
M  V30 5095 H 501.584 0.242006 -4.67474 0
M  V30 5096 H 501.757 0.0824413 -6.47948 0
M  V30 5097 N 495.163 1.55791 0.238111 0
M  V30 5098 C 496.412 1.77234 0.962868 0
M  V30 5099 C 496.725 0.600661 1.86149 0
M  V30 5100 O 497.931 0.698315 2.62366 0
M  V30 5101 C 496.387 3.13808 1.76218 0
M  V30 5102 C 495.995 4.3865 0.910518 0
M  V30 5103 C 497.739 3.44585 2.47914 0
M  V30 5104 C 495.646 5.66252 1.70623 0
M  V30 5105 H 494.576 0.660731 0.36325 0
M  V30 5106 H 497.227 1.8221 0.217242 0
M  V30 5107 H 495.609 3.02963 2.55009 0
M  V30 5108 H 496.783 4.60507 0.164316 0
M  V30 5109 H 495.098 4.15271 0.30647 0
M  V30 5110 H 497.695 4.3714 3.07917 0
M  V30 5111 H 498.038 2.66314 3.19973 0
M  V30 5112 H 498.571 3.56685 1.76127 0
M  V30 5113 H 495.31 6.47369 1.02923 0
M  V30 5114 H 494.83 5.48483 2.42748 0
M  V30 5115 H 496.509 6.05829 2.27114 0
M  V30 5116 N 496.642 -0.504142 1.49319 0
M  V30 5117 C 497.89 -1.25598 1.58334 0
M  V30 5118 C 498.211 -1.93114 0.270538 0
M  V30 5119 O 497.481 -1.82585 -0.709891 0
M  V30 5120 H 496.061 -0.466571 0.58337 0
M  V30 5121 H 498.723 -0.584547 1.85928 0
M  V30 5122 H 497.819 -2.02159 2.37778 0
M  V30 5123 N 498.12 -1.38341 -0.754957 0
M  V30 5124 C 499.397 -1.24995 -1.50451 0
M  V30 5125 C 499.777 0.149244 -2.10572 0
M  V30 5126 O 499.125 1.15861 -1.96948 0
M  V30 5127 C 499.335 -2.35904 -2.57197 0
M  V30 5128 C 500.683 -2.74262 -3.24138 0
M  V30 5129 O 501.707 -2.35205 -2.67501 0
M  V30 5130 O 500.566 -3.4161 -4.26574 0
M  V30 5131 H 497.66 -0.48872 -0.667144 0
M  V30 5132 H 500.206 -1.50165 -0.790486 0
M  V30 5133 H 498.978 -3.2953 -2.11011 0
M  V30 5134 H 498.601 -2.12291 -3.36182 0
M  V30 5135 N 499.598 0.982988 -1.23187 0
M  V30 5136 C 500.528 2.09301 -1.03515 0
M  V30 5137 C 501.509 1.70035 0.0471136 0
M  V30 5138 O 502.694 1.93847 -0.117029 0
M  V30 5139 C 499.824 3.4167 -0.622791 0
M  V30 5140 C 498.778 3.94828 -1.65211 0
M  V30 5141 C 498.104 5.23362 -1.09527 0
M  V30 5142 C 499.404 4.2439 -3.04451 0
M  V30 5143 H 501.098 2.26016 -1.96359 0
M  V30 5144 H 498.644 1.08611 -0.945501 0
M  V30 5145 H 500.597 4.18746 -0.472233 0
M  V30 5146 H 499.321 3.24811 0.341329 0
M  V30 5147 H 497.98 3.19895 -1.79061 0
M  V30 5148 H 497.628 5.02852 -0.122211 0
M  V30 5149 H 497.328 5.59895 -1.783 0
M  V30 5150 H 498.852 6.03062 -0.956511 0
M  V30 5151 H 500.266 4.92225 -2.93917 0
M  V30 5152 H 498.663 4.72118 -3.70438 0
M  V30 5153 H 499.733 3.31765 -3.53638 0
M  V30 5154 N 501.076 1.04316 1.18135 0
M  V30 5155 C 502.322 0.749128 1.88457 0
M  V30 5156 C 502.655 -0.72149 1.803 0
M  V30 5157 O 501.93 -1.52676 1.205 0
M  V30 5158 C 502.213 1.21905 3.38838 0
M  V30 5159 C 502.066 2.75195 3.55792 0
M  V30 5160 C 503.385 0.811085 4.32561 0
M  V30 5161 H 500.504 0.273611 0.684329 0
M  V30 5162 H 503.146 1.29561 1.38975 0
M  V30 5163 H 501.296 0.754137 3.8111 0
M  V30 5164 H 502.968 3.29743 3.22595 0
M  V30 5165 H 501.211 3.14899 2.98364 0
M  V30 5166 H 501.882 3.03135 4.61317 0
M  V30 5167 H 504.358 1.21118 3.98082 0
M  V30 5168 H 503.234 1.16761 5.36338 0
M  V30 5169 H 503.495 -0.285596 4.41177 0
M  V30 5170 N 502.554 -1.34406 0.822964 0
M  V30 5171 C 503.8 -1.98578 0.411666 0
M  V30 5172 C 504.133 -1.65093 -1.02264 0
M  V30 5173 O 503.408 -0.92258 -1.71227 0
M  V30 5174 C 503.691 -3.54823 0.614235 0
M  V30 5175 C 503.544 -3.9805 2.09466 0
M  V30 5176 C 504.863 -4.40071 0.050221 0
M  V30 5177 H 501.982 -0.721355 0.151047 0
M  V30 5178 H 504.624 -1.59301 1.03554 0
M  V30 5179 H 502.774 -3.88411 0.0831774 0
M  V30 5180 H 504.446 -3.74795 2.68936 0
M  V30 5181 H 502.689 -3.4836 2.5851 0
M  V30 5182 H 503.36 -5.06819 2.18721 0
M  V30 5183 H 505.836 -4.13037 0.503953 0
M  V30 5184 H 504.712 -5.48452 0.221759 0
M  V30 5185 H 504.973 -4.29576 -1.04482 0
M  V30 5186 N 504.032 -0.577932 -1.46621 0
M  V30 5187 C 504.962 0.145917 -2.33044 0
M  V30 5188 C 505.943 0.888412 -1.45056 0
M  V30 5189 O 507.128 0.864812 -1.73881 0
M  V30 5190 C 504.258 1.16322 -3.27241 0
M  V30 5191 C 503.212 0.535868 -4.24632 0
M  V30 5192 C 502.538 1.65929 -5.08303 0
M  V30 5193 C 503.838 -0.523861 -5.19666 0
M  V30 5194 H 505.532 -0.575636 -2.93814 0
M  V30 5195 H 503.078 -0.278272 -1.41286 0
M  V30 5196 H 505.031 1.67793 -3.86553 0
M  V30 5197 H 503.755 1.91498 -2.64567 0
M  V30 5198 H 502.414 0.0422759 -3.66576 0
M  V30 5199 H 502.062 2.40061 -4.42018 0
M  V30 5200 H 501.762 1.2452 -5.74255 0
M  V30 5201 H 503.286 2.17686 -5.70478 0
M  V30 5202 H 504.7 -0.0944059 -5.73222 0
M  V30 5203 H 503.097 -0.858 -5.93935 0
M  V30 5204 H 504.167 -1.41197 -4.63887 0
M  V30 5205 N 505.51 1.54411 -0.315457 0
M  V30 5206 C 506.758 2.00023 0.288971 0
M  V30 5207 C 507.079 1.20529 1.5329 0
M  V30 5208 O 506.349 0.304986 1.93511 0
M  V30 5209 H 504.929 0.738891 0.109766 0
M  V30 5210 H 507.591 1.90094 -0.430129 0
M  V30 5211 H 506.687 3.07198 0.550999 0
M  V30 5212 N 506.988 0.0434614 1.5754 0
M  V30 5213 C 507.898 -0.94893 2.14552 0
M  V30 5214 C 508.914 -1.34707 1.10136 0
M  V30 5215 O 510.09 -1.42557 1.42266 0
M  V30 5216 C 507.155 -2.208 2.67298 0
M  V30 5217 C 506.216 -1.86893 3.86484 0
M  V30 5218 C 505.449 -3.06797 4.36705 0
M  V30 5219 O 505.672 -4.19921 3.86034 0
M  V30 5220 O 504.606 -2.8826 5.28384 0
M  V30 5221 H 508.432 -0.494099 2.99654 0
M  V30 5222 H 506.017 -0.177989 1.48336 0
M  V30 5223 H 507.899 -2.94686 3.01228 0
M  V30 5224 H 506.574 -2.65436 1.85272 0
M  V30 5225 H 505.481 -1.10347 3.57455 0
M  V30 5226 H 506.814 -1.47062 4.69716 0
M  V30 5227 N 508.466 -1.55915 -0.229846 0
M  V30 5228 C 509.882 -1.48721 -0.579166 0
M  V30 5229 C 510.082 -0.736976 -1.87539 0
M  V30 5230 O 509.138 -0.273258 -2.51017 0
M  V30 5231 C 510.451 -2.9323 -0.666082 0
M  V30 5232 C 511.999 -3.03701 -0.757267 0
M  V30 5233 C 512.474 -4.49552 -0.8756 0
M  V30 5234 N 513.965 -4.53561 -0.940035 0
M  V30 5235 C 514.7 -5.63683 -1.05116 0
M  V30 5236 N 514.196 -6.83576 -1.12675 0
M  V30 5237 N 515.989 -5.51516 -1.08565 0
M  V30 5238 H 508.14 -2.03123 0.620857 0
M  V30 5239 H 510.403 -0.922898 0.21671 0
M  V30 5240 H 510.109 -3.51032 0.21664 0
M  V30 5241 H 509.983 -3.44668 -1.53243 0
M  V30 5242 H 512.37 -2.45969 -1.63043 0
M  V30 5243 H 512.451 -2.55446 0.134583 0
M  V30 5244 H 512.095 -5.079 -0.00692351 0
M  V30 5245 H 512.025 -4.95506 -1.78274 0
M  V30 5246 H 514.516 -3.67215 -0.892269 0
M  V30 5247 H 514.829 -7.63251 -1.21109 0
M  V30 5248 H 513.174 -6.86303 -1.09603 0
M  V30 5249 H 516.365 -4.5678 -1.02319 0
M  V30 5250 H 516.538 -6.37372 -1.1688 0
M  V30 5251 N 509.944 0.496216 -1.49584 0
M  V30 5252 C 510.874 1.60576 -1.69521 0
M  V30 5253 C 511.855 1.61169 -0.543933 0
M  V30 5254 O 513.04 1.77834 -0.78031 0
M  V30 5255 C 510.17 2.99038 -1.76616 0
M  V30 5256 C 509.124 3.13312 -2.91581 0
M  V30 5257 C 508.45 4.53172 -2.83794 0
M  V30 5258 C 509.75 2.92886 -4.32452 0
M  V30 5259 H 511.444 1.44146 -2.62416 0
M  V30 5260 H 508.99 0.692024 -1.26282 0
M  V30 5261 H 510.943 3.76564 -1.8915 0
M  V30 5262 H 509.667 3.16568 -0.80324 0
M  V30 5263 H 508.326 2.38213 -2.78658 0
M  V30 5264 H 507.974 4.67585 -1.854 0
M  V30 5265 H 507.674 4.63662 -3.60958 0
M  V30 5266 H 509.198 5.32752 -2.98342 0
M  V30 5267 H 510.612 3.60178 -4.46032 0
M  V30 5268 H 509.009 3.14844 -5.10875 0
M  V30 5269 H 510.079 1.88966 -4.46565 0
M  V30 5270 N 511.423 1.38739 0.74761 0
M  V30 5271 C 512.651 1.38521 1.53686 0
M  V30 5272 C 513.066 -0.0235129 1.88785 0
M  V30 5273 O 512.423 -0.991662 1.53207 0
M  V30 5274 C 512.474 2.24641 2.83229 0
M  V30 5275 O 512.195 3.60026 2.49625 0
M  V30 5276 C 513.696 2.32669 3.77333 0
M  V30 5277 H 510.916 0.473589 0.475347 0
M  V30 5278 H 513.46 1.82395 0.924786 0
M  V30 5279 H 511.615 1.84213 3.40799 0
M  V30 5280 H 512.029 4.05435 3.3275 0
M  V30 5281 H 513.503 2.97201 4.65162 0
M  V30 5282 H 513.98 1.3421 4.18192 0
M  V30 5283 H 514.586 2.73512 3.25685 0
M  V30 5284 N 512.901 -0.976442 1.23707 0
M  V30 5285 C 514.147 -1.72081 1.07312 0
M  V30 5286 C 514.48 -1.90275 -0.388476 0
M  V30 5287 O 513.755 -1.4579 -1.28746 0
M  V30 5288 C 514.038 -3.11675 1.80363 0
M  V30 5289 C 513.891 -3.01027 3.3422 0
M  V30 5290 C 515.21 -4.1117 1.5693 0
M  V30 5291 H 512.329 -0.624583 0.391236 0
M  V30 5292 H 514.971 -1.13649 1.52263 0
M  V30 5293 H 513.121 -3.61559 1.42153 0
M  V30 5294 H 514.793 -2.58637 3.81975 0
M  V30 5295 H 513.036 -2.3744 3.63049 0
M  V30 5296 H 513.707 -3.9988 3.80525 0
M  V30 5297 H 516.183 -3.7011 1.90151 0
M  V30 5298 H 515.059 -5.06928 2.10513 0
M  V30 5299 H 515.32 -4.392 0.505548 0
M  V30 5300 N 514.379 -1.04941 -1.1758 0
M  V30 5301 C 515.309 -0.669172 -2.23706 0
M  V30 5302 C 516.29 0.331835 -1.66832 0
M  V30 5303 O 517.475 0.209988 -1.93061 0
M  V30 5304 C 514.605 -0.0404889 -3.47276 0
M  V30 5305 C 513.559 -0.965983 -4.16957 0
M  V30 5306 C 512.885 -0.201312 -5.34321 0
M  V30 5307 C 514.185 -2.28902 -4.69469 0
M  V30 5308 H 515.879 -1.55639 -2.55767 0
M  V30 5309 H 513.425 -0.749793 -1.22939 0
M  V30 5310 H 515.378 0.237298 -4.20731 0
M  V30 5311 H 514.102 0.881658 -3.14475 0
M  V30 5312 H 512.761 -1.22829 -3.45411 0
M  V30 5313 H 512.409 0.723519 -4.97769 0
M  V30 5314 H 512.109 -0.817968 -5.81879 0
M  V30 5315 H 513.633 0.0692499 -6.10561 0
M  V30 5316 H 515.047 -2.07132 -5.34574 0
M  V30 5317 H 513.444 -2.85942 -5.27596 0
M  V30 5318 H 514.514 -2.92937 -3.86414 0
M  V30 5319 N 515.857 1.33968 -0.830081 0
M  V30 5320 C 517.105 1.97672 -0.420734 0
M  V30 5321 C 517.426 1.66111 1.02138 0
M  V30 5322 O 516.696 0.955503 1.71017 0
M  V30 5323 H 515.276 0.73125 -0.152587 0
M  V30 5324 H 517.938 1.63483 -1.0611 0
M  V30 5325 H 517.034 3.07294 -0.545588 0
M  V30 5326 N 517.335 0.585699 1.46312 0
M  V30 5327 C 518.56 0.0762461 2.0726 0
M  V30 5328 C 518.985 -1.22071 1.43109 0
M  V30 5329 O 518.343 -1.73804 0.515942 0
M  V30 5330 C 518.391 -0.0729404 3.60526 0
M  V30 5331 O 517.495 -1.1287 3.96654 0
M  V30 5332 H 516.836 0.0641558 0.660893 0
M  V30 5333 H 519.366 0.809492 1.87905 0
M  V30 5334 H 519.376 -0.278158 4.07051 0
M  V30 5335 H 518.051 0.874188 4.06609 0
M  V30 5336 H 516.628 -0.901703 3.61834 0
M  V30 5337 N 518.813 -1.54241 0.323641 0
M  V30 5338 C 519.776 -2.22997 -0.529602 0
M  V30 5339 C 520.776 -1.22345 -1.04347 0
M  V30 5340 O 521.966 -1.46924 -0.935889 0
M  V30 5341 C 519.098 -2.93409 -1.73562 0
M  V30 5342 H 520.291 -2.99815 0.0714518 0
M  V30 5343 H 517.844 -1.56121 0.0747258 0
M  V30 5344 H 518.579 -2.20729 -2.37591 0
M  V30 5345 H 518.364 -3.67217 -1.37456 0
M  V30 5346 H 519.854 -3.45794 -2.34128 0
M  V30 5347 N 520.291 -0.0518155 -1.57515 0
M  V30 5348 C 521.254 0.907547 -2.10467 0
M  V30 5349 C 522.254 1.23947 -1.02439 0
M  V30 5350 O 523.444 1.17604 -1.2851 0
M  V30 5351 C 520.576 2.21723 -2.58944 0
M  V30 5352 H 521.769 0.44851 -2.96527 0
M  V30 5353 H 519.322 0.196598 -1.55059 0
M  V30 5354 H 520.057 2.72206 -1.76279 0
M  V30 5355 H 519.842 1.98935 -3.37886 0
M  V30 5356 H 521.332 2.90441 -3.00056 0
M  V30 5357 N 521.769 1.56035 0.221574 0
M  V30 5358 C 523.046 1.69837 0.970301 0
M  V30 5359 C 523.426 0.599065 2.02421 0
M  V30 5360 O 522.774 -0.393929 2.25079 0
M  V30 5361 C 522.984 3.11148 1.58076 0
M  V30 5362 C 524.332 3.70555 2.07302 0
M  V30 5363 O 525.356 3.14109 1.6797 0
M  V30 5364 O 524.215 4.69562 2.79596 0
M  V30 5365 H 521.309 0.691727 0.453257 0
M  V30 5366 H 523.855 1.68353 0.213358 0
M  V30 5367 H 522.627 3.82617 0.819759 0
M  V30 5368 H 522.25 3.16749 2.40324 0
M  V30 5369 N 523.247 -0.488276 1.49845 0
M  V30 5370 C 524.194 -1.58836 1.67451 0
M  V30 5371 C 525.164 -1.57886 0.515857 0
M  V30 5372 O 526.349 -1.75679 0.744403 0
M  V30 5373 C 523.489 -2.96915 1.75885 0
M  V30 5374 C 522.602 -3.07784 3.03138 0
M  V30 5375 C 521.737 -4.36673 3.02473 0
M  V30 5376 C 520.776 -4.41222 4.24252 0
M  V30 5377 N 519.913 -5.61557 4.21424 0
M  V30 5378 H 524.753 -1.43131 2.61376 0
M  V30 5379 H 522.29 -0.696186 1.29583 0
M  V30 5380 H 524.248 -3.76965 1.78755 0
M  V30 5381 H 522.878 -3.11295 0.85414 0
M  V30 5382 H 521.93 -2.20717 3.09819 0
M  V30 5383 H 523.242 -3.07005 3.93128 0
M  V30 5384 H 522.396 -5.25055 3.03977 0
M  V30 5385 H 521.135 -4.40037 2.10283 0
M  V30 5386 H 520.14 -3.5124 4.22978 0
M  V30 5387 H 521.365 -4.39564 5.17649 0
M  V30 5388 H 519.311 -5.65738 3.32078 0
M  V30 5389 H 519.228 -5.62447 5.05163 0
M  V30 5390 H 520.496 -6.52111 4.2705 0
M  V30 5391 N 524.725 -1.39134 -0.740242 0
M  V30 5392 C 525.675 -1.33928 -1.84519 0
M  V30 5393 C 526.659 -0.221097 -1.59374 0
M  V30 5394 O 527.851 -0.458195 -1.70967 0
M  V30 5395 C 524.98 -1.17991 -3.22387 0
M  V30 5396 C 524.066 -2.34488 -3.53378 0
M  V30 5397 N 524.457 -3.59954 -3.5534 0
M  V30 5398 C 522.755 -2.27331 -3.83714 0
M  V30 5399 C 523.456 -4.36962 -3.83978 0
M  V30 5400 N 522.432 -3.66482 -4.01487 0
M  V30 5401 H 526.234 -2.28907 -1.84333 0
M  V30 5402 H 523.748 -1.32555 -0.938237 0
M  V30 5403 H 525.745 -1.12345 -4.01478 0
M  V30 5404 H 524.405 -0.23957 -3.23815 0
M  V30 5405 H 525.416 -3.93448 -3.36778 0
M  V30 5406 H 522.093 -1.41531 -3.92779 0
M  V30 5407 H 523.483 -5.45692 -3.92008 0
M  V30 5408 N 526.204 0.969867 -1.24223 0
M  V30 5409 C 527.481 1.68774 -0.988664 0
M  V30 5410 C 527.861 2.05342 0.489673 0
M  V30 5411 O 527.209 1.75486 1.46345 0
M  V30 5412 C 527.419 2.92135 -1.90941 0
M  V30 5413 C 528.767 3.64422 -2.17903 0
M  V30 5414 O 529.791 3.02188 -1.88576 0
M  V30 5415 O 528.65 4.76446 -2.67697 0
M  V30 5416 H 525.744 0.737736 -0.37373 0
M  V30 5417 H 528.29 1.02415 -1.35312 0
M  V30 5418 H 527.062 2.61788 -2.90831 0
M  V30 5419 H 526.685 3.66228 -1.54798 0
M  V30 5420 N 527.682 1.05563 1.17022 0
M  V30 5421 C 528.612 0.681026 2.23348 0
M  V30 5422 C 529.593 -0.322983 1.67005 0
M  V30 5423 O 530.778 -0.199746 1.9317 0
M  V30 5424 C 527.908 0.0589053 3.4725 0
M  V30 5425 C 526.862 0.988082 4.16438 0
M  V30 5426 C 526.188 0.229646 5.34207 0
M  V30 5427 C 527.488 2.31388 4.68249 0
M  V30 5428 H 529.182 1.56993 2.54938 0
M  V30 5429 H 526.728 0.756302 1.2254 0
M  V30 5430 H 528.681 -0.214982 4.20851 0
M  V30 5431 H 527.405 -0.864968 3.14938 0
M  V30 5432 H 526.064 1.24659 3.44754 0
M  V30 5433 H 525.712 -0.697111 4.98146 0
M  V30 5434 H 525.412 0.848815 5.81437 0
M  V30 5435 H 526.936 -0.0368694 6.10589 0
M  V30 5436 H 528.35 2.09964 5.33468 0
M  V30 5437 H 526.747 2.88736 5.26072 0
M  V30 5438 H 527.817 2.94982 3.84855 0
M  V30 5439 N 529.16 -1.33526 0.837174 0
M  V30 5440 C 530.385 -2.0258 0.444545 0
M  V30 5441 C 530.81 -1.6258 -0.946006 0
M  V30 5442 O 530.168 -0.817548 -1.6182 0
M  V30 5443 C 530.216 -3.5605 0.571006 0
M  V30 5444 O 529.32 -4.10422 -0.403431 0
M  V30 5445 H 528.661 -0.638866 0.180958 0
M  V30 5446 H 531.191 -1.70462 1.13154 0
M  V30 5447 H 531.201 -4.05488 0.452024 0
M  V30 5448 H 529.876 -3.84509 1.58512 0
M  V30 5449 H 528.453 -3.72113 -0.242147 0
M  V30 5450 N 530.638 -0.59345 -1.46 0
M  V30 5451 C 531.886 -0.082988 -2.0193 0
M  V30 5452 C 532.207 1.28569 -1.46612 0
M  V30 5453 O 531.477 1.84629 -0.654909 0
M  V30 5454 H 530.057 -0.0276882 -0.746487 0
M  V30 5455 H 532.719 -0.771657 -1.78973 0
M  V30 5456 H 531.815 -0.022079 -3.12092 0
M  V30 5457 N 532.116 1.54067 -0.331816 0
M  V30 5458 C 533.046 2.27569 0.522932 0
M  V30 5459 C 534.027 1.28679 1.11247 0
M  V30 5460 O 535.212 1.57504 1.13605 0
M  V30 5461 C 532.342 3.0397 1.67987 0
M  V30 5462 C 531.296 4.10267 1.21924 0
M  V30 5463 C 530.622 4.74555 2.46377 0
M  V30 5464 C 531.922 5.21268 0.32815 0
M  V30 5465 H 533.616 2.99264 -0.0901977 0
M  V30 5466 H 531.162 1.4393 -0.044821 0
M  V30 5467 H 533.115 3.54123 2.28418 0
M  V30 5468 H 531.839 2.29906 2.31971 0
M  V30 5469 H 530.498 3.61009 0.637809 0
M  V30 5470 H 530.146 3.97098 3.08743 0
M  V30 5471 H 529.846 5.46363 2.16243 0
M  V30 5472 H 531.37 5.27487 3.07555 0
M  V30 5473 H 532.784 5.67128 0.838978 0
M  V30 5474 H 531.181 5.99982 0.119228 0
M  V30 5475 H 532.251 4.80673 -0.638839 0
M  V30 5476 N 533.594 0.0601682 1.57485 0
M  V30 5477 C 534.822 -0.620937 1.97363 0
M  V30 5478 C 535.237 -1.63846 0.938082 0
M  V30 5479 O 534.594 -1.82339 -0.0766578 0
M  V30 5480 C 534.645 -1.29987 3.37321 0
M  V30 5481 O 534.366 -0.323081 4.36907 0
M  V30 5482 C 535.867 -2.06989 3.92008 0
M  V30 5483 H 533.087 -0.169135 0.649334 0
M  V30 5484 H 535.631 0.129132 2.04092 0
M  V30 5485 H 533.786 -2.0011 3.31715 0
M  V30 5486 H 534.2 -0.808754 5.18227 0
M  V30 5487 H 535.674 -2.49901 4.92192 0
M  V30 5488 H 536.151 -2.92173 3.2792 0
M  V30 5489 H 536.757 -1.41757 4.0098 0
M  V30 5490 N 535.072 -1.5615 -0.213296 0
M  V30 5491 C 536.318 -1.79812 -0.937849 0
M  V30 5492 C 536.651 -0.631201 -1.83656 0
M  V30 5493 O 535.926 0.369165 -1.90964 0
M  V30 5494 C 536.209 -3.13613 -1.76972 0
M  V30 5495 C 536.062 -4.40766 -0.89695 0
M  V30 5496 C 537.381 -3.43931 -2.7459 0
M  V30 5497 H 534.5 -0.654138 -0.339518 0
M  V30 5498 H 537.142 -1.88877 -0.20623 0
M  V30 5499 H 535.292 -3.06015 -2.39347 0
M  V30 5500 H 536.964 -4.60392 -0.289306 0
M  V30 5501 H 535.207 -4.33326 -0.202756 0
M  V30 5502 H 535.878 -5.30843 -1.51358 0
M  V30 5503 H 538.354 -3.5171 -2.22349 0
M  V30 5504 H 537.23 -4.38706 -3.29891 0
M  V30 5505 H 537.491 -2.6651 -3.52739 0
M  V30 5506 N 536.55 0.480323 -1.50102 0
M  V30 5507 C 537.961 1.06142 -1.53593 0
M  V30 5508 C 538.312 1.93335 -0.334055 0
M  V30 5509 O 537.437 2.09188 0.55403 0
M  V30 5510 C 538.032 1.9317 -2.78336 0
M  V30 5511 C 536.591 2.46405 -2.84538 0
M  V30 5512 C 535.738 1.24521 -2.4777 0
M  V30 5513 H 538.689 0.26333 -1.565 0
M  V30 5514 H 538.71 2.78123 -2.59669 0
M  V30 5515 H 538.222 1.29683 -3.65792 0
M  V30 5516 H 536.323 3.13472 -2.01411 0
M  V30 5517 H 536.436 2.82143 -3.87211 0
M  V30 5518 H 534.8 1.57706 -2.00003 0
M  V30 5519 H 535.583 0.627102 -3.37524 0
M  V30 5520 N 538.028 1.39524 0.732853 0
M  V30 5521 C 538.958 1.41153 1.86005 0
M  V30 5522 C 539.939 0.274614 1.67869 0
M  V30 5523 O 541.124 0.480745 1.88155 0
M  V30 5524 C 538.254 1.25638 3.23778 0
M  V30 5525 C 537.208 2.36752 3.56556 0
M  V30 5526 C 536.534 2.06326 4.93289 0
M  V30 5527 C 537.834 3.79069 3.5931 0
M  V30 5528 H 539.528 2.35484 1.84899 0
M  V30 5529 H 537.074 1.13348 0.888162 0
M  V30 5530 H 539.027 1.25398 4.0231 0
M  V30 5531 H 537.751 0.277772 3.25417 0
M  V30 5532 H 536.41 2.36213 2.80355 0
M  V30 5533 H 536.058 1.06897 4.9151 0
M  V30 5534 H 535.758 2.80757 5.16187 0
M  V30 5535 H 537.282 2.07739 5.74175 0
M  V30 5536 H 538.696 3.81526 4.27914 0
M  V30 5537 H 537.093 4.52878 3.93728 0
M  V30 5538 H 538.163 4.09893 2.59068 0
M  V30 5539 N 539.506 -0.963266 1.24736 0
M  V30 5540 C 540.922 -1.23273 1.01371 0
M  V30 5541 C 541.122 -1.99618 -0.274776 0
M  V30 5542 O 540.178 -2.32293 -0.989769 0
M  V30 5543 C 541.491 -2.01554 2.23152 0
M  V30 5544 C 543.039 -2.14629 2.27823 0
M  V30 5545 C 543.514 -2.96307 3.49237 0
M  V30 5546 N 545.005 -3.03887 3.49581 0
M  V30 5547 C 545.74 -3.67456 4.40186 0
M  V30 5548 N 545.236 -4.32706 5.41052 0
M  V30 5549 N 547.029 -3.64511 4.27888 0
M  V30 5550 H 539.18 -0.452294 2.07528 0
M  V30 5551 H 541.443 -0.262521 0.910926 0
M  V30 5552 H 541.149 -1.52847 3.1675 0
M  V30 5553 H 541.023 -3.02278 2.25628 0
M  V30 5554 H 543.41 -2.62537 1.34753 0
M  V30 5555 H 543.491 -1.13238 2.2937 0
M  V30 5556 H 543.135 -2.49091 4.42624 0
M  V30 5557 H 543.065 -3.97905 3.44933 0
M  V30 5558 H 545.556 -2.57477 2.76611 0
M  V30 5559 H 545.869 -4.79042 6.06415 0
M  V30 5560 H 544.214 -4.31361 5.44934 0
M  V30 5561 H 547.405 -3.12715 3.4832 0
M  V30 5562 H 547.578 -4.13768 4.98698 0
M  V30 5563 N 540.985 -1.06182 -1.16461 0
M  V30 5564 C 542.21 -0.798599 -1.91408 0
M  V30 5565 C 542.635 0.640987 -1.76842 0
M  V30 5566 O 541.993 1.44652 -1.09296 0
M  V30 5567 C 542.041 -1.19665 -3.40165 0
M  V30 5568 O 541.145 -0.334768 -4.11039 0
M  V30 5569 H 540.486 -0.291961 -0.596368 0
M  V30 5570 H 543.016 -1.41732 -1.47557 0
M  V30 5571 H 543.026 -1.16772 -3.90933 0
M  V30 5572 H 541.701 -2.24526 -3.50087 0
M  V30 5573 H 540.278 -0.425168 -3.70468 0
M  V30 5574 N 542.463 1.3308 -0.844243 0
M  V30 5575 C 543.413 2.26589 -0.253289 0
M  V30 5576 C 544.397 1.49501 0.594836 0
M  V30 5577 O 545.589 1.71291 0.445924 0
M  V30 5578 C 542.718 3.38599 0.566176 0
M  V30 5579 C 541.804 4.23081 -0.293756 0
M  V30 5580 N 542.195 4.86751 -1.37505 0
M  V30 5581 C 540.493 4.45925 -0.0817086 0
M  V30 5582 C 541.194 5.49684 -1.90323 0
M  V30 5583 N 540.17 5.30101 -1.20391 0
M  V30 5584 H 543.972 2.73334 -1.08009 0
M  V30 5585 H 541.486 1.47048 -0.689258 0
M  V30 5586 H 543.483 4.04584 1.00587 0
M  V30 5587 H 542.143 2.93401 1.39089 0
M  V30 5588 H 543.154 4.87151 -1.75796 0
M  V30 5589 H 539.831 4.11434 0.709129 0
M  V30 5590 H 541.221 6.10363 -2.80902 0
M  V30 5591 N 543.941 0.601185 1.45683 0
M  V30 5592 C 545.189 0.0936957 2.01883 0
M  V30 5593 C 545.51 -1.2779 1.47291 0
M  V30 5594 O 544.78 -1.84279 0.664691 0
M  V30 5595 H 543.36 0.0316466 0.746329 0
M  V30 5596 H 546.022 0.781137 1.78562 0
M  V30 5597 H 545.118 0.0386297 3.12076 0
M  V30 5598 N 545.419 -1.53889 0.339982 0
M  V30 5599 C 546.667 -2.00458 -0.257112 0
M  V30 5600 C 546.988 -1.22953 -1.51353 0
M  V30 5601 O 546.258 -0.335734 -1.93002 0
M  V30 5602 H 544.838 -0.740544 -0.0979965 0
M  V30 5603 H 547.5 -1.89386 0.460317 0
M  V30 5604 H 546.596 -3.08035 -0.502057 0
M  V30 5605 N 546.897 -0.0685191 -1.57451 0
M  V30 5606 C 548.143 0.602239 -1.93652 0
M  V30 5607 C 548.476 1.6946 -0.948526 0
M  V30 5608 O 547.751 1.94487 0.022782 0
M  V30 5609 C 548.034 1.18223 -3.4014 0
M  V30 5610 C 547.887 0.0967431 -4.49696 0
M  V30 5611 C 549.206 2.08872 -3.87377 0
M  V30 5612 H 546.325 0.217453 -0.70419 0
M  V30 5613 H 548.967 -0.133821 -1.89528 0
M  V30 5614 H 547.117 1.80953 -3.43785 0
M  V30 5615 H 548.789 -0.536155 -4.58174 0
M  V30 5616 H 547.032 -0.573063 -4.29998 0
M  V30 5617 H 547.703 0.542894 -5.49324 0
M  V30 5618 H 550.179 1.56081 -3.85717 0
M  V30 5619 H 549.055 2.46389 -4.90493 0
M  V30 5620 H 549.316 2.99572 -3.25129 0
M  V30 5621 N 548.375 1.56261 0.205012 0
M  V30 5622 C 549.6 1.84491 0.947512 0
M  V30 5623 C 550.025 0.650894 1.76479 0
M  V30 5624 O 549.383 -0.40035 1.76824 0
M  V30 5625 C 549.431 3.10863 1.82747 0
M  V30 5626 O 548.535 2.90719 2.925 0
M  V30 5627 H 547.876 0.607783 0.267386 0
M  V30 5628 H 550.406 2.03485 0.213323 0
M  V30 5629 H 550.416 3.41399 2.23407 0
M  V30 5630 H 549.091 3.97392 1.2269 0
M  V30 5631 H 547.668 2.71457 2.55667 0
M  V30 5632 N 549.853 -0.472356 1.50355 0
M  V30 5633 C 550.763 -1.59637 1.7191 0
M  V30 5634 C 551.779 -1.63247 0.602195 0
M  V30 5635 O 552.955 -1.81139 0.880369 0
M  V30 5636 C 550.02 -2.9586 1.80742 0
M  V30 5637 C 549.081 -3.02649 3.04471 0
M  V30 5638 C 548.314 -4.32374 3.12872 0
M  V30 5639 O 548.537 -5.22807 2.28099 0
M  V30 5640 O 547.471 -4.44728 4.05587 0
M  V30 5641 H 551.297 -1.44373 2.67189 0
M  V30 5642 H 548.882 -0.651717 1.34436 0
M  V30 5643 H 550.764 -3.7677 1.88739 0
M  V30 5644 H 549.439 -3.11325 0.88647 0
M  V30 5645 H 548.346 -2.20821 3.01975 0
M  V30 5646 H 549.679 -2.92119 3.9614 0
M  V30 5647 N 551.331 -1.39911 -0.725443 0
M  V30 5648 C 552.263 -1.35301 -1.85003 0
M  V30 5649 C 553.276 -0.260102 -1.60709 0
M  V30 5650 O 554.465 -0.519749 -1.70766 0
M  V30 5651 C 551.565 -1.08039 -3.21218 0
M  V30 5652 C 550.738 -2.28793 -3.7279 0
M  V30 5653 C 549.797 -1.97841 -4.87591 0
M  V30 5654 O 548.823 -2.70616 -5.00755 0
M  V30 5655 N 550.025 -0.950367 -5.72668 0
M  V30 5656 H 552.79 -2.32218 -1.89459 0
M  V30 5657 H 550.351 -1.34137 -0.90658 0
M  V30 5658 H 552.343 -0.853354 -3.95601 0
M  V30 5659 H 550.913 -0.198229 -3.11971 0
M  V30 5660 H 550.133 -2.67388 -2.8965 0
M  V30 5661 H 551.421 -3.09317 -4.03981 0
M  V30 5662 H 550.819 -0.347436 -5.64632 0
M  V30 5663 H 549.376 -0.783232 -6.47077 0
M  V30 5664 N 552.809 0.956637 -1.25245 0
M  V30 5665 C 553.756 2.053 -1.05454 0
M  V30 5666 C 554.726 1.66062 0.0356889 0
M  V30 5667 O 555.911 1.90415 -0.121099 0
M  V30 5668 C 553.051 3.38391 -0.677191 0
M  V30 5669 C 552.164 3.90758 -1.84206 0
M  V30 5670 C 551.299 5.12165 -1.40926 0
M  V30 5671 C 550.338 5.56757 -2.54338 0
M  V30 5672 N 549.475 6.69376 -2.11848 0
M  V30 5673 H 554.315 2.21562 -1.99284 0
M  V30 5674 H 551.852 1.08578 -0.992434 0
M  V30 5675 H 553.81 4.1488 -0.43938 0
M  V30 5676 H 552.44 3.22021 0.224127 0
M  V30 5677 H 551.492 3.10808 -2.19323 0
M  V30 5678 H 552.804 4.19802 -2.69383 0
M  V30 5679 H 551.958 5.96065 -1.13098 0
M  V30 5680 H 550.697 4.84832 -0.528175 0
M  V30 5681 H 549.702 4.71423 -2.82913 0
M  V30 5682 H 550.927 5.861 -3.43022 0
M  V30 5683 H 548.873 6.43756 -1.26153 0
M  V30 5684 H 548.79 6.97927 -2.90574 0
M  V30 5685 H 550.058 7.5669 -1.87191 0
M  V30 5686 N 554.287 1.06798 1.15896 0
M  V30 5687 C 555.533 0.788934 1.86825 0
M  V30 5688 C 555.866 -0.683084 1.8179 0
M  V30 5689 O 555.141 -1.50086 1.23711 0
M  V30 5690 C 555.424 1.29065 3.36176 0
M  V30 5691 C 555.277 2.8268 3.49874 0
M  V30 5692 C 556.596 0.902655 4.30744 0
M  V30 5693 H 553.715 0.288066 0.678371 0
M  V30 5694 H 556.357 1.32479 1.36195 0
M  V30 5695 H 554.507 0.834806 3.79425 0
M  V30 5696 H 556.179 3.36511 3.15528 0
M  V30 5697 H 554.422 3.21157 2.91617 0
M  V30 5698 H 555.093 3.12852 4.54783 0
M  V30 5699 H 557.569 1.29535 3.95424 0
M  V30 5700 H 556.445 1.28111 5.3374 0
M  V30 5701 H 556.706 -0.191951 4.41683 0
M  V30 5702 N 555.766 -1.3263 0.851289 0
M  V30 5703 C 557.177 -1.79653 0.5081 0
M  V30 5704 C 557.528 -1.70327 -0.973815 0
M  V30 5705 O 556.653 -1.25986 -1.75944 0
M  V30 5706 C 557.248 -3.26196 0.915515 0
M  V30 5707 C 555.807 -3.71187 0.624277 0
M  V30 5708 C 554.954 -2.53804 1.11709 0
M  V30 5709 H 557.905 -1.19976 1.03882 0
M  V30 5710 H 557.926 -3.79801 0.230535 0
M  V30 5711 H 557.438 -3.32952 1.99411 0
M  V30 5712 H 555.539 -3.69948 -0.443737 0
M  V30 5713 H 555.652 -4.64132 1.18821 0
M  V30 5714 H 554.016 -2.48964 0.537484 0
M  V30 5715 H 554.799 -2.63315 2.20272 0
M  V30 5716 N 557.244 -0.608902 -1.45362 0
M  V30 5717 C 558.174 0.0964526 -2.33301 0
M  V30 5718 C 559.155 0.857444 -1.46908 0
M  V30 5719 O 560.34 0.827735 -1.75676 0
M  V30 5720 C 557.47 1.09354 -3.29635 0
M  V30 5721 C 556.424 0.445676 -4.25673 0
M  V30 5722 C 555.75 1.5511 -5.11708 0
M  V30 5723 C 557.05 -0.633972 -5.18438 0
M  V30 5724 H 558.744 -0.637829 -2.92527 0
M  V30 5725 H 556.29 -0.308178 -1.40664 0
M  V30 5726 H 558.243 1.59556 -3.90025 0
M  V30 5727 H 556.967 1.85843 -2.6857 0
M  V30 5728 H 555.626 -0.0354897 -3.66583 0
M  V30 5729 H 555.274 2.30631 -4.4701 0
M  V30 5730 H 554.974 1.12311 -5.76767 0
M  V30 5731 H 556.498 2.05537 -5.74967 0
M  V30 5732 H 557.912 -0.215974 -5.72893 0
M  V30 5733 H 556.309 -0.983789 -5.91981 0
M  V30 5734 H 557.379 -1.51005 -4.60788 0
M  V30 5735 N 558.722 1.53707 -0.348139 0
M  V30 5736 C 559.971 2.0017 0.247992 0
M  V30 5737 C 560.284 1.23983 1.51286 0
M  V30 5738 O 561.49 1.60946 2.18652 0
M  V30 5739 C 559.946 3.56515 0.492459 0
M  V30 5740 C 559.554 4.41562 -0.756777 0
M  V30 5741 C 561.298 4.11381 1.0472 0
M  V30 5742 C 559.205 5.89426 -0.482856 0
M  V30 5743 H 558.135 0.747806 0.0964452 0
M  V30 5744 H 560.786 1.77532 -0.464179 0
M  V30 5745 H 559.168 3.75236 1.26545 0
M  V30 5746 H 560.342 4.34615 -1.53122 0
M  V30 5747 H 558.657 3.97711 -1.23348 0
M  V30 5748 H 561.254 5.19468 1.26717 0
M  V30 5749 H 561.597 3.64885 2.00411 0
M  V30 5750 H 562.13 3.96389 0.334801 0
M  V30 5751 H 558.869 6.40164 -1.40962 0
M  V30 5752 H 558.389 5.99264 0.253416 0
M  V30 5753 H 560.068 6.4692 -0.101816 0
M  V30 5754 N 560.2 0.0768682 1.57412 0
M  V30 5755 C 561.447 -0.591085 1.93681 0
M  V30 5756 C 561.775 -1.69311 0.957286 0
M  V30 5757 O 561.03 -1.95682 -0.0262428 0
M  V30 5758 C 561.329 -1.20268 3.36557 0
M  V30 5759 C 560.995 -0.226286 4.50332 0
M  V30 5760 C 559.657 0.0423142 4.81181 0
M  V30 5761 C 562.009 0.441415 5.19327 0
M  V30 5762 C 559.337 0.985616 5.78362 0
M  V30 5763 C 561.689 1.37307 6.17519 0
M  V30 5764 C 560.353 1.65009 6.46783 0
M  V30 5765 H 559.623 -0.216293 0.70873 0
M  V30 5766 H 562.27 0.148824 1.90921 0
M  V30 5767 H 560.575 -2.01844 3.35807 0
M  V30 5768 H 562.272 -1.72688 3.61911 0
M  V30 5769 H 558.862 -0.445821 4.26275 0
M  V30 5770 H 563.046 0.247023 4.95685 0
M  V30 5771 H 558.302 1.20743 5.99359 0
M  V30 5772 H 562.476 1.89637 6.70083 0
M  V30 5773 H 560.103 2.38263 7.21897 0
M  V30 5774 N 561.678 -1.56367 -0.196722 0
M  V30 5775 C 562.626 -1.95304 -1.2633 0
M  V30 5776 C 563.62 -0.838252 -1.47206 0
M  V30 5777 O 564.826 -1.02325 -1.48087 0
M  V30 5778 H 561.201 -0.621013 -0.424083 0
M  V30 5779 H 563.172 -2.84254 -0.907879 0
M  V30 5780 C 561.921 -2.3074 -2.60104 0
M  V30 5781 H 561.244 -3.16047 -2.44856 0
M  V30 5782 H 562.684 -2.61849 -3.33484 0
M  V30 5783 C 561.143 -1.14143 -3.16975 0
M  V30 5784 O 561.673 -0.415602 -3.99544 0
M  V30 5785 N 559.879 -0.91867 -2.75697 0
M  V30 5786 H 559.426 -1.51065 -2.08656 0
M  V30 5787 H 559.384 -0.140321 -3.14087 0
M  V30 5788 N 563.156 0.464375 -1.50603 0
M  V30 5789 C 564.572 0.798684 -1.38178 0
M  V30 5790 C 564.772 1.96568 -0.44308 0
M  V30 5791 O 563.828 2.52252 0.111814 0
M  V30 5792 C 565.141 1.10444 -2.79683 0
M  V30 5793 C 566.689 1.2105 -2.88645 0
M  V30 5794 C 567.164 1.54934 -4.30998 0
M  V30 5795 N 568.655 1.61913 -4.3398 0
M  V30 5796 C 569.39 1.8965 -5.41129 0
M  V30 5797 N 568.886 2.15361 -6.58477 0
M  V30 5798 N 570.679 1.91207 -5.28579 0
M  V30 5799 H 562.83 -0.304603 -2.10204 0
M  V30 5800 H 565.093 -0.0737804 -0.945125 0
M  V30 5801 H 564.799 0.319934 -3.50242 0
M  V30 5802 H 564.673 2.03896 -3.17342 0
M  V30 5803 H 567.06 1.98567 -2.18301 0
M  V30 5804 H 567.141 0.255613 -2.5452 0
M  V30 5805 H 566.785 0.779549 -5.01882 0
M  V30 5806 H 566.715 2.51584 -4.62615 0
M  V30 5807 H 569.206 1.44055 -3.49366 0
M  V30 5808 H 569.519 2.35818 -7.35941 0
M  V30 5809 H 567.864 2.1274 -6.6164 0
M  V30 5810 H 571.055 1.70622 -4.35897 0
M  V30 5811 H 571.228 2.12488 -6.12171 0
M  V30 5812 N 564.634 1.40294 0.718013 0
M  V30 5813 C 565.581 1.40367 1.8321 0
M  V30 5814 C 566.551 0.260952 1.64037 0
M  V30 5815 O 567.736 0.458648 1.85205 0
M  V30 5816 C 564.876 1.26965 3.20895 0
M  V30 5817 C 563.989 2.50922 3.51656 0
M  V30 5818 C 563.124 2.29981 4.78834 0
M  V30 5819 C 562.163 3.49527 5.02491 0
M  V30 5820 N 561.3 3.27796 6.20882 0
M  V30 5821 H 566.14 2.35593 1.82482 0
M  V30 5822 H 563.677 1.17012 0.891444 0
M  V30 5823 H 565.635 1.17202 4.00399 0
M  V30 5824 H 564.265 0.353591 3.20858 0
M  V30 5825 H 563.317 2.71223 2.66725 0
M  V30 5826 H 564.629 3.39913 3.65048 0
M  V30 5827 H 563.783 2.17558 5.66351 0
M  V30 5828 H 562.522 1.38411 4.67647 0
M  V30 5829 H 561.527 3.6243 4.1343 0
M  V30 5830 H 562.752 4.42021 5.15553 0
M  V30 5831 H 560.698 2.38906 6.1095 0
M  V30 5832 H 560.615 4.10351 6.34939 0
M  V30 5833 H 561.883 3.19101 7.11193 0
M  V30 5834 N 566.112 -0.949982 1.2575 0
M  V30 5835 C 567.042 -2.06483 1.09028 0
M  V30 5836 C 568.023 -1.701 -0.00201532 0
M  V30 5837 O 569.208 -1.93469 0.168383 0
M  V30 5838 C 566.338 -3.39899 0.71316 0
M  V30 5839 C 565.292 -3.90309 1.75621 0
M  V30 5840 C 564.618 -5.20274 1.23365 0
M  V30 5841 C 565.918 -4.16169 3.15596 0
M  V30 5842 H 567.612 -2.20731 2.02283 0
M  V30 5843 H 565.158 -1.06066 0.973964 0
M  V30 5844 H 567.111 -4.17346 0.58309 0
M  V30 5845 H 565.835 -3.25602 -0.255091 0
M  V30 5846 H 564.494 -3.15035 1.8748 0
M  V30 5847 H 564.142 -5.02351 0.255491 0
M  V30 5848 H 563.842 -5.54971 1.93082 0
M  V30 5849 H 565.366 -6.00314 1.11607 0
M  V30 5850 H 566.78 -4.84259 3.06864 0
M  V30 5851 H 565.177 -4.62131 3.82825 0
M  V30 5852 H 566.247 -3.22273 3.6231 0
M  V30 5853 N 567.59 -1.07411 -1.15328 0
M  V30 5854 C 568.836 -0.798831 -1.86404 0
M  V30 5855 C 569.169 0.673433 -1.8215 0
M  V30 5856 O 568.444 1.49428 -1.24505 0
M  V30 5857 C 568.727 -1.30846 -3.35487 0
M  V30 5858 C 568.58 -2.84532 -3.4837 0
M  V30 5859 C 569.899 -0.925486 -4.30259 0
M  V30 5860 H 567.018 -0.291659 -0.676834 0
M  V30 5861 H 569.66 -1.332 -1.35491 0
M  V30 5862 H 567.81 -0.854916 -3.78977 0
M  V30 5863 H 569.482 -3.3818 -3.13739 0
M  V30 5864 H 567.725 -3.22699 -2.8991 0
M  V30 5865 H 568.396 -3.15259 -4.53118 0
M  V30 5866 H 570.872 -1.3163 -3.94731 0
M  V30 5867 H 569.748 -1.3094 -5.33053 0
M  V30 5868 H 570.009 0.168525 -4.41779 0
M  V30 5869 N 569.068 1.32177 -0.85831 0
M  V30 5870 C 570.316 1.96735 -0.462568 0
M  V30 5871 C 570.637 1.6824 0.985911 0
M  V30 5872 O 569.907 0.991564 1.68952 0
M  V30 5873 H 568.487 0.727849 -0.168064 0
M  V30 5874 H 571.149 1.61195 -1.09554 0
M  V30 5875 H 570.245 3.06068 -0.610647 0
M  V30 5876 N 570.547 0.616602 1.45037 0
M  V30 5877 C 571.477 -0.0840787 2.33349 0
M  V30 5878 C 572.458 -0.849641 1.4736 0
M  V30 5879 O 573.643 -0.818407 1.76113 0
M  V30 5880 C 570.773 -1.07604 3.3021 0
M  V30 5881 C 569.727 -0.423096 4.25904 0
M  V30 5882 C 569.053 -1.52394 5.12523 0
M  V30 5883 C 570.353 0.661457 5.18095 0
M  V30 5884 H 572.047 0.653333 2.92185 0
M  V30 5885 H 569.593 0.315634 1.40498 0
M  V30 5886 H 571.546 -1.57485 3.90866 0
M  V30 5887 H 570.27 -1.84416 2.69552 0
M  V30 5888 H 568.929 0.05493 3.66559 0
M  V30 5889 H 568.577 -2.28257 4.48227 0
M  V30 5890 H 568.277 -1.09251 5.77354 0
M  V30 5891 H 569.801 -2.02485 5.76049 0
M  V30 5892 H 571.215 0.246353 5.7277 0
M  V30 5893 H 569.612 1.01517 5.91451 0
M  V30 5894 H 570.682 1.53446 4.59981 0
M  V30 5895 N 572.025 -1.5352 0.356285 0
M  V30 5896 C 573.302 -1.93405 -0.292223 0
M  V30 5897 C 573.682 -1.28901 -1.67176 0
M  V30 5898 O 573.03 -0.444632 -2.24132 0
M  V30 5899 C 573.24 -3.47223 -0.35175 0
M  V30 5900 C 574.588 -4.20389 -0.596534 0
M  V30 5901 O 575.612 -3.53554 -0.433344 0
M  V30 5902 O 574.471 -5.3881 -0.913589 0
M  V30 5903 H 571.565 -0.808666 -0.173172 0
M  V30 5904 H 574.111 -1.64713 0.408391 0
M  V30 5905 H 572.883 -3.86423 0.615841 0
M  V30 5906 H 572.506 -3.8212 -1.09864 0
M  V30 5907 N 573.503 -0.0852151 -1.57369 0
M  V30 5908 C 574.728 0.592872 -1.98746 0
M  V30 5909 C 575.153 1.61538 -0.963689 0
M  V30 5910 O 574.511 1.81168 0.069071 0
M  V30 5911 C 574.559 1.22599 -3.39119 0
M  V30 5912 O 573.663 2.34185 -3.39457 0
M  V30 5913 H 573.004 0.151314 -0.646529 0
M  V30 5914 H 575.534 -0.163703 -2.03944 0
M  V30 5915 H 575.544 1.56965 -3.76598 0
M  V30 5916 H 574.219 0.476831 -4.13158 0
M  V30 5917 H 572.796 2.01512 -3.13763 0
M  V30 5918 N 574.981 1.5647 0.188427 0
M  V30 5919 C 576.392 1.70864 0.752494 0
M  V30 5920 C 576.743 0.692905 1.83557 0
M  V30 5921 O 575.868 -0.149307 2.15884 0
M  V30 5922 C 576.463 3.09789 1.37173 0
M  V30 5923 C 575.022 3.25925 1.88281 0
M  V30 5924 C 574.169 2.66817 0.755259 0
M  V30 5925 H 577.12 1.58657 -0.0367408 0
M  V30 5926 H 577.141 3.07489 2.24122 0
M  V30 5927 H 576.653 3.83693 0.583219 0
M  V30 5928 H 574.754 2.56948 2.6983 0
M  V30 5929 H 574.867 4.33498 2.04001 0
M  V30 5930 H 573.231 2.2617 1.17128 0
M  V30 5931 H 574.014 3.43294 -0.0211237 0
M  V30 5932 N 576.459 -0.456382 1.50847 0
M  V30 5933 C 577.707 -1.20497 1.62249 0
M  V30 5934 C 578.028 -1.92156 0.331839 0
M  V30 5935 O 577.298 -1.84751 -0.651443 0
M  V30 5936 H 575.878 -0.447775 0.597918 0
M  V30 5937 H 578.54 -0.525099 1.87693 0
M  V30 5938 H 577.636 -1.94492 2.44089 0
M  V30 5939 N 577.937 -1.40673 -0.710563 0
M  V30 5940 C 579.353 -1.22813 -1.01928 0
M  V30 5941 C 579.553 -0.10687 -2.01216 0
M  V30 5942 O 578.609 0.533614 -2.46797 0
M  V30 5943 C 579.922 -2.57178 -1.5582 0
M  V30 5944 C 581.47 -2.64233 -1.67779 0
M  V30 5945 C 581.945 -3.98879 -2.25076 0
M  V30 5946 N 583.436 -4.00647 -2.32456 0
M  V30 5947 C 584.171 -5.01621 -2.77784 0
M  V30 5948 N 583.667 -6.12989 -3.22826 0
M  V30 5949 N 585.46 -4.88988 -2.77213 0
M  V30 5950 H 577.611 -2.12335 -0.05253 0
M  V30 5951 H 579.874 -0.9441 -0.085898 0
M  V30 5952 H 579.58 -3.39903 -0.903249 0
M  V30 5953 H 579.454 -2.78618 -2.54267 0
M  V30 5954 H 581.841 -1.81876 -2.3239 0
M  V30 5955 H 581.922 -2.46619 -0.679178 0
M  V30 5956 H 581.566 -4.81678 -1.61086 0
M  V30 5957 H 581.496 -4.13826 -3.25661 0
M  V30 5958 H 583.987 -3.20231 -2.0065 0
M  V30 5959 H 584.3 -6.85921 -3.55995 0
M  V30 5960 H 582.645 -6.16547 -3.20773 0
M  V30 5961 H 585.836 -4.01075 -2.41363 0
M  V30 5962 H 586.009 -5.67822 -3.12221 0
M  V30 5963 N 579.415 0.9433 -1.26252 0
M  V30 5964 C 580.345 2.05902 -1.10122 0
M  V30 5965 C 581.326 1.70099 -0.00700552 0
M  V30 5966 O 582.511 1.93377 -0.178641 0
M  V30 5967 C 579.641 3.39516 -0.731175 0
M  V30 5968 C 578.595 3.89372 -1.77688 0
M  V30 5969 C 577.921 5.19613 -1.26122 0
M  V30 5970 C 579.221 4.14489 -3.17799 0
M  V30 5971 H 580.915 2.19655 -2.03451 0
M  V30 5972 H 578.461 1.05548 -0.979576 0
M  V30 5973 H 580.414 4.17031 -0.605215 0
M  V30 5974 H 579.138 3.25733 0.23782 0
M  V30 5975 H 577.797 3.14036 -1.89148 0
M  V30 5976 H 577.445 5.02208 -0.282128 0
M  V30 5977 H 577.145 5.53939 -1.96023 0
M  V30 5978 H 578.669 5.99713 -1.14789 0
M  V30 5979 H 580.083 4.82625 -3.09428 0
M  V30 5980 H 578.48 4.60094 -3.85271 0
M  V30 5981 H 579.55 3.20347 -3.64014 0
M  V30 5982 N 580.893 1.08022 1.14757 0
M  V30 5983 C 582.309 0.807072 1.3769 0
M  V30 5984 C 582.509 -0.585504 1.92806 0
M  V30 5985 O 581.565 -1.34301 2.13821 0
M  V30 5986 C 582.878 1.88651 2.34161 0
M  V30 5987 C 584.426 1.91206 2.47809 0
M  V30 5988 C 584.901 2.98253 3.47576 0
M  V30 5989 N 586.392 2.974 3.55117 0
M  V30 5990 C 587.127 3.76872 4.32152 0
M  V30 5991 N 586.623 4.66212 5.12463 0
M  V30 5992 N 588.416 3.6519 4.27309 0
M  V30 5993 H 580.567 1.97824 0.77326 0
M  V30 5994 H 582.83 0.85826 0.402608 0
M  V30 5995 H 582.536 2.88749 2.00791 0
M  V30 5996 H 582.41 1.75244 3.3402 0
M  V30 5997 H 584.797 0.917564 2.80472 0
M  V30 5998 H 584.878 2.08691 1.47925 0
M  V30 5999 H 584.522 3.97907 3.15646 0
M  V30 6000 H 584.452 2.78014 4.47231 0
M  V30 6001 H 586.943 2.32643 2.97801 0
M  V30 6002 H 587.256 5.23468 5.68508 0
M  V30 6003 H 585.601 4.70257 5.11745 0
M  V30 6004 H 588.792 2.94765 3.63636 0
M  V30 6005 H 588.965 4.27366 4.87095 0
M  V30 6006 N 582.371 -1.3172 0.865308 0
M  V30 6007 C 583.319 -2.30569 0.306674 0
M  V30 6008 C 584.313 -1.59317 -0.575724 0
M  V30 6009 O 585.519 -1.73961 -0.462343 0
M  V30 6010 H 581.894 -0.747681 0.0804834 0
M  V30 6011 H 583.865 -2.75165 1.15441 0
M  V30 6012 C 582.614 -3.44358 -0.480952 0
M  V30 6013 H 581.937 -3.99354 0.18876 0
M  V30 6014 H 583.377 -4.15652 -0.837241 0
M  V30 6015 C 581.836 -2.92574 -1.67039 0
M  V30 6016 O 582.366 -2.90954 -2.76964 0
M  V30 6017 N 580.572 -2.48835 -1.50097 0
M  V30 6018 H 580.119 -2.50353 -0.606738 0
M  V30 6019 H 580.077 -2.14543 -2.29823 0
M  V30 6020 N 583.85 -0.624285 -1.44708 0
M  V30 6021 C 585.096 -0.126051 -2.02107 0
M  V30 6022 C 585.425 1.2496 -1.49048 0
M  V30 6023 O 584.68 1.84163 -0.662005 0
M  V30 6024 C 584.979 -0.0546353 -3.57358 0
M  V30 6025 C 584.644 -1.36815 -4.29642 0
M  V30 6026 C 583.307 -1.72792 -4.49106 0
M  V30 6027 C 585.659 -2.23549 -4.70824 0
M  V30 6028 C 582.986 -2.95222 -5.07012 0
M  V30 6029 C 585.339 -3.45243 -5.30085 0
M  V30 6030 C 584.003 -3.81452 -5.47769 0
M  V30 6031 H 583.273 -0.0461252 -0.739563 0
M  V30 6032 H 585.92 -0.809236 -1.73562 0
M  V30 6033 H 584.225 0.711891 -3.85278 0
M  V30 6034 H 585.922 0.347282 -3.99493 0
M  V30 6035 H 582.512 -1.07817 -4.14817 0
M  V30 6036 H 586.696 -1.9705 -4.55505 0
M  V30 6037 H 581.952 -3.23361 -5.18891 0
M  V30 6038 H 586.125 -4.12689 -5.60946 0
M  V30 6039 H 583.753 -4.76403 -5.92405 0
M  V30 6040 N 585.328 1.53329 -0.364422 0
M  V30 6041 C 586.605 1.93557 0.281962 0
M  V30 6042 C 586.985 1.29786 1.6649 0
M  V30 6043 O 586.333 0.456512 2.23893 0
M  V30 6044 C 586.543 3.47405 0.333331 0
M  V30 6045 C 587.891 4.20699 0.574231 0
M  V30 6046 O 588.915 3.53779 0.414588 0
M  V30 6047 O 587.774 5.39287 0.885002 0
M  V30 6048 H 584.868 0.809573 0.168881 0
M  V30 6049 H 587.414 1.64494 -0.417121 0
M  V30 6050 H 586.186 3.86091 -0.636326 0
M  V30 6051 H 585.809 3.82697 1.07836 0
M  V30 6052 N 586.806 0.0935595 1.57322 0
M  V30 6053 C 588.055 -0.570191 1.93473 0
M  V30 6054 C 588.368 -1.69434 0.977318 0
M  V30 6055 O 589.574 -2.41914 1.23248 0
M  V30 6056 C 588.03 -1.06564 3.43762 0
M  V30 6057 C 587.638 0.0286723 4.47991 0
M  V30 6058 C 589.382 -1.70221 3.88877 0
M  V30 6059 C 587.289 -0.482046 5.89432 0
M  V30 6060 H 586.219 -0.216764 0.72217 0
M  V30 6061 H 588.87 0.169313 1.82717 0
M  V30 6062 H 587.252 -1.85878 3.49664 0
M  V30 6063 H 588.426 0.804106 4.5373 0
M  V30 6064 H 586.741 0.570336 4.12476 0
M  V30 6065 H 589.338 -2.09502 4.91948 0
M  V30 6066 H 589.681 -2.57078 3.27439 0
M  V30 6067 H 590.214 -0.974919 3.85668 0
M  V30 6068 H 586.953 0.349871 6.54566 0
M  V30 6069 H 586.473 -1.22452 5.87167 0
M  V30 6070 H 588.152 -0.951508 6.39965 0
M  V30 6071 N 588.284 -1.56567 -0.180126 0
M  V30 6072 C 589.533 -1.80685 -0.896426 0
M  V30 6073 C 589.846 -0.669335 -1.83791 0
M  V30 6074 O 591.052 -0.795209 -2.59593 0
M  V30 6075 C 589.508 -3.20132 -1.6445 0
M  V30 6076 C 589.116 -4.41727 -0.747088 0
M  V30 6077 C 590.86 -3.53549 -2.34955 0
M  V30 6078 C 588.767 -5.72195 -1.49489 0
M  V30 6079 H 587.697 -0.673758 -0.338477 0
M  V30 6080 H 590.348 -1.8289 -0.149467 0
M  V30 6081 H 588.73 -3.12218 -2.43589 0
M  V30 6082 H 589.904 -4.608 0.00671129 0
M  V30 6083 H 588.219 -4.16122 -0.152134 0
M  V30 6084 H 590.816 -4.48267 -2.91481 0
M  V30 6085 H 591.159 -2.78006 -3.09868 0
M  V30 6086 H 591.692 -3.62976 -1.62768 0
M  V30 6087 H 588.431 -6.50743 -0.788251 0
M  V30 6088 H 587.951 -5.57115 -2.22224 0
M  V30 6089 H 589.63 -6.1384 -2.04472 0
M  V30 6090 N 589.762 0.448376 -1.51087 0
M  V30 6091 C 591.039 1.20926 -1.53741 0
M  V30 6092 C 591.419 2.09025 -0.295222 0
M  V30 6093 O 590.767 2.16851 0.720283 0
M  V30 6094 C 590.977 2.02067 -2.84552 0
M  V30 6095 C 592.325 2.59486 -3.36084 0
M  V30 6096 O 593.349 2.12289 -2.86028 0
M  V30 6097 O 592.208 3.45539 -4.23397 0
M  V30 6098 H 589.302 0.549951 -0.617643 0
M  V30 6099 H 591.848 0.458344 -1.63393 0
M  V30 6100 H 590.62 1.37291 -3.66425 0
M  V30 6101 H 590.243 2.84246 -2.78011 0
M  V30 6102 N 591.24 1.41047 0.703093 0
M  V30 6103 C 592.17 1.45067 1.82969 0
M  V30 6104 C 593.151 0.31016 1.67248 0
M  V30 6105 O 594.336 0.520548 1.87093 0
M  V30 6106 C 591.466 1.32478 3.2104 0
M  V30 6107 C 590.42 2.44262 3.51454 0
M  V30 6108 C 589.746 2.16742 4.88801 0
M  V30 6109 C 591.046 3.86606 3.51189 0
M  V30 6110 H 592.74 2.39353 1.79863 0
M  V30 6111 H 590.286 1.15206 0.863919 0
M  V30 6112 H 592.239 1.33904 3.99559 0
M  V30 6113 H 590.963 0.346735 3.24754 0
M  V30 6114 H 589.622 2.42107 2.75282 0
M  V30 6115 H 589.27 1.17299 4.89132 0
M  V30 6116 H 588.97 2.91643 5.10116 0
M  V30 6117 H 590.494 2.19872 5.69639 0
M  V30 6118 H 591.908 3.90517 4.19725 0
M  V30 6119 H 590.305 4.61128 3.84033 0
M  V30 6120 H 591.375 4.15296 2.50315 0
M  V30 6121 N 592.718 -0.936591 1.26751 0
M  V30 6122 C 593.681 -2.01752 1.08761 0
M  V30 6123 C 594.681 -1.60763 0.0344435 0
M  V30 6124 O 595.871 -1.71963 0.278258 0
M  V30 6125 C 593.003 -3.34543 0.655271 0
M  V30 6126 H 594.196 -2.19143 2.04735 0
M  V30 6127 H 591.749 -1.11618 1.09413 0
M  V30 6128 H 592.484 -3.22851 -0.30626 0
M  V30 6129 H 592.269 -3.65647 1.41578 0
M  V30 6130 H 593.759 -4.13944 0.551378 0
M  V30 6131 N 594.196 -1.08629 -1.14182 0
M  V30 6132 C 595.126 -0.740003 -2.21464 0
M  V30 6133 C 596.107 0.278591 -1.67803 0
M  V30 6134 O 597.292 0.148461 -1.93632 0
M  V30 6135 C 594.422 -0.150952 -3.46972 0
M  V30 6136 C 593.376 -1.09815 -4.13672 0
M  V30 6137 C 592.702 -0.3712 -5.3341 0
M  V30 6138 C 594.002 -2.43722 -4.61949 0
M  V30 6139 H 595.696 -1.63697 -2.50686 0
M  V30 6140 H 593.242 -0.788526 -1.20492 0
M  V30 6141 H 595.195 0.103325 -4.21273 0
M  V30 6142 H 593.919 0.781164 -3.1712 0
M  V30 6143 H 592.578 -1.33756 -3.41328 0
M  V30 6144 H 592.226 0.564792 -4.99819 0
M  V30 6145 H 591.926 -1.00267 -5.78982 0
M  V30 6146 H 593.45 -0.12503 -6.10472 0
M  V30 6147 H 594.864 -2.24034 -5.27714 0
M  V30 6148 H 593.261 -3.02582 -5.18232 0
M  V30 6149 H 594.331 -3.05082 -3.76899 0
M  V30 6150 N 595.674 1.31259 -0.872281 0
M  V30 6151 C 596.622 2.30404 -0.318897 0
M  V30 6152 C 597.616 1.5962 0.567267 0
M  V30 6153 O 598.822 1.74204 0.453111 0
M  V30 6154 H 595.197 0.747243 -0.0844474 0
M  V30 6155 H 597.168 2.74549 -1.16899 0
M  V30 6156 C 595.917 3.44608 0.462683 0
M  V30 6157 H 595.24 3.99248 -0.209936 0
M  V30 6158 H 596.68 4.1609 0.815187 0
M  V30 6159 C 595.139 2.93456 1.65485 0
M  V30 6160 O 595.669 2.92418 2.75417 0
M  V30 6161 N 593.875 2.49628 1.48776 0
M  V30 6162 H 593.422 2.50671 0.593452 0
M  V30 6163 H 593.38 2.15759 2.28682 0
M  V30 6164 N 597.152 0.631951 1.44375 0
M  V30 6165 C 598.102 -0.0943862 2.27805 0
M  V30 6166 C 599.086 -0.815359 1.38711 0
M  V30 6167 O 600.278 -0.701331 1.62513 0
M  V30 6168 C 597.407 -1.07472 3.26044 0
M  V30 6169 C 596.493 -0.353329 4.22626 0
M  V30 6170 N 596.884 0.618512 5.02004 0
M  V30 6171 C 595.182 -0.597662 4.41977 0
M  V30 6172 C 595.883 1.0448 5.7224 0
M  V30 6173 N 594.859 0.383413 5.42246 0
M  V30 6174 H 598.661 0.651672 2.86584 0
M  V30 6175 H 596.175 0.45752 1.55822 0
M  V30 6176 H 598.172 -1.60969 3.84571 0
M  V30 6177 H 596.832 -1.82107 2.68825 0
M  V30 6178 H 597.843 0.996356 5.08226 0
M  V30 6179 H 594.52 -1.32682 3.95856 0
M  V30 6180 H 595.91 1.84773 6.45994 0
M  V30 6181 N 598.631 -1.53133 0.372548 0
M  V30 6182 C 599.561 -2.28876 -0.462412 0
M  V30 6183 C 600.542 -1.31583 -1.07796 0
M  V30 6184 O 601.727 -1.60461 -1.09389 0
M  V30 6185 C 598.857 -3.08317 -1.59868 0
M  V30 6186 C 597.811 -4.13355 -1.11003 0
M  V30 6187 C 597.137 -4.8092 -2.33708 0
M  V30 6188 C 598.437 -5.21955 -0.18983 0
M  V30 6189 H 600.131 -2.9892 0.169511 0
M  V30 6190 H 597.677 -1.43761 0.0829658 0
M  V30 6191 H 599.63 -3.60055 -2.18949 0
M  V30 6192 H 598.354 -2.35976 -2.25794 0
M  V30 6193 H 597.013 -3.62573 -0.541869 0
M  V30 6194 H 596.661 -4.05144 -2.98106 0
M  V30 6195 H 596.361 -5.51904 -2.01682 0
M  V30 6196 H 597.885 -5.35455 -2.93462 0
M  V30 6197 H 599.299 -5.69153 -0.688319 0
M  V30 6198 H 597.696 -6.00087 0.0398887 0
M  V30 6199 H 598.766 -4.78811 0.766057 0
M  V30 6200 N 600.109 -0.101901 -1.5727 0
M  V30 6201 C 601.072 0.840129 -2.13247 0
M  V30 6202 C 602.072 1.20625 -1.06331 0
M  V30 6203 O 603.262 1.13456 -1.32186 0
M  V30 6204 C 600.394 2.13372 -2.65867 0
M  V30 6205 H 601.587 0.353945 -2.97804 0
M  V30 6206 H 599.14 0.147167 -1.55606 0
M  V30 6207 H 599.875 2.66461 -1.84849 0
M  V30 6208 H 599.66 1.88085 -3.44044 0
M  V30 6209 H 601.15 2.80748 -3.09145 0
M  V30 6210 O 601.626 1.61455 0.0379495 0
M  V30 6211 H 602.317 1.82122 0.659643 0
M  V30 END ATOM
M  V30 BEGIN BOND
M  V30 END BOND
M  V30 END CTAB
M  END
$$$$
