drugbank_target|Q51793 Phenazine biosynthesis protein PhzG (DB03247)
 OpenBabel12092120273D

  0  0  0     0  0            999 V3000
M  V30 BEGIN CTAB
M  V30 COUNTS 3492 3532 0 0 0
M  V30 BEGIN ATOM
M  V30 1 H -0.908 1.98254 -0.117106 0
M  V30 2 N 0 1.576 0 0
M  V30 3 C 0.933 2.03868 1.02534 0
M  V30 4 C 1.911 0.928543 1.3348 0
M  V30 5 O 3.095 1.19667 1.45644 0
M  V30 6 C 0.222 2.43627 2.35294 0
M  V30 7 C -0.732 3.65373 2.2001 0
M  V30 8 S 0.101 5.13292 1.52614 0
M  V30 9 C 1.257 5.56322 2.86805 0
M  V30 10 H 1.49 2.90518 0.631377 0
M  V30 11 H -0.977 1.52953 0.210867 0
M  V30 12 H 0.981 2.67203 3.11629 0
M  V30 13 H -0.358 1.57376 2.7183 0
M  V30 14 H -1.165 3.90944 3.18086 0
M  V30 15 H -1.563 3.418 1.51819 0
M  V30 16 H 0.729 5.58782 3.83104 0
M  V30 17 H 1.672 6.56266 2.65933 0
M  V30 18 H 2.08 4.83886 2.90714 0
M  V30 19 N 1.4781 -0.272755 1.55222 0
M  V30 20 C 2.4261 -1.35705 1.88909 0
M  V30 21 C 3.4201 -1.5112 0.765456 0
M  V30 22 O 4.6261 -1.52901 0.949802 0
M  V30 23 H 1.0011 -0.453868 0.59959 0
M  V30 24 H 2.9721 -1.04544 2.79487 0
M  V30 25 C 1.7211 -2.71049 2.17779 0
M  V30 26 H 1.0441 -2.59979 3.03728 0
M  V30 27 H 2.4841 -3.45858 2.45272 0
M  V30 28 C 0.9431 -3.22165 0.985473 0
M  V30 29 O 1.4731 -4.01096 0.220233 0
M  V30 30 N -0.3209 -2.7985 0.783108 0
M  V30 31 H -0.7739 -2.15775 1.40708 0
M  V30 32 H -0.8159 -3.14397 -0.0130392 0
M  V30 33 N 2.9562 -1.48159 -0.537278 0
M  V30 34 C 4.2042 -1.55497 -1.29094 0
M  V30 35 C 4.5252 -0.227454 -1.93669 0
M  V30 36 O 3.7952 0.750386 -1.80959 0
M  V30 37 H 2.3752 -0.572832 -0.47945 0
M  V30 38 H 5.0372 -1.84579 -0.625818 0
M  V30 39 H 4.1332 -2.33216 -2.07405 0
M  V30 40 N 4.4343 0.785586 -1.36625 0
M  V30 41 C 5.6593 1.57963 -1.34397 0
M  V30 42 C 6.0843 1.87964 0.071526 0
M  V30 43 O 5.4423 1.48182 1.0446 0
M  V30 44 C 5.4903 2.87511 -2.17646 0
M  V30 45 O 4.5943 3.81281 -1.57158 0
M  V30 46 H 3.9353 0.479014 -0.459828 0
M  V30 47 H 6.4653 0.973411 -1.79961 0
M  V30 48 H 6.4753 3.36745 -2.30362 0
M  V30 49 H 5.1503 2.65002 -3.20541 0
M  V30 50 H 3.7273 3.39885 -1.53403 0
M  V30 51 N 5.9124 1.20967 1.01018 0
M  V30 52 C 7.1614 1.01796 1.74128 0
M  V30 53 C 7.4744 -0.449691 1.90361 0
M  V30 54 O 8.6804 -0.76068 2.60626 0
M  V30 55 C 7.1364 1.7727 3.13215 0
M  V30 56 C 6.7444 3.28171 3.04972 0
M  V30 57 C 8.4884 1.66489 3.90489 0
M  V30 58 C 6.3954 3.96156 4.39107 0
M  V30 59 H 5.3254 0.377276 0.652824 0
M  V30 60 H 7.9764 1.44651 1.12909 0
M  V30 61 H 6.3584 1.27205 3.75013 0
M  V30 62 H 7.5324 3.85499 2.52443 0
M  V30 63 H 5.8474 3.39437 2.41188 0
M  V30 64 H 8.4444 2.14617 4.89738 0
M  V30 65 H 8.7874 0.6222 4.11624 0
M  V30 66 H 9.3204 2.14003 3.35332 0
M  V30 67 H 6.0594 5.00604 4.23174 0
M  V30 68 H 5.5794 3.43617 4.91617 0
M  V30 69 H 7.2584 4.00774 5.07926 0
M  V30 70 N 7.3905 -1.2043 1.01659 0
M  V30 71 C 8.3225 -2.22626 0.544988 0
M  V30 72 C 9.3355 -1.58479 -0.372609 0
M  V30 73 O 10.5245 -1.77679 -0.170958 0
M  V30 74 C 7.6245 -3.38141 -0.22663 0
M  V30 75 C 6.7975 -4.31877 0.692876 0
M  V30 76 C 5.8565 -5.26191 -0.0311616 0
M  V30 77 O 4.8825 -5.6612 0.591343 0
M  V30 78 N 6.0845 -5.65618 -1.30601 0
M  V30 79 H 8.8495 -2.63716 1.42388 0
M  V30 80 H 6.4105 -1.34971 0.894116 0
M  V30 81 H 8.4025 -3.98239 -0.72024 0
M  V30 82 H 6.9725 -2.95943 -1.00681 0
M  V30 83 H 6.1925 -3.69746 1.36679 0
M  V30 84 H 7.4805 -4.91426 1.31824 0
M  V30 85 H 6.8785 -5.3519 -1.83269 0
M  V30 86 H 5.4355 -6.28025 -1.74435 0
M  V30 87 N 8.8686 -0.792821 -1.36206 0
M  V30 88 C 10.1166 -0.366062 -1.98757 0
M  V30 89 C 10.4376 1.0668 -1.63231 0
M  V30 90 O 9.7076 1.73587 -0.907978 0
M  V30 91 H 8.2876 -0.132364 -0.735179 0
M  V30 92 H 10.9496 -1.01562 -1.66347 0
M  V30 93 H 10.0456 -0.460638 -3.08682 0
M  V30 94 N 10.3467 1.47872 -0.545128 0
M  V30 95 C 11.2937 2.29849 0.2093 0
M  V30 96 C 12.2637 1.38313 0.919707 0
M  V30 97 O 13.4487 1.67277 0.917772 0
M  V30 98 C 10.5887 3.22019 1.24088 0
M  V30 99 C 9.7017 4.2864 0.537778 0
M  V30 100 C 8.8367 5.07973 1.5536 0
M  V30 101 C 7.8757 6.06381 0.8348 0
M  V30 102 N 7.0127 6.78717 1.79688 0
M  V30 103 H 11.8527 2.93845 -0.49591 0
M  V30 104 H 9.3897 1.44848 -0.256389 0
M  V30 105 H 11.3477 3.73868 1.85144 0
M  V30 106 H 9.9777 2.59914 1.91428 0
M  V30 107 H 9.0297 3.7994 -0.187046 0
M  V30 108 H 10.3417 4.98793 -0.0258907 0
M  V30 109 H 9.4957 5.63912 2.23803 0
M  V30 110 H 8.2347 4.37693 2.15118 0
M  V30 111 H 7.2397 5.49631 0.136388 0
M  V30 112 H 8.4647 6.78665 0.24313 0
M  V30 113 H 6.4107 6.11177 2.38326 0
M  V30 114 H 6.3277 7.44998 1.28505 0
M  V30 115 H 7.5957 7.39237 2.47282 0
M  V30 116 N 11.8248 0.280983 1.55075 0
M  V30 117 C 13.2358 -0.215629 1.85451 0
M  V30 118 C 13.5868 -1.54991 1.203 0
M  V30 119 O 12.7118 -2.10699 0.493435 0
M  V30 120 C 13.3068 -0.398026 3.36454 0
M  V30 121 C 11.8658 -0.838866 3.66933 0
M  V30 122 C 11.0128 0.064458 2.77225 0
M  V30 123 H 13.9638 0.502601 1.50531 0
M  V30 124 H 13.9848 -1.23569 3.59876 0
M  V30 125 H 13.4968 0.573241 3.83843 0
M  V30 126 H 11.5978 -1.8214 3.25048 0
M  V30 127 H 11.7108 -0.672123 4.74362 0
M  V30 128 H 10.0748 -0.452863 2.50642 0
M  V30 129 H 10.8578 1.03172 3.2743 0
M  V30 130 N 13.3029 -1.57598 0.00835791 0
M  V30 131 C 14.2329 -2.1198 -0.979113 0
M  V30 132 C 15.2139 -1.03091 -1.35301 0
M  V30 133 O 16.3989 -1.30818 -1.43528 0
M  V30 134 C 13.5289 -2.62995 -2.26828 0
M  V30 135 C 12.4829 -3.76485 -2.03576 0
M  V30 136 C 11.8089 -4.13846 -3.38579 0
M  V30 137 C 13.1089 -5.0342 -1.39161 0
M  V30 138 H 14.8029 -2.94738 -0.526281 0
M  V30 139 H 12.3489 -1.41783 -0.251704 0
M  V30 140 H 14.3019 -2.99669 -2.96271 0
M  V30 141 H 13.0259 -1.7737 -2.7424 0
M  V30 142 H 11.6849 -3.40217 -1.36557 0
M  V30 143 H 11.3329 -3.25232 -3.83709 0
M  V30 144 H 11.0329 -4.90312 -3.23834 0
M  V30 145 H 12.5569 -4.53086 -4.09323 0
M  V30 146 H 13.9709 -5.37812 -1.98573 0
M  V30 147 H 12.3679 -5.84746 -1.34878 0
M  V30 148 H 13.4379 -4.83548 -0.361868 0
M  V30 149 N 14.781 0.264519 -1.55364 0
M  V30 150 C 15.711 1.33121 -1.91836 0
M  V30 151 C 16.692 1.51101 -0.781192 0
M  V30 152 O 17.877 1.64003 -1.04003 0
M  V30 153 C 15.007 2.68921 -2.19769 0
M  V30 154 C 13.961 2.65661 -3.35571 0
M  V30 155 C 13.287 4.05093 -3.49004 0
M  V30 156 C 14.587 2.24187 -4.71739 0
M  V30 157 H 16.281 1.02844 -2.81182 0
M  V30 158 H 13.827 0.493286 -1.35287 0
M  V30 159 H 15.78 3.43663 -2.43872 0
M  V30 160 H 14.504 3.00799 -1.27231 0
M  V30 161 H 13.163 1.93377 -3.1145 0
M  V30 162 H 12.811 4.34206 -2.53917 0
M  V30 163 H 12.511 4.03804 -4.26868 0
M  V30 164 H 14.035 4.81561 -3.75408 0
M  V30 165 H 15.449 2.88654 -4.9533 0
M  V30 166 H 13.846 2.34044 -5.52579 0
M  V30 167 H 14.916 1.19327 -4.69988 0
M  V30 168 N 16.2591 1.48442 0.529413 0
M  V30 169 C 17.5071 1.56179 1.28267 0
M  V30 170 C 17.8281 0.237721 1.93546 0
M  V30 171 O 17.0981 -0.740779 1.81354 0
M  V30 172 H 15.6781 0.575367 0.476405 0
M  V30 173 H 18.3401 1.84909 0.61602 0
M  V30 174 H 17.4361 2.34312 2.06165 0
M  V30 175 N 17.7372 -0.778329 1.37039 0
M  V30 176 C 18.6842 -1.89139 1.32269 0
M  V30 177 C 19.6542 -1.65017 0.189387 0
M  V30 178 O 20.8392 -1.87024 0.377693 0
M  V30 179 C 17.9792 -3.26112 1.12894 0
M  V30 180 C 17.0922 -3.62233 2.35396 0
M  V30 181 C 16.2272 -4.8838 2.08946 0
M  V30 182 C 15.2662 -5.17212 3.2735 0
M  V30 183 N 14.4032 -6.34546 3.00492 0
M  V30 184 H 19.2432 -1.92552 2.27437 0
M  V30 185 H 16.7802 -0.941473 1.13025 0
M  V30 186 H 18.7382 -4.05116 0.996835 0
M  V30 187 H 17.3682 -3.22091 0.213758 0
M  V30 188 H 16.4202 -2.78265 2.5937 0
M  V30 189 H 17.7322 -3.79481 3.23721 0
M  V30 190 H 16.8862 -5.75274 1.92729 0
M  V30 191 H 15.6252 -4.73222 1.17949 0
M  V30 192 H 14.6302 -4.28796 3.44113 0
M  V30 193 H 15.8552 -5.34283 4.19188 0
M  V30 194 H 13.8012 -6.20759 2.12118 0
M  V30 195 H 13.7182 -6.52179 3.82358 0
M  V30 196 H 14.9862 -7.24394 2.87879 0
M  V30 197 N 19.2153 -1.21501 -1.00376 0
M  V30 198 C 20.4633 -1.03095 -1.73827 0
M  V30 199 C 20.7843 0.436341 -1.90055 0
M  V30 200 O 20.0543 1.31466 -1.45236 0
M  V30 201 H 18.6343 -0.378487 -0.644016 0
M  V30 202 H 21.2963 -1.52831 -1.20949 0
M  V30 203 H 20.3923 -1.49991 -2.73695 0
M  V30 204 N 20.6934 1.19889 -1.02296 0
M  V30 205 C 21.6264 2.21639 -0.543282 0
M  V30 206 C 22.6044 1.57275 0.412698 0
M  V30 207 O 23.7884 1.85568 0.331198 0
M  V30 208 C 20.9154 3.38057 0.208571 0
M  V30 209 C 19.9614 4.20751 -0.697933 0
M  V30 210 S 20.7944 4.89529 -2.17075 0
M  V30 211 C 21.9504 6.09363 -1.42923 0
M  V30 212 H 22.1834 2.61984 -1.40541 0
M  V30 213 H 19.7164 1.30041 -0.832387 0
M  V30 214 H 21.6744 4.05539 0.63624 0
M  V30 215 H 20.3354 2.96159 1.04635 0
M  V30 216 H 19.5284 5.03862 -0.117831 0
M  V30 217 H 19.1304 3.58556 -1.06366 0
M  V30 218 H 21.4224 6.73742 -0.712637 0
M  V30 219 H 22.3654 6.71845 -2.23673 0
M  V30 220 H 22.7734 5.56798 -0.929327 0
M  V30 221 N 22.1715 0.800033 1.35784 0
M  V30 222 C 23.3965 0.388511 2.03729 0
M  V30 223 C 23.8215 -0.990481 1.5991 0
M  V30 224 O 23.1795 -1.64013 0.772612 0
M  V30 225 C 23.2275 0.4726 3.5749 0
M  V30 226 O 22.3315 -0.51646 4.09153 0
M  V30 227 H 21.6725 0.163271 0.643614 0
M  V30 228 H 24.2025 1.0841 1.73518 0
M  V30 229 H 24.2125 0.34003 4.06581 0
M  V30 230 H 22.8875 1.47848 3.88734 0
M  V30 231 H 21.4645 -0.344673 3.71304 0
M  V30 232 N 23.6496 -1.47581 0.552962 0
M  V30 233 C 24.5596 -2.33743 -0.200353 0
M  V30 234 C 25.5756 -1.47928 -0.916151 0
M  V30 235 O 26.7516 -1.80865 -0.885993 0
M  V30 236 C 23.8166 -3.24536 -1.21973 0
M  V30 237 C 22.8776 -4.26238 -0.511819 0
M  V30 238 C 22.1106 -5.12693 -1.48263 0
M  V30 239 O 22.3336 -5.01525 -2.71714 0
M  V30 240 O 21.2676 -5.93375 -1.00945 0
M  V30 241 H 25.0936 -2.9945 0.506304 0
M  V30 242 H 22.6786 -1.46071 0.313622 0
M  V30 243 H 24.5606 -3.80631 -1.80827 0
M  V30 244 H 23.2356 -2.61462 -1.90839 0
M  V30 245 H 22.1426 -3.73914 0.117799 0
M  V30 246 H 23.4756 -4.92014 0.135308 0
M  V30 247 N 25.1277 -0.289203 -1.54924 0
M  V30 248 C 26.3527 0.329299 -2.04769 0
M  V30 249 C 26.7777 1.4763 -1.16564 0
M  V30 250 O 26.1357 1.80527 -0.167186 0
M  V30 251 C 26.1837 0.774438 -3.52186 0
M  V30 252 O 25.2877 1.88038 -3.67036 0
M  V30 253 H 24.6287 0.0659259 -0.660719 0
M  V30 254 H 27.1587 -0.42761 -2.00082 0
M  V30 255 H 27.1687 1.06642 -3.93816 0
M  V30 256 H 25.8437 -0.0646707 -4.1585 0
M  V30 257 H 24.4207 1.58985 -3.3731 0
M  V30 258 N 26.6058 1.57591 -0.0167156 0
M  V30 259 C 27.5358 2.12496 0.967858 0
M  V30 260 C 28.5168 1.03807 1.34752 0
M  V30 261 O 29.7018 1.31577 1.42833 0
M  V30 262 C 26.8318 2.64194 2.25431 0
M  V30 263 C 25.7858 3.77559 2.01576 0
M  V30 264 C 25.1118 4.15636 3.36379 0
M  V30 265 C 26.4118 5.04151 1.36489 0
M  V30 266 H 28.1058 2.95013 0.510643 0
M  V30 267 H 25.6518 1.41915 0.244181 0
M  V30 268 H 27.6048 3.01236 2.94678 0
M  V30 269 H 26.3288 1.78821 2.73296 0
M  V30 270 H 24.9878 3.40937 1.34751 0
M  V30 271 H 24.6358 3.27263 3.81979 0
M  V30 272 H 24.3358 4.92022 3.21229 0
M  V30 273 H 25.8598 4.5525 4.06915 0
M  V30 274 H 27.2738 5.38857 1.95718 0
M  V30 275 H 25.6708 5.85453 1.31776 0
M  V30 276 H 26.7408 4.83733 0.336219 0
M  V30 277 N 28.0839 -0.256276 1.55502 0
M  V30 278 C 29.3119 -1.00342 1.8094 0
M  V30 279 C 29.7269 -1.79307 0.59114 0
M  V30 280 O 29.0839 -1.77114 -0.440081 0
M  V30 281 C 29.1349 -1.94875 3.04476 0
M  V30 282 O 28.8559 -1.19107 4.21598 0
M  V30 283 C 30.3569 -2.81266 3.42644 0
M  V30 284 H 27.5769 -0.295685 0.602338 0
M  V30 285 H 30.1209 -0.281998 2.02546 0
M  V30 286 H 28.2759 -2.62457 2.84947 0
M  V30 287 H 28.6899 -1.82969 4.91551 0
M  V30 288 H 30.1639 -3.43362 4.32211 0
M  V30 289 H 30.6409 -3.51897 2.62802 0
M  V30 290 H 31.2469 -2.1915 3.64491 0
M  V30 291 N 29.562 -1.4872 -0.521534 0
M  V30 292 C 30.81 -1.56857 -1.27437 0
M  V30 293 C 31.131 -0.247982 -1.93417 0
M  V30 294 O 30.401 0.731151 -1.81744 0
M  V30 295 H 28.981 -0.577885 -0.473347 0
M  V30 296 H 31.643 -1.85233 -0.606205 0
M  V30 297 H 30.739 -2.35402 -2.0492 0
M  V30 298 N 31.0401 0.771051 -1.3745 0
M  V30 299 C 32.2681 1.56015 -1.35893 0
M  V30 300 C 32.6831 1.88718 0.0555523 0
M  V30 301 O 32.0401 1.51502 1.01752 0
M  V30 302 C 32.0911 2.87001 -2.19801 0
M  V30 303 O 31.8121 2.557 -3.55738 0
M  V30 304 C 33.3131 3.81228 -2.26231 0
M  V30 305 H 30.5331 0.483317 -0.465453 0
M  V30 306 H 33.0771 0.955611 -1.80799 0
M  V30 307 H 31.2321 3.43877 -1.78402 0
M  V30 308 H 31.6461 3.39584 -3.99729 0
M  V30 309 H 33.1201 4.70139 -2.89263 0
M  V30 310 H 33.5971 4.20409 -1.27093 0
M  V30 311 H 34.2031 3.30281 -2.67945 0
M  V30 312 N 32.5182 1.22032 0.997298 0
M  V30 313 C 33.4482 1.01065 2.10495 0
M  V30 314 C 34.4292 -0.0669542 1.69968 0
M  V30 315 O 35.6142 0.0943987 1.9397 0
M  V30 316 C 32.7442 0.582874 3.42374 0
M  V30 317 C 31.6982 1.60592 3.96729 0
M  V30 318 C 31.0242 1.03412 5.24605 0
M  V30 319 C 32.3242 2.99478 4.27914 0
M  V30 320 H 34.0182 1.93708 2.28292 0
M  V30 321 H 31.5642 0.932761 1.09707 0
M  V30 322 H 33.5172 0.423332 4.19268 0
M  V30 323 H 32.2412 -0.379213 3.24391 0
M  V30 324 H 30.9002 1.75316 3.21963 0
M  V30 325 H 30.5482 0.063518 5.0296 0
M  V30 326 H 30.2482 1.71754 5.61938 0
M  V30 327 H 31.7722 0.886066 6.04137 0
M  V30 328 H 33.1862 2.88153 4.95622 0
M  V30 329 H 31.5832 3.64903 4.76409 0
M  V30 330 H 32.6532 3.49742 3.3587 0
M  V30 331 N 33.9963 -1.19345 1.0293 0
M  V30 332 C 35.2733 -1.84811 0.640642 0
M  V30 333 C 35.6533 -1.91855 -0.88062 0
M  V30 334 O 35.0013 -1.43587 -1.7775 0
M  V30 335 C 35.2113 -3.23755 1.30321 0
M  V30 336 C 36.5593 -3.99912 1.42673 0
M  V30 337 O 37.5833 -3.33155 1.26041 0
M  V30 338 O 36.4423 -5.19494 1.6967 0
M  V30 339 H 33.5363 -0.796443 0.222726 0
M  V30 340 H 36.0823 -1.26831 1.12748 0
M  V30 341 H 34.8543 -3.13466 2.34211 0
M  V30 342 H 34.4773 -3.89381 0.804261 0
M  V30 343 N 35.4744 -0.807222 -1.35358 0
M  V30 344 C 36.4374 -0.223665 -2.28106 0
M  V30 345 C 37.4374 0.589354 -1.4961 0
M  V30 346 O 38.6274 0.407745 -1.69361 0
M  V30 347 C 35.7594 0.688149 -3.33882 0
M  V30 348 H 36.9524 -1.04169 -2.81227 0
M  V30 349 H 34.5054 -0.577921 -1.45223 0
M  V30 350 H 35.2404 1.52984 -2.85948 0
M  V30 351 H 35.0254 0.10687 -3.91954 0
M  V30 352 H 36.5154 1.09075 -4.03104 0
M  V30 353 N 36.9525 1.47285 -0.560781 0
M  V30 354 C 38.3635 1.86258 -0.128343 0
M  V30 355 C 38.7145 1.46699 1.30284 0
M  V30 356 O 37.8395 0.871698 1.98067 0
M  V30 357 C 38.4345 3.38044 -0.22614 0
M  V30 358 C 36.9935 3.76096 0.151283 0
M  V30 359 C 36.1405 2.71335 -0.572084 0
M  V30 360 H 39.0915 1.38752 -0.770297 0
M  V30 361 H 39.1125 3.76441 0.554322 0
M  V30 362 H 38.6245 3.66806 -1.26788 0
M  V30 363 H 36.7255 3.52951 1.19399 0
M  V30 364 H 36.8385 4.78641 -0.209765 0
M  V30 365 H 35.2025 2.54696 -0.0147653 0
M  V30 366 H 35.9855 3.02938 -1.61504 0
M  V30 367 N 38.4306 0.297415 1.54768 0
M  V30 368 C 39.6776 -0.312913 2.00068 0
M  V30 369 C 40.0056 -1.54171 1.18582 0
M  V30 370 O 39.2606 -1.94108 0.249133 0
M  V30 371 C 39.5596 -0.717561 3.50123 0
M  V30 372 C 39.2256 0.409095 4.4904 0
M  V30 373 C 37.8876 0.718399 4.75807 0
M  V30 374 C 40.2396 1.16717 5.07963 0
M  V30 375 C 37.5676 1.78896 5.5876 0
M  V30 376 C 39.9196 2.22762 5.92081 0
M  V30 377 C 38.5836 2.54303 6.1716 0
M  V30 378 H 37.8536 -0.114503 0.7321 0
M  V30 379 H 40.5006 0.415767 1.86932 0
M  V30 380 H 38.8056 -1.52627 3.60849 0
M  V30 381 H 40.5026 -1.20091 3.82595 0
M  V30 382 H 37.0926 0.157918 4.28309 0
M  V30 383 H 41.2766 0.941466 4.87289 0
M  V30 384 H 36.5326 2.0381 5.7643 0
M  V30 385 H 40.7066 2.81962 6.36765 0
M  V30 386 H 38.3336 3.3739 6.81229 0
M  V30 387 N 39.9087 -1.5758 0.0250728 0
M  V30 388 C 41.3197 -1.79476 -0.514323 0
M  V30 389 C 41.6707 -0.934956 -1.72491 0
M  V30 390 O 40.7957 -0.144245 -2.15919 0
M  V30 391 C 41.3907 -3.25503 -0.939842 0
M  V30 392 C 39.9497 -3.48408 -1.42438 0
M  V30 393 C 39.0967 -2.74583 -0.387201 0
M  V30 394 H 42.0477 -1.567 0.25113 0
M  V30 395 H 42.0687 -3.34992 -1.80445 0
M  V30 396 H 41.5807 -3.88056 -0.0585628 0
M  V30 397 H 39.6817 -2.91103 -2.32572 0
M  V30 398 H 39.7947 -4.57119 -1.43455 0
M  V30 399 H 38.1587 -2.39942 -0.854409 0
M  V30 400 H 38.9417 -3.39849 0.485543 0
M  V30 401 N 41.3868 0.248026 -1.55636 0
M  V30 402 C 42.2968 1.32859 -1.93354 0
M  V30 403 C 43.3128 1.52719 -0.833838 0
M  V30 404 O 44.4888 1.66363 -1.13513 0
M  V30 405 C 41.5538 2.66337 -2.21958 0
M  V30 406 C 40.6148 2.55008 -3.45354 0
M  V30 407 C 39.8478 3.82121 -3.72584 0
M  V30 408 O 40.0708 4.83951 -3.01907 0
M  V30 409 O 39.0048 3.80822 -4.6611 0
M  V30 410 H 42.8308 1.03862 -2.85388 0
M  V30 411 H 40.4158 0.448686 -1.42503 0
M  V30 412 H 42.2978 3.45216 -2.4167 0
M  V30 413 H 40.9728 2.95068 -1.33103 0
M  V30 414 H 39.8798 1.7442 -3.30951 0
M  V30 415 H 41.2128 2.31222 -4.34508 0
M  V30 416 N 42.8649 1.48995 0.513639 0
M  V30 417 C 44.0949 1.61297 1.291 0
M  V30 418 C 44.5029 0.278656 1.87137 0
M  V30 419 O 43.8459 -0.744325 1.67945 0
M  V30 420 C 43.9079 2.61326 2.46879 0
M  V30 421 C 43.5719 4.05993 2.09807 0
M  V30 422 C 44.5689 4.93183 1.64519 0
M  V30 423 C 42.2539 4.51642 2.19829 0
M  V30 424 C 44.2479 6.24056 1.2974 0
M  V30 425 C 41.9349 5.82532 1.84662 0
M  V30 426 C 42.9329 6.68562 1.3969 0
M  V30 427 O 42.6209 7.97014 1.04992 0
M  V30 428 H 42.3529 0.546236 0.39825 0
M  V30 429 H 44.9069 1.95673 0.62459 0
M  V30 430 H 43.1369 2.22104 3.16554 0
M  V30 431 H 44.8259 2.6329 3.08923 0
M  V30 432 H 45.5919 4.59147 1.56233 0
M  V30 433 H 41.4709 3.84855 2.53786 0
M  V30 434 H 45.0149 6.91161 0.945659 0
M  V30 435 H 40.9119 6.16099 1.92594 0
M  V30 436 H 41.6799 8.09913 1.18249 0
M  V30 437 N 44.343 -0.763751 1.37857 0
M  V30 438 C 45.275 -1.88664 1.30148 0
M  V30 439 C 46.288 -1.61365 0.215685 0
M  V30 440 O 47.477 -1.72134 0.472459 0
M  V30 441 C 44.577 -3.24075 0.991396 0
M  V30 442 C 43.75 -3.78958 2.18426 0
M  V30 443 C 42.809 -4.92862 1.8432 0
M  V30 444 O 41.835 -5.08027 2.56704 0
M  V30 445 N 43.037 -5.75071 0.792081 0
M  V30 446 H 45.802 -1.95791 2.26905 0
M  V30 447 H 43.363 -0.943226 1.31586 0
M  V30 448 H 45.355 -3.97804 0.743935 0
M  V30 449 H 43.925 -3.12399 0.112122 0
M  V30 450 H 43.145 -2.96913 2.59299 0
M  V30 451 H 44.433 -4.12357 2.98058 0
M  V30 452 H 43.831 -5.65375 0.191595 0
M  V30 453 H 42.388 -6.48991 0.60449 0
M  V30 454 N 45.8211 -1.22559 -0.990812 0
M  V30 455 C 47.0491 -1.07779 -1.76611 0
M  V30 456 C 47.4641 0.371513 -1.85109 0
M  V30 457 O 46.8211 1.25737 -1.32274 0
M  V30 458 C 46.8721 -1.68512 -3.19822 0
M  V30 459 O 46.5931 -3.07774 -3.1178 0
M  V30 460 C 48.0941 -1.59035 -4.13791 0
M  V30 461 H 45.3141 -0.377729 -0.554583 0
M  V30 462 H 47.8581 -1.62195 -1.24551 0
M  V30 463 H 46.0131 -1.18154 -3.68942 0
M  V30 464 H 46.4271 -3.37062 -4.01858 0
M  V30 465 H 47.9011 -2.0625 -5.1202 0
M  V30 466 H 48.3781 -0.547273 -4.35777 0
M  V30 467 H 48.9841 -2.08709 -3.70568 0
M  V30 468 N 47.2992 1.18797 -1.03562 0
M  V30 469 C 48.2292 2.24472 -0.643019 0
M  V30 470 C 49.2102 1.66433 0.351283 0
M  V30 471 O 50.3952 1.92803 0.232505 0
M  V30 472 C 47.5252 3.473 4.24935e-05 0
M  V30 473 C 46.4792 4.18055 -0.917257 0
M  V30 474 C 45.8052 5.34519 -0.138941 0
M  V30 475 C 47.1052 4.72109 -2.23407 0
M  V30 476 H 48.7992 2.57566 -1.52643 0
M  V30 477 H 46.3452 1.23806 -0.735394 0
M  V30 478 H 48.2982 4.20426 0.286383 0
M  V30 479 H 47.0222 3.13424 0.918299 0
M  V30 480 H 45.6812 3.46821 -1.1879 0
M  V30 481 H 45.3292 4.96891 0.781562 0
M  V30 482 H 45.0292 5.82794 -0.750005 0
M  V30 483 H 46.5532 6.10438 0.1405 0
M  V30 484 H 47.9672 5.36955 -2.00879 0
M  V30 485 H 46.3642 5.30897 -2.79765 0
M  V30 486 H 47.4342 3.89807 -2.88407 0
M  V30 487 N 48.7773 0.814389 1.34928 0
M  V30 488 C 50.1883 0.458364 1.80986 0
M  V30 489 C 50.5393 -1.02042 1.67577 0
M  V30 490 O 49.6643 -1.79352 1.21086 0
M  V30 491 C 50.2593 0.825212 3.28597 0
M  V30 492 C 48.8183 0.521677 3.72767 0
M  V30 493 C 47.9653 1.04668 2.56788 0
M  V30 494 H 50.9163 1.00533 1.22795 0
M  V30 495 H 50.9373 0.12571 3.80292 0
M  V30 496 H 50.4493 1.90154 3.38324 0
M  V30 497 H 48.5503 -0.545589 3.68584 0
M  V30 498 H 48.6633 1.05977 4.67232 0
M  V30 499 H 47.0273 0.468622 2.50352 0
M  V30 500 H 47.8103 2.12927 2.6929 0
M  V30 501 N 50.2554 -1.46986 0.568584 0
M  V30 502 C 51.2184 -2.28624 -0.162366 0
M  V30 503 C 52.2184 -1.37596 -0.832103 0
M  V30 504 O 53.4084 -1.60115 -0.68622 0
M  V30 505 C 50.5404 -3.17596 -1.23878 0
M  V30 506 H 51.7334 -2.94722 0.554899 0
M  V30 507 H 49.2864 -1.52863 0.325976 0
M  V30 508 H 50.0214 -2.56214 -1.98808 0
M  V30 509 H 49.8064 -3.846 -0.763219 0
M  V30 510 H 51.2964 -3.79078 -1.75185 0
M  V30 511 N 51.7335 -0.305618 -1.54608 0
M  V30 512 C 53.0105 0.355652 -1.92339 0
M  V30 513 C 53.3905 1.71324 -1.23335 0
M  V30 514 O 52.7385 2.25473 -0.370702 0
M  V30 515 C 52.9485 0.46572 -3.45879 0
M  V30 516 C 54.2965 0.734426 -4.182 0
M  V30 517 O 55.3205 0.54935 -3.51938 0
M  V30 518 O 54.1795 1.09024 -5.35515 0
M  V30 519 H 51.2735 0.199666 -0.802535 0
M  V30 520 H 53.8195 -0.354017 -1.65966 0
M  V30 521 H 52.5915 -0.488461 -3.88239 0
M  V30 522 H 52.2145 1.22367 -3.78301 0
M  V30 523 N 53.2116 1.57565 -0.0334293 0
M  V30 524 C 54.6226 1.79746 0.504798 0
M  V30 525 C 54.9736 0.944091 1.71992 0
M  V30 526 O 54.0986 0.155694 2.15839 0
M  V30 527 C 54.6936 3.25997 0.922567 0
M  V30 528 C 53.2526 3.49159 1.40588 0
M  V30 529 C 52.3996 2.74785 0.372633 0
M  V30 530 H 55.3506 1.56565 -0.259436 0
M  V30 531 H 55.3716 3.35945 1.78666 0
M  V30 532 H 54.8836 3.88081 0.0379825 0
M  V30 533 H 52.9846 2.92332 2.31025 0
M  V30 534 H 53.0976 4.57873 1.41028 0
M  V30 535 H 51.4616 2.40391 0.841672 0
M  V30 536 H 52.2446 3.39587 -0.503559 0
M  V30 537 N 54.6897 -0.239769 1.55765 0
M  V30 538 C 55.6227 -1.32356 1.85895 0
M  V30 539 C 56.6007 -1.46053 0.714662 0
M  V30 540 O 57.7847 -1.62154 0.961157 0
M  V30 541 C 54.9117 -2.6962 2.04994 0
M  V30 542 C 53.9577 -2.73036 3.27648 0
M  V30 543 S 54.7907 -2.28929 4.84099 0
M  V30 544 C 55.9467 -3.68103 5.06212 0
M  V30 545 H 56.1797 -1.06601 2.77531 0
M  V30 546 H 53.7127 -0.441112 1.47965 0
M  V30 547 H 55.6707 -3.48653 2.16682 0
M  V30 548 H 54.3317 -2.92609 1.14188 0
M  V30 549 H 53.5247 -3.7386 3.38 0
M  V30 550 H 53.1267 -2.02052 3.14723 0
M  V30 551 H 55.4187 -4.63656 4.93993 0
M  V30 552 H 56.3617 -3.6268 6.08168 0
M  V30 553 H 56.7697 -3.60947 4.34025 0
M  V30 554 N 56.1678 -1.49265 -0.50573 0
M  V30 555 C 57.3928 -1.62478 -1.28902 0
M  V30 556 C 57.8178 -0.294332 -1.85783 0
M  V30 557 O 57.1758 0.737412 -1.65626 0
M  V30 558 C 57.2238 -2.69268 -2.39848 0
M  V30 559 O 56.3278 -2.28113 -3.43567 0
M  V30 560 H 55.6688 -0.54399 -0.380751 0
M  V30 561 H 58.1988 -1.95421 -0.605952 0
M  V30 562 H 58.2088 -2.91291 -2.85681 0
M  V30 563 H 56.8838 -3.65846 -1.97812 0
M  V30 564 H 55.4608 -2.16401 -3.03685 0
M  V30 565 N 57.6459 0.756429 -1.3826 0
M  V30 566 C 58.8919 1.51772 -1.34511 0
M  V30 567 C 59.2249 1.94089 0.0656691 0
M  V30 568 O 58.4999 1.65221 1.02626 0
M  V30 569 C 58.7829 2.77226 -2.29821 0
M  V30 570 C 58.6359 2.41065 -3.79747 0
M  V30 571 C 59.9549 3.79236 -2.23312 0
M  V30 572 H 57.0739 0.550578 -0.489931 0
M  V30 573 H 59.7159 0.866607 -1.69086 0
M  V30 574 H 57.8659 3.32784 -2.00467 0
M  V30 575 H 59.5379 1.91303 -4.19763 0
M  V30 576 H 57.7809 1.7356 -3.97567 0
M  V30 577 H 58.4519 3.3081 -4.41892 0
M  V30 578 H 60.9279 3.3321 -2.49219 0
M  V30 579 H 59.8039 4.64714 -2.92116 0
M  V30 580 H 60.0649 4.24615 -1.23102 0
M  V30 581 N 59.124 1.23083 0.984299 0
M  V30 582 C 60.054 1.03292 2.09411 0
M  V30 583 C 61.035 -0.048923 1.7003 0
M  V30 584 O 62.22 0.114967 1.93859 0
M  V30 585 C 59.35 0.619155 3.41736 0
M  V30 586 C 58.304 1.64791 3.95004 0
M  V30 587 C 57.63 1.0897 5.23478 0
M  V30 588 C 58.93 3.03999 4.24714 0
M  V30 589 H 60.624 1.96119 2.26225 0
M  V30 590 H 58.17 0.944344 1.08711 0
M  V30 591 H 60.123 0.467777 4.18796 0
M  V30 592 H 58.847 -0.344786 3.24775 0
M  V30 593 H 57.506 1.78721 3.20085 0
M  V30 594 H 57.154 0.11686 5.02864 0
M  V30 595 H 56.854 1.77704 5.60085 0
M  V30 596 H 58.378 0.950093 6.03163 0
M  V30 597 H 59.792 2.93393 4.92538 0
M  V30 598 H 58.189 3.69936 4.72512 0
M  V30 599 H 59.259 3.53285 3.32142 0
M  V30 600 N 60.6021 -1.18246 1.0419 0
M  V30 601 C 61.5521 -2.19843 0.604392 0
M  V30 602 C 62.5361 -1.56962 -0.353814 0
M  V30 603 O 63.7281 -1.76156 -0.17267 0
M  V30 604 C 60.8571 -3.43287 -0.0298975 0
M  V30 605 C 59.9431 -4.13288 0.951531 0
M  V30 606 N 60.3341 -4.59271 2.11906 0
M  V30 607 C 58.6321 -4.39165 0.7778 0
M  V30 608 C 59.3331 -5.13173 2.73912 0
M  V30 609 N 58.3091 -5.04763 2.01779 0
M  V30 610 H 62.1111 -2.53089 1.4941 0
M  V30 611 H 59.6251 -1.34465 0.910658 0
M  V30 612 H 61.6221 -4.15334 -0.361037 0
M  V30 613 H 60.2821 -3.11537 -0.915127 0
M  V30 614 H 61.2931 -4.5368 2.49789 0
M  V30 615 H 57.9701 -4.17461 -0.0572331 0
M  V30 616 H 59.3601 -5.58947 3.72864 0
M  V30 617 N 62.0802 -0.821533 -1.34494 0
M  V30 618 C 63.0282 -0.230702 -2.31453 0
M  V30 619 C 64.0222 0.627793 -1.57338 0
M  V30 620 O 65.2282 0.519288 -1.72347 0
M  V30 621 H 61.6032 -0.0558577 -0.749923 0
M  V30 622 H 63.5742 -1.06332 -2.78812 0
M  V30 623 C 62.3232 0.59391 -3.4259 0
M  V30 624 H 61.6462 -0.0573588 -3.99759 0
M  V30 625 H 63.0862 0.973446 -4.12674 0
M  V30 626 C 61.5452 1.76568 -2.86924 0
M  V30 627 O 62.0752 2.8638 -2.81691 0
M  V30 628 N 60.2812 1.58198 -2.43766 0
M  V30 629 H 59.8282 0.68872 -2.48222 0
M  V30 630 H 59.7862 2.36752 -2.06871 0
M  V30 631 N 63.5583 1.46682 -0.576371 0
M  V30 632 C 64.8043 2.03287 -0.0679305 0
M  V30 633 C 65.1593 1.44063 1.27529 0
M  V30 634 O 64.4523 0.593973 1.82161 0
M  V30 635 C 64.6463 3.57345 0.062886 0
M  V30 636 C 64.4753 4.31509 -1.26611 0
M  V30 637 C 63.2453 4.70664 -1.83856 0
M  V30 638 C 65.4433 4.65444 -2.18783 0
M  V30 639 N 63.4253 5.29552 -3.10561 0
M  V30 640 C 64.7963 5.24835 -3.30072 0
M  V30 641 C 66.8513 4.47375 -2.18542 0
M  V30 642 C 65.5543 5.68063 -4.41244 0
M  V30 643 C 67.5803 4.91614 -3.28739 0
M  V30 644 C 66.9423 5.51071 -4.38748 0
M  V30 645 H 63.0413 0.779083 -0.0674836 0
M  V30 646 H 65.6253 1.78918 -0.767877 0
M  V30 647 H 63.7963 3.8144 0.731988 0
M  V30 648 H 65.5283 4.00592 0.575134 0
M  V30 649 H 62.2833 4.53224 -1.37424 0
M  V30 650 H 62.7073 5.63523 -3.75195 0
M  V30 651 H 67.3493 4.00747 -1.34765 0
M  V30 652 H 65.0673 6.13672 -5.25768 0
M  V30 653 H 68.6533 4.79389 -3.29662 0
M  V30 654 H 67.5333 5.84678 -5.22611 0
M  V30 655 N 65.0364 0.313813 1.54444 0
M  V30 656 C 65.9664 -0.549454 2.26943 0
M  V30 657 C 66.9474 -1.12741 1.27372 0
M  V30 658 O 68.1324 -1.15436 1.56167 0
M  V30 659 C 65.2624 -1.71523 3.01989 0
M  V30 660 C 64.2164 -1.26703 4.08816 0
M  V30 661 C 63.5424 -2.51898 4.71647 0
M  V30 662 C 64.8424 -0.388962 5.2085 0
M  V30 663 H 66.5364 0.0552661 2.99349 0
M  V30 664 H 64.0824 0.0280207 1.43973 0
M  V30 665 H 66.0354 -2.32535 3.51433 0
M  V30 666 H 64.7594 -2.34639 2.27183 0
M  V30 667 H 63.4184 -0.679896 3.6024 0
M  V30 668 H 63.0664 -3.13356 3.93468 0
M  V30 669 H 62.7664 -2.22605 5.43802 0
M  V30 670 H 64.2904 -3.1369 5.23861 0
M  V30 671 H 65.7044 -0.905107 5.6611 0
M  V30 672 H 64.1014 -0.18924 5.99802 0
M  V30 673 H 65.1714 0.582699 4.81386 0
M  V30 674 N 66.5145 -1.57545 0.0417849 0
M  V30 675 C 67.4245 -2.14451 -0.951213 0
M  V30 676 C 68.4405 -1.09992 -1.34825 0
M  V30 677 O 69.6165 -1.42114 -1.42708 0
M  V30 678 C 66.6815 -2.67063 -2.21084 0
M  V30 679 C 65.7425 -3.86284 -1.87304 0
M  V30 680 C 64.9755 -4.36378 -3.07261 0
M  V30 681 O 65.1985 -3.85587 -4.20332 0
M  V30 682 O 64.1325 -5.28077 -2.88822 0
M  V30 683 H 67.9585 -2.99601 -0.497287 0
M  V30 684 H 65.5435 -1.48317 -0.179567 0
M  V30 685 H 67.4255 -3.00914 -2.95006 0
M  V30 686 H 66.1005 -1.84989 -2.65633 0
M  V30 687 H 65.0075 -3.57338 -1.10727 0
M  V30 688 H 66.3405 -4.6956 -1.47562 0
M  V30 689 N 67.9926 0.231505 -1.5589 0
M  V30 690 C 69.4086 0.580748 -1.48659 0
M  V30 691 C 69.6086 1.87617 -0.73498 0
M  V30 692 O 68.6646 2.51046 -0.270586 0
M  V30 693 C 69.9776 0.669202 -2.93159 0
M  V30 694 C 71.5256 0.760499 -3.03621 0
M  V30 695 C 72.0006 0.880383 -4.49459 0
M  V30 696 N 73.4916 0.944861 -4.53461 0
M  V30 697 C 74.2266 1.05716 -5.63571 0
M  V30 698 N 73.7226 1.13403 -6.83456 0
M  V30 699 N 75.5156 1.09152 -5.514 0
M  V30 700 H 67.6666 -0.618695 -2.03189 0
M  V30 701 H 69.9296 -0.215728 -0.923128 0
M  V30 702 H 69.6356 -0.212904 -3.51055 0
M  V30 703 H 69.5096 1.5361 -3.44505 0
M  V30 704 H 71.8966 1.63305 -2.45796 0
M  V30 705 H 71.9776 -0.131864 -2.5546 0
M  V30 706 H 71.6216 0.0123284 -5.07899 0
M  V30 707 H 71.5516 1.78802 -4.95316 0
M  V30 708 H 74.0426 0.896176 -3.6712 0
M  V30 709 H 74.3556 1.21921 -7.63122 0
M  V30 710 H 72.7006 1.10333 -6.86186 0
M  V30 711 H 75.8916 1.02805 -4.56671 0
M  V30 712 H 76.0646 1.17558 -6.37247 0
M  V30 713 N 69.4707 1.49531 0.497807 0
M  V30 714 C 70.4337 1.65916 1.58128 0
M  V30 715 C 71.4337 0.530825 1.51786 0
M  V30 716 O 72.6237 0.797342 1.54881 0
M  V30 717 C 69.7557 1.65951 2.9778 0
M  V30 718 H 70.9487 2.62556 1.44929 0
M  V30 719 H 68.5017 1.38611 0.722275 0
M  V30 720 H 69.2367 0.709065 3.16453 0
M  V30 721 H 69.0217 2.47897 3.03792 0
M  V30 722 H 70.5117 1.80673 3.76493 0
M  V30 723 N 70.9488 -0.749086 1.3866 0
M  V30 724 C 72.3648 -1.05276 1.19955 0
M  V30 725 C 72.5648 -2.01435 0.05134 0
M  V30 726 O 71.6208 -2.45232 -0.60147 0
M  V30 727 C 72.9338 -1.62853 2.52783 0
M  V30 728 C 74.4818 -1.75002 2.59506 0
M  V30 729 C 74.9568 -2.35991 3.92521 0
M  V30 730 N 76.4478 -2.43416 3.94085 0
M  V30 731 C 77.1828 -2.91511 4.9377 0
M  V30 732 N 76.6788 -3.39608 6.03853 0
M  V30 733 N 78.4718 -2.90592 4.81157 0
M  V30 734 H 70.6228 -0.111066 2.12109 0
M  V30 735 H 72.8858 -0.111901 0.941373 0
M  V30 736 H 72.5918 -0.99664 3.37283 0
M  V30 737 H 72.4658 -2.61854 2.715 0
M  V30 738 H 74.8528 -2.37317 1.75398 0
M  V30 739 H 74.9338 -0.74693 2.44652 0
M  V30 740 H 74.5778 -1.74308 4.77053 0
M  V30 741 H 74.5078 -3.3695 4.04688 0
M  V30 742 H 76.9988 -2.09405 3.14576 0
M  V30 743 H 77.3118 -3.74775 6.75843 0
M  V30 744 H 75.6568 -3.37653 6.07466 0
M  V30 745 H 78.8478 -2.52332 3.94267 0
M  V30 746 H 79.0208 -3.27762 5.58996 0
M  V30 747 N 72.4269 -1.23603 -0.977757 0
M  V30 748 C 73.8429 -0.999251 -1.24447 0
M  V30 749 C 74.0429 0.298053 -1.99283 0
M  V30 750 O 73.0989 1.01681 -2.31122 0
M  V30 751 C 74.4119 -2.20784 -2.04144 0
M  V30 752 C 75.9599 -2.25303 -2.17273 0
M  V30 753 C 76.4349 -3.45755 -3.00362 0
M  V30 754 N 77.9259 -3.4601 -3.07947 0
M  V30 755 C 78.6609 -4.35868 -3.72568 0
M  V30 756 N 78.1569 -5.35966 -4.38991 0
M  V30 757 N 79.9499 -4.23605 -3.6948 0
M  V30 758 H 72.1009 -2.06986 -0.476483 0
M  V30 759 H 74.3639 -0.907801 -0.273134 0
M  V30 760 H 74.0699 -3.14945 -1.56533 0
M  V30 761 H 73.9439 -2.22085 -3.04891 0
M  V30 762 H 76.3309 -1.3168 -2.64092 0
M  V30 763 H 76.4119 -2.28033 -1.15907 0
M  V30 764 H 76.0559 -4.39687 -2.5424 0
M  V30 765 H 75.9859 -3.40266 -4.01904 0
M  V30 766 H 78.4769 -2.73588 -2.60688 0
M  V30 767 H 78.7899 -6.00783 -4.86086 0
M  V30 768 H 77.1349 -5.39863 -4.37691 0
M  V30 769 H 80.3259 -3.44647 -3.16759 0
M  V30 770 H 80.4989 -4.93836 -4.1956 0
M  V30 771 N 73.905 1.17692 -1.04816 0
M  V30 772 C 75.151 1.88137 -0.75711 0
M  V30 773 C 75.484 1.80604 0.713841 0
M  V30 774 O 74.759 1.21146 1.52164 0
M  V30 775 C 75.042 3.38318 -1.2334 0
M  V30 776 C 74.895 3.54622 -2.76701 0
M  V30 777 C 76.214 4.32214 -0.829415 0
M  V30 778 H 73.333 0.683163 -0.27651 0
M  V30 779 H 75.975 1.38424 -1.30149 0
M  V30 780 H 74.125 3.80787 -0.770286 0
M  V30 781 H 75.797 3.21194 -3.31107 0
M  V30 782 H 74.04 2.97026 -3.16161 0
M  V30 783 H 74.711 4.60028 -3.05088 0
M  V30 784 H 77.187 3.97565 -1.22805 0
M  V30 785 H 76.063 5.35838 -1.19033 0
M  V30 786 H 76.324 4.41294 0.266891 0
M  V30 787 N 75.3831 0.828654 1.34056 0
M  V30 788 C 76.6311 0.41863 1.97717 0
M  V30 789 C 76.9521 -1.02314 1.66002 0
M  V30 790 O 76.2221 -1.71119 0.953683 0
M  V30 791 H 74.8021 0.151809 0.731412 0
M  V30 792 H 77.4641 1.05936 1.63596 0
M  V30 793 H 76.5601 0.542318 3.07352 0
M  V30 794 N 76.8612 -1.46375 0.584142 0
M  V30 795 C 78.1102 -2.01585 0.0679741 0
M  V30 796 C 78.4232 -1.46109 -1.30045 0
M  V30 797 O 79.6292 -1.93148 -1.90804 0
M  V30 798 C 78.0852 -3.5983 0.0709207 0
M  V30 799 C 77.6932 -4.24303 1.43775 0
M  V30 800 C 79.4372 -4.22693 -0.391228 0
M  V30 801 C 77.3442 -5.74631 1.39834 0
M  V30 802 H 76.2742 -0.753689 0.0216421 0
M  V30 803 H 78.9252 -1.68093 0.736001 0
M  V30 804 H 77.3072 -3.90405 -0.663299 0
M  V30 805 H 78.4812 -4.05335 2.19181 0
M  V30 806 H 76.7962 -3.73539 1.84004 0
M  V30 807 H 79.3932 -5.3289 -0.439524 0
M  V30 808 H 79.7362 -3.91728 -1.40906 0
M  V30 809 H 80.2692 -3.96749 0.288974 0
M  V30 810 H 77.0082 -6.10258 2.39303 0
M  V30 811 H 76.5282 -5.95858 0.686505 0
M  V30 812 H 78.2072 -6.37375 1.11187 0
M  V30 813 N 78.3393 -0.321999 -1.54275 0
M  V30 814 C 79.7553 0.0306999 -1.5957 0
M  V30 815 C 79.9553 1.50614 -1.33857 0
M  V30 816 O 79.0113 2.2619 -1.12223 0
M  V30 817 C 80.3243 -0.386122 -2.98211 0
M  V30 818 C 81.8723 -0.336647 -3.11184 0
M  V30 819 C 82.3473 -0.728607 -4.52167 0
M  V30 820 N 83.8383 -0.681952 -4.58152 0
M  V30 821 C 84.5733 -0.957449 -5.6535 0
M  V30 822 N 84.0693 -1.3 -6.80494 0
M  V30 823 N 85.8623 -0.883113 -5.55119 0
M  V30 824 H 78.0133 -1.28332 -1.69247 0
M  V30 825 H 80.2763 -0.521716 -0.791528 0
M  V30 826 H 79.9823 -1.41404 -3.22022 0
M  V30 827 H 79.8563 0.249662 -3.76373 0
M  V30 828 H 82.2433 0.682058 -2.8711 0
M  V30 829 H 82.3243 -1.00734 -2.3513 0
M  V30 830 H 81.9683 -1.74522 -4.76974 0
M  V30 831 H 81.8983 -0.0356152 -5.26588 0
M  V30 832 H 84.3893 -0.428985 -3.75457 0
M  V30 833 H 84.7023 -1.49563 -7.58189 0
M  V30 834 H 83.0473 -1.33824 -6.81994 0
M  V30 835 H 86.2383 -0.615001 -4.64042 0
M  V30 836 H 86.4113 -1.10118 -6.38575 0
M  V30 837 N 79.8174 1.5752 -0.0501392 0
M  V30 838 C 80.7274 2.14952 0.939827 0
M  V30 839 C 81.7434 1.10706 1.34239 0
M  V30 840 O 82.9194 1.42869 1.41952 0
M  V30 841 C 79.9844 2.68232 2.19665 0
M  V30 842 C 79.0454 3.87272 1.85253 0
M  V30 843 C 78.2784 4.38002 3.04943 0
M  V30 844 O 78.5014 3.87811 4.18281 0
M  V30 845 O 77.4354 5.29602 2.86017 0
M  V30 846 H 81.2614 2.9986 0.481392 0
M  V30 847 H 78.8464 1.4841 0.171699 0
M  V30 848 H 80.7284 3.02475 2.93406 0
M  V30 849 H 79.4034 1.86395 2.64648 0
M  V30 850 H 78.3104 3.5792 1.0883 0
M  V30 851 H 79.6434 4.70336 1.4507 0
M  V30 852 N 81.2955 -0.223234 1.56011 0
M  V30 853 C 82.7065 -0.790368 1.69145 0
M  V30 854 C 83.0575 -1.85055 0.651845 0
M  V30 855 O 82.1825 -2.15498 -0.197359 0
M  V30 856 C 82.7775 -1.4404 3.06656 0
M  V30 857 C 81.3365 -1.95494 3.2165 0
M  V30 858 C 80.4835 -0.814506 2.65068 0
M  V30 859 H 83.4345 0.00139011 1.587 0
M  V30 860 H 83.4555 -2.30916 3.0242 0
M  V30 861 H 82.9675 -0.668543 3.82298 0
M  V30 862 H 81.0685 -2.75487 2.50874 0
M  V30 863 H 81.1815 -2.13607 4.28846 0
M  V30 864 H 79.5455 -1.22137 2.23505 0
M  V30 865 H 80.3285 -0.0553515 3.43255 0
M  V30 866 N 82.7736 -1.49793 -0.48987 0
M  V30 867 C 84.1896 -1.36803 -0.822022 0
M  V30 868 C 84.3896 -0.409652 -1.97292 0
M  V30 869 O 83.4456 0.154614 -2.52026 0
M  V30 870 C 84.7586 -2.77768 -1.15175 0
M  V30 871 C 86.3066 -2.86549 -1.25931 0
M  V30 872 C 86.7816 -4.28306 -1.62228 0
M  V30 873 N 88.2726 -4.31169 -1.69256 0
M  V30 874 C 89.0076 -5.37832 -1.98807 0
M  V30 875 N 88.5036 -6.54726 -2.26507 0
M  V30 876 N 90.2966 -5.25258 -2.00152 0
M  V30 877 H 82.4476 -2.10691 0.268881 0
M  V30 878 H 84.7106 -0.946241 0.057728 0
M  V30 879 H 84.4166 -3.49648 -0.379335 0
M  V30 880 H 84.2906 -3.13836 -2.09253 0
M  V30 881 H 86.6776 -2.14899 -2.02243 0
M  V30 882 H 86.7586 -2.54049 -0.298776 0
M  V30 883 H 86.4026 -5.00486 -0.864622 0
M  V30 884 H 86.3326 -4.58279 -2.594 0
M  V30 885 H 88.8236 -3.4687 -1.49965 0
M  V30 886 H 89.1366 -7.31833 -2.48276 0
M  V30 887 H 87.4816 -6.57933 -2.23939 0
M  V30 888 H 90.6726 -4.32938 -1.77996 0
M  V30 889 H 90.8456 -6.08476 -2.22848 0
M  V30 890 N 84.2517 0.741722 -1.39055 0
M  V30 891 C 85.2147 1.83733 -1.37021 0
M  V30 892 C 86.2147 1.58542 -0.268534 0
M  V30 893 O 87.4047 1.66067 -0.526076 0
M  V30 894 C 84.5367 3.2141 -1.13617 0
M  V30 895 H 85.7297 1.86941 -2.34506 0
M  V30 896 H 83.2827 0.944676 -1.24521 0
M  V30 897 H 84.0177 3.23865 -0.167863 0
M  V30 898 H 83.8027 3.4109 -1.93391 0
M  V30 899 H 85.2927 4.01477 -1.14918 0
M  V30 900 N 85.7298 1.2412 0.971189 0
M  V30 901 C 86.6598 1.05508 2.08304 0
M  V30 902 C 87.6408 -0.0308864 1.70072 0
M  V30 903 O 88.8258 0.135521 1.93727 0
M  V30 904 C 85.9558 0.655365 3.4106 0
M  V30 905 C 84.9098 1.68971 3.93234 0
M  V30 906 C 84.2358 1.14516 5.22293 0
M  V30 907 C 85.5358 3.08487 4.21465 0
M  V30 908 H 87.2298 1.98507 2.24132 0
M  V30 909 H 84.7758 0.955821 1.07704 0
M  V30 910 H 86.7288 0.51217 4.18276 0
M  V30 911 H 85.4528 -0.31032 3.25122 0
M  V30 912 H 84.1118 1.82106 3.18171 0
M  V30 913 H 83.7598 0.170189 5.02712 0
M  V30 914 H 83.4598 1.83635 5.58168 0
M  V30 915 H 84.9838 1.01401 6.02121 0
M  V30 916 H 86.3978 2.98601 4.89398 0
M  V30 917 H 84.7948 3.74926 4.68562 0
M  V30 918 H 85.8648 3.56787 3.28376 0
M  V30 919 N 87.2079 -1.17134 1.05439 0
M  V30 920 C 88.1709 -2.19439 0.661764 0
M  V30 921 C 89.1709 -1.58199 -0.288042 0
M  V30 922 O 90.3609 -1.74053 -0.0715803 0
M  V30 923 C 87.4929 -3.40889 -0.0276209 0
M  V30 924 H 88.6859 -2.55688 1.56728 0
M  V30 925 H 86.2389 -1.31259 0.848567 0
M  V30 926 H 86.9739 -3.10187 -0.94629 0
M  V30 927 H 86.7589 -3.86586 0.655238 0
M  V30 928 H 88.2489 -4.16603 -0.288342 0
M  V30 929 N 88.686 -0.835752 -1.33615 0
M  V30 930 C 89.616 -0.281739 -2.31794 0
M  V30 931 C 90.597 0.608833 -1.58831 0
M  V30 932 O 91.782 0.533035 -1.86741 0
M  V30 933 C 88.912 0.546612 -3.42971 0
M  V30 934 C 87.866 -0.247904 -4.27281 0
M  V30 935 C 87.192 0.704001 -5.30045 0
M  V30 936 C 88.492 -1.46324 -5.01385 0
M  V30 937 H 90.186 -1.10206 -2.78379 0
M  V30 938 H 87.732 -0.531388 -1.33837 0
M  V30 939 H 89.685 0.944467 -4.1068 0
M  V30 940 H 88.409 1.40011 -2.95067 0
M  V30 941 H 87.068 -0.627281 -3.61194 0
M  V30 942 H 86.716 1.55381 -4.78399 0
M  V30 943 H 86.416 0.176524 -5.87335 0
M  V30 944 H 87.94 1.09944 -6.0062 0
M  V30 945 H 89.354 -1.13871 -5.61877 0
M  V30 946 H 87.751 -1.92728 -5.6831 0
M  V30 947 H 88.821 -2.23467 -4.30338 0
M  V30 948 N 90.1641 1.46063 -0.591896 0
M  V30 949 C 91.1271 2.28854 0.125973 0
M  V30 950 C 92.1271 1.38903 0.810107 0
M  V30 951 O 93.3171 1.61186 0.66066 0
M  V30 952 C 90.4491 3.19526 1.1881 0
M  V30 953 H 91.6421 2.93802 -0.601717 0
M  V30 954 H 89.1951 1.52325 -0.350254 0
M  V30 955 H 89.9301 2.59345 1.94707 0
M  V30 956 H 89.7151 3.85766 0.701936 0
M  V30 957 H 91.2051 3.81817 1.69132 0
M  V30 958 N 91.6422 0.330177 1.54103 0
M  V30 959 C 92.8702 -0.272179 2.05102 0
M  V30 960 C 93.2852 -1.45267 1.20595 0
M  V30 961 O 92.6422 -1.8094 0.238144 0
M  V30 962 C 92.6932 -0.70023 3.54653 0
M  V30 963 O 92.4142 0.433301 4.35952 0
M  V30 964 C 93.9152 -1.3647 4.21771 0
M  V30 965 H 91.1352 -0.0549159 0.668749 0
M  V30 966 H 93.6792 0.478285 1.98828 0
M  V30 967 H 91.8342 -1.40066 3.61193 0
M  V30 968 H 92.2482 0.0947539 5.24414 0
M  V30 969 H 93.7222 -1.61509 5.27843 0
M  V30 970 H 94.1992 -2.31409 3.73292 0
M  V30 971 H 94.8052 -0.706675 4.19388 0
M  V30 972 N 93.1203 -1.57491 0.0584922 0
M  V30 973 C 94.0833 -2.1085 -0.898617 0
M  V30 974 C 95.0833 -1.02964 -1.23511 0
M  V30 975 O 96.2733 -1.29007 -1.17059 0
M  V30 976 C 93.4053 -2.59881 -2.20623 0
M  V30 977 H 94.5983 -2.96715 -0.435936 0
M  V30 978 H 92.1513 -1.55141 -0.190023 0
M  V30 979 H 92.8863 -1.77431 -2.71457 0
M  V30 980 H 92.6713 -3.38727 -1.97501 0
M  V30 981 H 94.1613 -3.01285 -2.89166 0
M  V30 982 N 94.5984 0.214957 -1.56127 0
M  V30 983 C 95.8754 0.963093 -1.70247 0
M  V30 984 C 96.2554 2.02166 -0.60764 0
M  V30 985 O 95.6034 2.25244 0.384385 0
M  V30 986 C 95.8134 1.56756 -3.11815 0
M  V30 987 C 97.1614 2.0573 -3.7143 0
M  V30 988 O 98.1854 1.66637 -3.14818 0
M  V30 989 O 97.0444 2.77603 -4.70743 0
M  V30 990 H 94.1384 0.450321 -0.693643 0
M  V30 991 H 96.6844 0.206219 -1.68442 0
M  V30 992 H 95.4564 0.803533 -3.82961 0
M  V30 993 H 95.0794 2.3898 -3.17765 0
M  V30 994 N 96.0765 1.50051 0.48192 0
M  V30 995 C 97.3015 1.64508 1.26301 0
M  V30 996 C 97.7265 0.323851 1.85291 0
M  V30 997 O 97.0845 -0.710969 1.66778 0
M  V30 998 C 97.1325 2.7305 2.35533 0
M  V30 999 O 96.2365 2.3355 3.39895 0
M  V30 1000 H 95.5775 0.549978 0.372048 0
M  V30 1001 H 98.1075 1.9636 0.574786 0
M  V30 1002 H 98.1175 2.95799 2.8101 0
M  V30 1003 H 96.7925 3.68946 1.91967 0
M  V30 1004 H 95.3695 2.21205 3.00204 0
M  V30 1005 N 97.5546 -0.734337 1.39446 0
M  V30 1006 C 98.4866 -1.85861 1.34121 0
M  V30 1007 C 99.4996 -1.60871 0.249864 0
M  V30 1008 O 100.689 -1.71093 0.508865 0
M  V30 1009 C 97.7886 -3.21899 1.05991 0
M  V30 1010 C 96.9616 -3.74239 2.26415 0
M  V30 1011 C 96.0206 -4.88841 1.94733 0
M  V30 1012 O 95.0466 -5.02468 2.67422 0
M  V30 1013 N 96.2486 -5.73261 0.913884 0
M  V30 1014 H 99.0136 -1.90934 2.31007 0
M  V30 1015 H 96.5746 -0.915102 1.33557 0
M  V30 1016 H 98.5666 -3.96136 0.828147 0
M  V30 1017 H 97.1366 -3.12091 0.178361 0
M  V30 1018 H 96.3566 -2.91347 2.65539 0
M  V30 1019 H 97.6446 -4.05942 3.06738 0
M  V30 1020 H 97.0426 -5.64842 0.311476 0
M  V30 1021 H 95.5996 -6.47563 0.742015 0
M  V30 1022 N 99.0327 -1.24633 -0.964593 0
M  V30 1023 C 100.281 -1.08573 -1.70459 0
M  V30 1024 C 100.602 0.375655 -1.91347 0
M  V30 1025 O 99.8717 1.26779 -1.49345 0
M  V30 1026 H 98.4517 -0.398784 -0.631649 0
M  V30 1027 H 101.114 -1.56601 -1.16026 0
M  V30 1028 H 100.21 -1.58623 -2.68785 0
M  V30 1029 N 100.511 1.16574 -1.06058 0
M  V30 1030 C 101.927 1.3904 -0.783585 0
M  V30 1031 C 102.127 1.91784 0.618145 0
M  V30 1032 O 101.183 2.11511 1.37911 0
M  V30 1033 C 102.496 2.37329 -1.84649 0
M  V30 1034 C 104.044 2.51018 -1.86973 0
M  V30 1035 C 104.519 3.52588 -2.92311 0
M  V30 1036 N 106.01 3.60113 -2.91329 0
M  V30 1037 C 106.745 4.38486 -3.69482 0
M  V30 1038 N 106.241 5.20302 -4.57447 0
M  V30 1039 N 108.034 4.33446 -3.57885 0
M  V30 1040 H 100.185 0.806725 -1.96483 0
M  V30 1041 H 102.448 0.417117 -0.851303 0
M  V30 1042 H 102.154 2.05663 -2.85299 0
M  V30 1043 H 102.028 3.36946 -1.6955 0
M  V30 1044 H 104.415 2.81989 -0.869827 0
M  V30 1045 H 104.496 1.51445 -2.0615 0
M  V30 1046 H 104.14 3.22354 -3.92492 0
M  V30 1047 H 104.07 4.51886 -2.70383 0
M  V30 1048 H 106.561 3.01707 -2.27555 0
M  V30 1049 H 106.874 5.77311 -5.13743 0
M  V30 1050 H 105.219 5.19653 -4.61503 0
M  V30 1051 H 108.41 3.68586 -2.88551 0
M  V30 1052 H 108.583 4.94279 -4.19037 0
M  V30 1053 N 101.989 0.842826 1.3317 0
M  V30 1054 C 103.4 0.496651 1.79973 0
M  V30 1055 C 103.751 -0.984641 1.69703 0
M  V30 1056 O 102.876 -1.76743 1.24863 0
M  V30 1057 C 103.471 0.894727 3.26772 0
M  V30 1058 C 102.03 0.600629 3.71577 0
M  V30 1059 C 101.177 1.10091 2.5451 0
M  V30 1060 H 104.128 1.03116 1.20635 0
M  V30 1061 H 104.149 0.206347 3.7994 0
M  V30 1062 H 103.661 1.97287 3.34215 0
M  V30 1063 H 101.762 -0.467284 3.69658 0
M  V30 1064 H 101.875 1.15863 4.64879 0
M  V30 1065 H 100.239 0.52162 2.49301 0
M  V30 1066 H 101.022 2.18591 2.64713 0
M  V30 1067 N 103.467 -1.45747 0.599634 0
M  V30 1068 C 104.692 -2.07178 0.0960198 0
M  V30 1069 C 105.117 -1.44268 -1.207 0
M  V30 1070 O 104.475 -0.532503 -1.73303 0
M  V30 1071 C 104.523 -3.60579 -0.0385348 0
M  V30 1072 O 103.627 -3.97713 -1.0908 0
M  V30 1073 H 102.968 -0.660251 0.0704593 0
M  V30 1074 H 105.498 -1.87124 0.827385 0
M  V30 1075 H 105.508 -4.07298 -0.239304 0
M  V30 1076 H 104.183 -4.05756 0.912947 0
M  V30 1077 H 102.76 -3.62678 -0.867135 0
M  V30 1078 N 104.945 -0.338344 -1.53925 0
M  V30 1079 C 106.173 0.261298 -2.05243 0
M  V30 1080 C 106.588 1.44625 -1.21363 0
M  V30 1081 O 105.945 1.80811 -0.247736 0
M  V30 1082 C 105.996 0.681412 -3.5502 0
M  V30 1083 O 105.717 -0.456414 -4.35716 0
M  V30 1084 C 107.218 1.34232 -4.22489 0
M  V30 1085 H 104.438 0.0513685 -0.669031 0
M  V30 1086 H 106.982 -0.488822 -1.98572 0
M  V30 1087 H 105.137 1.38148 -3.61931 0
M  V30 1088 H 105.551 -0.122564 -5.24357 0
M  V30 1089 H 107.025 1.58708 -5.28693 0
M  V30 1090 H 107.502 2.29426 -3.74514 0
M  V30 1091 H 108.108 0.684424 -4.19757 0
M  V30 1092 N 106.423 1.57458 -0.0668435 0
M  V30 1093 C 107.839 1.56947 0.289772 0
M  V30 1094 C 108.039 1.07584 1.70376 0
M  V30 1095 O 107.095 0.739486 2.41429 0
M  V30 1096 C 108.408 3.0052 0.103943 0
M  V30 1097 C 109.956 3.12517 0.173857 0
M  V30 1098 C 110.431 4.57997 0.0163682 0
M  V30 1099 N 111.922 4.63144 0.0721352 0
M  V30 1100 C 112.657 5.73394 -0.0253794 0
M  V30 1101 N 112.153 6.92576 -0.176133 0
M  V30 1102 N 113.946 5.62091 0.0313305 0
M  V30 1103 H 106.097 1.87863 -0.991027 0
M  V30 1104 H 108.36 0.86583 -0.38606 0
M  V30 1105 H 108.066 3.40729 -0.871572 0
M  V30 1106 H 107.94 3.67304 0.858366 0
M  V30 1107 H 110.327 2.72197 1.13985 0
M  V30 1108 H 110.408 2.48381 -0.611586 0
M  V30 1109 H 110.052 4.99005 -0.946374 0
M  V30 1110 H 109.982 5.20158 0.821153 0
M  V30 1111 H 112.473 3.77436 0.187263 0
M  V30 1112 H 112.786 7.72418 -0.242821 0
M  V30 1113 H 111.131 6.94678 -0.211429 0
M  V30 1114 H 114.322 4.67867 0.147773 0
M  V30 1115 H 114.495 6.47982 -0.048121 0
M  V30 1116 N 107.901 -0.206675 1.56239 0
M  V30 1117 C 109.15 -0.926964 1.79138 0
M  V30 1118 C 109.463 -1.84901 0.638043 0
M  V30 1119 O 110.669 -2.60906 0.751033 0
M  V30 1120 C 109.125 -1.6986 3.17294 0
M  V30 1121 C 108.733 -0.821956 4.40395 0
M  V30 1122 C 110.477 -2.40922 3.4951 0
M  V30 1123 C 108.384 -1.59179 5.69575 0
M  V30 1124 H 107.314 -0.349864 0.667915 0
M  V30 1125 H 109.965 -0.180487 1.8261 0
M  V30 1126 H 108.347 -2.48853 3.08039 0
M  V30 1127 H 109.521 -0.0715019 4.60745 0
M  V30 1128 H 107.836 -0.222741 4.15804 0
M  V30 1129 H 110.433 -2.99047 4.43255 0
M  V30 1130 H 110.776 -3.14542 2.72707 0
M  V30 1131 H 111.309 -1.68905 3.60161 0
M  V30 1132 H 108.048 -0.898589 6.49312 0
M  V30 1133 H 107.568 -2.31648 5.53262 0
M  V30 1134 H 109.247 -2.14862 6.10281 0
M  V30 1135 N 109.379 -1.50304 -0.473955 0
M  V30 1136 C 110.625 -1.61389 -1.22806 0
M  V30 1137 C 110.958 -0.311955 -1.91678 0
M  V30 1138 O 110.233 0.686384 -1.81986 0
M  V30 1139 C 110.516 -2.79219 -2.27396 0
M  V30 1140 C 110.369 -4.19286 -1.62848 0
M  V30 1141 C 111.688 -2.92614 -3.28732 0
M  V30 1142 H 108.807 -0.587399 -0.445119 0
M  V30 1143 H 111.449 -1.82681 -0.522265 0
M  V30 1144 H 109.599 -2.61195 -2.87592 0
M  V30 1145 H 111.271 -4.48892 -1.06271 0
M  V30 1146 H 109.514 -4.23677 -0.931693 0
M  V30 1147 H 110.185 -4.97655 -2.38838 0
M  V30 1148 H 112.661 -3.09105 -2.78556 0
M  V30 1149 H 111.537 -3.76688 -3.99246 0
M  V30 1150 H 111.798 -2.03107 -3.92683 0
M  V30 1151 N 110.857 0.726932 -1.39834 0
M  V30 1152 C 112.103 1.48884 -1.377 0
M  V30 1153 C 112.436 1.94185 0.0244852 0
M  V30 1154 O 111.711 1.67361 0.990986 0
M  V30 1155 C 111.994 2.72288 -2.3565 0
M  V30 1156 C 111.847 2.32956 -3.84775 0
M  V30 1157 C 113.166 3.74414 -2.31306 0
M  V30 1158 H 110.285 0.540062 -0.5015 0
M  V30 1159 H 112.927 0.830547 -1.70886 0
M  V30 1160 H 111.077 3.28457 -2.07481 0
M  V30 1161 H 112.749 1.82356 -4.23726 0
M  V30 1162 H 110.992 1.65088 -4.01159 0
M  V30 1163 H 111.663 3.21362 -4.4881 0
M  V30 1164 H 114.139 3.27849 -2.56231 0
M  V30 1165 H 113.015 4.58414 -3.01907 0
M  V30 1166 H 113.276 4.21909 -1.32081 0
M  V30 1167 N 112.336 1.25143 0.95797 0
M  V30 1168 C 113.585 1.0909 1.69654 0
M  V30 1169 C 113.898 -0.368548 1.92097 0
M  V30 1170 O 115.104 -0.649455 2.63618 0
M  V30 1171 C 113.56 1.90395 3.05414 0
M  V30 1172 C 113.168 3.4081 2.90779 0
M  V30 1173 C 114.912 1.82901 3.83076 0
M  V30 1174 C 112.819 4.14423 4.21909 0
M  V30 1175 H 111.749 0.404625 0.636235 0
M  V30 1176 H 114.4 1.4931 1.06672 0
M  V30 1177 H 112.782 1.42996 3.69281 0
M  V30 1178 H 113.956 3.95859 2.35865 0
M  V30 1179 H 112.271 3.49361 2.26575 0
M  V30 1180 H 114.868 2.35196 4.80195 0
M  V30 1181 H 115.211 0.796224 4.08615 0
M  V30 1182 H 115.744 2.28033 3.25954 0
M  V30 1183 H 112.483 5.18102 4.01561 0
M  V30 1184 H 112.003 3.64159 4.76601 0
M  V30 1185 H 113.682 4.21956 4.90471 0
M  V30 1186 N 113.814 -1.1601 1.06675 0
M  V30 1187 C 115.039 -1.91068 0.806706 0
M  V30 1188 C 115.464 -1.77112 -0.633485 0
M  V30 1189 O 114.822 -1.09908 -1.44187 0
M  V30 1190 C 114.87 -3.39655 1.21106 0
M  V30 1191 O 113.974 -4.10893 0.352189 0
M  V30 1192 H 113.315 -0.595125 0.294486 0
M  V30 1193 H 115.845 -1.46955 1.42356 0
M  V30 1194 H 115.855 -3.90434 1.18428 0
M  V30 1195 H 114.53 -3.49132 2.26008 0
M  V30 1196 H 113.107 -3.70285 0.440868 0
M  V30 1197 N 115.292 -0.849877 -1.32721 0
M  V30 1198 C 116.202 -0.293791 -2.32753 0
M  V30 1199 C 117.218 0.585906 -1.63839 0
M  V30 1200 O 118.394 0.487413 -1.95413 0
M  V30 1201 C 115.459 0.512752 -3.42887 0
M  V30 1202 C 114.52 -0.39252 -4.27502 0
M  V30 1203 C 113.753 0.375625 -5.32377 0
M  V30 1204 O 113.976 1.60613 -5.4732 0
M  V30 1205 O 112.91 -0.256094 -6.01355 0
M  V30 1206 H 116.736 -1.12242 -2.82197 0
M  V30 1207 H 114.321 -0.612685 -1.36259 0
M  V30 1208 H 116.203 0.970704 -4.10067 0
M  V30 1209 H 114.878 1.31826 -2.95641 0
M  V30 1210 H 113.785 -0.898547 -3.63149 0
M  V30 1211 H 115.118 -1.16309 -4.7826 0
M  V30 1212 N 116.77 1.45427 -0.607355 0
M  V30 1213 C 118.019 2.01452 -0.100036 0
M  V30 1214 C 118.332 1.48159 1.27704 0
M  V30 1215 O 119.538 1.96159 1.87707 0
M  V30 1216 C 117.994 3.59672 -0.128158 0
M  V30 1217 C 117.602 4.21962 -1.50507 0
M  V30 1218 C 119.346 4.23262 0.323932 0
M  V30 1219 C 117.253 5.72333 -1.48959 0
M  V30 1220 H 116.183 0.75325 -0.0336299 0
M  V30 1221 H 118.834 1.66901 -0.76265 0
M  V30 1222 H 117.216 3.91411 0.601105 0
M  V30 1223 H 118.39 4.01796 -2.25602 0
M  V30 1224 H 116.705 3.70565 -1.89923 0
M  V30 1225 H 119.302 5.33522 0.354691 0
M  V30 1226 H 119.645 3.93921 1.34656 0
M  V30 1227 H 120.178 3.96239 -0.352056 0
M  V30 1228 H 116.917 6.06373 -2.48981 0
M  V30 1229 H 116.437 5.94691 -0.781214 0
M  V30 1230 H 118.116 6.35525 -1.21313 0
M  V30 1231 N 118.248 0.346503 1.53744 0
M  V30 1232 C 119.473 -0.253074 2.0585 0
M  V30 1233 C 119.898 -1.43202 1.21962 0
M  V30 1234 O 119.256 -1.79783 0.234073 0
M  V30 1235 C 119.304 -0.643193 3.54817 0
M  V30 1236 O 118.408 -1.74286 3.73762 0
M  V30 1237 H 117.749 -0.0413583 0.662711 0
M  V30 1238 H 120.279 0.501574 1.98357 0
M  V30 1239 H 120.289 -0.919526 3.97503 0
M  V30 1240 H 118.964 0.218966 4.15323 0
M  V30 1241 H 117.541 -1.46356 3.42979 0
M  V30 1242 N 119.726 -1.57421 0.075193 0
M  V30 1243 C 121.003 -1.85029 -0.634329 0
M  V30 1244 C 121.383 -0.968305 -1.87582 0
M  V30 1245 O 120.731 -0.0354749 -2.28472 0
M  V30 1246 C 120.941 -3.35286 -0.968742 0
M  V30 1247 C 122.289 -4.02875 -1.34077 0
M  V30 1248 O 123.313 -3.40051 -1.06037 0
M  V30 1249 O 122.172 -5.13691 -1.86506 0
M  V30 1250 H 119.266 -0.7645 -0.315387 0
M  V30 1251 H 121.812 -1.69366 0.106382 0
M  V30 1252 H 120.584 -3.91203 -0.0871376 0
M  V30 1253 H 120.207 -3.56223 -1.7661 0
M  V30 1254 N 121.204 0.198386 -1.56346 0
M  V30 1255 C 122.167 1.22952 -1.93431 0
M  V30 1256 C 123.167 1.38611 -0.815092 0
M  V30 1257 O 124.357 1.36479 -1.08255 0
M  V30 1258 C 121.489 2.59946 -2.20546 0
M  V30 1259 H 122.682 0.912626 -2.85677 0
M  V30 1260 H 120.235 0.43977 -1.49986 0
M  V30 1261 H 120.97 2.96696 -1.30927 0
M  V30 1262 H 120.755 2.49953 -3.02102 0
M  V30 1263 H 122.245 3.3431 -2.50253 0
M  V30 1264 N 122.682 1.50554 0.465978 0
M  V30 1265 C 123.93 1.61479 1.21528 0
M  V30 1266 C 124.251 0.319596 1.92363 0
M  V30 1267 O 123.521 -0.663194 1.84333 0
M  V30 1268 H 122.101 0.595055 0.451573 0
M  V30 1269 H 124.763 1.87355 0.53704 0
M  V30 1270 H 123.859 2.42846 1.96042 0
M  V30 1271 N 124.16 -0.719506 1.40217 0
M  V30 1272 C 125.406 -1.48152 1.38488 0
M  V30 1273 C 125.739 -1.94195 -0.0141867 0
M  V30 1274 O 125.014 -1.67884 -0.982096 0
M  V30 1275 C 125.297 -2.71035 2.37091 0
M  V30 1276 C 125.15 -2.30912 3.86005 0
M  V30 1277 C 126.469 -3.73182 2.33288 0
M  V30 1278 H 123.588 -0.537395 0.504357 0
M  V30 1279 H 126.23 -0.821472 1.71324 0
M  V30 1280 H 124.38 -3.27352 2.0922 0
M  V30 1281 H 126.052 -1.80107 4.24687 0
M  V30 1282 H 124.295 -1.62958 4.02029 0
M  V30 1283 H 124.966 -3.18978 4.50508 0
M  V30 1284 H 127.442 -3.26485 2.57966 0
M  V30 1285 H 126.318 -4.56806 3.04334 0
M  V30 1286 H 126.579 -4.21202 1.34317 0
M  V30 1287 N 125.638 -1.25649 -0.95132 0
M  V30 1288 C 126.884 -1.10757 -1.69884 0
M  V30 1289 C 127.217 0.350061 -1.91019 0
M  V30 1290 O 126.492 1.25783 -1.48354 0
M  V30 1291 C 126.775 -1.86606 -3.07978 0
M  V30 1292 C 126.628 -3.40217 -2.94232 0
M  V30 1293 C 127.947 -1.65182 -4.07925 0
M  V30 1294 H 125.066 -0.40374 -0.616574 0
M  V30 1295 H 127.708 -1.54521 -1.10558 0
M  V30 1296 H 125.858 -1.49409 -3.58621 0
M  V30 1297 H 127.53 -3.87108 -2.50889 0
M  V30 1298 H 125.773 -3.67759 -2.30078 0
M  V30 1299 H 126.444 -3.88505 -3.92133 0
M  V30 1300 H 128.92 -1.9757 -3.66204 0
M  V30 1301 H 127.796 -2.20683 -5.02583 0
M  V30 1302 H 128.057 -0.593933 -4.38092 0
M  V30 1303 N 127.117 1.15442 -1.07289 0
M  V30 1304 C 128.364 1.86213 -0.795668 0
M  V30 1305 C 128.692 1.82291 0.678238 0
M  V30 1306 O 127.947 1.24057 1.51355 0
M  V30 1307 C 128.246 3.3489 -1.24834 0
M  V30 1308 C 127.912 3.59007 -2.72809 0
M  V30 1309 C 126.574 3.65298 -3.13227 0
M  V30 1310 C 128.926 3.68762 -3.68326 0
M  V30 1311 C 126.254 3.78854 -4.4798 0
M  V30 1312 C 128.606 3.83842 -5.0284 0
M  V30 1313 C 127.27 3.88378 -5.4288 0
M  V30 1314 H 126.54 0.681403 -0.291155 0
M  V30 1315 H 129.187 1.36435 -1.34379 0
M  V30 1316 H 127.492 3.8687 -0.619595 0
M  V30 1317 H 129.189 3.88052 -1.01076 0
M  V30 1318 H 125.779 3.5475 -2.40521 0
M  V30 1319 H 129.963 3.63202 -3.38227 0
M  V30 1320 H 125.219 3.80623 -4.78472 0
M  V30 1321 H 129.393 3.90332 -5.76727 0
M  V30 1322 H 127.02 3.98635 -6.47298 0
M  V30 1323 N 128.595 0.856903 1.32268 0
M  V30 1324 C 129.82 0.474569 2.01897 0
M  V30 1325 C 130.245 -0.921766 1.63967 0
M  V30 1326 O 129.603 -1.60589 0.84148 0
M  V30 1327 C 129.651 0.623799 3.55164 0
M  V30 1328 O 128.755 -0.342459 4.10976 0
M  V30 1329 H 128.096 0.190422 0.63611 0
M  V30 1330 H 130.626 1.15672 1.68764 0
M  V30 1331 H 130.636 0.512169 4.04773 0
M  V30 1332 H 129.311 1.64202 3.82113 0
M  V30 1333 H 127.888 -0.18688 3.72431 0
M  V30 1334 N 130.073 -1.45103 0.615059 0
M  V30 1335 C 131.301 -2.06553 0.11977 0
M  V30 1336 C 131.716 -1.45842 -1.19898 0
M  V30 1337 O 131.073 -0.575325 -1.73194 0
M  V30 1338 C 131.124 -3.61495 -0.018364 0
M  V30 1339 O 130.845 -4.19942 1.24822 0
M  V30 1340 C 132.346 -4.39947 -0.544237 0
M  V30 1341 H 129.566 -0.667096 0.0722739 0
M  V30 1342 H 132.11 -1.8623 0.84491 0
M  V30 1343 H 130.265 -3.81135 -0.693865 0
M  V30 1344 H 130.679 -5.13204 1.0827 0
M  V30 1345 H 132.153 -5.48838 -0.589953 0
M  V30 1346 H 132.63 -4.10255 -1.56805 0
M  V30 1347 H 133.236 -4.25188 0.0974703 0
M  V30 1348 N 131.551 -0.354651 -1.53558 0
M  V30 1349 C 132.501 0.513179 -2.2215 0
M  V30 1350 C 133.485 1.05734 -1.21281 0
M  V30 1351 O 134.677 0.989202 -1.46778 0
M  V30 1352 C 131.806 1.65798 -3.00609 0
M  V30 1353 C 130.892 1.12722 -4.08845 0
M  V30 1354 N 131.283 0.318563 -5.04796 0
M  V30 1355 C 129.581 1.40307 -4.23356 0
M  V30 1356 C 130.282 0.0292224 -5.81693 0
M  V30 1357 N 129.258 0.623891 -5.40008 0
M  V30 1358 H 133.06 -0.111586 -2.93688 0
M  V30 1359 H 130.574 -0.162091 -1.61589 0
M  V30 1360 H 132.571 2.29176 -3.48258 0
M  V30 1361 H 131.231 2.28591 -2.306 0
M  V30 1362 H 132.242 -0.0413091 -5.17884 0
M  V30 1363 H 128.919 2.03458 -3.6457 0
M  V30 1364 H 130.309 -0.623808 -6.68998 0
M  V30 1365 N 133.029 1.57378 -0.0835403 0
M  V30 1366 C 133.992 2.12252 0.864959 0
M  V30 1367 C 134.992 1.04916 1.21858 0
M  V30 1368 O 136.182 1.30853 1.14991 0
M  V30 1369 C 133.314 2.63358 2.16461 0
M  V30 1370 H 134.507 2.97371 0.388676 0
M  V30 1371 H 132.06 1.55423 0.165317 0
M  V30 1372 H 132.795 1.81727 2.686 0
M  V30 1373 H 132.58 3.41826 1.92087 0
M  V30 1374 H 134.07 3.05847 2.84337 0
M  V30 1375 N 134.507 -0.190092 1.56449 0
M  V30 1376 C 135.755 -0.907908 1.80559 0
M  V30 1377 C 136.076 -1.83583 0.657438 0
M  V30 1378 O 135.346 -1.93203 -0.323924 0
M  V30 1379 H 133.926 -0.338247 0.666032 0
M  V30 1380 H 136.588 -0.194403 1.93928 0
M  V30 1381 H 135.684 -1.49604 2.73907 0
M  V30 1382 N 135.985 -1.50799 -0.457987 0
M  V30 1383 C 137.21 -1.66496 -1.23668 0
M  V30 1384 C 137.635 -0.353288 -1.84752 0
M  V30 1385 O 136.993 0.684346 -1.67888 0
M  V30 1386 C 137.041 -2.76763 -2.3116 0
M  V30 1387 O 136.145 -2.38928 -3.36136 0
M  V30 1388 H 135.486 -0.555828 -0.363252 0
M  V30 1389 H 138.016 -1.9725 -0.543474 0
M  V30 1390 H 138.026 -3.00232 -2.76269 0
M  V30 1391 H 136.701 -3.71954 -1.86073 0
M  V30 1392 H 135.278 -2.25953 -2.96647 0
M  V30 1393 N 137.463 0.71206 -1.40597 0
M  V30 1394 C 138.395 1.83704 -1.37061 0
M  V30 1395 C 139.408 1.60453 -0.275426 0
M  V30 1396 O 140.597 1.70262 -0.53602 0
M  V30 1397 C 137.697 3.20172 -1.11099 0
M  V30 1398 C 136.87 3.7059 -2.3234 0
M  V30 1399 C 135.929 4.85681 -2.02485 0
M  V30 1400 O 134.955 4.9815 -2.75382 0
M  V30 1401 N 136.157 5.71735 -1.00497 0
M  V30 1402 H 138.922 1.87235 -2.34016 0
M  V30 1403 H 136.483 0.893739 -1.34996 0
M  V30 1404 H 138.475 3.94768 -0.891064 0
M  V30 1405 H 137.045 3.11767 -0.227989 0
M  V30 1406 H 136.265 2.87085 -2.7014 0
M  V30 1407 H 137.553 4.01011 -3.13157 0
M  V30 1408 H 136.951 5.64275 -0.401298 0
M  V30 1409 H 135.508 6.463 -0.844942 0
M  V30 1410 N 138.941 1.26152 0.944643 0
M  V30 1411 C 139.888 1.07408 2.04285 0
M  V30 1412 C 140.858 -0.0198413 1.66088 0
M  V30 1413 O 142.043 0.139264 1.90291 0
M  V30 1414 C 139.183 0.70945 3.37729 0
M  V30 1415 C 138.296 1.87926 3.88983 0
M  V30 1416 C 137.431 1.45807 5.10797 0
M  V30 1417 C 136.47 2.5964 5.54305 0
M  V30 1418 N 135.607 2.18226 6.67324 0
M  V30 1419 H 140.447 2.01389 2.1965 0
M  V30 1420 H 137.984 1.00275 1.07626 0
M  V30 1421 H 139.942 0.478948 4.14442 0
M  V30 1422 H 138.572 -0.193389 3.2222 0
M  V30 1423 H 137.624 2.22279 3.08701 0
M  V30 1424 H 138.936 2.73377 4.17213 0
M  V30 1425 H 138.09 1.18781 5.94959 0
M  V30 1426 H 136.829 0.574414 4.84305 0
M  V30 1427 H 135.834 2.87399 4.68702 0
M  V30 1428 H 137.059 3.48599 5.828 0
M  V30 1429 H 135.005 1.3229 6.42523 0
M  V30 1430 H 134.922 2.97221 6.95123 0
M  V30 1431 H 136.19 1.94403 7.54869 0
M  V30 1432 N 140.419 -1.14872 1.07899 0
M  V30 1433 C 141.667 -1.85422 0.803941 0
M  V30 1434 C 141.988 -1.83051 -0.67211 0
M  V30 1435 O 141.258 -1.27532 -1.48703 0
M  V30 1436 H 139.838 -0.686537 0.294408 0
M  V30 1437 H 142.5 -1.39226 1.3639 0
M  V30 1438 H 141.596 -2.90399 1.14346 0
M  V30 1439 N 141.898 -0.863906 -1.31812 0
M  V30 1440 C 143.314 -0.555004 -1.49639 0
M  V30 1441 C 143.514 0.912266 -1.79666 0
M  V30 1442 O 142.57 1.69479 -1.87171 0
M  V30 1443 C 143.883 -1.44998 -2.63431 0
M  V30 1444 C 145.431 -1.45138 -2.77316 0
M  V30 1445 C 145.906 -2.33179 -3.94197 0
M  V30 1446 N 147.397 -2.31025 -4.01474 0
M  V30 1447 C 148.132 -2.95871 -4.9117 0
M  V30 1448 N 147.628 -3.69863 -5.8581 0
M  V30 1449 N 149.421 -2.85211 -4.84367 0
M  V30 1450 H 141.572 -1.81339 -1.10589 0
M  V30 1451 H 143.835 -0.77505 -0.545895 0
M  V30 1452 H 143.541 -2.49377 -2.48 0
M  V30 1453 H 143.415 -1.14409 -3.59431 0
M  V30 1454 H 145.802 -0.415201 -2.92164 0
M  V30 1455 H 145.883 -1.79747 -1.82001 0
M  V30 1456 H 145.527 -3.3687 -3.80107 0
M  V30 1457 H 145.457 -1.95897 -4.88807 0
M  V30 1458 H 147.948 -1.77238 -3.33759 0
M  V30 1459 H 148.261 -4.16486 -6.50968 0
M  V30 1460 H 146.606 -3.73971 -5.85808 0
M  V30 1461 H 149.797 -2.26948 -4.09405 0
M  V30 1462 H 149.97 -3.36027 -5.54066 0
M  V30 1463 N 143.376 1.44774 -0.622745 0
M  V30 1464 C 144.286 2.34433 0.0886031 0
M  V30 1465 C 145.302 1.52131 0.844529 0
M  V30 1466 O 146.478 1.84886 0.798691 0
M  V30 1467 C 143.543 3.29986 1.0635 0
M  V30 1468 C 142.604 4.28195 0.307873 0
M  V30 1469 C 141.837 5.19183 1.23633 0
M  V30 1470 O 142.06 5.13918 2.47476 0
M  V30 1471 O 140.994 5.97515 0.725189 0
M  V30 1472 H 144.82 2.96693 -0.648599 0
M  V30 1473 H 142.405 1.44408 -0.382957 0
M  V30 1474 H 144.287 3.88825 1.6246 0
M  V30 1475 H 142.962 2.70269 1.78146 0
M  V30 1476 H 141.869 3.72927 -0.296064 0
M  V30 1477 H 143.202 4.90808 -0.3699 0
M  V30 1478 N 144.854 0.36279 1.53368 0
M  V30 1479 C 145.784 -0.476976 2.28576 0
M  V30 1480 C 146.765 -1.08631 1.30894 0
M  V30 1481 O 147.95 -1.10409 1.59761 0
M  V30 1482 C 145.08 -1.61828 3.07293 0
M  V30 1483 C 144.034 -1.13633 4.1264 0
M  V30 1484 C 143.36 -2.36766 4.79423 0
M  V30 1485 C 144.66 -0.223061 5.21823 0
M  V30 1486 H 146.354 0.150474 2.99022 0
M  V30 1487 H 143.9 0.0738103 1.43811 0
M  V30 1488 H 145.853 -2.21237 3.58653 0
M  V30 1489 H 144.577 -2.27292 2.34533 0
M  V30 1490 H 143.236 -0.564945 3.62221 0
M  V30 1491 H 142.884 -3.0068 4.03238 0
M  V30 1492 H 142.584 -2.05192 5.50609 0
M  V30 1493 H 144.108 -2.96865 5.33576 0
M  V30 1494 H 145.522 -0.724545 5.68703 0
M  V30 1495 H 143.919 0.001678 6.001 0
M  V30 1496 H 144.989 0.735553 4.79289 0
M  V30 1497 N 146.332 -1.57332 0.0918853 0
M  V30 1498 C 147.262 -2.16872 -0.865371 0
M  V30 1499 C 148.243 -1.10118 -1.29646 0
M  V30 1500 O 149.428 -1.38242 -1.36392 0
M  V30 1501 C 146.558 -2.74649 -2.12569 0
M  V30 1502 C 145.512 -3.86747 -1.83333 0
M  V30 1503 C 144.838 -4.31212 -3.16166 0
M  V30 1504 C 146.138 -5.10089 -1.1228 0
M  V30 1505 H 147.832 -2.97114 -0.369307 0
M  V30 1506 H 145.378 -1.42918 -0.176194 0
M  V30 1507 H 147.331 -3.14952 -2.7997 0
M  V30 1508 H 146.055 -1.91657 -2.64452 0
M  V30 1509 H 144.714 -3.46978 -1.18331 0
M  V30 1510 H 144.362 -3.45115 -3.6593 0
M  V30 1511 H 144.062 -5.06788 -2.97388 0
M  V30 1512 H 145.586 -4.74146 -3.84731 0
M  V30 1513 H 147 -5.47582 -1.69785 0
M  V30 1514 H 145.397 -5.91073 -1.03693 0
M  V30 1515 H 146.467 -4.84786 -0.105041 0
M  V30 1516 N 147.81 0.181792 -1.56548 0
M  V30 1517 C 148.76 1.22961 -1.92002 0
M  V30 1518 C 149.744 1.40331 -0.787146 0
M  V30 1519 O 150.936 1.42478 -1.05019 0
M  V30 1520 C 148.065 2.57144 -2.27446 0
M  V30 1521 C 147.151 2.43512 -3.47222 0
M  V30 1522 N 147.542 1.99577 -4.64761 0
M  V30 1523 C 145.84 2.74368 -3.51622 0
M  V30 1524 C 146.541 1.98156 -5.46909 0
M  V30 1525 N 145.517 2.40164 -4.8767 0
M  V30 1526 H 149.319 0.881462 -2.8037 0
M  V30 1527 H 146.833 0.390141 -1.57644 0
M  V30 1528 H 148.83 3.32847 -2.51035 0
M  V30 1529 H 147.49 2.92771 -1.40411 0
M  V30 1530 H 148.501 1.70078 -4.89177 0
M  V30 1531 H 145.178 3.14102 -2.75038 0
M  V30 1532 H 146.568 1.65975 -6.51077 0
M  V30 1533 N 149.288 1.51039 0.449983 0
M  V30 1534 C 150.236 1.71995 1.5659 0
M  V30 1535 C 151.23 0.586029 1.5894 0
M  V30 1536 O 152.436 0.76709 1.62837 0
M  V30 1537 H 148.811 0.543233 0.520001 0
M  V30 1538 H 150.782 2.65562 1.36085 0
M  V30 1539 C 149.531 1.8506 2.9436 0
M  V30 1540 H 148.854 2.71712 2.93279 0
M  V30 1541 H 150.294 2.0374 3.71842 0
M  V30 1542 C 148.753 0.607277 3.31382 0
M  V30 1543 O 149.283 -0.243903 4.00959 0
M  V30 1544 N 147.489 0.455073 2.87015 0
M  V30 1545 H 147.036 1.14879 2.30566 0
M  V30 1546 H 146.994 -0.375611 3.12148 0
M  V30 1547 N 150.766 -0.704594 1.40972 0
M  V30 1548 C 152.177 -1.28418 1.3552 0
M  V30 1549 C 152.528 -1.96171 0.0339434 0
M  V30 1550 O 151.653 -1.98231 -0.867944 0
M  V30 1551 C 152.248 -2.33528 2.45459 0
M  V30 1552 C 150.807 -2.87085 2.43433 0
M  V30 1553 C 149.954 -1.61007 2.2577 0
M  V30 1554 H 152.905 -0.499963 1.50619 0
M  V30 1555 H 152.926 -3.14619 2.13998 0
M  V30 1556 H 152.438 -1.84187 3.41609 0
M  V30 1557 H 150.539 -3.40626 1.51013 0
M  V30 1558 H 150.652 -3.3813 3.39419 0
M  V30 1559 H 149.016 -1.86482 1.73483 0
M  V30 1560 H 149.799 -1.13675 3.23933 0
M  V30 1561 N 152.244 -1.26651 -0.937939 0
M  V30 1562 C 153.49 -1.13562 -1.68746 0
M  V30 1563 C 153.845 0.317241 -1.89767 0
M  V30 1564 O 153.138 1.22939 -1.46957 0
M  V30 1565 C 153.332 -1.84168 -3.06295 0
M  V30 1566 C 153.161 -3.36171 -2.98696 0
M  V30 1567 C 151.931 -4.05468 -3.01535 0
M  V30 1568 C 154.129 -4.32312 -2.78588 0
M  V30 1569 N 152.111 -5.44118 -2.84269 0
M  V30 1570 C 153.482 -5.58159 -2.69924 0
M  V30 1571 C 155.537 -4.22524 -2.63396 0
M  V30 1572 C 154.24 -6.75335 -2.47618 0
M  V30 1573 C 156.266 -5.39411 -2.42466 0
M  V30 1574 C 155.628 -6.64208 -2.34536 0
M  V30 1575 H 151.727 -0.470361 -0.624728 0
M  V30 1576 H 154.311 -1.59982 -1.10968 0
M  V30 1577 H 152.482 -1.40219 -3.62206 0
M  V30 1578 H 154.214 -1.63674 -3.70126 0
M  V30 1579 H 150.969 -3.56854 -3.11372 0
M  V30 1580 H 151.393 -6.1693 -2.78795 0
M  V30 1581 H 156.035 -3.26771 -2.68292 0
M  V30 1582 H 153.753 -7.71182 -2.41463 0
M  V30 1583 H 157.339 -5.33711 -2.31611 0
M  V30 1584 H 156.219 -7.53129 -2.18555 0
M  V30 1585 N 153.722 1.14298 -1.08507 0
M  V30 1586 C 154.685 2.17607 -0.719711 0
M  V30 1587 C 155.685 1.58907 0.245997 0
M  V30 1588 O 156.875 1.74181 0.0254081 0
M  V30 1589 C 154.007 3.40842 -0.0627695 0
M  V30 1590 H 155.2 2.51443 -1.63452 0
M  V30 1591 H 152.753 1.28963 -0.88307 0
M  V30 1592 H 153.488 3.12587 0.863716 0
M  V30 1593 H 153.273 3.84713 -0.757504 0
M  V30 1594 H 154.763 4.17221 0.177786 0
M  V30 1595 N 155.201 0.870884 1.31352 0
M  V30 1596 C 156.426 0.495957 2.01383 0
M  V30 1597 C 156.851 -0.904324 1.64935 0
M  V30 1598 O 156.209 -1.59687 0.858466 0
M  V30 1599 C 156.257 0.661433 3.54482 0
M  V30 1600 O 155.361 -0.298851 4.11316 0
M  V30 1601 H 154.702 0.197158 0.634054 0
M  V30 1602 H 157.232 1.17455 1.67527 0
M  V30 1603 H 157.242 0.555072 4.04207 0
M  V30 1604 H 155.917 1.68246 3.8035 0
M  V30 1605 H 154.494 -0.147368 3.72609 0
M  V30 1606 N 156.679 -1.44442 0.630414 0
M  V30 1607 C 157.927 -2.01653 0.134351 0
M  V30 1608 C 158.248 -1.49836 -1.24796 0
M  V30 1609 O 157.518 -0.701684 -1.82902 0
M  V30 1610 H 156.098 -0.74554 0.0466769 0
M  V30 1611 H 158.76 -1.76952 0.816955 0
M  V30 1612 H 157.856 -3.11935 0.101498 0
M  V30 1613 N 158.157 -0.370918 -1.53173 0
M  V30 1614 C 159.403 0.217423 -2.01631 0
M  V30 1615 C 159.736 1.47983 -1.25756 0
M  V30 1616 O 159.011 1.91274 -0.352764 0
M  V30 1617 C 159.294 0.503982 -3.56556 0
M  V30 1618 C 159.147 -0.77243 -4.43118 0
M  V30 1619 C 160.466 1.30234 -4.20389 0
M  V30 1620 H 157.585 0.0775486 -0.732909 0
M  V30 1621 H 160.227 -0.496863 -1.83388 0
M  V30 1622 H 158.377 1.11248 -3.72231 0
M  V30 1623 H 160.049 -1.4098 -4.39229 0
M  V30 1624 H 158.292 -1.39167 -4.10871 0
M  V30 1625 H 158.963 -0.526815 -5.4948 0
M  V30 1626 H 161.439 0.787546 -4.08579 0
M  V30 1627 H 160.315 1.47158 -5.28806 0
M  V30 1628 H 160.576 2.31237 -3.76805 0
M  V30 1629 N 159.635 1.57281 -0.100228 0
M  V30 1630 C 160.565 2.17328 0.853857 0
M  V30 1631 C 161.546 1.10804 1.2906 0
M  V30 1632 O 162.731 1.38963 1.35657 0
M  V30 1633 C 159.861 2.75772 2.11109 0
M  V30 1634 C 158.815 3.87713 1.81279 0
M  V30 1635 C 158.141 4.32882 3.13874 0
M  V30 1636 C 159.441 5.10677 1.09574 0
M  V30 1637 H 161.135 2.97305 0.353545 0
M  V30 1638 H 158.681 1.43009 0.168612 0
M  V30 1639 H 160.634 3.16433 2.78296 0
M  V30 1640 H 159.358 1.93057 2.63432 0
M  V30 1641 H 158.017 3.476 1.16489 0
M  V30 1642 H 157.665 3.47051 3.64095 0
M  V30 1643 H 157.365 5.08358 2.94696 0
M  V30 1644 H 158.889 4.7618 3.82211 0
M  V30 1645 H 160.303 5.48474 1.66879 0
M  V30 1646 H 158.7 5.91615 1.00557 0
M  V30 1647 H 159.77 4.84835 0.0793299 0
M  V30 1648 N 161.113 -0.173488 1.56642 0
M  V30 1649 C 162.343 -0.904781 1.85734 0
M  V30 1650 C 162.751 -1.76431 0.68328 0
M  V30 1651 O 162.094 -1.802 -0.356865 0
M  V30 1652 C 162.156 -1.83382 3.09211 0
M  V30 1653 C 161.82 -1.15411 4.42187 0
M  V30 1654 C 162.817 -0.520609 5.17287 0
M  V30 1655 C 160.502 -1.15151 4.88923 0
M  V30 1656 C 162.496 0.106412 6.37311 0
M  V30 1657 C 160.183 -0.520664 6.08878 0
M  V30 1658 C 161.181 0.107196 6.82916 0
M  V30 1659 O 160.869 0.728102 8.00596 0
M  V30 1660 H 160.601 -0.268408 0.62043 0
M  V30 1661 H 163.155 -0.179096 2.04618 0
M  V30 1662 H 161.385 -2.59976 2.86268 0
M  V30 1663 H 163.074 -2.43476 3.24768 0
M  V30 1664 H 163.84 -0.514606 4.82262 0
M  V30 1665 H 159.719 -1.62961 4.31236 0
M  V30 1666 H 163.263 0.597081 6.9504 0
M  V30 1667 H 159.16 -0.524242 6.43368 0
M  V30 1668 H 159.928 0.627138 8.16094 0
M  V30 1669 N 162.591 -1.51276 -0.441967 0
M  V30 1670 C 163.837 -1.6492 -1.1905 0
M  V30 1671 C 164.192 -0.358731 -1.89026 0
M  V30 1672 O 163.485 0.645193 -1.8041 0
M  V30 1673 C 163.679 -2.78746 -2.23686 0
M  V30 1674 C 163.508 -4.18737 -1.63979 0
M  V30 1675 C 162.278 -4.84739 -1.42674 0
M  V30 1676 C 164.476 -5.01988 -1.11858 0
M  V30 1677 N 162.458 -6.08858 -0.785159 0
M  V30 1678 C 163.829 -6.17071 -0.601989 0
M  V30 1679 C 165.884 -4.87551 -1.0099 0
M  V30 1680 C 164.587 -7.19299 0.0126012 0
M  V30 1681 C 166.613 -5.89983 -0.409206 0
M  V30 1682 C 165.975 -7.04333 0.0968651 0
M  V30 1683 H 162.074 -0.657416 -0.423471 0
M  V30 1684 H 164.658 -1.8849 -0.48782 0
M  V30 1685 H 162.829 -2.56848 -2.91348 0
M  V30 1686 H 164.561 -2.81595 -2.90666 0
M  V30 1687 H 161.316 -4.42528 -1.68719 0
M  V30 1688 H 161.74 -6.75282 -0.481942 0
M  V30 1689 H 166.382 -3.99401 -1.38703 0
M  V30 1690 H 164.1 -8.071 0.401879 0
M  V30 1691 H 167.686 -5.8088 -0.327079 0
M  V30 1692 H 166.566 -7.82238 0.554373 0
M  V30 1693 N 164.069 0.697108 -1.41344 0
M  V30 1694 C 165.485 1.00751 -1.2378 0
M  V30 1695 C 165.685 2.01105 -0.126066 0
M  V30 1696 O 164.741 2.47295 0.51004 0
M  V30 1697 C 166.054 1.53359 -2.58653 0
M  V30 1698 C 167.602 1.6525 -2.65822 0
M  V30 1699 C 168.077 2.2126 -4.01009 0
M  V30 1700 N 169.568 2.28622 -4.02847 0
M  V30 1701 C 170.303 2.72984 -5.04249 0
M  V30 1702 N 169.799 3.16962 -6.16041 0
M  V30 1703 N 171.592 2.72534 -4.91611 0
M  V30 1704 H 163.743 0.0322662 -2.12375 0
M  V30 1705 H 166.006 0.0768853 -0.944877 0
M  V30 1706 H 165.712 0.870773 -3.4075 0
M  V30 1707 H 165.586 2.51597 -2.81032 0
M  V30 1708 H 167.973 2.30644 -1.84086 0
M  V30 1709 H 168.054 0.655614 -2.47256 0
M  V30 1710 H 167.698 1.56482 -4.83193 0
M  V30 1711 H 167.628 3.21698 -4.16915 0
M  V30 1712 H 170.119 1.97585 -3.22131 0
M  V30 1713 H 170.432 3.49434 -6.89287 0
M  V30 1714 H 168.777 3.14875 -6.1958 0
M  V30 1715 H 171.968 2.37525 -4.0336 0
M  V30 1716 H 172.141 3.06789 -5.70775 0
M  V30 1717 N 165.547 1.27147 0.931209 0
M  V30 1718 C 166.457 1.11372 2.06478 0
M  V30 1719 C 167.473 0.044645 1.73943 0
M  V30 1720 O 168.649 0.250417 1.99837 0
M  V30 1721 C 165.714 0.758838 3.38294 0
M  V30 1722 C 164.775 1.90841 3.84549 0
M  V30 1723 C 164.008 1.57036 5.10074 0
M  V30 1724 O 164.231 0.476645 5.68405 0
M  V30 1725 O 163.165 2.40839 5.51616 0
M  V30 1726 H 166.991 2.06493 2.22698 0
M  V30 1727 H 164.576 1.06301 1.04978 0
M  V30 1728 H 166.458 0.574098 4.17471 0
M  V30 1729 H 165.133 -0.162879 3.2329 0
M  V30 1730 H 164.04 2.14819 3.06274 0
M  V30 1731 H 165.373 2.81021 4.04089 0
M  V30 1732 N 167.025 -1.13721 1.09112 0
M  V30 1733 C 168.253 -1.88773 0.846899 0
M  V30 1734 C 168.668 -1.7896 -0.601572 0
M  V30 1735 O 168.025 -1.15394 -1.41388 0
M  V30 1736 C 168.076 -3.3849 1.26913 0
M  V30 1737 O 167.797 -3.48043 2.66079 0
M  V30 1738 C 169.298 -4.30518 1.05682 0
M  V30 1739 H 166.518 -0.59772 0.304914 0
M  V30 1740 H 169.062 -1.43977 1.45227 0
M  V30 1741 H 167.217 -3.80881 0.707723 0
M  V30 1742 H 167.631 -4.4109 2.83795 0
M  V30 1743 H 169.105 -5.3391 1.40156 0
M  V30 1744 H 169.582 -4.392 -0.00563416 0
M  V30 1745 H 170.188 -3.93893 1.60402 0
M  V30 1746 N 168.503 -0.877838 -1.30888 0
M  V30 1747 C 169.728 -0.506629 -2.01117 0
M  V30 1748 C 170.153 0.895564 -1.65412 0
M  V30 1749 O 169.511 1.5923 -0.866922 0
M  V30 1750 C 169.559 -0.680223 -3.54126 0
M  V30 1751 O 168.663 0.277033 -4.11468 0
M  V30 1752 H 168.004 -0.200518 -0.633 0
M  V30 1753 H 170.534 -1.18342 -1.66902 0
M  V30 1754 H 170.544 -0.5765 -4.03907 0
M  V30 1755 H 169.219 -1.70261 -3.79452 0
M  V30 1756 H 167.796 0.127606 -3.72682 0
M  V30 1757 N 169.982 1.44106 -0.638065 0
M  V30 1758 C 170.914 2.28976 0.101205 0
M  V30 1759 C 171.927 1.4167 0.802088 0
M  V30 1760 O 173.116 1.65755 0.662375 0
M  V30 1761 C 170.216 3.18217 1.16581 0
M  V30 1762 C 169.389 4.33978 0.546066 0
M  V30 1763 C 168.448 5.04202 1.50554 0
M  V30 1764 O 167.474 5.59986 1.01999 0
M  V30 1765 N 168.676 5.06296 2.8398 0
M  V30 1766 H 171.441 2.93064 -0.627186 0
M  V30 1767 H 169.002 1.54629 -0.479731 0
M  V30 1768 H 170.994 3.62061 1.80815 0
M  V30 1769 H 169.564 2.55833 1.79634 0
M  V30 1770 H 168.784 3.93239 -0.275046 0
M  V30 1771 H 170.072 5.08675 0.112793 0
M  V30 1772 H 169.47 4.62319 3.26002 0
M  V30 1773 H 168.027 5.53907 3.43556 0
M  V30 1774 N 171.46 0.379036 1.52974 0
M  V30 1775 C 172.392 -0.495963 2.2377 0
M  V30 1776 C 173.405 -1.03517 1.25651 0
M  V30 1777 O 174.594 -0.939249 1.51791 0
M  V30 1778 C 171.694 -1.69894 2.93239 0
M  V30 1779 C 170.867 -1.2889 4.17979 0
M  V30 1780 C 169.926 -2.35543 4.70538 0
M  V30 1781 O 168.952 -1.97375 5.33883 0
M  V30 1782 N 170.154 -3.67318 4.49508 0
M  V30 1783 H 172.919 0.110523 2.99496 0
M  V30 1784 H 170.48 0.204878 1.60598 0
M  V30 1785 H 172.472 -2.40747 3.25304 0
M  V30 1786 H 171.042 -2.212 2.20883 0
M  V30 1787 H 170.262 -0.409676 3.92065 0
M  V30 1788 H 171.55 -0.991443 4.99047 0
M  V30 1789 H 170.948 -4.01095 3.98923 0
M  V30 1790 H 169.505 -4.34235 4.8609 0
M  V30 1791 N 172.938 -1.57226 0.108567 0
M  V30 1792 C 174.187 -1.94008 -0.551703 0
M  V30 1793 C 174.5 -0.993442 -1.68494 0
M  V30 1794 O 175.706 -1.25551 -2.40726 0
M  V30 1795 C 174.162 -3.44763 -1.03279 0
M  V30 1796 C 173.77 -4.47943 0.0714193 0
M  V30 1797 C 175.514 -3.90483 -1.66503 0
M  V30 1798 C 173.421 -5.89865 -0.425779 0
M  V30 1799 H 172.351 -0.724206 -0.209863 0
M  V30 1800 H 175.002 -1.82547 0.186741 0
M  V30 1801 H 173.384 -3.51422 -1.82533 0
M  V30 1802 H 174.558 -4.52942 0.847365 0
M  V30 1803 H 172.873 -4.11913 0.609669 0
M  V30 1804 H 175.47 -4.93925 -2.04798 0
M  V30 1805 H 175.813 -3.29877 -2.53942 0
M  V30 1806 H 176.346 -3.86581 -0.938074 0
M  V30 1807 H 173.085 -6.54202 0.412316 0
M  V30 1808 H 172.605 -5.88309 -1.16843 0
M  V30 1809 H 174.284 -6.40844 -0.890397 0
M  V30 1810 N 174.416 0.165178 -1.56732 0
M  V30 1811 C 175.665 0.879143 -1.81532 0
M  V30 1812 C 175.978 1.83144 -0.686842 0
M  V30 1813 O 177.184 2.58823 -0.819944 0
M  V30 1814 C 175.64 1.61388 -3.21686 0
M  V30 1815 C 175.248 0.704904 -4.4242 0
M  V30 1816 C 176.992 2.3157 -3.55774 0
M  V30 1817 C 174.899 1.44022 -5.73595 0
M  V30 1818 H 173.829 0.332033 -0.676957 0
M  V30 1819 H 176.48 0.132008 -1.83025 0
M  V30 1820 H 174.862 2.40599 -3.14529 0
M  V30 1821 H 176.036 -0.0506815 -4.60772 0
M  V30 1822 H 174.351 0.112419 -4.16248 0
M  V30 1823 H 176.948 2.8719 -4.51028 0
M  V30 1824 H 177.291 3.07201 -2.8095 0
M  V30 1825 H 177.824 1.59297 -3.64513 0
M  V30 1826 H 174.563 0.72612 -6.51466 0
M  V30 1827 H 174.083 2.16898 -5.5921 0
M  V30 1828 H 175.762 1.98606 -6.15764 0
M  V30 1829 N 175.894 1.51508 0.433938 0
M  V30 1830 C 176.824 1.76016 1.53429 0
M  V30 1831 C 177.805 0.610112 1.58782 0
M  V30 1832 O 178.99 0.853177 1.74455 0
M  V30 1833 C 176.12 1.88831 2.9148 0
M  V30 1834 C 175.074 3.04288 3.00987 0
M  V30 1835 C 174.4 3.0229 4.4105 0
M  V30 1836 C 175.7 4.44193 2.74754 0
M  V30 1837 H 177.394 2.68152 1.33171 0
M  V30 1838 H 174.94 1.29035 0.639214 0
M  V30 1839 H 176.893 2.04559 3.6842 0
M  V30 1840 H 175.617 0.933455 3.12976 0
M  V30 1841 H 174.276 2.8827 2.26486 0
M  V30 1842 H 173.924 2.04576 4.59519 0
M  V30 1843 H 173.624 3.79822 4.4834 0
M  V30 1844 H 175.148 3.20116 5.1996 0
M  V30 1845 H 176.562 4.60544 3.41426 0
M  V30 1846 H 174.959 5.23457 2.9345 0
M  V30 1847 H 176.029 4.53996 1.70339 0
M  V30 1848 N 177.372 -0.689602 1.41712 0
M  V30 1849 C 178.32 -1.82475 1.44242 0
M  V30 1850 C 179.314 -1.66354 0.319774 0
M  V30 1851 O 180.52 -1.73143 0.492089 0
M  V30 1852 H 176.895 -0.601416 0.451445 0
M  V30 1853 H 178.866 -1.77458 2.39899 0
M  V30 1854 C 177.615 -3.20535 1.3473 0
M  V30 1855 H 176.938 -3.33559 2.20405 0
M  V30 1856 H 178.378 -4.00023 1.40562 0
M  V30 1857 C 176.837 -3.36846 0.0603281 0
M  V30 1858 O 177.367 -3.91656 -0.892663 0
M  V30 1859 N 175.573 -2.90595 -0.0177039 0
M  V30 1860 H 175.12 -2.46178 0.758572 0
M  V30 1861 H 175.078 -3.01886 -0.878201 0
M  V30 1862 N 178.85 -1.27639 -0.924453 0
M  V30 1863 C 180.098 -1.13941 -1.66918 0
M  V30 1864 C 180.419 0.314589 -1.92446 0
M  V30 1865 O 179.689 1.21964 -1.53303 0
M  V30 1866 H 178.269 -0.418678 -0.618642 0
M  V30 1867 H 180.931 -1.60213 -1.10985 0
M  V30 1868 H 180.027 -1.67094 -2.63602 0
M  V30 1869 N 180.328 1.1314 -1.09713 0
M  V30 1870 C 181.26 2.18343 -0.697056 0
M  V30 1871 C 182.273 1.60669 0.262551 0
M  V30 1872 O 183.462 1.78435 0.0481527 0
M  V30 1873 C 180.562 3.38899 -0.00684728 0
M  V30 1874 C 179.735 4.26078 -0.988741 0
M  V30 1875 C 178.794 5.25155 -0.331394 0
M  V30 1876 O 177.82 5.60701 -0.979926 0
M  V30 1877 N 179.022 5.73271 0.913261 0
M  V30 1878 H 181.787 2.5328 -1.60216 0
M  V30 1879 H 179.348 1.28491 -0.984971 0
M  V30 1880 H 181.34 4.02255 0.444191 0
M  V30 1881 H 179.91 3.02175 0.800551 0
M  V30 1882 H 179.13 3.59453 -1.61826 0
M  V30 1883 H 180.418 4.81178 -1.65364 0
M  V30 1884 H 179.816 5.46544 1.45966 0
M  V30 1885 H 178.373 6.3855 1.30757 0
M  V30 1886 N 181.806 0.884767 1.30421 0
M  V30 1887 C 182.769 0.356277 2.26414 0
M  V30 1888 C 183.769 -0.501124 1.52792 0
M  V30 1889 O 184.959 -0.30831 1.7145 0
M  V30 1890 C 182.091 -0.492316 3.37326 0
M  V30 1891 H 183.284 1.20389 2.74675 0
M  V30 1892 H 180.837 0.661607 1.41607 0
M  V30 1893 H 181.572 -1.36052 2.94381 0
M  V30 1894 H 181.357 0.121832 3.91911 0
M  V30 1895 H 182.847 -0.853871 4.08777 0
M  V30 1896 N 183.284 -1.43765 0.645699 0
M  V30 1897 C 184.53 -2.02197 0.156271 0
M  V30 1898 C 184.863 -1.50776 -1.22393 0
M  V30 1899 O 184.138 -0.697771 -1.81553 0
M  V30 1900 C 184.421 -3.59749 0.158872 0
M  V30 1901 C 184.274 -4.21419 1.57245 0
M  V30 1902 C 185.593 -4.37149 -0.50879 0
M  V30 1903 H 182.712 -0.734694 0.0582602 0
M  V30 1904 H 185.354 -1.71157 0.824951 0
M  V30 1905 H 183.504 -3.86325 -0.410525 0
M  V30 1906 H 185.176 -4.059 2.19186 0
M  V30 1907 H 183.419 -3.78356 2.122 0
M  V30 1908 H 184.09 -5.30482 1.52619 0
M  V30 1909 H 186.566 -4.16093 -0.024412 0
M  V30 1910 H 185.442 -5.4683 -0.476213 0
M  V30 1911 H 185.703 -4.12839 -1.58165 0
M  V30 1912 N 184.763 -0.387143 -1.52771 0
M  V30 1913 C 186.179 -0.037007 -1.59557 0
M  V30 1914 C 186.379 1.44801 -1.40124 0
M  V30 1915 O 185.435 2.21227 -1.21716 0
M  V30 1916 C 186.748 -0.512256 -2.96305 0
M  V30 1917 C 188.296 -0.468328 -3.09476 0
M  V30 1918 C 188.771 -0.919731 -4.4867 0
M  V30 1919 N 190.262 -0.875656 -4.54848 0
M  V30 1920 C 190.997 -1.19637 -5.6078 0
M  V30 1921 N 190.493 -1.58745 -6.74368 0
M  V30 1922 N 192.286 -1.11776 -5.50874 0
M  V30 1923 H 184.437 -1.35395 -1.63652 0
M  V30 1924 H 186.7 -0.554818 -0.768688 0
M  V30 1925 H 186.406 -1.54935 -3.15734 0
M  V30 1926 H 186.28 0.089805 -3.77093 0
M  V30 1927 H 188.667 0.559671 -2.89744 0
M  V30 1928 H 188.748 -1.10616 -2.30646 0
M  V30 1929 H 188.392 -1.94595 -4.69143 0
M  V30 1930 H 188.322 -0.258927 -5.25963 0
M  V30 1931 H 190.813 -0.587843 -3.733 0
M  V30 1932 H 191.126 -1.81586 -7.51163 0
M  V30 1933 H 189.471 -1.6263 -6.75705 0
M  V30 1934 H 192.662 -0.811264 -4.61016 0
M  V30 1935 H 192.835 -1.37103 -6.3333 0
M  V30 1936 N 186.241 1.57166 -0.116904 0
M  V30 1937 C 187.171 2.18222 0.830759 0
M  V30 1938 C 188.152 1.12167 1.27877 0
M  V30 1939 O 189.337 1.40394 1.34176 0
M  V30 1940 C 186.467 2.77996 2.08172 0
M  V30 1941 C 185.421 3.89614 1.77157 0
M  V30 1942 C 184.747 4.36187 3.09265 0
M  V30 1943 C 186.047 5.1181 1.04151 0
M  V30 1944 H 187.741 2.97664 0.321992 0
M  V30 1945 H 185.287 1.4318 0.153434 0
M  V30 1946 H 187.24 3.19366 2.74924 0
M  V30 1947 H 185.964 1.9584 2.6137 0
M  V30 1948 H 184.623 3.48816 1.12796 0
M  V30 1949 H 184.271 3.50893 3.60393 0
M  V30 1950 H 183.971 5.11455 2.89288 0
M  V30 1951 H 185.495 4.80207 3.77139 0
M  V30 1952 H 186.909 5.50214 1.61052 0
M  V30 1953 H 185.306 5.92648 0.942762 0
M  V30 1954 H 186.376 4.84892 0.0279022 0
M  V30 1955 N 187.719 -0.156864 1.56817 0
M  V30 1956 C 189.13 -0.717916 1.72345 0
M  V30 1957 C 189.481 -1.82124 0.729747 0
M  V30 1958 O 188.606 -2.16141 -0.105781 0
M  V30 1959 C 189.201 -1.30904 3.12489 0
M  V30 1960 C 187.76 -1.81676 3.29653 0
M  V30 1961 C 186.907 -0.701349 2.68284 0
M  V30 1962 H 189.858 0.0686989 1.58551 0
M  V30 1963 H 189.879 -2.17882 3.11942 0
M  V30 1964 H 189.391 -0.505796 3.8479 0
M  V30 1965 H 187.492 -2.64598 2.62333 0
M  V30 1966 H 187.605 -1.95226 4.3752 0
M  V30 1967 H 185.969 -1.12548 2.28484 0
M  V30 1968 H 186.752 0.0902846 3.43181 0
M  V30 1969 N 189.197 -1.51736 -0.425897 0
M  V30 1970 C 190.145 -1.74464 -1.53834 0
M  V30 1971 C 191.139 -0.611241 -1.57988 0
M  V30 1972 O 192.345 -0.792899 -1.61596 0
M  V30 1973 H 188.72 -0.551437 -0.511293 0
M  V30 1974 H 190.691 -2.67694 -1.31843 0
M  V30 1975 C 189.44 -1.8972 -2.91379 0
M  V30 1976 H 188.763 -2.76344 -2.88919 0
M  V30 1977 H 190.203 -2.09629 -3.68553 0
M  V30 1978 C 188.662 -0.65992 -3.30374 0
M  V30 1979 O 189.192 0.180083 -4.01296 0
M  V30 1980 N 187.398 -0.500677 -2.86254 0
M  V30 1981 H 186.945 -1.18532 -2.28709 0
M  V30 1982 H 186.903 0.325903 -3.12706 0
M  V30 1983 N 190.675 0.682077 -1.42076 0
M  V30 1984 C 191.638 1.77756 -1.44691 0
M  V30 1985 C 192.638 1.5726 -0.335535 0
M  V30 1986 O 193.828 1.63686 -0.596037 0
M  V30 1987 C 190.96 3.16301 -1.27146 0
M  V30 1988 H 192.153 1.76826 -2.42224 0
M  V30 1989 H 189.706 0.891012 -1.28416 0
M  V30 1990 H 190.441 3.22862 -0.305075 0
M  V30 1991 H 190.226 3.32581 -2.07683 0
M  V30 1992 H 191.716 3.96241 -1.31843 0
M  V30 1993 N 192.153 1.28127 0.917671 0
M  V30 1994 C 193.1 1.11717 2.0196 0
M  V30 1995 C 194.07 0.0153929 1.66093 0
M  V30 1996 O 195.255 0.179596 1.89953 0
M  V30 1997 C 192.395 0.780927 3.36148 0
M  V30 1998 C 191.508 1.96135 3.84909 0
M  V30 1999 C 190.643 1.56609 5.0759 0
M  V30 2000 C 189.682 2.71339 5.48673 0
M  V30 2001 N 188.819 2.32332 6.62545 0
M  V30 2002 H 193.659 2.06003 2.15329 0
M  V30 2003 H 191.196 1.02535 1.05475 0
M  V30 2004 H 193.154 0.56675 4.13333 0
M  V30 2005 H 191.784 -0.124998 3.22558 0
M  V30 2006 H 190.836 2.28777 3.03916 0
M  V30 2007 H 192.148 2.82165 4.1132 0
M  V30 2008 H 191.302 1.31374 5.92305 0
M  V30 2009 H 190.041 0.677014 4.82978 0
M  V30 2010 H 189.046 2.97276 4.62501 0
M  V30 2011 H 190.271 3.60882 5.75274 0
M  V30 2012 H 188.217 1.45889 6.39572 0
M  V30 2013 H 188.134 3.11899 6.88662 0
M  V30 2014 H 189.402 2.10371 7.50576 0
M  V30 2015 N 193.631 -1.12557 1.10312 0
M  V30 2016 C 194.594 -2.16434 0.75424 0
M  V30 2017 C 195.594 -1.59278 -0.220685 0
M  V30 2018 O 196.784 -1.742 0.00230591 0
M  V30 2019 C 193.916 -3.40699 0.116987 0
M  V30 2020 H 195.109 -2.48811 1.67431 0
M  V30 2021 H 192.662 -1.27542 0.903475 0
M  V30 2022 H 193.397 -3.13921 -0.813877 0
M  V30 2023 H 193.182 -3.83459 0.818613 0
M  V30 2024 H 194.672 -4.17451 -0.111387 0
M  V30 2025 N 195.109 -0.891671 -1.2995 0
M  V30 2026 C 196.386 -0.433307 -1.9074 0
M  V30 2027 C 196.766 1.08646 -1.80995 0
M  V30 2028 O 196.114 1.92476 -1.23147 0
M  V30 2029 C 196.324 -0.938895 -3.36134 0
M  V30 2030 C 197.672 -0.977829 -4.13187 0
M  V30 2031 O 198.696 -0.886015 -3.45005 0
M  V30 2032 O 197.555 -1.11453 -5.35015 0
M  V30 2033 H 194.649 -0.133699 -0.816121 0
M  V30 2034 H 197.195 -0.981011 -1.38471 0
M  V30 2035 H 195.967 -1.98281 -3.37343 0
M  V30 2036 H 195.59 -0.37074 -3.95868 0
M  V30 2037 N 196.587 1.43421 -0.653314 0
M  V30 2038 C 197.864 1.95361 -0.0966581 0
M  V30 2039 C 198.244 1.59461 1.38331 0
M  V30 2040 O 197.592 0.879777 2.10884 0
M  V30 2041 C 197.802 3.47311 -0.342988 0
M  V30 2042 C 199.15 4.23875 -0.24798 0
M  V30 2043 O 200.174 3.55133 -0.275553 0
M  V30 2044 O 199.033 5.4623 -0.171771 0
M  V30 2045 H 196.127 0.826945 0.00956291 0
M  V30 2046 H 198.673 1.5336 -0.726558 0
M  V30 2047 H 197.445 3.66569 -1.36906 0
M  V30 2048 H 197.068 3.9631 0.319975 0
M  V30 2049 N 198.065 0.39524 1.52563 0
M  V30 2050 C 199.028 -0.425001 2.25225 0
M  V30 2051 C 200.028 -0.985266 1.27079 0
M  V30 2052 O 201.218 -0.866332 1.5113 0
M  V30 2053 C 198.35 -1.59686 3.01186 0
M  V30 2054 H 199.543 0.211233 2.99155 0
M  V30 2055 H 197.096 0.147472 1.55603 0
M  V30 2056 H 197.831 -2.27035 2.31572 0
M  V30 2057 H 197.616 -1.20176 3.73229 0
M  V30 2058 H 199.106 -2.17743 3.5634 0
M  V30 2059 N 199.544 -1.57102 0.125237 0
M  V30 2060 C 200.79 -1.96488 -0.525753 0
M  V30 2061 C 201.145 -1.00786 -1.6389 0
M  V30 2062 O 200.438 -0.038979 -1.9156 0
M  V30 2063 C 200.632 -3.40096 -1.09862 0
M  V30 2064 C 200.461 -4.4968 -0.0425004 0
M  V30 2065 C 199.231 -5.03781 0.391463 0
M  V30 2066 C 201.429 -5.08936 0.740829 0
M  V30 2067 N 199.411 -5.96948 1.4327 0
M  V30 2068 C 200.782 -5.98105 1.6331 0
M  V30 2069 C 202.837 -4.91576 0.791029 0
M  V30 2070 C 201.54 -6.71774 2.57122 0
M  V30 2071 C 203.566 -5.6593 1.71688 0
M  V30 2072 C 202.928 -6.5479 2.59672 0
M  V30 2073 H 199.027 -0.765072 -0.161831 0
M  V30 2074 H 201.611 -1.93511 0.214801 0
M  V30 2075 H 199.782 -3.43707 -1.80887 0
M  V30 2076 H 201.514 -3.66591 -1.71444 0
M  V30 2077 H 198.269 -4.736 -0.00213584 0
M  V30 2078 H 198.693 -6.48236 1.95243 0
M  V30 2079 H 203.335 -4.22615 0.124915 0
M  V30 2080 H 201.053 -7.39977 3.24744 0
M  V30 2081 H 204.639 -5.54501 1.76125 0
M  V30 2082 H 203.519 -7.11316 3.30149 0
M  V30 2083 N 201.022 0.148545 -1.56898 0
M  V30 2084 C 201.952 1.18524 -2.01182 0
M  V30 2085 C 202.933 1.4489 -0.891123 0
M  V30 2086 O 204.118 1.55836 -1.15882 0
M  V30 2087 C 201.248 2.51879 -2.39112 0
M  V30 2088 C 200.202 2.40038 -3.54353 0
M  V30 2089 C 199.528 3.78089 -3.78091 0
M  V30 2090 C 200.828 1.88577 -4.87069 0
M  V30 2091 H 202.522 0.817029 -2.88036 0
M  V30 2092 H 200.068 0.391575 -1.38574 0
M  V30 2093 H 202.021 3.24627 -2.68692 0
M  V30 2094 H 200.745 2.90532 -1.49193 0
M  V30 2095 H 199.404 1.69742 -3.24936 0
M  V30 2096 H 199.052 4.14175 -2.85426 0
M  V30 2097 H 198.752 3.71028 -4.55645 0
M  V30 2098 H 200.276 4.52387 -4.10095 0
M  V30 2099 H 201.69 2.51117 -5.15377 0
M  V30 2100 H 200.087 1.9241 -5.68417 0
M  V30 2101 H 201.157 0.84136 -4.77545 0
M  V30 2102 N 202.5 1.5196 0.417844 0
M  V30 2103 C 203.447 1.74678 1.50852 0
M  V30 2104 C 204.417 0.588947 1.55308 0
M  V30 2105 O 205.602 0.825544 1.72016 0
M  V30 2106 C 202.742 1.89544 2.88387 0
M  V30 2107 C 201.855 3.17166 2.93309 0
M  V30 2108 C 200.99 3.22513 4.22088 0
M  V30 2109 C 200.029 4.44372 4.20951 0
M  V30 2110 N 199.166 4.47161 5.41287 0
M  V30 2111 H 204.006 2.67768 1.30783 0
M  V30 2112 H 201.543 1.32689 0.63498 0
M  V30 2113 H 203.501 1.96146 3.68216 0
M  V30 2114 H 202.131 0.998424 3.06971 0
M  V30 2115 H 201.183 3.19778 2.06024 0
M  V30 2116 H 202.495 4.07021 2.88332 0
M  V30 2117 H 201.649 3.28139 5.10303 0
M  V30 2118 H 200.388 2.30581 4.29748 0
M  V30 2119 H 199.393 4.38902 3.31127 0
M  V30 2120 H 200.618 5.3759 4.14938 0
M  V30 2121 H 198.564 3.58108 5.49632 0
M  V30 2122 H 198.481 5.3085 5.3827 0
M  V30 2123 H 199.749 4.57005 6.3148 0
M  V30 2124 N 203.978 -0.674533 1.42435 0
M  V30 2125 C 205.394 -0.98769 1.25367 0
M  V30 2126 C 205.594 -2.00879 0.158044 0
M  V30 2127 O 204.65 -2.48075 -0.470633 0
M  V30 2128 C 205.963 -1.49224 2.6106 0
M  V30 2129 C 207.511 -1.61 2.68417 0
M  V30 2130 C 207.986 -2.14852 4.04478 0
M  V30 2131 N 209.477 -2.22185 4.06434 0
M  V30 2132 C 210.212 -2.64928 5.08528 0
M  V30 2133 N 209.708 -3.07121 6.21006 0
M  V30 2134 N 211.501 -2.64679 4.95885 0
M  V30 2135 H 203.652 0.00152503 2.124 0
M  V30 2136 H 205.915 -0.0618434 0.945981 0
M  V30 2137 H 205.621 -0.816453 3.42092 0
M  V30 2138 H 205.495 -2.47094 2.84999 0
M  V30 2139 H 207.882 -2.27686 1.87732 0
M  V30 2140 H 207.963 -0.616195 2.48267 0
M  V30 2141 H 207.607 -1.48775 4.85622 0
M  V30 2142 H 207.537 -3.15024 4.2198 0
M  V30 2143 H 210.028 -1.92435 3.25234 0
M  V30 2144 H 210.341 -3.38423 6.94759 0
M  V30 2145 H 208.686 -3.04978 6.24511 0
M  V30 2146 H 211.877 -2.31078 4.07088 0
M  V30 2147 H 212.05 -2.9767 5.75584 0
M  V30 2148 N 205.456 -1.28612 -0.910864 0
M  V30 2149 C 206.867 -1.14406 -1.47541 0
M  V30 2150 C 207.218 0.264901 -1.94403 0
M  V30 2151 O 206.343 1.15942 -1.82719 0
M  V30 2152 C 206.938 -2.07073 -2.68153 0
M  V30 2153 C 205.497 -1.96923 -3.20778 0
M  V30 2154 C 204.644 -1.98646 -1.93481 0
M  V30 2155 H 207.595 -1.41259 -0.723291 0
M  V30 2156 H 207.616 -1.63642 -3.43514 0
M  V30 2157 H 207.128 -3.09611 -2.34015 0
M  V30 2158 H 205.229 -0.97433 -3.59635 0
M  V30 2159 H 205.342 -2.84026 -3.85832 0
M  V30 2160 H 203.706 -1.43093 -2.10705 0
M  V30 2161 H 204.489 -3.02868 -1.61634 0
M  V30 2162 N 206.934 1.1197 -1.10907 0
M  V30 2163 C 208.164 1.8713 -0.875553 0
M  V30 2164 C 208.572 1.8016 0.577843 0
M  V30 2165 O 207.915 1.17699 1.41042 0
M  V30 2166 C 207.977 3.37005 -1.2517 0
M  V30 2167 C 207.641 3.67748 -2.71313 0
M  V30 2168 C 208.638 3.65698 -3.69542 0
M  V30 2169 C 206.323 3.96928 -3.07821 0
M  V30 2170 C 208.317 3.92395 -5.023 0
M  V30 2171 C 206.004 4.23284 -4.40765 0
M  V30 2172 C 207.002 4.21005 -5.37814 0
M  V30 2173 O 206.69 4.46704 -6.68364 0
M  V30 2174 H 206.422 0.598786 -0.313737 0
M  V30 2175 H 208.976 1.42568 -1.47863 0
M  V30 2176 H 207.206 3.82146 -0.591741 0
M  V30 2177 H 208.895 3.93519 -0.994877 0
M  V30 2178 H 209.661 3.43211 -3.42682 0
M  V30 2179 H 205.54 3.97841 -2.32902 0
M  V30 2180 H 209.084 3.90531 -5.78041 0
M  V30 2181 H 204.981 4.45246 -4.67361 0
M  V30 2182 H 205.749 4.64299 -6.74069 0
M  V30 2183 N 208.412 0.89855 1.29475 0
M  V30 2184 C 209.375 0.380272 2.26023 0
M  V30 2185 C 210.375 -0.484891 1.53315 0
M  V30 2186 O 211.565 -0.290108 1.71767 0
M  V30 2187 C 208.697 -0.45651 3.3783 0
M  V30 2188 H 209.89 1.23295 2.73383 0
M  V30 2189 H 207.443 0.676589 1.40897 0
M  V30 2190 H 208.178 -1.32922 2.95808 0
M  V30 2191 H 207.963 0.163393 3.91759 0
M  V30 2192 H 209.453 -0.810466 4.0966 0
M  V30 2193 N 209.89 -1.43072 0.660911 0
M  V30 2194 C 211.118 -2.06067 0.185422 0
M  V30 2195 C 211.533 -1.49582 -1.15198 0
M  V30 2196 O 210.89 -0.630134 -1.71276 0
M  V30 2197 C 210.941 -3.61371 0.0966523 0
M  V30 2198 O 210.662 -4.15758 1.38119 0
M  V30 2199 C 212.163 -4.41455 -0.403996 0
M  V30 2200 H 209.383 -0.664459 0.0934604 0
M  V30 2201 H 211.927 -1.83447 0.90373 0
M  V30 2202 H 210.082 -3.8315 -0.572259 0
M  V30 2203 H 210.496 -5.09499 1.24542 0
M  V30 2204 H 211.97 -5.50437 -0.415045 0
M  V30 2205 H 212.447 -4.15036 -1.43674 0
M  V30 2206 H 213.053 -4.24663 0.232691 0
M  V30 2207 N 211.368 -0.403325 -1.52352 0
M  V30 2208 C 212.318 0.442244 -2.2367 0
M  V30 2209 C 213.302 1.01823 -1.24583 0
M  V30 2210 O 214.494 0.942005 -1.49851 0
M  V30 2211 C 211.623 1.5615 -3.05732 0
M  V30 2212 C 210.709 0.996575 -4.12225 0
M  V30 2213 N 211.1 0.157804 -5.05554 0
M  V30 2214 C 209.398 1.26767 -4.27605 0
M  V30 2215 C 210.099 -0.155853 -5.81491 0
M  V30 2216 N 209.075 0.451775 -5.41719 0
M  V30 2217 H 212.877 -0.204964 -2.93184 0
M  V30 2218 H 210.391 -0.213418 -1.60992 0
M  V30 2219 H 212.388 2.17981 -3.55373 0
M  V30 2220 H 211.048 2.21139 -2.37755 0
M  V30 2221 H 212.059 -0.206049 -5.1749 0
M  V30 2222 H 208.736 1.91757 -3.70858 0
M  V30 2223 H 210.126 -0.836329 -6.66675 0
M  V30 2224 N 212.846 1.57033 -0.133567 0
M  V30 2225 C 214.257 1.82593 0.389464 0
M  V30 2226 C 214.608 1.05156 1.6564 0
M  V30 2227 O 213.733 0.292644 2.14412 0
M  V30 2228 C 214.328 3.31204 0.713377 0
M  V30 2229 C 212.887 3.57393 1.18098 0
M  V30 2230 C 212.034 2.76598 0.197126 0
M  V30 2231 H 214.985 1.54598 -0.358481 0
M  V30 2232 H 215.006 3.46627 1.56939 0
M  V30 2233 H 214.518 3.87537 -0.2089 0
M  V30 2234 H 212.619 3.06433 2.11966 0
M  V30 2235 H 212.732 4.65915 1.11624 0
M  V30 2236 H 211.096 2.45257 0.687088 0
M  V30 2237 H 211.879 3.35697 -0.718504 0
M  V30 2238 N 214.325 -0.140222 1.56975 0
M  V30 2239 C 215.258 -1.20266 1.93936 0
M  V30 2240 C 216.236 -1.41212 0.806099 0
M  V30 2241 O 217.42 -1.55713 1.06234 0
M  V30 2242 C 214.547 -2.56037 2.21726 0
M  V30 2243 C 213.593 -2.51646 3.44349 0
M  V30 2244 S 214.426 -1.97678 4.97678 0
M  V30 2245 C 215.582 -3.35165 5.28597 0
M  V30 2246 H 215.815 -0.887358 2.83749 0
M  V30 2247 H 213.348 -0.346119 1.50471 0
M  V30 2248 H 215.306 -3.34167 2.38416 0
M  V30 2249 H 213.967 -2.84755 1.32566 0
M  V30 2250 H 213.16 -3.51608 3.61092 0
M  V30 2251 H 212.762 -1.81628 3.26936 0
M  V30 2252 H 215.054 -4.31302 5.2248 0
M  V30 2253 H 215.997 -3.23269 6.30002 0
M  V30 2254 H 216.405 -3.32614 4.56101 0
M  V30 2255 N 215.803 -1.52179 -0.40978 0
M  V30 2256 C 217.028 -1.70347 -1.18308 0
M  V30 2257 C 217.453 -0.411887 -1.83535 0
M  V30 2258 O 216.811 0.630587 -1.6998 0
M  V30 2259 C 216.859 -2.83977 -2.22238 0
M  V30 2260 O 215.963 -2.495 -3.28365 0
M  V30 2261 H 215.304 -0.567103 -0.345384 0
M  V30 2262 H 217.834 -1.98879 -0.480445 0
M  V30 2263 H 217.844 -3.0887 -2.66577 0
M  V30 2264 H 216.519 -3.77685 -1.74146 0
M  V30 2265 H 215.096 -2.35277 -2.89308 0
M  V30 2266 N 217.281 0.66697 -1.42791 0
M  V30 2267 C 218.506 1.46004 -1.47301 0
M  V30 2268 C 218.931 1.87894 -0.0880317 0
M  V30 2269 O 218.289 1.56502 0.915253 0
M  V30 2270 C 218.337 2.68031 -2.41229 0
M  V30 2271 O 217.441 3.6659 -1.88906 0
M  V30 2272 H 216.782 0.43832 -0.49877 0
M  V30 2273 H 219.312 0.817391 -1.87563 0
M  V30 2274 H 219.322 3.1601 -2.58073 0
M  V30 2275 H 217.997 2.36883 -3.41847 0
M  V30 2276 H 216.574 3.25661 -1.81656 0
M  V30 2277 N 218.759 1.29093 0.90403 0
M  V30 2278 C 220.005 1.16986 1.65656 0
M  V30 2279 C 220.338 -0.278925 1.92186 0
M  V30 2280 O 219.613 -1.2019 1.5292 0
M  V30 2281 C 219.896 1.97908 3.0084 0
M  V30 2282 C 219.749 3.50903 2.81403 0
M  V30 2283 C 221.068 1.80208 4.01513 0
M  V30 2284 H 218.187 0.426346 0.601164 0
M  V30 2285 H 220.829 1.58518 1.04747 0
M  V30 2286 H 218.979 1.62616 3.52829 0
M  V30 2287 H 220.651 3.96153 2.36348 0
M  V30 2288 H 218.894 3.76045 2.1627 0
M  V30 2289 H 219.565 4.02791 3.77443 0
M  V30 2290 H 222.041 2.11025 3.58619 0
M  V30 2291 H 220.917 2.39184 4.94047 0
M  V30 2292 H 221.178 0.756119 4.35586 0
M  V30 2293 N 220.237 -1.11381 1.11499 0
M  V30 2294 C 221.462 -1.87475 0.887019 0
M  V30 2295 C 221.887 -1.79639 -0.557796 0
M  V30 2296 O 221.245 -1.15924 -1.39396 0
M  V30 2297 C 221.293 -3.34213 1.35403 0
M  V30 2298 O 220.397 -4.0903 0.526146 0
M  V30 2299 H 219.738 -0.582099 0.319463 0
M  V30 2300 H 222.268 -1.40785 1.48461 0
M  V30 2301 H 222.278 -3.8506 1.34881 0
M  V30 2302 H 220.953 -3.39232 2.40612 0
M  V30 2303 H 219.53 -3.68082 0.597522 0
M  V30 2304 N 221.715 -0.905404 -1.28997 0
M  V30 2305 C 223.131 -0.60233 -1.47798 0
M  V30 2306 C 223.331 0.854645 -1.82478 0
M  V30 2307 O 222.387 1.63439 -1.92468 0
M  V30 2308 C 223.7 -1.53306 -2.58685 0
M  V30 2309 C 225.248 -1.53887 -2.72558 0
M  V30 2310 C 225.723 -2.45602 -3.86579 0
M  V30 2311 N 227.214 -2.43681 -3.93921 0
M  V30 2312 C 227.949 -3.11347 -4.81509 0
M  V30 2313 N 227.445 -3.88313 -5.73746 0
M  V30 2314 N 229.238 -3.00476 -4.75048 0
M  V30 2315 H 221.389 -1.84765 -1.04764 0
M  V30 2316 H 223.652 -0.792025 -0.520961 0
M  V30 2317 H 223.358 -2.57141 -2.39941 0
M  V30 2318 H 223.232 -1.25787 -3.55609 0
M  V30 2319 H 225.619 -0.507941 -2.90696 0
M  V30 2320 H 225.7 -1.85447 -1.76191 0
M  V30 2321 H 225.344 -3.48792 -3.69197 0
M  V30 2322 H 225.274 -2.11349 -4.82327 0
M  V30 2323 H 227.765 -1.87767 -3.27951 0
M  V30 2324 H 228.078 -4.36985 -6.37389 0
M  V30 2325 H 226.423 -3.92419 -5.73614 0
M  V30 2326 H 229.614 -2.39858 -4.01977 0
M  V30 2327 H 229.787 -3.53485 -5.43095 0
M  V30 2328 N 223.193 1.4272 -0.668489 0
M  V30 2329 C 224.125 2.2914 0.052613 0
M  V30 2330 C 225.138 1.43339 0.771857 0
M  V30 2331 O 226.327 1.67123 0.627067 0
M  V30 2332 C 223.427 3.20618 1.09804 0
M  V30 2333 C 222.6 4.35039 0.45389 0
M  V30 2334 C 221.659 5.07282 1.39825 0
M  V30 2335 O 220.685 5.62024 0.900978 0
M  V30 2336 N 221.887 5.12206 2.73176 0
M  V30 2337 H 224.652 2.91668 -0.689209 0
M  V30 2338 H 222.213 1.53577 -0.512422 0
M  V30 2339 H 224.205 3.65815 1.73094 0
M  V30 2340 H 222.775 2.59585 1.74167 0
M  V30 2341 H 221.995 3.92567 -0.358396 0
M  V30 2342 H 223.283 5.088 0.00486972 0
M  V30 2343 H 222.681 4.6913 3.16122 0
M  V30 2344 H 221.238 5.61069 3.31729 0
M  V30 2345 N 224.671 0.411399 1.52136 0
M  V30 2346 C 225.896 -0.165538 2.06738 0
M  V30 2347 C 226.321 -1.379 1.27926 0
M  V30 2348 O 225.679 -1.78628 0.310114 0
M  V30 2349 C 225.727 -0.492124 3.57226 0
M  V30 2350 O 224.831 -1.58276 3.80818 0
M  V30 2351 H 224.172 -0.0132132 0.663869 0
M  V30 2352 H 226.702 0.585253 1.96051 0
M  V30 2353 H 226.712 -0.750104 4.01045 0
M  V30 2354 H 225.387 0.394922 4.14021 0
M  V30 2355 H 223.964 -1.31677 3.48877 0
M  V30 2356 N 226.149 -1.5696 0.141893 0
M  V30 2357 C 227.059 -2.20066 -0.812905 0
M  V30 2358 C 228.075 -1.18344 -1.27557 0
M  V30 2359 O 229.251 -1.50902 -1.33381 0
M  V30 2360 C 226.316 -2.80583 -2.03652 0
M  V30 2361 C 225.377 -3.97414 -1.62359 0
M  V30 2362 C 224.61 -4.55036 -2.78887 0
M  V30 2363 O 224.833 -4.11538 -3.94959 0
M  V30 2364 O 223.767 -5.45376 -2.54653 0
M  V30 2365 H 227.593 -3.02157 -0.305746 0
M  V30 2366 H 225.178 -1.49159 -0.0848799 0
M  V30 2367 H 227.06 -3.19067 -2.75272 0
M  V30 2368 H 225.735 -2.01508 -2.5333 0
M  V30 2369 H 224.642 -3.63656 -0.877775 0
M  V30 2370 H 225.975 -4.77994 -1.17401 0
M  V30 2371 N 227.627 0.131896 -1.57047 0
M  V30 2372 C 228.537 1.1815 -2.02676 0
M  V30 2373 C 229.553 1.46113 -0.944824 0
M  V30 2374 O 230.729 1.57485 -1.25541 0
M  V30 2375 C 227.794 2.49139 -2.41103 0
M  V30 2376 C 226.855 2.28688 -3.63318 0
M  V30 2377 C 226.088 3.53431 -3.99903 0
M  V30 2378 O 226.311 4.60223 -3.36973 0
M  V30 2379 O 225.245 3.45198 -4.93074 0
M  V30 2380 H 229.071 0.824069 -2.92306 0
M  V30 2381 H 226.656 0.341745 -1.45439 0
M  V30 2382 H 228.538 3.26338 -2.66611 0
M  V30 2383 H 227.213 2.84382 -1.54624 0
M  V30 2384 H 226.12 1.4939 -3.42977 0
M  V30 2385 H 227.453 1.98355 -4.50462 0
M  V30 2386 N 229.106 1.52395 0.401703 0
M  V30 2387 C 230.036 1.79231 1.49661 0
M  V30 2388 C 231.017 0.643654 1.57452 0
M  V30 2389 O 232.202 0.889989 1.72606 0
M  V30 2390 C 229.332 1.94971 2.87409 0
M  V30 2391 C 228.286 3.10604 2.94465 0
M  V30 2392 C 227.612 3.11577 4.34538 0
M  V30 2393 C 228.912 4.49921 2.6527 0
M  V30 2394 H 230.606 2.70917 1.27454 0
M  V30 2395 H 228.152 1.30362 0.6117 0
M  V30 2396 H 230.105 2.12328 3.63999 0
M  V30 2397 H 228.829 0.999632 3.10926 0
M  V30 2398 H 227.488 2.93009 2.20321 0
M  V30 2399 H 227.136 2.14277 4.55076 0
M  V30 2400 H 226.836 3.89247 4.40183 0
M  V30 2401 H 228.36 3.31073 5.13053 0
M  V30 2402 H 229.774 4.67683 3.31581 0
M  V30 2403 H 228.171 5.29564 2.82281 0
M  V30 2404 H 229.241 4.57507 1.60671 0
M  V30 2405 N 230.584 -0.659388 1.43143 0
M  V30 2406 C 231.516 -1.7849 1.43784 0
M  V30 2407 C 232.529 -1.5932 0.334787 0
M  V30 2408 O 233.718 -1.68155 0.598842 0
M  V30 2409 C 230.818 -3.15828 1.22906 0
M  V30 2410 C 229.991 -3.61711 2.45934 0
M  V30 2411 C 229.05 -4.77831 2.20371 0
M  V30 2412 O 228.076 -4.87586 2.93681 0
M  V30 2413 N 229.278 -5.67611 1.21647 0
M  V30 2414 H 232.043 -1.7842 2.40803 0
M  V30 2415 H 229.604 -0.84302 1.3822 0
M  V30 2416 H 231.596 -3.91189 1.03697 0
M  V30 2417 H 230.166 -3.10707 0.343542 0
M  V30 2418 H 229.386 -2.76861 2.80609 0
M  V30 2419 H 230.674 -3.89112 3.27825 0
M  V30 2420 H 230.072 -5.62397 0.610449 0
M  V30 2421 H 228.629 -6.42719 1.08423 0
M  V30 2422 N 232.062 -1.29571 -0.897171 0
M  V30 2423 C 233.339 -1.08365 -1.62839 0
M  V30 2424 C 233.719 0.371331 -2.07808 0
M  V30 2425 O 233.067 1.3606 -1.83576 0
M  V30 2426 C 233.277 -2.0735 -2.80726 0
M  V30 2427 C 234.625 -2.38406 -3.51351 0
M  V30 2428 O 235.649 -2.05564 -2.90898 0
M  V30 2429 O 234.508 -2.9453 -4.60341 0
M  V30 2430 H 231.602 -0.415345 -0.715134 0
M  V30 2431 H 234.148 -1.40952 -0.945018 0
M  V30 2432 H 232.92 -3.05339 -2.44711 0
M  V30 2433 H 232.543 -1.75507 -3.56767 0
M  V30 2434 N 233.54 1.10788 -1.12088 0
M  V30 2435 C 234.786 1.82942 -0.875226 0
M  V30 2436 C 235.119 1.84779 0.597538 0
M  V30 2437 O 234.394 1.30578 1.44152 0
M  V30 2438 C 234.677 3.29789 -1.44606 0
M  V30 2439 C 234.53 3.36307 -2.98693 0
M  V30 2440 C 235.849 4.26064 -1.10261 0
M  V30 2441 H 232.968 0.664195 -0.319397 0
M  V30 2442 H 235.61 1.29867 -1.38689 0
M  V30 2443 H 233.76 3.75118 -1.01089 0
M  V30 2444 H 235.432 2.99487 -3.50864 0
M  V30 2445 H 233.675 2.76318 -3.34411 0
M  V30 2446 H 234.346 4.39694 -3.33726 0
M  V30 2447 H 236.822 3.88951 -1.4784 0
M  V30 2448 H 235.698 5.27183 -1.52869 0
M  V30 2449 H 235.959 4.42098 -0.0142953 0
M  V30 2450 N 235.018 0.912232 1.28515 0
M  V30 2451 C 235.95 0.35676 2.26406 0
M  V30 2452 C 236.963 -0.503933 1.54804 0
M  V30 2453 O 238.152 -0.319059 1.75625 0
M  V30 2454 C 235.252 -0.508825 3.35058 0
M  V30 2455 C 234.425 0.329007 4.36161 0
M  V30 2456 C 233.484 -0.471422 5.24084 0
M  V30 2457 O 232.51 0.115482 5.69083 0
M  V30 2458 N 233.712 -1.77479 5.52704 0
M  V30 2459 H 236.477 1.19818 2.74707 0
M  V30 2460 H 234.038 0.778022 1.4198 0
M  V30 2461 H 236.03 -1.051 3.90815 0
M  V30 2462 H 234.6 -1.25095 2.86478 0
M  V30 2463 H 233.82 1.05256 3.79888 0
M  V30 2464 H 235.108 0.90234 5.00735 0
M  V30 2465 H 234.506 -2.27417 5.17975 0
M  V30 2466 H 233.063 -2.26382 6.11224 0
M  V30 2467 N 236.496 -1.42363 0.676048 0
M  V30 2468 C 237.459 -2.29199 0.00766941 0
M  V30 2469 C 238.459 -1.43389 -0.727745 0
M  V30 2470 O 239.649 -1.64764 -0.56556 0
M  V30 2471 C 236.781 -3.2591 -0.999785 0
M  V30 2472 H 237.974 -2.89794 0.771988 0
M  V30 2473 H 235.527 -1.50024 0.438468 0
M  V30 2474 H 236.262 -2.70256 -1.79255 0
M  V30 2475 H 236.047 -3.89202 -0.475829 0
M  V30 2476 H 237.537 -3.91028 -1.46583 0
M  V30 2477 N 237.974 -0.419461 -1.51915 0
M  V30 2478 C 238.907 0.445751 -2.23804 0
M  V30 2479 C 239.885 1.03951 -1.25031 0
M  V30 2480 O 241.069 1.08541 -1.54114 0
M  V30 2481 C 238.196 1.61964 -2.97465 0
M  V30 2482 C 237.242 1.14828 -4.10751 0
M  V30 2483 S 238.075 0.104938 -5.35397 0
M  V30 2484 C 239.231 1.28391 -6.1259 0
M  V30 2485 H 239.464 -0.164627 -2.96844 0
M  V30 2486 H 236.997 -0.203833 -1.53049 0
M  V30 2487 H 238.955 2.29271 -3.40507 0
M  V30 2488 H 237.616 2.20139 -2.24048 0
M  V30 2489 H 236.809 2.02561 -4.61503 0
M  V30 2490 H 236.411 0.553712 -3.69878 0
M  V30 2491 H 238.703 2.20563 -6.40592 0
M  V30 2492 H 239.646 0.816724 -7.03374 0
M  V30 2493 H 240.054 1.51439 -5.43807 0
M  V30 2494 N 239.452 1.56882 -0.150215 0
M  V30 2495 C 240.868 1.58263 0.20617 0
M  V30 2496 C 241.068 1.16464 1.64434 0
M  V30 2497 O 240.124 0.866422 2.3717 0
M  V30 2498 C 241.437 3.00649 -0.0555025 0
M  V30 2499 C 242.985 3.12999 0.00795388 0
M  V30 2500 C 243.46 4.5744 -0.226429 0
M  V30 2501 N 244.951 4.62875 -0.173469 0
M  V30 2502 C 245.686 5.72454 -0.329288 0
M  V30 2503 N 245.182 6.90669 -0.543005 0
M  V30 2504 N 246.975 5.61467 -0.266666 0
M  V30 2505 H 239.126 1.82345 -1.08922 0
M  V30 2506 H 241.389 0.844149 -0.431413 0
M  V30 2507 H 241.095 3.3563 -1.05096 0
M  V30 2508 H 240.969 3.71337 0.66246 0
M  V30 2509 H 243.356 2.77857 0.993966 0
M  V30 2510 H 243.437 2.4479 -0.742388 0
M  V30 2511 H 243.081 4.93287 -1.20956 0
M  V30 2512 H 243.011 5.2378 0.544274 0
M  V30 2513 H 245.502 3.77898 -0.0130709 0
M  V30 2514 H 245.815 7.70045 -0.651922 0
M  V30 2515 H 244.16 6.92581 -0.579366 0
M  V30 2516 H 247.351 4.67992 -0.100441 0
M  V30 2517 H 247.524 6.46816 -0.391535 0
M  V30 2518 N 240.93 -0.123565 1.57115 0
M  V30 2519 C 241.878 -1.17082 2.00984 0
M  V30 2520 C 242.872 -1.43136 0.906009 0
M  V30 2521 O 244.078 -1.43152 1.09121 0
M  V30 2522 H 240.453 -0.394653 0.64012 0
M  V30 2523 H 242.424 -0.774292 2.88179 0
M  V30 2524 C 241.173 -2.49057 2.42623 0
M  V30 2525 H 240.496 -2.29846 3.27125 0
M  V30 2526 H 241.936 -3.20906 2.7712 0
M  V30 2527 C 240.395 -3.11305 1.28805 0
M  V30 2528 O 240.925 -3.97171 0.60153 0
M  V30 2529 N 239.131 -2.71111 1.04628 0
M  V30 2530 H 238.678 -2.01382 1.60634 0
M  V30 2531 H 238.636 -3.1309 0.286685 0
M  V30 2532 N 242.408 -1.52605 -0.393616 0
M  V30 2533 C 243.371 -1.76415 -1.46323 0
M  V30 2534 C 244.371 -0.634126 -1.47768 0
M  V30 2535 O 245.561 -0.902142 -1.4902 0
M  V30 2536 C 242.693 -1.8607 -2.85641 0
M  V30 2537 H 243.886 -2.71916 -1.26498 0
M  V30 2538 H 241.439 -1.43257 -0.625073 0
M  V30 2539 H 242.174 -0.925378 -3.10817 0
M  V30 2540 H 241.959 -2.68235 -2.85993 0
M  V30 2541 H 243.449 -2.06179 -3.63153 0
M  V30 2542 N 243.887 0.651787 -1.4349 0
M  V30 2543 C 244.85 1.74647 -1.48429 0
M  V30 2544 C 245.85 1.56513 -0.368817 0
M  V30 2545 O 247.04 1.62385 -0.630623 0
M  V30 2546 C 244.172 3.13533 -1.33827 0
M  V30 2547 H 245.365 1.71649 -2.4592 0
M  V30 2548 H 242.918 0.863573 -1.30277 0
M  V30 2549 H 243.653 3.22142 -0.37349 0
M  V30 2550 H 243.438 3.28101 -2.14691 0
M  V30 2551 H 244.928 3.93356 -1.40218 0
M  V30 2552 N 245.365 1.30045 0.890287 0
M  V30 2553 C 246.781 1.08261 1.17268 0
M  V30 2554 C 246.981 -0.160063 2.00863 0
M  V30 2555 O 246.037 -0.855181 2.37577 0
M  V30 2556 C 247.35 2.34323 1.8845 0
M  V30 2557 C 248.898 2.39735 2.01237 0
M  V30 2558 C 249.373 3.65625 2.7583 0
M  V30 2559 N 250.864 3.66402 2.83379 0
M  V30 2560 C 251.599 4.60498 3.41657 0
M  V30 2561 N 251.095 5.64933 4.01026 0
M  V30 2562 N 252.888 4.48051 3.39421 0
M  V30 2563 H 245.039 2.09777 0.332762 0
M  V30 2564 H 247.302 0.92446 0.209948 0
M  V30 2565 H 247.008 3.2498 1.34465 0
M  V30 2566 H 246.882 2.4256 2.88867 0
M  V30 2567 H 249.269 1.4956 2.54393 0
M  V30 2568 H 249.35 2.35476 0.999232 0
M  V30 2569 H 248.994 4.56156 2.23347 0
M  V30 2570 H 248.924 3.67144 3.77509 0
M  V30 2571 H 251.415 2.90896 2.41222 0
M  V30 2572 H 251.728 6.32841 4.43545 0
M  V30 2573 H 250.073 5.68732 3.99461 0
M  V30 2574 H 253.264 3.65649 2.92264 0
M  V30 2575 H 253.437 5.21565 3.84544 0
M  V30 2576 N 246.843 -1.10192 1.12674 0
M  V30 2577 C 247.775 -2.16418 0.754701 0
M  V30 2578 C 248.788 -1.61309 -0.21986 0
M  V30 2579 O 249.977 -1.785 -0.000826841 0
M  V30 2580 C 247.077 -3.38762 0.096698 0
M  V30 2581 C 246.25 -4.23307 1.10136 0
M  V30 2582 C 245.309 -5.24092 0.470513 0
M  V30 2583 O 244.335 -5.57906 1.12824 0
M  V30 2584 N 245.537 -5.75491 -0.760948 0
M  V30 2585 H 248.302 -2.48943 1.66875 0
M  V30 2586 H 245.863 -1.25834 1.01869 0
M  V30 2587 H 247.855 -4.03291 -0.337384 0
M  V30 2588 H 246.425 -3.04192 -0.720153 0
M  V30 2589 H 245.645 -3.55036 1.71299 0
M  V30 2590 H 246.933 -4.76624 1.78064 0
M  V30 2591 H 246.331 -5.50222 -1.31424 0
M  V30 2592 H 244.888 -6.41792 -1.13781 0
M  V30 2593 N 248.321 -0.919034 -1.28029 0
M  V30 2594 C 249.251 -0.428581 -2.29533 0
M  V30 2595 C 250.232 0.50659 -1.62381 0
M  V30 2596 O 251.417 0.413195 -1.89753 0
M  V30 2597 C 248.547 0.327388 -3.45753 0
M  V30 2598 C 247.501 -0.519137 -4.2484 0
M  V30 2599 C 246.827 0.365486 -5.33449 0
M  V30 2600 C 248.127 -1.77914 -4.91064 0
M  V30 2601 H 249.821 -1.27687 -2.70807 0
M  V30 2602 H 247.367 -0.615428 -1.30186 0
M  V30 2603 H 249.32 0.681378 -4.15855 0
M  V30 2604 H 248.044 1.20963 -3.03374 0
M  V30 2605 H 246.703 -0.855717 -3.56473 0
M  V30 2606 H 246.351 1.24642 -4.87312 0
M  V30 2607 H 246.051 -0.197356 -5.87268 0
M  V30 2608 H 247.575 0.715241 -6.06396 0
M  V30 2609 H 248.989 -1.49374 -5.53498 0
M  V30 2610 H 247.386 -2.2848 -5.54903 0
M  V30 2611 H 248.456 -2.50382 -4.15255 0
M  V30 2612 N 249.799 1.42003 -0.683588 0
M  V30 2613 C 250.762 2.29191 -0.0198243 0
M  V30 2614 C 251.762 1.43773 0.72013 0
M  V30 2615 O 252.952 1.65061 0.556815 0
M  V30 2616 C 250.084 3.26435 0.982487 0
M  V30 2617 H 251.277 2.8938 -0.787345 0
M  V30 2618 H 248.83 1.49789 -0.446418 0
M  V30 2619 H 249.565 2.71203 1.77819 0
M  V30 2620 H 249.35 3.89449 0.455182 0
M  V30 2621 H 250.84 3.918 1.44508 0
M  V30 2622 N 251.277 0.427512 1.51691 0
M  V30 2623 C 252.187 -0.39527 2.31246 0
M  V30 2624 C 253.203 -1.03674 1.39742 0
M  V30 2625 O 254.379 -1.03425 1.72816 0
M  V30 2626 C 251.444 -1.48706 3.13189 0
M  V30 2627 C 250.505 -0.866743 4.20459 0
M  V30 2628 C 249.738 -1.90651 4.98486 0
M  V30 2629 O 249.961 -3.12733 4.77026 0
M  V30 2630 O 248.895 -1.5025 5.82845 0
M  V30 2631 H 252.721 0.253918 3.02637 0
M  V30 2632 H 250.306 0.190274 1.48183 0
M  V30 2633 H 252.188 -2.12047 3.64162 0
M  V30 2634 H 250.863 -2.12051 2.44573 0
M  V30 2635 H 249.77 -0.195544 3.73589 0
M  V30 2636 H 251.103 -0.276934 4.9142 0
M  V30 2637 N 252.755 -1.56801 0.158532 0
M  V30 2638 C 253.685 -2.20347 -0.772609 0
M  V30 2639 C 254.666 -1.15518 -1.24859 0
M  V30 2640 O 255.851 -1.43902 -1.30406 0
M  V30 2641 C 252.981 -2.83417 -2.00729 0
M  V30 2642 C 251.935 -3.94174 -1.66765 0
M  V30 2643 C 251.261 -4.44233 -2.97592 0
M  V30 2644 C 252.561 -5.14392 -0.905447 0
M  V30 2645 H 254.255 -2.98413 -0.242959 0
M  V30 2646 H 251.801 -1.43537 -0.115419 0
M  V30 2647 H 253.754 -3.26543 -2.6636 0
M  V30 2648 H 252.478 -2.02701 -2.56086 0
M  V30 2649 H 251.137 -3.51684 -1.03508 0
M  V30 2650 H 250.785 -3.60325 -3.50963 0
M  V30 2651 H 250.485 -5.18945 -2.75626 0
M  V30 2652 H 252.009 -4.90037 -3.64274 0
M  V30 2653 H 253.423 -5.5429 -1.46408 0
M  V30 2654 H 251.82 -5.9494 -0.7853 0
M  V30 2655 H 252.89 -4.84795 0.100668 0
M  V30 2656 N 254.233 0.115231 -1.57178 0
M  V30 2657 C 255.165 1.16694 -1.97269 0
M  V30 2658 C 256.178 1.37445 -0.872502 0
M  V30 2659 O 257.367 1.36454 -1.15077 0
M  V30 2660 C 254.467 2.52627 -2.25905 0
M  V30 2661 C 253.64 2.52427 -3.57211 0
M  V30 2662 C 252.699 3.70134 -3.74016 0
M  V30 2663 O 251.725 3.53546 -4.46087 0
M  V30 2664 N 252.927 4.88844 -3.13068 0
M  V30 2665 H 255.692 0.82588 -2.88096 0
M  V30 2666 H 253.253 0.304461 -1.59011 0
M  V30 2667 H 255.245 3.29937 -2.34359 0
M  V30 2668 H 253.815 2.789 -1.41186 0
M  V30 2669 H 253.035 1.60805 -3.5991 0
M  V30 2670 H 254.323 2.49353 -4.43509 0
M  V30 2671 H 253.721 5.05225 -2.54489 0
M  V30 2672 H 252.278 5.63817 -3.27037 0
M  V30 2673 N 255.711 1.52812 0.385517 0
M  V30 2674 C 256.959 1.67694 1.12797 0
M  V30 2675 C 257.28 0.421115 1.90399 0
M  V30 2676 O 256.55 -0.564551 1.87589 0
M  V30 2677 H 255.13 0.618155 0.419396 0
M  V30 2678 H 257.792 1.89938 0.436972 0
M  V30 2679 H 256.888 2.52896 1.82894 0
M  V30 2680 N 257.189 -0.644168 1.43834 0
M  V30 2681 C 258.6 -1.22554 1.40845 0
M  V30 2682 C 258.951 -1.9585 0.117115 0
M  V30 2683 O 258.076 -2.01734 -0.783086 0
M  V30 2684 C 258.671 -2.22907 2.55143 0
M  V30 2685 C 257.23 -2.76501 2.5539 0
M  V30 2686 C 256.377 -1.51287 2.32396 0
M  V30 2687 H 259.328 -0.43563 1.52604 0
M  V30 2688 H 259.349 -3.05259 2.2715 0
M  V30 2689 H 258.861 -1.69533 3.49114 0
M  V30 2690 H 256.962 -3.33914 1.65324 0
M  V30 2691 H 257.075 -3.23429 3.53455 0
M  V30 2692 H 255.439 -1.78957 1.81236 0
M  V30 2693 H 256.222 -0.998336 3.28463 0
M  V30 2694 N 258.668 -1.30515 -0.883378 0
M  V30 2695 C 259.598 -1.19607 -2.00541 0
M  V30 2696 C 260.579 -0.086346 -1.69881 0
M  V30 2697 O 261.764 -0.268654 -1.92333 0
M  V30 2698 C 258.894 -0.888758 -3.35736 0
M  V30 2699 C 257.848 -1.95659 -3.8066 0
M  V30 2700 C 257.174 -1.50224 -5.13164 0
M  V30 2701 C 258.474 -3.36788 -3.99213 0
M  V30 2702 H 260.168 -2.13476 -2.09925 0
M  V30 2703 H 257.714 -1.02775 -1.00863 0
M  V30 2704 H 259.667 -0.799094 -4.13754 0
M  V30 2705 H 258.391 0.0856125 -3.26488 0
M  V30 2706 H 257.05 -2.03591 -3.04871 0
M  V30 2707 H 256.698 -0.516092 -5.00345 0
M  V30 2708 H 256.398 -2.2165 -5.44192 0
M  V30 2709 H 257.922 -1.42639 -5.93706 0
M  V30 2710 H 259.336 -3.31605 -4.67665 0
M  V30 2711 H 257.733 -4.06314 -4.41621 0
M  V30 2712 H 258.803 -3.78561 -3.03017 0
M  V30 2713 N 260.146 1.09593 -1.13257 0
M  V30 2714 C 261.557 1.63229 -0.906274 0
M  V30 2715 C 261.908 1.8811 0.557578 0
M  V30 2716 O 261.033 1.62953 1.42391 0
M  V30 2717 C 261.628 2.96535 -1.63867 0
M  V30 2718 C 260.187 3.47003 -1.45828 0
M  V30 2719 C 259.334 2.2145 -1.66898 0
M  V30 2720 H 262.285 0.92978 -1.28611 0
M  V30 2721 H 262.306 3.64411 -1.09476 0
M  V30 2722 H 261.818 2.78394 -2.70404 0
M  V30 2723 H 259.919 3.70272 -0.415848 0
M  V30 2724 H 260.032 4.24551 -2.2202 0
M  V30 2725 H 258.396 2.30022 -1.09371 0
M  V30 2726 H 259.179 2.0583 -2.74752 0
M  V30 2727 N 261.624 0.925811 1.2754 0
M  V30 2728 C 263.04 0.625767 1.46821 0
M  V30 2729 C 263.24 -0.825506 1.83814 0
M  V30 2730 O 262.296 -1.60356 1.95044 0
M  V30 2731 C 263.609 1.57402 2.56213 0
M  V30 2732 C 265.157 1.58204 2.70075 0
M  V30 2733 C 265.632 2.51721 3.82623 0
M  V30 2734 N 267.123 2.49917 3.89994 0
M  V30 2735 C 267.858 3.18968 4.76494 0
M  V30 2736 N 267.354 3.97391 5.67496 0
M  V30 2737 N 269.147 3.07996 4.70208 0
M  V30 2738 H 261.298 1.86409 1.01811 0
M  V30 2739 H 263.561 0.800213 0.508295 0
M  V30 2740 H 263.267 2.60925 2.35819 0
M  V30 2741 H 263.141 1.31428 3.53563 0
M  V30 2742 H 265.528 0.554124 2.89851 0
M  V30 2743 H 265.609 1.88226 1.73218 0
M  V30 2744 H 265.253 3.54622 3.63601 0
M  V30 2745 H 265.183 2.18996 4.78903 0
M  V30 2746 H 267.674 1.9296 3.24923 0
M  V30 2747 H 267.987 4.4707 6.30356 0
M  V30 2748 H 266.332 4.01495 5.67298 0
M  V30 2749 H 269.523 2.46223 3.9811 0
M  V30 2750 H 269.696 3.6208 5.37403 0
M  V30 2751 N 263.102 -1.41638 0.69111 0
M  V30 2752 C 264.513 -1.84346 0.295517 0
M  V30 2753 C 264.864 -1.57833 -1.16547 0
M  V30 2754 O 263.989 -1.04648 -1.89414 0
M  V30 2755 C 264.584 -3.34636 0.529575 0
M  V30 2756 C 263.143 -3.7593 0.187944 0
M  V30 2757 C 262.29 -2.65082 0.814052 0
M  V30 2758 H 265.241 -1.31253 0.892092 0
M  V30 2759 H 265.262 -3.79903 -0.213148 0
M  V30 2760 H 264.774 -3.53901 1.59297 0
M  V30 2761 H 262.875 -3.62268 -0.871367 0
M  V30 2762 H 262.988 -4.74808 0.63985 0
M  V30 2763 H 261.352 -2.53528 0.244017 0
M  V30 2764 H 262.135 -2.87167 1.88123 0
M  V30 2765 N 264.58 -0.43555 -1.51462 0
M  V30 2766 C 265.49 0.383001 -2.31453 0
M  V30 2767 C 266.506 1.02931 -1.4029 0
M  V30 2768 O 267.682 1.02507 -1.73362 0
M  V30 2769 C 264.747 1.47043 -3.13973 0
M  V30 2770 C 263.808 0.844433 -4.20913 0
M  V30 2771 C 263.041 1.88004 -4.9949 0
M  V30 2772 O 263.264 3.10199 -4.78678 0
M  V30 2773 O 262.198 1.47157 -5.83634 0
M  V30 2774 H 266.024 -0.269964 -3.02498 0
M  V30 2775 H 263.609 -0.19813 -1.4808 0
M  V30 2776 H 265.491 2.10113 -3.65281 0
M  V30 2777 H 264.166 2.10751 -2.45695 0
M  V30 2778 H 263.073 0.175729 -3.73687 0
M  V30 2779 H 264.406 0.250869 -4.9156 0
M  V30 2780 N 266.058 1.56714 -0.166846 0
M  V30 2781 C 267.306 1.96358 0.478305 0
M  V30 2782 C 267.627 1.0537 1.6408 0
M  V30 2783 O 266.897 0.119154 1.95537 0
M  V30 2784 H 265.477 0.725065 0.179692 0
M  V30 2785 H 268.139 1.93329 -0.246985 0
M  V30 2786 H 267.235 3.00547 0.841292 0
M  V30 2787 N 267.536 -0.106894 1.57237 0
M  V30 2788 C 268.766 -0.825191 1.89405 0
M  V30 2789 C 269.174 -1.73374 0.757496 0
M  V30 2790 O 268.517 -1.81552 -0.280115 0
M  V30 2791 C 268.579 -1.70102 3.1671 0
M  V30 2792 C 268.243 -0.965523 4.46684 0
M  V30 2793 C 269.24 -0.300741 5.19029 0
M  V30 2794 C 266.925 -0.943105 4.93367 0
M  V30 2795 C 268.919 0.376622 6.36286 0
M  V30 2796 C 266.606 -0.261949 6.10538 0
M  V30 2797 C 267.604 0.396748 6.81847 0
M  V30 2798 O 267.292 1.06701 7.96787 0
M  V30 2799 H 267.024 -0.241852 0.631255 0
M  V30 2800 H 269.578 -0.0921491 2.05193 0
M  V30 2801 H 267.808 -2.47601 2.97036 0
M  V30 2802 H 269.497 -2.29483 3.34802 0
M  V30 2803 H 270.263 -0.309599 4.84011 0
M  V30 2804 H 266.142 -1.44524 4.3776 0
M  V30 2805 H 269.686 0.891334 6.91882 0
M  V30 2806 H 265.583 -0.250896 6.45012 0
M  V30 2807 H 266.351 0.972707 8.127 0
M  V30 2808 N 269.014 -1.53014 -0.377408 0
M  V30 2809 C 270.254 -1.70318 -1.1301 0
M  V30 2810 C 270.618 -0.439538 -1.86901 0
M  V30 2811 O 271.819 -0.489095 -2.64313 0
M  V30 2812 C 270.09 -2.91125 -2.07319 0
M  V30 2813 S 271.649 -3.29075 -2.90268 0
M  V30 2814 H 268.467 -0.599426 -0.382374 0
M  V30 2815 H 271.069 -1.91089 -0.412933 0
M  V30 2816 H 269.773 -3.81303 -1.51777 0
M  V30 2817 H 269.304 -2.7272 -2.83526 0
M  V30 2818 H 271.319 -2.80165 -4.09539 0
M  V30 2819 N 270.492 0.636531 -1.44174 0
M  V30 2820 C 271.738 1.39826 -1.4689 0
M  V30 2821 C 272.071 1.93947 -0.0990585 0
M  V30 2822 O 271.346 1.73325 0.882544 0
M  V30 2823 C 271.629 2.56751 -2.5249 0
M  V30 2824 C 271.482 2.08014 -3.98811 0
M  V30 2825 C 272.801 3.58946 -2.54649 0
M  V30 2826 H 269.92 0.507075 -0.53483 0
M  V30 2827 H 272.562 0.720188 -1.75822 0
M  V30 2828 H 270.712 3.14597 -2.2795 0
M  V30 2829 H 272.384 1.5504 -4.34466 0
M  V30 2830 H 270.627 1.39242 -4.10846 0
M  V30 2831 H 271.298 2.92169 -4.68339 0
M  V30 2832 H 273.774 3.1089 -2.76563 0
M  V30 2833 H 272.65 4.38286 -3.3045 0
M  V30 2834 H 272.911 4.12655 -1.58646 0
M  V30 2835 N 271.97 1.30982 0.876444 0
M  V30 2836 C 273.217 1.20296 1.62896 0
M  V30 2837 C 273.545 -0.240395 1.93009 0
M  V30 2838 O 272.8 -1.18733 1.55567 0
M  V30 2839 C 273.099 1.98572 2.9716 0
M  V30 2840 C 272.765 3.48125 2.86566 0
M  V30 2841 C 271.427 3.88905 2.83383 0
M  V30 2842 C 273.779 4.43322 2.74071 0
M  V30 2843 C 271.107 5.2316 2.65556 0
M  V30 2844 C 273.459 5.77695 2.57781 0
M  V30 2845 C 272.123 6.17704 2.52979 0
M  V30 2846 H 271.393 0.440193 0.59608 0
M  V30 2847 H 274.04 1.62177 1.01837 0
M  V30 2848 H 272.345 1.49352 3.62217 0
M  V30 2849 H 274.042 1.8769 3.54364 0
M  V30 2850 H 270.632 3.15723 2.89856 0
M  V30 2851 H 274.816 4.12752 2.75589 0
M  V30 2852 H 270.072 5.53241 2.60259 0
M  V30 2853 H 274.246 6.51091 2.47089 0
M  V30 2854 H 271.873 7.21678 2.38924 0
M  V30 2855 N 273.449 -1.08991 1.13837 0
M  V30 2856 C 274.359 -2.19301 0.833333 0
M  V30 2857 C 275.375 -1.73026 -0.183847 0
M  V30 2858 O 276.551 -2.01395 -0.0138092 0
M  V30 2859 C 273.616 -3.45323 0.308651 0
M  V30 2860 C 272.677 -4.06255 1.38764 0
M  V30 2861 C 271.91 -5.26262 0.887896 0
M  V30 2862 O 272.133 -5.69747 -0.27287 0
M  V30 2863 O 271.067 -5.78435 1.66421 0
M  V30 2864 H 274.893 -2.47854 1.75506 0
M  V30 2865 H 272.478 -1.18012 0.916166 0
M  V30 2866 H 274.36 -4.21394 0.0216739 0
M  V30 2867 H 273.035 -3.18362 -0.585431 0
M  V30 2868 H 271.942 -3.318 1.72799 0
M  V30 2869 H 273.275 -4.37452 2.25602 0
M  V30 2870 N 274.927 -0.932562 -1.27047 0
M  V30 2871 C 275.857 -0.452902 -2.29066 0
M  V30 2872 C 276.838 0.489338 -1.62909 0
M  V30 2873 O 278.023 0.393046 -1.90181 0
M  V30 2874 C 275.153 0.290698 -3.46081 0
M  V30 2875 C 274.107 -0.564168 -4.24265 0
M  V30 2876 C 273.433 0.308886 -5.33807 0
M  V30 2877 C 274.733 -1.83112 -4.89149 0
M  V30 2878 H 276.427 -1.30552 -2.69437 0
M  V30 2879 H 273.973 -0.629201 -1.29526 0
M  V30 2880 H 275.926 0.637233 -4.16554 0
M  V30 2881 H 274.65 1.17738 -3.0464 0
M  V30 2882 H 273.309 -0.893477 -3.55545 0
M  V30 2883 H 272.957 1.19467 -4.88607 0
M  V30 2884 H 272.657 -0.259633 -5.87026 0
M  V30 2885 H 274.181 0.650884 -6.07121 0
M  V30 2886 H 275.595 -1.55236 -5.51883 0
M  V30 2887 H 273.992 -2.34353 -5.52448 0
M  V30 2888 H 275.062 -2.54772 -4.12576 0
M  V30 2889 N 276.405 1.4127 -0.698611 0
M  V30 2890 C 277.821 1.55241 -0.370462 0
M  V30 2891 C 278.021 1.67351 1.12231 0
M  V30 2892 O 277.077 1.65363 1.90818 0
M  V30 2893 C 278.39 2.78997 -1.12165 0
M  V30 2894 C 279.938 2.92797 -1.1063 0
M  V30 2895 C 280.413 4.19445 -1.8393 0
M  V30 2896 N 281.904 4.26409 -1.80914 0
M  V30 2897 C 282.639 5.23271 -2.34467 0
M  V30 2898 N 282.135 6.26145 -2.96504 0
M  V30 2899 N 283.928 5.15232 -2.24706 0
M  V30 2900 H 276.079 1.31654 -1.66676 0
M  V30 2901 H 278.342 0.635393 -0.703548 0
M  V30 2902 H 278.048 2.76268 -2.17644 0
M  V30 2903 H 277.922 3.70606 -0.702209 0
M  V30 2904 H 280.309 2.95039 -0.0597713 0
M  V30 2905 H 280.39 2.02353 -1.56483 0
M  V30 2906 H 280.034 4.17964 -2.88563 0
M  V30 2907 H 279.964 5.08866 -1.35509 0
M  V30 2908 H 282.455 3.527 -1.35687 0
M  V30 2909 H 282.768 6.96451 -3.34927 0
M  V30 2910 H 281.113 6.26638 -3.00583 0
M  V30 2911 H 284.304 4.33789 -1.7591 0
M  V30 2912 H 284.477 5.90552 -2.66745 0
M  V30 2913 N 277.883 0.443576 1.51229 0
M  V30 2914 C 278.813 -0.355142 2.30783 0
M  V30 2915 C 279.794 -1.0154 1.36468 0
M  V30 2916 O 280.979 -1.01785 1.65389 0
M  V30 2917 C 278.109 -1.45312 3.15439 0
M  V30 2918 C 277.063 -0.916002 4.18083 0
M  V30 2919 C 276.389 -2.1102 4.91299 0
M  V30 2920 C 277.689 0.0538602 5.22272 0
M  V30 2921 H 279.383 0.308767 2.97804 0
M  V30 2922 H 276.929 0.149937 1.43217 0
M  V30 2923 H 278.882 -2.01914 3.69876 0
M  V30 2924 H 277.606 -2.14541 2.46252 0
M  V30 2925 H 276.265 -0.372145 3.64706 0
M  V30 2926 H 275.913 -2.78882 4.18609 0
M  V30 2927 H 275.613 -1.75717 5.60712 0
M  V30 2928 H 277.137 -2.68164 5.48562 0
M  V30 2929 H 278.551 -0.422069 5.71744 0
M  V30 2930 H 276.948 0.319776 5.99247 0
M  V30 2931 H 278.018 0.98858 4.74716 0
M  V30 2932 N 279.361 -1.56624 0.175154 0
M  V30 2933 C 280.271 -2.21741 -0.766042 0
M  V30 2934 C 281.287 -1.21023 -1.25018 0
M  V30 2935 O 282.463 -1.53697 -1.3015 0
M  V30 2936 C 279.528 -2.84839 -1.97655 0
M  V30 2937 C 278.589 -4.00769 -1.53892 0
M  V30 2938 C 277.822 -4.60849 -2.69173 0
M  V30 2939 O 278.045 -4.19823 -3.86141 0
M  V30 2940 O 276.979 -5.50655 -2.43028 0
M  V30 2941 H 280.805 -3.02738 -0.241585 0
M  V30 2942 H 278.39 -1.49305 -0.053222 0
M  V30 2943 H 280.272 -3.24834 -2.68442 0
M  V30 2944 H 278.947 -2.06836 -2.48999 0
M  V30 2945 H 277.854 -3.65436 -0.80044 0
M  V30 2946 H 279.187 -4.80376 -1.07236 0
M  V30 2947 N 280.839 0.0985539 -1.57292 0
M  V30 2948 C 282.064 0.820196 -1.90493 0
M  V30 2949 C 282.489 1.71658 -0.769094 0
M  V30 2950 O 281.847 1.79133 0.279495 0
M  V30 2951 C 281.895 1.61242 -3.22542 0
M  V30 2952 O 280.999 2.72108 -3.09888 0
M  V30 2953 H 280.34 0.225547 -0.62452 0
M  V30 2954 H 282.87 0.0748159 -2.04463 0
M  V30 2955 H 282.88 1.99737 -3.55766 0
M  V30 2956 H 281.555 0.954535 -4.04798 0
M  V30 2957 H 280.132 2.36667 -2.88172 0
M  V30 2958 N 282.317 1.53212 0.369288 0
M  V30 2959 C 283.247 1.82365 1.45826 0
M  V30 2960 C 284.228 0.676907 1.56051 0
M  V30 2961 O 285.413 0.926401 1.70679 0
M  V30 2962 C 282.543 2.01023 2.83208 0
M  V30 2963 C 281.497 3.1678 2.8781 0
M  V30 2964 C 280.823 3.20724 4.27832 0
M  V30 2965 C 282.123 4.55447 2.55667 0
M  V30 2966 H 283.817 2.73559 1.21678 0
M  V30 2967 H 281.363 1.3163 0.583911 0
M  V30 2968 H 283.316 2.20001 3.59413 0
M  V30 2969 H 282.04 1.06536 3.08736 0
M  V30 2970 H 280.699 2.97616 2.14056 0
M  V30 2971 H 280.347 2.23882 4.50429 0
M  V30 2972 H 280.047 3.98496 4.31827 0
M  V30 2973 H 281.571 3.41881 5.05915 0
M  V30 2974 H 282.985 4.74611 3.21586 0
M  V30 2975 H 281.382 5.35432 2.70984 0
M  V30 2976 H 282.452 4.60812 1.5093 0
M  V30 2977 N 283.795 -0.628877 1.44509 0
M  V30 2978 C 284.705 -1.7694 1.54044 0
M  V30 2979 C 285.721 -1.68705 0.425987 0
M  V30 2980 O 286.897 -1.89442 0.683656 0
M  V30 2981 C 283.962 -3.13332 1.48405 0
M  V30 2982 C 283.023 -3.33181 2.70719 0
M  V30 2983 C 282.256 -4.63067 2.6534 0
M  V30 2984 O 282.479 -5.44017 1.71469 0
M  V30 2985 O 281.413 -4.85167 3.56226 0
M  V30 2986 H 285.239 -1.71848 2.50403 0
M  V30 2987 H 282.824 -0.790378 1.26781 0
M  V30 2988 H 284.706 -3.94634 1.47791 0
M  V30 2989 H 283.381 -3.1896 0.551898 0
M  V30 2990 H 282.288 -2.51549 2.769 0
M  V30 2991 H 283.621 -3.32416 3.62988 0
M  V30 2992 N 285.273 -1.31445 -0.869486 0
M  V30 2993 C 286.52 -1.21158 -1.62256 0
M  V30 2994 C 286.848 0.230155 -1.93133 0
M  V30 2995 O 286.103 1.17906 -1.56194 0
M  V30 2996 C 286.402 -2.00145 -2.96102 0
M  V30 2997 C 286.068 -3.4964 -2.84715 0
M  V30 2998 C 284.73 -3.90403 -2.81317 0
M  V30 2999 C 287.082 -4.44769 -2.71716 0
M  V30 3000 C 284.41 -5.24561 -2.62778 0
M  V30 3001 C 286.762 -5.79054 -2.54714 0
M  V30 3002 C 285.426 -6.19037 -2.49699 0
M  V30 3003 H 284.696 -0.443348 -0.593737 0
M  V30 3004 H 287.343 -1.62715 -1.00976 0
M  V30 3005 H 285.648 -1.5127 -3.6142 0
M  V30 3006 H 287.345 -1.89566 -3.53363 0
M  V30 3007 H 283.935 -3.17256 -2.88178 0
M  V30 3008 H 288.119 -4.14208 -2.73397 0
M  V30 3009 H 283.375 -5.54613 -2.57321 0
M  V30 3010 H 287.549 -6.52393 -2.43632 0
M  V30 3011 H 285.176 -7.22935 -2.35093 0
M  V30 3012 N 286.751 1.08385 -1.14413 0
M  V30 3013 C 287.997 1.81212 -0.923793 0
M  V30 3014 C 288.352 1.84555 0.543814 0
M  V30 3015 O 287.645 1.31056 1.39767 0
M  V30 3016 C 287.839 3.26273 -1.45879 0
M  V30 3017 C 287.668 3.37063 -2.97689 0
M  V30 3018 C 286.438 3.4824 -3.66138 0
M  V30 3019 C 288.636 3.28698 -3.95553 0
M  V30 3020 N 286.618 3.47824 -5.05858 0
M  V30 3021 C 287.989 3.35276 -5.21527 0
M  V30 3022 C 290.044 3.12437 -3.8767 0
M  V30 3023 C 288.747 3.27267 -6.40538 0
M  V30 3024 C 290.773 3.05757 -5.06228 0
M  V30 3025 C 290.135 3.12938 -6.3107 0
M  V30 3026 H 286.234 0.6769 -0.391574 0
M  V30 3027 H 288.818 1.29455 -1.45429 0
M  V30 3028 H 286.989 3.76474 -0.95507 0
M  V30 3029 H 288.721 3.87165 -1.17835 0
M  V30 3030 H 285.476 3.52141 -3.16692 0
M  V30 3031 H 285.9 3.51171 -5.78798 0
M  V30 3032 H 290.542 3.05747 -2.92025 0
M  V30 3033 H 288.26 3.32718 -7.36427 0
M  V30 3034 H 291.846 2.94295 -5.01878 0
M  V30 3035 H 290.726 3.078 -7.21269 0
M  V30 3036 N 288.23 0.939286 1.26551 0
M  V30 3037 C 289.478 0.58469 1.93457 0
M  V30 3038 C 289.799 -0.878774 1.74076 0
M  V30 3039 O 289.069 -1.62421 1.09528 0
M  V30 3040 H 287.649 0.21325 0.715914 0
M  V30 3041 H 290.311 1.1942 1.54029 0
M  V30 3042 H 289.407 0.800849 3.0165 0
M  V30 3043 N 289.708 -1.40897 0.706093 0
M  V30 3044 C 290.656 -2.32572 0.0361893 0
M  V30 3045 C 291.65 -1.51532 -0.757266 0
M  V30 3046 O 292.856 -1.67396 -0.661703 0
M  V30 3047 H 289.231 -0.751966 -0.00709935 0
M  V30 3048 H 291.202 -2.86733 0.826249 0
M  V30 3049 C 289.951 -3.36418 -0.87854 0
M  V30 3050 H 289.274 -3.98836 -0.277401 0
M  V30 3051 H 290.714 -4.0308 -1.3154 0
M  V30 3052 C 289.173 -2.71141 -1.99961 0
M  V30 3053 O 289.703 -2.56735 -3.0895 0
M  V30 3054 N 287.909 -2.29671 -1.78043 0
M  V30 3055 H 287.456 -2.41588 -0.894042 0
M  V30 3056 H 287.414 -1.86332 -2.53235 0
M  V30 3057 N 291.186 -0.45159 -1.50991 0
M  V30 3058 C 292.434 0.109857 -2.01801 0
M  V30 3059 C 292.755 1.41958 -1.3369 0
M  V30 3060 O 292.025 1.9003 -0.475951 0
M  V30 3061 H 290.605 0.0435884 -0.745727 0
M  V30 3062 H 293.267 -0.597557 -1.85514 0
M  V30 3063 H 292.363 0.275489 -3.10882 0
M  V30 3064 N 292.664 1.56529 -0.183458 0
M  V30 3065 C 293.596 2.15747 0.773697 0
M  V30 3066 C 294.609 1.1162 1.1851 0
M  V30 3067 O 295.798 1.3876 1.12285 0
M  V30 3068 C 292.898 2.6952 2.05456 0
M  V30 3069 C 292.071 3.98429 1.8048 0
M  V30 3070 C 291.13 4.37145 2.92901 0
M  V30 3071 O 290.156 5.04791 2.6301 0
M  V30 3072 N 291.358 3.99695 4.2098 0
M  V30 3073 H 294.123 2.98505 0.26736 0
M  V30 3074 H 291.684 1.619 -0.0010878 0
M  V30 3075 H 293.676 2.92412 2.79781 0
M  V30 3076 H 292.246 1.91282 2.47245 0
M  V30 3077 H 291.466 3.8379 0.899947 0
M  V30 3078 H 292.754 4.82597 1.61175 0
M  V30 3079 H 292.152 3.4526 4.48121 0
M  V30 3080 H 290.709 4.27562 4.9197 0
M  V30 3081 N 294.142 -0.090211 1.57342 0
M  V30 3082 C 295.052 -1.12735 2.05738 0
M  V30 3083 C 296.068 -1.43557 0.983231 0
M  V30 3084 O 297.244 -1.54101 1.29672 0
M  V30 3085 C 294.309 -2.42659 2.47624 0
M  V30 3086 C 293.37 -2.18975 3.69254 0
M  V30 3087 C 292.603 -3.42704 4.09133 0
M  V30 3088 O 292.826 -4.51127 3.49057 0
M  V30 3089 O 291.76 -3.32003 5.02053 0
M  V30 3090 H 295.586 -0.746279 2.94388 0
M  V30 3091 H 293.171 -0.303064 1.46294 0
M  V30 3092 H 295.053 -3.19155 2.7517 0
M  V30 3093 H 293.728 -2.80182 1.62109 0
M  V30 3094 H 292.635 -1.40244 3.46818 0
M  V30 3095 H 293.968 -1.86342 4.55563 0
M  V30 3096 N 295.62 -1.53406 -0.361157 0
M  V30 3097 C 297.036 -1.43277 -0.703124 0
M  V30 3098 C 297.236 -0.575384 -1.9311 0
M  V30 3099 O 296.292 -0.0595362 -2.5243 0
M  V30 3100 C 297.605 -2.8653 -0.9122 0
M  V30 3101 C 299.153 -2.96191 -1.01193 0
M  V30 3102 C 299.628 -4.40514 -1.25345 0
M  V30 3103 N 301.119 -4.43962 -1.32105 0
M  V30 3104 C 301.854 -5.52746 -1.5251 0
M  V30 3105 N 301.35 -6.71567 -1.70203 0
M  V30 3106 N 303.143 -5.40331 -1.54916 0
M  V30 3107 H 295.294 -2.07654 0.446475 0
M  V30 3108 H 297.557 -0.937944 0.137715 0
M  V30 3109 H 297.263 -3.51605 -0.0816414 0
M  V30 3110 H 297.137 -3.30441 -1.81903 0
M  V30 3111 H 299.524 -2.31266 -1.83303 0
M  V30 3112 H 299.605 -2.55667 -0.0823929 0
M  V30 3113 H 299.249 -5.06014 -0.437346 0
M  V30 3114 H 299.179 -4.78614 -2.19627 0
M  V30 3115 H 301.67 -3.58332 -1.20028 0
M  V30 3116 H 301.983 -7.50241 -1.85359 0
M  V30 3117 H 300.328 -6.74545 -1.67373 0
M  V30 3118 H 303.519 -4.46465 -1.40663 0
M  V30 3119 H 303.692 -6.25173 -1.70477 0
M  V30 3120 N 297.098 0.621204 -1.44841 0
M  V30 3121 C 298.028 1.74366 -1.55303 0
M  V30 3122 C 299.009 1.65199 -0.405385 0
M  V30 3123 O 300.194 1.83807 -0.626787 0
M  V30 3124 C 297.324 3.12931 -1.50637 0
M  V30 3125 C 296.278 3.36896 -2.63979 0
M  V30 3126 C 295.604 4.75594 -2.44366 0
M  V30 3127 C 296.904 3.28483 -4.06074 0
M  V30 3128 H 298.598 1.65867 -2.49256 0
M  V30 3129 H 296.144 0.796558 -1.19962 0
M  V30 3130 H 298.097 3.9124 -1.56555 0
M  V30 3131 H 296.821 3.22237 -0.532057 0
M  V30 3132 H 295.48 2.60972 -2.57467 0
M  V30 3133 H 295.128 4.81616 -1.45105 0
M  V30 3134 H 294.828 4.92586 -3.20364 0
M  V30 3135 H 296.352 5.5612 -2.52117 0
M  V30 3136 H 297.766 3.96684 -4.13902 0
M  V30 3137 H 296.163 3.57008 -4.82354 0
M  V30 3138 H 297.233 2.26133 -4.28943 0
M  V30 3139 N 298.576 1.31904 0.862503 0
M  V30 3140 C 299.526 1.16772 1.95827 0
M  V30 3141 C 300.51 0.0767098 1.60717 0
M  V30 3142 O 301.702 0.302407 1.74398 0
M  V30 3143 C 298.831 0.884858 3.317 0
M  V30 3144 C 297.917 2.0172 3.73055 0
M  V30 3145 N 298.308 3.265 3.86305 0
M  V30 3146 C 296.606 1.91861 4.02623 0
M  V30 3147 C 297.307 4.00616 4.2176 0
M  V30 3148 N 296.283 3.28847 4.32852 0
M  V30 3149 H 300.085 2.11382 2.04193 0
M  V30 3150 H 297.599 1.2357 1.05377 0
M  V30 3151 H 299.596 0.757419 4.09962 0
M  V30 3152 H 298.256 -0.0529448 3.24657 0
M  V30 3153 H 299.267 3.61529 3.70833 0
M  V30 3154 H 295.944 1.05593 4.03926 0
M  V30 3155 H 297.334 5.08182 4.39546 0
M  V30 3156 N 300.054 -1.07777 1.14986 0
M  V30 3157 C 300.964 -2.18404 0.856546 0
M  V30 3158 C 301.98 -1.73211 -0.165485 0
M  V30 3159 O 303.156 -2.01399 0.00755219 0
M  V30 3160 C 300.221 -3.44977 0.34526 0
M  V30 3161 C 299.282 -4.0476 1.43065 0
M  V30 3162 C 298.515 -5.25291 0.943663 0
M  V30 3163 O 298.738 -5.70004 -0.212426 0
M  V30 3164 O 297.672 -5.76638 1.72547 0
M  V30 3165 H 301.498 -2.45978 1.78125 0
M  V30 3166 H 299.083 -1.17033 0.928631 0
M  V30 3167 H 300.965 -4.21348 0.0663671 0
M  V30 3168 H 299.64 -3.18965 -0.551631 0
M  V30 3169 H 298.547 -3.29949 1.76309 0
M  V30 3170 H 299.88 -4.35035 2.30229 0
M  V30 3171 N 301.532 -0.945985 -1.26051 0
M  V30 3172 C 302.948 -0.649045 -1.45807 0
M  V30 3173 C 303.148 0.796158 -1.85104 0
M  V30 3174 O 302.204 1.57233 -1.97571 0
M  V30 3175 C 303.517 -1.61458 -2.53677 0
M  V30 3176 C 305.065 -1.62481 -2.67524 0
M  V30 3177 C 305.54 -2.57776 -3.7857 0
M  V30 3178 N 307.031 -2.5609 -3.85969 0
M  V30 3179 C 307.766 -3.26508 -4.7136 0
M  V30 3180 N 307.262 -4.0637 -5.61102 0
M  V30 3181 N 309.055 -3.15437 -4.65248 0
M  V30 3182 H 301.206 -1.88005 -0.988328 0
M  V30 3183 H 303.469 -0.808198 -0.4955 0
M  V30 3184 H 303.175 -2.64644 -2.31638 0
M  V30 3185 H 303.049 -1.37036 -3.51427 0
M  V30 3186 H 305.436 -0.600167 -2.88933 0
M  V30 3187 H 305.517 -1.90958 -1.70202 0
M  V30 3188 H 305.161 -3.60361 -3.57913 0
M  V30 3189 H 305.091 -2.26587 -4.75359 0
M  V30 3190 H 307.582 -1.98105 -3.21812 0
M  V30 3191 H 307.895 -4.57042 -6.23164 0
M  V30 3192 H 306.24 -4.10469 -5.60839 0
M  V30 3193 H 309.431 -2.52525 -3.94143 0
M  V30 3194 H 309.604 -3.70584 -5.31575 0
M  V30 3195 N 303.011 1.40521 -0.713556 0
M  V30 3196 C 303.941 2.33381 -0.0743864 0
M  V30 3197 C 304.922 1.52784 0.747735 0
M  V30 3198 O 306.107 1.81258 0.697071 0
M  V30 3199 C 303.237 3.36748 0.849598 0
M  V30 3200 C 302.191 4.27793 0.133247 0
M  V30 3201 C 301.517 5.21679 1.17281 0
M  V30 3202 C 302.817 5.12415 -1.01134 0
M  V30 3203 H 304.511 2.87081 -0.850007 0
M  V30 3204 H 302.057 1.38034 -0.410201 0
M  V30 3205 H 304.01 4.00648 1.30612 0
M  V30 3206 H 302.734 2.81439 1.65709 0
M  V30 3207 H 301.393 3.65342 -0.303426 0
M  V30 3208 H 301.041 4.62677 1.9733 0
M  V30 3209 H 300.741 5.83435 0.698397 0
M  V30 3210 H 302.265 5.88456 1.62947 0
M  V30 3211 H 303.679 5.69781 -0.634274 0
M  V30 3212 H 302.076 5.83203 -1.41399 0
M  V30 3213 H 303.146 4.48514 -1.84292 0
M  V30 3214 N 304.489 0.459591 1.5075 0
M  V30 3215 C 305.905 0.113092 1.59199 0
M  V30 3216 C 306.105 -1.37951 1.46874 0
M  V30 3217 O 305.161 -2.15168 1.32132 0
M  V30 3218 C 306.474 0.653043 2.93523 0
M  V30 3219 C 308.022 0.615449 3.0689 0
M  V30 3220 C 308.497 1.13275 4.43771 0
M  V30 3221 N 309.988 1.09167 4.50152 0
M  V30 3222 C 310.723 1.46256 5.54434 0
M  V30 3223 N 310.219 1.90739 6.66026 0
M  V30 3224 N 312.012 1.37932 5.44914 0
M  V30 3225 H 304.163 1.43049 1.57005 0
M  V30 3226 H 306.426 0.590861 0.741341 0
M  V30 3227 H 306.132 1.69822 3.07983 0
M  V30 3228 H 306.006 0.0902132 3.77092 0
M  V30 3229 H 308.393 -0.420793 2.92084 0
M  V30 3230 H 308.474 1.21495 2.25106 0
M  V30 3231 H 308.118 2.16757 4.59324 0
M  V30 3232 H 308.048 0.509576 5.24129 0
M  V30 3233 H 310.539 0.76528 3.7007 0
M  V30 3234 H 310.852 2.17218 7.41644 0
M  V30 3235 H 309.197 1.94683 6.67176 0
M  V30 3236 H 312.388 1.0303 4.56621 0
M  V30 3237 H 312.561 1.67164 6.26067 0
M  V30 3238 N 305.967 -1.56429 0.191757 0
M  V30 3239 C 307.197 -2.01574 -0.452928 0
M  V30 3240 C 307.605 -1.07107 -1.55964 0
M  V30 3241 O 306.948 -0.067534 -1.83576 0
M  V30 3242 C 307.01 -3.43121 -1.07278 0
M  V30 3243 C 306.674 -4.56879 -0.105214 0
M  V30 3244 C 307.671 -5.15379 0.684149 0
M  V30 3245 C 305.356 -5.023 0.00489824 0
M  V30 3246 C 307.35 -6.17746 1.57062 0
M  V30 3247 C 305.037 -6.04511 0.894935 0
M  V30 3248 C 306.035 -6.62108 1.67637 0
M  V30 3249 O 305.723 -7.62335 2.55149 0
M  V30 3250 H 305.455 -0.665554 -0.118379 0
M  V30 3251 H 308.009 -2.03245 0.296737 0
M  V30 3252 H 306.239 -3.38425 -1.87097 0
M  V30 3253 H 307.928 -3.72093 -1.62177 0
M  V30 3254 H 308.694 -4.81157 0.609365 0
M  V30 3255 H 304.573 -4.57168 -0.593156 0
M  V30 3256 H 308.117 -6.6263 2.181 0
M  V30 3257 H 304.014 -6.38157 0.970847 0
M  V30 3258 H 304.782 -7.79741 2.48892 0
M  V30 3259 N 307.445 0.0818655 -1.57387 0
M  V30 3260 C 308.722 0.815343 -1.77796 0
M  V30 3261 C 309.102 1.96289 -0.77679 0
M  V30 3262 O 308.45 2.27691 0.192106 0
M  V30 3263 C 308.66 1.29765 -3.23978 0
M  V30 3264 C 310.008 1.7351 -3.8753 0
M  V30 3265 O 311.032 1.39356 -3.27808 0
M  V30 3266 O 309.891 2.36708 -4.92576 0
M  V30 3267 H 306.985 0.389914 -0.729312 0
M  V30 3268 H 309.531 0.0627213 -1.69584 0
M  V30 3269 H 308.303 0.47608 -3.88393 0
M  V30 3270 H 307.926 2.11189 -3.36875 0
M  V30 3271 N 308.923 1.53595 0.353017 0
M  V30 3272 C 310.339 1.43648 0.695516 0
M  V30 3273 C 310.539 0.585617 1.92802 0
M  V30 3274 O 309.595 0.0729223 2.52395 0
M  V30 3275 C 310.908 2.8701 0.896991 0
M  V30 3276 C 312.456 2.96723 0.996209 0
M  V30 3277 C 312.931 4.41173 1.23007 0
M  V30 3278 N 314.422 4.44657 1.29749 0
M  V30 3279 C 315.157 5.53547 1.49577 0
M  V30 3280 N 314.653 6.72461 1.66639 0
M  V30 3281 N 316.446 5.41145 1.52048 0
M  V30 3282 H 308.597 2.07415 -0.457481 0
M  V30 3283 H 310.86 0.9372 -0.142687 0
M  V30 3284 H 310.566 3.51644 0.0629938 0
M  V30 3285 H 310.44 3.31401 1.80148 0
M  V30 3286 H 312.827 2.32235 1.82074 0
M  V30 3287 H 312.908 2.55707 0.0688331 0
M  V30 3288 H 312.552 5.06238 0.410505 0
M  V30 3289 H 312.482 4.79772 2.17086 0
M  V30 3290 H 314.973 3.58963 1.18126 0
M  V30 3291 H 315.286 7.51214 1.81378 0
M  V30 3292 H 313.631 6.75423 1.63794 0
M  V30 3293 H 316.822 4.47205 1.38294 0
M  V30 3294 H 316.995 6.26068 1.67159 0
M  V30 3295 N 310.401 -0.613514 1.45168 0
M  V30 3296 C 311.626 -1.40437 1.52618 0
M  V30 3297 C 312.051 -1.87438 0.157707 0
M  V30 3298 O 311.409 -1.59791 -0.856537 0
M  V30 3299 C 311.457 -2.58894 2.51011 0
M  V30 3300 O 310.561 -3.59326 2.02382 0
M  V30 3301 H 309.902 -0.419506 0.514695 0
M  V30 3302 H 312.432 -0.747215 1.90467 0
M  V30 3303 H 312.442 -3.06214 2.69624 0
M  V30 3304 H 311.117 -2.24032 3.50403 0
M  V30 3305 H 309.694 -3.18695 1.93618 0
M  V30 3306 N 311.879 -1.3236 -0.855495 0
M  V30 3307 C 313.156 -1.13491 -1.59309 0
M  V30 3308 C 313.536 0.30503 -2.08885 0
M  V30 3309 O 312.884 1.30151 -1.87811 0
M  V30 3310 C 313.094 -2.16176 -2.73987 0
M  V30 3311 C 314.442 -2.49463 -3.43589 0
M  V30 3312 O 315.466 -2.14715 -2.84211 0
M  V30 3313 O 314.325 -3.09027 -4.50738 0
M  V30 3314 H 311.419 -0.437887 -0.701559 0
M  V30 3315 H 313.965 -1.43887 -0.899696 0
M  V30 3316 H 312.737 -3.1297 -2.34873 0
M  V30 3317 H 312.36 -1.86769 -3.51003 0
M  V30 3318 N 313.357 1.07166 -1.15556 0
M  V30 3319 C 314.585 1.83514 -0.955519 0
M  V30 3320 C 315 1.82163 0.49621 0
M  V30 3321 O 314.357 1.23441 1.34419 0
M  V30 3322 C 314.408 3.30515 -1.46432 0
M  V30 3323 O 314.129 3.31937 -2.85918 0
M  V30 3324 C 315.63 4.23625 -1.30603 0
M  V30 3325 H 312.85 0.578926 -0.339244 0
M  V30 3326 H 315.394 1.35265 -1.53374 0
M  V30 3327 H 313.549 3.76106 -0.928584 0
M  V30 3328 H 313.963 4.23794 -3.09029 0
M  V30 3329 H 315.437 5.24831 -1.71047 0
M  V30 3330 H 315.914 4.38485 -0.250441 0
M  V30 3331 H 316.52 3.83871 -1.83094 0
M  V30 3332 N 314.835 0.952656 1.25548 0
M  V30 3333 C 316.083 0.605176 1.92826 0
M  V30 3334 C 316.404 -0.860261 1.74999 0
M  V30 3335 O 315.674 -1.6125 1.11244 0
M  V30 3336 H 314.254 0.220832 0.713612 0
M  V30 3337 H 316.916 1.21047 1.52754 0
M  V30 3338 H 316.012 0.832798 3.00784 0
M  V30 3339 N 316.313 -1.40141 0.720998 0
M  V30 3340 C 317.559 -2.01572 0.272075 0
M  V30 3341 C 317.914 -1.5616 -1.12391 0
M  V30 3342 O 317.207 -0.774198 -1.75262 0
M  V30 3343 C 317.401 -3.56165 0.296892 0
M  V30 3344 C 317.23 -4.16584 1.69375 0
M  V30 3345 C 316 -4.49783 2.30269 0
M  V30 3346 C 318.198 -4.41076 2.64493 0
M  V30 3347 N 316.18 -4.95626 3.62254 0
M  V30 3348 C 317.551 -4.88971 3.81192 0
M  V30 3349 C 319.606 -4.23122 2.62435 0
M  V30 3350 C 318.309 -5.20796 4.96149 0
M  V30 3351 C 320.335 -4.56052 3.76524 0
M  V30 3352 C 319.697 -5.04141 4.91956 0
M  V30 3353 H 315.796 -0.768343 0.145511 0
M  V30 3354 H 318.38 -1.70287 0.943959 0
M  V30 3355 H 316.551 -3.86868 -0.344578 0
M  V30 3356 H 318.283 -4.04346 -0.169254 0
M  V30 3357 H 315.038 -4.37101 1.82318 0
M  V30 3358 H 315.462 -5.22923 4.29977 0
M  V30 3359 H 320.104 -3.85158 1.74393 0
M  V30 3360 H 317.822 -5.57672 5.84831 0
M  V30 3361 H 321.408 -4.43796 3.76213 0
M  V30 3362 H 320.288 -5.29142 5.78774 0
M  V30 3363 N 317.792 -0.46758 -1.50504 0
M  V30 3364 C 318.74 0.342482 -2.30065 0
M  V30 3365 C 319.734 0.993596 -1.37201 0
M  V30 3366 O 320.94 0.925102 -1.54408 0
M  V30 3367 H 317.315 0.129283 -0.740803 0
M  V30 3368 H 319.286 -0.34899 -2.96352 0
M  V30 3369 C 318.035 1.4139 -3.17654 0
M  V30 3370 H 317.358 0.922264 -3.89017 0
M  V30 3371 H 318.798 1.95335 -3.76325 0
M  V30 3372 C 317.257 2.4139 -2.35016 0
M  V30 3373 O 317.787 3.46586 -2.03079 0
M  V30 3374 N 315.993 2.13021 -1.97662 0
M  V30 3375 H 315.54 1.27499 -2.23834 0
M  V30 3376 H 315.498 2.80164 -1.42673 0
M  V30 3377 N 319.27 1.56325 -0.20005 0
M  V30 3378 C 320.516 1.98012 0.438059 0
M  V30 3379 C 320.849 1.08702 1.60927 0
M  V30 3380 O 320.124 0.140064 1.93995 0
M  V30 3381 C 320.407 3.48841 0.893419 0
M  V30 3382 C 320.26 4.48928 -0.279947 0
M  V30 3383 C 321.579 4.03498 1.75719 0
M  V30 3384 H 318.698 0.719918 0.157757 0
M  V30 3385 H 321.34 1.87743 -0.291968 0
M  V30 3386 H 319.49 3.57723 1.51547 0
M  V30 3387 H 321.162 4.52079 -0.91772 0
M  V30 3388 H 319.405 4.23694 -0.930919 0
M  V30 3389 H 320.076 5.5194 0.0812601 0
M  V30 3390 H 322.552 3.97427 1.23253 0
M  V30 3391 H 321.428 5.09393 2.04476 0
M  V30 3392 H 321.689 3.4906 2.71311 0
M  V30 3393 N 320.748 -0.0735177 1.57428 0
M  V30 3394 C 322.164 -0.428264 1.53747 0
M  V30 3395 C 322.364 -1.79272 0.91998 0
M  V30 3396 O 321.42 -2.47051 0.521745 0
M  V30 3397 C 322.733 -0.370914 2.98404 0
M  V30 3398 C 324.281 -0.451224 3.0973 0
M  V30 3399 C 324.756 -0.4238 4.56035 0
M  V30 3400 N 326.247 -0.483925 4.60665 0
M  V30 3401 C 326.982 -0.484891 5.71346 0
M  V30 3402 N 326.478 -0.440775 6.91396 0
M  V30 3403 N 328.271 -0.531319 5.59583 0
M  V30 3404 H 320.422 0.819949 1.95935 0
M  V30 3405 H 322.685 0.307493 0.896745 0
M  V30 3406 H 322.391 0.564956 3.47133 0
M  V30 3407 H 322.265 -1.18176 3.5821 0
M  V30 3408 H 324.652 -1.37752 2.60976 0
M  V30 3409 H 324.733 0.388167 2.52838 0
M  V30 3410 H 324.377 0.498638 5.05446 0
M  V30 3411 H 324.307 -1.2807 5.10789 0
M  V30 3412 H 326.798 -0.522338 3.74273 0
M  V30 3413 H 327.111 -0.44539 7.71515 0
M  V30 3414 H 325.456 -0.40749 6.93804 0
M  V30 3415 H 328.647 -0.563464 4.64696 0
M  V30 3416 H 328.82 -0.528603 6.4584 0
M  V30 3417 N 322.226 -1.5378 -0.344866 0
M  V30 3418 C 323.642 -1.44015 -0.687888 0
M  V30 3419 C 323.842 -0.595834 -1.92489 0
M  V30 3420 O 322.898 -0.0863064 -2.52352 0
M  V30 3421 C 324.211 -2.87481 -0.881758 0
M  V30 3422 C 325.759 -2.97247 -0.980459 0
M  V30 3423 C 326.234 -4.41819 -1.20665 0
M  V30 3424 N 327.725 -4.45339 -1.27389 0
M  V30 3425 C 328.46 -5.54333 -1.46639 0
M  V30 3426 N 327.956 -6.73335 -1.63071 0
M  V30 3427 N 329.749 -5.41944 -1.49176 0
M  V30 3428 H 321.9 -2.07169 0.468475 0
M  V30 3429 H 324.163 -0.93643 0.147655 0
M  V30 3430 H 323.869 -3.51672 -0.0443444 0
M  V30 3431 H 323.743 -3.32352 -1.78388 0
M  V30 3432 H 326.13 -2.33197 -1.8084 0
M  V30 3433 H 326.211 -2.5574 -0.0552713 0
M  V30 3434 H 325.855 -5.06449 -0.383652 0
M  V30 3435 H 325.785 -4.80917 -2.14539 0
M  V30 3436 H 328.276 -3.59585 -1.1622 0
M  V30 3437 H 328.589 -7.52165 -1.77391 0
M  V30 3438 H 326.934 -6.76282 -1.60209 0
M  V30 3439 H 330.125 -4.47932 -1.3592 0
M  V30 3440 H 330.298 -6.26946 -1.63837 0
M  V30 3441 N 323.704 0.605807 -1.45491 0
M  V30 3442 C 324.634 1.72709 -1.57143 0
M  V30 3443 C 325.615 1.6476 -0.422884 0
M  V30 3444 O 326.8 1.83132 -0.646247 0
M  V30 3445 C 323.93 3.11316 -1.53948 0
M  V30 3446 C 322.884 3.34077 -2.67537 0
M  V30 3447 C 322.21 4.72975 -2.49397 0
M  V30 3448 C 323.51 3.24158 -4.09535 0
M  V30 3449 H 325.204 1.63214 -2.51001 0
M  V30 3450 H 322.75 0.78379 -1.208 0
M  V30 3451 H 324.703 3.89557 -1.60696 0
M  V30 3452 H 323.427 3.21655 -0.566205 0
M  V30 3453 H 322.086 2.58227 -2.6022 0
M  V30 3454 H 321.734 4.8005 -1.50205 0
M  V30 3455 H 321.434 4.8916 -3.25571 0
M  V30 3456 H 322.958 5.53414 -2.58002 0
M  V30 3457 H 324.372 3.92271 -4.18086 0
M  V30 3458 H 322.769 3.51872 -4.86113 0
M  V30 3459 H 323.839 2.2157 -4.31317 0
M  V30 3460 N 325.182 1.32811 0.848464 0
M  V30 3461 C 326.114 1.18095 1.96433 0
M  V30 3462 C 327.127 0.114354 1.62398 0
M  V30 3463 O 328.316 0.363892 1.74751 0
M  V30 3464 C 325.416 0.786798 3.2964 0
M  V30 3465 C 324.589 1.943 3.91875 0
M  V30 3466 C 323.648 1.53138 5.03423 0
M  V30 3467 O 322.674 2.24432 5.23086 0
M  V30 3468 N 323.876 0.430915 5.78898 0
M  V30 3469 H 326.641 2.14218 2.09597 0
M  V30 3470 H 324.202 1.2543 1.02367 0
M  V30 3471 H 326.194 0.493715 4.01677 0
M  V30 3472 H 324.764 -0.0834541 3.12489 0
M  V30 3473 H 323.984 2.40224 3.12547 0
M  V30 3474 H 325.272 2.71689 4.30189 0
M  V30 3475 H 324.67 -0.162333 5.65467 0
M  V30 3476 H 323.227 0.197466 6.51501 0
M  V30 3477 N 326.66 -1.06551 1.16123 0
M  V30 3478 C 328.071 -1.60768 0.949232 0
M  V30 3479 C 328.422 -1.89523 -0.507508 0
M  V30 3480 O 327.547 -1.66671 -1.38021 0
M  V30 3481 C 328.142 -2.92086 1.71671 0
M  V30 3482 C 326.701 -3.43015 1.54977 0
M  V30 3483 C 325.848 -2.16947 1.72711 0
M  V30 3484 H 328.799 -0.895354 1.31031 0
M  V30 3485 H 328.82 -3.6138 1.19099 0
M  V30 3486 H 328.332 -2.71127 2.7769 0
M  V30 3487 H 326.433 -3.69039 0.513873 0
M  V30 3488 H 326.546 -4.18516 2.33198 0
M  V30 3489 H 324.91 -2.27041 1.15431 0
M  V30 3490 H 325.693 -1.98473 2.80113 0
M  V30 3491 O 328.177 -1.08916 -1.19246 0
M  V30 3492 H 328.868 -0.783022 -1.77168 0
M  V30 END ATOM
M  V30 BEGIN BOND
M  V30 END BOND
M  V30 END CTAB
M  END
$$$$
