drugbank_target|Q51705 Nitrous-oxide reductase (DB03151)
 OpenBabel12092120263D

  0  0  0     0  0            999 V3000
M  V30 BEGIN CTAB
M  V30 COUNTS 9859 9972 0 0 0
M  V30 BEGIN ATOM
M  V30 1 H -0.908 1.98254 -0.117106 0
M  V30 2 N 0 1.576 0 0
M  V30 3 C 0.933 2.03868 1.02534 0
M  V30 4 C 1.911 0.928543 1.3348 0
M  V30 5 O 3.095 1.19667 1.45644 0
M  V30 6 C 0.222 2.43627 2.35294 0
M  V30 7 C -0.732 3.65373 2.2001 0
M  V30 8 S 0.101 5.13292 1.52614 0
M  V30 9 C 1.257 5.56322 2.86805 0
M  V30 10 H 1.49 2.90518 0.631377 0
M  V30 11 H -0.977 1.52953 0.210867 0
M  V30 12 H 0.981 2.67203 3.11629 0
M  V30 13 H -0.358 1.57376 2.7183 0
M  V30 14 H -1.165 3.90944 3.18086 0
M  V30 15 H -1.563 3.418 1.51819 0
M  V30 16 H 0.729 5.58782 3.83104 0
M  V30 17 H 1.672 6.56266 2.65933 0
M  V30 18 H 2.08 4.83886 2.90714 0
M  V30 19 N 1.4781 -0.272755 1.55222 0
M  V30 20 C 2.3881 -1.35918 1.91216 0
M  V30 21 C 3.4041 -1.54026 0.809436 0
M  V30 22 O 4.5801 -1.68148 1.10852 0
M  V30 23 C 1.6451 -2.69834 2.17693 0
M  V30 24 C 0.7061 -2.6047 3.41253 0
M  V30 25 C -0.0609 -3.88 3.66458 0
M  V30 26 O 0.1621 -4.88693 2.94169 0
M  V30 27 O -0.9039 -3.88189 4.59992 0
M  V30 28 H 2.9221 -1.0839 2.83699 0
M  V30 29 H 0.5071 -0.471301 1.41771 0
M  V30 30 H 2.3891 -3.49017 2.36147 0
M  V30 31 H 1.0641 -2.97148 1.28392 0
M  V30 32 H -0.0289 -1.79663 3.28134 0
M  V30 33 H 1.3041 -2.38106 4.30774 0
M  V30 34 N 2.9562 -1.48159 -0.537278 0
M  V30 35 C 4.1812 -1.59707 -1.32319 0
M  V30 36 C 4.6062 -0.254859 -1.86365 0
M  V30 37 O 3.9642 0.772378 -1.64024 0
M  V30 38 C 4.0122 -2.6412 -2.45505 0
M  V30 39 O 3.1162 -2.20774 -3.48328 0
M  V30 40 H 2.4572 -0.535791 -0.392204 0
M  V30 41 H 4.9872 -1.94092 -0.647268 0
M  V30 42 H 4.9972 -2.85166 -2.91795 0
M  V30 43 H 3.6722 -3.61567 -2.05528 0
M  V30 44 H 2.2492 -2.09911 -3.08207 0
M  V30 45 N 4.4343 0.785586 -1.36625 0
M  V30 46 C 5.3813 1.89838 -1.31264 0
M  V30 47 C 6.3513 1.65115 -0.180633 0
M  V30 48 O 7.5363 1.87222 -0.36777 0
M  V30 49 C 4.6763 3.26706 -1.11163 0
M  V30 50 C 3.7893 3.63476 -2.33472 0
M  V30 51 C 2.9243 4.89481 -2.06353 0
M  V30 52 C 1.9633 5.18941 -3.24602 0
M  V30 53 N 1.1003 6.36131 -2.97123 0
M  V30 54 H 5.9403 1.93756 -2.26413 0
M  V30 55 H 3.4773 0.947454 -1.12524 0
M  V30 56 H 5.4353 4.05639 -0.975337 0
M  V30 57 H 4.0653 3.222 -0.196674 0
M  V30 58 H 3.1173 2.79636 -2.57891 0
M  V30 59 H 4.4293 3.81193 -3.21704 0
M  V30 60 H 3.5833 5.76288 -1.89675 0
M  V30 61 H 2.3223 4.73841 -1.15437 0
M  V30 62 H 1.3273 4.30615 -3.41834 0
M  V30 63 H 2.5523 5.36498 -4.16349 0
M  V30 64 H 0.4983 6.21875 -2.08823 0
M  V30 65 H 0.4153 6.54198 -3.78894 0
M  V30 66 H 1.6833 7.2591 -2.84033 0
M  V30 67 N 5.9124 1.20967 1.01018 0
M  V30 68 C 6.8444 0.922059 2.09835 0
M  V30 69 C 7.8574 -0.0927106 1.62536 0
M  V30 70 O 9.0464 0.139127 1.77957 0
M  V30 71 C 6.1464 0.362004 3.36961 0
M  V30 72 C 5.3194 1.42986 4.13369 0
M  V30 73 C 4.3784 0.879976 5.1879 0
M  V30 74 O 3.4044 1.56219 5.47343 0
M  V30 75 N 4.6064 -0.307396 5.79686 0
M  V30 76 H 7.3714 1.8588 2.35093 0
M  V30 77 H 4.9324 1.11422 1.1746 0
M  V30 78 H 6.9244 -0.0201474 4.04695 0
M  V30 79 H 5.4944 -0.479437 3.08902 0
M  V30 80 H 4.7144 1.98608 3.40512 0
M  V30 81 H 6.0024 2.14885 4.61196 0
M  V30 82 H 5.4004 -0.878796 5.58832 0
M  V30 83 H 3.9574 -0.631115 6.48737 0
M  V30 84 N 7.3905 -1.2043 1.01659 0
M  V30 85 C 8.3005 -2.2689 0.596484 0
M  V30 86 C 9.3165 -1.70107 -0.36599 0
M  V30 87 O 10.4925 -2.00117 -0.226942 0
M  V30 88 C 7.5575 -3.4665 -0.0586659 0
M  V30 89 C 6.6185 -4.18662 0.949751 0
M  V30 90 C 5.8515 -5.32705 0.32577 0
M  V30 91 O 6.0745 -5.63656 -0.874509 0
M  V30 92 O 5.0085 -5.92803 1.04249 0
M  V30 93 H 8.8345 -2.65041 1.4828 0
M  V30 94 H 6.4195 -1.27048 0.786082 0
M  V30 95 H 8.3015 -4.19256 -0.424564 0
M  V30 96 H 6.9765 -3.10375 -0.91918 0
M  V30 97 H 5.8835 -3.48229 1.36702 0
M  V30 98 H 7.2165 -4.58878 1.78023 0
M  V30 99 N 8.8686 -0.792821 -1.36206 0
M  V30 100 C 9.8156 -0.191653 -2.30003 0
M  V30 101 C 10.7856 0.666453 -1.52143 0
M  V30 102 O 11.9706 0.61442 -1.80636 0
M  V30 103 C 9.1106 0.664848 -3.38635 0
M  V30 104 C 8.2236 -0.212175 -4.31479 0
M  V30 105 C 7.3586 0.651022 -5.27196 0
M  V30 106 C 6.3976 -0.227247 -6.11678 0
M  V30 107 N 5.5346 0.595127 -6.99573 0
M  V30 108 H 10.3746 -0.996978 -2.80828 0
M  V30 109 H 7.9116 -0.503206 -1.38225 0
M  V30 110 H 9.8696 1.17645 -4.00269 0
M  V30 111 H 8.4996 1.43557 -2.89122 0
M  V30 112 H 7.5516 -0.841777 -3.70969 0
M  V30 113 H 8.8636 -0.888751 -4.90818 0
M  V30 114 H 8.0176 1.2283 -5.94136 0
M  V30 115 H 6.7566 1.36121 -4.68319 0
M  V30 116 H 5.7616 -0.816904 -5.43697 0
M  V30 117 H 6.9866 -0.93509 -6.72631 0
M  V30 118 H 4.9326 1.28955 -6.432 0
M  V30 119 H 4.8496 -0.0236952 -7.55996 0
M  V30 120 H 6.1176 1.15613 -7.70879 0
M  V30 121 N 10.3467 1.47872 -0.545128 0
M  V30 122 C 11.5947 2.02093 -0.016553 0
M  V30 123 C 11.9157 1.42305 1.3332 0
M  V30 124 O 11.1857 0.593853 1.86682 0
M  V30 125 H 9.7657 0.746993 -0.00313038 0
M  V30 126 H 12.4277 1.81414 -0.712397 0
M  V30 127 H 11.5237 3.11996 0.0805422 0
M  V30 128 N 11.8248 0.280983 1.55075 0
M  V30 129 C 12.7548 -0.597469 2.25727 0
M  V30 130 C 13.7358 -1.15417 1.24952 0
M  V30 131 O 14.9208 -1.18722 1.53684 0
M  V30 132 C 12.0508 -1.7789 2.98283 0
M  V30 133 C 11.0048 -1.35347 4.06036 0
M  V30 134 C 10.3308 -2.61846 4.66198 0
M  V30 135 C 11.6308 -0.499354 5.19907 0
M  V30 136 H 13.3248 -0.00824265 2.99399 0
M  V30 137 H 10.8708 -0.0025244 1.44 0
M  V30 138 H 12.8238 -2.39937 3.46422 0
M  V30 139 H 11.5478 -2.39405 2.22155 0
M  V30 140 H 10.2068 -0.756156 3.58717 0
M  V30 141 H 9.8548 -3.21632 3.86732 0
M  V30 142 H 9.5548 -2.3409 5.38958 0
M  V30 143 H 11.0788 -3.24732 5.1709 0
M  V30 144 H 12.4928 -1.02498 5.64063 0
M  V30 145 H 10.8898 -0.316424 5.99265 0
M  V30 146 H 11.9598 0.480459 4.82514 0
M  V30 147 N 13.3029 -1.57598 0.00835791 0
M  V30 148 C 14.5279 -1.95617 -0.689103 0
M  V30 149 C 14.9529 -0.883753 -1.66046 0
M  V30 150 O 14.3109 0.157352 -1.80616 0
M  V30 151 C 14.3589 -3.32736 -1.38994 0
M  V30 152 O 13.4629 -3.27631 -2.50463 0
M  V30 153 H 12.8039 -0.638379 -0.182668 0
M  V30 154 H 15.3339 -2.045 0.064036 0
M  V30 155 H 15.3439 -3.68494 -1.75147 0
M  V30 156 H 14.0189 -4.1034 -0.677778 0
M  V30 157 H 12.5959 -3.03561 -2.16576 0
M  V30 158 N 14.781 0.264519 -1.55364 0
M  V30 159 C 16.197 0.61215 -1.47394 0
M  V30 160 C 16.397 1.89134 -0.695018 0
M  V30 161 O 15.453 2.51563 -0.217275 0
M  V30 162 C 16.766 0.731235 -2.91674 0
M  V30 163 C 18.314 0.82473 -3.01939 0
M  V30 164 C 18.789 0.975522 -4.4749 0
M  V30 165 N 20.28 1.04083 -4.51354 0
M  V30 166 C 21.015 1.17646 -5.61201 0
M  V30 167 N 20.511 1.27874 -6.80896 0
M  V30 168 N 22.304 1.20823 -5.48961 0
M  V30 169 H 14.455 -0.575456 -2.04456 0
M  V30 170 H 16.718 -0.196099 -0.927496 0
M  V30 171 H 16.424 -0.138392 -3.51428 0
M  V30 172 H 16.298 1.60883 -3.41169 0
M  V30 173 H 18.685 1.68482 -2.42276 0
M  V30 174 H 18.766 -0.0776479 -2.55682 0
M  V30 175 H 18.41 0.120058 -5.07758 0
M  V30 176 H 18.34 1.89268 -4.91412 0
M  V30 177 H 20.831 0.973846 -3.65136 0
M  V30 178 H 21.144 1.38081 -7.60364 0
M  V30 179 H 19.489 1.24863 -6.83692 0
M  V30 180 H 22.68 1.12469 -4.54388 0
M  V30 181 H 22.853 1.31049 -6.3461 0
M  V30 182 N 16.2591 1.48442 0.529413 0
M  V30 183 C 17.6751 1.34575 0.858004 0
M  V30 184 C 17.8751 0.3572 1.98309 0
M  V30 185 O 16.9311 -0.221379 2.51528 0
M  V30 186 C 18.2441 2.74617 1.22499 0
M  V30 187 C 19.7921 2.83109 1.33484 0
M  V30 188 C 20.2671 4.23854 1.73526 0
M  V30 189 N 21.7581 4.2653 1.80628 0
M  V30 190 C 22.4931 5.32372 2.12997 0
M  V30 191 N 21.9891 6.48491 2.43786 0
M  V30 192 N 23.7821 5.19766 2.14008 0
M  V30 193 H 15.9331 2.1133 -0.212925 0
M  V30 194 H 18.1961 0.947439 -0.0326199 0
M  V30 195 H 17.9021 3.4852 0.471905 0
M  V30 196 H 17.7761 3.08177 2.17501 0
M  V30 197 H 20.1631 2.09462 2.0787 0
M  V30 198 H 20.2441 2.53168 0.366027 0
M  V30 199 H 19.8881 4.98018 0.997013 0
M  V30 200 H 19.8181 4.5124 2.71459 0
M  V30 201 H 22.3091 3.42772 1.59108 0
M  V30 202 H 22.6221 7.24993 2.67592 0
M  V30 203 H 20.9671 6.51765 2.41304 0
M  V30 204 H 24.1581 4.28066 1.89412 0
M  V30 205 H 24.3311 6.02354 2.38902 0
M  V30 206 N 17.7372 -0.778329 1.37039 0
M  V30 207 C 18.7002 -1.87301 1.32102 0
M  V30 208 C 19.7002 -1.59198 0.226405 0
M  V30 209 O 20.8902 -1.67403 0.481861 0
M  V30 210 C 18.0222 -3.24309 1.05055 0
M  V30 211 H 19.2152 -1.93093 2.29467 0
M  V30 212 H 16.7682 -0.977358 1.21973 0
M  V30 213 H 17.5032 -3.24196 0.0819373 0
M  V30 214 H 17.2882 -3.46098 1.84279 0
M  V30 215 H 18.7782 -4.04382 1.04234 0
M  V30 216 N 19.2153 -1.21501 -1.00376 0
M  V30 217 C 20.1453 -0.999478 -2.11028 0
M  V30 218 C 21.1263 0.0759671 -1.6993 0
M  V30 219 O 22.3113 -0.0841106 -1.94018 0
M  V30 220 C 19.4413 -0.564709 -3.42678 0
M  V30 221 C 18.3953 -1.58486 -3.97576 0
M  V30 222 C 17.7213 -1.00628 -5.25146 0
M  V30 223 C 19.0213 -2.97204 -4.29496 0
M  V30 224 H 20.7153 -1.92495 -2.29317 0
M  V30 225 H 18.2613 -0.92693 -1.102 0
M  V30 226 H 20.2143 -0.401091 -4.19487 0
M  V30 227 H 18.9383 0.396411 -3.24185 0
M  V30 228 H 17.5973 -1.73606 -3.22888 0
M  V30 229 H 17.2453 -0.0368439 -5.02987 0
M  V30 230 H 16.9453 -1.68771 -5.62841 0
M  V30 231 H 18.4693 -0.854015 -6.04598 0
M  V30 232 H 19.8833 -2.8552 -4.97143 0
M  V30 233 H 18.2803 -3.62372 -4.78338 0
M  V30 234 H 19.3503 -3.47956 -3.3772 0
M  V30 235 N 20.6934 1.19889 -1.02296 0
M  V30 236 C 21.6234 2.25141 -0.619174 0
M  V30 237 C 22.6044 1.66051 0.368915 0
M  V30 238 O 23.7894 1.92546 0.252941 0
M  V30 239 C 20.9194 3.4728 0.0368783 0
M  V30 240 C 19.8734 4.19005 -0.872865 0
M  V30 241 C 19.1994 5.34637 -0.0822402 0
M  V30 242 C 20.4994 4.74452 -2.18387 0
M  V30 243 H 22.1934 2.59171 -1.49903 0
M  V30 244 H 19.7394 1.24579 -0.722222 0
M  V30 245 H 21.6924 4.20098 0.330958 0
M  V30 246 H 20.4164 3.12433 0.95149 0
M  V30 247 H 19.0754 3.48061 -1.15105 0
M  V30 248 H 18.7234 4.96034 0.83422 0
M  V30 249 H 18.4234 5.83557 -0.688149 0
M  V30 250 H 19.9474 6.10255 0.205238 0
M  V30 251 H 21.3614 5.39055 -1.95172 0
M  V30 252 H 19.7584 5.33834 -2.74119 0
M  V30 253 H 20.8284 3.92844 -2.84257 0
M  V30 254 N 22.1715 0.800033 1.35784 0
M  V30 255 C 23.4195 0.376597 1.9856 0
M  V30 256 C 23.7405 -1.05812 1.63795 0
M  V30 257 O 23.0105 -1.73103 0.917171 0
M  V30 258 H 21.5905 0.136261 0.734467 0
M  V30 259 H 24.2525 1.02442 1.65806 0
M  V30 260 H 23.3485 0.477002 3.08433 0
M  V30 261 N 23.6496 -1.47581 0.552962 0
M  V30 262 C 24.6126 -2.28439 -0.186605 0
M  V30 263 C 25.6126 -1.36706 -0.84665 0
M  V30 264 O 26.8026 -1.59378 -0.703164 0
M  V30 265 C 23.9346 -3.16264 -1.2724 0
M  V30 266 H 25.1276 -2.95294 0.523609 0
M  V30 267 H 22.6806 -1.532 0.309745 0
M  V30 268 H 23.4156 -2.54091 -2.01514 0
M  V30 269 H 23.2006 -3.83769 -0.803968 0
M  V30 270 H 24.6906 -3.77198 -1.79196 0
M  V30 271 N 25.1277 -0.289203 -1.54924 0
M  V30 272 C 26.3557 0.326463 -2.04308 0
M  V30 273 C 26.7707 1.48413 -1.16701 0
M  V30 274 O 26.1277 1.81507 -0.190087 0
M  V30 275 C 26.1787 0.794014 -3.52672 0
M  V30 276 O 25.8997 -0.317564 -4.36948 0
M  V30 277 C 27.4007 1.47605 -4.18004 0
M  V30 278 H 24.6207 0.0726272 -0.667058 0
M  V30 279 H 27.1647 -0.425401 -2.00026 0
M  V30 280 H 25.3197 1.49593 -3.57352 0
M  V30 281 H 25.7337 0.0443186 -5.24481 0
M  V30 282 H 27.2077 1.75447 -5.23376 0
M  V30 283 H 27.6847 2.41224 -3.67025 0
M  V30 284 H 28.2907 0.81762 -4.17367 0
M  V30 285 N 26.6058 1.57591 -0.0167156 0
M  V30 286 C 27.5688 2.08393 0.954204 0
M  V30 287 C 28.5688 0.996531 1.26198 0
M  V30 288 O 29.7588 1.25858 1.20438 0
M  V30 289 C 26.8908 2.5394 2.27436 0
M  V30 290 H 28.0838 2.95455 0.514451 0
M  V30 291 H 25.6368 1.54582 0.231089 0
M  V30 292 H 26.3718 1.70171 2.76066 0
M  V30 293 H 26.1568 3.33371 2.06412 0
M  V30 294 H 27.6468 2.93512 2.97053 0
M  V30 295 N 28.0839 -0.256276 1.55502 0
M  V30 296 C 29.3319 -0.983672 1.76545 0
M  V30 297 C 29.6529 -1.86206 0.578982 0
M  V30 298 O 28.9229 -1.91656 -0.405577 0
M  V30 299 H 27.5029 -0.366191 0.651086 0
M  V30 300 H 30.1649 -0.276479 1.92929 0
M  V30 301 H 29.2609 -1.61087 2.67315 0
M  V30 302 N 29.562 -1.4872 -0.521534 0
M  V30 303 C 30.81 -1.56857 -1.27437 0
M  V30 304 C 31.131 -0.247982 -1.93417 0
M  V30 305 O 30.401 0.731151 -1.81744 0
M  V30 306 H 28.981 -0.577885 -0.473347 0
M  V30 307 H 31.643 -1.85233 -0.606205 0
M  V30 308 H 30.739 -2.35402 -2.0492 0
M  V30 309 N 31.0401 0.771051 -1.3745 0
M  V30 310 C 32.0031 1.86598 -1.33093 0
M  V30 311 C 33.0031 1.59076 -0.234845 0
M  V30 312 O 34.1931 1.67145 -0.490732 0
M  V30 313 C 31.3251 3.23747 -1.06773 0
M  V30 314 H 32.5181 1.91873 -2.30488 0
M  V30 315 H 30.0711 0.970876 -1.2249 0
M  V30 316 H 30.8061 3.24148 -0.099129 0
M  V30 317 H 30.5911 3.45115 -1.86112 0
M  V30 318 H 32.0811 4.03824 -1.06377 0
M  V30 319 N 32.5182 1.22032 0.997298 0
M  V30 320 C 33.4812 0.987909 2.06816 0
M  V30 321 C 34.4812 -0.0440084 1.6074 0
M  V30 322 O 35.6712 0.194053 1.73116 0
M  V30 323 C 32.8032 0.49132 3.37341 0
M  V30 324 H 33.9962 1.93803 2.28868 0
M  V30 325 H 31.5492 1.03838 1.16822 0
M  V30 326 H 32.2842 -0.463364 3.20973 0
M  V30 327 H 32.0692 1.23575 3.72118 0
M  V30 328 H 33.5592 0.348824 4.16141 0
M  V30 329 N 33.9963 -1.19345 1.0293 0
M  V30 330 C 35.2423 -1.89318 0.727083 0
M  V30 331 C 35.5753 -1.79446 -0.742483 0
M  V30 332 O 34.8503 -1.1871 -1.54072 0
M  V30 333 C 35.1333 -3.40238 1.17942 0
M  V30 334 C 34.9863 -3.58979 2.71024 0
M  V30 335 C 36.3053 -4.33479 0.760548 0
M  V30 336 H 33.4243 -0.687475 0.265606 0
M  V30 337 H 36.0663 -1.40477 1.2793 0
M  V30 338 H 34.2163 -3.81964 0.709608 0
M  V30 339 H 35.8883 -3.26421 3.25955 0
M  V30 340 H 34.1313 -3.02018 3.11396 0
M  V30 341 H 34.8023 -4.64823 2.9773 0
M  V30 342 H 37.2783 -3.99469 1.16464 0
M  V30 343 H 36.1543 -5.37664 1.10493 0
M  V30 344 H 36.4153 -4.40813 -0.337063 0
M  V30 345 N 35.4744 -0.807222 -1.35358 0
M  V30 346 C 36.4374 -0.223665 -2.28106 0
M  V30 347 C 37.4374 0.589354 -1.4961 0
M  V30 348 O 38.6274 0.407745 -1.69361 0
M  V30 349 C 35.7594 0.688149 -3.33882 0
M  V30 350 H 36.9524 -1.04169 -2.81227 0
M  V30 351 H 34.5054 -0.577921 -1.45223 0
M  V30 352 H 35.2404 1.52984 -2.85948 0
M  V30 353 H 35.0254 0.10687 -3.91954 0
M  V30 354 H 36.5154 1.09075 -4.03104 0
M  V30 355 N 36.9525 1.47285 -0.560781 0
M  V30 356 C 38.2005 2.02064 -0.0379868 0
M  V30 357 C 38.5215 1.43711 1.31803 0
M  V30 358 O 37.7915 0.61362 1.86042 0
M  V30 359 H 36.3715 0.746918 -0.0110531 0
M  V30 360 H 39.0335 1.80648 -0.731598 0
M  V30 361 H 38.1295 3.12064 0.0474463 0
M  V30 362 N 38.4306 0.297415 1.54768 0
M  V30 363 C 39.3936 -0.567375 2.22066 0
M  V30 364 C 40.3936 -1.06409 1.20556 0
M  V30 365 O 41.5836 -0.960691 1.45315 0
M  V30 366 C 38.7156 -1.78517 2.90421 0
M  V30 367 H 39.9086 0.0205534 2.99893 0
M  V30 368 H 37.4616 0.0482163 1.56226 0
M  V30 369 H 38.1966 -2.41303 2.16664 0
M  V30 370 H 37.9816 -1.43669 3.64831 0
M  V30 371 H 39.4716 -2.39964 3.41771 0
M  V30 372 N 39.9087 -1.5758 0.0250728 0
M  V30 373 C 41.1557 -1.91633 -0.654444 0
M  V30 374 C 41.4837 -0.901103 -1.72367 0
M  V30 375 O 40.7387 0.0905647 -1.9549 0
M  V30 376 C 41.0377 -3.32421 -1.31268 0
M  V30 377 C 40.7037 -4.49344 -0.374223 0
M  V30 378 C 39.3657 -4.8106 -0.115911 0
M  V30 379 C 41.7177 -5.20498 0.270432 0
M  V30 380 C 39.0457 -5.8129 0.79493 0
M  V30 381 C 41.3977 -6.21699 1.1693 0
M  V30 382 C 40.0617 -6.51859 1.43655 0
M  V30 383 H 39.3317 -0.701236 -0.239478 0
M  V30 384 H 41.9787 -1.91307 0.0859734 0
M  V30 385 H 40.2837 -3.28989 -2.12775 0
M  V30 386 H 41.9807 -3.56038 -1.84494 0
M  V30 387 H 38.5707 -4.24579 -0.58573 0
M  V30 388 H 42.7547 -4.96229 0.0839194 0
M  V30 389 H 38.0107 -6.03005 1.00973 0
M  V30 390 H 42.1847 -6.75955 1.67504 0
M  V30 391 H 39.8117 -7.2934 2.144 0
M  V30 392 N 41.3868 0.248026 -1.55636 0
M  V30 393 C 42.6348 0.974295 -1.77065 0
M  V30 394 C 42.9558 1.85897 -0.588849 0
M  V30 395 O 42.2258 1.91868 0.395407 0
M  V30 396 H 40.8058 0.362733 -0.653019 0
M  V30 397 H 43.4678 0.266244 -1.93073 0
M  V30 398 H 42.5638 1.59667 -2.68166 0
M  V30 399 N 42.8649 1.48995 0.513639 0
M  V30 400 C 44.1129 1.57531 1.26604 0
M  V30 401 C 44.4339 0.258236 1.93283 0
M  V30 402 O 43.7039 -0.721502 1.8213 0
M  V30 403 H 42.2839 0.580387 0.470276 0
M  V30 404 H 44.9459 1.85552 0.596373 0
M  V30 405 H 44.0419 2.36486 2.03669 0
M  V30 406 N 44.343 -0.763751 1.37857 0
M  V30 407 C 45.759 -1.06542 1.18832 0
M  V30 408 C 45.959 -2.01478 0.0299722 0
M  V30 409 O 45.015 -2.4458 -0.627447 0
M  V30 410 C 46.328 -1.65525 2.51042 0
M  V30 411 C 47.876 -1.77745 2.57635 0
M  V30 412 C 48.351 -2.4014 3.89996 0
M  V30 413 N 49.842 -2.47582 3.91481 0
M  V30 414 C 50.577 -2.96732 4.9065 0
M  V30 415 N 50.073 -3.45993 6.00217 0
M  V30 416 N 51.866 -2.95679 4.78048 0
M  V30 417 H 44.017 -0.133556 2.1198 0
M  V30 418 H 46.28 -0.121879 0.940133 0
M  V30 419 H 45.986 -1.03236 3.36207 0
M  V30 420 H 45.86 -2.64719 2.68707 0
M  V30 421 H 48.247 -2.39164 1.72872 0
M  V30 422 H 48.328 -0.772836 2.43846 0
M  V30 423 H 47.972 -1.79358 4.75177 0
M  V30 424 H 47.902 -3.41223 4.01092 0
M  V30 425 H 50.393 -2.1273 3.12337 0
M  V30 426 H 50.706 -3.81922 6.7183 0
M  V30 427 H 49.051 -3.44077 6.03851 0
M  V30 428 H 52.242 -2.56499 3.91568 0
M  V30 429 H 52.415 -3.33672 5.55488 0
M  V30 430 N 45.8211 -1.22559 -0.990812 0
M  V30 431 C 46.7511 -1.0218 -2.09956 0
M  V30 432 C 47.7321 0.0579394 -1.70001 0
M  V30 433 O 48.9171 -0.104684 -1.93918 0
M  V30 434 C 46.0471 -0.601023 -3.4206 0
M  V30 435 C 45.0011 -1.62694 -3.95872 0
M  V30 436 C 44.3271 -1.06193 -5.24049 0
M  V30 437 C 45.6271 -3.01743 -4.2632 0
M  V30 438 H 47.3211 -1.94916 -2.27262 0
M  V30 439 H 44.8671 -0.938566 -1.09211 0
M  V30 440 H 46.8201 -0.445561 -4.19038 0
M  V30 441 H 45.5441 0.362005 -3.24588 0
M  V30 442 H 44.2031 -1.77021 -3.21028 0
M  V30 443 H 43.8511 -0.0901903 -5.02919 0
M  V30 444 H 43.5511 -1.74732 -5.61019 0
M  V30 445 H 45.0751 -0.918092 -6.03658 0
M  V30 446 H 46.4891 -2.90777 -4.94087 0
M  V30 447 H 44.8861 -3.67425 -4.74467 0
M  V30 448 H 45.9561 -3.51518 -3.34011 0
M  V30 449 N 47.2992 1.18797 -1.03562 0
M  V30 450 C 48.2622 2.20464 -0.626769 0
M  V30 451 C 49.2622 1.57721 0.313173 0
M  V30 452 O 50.4522 1.73917 0.0992615 0
M  V30 453 C 47.5842 3.40802 0.0818498 0
M  V30 454 H 48.7772 2.58149 -1.5264 0
M  V30 455 H 46.3302 1.32593 -0.827578 0
M  V30 456 H 47.0652 3.08642 0.995518 0
M  V30 457 H 46.8502 3.8758 -0.593652 0
M  V30 458 H 48.3402 4.16092 0.354584 0
M  V30 459 N 48.7773 0.814389 1.34928 0
M  V30 460 C 49.7073 0.244827 2.32213 0
M  V30 461 C 50.6883 -0.634024 1.57842 0
M  V30 462 O 51.8733 -0.562676 1.8587 0
M  V30 463 C 49.0033 -0.601106 3.42058 0
M  V30 464 C 47.9573 0.179896 4.27622 0
M  V30 465 C 47.2833 -0.788237 5.28858 0
M  V30 466 C 48.5833 1.38329 5.03649 0
M  V30 467 H 50.2773 1.05763 2.80097 0
M  V30 468 H 47.8233 0.510029 1.34665 0
M  V30 469 H 49.7763 -1.00968 4.09125 0
M  V30 470 H 48.5003 -1.44688 2.92802 0
M  V30 471 H 47.1593 0.569739 3.62146 0
M  V30 472 H 46.8073 -1.62973 4.75866 0
M  V30 473 H 46.5073 -0.269942 5.8698 0
M  V30 474 H 48.0313 -1.19485 5.98795 0
M  V30 475 H 49.4453 1.04918 5.63618 0
M  V30 476 H 47.8423 1.83662 5.71304 0
M  V30 477 H 48.9123 2.16592 4.33839 0
M  V30 478 N 50.2554 -1.46986 0.568584 0
M  V30 479 C 51.5034 -2.02041 0.0487022 0
M  V30 480 C 51.8244 -1.44408 -1.31039 0
M  V30 481 O 51.0944 -0.623477 -1.85714 0
M  V30 482 H 49.6744 -0.746849 0.015014 0
M  V30 483 H 52.3364 -1.80257 0.741168 0
M  V30 484 H 51.4324 -3.12085 -0.0308961 0
M  V30 485 N 51.7335 -0.305618 -1.54608 0
M  V30 486 C 53.1445 0.186098 -1.8577 0
M  V30 487 C 53.4955 1.53058 -1.22751 0
M  V30 488 O 52.6205 2.09888 -0.526893 0
M  V30 489 C 53.2155 0.344449 -3.37044 0
M  V30 490 C 51.7745 0.780384 -3.68221 0
M  V30 491 C 50.9215 -0.108554 -2.77087 0
M  V30 492 H 53.8725 -0.526485 -1.49712 0
M  V30 493 H 53.8935 1.17828 -3.61796 0
M  V30 494 H 53.4055 -0.634235 -3.82883 0
M  V30 495 H 51.5065 1.76945 -3.27904 0
M  V30 496 H 51.6195 0.596572 -4.75371 0
M  V30 497 H 49.9835 0.412931 -2.5133 0
M  V30 498 H 50.7665 -1.08368 -3.25747 0
M  V30 499 N 53.2116 1.57565 -0.0334293 0
M  V30 500 C 54.1746 2.09393 0.932048 0
M  V30 501 C 55.1746 1.00986 1.25134 0
M  V30 502 O 56.3646 1.27129 1.19096 0
M  V30 503 C 53.4966 2.56338 2.2473 0
M  V30 504 H 54.6896 2.95984 0.483085 0
M  V30 505 H 52.2426 1.54819 0.21468 0
M  V30 506 H 52.9776 1.7309 2.74245 0
M  V30 507 H 52.7626 3.35542 2.02865 0
M  V30 508 H 54.2526 2.96646 2.93923 0
M  V30 509 N 54.6897 -0.239769 1.55765 0
M  V30 510 C 55.6527 -1.28038 1.90103 0
M  V30 511 C 56.6527 -1.40723 0.778055 0
M  V30 512 O 57.8427 -1.39301 1.04599 0
M  V30 513 C 54.9747 -2.65702 2.13577 0
M  V30 514 H 56.1677 -0.988048 2.83157 0
M  V30 515 H 53.7207 -0.479382 1.48767 0
M  V30 516 H 54.4557 -3.00063 1.23015 0
M  V30 517 H 54.2407 -2.57875 2.95369 0
M  V30 518 H 55.7307 -3.40828 2.41301 0
M  V30 519 N 56.1678 -1.49265 -0.50573 0
M  V30 520 C 57.0978 -1.68495 -1.61653 0
M  V30 521 C 58.0788 -0.53366 -1.61512 0
M  V30 522 O 59.2638 -0.76897 -1.78327 0
M  V30 523 C 56.3938 -1.74709 -3.00157 0
M  V30 524 C 55.3478 -2.89581 -3.15162 0
M  V30 525 C 54.6738 -2.80903 -4.5497 0
M  V30 526 C 55.9738 -4.30578 -2.95634 0
M  V30 527 H 57.6678 -2.61493 -1.45814 0
M  V30 528 H 55.2138 -1.25838 -0.70005 0
M  V30 529 H 57.1668 -1.86748 -3.77761 0
M  V30 530 H 55.8908 -0.783067 -3.17074 0
M  V30 531 H 54.5498 -2.77136 -2.39982 0
M  V30 532 H 54.1978 -1.82419 -4.68756 0
M  V30 533 H 53.8978 -3.57999 -4.65951 0
M  V30 534 H 55.4218 -2.94944 -5.34641 0
M  V30 535 H 56.8358 -4.4373 -3.63011 0
M  V30 536 H 55.2328 -5.0886 -3.18091 0
M  V30 537 H 56.3028 -4.45352 -1.91806 0
M  V30 538 N 57.6459 0.756429 -1.3826 0
M  V30 539 C 58.8939 1.51248 -1.34047 0
M  V30 540 C 59.2149 1.94875 0.0698372 0
M  V30 541 O 58.4849 1.67436 1.01696 0
M  V30 542 H 57.0649 0.561018 -0.493222 0
M  V30 543 H 59.7269 0.899347 -1.7291 0
M  V30 544 H 58.8229 2.40472 -1.98947 0
M  V30 545 N 59.124 1.23083 0.984299 0
M  V30 546 C 60.054 1.03292 2.09411 0
M  V30 547 C 61.035 -0.048923 1.7003 0
M  V30 548 O 62.22 0.114967 1.93859 0
M  V30 549 C 59.35 0.619155 3.41736 0
M  V30 550 C 58.304 1.64791 3.95004 0
M  V30 551 C 57.63 1.0897 5.23478 0
M  V30 552 C 58.93 3.03999 4.24714 0
M  V30 553 H 60.624 1.96119 2.26225 0
M  V30 554 H 58.17 0.944344 1.08711 0
M  V30 555 H 60.123 0.467777 4.18796 0
M  V30 556 H 58.847 -0.344786 3.24775 0
M  V30 557 H 57.506 1.78721 3.20085 0
M  V30 558 H 57.154 0.11686 5.02864 0
M  V30 559 H 56.854 1.77704 5.60085 0
M  V30 560 H 58.378 0.950093 6.03163 0
M  V30 561 H 59.792 2.93393 4.92538 0
M  V30 562 H 58.189 3.69936 4.72512 0
M  V30 563 H 59.259 3.53285 3.32142 0
M  V30 564 N 60.6021 -1.18246 1.0419 0
M  V30 565 C 61.8501 -1.87886 0.744543 0
M  V30 566 C 62.1711 -1.8082 -0.730006 0
M  V30 567 O 61.4411 -1.22736 -1.52685 0
M  V30 568 H 60.0211 -0.695556 0.272417 0
M  V30 569 H 62.6831 -1.43494 1.31892 0
M  V30 570 H 61.7791 -2.9389 1.05049 0
M  V30 571 N 62.0802 -0.821533 -1.34494 0
M  V30 572 C 63.3082 -0.421884 -2.02553 0
M  V30 573 C 63.7232 0.971745 -1.61872 0
M  V30 574 O 63.0802 1.62864 -0.823496 0
M  V30 575 C 63.1312 -0.51285 -3.57844 0
M  V30 576 O 62.8522 -1.85155 -3.97051 0
M  V30 577 C 64.3532 -0.107921 -4.43169 0
M  V30 578 H 61.5732 -0.169482 -0.649243 0
M  V30 579 H 64.1172 -1.1093 -1.71798 0
M  V30 580 H 62.2722 0.126474 -3.87193 0
M  V30 581 H 62.6862 -1.82482 -4.91732 0
M  V30 582 H 64.1602 -0.222657 -5.51551 0
M  V30 583 H 64.6372 0.948401 -4.28838 0
M  V30 584 H 65.2432 -0.720989 -4.19144 0
M  V30 585 N 63.5583 1.46682 -0.576371 0
M  V30 586 C 64.5213 2.28707 0.150239 0
M  V30 587 C 65.5213 1.38035 0.824794 0
M  V30 588 O 66.7113 1.60476 0.677719 0
M  V30 589 C 63.8433 3.18248 1.22192 0
M  V30 590 H 65.0363 2.94423 -0.570521 0
M  V30 591 H 62.5893 1.52688 -0.334078 0
M  V30 592 H 63.3243 2.57265 1.97447 0
M  V30 593 H 63.1093 3.85 0.742812 0
M  V30 594 H 64.5993 3.80001 1.73172 0
M  V30 595 N 65.0364 0.313813 1.54444 0
M  V30 596 C 66.2844 -0.291099 1.99993 0
M  V30 597 C 66.6054 -1.53418 1.20366 0
M  V30 598 O 65.8754 -1.93544 0.302927 0
M  V30 599 H 64.4554 -0.110552 0.738774 0
M  V30 600 H 67.1174 0.428106 1.9014 0
M  V30 601 H 66.2134 -0.554268 3.07139 0
M  V30 602 N 66.5145 -1.57545 0.0417849 0
M  V30 603 C 67.7605 -1.92601 -0.635021 0
M  V30 604 C 68.0935 -0.919627 -1.71045 0
M  V30 605 O 67.3685 0.0557892 -1.9442 0
M  V30 606 C 67.6515 -3.38085 -1.23979 0
M  V30 607 C 67.5045 -4.49467 -0.173057 0
M  V30 608 C 68.8235 -3.83776 -2.15416 0
M  V30 609 H 65.9425 -0.700397 -0.229374 0
M  V30 610 H 68.5845 -1.89728 0.101633 0
M  V30 611 H 66.7345 -3.40664 -1.86762 0
M  V30 612 H 68.4065 -4.59018 0.458312 0
M  V30 613 H 66.6495 -4.30909 0.499996 0
M  V30 614 H 67.3205 -5.48323 -0.636054 0
M  V30 615 H 69.7965 -3.83013 -1.62605 0
M  V30 616 H 68.6725 -4.8624 -2.54679 0
M  V30 617 H 68.9335 -3.19998 -3.05047 0
M  V30 618 N 67.9926 0.231505 -1.5589 0
M  V30 619 C 68.9556 1.27028 -1.90779 0
M  V30 620 C 69.9556 1.40308 -0.785507 0
M  V30 621 O 71.1456 1.38744 -1.05336 0
M  V30 622 C 68.2776 2.64566 -2.14983 0
M  V30 623 H 69.4706 0.973017 -2.83677 0
M  V30 624 H 67.0236 0.471486 -1.49019 0
M  V30 625 H 67.7586 2.99406 -1.24604 0
M  V30 626 H 67.5436 2.56305 -2.96732 0
M  V30 627 H 69.0336 3.39543 -2.43105 0
M  V30 628 N 69.4707 1.49531 0.497807 0
M  V30 629 C 70.6987 1.62893 1.27567 0
M  V30 630 C 71.1137 0.301585 1.86376 0
M  V30 631 O 70.4707 -0.713335 1.67982 0
M  V30 632 C 70.5217 2.70013 2.40364 0
M  V30 633 O 70.2427 3.976 1.83972 0
M  V30 634 C 71.7437 2.94109 3.31685 0
M  V30 635 H 68.9637 0.548298 0.386794 0
M  V30 636 H 71.5077 1.95584 0.597245 0
M  V30 637 H 69.6627 2.40092 3.04031 0
M  V30 638 H 70.0767 4.56631 2.58047 0
M  V30 639 H 71.5507 3.72788 4.07104 0
M  V30 640 H 72.0277 2.04147 3.88871 0
M  V30 641 H 72.6337 3.2546 2.73781 0
M  V30 642 N 70.9488 -0.749086 1.3866 0
M  V30 643 C 72.1948 -1.51056 1.35314 0
M  V30 644 C 72.5278 -1.94121 -0.0553751 0
M  V30 645 O 71.8028 -1.65763 -1.01749 0
M  V30 646 C 72.0858 -2.76003 2.31288 0
M  V30 647 C 71.9388 -2.39047 3.8102 0
M  V30 648 C 73.2578 -3.78046 2.2532 0
M  V30 649 H 70.3768 -0.547972 0.492844 0
M  V30 650 H 73.0188 -0.857628 1.69543 0
M  V30 651 H 71.1688 -3.31716 2.02229 0
M  V30 652 H 72.8408 -1.89074 4.20771 0
M  V30 653 H 71.0838 -1.71449 3.98482 0
M  V30 654 H 71.7548 -3.28462 4.4364 0
M  V30 655 H 74.2308 -3.31884 2.50983 0
M  V30 656 H 73.1068 -4.63159 2.94576 0
M  V30 657 H 73.3678 -4.23957 1.25352 0
M  V30 658 N 72.4269 -1.23603 -0.977757 0
M  V30 659 C 73.3899 -1.02069 -2.05218 0
M  V30 660 C 74.3899 0.0184305 -1.60789 0
M  V30 661 O 75.5799 -0.221569 -1.72785 0
M  V30 662 C 72.7119 -0.544926 -3.36517 0
M  V30 663 H 73.9049 -1.9742 -2.25755 0
M  V30 664 H 71.4579 -1.05684 -1.15155 0
M  V30 665 H 72.1929 0.412241 -3.21669 0
M  V30 666 H 71.9779 -1.2948 -3.70105 0
M  V30 667 H 73.4679 -0.414985 -4.15533 0
M  V30 668 N 73.905 1.17692 -1.04816 0
M  V30 669 C 75.153 1.87488 -0.754497 0
M  V30 670 C 75.474 1.81205 0.720407 0
M  V30 671 O 74.744 1.23544 1.52032 0
M  V30 672 H 73.324 0.694101 -0.276102 0
M  V30 673 H 75.986 1.42793 -1.32651 0
M  V30 674 H 75.082 2.93328 -1.06606 0
M  V30 675 N 75.3831 0.828654 1.34056 0
M  V30 676 C 76.6081 0.431637 2.02859 0
M  V30 677 C 77.0331 -0.956339 1.61975 0
M  V30 678 O 76.3911 -1.62338 0.807228 0
M  V30 679 C 76.4391 0.548323 3.56407 0
M  V30 680 O 75.5431 -0.429556 4.10157 0
M  V30 681 H 74.8841 0.176886 0.640006 0
M  V30 682 H 77.4141 1.12066 1.71179 0
M  V30 683 H 77.4241 0.426196 4.05768 0
M  V30 684 H 76.0991 1.5606 3.8551 0
M  V30 685 H 74.6761 -0.265836 3.71951 0
M  V30 686 N 76.8612 -1.46375 0.584142 0
M  V30 687 C 78.1092 -2.01978 0.0701287 0
M  V30 688 C 78.4302 -1.4579 -1.295 0
M  V30 689 O 77.7002 -0.64314 -1.85042 0
M  V30 690 H 76.2802 -0.746648 0.0229345 0
M  V30 691 H 78.9422 -1.79461 0.760245 0
M  V30 692 H 78.0382 -3.121 0.0022064 0
M  V30 693 N 78.3393 -0.321999 -1.54275 0
M  V30 694 C 79.3023 0.531975 -2.22941 0
M  V30 695 C 80.3023 1.04478 -1.22234 0
M  V30 696 O 81.4923 0.937452 -1.46825 0
M  V30 697 C 78.6243 1.73874 -2.93224 0
M  V30 698 H 79.8173 -0.0682612 -2.99822 0
M  V30 699 H 77.3703 -0.0730644 -1.56129 0
M  V30 700 H 78.1053 2.37825 -2.20476 0
M  V30 701 H 77.8903 1.37847 -3.6707 0
M  V30 702 H 79.3803 2.34496 -3.45545 0
M  V30 703 N 79.8174 1.5752 -0.0501392 0
M  V30 704 C 80.7804 2.1037 0.909786 0
M  V30 705 C 81.7804 1.02308 1.24056 0
M  V30 706 O 82.9704 1.28385 1.17741 0
M  V30 707 C 80.1024 2.58708 2.21998 0
M  V30 708 H 81.2954 2.96479 0.451665 0
M  V30 709 H 78.8484 1.55038 0.198248 0
M  V30 710 H 79.5834 1.75989 2.72394 0
M  V30 711 H 79.3684 3.37675 1.99295 0
M  V30 712 H 80.8584 2.99747 2.9076 0
M  V30 713 N 81.2955 -0.223234 1.56011 0
M  V30 714 C 82.2255 -1.27988 1.95298 0
M  V30 715 C 83.2065 -1.48976 0.820979 0
M  V30 716 O 84.3915 -1.61188 1.08315 0
M  V30 717 C 81.5215 -2.63 2.26822 0
M  V30 718 C 80.4755 -2.56671 3.42497 0
M  V30 719 C 79.8015 -3.95697 3.59622 0
M  V30 720 C 81.1015 -2.11601 4.77517 0
M  V30 721 H 82.7955 -0.953525 2.8381 0
M  V30 722 H 80.3415 -0.457244 1.36548 0
M  V30 723 H 82.2945 -3.37077 2.52898 0
M  V30 724 H 81.0185 -2.9732 1.35161 0
M  V30 725 H 79.6775 -1.85051 3.16467 0
M  V30 726 H 79.3255 -4.27322 2.6534 0
M  V30 727 H 79.0255 -3.92345 4.37424 0
M  V30 728 H 80.5495 -4.71438 3.88044 0
M  V30 729 H 81.9635 -2.7542 5.02809 0
M  V30 730 H 80.3605 -2.19311 5.5859 0
M  V30 731 H 81.4305 -1.06824 4.72987 0
M  V30 732 N 82.7736 -1.49793 -0.48987 0
M  V30 733 C 83.7366 -1.66752 -1.57246 0
M  V30 734 C 84.7366 -0.538867 -1.51502 0
M  V30 735 O 85.9266 -0.805545 -1.54456 0
M  V30 736 C 83.0586 -1.67528 -2.96896 0
M  V30 737 H 84.2516 -2.63321 -1.43534 0
M  V30 738 H 81.8046 -1.38992 -0.714914 0
M  V30 739 H 82.5396 -0.725837 -3.16073 0
M  V30 740 H 82.3246 -2.49504 -3.02473 0
M  V30 741 H 83.8146 -1.82667 -3.7553 0
M  V30 742 N 84.2517 0.741722 -1.39055 0
M  V30 743 C 85.2147 1.83733 -1.37021 0
M  V30 744 C 86.2147 1.58542 -0.268534 0
M  V30 745 O 87.4047 1.66067 -0.526076 0
M  V30 746 C 84.5367 3.2141 -1.13617 0
M  V30 747 H 85.7297 1.86941 -2.34506 0
M  V30 748 H 83.2827 0.944676 -1.24521 0
M  V30 749 H 84.0177 3.23865 -0.167863 0
M  V30 750 H 83.8027 3.4109 -1.93391 0
M  V30 751 H 85.2927 4.01477 -1.14918 0
M  V30 752 N 85.7298 1.2412 0.971189 0
M  V30 753 C 86.9548 1.10667 1.75407 0
M  V30 754 C 87.3798 -0.337048 1.85056 0
M  V30 755 O 86.7378 -1.24396 1.31892 0
M  V30 756 C 86.7858 1.74726 3.15441 0
M  V30 757 O 85.8898 1.01566 3.99697 0
M  V30 758 H 85.2308 0.387341 0.539317 0
M  V30 759 H 87.7608 1.64358 1.2185 0
M  V30 760 H 87.7708 1.80341 3.6598 0
M  V30 761 H 86.4458 2.79773 3.07734 0
M  V30 762 H 85.0228 1.03713 3.58187 0
M  V30 763 N 87.2079 -1.17134 1.05439 0
M  V30 764 C 88.4559 -1.87085 0.764429 0
M  V30 765 C 88.7769 -1.81584 -0.710787 0
M  V30 766 O 88.0469 -1.24349 -1.51374 0
M  V30 767 H 86.6269 -0.692627 0.279779 0
M  V30 768 H 89.2889 -1.42087 1.33406 0
M  V30 769 H 88.3849 -2.92759 1.0816 0
M  V30 770 N 88.686 -0.835752 -1.33615 0
M  V30 771 C 89.963 -0.352017 -1.92406 0
M  V30 772 C 90.343 1.16225 -1.76224 0
M  V30 773 O 89.691 1.97526 -1.14873 0
M  V30 774 C 89.901 -0.795485 -3.39813 0
M  V30 775 C 91.249 -0.801703 -4.16963 0
M  V30 776 O 92.273 -0.738889 -3.48452 0
M  V30 777 O 91.132 -0.886607 -5.3926 0
M  V30 778 H 88.226 -0.0989641 -0.821057 0
M  V30 779 H 90.772 -0.921397 -1.42507 0
M  V30 780 H 89.544 -1.83795 -3.45449 0
M  V30 781 H 89.167 -0.202505 -3.97084 0
M  V30 782 N 90.1641 1.46063 -0.591896 0
M  V30 783 C 91.4121 2.01938 -0.0808391 0
M  V30 784 C 91.7331 1.46475 1.28725 0
M  V30 785 O 91.0031 0.652944 1.84698 0
M  V30 786 H 89.5831 0.746516 -0.0268938 0
M  V30 787 H 92.2451 1.79055 -0.769752 0
M  V30 788 H 91.3411 3.12094 -0.0187578 0
M  V30 789 N 91.6422 0.330177 1.54103 0
M  V30 790 C 92.8672 -0.274893 2.0557 0
M  V30 791 C 93.2922 -1.44487 1.20437 0
M  V30 792 O 92.6502 -1.80021 0.214991 0
M  V30 793 C 92.6982 -0.68079 3.54115 0
M  V30 794 O 91.8022 -1.7824 3.71893 0
M  V30 795 H 91.1432 -0.0483849 0.662235 0
M  V30 796 H 93.6732 0.480508 1.98878 0
M  V30 797 H 93.6832 -0.961635 3.96505 0
M  V30 798 H 92.3582 0.174903 4.15532 0
M  V30 799 H 90.9352 -1.49985 3.41407 0
M  V30 800 N 93.1203 -1.57491 0.0584922 0
M  V30 801 C 94.3663 -1.93264 -0.614558 0
M  V30 802 C 94.6993 -0.937717 -1.7006 0
M  V30 803 O 93.9743 0.0351652 -1.94468 0
M  V30 804 C 94.2573 -3.3938 -1.20386 0
M  V30 805 C 94.1103 -4.49625 -0.125375 0
M  V30 806 C 95.4293 -3.86039 -2.11334 0
M  V30 807 H 92.5483 -0.702791 -0.221933 0
M  V30 808 H 95.1903 -1.8961 0.12175 0
M  V30 809 H 93.3403 -3.42626 -1.83139 0
M  V30 810 H 95.0123 -4.58506 0.506971 0
M  V30 811 H 93.2553 -4.30354 0.545672 0
M  V30 812 H 93.9263 -5.48967 -0.577861 0
M  V30 813 H 96.4023 -3.84716 -1.58534 0
M  V30 814 H 95.2783 -4.88914 -2.49507 0
M  V30 815 H 95.5393 -3.23215 -3.01636 0
M  V30 816 N 94.5984 0.214957 -1.56127 0
M  V30 817 C 95.5614 1.24997 -1.92116 0
M  V30 818 C 96.5614 1.39467 -0.800344 0
M  V30 819 O 97.7514 1.37619 -1.06802 0
M  V30 820 C 94.8834 2.62271 -2.17777 0
M  V30 821 H 96.0764 0.942875 -2.84693 0
M  V30 822 H 93.6294 0.455654 -1.49511 0
M  V30 823 H 94.3644 2.98068 -1.27773 0
M  V30 824 H 94.1494 2.53143 -2.99434 0
M  V30 825 H 95.6394 3.36946 -2.46693 0
M  V30 826 N 96.0765 1.50051 0.48192 0
M  V30 827 C 97.4875 1.5348 1.06305 0
M  V30 828 C 97.8385 0.331997 1.93371 0
M  V30 829 O 96.9635 -0.556256 2.09129 0
M  V30 830 C 97.5585 2.7813 1.93466 0
M  V30 831 C 96.1175 2.84275 2.46707 0
M  V30 832 C 95.2645 2.47637 1.24785 0
M  V30 833 H 98.2155 1.56472 0.264995 0
M  V30 834 H 98.2365 2.59372 2.78399 0
M  V30 835 H 97.7485 3.65654 1.30072 0
M  V30 836 H 95.8495 2.01077 3.13686 0
M  V30 837 H 95.9625 3.8691 2.82555 0
M  V30 838 H 94.3265 1.99835 1.57918 0
M  V30 839 H 95.1095 3.37457 0.630694 0
M  V30 840 N 97.5546 -0.734337 1.39446 0
M  V30 841 C 98.8026 -1.49096 1.36436 0
M  V30 842 C 99.1236 -1.94961 -0.0388255 0
M  V30 843 O 98.3936 -1.69033 -0.990191 0
M  V30 844 H 96.9736 -0.5531 0.502085 0
M  V30 845 H 99.6356 -0.871725 1.74319 0
M  V30 846 H 98.7316 -2.37276 2.02747 0
M  V30 847 N 99.0327 -1.24633 -0.964593 0
M  V30 848 C 99.9647 -0.999302 -2.06268 0
M  V30 849 C 100.978 0.0323226 -1.62768 0
M  V30 850 O 102.167 -0.205079 -1.77318 0
M  V30 851 C 99.2667 -0.486816 -3.35385 0
M  V30 852 C 98.4397 -1.5823 -4.07777 0
M  V30 853 C 97.4987 -1.07191 -5.15166 0
M  V30 854 O 96.5247 -1.76426 -5.41168 0
M  V30 855 N 97.7267 0.0920373 -5.80427 0
M  V30 856 H 100.492 -1.94477 -2.28033 0
M  V30 857 H 98.0527 -1.15704 -1.13244 0
M  V30 858 H 100.045 -0.130066 -4.04491 0
M  V30 859 H 98.6147 0.364459 -3.10468 0
M  V30 860 H 97.8347 -2.11109 -3.32906 0
M  V30 861 H 99.1227 -2.31854 -4.52903 0
M  V30 862 H 98.5207 0.670784 -5.61709 0
M  V30 863 H 97.0777 0.389905 -6.50633 0
M  V30 864 N 100.511 1.16574 -1.06058 0
M  V30 865 C 101.441 2.23057 -0.690488 0
M  V30 866 C 102.422 1.67141 0.315901 0
M  V30 867 O 103.607 1.93253 0.191556 0
M  V30 868 C 100.737 3.47222 -0.073625 0
M  V30 869 C 99.6908 4.16016 -1.00573 0
M  V30 870 C 99.0168 5.34104 -0.252289 0
M  V30 871 C 100.317 4.67264 -2.33371 0
M  V30 872 H 102.011 2.54271 -1.58072 0
M  V30 873 H 99.5568 1.22218 -0.76149 0
M  V30 874 H 101.51 4.20939 0.19714 0
M  V30 875 H 100.234 3.15302 0.85161 0
M  V30 876 H 98.8928 3.44223 -1.2612 0
M  V30 877 H 98.5408 4.98437 0.675988 0
M  V30 878 H 98.2408 5.81072 -0.873455 0
M  V30 879 H 99.7648 6.10599 0.0109857 0
M  V30 880 H 101.179 5.32573 -2.12223 0
M  V30 881 H 99.5758 5.24843 -2.90963 0
M  V30 882 H 100.646 3.83602 -2.96611 0
M  V30 883 N 101.989 0.842826 1.3317 0
M  V30 884 C 103.266 0.362216 1.92217 0
M  V30 885 C 103.646 -1.15289 1.76838 0
M  V30 886 O 102.994 -1.96914 1.15919 0
M  V30 887 C 103.204 0.813495 3.39387 0
M  V30 888 C 104.552 0.823804 4.16532 0
M  V30 889 O 105.576 0.757358 3.48055 0
M  V30 890 O 104.435 0.915193 5.38782 0
M  V30 891 H 101.529 0.103317 0.820521 0
M  V30 892 H 104.075 0.928942 1.42017 0
M  V30 893 H 102.847 1.85624 3.4447 0
M  V30 894 H 102.47 0.223561 3.96971 0
M  V30 895 N 103.467 -1.45747 0.599634 0
M  V30 896 C 104.744 -1.95585 0.0240846 0
M  V30 897 C 105.124 -1.54217 -1.44154 0
M  V30 898 O 104.472 -0.800903 -2.14004 0
M  V30 899 C 104.682 -3.48344 0.21385 0
M  V30 900 C 106.03 -4.24504 0.0904902 0
M  V30 901 O 107.054 -3.55911 0.143558 0
M  V30 902 O 105.913 -5.46491 -0.0310766 0
M  V30 903 H 103.007 -0.82602 -0.0402478 0
M  V30 904 H 105.553 -1.55951 0.669139 0
M  V30 905 H 104.325 -3.71397 1.23206 0
M  V30 906 H 103.948 -3.9485 -0.466842 0
M  V30 907 N 104.945 -0.338344 -1.53925 0
M  V30 908 C 106.175 0.260919 -2.04946 0
M  V30 909 C 106.583 1.45174 -1.2133 0
M  V30 910 O 105.926 1.82122 -0.240262 0
M  V30 911 C 105.988 0.744596 -3.51704 0
M  V30 912 C 105.652 -0.325883 -4.55837 0
M  V30 913 C 106.649 -1.16687 -5.06636 0
M  V30 914 C 104.334 -0.478317 -5.00017 0
M  V30 915 C 106.328 -2.14588 -6.00192 0
M  V30 916 C 104.015 -1.46073 -5.93385 0
M  V30 917 C 105.013 -2.29297 -6.4336 0
M  V30 918 O 104.701 -3.25867 -7.34892 0
M  V30 919 H 104.433 0.0551207 -0.673749 0
M  V30 920 H 106.987 -0.486984 -1.99544 0
M  V30 921 H 105.217 1.54366 -3.54553 0
M  V30 922 H 106.906 1.26383 -3.85723 0
M  V30 923 H 107.672 -1.06016 -4.73271 0
M  V30 924 H 103.551 0.159613 -4.60724 0
M  V30 925 H 107.095 -2.79585 -6.39123 0
M  V30 926 H 102.992 -1.56802 -6.26166 0
M  V30 927 H 103.76 -3.21278 -7.5281 0
M  V30 928 N 106.423 1.57458 -0.0668435 0
M  V30 929 C 107.653 1.97337 0.611677 0
M  V30 930 C 108.061 0.943744 1.63982 0
M  V30 931 O 107.404 -0.0785584 1.83532 0
M  V30 932 C 107.466 3.33511 1.34205 0
M  V30 933 C 107.13 4.54598 0.467941 0
M  V30 934 C 108.127 5.19186 -0.272439 0
M  V30 935 C 105.812 5.0075 0.39427 0
M  V30 936 C 107.806 6.28274 -1.07476 0
M  V30 937 C 105.493 6.09711 -0.411729 0
M  V30 938 C 106.491 6.73335 -1.14492 0
M  V30 939 O 106.179 7.80199 -1.93763 0
M  V30 940 H 105.911 0.654042 0.170893 0
M  V30 941 H 108.465 2.04961 -0.134289 0
M  V30 942 H 106.695 3.22487 2.13398 0
M  V30 943 H 108.384 3.58029 1.91233 0
M  V30 944 H 109.15 4.84477 -0.225086 0
M  V30 945 H 105.029 4.51009 0.954569 0
M  V30 946 H 108.573 6.77866 -1.64755 0
M  V30 947 H 104.47 6.43854 -0.460664 0
M  V30 948 H 105.238 7.97053 -1.86142 0
M  V30 949 N 107.901 -0.206675 1.56239 0
M  V30 950 C 109.149 -0.927007 1.79586 0
M  V30 951 C 109.47 -1.8427 0.637929 0
M  V30 952 O 108.74 -1.92849 -0.344398 0
M  V30 953 H 107.32 -0.345292 0.662407 0
M  V30 954 H 109.982 -0.21496 1.93711 0
M  V30 955 H 109.078 -1.52501 2.72305 0
M  V30 956 N 109.379 -1.50304 -0.473955 0
M  V30 957 C 110.626 -1.6115 -1.22625 0
M  V30 958 C 110.954 -0.310517 -1.92005 0
M  V30 959 O 110.209 0.703419 -1.82621 0
M  V30 960 C 110.508 -2.73938 -2.29549 0
M  V30 961 C 110.174 -4.14519 -1.7744 0
M  V30 962 C 108.836 -4.5277 -1.62949 0
M  V30 963 C 111.188 -5.02392 -1.3875 0
M  V30 964 C 108.516 -5.76639 -1.08187 0
M  V30 965 C 110.868 -6.26805 -0.854309 0
M  V30 966 C 109.532 -6.63861 -0.696011 0
M  V30 967 H 108.802 -0.589691 -0.448715 0
M  V30 968 H 111.449 -1.84228 -0.522705 0
M  V30 969 H 109.754 -2.44937 -3.05799 0
M  V30 970 H 111.451 -2.79534 -2.87509 0
M  V30 971 H 108.041 -3.8434 -1.89685 0
M  V30 972 H 112.225 -4.73474 -1.4878 0
M  V30 973 H 107.481 -6.04027 -0.946666 0
M  V30 974 H 111.655 -6.94258 -0.545843 0
M  V30 975 H 109.282 -7.59722 -0.26952 0
M  V30 976 N 110.857 0.726932 -1.39834 0
M  V30 977 C 112.103 1.48771 -1.38704 0
M  V30 978 C 112.458 1.92394 0.0146387 0
M  V30 979 O 111.751 1.64474 0.982797 0
M  V30 980 C 111.945 2.73495 -2.30077 0
M  V30 981 C 111.774 2.42068 -3.78989 0
M  V30 982 C 110.544 2.33966 -4.4787 0
M  V30 983 C 112.742 2.0708 -4.70768 0
M  V30 984 N 110.724 1.95095 -5.82075 0
M  V30 985 C 112.095 1.78719 -5.93683 0
M  V30 986 C 114.15 1.93618 -4.58712 0
M  V30 987 C 112.853 1.3825 -7.05889 0
M  V30 988 C 114.879 1.54553 -5.70848 0
M  V30 989 C 114.241 1.27082 -6.92842 0
M  V30 990 H 110.34 0.542919 -0.562817 0
M  V30 991 H 112.924 0.84408 -1.75452 0
M  V30 992 H 111.095 3.35625 -1.95474 0
M  V30 993 H 112.827 3.39755 -2.19883 0
M  V30 994 H 109.582 2.51331 -4.0141 0
M  V30 995 H 110.006 1.7823 -6.53118 0
M  V30 996 H 114.648 2.13522 -3.64922 0
M  V30 997 H 112.366 1.17088 -7.99572 0
M  V30 998 H 115.952 1.44731 -5.6351 0
M  V30 999 H 114.832 0.973069 -7.78139 0
M  V30 1000 N 112.336 1.25143 0.95797 0
M  V30 1001 C 113.561 1.12521 1.74223 0
M  V30 1002 C 113.986 -0.317402 1.85403 0
M  V30 1003 O 113.344 -1.2299 1.33204 0
M  V30 1004 C 113.392 1.78062 3.1357 0
M  V30 1005 O 112.496 1.058 3.98598 0
M  V30 1006 H 111.837 0.39304 0.535178 0
M  V30 1007 H 114.367 1.65641 1.201 0
M  V30 1008 H 114.377 1.84213 3.64046 0
M  V30 1009 H 113.052 2.83021 3.04749 0
M  V30 1010 H 111.629 1.07506 3.57067 0
M  V30 1011 N 113.814 -1.1601 1.06675 0
M  V30 1012 C 115.039 -1.91068 0.806706 0
M  V30 1013 C 115.464 -1.77112 -0.633485 0
M  V30 1014 O 114.822 -1.09908 -1.44187 0
M  V30 1015 C 114.87 -3.39655 1.21106 0
M  V30 1016 O 113.974 -4.10893 0.352189 0
M  V30 1017 H 113.315 -0.595125 0.294486 0
M  V30 1018 H 115.845 -1.46955 1.42356 0
M  V30 1019 H 115.855 -3.90434 1.18428 0
M  V30 1020 H 114.53 -3.49132 2.26008 0
M  V30 1021 H 113.107 -3.70285 0.440868 0
M  V30 1022 N 115.292 -0.849877 -1.32721 0
M  V30 1023 C 116.54 -0.450032 -1.97026 0
M  V30 1024 C 116.861 0.996604 -1.67609 0
M  V30 1025 O 116.131 1.6958 -0.980786 0
M  V30 1026 H 114.711 -0.163426 -0.728904 0
M  V30 1027 H 117.373 -1.08526 -1.6189 0
M  V30 1028 H 116.469 -0.591146 -3.0645 0
M  V30 1029 N 116.77 1.45427 -0.607355 0
M  V30 1030 C 117.702 2.2871 0.149752 0
M  V30 1031 C 118.715 1.39937 0.831958 0
M  V30 1032 O 119.904 1.64313 0.697385 0
M  V30 1033 C 117.004 3.15673 1.23304 0
M  V30 1034 C 116.177 4.32722 0.637996 0
M  V30 1035 C 115.236 5.00895 1.61215 0
M  V30 1036 O 114.262 5.57697 1.13854 0
M  V30 1037 N 115.464 5.00159 2.94655 0
M  V30 1038 H 118.229 2.94328 -0.564882 0
M  V30 1039 H 115.79 1.55612 -0.446823 0
M  V30 1040 H 117.782 3.58144 1.88454 0
M  V30 1041 H 116.352 2.51965 1.8502 0
M  V30 1042 H 115.572 3.93734 -0.191572 0
M  V30 1043 H 116.86 5.08321 0.220665 0
M  V30 1044 H 116.258 4.553 3.35735 0
M  V30 1045 H 114.815 5.46495 3.55228 0
M  V30 1046 N 118.248 0.346503 1.53744 0
M  V30 1047 C 119.473 -0.253074 2.0585 0
M  V30 1048 C 119.898 -1.43202 1.21962 0
M  V30 1049 O 119.256 -1.79783 0.234073 0
M  V30 1050 C 119.304 -0.643193 3.54817 0
M  V30 1051 O 118.408 -1.74286 3.73762 0
M  V30 1052 H 117.749 -0.0413583 0.662711 0
M  V30 1053 H 120.279 0.501574 1.98357 0
M  V30 1054 H 120.289 -0.919526 3.97503 0
M  V30 1055 H 118.964 0.218966 4.15323 0
M  V30 1056 H 117.541 -1.46356 3.42979 0
M  V30 1057 N 119.726 -1.57421 0.075193 0
M  V30 1058 C 120.974 -1.93236 -0.591974 0
M  V30 1059 C 121.295 -0.956241 -1.69944 0
M  V30 1060 O 120.565 -0.00494792 -1.95899 0
M  V30 1061 H 119.145 -0.713355 -0.22166 0
M  V30 1062 H 121.807 -1.9444 0.133848 0
M  V30 1063 H 120.903 -2.95131 -1.01509 0
M  V30 1064 N 121.204 0.198386 -1.56346 0
M  V30 1065 C 122.114 1.2664 -1.97483 0
M  V30 1066 C 123.13 1.49989 -0.882002 0
M  V30 1067 O 124.306 1.62668 -1.18748 0
M  V30 1068 C 121.371 2.59141 -2.30319 0
M  V30 1069 C 120.432 2.43892 -3.53292 0
M  V30 1070 C 119.665 3.70074 -3.84553 0
M  V30 1071 O 119.888 4.74101 -3.1715 0
M  V30 1072 O 118.822 3.658 -4.7799 0
M  V30 1073 H 122.648 0.947304 -2.88548 0
M  V30 1074 H 120.233 0.403123 -1.43859 0
M  V30 1075 H 122.115 3.37352 -2.5253 0
M  V30 1076 H 120.79 2.90684 -1.42423 0
M  V30 1077 H 119.697 1.63803 -3.36332 0
M  V30 1078 H 121.03 2.17282 -4.41644 0
M  V30 1079 N 122.682 1.50554 0.465978 0
M  V30 1080 C 123.615 1.64436 1.58227 0
M  V30 1081 C 124.593 0.492367 1.54966 0
M  V30 1082 O 125.777 0.712536 1.74514 0
M  V30 1083 C 122.904 1.63165 2.96808 0
M  V30 1084 C 121.95 2.83987 3.18204 0
M  V30 1085 S 122.783 4.45219 2.97557 0
M  V30 1086 C 123.939 4.46649 4.3847 0
M  V30 1087 H 124.172 2.58861 1.46213 0
M  V30 1088 H 121.705 1.3988 0.653678 0
M  V30 1089 H 123.663 1.63116 3.76701 0
M  V30 1090 H 122.324 0.69967 3.06208 0
M  V30 1091 H 121.517 2.79416 4.19455 0
M  V30 1092 H 121.119 2.81629 2.46092 0
M  V30 1093 H 123.411 4.20526 5.31191 0
M  V30 1094 H 124.354 5.48295 4.48082 0
M  V30 1095 H 124.762 3.76296 4.20787 0
M  V30 1096 N 124.16 -0.719506 1.40217 0
M  V30 1097 C 125.576 -1.02707 1.22161 0
M  V30 1098 C 125.776 -2.0128 0.0940557 0
M  V30 1099 O 124.832 -2.46452 -0.549318 0
M  V30 1100 C 126.145 -1.57454 2.56181 0
M  V30 1101 C 127.693 -1.69458 2.63159 0
M  V30 1102 C 128.168 -2.27611 3.97438 0
M  V30 1103 N 129.659 -2.35002 3.99159 0
M  V30 1104 C 130.394 -2.80972 4.99842 0
M  V30 1105 N 129.89 -3.26723 6.10921 0
M  V30 1106 N 131.683 -2.80321 4.87213 0
M  V30 1107 H 123.834 -0.0660492 2.12297 0
M  V30 1108 H 126.097 -0.0919077 0.943534 0
M  V30 1109 H 125.803 -0.924873 3.39321 0
M  V30 1110 H 125.677 -2.56036 2.76993 0
M  V30 1111 H 128.064 -2.33543 1.80393 0
M  V30 1112 H 128.145 -0.694867 2.46181 0
M  V30 1113 H 127.789 -1.6415 4.80643 0
M  V30 1114 H 127.719 -3.2829 4.11744 0
M  V30 1115 H 130.21 -2.02685 3.18947 0
M  V30 1116 H 130.523 -3.60355 6.8364 0
M  V30 1117 H 128.868 -3.24692 6.14492 0
M  V30 1118 H 132.059 -2.43912 3.9953 0
M  V30 1119 H 132.232 -3.15831 5.65822 0
M  V30 1120 N 125.638 -1.25649 -0.95132 0
M  V30 1121 C 126.887 -1.09988 -1.69073 0
M  V30 1122 C 127.2 0.358355 -1.92289 0
M  V30 1123 O 128.406 0.635466 -2.63958 0
M  V30 1124 C 126.862 -1.92012 -3.044 0
M  V30 1125 C 126.47 -3.42347 -2.88968 0
M  V30 1126 C 128.214 -1.8493 -3.82101 0
M  V30 1127 C 126.121 -4.16655 -4.19705 0
M  V30 1128 H 125.051 -0.407993 -0.63408 0
M  V30 1129 H 127.702 -1.49873 -1.05879 0
M  V30 1130 H 126.084 -1.44952 -3.68517 0
M  V30 1131 H 127.258 -3.97104 -2.33762 0
M  V30 1132 H 125.573 -3.50557 -2.24719 0
M  V30 1133 H 128.17 -2.37739 -4.78941 0
M  V30 1134 H 128.513 -0.817883 -4.08187 0
M  V30 1135 H 129.046 -2.29758 -3.2474 0
M  V30 1136 H 125.785 -5.20224 -3.98807 0
M  V30 1137 H 125.305 -3.66681 -4.74663 0
M  V30 1138 H 126.984 -4.24551 -4.88227 0
M  V30 1139 N 127.117 1.15442 -1.07289 0
M  V30 1140 C 128.047 2.22312 -0.714107 0
M  V30 1141 C 129.028 1.67467 0.298155 0
M  V30 1142 O 130.213 1.93445 0.171048 0
M  V30 1143 C 127.343 3.47124 -0.110448 0
M  V30 1144 C 126.297 4.14926 -1.04979 0
M  V30 1145 C 125.623 5.33807 -0.308924 0
M  V30 1146 C 126.923 4.64762 -2.38314 0
M  V30 1147 H 128.617 2.5258 -1.6076 0
M  V30 1148 H 126.163 1.21404 -0.77441 0
M  V30 1149 H 128.116 4.21124 0.152482 0
M  V30 1150 H 126.84 3.16187 0.81812 0
M  V30 1151 H 125.499 3.42866 -1.29764 0
M  V30 1152 H 125.147 4.99126 0.623084 0
M  V30 1153 H 124.847 5.80113 -0.935036 0
M  V30 1154 H 126.371 6.10576 -0.0537771 0
M  V30 1155 H 127.785 5.30292 -2.1786 0
M  V30 1156 H 126.182 5.21728 -2.96514 0
M  V30 1157 H 127.252 3.80434 -3.00663 0
M  V30 1158 N 128.595 0.856903 1.32268 0
M  V30 1159 C 129.843 0.460474 1.96784 0
M  V30 1160 C 130.164 -0.987701 1.68135 0
M  V30 1161 O 129.434 -1.69058 0.989765 0
M  V30 1162 H 128.014 0.167289 0.728027 0
M  V30 1163 H 130.676 1.09383 1.61312 0
M  V30 1164 H 129.772 0.60739 3.06133 0
M  V30 1165 N 130.073 -1.45103 0.615059 0
M  V30 1166 C 131.322 -2.01396 0.110718 0
M  V30 1167 C 131.635 -1.48834 -1.26916 0
M  V30 1168 O 132.841 -1.97152 -1.86664 0
M  V30 1169 C 131.297 -3.59599 0.14723 0
M  V30 1170 C 130.905 -4.21158 1.52743 0
M  V30 1171 C 132.649 -4.23428 -0.30148 0
M  V30 1172 C 130.556 -5.71535 1.51992 0
M  V30 1173 H 129.486 -0.753061 0.0376241 0
M  V30 1174 H 132.137 -1.66494 0.77149 0
M  V30 1175 H 130.519 -3.91724 -0.580339 0
M  V30 1176 H 131.693 -4.00594 2.2773 0
M  V30 1177 H 130.008 -3.69552 1.91886 0
M  V30 1178 H 132.605 -5.33703 -0.326392 0
M  V30 1179 H 132.948 -3.94629 -1.32565 0
M  V30 1180 H 133.481 -3.96047 0.373065 0
M  V30 1181 H 130.22 -6.05044 2.52193 0
M  V30 1182 H 129.74 -5.94268 0.81274 0
M  V30 1183 H 131.419 -6.34873 1.24681 0
M  V30 1184 N 131.551 -0.354651 -1.53558 0
M  V30 1185 C 132.962 0.126902 -1.86268 0
M  V30 1186 C 133.313 1.49075 -1.27558 0
M  V30 1187 O 132.438 2.08105 -0.5934 0
M  V30 1188 C 133.033 0.237046 -3.3797 0
M  V30 1189 C 131.592 0.662842 -3.70518 0
M  V30 1190 C 130.739 -0.196652 -2.76602 0
M  V30 1191 H 133.69 -0.573849 -1.47962 0
M  V30 1192 H 133.711 1.06259 -3.65362 0
M  V30 1193 H 133.223 -0.755725 -3.80671 0
M  V30 1194 H 131.324 1.66424 -3.33367 0
M  V30 1195 H 131.437 0.445034 -4.77029 0
M  V30 1196 H 129.801 0.332763 -2.52517 0
M  V30 1197 H 130.584 -1.18676 -3.22135 0
M  V30 1198 N 133.029 1.57378 -0.0835403 0
M  V30 1199 C 134.254 1.98682 0.594987 0
M  V30 1200 C 134.679 0.961969 1.61641 0
M  V30 1201 O 134.037 -0.0709989 1.81161 0
M  V30 1202 C 134.085 3.38988 1.2296 0
M  V30 1203 O 133.189 3.39208 2.34546 0
M  V30 1204 H 132.53 0.646368 0.152002 0
M  V30 1205 H 135.06 2.03961 -0.161533 0
M  V30 1206 H 135.07 3.76431 1.57366 0
M  V30 1207 H 133.745 4.13107 0.481228 0
M  V30 1208 H 132.322 3.13548 2.01846 0
M  V30 1209 N 134.507 -0.190092 1.56449 0
M  V30 1210 C 135.44 -1.26375 1.90012 0
M  V30 1211 C 136.418 -1.43705 0.760765 0
M  V30 1212 O 137.602 -1.59014 1.01226 0
M  V30 1213 C 134.729 -2.62962 2.13468 0
M  V30 1214 C 133.775 -2.62474 3.36169 0
M  V30 1215 S 134.608 -2.13412 4.91137 0
M  V30 1216 C 135.764 -3.51812 5.17667 0
M  V30 1217 H 135.997 -0.977181 2.80782 0
M  V30 1218 H 133.53 -0.393814 1.49293 0
M  V30 1219 H 135.488 -3.41583 2.27664 0
M  V30 1220 H 134.149 -2.88828 1.23439 0
M  V30 1221 H 133.342 -3.62918 3.49723 0
M  V30 1222 H 132.944 -1.91937 3.20992 0
M  V30 1223 H 135.236 -4.47706 5.08494 0
M  V30 1224 H 136.179 -3.43148 6.19399 0
M  V30 1225 H 136.587 -3.46956 4.45288 0
M  V30 1226 N 135.985 -1.50799 -0.457987 0
M  V30 1227 C 137.401 -1.38515 -0.792819 0
M  V30 1228 C 137.601 -0.451409 -1.96379 0
M  V30 1229 O 136.657 0.10112 -2.52297 0
M  V30 1230 C 137.97 -2.80149 -1.09258 0
M  V30 1231 C 139.518 -2.89156 -1.19825 0
M  V30 1232 C 139.993 -4.31651 -1.53106 0
M  V30 1233 N 141.484 -4.34662 -1.60072 0
M  V30 1234 C 142.219 -5.41928 -1.87354 0
M  V30 1235 N 141.715 -6.59384 -2.12568 0
M  V30 1236 N 143.508 -5.29385 -1.88965 0
M  V30 1237 H 135.659 -2.10073 0.313511 0
M  V30 1238 H 137.922 -0.944803 0.0777862 0
M  V30 1239 H 137.628 -3.50374 -0.305084 0
M  V30 1240 H 137.502 -3.18204 -2.02549 0
M  V30 1241 H 139.889 -2.19141 -1.97639 0
M  V30 1242 H 139.97 -2.54626 -0.244821 0
M  V30 1243 H 139.614 -5.02208 -0.758266 0
M  V30 1244 H 139.544 -4.63678 -2.49621 0
M  V30 1245 H 142.035 -3.49973 -1.42573 0
M  V30 1246 H 142.348 -7.36934 -2.32696 0
M  V30 1247 H 140.693 -6.62535 -2.09933 0
M  V30 1248 H 143.884 -4.36616 -1.68772 0
M  V30 1249 H 144.057 -6.13066 -2.09891 0
M  V30 1250 N 137.463 0.71206 -1.40597 0
M  V30 1251 C 138.373 1.8562 -1.43466 0
M  V30 1252 C 139.389 1.70902 -0.326902 0
M  V30 1253 O 140.565 1.93105 -0.572043 0
M  V30 1254 C 137.63 3.21451 -1.29884 0
M  V30 1255 C 136.691 3.48398 -2.50833 0
M  V30 1256 C 135.924 4.77749 -2.3789 0
M  V30 1257 O 136.147 5.53089 -1.39459 0
M  V30 1258 O 135.081 5.05111 -3.27333 0
M  V30 1259 H 138.907 1.86155 -2.39958 0
M  V30 1260 H 136.492 0.86295 -1.21957 0
M  V30 1261 H 138.374 4.02579 -1.24531 0
M  V30 1262 H 137.049 3.21636 -0.364997 0
M  V30 1263 H 135.956 2.67265 -2.61763 0
M  V30 1264 H 137.289 3.53014 -3.4299 0
M  V30 1265 N 138.941 1.26152 0.944643 0
M  V30 1266 C 139.871 1.09902 2.06019 0
M  V30 1267 C 140.852 0.00519538 1.70099 0
M  V30 1268 O 142.037 0.176583 1.93396 0
M  V30 1269 C 139.167 0.727562 3.39594 0
M  V30 1270 C 138.121 1.77274 3.89561 0
M  V30 1271 C 137.447 1.25569 5.19747 0
M  V30 1272 C 138.747 3.17357 4.14827 0
M  V30 1273 H 140.441 2.03217 2.19871 0
M  V30 1274 H 137.987 0.978452 1.05652 0
M  V30 1275 H 139.94 0.600777 4.17095 0
M  V30 1276 H 138.664 -0.241287 3.25707 0
M  V30 1277 H 137.323 1.88814 3.14237 0
M  V30 1278 H 136.971 0.276783 5.02238 0
M  V30 1279 H 136.671 1.95433 5.54148 0
M  V30 1280 H 138.195 1.1415 5.99835 0
M  V30 1281 H 139.609 3.08914 4.82954 0
M  V30 1282 H 138.006 3.84781 4.60504 0
M  V30 1283 H 139.076 3.63673 3.20734 0
M  V30 1284 N 140.419 -1.14872 1.07899 0
M  V30 1285 C 141.352 -2.18794 0.64841 0
M  V30 1286 C 142.33 -1.59065 -0.337189 0
M  V30 1287 O 143.514 -1.86936 -0.242284 0
M  V30 1288 C 140.641 -3.38667 -0.0470417 0
M  V30 1289 C 139.687 -4.16942 0.897884 0
M  V30 1290 S 140.52 -4.78615 2.40183 0
M  V30 1291 C 141.676 -6.0185 1.71834 0
M  V30 1292 H 141.909 -2.5498 1.52881 0
M  V30 1293 H 139.442 -1.25922 0.893484 0
M  V30 1294 H 141.4 -4.08113 -0.442027 0
M  V30 1295 H 140.061 -3.00814 -0.903861 0
M  V30 1296 H 139.254 -5.02726 0.358096 0
M  V30 1297 H 138.856 -3.53073 1.23352 0
M  V30 1298 H 141.148 -6.69574 1.03328 0
M  V30 1299 H 142.091 -6.60408 2.55473 0
M  V30 1300 H 142.499 -5.5173 1.19392 0
M  V30 1301 N 141.898 -0.863906 -1.31812 0
M  V30 1302 C 143.314 -0.555004 -1.49639 0
M  V30 1303 C 143.514 0.912266 -1.79666 0
M  V30 1304 O 142.57 1.69479 -1.87171 0
M  V30 1305 C 143.883 -1.44998 -2.63431 0
M  V30 1306 C 145.431 -1.45138 -2.77316 0
M  V30 1307 C 145.906 -2.33179 -3.94197 0
M  V30 1308 N 147.397 -2.31025 -4.01474 0
M  V30 1309 C 148.132 -2.95871 -4.9117 0
M  V30 1310 N 147.628 -3.69863 -5.8581 0
M  V30 1311 N 149.421 -2.85211 -4.84367 0
M  V30 1312 H 141.572 -1.81339 -1.10589 0
M  V30 1313 H 143.835 -0.77505 -0.545895 0
M  V30 1314 H 143.541 -2.49377 -2.48 0
M  V30 1315 H 143.415 -1.14409 -3.59431 0
M  V30 1316 H 145.802 -0.415201 -2.92164 0
M  V30 1317 H 145.883 -1.79747 -1.82001 0
M  V30 1318 H 145.527 -3.3687 -3.80107 0
M  V30 1319 H 145.457 -1.95897 -4.88807 0
M  V30 1320 H 147.948 -1.77238 -3.33759 0
M  V30 1321 H 148.261 -4.16486 -6.50968 0
M  V30 1322 H 146.606 -3.73971 -5.85808 0
M  V30 1323 H 149.797 -2.26948 -4.09405 0
M  V30 1324 H 149.97 -3.36027 -5.54066 0
M  V30 1325 N 143.376 1.44774 -0.622745 0
M  V30 1326 C 144.622 2.0242 -0.124083 0
M  V30 1327 C 144.955 1.4881 1.24777 0
M  V30 1328 O 144.23 0.668799 1.8264 0
M  V30 1329 C 144.513 3.59957 -0.101619 0
M  V30 1330 C 144.366 4.23867 -1.50521 0
M  V30 1331 C 145.685 4.36284 0.578272 0
M  V30 1332 H 142.804 0.735528 -0.0465645 0
M  V30 1333 H 145.446 1.72447 -0.797617 0
M  V30 1334 H 143.596 3.85623 0.471934 0
M  V30 1335 H 145.268 4.09336 -2.12701 0
M  V30 1336 H 143.511 3.81684 -2.06154 0
M  V30 1337 H 144.182 5.32843 -1.4416 0
M  V30 1338 H 146.658 4.16001 0.0906057 0
M  V30 1339 H 145.534 5.46004 0.563149 0
M  V30 1340 H 145.795 4.10271 1.64713 0
M  V30 1341 N 144.854 0.36279 1.53368 0
M  V30 1342 C 146.265 -0.117022 1.86333 0
M  V30 1343 C 146.616 -1.48397 1.28347 0
M  V30 1344 O 145.741 -2.07787 0.604428 0
M  V30 1345 C 146.336 -0.21912 3.38091 0
M  V30 1346 C 144.895 -0.643184 3.70864 0
M  V30 1347 C 144.042 0.211318 2.76494 0
M  V30 1348 H 146.993 0.581687 1.47655 0
M  V30 1349 H 147.014 -1.04319 3.6592 0
M  V30 1350 H 146.526 0.775902 3.80265 0
M  V30 1351 H 144.627 -1.64654 3.34245 0
M  V30 1352 H 144.74 -0.41973 4.77258 0
M  V30 1353 H 143.104 -0.319367 2.5269 0
M  V30 1354 H 143.887 1.20383 3.21501 0
M  V30 1355 N 146.332 -1.57332 0.0918853 0
M  V30 1356 C 147.578 -1.94524 -0.573425 0
M  V30 1357 C 147.911 -0.973578 -1.68033 0
M  V30 1358 O 147.186 -0.00609226 -1.94499 0
M  V30 1359 C 147.469 -3.41858 -1.13161 0
M  V30 1360 C 147.322 -4.4979 -0.0299747 0
M  V30 1361 C 148.641 -3.90435 -2.03098 0
M  V30 1362 H 145.76 -0.70734 -0.206975 0
M  V30 1363 H 148.402 -1.89309 0.161942 0
M  V30 1364 H 146.552 -3.46433 -1.7583 0
M  V30 1365 H 148.224 -4.57327 0.604112 0
M  V30 1366 H 146.467 -4.291 0.636833 0
M  V30 1367 H 147.138 -5.50069 -0.461287 0
M  V30 1368 H 149.614 -3.87992 -1.50338 0
M  V30 1369 H 148.49 -4.94097 -2.39081 0
M  V30 1370 H 148.751 -3.29541 -2.94712 0
M  V30 1371 N 147.81 0.181792 -1.56548 0
M  V30 1372 C 149.057 0.900097 -1.81396 0
M  V30 1373 C 149.385 1.82695 -0.667281 0
M  V30 1374 O 148.64 1.92614 0.346146 0
M  V30 1375 C 148.939 1.73728 -3.12335 0
M  V30 1376 C 148.605 0.960255 -4.40556 0
M  V30 1377 C 147.267 0.745766 -4.75386 0
M  V30 1378 C 149.619 0.414477 -5.19549 0
M  V30 1379 C 146.947 -0.0257694 -5.86694 0
M  V30 1380 C 149.299 -0.343916 -6.31664 0
M  V30 1381 C 147.963 -0.569301 -6.65068 0
M  V30 1382 H 147.233 0.329369 -0.663775 0
M  V30 1383 H 149.88 0.165647 -1.90782 0
M  V30 1384 H 148.185 2.54081 -2.98245 0
M  V30 1385 H 149.882 2.29591 -3.28769 0
M  V30 1386 H 146.472 1.13746 -4.13231 0
M  V30 1387 H 150.656 0.567554 -4.93044 0
M  V30 1388 H 145.912 -0.210233 -6.11038 0
M  V30 1389 H 150.086 -0.774133 -6.92084 0
M  V30 1390 H 147.713 -1.16903 -7.51158 0
M  V30 1391 N 149.288 1.51039 0.449983 0
M  V30 1392 C 150.236 1.71995 1.5659 0
M  V30 1393 C 151.23 0.586029 1.5894 0
M  V30 1394 O 152.436 0.76709 1.62837 0
M  V30 1395 H 148.811 0.543233 0.520001 0
M  V30 1396 H 150.782 2.65562 1.36085 0
M  V30 1397 C 149.531 1.8506 2.9436 0
M  V30 1398 H 148.854 2.71712 2.93279 0
M  V30 1399 H 150.294 2.0374 3.71842 0
M  V30 1400 C 148.753 0.607277 3.31382 0
M  V30 1401 O 149.283 -0.243903 4.00959 0
M  V30 1402 N 147.489 0.455073 2.87015 0
M  V30 1403 H 147.036 1.14879 2.30566 0
M  V30 1404 H 146.994 -0.375611 3.12148 0
M  V30 1405 N 150.766 -0.704594 1.40972 0
M  V30 1406 C 152.182 -1.01406 1.23244 0
M  V30 1407 C 152.382 -2.01169 0.115399 0
M  V30 1408 O 151.438 -2.47021 -0.523147 0
M  V30 1409 C 152.751 -1.54728 2.57836 0
M  V30 1410 C 154.299 -1.66658 2.64942 0
M  V30 1411 C 154.774 -2.23383 3.9983 0
M  V30 1412 N 156.265 -2.30756 4.01629 0
M  V30 1413 C 157 -2.75655 5.02794 0
M  V30 1414 N 156.496 -3.20225 6.14352 0
M  V30 1415 N 158.289 -2.75138 4.90159 0
M  V30 1416 H 150.44 -0.0435285 2.12355 0
M  V30 1417 H 152.703 -0.0818951 0.944456 0
M  V30 1418 H 152.409 -0.888832 3.40283 0
M  V30 1419 H 152.283 -2.53084 2.79693 0
M  V30 1420 H 154.67 -2.31617 1.8286 0
M  V30 1421 H 154.751 -0.668717 2.46904 0
M  V30 1422 H 154.395 -1.59043 4.82357 0
M  V30 1423 H 154.325 -3.23904 4.15203 0
M  V30 1424 H 156.816 -1.99291 3.21079 0
M  V30 1425 H 157.129 -3.53084 6.87424 0
M  V30 1426 H 155.474 -3.18156 6.17901 0
M  V30 1427 H 158.665 -2.39661 4.02095 0
M  V30 1428 H 158.838 -3.09812 5.6914 0
M  V30 1429 N 152.244 -1.26651 -0.937939 0
M  V30 1430 C 153.484 -1.13611 -1.69917 0
M  V30 1431 C 153.848 0.314687 -1.89404 0
M  V30 1432 O 155.049 0.567285 -2.62746 0
M  V30 1433 C 153.32 -1.88742 -3.03498 0
M  V30 1434 S 154.879 -1.91794 -3.94665 0
M  V30 1435 H 151.697 -0.405767 -0.583844 0
M  V30 1436 H 154.299 -1.60416 -1.11745 0
M  V30 1437 H 153.003 -2.9336 -2.86999 0
M  V30 1438 H 152.534 -1.42391 -3.66727 0
M  V30 1439 H 154.549 -1.00698 -4.85875 0
M  V30 1440 N 153.722 1.14298 -1.08507 0
M  V30 1441 C 154.947 1.8976 -0.837001 0
M  V30 1442 C 155.372 1.78097 0.605228 0
M  V30 1443 O 154.73 1.12188 1.4242 0
M  V30 1444 C 154.778 3.37685 -1.26495 0
M  V30 1445 O 153.882 4.10281 -0.417514 0
M  V30 1446 H 153.223 0.590365 -0.303917 0
M  V30 1447 H 155.753 1.44672 -1.44676 0
M  V30 1448 H 155.763 3.88501 -1.24625 0
M  V30 1449 H 154.438 3.45492 -2.31534 0
M  V30 1450 H 153.015 3.69536 -0.499722 0
M  V30 1451 N 155.201 0.870884 1.31352 0
M  V30 1452 C 156.164 0.332243 2.26779 0
M  V30 1453 C 157.164 -0.517302 1.52252 0
M  V30 1454 O 158.354 -0.326477 1.71113 0
M  V30 1455 C 155.486 -0.528066 3.36785 0
M  V30 1456 H 156.679 1.17469 2.75937 0
M  V30 1457 H 154.232 0.64655 1.423 0
M  V30 1458 H 154.967 -1.39167 2.92922 0
M  V30 1459 H 154.752 0.0802582 3.92018 0
M  V30 1460 H 156.242 -0.897179 4.07849 0
M  V30 1461 N 156.679 -1.44442 0.630414 0
M  V30 1462 C 157.907 -2.06414 0.141671 0
M  V30 1463 C 158.322 -1.47105 -1.18345 0
M  V30 1464 O 157.679 -0.593662 -1.72574 0
M  V30 1465 C 157.73 -3.61494 0.0199784 0
M  V30 1466 O 157.451 -4.18594 1.29269 0
M  V30 1467 C 158.952 -4.40499 -0.497544 0
M  V30 1468 H 156.172 -0.666292 0.0793452 0
M  V30 1469 H 158.716 -1.85323 0.864614 0
M  V30 1470 H 156.871 -3.8185 -0.653402 0
M  V30 1471 H 157.285 -5.12026 1.13707 0
M  V30 1472 H 158.759 -5.49433 -0.531708 0
M  V30 1473 H 159.236 -4.11895 -1.52445 0
M  V30 1474 H 159.842 -4.25061 0.142562 0
M  V30 1475 N 158.157 -0.370918 -1.53173 0
M  V30 1476 C 159.405 0.216673 -2.00935 0
M  V30 1477 C 159.726 1.48845 -1.25977 0
M  V30 1478 O 158.996 1.92286 -0.374551 0
M  V30 1479 H 157.576 0.0830565 -0.742368 0
M  V30 1480 H 160.238 -0.49838 -1.8842 0
M  V30 1481 H 159.334 0.439893 -3.08984 0
M  V30 1482 N 159.635 1.57281 -0.100228 0
M  V30 1483 C 160.881 1.95626 0.556946 0
M  V30 1484 C 161.236 0.981655 1.65473 0
M  V30 1485 O 160.529 0.00849847 1.91598 0
M  V30 1486 C 160.723 3.38305 1.15259 0
M  V30 1487 C 160.552 4.49555 0.114035 0
M  V30 1488 C 159.322 5.0434 -0.311266 0
M  V30 1489 C 161.52 5.10051 -0.659768 0
M  V30 1490 N 159.502 5.99152 -1.33755 0
M  V30 1491 C 160.873 6.00628 -1.53774 0
M  V30 1492 C 162.928 4.92772 -0.712723 0
M  V30 1493 C 161.631 6.7578 -2.46403 0
M  V30 1494 C 163.657 5.6859 -1.62663 0
M  V30 1495 C 163.019 6.58838 -2.49222 0
M  V30 1496 H 159.118 0.7624 0.173982 0
M  V30 1497 H 161.702 1.93829 -0.183988 0
M  V30 1498 H 159.873 3.40786 1.86332 0
M  V30 1499 H 161.605 3.63817 1.77254 0
M  V30 1500 H 158.36 4.73537 0.0774812 0
M  V30 1501 H 158.784 6.5126 -1.84905 0
M  V30 1502 H 163.426 4.22761 -0.0576648 0
M  V30 1503 H 161.144 7.4505 -3.12931 0
M  V30 1504 H 164.73 5.57233 -1.67281 0
M  V30 1505 H 163.61 7.16479 -3.18791 0
M  V30 1506 N 161.113 -0.173488 1.56642 0
M  V30 1507 C 162.361 -0.888706 1.81512 0
M  V30 1508 C 162.682 -1.82875 0.676872 0
M  V30 1509 O 161.952 -1.93536 -0.303414 0
M  V30 1510 H 160.532 -0.331164 0.669582 0
M  V30 1511 H 163.194 -0.173823 1.94123 0
M  V30 1512 H 162.29 -1.46691 2.75478 0
M  V30 1513 N 162.591 -1.51276 -0.441967 0
M  V30 1514 C 163.523 -1.68444 -1.55433 0
M  V30 1515 C 164.536 -0.565187 -1.52674 0
M  V30 1516 O 165.725 -0.839356 -1.57534 0
M  V30 1517 C 162.825 -1.67966 -2.94348 0
M  V30 1518 C 161.998 -2.964 -3.21661 0
M  V30 1519 C 161.057 -2.88171 -4.40277 0
M  V30 1520 O 160.083 -3.62119 -4.39157 0
M  V30 1521 N 161.285 -2.03706 -5.43584 0
M  V30 1522 H 164.05 -2.644 -1.41112 0
M  V30 1523 H 161.611 -1.49104 -0.630838 0
M  V30 1524 H 163.603 -1.60035 -3.71713 0
M  V30 1525 H 162.173 -0.796225 -3.0229 0
M  V30 1526 H 161.393 -3.18234 -2.32638 0
M  V30 1527 H 162.681 -3.81427 -3.36736 0
M  V30 1528 H 162.079 -1.42995 -5.47329 0
M  V30 1529 H 160.636 -2.01658 -6.1982 0
M  V30 1530 N 164.069 0.697108 -1.41344 0
M  V30 1531 C 165.297 1.48593 -1.43972 0
M  V30 1532 C 165.712 1.88747 -0.0445612 0
M  V30 1533 O 165.069 1.56682 0.935785 0
M  V30 1534 C 165.12 2.74946 -2.34706 0
M  V30 1535 O 164.841 2.36484 -3.68791 0
M  V30 1536 C 166.342 3.687 -2.46121 0
M  V30 1537 H 163.562 0.457964 -0.490418 0
M  V30 1538 H 166.106 0.858429 -1.8561 0
M  V30 1539 H 164.261 3.33937 -1.9638 0
M  V30 1540 H 164.675 3.17918 -4.17167 0
M  V30 1541 H 166.149 4.54145 -3.13777 0
M  V30 1542 H 166.626 4.13081 -1.49199 0
M  V30 1543 H 167.232 3.15613 -2.85076 0
M  V30 1544 N 165.547 1.27147 0.931209 0
M  V30 1545 C 166.495 1.09398 2.05268 0
M  V30 1546 C 167.489 0.0180591 1.6939 0
M  V30 1547 O 168.695 0.17551 1.79142 0
M  V30 1548 H 165.07 0.336986 0.672268 0
M  V30 1549 H 167.041 2.04416 2.17386 0
M  V30 1550 C 165.79 0.75424 3.39421 0
M  V30 1551 H 165.113 1.57404 3.67511 0
M  V30 1552 H 166.553 0.669903 4.18674 0
M  V30 1553 C 165.012 -0.541197 3.32525 0
M  V30 1554 O 165.542 -1.57664 3.69466 0
M  V30 1555 N 163.748 -0.535517 2.85623 0
M  V30 1556 H 163.295 0.307511 2.55758 0
M  V30 1557 H 163.253 -1.40236 2.81392 0
M  V30 1558 N 167.025 -1.13721 1.09112 0
M  V30 1559 C 167.935 -2.22638 0.73957 0
M  V30 1560 C 168.951 -1.72091 -0.257068 0
M  V30 1561 O 170.127 -2.01155 -0.0992154 0
M  V30 1562 C 167.192 -3.46322 0.16191 0
M  V30 1563 C 166.253 -4.11775 1.21408 0
M  V30 1564 C 165.486 -5.29555 0.663891 0
M  V30 1565 O 165.709 -5.68077 -0.514274 0
M  V30 1566 O 164.643 -5.84973 1.41738 0
M  V30 1567 H 168.469 -2.55074 1.64836 0
M  V30 1568 H 166.054 -1.21791 0.865289 0
M  V30 1569 H 167.936 -4.21107 -0.157073 0
M  V30 1570 H 166.611 -3.15593 -0.719932 0
M  V30 1571 H 165.518 -3.3883 1.58571 0
M  V30 1572 H 166.851 -4.46627 2.06845 0
M  V30 1573 N 168.503 -0.877838 -1.30888 0
M  V30 1574 C 169.728 -0.506629 -2.01117 0
M  V30 1575 C 170.153 0.895564 -1.65412 0
M  V30 1576 O 169.511 1.5923 -0.866922 0
M  V30 1577 C 169.559 -0.680223 -3.54126 0
M  V30 1578 O 168.663 0.277033 -4.11468 0
M  V30 1579 H 168.004 -0.200518 -0.633 0
M  V30 1580 H 170.534 -1.18342 -1.66902 0
M  V30 1581 H 170.544 -0.5765 -4.03907 0
M  V30 1582 H 169.219 -1.70261 -3.79452 0
M  V30 1583 H 167.796 0.127606 -3.72682 0
M  V30 1584 N 169.982 1.44106 -0.638065 0
M  V30 1585 C 171.228 2.02277 -0.145546 0
M  V30 1586 C 171.561 1.50125 1.23191 0
M  V30 1587 O 170.836 0.688133 1.8192 0
M  V30 1588 C 171.119 3.59829 -0.139791 0
M  V30 1589 C 170.972 4.22247 -1.55008 0
M  V30 1590 C 172.291 4.36873 0.531966 0
M  V30 1591 H 169.41 0.734992 -0.0543632 0
M  V30 1592 H 172.052 1.71592 -0.815863 0
M  V30 1593 H 170.202 3.86102 0.431007 0
M  V30 1594 H 171.874 4.07057 -2.1703 0
M  V30 1595 H 170.117 3.79476 -2.10191 0
M  V30 1596 H 170.788 5.31284 -1.49804 0
M  V30 1597 H 173.264 4.16074 0.0464781 0
M  V30 1598 H 172.14 5.4657 0.505206 0
M  V30 1599 H 172.401 4.11995 1.60352 0
M  V30 1600 N 171.46 0.379036 1.52974 0
M  V30 1601 C 172.876 0.0285448 1.59574 0
M  V30 1602 C 173.076 -1.45542 1.39355 0
M  V30 1603 O 172.132 -2.2187 1.20541 0
M  V30 1604 C 173.445 0.496535 2.96572 0
M  V30 1605 C 174.993 0.451909 3.0972 0
M  V30 1606 C 175.468 0.895924 4.49152 0
M  V30 1607 N 176.959 0.851522 4.55306 0
M  V30 1608 C 177.694 1.16661 5.61407 0
M  V30 1609 N 177.19 1.55166 6.752 0
M  V30 1610 N 178.983 1.08853 5.51459 0
M  V30 1611 H 171.134 1.34525 1.64367 0
M  V30 1612 H 173.397 0.550733 0.771619 0
M  V30 1613 H 173.103 1.53258 3.16552 0
M  V30 1614 H 172.977 -0.109802 3.7704 0
M  V30 1615 H 175.364 -0.575029 2.89443 0
M  V30 1616 H 175.445 1.09392 2.3123 0
M  V30 1617 H 175.089 1.92104 4.70168 0
M  V30 1618 H 175.019 0.23103 5.26093 0
M  V30 1619 H 177.51 0.568038 3.73606 0
M  V30 1620 H 177.823 1.776 7.52116 0
M  V30 1621 H 176.168 1.59044 6.76557 0
M  V30 1622 H 179.359 0.786803 4.6144 0
M  V30 1623 H 179.532 1.33742 6.34048 0
M  V30 1624 N 172.938 -1.57226 0.108567 0
M  V30 1625 C 174.187 -1.94008 -0.551703 0
M  V30 1626 C 174.5 -0.993442 -1.68494 0
M  V30 1627 O 175.706 -1.25551 -2.40726 0
M  V30 1628 C 174.162 -3.44763 -1.03279 0
M  V30 1629 C 173.77 -4.47943 0.0714193 0
M  V30 1630 C 175.514 -3.90483 -1.66503 0
M  V30 1631 C 173.421 -5.89865 -0.425779 0
M  V30 1632 H 172.351 -0.724206 -0.209863 0
M  V30 1633 H 175.002 -1.82547 0.186741 0
M  V30 1634 H 173.384 -3.51422 -1.82533 0
M  V30 1635 H 174.558 -4.52942 0.847365 0
M  V30 1636 H 172.873 -4.11913 0.609669 0
M  V30 1637 H 175.47 -4.93925 -2.04798 0
M  V30 1638 H 175.813 -3.29877 -2.53942 0
M  V30 1639 H 176.346 -3.86581 -0.938074 0
M  V30 1640 H 173.085 -6.54202 0.412316 0
M  V30 1641 H 172.605 -5.88309 -1.16843 0
M  V30 1642 H 174.284 -6.40844 -0.890397 0
M  V30 1643 N 174.416 0.165178 -1.56732 0
M  V30 1644 C 175.366 1.20917 -1.93295 0
M  V30 1645 C 176.35 1.39488 -0.801985 0
M  V30 1646 O 177.542 1.41356 -1.06525 0
M  V30 1647 C 174.671 2.54718 -2.3016 0
M  V30 1648 C 173.757 2.39815 -3.49785 0
M  V30 1649 N 174.148 1.94637 -4.66851 0
M  V30 1650 C 172.446 2.70623 -3.54513 0
M  V30 1651 C 173.147 1.92344 -5.4898 0
M  V30 1652 N 172.123 2.34978 -4.9019 0
M  V30 1653 H 175.925 0.851675 -2.81289 0
M  V30 1654 H 173.439 0.373399 -1.58049 0
M  V30 1655 H 175.436 3.30165 -2.54552 0
M  V30 1656 H 174.096 2.91265 -1.43508 0
M  V30 1657 H 175.107 1.6488 -4.90953 0
M  V30 1658 H 171.784 3.11167 -2.78354 0
M  V30 1659 H 173.174 1.5906 -6.52801 0
M  V30 1660 N 175.894 1.51508 0.433938 0
M  V30 1661 C 176.804 1.75917 1.5521 0
M  V30 1662 C 177.82 0.643545 1.61662 0
M  V30 1663 O 178.996 0.926183 1.7884 0
M  V30 1664 C 176.061 1.88213 2.91164 0
M  V30 1665 C 175.122 3.12074 2.94802 0
M  V30 1666 C 174.355 3.23774 4.24271 0
M  V30 1667 O 174.578 2.4133 5.16833 0
M  V30 1668 O 173.512 4.16774 4.34262 0
M  V30 1669 H 177.338 2.70777 1.37527 0
M  V30 1670 H 174.923 1.36051 0.617293 0
M  V30 1671 H 176.805 1.98267 3.71845 0
M  V30 1672 H 175.48 0.965413 3.08968 0
M  V30 1673 H 174.387 3.07497 2.13065 0
M  V30 1674 H 175.72 4.03446 2.81943 0
M  V30 1675 N 177.372 -0.689602 1.41712 0
M  V30 1676 C 178.788 -1.00093 1.24312 0
M  V30 1677 C 178.988 -2.01036 0.136729 0
M  V30 1678 O 178.044 -2.47562 -0.496918 0
M  V30 1679 C 179.357 -1.51985 2.59463 0
M  V30 1680 C 180.905 -1.63838 2.66695 0
M  V30 1681 C 181.38 -2.1913 4.02177 0
M  V30 1682 N 182.871 -2.26483 4.04054 0
M  V30 1683 C 183.606 -2.70306 5.0569 0
M  V30 1684 N 183.102 -3.13691 6.17713 0
M  V30 1685 N 184.895 -2.69923 4.9305 0
M  V30 1686 H 177.046 -0.0210029 2.1239 0
M  V30 1687 H 179.309 -0.0718733 0.945272 0
M  V30 1688 H 179.015 -0.85269 3.41207 0
M  V30 1689 H 178.889 -2.50103 2.82362 0
M  V30 1690 H 181.276 -2.29664 1.85306 0
M  V30 1691 H 181.357 -0.642492 2.476 0
M  V30 1692 H 181.001 -1.53918 4.84016 0
M  V30 1693 H 180.931 -3.19482 4.18615 0
M  V30 1694 H 183.422 -1.95874 3.23174 0
M  V30 1695 H 183.735 -3.45773 6.9113 0
M  V30 1696 H 182.08 -3.11585 6.21241 0
M  V30 1697 H 185.271 -2.35382 4.04614 0
M  V30 1698 H 185.444 -3.03758 5.72394 0
M  V30 1699 N 178.85 -1.27639 -0.924453 0
M  V30 1700 C 180.078 -1.16989 -1.70649 0
M  V30 1701 C 180.493 0.272869 -1.86818 0
M  V30 1702 O 179.85 1.18549 -1.38753 0
M  V30 1703 C 179.901 -1.85229 -3.10439 0
M  V30 1704 O 179.622 -3.23868 -2.95028 0
M  V30 1705 C 181.123 -1.80746 -4.04779 0
M  V30 1706 H 178.343 -0.406595 -0.53378 0
M  V30 1707 H 180.887 -1.68569 -1.15778 0
M  V30 1708 H 179.042 -1.37545 -3.6216 0
M  V30 1709 H 179.456 -3.57889 -3.83426 0
M  V30 1710 H 180.93 -2.33101 -5.00368 0
M  V30 1711 H 181.407 -0.777499 -4.32263 0
M  V30 1712 H 182.013 -2.28059 -3.58984 0
M  V30 1713 N 180.328 1.1314 -1.09713 0
M  V30 1714 C 181.261 2.17735 -0.683137 0
M  V30 1715 C 182.239 1.59582 0.311841 0
M  V30 1716 O 183.423 1.87298 0.212514 0
M  V30 1717 C 180.55 3.38699 -0.00684324 0
M  V30 1718 C 179.596 4.1546 -0.964102 0
M  V30 1719 S 180.429 4.74733 -2.47767 0
M  V30 1720 C 181.585 5.9904 -1.81387 0
M  V30 1721 H 181.818 2.52515 -1.56918 0
M  V30 1722 H 179.351 1.24484 -0.913404 0
M  V30 1723 H 181.309 4.08765 0.377044 0
M  V30 1724 H 179.97 3.02214 0.85589 0
M  V30 1725 H 179.163 5.02093 -0.43803 0
M  V30 1726 H 178.765 3.51066 -1.28953 0
M  V30 1727 H 181.057 6.67846 -1.13967 0
M  V30 1728 H 182 6.56261 -2.65947 0
M  V30 1729 H 182.408 5.4976 -1.28155 0
M  V30 1730 N 181.806 0.884767 1.30421 0
M  V30 1731 C 183.031 0.517288 2.00845 0
M  V30 1732 C 183.456 -0.886779 1.65885 0
M  V30 1733 O 182.814 -1.58768 0.875354 0
M  V30 1734 C 182.862 0.698994 3.5376 0
M  V30 1735 O 181.966 -0.255208 4.1161 0
M  V30 1736 H 181.307 0.203872 0.631927 0
M  V30 1737 H 183.837 1.19225 1.66272 0
M  V30 1738 H 183.847 0.597912 4.03595 0
M  V30 1739 H 182.522 1.72271 3.78544 0
M  V30 1740 H 181.099 -0.10784 3.72744 0
M  V30 1741 N 183.284 -1.43765 0.645699 0
M  V30 1742 C 184.194 -2.34544 -0.0512957 0
M  V30 1743 C 185.21 -1.53455 -0.82022 0
M  V30 1744 O 186.386 -1.86133 -0.769176 0
M  V30 1745 C 183.451 -3.31636 -1.01087 0
M  V30 1746 C 182.512 -4.2863 -0.239712 0
M  V30 1747 C 181.745 -5.21084 -1.15358 0
M  V30 1748 O 181.968 -5.1779 -2.39269 0
M  V30 1749 O 180.902 -5.98593 -0.630038 0
M  V30 1750 H 184.728 -2.95624 0.695718 0
M  V30 1751 H 182.313 -1.43781 0.405882 0
M  V30 1752 H 184.195 -3.9136 -1.56254 0
M  V30 1753 H 182.87 -2.73069 -1.73824 0
M  V30 1754 H 181.777 -3.72408 0.355356 0
M  V30 1755 H 183.11 -4.90157 0.447936 0
M  V30 1756 N 184.763 -0.387143 -1.52771 0
M  V30 1757 C 186.179 -0.037007 -1.59557 0
M  V30 1758 C 186.379 1.44801 -1.40124 0
M  V30 1759 O 185.435 2.21227 -1.21716 0
M  V30 1760 C 186.748 -0.512256 -2.96305 0
M  V30 1761 C 188.296 -0.468328 -3.09476 0
M  V30 1762 C 188.771 -0.919731 -4.4867 0
M  V30 1763 N 190.262 -0.875656 -4.54848 0
M  V30 1764 C 190.997 -1.19637 -5.6078 0
M  V30 1765 N 190.493 -1.58745 -6.74368 0
M  V30 1766 N 192.286 -1.11776 -5.50874 0
M  V30 1767 H 184.437 -1.35395 -1.63652 0
M  V30 1768 H 186.7 -0.554818 -0.768688 0
M  V30 1769 H 186.406 -1.54935 -3.15734 0
M  V30 1770 H 186.28 0.089805 -3.77093 0
M  V30 1771 H 188.667 0.559671 -2.89744 0
M  V30 1772 H 188.748 -1.10616 -2.30646 0
M  V30 1773 H 188.392 -1.94595 -4.69143 0
M  V30 1774 H 188.322 -0.258927 -5.25963 0
M  V30 1775 H 190.813 -0.587843 -3.733 0
M  V30 1776 H 191.126 -1.81586 -7.51163 0
M  V30 1777 H 189.471 -1.6263 -6.75705 0
M  V30 1778 H 192.662 -0.811264 -4.61016 0
M  V30 1779 H 192.835 -1.37103 -6.3333 0
M  V30 1780 N 186.241 1.57166 -0.116904 0
M  V30 1781 C 187.469 1.99473 0.549383 0
M  V30 1782 C 187.884 0.996541 1.60357 0
M  V30 1783 O 187.241 -0.0108731 1.82497 0
M  V30 1784 C 187.292 3.41788 1.17741 0
M  V30 1785 O 187.013 4.37788 0.165362 0
M  V30 1786 C 188.514 3.99216 1.92722 0
M  V30 1787 H 185.734 0.655009 0.145616 0
M  V30 1788 H 188.278 2.03494 -0.202625 0
M  V30 1789 H 186.433 3.38713 1.88021 0
M  V30 1790 H 186.847 5.20806 0.621403 0
M  V30 1791 H 188.321 5.00882 2.31995 0
M  V30 1792 H 188.798 3.3824 2.80161 0
M  V30 1793 H 189.404 4.0583 1.27209 0
M  V30 1794 N 187.719 -0.156864 1.56817 0
M  V30 1795 C 188.666 -1.19394 1.97519 0
M  V30 1796 C 189.636 -1.4322 0.841265 0
M  V30 1797 O 190.821 -1.55719 1.10255 0
M  V30 1798 C 187.961 -2.52483 2.35258 0
M  V30 1799 C 187.074 -2.35914 3.61896 0
M  V30 1800 C 186.209 -3.61969 3.88782 0
M  V30 1801 C 185.248 -3.40395 5.08722 0
M  V30 1802 N 184.385 -4.58556 5.31668 0
M  V30 1803 H 189.225 -0.839845 2.85921 0
M  V30 1804 H 186.762 -0.403264 1.41464 0
M  V30 1805 H 188.72 -3.30071 2.55165 0
M  V30 1806 H 187.35 -2.85859 1.49949 0
M  V30 1807 H 186.402 -1.49429 3.49821 0
M  V30 1808 H 187.714 -2.15926 4.49641 0
M  V30 1809 H 186.868 -4.47989 4.09135 0
M  V30 1810 H 185.607 -3.84951 2.9944 0
M  V30 1811 H 184.612 -2.52763 4.88253 0
M  V30 1812 H 185.837 -3.18822 5.99608 0
M  V30 1813 H 183.783 -4.81729 4.45279 0
M  V30 1814 H 183.7 -4.41535 6.13664 0
M  V30 1815 H 184.968 -5.45817 5.5651 0
M  V30 1816 N 189.197 -1.51736 -0.425897 0
M  V30 1817 C 190.144 -1.73875 -1.51776 0
M  V30 1818 C 191.114 -0.580702 -1.55618 0
M  V30 1819 O 192.299 -0.81641 -1.72451 0
M  V30 1820 C 189.439 -1.88012 -2.89388 0
M  V30 1821 C 188.552 -3.15606 -2.94986 0
M  V30 1822 C 187.687 -3.20271 -4.23793 0
M  V30 1823 C 186.726 -4.42134 -4.23302 0
M  V30 1824 N 185.863 -4.44284 -5.43651 0
M  V30 1825 H 190.703 -2.67071 -1.32201 0
M  V30 1826 H 188.24 -1.32351 -0.642008 0
M  V30 1827 H 190.198 -1.9419 -3.69251 0
M  V30 1828 H 188.828 -0.98213 -3.07496 0
M  V30 1829 H 187.88 -3.18681 -2.07717 0
M  V30 1830 H 189.192 -4.05486 -2.90486 0
M  V30 1831 H 188.346 -3.25428 -5.12036 0
M  V30 1832 H 187.085 -2.28299 -4.30965 0
M  V30 1833 H 186.09 -4.3714 -3.3345 0
M  V30 1834 H 187.315 -5.35382 -4.17783 0
M  V30 1835 H 185.261 -3.55188 -5.51523 0
M  V30 1836 H 185.178 -5.27988 -5.41078 0
M  V30 1837 H 186.446 -4.53649 -6.33895 0
M  V30 1838 N 190.675 0.682077 -1.42076 0
M  V30 1839 C 191.922 1.44215 -1.42156 0
M  V30 1840 C 192.25 1.94468 -0.0354186 0
M  V30 1841 O 191.505 1.70816 0.955002 0
M  V30 1842 C 191.804 2.66036 -2.38662 0
M  V30 1843 C 191.47 2.34366 -3.85206 0
M  V30 1844 C 190.132 2.25439 -4.25124 0
M  V30 1845 C 192.484 2.08513 -4.77673 0
M  V30 1846 C 189.812 1.88775 -5.55501 0
M  V30 1847 C 192.164 1.73354 -6.08384 0
M  V30 1848 C 190.828 1.62933 -6.47309 0
M  V30 1849 H 190.098 0.527718 -0.520187 0
M  V30 1850 H 192.745 0.778387 -1.74967 0
M  V30 1851 H 191.05 3.3741 -1.99152 0
M  V30 1852 H 192.747 3.24205 -2.35991 0
M  V30 1853 H 189.337 2.42213 -3.53597 0
M  V30 1854 H 193.521 2.14346 -4.47626 0
M  V30 1855 H 188.777 1.7927 -5.84527 0
M  V30 1856 H 192.951 1.52373 -6.79526 0
M  V30 1857 H 190.578 1.34292 -7.48244 0
M  V30 1858 N 192.153 1.28127 0.917671 0
M  V30 1859 C 193.083 1.14248 2.03641 0
M  V30 1860 C 194.064 0.0412748 1.7005 0
M  V30 1861 O 195.249 0.217566 1.92977 0
M  V30 1862 C 192.379 0.799431 3.37974 0
M  V30 1863 C 191.333 1.85497 3.85713 0
M  V30 1864 C 190.659 1.36565 5.16966 0
M  V30 1865 C 191.959 3.26085 4.08002 0
M  V30 1866 H 193.653 2.07835 2.15511 0
M  V30 1867 H 191.199 1.00064 1.03553 0
M  V30 1868 H 193.152 0.689114 4.15727 0
M  V30 1869 H 191.876 -0.172145 3.26146 0
M  V30 1870 H 190.535 1.95437 3.10161 0
M  V30 1871 H 190.183 0.383253 5.01538 0
M  V30 1872 H 189.883 2.07143 5.49878 0
M  V30 1873 H 191.407 1.26848 5.97279 0
M  V30 1874 H 192.821 3.19089 4.76293 0
M  V30 1875 H 191.218 3.94462 4.52238 0
M  V30 1876 H 192.288 3.70394 3.12948 0
M  V30 1877 N 193.631 -1.12557 1.10312 0
M  V30 1878 C 194.594 -2.16434 0.75424 0
M  V30 1879 C 195.594 -1.59278 -0.220685 0
M  V30 1880 O 196.784 -1.742 0.00230591 0
M  V30 1881 C 193.916 -3.40699 0.116987 0
M  V30 1882 H 195.109 -2.48811 1.67431 0
M  V30 1883 H 192.662 -1.27542 0.903475 0
M  V30 1884 H 193.397 -3.13921 -0.813877 0
M  V30 1885 H 193.182 -3.83459 0.818613 0
M  V30 1886 H 194.672 -4.17451 -0.111387 0
M  V30 1887 N 195.109 -0.891671 -1.2995 0
M  V30 1888 C 196.072 -0.36828 -2.26222 0
M  V30 1889 C 197.072 0.493014 -1.53056 0
M  V30 1890 O 198.262 0.299213 -1.71611 0
M  V30 1891 C 195.394 0.47442 -3.37583 0
M  V30 1892 H 196.587 -1.21844 -2.74033 0
M  V30 1893 H 194.14 -0.669107 -1.41254 0
M  V30 1894 H 194.875 1.34489 -2.95099 0
M  V30 1895 H 194.66 -0.142615 -3.91841 0
M  V30 1896 H 196.15 0.83218 -4.09224 0
M  V30 1897 N 196.587 1.43421 -0.653314 0
M  V30 1898 C 197.535 2.32546 0.0501531 0
M  V30 1899 C 198.529 1.48617 0.812985 0
M  V30 1900 O 199.735 1.64825 0.723375 0
M  V30 1901 H 196.11 0.751185 0.0350032 0
M  V30 1902 H 198.081 2.89602 -0.719261 0
M  V30 1903 C 196.83 3.32925 1.00279 0
M  V30 1904 H 196.153 3.97532 0.425236 0
M  V30 1905 H 197.593 3.9792 1.46409 0
M  V30 1906 C 196.052 2.63532 2.09886 0
M  V30 1907 O 196.582 2.45092 3.18265 0
M  V30 1908 N 194.788 2.22905 1.86445 0
M  V30 1909 H 194.335 2.38103 0.98309 0
M  V30 1910 H 194.293 1.76805 2.59976 0
M  V30 1911 N 198.065 0.39524 1.52563 0
M  V30 1912 C 199.313 -0.184678 2.01254 0
M  V30 1913 C 199.634 -1.46822 1.28329 0
M  V30 1914 O 198.904 -1.91666 0.405094 0
M  V30 1915 H 197.484 -0.0712355 0.743596 0
M  V30 1916 H 200.146 0.528293 1.87603 0
M  V30 1917 H 199.242 -0.390681 3.09645 0
M  V30 1918 N 199.544 -1.57102 0.125237 0
M  V30 1919 C 200.491 -2.15641 -0.822655 0
M  V30 1920 C 201.461 -1.08313 -1.25927 0
M  V30 1921 O 202.646 -1.36251 -1.33567 0
M  V30 1922 C 199.786 -2.76504 -2.06494 0
M  V30 1923 C 198.899 -3.98158 -1.67612 0
M  V30 1924 C 198.034 -4.47088 -2.86854 0
M  V30 1925 C 197.073 -5.6126 -2.44242 0
M  V30 1926 N 196.21 -6.04905 -3.56419 0
M  V30 1927 H 201.05 -2.96313 -0.316625 0
M  V30 1928 H 198.587 -1.46388 -0.144588 0
M  V30 1929 H 200.545 -3.09925 -2.79289 0
M  V30 1930 H 199.175 -1.98512 -2.54545 0
M  V30 1931 H 198.227 -3.70858 -0.846661 0
M  V30 1932 H 199.539 -4.80934 -1.32301 0
M  V30 1933 H 198.693 -4.82451 -3.67867 0
M  V30 1934 H 197.432 -3.63275 -3.25396 0
M  V30 1935 H 196.437 -5.25495 -1.61663 0
M  V30 1936 H 197.662 -6.46843 -2.0681 0
M  V30 1937 H 195.608 -5.24032 -3.94623 0
M  V30 1938 H 195.525 -6.82552 -3.25051 0
M  V30 1939 H 196.793 -6.44907 -4.37853 0
M  V30 1940 N 201.022 0.148545 -1.56898 0
M  V30 1941 C 202.438 0.501131 -1.51528 0
M  V30 1942 C 202.638 1.83458 -0.833399 0
M  V30 1943 O 201.694 2.49259 -0.40328 0
M  V30 1944 C 203.007 0.512864 -2.96294 0
M  V30 1945 C 204.555 0.598487 -3.07225 0
M  V30 1946 C 205.03 0.640897 -4.53494 0
M  V30 1947 N 206.521 0.703163 -4.57832 0
M  V30 1948 C 207.256 0.756935 -5.68382 0
M  V30 1949 N 206.752 0.770147 -6.88506 0
M  V30 1950 N 208.545 0.797698 -5.56411 0
M  V30 1951 H 200.696 -0.725532 -1.99624 0
M  V30 1952 H 202.959 -0.264358 -0.910395 0
M  V30 1953 H 202.665 -0.398691 -3.49433 0
M  V30 1954 H 202.539 1.35133 -3.52163 0
M  V30 1955 H 204.926 1.50046 -2.54106 0
M  V30 1956 H 205.007 -0.267093 -2.54402 0
M  V30 1957 H 204.651 -0.256915 -5.0725 0
M  V30 1958 H 204.581 1.52295 -5.04097 0
M  V30 1959 H 207.072 0.700314 -3.71354 0
M  V30 1960 H 207.385 0.812983 -7.68512 0
M  V30 1961 H 205.73 0.738049 -6.9107 0
M  V30 1962 H 208.921 0.784535 -4.61479 0
M  V30 1963 H 209.094 0.83614 -6.42583 0
M  V30 1964 N 202.5 1.5196 0.417844 0
M  V30 1965 C 203.749 1.6482 1.16264 0
M  V30 1966 C 204.062 0.379886 1.91876 0
M  V30 1967 O 205.268 0.388154 2.68711 0
M  V30 1968 C 203.724 2.91161 2.1155 0
M  V30 1969 C 203.332 4.25068 1.41495 0
M  V30 1970 C 205.076 3.13383 2.86341 0
M  V30 1971 C 202.983 5.42541 2.35379 0
M  V30 1972 H 201.913 0.613954 0.437694 0
M  V30 1973 H 204.564 1.78442 0.427871 0
M  V30 1974 H 202.946 2.71218 2.88543 0
M  V30 1975 H 204.12 4.55463 0.699263 0
M  V30 1976 H 202.435 4.0888 0.787792 0
M  V30 1977 H 205.032 3.98324 3.5671 0
M  V30 1978 H 205.375 2.27256 3.48798 0
M  V30 1979 H 205.908 3.33757 2.1645 0
M  V30 1980 H 202.647 6.30987 1.77582 0
M  V30 1981 H 202.167 5.16497 3.04945 0
M  V30 1982 H 203.846 5.75272 2.96093 0
M  V30 1983 N 203.978 -0.674533 1.42435 0
M  V30 1984 C 204.928 -1.7807 1.4239 0
M  V30 1985 C 205.912 -1.58169 0.295202 0
M  V30 1986 O 207.104 -1.68643 0.537449 0
M  V30 1987 C 204.233 -3.16532 1.32901 0
M  V30 1988 C 203.319 -3.42055 2.50717 0
M  V30 1989 N 203.71 -3.38162 3.76139 0
M  V30 1990 C 202.008 -3.72692 2.44983 0
M  V30 1991 C 202.709 -3.63177 4.54398 0
M  V30 1992 N 201.685 -3.83954 3.84812 0
M  V30 1993 H 205.487 -1.73454 2.37257 0
M  V30 1994 H 203.001 -0.875381 1.36788 0
M  V30 1995 H 204.998 -3.958 1.30951 0
M  V30 1996 H 203.658 -3.22345 0.390363 0
M  V30 1997 H 204.669 -3.18057 4.0873 0
M  V30 1998 H 201.346 -3.85749 1.59699 0
M  V30 1999 H 202.736 -3.66125 5.63384 0
M  V30 2000 N 205.456 -1.28612 -0.910864 0
M  V30 2001 C 206.733 -1.06632 -1.63979 0
M  V30 2002 C 207.113 0.393351 -2.07403 0
M  V30 2003 O 206.461 1.37999 -1.82122 0
M  V30 2004 C 206.671 -2.0436 -2.8291 0
M  V30 2005 C 208.019 -2.34666 -3.5386 0
M  V30 2006 O 209.043 -2.02467 -2.93062 0
M  V30 2007 O 207.902 -2.89631 -4.63439 0
M  V30 2008 H 204.996 -0.407737 -0.7195 0
M  V30 2009 H 207.542 -1.39942 -0.959914 0
M  V30 2010 H 206.314 -3.02727 -2.47936 0
M  V30 2011 H 205.937 -1.71714 -3.58609 0
M  V30 2012 N 206.934 1.1197 -1.10907 0
M  V30 2013 C 207.882 2.19927 -0.757303 0
M  V30 2014 C 208.876 1.67564 0.248747 0
M  V30 2015 O 210.082 1.79672 0.108605 0
M  V30 2016 H 206.457 0.716925 -0.226987 0
M  V30 2017 H 208.428 2.46847 -1.67658 0
M  V30 2018 C 207.177 3.47061 -0.210671 0
M  V30 2019 H 206.5 3.87703 -0.976049 0
M  V30 2020 H 207.94 4.24 -0.0026584 0
M  V30 2021 C 206.399 3.19864 1.05777 0
M  V30 2022 O 206.929 3.40049 2.13845 0
M  V30 2023 N 205.135 2.73636 0.978349 0
M  V30 2024 H 204.682 2.5741 0.0988246 0
M  V30 2025 H 204.64 2.55815 1.82773 0
M  V30 2026 N 208.412 0.89855 1.29475 0
M  V30 2027 C 209.66 0.522847 1.9522 0
M  V30 2028 C 209.981 -0.93371 1.71192 0
M  V30 2029 O 209.251 -1.65823 1.04305 0
M  V30 2030 H 207.831 0.190366 0.722336 0
M  V30 2031 H 210.493 1.14459 1.5775 0
M  V30 2032 H 209.589 0.704476 3.04045 0
M  V30 2033 N 209.89 -1.43072 0.660911 0
M  V30 2034 C 211.167 -1.95307 0.107017 0
M  V30 2035 C 211.547 -1.60192 -1.37484 0
M  V30 2036 O 210.895 -0.890949 -2.10415 0
M  V30 2037 C 211.105 -3.47124 0.361402 0
M  V30 2038 C 212.453 -4.23738 0.270455 0
M  V30 2039 O 213.477 -3.54981 0.294382 0
M  V30 2040 O 212.336 -5.46131 0.200737 0
M  V30 2041 H 209.43 -0.826984 -0.00517729 0
M  V30 2042 H 211.976 -1.52972 0.734681 0
M  V30 2043 H 210.748 -3.65837 1.38848 0
M  V30 2044 H 210.371 -3.96475 -0.298953 0
M  V30 2045 N 211.368 -0.403325 -1.52352 0
M  V30 2046 C 212.298 0.416205 -2.29761 0
M  V30 2047 C 213.279 1.05123 -1.33728 0
M  V30 2048 O 214.464 1.06134 -1.62632 0
M  V30 2049 C 211.594 1.53624 -3.11475 0
M  V30 2050 C 210.548 1.02653 -4.15507 0
M  V30 2051 C 209.874 2.23971 -4.85532 0
M  V30 2052 C 211.174 0.08463 -5.22231 0
M  V30 2053 H 212.868 -0.229701 -2.98518 0
M  V30 2054 H 210.414 -0.111913 -1.43564 0
M  V30 2055 H 212.367 2.1165 -3.64393 0
M  V30 2056 H 211.091 2.20994 -2.40477 0
M  V30 2057 H 209.75 0.46871 -3.63591 0
M  V30 2058 H 209.398 2.89883 -4.11068 0
M  V30 2059 H 209.098 1.90521 -5.55856 0
M  V30 2060 H 210.622 2.82614 -5.41259 0
M  V30 2061 H 212.036 0.573509 -5.70424 0
M  V30 2062 H 210.433 -0.160783 -5.99885 0
M  V30 2063 H 211.503 -0.86237 -4.7717 0
M  V30 2064 N 212.846 1.57033 -0.133567 0
M  V30 2065 C 213.796 2.12641 0.822671 0
M  V30 2066 C 214.78 1.05081 1.21847 0
M  V30 2067 O 215.972 1.31287 1.18713 0
M  V30 2068 C 213.101 2.74094 2.06706 0
M  V30 2069 C 212.187 3.88757 1.69497 0
M  V30 2070 N 212.578 4.95194 1.03037 0
M  V30 2071 C 210.876 3.99213 1.98859 0
M  V30 2072 C 211.577 5.75414 0.852873 0
M  V30 2073 N 210.553 5.25726 1.3825 0
M  V30 2074 H 214.355 2.92308 0.305537 0
M  V30 2075 H 211.869 1.62256 0.0684276 0
M  V30 2076 H 213.866 3.12285 2.76195 0
M  V30 2077 H 212.526 1.95896 2.5895 0
M  V30 2078 H 213.537 5.13247 0.692669 0
M  V30 2079 H 210.214 3.32075 2.53047 0
M  V30 2080 H 211.604 6.71089 0.330091 0
M  V30 2081 N 214.325 -0.140222 1.56975 0
M  V30 2082 C 215.275 -1.17827 1.95194 0
M  V30 2083 C 216.259 -1.38195 0.824075 0
M  V30 2084 O 217.451 -1.39643 1.0876 0
M  V30 2085 C 214.58 -2.51024 2.34184 0
M  V30 2086 C 213.666 -2.3422 3.53556 0
M  V30 2087 N 214.057 -1.87185 4.69889 0
M  V30 2088 C 212.355 -2.64949 3.58773 0
M  V30 2089 C 213.056 -1.83586 5.5197 0
M  V30 2090 N 212.032 -2.2715 4.93866 0
M  V30 2091 H 215.834 -0.806817 2.82609 0
M  V30 2092 H 213.348 -0.348208 1.58623 0
M  V30 2093 H 215.345 -3.26074 2.59772 0
M  V30 2094 H 214.005 -2.88945 1.48124 0
M  V30 2095 H 215.016 -1.57048 4.93514 0
M  V30 2096 H 211.693 -3.067 2.8327 0
M  V30 2097 H 213.083 -1.48655 6.55249 0
M  V30 2098 N 215.803 -1.52179 -0.40978 0
M  V30 2099 C 217.049 -1.66453 -1.15851 0
M  V30 2100 C 217.382 -0.392972 -1.90182 0
M  V30 2101 O 216.657 0.608579 -1.84734 0
M  V30 2102 C 216.94 -2.88612 -2.15349 0
M  V30 2103 C 216.793 -4.25815 -1.44918 0
M  V30 2104 C 218.112 -3.06294 -3.16026 0
M  V30 2105 H 215.231 -0.60575 -0.419805 0
M  V30 2106 H 217.873 -1.84732 -0.444314 0
M  V30 2107 H 216.023 -2.73158 -2.76255 0
M  V30 2108 H 217.695 -4.52995 -0.871365 0
M  V30 2109 H 215.938 -4.27247 -0.751159 0
M  V30 2110 H 216.609 -5.07337 -2.17516 0
M  V30 2111 H 219.085 -3.20641 -2.65195 0
M  V30 2112 H 217.961 -3.93283 -3.8291 0
M  V30 2113 H 218.222 -2.19579 -3.83715 0
M  V30 2114 N 217.281 0.66697 -1.42791 0
M  V30 2115 C 218.231 1.77313 -1.43332 0
M  V30 2116 C 219.215 1.5801 -0.303586 0
M  V30 2117 O 220.407 1.68356 -0.546385 0
M  V30 2118 C 217.536 3.15822 -1.34578 0
M  V30 2119 C 216.622 3.40721 -2.52528 0
M  V30 2120 N 217.013 3.36162 -3.77927 0
M  V30 2121 C 215.311 3.71387 -2.46956 0
M  V30 2122 C 216.012 3.60762 -4.56318 0
M  V30 2123 N 214.988 3.81908 -3.86843 0
M  V30 2124 H 218.79 1.72193 -2.38174 0
M  V30 2125 H 216.304 0.868114 -1.3725 0
M  V30 2126 H 218.301 3.951 -1.33048 0
M  V30 2127 H 216.961 3.22133 -0.407453 0
M  V30 2128 H 217.972 3.15885 -4.10411 0
M  V30 2129 H 214.649 3.84897 -1.61743 0
M  V30 2130 H 216.039 3.63132 -5.65318 0
M  V30 2131 N 218.759 1.29093 0.90403 0
M  V30 2132 C 219.692 1.08176 2.00931 0
M  V30 2133 C 220.67 -0.005083 1.62599 0
M  V30 2134 O 221.854 0.144765 1.87943 0
M  V30 2135 C 218.981 0.645897 3.32484 0
M  V30 2136 C 218.027 1.73081 3.89801 0
M  V30 2137 S 218.86 3.32905 4.19446 0
M  V30 2138 C 220.016 2.91176 5.54046 0
M  V30 2139 H 220.249 2.01752 2.18365 0
M  V30 2140 H 217.782 1.13191 1.0501 0
M  V30 2141 H 219.74 0.401131 4.08535 0
M  V30 2142 H 218.401 -0.270188 3.12936 0
M  V30 2143 H 217.594 1.37768 4.84805 0
M  V30 2144 H 217.196 1.92888 3.20422 0
M  V30 2145 H 219.488 2.37952 6.34338 0
M  V30 2146 H 220.431 3.85014 5.94281 0
M  V30 2147 H 220.839 2.296 5.15698 0
M  V30 2148 N 220.237 -1.11381 1.11499 0
M  V30 2149 C 221.462 -1.87475 0.887019 0
M  V30 2150 C 221.887 -1.79639 -0.557796 0
M  V30 2151 O 221.245 -1.15924 -1.39396 0
M  V30 2152 C 221.293 -3.34213 1.35403 0
M  V30 2153 O 220.397 -4.0903 0.526146 0
M  V30 2154 H 219.738 -0.582099 0.319463 0
M  V30 2155 H 222.268 -1.40785 1.48461 0
M  V30 2156 H 222.278 -3.8506 1.34881 0
M  V30 2157 H 220.953 -3.39232 2.40612 0
M  V30 2158 H 219.53 -3.68082 0.597522 0
M  V30 2159 N 221.715 -0.905404 -1.28997 0
M  V30 2160 C 222.962 -0.534248 -1.95325 0
M  V30 2161 C 223.29 0.920535 -1.71337 0
M  V30 2162 O 222.545 1.66861 -1.02254 0
M  V30 2163 C 222.844 -0.779906 -3.48787 0
M  V30 2164 C 222.51 -2.21293 -3.92861 0
M  V30 2165 C 221.172 -2.60475 -4.04606 0
M  V30 2166 C 223.524 -3.14587 -4.15553 0
M  V30 2167 C 220.852 -3.9212 -4.36416 0
M  V30 2168 C 223.204 -4.45787 -4.48839 0
M  V30 2169 C 221.868 -4.84834 -4.58794 0
M  V30 2170 H 221.138 -0.195495 -0.714747 0
M  V30 2171 H 223.785 -1.14514 -1.53488 0
M  V30 2172 H 222.09 -0.0861365 -3.91705 0
M  V30 2173 H 223.787 -0.472029 -3.98212 0
M  V30 2174 H 220.377 -1.89887 -3.84241 0
M  V30 2175 H 224.561 -2.85528 -4.0594 0
M  V30 2176 H 219.817 -4.22086 -4.42327 0
M  V30 2177 H 223.991 -5.18098 -4.65346 0
M  V30 2178 H 221.618 -5.86877 -4.83197 0
M  V30 2179 N 223.193 1.4272 -0.668489 0
M  V30 2180 C 224.421 2.05966 -0.196348 0
M  V30 2181 C 224.836 1.50191 1.14403 0
M  V30 2182 O 224.193 0.639208 1.7094 0
M  V30 2183 C 224.244 3.61314 -0.115815 0
M  V30 2184 O 223.965 4.1502 -1.40322 0
M  V30 2185 C 225.466 4.41663 0.380579 0
M  V30 2186 H 222.686 0.663954 -0.0969829 0
M  V30 2187 H 225.23 1.82966 -0.913446 0
M  V30 2188 H 223.385 3.83448 0.551931 0
M  V30 2189 H 223.799 5.08832 -1.27243 0
M  V30 2190 H 225.273 5.5065 0.385848 0
M  V30 2191 H 225.75 4.15792 1.41471 0
M  V30 2192 H 226.356 4.24534 -0.255209 0
M  V30 2193 N 224.671 0.411399 1.52136 0
M  V30 2194 C 225.581 -0.419774 2.30814 0
M  V30 2195 C 226.597 -1.0515 1.38634 0
M  V30 2196 O 227.773 -1.05252 1.71709 0
M  V30 2197 C 224.838 -1.52019 3.11594 0
M  V30 2198 C 223.899 -0.91129 4.19516 0
M  V30 2199 C 223.132 -1.95927 4.96436 0
M  V30 2200 O 223.355 -3.17775 4.73683 0
M  V30 2201 O 222.289 -1.56423 5.81219 0
M  V30 2202 H 226.115 0.221805 3.02889 0
M  V30 2203 H 223.7 0.174547 1.48377 0
M  V30 2204 H 225.582 -2.15898 3.61892 0
M  V30 2205 H 224.257 -2.14633 2.42311 0
M  V30 2206 H 223.164 -0.235157 3.7336 0
M  V30 2207 H 224.497 -0.32904 4.91099 0
M  V30 2208 N 226.149 -1.5696 0.141893 0
M  V30 2209 C 227.397 -1.95573 -0.509484 0
M  V30 2210 C 227.718 -1.02746 -1.65736 0
M  V30 2211 O 226.988 -0.0880311 -1.95702 0
M  V30 2212 H 225.568 -0.722115 -0.191205 0
M  V30 2213 H 228.23 -1.93697 0.216196 0
M  V30 2214 H 227.326 -2.99171 -0.889 0
M  V30 2215 N 227.627 0.131896 -1.57047 0
M  V30 2216 C 228.574 1.16236 -1.99393 0
M  V30 2217 C 229.544 1.41863 -0.863943 0
M  V30 2218 O 230.729 1.53946 -1.12718 0
M  V30 2219 C 227.869 2.48708 -2.39245 0
M  V30 2220 C 226.982 2.30127 -3.65603 0
M  V30 2221 C 226.117 3.55738 -3.94492 0
M  V30 2222 C 225.156 3.32259 -5.14073 0
M  V30 2223 N 224.293 4.50039 -5.38896 0
M  V30 2224 H 229.133 0.794251 -2.87221 0
M  V30 2225 H 226.67 0.380707 -1.42088 0
M  V30 2226 H 228.628 3.25969 -2.60384 0
M  V30 2227 H 227.258 2.83437 -1.54478 0
M  V30 2228 H 226.31 1.43845 -3.52154 0
M  V30 2229 H 227.622 2.08746 -4.5302 0
M  V30 2230 H 226.776 4.41423 -4.1621 0
M  V30 2231 H 225.515 3.80138 -3.05526 0
M  V30 2232 H 224.52 2.44963 -4.92212 0
M  V30 2233 H 225.745 3.09242 -6.04604 0
M  V30 2234 H 223.691 4.74584 -4.52886 0
M  V30 2235 H 223.608 4.31716 -6.2061 0
M  V30 2236 H 224.876 5.36895 -5.65123 0
M  V30 2237 N 229.106 1.52395 0.401703 0
M  V30 2238 C 230.336 1.70429 1.1678 0
M  V30 2239 C 230.744 0.416702 1.84554 0
M  V30 2240 O 230.087 -0.617697 1.73003 0
M  V30 2241 C 230.149 2.78919 2.26814 0
M  V30 2242 C 229.813 4.20437 1.79113 0
M  V30 2243 C 230.81 5.04028 1.27482 0
M  V30 2244 C 228.495 4.66704 1.85722 0
M  V30 2245 C 230.489 6.31961 0.830913 0
M  V30 2246 C 228.176 5.94625 1.40942 0
M  V30 2247 C 229.174 6.77082 0.897128 0
M  V30 2248 O 228.862 8.02607 0.455822 0
M  V30 2249 H 228.594 0.574272 0.356634 0
M  V30 2250 H 231.148 1.99767 0.477724 0
M  V30 2251 H 229.378 2.44973 2.99207 0
M  V30 2252 H 231.067 2.8548 2.88541 0
M  V30 2253 H 231.833 4.69471 1.21744 0
M  V30 2254 H 227.712 4.0262 2.24539 0
M  V30 2255 H 231.256 6.96271 0.430368 0
M  V30 2256 H 227.153 6.28688 1.46362 0
M  V30 2257 H 227.921 8.16453 0.578457 0
M  V30 2258 N 230.584 -0.659388 1.43143 0
M  V30 2259 C 231.861 -1.41627 1.34912 0
M  V30 2260 C 232.241 -2.11099 -0.00607785 0
M  V30 2261 O 231.589 -2.04353 -1.02236 0
M  V30 2262 C 231.799 -2.40604 2.52805 0
M  V30 2263 C 233.147 -3.04789 2.95616 0
M  V30 2264 O 234.171 -2.50932 2.52807 0
M  V30 2265 O 233.03 -4.02421 3.69756 0
M  V30 2266 H 230.124 -0.63246 0.532844 0
M  V30 2267 H 232.67 -0.686814 1.5518 0
M  V30 2268 H 231.442 -1.88174 3.43083 0
M  V30 2269 H 231.065 -3.21009 2.34604 0
M  V30 2270 N 232.062 -1.29571 -0.897171 0
M  V30 2271 C 233.31 -1.17456 -1.64464 0
M  V30 2272 C 233.631 0.273698 -1.9307 0
M  V30 2273 O 232.901 1.18684 -1.55855 0
M  V30 2274 H 231.481 -0.431706 -0.609622 0
M  V30 2275 H 234.143 -1.62531 -1.07562 0
M  V30 2276 H 233.239 -1.72648 -2.59998 0
M  V30 2277 N 233.54 1.10788 -1.12088 0
M  V30 2278 C 234.956 1.34691 -0.856186 0
M  V30 2279 C 235.156 1.94791 0.515615 0
M  V30 2280 O 234.212 2.18524 1.26505 0
M  V30 2281 C 235.525 2.27208 -1.9697 0
M  V30 2282 C 237.073 2.40755 -2.00016 0
M  V30 2283 C 237.548 3.36598 -3.1059 0
M  V30 2284 N 239.039 3.44164 -3.10008 0
M  V30 2285 C 239.774 4.18284 -3.92206 0
M  V30 2286 N 239.27 4.95322 -4.84384 0
M  V30 2287 N 241.063 4.13865 -3.80357 0
M  V30 2288 H 233.214 0.70144 -2.00483 0
M  V30 2289 H 235.477 0.371405 -0.872217 0
M  V30 2290 H 235.183 1.90251 -2.958 0
M  V30 2291 H 235.057 3.27485 -1.87172 0
M  V30 2292 H 237.444 2.76982 -1.01808 0
M  V30 2293 H 237.525 1.40305 -2.13888 0
M  V30 2294 H 237.169 3.01096 -4.09028 0
M  V30 2295 H 237.099 4.36918 -2.93956 0
M  V30 2296 H 239.59 2.8922 -2.43228 0
M  V30 2297 H 239.903 5.49267 -5.43623 0
M  V30 2298 H 238.248 4.94459 -4.884 0
M  V30 2299 H 241.439 3.52773 -3.07683 0
M  V30 2300 H 241.612 4.71372 -4.44649 0
M  V30 2301 N 235.018 0.912232 1.28515 0
M  V30 2302 C 236.265 0.544599 1.95039 0
M  V30 2303 C 236.593 -0.911435 1.71823 0
M  V30 2304 O 235.848 -1.66317 1.03137 0
M  V30 2305 C 236.147 0.798392 3.48368 0
M  V30 2306 C 235.813 2.23374 3.91682 0
M  V30 2307 C 234.475 2.62617 4.03219 0
M  V30 2308 C 236.827 3.16786 4.13879 0
M  V30 2309 C 234.155 3.94429 4.3433 0
M  V30 2310 C 236.507 4.48161 4.46469 0
M  V30 2311 C 235.171 4.8726 4.56217 0
M  V30 2312 H 234.441 0.199283 0.7137 0
M  V30 2313 H 237.088 1.15327 1.52879 0
M  V30 2314 H 235.393 0.106908 3.91654 0
M  V30 2315 H 237.09 0.493141 3.97956 0
M  V30 2316 H 233.68 1.91922 3.83228 0
M  V30 2317 H 237.864 2.87677 4.0442 0
M  V30 2318 H 233.12 4.24426 4.40082 0
M  V30 2319 H 237.294 5.20559 4.62592 0
M  V30 2320 H 234.921 5.89431 4.80078 0
M  V30 2321 N 236.496 -1.42363 0.676048 0
M  V30 2322 C 237.426 -2.33497 0.0124832 0
M  V30 2323 C 238.407 -1.50748 -0.787981 0
M  V30 2324 O 239.592 -1.79346 -0.744884 0
M  V30 2325 C 236.722 -3.34377 -0.938582 0
M  V30 2326 C 235.676 -4.27289 -0.246622 0
M  V30 2327 C 235.002 -5.18386 -1.31071 0
M  V30 2328 C 236.302 -5.14916 0.875125 0
M  V30 2329 H 237.996 -2.89233 0.773593 0
M  V30 2330 H 235.542 -1.39073 0.37346 0
M  V30 2331 H 237.495 -3.97044 -1.41188 0
M  V30 2332 H 236.219 -2.76947 -1.73113 0
M  V30 2333 H 234.878 -3.66018 0.206456 0
M  V30 2334 H 234.526 -4.57282 -2.09528 0
M  V30 2335 H 234.226 -5.81378 -0.852839 0
M  V30 2336 H 235.75 -5.83929 -1.78492 0
M  V30 2337 H 237.164 -5.71262 0.482983 0
M  V30 2338 H 235.561 -5.86747 1.25887 0
M  V30 2339 H 236.631 -4.53242 1.72335 0
M  V30 2340 N 237.974 -0.419461 -1.51915 0
M  V30 2341 C 239.221 0.152939 -2.01922 0
M  V30 2342 C 239.549 1.4426 -1.30458 0
M  V30 2343 O 238.804 1.91514 -0.402593 0
M  V30 2344 C 239.103 0.437067 -3.54717 0
M  V30 2345 C 238.769 -0.764632 -4.44369 0
M  V30 2346 C 237.431 -1.09423 -4.68594 0
M  V30 2347 C 239.783 -1.56713 -4.97082 0
M  V30 2348 C 237.111 -2.22732 -5.42777 0
M  V30 2349 C 239.463 -2.69107 -5.72507 0
M  V30 2350 C 238.127 -3.02541 -5.95 0
M  V30 2351 H 237.397 0.0559644 -0.738884 0
M  V30 2352 H 240.044 -0.562998 -1.83037 0
M  V30 2353 H 238.349 1.23469 -3.71837 0
M  V30 2354 H 240.046 0.893083 -3.90928 0
M  V30 2355 H 236.636 -0.497775 -4.257 0
M  V30 2356 H 240.82 -1.32571 -4.78266 0
M  V30 2357 H 236.076 -2.48971 -5.58411 0
M  V30 2358 H 240.25 -3.31671 -6.12346 0
M  V30 2359 H 237.877 -3.90457 -6.52264 0
M  V30 2360 N 239.452 1.56882 -0.150215 0
M  V30 2361 C 240.385 2.12712 0.826358 0
M  V30 2362 C 241.363 1.05154 1.24022 0
M  V30 2363 O 242.547 1.33004 1.33575 0
M  V30 2364 C 239.674 2.64945 2.11002 0
M  V30 2365 C 238.72 3.8468 1.84183 0
M  V30 2366 S 239.553 5.25502 1.02995 0
M  V30 2367 C 240.709 5.81125 2.32474 0
M  V30 2368 H 240.942 2.95214 0.351598 0
M  V30 2369 H 238.475 1.54267 0.0641211 0
M  V30 2370 H 240.433 2.95689 2.84742 0
M  V30 2371 H 239.094 1.82568 2.55593 0
M  V30 2372 H 238.287 4.19482 2.79375 0
M  V30 2373 H 237.889 3.54714 1.1855 0
M  V30 2374 H 240.181 5.92753 3.281 0
M  V30 2375 H 241.124 6.78625 2.02171 0
M  V30 2376 H 241.532 5.09392 2.43269 0
M  V30 2377 N 240.93 -0.123565 1.57115 0
M  V30 2378 C 241.878 -1.17082 2.00984 0
M  V30 2379 C 242.872 -1.43136 0.906009 0
M  V30 2380 O 244.078 -1.43152 1.09121 0
M  V30 2381 H 240.453 -0.394653 0.64012 0
M  V30 2382 H 242.424 -0.774292 2.88179 0
M  V30 2383 C 241.173 -2.49057 2.42623 0
M  V30 2384 H 240.496 -2.29846 3.27125 0
M  V30 2385 H 241.936 -3.20906 2.7712 0
M  V30 2386 C 240.395 -3.11305 1.28805 0
M  V30 2387 O 240.925 -3.97171 0.60153 0
M  V30 2388 N 239.131 -2.71111 1.04628 0
M  V30 2389 H 238.678 -2.01382 1.60634 0
M  V30 2390 H 238.636 -3.1309 0.286685 0
M  V30 2391 N 242.408 -1.52605 -0.393616 0
M  V30 2392 C 243.685 -1.58001 -1.15304 0
M  V30 2393 C 244.065 -0.370385 -2.07825 0
M  V30 2394 O 243.413 0.641638 -2.19306 0
M  V30 2395 C 243.623 -2.91652 -1.91677 0
M  V30 2396 C 244.971 -3.4522 -2.47201 0
M  V30 2397 O 245.995 -2.93495 -2.01839 0
M  V30 2398 O 244.854 -4.35579 -3.3005 0
M  V30 2399 H 241.948 -0.637068 -0.527327 0
M  V30 2400 H 244.494 -1.64939 -0.399141 0
M  V30 2401 H 243.266 -3.71136 -1.23992 0
M  V30 2402 H 242.889 -2.88077 -2.74039 0
M  V30 2403 N 243.887 0.651787 -1.4349 0
M  V30 2404 C 244.834 1.76462 -1.4876 0
M  V30 2405 C 245.804 1.62641 -0.337189 0
M  V30 2406 O 246.989 1.82864 -0.544544 0
M  V30 2407 C 244.129 3.14623 -1.41796 0
M  V30 2408 C 243.242 3.39568 -2.67053 0
M  V30 2409 C 242.377 4.67585 -2.52068 0
M  V30 2410 C 241.416 4.85639 -3.72587 0
M  V30 2411 N 240.553 6.04915 -3.56402 0
M  V30 2412 H 245.393 1.71293 -2.43849 0
M  V30 2413 H 242.93 0.835889 -1.21043 0
M  V30 2414 H 244.888 3.94496 -1.35753 0
M  V30 2415 H 243.518 3.18859 -0.50288 0
M  V30 2416 H 242.57 2.53783 -2.8337 0
M  V30 2417 H 243.882 3.48795 -3.56572 0
M  V30 2418 H 243.036 5.55586 -2.4374 0
M  V30 2419 H 241.775 4.60681 -1.60075 0
M  V30 2420 H 240.78 3.96073 -3.81321 0
M  V30 2421 H 242.005 4.94372 -4.65589 0
M  V30 2422 H 239.951 5.9914 -2.67146 0
M  V30 2423 H 239.868 6.15106 -4.39524 0
M  V30 2424 H 241.136 6.95533 -3.51929 0
M  V30 2425 N 245.365 1.30045 0.890287 0
M  V30 2426 C 246.328 1.15963 1.977 0
M  V30 2427 C 247.328 0.0923777 1.60534 0
M  V30 2428 O 248.518 0.340071 1.70848 0
M  V30 2429 C 245.65 0.775451 3.31963 0
M  V30 2430 H 246.843 2.12502 2.11619 0
M  V30 2431 H 244.396 1.13366 1.07601 0
M  V30 2432 H 245.131 -0.189671 3.23745 0
M  V30 2433 H 244.916 1.54668 3.60306 0
M  V30 2434 H 246.406 0.700251 4.11687 0
M  V30 2435 N 246.843 -1.10192 1.12674 0
M  V30 2436 C 247.791 -2.18694 0.792196 0
M  V30 2437 C 248.785 -1.67938 -0.222058 0
M  V30 2438 O 249.991 -1.79822 -0.0800074 0
M  V30 2439 H 246.366 -0.713223 0.238364 0
M  V30 2440 H 248.337 -2.44149 1.71564 0
M  V30 2441 C 247.086 -3.46682 0.265859 0
M  V30 2442 H 246.409 -3.86101 1.03761 0
M  V30 2443 H 247.849 -4.23942 0.0701128 0
M  V30 2444 C 246.308 -3.21506 -1.00675 0
M  V30 2445 O 246.838 -3.43408 -2.08408 0
M  V30 2446 N 245.044 -2.75158 -0.934692 0
M  V30 2447 H 244.591 -2.57535 -0.0578604 0
M  V30 2448 H 244.549 -2.58691 -1.7868 0
M  V30 2449 N 248.321 -0.919034 -1.28029 0
M  V30 2450 C 249.549 -0.570971 -1.98866 0
M  V30 2451 C 249.964 0.848996 -1.68634 0
M  V30 2452 O 249.321 1.56307 -0.942036 0
M  V30 2453 C 249.372 -0.776876 -3.53054 0
M  V30 2454 O 249.093 -2.14097 -3.82222 0
M  V30 2455 C 250.594 -0.436356 -4.41147 0
M  V30 2456 H 247.814 -0.217175 -0.634883 0
M  V30 2457 H 250.358 -1.23368 -1.63097 0
M  V30 2458 H 248.513 -0.161085 -3.87065 0
M  V30 2459 H 248.927 -2.18455 -4.76841 0
M  V30 2460 H 250.401 -0.63117 -5.4838 0
M  V30 2461 H 250.878 0.627686 -4.34692 0
M  V30 2462 H 251.484 -1.02991 -4.12641 0
M  V30 2463 N 249.799 1.42003 -0.683588 0
M  V30 2464 C 251.215 1.55625 -0.353976 0
M  V30 2465 C 251.415 1.66151 1.14 0
M  V30 2466 O 250.471 1.63329 1.92561 0
M  V30 2467 C 251.784 2.80171 -1.092 0
M  V30 2468 C 253.332 2.93954 -1.07518 0
M  V30 2469 C 253.807 4.21372 -1.79471 0
M  V30 2470 N 255.298 4.28303 -1.76381 0
M  V30 2471 C 256.033 5.25729 -2.28904 0
M  V30 2472 N 255.529 6.29254 -2.89846 0
M  V30 2473 N 257.322 5.17586 -2.19228 0
M  V30 2474 H 249.473 1.33415 -1.6527 0
M  V30 2475 H 251.736 0.64282 -0.696769 0
M  V30 2476 H 251.442 2.78561 -2.14701 0
M  V30 2477 H 251.316 3.7133 -0.662862 0
M  V30 2478 H 253.703 2.95086 -0.028475 0
M  V30 2479 H 253.784 2.04002 -1.54328 0
M  V30 2480 H 253.428 4.21001 -2.84114 0
M  V30 2481 H 253.358 5.10275 -1.30104 0
M  V30 2482 H 255.849 3.54119 -1.31939 0
M  V30 2483 H 256.162 6.99964 -3.27522 0
M  V30 2484 H 254.507 6.29791 -2.93919 0
M  V30 2485 H 257.698 4.35631 -1.71299 0
M  V30 2486 H 257.871 5.93348 -2.60466 0
M  V30 2487 N 251.277 0.427512 1.51691 0
M  V30 2488 C 252.523 -0.142439 2.02299 0
M  V30 2489 C 252.856 -1.43214 1.31162 0
M  V30 2490 O 252.131 -1.89833 0.423511 0
M  V30 2491 C 252.414 -0.371301 3.58181 0
M  V30 2492 C 252.267 0.936358 4.39946 0
M  V30 2493 C 253.586 -1.14542 4.24933 0
M  V30 2494 H 250.705 -0.0502937 0.735282 0
M  V30 2495 H 253.347 0.564584 1.81418 0
M  V30 2496 H 251.497 -0.973559 3.76104 0
M  V30 2497 H 253.169 1.57184 4.33694 0
M  V30 2498 H 251.412 1.5432 4.05423 0
M  V30 2499 H 252.083 0.730388 5.47147 0
M  V30 2500 H 254.559 -0.635362 4.11221 0
M  V30 2501 H 253.435 -1.27431 5.33903 0
M  V30 2502 H 253.696 -2.17093 3.85127 0
M  V30 2503 N 252.755 -1.56801 0.158532 0
M  V30 2504 C 253.718 -2.16138 -0.762705 0
M  V30 2505 C 254.718 -1.1061 -1.16713 0
M  V30 2506 O 255.908 -1.36191 -1.08617 0
M  V30 2507 C 253.04 -2.73386 -2.03649 0
M  V30 2508 H 254.233 -2.98886 -0.246354 0
M  V30 2509 H 251.786 -1.56035 -0.0909744 0
M  V30 2510 H 252.521 -1.94335 -2.59623 0
M  V30 2511 H 252.306 -3.50601 -1.75559 0
M  V30 2512 H 253.796 -3.19065 -2.6942 0
M  V30 2513 N 254.233 0.115231 -1.57178 0
M  V30 2514 C 255.649 0.468877 -1.52557 0
M  V30 2515 C 255.849 1.81649 -0.872125 0
M  V30 2516 O 254.905 2.48347 -0.45606 0
M  V30 2517 C 256.218 0.4499 -2.97315 0
M  V30 2518 C 257.766 0.533185 -3.08425 0
M  V30 2519 C 258.241 0.54456 -4.54751 0
M  V30 2520 N 259.732 0.605892 -4.5922 0
M  V30 2521 C 260.467 0.636203 -5.6986 0
M  V30 2522 N 259.963 0.623931 -6.89985 0
M  V30 2523 N 261.756 0.679496 -5.57978 0
M  V30 2524 H 253.907 -0.767712 -1.9804 0
M  V30 2525 H 256.17 -0.283609 -0.904583 0
M  V30 2526 H 255.876 -0.472721 -3.48509 0
M  V30 2527 H 255.75 1.27632 -3.5495 0
M  V30 2528 H 258.137 1.44623 -2.57232 0
M  V30 2529 H 258.218 -0.320995 -2.53778 0
M  V30 2530 H 257.862 -0.364452 -5.06591 0
M  V30 2531 H 257.792 1.41568 -5.07214 0
M  V30 2532 H 260.283 0.621386 -3.72756 0
M  V30 2533 H 260.596 0.649787 -7.70063 0
M  V30 2534 H 258.941 0.591296 -6.9248 0
M  V30 2535 H 262.132 0.686472 -4.63039 0
M  V30 2536 H 262.305 0.69965 -6.44212 0
M  V30 2537 N 255.711 1.52812 0.385517 0
M  V30 2538 C 256.957 1.68275 1.13188 0
M  V30 2539 C 257.29 0.423179 1.89533 0
M  V30 2540 O 256.565 -0.579113 1.85679 0
M  V30 2541 C 256.848 2.92001 2.1073 0
M  V30 2542 C 256.701 4.28067 1.38125 0
M  V30 2543 C 258.02 3.11283 3.11113 0
M  V30 2544 H 255.139 0.612352 0.410115 0
M  V30 2545 H 257.781 1.85415 0.414869 0
M  V30 2546 H 255.931 2.77519 2.71874 0
M  V30 2547 H 257.603 4.54324 0.799187 0
M  V30 2548 H 255.846 4.28388 0.683092 0
M  V30 2549 H 256.517 5.10733 2.09417 0
M  V30 2550 H 258.993 3.2482 2.6006 0
M  V30 2551 H 257.869 3.99325 3.76605 0
M  V30 2552 H 258.13 2.25656 3.80173 0
M  V30 2553 N 257.189 -0.644168 1.43834 0
M  V30 2554 C 258.605 -0.960875 1.27434 0
M  V30 2555 C 258.805 -2.00499 0.200618 0
M  V30 2556 O 257.861 -2.49018 -0.417906 0
M  V30 2557 C 259.174 -1.43653 2.64167 0
M  V30 2558 C 260.722 -1.55271 2.71772 0
M  V30 2559 C 261.197 -2.06224 4.08944 0
M  V30 2560 N 262.688 -2.13513 4.11055 0
M  V30 2561 C 263.423 -2.54081 5.14033 0
M  V30 2562 N 262.919 -2.9388 6.27381 0
M  V30 2563 N 264.712 -2.54101 5.01387 0
M  V30 2564 H 256.863 0.0465779 2.12349 0
M  V30 2565 H 259.126 -0.0417638 0.94708 0
M  V30 2566 H 258.832 -0.743706 3.43747 0
M  V30 2567 H 258.706 -2.40993 2.90176 0
M  V30 2568 H 261.093 -2.23653 1.92519 0
M  V30 2569 H 261.174 -0.563395 2.49519 0
M  V30 2570 H 260.818 -1.38441 4.88668 0
M  V30 2571 H 260.748 -3.06003 4.28567 0
M  V30 2572 H 263.239 -1.85493 3.29242 0
M  V30 2573 H 263.552 -3.2361 7.01781 0
M  V30 2574 H 261.897 -2.91663 6.30839 0
M  V30 2575 H 265.088 -2.22391 4.11898 0
M  V30 2576 H 265.261 -2.85394 5.81768 0
M  V30 2577 N 258.668 -1.30515 -0.883378 0
M  V30 2578 C 259.908 -1.20716 -1.64946 0
M  V30 2579 C 260.272 0.234072 -1.90568 0
M  V30 2580 O 261.473 0.455335 -2.64915 0
M  V30 2581 C 259.744 -2.01444 -2.9522 0
M  V30 2582 S 261.303 -2.0836 -3.86175 0
M  V30 2583 H 258.121 -0.430165 -0.566109 0
M  V30 2584 H 260.723 -1.65011 -1.04841 0
M  V30 2585 H 259.427 -3.05268 -2.74298 0
M  V30 2586 H 258.958 -1.57817 -3.60357 0
M  V30 2587 H 260.973 -1.21215 -4.81167 0
M  V30 2588 N 260.146 1.09593 -1.13257 0
M  V30 2589 C 261.423 1.78293 -0.804432 0
M  V30 2590 C 261.803 1.99004 0.70431 0
M  V30 2591 O 261.151 1.59007 1.641 0
M  V30 2592 C 261.361 3.10707 -1.5894 0
M  V30 2593 C 262.709 3.85443 -1.78099 0
M  V30 2594 O 263.733 3.20454 -1.55525 0
M  V30 2595 O 262.592 5.02108 -2.15753 0
M  V30 2596 H 259.686 0.773156 -0.293528 0
M  V30 2597 H 262.232 1.16164 -1.23709 0
M  V30 2598 H 261.004 2.91106 -2.61482 0
M  V30 2599 H 260.627 3.80558 -1.15157 0
M  V30 2600 N 261.624 0.925811 1.2754 0
M  V30 2601 C 262.87 0.566092 1.94739 0
M  V30 2602 C 263.203 -0.890057 1.72603 0
M  V30 2603 O 262.478 -1.63467 1.05399 0
M  V30 2604 C 262.761 0.89054 3.48915 0
M  V30 2605 C 262.614 2.4003 3.80402 0
M  V30 2606 C 263.933 0.395101 4.38323 0
M  V30 2607 H 261.052 0.20714 0.707292 0
M  V30 2608 H 263.694 1.15725 1.50691 0
M  V30 2609 H 261.844 0.387452 3.86563 0
M  V30 2610 H 263.516 2.97494 3.52555 0
M  V30 2611 H 261.759 2.85028 3.2702 0
M  V30 2612 H 262.43 2.57785 4.8811 0
M  V30 2613 H 264.906 0.826241 4.07814 0
M  V30 2614 H 263.782 0.651086 5.45025 0
M  V30 2615 H 264.043 -0.704798 4.36446 0
M  V30 2616 N 263.102 -1.41638 0.69111 0
M  V30 2617 C 264.035 -2.28183 -0.0274913 0
M  V30 2618 C 265.013 -1.41984 -0.792424 0
M  V30 2619 O 266.197 -1.71415 -0.784169 0
M  V30 2620 C 263.324 -3.22135 -1.04628 0
M  V30 2621 C 262.37 -4.24848 -0.375037 0
M  V30 2622 S 263.203 -5.28231 0.879321 0
M  V30 2623 C 264.359 -6.25748 -0.137983 0
M  V30 2624 H 264.592 -2.88782 0.706553 0
M  V30 2625 H 262.125 -1.46709 0.481222 0
M  V30 2626 H 264.083 -3.76797 -1.62894 0
M  V30 2627 H 262.744 -2.6064 -1.75287 0
M  V30 2628 H 261.937 -4.90837 -1.14433 0
M  V30 2629 H 261.539 -3.73758 0.134434 0
M  V30 2630 H 263.831 -6.70188 -0.992659 0
M  V30 2631 H 264.774 -7.06417 0.487867 0
M  V30 2632 H 265.182 -5.62363 -0.490762 0
M  V30 2633 N 264.58 -0.43555 -1.51462 0
M  V30 2634 C 265.527 0.376797 -2.27703 0
M  V30 2635 C 266.497 1.01838 -1.31219 0
M  V30 2636 O 267.682 1.03762 -1.60119 0
M  V30 2637 C 264.822 1.47301 -3.12084 0
M  V30 2638 C 263.935 0.849744 -4.2356 0
M  V30 2639 C 263.07 1.92086 -4.95254 0
M  V30 2640 C 262.109 1.27593 -5.98654 0
M  V30 2641 N 261.246 2.28833 -6.63762 0
M  V30 2642 H 266.086 -0.279734 -2.96684 0
M  V30 2643 H 263.623 -0.149795 -1.46335 0
M  V30 2644 H 265.581 2.11984 -3.59331 0
M  V30 2645 H 264.211 2.0992 -2.45221 0
M  V30 2646 H 263.263 0.0912529 -3.80291 0
M  V30 2647 H 264.575 0.338878 -4.97648 0
M  V30 2648 H 263.729 2.64435 -5.46039 0
M  V30 2649 H 262.468 2.46545 -4.20793 0
M  V30 2650 H 261.473 0.537893 -5.47162 0
M  V30 2651 H 262.698 0.738693 -6.7507 0
M  V30 2652 H 260.644 2.82375 -5.92115 0
M  V30 2653 H 260.561 1.82632 -7.33608 0
M  V30 2654 H 261.829 3.00671 -7.19178 0
M  V30 2655 N 266.058 1.56714 -0.166846 0
M  V30 2656 C 267.298 1.98641 0.481763 0
M  V30 2657 C 267.662 1.05038 1.6072 0
M  V30 2658 O 268.863 1.36087 2.31805 0
M  V30 2659 C 267.134 3.44362 0.956517 0
M  V30 2660 S 268.693 4.08317 1.60694 0
M  V30 2661 H 265.511 0.693873 0.155116 0
M  V30 2662 H 268.113 1.93719 -0.263251 0
M  V30 2663 H 266.817 4.10204 0.126936 0
M  V30 2664 H 266.348 3.53041 1.73568 0
M  V30 2665 H 268.363 4.02999 2.89494 0
M  V30 2666 N 267.536 -0.106894 1.57237 0
M  V30 2667 C 268.813 -0.843526 1.76477 0
M  V30 2668 C 269.193 -1.97499 0.745464 0
M  V30 2669 O 268.541 -2.27357 -0.228306 0
M  V30 2670 C 268.751 -1.34903 3.21873 0
M  V30 2671 C 270.099 -1.79654 3.8472 0
M  V30 2672 O 271.123 -1.44554 3.2555 0
M  V30 2673 O 269.982 -2.44515 4.88748 0
M  V30 2674 H 267.076 -0.401468 0.723016 0
M  V30 2675 H 269.622 -0.0896927 1.69463 0
M  V30 2676 H 268.394 -0.53781 3.87586 0
M  V30 2677 H 268.017 -2.16522 3.33473 0
M  V30 2678 N 269.014 -1.53014 -0.377408 0
M  V30 2679 C 269.977 -1.77957 -1.44444 0
M  V30 2680 C 270.977 -0.649763 -1.47087 0
M  V30 2681 O 272.167 -0.917897 -1.48055 0
M  V30 2682 C 269.299 -1.89089 -2.83651 0
M  V30 2683 H 270.492 -2.73243 -1.23606 0
M  V30 2684 H 268.045 -1.43912 -0.609844 0
M  V30 2685 H 268.78 -0.958293 -3.09818 0
M  V30 2686 H 268.565 -2.71254 -2.83132 0
M  V30 2687 H 270.055 -2.1002 -3.60945 0
M  V30 2688 N 270.492 0.636531 -1.44174 0
M  V30 2689 C 271.741 1.39213 -1.45954 0
M  V30 2690 C 272.054 1.95374 -0.0939119 0
M  V30 2691 O 273.26 2.71498 0.0107767 0
M  V30 2692 C 271.716 2.52025 -2.56927 0
M  V30 2693 C 271.324 2.024 -3.99673 0
M  V30 2694 C 273.068 3.29269 -2.67922 0
M  V30 2695 C 270.975 3.12521 -5.0208 0
M  V30 2696 H 269.905 0.523132 -0.542999 0
M  V30 2697 H 272.556 0.685349 -1.70221 0
M  V30 2698 H 270.938 3.25253 -2.25891 0
M  V30 2699 H 272.112 1.36073 -4.40251 0
M  V30 2700 H 270.427 1.37987 -3.92872 0
M  V30 2701 H 273.024 4.11352 -3.41605 0
M  V30 2702 H 273.367 3.78397 -1.73555 0
M  V30 2703 H 273.9 2.63129 -2.98342 0
M  V30 2704 H 270.639 2.68343 -5.98057 0
M  V30 2705 H 270.159 3.77507 -4.66099 0
M  V30 2706 H 271.838 3.77385 -5.25538 0
M  V30 2707 N 271.97 1.30982 0.876444 0
M  V30 2708 C 272.9 1.20668 1.99903 0
M  V30 2709 C 273.881 0.095354 1.69833 0
M  V30 2710 O 275.066 0.27885 1.92188 0
M  V30 2711 C 272.196 0.90655 3.3526 0
M  V30 2712 C 271.15 1.97675 3.79617 0
M  V30 2713 C 270.476 1.52943 5.1236 0
M  V30 2714 C 271.776 3.389 3.97422 0
M  V30 2715 H 273.47 2.14586 2.0879 0
M  V30 2716 H 271.016 1.03308 1.00317 0
M  V30 2717 H 272.969 0.821025 4.13324 0
M  V30 2718 H 271.693 -0.0682969 3.26529 0
M  V30 2719 H 270.352 2.05205 3.03787 0
M  V30 2720 H 270 0.54262 5.00065 0
M  V30 2721 H 269.7 2.24532 5.43009 0
M  V30 2722 H 271.224 1.45786 5.92941 0
M  V30 2723 H 272.638 3.34081 4.659 0
M  V30 2724 H 271.035 4.0865 4.3946 0
M  V30 2725 H 272.105 3.80163 3.01006 0
M  V30 2726 N 273.449 -1.08991 1.13837 0
M  V30 2727 C 274.359 -2.19301 0.833333 0
M  V30 2728 C 275.375 -1.73026 -0.183847 0
M  V30 2729 O 276.551 -2.01395 -0.0138092 0
M  V30 2730 C 273.616 -3.45323 0.308651 0
M  V30 2731 C 272.677 -4.06255 1.38764 0
M  V30 2732 C 271.91 -5.26262 0.887896 0
M  V30 2733 O 272.133 -5.69747 -0.27287 0
M  V30 2734 O 271.067 -5.78435 1.66421 0
M  V30 2735 H 274.893 -2.47854 1.75506 0
M  V30 2736 H 272.478 -1.18012 0.916166 0
M  V30 2737 H 274.36 -4.21394 0.0216739 0
M  V30 2738 H 273.035 -3.18362 -0.585431 0
M  V30 2739 H 271.942 -3.318 1.72799 0
M  V30 2740 H 273.275 -4.37452 2.25602 0
M  V30 2741 N 274.927 -0.932562 -1.27047 0
M  V30 2742 C 276.176 -0.571351 -1.93439 0
M  V30 2743 C 276.489 0.892467 -1.74053 0
M  V30 2744 O 277.695 1.36267 -2.34826 0
M  V30 2745 C 276.151 -0.97106 -3.46552 0
M  V30 2746 C 275.759 -2.4559 -3.74686 0
M  V30 2747 C 277.503 -0.681333 -4.18997 0
M  V30 2748 C 275.41 -2.79475 -5.21198 0
M  V30 2749 H 274.34 -0.209966 -0.724176 0
M  V30 2750 H 276.991 -1.13403 -1.44263 0
M  V30 2751 H 275.373 -0.336983 -3.94564 0
M  V30 2752 H 276.547 -3.13829 -3.37414 0
M  V30 2753 H 274.862 -2.71802 -3.15456 0
M  V30 2754 H 277.459 -0.910939 -5.26883 0
M  V30 2755 H 277.802 0.381628 -4.14547 0
M  V30 2756 H 278.335 -1.27473 -3.76823 0
M  V30 2757 H 275.074 -3.847 -5.30741 0
M  V30 2758 H 274.594 -2.1589 -5.596 0
M  V30 2759 H 276.273 -2.67478 -5.89122 0
M  V30 2760 N 276.405 1.4127 -0.698611 0
M  V30 2761 C 277.816 1.84187 -0.305289 0
M  V30 2762 C 278.167 1.58449 1.15708 0
M  V30 2763 O 277.292 1.05651 1.88856 0
M  V30 2764 C 277.887 3.3435 -0.547314 0
M  V30 2765 C 276.446 3.75826 -0.207878 0
M  V30 2766 C 275.593 2.64647 -0.828099 0
M  V30 2767 H 278.544 1.30778 -0.89904 0
M  V30 2768 H 278.565 3.8001 0.192998 0
M  V30 2769 H 278.077 3.53051 -1.61172 0
M  V30 2770 H 276.178 3.62725 0.852143 0
M  V30 2771 H 276.291 4.74462 -0.665021 0
M  V30 2772 H 274.655 2.53395 -0.257458 0
M  V30 2773 H 275.438 2.86165 -1.89643 0
M  V30 2774 N 277.883 0.443576 1.51229 0
M  V30 2775 C 278.831 -0.37904 2.29491 0
M  V30 2776 C 279.825 -1.0153 1.35603 0
M  V30 2777 O 281.031 -0.94955 1.52917 0
M  V30 2778 H 277.406 -0.141053 0.738653 0
M  V30 2779 H 279.377 0.301799 2.9687 0
M  V30 2780 C 278.126 -1.46426 3.15364 0
M  V30 2781 H 277.449 -0.984037 3.87501 0
M  V30 2782 H 278.889 -2.01297 3.7317 0
M  V30 2783 C 277.348 -2.45099 2.31146 0
M  V30 2784 O 277.878 -3.49773 1.9754 0
M  V30 2785 N 276.084 -2.16139 1.94249 0
M  V30 2786 H 275.631 -1.31044 2.21777 0
M  V30 2787 H 275.589 -2.82398 1.38198 0
M  V30 2788 N 279.361 -1.56624 0.175154 0
M  V30 2789 C 280.324 -2.16934 -0.739738 0
M  V30 2790 C 281.324 -1.11842 -1.15533 0
M  V30 2791 O 282.514 -1.37335 -1.07167 0
M  V30 2792 C 279.646 -2.75531 -2.00738 0
M  V30 2793 H 280.839 -2.99131 -0.214639 0
M  V30 2794 H 278.392 -1.56123 -0.0744197 0
M  V30 2795 H 279.127 -1.97078 -2.57548 0
M  V30 2796 H 278.912 -3.52444 -1.71831 0
M  V30 2797 H 280.402 -3.21904 -2.66021 0
M  V30 2798 N 280.839 0.0985539 -1.57292 0
M  V30 2799 C 281.786 1.11981 -2.01814 0
M  V30 2800 C 282.756 1.39999 -0.89384 0
M  V30 2801 O 283.941 1.5152 -1.15958 0
M  V30 2802 C 281.081 2.43577 -2.44467 0
M  V30 2803 C 280.194 2.2232 -3.70402 0
M  V30 2804 C 279.329 3.4729 -4.01949 0
M  V30 2805 C 278.368 3.2128 -5.21005 0
M  V30 2806 N 277.505 4.38507 -5.48321 0
M  V30 2807 H 282.345 0.733149 -2.88841 0
M  V30 2808 H 279.882 0.350482 -1.42864 0
M  V30 2809 H 281.84 3.20373 -2.6724 0
M  V30 2810 H 280.47 2.80097 -1.60455 0
M  V30 2811 H 279.522 1.36343 -3.55126 0
M  V30 2812 H 280.834 1.99089 -4.57345 0
M  V30 2813 H 279.988 4.32495 -4.25479 0
M  V30 2814 H 278.727 3.73572 -3.13521 0
M  V30 2815 H 277.732 2.34468 -4.97298 0
M  V30 2816 H 278.957 2.96348 -6.11028 0
M  V30 2817 H 276.903 4.64871 -4.62851 0
M  V30 2818 H 276.82 4.18455 -6.29628 0
M  V30 2819 H 278.088 5.24787 -5.76385 0
M  V30 2820 N 282.317 1.53212 0.369288 0
M  V30 2821 C 283.565 1.68881 1.11012 0
M  V30 2822 C 283.886 0.441285 1.89941 0
M  V30 2823 O 283.156 -0.544623 1.88177 0
M  V30 2824 H 281.736 0.622569 0.412816 0
M  V30 2825 H 284.398 1.90391 0.416802 0
M  V30 2826 H 283.494 2.54822 1.80201 0
M  V30 2827 N 283.795 -0.628877 1.44509 0
M  V30 2828 C 285.044 -1.38437 1.4669 0
M  V30 2829 C 285.357 -1.95322 0.104272 0
M  V30 2830 O 286.563 -2.715 0.00362163 0
M  V30 2831 C 285.019 -2.50659 2.5826 0
M  V30 2832 C 284.627 -2.00277 4.0074 0
M  V30 2833 C 286.371 -3.27844 2.69664 0
M  V30 2834 C 284.278 -3.09854 5.0373 0
M  V30 2835 H 283.208 -0.520245 0.545766 0
M  V30 2836 H 285.859 -0.676313 1.70582 0
M  V30 2837 H 284.241 -3.2405 2.27612 0
M  V30 2838 H 285.415 -1.33736 4.40966 0
M  V30 2839 H 283.73 -1.35901 3.93599 0
M  V30 2840 H 286.327 -4.09534 3.43781 0
M  V30 2841 H 286.67 -3.77471 1.75559 0
M  V30 2842 H 287.203 -2.61543 2.99733 0
M  V30 2843 H 283.942 -2.65168 5.99472 0
M  V30 2844 H 283.462 -3.7503 4.68095 0
M  V30 2845 H 285.141 -3.74592 5.27532 0
M  V30 2846 N 285.273 -1.31445 -0.869486 0
M  V30 2847 C 286.223 -1.15731 -1.96444 0
M  V30 2848 C 287.207 -0.0681855 -1.60755 0
M  V30 2849 O 288.399 -0.293154 -1.74555 0
M  V30 2850 C 285.528 -0.867255 -3.32165 0
M  V30 2851 C 284.614 -1.99738 -3.74119 0
M  V30 2852 N 285.005 -3.24447 -3.88031 0
M  V30 2853 C 283.303 -1.89723 -4.03635 0
M  V30 2854 C 284.004 -3.98374 -4.23879 0
M  V30 2855 N 282.98 -3.26547 -4.3459 0
M  V30 2856 H 286.782 -2.10296 -2.05312 0
M  V30 2857 H 284.296 -1.23009 -1.06031 0
M  V30 2858 H 286.293 -0.735668 -4.10358 0
M  V30 2859 H 284.953 0.0701614 -3.24624 0
M  V30 2860 H 285.964 -3.59557 -3.72746 0
M  V30 2861 H 282.641 -1.03449 -4.04481 0
M  V30 2862 H 284.031 -5.05844 -4.42235 0
M  V30 2863 N 286.751 1.08385 -1.14413 0
M  V30 2864 C 287.999 1.80419 -0.910679 0
M  V30 2865 C 288.32 1.86658 0.564243 0
M  V30 2866 O 287.59 1.35985 1.41014 0
M  V30 2867 H 286.17 0.668204 -0.333934 0
M  V30 2868 H 288.832 1.31037 -1.44275 0
M  V30 2869 H 287.928 2.83238 -1.31082 0
M  V30 2870 N 288.23 0.939286 1.26551 0
M  V30 2871 C 289.16 0.465044 2.28822 0
M  V30 2872 C 290.141 -0.480692 1.63167 0
M  V30 2873 O 291.326 -0.382955 1.90387 0
M  V30 2874 C 288.456 -0.27234 3.46231 0
M  V30 2875 C 287.41 0.58666 4.2396 0
M  V30 2876 C 286.736 -0.280573 5.33963 0
M  V30 2877 C 288.036 1.85704 4.88171 0
M  V30 2878 H 289.73 1.31979 2.68741 0
M  V30 2879 H 287.276 0.636061 1.29191 0
M  V30 2880 H 289.229 -0.615133 4.16886 0
M  V30 2881 H 287.953 -1.16121 3.0526 0
M  V30 2882 H 286.612 0.91232 3.55067 0
M  V30 2883 H 286.26 -1.16874 4.89234 0
M  V30 2884 H 285.96 0.29076 5.8688 0
M  V30 2885 H 287.484 -0.618678 6.07458 0
M  V30 2886 H 288.898 1.58161 5.51052 0
M  V30 2887 H 287.295 2.37279 5.51197 0
M  V30 2888 H 288.365 2.56957 4.11219 0
M  V30 2889 N 289.708 -1.40897 0.706093 0
M  V30 2890 C 291.124 -1.55042 0.37869 0
M  V30 2891 C 291.324 -1.67944 -1.11342 0
M  V30 2892 O 290.38 -1.66372 -1.89938 0
M  V30 2893 C 291.693 -2.78398 1.13643 0
M  V30 2894 C 293.241 -2.92206 1.12181 0
M  V30 2895 C 293.716 -4.18463 1.86152 0
M  V30 2896 N 295.207 -4.25443 1.83173 0
M  V30 2897 C 295.942 -5.2202 2.37239 0
M  V30 2898 N 295.438 -6.24563 2.99821 0
M  V30 2899 N 297.231 -5.14033 2.27435 0
M  V30 2900 H 289.382 -1.30769 1.67372 0
M  V30 2901 H 291.645 -0.631653 0.706907 0
M  V30 2902 H 291.351 -2.7511 2.19106 0
M  V30 2903 H 291.225 -3.70228 0.721853 0
M  V30 2904 H 293.612 -2.95004 0.0754171 0
M  V30 2905 H 293.693 -2.01521 1.57554 0
M  V30 2906 H 293.337 -4.16427 2.90776 0
M  V30 2907 H 293.267 -5.08141 1.38206 0
M  V30 2908 H 295.758 -3.51976 1.37556 0
M  V30 2909 H 296.071 -6.94665 3.38616 0
M  V30 2910 H 294.416 -6.25035 3.03902 0
M  V30 2911 H 297.607 -4.3285 1.78208 0
M  V30 2912 H 297.78 -5.89129 2.69873 0
M  V30 2913 N 291.186 -0.45159 -1.50991 0
M  V30 2914 C 292.597 0.00818571 -1.86698 0
M  V30 2915 C 292.948 1.40661 -1.3678 0
M  V30 2916 O 292.073 2.0391 -0.724546 0
M  V30 2917 C 292.668 0.0216303 -3.38793 0
M  V30 2918 C 291.227 0.425865 -3.73983 0
M  V30 2919 C 290.374 -0.372163 -2.74791 0
M  V30 2920 H 293.325 -0.666785 -1.44013 0
M  V30 2921 H 293.346 0.828078 -3.7138 0
M  V30 2922 H 292.858 -0.996288 -3.75094 0
M  V30 2923 H 290.959 1.44886 -3.43277 0
M  V30 2924 H 291.072 0.140761 -4.78893 0
M  V30 2925 H 289.436 0.171498 -2.54122 0
M  V30 2926 H 290.219 -1.38922 -3.13935 0
M  V30 2927 N 292.664 1.56529 -0.183458 0
M  V30 2928 C 293.596 2.15747 0.773697 0
M  V30 2929 C 294.609 1.1162 1.1851 0
M  V30 2930 O 295.798 1.3876 1.12285 0
M  V30 2931 C 292.898 2.6952 2.05456 0
M  V30 2932 C 292.071 3.98429 1.8048 0
M  V30 2933 C 291.13 4.37145 2.92901 0
M  V30 2934 O 290.156 5.04791 2.6301 0
M  V30 2935 N 291.358 3.99695 4.2098 0
M  V30 2936 H 294.123 2.98505 0.26736 0
M  V30 2937 H 291.684 1.619 -0.0010878 0
M  V30 2938 H 293.676 2.92412 2.79781 0
M  V30 2939 H 292.246 1.91282 2.47245 0
M  V30 2940 H 291.466 3.8379 0.899947 0
M  V30 2941 H 292.754 4.82597 1.61175 0
M  V30 2942 H 292.152 3.4526 4.48121 0
M  V30 2943 H 290.709 4.27562 4.9197 0
M  V30 2944 N 294.142 -0.090211 1.57342 0
M  V30 2945 C 295.089 -1.10909 2.02405 0
M  V30 2946 C 296.059 -1.39523 0.901252 0
M  V30 2947 O 297.244 -1.50903 1.1676 0
M  V30 2948 C 294.384 -2.42277 2.45755 0
M  V30 2949 C 293.497 -2.20352 3.71576 0
M  V30 2950 C 292.632 -3.45154 4.03785 0
M  V30 2951 C 291.671 -3.18512 5.22701 0
M  V30 2952 N 290.808 -4.35593 5.50639 0
M  V30 2953 H 295.648 -0.71782 2.89225 0
M  V30 2954 H 293.185 -0.342901 1.43048 0
M  V30 2955 H 295.143 -3.18951 2.68935 0
M  V30 2956 H 293.773 -2.79242 1.61938 0
M  V30 2957 H 292.825 -1.34458 3.55844 0
M  V30 2958 H 294.137 -1.96661 4.58395 0
M  V30 2959 H 293.291 -4.30233 4.27767 0
M  V30 2960 H 292.03 -3.71904 3.15498 0
M  V30 2961 H 291.035 -2.31827 4.98534 0
M  V30 2962 H 292.26 -2.93103 6.12591 0
M  V30 2963 H 290.206 -4.6241 4.6531 0
M  V30 2964 H 290.123 -4.1511 6.31838 0
M  V30 2965 H 291.391 -5.21723 5.7916 0
M  V30 2966 N 295.62 -1.53406 -0.361157 0
M  V30 2967 C 296.866 -1.70999 -1.1014 0
M  V30 2968 C 297.221 -0.458425 -1.86859 0
M  V30 2969 O 296.514 0.548654 -1.83577 0
M  V30 2970 C 296.708 -2.90211 -2.08596 0
M  V30 2971 C 296.537 -4.26841 -1.41553 0
M  V30 2972 C 295.307 -4.91621 -1.16778 0
M  V30 2973 C 297.505 -5.07212 -0.850915 0
M  V30 2974 N 295.487 -6.12164 -0.461312 0
M  V30 2975 C 296.858 -6.19394 -0.274046 0
M  V30 2976 C 298.913 -4.92218 -0.750036 0
M  V30 2977 C 297.616 -7.18221 0.393868 0
M  V30 2978 C 299.642 -5.91322 -0.095894 0
M  V30 2979 C 299.004 -7.0283 0.470081 0
M  V30 2980 H 295.103 -0.678939 -0.388028 0
M  V30 2981 H 297.687 -1.90811 -0.38722 0
M  V30 2982 H 295.858 -2.71931 -2.77323 0
M  V30 2983 H 297.59 -2.96606 -2.7533 0
M  V30 2984 H 294.345 -4.50849 -1.45024 0
M  V30 2985 H 294.769 -6.76888 -0.123312 0
M  V30 2986 H 299.411 -4.06192 -1.17337 0
M  V30 2987 H 297.129 -8.03835 0.82914 0
M  V30 2988 H 300.715 -5.81797 -0.0187075 0
M  V30 2989 H 299.595 -7.782 0.968241 0
M  V30 2990 N 297.098 0.621204 -1.44841 0
M  V30 2991 C 298.509 1.20298 -1.42777 0
M  V30 2992 C 298.86 1.95639 -0.148259 0
M  V30 2993 O 297.985 2.02955 0.750892 0
M  V30 2994 C 298.58 2.1882 -2.58657 0
M  V30 2995 C 297.139 2.72403 -2.59756 0
M  V30 2996 C 296.286 1.4757 -2.34773 0
M  V30 2997 H 299.237 0.411297 -1.53278 0
M  V30 2998 H 299.258 3.01607 -2.31977 0
M  V30 2999 H 298.77 1.63957 -3.51766 0
M  V30 3000 H 296.871 3.31242 -1.70615 0
M  V30 3001 H 296.984 3.17765 -3.58556 0
M  V30 3002 H 295.348 1.76051 -1.8406 0
M  V30 3003 H 296.131 0.945954 -3.3001 0
M  V30 3004 N 298.576 1.31904 0.862503 0
M  V30 3005 C 299.992 1.10724 1.14945 0
M  V30 3006 C 300.192 -0.117421 2.01158 0
M  V30 3007 O 299.248 -0.804595 2.39338 0
M  V30 3008 C 300.561 2.38267 1.83437 0
M  V30 3009 C 302.109 2.43949 1.96106 0
M  V30 3010 C 302.584 3.71394 2.68013 0
M  V30 3011 N 304.075 3.72331 2.75543 0
M  V30 3012 C 304.81 4.67641 3.31812 0
M  V30 3013 N 304.306 5.73313 3.88953 0
M  V30 3014 N 306.099 4.5515 3.29841 0
M  V30 3015 H 298.25 2.10436 0.288191 0
M  V30 3016 H 300.513 0.928705 0.190292 0
M  V30 3017 H 300.219 3.27759 1.27542 0
M  V30 3018 H 300.093 2.48633 2.83657 0
M  V30 3019 H 302.48 1.54922 2.51164 0
M  V30 3020 H 302.561 2.37543 0.949059 0
M  V30 3021 H 302.205 4.60791 2.13621 0
M  V30 3022 H 302.135 3.75069 3.69636 0
M  V30 3023 H 304.626 2.95947 2.34997 0
M  V30 3024 H 304.939 6.42107 4.30022 0
M  V30 3025 H 303.284 5.77077 3.87308 0
M  V30 3026 H 306.475 3.71766 2.84443 0
M  V30 3027 H 306.648 5.29604 3.73394 0
M  V30 3028 N 300.054 -1.07777 1.14986 0
M  V30 3029 C 301.279 -1.84558 0.946213 0
M  V30 3030 C 301.704 -1.81323 -0.500362 0
M  V30 3031 O 301.062 -1.20301 -1.35637 0
M  V30 3032 C 301.11 -3.29736 1.45968 0
M  V30 3033 O 300.214 -4.07149 0.65601 0
M  V30 3034 H 299.555 -0.571641 0.33782 0
M  V30 3035 H 302.085 -1.35991 1.52865 0
M  V30 3036 H 302.095 -3.80574 1.47063 0
M  V30 3037 H 300.77 -3.31406 2.51283 0
M  V30 3038 H 299.347 -3.65994 0.714322 0
M  V30 3039 N 301.532 -0.945985 -1.26051 0
M  V30 3040 C 302.48 -0.450259 -2.282 0
M  V30 3041 C 303.474 0.47497 -1.62605 0
M  V30 3042 O 304.68 0.352653 -1.76512 0
M  V30 3043 H 301.055 -0.127081 -0.741184 0
M  V30 3044 H 303.026 -1.32422 -2.67408 0
M  V30 3045 C 301.775 0.26467 -3.46691 0
M  V30 3046 H 301.098 -0.438123 -3.97392 0
M  V30 3047 H 302.538 0.575678 -4.20074 0
M  V30 3048 C 300.997 1.48416 -3.02447 0
M  V30 3049 O 301.527 2.58227 -3.07704 0
M  V30 3050 N 299.733 1.34243 -2.57735 0
M  V30 3051 H 299.28 0.448994 -2.53657 0
M  V30 3052 H 299.238 2.15957 -2.28495 0
M  V30 3053 N 303.011 1.40521 -0.713556 0
M  V30 3054 C 304.241 2.0494 -0.261395 0
M  V30 3055 C 304.649 1.53861 1.10107 0
M  V30 3056 O 303.992 0.689321 1.70276 0
M  V30 3057 C 304.054 3.59138 -0.161227 0
M  V30 3058 C 303.718 4.33096 -1.45865 0
M  V30 3059 C 304.715 4.61182 -2.40016 0
M  V30 3060 C 302.4 4.72043 -1.71701 0
M  V30 3061 C 304.394 5.27196 -3.58251 0
M  V30 3062 C 302.081 5.37789 -2.90218 0
M  V30 3063 C 303.079 5.65295 -3.83315 0
M  V30 3064 O 302.767 6.29683 -4.99754 0
M  V30 3065 H 302.499 0.666041 -0.115608 0
M  V30 3066 H 305.053 1.80954 -0.971849 0
M  V30 3067 H 303.283 3.81936 0.605153 0
M  V30 3068 H 304.972 4.05091 0.256105 0
M  V30 3069 H 305.738 4.31559 -2.21318 0
M  V30 3070 H 301.617 4.50003 -1.00092 0
M  V30 3071 H 305.161 5.48582 -4.30934 0
M  V30 3072 H 301.058 5.66831 -3.08825 0
M  V30 3073 H 301.826 6.4818 -4.99805 0
M  V30 3074 N 304.489 0.459591 1.5075 0
M  V30 3075 C 305.735 -0.0994966 2.02556 0
M  V30 3076 C 306.068 -1.40399 1.3417 0
M  V30 3077 O 305.343 -1.88892 0.463683 0
M  V30 3078 C 305.626 -0.295242 3.58888 0
M  V30 3079 C 305.479 1.02947 4.37861 0
M  V30 3080 C 306.798 -1.05502 4.27267 0
M  V30 3081 H 303.917 -0.034686 0.736183 0
M  V30 3082 H 306.559 0.602938 1.8018 0
M  V30 3083 H 304.709 -0.893563 3.78084 0
M  V30 3084 H 306.381 1.66348 4.30263 0
M  V30 3085 H 304.624 1.62885 4.02058 0
M  V30 3086 H 305.295 0.846281 5.45474 0
M  V30 3087 H 307.771 -0.547993 4.12476 0
M  V30 3088 H 306.647 -1.16077 5.36486 0
M  V30 3089 H 306.908 -2.08875 3.89645 0
M  V30 3090 N 305.967 -1.56429 0.191757 0
M  V30 3091 C 307.214 -1.97485 -0.447891 0
M  V30 3092 C 307.542 -1.07852 -1.61859 0
M  V30 3093 O 306.797 -0.116903 -1.95351 0
M  V30 3094 C 307.096 -3.44449 -0.953384 0
M  V30 3095 C 306.762 -4.50781 0.103586 0
M  V30 3096 C 305.424 -4.79584 0.394023 0
M  V30 3097 C 307.776 -5.1471 0.819946 0
M  V30 3098 C 305.104 -5.69607 1.40585 0
M  V30 3099 C 307.456 -6.05827 1.8209 0
M  V30 3100 C 306.12 -6.32987 2.11857 0
M  V30 3101 H 305.39 -0.722648 -0.163895 0
M  V30 3102 H 308.037 -1.89322 0.28802 0
M  V30 3103 H 306.342 -3.49666 -1.76751 0
M  V30 3104 H 308.039 -3.73569 -1.45765 0
M  V30 3105 H 304.629 -4.28394 -0.132951 0
M  V30 3106 H 308.813 -4.92552 0.608789 0
M  V30 3107 H 304.069 -5.88926 1.64243 0
M  V30 3108 H 308.243 -6.54424 2.38123 0
M  V30 3109 H 305.87 -7.02544 2.90407 0
M  V30 3110 N 307.445 0.0818655 -1.57387 0
M  V30 3111 C 308.685 0.788375 -1.88584 0
M  V30 3112 C 309.049 1.75248 -0.784351 0
M  V30 3113 O 310.25 2.50334 -0.979105 0
M  V30 3114 C 308.521 1.48654 -3.25018 0
M  V30 3115 S 310.08 2.22951 -3.7794 0
M  V30 3116 H 306.898 0.262383 -0.660815 0
M  V30 3117 H 309.5 0.0448995 -1.95448 0
M  V30 3118 H 308.204 0.770919 -4.03094 0
M  V30 3119 H 307.735 2.26965 -3.21326 0
M  V30 3120 H 309.75 3.49309 -3.52417 0
M  V30 3121 N 308.923 1.53595 0.353017 0
M  V30 3122 C 309.871 1.81605 1.45335 0
M  V30 3123 C 310.865 0.685923 1.54892 0
M  V30 3124 O 312.071 0.869095 1.57628 0
M  V30 3125 H 308.446 0.575204 0.484401 0
M  V30 3126 H 310.417 2.73679 1.18921 0
M  V30 3127 C 309.166 2.03406 2.81995 0
M  V30 3128 H 308.489 2.89814 2.75405 0
M  V30 3129 H 309.929 2.26975 3.58132 0
M  V30 3130 C 308.388 0.816794 3.26849 0
M  V30 3131 O 308.918 0.0115856 4.01698 0
M  V30 3132 N 307.124 0.636682 2.8354 0
M  V30 3133 H 306.671 1.2931 2.22793 0
M  V30 3134 H 306.629 -0.176336 3.13905 0
M  V30 3135 N 310.401 -0.613514 1.45168 0
M  V30 3136 C 311.649 -1.36997 1.48581 0
M  V30 3137 C 311.97 -1.94589 0.126545 0
M  V30 3138 O 311.24 -1.76816 -0.843372 0
M  V30 3139 H 309.82 -0.508558 0.547154 0
M  V30 3140 H 312.482 -0.720853 1.81079 0
M  V30 3141 H 311.578 -2.1924 2.22127 0
M  V30 3142 N 311.879 -1.3236 -0.855495 0
M  V30 3143 C 312.789 -1.23221 -1.99634 0
M  V30 3144 C 313.805 -0.145983 -1.73387 0
M  V30 3145 O 314.981 -0.366502 -1.98037 0
M  V30 3146 C 312.046 -0.954782 -3.33294 0
M  V30 3147 C 311.107 -2.12937 -3.72769 0
M  V30 3148 C 310.34 -1.86508 -5.00051 0
M  V30 3149 O 310.563 -0.807231 -5.64659 0
M  V30 3150 O 309.497 -2.72591 -5.36636 0
M  V30 3151 H 313.323 -2.19126 -2.1028 0
M  V30 3152 H 310.908 -1.12241 -0.986018 0
M  V30 3153 H 312.79 -0.816519 -4.13414 0
M  V30 3154 H 311.465 -0.0258854 -3.2369 0
M  V30 3155 H 310.372 -2.3231 -2.93228 0
M  V30 3156 H 311.705 -3.04102 -3.87018 0
M  V30 3157 N 313.357 1.07166 -1.15556 0
M  V30 3158 C 314.634 1.76546 -0.842069 0
M  V30 3159 C 315.014 2.00453 0.661939 0
M  V30 3160 O 314.362 1.62452 1.60691 0
M  V30 3161 C 314.572 3.07266 -1.65495 0
M  V30 3162 C 315.92 3.81578 -1.86234 0
M  V30 3163 O 316.944 3.17083 -1.62287 0
M  V30 3164 O 315.803 4.97419 -2.26355 0
M  V30 3165 H 312.897 0.766756 -0.309862 0
M  V30 3166 H 315.443 1.13514 -1.26145 0
M  V30 3167 H 314.215 2.85494 -2.67598 0
M  V30 3168 H 313.838 3.7803 -1.23203 0
M  V30 3169 N 314.835 0.952656 1.25548 0
M  V30 3170 C 315.745 0.47782 2.29682 0
M  V30 3171 C 316.761 -0.453859 1.67977 0
M  V30 3172 O 317.937 -0.330587 1.98668 0
M  V30 3173 C 315.002 -0.238655 3.45878 0
M  V30 3174 C 314.063 0.730994 4.23031 0
M  V30 3175 C 313.296 0.0486165 5.33678 0
M  V30 3176 O 313.519 -1.16612 5.58353 0
M  V30 3177 O 312.453 0.733152 5.97418 0
M  V30 3178 H 316.279 1.34312 2.72386 0
M  V30 3179 H 313.864 0.719026 1.30959 0
M  V30 3180 H 315.746 -0.641774 4.16484 0
M  V30 3181 H 314.421 -1.07916 3.05181 0
M  V30 3182 H 313.328 1.18428 3.5486 0
M  V30 3183 H 314.661 1.53946 4.67506 0
M  V30 3184 N 316.313 -1.40141 0.720998 0
M  V30 3185 C 317.541 -2.05096 0.272656 0
M  V30 3186 C 317.956 -1.54334 -1.0875 0
M  V30 3187 O 317.313 -0.702211 -1.6845 0
M  V30 3188 C 317.364 -3.60636 0.249835 0
M  V30 3189 O 317.085 -4.09526 1.55629 0
M  V30 3190 C 318.586 -4.42772 -0.216396 0
M  V30 3191 H 315.806 -0.659897 0.121558 0
M  V30 3192 H 318.35 -1.79449 0.980723 0
M  V30 3193 H 316.505 -3.85232 -0.409237 0
M  V30 3194 H 316.919 -5.03758 1.4604 0
M  V30 3195 H 318.393 -5.51702 -0.181212 0
M  V30 3196 H 318.87 -4.20756 -1.25941 0
M  V30 3197 H 319.476 -4.23294 0.412596 0
M  V30 3198 N 317.792 -0.46758 -1.50504 0
M  V30 3199 C 319.203 -0.0116166 -1.86696 0
M  V30 3200 C 319.554 1.39202 -1.38265 0
M  V30 3201 O 318.679 2.0313 -0.746132 0
M  V30 3202 C 319.274 -0.0143044 -3.38797 0
M  V30 3203 C 317.833 0.386175 -3.74414 0
M  V30 3204 C 316.98 -0.401287 -2.74381 0
M  V30 3205 H 319.931 -0.682022 -1.43297 0
M  V30 3206 H 319.952 0.788641 -3.72237 0
M  V30 3207 H 319.464 -1.03602 -3.74016 0
M  V30 3208 H 317.565 1.41237 -3.44794 0
M  V30 3209 H 317.678 0.0899596 -4.79016 0
M  V30 3210 H 316.042 0.144536 -2.5429 0
M  V30 3211 H 316.825 -1.42244 -3.12444 0
M  V30 3212 N 319.27 1.56325 -0.20005 0
M  V30 3213 C 320.2 2.22318 0.713916 0
M  V30 3214 C 321.181 1.18788 1.21752 0
M  V30 3215 O 322.366 1.47309 1.26545 0
M  V30 3216 C 319.496 2.88639 1.93144 0
M  V30 3217 C 318.45 3.98457 1.56255 0
M  V30 3218 C 317.776 4.51967 2.85709 0
M  V30 3219 C 319.076 5.16612 0.768747 0
M  V30 3220 H 320.77 2.98952 0.163755 0
M  V30 3221 H 318.316 1.43792 0.0773219 0
M  V30 3222 H 320.269 3.33491 2.57608 0
M  V30 3223 H 318.993 2.09419 2.50621 0
M  V30 3224 H 317.652 3.54305 0.941471 0
M  V30 3225 H 317.3 3.69503 3.41287 0
M  V30 3226 H 317 5.26071 2.6177 0
M  V30 3227 H 318.524 4.99523 3.51154 0
M  V30 3228 H 319.938 5.57977 1.3166 0
M  V30 3229 H 318.335 5.96812 0.627286 0
M  V30 3230 H 319.405 4.84358 -0.229168 0
M  V30 3231 N 320.748 -0.0735177 1.57428 0
M  V30 3232 C 321.994 -0.774145 1.87443 0
M  V30 3233 C 322.327 -1.77311 0.792103 0
M  V30 3234 O 321.602 -1.93492 -0.197793 0
M  V30 3235 C 321.885 -1.48367 3.28115 0
M  V30 3236 C 321.738 -0.501227 4.46999 0
M  V30 3237 C 323.057 -2.429 3.66998 0
M  V30 3238 H 320.176 -0.279971 0.681752 0
M  V30 3239 H 322.818 -0.0373616 1.89963 0
M  V30 3240 H 320.968 -2.11171 3.26097 0
M  V30 3241 H 322.64 0.121468 4.6114 0
M  V30 3242 H 320.883 0.183593 4.33411 0
M  V30 3243 H 321.554 -1.03526 5.42205 0
M  V30 3244 H 324.03 -1.90175 3.70098 0
M  V30 3245 H 322.906 -2.89549 4.66318 0
M  V30 3246 H 323.167 -3.27628 2.96837 0
M  V30 3247 N 322.226 -1.5378 -0.344866 0
M  V30 3248 C 323.174 -1.82373 -1.4437 0
M  V30 3249 C 324.168 -0.694128 -1.54526 0
M  V30 3250 O 325.374 -0.877442 -1.57165 0
M  V30 3251 H 321.749 -0.577765 -0.481344 0
M  V30 3252 H 323.72 -2.74306 -1.17468 0
M  V30 3253 C 322.469 -2.04898 -2.80913 0
M  V30 3254 H 321.792 -2.9127 -2.73865 0
M  V30 3255 H 323.232 -2.28871 -3.56923 0
M  V30 3256 C 321.691 -0.834116 -3.26411 0
M  V30 3257 O 322.221 -0.0328885 -4.01687 0
M  V30 3258 N 320.427 -0.65171 -2.83198 0
M  V30 3259 H 319.974 -1.30489 -2.22104 0
M  V30 3260 H 319.932 0.159686 -3.13994 0
M  V30 3261 N 323.704 0.605807 -1.45491 0
M  V30 3262 C 324.981 1.36522 -1.40075 0
M  V30 3263 C 325.361 2.10976 -0.0722744 0
M  V30 3264 O 324.709 2.08007 0.945808 0
M  V30 3265 C 324.919 2.31056 -2.61561 0
M  V30 3266 C 326.267 2.93608 -3.06724 0
M  V30 3267 O 327.291 2.41376 -2.61946 0
M  V30 3268 O 326.15 3.88421 -3.84437 0
M  V30 3269 H 323.244 0.612248 -0.555951 0
M  V30 3270 H 325.79 0.628747 -1.57623 0
M  V30 3271 H 324.562 1.75311 -3.49831 0
M  V30 3272 H 324.185 3.12081 -2.46356 0
M  V30 3273 N 325.182 1.32811 0.848464 0
M  V30 3274 C 326.43 1.23479 1.59991 0
M  V30 3275 C 326.751 -0.201853 1.93952 0
M  V30 3276 O 326.021 -1.12818 1.60153 0
M  V30 3277 H 324.601 0.454034 0.593179 0
M  V30 3278 H 327.263 1.66412 1.01455 0
M  V30 3279 H 326.359 1.82178 2.53412 0
M  V30 3280 N 326.66 -1.06551 1.16123 0
M  V30 3281 C 327.888 -1.83005 0.965237 0
M  V30 3282 C 328.303 -1.82423 -0.486542 0
M  V30 3283 O 327.66 -1.24152 -1.33763 0
M  V30 3284 C 327.711 -3.29733 1.48183 0
M  V30 3285 O 327.432 -3.30416 2.87674 0
M  V30 3286 C 328.933 -4.22926 1.32848 0
M  V30 3287 H 326.153 -0.577118 0.342309 0
M  V30 3288 H 328.697 -1.3445 1.54089 0
M  V30 3289 H 326.852 -3.75609 0.948517 0
M  V30 3290 H 327.266 -4.22149 3.11272 0
M  V30 3291 H 328.74 -5.23916 1.73827 0
M  V30 3292 H 329.217 -4.38346 0.273692 0
M  V30 3293 H 329.823 -3.82894 1.85127 0
M  V30 3294 N 328.138 -0.959301 -1.25041 0
M  V30 3295 C 329.086 -0.474437 -2.2771 0
M  V30 3296 C 330.08 0.457697 -1.631 0
M  V30 3297 O 331.286 0.333912 -1.76876 0
M  V30 3298 H 327.661 -0.134936 -0.739795 0
M  V30 3299 H 329.632 -1.35251 -2.65988 0
M  V30 3300 C 328.381 0.227884 -3.46952 0
M  V30 3301 H 327.704 -0.480248 -3.96905 0
M  V30 3302 H 329.144 0.531091 -4.20661 0
M  V30 3303 C 327.603 1.452 -3.04004 0
M  V30 3304 O 328.133 2.54949 -3.10426 0
M  V30 3305 N 326.339 1.31502 -2.59144 0
M  V30 3306 H 325.886 0.422065 -2.54119 0
M  V30 3307 H 325.844 2.13521 -2.30773 0
M  V30 3308 N 329.616 1.39756 -0.72842 0
M  V30 3309 C 330.549 2.28176 -0.0330172 0
M  V30 3310 C 331.527 1.44035 0.754501 0
M  V30 3311 O 332.711 1.73434 0.738445 0
M  V30 3312 C 329.838 3.24795 0.960504 0
M  V30 3313 C 328.884 4.25693 0.262264 0
M  V30 3314 S 329.717 5.25714 -1.01906 0
M  V30 3315 C 330.873 6.25894 -0.0279717 0
M  V30 3316 H 331.106 2.86807 -0.78287 0
M  V30 3317 H 328.639 1.45382 -0.519951 0
M  V30 3318 H 330.597 3.80983 1.52846 0
M  V30 3319 H 329.258 2.65196 1.68315 0
M  V30 3320 H 328.451 4.93699 1.01379 0
M  V30 3321 H 328.053 3.7327 -0.233482 0
M  V30 3322 H 330.345 6.72585 0.814621 0
M  V30 3323 H 331.288 7.04876 -0.67499 0
M  V30 3324 H 331.696 5.63466 0.341489 0
M  V30 3325 N 331.094 0.475555 1.50254 0
M  V30 3326 C 332.004 -0.321501 2.32387 0
M  V30 3327 C 333.02 -0.991755 1.42969 0
M  V30 3328 O 334.196 -0.978747 1.76018 0
M  V30 3329 C 331.261 -1.38667 3.17762 0
M  V30 3330 C 330.322 -0.732538 4.23004 0
M  V30 3331 C 329.555 -1.74695 5.04299 0
M  V30 3332 O 329.778 -2.97399 4.86734 0
M  V30 3333 O 328.712 -1.31631 5.8733 0
M  V30 3334 H 332.538 0.350071 3.01676 0
M  V30 3335 H 330.123 0.237321 1.47503 0
M  V30 3336 H 332.005 -2.00354 3.70724 0
M  V30 3337 H 330.68 -2.04163 2.51196 0
M  V30 3338 H 329.587 -0.0765902 3.74022 0
M  V30 3339 H 330.92 -0.120452 4.92053 0
M  V30 3340 N 332.573 -1.56217 0.208337 0
M  V30 3341 C 333.85 -1.89739 -0.475234 0
M  V30 3342 C 334.23 -1.1238 -1.78701 0
M  V30 3343 O 333.578 -0.228979 -2.2735 0
M  V30 3344 C 333.788 -3.42289 -0.681101 0
M  V30 3345 C 335.136 -4.12789 -0.994507 0
M  V30 3346 O 336.16 -3.47814 -0.768357 0
M  V30 3347 O 335.019 -5.27649 -1.42299 0
M  V30 3348 H 332.113 -0.788478 -0.249461 0
M  V30 3349 H 334.659 -1.67855 0.249538 0
M  V30 3350 H 333.431 -3.90534 0.244722 0
M  V30 3351 H 333.054 -3.69909 -1.45785 0
M  V30 3352 N 334.051 0.0651679 -1.57465 0
M  V30 3353 C 335.297 0.764193 -1.87851 0
M  V30 3354 C 335.63 1.76889 -0.801495 0
M  V30 3355 O 334.905 1.93594 0.187528 0
M  V30 3356 C 335.188 1.46625 -3.28897 0
M  V30 3357 C 335.041 0.477515 -4.47258 0
M  V30 3358 C 336.36 2.4095 -3.68281 0
M  V30 3359 H 333.479 0.276351 -0.683227 0
M  V30 3360 H 336.121 0.0272868 -1.8998 0
M  V30 3361 H 334.271 2.09438 -3.27212 0
M  V30 3362 H 335.943 -0.145922 -4.61069 0
M  V30 3363 H 334.186 -0.206576 -4.33308 0
M  V30 3364 H 334.857 1.0065 -5.42746 0
M  V30 3365 H 337.333 1.88209 -3.71102 0
M  V30 3366 H 336.209 2.87072 -4.67847 0
M  V30 3367 H 336.47 3.26049 -2.98571 0
M  V30 3368 N 335.529 1.53961 0.336706 0
M  V30 3369 C 336.492 1.81724 1.39675 0
M  V30 3370 C 337.492 0.688532 1.45313 0
M  V30 3371 O 338.682 0.956829 1.45569 0
M  V30 3372 C 335.814 1.96543 2.78538 0
M  V30 3373 H 337.007 2.76424 1.16318 0
M  V30 3374 H 334.56 1.45478 0.571474 0
M  V30 3375 H 335.295 1.0401 3.07168 0
M  V30 3376 H 335.08 2.78665 2.75841 0
M  V30 3377 H 336.57 2.19516 3.5525 0
M  V30 3378 N 337.007 -0.598083 1.45811 0
M  V30 3379 C 337.955 -1.72932 1.55555 0
M  V30 3380 C 338.949 -1.63984 0.424921 0
M  V30 3381 O 340.155 -1.69663 0.601205 0
M  V30 3382 H 336.53 -0.571489 0.488779 0
M  V30 3383 H 338.501 -1.61842 2.50699 0
M  V30 3384 C 337.25 -3.11318 1.54843 0
M  V30 3385 H 336.573 -3.18867 2.41172 0
M  V30 3386 H 338.013 -3.90274 1.65717 0
M  V30 3387 C 336.472 -3.3578 0.274427 0
M  V30 3388 O 337.002 -3.9654 -0.641778 0
M  V30 3389 N 335.208 -2.90119 0.167139 0
M  V30 3390 H 334.755 -2.40855 0.913596 0
M  V30 3391 H 334.713 -3.0686 -0.684435 0
M  V30 3392 N 338.485 -1.33259 -0.841409 0
M  V30 3393 C 339.715 -1.2742 -1.62628 0
M  V30 3394 C 340.123 0.157604 -1.88542 0
M  V30 3395 O 339.466 1.10938 -1.46419 0
M  V30 3396 C 339.528 -1.97797 -3.00194 0
M  V30 3397 C 339.192 -3.47109 -2.97261 0
M  V30 3398 C 340.189 -4.42358 -2.73159 0
M  V30 3399 C 337.874 -3.89247 -3.17478 0
M  V30 3400 C 339.868 -5.77718 -2.69296 0
M  V30 3401 C 337.555 -5.24713 -3.13241 0
M  V30 3402 C 338.553 -6.1876 -2.89181 0
M  V30 3403 O 338.241 -7.51745 -2.84843 0
M  V30 3404 H 337.973 -0.440436 -0.512827 0
M  V30 3405 H 340.527 -1.76153 -1.05638 0
M  V30 3406 H 338.757 -1.43652 -3.59028 0
M  V30 3407 H 340.446 -1.8549 -3.61038 0
M  V30 3408 H 341.212 -4.11127 -2.57294 0
M  V30 3409 H 337.091 -3.16456 -3.35226 0
M  V30 3410 H 340.635 -6.51097 -2.50436 0
M  V30 3411 H 336.532 -5.55569 -3.28654 0
M  V30 3412 H 337.3 -7.61262 -3.00702 0
M  V30 3413 N 339.963 1.05934 -1.16686 0
M  V30 3414 C 341.209 1.79065 -0.95203 0
M  V30 3415 C 341.542 1.87147 0.518629 0
M  V30 3416 O 340.817 1.36574 1.38484 0
M  V30 3417 C 341.1 3.23359 -1.58464 0
M  V30 3418 C 340.953 3.23336 -3.12689 0
M  V30 3419 C 342.272 4.21004 -1.28232 0
M  V30 3420 H 339.391 0.65005 -0.34728 0
M  V30 3421 H 342.033 1.23868 -1.44072 0
M  V30 3422 H 340.183 3.70493 -1.16908 0
M  V30 3423 H 341.855 2.84336 -3.6325 0
M  V30 3424 H 340.098 2.61886 -3.4583 0
M  V30 3425 H 340.769 4.25144 -3.52075 0
M  V30 3426 H 343.245 3.8233 -1.64203 0
M  V30 3427 H 342.121 5.20225 -1.75092 0
M  V30 3428 H 342.382 4.41639 -0.201791 0
M  V30 3429 N 341.441 0.965919 1.2453 0
M  V30 3430 C 342.389 0.486506 2.27455 0
M  V30 3431 C 343.383 -0.449041 1.6334 0
M  V30 3432 O 344.589 -0.324527 1.7705 0
M  V30 3433 H 340.964 0.138857 0.739069 0
M  V30 3434 H 342.935 1.3666 2.65267 0
M  V30 3435 C 341.684 -0.209481 3.47068 0
M  V30 3436 H 341.007 0.50129 3.96645 0
M  V30 3437 H 342.447 -0.508775 4.20936 0
M  V30 3438 C 340.906 -1.43586 3.0477 0
M  V30 3439 O 341.436 -2.53299 3.11773 0
M  V30 3440 N 339.642 -1.30126 2.59838 0
M  V30 3441 H 339.189 -0.408583 2.54339 0
M  V30 3442 H 339.147 -2.12294 2.31902 0
M  V30 3443 N 342.919 -1.39368 0.735821 0
M  V30 3444 C 344.165 -2.00794 0.284544 0
M  V30 3445 C 344.498 -1.58255 -1.12557 0
M  V30 3446 O 343.773 -0.811819 -1.76748 0
M  V30 3447 C 344.056 -3.58011 0.387337 0
M  V30 3448 C 343.909 -4.10566 1.83728 0
M  V30 3449 C 345.228 -4.395 -0.22975 0
M  V30 3450 H 342.347 -0.729501 0.104866 0
M  V30 3451 H 344.989 -1.65564 0.93213 0
M  V30 3452 H 343.139 -3.88154 -0.164006 0
M  V30 3453 H 344.811 -3.91139 2.44556 0
M  V30 3454 H 343.054 -3.64095 2.35833 0
M  V30 3455 H 343.725 -5.19702 1.86047 0
M  V30 3456 H 346.201 -4.15406 0.240257 0
M  V30 3457 H 345.077 -5.48752 -0.127485 0
M  V30 3458 H 345.338 -4.22062 -1.3159 0
M  V30 3459 N 344.397 -0.483516 -1.5 0
M  V30 3460 C 345.644 0.0671597 -2.02389 0
M  V30 3461 C 345.972 1.38597 -1.36459 0
M  V30 3462 O 345.227 1.89634 -0.483458 0
M  V30 3463 C 345.526 0.286226 -3.56252 0
M  V30 3464 C 345.192 -0.952416 -4.40726 0
M  V30 3465 C 343.854 -1.29199 -4.63531 0
M  V30 3466 C 346.206 -1.77655 -4.89988 0
M  V30 3467 C 343.534 -2.45553 -5.32842 0
M  V30 3468 C 345.886 -2.93147 -5.60578 0
M  V30 3469 C 344.55 -3.27505 -5.81633 0
M  V30 3470 H 343.82 0.0245755 -0.740592 0
M  V30 3471 H 346.467 -0.640124 -1.80485 0
M  V30 3472 H 344.772 1.07587 -3.76739 0
M  V30 3473 H 346.469 0.726473 -3.94365 0
M  V30 3474 H 343.059 -0.677881 -4.23205 0
M  V30 3475 H 347.243 -1.52737 -4.72213 0
M  V30 3476 H 342.499 -2.72431 -5.47349 0
M  V30 3477 H 346.673 -3.57344 -5.97727 0
M  V30 3478 H 344.3 -4.1777 -6.35116 0
M  V30 3479 N 345.875 1.56104 -0.216619 0
M  V30 3480 C 347.103 2.02563 0.421413 0
M  V30 3481 C 347.518 1.0965 1.53695 0
M  V30 3482 O 346.875 0.10521 1.82196 0
M  V30 3483 C 346.926 3.48584 0.957665 0
M  V30 3484 O 346.647 4.37953 -0.113389 0
M  V30 3485 C 348.148 4.10664 1.66943 0
M  V30 3486 H 345.368 0.662944 0.103665 0
M  V30 3487 H 347.912 2.01793 -0.331629 0
M  V30 3488 H 346.067 3.49985 1.661 0
M  V30 3489 H 346.481 5.23704 0.288932 0
M  V30 3490 H 347.955 5.14622 1.99671 0
M  V30 3491 H 348.432 3.55373 2.58083 0
M  V30 3492 H 349.038 4.13098 1.01142 0
M  V30 3493 N 347.353 -0.0568162 1.57498 0
M  V30 3494 C 348.316 -1.05038 2.03715 0
M  V30 3495 C 349.316 -1.30709 0.936577 0
M  V30 3496 O 350.506 -1.26178 1.20103 0
M  V30 3497 C 347.638 -2.39034 2.43055 0
M  V30 3498 H 348.831 -0.651715 2.92733 0
M  V30 3499 H 346.384 -0.302947 1.53336 0
M  V30 3500 H 347.119 -2.83703 1.57108 0
M  V30 3501 H 346.904 -2.21739 3.2338 0
M  V30 3502 H 348.394 -3.10421 2.79336 0
M  V30 3503 N 348.832 -1.54138 -0.328536 0
M  V30 3504 C 350.078 -1.7236 -1.06865 0
M  V30 3505 C 350.411 -0.493231 -1.87832 0
M  V30 3506 O 349.686 0.5098 -1.877 0
M  V30 3507 C 349.969 -2.99621 -1.99747 0
M  V30 3508 C 349.822 -4.32899 -1.22143 0
M  V30 3509 C 351.141 -3.22615 -2.99345 0
M  V30 3510 H 348.26 -0.627151 -0.387105 0
M  V30 3511 H 350.902 -1.86827 -0.345767 0
M  V30 3512 H 349.052 -2.87418 -2.61387 0
M  V30 3513 H 350.724 -4.56978 -0.630017 0
M  V30 3514 H 348.967 -4.30628 -0.523628 0
M  V30 3515 H 349.638 -5.18154 -1.90318 0
M  V30 3516 H 352.114 -3.34248 -2.47826 0
M  V30 3517 H 350.99 -4.13027 -3.61524 0
M  V30 3518 H 351.251 -2.3961 -3.71536 0
M  V30 3519 N 350.31 0.590341 -1.46126 0
M  V30 3520 C 351.587 1.35029 -1.41515 0
M  V30 3521 C 351.967 2.10888 -0.0946472 0
M  V30 3522 O 351.315 2.08998 0.923693 0
M  V30 3523 C 351.525 2.28269 -2.63997 0
M  V30 3524 C 352.873 2.90338 -3.09821 0
M  V30 3525 O 353.897 2.38585 -2.64492 0
M  V30 3526 O 352.756 3.84321 -3.88535 0
M  V30 3527 H 349.85 0.606317 -0.562413 0
M  V30 3528 H 352.396 0.611994 -1.58281 0
M  V30 3529 H 351.168 1.71591 -3.51671 0
M  V30 3530 H 350.791 3.0945 -2.49652 0
M  V30 3531 N 351.788 1.33704 0.83433 0
M  V30 3532 C 352.751 1.24244 1.92603 0
M  V30 3533 C 353.751 0.160383 1.59998 0
M  V30 3534 O 354.941 0.412228 1.69252 0
M  V30 3535 C 352.073 0.91555 3.28376 0
M  V30 3536 H 353.266 2.21287 2.02416 0
M  V30 3537 H 350.819 1.17827 1.02696 0
M  V30 3538 H 351.554 -0.0521886 3.24258 0
M  V30 3539 H 351.339 1.69811 3.53422 0
M  V30 3540 H 352.829 0.874231 4.08347 0
M  V30 3541 N 353.266 -1.05314 1.17247 0
M  V30 3542 C 354.543 -1.75184 0.87005 0
M  V30 3543 C 354.923 -2.01481 -0.629965 0
M  V30 3544 O 354.271 -1.64988 -1.58086 0
M  V30 3545 C 354.481 -3.04594 1.70363 0
M  V30 3546 C 355.829 -3.78567 1.92281 0
M  V30 3547 O 356.853 -3.14461 1.67311 0
M  V30 3548 O 355.712 -4.93755 2.3424 0
M  V30 3549 H 352.806 -0.761729 0.322021 0
M  V30 3550 H 355.352 -1.11493 1.27935 0
M  V30 3551 H 354.124 -2.81201 2.72106 0
M  V30 3552 H 353.747 -3.76022 1.29202 0
M  V30 3553 N 354.744 -0.972509 -1.24016 0
M  V30 3554 C 355.691 -0.505969 -2.25186 0
M  V30 3555 C 356.661 0.451009 -1.5986 0
M  V30 3556 O 357.846 0.360307 -1.87367 0
M  V30 3557 C 354.986 0.193089 -3.44559 0
M  V30 3558 C 354.099 -0.803222 -4.24467 0
M  V30 3559 C 353.234 -0.0797793 -5.3114 0
M  V30 3560 C 352.273 -1.06583 -6.02749 0
M  V30 3561 N 351.41 -0.372074 -7.01113 0
M  V30 3562 H 356.25 -1.37351 -2.64459 0
M  V30 3563 H 353.787 -0.688419 -1.29997 0
M  V30 3564 H 355.745 0.615125 -4.1264 0
M  V30 3565 H 354.375 1.02455 -3.06109 0
M  V30 3566 H 353.427 -1.34368 -3.55878 0
M  V30 3567 H 354.739 -1.55494 -4.73944 0
M  V30 3568 H 353.893 0.400015 -6.0538 0
M  V30 3569 H 352.632 0.704597 -4.82583 0
M  V30 3570 H 351.637 -1.55645 -5.27309 0
M  V30 3571 H 352.862 -1.85074 -6.53395 0
M  V30 3572 H 350.808 0.393238 -6.5482 0
M  V30 3573 H 350.725 -1.06258 -7.48495 0
M  V30 3574 H 351.993 0.0855932 -7.79453 0
M  V30 3575 N 356.222 1.38976 -0.743202 0
M  V30 3576 C 357.468 2.01114 -0.304109 0
M  V30 3577 C 357.823 1.57929 1.09892 0
M  V30 3578 O 357.116 0.801983 1.74008 0
M  V30 3579 C 357.31 3.55647 -0.353517 0
M  V30 3580 C 357.139 4.13837 -1.75981 0
M  V30 3581 C 355.909 4.46062 -2.37395 0
M  V30 3582 C 358.107 4.36812 -2.71477 0
M  V30 3583 N 356.089 4.898 -3.70093 0
M  V30 3584 C 357.46 4.82844 -3.88923 0
M  V30 3585 C 359.515 4.18893 -2.69134 0
M  V30 3586 C 358.218 5.12837 -5.04371 0
M  V30 3587 C 360.244 4.50005 -3.83731 0
M  V30 3588 C 359.606 4.96251 -4.99914 0
M  V30 3589 H 355.705 0.765931 -0.157716 0
M  V30 3590 H 358.289 1.68763 -0.970931 0
M  V30 3591 H 356.46 3.87368 0.282987 0
M  V30 3592 H 358.192 4.04564 0.104904 0
M  V30 3593 H 354.947 4.34145 -1.89248 0
M  V30 3594 H 355.371 5.16016 -4.38242 0
M  V30 3595 H 360.013 3.82335 -1.80499 0
M  V30 3596 H 357.731 5.48297 -5.9363 0
M  V30 3597 H 361.317 4.37755 -3.83225 0
M  V30 3598 H 360.197 5.19867 -5.87118 0
M  V30 3599 N 357.7 0.491464 1.49741 0
M  V30 3600 C 358.61 -0.296835 2.32715 0
M  V30 3601 C 359.626 -0.976536 1.44013 0
M  V30 3602 O 360.802 -0.960023 1.77047 0
M  V30 3603 C 357.867 -1.35288 3.19215 0
M  V30 3604 C 356.928 -0.687632 4.23757 0
M  V30 3605 C 356.161 -1.69336 5.06123 0
M  V30 3606 O 356.384 -2.92219 4.89861 0
M  V30 3607 O 355.318 -1.25394 5.88693 0
M  V30 3608 H 359.144 0.382048 3.01287 0
M  V30 3609 H 356.729 0.252953 1.47243 0
M  V30 3610 H 358.611 -1.96411 3.72828 0
M  V30 3611 H 357.286 -2.01487 2.53347 0
M  V30 3612 H 356.193 -0.0369159 3.74082 0
M  V30 3613 H 357.526 -0.0682566 4.92153 0
M  V30 3614 N 359.178 -1.55987 0.224894 0
M  V30 3615 C 360.424 -1.98684 -0.406502 0
M  V30 3616 C 360.757 -1.11248 -1.59177 0
M  V30 3617 O 360.032 -0.170909 -1.93748 0
M  V30 3618 C 360.315 -3.50218 -0.837808 0
M  V30 3619 C 360.168 -4.48426 0.351332 0
M  V30 3620 C 361.487 -4.06243 -1.69278 0
M  V30 3621 H 358.606 -0.722337 -0.146283 0
M  V30 3622 H 361.248 -1.87255 0.321799 0
M  V30 3623 H 359.398 -3.60089 -1.45837 0
M  V30 3624 H 361.07 -4.50562 0.989526 0
M  V30 3625 H 359.313 -4.22159 0.998207 0
M  V30 3626 H 359.984 -5.52 0.00655905 0
M  V30 3627 H 362.46 -3.99337 -1.16914 0
M  V30 3628 H 361.336 -5.12581 -1.96346 0
M  V30 3629 H 361.597 -3.53332 -2.65723 0
M  V30 3630 N 360.656 0.0484629 -1.57525 0
M  V30 3631 C 361.619 1.03956 -2.04269 0
M  V30 3632 C 362.619 1.30211 -0.943496 0
M  V30 3633 O 363.809 1.25539 -1.20771 0
M  V30 3634 C 360.941 2.37742 -2.44319 0
M  V30 3635 H 362.134 0.636182 -2.93075 0
M  V30 3636 H 359.687 0.294811 -1.53494 0
M  V30 3637 H 360.422 2.82866 -1.5861 0
M  V30 3638 H 360.207 2.20021 -3.24551 0
M  V30 3639 H 361.697 3.08936 -2.80978 0
M  V30 3640 N 362.134 1.5431 0.320358 0
M  V30 3641 C 363.38 1.73859 1.05568 0
M  V30 3642 C 363.735 0.507807 1.85578 0
M  V30 3643 O 363.028 -0.499789 1.84967 0
M  V30 3644 C 363.222 2.95639 2.00828 0
M  V30 3645 C 363.051 4.30444 1.30186 0
M  V30 3646 C 361.821 4.94544 1.03703 0
M  V30 3647 C 364.019 5.0929 0.716138 0
M  V30 3648 N 362.001 6.13172 0.298846 0
M  V30 3649 C 363.372 6.19903 0.109729 0
M  V30 3650 C 365.427 4.94034 0.619269 0
M  V30 3651 C 364.13 7.16924 -0.584153 0
M  V30 3652 C 366.156 5.91369 -0.0609184 0
M  V30 3653 C 365.518 7.01336 -0.656258 0
M  V30 3654 H 361.617 0.688988 0.36989 0
M  V30 3655 H 364.201 1.9177 0.336494 0
M  V30 3656 H 362.372 2.79188 2.70016 0
M  V30 3657 H 364.104 3.03802 2.6737 0
M  V30 3658 H 360.859 4.54536 1.33019 0
M  V30 3659 H 361.283 6.76977 -0.0561964 0
M  V30 3660 H 365.925 4.0916 1.06526 0
M  V30 3661 H 363.643 8.01354 -1.04197 0
M  V30 3662 H 367.229 5.81642 -0.135552 0
M  V30 3663 H 366.109 7.75359 -1.17423 0
M  V30 3664 N 363.613 -0.582584 1.46437 0
M  V30 3665 C 364.545 -1.70618 1.53043 0
M  V30 3666 C 365.558 -1.57322 0.418769 0
M  V30 3667 O 366.747 -1.64744 0.687136 0
M  V30 3668 C 363.847 -3.08869 1.39474 0
M  V30 3669 C 363.02 -3.48166 2.64762 0
M  V30 3670 C 362.079 -4.65478 2.4539 0
M  V30 3671 O 361.105 -4.71333 3.19114 0
M  V30 3672 N 362.307 -5.60365 1.51564 0
M  V30 3673 H 365.072 -1.65405 2.49923 0
M  V30 3674 H 362.633 -0.768567 1.42494 0
M  V30 3675 H 364.625 -3.85143 1.24287 0
M  V30 3676 H 363.195 -3.08449 0.507758 0
M  V30 3677 H 362.415 -2.61598 2.9489 0
M  V30 3678 H 363.703 -3.71188 3.4799 0
M  V30 3679 H 363.101 -5.5837 0.907705 0
M  V30 3680 H 361.658 -6.36068 1.4234 0
M  V30 3681 N 365.091 -1.34144 -0.827227 0
M  V30 3682 C 366.337 -1.26446 -1.58554 0
M  V30 3683 C 366.67 0.1664 -1.93486 0
M  V30 3684 O 365.945 1.1107 -1.59667 0
M  V30 3685 C 366.228 -2.15111 -2.8879 0
M  V30 3686 C 366.081 -3.66712 -2.60465 0
M  V30 3687 C 367.4 -2.03311 -3.90324 0
M  V30 3688 H 364.519 -0.46067 -0.575284 0
M  V30 3689 H 367.161 -1.64356 -0.953269 0
M  V30 3690 H 365.311 -1.8291 -3.42748 0
M  V30 3691 H 366.983 -4.09259 -2.1285 0
M  V30 3692 H 365.226 -3.88014 -1.93978 0
M  V30 3693 H 365.897 -4.24112 -3.53317 0
M  V30 3694 H 368.373 -2.31574 -3.45706 0
M  V30 3695 H 367.249 -2.67582 -4.79261 0
M  V30 3696 H 367.51 -1.00879 -4.30437 0
M  V30 3697 N 366.569 1.04691 -1.17803 0
M  V30 3698 C 367.499 2.14494 -0.92275 0
M  V30 3699 C 368.48 1.69546 0.137179 0
M  V30 3700 O 369.665 1.94195 -0.0141108 0
M  V30 3701 C 366.795 3.44491 -0.440803 0
M  V30 3702 C 365.749 4.03031 -1.4405 0
M  V30 3703 C 365.075 5.28432 -0.81631 0
M  V30 3704 C 366.375 4.39932 -2.81527 0
M  V30 3705 H 368.069 2.36107 -1.84103 0
M  V30 3706 H 365.615 1.1347 -0.886599 0
M  V30 3707 H 367.568 4.2066 -0.249602 0
M  V30 3708 H 366.292 3.22546 0.513025 0
M  V30 3709 H 364.951 3.28937 -1.61853 0
M  V30 3710 H 364.599 5.02792 0.144511 0
M  V30 3711 H 364.299 5.68559 -1.48371 0
M  V30 3712 H 365.823 6.07284 -0.635496 0
M  V30 3713 H 367.237 5.07113 -2.67412 0
M  V30 3714 H 365.634 4.9109 -3.44892 0
M  V30 3715 H 366.704 3.50045 -3.35554 0
M  V30 3716 N 368.047 0.979072 1.23499 0
M  V30 3717 C 369.293 0.648178 1.92163 0
M  V30 3718 C 369.626 -0.816049 1.76222 0
M  V30 3719 O 368.901 -1.58849 1.12237 0
M  V30 3720 C 369.184 1.03773 3.44824 0
M  V30 3721 C 369.037 2.55948 3.69879 0
M  V30 3722 C 370.356 0.580653 4.36253 0
M  V30 3723 H 367.475 0.236952 0.69787 0
M  V30 3724 H 370.117 1.22012 1.45647 0
M  V30 3725 H 368.267 0.551058 3.84572 0
M  V30 3726 H 369.939 3.12179 3.3962 0
M  V30 3727 H 368.182 2.98641 3.14636 0
M  V30 3728 H 368.853 2.78255 4.76737 0
M  V30 3729 H 371.329 0.998465 4.03943 0
M  V30 3730 H 370.205 0.881663 5.41773 0
M  V30 3731 H 370.466 -0.519052 4.39042 0
M  V30 3732 N 369.525 -1.3858 0.750561 0
M  V30 3733 C 370.75 -2.04997 0.314812 0
M  V30 3734 C 371.175 -1.56235 -1.04749 0
M  V30 3735 O 370.533 -0.712981 -1.66692 0
M  V30 3736 C 370.581 -3.58961 0.343415 0
M  V30 3737 O 369.685 -4.07025 -0.663628 0
M  V30 3738 H 369.026 -0.649081 0.139962 0
M  V30 3739 H 371.556 -1.77313 1.02084 0
M  V30 3740 H 371.566 -4.07542 0.193233 0
M  V30 3741 H 370.241 -3.93811 1.33738 0
M  V30 3742 H 368.818 -3.6982 -0.478307 0
M  V30 3743 N 371.003 -0.499398 -1.49478 0
M  V30 3744 C 372.251 0.0455996 -2.02049 0
M  V30 3745 C 372.572 1.37633 -1.38138 0
M  V30 3746 O 371.842 1.8842 -0.536166 0
M  V30 3747 H 370.422 0.0198416 -0.746736 0
M  V30 3748 H 373.084 -0.656274 -1.83519 0
M  V30 3749 H 372.18 0.176445 -3.11601 0
M  V30 3750 N 372.481 1.55866 -0.233164 0
M  V30 3751 C 373.429 2.22176 0.68851 0
M  V30 3752 C 374.423 1.20487 1.19076 0
M  V30 3753 O 375.629 1.38536 1.14925 0
M  V30 3754 H 372.004 0.712511 0.240483 0
M  V30 3755 H 373.975 2.98212 0.105935 0
M  V30 3756 C 372.724 2.92446 1.88071 0
M  V30 3757 H 372.047 3.70458 1.50337 0
M  V30 3758 H 373.487 3.42226 2.50314 0
M  V30 3759 C 371.946 1.95555 2.74335 0
M  V30 3760 O 372.476 1.47986 3.73447 0
M  V30 3761 N 370.682 1.62953 2.40613 0
M  V30 3762 H 370.229 2.01831 1.60069 0
M  V30 3763 H 370.187 0.983886 2.98609 0
M  V30 3764 N 373.959 -0.0401083 1.57549 0
M  V30 3765 C 374.889 -1.04384 2.08869 0
M  V30 3766 C 375.87 -1.38407 0.988817 0
M  V30 3767 O 377.055 -1.47483 1.26342 0
M  V30 3768 C 374.185 -2.34808 2.55895 0
M  V30 3769 C 373.139 -2.15057 3.70047 0
M  V30 3770 C 372.465 -3.51145 4.03239 0
M  V30 3771 C 373.765 -1.54576 4.98902 0
M  V30 3772 H 375.459 -0.616666 2.92981 0
M  V30 3773 H 373.005 -0.295184 1.40942 0
M  V30 3774 H 374.958 -3.05346 2.90417 0
M  V30 3775 H 373.682 -2.79565 1.68853 0
M  V30 3776 H 372.341 -1.46954 3.35857 0
M  V30 3777 H 371.989 -3.93529 3.13279 0
M  V30 3778 H 371.689 -3.38758 4.80122 0
M  V30 3779 H 373.213 -4.23062 4.40285 0
M  V30 3780 H 374.627 -2.15017 5.31451 0
M  V30 3781 H 373.024 -1.52796 5.80322 0
M  V30 3782 H 374.094 -0.51039 4.82206 0
M  V30 3783 N 375.437 -1.54477 -0.31217 0
M  V30 3784 C 376.714 -1.63891 -1.06767 0
M  V30 3785 C 377.094 -0.480028 -2.0557 0
M  V30 3786 O 376.442 0.524487 -2.22399 0
M  V30 3787 C 376.652 -3.01402 -1.75948 0
M  V30 3788 C 378 -3.57838 -2.28554 0
M  V30 3789 O 379.024 -3.03782 -1.85998 0
M  V30 3790 O 377.883 -4.52462 -3.06497 0
M  V30 3791 H 374.977 -0.664125 -0.492816 0
M  V30 3792 H 377.523 -1.66823 -0.311149 0
M  V30 3793 H 376.295 -3.77187 -1.04144 0
M  V30 3794 H 375.918 -3.02199 -2.58383 0
M  V30 3795 N 376.915 0.57481 -1.46744 0
M  V30 3796 C 377.863 1.70435 -1.58286 0
M  V30 3797 C 378.857 1.63287 -0.450956 0
M  V30 3798 O 380.063 1.68685 -0.628121 0
M  V30 3799 H 376.438 0.56364 -0.497809 0
M  V30 3800 H 378.409 1.57833 -2.53242 0
M  V30 3801 C 377.158 3.08815 -1.59776 0
M  V30 3802 H 376.481 3.1499 -2.46214 0
M  V30 3803 H 377.921 3.87588 -1.71905 0
M  V30 3804 C 376.38 3.35301 -0.327812 0
M  V30 3805 O 376.91 3.97511 0.57861 0
M  V30 3806 N 375.116 2.89816 -0.213274 0
M  V30 3807 H 374.663 2.39371 -0.951798 0
M  V30 3808 H 374.621 3.0791 0.63553 0
M  V30 3809 N 378.394 1.34581 0.820102 0
M  V30 3810 C 379.634 1.28448 1.58998 0
M  V30 3811 C 379.998 -0.142883 1.91468 0
M  V30 3812 O 381.199 -0.328422 2.66786 0
M  V30 3813 C 379.47 2.153 2.85273 0
M  V30 3814 S 381.029 2.26548 3.75794 0
M  V30 3815 H 377.847 0.456685 0.54494 0
M  V30 3816 H 380.449 1.69825 0.968487 0
M  V30 3817 H 379.153 3.18008 2.59421 0
M  V30 3818 H 378.684 1.7483 3.52417 0
M  V30 3819 H 380.699 1.44034 4.74835 0
M  V30 3820 N 379.872 -1.04064 1.18357 0
M  V30 3821 C 381.149 -1.74252 0.888581 0
M  V30 3822 C 381.529 -2.02138 -0.60856 0
M  V30 3823 O 380.877 -1.66656 -1.56327 0
M  V30 3824 C 381.087 -3.0277 1.73584 0
M  V30 3825 C 382.435 -3.76506 1.96286 0
M  V30 3826 O 383.459 -3.12668 1.70637 0
M  V30 3827 O 382.318 -4.91243 2.39464 0
M  V30 3828 H 379.412 -0.758271 0.330082 0
M  V30 3829 H 381.958 -1.1013 1.2911 0
M  V30 3830 H 380.73 -2.78299 2.75073 0
M  V30 3831 H 380.353 -3.74631 1.33183 0
M  V30 3832 N 381.35 -0.985608 -1.22978 0
M  V30 3833 C 382.313 -0.535071 -2.22867 0
M  V30 3834 C 383.313 0.378123 -1.56291 0
M  V30 3835 O 384.503 0.171092 -1.73358 0
M  V30 3836 C 381.635 0.222702 -3.40172 0
M  V30 3837 H 382.828 -1.41835 -2.6424 0
M  V30 3838 H 380.381 -0.772042 -1.35901 0
M  V30 3839 H 381.116 1.12229 -3.04262 0
M  V30 3840 H 380.901 -0.43288 -3.89703 0
M  V30 3841 H 382.391 0.526335 -4.1427 0
M  V30 3842 N 382.828 1.3818 -0.7579 0
M  V30 3843 C 384.105 1.94106 -0.241306 0
M  V30 3844 C 384.485 1.69282 1.26122 0
M  V30 3845 O 383.833 1.03378 2.03777 0
M  V30 3846 C 384.043 3.43809 -0.59967 0
M  V30 3847 C 385.391 4.20868 -0.561717 0
M  V30 3848 O 386.415 3.5211 -0.538222 0
M  V30 3849 O 385.274 5.43451 -0.576478 0
M  V30 3850 H 382.368 0.825376 -0.0518042 0
M  V30 3851 H 384.914 1.47548 -0.838315 0
M  V30 3852 H 383.686 3.55403 -1.6372 0
M  V30 3853 H 383.309 3.97592 0.0251197 0
M  V30 3854 N 384.306 0.507319 1.49211 0
M  V30 3855 C 385.536 -0.0315292 2.06576 0
M  V30 3856 C 385.944 -1.30791 1.36713 0
M  V30 3857 O 385.287 -1.78324 0.441181 0
M  V30 3858 C 385.349 -0.349104 3.57801 0
M  V30 3859 C 385.013 0.830475 4.49391 0
M  V30 3860 C 386.01 1.72271 4.90529 0
M  V30 3861 C 383.695 1.03107 4.91604 0
M  V30 3862 C 385.689 2.79964 5.72625 0
M  V30 3863 C 383.376 2.11116 5.73475 0
M  V30 3864 C 384.374 2.99379 6.1389 0
M  V30 3865 O 384.062 4.05523 6.94123 0
M  V30 3866 H 383.794 0.0201002 0.675701 0
M  V30 3867 H 386.348 0.705737 1.92895 0
M  V30 3868 H 384.578 -1.14005 3.69513 0
M  V30 3869 H 386.267 -0.827319 3.97379 0
M  V30 3870 H 387.033 1.57958 4.58557 0
M  V30 3871 H 382.912 0.353417 4.59643 0
M  V30 3872 H 386.456 3.48884 6.04091 0
M  V30 3873 H 382.353 2.25421 6.0486 0
M  V30 3874 H 383.121 4.02953 7.1244 0
M  V30 3875 N 385.784 -1.5574 0.241426 0
M  V30 3876 C 386.694 -2.2479 -0.671305 0
M  V30 3877 C 387.71 -1.26217 -1.19772 0
M  V30 3878 O 388.886 -1.59079 -1.23514 0
M  V30 3879 C 385.951 -2.92966 -1.85396 0
M  V30 3880 C 385.012 -4.06935 -1.36756 0
M  V30 3881 C 384.245 -4.71851 -2.49384 0
M  V30 3882 O 384.468 -4.35823 -3.67987 0
M  V30 3883 O 383.402 -5.60467 -2.19454 0
M  V30 3884 H 387.228 -3.0349 -0.112966 0
M  V30 3885 H 384.813 -1.49397 0.0101513 0
M  V30 3886 H 386.695 -3.35927 -2.54423 0
M  V30 3887 H 385.37 -2.17211 -2.40002 0
M  V30 3888 H 384.277 -3.68503 -0.644726 0
M  V30 3889 H 385.61 -4.84492 -0.867647 0
M  V30 3890 N 387.262 0.0317525 -1.57568 0
M  V30 3891 C 388.51 0.721676 -1.88776 0
M  V30 3892 C 388.831 1.76039 -0.838772 0
M  V30 3893 O 388.101 1.95482 0.127935 0
M  V30 3894 H 386.681 0.269534 -0.696678 0
M  V30 3895 H 389.343 -0.00165879 -1.949 0
M  V30 3896 H 388.439 1.21293 -2.87566 0
M  V30 3897 N 388.74 1.54641 0.303973 0
M  V30 3898 C 389.687 1.85386 1.37479 0
M  V30 3899 C 390.657 0.702528 1.50512 0
M  V30 3900 O 391.842 0.950867 1.65418 0
M  V30 3901 C 388.982 2.10413 2.73533 0
M  V30 3902 C 388.095 3.38049 2.68974 0
M  V30 3903 C 387.23 3.52934 3.97002 0
M  V30 3904 C 386.269 4.74373 3.86829 0
M  V30 3905 N 385.406 4.8608 5.06627 0
M  V30 3906 H 390.246 2.76732 1.1056 0
M  V30 3907 H 387.783 1.37034 0.534805 0
M  V30 3908 H 389.741 2.22919 3.52652 0
M  V30 3909 H 388.371 1.22338 2.98719 0
M  V30 3910 H 387.423 3.3418 1.81736 0
M  V30 3911 H 388.735 4.27288 2.57346 0
M  V30 3912 H 387.889 3.65088 4.84557 0
M  V30 3913 H 386.628 2.61824 4.1146 0
M  V30 3914 H 385.633 4.62255 2.97658 0
M  V30 3915 H 386.858 5.66888 3.73918 0
M  V30 3916 H 384.804 3.97891 5.21554 0
M  V30 3917 H 384.721 5.69315 4.9741 0
M  V30 3918 H 385.989 5.02587 5.95841 0
M  V30 3919 N 390.218 -0.567019 1.47046 0
M  V30 3920 C 391.464 -1.32434 1.54379 0
M  V30 3921 C 391.819 -1.91365 0.199276 0
M  V30 3922 O 391.112 -1.74378 -0.793915 0
M  V30 3923 C 391.306 -2.4623 2.59047 0
M  V30 3924 C 391.135 -1.98448 4.03545 0
M  V30 3925 C 389.905 -1.82741 4.71098 0
M  V30 3926 C 392.103 -1.53477 4.90866 0
M  V30 3927 N 390.085 -1.29196 6.00151 0
M  V30 3928 C 391.456 -1.1163 6.09868 0
M  V30 3929 C 393.511 -1.41438 4.77388 0
M  V30 3930 C 392.214 -0.589425 7.16881 0
M  V30 3931 C 394.24 -0.901528 5.84488 0
M  V30 3932 C 393.602 -0.492932 7.02673 0
M  V30 3933 H 389.701 -0.477005 0.61967 0
M  V30 3934 H 392.285 -0.643856 1.83746 0
M  V30 3935 H 390.456 -3.11821 2.31564 0
M  V30 3936 H 392.188 -3.13213 2.56281 0
M  V30 3937 H 388.943 -2.05162 4.26855 0
M  V30 3938 H 389.367 -1.0454 6.6888 0
M  V30 3939 H 394.009 -1.71643 3.86392 0
M  V30 3940 H 391.727 -0.274994 8.07632 0
M  V30 3941 H 395.313 -0.812071 5.76105 0
M  V30 3942 H 394.193 -0.102227 7.84133 0
M  V30 3943 N 391.696 -1.35014 -0.812953 0
M  V30 3944 C 392.659 -1.27292 -1.90602 0
M  V30 3945 C 393.659 -0.185817 -1.59723 0
M  V30 3946 O 394.849 -0.439102 -1.68575 0
M  V30 3947 C 391.981 -0.967676 -3.26877 0
M  V30 3948 H 393.174 -2.24479 -1.9887 0
M  V30 3949 H 390.727 -1.19446 -1.00808 0
M  V30 3950 H 391.462 0.0005954 -3.243 0
M  V30 3951 H 391.247 -1.75412 -3.50675 0
M  V30 3952 H 392.737 -0.939085 -4.06904 0
M  V30 3953 N 393.175 1.03435 -1.18907 0
M  V30 3954 C 394.422 1.76743 -0.988334 0
M  V30 3955 C 394.75 1.88447 0.481441 0
M  V30 3956 O 394.005 1.39383 1.37371 0
M  V30 3957 C 394.304 3.19792 -1.59586 0
M  V30 3958 C 393.97 3.28108 -3.09283 0
M  V30 3959 C 392.632 3.30084 -3.5014 0
M  V30 3960 C 394.984 3.27696 -4.05296 0
M  V30 3961 C 392.312 3.29299 -4.85571 0
M  V30 3962 C 394.664 3.28451 -5.4065 0
M  V30 3963 C 393.328 3.28723 -5.80946 0
M  V30 3964 H 392.598 0.64675 -0.361657 0
M  V30 3965 H 395.245 1.21442 -1.48068 0
M  V30 3966 H 393.55 3.78136 -1.02568 0
M  V30 3967 H 395.247 3.75171 -1.41589 0
M  V30 3968 H 391.837 3.27294 -2.76725 0
M  V30 3969 H 396.021 3.25354 -3.74778 0
M  V30 3970 H 391.277 3.2783 -5.16079 0
M  V30 3971 H 395.451 3.27082 -6.14809 0
M  V30 3972 H 393.078 3.27868 -6.85862 0
M  V30 3973 N 394.653 0.992116 1.22453 0
M  V30 3974 C 395.878 0.685644 1.95739 0
M  V30 3975 C 396.303 -0.743 1.72804 0
M  V30 3976 O 395.661 -1.50778 1.00676 0
M  V30 3977 C 395.709 0.996293 3.46564 0
M  V30 3978 O 394.813 0.0945512 4.12292 0
M  V30 3979 H 394.154 0.256694 0.612376 0
M  V30 3980 H 396.684 1.32888 1.5557 0
M  V30 3981 H 396.694 0.93781 3.97076 0
M  V30 3982 H 395.369 2.03733 3.62582 0
M  V30 3983 H 393.946 0.208451 3.72317 0
M  V30 3984 N 396.131 -1.37776 0.765217 0
M  V30 3985 C 397.359 -2.04124 0.337767 0
M  V30 3986 C 397.774 -1.57715 -1.03785 0
M  V30 3987 O 397.131 -0.755447 -1.6613 0
M  V30 3988 C 397.182 -3.59658 0.364442 0
M  V30 3989 O 396.903 -4.04367 1.68579 0
M  V30 3990 C 398.404 -4.43236 -0.0754221 0
M  V30 3991 H 395.624 -0.655696 0.142491 0
M  V30 3992 H 398.168 -1.76238 1.03732 0
M  V30 3993 H 396.323 -3.86339 -0.286471 0
M  V30 3994 H 396.737 -4.98857 1.61993 0
M  V30 3995 H 398.211 -5.52 -0.00560067 0
M  V30 3996 H 398.688 -4.2455 -1.12491 0
M  V30 3997 H 399.294 -4.21767 0.547055 0
M  V30 3998 N 397.609 -0.515225 -1.4894 0
M  V30 3999 C 398.834 0.022727 -2.07388 0
M  V30 4000 C 399.259 1.2876 -1.37122 0
M  V30 4001 O 398.617 1.76067 -0.432431 0
M  V30 4002 C 398.665 0.244869 -3.59768 0
M  V30 4003 O 397.769 1.31667 -3.90817 0
M  V30 4004 H 397.11 -0.0325506 -0.663202 0
M  V30 4005 H 399.64 -0.718918 -1.91553 0
M  V30 4006 H 399.65 0.47205 -4.0526 0
M  V30 4007 H 398.325 -0.679194 -4.10317 0
M  V30 4008 H 396.902 1.07331 -3.5712 0
M  V30 4009 N 399.087 1.5561 -0.249682 0
M  V30 4010 C 400.317 2.03116 0.377803 0
M  V30 4011 C 400.725 1.12822 1.51881 0
M  V30 4012 O 400.068 0.13562 1.83199 0
M  V30 4013 C 400.13 3.46866 0.944693 0
M  V30 4014 C 399.794 4.56955 -0.0644259 0
M  V30 4015 C 400.791 5.12485 -0.874957 0
M  V30 4016 C 398.476 5.01936 -0.19132 0
M  V30 4017 C 400.47 6.11491 -1.79881 0
M  V30 4018 C 398.157 6.00773 -1.11868 0
M  V30 4019 C 399.155 6.5543 -1.92095 0
M  V30 4020 O 398.843 7.5234 -2.83267 0
M  V30 4021 H 398.575 0.669489 0.0935961 0
M  V30 4022 H 401.129 2.02004 -0.371966 0
M  V30 4023 H 399.359 3.45136 1.74407 0
M  V30 4024 H 401.048 3.77856 1.48255 0
M  V30 4025 H 401.814 4.78564 -0.787523 0
M  V30 4026 H 397.693 4.59055 0.423072 0
M  V30 4027 H 401.237 6.54078 -2.42543 0
M  V30 4028 H 397.134 6.34114 -1.20703 0
M  V30 4029 H 397.902 7.69966 -2.7766 0
M  V30 4030 N 400.565 -0.0233959 1.57583 0
M  V30 4031 C 401.513 -1.04063 2.08023 0
M  V30 4032 C 402.507 -1.37084 0.995204 0
M  V30 4033 O 403.713 -1.35923 1.18004 0
M  V30 4034 H 400.088 -0.353144 0.663922 0
M  V30 4035 H 402.059 -0.589453 2.9252 0
M  V30 4036 C 400.808 -2.33123 2.57971 0
M  V30 4037 H 400.131 -2.08577 3.4108 0
M  V30 4038 H 401.571 -3.02632 2.96967 0
M  V30 4039 C 400.03 -3.02483 1.48342 0
M  V30 4040 O 400.56 -3.92541 0.852898 0
M  V30 4041 N 398.766 -2.63909 1.21658 0
M  V30 4042 H 398.313 -1.90758 1.73116 0
M  V30 4043 H 398.271 -3.10633 0.485218 0
M  V30 4044 N 402.043 -1.548 -0.295768 0
M  V30 4045 C 403.268 -1.78653 -1.05346 0
M  V30 4046 C 403.693 -0.546894 -1.79974 0
M  V30 4047 O 403.051 0.502763 -1.7419 0
M  V30 4048 C 403.099 -2.99679 -2.00561 0
M  V30 4049 O 402.203 -2.7317 -3.08953 0
M  V30 4050 H 401.544 -0.59116 -0.302367 0
M  V30 4051 H 404.074 -2.01895 -0.331598 0
M  V30 4052 H 404.084 -3.27793 -2.42932 0
M  V30 4053 H 402.759 -3.89562 -1.4565 0
M  V30 4054 H 401.336 -2.56089 -2.71059 0
M  V30 4055 N 403.521 0.559213 -1.47345 0
M  V30 4056 C 404.431 1.69388 -1.62311 0
M  V30 4057 C 405.447 1.6648 -0.505993 0
M  V30 4058 O 406.623 1.85964 -0.773262 0
M  V30 4059 C 403.688 3.05894 -1.63185 0
M  V30 4060 C 402.749 3.19885 -2.86307 0
M  V30 4061 C 401.982 4.49879 -2.87131 0
M  V30 4062 O 402.205 5.35217 -1.97229 0
M  V30 4063 O 401.139 4.67618 -3.78968 0
M  V30 4064 H 404.965 1.59706 -2.58317 0
M  V30 4065 H 402.55 0.728989 -1.30407 0
M  V30 4066 H 404.432 3.87133 -1.66451 0
M  V30 4067 H 403.107 3.15964 -0.70345 0
M  V30 4068 H 402.014 2.38052 -2.88587 0
M  V30 4069 H 403.347 3.14718 -3.78435 0
M  V30 4070 N 404.999 1.35443 0.805782 0
M  V30 4071 C 405.946 1.28431 1.91766 0
M  V30 4072 C 406.916 0.156102 1.65365 0
M  V30 4073 O 408.101 0.339936 1.87747 0
M  V30 4074 C 405.241 1.06301 3.2832 0
M  V30 4075 C 404.354 2.2805 3.66902 0
M  V30 4076 C 403.489 1.99064 4.92491 0
M  V30 4077 C 402.528 3.16863 5.23703 0
M  V30 4078 N 401.665 2.87647 6.40471 0
M  V30 4079 H 406.505 2.23511 1.97096 0
M  V30 4080 H 404.042 1.11105 0.964054 0
M  V30 4081 H 406 0.915012 4.07042 0
M  V30 4082 H 404.63 0.148822 3.22457 0
M  V30 4083 H 403.682 2.53711 2.83434 0
M  V30 4084 H 404.994 3.1601 3.85927 0
M  V30 4085 H 404.148 1.81099 5.7904 0
M  V30 4086 H 402.887 1.0839 4.75503 0
M  V30 4087 H 401.892 3.35404 4.35642 0
M  V30 4088 H 403.117 4.08339 5.4262 0
M  V30 4089 H 401.063 1.99568 6.24907 0
M  V30 4090 H 400.98 3.69141 6.59751 0
M  V30 4091 H 402.248 2.73226 7.30047 0
M  V30 4092 N 406.477 -1.02803 1.19454 0
M  V30 4093 C 407.725 -1.75869 0.995722 0
M  V30 4094 C 408.046 -1.89138 -0.474543 0
M  V30 4095 O 407.316 -1.42558 -1.34366 0
M  V30 4096 H 405.896 -0.651511 0.365435 0
M  V30 4097 H 408.558 -1.24004 1.50363 0
M  V30 4098 H 407.654 -2.76661 1.44447 0
M  V30 4099 N 407.956 -0.998596 -1.21925 0
M  V30 4100 C 408.889 -0.498517 -2.22688 0
M  V30 4101 C 409.867 0.444301 -1.56412 0
M  V30 4102 O 411.051 0.368518 -1.84863 0
M  V30 4103 C 408.178 0.276639 -3.37568 0
M  V30 4104 C 407.224 -0.61302 -4.22071 0
M  V30 4105 S 408.057 -2.07168 -4.93803 0
M  V30 4106 C 409.213 -1.30617 -6.12119 0
M  V30 4107 H 409.446 -1.35234 -2.64762 0
M  V30 4108 H 406.979 -0.806018 -1.31692 0
M  V30 4109 H 408.937 0.717817 -4.04175 0
M  V30 4110 H 407.598 1.10581 -2.93991 0
M  V30 4111 H 406.791 -0.0162909 -5.03997 0
M  V30 4112 H 406.393 -0.991202 -3.60626 0
M  V30 4113 H 408.685 -0.57675 -6.75041 0
M  V30 4114 H 409.628 -2.10091 -6.76215 0
M  V30 4115 H 410.036 -0.816957 -5.58557 0
M  V30 4116 N 409.434 1.37368 -0.772513 0
M  V30 4117 C 410.662 2.03942 -0.348588 0
M  V30 4118 C 411.077 1.58264 1.02947 0
M  V30 4119 O 410.434 0.764246 1.65727 0
M  V30 4120 C 410.485 3.5946 -0.38351 0
M  V30 4121 O 410.206 4.03468 -1.70721 0
M  V30 4122 C 411.707 4.4327 0.0519152 0
M  V30 4123 H 408.927 0.654931 -0.145966 0
M  V30 4124 H 411.471 1.75686 -1.04665 0
M  V30 4125 H 409.626 3.86486 0.265978 0
M  V30 4126 H 410.04 4.97991 -1.64636 0
M  V30 4127 H 411.514 5.51995 -0.0236733 0
M  V30 4128 H 411.991 4.2514 1.10238 0
M  V30 4129 H 412.597 4.21471 -0.569415 0
M  V30 4130 N 410.912 0.523116 1.48665 0
M  V30 4131 C 411.842 -0.23231 2.32342 0
M  V30 4132 C 412.823 -0.941637 1.41659 0
M  V30 4133 O 414.008 -0.928751 1.70552 0
M  V30 4134 C 411.138 -1.28387 3.22698 0
M  V30 4135 C 410.092 -0.693098 4.22351 0
M  V30 4136 C 409.418 -1.8468 5.01794 0
M  V30 4137 C 410.718 0.33063 5.21252 0
M  V30 4138 H 412.412 0.466192 2.95748 0
M  V30 4139 H 409.958 0.225643 1.42221 0
M  V30 4140 H 411.911 -1.82024 3.80059 0
M  V30 4141 H 410.635 -2.01186 2.57278 0
M  V30 4142 H 409.294 -0.178299 3.66166 0
M  V30 4143 H 408.942 -2.56301 4.32804 0
M  V30 4144 H 408.642 -1.45747 5.69238 0
M  V30 4145 H 410.166 -2.38709 5.62006 0
M  V30 4146 H 411.58 -0.118407 5.73178 0
M  V30 4147 H 409.977 0.636974 5.9671 0
M  V30 4148 H 411.047 1.23883 4.68808 0
M  V30 4149 N 412.39 -1.55475 0.257931 0
M  V30 4150 C 413.801 -1.8511 -0.243135 0
M  V30 4151 C 414.152 -1.17986 -1.5676 0
M  V30 4152 O 413.277 -0.462102 -2.11409 0
M  V30 4153 C 413.872 -3.35826 -0.447929 0
M  V30 4154 C 412.431 -3.65647 -0.893245 0
M  V30 4155 C 411.578 -2.7729 0.0232965 0
M  V30 4156 H 414.529 -1.51261 0.480199 0
M  V30 4157 H 414.55 -3.58002 -1.28898 0
M  V30 4158 H 414.062 -3.84652 0.516196 0
M  V30 4159 H 412.163 -3.22308 -1.86945 0
M  V30 4160 H 412.276 -4.73312 -0.742469 0
M  V30 4161 H 410.64 -2.49942 -0.490021 0
M  V30 4162 H 411.423 -3.28926 0.982994 0
M  V30 4163 N 413.868 0.0150385 -1.57593 0
M  V30 4164 C 414.778 1.02791 -2.10882 0
M  V30 4165 C 415.794 1.38702 -1.0506 0
M  V30 4166 O 416.97 1.47739 -1.36877 0
M  V30 4167 C 414.035 2.30568 -2.58919 0
M  V30 4168 C 413.096 2.01108 -3.79281 0
M  V30 4169 C 412.329 3.22794 -4.25018 0
M  V30 4170 O 412.552 4.33959 -3.70183 0
M  V30 4171 O 411.486 3.07672 -5.17322 0
M  V30 4172 H 415.312 0.604973 -2.97613 0
M  V30 4173 H 412.897 0.23292 -1.47573 0
M  V30 4174 H 414.779 3.05662 -2.90084 0
M  V30 4175 H 413.454 2.72129 -1.75293 0
M  V30 4176 H 412.361 1.23537 -3.53114 0
M  V30 4177 H 413.694 1.64394 -4.63935 0
M  V30 4178 N 415.346 1.54954 0.287554 0
M  V30 4179 C 416.279 1.81737 1.3801 0
M  V30 4180 C 417.257 0.669412 1.48181 0
M  V30 4181 O 418.441 0.910839 1.65033 0
M  V30 4182 C 415.568 1.96606 2.75796 0
M  V30 4183 C 414.614 3.19098 2.82982 0
M  V30 4184 S 415.447 4.7683 2.43707 0
M  V30 4185 C 416.603 4.94653 3.83496 0
M  V30 4186 H 416.836 2.74122 1.15085 0
M  V30 4187 H 414.369 1.46538 0.486403 0
M  V30 4188 H 416.327 2.05858 3.55152 0
M  V30 4189 H 414.988 1.05136 2.95982 0
M  V30 4190 H 414.181 3.26344 3.84077 0
M  V30 4191 H 413.783 3.08361 2.11635 0
M  V30 4192 H 416.075 4.79502 4.78628 0
M  V30 4193 H 417.018 5.96728 3.8121 0
M  V30 4194 H 417.426 4.2272 3.74123 0
M  V30 4195 N 416.824 -0.551391 1.4764 0
M  V30 4196 C 418.052 -1.33357 1.58189 0
M  V30 4197 C 418.467 -1.87342 0.234199 0
M  V30 4198 O 417.824 -1.65301 -0.77343 0
M  V30 4199 C 417.875 -2.49942 2.61173 0
M  V30 4200 O 417.596 -1.98187 3.90709 0
M  V30 4201 C 419.097 -3.42072 2.8196 0
M  V30 4202 H 416.317 -0.40631 0.533998 0
M  V30 4203 H 418.861 -0.667367 1.93304 0
M  V30 4204 H 417.016 -3.12489 2.28975 0
M  V30 4205 H 417.43 -2.74342 4.47031 0
M  V30 4206 H 418.904 -4.20278 3.57869 0
M  V30 4207 H 419.381 -3.95978 1.89995 0
M  V30 4208 H 419.987 -2.85336 3.15378 0
M  V30 4209 N 418.302 -1.35869 -0.798587 0
M  V30 4210 C 419.265 -1.29307 -1.89242 0
M  V30 4211 C 420.265 -0.202747 -1.59517 0
M  V30 4212 O 421.455 -0.456957 -1.681 0
M  V30 4213 C 418.587 -1.00229 -3.25833 0
M  V30 4214 H 419.78 -2.26576 -1.96478 0
M  V30 4215 H 417.333 -1.20509 -0.995358 0
M  V30 4216 H 418.068 -0.033801 -3.24282 0
M  V30 4217 H 417.853 -1.79121 -3.48795 0
M  V30 4218 H 419.343 -0.98219 -4.05885 0
M  V30 4219 N 419.78 1.02168 -1.19998 0
M  V30 4220 C 420.743 2.08765 -0.94604 0
M  V30 4221 C 421.743 1.60618 0.0763846 0
M  V30 4222 O 422.933 1.73472 -0.159135 0
M  V30 4223 C 420.065 3.38262 -0.423255 0
M  V30 4224 H 421.258 2.32726 -1.89153 0
M  V30 4225 H 418.811 1.1889 -1.01464 0
M  V30 4226 H 419.546 3.19974 0.527938 0
M  V30 4227 H 419.331 3.74532 -1.16053 0
M  V30 4228 H 420.821 4.16759 -0.264911 0
M  V30 4229 N 421.258 1.00505 1.21394 0
M  V30 4230 C 422.168 0.574806 2.27449 0
M  V30 4231 C 423.184 -0.382206 1.6975 0
M  V30 4232 O 424.36 -0.246027 1.99892 0
M  V30 4233 C 421.425 -0.0917414 3.46579 0
M  V30 4234 C 420.486 0.909758 4.1955 0
M  V30 4235 C 419.719 0.274924 5.32991 0
M  V30 4236 O 419.942 -0.928254 5.62796 0
M  V30 4237 O 418.876 0.985877 5.93771 0
M  V30 4238 H 422.702 1.45744 2.66444 0
M  V30 4239 H 420.287 0.773923 1.27792 0
M  V30 4240 H 422.169 -0.464551 4.18832 0
M  V30 4241 H 420.844 -0.948755 3.09484 0
M  V30 4242 H 419.751 1.33372 3.49518 0
M  V30 4243 H 421.084 1.73636 4.60555 0
M  V30 4244 N 422.737 -1.36956 0.779787 0
M  V30 4245 C 423.67 -2.27896 0.117681 0
M  V30 4246 C 424.648 -1.46736 -0.700523 0
M  V30 4247 O 425.832 -1.76055 -0.673568 0
M  V30 4248 C 422.959 -3.28136 -0.839296 0
M  V30 4249 C 422.005 -4.26373 -0.10409 0
M  V30 4250 S 422.838 -5.2157 1.21348 0
M  V30 4251 C 423.994 -6.25359 0.260249 0
M  V30 4252 H 424.227 -2.83704 0.888778 0
M  V30 4253 H 421.76 -1.43352 0.57355 0
M  V30 4254 H 423.718 -3.86394 -1.38601 0
M  V30 4255 H 422.379 -2.7126 -1.58356 0
M  V30 4256 H 421.572 -4.97121 -0.82986 0
M  V30 4257 H 421.174 -3.72147 0.371858 0
M  V30 4258 H 423.466 -6.75145 -0.564435 0
M  V30 4259 H 424.409 -7.01885 0.936135 0
M  V30 4260 H 424.817 -5.64345 -0.132127 0
M  V30 4261 N 424.215 -0.530993 -1.48385 0
M  V30 4262 C 425.492 0.0671788 -1.95485 0
M  V30 4263 C 425.872 1.51191 -1.47324 0
M  V30 4264 O 425.22 2.17507 -0.700202 0
M  V30 4265 C 425.43 -0.0511206 -3.48963 0
M  V30 4266 C 426.778 0.107632 -4.24464 0
M  V30 4267 O 427.802 0.0226248 -3.56193 0
M  V30 4268 O 426.661 0.285972 -5.45751 0
M  V30 4269 H 423.755 0.0787365 -0.823243 0
M  V30 4270 H 426.301 -0.595662 -1.58902 0
M  V30 4271 H 425.073 -1.05747 -3.7674 0
M  V30 4272 H 424.696 0.650525 -3.92242 0
M  V30 4273 N 425.693 1.55336 -0.266172 0
M  V30 4274 C 426.643 2.18848 0.639497 0
M  V30 4275 C 427.627 1.1503 1.12503 0
M  V30 4276 O 428.819 1.40875 1.0716 0
M  V30 4277 C 425.948 2.90626 1.82733 0
M  V30 4278 C 425.034 4.01723 1.35939 0
M  V30 4279 N 425.425 5.02145 0.606988 0
M  V30 4280 C 423.723 4.1463 1.6431 0
M  V30 4281 C 424.424 5.80572 0.362138 0
M  V30 4282 N 423.4 5.35551 0.931971 0
M  V30 4283 H 427.202 2.93845 0.0567057 0
M  V30 4284 H 424.716 1.62252 -0.0693312 0
M  V30 4285 H 426.713 3.34569 2.48735 0
M  V30 4286 H 425.373 2.17137 2.41416 0
M  V30 4287 H 426.384 5.17271 0.255198 0
M  V30 4288 H 423.061 3.52326 2.23993 0
M  V30 4289 H 424.451 6.71472 -0.239848 0
M  V30 4290 N 427.171 -0.0066808 1.57599 0
M  V30 4291 C 428.42 -0.692078 1.89455 0
M  V30 4292 C 428.733 -1.75306 0.867586 0
M  V30 4293 O 429.939 -2.49262 1.07614 0
M  V30 4294 C 428.395 -1.2821 3.36289 0
M  V30 4295 C 428.003 -0.256291 4.47266 0
M  V30 4296 C 429.747 -1.94608 3.77264 0
M  V30 4297 C 427.654 -0.855927 5.85173 0
M  V30 4298 H 426.584 -0.262252 0.706923 0
M  V30 4299 H 429.235 0.052769 1.83424 0
M  V30 4300 H 427.617 -2.0774 3.37135 0
M  V30 4301 H 428.791 0.513923 4.57925 0
M  V30 4302 H 427.106 0.306862 4.15268 0
M  V30 4303 H 429.703 -2.40364 4.77629 0
M  V30 4304 H 430.046 -2.77382 3.10427 0
M  V30 4305 H 430.579 -1.21822 3.78688 0
M  V30 4306 H 427.318 -0.0671161 6.55466 0
M  V30 4307 H 426.838 -1.59546 5.78191 0
M  V30 4308 H 428.517 -1.35658 6.32618 0
M  V30 4309 N 428.649 -1.55105 -0.279332 0
M  V30 4310 C 429.895 -1.75672 -1.01327 0
M  V30 4311 C 430.228 -0.552739 -1.86168 0
M  V30 4312 O 429.503 0.449827 -1.89227 0
M  V30 4313 C 429.786 -3.05825 -1.90114 0
M  V30 4314 C 429.639 -4.36565 -1.08309 0
M  V30 4315 C 430.958 -3.31975 -2.8893 0
M  V30 4316 H 428.077 -0.639149 -0.366957 0
M  V30 4317 H 430.719 -1.87833 -0.286154 0
M  V30 4318 H 428.869 -2.95588 -2.52111 0
M  V30 4319 H 430.541 -4.58751 -0.484314 0
M  V30 4320 H 428.784 -4.32076 -0.386362 0
M  V30 4321 H 429.455 -5.23946 -1.73737 0
M  V30 4322 H 431.931 -3.41963 -2.37067 0
M  V30 4323 H 430.807 -4.2432 -3.48201 0
M  V30 4324 H 431.068 -2.51309 -3.63725 0
M  V30 4325 N 430.127 0.543554 -1.4793 0
M  V30 4326 C 431.373 1.30201 -1.55485 0
M  V30 4327 C 431.706 1.92925 -0.222201 0
M  V30 4328 O 430.981 1.78586 0.77053 0
M  V30 4329 C 431.264 2.40174 -2.68307 0
M  V30 4330 C 431.117 1.8223 -4.11233 0
M  V30 4331 C 432.436 3.42024 -2.76961 0
M  V30 4332 H 429.555 0.472036 -0.565996 0
M  V30 4333 H 432.197 0.606914 -1.80046 0
M  V30 4334 H 430.347 2.99463 -2.47495 0
M  V30 4335 H 432.019 1.27096 -4.43446 0
M  V30 4336 H 430.262 1.12832 -4.18869 0
M  V30 4337 H 430.933 2.61793 -4.85972 0
M  V30 4338 H 433.409 2.92672 -2.95774 0
M  V30 4339 H 432.285 4.16383 -3.57654 0
M  V30 4340 H 432.546 4.0173 -1.84568 0
M  V30 4341 N 431.605 1.3629 0.791371 0
M  V30 4342 C 432.852 1.30412 1.54916 0
M  V30 4343 C 433.18 -0.117162 1.94147 0
M  V30 4344 O 432.435 -1.08599 1.62803 0
M  V30 4345 C 432.734 2.17068 2.8393 0
M  V30 4346 C 432.4 3.65645 2.63846 0
M  V30 4347 C 431.062 4.0614 2.58077 0
M  V30 4348 C 433.414 4.59855 2.45322 0
M  V30 4349 C 430.742 5.3899 2.31748 0
M  V30 4350 C 433.094 5.9292 2.2052 0
M  V30 4351 C 431.758 6.32542 2.13183 0
M  V30 4352 H 431.028 0.47721 0.566879 0
M  V30 4353 H 433.675 1.68325 0.913172 0
M  V30 4354 H 431.98 1.72085 3.51986 0
M  V30 4355 H 433.677 2.09846 3.4171 0
M  V30 4356 H 430.267 3.33518 2.69191 0
M  V30 4357 H 434.451 4.29443 2.48782 0
M  V30 4358 H 429.707 5.68672 2.24548 0
M  V30 4359 H 433.881 6.65487 2.05182 0
M  V30 4360 H 431.508 7.35412 1.92544 0
M  V30 4361 N 433.083 -1.0153 1.20538 0
M  V30 4362 C 434.031 -2.12215 0.952235 0
M  V30 4363 C 435.025 -1.69123 -0.0968735 0
M  V30 4364 O 436.231 -1.7992 0.0536006 0
M  V30 4365 H 432.606 -0.693576 0.290613 0
M  V30 4366 H 434.577 -2.3075 1.89201 0
M  V30 4367 C 433.326 -3.43755 0.522287 0
M  V30 4368 H 432.649 -3.7734 1.32115 0
M  V30 4369 H 434.089 -4.22254 0.384389 0
M  V30 4370 C 432.548 -3.28088 -0.765489 0
M  V30 4371 O 433.078 -3.57921 -1.8236 0
M  V30 4372 N 431.284 -2.81333 -0.728011 0
M  V30 4373 H 430.831 -2.57255 0.133332 0
M  V30 4374 H 430.789 -2.71232 -1.58999 0
M  V30 4375 N 434.561 -1.01147 -1.20859 0
M  V30 4376 C 435.81 -0.693214 -1.89413 0
M  V30 4377 C 436.123 0.779969 -1.79376 0
M  V30 4378 O 437.329 1.21057 -2.43017 0
M  V30 4379 C 435.785 -1.18949 -3.39675 0
M  V30 4380 C 435.393 -2.68921 -3.58309 0
M  V30 4381 C 437.137 -0.94642 -4.13815 0
M  V30 4382 C 435.044 -3.12056 -5.0237 0
M  V30 4383 H 433.974 -0.255595 -0.709357 0
M  V30 4384 H 436.625 -1.22349 -1.36759 0
M  V30 4385 H 435.007 -0.587228 -3.91622 0
M  V30 4386 H 436.181 -3.34652 -3.16772 0
M  V30 4387 H 434.496 -2.91314 -2.97532 0
M  V30 4388 H 437.093 -1.24417 -5.20023 0
M  V30 4389 H 437.436 0.117219 -4.16135 0
M  V30 4390 H 437.969 -1.5118 -3.67953 0
M  V30 4391 H 434.708 -4.17674 -5.05202 0
M  V30 4392 H 434.228 -2.51041 -5.44737 0
M  V30 4393 H 435.907 -3.04403 -5.70918 0
M  V30 4394 N 436.039 1.36541 -0.78704 0
M  V30 4395 C 437.002 2.28413 -0.189778 0
M  V30 4396 C 438.002 1.48719 0.611499 0
M  V30 4397 O 439.192 1.68737 0.432842 0
M  V30 4398 C 436.324 3.32824 0.737638 0
M  V30 4399 H 437.517 2.82743 -0.999831 0
M  V30 4400 H 435.07 1.46065 -0.556298 0
M  V30 4401 H 435.805 2.83646 1.57212 0
M  V30 4402 H 435.59 3.91752 0.165044 0
M  V30 4403 H 437.08 4.0144 1.15047 0
M  V30 4404 N 437.518 0.538854 1.48102 0
M  V30 4405 C 438.428 -0.222648 2.33541 0
M  V30 4406 C 439.444 -0.930225 1.47047 0
M  V30 4407 O 440.62 -0.903211 1.80011 0
M  V30 4408 C 437.685 -1.25064 3.23357 0
M  V30 4409 C 436.746 -0.552469 4.2573 0
M  V30 4410 C 435.979 -1.53149 5.11254 0
M  V30 4411 O 436.202 -2.76487 4.9891 0
M  V30 4412 O 435.136 -1.06602 5.92385 0
M  V30 4413 H 438.962 0.477707 2.99919 0
M  V30 4414 H 436.547 0.299669 1.46364 0
M  V30 4415 H 438.429 -1.8445 3.78888 0
M  V30 4416 H 437.104 -1.93325 2.59629 0
M  V30 4417 H 436.011 0.082114 3.7401 0
M  V30 4418 H 437.344 0.0883526 4.92121 0
M  V30 4419 N 438.996 -1.55193 0.274407 0
M  V30 4420 C 440.245 -1.98758 -0.343213 0
M  V30 4421 C 440.558 -1.16624 -1.5703 0
M  V30 4422 O 441.764 -1.5033 -2.26082 0
M  V30 4423 C 440.22 -3.53759 -0.661996 0
M  V30 4424 C 439.828 -4.4467 0.54524 0
M  V30 4425 C 441.572 -4.05916 -1.24228 0
M  V30 4426 C 439.479 -5.91058 0.201084 0
M  V30 4427 H 438.409 -0.742353 -0.132014 0
M  V30 4428 H 441.06 -1.79545 0.378948 0
M  V30 4429 H 439.442 -3.68772 -1.44304 0
M  V30 4430 H 440.616 -4.41426 1.32212 0
M  V30 4431 H 438.931 -4.03143 1.04232 0
M  V30 4432 H 441.528 -5.12831 -1.51357 0
M  V30 4433 H 441.871 -3.54908 -2.17592 0
M  V30 4434 H 442.404 -3.9434 -0.523542 0
M  V30 4435 H 439.143 -6.46161 1.10258 0
M  V30 4436 H 438.663 -5.97373 -0.539045 0
M  V30 4437 H 440.342 -6.46669 -0.206954 0
M  V30 4438 N 440.474 -0.00167713 -1.576 0
M  V30 4439 C 441.384 1.00548 -2.1196 0
M  V30 4440 C 442.4 1.3758 -1.06526 0
M  V30 4441 O 443.576 1.46278 -1.38436 0
M  V30 4442 C 440.641 2.27809 -2.6135 0
M  V30 4443 C 439.702 1.97074 -3.81393 0
M  V30 4444 C 438.935 3.18267 -4.28417 0
M  V30 4445 O 439.158 4.30009 -3.74765 0
M  V30 4446 O 438.092 3.02167 -5.20556 0
M  V30 4447 H 441.918 0.573373 -2.98238 0
M  V30 4448 H 439.503 0.217255 -1.47812 0
M  V30 4449 H 441.385 3.02568 -2.93309 0
M  V30 4450 H 440.06 2.70254 -1.78169 0
M  V30 4451 H 438.967 1.19785 -3.54404 0
M  V30 4452 H 440.3 1.59464 -4.65652 0
M  V30 4453 N 441.952 1.55251 0.271103 0
M  V30 4454 C 442.899 1.88261 1.33516 0
M  V30 4455 C 443.869 0.734296 1.48988 0
M  V30 4456 O 445.054 0.985741 1.63364 0
M  V30 4457 C 442.194 2.16168 2.69008 0
M  V30 4458 C 441.307 3.43678 2.61743 0
M  V30 4459 C 440.442 3.61276 3.89427 0
M  V30 4460 C 439.481 4.82472 3.7668 0
M  V30 4461 N 438.618 4.96717 4.96202 0
M  V30 4462 H 443.458 2.79015 1.04665 0
M  V30 4463 H 440.995 1.38137 0.505618 0
M  V30 4464 H 442.953 2.30349 3.47844 0
M  V30 4465 H 441.583 1.28646 2.96057 0
M  V30 4466 H 440.635 3.37959 1.74607 0
M  V30 4467 H 441.947 4.3265 2.48224 0
M  V30 4468 H 441.101 3.75284 4.76704 0
M  V30 4469 H 439.84 2.70492 4.05814 0
M  V30 4470 H 438.845 4.68465 2.87786 0
M  V30 4471 H 440.07 5.74692 3.61809 0
M  V30 4472 H 438.016 4.08865 5.12997 0
M  V30 4473 H 437.933 5.79738 4.85222 0
M  V30 4474 H 439.201 5.15113 5.85046 0
M  V30 4475 N 443.43 -0.535701 1.48216 0
M  V30 4476 C 444.393 -1.623 1.61838 0
M  V30 4477 C 445.393 -1.53087 0.492024 0
M  V30 4478 O 446.583 -1.5686 0.757668 0
M  V30 4479 C 443.715 -3.01907 1.58319 0
M  V30 4480 H 444.908 -1.51564 2.58783 0
M  V30 4481 H 442.461 -0.757317 1.36727 0
M  V30 4482 H 443.196 -3.18155 0.628299 0
M  V30 4483 H 442.981 -3.10003 2.40085 0
M  V30 4484 H 444.471 -3.80969 1.71033 0
M  V30 4485 N 444.908 -1.36708 -0.784132 0
M  V30 4486 C 446.157 -1.30559 -1.53744 0
M  V30 4487 C 446.47 0.111374 -1.95283 0
M  V30 4488 O 447.676 0.29527 -2.6989 0
M  V30 4489 C 446.132 -2.29098 -2.77565 0
M  V30 4490 C 445.74 -3.76258 -2.43174 0
M  V30 4491 C 447.484 -2.31936 -3.55536 0
M  V30 4492 C 445.391 -4.6656 -3.63422 0
M  V30 4493 H 444.321 -0.48518 -0.577162 0
M  V30 4494 H 446.972 -1.62101 -0.859981 0
M  V30 4495 H 445.354 -1.90557 -3.47137 0
M  V30 4496 H 446.528 -4.23565 -1.81465 0
M  V30 4497 H 444.843 -3.76246 -1.78403 0
M  V30 4498 H 447.44 -2.9661 -4.44889 0
M  V30 4499 H 447.783 -1.3294 -3.94503 0
M  V30 4500 H 448.316 -2.6912 -2.92949 0
M  V30 4501 H 445.055 -5.66638 -3.29547 0
M  V30 4502 H 444.575 -4.23966 -4.24279 0
M  V30 4503 H 446.254 -4.8309 -4.30387 0
M  V30 4504 N 446.386 1.0089 -1.21074 0
M  V30 4505 C 447.349 2.0775 -0.968129 0
M  V30 4506 C 448.349 1.6069 0.0593445 0
M  V30 4507 O 449.539 1.73293 -0.177525 0
M  V30 4508 C 446.671 3.37794 -0.459108 0
M  V30 4509 H 447.864 2.30707 -1.9161 0
M  V30 4510 H 445.417 1.17807 -1.02719 0
M  V30 4511 H 446.152 3.20516 0.49397 0
M  V30 4512 H 445.937 3.7328 -1.20019 0
M  V30 4513 H 447.427 4.16454 -0.309099 0
M  V30 4514 N 447.864 1.01787 1.20321 0
M  V30 4515 C 448.827 0.593972 2.2137 0
M  V30 4516 C 449.827 -0.336553 1.57239 0
M  V30 4517 O 451.017 -0.125069 1.7375 0
M  V30 4518 C 448.149 -0.132433 3.40643 0
M  V30 4519 H 449.342 1.48791 2.60387 0
M  V30 4520 H 446.895 0.807803 1.33807 0
M  V30 4521 H 447.63 -1.04123 3.0713 0
M  V30 4522 H 447.415 0.53605 3.88418 0
M  V30 4523 H 448.905 -0.416314 4.1552 0
M  V30 4524 N 449.342 -1.36122 0.79427 0
M  V30 4525 C 450.59 -1.98718 0.368177 0
M  V30 4526 C 450.911 -1.63345 -1.06506 0
M  V30 4527 O 450.181 -0.909825 -1.73491 0
M  V30 4528 H 448.761 -0.735038 0.133146 0
M  V30 4529 H 451.423 -1.66239 1.01739 0
M  V30 4530 H 450.519 -3.08633 0.463923 0
M  V30 4531 N 450.82 -0.546701 -1.47814 0
M  V30 4532 C 452.097 0.0464413 -1.95545 0
M  V30 4533 C 452.477 1.4962 -1.48919 0
M  V30 4534 O 451.825 2.16752 -0.723232 0
M  V30 4535 C 452.035 -0.0881298 -3.48889 0
M  V30 4536 C 453.383 0.0626059 -4.24554 0
M  V30 4537 O 454.407 -0.0151555 -3.56197 0
M  V30 4538 O 453.266 0.228071 -5.46024 0
M  V30 4539 H 450.36 0.0700004 -0.824032 0
M  V30 4540 H 452.906 -0.612482 -1.58262 0
M  V30 4541 H 451.678 -1.09737 -3.75597 0
M  V30 4542 H 451.301 0.608886 -3.9291 0
M  V30 4543 N 452.299 1.55045 -0.282633 0
M  V30 4544 C 453.529 2.03872 0.334635 0
M  V30 4545 C 453.937 1.16018 1.49454 0
M  V30 4546 O 453.28 0.174449 1.8287 0
M  V30 4547 C 453.342 3.48791 0.870905 0
M  V30 4548 C 453.006 4.56715 -0.161338 0
M  V30 4549 C 454.003 5.10513 -0.983466 0
M  V30 4550 C 451.688 5.01417 -0.297745 0
M  V30 4551 C 453.682 6.07538 -1.92811 0
M  V30 4552 C 451.369 5.98265 -1.24586 0
M  V30 4553 C 452.367 6.51208 -2.05954 0
M  V30 4554 O 452.055 7.46162 -2.99162 0
M  V30 4555 H 451.787 0.671324 0.0793742 0
M  V30 4556 H 454.341 2.01169 -0.41473 0
M  V30 4557 H 452.571 3.48758 1.67047 0
M  V30 4558 H 454.26 3.80916 1.40207 0
M  V30 4559 H 455.026 4.76785 -0.888856 0
M  V30 4560 H 450.905 4.59849 0.325604 0
M  V30 4561 H 454.449 6.48787 -2.56363 0
M  V30 4562 H 450.346 6.31412 -1.34126 0
M  V30 4563 H 451.114 7.63903 -2.93929 0
M  V30 4564 N 453.777 0.010035 1.57597 0
M  V30 4565 C 454.709 -1.00649 2.05918 0
M  V30 4566 C 455.722 -1.30077 0.978964 0
M  V30 4567 O 456.911 -1.26878 1.25556 0
M  V30 4568 C 454.011 -2.33876 2.45265 0
M  V30 4569 C 453.184 -2.23242 3.7614 0
M  V30 4570 C 452.243 -3.39242 4.02245 0
M  V30 4571 O 451.269 -3.1698 4.72771 0
M  V30 4572 N 452.471 -4.6242 3.50924 0
M  V30 4573 H 455.236 -0.594333 2.93748 0
M  V30 4574 H 452.797 -0.17714 1.60928 0
M  V30 4575 H 454.789 -3.1027 2.59836 0
M  V30 4576 H 453.359 -2.66799 1.62902 0
M  V30 4577 H 452.579 -1.31696 3.71551 0
M  V30 4578 H 453.867 -2.13321 4.61922 0
M  V30 4579 H 453.265 -4.83404 2.93832 0
M  V30 4580 H 451.822 -5.36046 3.70807 0
M  V30 4581 N 455.255 -1.55392 -0.262866 0
M  V30 4582 C 456.165 -1.92077 -1.34698 0
M  V30 4583 C 457.181 -0.819227 -1.53508 0
M  V30 4584 O 458.357 -1.11921 -1.67439 0
M  V30 4585 C 455.422 -2.19407 -2.68443 0
M  V30 4586 C 454.483 -3.42905 -2.58292 0
M  V30 4587 C 453.716 -3.68921 -3.85659 0
M  V30 4588 O 453.939 -2.97275 -4.8681 0
M  V30 4589 O 452.873 -4.62455 -3.85252 0
M  V30 4590 H 456.699 -2.84384 -1.06581 0
M  V30 4591 H 454.284 -1.42069 -0.462264 0
M  V30 4592 H 456.166 -2.38365 -3.47506 0
M  V30 4593 H 454.841 -1.30282 -2.96325 0
M  V30 4594 H 453.748 -3.29272 -1.7757 0
M  V30 4595 H 455.081 -4.32282 -2.35358 0
M  V30 4596 N 456.733 0.527833 -1.48498 0
M  V30 4597 C 457.663 1.64136 -1.66077 0
M  V30 4598 C 458.644 1.62286 -0.509625 0
M  V30 4599 O 459.829 1.79449 -0.742413 0
M  V30 4600 C 456.959 3.02717 -1.70234 0
M  V30 4601 C 455.913 3.19426 -2.8487 0
M  V30 4602 C 455.239 4.5909 -2.74118 0
M  V30 4603 C 456.539 3.01993 -4.26142 0
M  V30 4604 H 458.233 1.4968 -2.593 0
M  V30 4605 H 455.779 0.718654 -1.24785 0
M  V30 4606 H 457.732 3.80491 -1.8112 0
M  V30 4607 H 456.456 3.18201 -0.735911 0
M  V30 4608 H 455.115 2.4407 -2.73542 0
M  V30 4609 H 454.763 4.71413 -1.7544 0
M  V30 4610 H 454.463 4.71214 -3.51042 0
M  V30 4611 H 455.987 5.3896 -2.86974 0
M  V30 4612 H 457.401 3.69558 -4.38292 0
M  V30 4613 H 455.798 3.2561 -5.04082 0
M  V30 4614 H 456.868 1.98396 -4.42456 0
M  V30 4615 N 458.211 1.37122 0.776871 0
M  V30 4616 C 459.159 1.32549 1.91138 0
M  V30 4617 C 460.153 0.215119 1.68029 0
M  V30 4618 O 461.359 0.382852 1.75881 0
M  V30 4619 H 457.734 0.412952 0.62847 0
M  V30 4620 H 459.705 2.28332 1.92112 0
M  V30 4621 C 458.454 1.14422 3.28333 0
M  V30 4622 H 457.777 1.99115 3.46689 0
M  V30 4623 H 459.217 1.15272 4.0803 0
M  V30 4624 C 457.676 -0.150434 3.36564 0
M  V30 4625 O 458.206 -1.13584 3.85307 0
M  V30 4626 N 456.412 -0.19939 2.89915 0
M  V30 4627 H 455.959 0.603142 2.5044 0
M  V30 4628 H 455.917 -1.06526 2.95803 0
M  V30 4629 N 459.689 -1.00246 1.21608 0
M  V30 4630 C 460.937 -1.73717 1.0328 0
M  V30 4631 C 461.258 -1.90102 -0.434318 0
M  V30 4632 O 460.528 -1.45376 -1.31311 0
M  V30 4633 H 459.108 -0.643613 0.379172 0
M  V30 4634 H 461.77 -1.20787 1.52959 0
M  V30 4635 H 460.866 -2.73535 1.50283 0
M  V30 4636 N 461.167 -1.02423 -1.1978 0
M  V30 4637 C 462.413 -0.719051 -1.89625 0
M  V30 4638 C 462.746 0.750083 -1.7913 0
M  V30 4639 O 462.021 1.54574 -1.18056 0
M  V30 4640 C 462.304 -1.16499 -3.40735 0
M  V30 4641 C 462.157 -2.695 -3.60125 0
M  V30 4642 C 463.476 -0.742166 -4.33797 0
M  V30 4643 H 460.595 -0.26269 -0.688595 0
M  V30 4644 H 463.237 -1.27333 -1.41018 0
M  V30 4645 H 461.387 -0.69341 -3.82262 0
M  V30 4646 H 463.059 -3.24569 -3.278 0
M  V30 4647 H 461.302 -3.10113 -3.03336 0
M  V30 4648 H 461.973 -2.95757 -4.66081 0
M  V30 4649 H 464.449 -1.1477 -3.99959 0
M  V30 4650 H 463.325 -1.08213 -5.38127 0
M  V30 4651 H 463.586 0.355747 -4.40666 0
M  V30 4652 N 462.645 1.35699 -0.801477 0
M  V30 4653 C 463.592 2.29876 -0.206294 0
M  V30 4654 C 464.562 1.52565 0.656752 0
M  V30 4655 O 465.747 1.81024 0.602906 0
M  V30 4656 C 462.887 3.39052 0.643272 0
M  V30 4657 C 462 4.31335 -0.239644 0
M  V30 4658 C 461.135 5.27599 0.61744 0
M  V30 4659 C 460.174 6.11521 -0.26619 0
M  V30 4660 N 459.311 6.99938 0.550571 0
M  V30 4661 H 464.151 2.80187 -1.01484 0
M  V30 4662 H 461.688 1.37902 -0.511997 0
M  V30 4663 H 463.646 4.0101 1.15094 0
M  V30 4664 H 462.276 2.9003 1.41713 0
M  V30 4665 H 461.328 3.70426 -0.865381 0
M  V30 4666 H 462.64 4.90243 -0.919985 0
M  V30 4667 H 461.794 5.94906 1.19045 0
M  V30 4668 H 460.533 4.69176 1.33137 0
M  V30 4669 H 459.538 5.43166 -0.851507 0
M  V30 4670 H 460.763 6.72022 -0.9779 0
M  V30 4671 H 458.709 6.44008 1.24856 0
M  V30 4672 H 458.626 7.55966 -0.071832 0
M  V30 4673 H 459.894 7.71599 1.10702 0
M  V30 4674 N 464.123 0.554532 1.47522 0
M  V30 4675 C 465.369 0.0295227 2.02779 0
M  V30 4676 C 465.702 -1.31582 1.42828 0
M  V30 4677 O 464.977 -1.85561 0.582872 0
M  V30 4678 C 465.26 -0.0664057 3.60039 0
M  V30 4679 C 465.113 1.30585 4.30427 0
M  V30 4680 C 466.432 -0.781162 4.33112 0
M  V30 4681 H 463.551 0.0122027 0.736899 0
M  V30 4682 H 466.193 0.716305 1.7598 0
M  V30 4683 H 464.343 -0.651307 3.83002 0
M  V30 4684 H 466.015 1.93374 4.18813 0
M  V30 4685 H 464.258 1.88125 3.90886 0
M  V30 4686 H 464.929 1.19147 5.38988 0
M  V30 4687 H 467.405 -0.284565 4.15126 0
M  V30 4688 H 466.281 -0.817237 5.42782 0
M  V30 4689 H 466.542 -1.83672 4.0214 0
M  V30 4690 N 465.601 -1.54893 0.290851 0
M  V30 4691 C 466.847 -2.0023 -0.321867 0
M  V30 4692 C 467.18 -1.179 -1.54316 0
M  V30 4693 O 466.455 -0.25293 -1.92848 0
M  V30 4694 C 466.738 -3.53456 -0.688515 0
M  V30 4695 C 466.591 -4.46532 0.541209 0
M  V30 4696 C 467.91 -4.13057 -1.51895 0
M  V30 4697 H 465.029 -0.727891 -0.115515 0
M  V30 4698 H 467.671 -1.85722 0.400931 0
M  V30 4699 H 465.821 -3.6595 -1.30433 0
M  V30 4700 H 467.493 -4.4596 1.17973 0
M  V30 4701 H 465.736 -4.17545 1.17636 0
M  V30 4702 H 466.407 -5.51475 0.240675 0
M  V30 4703 H 468.883 -4.03937 -0.99872 0
M  V30 4704 H 467.759 -5.20448 -1.74429 0
M  V30 4705 H 468.02 -3.64284 -2.50498 0
M  V30 4706 N 467.08 -0.0183926 -1.57589 0
M  V30 4707 C 468.357 0.700621 -1.82622 0
M  V30 4708 C 468.737 1.90951 -0.90005 0
M  V30 4709 O 468.085 2.28452 0.0469145 0
M  V30 4710 C 468.295 1.08899 -3.31575 0
M  V30 4711 C 469.643 1.48514 -3.9778 0
M  V30 4712 O 470.667 1.18227 -3.36007 0
M  V30 4713 O 469.526 2.04903 -5.06633 0
M  V30 4714 H 466.62 0.342743 -0.752633 0
M  V30 4715 H 469.166 -0.0452548 -1.6964 0
M  V30 4716 H 467.938 0.228113 -3.90635 0
M  V30 4717 H 467.561 1.89338 -3.49624 0
M  V30 4718 N 468.558 1.5553 0.254621 0
M  V30 4719 C 469.806 1.7665 0.981793 0
M  V30 4720 C 470.127 0.580963 1.86145 0
M  V30 4721 O 469.397 -0.403537 1.91699 0
M  V30 4722 H 467.977 0.651475 0.365498 0
M  V30 4723 H 470.639 1.92958 0.274426 0
M  V30 4724 H 469.735 2.67486 1.60802 0
M  V30 4725 N 470.036 -0.519951 1.48776 0
M  V30 4726 C 471.452 -0.849418 1.35119 0
M  V30 4727 C 471.652 -1.98077 0.36982 0
M  V30 4728 O 470.708 -2.51664 -0.205359 0
M  V30 4729 C 472.021 -1.20748 2.75391 0
M  V30 4730 C 473.569 -1.31679 2.83954 0
M  V30 4731 C 474.044 -1.70824 4.24951 0
M  V30 4732 N 475.535 -1.77908 4.27672 0
M  V30 4733 C 476.27 -2.09603 5.33717 0
M  V30 4734 N 475.766 -2.39652 6.5003 0
M  V30 4735 N 477.559 -2.10694 5.21119 0
M  V30 4736 H 469.71 0.226377 2.1119 0
M  V30 4737 H 471.973 0.0386519 0.947212 0
M  V30 4738 H 471.679 -0.449703 3.48813 0
M  V30 4739 H 471.553 -2.15534 3.09556 0
M  V30 4740 H 473.94 -2.06532 2.10781 0
M  V30 4741 H 474.021 -0.3499 2.53396 0
M  V30 4742 H 473.665 -0.965282 4.98643 0
M  V30 4743 H 473.595 -2.6858 4.52959 0
M  V30 4744 H 476.086 -1.56923 3.43779 0
M  V30 4745 H 476.399 -2.6297 7.26682 0
M  V30 4746 H 474.744 -2.37149 6.53288 0
M  V30 4747 H 477.935 -1.86682 4.29264 0
M  V30 4748 H 478.108 -2.35062 6.03863 0
M  V30 4749 N 471.514 -1.37532 -0.769588 0
M  V30 4750 C 472.461 -1.3347 -1.88293 0
M  V30 4751 C 473.431 -0.199891 -1.64893 0
M  V30 4752 O 474.616 -0.389594 -1.8678 0
M  V30 4753 C 471.756 -1.14968 -3.25387 0
M  V30 4754 C 470.869 -2.37698 -3.60727 0
M  V30 4755 C 470.004 -2.12051 -4.8704 0
M  V30 4756 C 469.043 -3.30636 -5.15117 0
M  V30 4757 N 468.18 -3.04527 -6.3262 0
M  V30 4758 H 473.02 -2.28658 -1.911 0
M  V30 4759 H 470.557 -1.13622 -0.934257 0
M  V30 4760 H 472.515 -1.02261 -4.04473 0
M  V30 4761 H 471.145 -0.234263 -3.21949 0
M  V30 4762 H 470.197 -2.61137 -2.76608 0
M  V30 4763 H 471.509 -3.26131 -3.77413 0
M  V30 4764 H 470.663 -1.96388 -5.74035 0
M  V30 4765 H 469.402 -1.20959 -4.72462 0
M  V30 4766 H 468.407 -3.46836 -4.26597 0
M  V30 4767 H 469.632 -4.22582 -5.31603 0
M  V30 4768 H 467.578 -2.16067 -6.19396 0
M  V30 4769 H 467.495 -3.86503 -6.49732 0
M  V30 4770 H 468.763 -2.92485 -7.22546 0
M  V30 4771 N 472.992 0.995999 -1.22138 0
M  V30 4772 C 473.902 2.11985 -1.00496 0
M  V30 4773 C 474.918 1.7394 0.0457701 0
M  V30 4774 O 476.094 2.00868 -0.146273 0
M  V30 4775 C 473.159 3.41779 -0.582086 0
M  V30 4776 C 472.22 3.93943 -1.70608 0
M  V30 4777 C 471.453 5.17542 -1.30328 0
M  V30 4778 O 471.676 5.70114 -0.180743 0
M  V30 4779 O 470.61 5.63382 -2.11861 0
M  V30 4780 H 474.436 2.33123 -1.94647 0
M  V30 4781 H 472.021 1.10358 -1.00705 0
M  V30 4782 H 473.903 4.1989 -0.356467 0
M  V30 4783 H 472.578 3.22007 0.330592 0
M  V30 4784 H 471.485 3.17019 -1.98619 0
M  V30 4785 H 472.818 4.18141 -2.59651 0
M  V30 4786 N 474.47 1.03057 1.19235 0
M  V30 4787 C 475.433 0.617418 2.20727 0
M  V30 4788 C 476.433 -0.319856 1.57587 0
M  V30 4789 O 477.623 -0.106633 1.73873 0
M  V30 4790 C 474.755 -0.096296 3.40764 0
M  V30 4791 H 475.948 1.51544 2.58794 0
M  V30 4792 H 473.501 0.821949 1.32942 0
M  V30 4793 H 474.236 -1.00859 3.08217 0
M  V30 4794 H 474.021 0.577217 3.87828 0
M  V30 4795 H 475.511 -0.372219 4.15938 0
M  V30 4796 N 475.948 -1.35272 0.808662 0
M  V30 4797 C 477.173 -2.03477 0.401475 0
M  V30 4798 C 477.598 -1.60537 -0.980279 0
M  V30 4799 O 476.956 -0.78304 -1.63518 0
M  V30 4800 C 477.004 -3.57181 0.495354 0
M  V30 4801 O 476.108 -4.09474 -0.490397 0
M  V30 4802 H 475.449 -0.642561 0.167366 0
M  V30 4803 H 477.979 -1.72824 1.09512 0
M  V30 4804 H 477.989 -4.06356 0.365912 0
M  V30 4805 H 476.664 -3.87784 1.5032 0
M  V30 4806 H 475.241 -3.71516 -0.321023 0
M  V30 4807 N 477.426 -0.562348 -1.47226 0
M  V30 4808 C 478.651 -0.0432632 -2.07355 0
M  V30 4809 C 479.076 1.24332 -1.41149 0
M  V30 4810 O 478.434 1.74603 -0.488226 0
M  V30 4811 C 478.482 0.130288 -3.60365 0
M  V30 4812 O 477.586 1.19166 -3.94808 0
M  V30 4813 H 476.927 -0.0536334 -0.66183 0
M  V30 4814 H 479.457 -0.779495 -1.89169 0
M  V30 4815 H 479.467 0.342881 -4.06557 0
M  V30 4816 H 478.142 -0.809389 -4.07948 0
M  V30 4817 H 476.719 0.959153 -3.60354 0
M  V30 4818 N 478.904 1.54736 -0.299062 0
M  V30 4819 C 479.834 2.26409 0.571085 0
M  V30 4820 C 480.815 1.2629 1.13951 0
M  V30 4821 O 482 1.55059 1.16921 0
M  V30 4822 C 479.13 3.00338 1.74396 0
M  V30 4823 C 478.084 4.07588 1.30599 0
M  V30 4824 C 477.41 4.69222 2.56387 0
M  V30 4825 C 478.71 5.20455 0.438645 0
M  V30 4826 H 480.404 2.99388 -0.0266991 0
M  V30 4827 H 477.95 1.43993 -0.0142812 0
M  V30 4828 H 479.903 3.49198 2.35878 0
M  V30 4829 H 478.627 2.24934 2.36796 0
M  V30 4830 H 477.286 3.59575 0.71424 0
M  V30 4831 H 476.934 3.9046 3.17097 0
M  V30 4832 H 476.634 5.41653 2.27784 0
M  V30 4833 H 478.158 5.20844 3.18675 0
M  V30 4834 H 479.572 5.65221 0.959085 0
M  V30 4835 H 477.969 5.99594 0.246466 0
M  V30 4836 H 479.039 4.8192 -0.536738 0
M  V30 4837 N 480.382 0.0267497 1.57577 0
M  V30 4838 C 481.629 -0.652404 1.91703 0
M  V30 4839 C 481.957 -1.72271 0.902936 0
M  V30 4840 O 481.212 -1.955 -0.0884843 0
M  V30 4841 C 481.511 -1.30914 3.3256 0
M  V30 4842 C 481.177 -0.369441 4.49384 0
M  V30 4843 C 479.839 -0.110791 4.81072 0
M  V30 4844 C 482.191 0.275971 5.20469 0
M  V30 4845 C 479.519 0.801116 5.81205 0
M  V30 4846 C 481.871 1.17592 6.21575 0
M  V30 4847 C 480.535 1.44348 6.51705 0
M  V30 4848 H 479.805 -0.238732 0.70149 0
M  V30 4849 H 482.452 0.0880091 1.91298 0
M  V30 4850 H 480.757 -2.12425 3.29216 0
M  V30 4851 H 482.454 -1.84115 3.56234 0
M  V30 4852 H 479.044 -0.581211 4.24641 0
M  V30 4853 H 483.228 0.0892 4.9622 0
M  V30 4854 H 478.484 1.01614 6.02897 0
M  V30 4855 H 482.658 1.68223 6.75777 0
M  V30 4856 H 480.285 2.15176 7.29111 0
M  V30 4857 N 481.861 -1.55662 -0.24637 0
M  V30 4858 C 483.089 -1.81575 -0.991876 0
M  V30 4859 C 483.504 -0.602545 -1.78927 0
M  V30 4860 O 482.861 0.428795 -1.77391 0
M  V30 4861 C 482.912 -3.05711 -1.92933 0
M  V30 4862 O 482.633 -4.22348 -1.1642 0
M  V30 4863 C 484.134 -3.44428 -2.79078 0
M  V30 4864 H 481.354 -0.604209 -0.291844 0
M  V30 4865 H 483.898 -2.02722 -0.269095 0
M  V30 4866 H 482.053 -2.86612 -2.60638 0
M  V30 4867 H 482.467 -4.92706 -1.79835 0
M  V30 4868 H 483.941 -4.34388 -3.40603 0
M  V30 4869 H 484.418 -2.65037 -3.50217 0
M  V30 4870 H 485.024 -3.65879 -2.16824 0
M  V30 4871 N 483.339 0.512053 -1.4905 0
M  V30 4872 C 484.755 0.84224 -1.35567 0
M  V30 4873 C 484.955 1.97878 -0.380319 0
M  V30 4874 O 484.011 2.51769 0.19201 0
M  V30 4875 C 485.324 1.19286 -2.76028 0
M  V30 4876 C 486.872 1.30171 -2.84648 0
M  V30 4877 C 487.347 1.68568 -4.25851 0
M  V30 4878 N 488.838 1.75638 -4.28609 0
M  V30 4879 C 489.573 2.06769 -5.34821 0
M  V30 4880 N 489.069 2.36201 -6.51292 0
M  V30 4881 N 490.862 2.07927 -5.22229 0
M  V30 4882 H 483.013 -0.237574 -2.11067 0
M  V30 4883 H 485.276 -0.0436747 -0.946993 0
M  V30 4884 H 484.982 0.431199 -3.49047 0
M  V30 4885 H 484.856 2.13889 -3.10695 0
M  V30 4886 H 487.243 2.05411 -2.11873 0
M  V30 4887 H 487.324 0.336457 -2.53578 0
M  V30 4888 H 486.968 0.938824 -4.99148 0
M  V30 4889 H 486.898 2.66174 -4.54377 0
M  V30 4890 H 489.389 1.55097 -3.44606 0
M  V30 4891 H 489.702 2.59112 -7.28066 0
M  V30 4892 H 488.047 2.33681 -6.54536 0
M  V30 4893 H 491.238 1.84403 -4.30248 0
M  V30 4894 H 491.411 2.31856 -6.05101 0
M  V30 4895 N 484.817 1.37938 0.762283 0
M  V30 4896 C 486.047 1.36685 1.54922 0
M  V30 4897 C 486.455 -0.0474099 1.89141 0
M  V30 4898 O 485.798 -1.02213 1.52638 0
M  V30 4899 C 485.86 2.14963 2.88152 0
M  V30 4900 C 485.524 3.6385 2.76518 0
M  V30 4901 C 486.521 4.57531 2.46904 0
M  V30 4902 C 484.206 4.07095 2.94243 0
M  V30 4903 C 486.2 5.92436 2.35156 0
M  V30 4904 C 483.887 5.42083 2.82116 0
M  V30 4905 C 484.885 6.34567 2.52614 0
M  V30 4906 O 484.573 7.67073 2.40529 0
M  V30 4907 H 484.305 0.469586 0.486276 0
M  V30 4908 H 486.859 1.82012 0.951876 0
M  V30 4909 H 485.089 1.6434 3.50042 0
M  V30 4910 H 486.778 2.06224 3.49609 0
M  V30 4911 H 487.544 4.25428 2.32886 0
M  V30 4912 H 483.423 3.35462 3.16206 0
M  V30 4913 H 486.967 6.64591 2.12049 0
M  V30 4914 H 482.864 5.73785 2.95704 0
M  V30 4915 H 483.632 7.77499 2.55807 0
M  V30 4916 N 486.295 -0.989507 1.22664 0
M  V30 4917 C 487.544 -1.72375 1.04737 0
M  V30 4918 C 487.857 -1.91096 -0.417316 0
M  V30 4919 O 489.063 -2.6188 -0.716334 0
M  V30 4920 C 487.519 -3.10161 1.82561 0
M  V30 4921 C 487.127 -2.99358 3.333 0
M  V30 4922 C 488.871 -3.87607 1.73093 0
M  V30 4923 C 486.778 -4.32319 4.03552 0
M  V30 4924 H 485.708 -0.646326 0.388302 0
M  V30 4925 H 488.359 -1.10437 1.46546 0
M  V30 4926 H 486.741 -3.728 1.33552 0
M  V30 4927 H 487.915 -2.45863 3.89728 0
M  V30 4928 H 486.23 -2.35392 3.43481 0
M  V30 4929 H 488.827 -4.86025 2.22899 0
M  V30 4930 H 489.17 -4.10509 0.691976 0
M  V30 4931 H 489.703 -3.31652 2.19663 0
M  V30 4932 H 486.442 -4.14616 5.07714 0
M  V30 4933 H 485.962 -4.85714 3.51911 0
M  V30 4934 H 487.641 -5.01051 4.09337 0
M  V30 4935 N 487.773 -1.03688 -1.18687 0
M  V30 4936 C 489.184 -0.766488 -1.70241 0
M  V30 4937 C 489.535 0.713052 -1.82784 0
M  V30 4938 O 488.66 1.55529 -1.50465 0
M  V30 4939 C 489.255 -1.38475 -3.09209 0
M  V30 4940 C 487.814 -1.16276 -3.5799 0
M  V30 4941 C 486.961 -1.4778 -2.34641 0
M  V30 4942 H 489.912 -1.20378 -1.03415 0
M  V30 4943 H 489.933 -0.785939 -3.72295 0
M  V30 4944 H 489.445 -2.46157 -3.00048 0
M  V30 4945 H 487.546 -0.104508 -3.72453 0
M  V30 4946 H 487.659 -1.8571 -4.41643 0
M  V30 4947 H 486.023 -0.897366 -2.38368 0
M  V30 4948 H 486.806 -2.56562 -2.28102 0
M  V30 4949 N 489.251 1.34841 -0.815825 0
M  V30 4950 C 490.5 1.97755 -0.396976 0
M  V30 4951 C 490.813 1.65422 1.04379 0
M  V30 4952 O 492.019 2.21771 1.5662 0
M  V30 4953 C 490.475 3.53818 -0.658869 0
M  V30 4954 C 490.083 3.95051 -2.11278 0
M  V30 4955 C 491.827 4.23397 -0.305834 0
M  V30 4956 C 489.734 5.43997 -2.31994 0
M  V30 4957 H 488.664 0.739985 -0.1447 0
M  V30 4958 H 491.315 1.53781 -1.00118 0
M  V30 4959 H 489.697 3.95997 0.0154112 0
M  V30 4960 H 490.871 3.63998 -2.82564 0
M  V30 4961 H 489.186 3.38388 -2.42657 0
M  V30 4962 H 491.783 5.32899 -0.43854 0
M  V30 4963 H 492.126 4.09508 0.748952 0
M  V30 4964 H 492.659 3.8667 -0.934403 0
M  V30 4965 H 489.398 5.62865 -3.35952 0
M  V30 4966 H 488.918 5.76589 -1.65244 0
M  V30 4967 H 490.597 6.10584 -2.14001 0
M  V30 4968 N 490.729 0.570148 1.46925 0
M  V30 4969 C 491.692 -0.159933 2.28641 0
M  V30 4970 C 492.692 -0.830638 1.37685 0
M  V30 4971 O 493.882 -0.684516 1.60187 0
M  V30 4972 C 491.014 -1.2354 3.17727 0
M  V30 4973 H 492.207 0.558035 2.94662 0
M  V30 4974 H 489.76 0.327603 1.52828 0
M  V30 4975 H 490.495 -1.98535 2.56426 0
M  V30 4976 H 490.28 -0.759125 3.84681 0
M  V30 4977 H 491.77 -1.74782 3.79264 0
M  V30 4978 N 492.207 -1.54576 0.307264 0
M  V30 4979 C 493.155 -2.25208 -0.581723 0
M  V30 4980 C 494.149 -1.26031 -1.13192 0
M  V30 4981 O 495.355 -1.43862 -1.08184 0
M  V30 4982 H 491.73 -0.723173 -0.206214 0
M  V30 4983 H 493.701 -2.98378 0.0364663 0
M  V30 4984 C 492.45 -3.01086 -1.73904 0
M  V30 4985 H 491.773 -3.77208 -1.32491 0
M  V30 4986 H 493.213 -3.5378 -2.33701 0
M  V30 4987 C 491.672 -2.08422 -2.64692 0
M  V30 4988 O 492.202 -1.65636 -3.65961 0
M  V30 4989 N 490.408 -1.74247 -2.32564 0
M  V30 4990 H 489.955 -2.09238 -1.50257 0
M  V30 4991 H 489.913 -1.12524 -2.93574 0
M  V30 4992 N 493.685 -0.035106 -1.57561 0
M  V30 4993 C 494.633 0.962707 -2.11742 0
M  V30 4994 C 495.627 1.33296 -1.0454 0
M  V30 4995 O 496.833 1.31449 -1.22968 0
M  V30 4996 H 493.208 0.32826 -0.676572 0
M  V30 4997 H 495.179 0.48048 -2.94506 0
M  V30 4998 C 493.928 2.23388 -2.66445 0
M  V30 4999 H 493.251 1.95774 -3.48587 0
M  V30 5000 H 494.691 2.91402 -3.07995 0
M  V30 5001 C 493.15 2.96769 -1.59467 0
M  V30 5002 O 493.68 3.89105 -0.998 0
M  V30 5003 N 491.886 2.59212 -1.31369 0
M  V30 5004 H 491.433 1.84202 -1.80076 0
M  V30 5005 H 491.391 3.08618 -0.600173 0
M  V30 5006 N 495.163 1.55791 0.238111 0
M  V30 5007 C 496.574 1.68383 0.806472 0
M  V30 5008 C 496.925 0.634157 1.85669 0
M  V30 5009 O 496.05 -0.217913 2.153 0
M  V30 5010 C 496.645 3.05268 1.46959 0
M  V30 5011 C 495.204 3.1977 1.98555 0
M  V30 5012 C 494.351 2.64279 0.839763 0
M  V30 5013 H 497.302 1.58694 0.0137535 0
M  V30 5014 H 497.323 3.00203 2.33792 0
M  V30 5015 H 496.835 3.81643 0.704993 0
M  V30 5016 H 494.936 2.48234 2.77868 0
M  V30 5017 H 495.049 4.26788 2.17689 0
M  V30 5018 H 493.413 2.22329 1.24265 0
M  V30 5019 H 494.196 3.43187 0.0881032 0
M  V30 5020 N 496.642 -0.504142 1.49319 0
M  V30 5021 C 497.592 -1.60284 1.62151 0
M  V30 5022 C 498.576 -1.53657 0.477315 0
M  V30 5023 O 499.768 -1.6124 0.730108 0
M  V30 5024 C 496.897 -2.98909 1.68844 0
M  V30 5025 C 495.983 -3.10544 2.8883 0
M  V30 5026 N 496.374 -2.92078 4.12946 0
M  V30 5027 C 494.672 -3.4164 2.86702 0
M  V30 5028 C 495.373 -3.07812 4.93585 0
M  V30 5029 N 494.349 -3.36549 4.26891 0
M  V30 5030 H 498.151 -1.44656 2.55835 0
M  V30 5031 H 495.665 -0.710198 1.46048 0
M  V30 5032 H 497.662 -3.77865 1.76134 0
M  V30 5033 H 496.322 -3.15609 0.762943 0
M  V30 5034 H 497.333 -2.68316 4.42975 0
M  V30 5035 H 494.01 -3.64537 2.03517 0
M  V30 5036 H 495.4 -2.98054 6.02174 0
M  V30 5037 N 498.12 -1.38341 -0.754957 0
M  V30 5038 C 499.368 -1.34208 -1.51105 0
M  V30 5039 C 499.689 0.0677634 -1.94882 0
M  V30 5040 O 498.959 1.01517 -1.67544 0
M  V30 5041 H 497.539 -0.493819 -0.560493 0
M  V30 5042 H 500.201 -1.73005 -0.897507 0
M  V30 5043 H 499.297 -1.99203 -2.4026 0
M  V30 5044 N 499.598 0.982988 -1.23187 0
M  V30 5045 C 500.838 1.73903 -1.07412 0
M  V30 5046 C 501.202 1.88146 0.382764 0
M  V30 5047 O 502.403 2.6053 0.661638 0
M  V30 5048 C 500.674 3.10105 -1.77678 0
M  V30 5049 S 502.233 4.01323 -1.77441 0
M  V30 5050 H 499.051 0.598093 -0.384456 0
M  V30 5051 H 501.653 1.17456 -1.56283 0
M  V30 5052 H 500.357 2.97388 -2.82822 0
M  V30 5053 H 499.888 3.71622 -1.29077 0
M  V30 5054 H 501.903 4.89189 -0.831162 0
M  V30 5055 N 501.076 1.04316 1.18135 0
M  V30 5056 C 502.024 0.630175 2.23901 0
M  V30 5057 C 503.018 -0.344254 1.65865 0
M  V30 5058 O 504.224 -0.211273 1.78756 0
M  V30 5059 H 500.599 0.185578 0.728742 0
M  V30 5060 H 502.57 1.53253 2.56039 0
M  V30 5061 C 501.319 0.011666 3.47698 0
M  V30 5062 H 500.642 0.752526 3.92654 0
M  V30 5063 H 502.082 -0.240046 4.2332 0
M  V30 5064 C 500.541 -1.23913 3.13285 0
M  V30 5065 O 501.071 -2.32959 3.27251 0
M  V30 5066 N 499.277 -1.13338 2.67587 0
M  V30 5067 H 498.824 -0.246006 2.56423 0
M  V30 5068 H 498.782 -1.97116 2.44934 0
M  V30 5069 N 502.554 -1.34406 0.822964 0
M  V30 5070 C 503.487 -2.27407 0.190124 0
M  V30 5071 C 504.465 -1.4889 -0.653486 0
M  V30 5072 O 505.649 -1.78109 -0.617216 0
M  V30 5073 C 502.776 -3.3064 -0.734477 0
M  V30 5074 C 501.822 -4.26488 0.0316099 0
M  V30 5075 S 502.655 -5.17445 1.3788 0
M  V30 5076 C 503.811 -6.24214 0.45907 0
M  V30 5077 H 504.044 -2.80733 0.978586 0
M  V30 5078 H 501.577 -1.41455 0.618866 0
M  V30 5079 H 503.535 -3.90607 -1.26238 0
M  V30 5080 H 502.196 -2.76161 -1.49646 0
M  V30 5081 H 501.389 -4.9951 -0.671285 0
M  V30 5082 H 500.991 -3.70775 0.490066 0
M  V30 5083 H 503.283 -6.76599 -0.349357 0
M  V30 5084 H 504.226 -6.98551 1.15896 0
M  V30 5085 H 504.634 -5.6448 0.0474825 0
M  V30 5086 N 504.032 -0.577932 -1.46621 0
M  V30 5087 C 504.995 0.147805 -2.28723 0
M  V30 5088 C 505.995 0.823325 -1.38123 0
M  V30 5089 O 507.185 0.676011 -1.60548 0
M  V30 5090 C 504.317 1.21853 -3.18378 0
M  V30 5091 H 505.51 -0.573654 -2.94362 0
M  V30 5092 H 503.063 -0.335703 -1.52652 0
M  V30 5093 H 503.798 1.97173 -2.57475 0
M  V30 5094 H 503.583 0.738714 -3.85078 0
M  V30 5095 H 505.073 1.72768 -3.80186 0
M  V30 5096 N 505.51 1.54411 -0.315457 0
M  V30 5097 C 506.921 1.85885 0.174265 0
M  V30 5098 C 507.272 1.23723 1.52273 0
M  V30 5099 O 506.397 0.540246 2.09548 0
M  V30 5100 C 506.992 3.37257 0.322981 0
M  V30 5101 C 505.551 3.68711 0.756922 0
M  V30 5102 C 504.698 2.77013 -0.126195 0
M  V30 5103 H 507.649 1.49374 -0.536007 0
M  V30 5104 H 507.67 3.62539 1.15522 0
M  V30 5105 H 507.182 3.82471 -0.658602 0
M  V30 5106 H 505.283 3.29024 1.74854 0
M  V30 5107 H 505.396 4.75741 0.566291 0
M  V30 5108 H 503.76 2.51588 0.39692 0
M  V30 5109 H 504.543 3.25051 -1.1044 0
M  V30 5110 N 506.988 0.0434614 1.5754 0
M  V30 5111 C 508.265 -0.671479 1.83713 0
M  V30 5112 C 508.645 -1.89495 0.930315 0
M  V30 5113 O 507.993 -2.28498 -0.0105639 0
M  V30 5114 C 508.203 -1.0361 3.33266 0
M  V30 5115 C 509.551 -1.42167 4.00092 0
M  V30 5116 O 510.575 -1.12866 3.37846 0
M  V30 5117 O 509.434 -1.96817 5.09829 0
M  V30 5118 H 506.528 -0.330726 0.75799 0
M  V30 5119 H 509.074 0.0722373 1.69546 0
M  V30 5120 H 507.846 -0.165938 3.90948 0
M  V30 5121 H 507.469 -1.83751 3.52592 0
M  V30 5122 N 508.466 -1.55915 -0.229846 0
M  V30 5123 C 509.413 -1.91734 -1.28478 0
M  V30 5124 C 510.383 -0.773539 -1.46988 0
M  V30 5125 O 511.568 -1.02871 -1.60693 0
M  V30 5126 C 508.708 -2.23224 -2.63182 0
M  V30 5127 C 507.821 -3.50497 -2.52539 0
M  V30 5128 C 506.956 -3.71474 -3.79711 0
M  V30 5129 C 505.995 -4.92289 -3.63755 0
M  V30 5130 N 505.132 -5.09698 -4.82858 0
M  V30 5131 H 509.972 -2.81692 -0.972308 0
M  V30 5132 H 507.509 -1.39429 -0.468815 0
M  V30 5133 H 509.467 -2.3949 -3.41614 0
M  V30 5134 H 508.097 -1.36451 -2.92542 0
M  V30 5135 H 507.149 -3.4247 -1.65585 0
M  V30 5136 H 508.461 -4.39079 -2.36666 0
M  V30 5137 H 507.615 -3.87791 -4.66586 0
M  V30 5138 H 506.354 -2.81157 -3.985 0
M  V30 5139 H 505.359 -4.7593 -2.75264 0
M  V30 5140 H 506.584 -5.84083 -3.46445 0
M  V30 5141 H 504.53 -4.22322 -5.01976 0
M  V30 5142 H 504.447 -5.92399 -4.69681 0
M  V30 5143 H 505.715 -5.30443 -5.71183 0
M  V30 5144 N 509.944 0.496216 -1.49584 0
M  V30 5145 C 510.891 1.59722 -1.66606 0
M  V30 5146 C 511.861 1.58158 -0.507477 0
M  V30 5147 O 513.046 1.76072 -0.735076 0
M  V30 5148 C 510.186 2.97844 -1.74308 0
M  V30 5149 C 509.299 3.09388 -3.01502 0
M  V30 5150 C 508.434 4.38271 -3.00153 0
M  V30 5151 C 507.473 4.43466 -4.21906 0
M  V30 5152 N 506.61 5.63784 -4.1844 0
M  V30 5153 H 511.45 1.44515 -2.60613 0
M  V30 5154 H 508.987 0.703048 -1.29212 0
M  V30 5155 H 510.945 3.77907 -1.76754 0
M  V30 5156 H 509.575 3.11743 -0.837619 0
M  V30 5157 H 508.627 2.22357 -3.08645 0
M  V30 5158 H 509.939 3.09085 -3.91494 0
M  V30 5159 H 509.093 5.2666 -3.01188 0
M  V30 5160 H 507.832 4.41146 -2.07947 0
M  V30 5161 H 506.837 3.53478 -4.21109 0
M  V30 5162 H 508.062 4.42303 -5.1531 0
M  V30 5163 H 506.008 5.67491 -3.29074 0
M  V30 5164 H 505.925 5.65118 -5.02173 0
M  V30 5165 H 507.193 6.54367 -4.23585 0
M  V30 5166 N 511.423 1.38739 0.74761 0
M  V30 5167 C 512.373 1.32948 1.85226 0
M  V30 5168 C 513.357 0.212642 1.59489 0
M  V30 5169 O 514.549 0.449121 1.71207 0
M  V30 5170 C 511.678 1.16279 3.23008 0
M  V30 5171 C 510.764 2.32611 3.54617 0
M  V30 5172 N 511.155 3.58065 3.57244 0
M  V30 5173 C 509.453 2.25293 3.84914 0
M  V30 5174 C 510.154 4.34919 3.8629 0
M  V30 5175 N 509.13 3.64348 4.03425 0
M  V30 5176 H 512.932 2.27927 1.85544 0
M  V30 5177 H 510.446 1.32056 0.945253 0
M  V30 5178 H 512.443 1.10214 4.02068 0
M  V30 5179 H 511.103 0.222394 3.23937 0
M  V30 5180 H 512.114 3.91656 3.3886 0
M  V30 5181 H 508.791 1.39446 3.93524 0
M  V30 5182 H 510.181 5.43605 3.94896 0
M  V30 5183 N 512.901 -0.976442 1.23707 0
M  V30 5184 C 513.831 -2.08749 1.04624 0
M  V30 5185 C 514.812 -1.70057 -0.0380956 0
M  V30 5186 O 515.997 -1.93782 0.127308 0
M  V30 5187 C 513.127 -3.41335 0.640902 0
M  V30 5188 C 512.081 -3.93947 1.67302 0
M  V30 5189 C 511.407 -5.22774 1.12301 0
M  V30 5190 C 512.707 -4.22769 3.06697 0
M  V30 5191 H 514.401 -2.24972 1.97555 0
M  V30 5192 H 511.947 -1.08108 0.951247 0
M  V30 5193 H 513.9 -4.18489 0.494434 0
M  V30 5194 H 512.624 -3.24988 -0.324099 0
M  V30 5195 H 511.283 -3.18941 1.80755 0
M  V30 5196 H 510.931 -5.0278 0.148877 0
M  V30 5197 H 510.631 -5.58942 1.81267 0
M  V30 5198 H 512.155 -6.02546 0.988479 0
M  V30 5199 H 513.569 -4.90659 2.96524 0
M  V30 5200 H 511.966 -4.70147 3.72937 0
M  V30 5201 H 513.036 -3.29885 3.55392 0
M  V30 5202 N 514.379 -1.04941 -1.1758 0
M  V30 5203 C 515.619 -0.766996 -1.89464 0
M  V30 5204 C 515.983 0.693123 -1.79053 0
M  V30 5205 O 517.184 1.08953 -2.45729 0
M  V30 5206 C 515.455 -1.23108 -3.35528 0
M  V30 5207 S 517.014 -1.07565 -4.25412 0
M  V30 5208 H 513.832 -0.278616 -0.654136 0
M  V30 5209 H 516.434 -1.34352 -1.4202 0
M  V30 5210 H 515.138 -2.28896 -3.40639 0
M  V30 5211 H 514.669 -0.648724 -3.88014 0
M  V30 5212 H 516.684 0.00169467 -4.962 0
M  V30 5213 N 515.857 1.33968 -0.830081 0
M  V30 5214 C 517.103 1.98357 -0.422191 0
M  V30 5215 C 517.436 1.65633 1.01387 0
M  V30 5216 O 516.711 0.931648 1.70735 0
M  V30 5217 C 516.994 3.54492 -0.633043 0
M  V30 5218 C 516.847 3.96934 -2.11574 0
M  V30 5219 C 518.166 4.40039 -0.0735584 0
M  V30 5220 H 515.285 0.720544 -0.154871 0
M  V30 5221 H 517.927 1.58749 -1.04397 0
M  V30 5222 H 516.077 3.88361 -0.103775 0
M  V30 5223 H 517.749 3.73363 -2.7092 0
M  V30 5224 H 515.992 3.46984 -2.60354 0
M  V30 5225 H 516.663 5.05651 -2.21406 0
M  V30 5226 H 519.139 4.12764 -0.52585 0
M  V30 5227 H 518.015 5.48327 -0.250841 0
M  V30 5228 H 518.276 4.30124 1.02202 0
M  V30 5229 N 517.335 0.585699 1.46312 0
M  V30 5230 C 518.298 -0.135673 2.28798 0
M  V30 5231 C 519.298 -0.815988 1.38558 0
M  V30 5232 O 520.488 -0.667487 1.60904 0
M  V30 5233 C 517.62 -1.20163 3.1902 0
M  V30 5234 H 518.813 0.589257 2.94054 0
M  V30 5235 H 516.366 0.343794 1.52472 0
M  V30 5236 H 517.101 -1.95804 2.58517 0
M  V30 5237 H 516.886 -0.718282 3.85465 0
M  V30 5238 H 518.376 -1.70749 3.81096 0
M  V30 5239 N 518.813 -1.54241 0.323641 0
M  V30 5240 C 520.061 -2.00174 -0.278359 0
M  V30 5241 C 520.382 -1.2134 -1.52648 0
M  V30 5242 O 519.652 -0.315244 -1.93347 0
M  V30 5243 H 518.232 -0.739463 -0.105845 0
M  V30 5244 H 520.894 -1.89864 0.440204 0
M  V30 5245 H 519.99 -3.07486 -0.5347 0
M  V30 5246 N 520.291 -0.0518155 -1.57515 0
M  V30 5247 C 521.238 0.922352 -2.11569 0
M  V30 5248 C 522.208 1.30842 -1.02321 0
M  V30 5249 O 523.393 1.39778 -1.29872 0
M  V30 5250 C 520.533 2.19167 -2.6657 0
M  V30 5251 C 519.646 1.86003 -3.89906 0
M  V30 5252 C 518.781 3.07398 -4.33221 0
M  V30 5253 C 517.82 2.70158 -5.49255 0
M  V30 5254 N 516.957 3.84248 -5.8762 0
M  V30 5255 H 521.797 0.454506 -2.94514 0
M  V30 5256 H 519.334 0.212718 -1.45554 0
M  V30 5257 H 521.292 2.93443 -2.96559 0
M  V30 5258 H 519.922 2.63528 -1.86421 0
M  V30 5259 H 518.974 1.01874 -3.66505 0
M  V30 5260 H 520.286 1.54592 -4.74239 0
M  V30 5261 H 519.44 3.89972 -4.64765 0
M  V30 5262 H 518.179 3.41988 -3.477 0
M  V30 5263 H 517.184 1.86001 -5.17382 0
M  V30 5264 H 518.409 2.36759 -6.36492 0
M  V30 5265 H 516.355 4.18638 -5.05053 0
M  V30 5266 H 516.272 3.56538 -6.66646 0
M  V30 5267 H 517.54 4.6746 -6.2378 0
M  V30 5268 N 521.769 1.56035 0.221574 0
M  V30 5269 C 522.699 1.95434 1.2778 0
M  V30 5270 C 523.68 0.822564 1.48889 0
M  V30 5271 O 524.865 1.08486 1.61072 0
M  V30 5272 C 521.995 2.27102 2.62759 0
M  V30 5273 C 520.949 3.4277 2.56306 0
M  V30 5274 C 520.275 3.60043 3.95314 0
M  V30 5275 C 521.575 4.77742 2.11093 0
M  V30 5276 H 523.269 2.83912 0.950504 0
M  V30 5277 H 520.815 1.36596 0.455791 0
M  V30 5278 H 522.768 2.53256 3.36807 0
M  V30 5279 H 521.492 1.35478 2.97176 0
M  V30 5280 H 520.151 3.16664 1.84715 0
M  V30 5281 H 519.799 2.65794 4.27039 0
M  V30 5282 H 519.499 4.37841 3.91879 0
M  V30 5283 H 521.023 3.88545 4.71025 0
M  V30 5284 H 522.437 5.03102 2.74885 0
M  V30 5285 H 520.834 5.58823 2.18716 0
M  V30 5286 H 521.904 4.731 1.06321 0
M  V30 5287 N 523.247 -0.488276 1.49845 0
M  V30 5288 C 524.472 -1.26997 1.63971 0
M  V30 5289 C 524.897 -1.85427 0.315994 0
M  V30 5290 O 524.255 -1.66475 -0.718032 0
M  V30 5291 C 524.303 -2.36689 2.72049 0
M  V30 5292 O 523.407 -3.40882 2.32107 0
M  V30 5293 H 522.748 -0.374376 0.548396 0
M  V30 5294 H 525.278 -0.583104 1.96115 0
M  V30 5295 H 525.288 -2.82262 2.94605 0
M  V30 5296 H 523.963 -1.93529 3.68129 0
M  V30 5297 H 522.54 -3.01139 2.19931 0
M  V30 5298 N 524.725 -1.39134 -0.740242 0
M  V30 5299 C 526.136 -1.32208 -1.31825 0
M  V30 5300 C 526.487 0.0159919 -1.96193 0
M  V30 5301 O 525.612 0.918111 -1.95958 0
M  V30 5302 C 526.207 -2.39436 -2.39699 0
M  V30 5303 C 524.766 -2.36048 -2.93187 0
M  V30 5304 C 523.913 -2.21599 -1.66701 0
M  V30 5305 H 526.864 -1.49298 -0.538133 0
M  V30 5306 H 526.885 -2.05922 -3.19963 0
M  V30 5307 H 526.397 -3.36811 -1.92821 0
M  V30 5308 H 524.498 -1.42295 -3.44359 0
M  V30 5309 H 524.611 -3.30704 -3.46658 0
M  V30 5310 H 522.975 -1.68681 -1.90837 0
M  V30 5311 H 523.758 -3.20936 -1.21882 0
M  V30 5312 N 526.204 0.969867 -1.24223 0
M  V30 5313 C 527.432 1.74756 -1.10761 0
M  V30 5314 C 527.847 1.85713 0.340041 0
M  V30 5315 O 527.204 1.34389 1.23474 0
M  V30 5316 C 527.255 3.16915 -1.73917 0
M  V30 5317 O 526.976 3.06511 -3.13021 0
M  V30 5318 C 528.477 4.11032 -1.66036 0
M  V30 5319 H 525.697 0.548092 -0.387087 0
M  V30 5320 H 528.241 1.2178 -1.64286 0
M  V30 5321 H 526.396 3.66884 -1.244 0
M  V30 5322 H 526.81 3.96079 -3.43834 0
M  V30 5323 H 528.284 5.08446 -2.14911 0
M  V30 5324 H 528.761 4.34785 -0.621159 0
M  V30 5325 H 529.367 3.66972 -2.14969 0
M  V30 5326 N 527.682 1.05563 1.17022 0
M  V30 5327 C 528.645 0.664098 2.19368 0
M  V30 5328 C 529.645 -0.286358 1.5823 0
M  V30 5329 O 530.835 -0.069728 1.7406 0
M  V30 5330 C 527.967 -0.0239932 3.40892 0
M  V30 5331 H 529.16 1.57 2.55521 0
M  V30 5332 H 526.713 0.849964 1.31169 0
M  V30 5333 H 527.448 -0.942988 3.10287 0
M  V30 5334 H 527.233 0.659351 3.86516 0
M  V30 5335 H 528.723 -0.283909 4.16634 0
M  V30 5336 N 529.16 -1.33526 0.837174 0
M  V30 5337 C 530.388 -2.02047 0.445494 0
M  V30 5338 C 530.803 -1.62995 -0.952788 0
M  V30 5339 O 530.16 -0.842447 -1.61892 0
M  V30 5340 C 530.211 -3.57221 0.554577 0
M  V30 5341 O 529.932 -3.94863 1.89776 0
M  V30 5342 C 531.433 -4.43012 0.159634 0
M  V30 5343 H 528.653 -0.647221 0.177048 0
M  V30 5344 H 531.197 -1.70492 1.12928 0
M  V30 5345 H 529.352 -3.87315 -0.0812781 0
M  V30 5346 H 529.766 -4.89569 1.88208 0
M  V30 5347 H 531.24 -5.51253 0.28701 0
M  V30 5348 H 531.717 -4.29916 -0.898289 0
M  V30 5349 H 532.323 -4.18274 0.769855 0
M  V30 5350 N 530.638 -0.59345 -1.46 0
M  V30 5351 C 531.884 -0.0832754 -2.02629 0
M  V30 5352 C 532.217 1.27749 -1.46266 0
M  V30 5353 O 531.492 1.8395 -0.631866 0
M  V30 5354 C 531.775 -0.0290756 -3.60088 0
M  V30 5355 C 531.628 -1.41951 -4.26814 0
M  V30 5356 C 532.947 0.666055 -4.35031 0
M  V30 5357 H 530.066 -0.031736 -0.736316 0
M  V30 5358 H 532.708 -0.762711 -1.74019 0
M  V30 5359 H 530.858 0.549532 -3.84594 0
M  V30 5360 H 532.53 -2.04411 -4.13538 0
M  V30 5361 H 530.773 -1.98422 -3.8576 0
M  V30 5362 H 531.444 -1.33395 -5.3564 0
M  V30 5363 H 533.92 0.174401 -4.15734 0
M  V30 5364 H 532.796 0.673041 -5.44758 0
M  V30 5365 H 533.057 1.72946 -4.06869 0
M  V30 5366 N 532.116 1.54067 -0.331816 0
M  V30 5367 C 533.046 2.27569 0.522932 0
M  V30 5368 C 534.027 1.28679 1.11247 0
M  V30 5369 O 535.212 1.57504 1.13605 0
M  V30 5370 C 532.342 3.0397 1.67987 0
M  V30 5371 C 531.296 4.10267 1.21924 0
M  V30 5372 C 530.622 4.74555 2.46377 0
M  V30 5373 C 531.922 5.21268 0.32815 0
M  V30 5374 H 533.616 2.99264 -0.0901977 0
M  V30 5375 H 531.162 1.4393 -0.044821 0
M  V30 5376 H 533.115 3.54123 2.28418 0
M  V30 5377 H 531.839 2.29906 2.31971 0
M  V30 5378 H 530.498 3.61009 0.637809 0
M  V30 5379 H 530.146 3.97098 3.08743 0
M  V30 5380 H 529.846 5.46363 2.16243 0
M  V30 5381 H 531.37 5.27487 3.07555 0
M  V30 5382 H 532.784 5.67128 0.838978 0
M  V30 5383 H 531.181 5.99982 0.119228 0
M  V30 5384 H 532.251 4.80673 -0.638839 0
M  V30 5385 N 533.594 0.0601682 1.57485 0
M  V30 5386 C 534.871 -0.651956 1.84415 0
M  V30 5387 C 535.251 -1.88498 0.950361 0
M  V30 5388 O 534.599 -2.28496 0.0136719 0
M  V30 5389 C 534.809 -1.00069 3.34346 0
M  V30 5390 C 536.157 -1.37915 4.01578 0
M  V30 5391 O 537.181 -1.09277 3.39024 0
M  V30 5392 O 536.04 -1.91399 5.11887 0
M  V30 5393 H 533.134 -0.322668 0.761455 0
M  V30 5394 H 535.68 0.0902159 1.6946 0
M  V30 5395 H 534.452 -0.124463 3.91102 0
M  V30 5396 H 534.075 -1.80001 3.54521 0
M  V30 5397 N 535.072 -1.5615 -0.213296 0
M  V30 5398 C 536.318 -1.79812 -0.937849 0
M  V30 5399 C 536.651 -0.631201 -1.83656 0
M  V30 5400 O 535.926 0.369165 -1.90964 0
M  V30 5401 C 536.209 -3.13613 -1.76972 0
M  V30 5402 C 536.062 -4.40766 -0.89695 0
M  V30 5403 C 537.381 -3.43931 -2.7459 0
M  V30 5404 H 534.5 -0.654138 -0.339518 0
M  V30 5405 H 537.142 -1.88877 -0.20623 0
M  V30 5406 H 535.292 -3.06015 -2.39347 0
M  V30 5407 H 536.964 -4.60392 -0.289306 0
M  V30 5408 H 535.207 -4.33326 -0.202756 0
M  V30 5409 H 535.878 -5.30843 -1.51358 0
M  V30 5410 H 538.354 -3.5171 -2.22349 0
M  V30 5411 H 537.23 -4.38706 -3.29891 0
M  V30 5412 H 537.491 -2.6651 -3.52739 0
M  V30 5413 N 536.55 0.480323 -1.50102 0
M  V30 5414 C 537.778 1.25657 -1.64371 0
M  V30 5415 C 538.193 1.86011 -0.323316 0
M  V30 5416 O 537.55 1.68803 0.693682 0
M  V30 5417 C 537.601 2.37197 -2.728 0
M  V30 5418 O 537.322 1.7932 -3.9972 0
M  V30 5419 C 538.823 3.2823 -2.9796 0
M  V30 5420 H 536.043 0.380369 -0.552775 0
M  V30 5421 H 538.587 0.574379 -1.96268 0
M  V30 5422 H 536.742 3.01208 -2.43623 0
M  V30 5423 H 537.156 2.52701 -4.59611 0
M  V30 5424 H 538.63 4.02725 -3.77513 0
M  V30 5425 H 539.107 3.86462 -2.08671 0
M  V30 5426 H 539.713 2.69964 -3.28633 0
M  V30 5427 N 538.028 1.39524 0.732853 0
M  V30 5428 C 539.444 1.21176 1.03868 0
M  V30 5429 C 539.644 0.0748448 2.01361 0
M  V30 5430 O 538.7 -0.57281 2.45917 0
M  V30 5431 C 540.013 2.54667 1.59892 0
M  V30 5432 C 541.561 2.6153 1.71962 0
M  V30 5433 C 542.036 3.95248 2.31394 0
M  V30 5434 N 543.527 3.96899 2.38801 0
M  V30 5435 C 544.262 4.97138 2.85729 0
M  V30 5436 N 543.758 6.07775 3.32537 0
M  V30 5437 N 545.551 4.84516 2.84957 0
M  V30 5438 H 537.702 2.12225 0.086304 0
M  V30 5439 H 539.965 0.942614 0.100907 0
M  V30 5440 H 539.671 3.38423 0.95721 0
M  V30 5441 H 539.545 2.74538 2.58668 0
M  V30 5442 H 541.932 1.78156 2.35254 0
M  V30 5443 H 542.013 2.45507 0.718327 0
M  V30 5444 H 541.657 4.79054 1.68729 0
M  V30 5445 H 541.587 4.08593 3.32204 0
M  V30 5446 H 544.078 3.16998 2.05719 0
M  V30 5447 H 544.391 6.8017 3.66862 0
M  V30 5448 H 542.736 6.11366 3.30541 0
M  V30 5449 H 545.927 3.97185 2.47713 0
M  V30 5450 H 546.1 5.62783 3.21215 0
M  V30 5451 N 539.506 -0.963266 1.24736 0
M  V30 5452 C 540.753 -1.7068 1.0897 0
M  V30 5453 C 541.081 -1.90934 -0.370751 0
M  V30 5454 O 540.336 -1.47155 -1.29011 0
M  V30 5455 C 540.635 -3.09944 1.7796 0
M  V30 5456 C 540.301 -3.09518 3.27887 0
M  V30 5457 C 538.963 -3.09109 3.68789 0
M  V30 5458 C 541.315 -3.03509 4.23712 0
M  V30 5459 C 538.643 -3.00429 5.03944 0
M  V30 5460 C 540.995 -2.96371 5.5888 0
M  V30 5461 C 539.659 -2.94293 5.99123 0
M  V30 5462 H 538.929 -0.624564 0.398749 0
M  V30 5463 H 541.576 -1.12603 1.54896 0
M  V30 5464 H 539.881 -3.71513 1.2444 0
M  V30 5465 H 541.578 -3.66278 1.63222 0
M  V30 5466 H 538.168 -3.10603 2.95337 0
M  V30 5467 H 542.352 -3.0295 3.93109 0
M  V30 5468 H 537.608 -2.97183 5.34314 0
M  V30 5469 H 541.782 -2.90681 6.32833 0
M  V30 5470 H 539.409 -2.87322 7.03811 0
M  V30 5471 N 540.985 -1.06182 -1.16461 0
M  V30 5472 C 542.262 -0.691364 -1.82974 0
M  V30 5473 C 542.642 0.827377 -1.9421 0
M  V30 5474 O 541.99 1.73723 -1.48434 0
M  V30 5475 C 542.2 -1.39199 -3.20038 0
M  V30 5476 C 543.548 -1.53647 -3.95825 0
M  V30 5477 O 544.572 -1.35181 -3.29552 0
M  V30 5478 O 543.431 -1.83932 -5.14618 0
M  V30 5479 H 540.525 -0.244605 -0.789998 0
M  V30 5480 H 543.071 -1.16203 -1.23673 0
M  V30 5481 H 541.843 -2.42766 -3.06888 0
M  V30 5482 H 541.466 -0.911335 -3.87015 0
M  V30 5483 N 542.463 1.3308 -0.844243 0
M  V30 5484 C 543.426 2.27403 -0.286485 0
M  V30 5485 C 544.426 1.51179 0.547872 0
M  V30 5486 O 545.616 1.70421 0.360886 0
M  V30 5487 C 542.748 3.35653 0.595813 0
M  V30 5488 H 543.941 2.78248 -1.11885 0
M  V30 5489 H 541.494 1.43574 -0.617749 0
M  V30 5490 H 542.229 2.90058 1.4504 0
M  V30 5491 H 542.014 3.921 -0.00125994 0
M  V30 5492 H 543.504 4.05958 0.979168 0
M  V30 5493 N 543.941 0.601185 1.45683 0
M  V30 5494 C 545.187 0.0940202 2.02582 0
M  V30 5495 C 545.52 -1.26972 1.46941 0
M  V30 5496 O 544.795 -1.83613 0.641612 0
M  V30 5497 C 545.078 0.0481715 3.60068 0
M  V30 5498 C 544.931 1.44212 4.26055 0
M  V30 5499 C 546.25 -0.642975 4.35378 0
M  V30 5500 H 543.369 0.0356404 0.736138 0
M  V30 5501 H 546.011 0.771929 1.73612 0
M  V30 5502 H 544.161 -0.529128 3.8488 0
M  V30 5503 H 545.833 2.06601 4.12449 0
M  V30 5504 H 544.076 2.00465 3.84703 0
M  V30 5505 H 544.747 1.36234 5.34925 0
M  V30 5506 H 547.223 -0.152351 4.15821 0
M  V30 5507 H 546.099 -0.644141 5.45107 0
M  V30 5508 H 546.36 -1.70785 4.0778 0
M  V30 5509 N 545.419 -1.53889 0.339982 0
M  V30 5510 C 546.666 -2.00855 -0.257621 0
M  V30 5511 C 546.994 -1.22788 -1.50842 0
M  V30 5512 O 546.249 -0.302567 -1.93347 0
M  V30 5513 C 546.548 -3.51968 -0.620735 0
M  V30 5514 C 546.214 -4.47741 0.532771 0
M  V30 5515 C 544.876 -4.73645 0.849339 0
M  V30 5516 C 547.228 -5.04551 1.3068 0
M  V30 5517 C 544.556 -5.53614 1.94237 0
M  V30 5518 C 546.908 -5.85713 2.39005 0
M  V30 5519 C 545.572 -6.09912 2.71225 0
M  V30 5520 H 544.842 -0.734979 -0.0942703 0
M  V30 5521 H 547.489 -1.85714 0.467159 0
M  V30 5522 H 545.794 -3.64921 -1.42618 0
M  V30 5523 H 547.491 -3.85762 -1.09495 0
M  V30 5524 H 544.081 -4.27711 0.275973 0
M  V30 5525 H 548.265 -4.84507 1.07549 0
M  V30 5526 H 543.521 -5.7059 2.19628 0
M  V30 5527 H 547.695 -6.28748 2.99415 0
M  V30 5528 H 545.322 -6.71665 3.56047 0
M  V30 5529 N 546.897 -0.0685191 -1.57451 0
M  V30 5530 C 548.127 0.609577 -1.97402 0
M  V30 5531 C 548.535 1.63882 -0.945489 0
M  V30 5532 O 547.878 1.8354 0.0766052 0
M  V30 5533 C 547.94 1.3385 -3.33653 0
M  V30 5534 C 547.604 0.463103 -4.54648 0
M  V30 5535 C 548.601 -0.277964 -5.19156 0
M  V30 5536 C 546.286 0.388941 -5.00792 0
M  V30 5537 C 548.28 -1.08145 -6.28159 0
M  V30 5538 C 545.967 -0.418217 -6.09667 0
M  V30 5539 C 546.965 -1.15208 -6.73213 0
M  V30 5540 O 546.653 -1.94594 -7.79993 0
M  V30 5541 H 546.385 0.170197 -0.654224 0
M  V30 5542 H 548.939 -0.13647 -2.04946 0
M  V30 5543 H 547.169 2.13055 -3.22714 0
M  V30 5544 H 548.858 1.90851 -3.58233 0
M  V30 5545 H 549.624 -0.230241 -4.84453 0
M  V30 5546 H 545.503 0.949769 -4.5111 0
M  V30 5547 H 549.047 -1.65476 -6.7769 0
M  V30 5548 H 544.944 -0.467515 -6.43805 0
M  V30 5549 H 545.712 -1.8699 -7.96854 0
M  V30 5550 N 548.375 1.56261 0.205012 0
M  V30 5551 C 549.285 1.96944 1.27476 0
M  V30 5552 C 550.301 0.875636 1.50362 0
M  V30 5553 O 551.477 1.18058 1.6317 0
M  V30 5554 C 548.542 2.29219 2.60115 0
M  V30 5555 C 547.603 3.52255 2.45387 0
M  V30 5556 C 546.836 3.8298 3.71701 0
M  V30 5557 O 547.059 3.15138 4.75441 0
M  V30 5558 O 545.993 4.76435 3.67823 0
M  V30 5559 H 549.819 2.88144 0.959527 0
M  V30 5560 H 547.404 1.43686 0.409217 0
M  V30 5561 H 549.286 2.51098 3.3842 0
M  V30 5562 H 547.961 1.4119 2.91285 0
M  V30 5563 H 546.868 3.35635 1.65227 0
M  V30 5564 H 548.201 4.40719 2.19152 0
M  V30 5565 N 549.853 -0.472356 1.50355 0
M  V30 5566 C 550.801 -1.59126 1.69651 0
M  V30 5567 C 551.795 -1.59793 0.56237 0
M  V30 5568 O 553.001 -1.63957 0.742832 0
M  V30 5569 H 549.376 -0.528008 0.535454 0
M  V30 5570 H 551.347 -1.40013 2.63513 0
M  V30 5571 C 550.096 -2.97075 1.8067 0
M  V30 5572 H 549.419 -2.9728 2.67329 0
M  V30 5573 H 550.859 -3.74825 1.98197 0
M  V30 5574 C 549.318 -3.32247 0.558016 0
M  V30 5575 O 549.848 -4.00553 -0.303399 0
M  V30 5576 N 548.054 -2.87659 0.412415 0
M  V30 5577 H 547.601 -2.32246 1.11443 0
M  V30 5578 H 547.559 -3.11556 -0.421908 0
M  V30 5579 N 551.331 -1.39911 -0.725443 0
M  V30 5580 C 552.294 -1.39156 -1.82121 0
M  V30 5581 C 553.294 -0.287018 -1.58218 0
M  V30 5582 O 554.484 -0.545421 -1.65441 0
M  V30 5583 C 551.616 -1.1736 -3.20062 0
M  V30 5584 H 552.809 -2.36672 -1.84191 0
M  V30 5585 H 550.362 -1.25615 -0.930079 0
M  V30 5586 H 551.097 -0.205648 -3.23647 0
M  V30 5587 H 550.882 -1.97358 -3.3881 0
M  V30 5588 H 552.372 -1.19596 -4.00108 0
M  V30 5589 N 552.809 0.956637 -1.25245 0
M  V30 5590 C 554.086 1.67716 -1.00651 0
M  V30 5591 C 554.466 2.0585 0.467866 0
M  V30 5592 O 553.814 1.77029 1.44475 0
M  V30 5593 C 554.024 2.90093 -1.94028 0
M  V30 5594 C 555.372 3.6209 -2.21756 0
M  V30 5595 O 556.396 3.00171 -1.9177 0
M  V30 5596 O 555.255 4.7358 -2.72735 0
M  V30 5597 H 552.349 0.733731 -0.381533 0
M  V30 5598 H 554.895 1.00974 -1.3639 0
M  V30 5599 H 553.667 2.58689 -2.93591 0
M  V30 5600 H 553.29 3.64566 -1.58674 0
M  V30 5601 N 554.287 1.06798 1.15896 0
M  V30 5602 C 555.698 0.811355 1.68149 0
M  V30 5603 C 556.049 -0.664339 1.8461 0
M  V30 5604 O 555.174 -1.51485 1.54535 0
M  V30 5605 C 555.769 1.46624 3.05429 0
M  V30 5606 C 554.328 1.25726 3.54781 0
M  V30 5607 C 553.475 1.53949 2.3064 0
M  V30 5608 H 556.426 1.23078 1.00187 0
M  V30 5609 H 556.447 0.88437 3.7008 0
M  V30 5610 H 555.959 2.54025 2.93416 0
M  V30 5611 H 554.06 0.20322 3.72045 0
M  V30 5612 H 554.173 1.97354 4.36564 0
M  V30 5613 H 552.537 0.96025 2.35905 0
M  V30 5614 H 553.32 2.6252 2.2122 0
M  V30 5615 N 555.766 -1.3263 0.851289 0
M  V30 5616 C 557.182 -1.50162 0.5407 0
M  V30 5617 C 557.382 -1.78788 -0.929369 0
M  V30 5618 O 556.438 -1.85545 -1.71258 0
M  V30 5619 C 557.751 -2.64803 1.42478 0
M  V30 5620 C 559.299 -2.78688 1.42485 0
M  V30 5621 C 559.774 -3.96405 2.29407 0
M  V30 5622 N 561.265 -4.0366 2.27184 0
M  V30 5623 C 562 -4.93971 2.9117 0
M  V30 5624 N 561.496 -5.89313 3.64256 0
M  V30 5625 N 563.289 -4.87066 2.80576 0
M  V30 5626 H 555.44 -1.12315 1.80275 0
M  V30 5627 H 557.703 -0.553266 0.769806 0
M  V30 5628 H 557.409 -2.50368 2.46999 0
M  V30 5629 H 557.283 -3.60506 1.10974 0
M  V30 5630 H 559.67 -2.92547 0.387304 0
M  V30 5631 H 559.751 -1.83708 1.78002 0
M  V30 5632 H 559.395 -3.83304 3.33228 0
M  V30 5633 H 559.325 -4.90654 1.91224 0
M  V30 5634 H 561.816 -3.35435 1.74045 0
M  V30 5635 H 562.129 -6.54913 4.10255 0
M  V30 5636 H 560.474 -5.8935 3.68364 0
M  V30 5637 H 563.665 -4.11552 2.23031 0
M  V30 5638 H 563.838 -5.57248 3.30725 0
M  V30 5639 N 557.244 -0.608902 -1.45362 0
M  V30 5640 C 558.469 -0.10921 -2.07112 0
M  V30 5641 C 558.894 1.19779 -1.45033 0
M  V30 5642 O 558.252 1.72961 -0.543527 0
M  V30 5643 C 558.3 0.0155745 -3.60597 0
M  V30 5644 O 557.404 1.06546 -3.98399 0
M  V30 5645 H 556.745 -0.0746619 -0.659789 0
M  V30 5646 H 559.275 -0.839283 -1.86594 0
M  V30 5647 H 559.285 0.213364 -4.07442 0
M  V30 5648 H 557.96 -0.938765 -4.05167 0
M  V30 5649 H 556.537 0.844024 -3.63223 0
M  V30 5650 N 558.722 1.53707 -0.348139 0
M  V30 5651 C 559.685 2.23812 0.494058 0
M  V30 5652 C 560.685 1.23989 1.02388 0
M  V30 5653 O 561.875 1.48395 0.912396 0
M  V30 5654 C 559.007 2.96133 1.68872 0
M  V30 5655 H 560.2 2.99663 -0.119141 0
M  V30 5656 H 557.753 1.55983 -0.0995539 0
M  V30 5657 H 558.488 2.24481 2.34049 0
M  V30 5658 H 558.273 3.69357 1.31596 0
M  V30 5659 H 559.763 3.49475 2.28597 0
M  V30 5660 N 560.2 0.0768682 1.57412 0
M  V30 5661 C 561.446 -0.591961 1.93968 0
M  V30 5662 C 561.779 -1.68954 0.9575 0
M  V30 5663 O 561.054 -1.94496 -0.0124675 0
M  V30 5664 C 561.337 -1.16418 3.40762 0
M  V30 5665 C 561.19 -0.0728933 4.49741 0
M  V30 5666 C 562.509 -2.06814 3.88479 0
M  V30 5667 H 559.628 -0.213716 0.705333 0
M  V30 5668 H 562.27 0.14387 1.89455 0
M  V30 5669 H 560.42 -1.79128 3.4474 0
M  V30 5670 H 562.092 0.560446 4.57883 0
M  V30 5671 H 560.335 0.595859 4.29688 0
M  V30 5672 H 561.006 -0.513755 5.49604 0
M  V30 5673 H 563.482 -1.54033 3.8654 0
M  V30 5674 H 562.358 -2.43785 4.91793 0
M  V30 5675 H 562.619 -2.97844 3.26713 0
M  V30 5676 N 561.678 -1.56367 -0.196722 0
M  V30 5677 C 562.924 -1.80796 -0.918725 0
M  V30 5678 C 563.257 -0.650645 -1.82976 0
M  V30 5679 O 562.532 0.348889 -1.91345 0
M  V30 5680 C 562.815 -3.15472 -1.73636 0
M  V30 5681 C 562.668 -4.41693 -0.85015 0
M  V30 5682 C 563.987 -3.46824 -2.70927 0
M  V30 5683 H 561.106 -0.657702 -0.332561 0
M  V30 5684 H 563.748 -1.89086 -0.186186 0
M  V30 5685 H 561.898 -3.08536 -2.36088 0
M  V30 5686 H 563.57 -4.60673 -0.240459 0
M  V30 5687 H 561.813 -4.33517 -0.156785 0
M  V30 5688 H 562.484 -5.32419 -1.45719 0
M  V30 5689 H 564.96 -3.54049 -2.18607 0
M  V30 5690 H 563.836 -4.4218 -3.25219 0
M  V30 5691 H 564.097 -2.70236 -3.49893 0
M  V30 5692 N 563.156 0.464375 -1.50603 0
M  V30 5693 C 564.119 1.54393 -1.69397 0
M  V30 5694 C 565.119 1.50566 -0.564504 0
M  V30 5695 O 566.309 1.53066 -0.831645 0
M  V30 5696 C 563.441 2.9401 -1.72543 0
M  V30 5697 H 564.634 1.39044 -2.65719 0
M  V30 5698 H 562.187 0.69122 -1.40185 0
M  V30 5699 H 562.922 3.14795 -0.77938 0
M  V30 5700 H 562.707 2.98195 -2.54602 0
M  V30 5701 H 564.197 3.72375 -1.89015 0
M  V30 5702 N 564.634 1.40294 0.718013 0
M  V30 5703 C 565.544 1.42678 1.86226 0
M  V30 5704 C 566.56 0.319655 1.71039 0
M  V30 5705 O 567.736 0.563852 1.93346 0
M  V30 5706 C 564.801 1.2852 3.21999 0
M  V30 5707 C 563.862 2.49354 3.49458 0
M  V30 5708 C 563.095 2.35863 4.78753 0
M  V30 5709 O 563.318 1.37114 5.53675 0
M  V30 5710 O 562.252 3.25189 5.06494 0
M  V30 5711 H 566.078 2.39167 1.87171 0
M  V30 5712 H 563.663 1.2159 0.868112 0
M  V30 5713 H 565.545 1.22824 4.03103 0
M  V30 5714 H 564.22 0.351359 3.21787 0
M  V30 5715 H 563.127 2.60628 2.68373 0
M  V30 5716 H 564.46 3.41491 3.54464 0
M  V30 5717 N 566.112 -0.949982 1.2575 0
M  V30 5718 C 567.523 -1.50989 1.09815 0
M  V30 5719 C 567.874 -1.93497 -0.324556 0
M  V30 5720 O 566.999 -1.79068 -1.21506 0
M  V30 5721 C 567.594 -2.74394 1.98729 0
M  V30 5722 C 566.153 -3.26682 1.86965 0
M  V30 5723 C 565.3 -1.99498 1.92603 0
M  V30 5724 H 568.251 -0.766387 1.38968 0
M  V30 5725 H 568.272 -3.48383 1.53001 0
M  V30 5726 H 567.784 -2.43425 3.02268 0
M  V30 5727 H 565.885 -3.62461 0.863279 0
M  V30 5728 H 565.998 -3.94383 2.72027 0
M  V30 5729 H 564.362 -2.15005 1.36546 0
M  V30 5730 H 565.145 -1.70871 2.97755 0
M  V30 5731 N 567.59 -1.07411 -1.15328 0
M  V30 5732 C 568.5 -0.706438 -2.23711 0
M  V30 5733 C 569.516 0.282586 -1.7169 0
M  V30 5734 O 570.692 0.129066 -2.00986 0
M  V30 5735 C 567.757 -0.11048 -3.46524 0
M  V30 5736 C 566.818 -1.15282 -4.13532 0
M  V30 5737 C 566.051 -0.585205 -5.30482 0
M  V30 5738 O 566.274 0.598549 -5.67251 0
M  V30 5739 O 565.208 -1.33039 -5.87013 0
M  V30 5740 H 569.034 -1.61031 -2.57493 0
M  V30 5741 H 566.619 -0.847113 -1.23062 0
M  V30 5742 H 568.501 0.21957 -4.20828 0
M  V30 5743 H 567.176 0.766703 -3.14489 0
M  V30 5744 H 566.083 -1.53523 -3.41147 0
M  V30 5745 H 567.416 -2.00192 -4.49649 0
M  V30 5746 N 569.068 1.32177 -0.85831 0
M  V30 5747 C 569.998 2.31282 -0.321041 0
M  V30 5748 C 570.979 1.59841 0.581786 0
M  V30 5749 O 572.164 1.87619 0.501262 0
M  V30 5750 C 569.294 3.4385 0.48832 0
M  V30 5751 C 568.248 4.26799 -0.320391 0
M  V30 5752 C 567.574 5.31164 0.613934 0
M  V30 5753 C 568.874 4.98829 -1.54813 0
M  V30 5754 H 570.568 2.76469 -1.14915 0
M  V30 5755 H 568.114 1.32916 -0.554028 0
M  V30 5756 H 570.067 4.12224 0.874626 0
M  V30 5757 H 568.791 2.97401 1.34983 0
M  V30 5758 H 567.45 3.60077 -0.688497 0
M  V30 5759 H 567.098 4.80967 1.47239 0
M  V30 5760 H 566.798 5.8755 0.0768097 0
M  V30 5761 H 568.322 6.024 0.997336 0
M  V30 5762 H 569.736 5.59864 -1.23392 0
M  V30 5763 H 568.133 5.64957 -2.02346 0
M  V30 5764 H 569.203 4.26483 -2.30739 0
M  V30 5765 N 570.547 0.616602 1.45037 0
M  V30 5766 C 571.795 0.115103 2.01772 0
M  V30 5767 C 572.116 -1.2622 1.48639 0
M  V30 5768 O 571.386 -1.83563 0.684199 0
M  V30 5769 H 569.966 0.0395607 0.745952 0
M  V30 5770 H 572.628 0.800032 1.77723 0
M  V30 5771 H 571.724 0.0717274 3.12018 0
M  V30 5772 N 572.025 -1.5352 0.356285 0
M  V30 5773 C 572.955 -2.28372 -0.486661 0
M  V30 5774 C 573.936 -1.30432 -1.09185 0
M  V30 5775 O 575.121 -1.59291 -1.11085 0
M  V30 5776 C 572.251 -3.06604 -1.63129 0
M  V30 5777 C 571.205 -4.12154 -1.15381 0
M  V30 5778 C 570.531 -4.78415 -2.38796 0
M  V30 5779 C 571.831 -5.21724 -0.245179 0
M  V30 5780 H 573.525 -2.99083 0.137797 0
M  V30 5781 H 571.071 -1.43841 0.0677134 0
M  V30 5782 H 573.024 -3.57712 -2.22755 0
M  V30 5783 H 571.748 -2.33568 -2.28284 0
M  V30 5784 H 570.407 -3.61978 -0.580294 0
M  V30 5785 H 570.055 -4.01959 -3.02387 0
M  V30 5786 H 569.755 -5.49734 -2.07524 0
M  V30 5787 H 571.279 -5.32313 -2.99125 0
M  V30 5788 H 572.693 -5.68391 -0.748646 0
M  V30 5789 H 571.09 -6.00095 -0.0237608 0
M  V30 5790 H 572.16 -4.79596 0.715229 0
M  V30 5791 N 573.503 -0.0852151 -1.57369 0
M  V30 5792 C 574.751 0.579658 -1.93609 0
M  V30 5793 C 575.072 1.69332 -0.967043 0
M  V30 5794 O 574.342 1.95892 -0.0174215 0
M  V30 5795 H 572.922 0.217113 -0.714752 0
M  V30 5796 H 575.584 -0.146226 -1.94351 0
M  V30 5797 H 574.68 0.996276 -2.95771 0
M  V30 5798 N 574.981 1.5647 0.188427 0
M  V30 5799 C 576.392 1.70864 0.752494 0
M  V30 5800 C 576.743 0.692905 1.83557 0
M  V30 5801 O 575.868 -0.149307 2.15884 0
M  V30 5802 C 576.463 3.09789 1.37173 0
M  V30 5803 C 575.022 3.25925 1.88281 0
M  V30 5804 C 574.169 2.66817 0.755259 0
M  V30 5805 H 577.12 1.58657 -0.0367408 0
M  V30 5806 H 577.141 3.07489 2.24122 0
M  V30 5807 H 576.653 3.83693 0.583219 0
M  V30 5808 H 574.754 2.56948 2.6983 0
M  V30 5809 H 574.867 4.33498 2.04001 0
M  V30 5810 H 573.231 2.2617 1.17128 0
M  V30 5811 H 574.014 3.43294 -0.0211237 0
M  V30 5812 N 576.459 -0.456382 1.50847 0
M  V30 5813 C 577.389 -1.56025 1.73719 0
M  V30 5814 C 578.37 -1.5967 0.586473 0
M  V30 5815 O 579.555 -1.75702 0.827185 0
M  V30 5816 C 576.685 -2.94251 1.84483 0
M  V30 5817 C 575.639 -3.05471 2.99786 0
M  V30 5818 C 574.965 -4.45489 2.95709 0
M  V30 5819 C 576.265 -2.81318 4.40065 0
M  V30 5820 H 577.959 -1.37138 2.66146 0
M  V30 5821 H 575.505 -0.658299 1.28072 0
M  V30 5822 H 577.458 -3.71417 1.99067 0
M  V30 5823 H 576.182 -3.14328 0.886891 0
M  V30 5824 H 574.841 -2.30741 2.84876 0
M  V30 5825 H 574.489 -4.62505 1.97732 0
M  V30 5826 H 574.189 -4.53929 3.73125 0
M  V30 5827 H 575.713 -5.24655 3.12362 0
M  V30 5828 H 577.127 -3.48226 4.55425 0
M  V30 5829 H 575.524 -3.01188 5.19043 0
M  V30 5830 H 576.594 -1.7706 4.51418 0
M  V30 5831 N 577.937 -1.40673 -0.710563 0
M  V30 5832 C 578.887 -1.37812 -1.81636 0
M  V30 5833 C 579.871 -0.254853 -1.58869 0
M  V30 5834 O 581.063 -0.494356 -1.69956 0
M  V30 5835 C 578.192 -1.24802 -3.19811 0
M  V30 5836 C 577.278 -2.41931 -3.48325 0
M  V30 5837 N 577.669 -3.67411 -3.47625 0
M  V30 5838 C 575.967 -2.35419 -3.78806 0
M  V30 5839 C 576.668 -4.45008 -3.74623 0
M  V30 5840 N 575.644 -3.74916 -3.93623 0
M  V30 5841 H 579.446 -2.32766 -1.79436 0
M  V30 5842 H 576.96 -1.34516 -0.909909 0
M  V30 5843 H 578.957 -1.20835 -3.99004 0
M  V30 5844 H 577.617 -0.308202 -3.23234 0
M  V30 5845 H 578.628 -4.00503 -3.28356 0
M  V30 5846 H 575.305 -1.4983 -3.89689 0
M  V30 5847 H 576.695 -5.53884 -3.80344 0
M  V30 5848 N 579.415 0.9433 -1.26252 0
M  V30 5849 C 580.643 1.72367 -1.14443 0
M  V30 5850 C 581.058 1.86392 0.300572 0
M  V30 5851 O 580.415 1.36978 1.20596 0
M  V30 5852 C 580.466 3.13155 -1.806 0
M  V30 5853 O 580.187 2.99803 -3.19452 0
M  V30 5854 C 581.688 4.07417 -1.74717 0
M  V30 5855 H 578.908 0.539758 -0.398626 0
M  V30 5856 H 581.452 1.18268 -1.66832 0
M  V30 5857 H 579.607 3.64162 -1.32154 0
M  V30 5858 H 580.021 3.88697 -3.52158 0
M  V30 5859 H 581.495 5.03773 -2.25647 0
M  V30 5860 H 581.972 4.3337 -0.713244 0
M  V30 5861 H 582.578 3.6233 -2.22704 0
M  V30 5862 N 580.893 1.08022 1.14757 0
M  V30 5863 C 581.856 0.71048 2.1791 0
M  V30 5864 C 582.856 -0.252731 1.58801 0
M  V30 5865 O 584.046 -0.0327915 1.74169 0
M  V30 5866 C 581.178 0.0483203 3.40866 0
M  V30 5867 H 582.371 1.62384 2.52134 0
M  V30 5868 H 579.924 0.877595 1.29337 0
M  V30 5869 H 580.659 -0.876959 3.12218 0
M  V30 5870 H 580.444 0.741189 3.85031 0
M  V30 5871 H 581.934 -0.195471 4.17142 0
M  V30 5872 N 582.371 -1.3172 0.865308 0
M  V30 5873 C 583.618 -1.96876 0.473931 0
M  V30 5874 C 583.946 -1.68425 -0.972786 0
M  V30 5875 O 583.201 -0.970742 -1.69927 0
M  V30 5876 C 583.5 -3.5102 0.672283 0
M  V30 5877 C 583.166 -3.9948 2.09108 0
M  V30 5878 C 581.828 -4.12425 2.4791 0
M  V30 5879 C 584.18 -4.2503 3.0166 0
M  V30 5880 C 581.508 -4.48267 3.78515 0
M  V30 5881 C 583.86 -4.62335 4.31774 0
M  V30 5882 C 582.524 -4.73486 4.70497 0
M  V30 5883 H 581.794 -0.72042 0.173424 0
M  V30 5884 H 584.441 -1.56937 1.0974 0
M  V30 5885 H 582.746 -3.91785 -0.034356 0
M  V30 5886 H 584.443 -3.99475 0.349353 0
M  V30 5887 H 581.033 -3.89898 1.77981 0
M  V30 5888 H 585.217 -4.14529 2.7291 0
M  V30 5889 H 580.473 -4.55097 4.08285 0
M  V30 5890 H 584.647 -4.81058 5.03543 0
M  V30 5891 H 582.274 -5.01016 5.71741 0
M  V30 5892 N 583.85 -0.624285 -1.44708 0
M  V30 5893 C 585.127 -0.0572781 -1.95516 0
M  V30 5894 C 585.507 1.41516 -1.56641 0
M  V30 5895 O 584.855 2.12614 -0.837111 0
M  V30 5896 C 585.065 -0.272944 -3.47931 0
M  V30 5897 C 586.413 -0.162529 -4.24289 0
M  V30 5898 O 587.437 -0.203946 -3.55616 0
M  V30 5899 O 586.296 -0.0616847 -5.46465 0
M  V30 5900 H 583.389 0.0262219 -0.826584 0
M  V30 5901 H 585.936 -0.695512 -1.54793 0
M  V30 5902 H 584.707 -1.29492 -3.69253 0
M  V30 5903 H 584.331 0.399756 -3.95585 0
M  V30 5904 N 585.328 1.53329 -0.364422 0
M  V30 5905 C 586.576 2.00842 0.225189 0
M  V30 5906 C 586.897 1.25345 1.49378 0
M  V30 5907 O 586.167 0.366396 1.92443 0
M  V30 5908 H 584.747 0.742009 0.0862027 0
M  V30 5909 H 587.409 1.8863 -0.490389 0
M  V30 5910 H 586.505 3.08795 0.452987 0
M  V30 5911 N 586.806 0.0935595 1.57322 0
M  V30 5912 C 588.222 -0.263091 1.57417 0
M  V30 5913 C 588.422 -1.68526 1.1046 0
M  V30 5914 O 587.478 -2.40139 0.780357 0
M  V30 5915 C 588.791 -0.0529201 3.00653 0
M  V30 5916 C 590.339 -0.120788 3.12767 0
M  V30 5917 C 590.814 0.0613707 4.57959 0
M  V30 5918 N 592.305 0.00648534 4.632 0
M  V30 5919 C 593.04 0.122699 5.73269 0
M  V30 5920 N 592.536 0.29366 6.92177 0
M  V30 5921 N 594.329 0.0640787 5.62063 0
M  V30 5922 H 586.48 1.02277 1.86154 0
M  V30 5923 H 588.743 0.4007 0.859153 0
M  V30 5924 H 588.449 0.929279 3.39201 0
M  V30 5925 H 588.323 -0.795899 3.68708 0
M  V30 5926 H 590.71 -1.09349 2.74093 0
M  V30 5927 H 590.791 0.653656 2.47307 0
M  V30 5928 H 590.435 1.03093 4.97327 0
M  V30 5929 H 590.365 -0.732748 5.21477 0
M  V30 5930 H 592.856 -0.123173 3.77699 0
M  V30 5931 H 593.169 0.37389 7.71895 0
M  V30 5932 H 591.514 0.329307 6.94219 0
M  V30 5933 H 594.705 -0.0683396 4.6805 0
M  V30 5934 H 594.878 0.158097 6.47807 0
M  V30 5935 N 588.284 -1.56567 -0.180126 0
M  V30 5936 C 589.532 -1.81133 -0.896392 0
M  V30 5937 C 589.853 -0.669114 -1.83161 0
M  V30 5938 O 589.123 0.311616 -1.93406 0
M  V30 5939 H 587.703 -0.668172 -0.333999 0
M  V30 5940 H 590.365 -1.94048 -0.182051 0
M  V30 5941 H 589.461 -2.74854 -1.47857 0
M  V30 5942 N 589.762 0.448376 -1.51087 0
M  V30 5943 C 590.71 1.56407 -1.72161 0
M  V30 5944 C 591.704 1.58878 -0.587721 0
M  V30 5945 O 592.91 1.62755 -0.768822 0
M  V30 5946 H 589.285 0.519423 -0.543786 0
M  V30 5947 H 591.256 1.35803 -2.65707 0
M  V30 5948 C 590.005 2.94163 -1.85373 0
M  V30 5949 H 589.328 2.9299 -2.72024 0
M  V30 5950 H 590.768 3.71625 -2.04135 0
M  V30 5951 C 589.227 3.31317 -0.610803 0
M  V30 5952 O 589.757 4.00985 0.239636 0
M  V30 5953 N 587.963 2.86966 -0.458127 0
M  V30 5954 H 587.51 2.30443 -1.15124 0
M  V30 5955 H 587.468 3.12188 0.372289 0
M  V30 5956 N 591.24 1.41047 0.703093 0
M  V30 5957 C 592.203 1.42036 1.79884 0
M  V30 5958 C 593.203 0.312153 1.57741 0
M  V30 5959 O 594.393 0.571672 1.64553 0
M  V30 5960 C 591.525 1.22437 3.18154 0
M  V30 5961 H 592.718 2.39572 1.80403 0
M  V30 5962 H 590.271 1.27079 0.909977 0
M  V30 5963 H 591.006 0.257112 3.23279 0
M  V30 5964 H 590.791 2.02723 3.35627 0
M  V30 5965 H 592.281 1.25946 3.98155 0
M  V30 5966 N 592.718 -0.936591 1.26751 0
M  V30 5967 C 593.948 -1.71509 1.15188 0
M  V30 5968 C 594.356 -1.86885 -0.295037 0
M  V30 5969 O 593.699 -1.37915 -1.21347 0
M  V30 5970 C 593.761 -3.13853 1.75318 0
M  V30 5971 C 593.425 -3.21845 3.24445 0
M  V30 5972 C 594.422 -3.04771 4.21201 0
M  V30 5973 C 592.107 -3.45088 3.64992 0
M  V30 5974 C 594.101 -3.10816 5.56482 0
M  V30 5975 C 591.788 -3.50767 5.00405 0
M  V30 5976 C 592.786 -3.33648 5.9596 0
M  V30 5977 O 592.474 -3.39045 7.28906 0
M  V30 5978 H 592.206 -0.543658 0.401761 0
M  V30 5979 H 594.76 -1.18234 1.67958 0
M  V30 5980 H 592.99 -3.6857 1.17016 0
M  V30 5981 H 594.679 -3.73634 1.58596 0
M  V30 5982 H 595.445 -2.86665 3.91214 0
M  V30 5983 H 591.324 -3.57467 2.91098 0
M  V30 5984 H 594.868 -2.97372 6.31043 0
M  V30 5985 H 590.765 -3.68396 5.30052 0
M  V30 5986 H 591.533 -3.55558 7.37238 0
M  V30 5987 N 594.196 -1.08629 -1.14182 0
M  V30 5988 C 595.424 -0.838889 -1.8913 0
M  V30 5989 C 595.839 0.609153 -1.78703 0
M  V30 5990 O 595.196 1.41876 -1.14794 0
M  V30 5991 C 595.247 -1.25477 -3.39025 0
M  V30 5992 O 594.968 -2.64601 -3.49167 0
M  V30 5993 C 596.469 -1.03856 -4.30963 0
M  V30 5994 H 593.689 -0.302377 -0.599007 0
M  V30 5995 H 596.233 -1.44615 -1.44592 0
M  V30 5996 H 594.388 -0.691571 -3.81177 0
M  V30 5997 H 594.802 -2.81922 -4.42289 0
M  V30 5998 H 596.276 -1.37892 -5.345 0
M  V30 5999 H 596.753 0.0242522 -4.39193 0
M  V30 6000 H 597.359 -1.58731 -3.94569 0
M  V30 6001 N 595.674 1.31259 -0.872281 0
M  V30 6002 C 596.899 2.0133 -0.498099 0
M  V30 6003 C 597.324 1.65031 0.902568 0
M  V30 6004 O 596.682 0.860164 1.59596 0
M  V30 6005 C 596.73 3.54411 -0.665205 0
M  V30 6006 O 595.834 4.11347 0.294473 0
M  V30 6007 H 595.175 0.633844 -0.197832 0
M  V30 6008 H 597.705 1.67402 -1.17633 0
M  V30 6009 H 597.715 4.04147 -0.559373 0
M  V30 6010 H 596.39 3.80171 -1.68651 0
M  V30 6011 H 594.967 3.72624 0.143403 0
M  V30 6012 N 597.152 0.631951 1.44375 0
M  V30 6013 C 598.082 -0.0593243 2.33425 0
M  V30 6014 C 599.063 -0.833964 1.48253 0
M  V30 6015 O 600.248 -0.799682 1.76971 0
M  V30 6016 C 597.378 -1.04096 3.31333 0
M  V30 6017 C 596.332 -0.377899 4.26328 0
M  V30 6018 C 595.658 -1.4695 5.14111 0
M  V30 6019 C 596.958 0.716371 5.17364 0
M  V30 6020 H 598.652 0.684287 2.91475 0
M  V30 6021 H 596.198 0.330518 1.40156 0
M  V30 6022 H 598.151 -1.53331 3.92514 0
M  V30 6023 H 596.875 -1.81547 2.71493 0
M  V30 6024 H 595.534 0.0938054 3.6648 0
M  V30 6025 H 595.182 -2.2349 4.50623 0
M  V30 6026 H 594.882 -1.03121 5.78481 0
M  V30 6027 H 596.406 -1.96363 5.78164 0
M  V30 6028 H 597.82 0.307089 5.72477 0
M  V30 6029 H 596.217 1.07784 5.90341 0
M  V30 6030 H 597.287 1.58316 4.58327 0
M  V30 6031 N 598.631 -1.53133 0.372548 0
M  V30 6032 C 599.878 -2.01356 -0.214959 0
M  V30 6033 C 600.206 -1.2596 -1.48204 0
M  V30 6034 O 599.461 -0.343511 -1.92662 0
M  V30 6035 C 599.76 -3.53206 -0.545938 0
M  V30 6036 C 599.426 -4.46511 0.627624 0
M  V30 6037 C 598.088 -4.71737 0.949615 0
M  V30 6038 C 600.44 -5.01666 1.41353 0
M  V30 6039 C 597.768 -5.4937 2.05936 0
M  V30 6040 C 600.12 -5.80511 2.51375 0
M  V30 6041 C 598.784 -6.04022 2.84101 0
M  V30 6042 H 598.054 -0.736813 -0.078659 0
M  V30 6043 H 600.701 -1.84682 0.506447 0
M  V30 6044 H 599.006 -3.67864 -1.34845 0
M  V30 6045 H 600.703 -3.87997 -1.01287 0
M  V30 6046 H 597.293 -4.27029 0.366635 0
M  V30 6047 H 601.477 -4.82117 1.17802 0
M  V30 6048 H 596.733 -5.65803 2.31682 0
M  V30 6049 H 600.907 -6.22255 3.12684 0
M  V30 6050 H 598.534 -6.63962 3.70214 0
M  V30 6051 N 600.109 -0.101901 -1.5727 0
M  V30 6052 C 601.039 0.851544 -2.17419 0
M  V30 6053 C 602.02 1.28942 -1.10941 0
M  V30 6054 O 603.205 1.35509 -1.39107 0
M  V30 6055 C 600.335 2.10816 -2.75996 0
M  V30 6056 C 599.289 1.80867 -3.87906 0
M  V30 6057 C 598.615 3.13413 -4.33216 0
M  V30 6058 C 599.915 1.0903 -5.10793 0
M  V30 6059 H 601.609 0.350381 -2.97343 0
M  V30 6060 H 599.155 0.16709 -1.43027 0
M  V30 6061 H 601.108 2.77959 -3.16729 0
M  V30 6062 H 599.832 2.63227 -1.93337 0
M  V30 6063 H 598.491 1.16119 -3.47724 0
M  V30 6064 H 598.139 3.63725 -3.47438 0
M  V30 6065 H 597.839 2.94155 -5.08671 0
M  V30 6066 H 599.363 3.81704 -4.76586 0
M  V30 6067 H 600.777 1.66295 -5.48652 0
M  V30 6068 H 599.174 0.99927 -5.91722 0
M  V30 6069 H 600.244 0.0741704 -4.84843 0
M  V30 6070 N 601.587 1.56661 0.17182 0
M  V30 6071 C 602.864 1.72838 0.915778 0
M  V30 6072 C 603.244 0.66316 2.00413 0
M  V30 6073 O 602.592 -0.322123 2.26218 0
M  V30 6074 C 602.802 3.16019 1.48097 0
M  V30 6075 C 604.15 3.76962 1.95408 0
M  V30 6076 O 605.174 3.19294 1.57892 0
M  V30 6077 O 604.033 4.78219 2.64516 0
M  V30 6078 H 601.127 0.705797 0.431021 0
M  V30 6079 H 603.673 1.68947 0.159689 0
M  V30 6080 H 602.445 3.85031 0.697618 0
M  V30 6081 H 602.068 3.24234 2.30126 0
M  V30 6082 N 603.065 -0.440357 1.51323 0
M  V30 6083 C 604.29 -1.21716 1.67928 0
M  V30 6084 C 604.715 -1.84328 0.374826 0
M  V30 6085 O 604.073 -1.68675 -0.664706 0
M  V30 6086 C 604.121 -2.27914 2.79442 0
M  V30 6087 O 603.225 -3.33325 2.42834 0
M  V30 6088 H 602.566 -0.35674 0.560029 0
M  V30 6089 H 605.096 -0.520417 1.97871 0
M  V30 6090 H 605.106 -2.72746 3.03436 0
M  V30 6091 H 603.781 -1.8172 3.741 0
M  V30 6092 H 602.358 -2.9399 2.294 0
M  V30 6093 N 604.543 -1.41418 -0.695603 0
M  V30 6094 C 605.475 -1.39195 -1.82092 0
M  V30 6095 C 606.488 -0.294132 -1.60121 0
M  V30 6096 O 607.677 -0.555854 -1.69625 0
M  V30 6097 C 604.777 -1.14828 -3.18854 0
M  V30 6098 C 603.95 -2.36649 -3.67853 0
M  V30 6099 C 603.009 -2.08139 -4.83285 0
M  V30 6100 O 602.035 -2.81177 -4.94902 0
M  V30 6101 N 603.237 -1.07162 -5.70523 0
M  V30 6102 H 606.002 -2.36185 -1.84491 0
M  V30 6103 H 603.563 -1.3603 -0.877923 0
M  V30 6104 H 605.555 -0.937075 -3.93702 0
M  V30 6105 H 604.125 -0.264358 -3.1148 0
M  V30 6106 H 603.345 -2.73472 -2.83913 0
M  V30 6107 H 604.633 -3.17816 -3.97329 0
M  V30 6108 H 604.031 -0.467124 -5.63768 0
M  V30 6109 H 602.588 -0.920311 -6.4527 0
M  V30 6110 N 606.021 0.929856 -1.27246 0
M  V30 6111 C 607.267 1.6798 -1.13625 0
M  V30 6112 C 607.6 1.91586 0.317589 0
M  V30 6113 O 606.875 1.50467 1.23247 0
M  V30 6114 C 607.158 3.04766 -1.91806 0
M  V30 6115 C 607.011 2.88415 -3.45162 0
M  V30 6116 C 608.33 4.05063 -1.72082 0
M  V30 6117 H 605.449 0.609632 -0.414147 0
M  V30 6118 H 608.091 1.0792 -1.56376 0
M  V30 6119 H 606.241 3.56034 -1.55474 0
M  V30 6120 H 607.913 2.44282 -3.91311 0
M  V30 6121 H 606.156 2.23802 -3.71611 0
M  V30 6122 H 606.827 3.85482 -3.95105 0
M  V30 6123 H 609.303 3.62798 -2.03757 0
M  V30 6124 H 608.179 4.98765 -2.29182 0
M  V30 6125 H 608.44 4.37021 -0.668206 0
M  V30 6126 N 607.499 1.09233 1.13605 0
M  V30 6127 C 608.745 0.828385 1.8511 0
M  V30 6128 C 609.078 -0.64437 1.83198 0
M  V30 6129 O 608.353 -1.47428 1.26867 0
M  V30 6130 C 608.636 1.36167 3.33363 0
M  V30 6131 C 608.489 2.90038 3.438 0
M  V30 6132 C 609.808 0.993819 4.28732 0
M  V30 6133 H 606.927 0.30239 0.672108 0
M  V30 6134 H 609.569 1.35339 1.33355 0
M  V30 6135 H 607.719 0.9151 3.77569 0
M  V30 6136 H 609.391 3.43128 3.08319 0
M  V30 6137 H 607.634 3.27271 2.84739 0
M  V30 6138 H 608.305 3.22428 4.48045 0
M  V30 6139 H 610.781 1.37893 3.92587 0
M  V30 6140 H 609.657 1.39403 5.30903 0
M  V30 6141 H 609.918 -0.0982206 4.41991 0
M  V30 6142 N 608.977 -1.30795 0.87923 0
M  V30 6143 C 609.924 -2.28282 0.339968 0
M  V30 6144 C 610.894 -1.56134 -0.566685 0
M  V30 6145 O 612.079 -1.84231 -0.496338 0
M  V30 6146 C 609.219 -3.42225 -0.444501 0
M  V30 6147 C 608.332 -4.29204 0.490717 0
M  V30 6148 C 607.467 -5.30302 -0.308784 0
M  V30 6149 C 606.506 -6.08929 0.622272 0
M  V30 6150 N 605.643 -7.01957 -0.14155 0
M  V30 6151 H 610.483 -2.73794 1.17647 0
M  V30 6152 H 608.02 -1.34682 0.591527 0
M  V30 6153 H 609.978 -4.07038 -0.915186 0
M  V30 6154 H 608.608 -2.97799 -1.24562 0
M  V30 6155 H 607.66 -3.6475 1.07988 0
M  V30 6156 H 608.972 -4.84045 1.20425 0
M  V30 6157 H 608.126 -6.00835 -0.841575 0
M  V30 6158 H 606.865 -4.7614 -1.05556 0
M  V30 6159 H 605.87 -5.37278 1.16674 0
M  V30 6160 H 607.095 -6.65178 1.36804 0
M  V30 6161 H 605.041 -6.50192 -0.870966 0
M  V30 6162 H 604.958 -7.54261 0.51246 0
M  V30 6163 H 606.226 -7.76741 -0.655271 0
M  V30 6164 N 610.455 -0.639598 -1.44038 0
M  V30 6165 C 611.701 -0.156248 -2.02799 0
M  V30 6166 C 612.056 1.21145 -1.49471 0
M  V30 6167 O 611.349 1.79406 -0.672608 0
M  V30 6168 C 611.543 -0.0925348 -3.5728 0
M  V30 6169 C 611.372 -1.45252 -4.25596 0
M  V30 6170 C 610.142 -2.04145 -4.62226 0
M  V30 6171 C 612.34 -2.38812 -4.55492 0
M  V30 6172 N 610.322 -3.3329 -5.15549 0
M  V30 6173 C 611.693 -3.52578 -5.09989 0
M  V30 6174 C 613.748 -2.37785 -4.3745 0
M  V30 6175 C 612.451 -4.65525 -5.48342 0
M  V30 6176 C 614.477 -3.49802 -4.76857 0
M  V30 6177 C 613.839 -4.62292 -5.31475 0
M  V30 6178 H 609.938 -0.101292 -0.775412 0
M  V30 6179 H 612.522 -0.844938 -1.75411 0
M  V30 6180 H 610.693 0.565459 -3.84262 0
M  V30 6181 H 612.425 0.400426 -4.02714 0
M  V30 6182 H 609.18 -1.56999 -4.4682 0
M  V30 6183 H 609.604 -3.9934 -5.46678 0
M  V30 6184 H 614.246 -1.52061 -3.94509 0
M  V30 6185 H 611.964 -5.51951 -5.90233 0
M  V30 6186 H 615.55 -3.50193 -4.64603 0
M  V30 6187 H 614.43 -5.47536 -5.61403 0
M  V30 6188 N 611.933 1.52934 -0.380664 0
M  V30 6189 C 612.881 2.27727 0.47361 0
M  V30 6190 C 613.875 1.31288 1.0705 0
M  V30 6191 O 615.081 1.4886 1.01197 0
M  V30 6192 H 611.456 0.732189 0.171475 0
M  V30 6193 H 613.427 2.97864 -0.178785 0
M  V30 6194 C 612.176 3.0904 1.59341 0
M  V30 6195 H 611.499 3.831 1.14343 0
M  V30 6196 H 612.939 3.64527 2.16555 0
M  V30 6197 C 611.398 2.20813 2.54447 0
M  V30 6198 O 611.928 1.82907 3.57642 0
M  V30 6199 N 610.134 1.85145 2.23986 0
M  V30 6200 H 609.681 2.16169 1.40103 0
M  V30 6201 H 609.639 1.26402 2.87871 0
M  V30 6202 N 613.412 0.11024 1.57214 0
M  V30 6203 C 614.661 -0.549638 1.94067 0
M  V30 6204 C 614.974 -1.68388 0.995234 0
M  V30 6205 O 616.18 -2.40593 1.25807 0
M  V30 6206 C 614.636 -1.02912 3.44873 0
M  V30 6207 C 614.244 0.0761861 4.47935 0
M  V30 6208 C 615.988 -1.66087 3.9066 0
M  V30 6209 C 613.895 -0.419502 5.8991 0
M  V30 6210 H 612.825 -0.209092 0.724428 0
M  V30 6211 H 615.476 0.188683 1.82527 0
M  V30 6212 H 613.858 -1.82159 3.51616 0
M  V30 6213 H 615.032 0.852185 4.52851 0
M  V30 6214 H 613.347 0.614052 4.11847 0
M  V30 6215 H 615.944 -2.04272 4.94143 0
M  V30 6216 H 616.287 -2.53591 3.30148 0
M  V30 6217 H 616.82 -0.933959 3.86681 0
M  V30 6218 H 613.559 0.419277 6.54158 0
M  V30 6219 H 613.079 -1.16217 5.88433 0
M  V30 6220 H 614.758 -0.883577 6.40938 0
M  V30 6221 N 614.89 -1.56749 -0.16351 0
M  V30 6222 C 615.8 -2.00255 -1.2221 0
M  V30 6223 C 616.816 -0.915194 -1.47987 0
M  V30 6224 O 617.992 -1.22342 -1.59982 0
M  V30 6225 C 615.057 -2.36035 -2.53946 0
M  V30 6226 C 614.118 -3.58637 -2.35962 0
M  V30 6227 C 613.351 -3.92701 -3.61416 0
M  V30 6228 O 613.574 -3.27632 -4.66919 0
M  V30 6229 O 612.508 -4.86019 -3.55062 0
M  V30 6230 H 616.334 -2.90586 -0.882794 0
M  V30 6231 H 613.919 -1.44721 -0.370978 0
M  V30 6232 H 615.801 -2.59982 -3.31643 0
M  V30 6233 H 614.476 -1.48863 -2.8744 0
M  V30 6234 H 613.383 -3.39898 -1.5627 0
M  V30 6235 H 614.716 -4.46374 -2.0739 0
M  V30 6236 N 616.368 0.432326 -1.51554 0
M  V30 6237 C 617.645 1.19288 -1.55015 0
M  V30 6238 C 618.025 2.08701 -0.317375 0
M  V30 6239 O 617.373 2.17602 0.697243 0
M  V30 6240 C 617.583 1.99037 -2.86679 0
M  V30 6241 C 618.931 2.55907 -3.38817 0
M  V30 6242 O 619.955 2.09243 -2.88263 0
M  V30 6243 O 618.814 3.41029 -4.27038 0
M  V30 6244 H 615.908 0.543369 -0.623441 0
M  V30 6245 H 618.454 0.440988 -1.6387 0
M  V30 6246 H 617.226 1.33397 -3.6786 0
M  V30 6247 H 616.849 2.81281 -2.8101 0
M  V30 6248 N 617.846 1.41785 0.688094 0
M  V30 6249 C 618.809 1.43936 1.78368 0
M  V30 6250 C 619.809 0.328866 1.57401 0
M  V30 6251 O 620.999 0.589093 1.63937 0
M  V30 6252 C 618.131 1.25804 3.16838 0
M  V30 6253 H 619.324 2.41472 1.77852 0
M  V30 6254 H 616.877 1.28037 0.896448 0
M  V30 6255 H 617.612 0.291386 3.22988 0
M  V30 6256 H 617.397 2.06272 3.33458 0
M  V30 6257 H 618.887 1.30162 3.96797 0
M  V30 6258 N 619.324 -0.923095 1.27737 0
M  V30 6259 C 620.573 -1.66581 1.13727 0
M  V30 6260 C 620.886 -1.9304 -0.315433 0
M  V30 6261 O 622.092 -2.65309 -0.57651 0
M  V30 6262 C 620.548 -3.00047 1.98745 0
M  V30 6263 C 620.156 -2.8127 3.48699 0
M  V30 6264 C 621.9 -3.77887 1.93395 0
M  V30 6265 C 619.807 -4.1032 4.25901 0
M  V30 6266 H 618.737 -0.624834 0.422017 0
M  V30 6267 H 621.388 -1.02514 1.52194 0
M  V30 6268 H 619.77 -3.65197 1.53125 0
M  V30 6269 H 620.944 -2.24859 4.02213 0
M  V30 6270 H 619.259 -2.16854 3.55476 0
M  V30 6271 H 621.856 -4.73526 2.48348 0
M  V30 6272 H 622.199 -4.06264 0.908605 0
M  V30 6273 H 622.732 -3.19541 2.36935 0
M  V30 6274 H 619.471 -3.8712 5.28978 0
M  V30 6275 H 618.991 -4.66377 3.77163 0
M  V30 6276 H 620.67 -4.78648 4.35321 0
M  V30 6277 N 620.802 -1.09834 -1.13024 0
M  V30 6278 C 622.218 -0.828875 -1.36388 0
M  V30 6279 C 622.418 0.554756 -1.93713 0
M  V30 6280 O 621.474 1.30882 -2.15931 0
M  V30 6281 C 622.787 -1.92352 -2.3113 0
M  V30 6282 C 624.335 -1.95124 -2.44735 0
M  V30 6283 C 624.81 -3.03745 -3.42787 0
M  V30 6284 N 626.301 -3.03012 -3.5034 0
M  V30 6285 C 627.036 -3.83699 -4.26101 0
M  V30 6286 N 626.532 -4.74306 -5.04981 0
M  V30 6287 N 628.325 -3.71942 -4.21445 0
M  V30 6288 H 620.476 -1.99029 -0.74169 0
M  V30 6289 H 622.739 -0.864557 -0.388903 0
M  V30 6290 H 622.445 -2.91906 -1.96172 0
M  V30 6291 H 622.319 -1.80536 -3.3119 0
M  V30 6292 H 624.706 -0.962069 -2.78977 0
M  V30 6293 H 624.787 -2.11018 -1.44586 0
M  V30 6294 H 624.431 -4.02878 -3.09276 0
M  V30 6295 H 624.361 -2.85094 -4.42752 0
M  V30 6296 H 626.852 -2.37352 -2.94062 0
M  V30 6297 H 627.165 -5.32446 -5.60108 0
M  V30 6298 H 625.51 -4.78339 -5.04199 0
M  V30 6299 H 628.701 -3.00513 -3.589 0
M  V30 6300 H 628.874 -4.35062 -4.80235 0
M  V30 6301 N 622.28 1.30327 -0.886154 0
M  V30 6302 C 623.243 2.26376 -0.358687 0
M  V30 6303 C 624.243 1.52845 0.499498 0
M  V30 6304 O 625.433 1.71483 0.306485 0
M  V30 6305 C 622.565 3.37379 0.488726 0
M  V30 6306 H 623.758 2.74547 -1.20681 0
M  V30 6307 H 621.311 1.41536 -0.663113 0
M  V30 6308 H 622.046 2.94526 1.35739 0
M  V30 6309 H 621.831 3.91897 -0.126003 0
M  V30 6310 H 623.321 4.08868 0.84952 0
M  V30 6311 N 623.758 0.647228 1.43697 0
M  V30 6312 C 624.988 0.16551 2.05936 0
M  V30 6313 C 625.396 -1.17164 1.48557 0
M  V30 6314 O 624.739 -1.73307 0.60914 0
M  V30 6315 C 624.801 -0.00648082 3.59499 0
M  V30 6316 C 624.465 1.25503 4.39429 0
M  V30 6317 C 625.462 2.18241 4.71876 0
M  V30 6318 C 623.147 1.49494 4.79538 0
M  V30 6319 C 625.141 3.33268 5.43333 0
M  V30 6320 C 622.828 2.64815 5.50742 0
M  V30 6321 C 623.826 3.56528 5.82561 0
M  V30 6322 O 623.514 4.69836 6.52311 0
M  V30 6323 H 623.246 0.0844124 0.670709 0
M  V30 6324 H 625.8 0.88638 1.8529 0
M  V30 6325 H 624.03 -0.782661 3.78697 0
M  V30 6326 H 625.719 -0.444794 4.03456 0
M  V30 6327 H 626.485 2.00946 4.41413 0
M  V30 6328 H 622.364 0.789912 4.54182 0
M  V30 6329 H 625.908 4.04874 5.68087 0
M  V30 6330 H 621.805 2.82047 5.8062 0
M  V30 6331 H 622.573 4.69024 6.70789 0
M  V30 6332 N 625.236 -1.5273 0.388769 0
M  V30 6333 C 626.199 -2.25043 -0.434544 0
M  V30 6334 C 627.199 -1.26661 -0.990644 0
M  V30 6335 O 628.389 -1.50762 -0.872731 0
M  V30 6336 C 625.521 -3.00507 -1.60961 0
M  V30 6337 H 626.714 -2.99242 0.198549 0
M  V30 6338 H 624.267 -1.55664 0.140875 0
M  V30 6339 H 625.002 -2.30607 -2.28015 0
M  V30 6340 H 624.787 -3.72716 -1.21757 0
M  V30 6341 H 626.277 -3.55413 -2.19251 0
M  V30 6342 N 626.714 -0.118576 -1.57153 0
M  V30 6343 C 627.962 0.538461 -1.94795 0
M  V30 6344 C 628.283 1.67243 -1.00274 0
M  V30 6345 O 627.553 1.95811 -0.0589692 0
M  V30 6346 H 626.133 0.201904 -0.719197 0
M  V30 6347 H 628.795 -0.187418 -1.93997 0
M  V30 6348 H 627.891 0.933315 -2.97818 0
M  V30 6349 N 628.193 1.56834 0.155195 0
M  V30 6350 C 629.103 2.009 1.21146 0
M  V30 6351 C 630.119 0.923029 1.475 0
M  V30 6352 O 631.295 1.23189 1.59331 0
M  V30 6353 C 628.36 2.37378 2.52691 0
M  V30 6354 C 627.421 3.59883 2.34057 0
M  V30 6355 C 626.654 3.94612 3.59329 0
M  V30 6356 O 626.877 3.30104 4.65175 0
M  V30 6357 O 625.811 4.87895 3.52479 0
M  V30 6358 H 629.637 2.9105 0.867371 0
M  V30 6359 H 627.222 1.44916 0.363298 0
M  V30 6360 H 629.104 2.61737 3.3026 0
M  V30 6361 H 627.779 1.50385 2.86646 0
M  V30 6362 H 626.686 3.40722 1.54465 0
M  V30 6363 H 628.019 4.47468 2.0502 0
M  V30 6364 N 629.671 -0.424282 1.51781 0
M  V30 6365 C 630.618 -1.51591 1.74037 0
M  V30 6366 C 631.588 -1.55556 0.582358 0
M  V30 6367 O 632.773 -1.72364 0.818245 0
M  V30 6368 C 629.913 -2.89188 1.8832 0
M  V30 6369 C 629.026 -2.9465 3.1592 0
M  V30 6370 C 628.161 -4.23452 3.20721 0
M  V30 6371 C 627.2 -4.22831 4.42584 0
M  V30 6372 N 626.337 -5.43178 4.44862 0
M  V30 6373 H 631.177 -1.31917 2.67212 0
M  V30 6374 H 628.714 -0.640599 1.32419 0
M  V30 6375 H 630.672 -3.69044 1.94583 0
M  V30 6376 H 629.302 -3.07392 0.985402 0
M  V30 6377 H 628.354 -2.07378 3.18902 0
M  V30 6378 H 629.666 -2.90055 4.05795 0
M  V30 6379 H 628.82 -5.1169 3.25973 0
M  V30 6380 H 627.559 -4.30722 2.28757 0
M  V30 6381 H 626.564 -3.32984 4.37495 0
M  V30 6382 H 627.789 -4.17213 5.35826 0
M  V30 6383 H 625.735 -5.51145 3.55775 0
M  V30 6384 H 625.652 -5.40515 5.28563 0
M  V30 6385 H 626.92 -6.33412 4.54324 0
M  V30 6386 N 631.149 -1.42148 -0.680565 0
M  V30 6387 C 632.395 -1.42521 -1.44277 0
M  V30 6388 C 632.728 -0.0393718 -1.9416 0
M  V30 6389 O 632.003 0.935425 -1.70529 0
M  V30 6390 C 632.286 -2.44475 -2.64394 0
M  V30 6391 C 632.139 -3.92226 -2.20179 0
M  V30 6392 C 633.458 -2.43491 -3.66606 0
M  V30 6393 H 630.577 -0.518985 -0.523282 0
M  V30 6394 H 633.219 -1.73524 -0.773914 0
M  V30 6395 H 631.369 -2.18168 -3.21458 0
M  V30 6396 H 633.041 -4.29493 -1.68327 0
M  V30 6397 H 631.284 -4.0637 -1.5181 0
M  V30 6398 H 631.955 -4.59133 -3.06433 0
M  V30 6399 H 634.431 -2.66872 -3.19247 0
M  V30 6400 H 633.307 -3.16816 -4.4824 0
M  V30 6401 H 633.568 -1.45881 -4.17338 0
M  V30 6402 N 632.627 0.916307 -1.28225 0
M  V30 6403 C 633.904 1.64429 -1.05936 0
M  V30 6404 C 634.284 2.07234 0.402139 0
M  V30 6405 O 633.632 1.81535 1.3877 0
M  V30 6406 C 633.842 2.83773 -2.03159 0
M  V30 6407 C 635.19 3.54852 -2.33164 0
M  V30 6408 O 636.214 2.93918 -2.01223 0
M  V30 6409 O 635.073 4.64663 -2.87664 0
M  V30 6410 H 632.167 0.721221 -0.404683 0
M  V30 6411 H 634.713 0.965838 -1.39534 0
M  V30 6412 H 633.485 2.49217 -3.01673 0
M  V30 6413 H 633.108 3.59333 -1.70192 0
M  V30 6414 N 634.105 1.10431 1.1244 0
M  V30 6415 C 635.516 0.864439 1.65482 0
M  V30 6416 C 635.867 -0.60527 1.8663 0
M  V30 6417 O 634.992 -1.46492 1.59276 0
M  V30 6418 C 635.587 1.56267 3.0061 0
M  V30 6419 C 634.146 1.3695 3.50602 0
M  V30 6420 C 633.293 1.61209 2.25626 0
M  V30 6421 H 636.244 1.26203 0.962209 0
M  V30 6422 H 636.265 1.00166 3.67079 0
M  V30 6423 H 635.777 2.63231 2.85186 0
M  V30 6424 H 633.878 0.321481 3.71211 0
M  V30 6425 H 633.991 2.11143 4.30064 0
M  V30 6426 H 632.355 1.03482 2.32731 0
M  V30 6427 H 633.138 2.69425 2.12756 0
M  V30 6428 N 635.583 -1.29855 0.893053 0
M  V30 6429 C 636.832 -1.95104 0.511597 0
M  V30 6430 C 637.145 -1.71226 -0.945567 0
M  V30 6431 O 638.351 -2.30525 -1.43424 0
M  V30 6432 C 636.807 -3.49374 0.864034 0
M  V30 6433 C 636.415 -3.82061 2.33952 0
M  V30 6434 C 638.159 -4.20894 0.552167 0
M  V30 6435 C 636.066 -5.29546 2.63316 0
M  V30 6436 H 634.996 -0.73029 0.187597 0
M  V30 6437 H 637.647 -1.47682 1.08914 0
M  V30 6438 H 636.029 -3.95413 0.215493 0
M  V30 6439 H 637.203 -3.46904 3.03305 0
M  V30 6440 H 635.518 -3.23665 2.61973 0
M  V30 6441 H 638.115 -5.29435 0.748489 0
M  V30 6442 H 638.458 -4.13178 -0.508924 0
M  V30 6443 H 638.991 -3.80564 1.15825 0
M  V30 6444 H 635.73 -5.4232 3.68197 0
M  V30 6445 H 635.25 -5.65974 1.9858 0
M  V30 6446 H 636.929 -5.97068 2.49236 0
M  V30 6447 N 637.061 -0.65484 -1.43351 0
M  V30 6448 C 638.008 0.0357713 -2.30772 0
M  V30 6449 C 638.978 0.813035 -1.44841 0
M  V30 6450 O 640.163 0.789314 -1.73708 0
M  V30 6451 C 637.303 0.995084 -3.30442 0
M  V30 6452 C 636.416 0.21375 -4.31471 0
M  V30 6453 C 635.551 1.16701 -5.18222 0
M  V30 6454 C 634.59 0.376201 -6.10943 0
M  V30 6455 N 633.727 1.28113 -6.90313 0
M  V30 6456 H 638.567 -0.71559 -2.89281 0
M  V30 6457 H 636.104 -0.364645 -1.42509 0
M  V30 6458 H 638.062 1.5649 -3.86739 0
M  V30 6459 H 636.692 1.7133 -2.7358 0
M  V30 6460 H 635.744 -0.472377 -3.77456 0
M  V30 6461 H 637.056 -0.401103 -4.97185 0
M  V30 6462 H 636.21 1.8074 -5.79153 0
M  V30 6463 H 634.949 1.81577 -4.52638 0
M  V30 6464 H 633.954 -0.277534 -5.49099 0
M  V30 6465 H 635.179 -0.268178 -6.7857 0
M  V30 6466 H 633.125 1.91666 -6.27376 0
M  V30 6467 H 633.042 0.720879 -7.52555 0
M  V30 6468 H 634.31 1.90962 -7.55747 0
M  V30 6469 N 638.539 1.52521 -0.396863 0
M  V30 6470 C 639.816 1.94112 0.240842 0
M  V30 6471 C 640.196 1.33288 1.637 0
M  V30 6472 O 639.544 0.503901 2.22875 0
M  V30 6473 C 639.754 3.48033 0.259567 0
M  V30 6474 C 641.102 4.21822 0.484866 0
M  V30 6475 O 642.126 3.54579 0.339453 0
M  V30 6476 O 640.985 5.41042 0.770412 0
M  V30 6477 H 638.079 0.812973 0.151671 0
M  V30 6478 H 640.625 1.63572 -0.451918 0
M  V30 6479 H 639.397 3.84655 -0.718078 0
M  V30 6480 H 639.02 3.84899 0.996937 0
M  V30 6481 N 640.017 0.126909 1.57088 0
M  V30 6482 C 640.964 -0.82036 2.15728 0
M  V30 6483 C 641.934 -1.25811 1.08447 0
M  V30 6484 O 643.119 -1.33422 1.36393 0
M  V30 6485 C 640.259 -2.06199 2.76724 0
M  V30 6486 C 639.372 -1.67188 3.98337 0
M  V30 6487 C 638.507 -2.86378 4.47393 0
M  V30 6488 C 637.546 -2.43644 5.61519 0
M  V30 6489 N 636.683 -3.55775 6.05284 0
M  V30 6490 H 641.523 -0.313472 2.96347 0
M  V30 6491 H 639.06 -0.14303 1.46403 0
M  V30 6492 H 641.018 -2.78959 3.10222 0
M  V30 6493 H 639.648 -2.54333 1.98782 0
M  V30 6494 H 638.7 -0.842714 3.70948 0
M  V30 6495 H 640.012 -1.31789 4.81075 0
M  V30 6496 H 639.166 -3.67353 4.82842 0
M  V30 6497 H 637.905 -3.25009 3.63621 0
M  V30 6498 H 636.91 -1.61104 5.25667 0
M  V30 6499 H 638.135 -2.06122 6.47063 0
M  V30 6500 H 636.081 -3.94065 5.24451 0
M  V30 6501 H 635.998 -3.24325 6.82898 0
M  V30 6502 H 637.266 -4.37166 6.45373 0
M  V30 6503 N 641.495 -1.56914 -0.146875 0
M  V30 6504 C 642.425 -2.01308 -1.1831 0
M  V30 6505 C 643.406 -0.892664 -1.44795 0
M  V30 6506 O 644.591 -1.16048 -1.55713 0
M  V30 6507 C 641.721 -2.3938 -2.51624 0
M  V30 6508 C 640.675 -3.54608 -2.3966 0
M  V30 6509 C 640.001 -3.78493 -3.77686 0
M  V30 6510 C 641.301 -4.87269 -1.88058 0
M  V30 6511 H 642.995 -2.88123 -0.813964 0
M  V30 6512 H 640.541 -1.38615 -0.3901 0
M  V30 6513 H 642.494 -2.69037 -3.24341 0
M  V30 6514 H 641.218 -1.49502 -2.90373 0
M  V30 6515 H 639.877 -3.25116 -1.69396 0
M  V30 6516 H 639.525 -2.85866 -4.13871 0
M  V30 6517 H 639.225 -4.56039 -3.70543 0
M  V30 6518 H 640.749 -4.10576 -4.51951 0
M  V30 6519 H 642.163 -5.15644 -2.50568 0
M  V30 6520 H 640.56 -5.68622 -1.91805 0
M  V30 6521 H 641.63 -4.77634 -0.836277 0
M  V30 6522 N 642.974 0.416227 -1.52004 0
M  V30 6523 C 644.251 1.17637 -1.56272 0
M  V30 6524 C 644.631 2.08352 -0.339493 0
M  V30 6525 O 643.979 2.1833 0.674124 0
M  V30 6526 C 644.189 1.95986 -2.88774 0
M  V30 6527 C 645.537 2.52299 -3.41512 0
M  V30 6528 O 646.561 2.06174 -2.90467 0
M  V30 6529 O 645.42 3.3648 -4.30631 0
M  V30 6530 H 642.514 0.536726 -0.629169 0
M  V30 6531 H 645.06 0.423583 -1.64329 0
M  V30 6532 H 643.832 1.29487 -3.69254 0
M  V30 6533 H 643.455 2.78285 -2.83978 0
M  V30 6534 N 644.452 1.42507 0.673017 0
M  V30 6535 C 645.698 1.43284 1.43519 0
M  V30 6536 C 646.031 0.049668 1.94136 0
M  V30 6537 O 645.306 -0.926369 1.71022 0
M  V30 6538 C 645.589 2.45874 2.63093 0
M  V30 6539 C 645.442 3.93388 2.18096 0
M  V30 6540 C 646.761 2.45431 3.6531 0
M  V30 6541 H 643.88 0.521752 0.520522 0
M  V30 6542 H 646.522 1.73932 0.764701 0
M  V30 6543 H 644.672 2.19869 3.20296 0
M  V30 6544 H 646.344 4.30379 1.66046 0
M  V30 6545 H 644.587 4.07169 1.49652 0
M  V30 6546 H 645.258 4.60752 3.03993 0
M  V30 6547 H 647.734 2.68561 3.17827 0
M  V30 6548 H 646.61 3.19189 4.46553 0
M  V30 6549 H 646.871 1.48092 4.16559 0
M  V30 6550 N 645.93 -0.909495 1.28709 0
M  V30 6551 C 646.88 -1.9991 1.09636 0
M  V30 6552 C 647.864 -1.60889 0.01872 0
M  V30 6553 O 649.056 -1.75374 0.239338 0
M  V30 6554 C 646.185 -3.34675 0.764702 0
M  V30 6555 C 645.271 -3.80085 1.8814 0
M  V30 6556 N 645.662 -3.97824 3.12361 0
M  V30 6557 C 643.96 -4.09278 1.77221 0
M  V30 6558 C 644.661 -4.35928 3.85151 0
M  V30 6559 N 643.637 -4.44426 3.13028 0
M  V30 6560 H 647.439 -2.11681 2.03883 0
M  V30 6561 H 644.953 -1.09763 1.1969 0
M  V30 6562 H 646.95 -4.12426 0.609132 0
M  V30 6563 H 645.61 -3.24255 -0.169952 0
M  V30 6564 H 646.621 -3.83626 3.47925 0
M  V30 6565 H 643.298 -4.0747 0.909621 0
M  V30 6566 H 644.688 -4.57581 4.92006 0
M  V30 6567 N 647.408 -1.11026 -1.11852 0
M  V30 6568 C 648.638 -0.877544 -1.87037 0
M  V30 6569 C 649.046 0.575925 -1.80221 0
M  V30 6570 O 648.389 1.40916 -1.17849 0
M  V30 6571 C 648.451 -1.25529 -3.36872 0
M  V30 6572 C 648.115 -2.71704 -3.67459 0
M  V30 6573 C 649.112 -3.69931 -3.65304 0
M  V30 6574 C 646.797 -3.08243 -3.966 0
M  V30 6575 C 648.791 -5.02717 -3.9186 0
M  V30 6576 C 646.478 -4.41215 -4.22815 0
M  V30 6577 C 647.476 -5.38262 -4.20432 0
M  V30 6578 O 647.164 -6.68839 -4.45992 0
M  V30 6579 H 646.896 -0.314374 -0.598452 0
M  V30 6580 H 649.45 -1.48015 -1.42411 0
M  V30 6581 H 647.68 -0.595808 -3.82082 0
M  V30 6582 H 649.369 -0.999064 -3.93413 0
M  V30 6583 H 650.135 -3.43047 -3.42846 0
M  V30 6584 H 646.014 -2.33326 -3.97593 0
M  V30 6585 H 649.558 -5.78456 -3.89916 0
M  V30 6586 H 645.455 -4.67835 -4.44748 0
M  V30 6587 H 646.223 -6.74563 -4.63581 0
M  V30 6588 N 648.886 1.2938 -0.899927 0
M  V30 6589 C 649.818 2.26737 -0.335139 0
M  V30 6590 C 650.831 1.54316 0.518681 0
M  V30 6591 O 652.02 1.75313 0.335803 0
M  V30 6592 C 649.12 3.34558 0.540774 0
M  V30 6593 C 648.293 4.36455 -0.287372 0
M  V30 6594 C 647.352 5.2361 0.52141 0
M  V30 6595 O 646.378 5.69167 -0.0611735 0
M  V30 6596 N 647.58 5.50985 1.82745 0
M  V30 6597 H 650.345 2.75838 -1.17191 0
M  V30 6598 H 647.906 1.42716 -0.764438 0
M  V30 6599 H 649.898 3.89794 1.08825 0
M  V30 6600 H 648.468 2.85272 1.27823 0
M  V30 6601 H 647.688 3.80875 -1.01626 0
M  V30 6602 H 648.976 5.01573 -0.854518 0
M  V30 6603 H 648.374 5.15781 2.32349 0
M  V30 6604 H 646.931 6.09036 2.32204 0
M  V30 6605 N 650.364 0.662433 1.43002 0
M  V30 6606 C 651.775 0.258315 1.84904 0
M  V30 6607 C 652.126 -1.19703 1.55453 0
M  V30 6608 O 651.251 -1.91484 1.00811 0
M  V30 6609 C 651.846 0.462047 3.35635 0
M  V30 6610 C 650.405 0.112165 3.76233 0
M  V30 6611 C 649.552 0.760479 2.66668 0
M  V30 6612 H 652.503 0.865467 1.33024 0
M  V30 6613 H 652.524 -0.289646 3.79396 0
M  V30 6614 H 652.036 1.52135 3.57039 0
M  V30 6615 H 650.137 -0.944179 3.60439 0
M  V30 6616 H 650.25 0.544058 4.76001 0
M  V30 6617 H 648.614 0.192887 2.53969 0
M  V30 6618 H 649.397 1.82299 2.90898 0
M  V30 6619 N 651.842 -1.52309 0.404946 0
M  V30 6620 C 653.09 -2.01368 -0.17186 0
M  V30 6621 C 653.411 -1.29261 -1.46002 0
M  V30 6622 O 652.681 -0.41729 -1.91404 0
M  V30 6623 H 651.261 -0.744034 -0.0664993 0
M  V30 6624 H 653.923 -1.87263 0.540228 0
M  V30 6625 H 653.019 -3.09888 -0.370957 0
M  V30 6626 N 653.32 -0.135238 -1.57019 0
M  V30 6627 C 654.27 0.820408 -2.12728 0
M  V30 6628 C 655.254 1.21735 -1.05211 0
M  V30 6629 O 656.446 1.18574 -1.31413 0
M  V30 6630 C 653.575 2.06414 -2.74314 0
M  V30 6631 C 652.661 1.69083 -3.88937 0
M  V30 6632 N 653.052 1.0251 -4.95303 0
M  V30 6633 C 651.35 1.98434 -3.99425 0
M  V30 6634 C 652.051 0.846749 -5.75504 0
M  V30 6635 N 651.027 1.3769 -5.25873 0
M  V30 6636 H 654.829 0.302426 -2.9234 0
M  V30 6637 H 652.343 0.0667009 -1.62263 0
M  V30 6638 H 654.34 2.75863 -3.12579 0
M  V30 6639 H 653 2.58741 -1.96171 0
M  V30 6640 H 654.011 0.687207 -5.1332 0
M  V30 6641 H 650.688 2.52693 -3.32344 0
M  V30 6642 H 652.078 0.322949 -6.71123 0
M  V30 6643 N 654.798 1.5699 0.138552 0
M  V30 6644 C 655.728 2.01933 1.17241 0
M  V30 6645 C 656.709 0.90033 1.44319 0
M  V30 6646 O 657.894 1.16872 1.55095 0
M  V30 6647 C 655.024 2.40711 2.50351 0
M  V30 6648 C 653.978 3.55874 2.37776 0
M  V30 6649 C 653.304 3.80491 3.75674 0
M  V30 6650 C 654.604 4.8826 1.85472 0
M  V30 6651 H 656.298 2.88551 0.798672 0
M  V30 6652 H 653.844 1.3882 0.382743 0
M  V30 6653 H 655.797 2.70754 3.22909 0
M  V30 6654 H 654.521 1.5104 2.89576 0
M  V30 6655 H 653.18 3.2601 1.67669 0
M  V30 6656 H 652.828 2.88057 4.12349 0
M  V30 6657 H 652.528 4.57998 3.68119 0
M  V30 6658 H 654.052 4.12967 4.49767 0
M  V30 6659 H 655.466 5.16965 2.4783 0
M  V30 6660 H 653.863 5.69631 1.88787 0
M  V30 6661 H 654.933 4.78071 0.810935 0
M  V30 6662 N 656.276 -0.40816 1.52223 0
M  V30 6663 C 657.223 -1.49737 1.75635 0
M  V30 6664 C 658.193 -1.5493 0.598824 0
M  V30 6665 O 659.378 -1.71487 0.83648 0
M  V30 6666 C 656.518 -2.87174 1.91376 0
M  V30 6667 C 655.631 -2.91283 3.19027 0
M  V30 6668 C 654.766 -4.20026 3.25195 0
M  V30 6669 C 653.805 -4.18113 4.47044 0
M  V30 6670 N 652.942 -5.38429 4.50598 0
M  V30 6671 H 657.782 -1.29075 2.68596 0
M  V30 6672 H 655.319 -0.626518 1.33091 0
M  V30 6673 H 657.277 -3.66959 1.98486 0
M  V30 6674 H 655.907 -3.06329 1.01795 0
M  V30 6675 H 654.959 -2.03984 3.21084 0
M  V30 6676 H 656.271 -2.85734 4.08849 0
M  V30 6677 H 655.425 -5.08204 3.31382 0
M  V30 6678 H 654.164 -4.28271 2.33313 0
M  V30 6679 H 653.169 -3.28325 4.41002 0
M  V30 6680 H 654.394 -4.11507 5.40221 0
M  V30 6681 H 652.34 -5.4734 3.616 0
M  V30 6682 H 652.257 -5.34879 5.34266 0
M  V30 6683 H 653.525 -6.28557 4.61016 0
M  V30 6684 N 657.755 -1.42862 -0.66545 0
M  V30 6685 C 658.983 -1.47246 -1.45349 0
M  V30 6686 C 659.398 -0.0865944 -1.88601 0
M  V30 6687 O 658.755 0.900652 -1.58728 0
M  V30 6688 C 658.806 -2.40772 -2.6965 0
M  V30 6689 O 658.527 -3.73968 -2.2821 0
M  V30 6690 C 660.028 -2.54272 -3.63126 0
M  V30 6691 H 657.248 -0.500497 -0.446927 0
M  V30 6692 H 659.792 -1.87477 -0.816871 0
M  V30 6693 H 657.947 -2.0377 -3.29479 0
M  V30 6694 H 658.361 -4.24146 -3.08546 0
M  V30 6695 H 659.835 -3.23815 -4.47043 0
M  V30 6696 H 660.312 -1.58364 -4.09656 0
M  V30 6697 H 660.918 -2.92036 -3.09185 0
M  V30 6698 N 659.233 0.902656 -1.29189 0
M  V30 6699 C 660.479 1.65532 -1.17163 0
M  V30 6700 C 660.812 1.92216 0.276879 0
M  V30 6701 O 660.087 1.53048 1.20027 0
M  V30 6702 C 660.37 3.00629 -1.98228 0
M  V30 6703 C 660.223 2.81029 -3.51202 0
M  V30 6704 C 661.542 4.01321 -1.80635 0
M  V30 6705 H 658.661 0.60071 -0.426985 0
M  V30 6706 H 661.303 1.04578 -1.5863 0
M  V30 6707 H 659.453 3.52656 -1.62991 0
M  V30 6708 H 661.125 2.35927 -3.96404 0
M  V30 6709 H 659.368 2.1587 -3.76275 0
M  V30 6710 H 660.039 3.77014 -4.03192 0
M  V30 6711 H 662.515 3.58394 -2.11406 0
M  V30 6712 H 661.391 4.93792 -2.3971 0
M  V30 6713 H 661.652 4.35505 -0.760754 0
M  V30 6714 N 660.711 1.11618 1.11262 0
M  V30 6715 C 661.644 0.719995 2.16544 0
M  V30 6716 C 662.622 -0.28471 1.60088 0
M  V30 6717 O 663.806 -0.180693 1.87632 0
M  V30 6718 C 660.933 0.0643302 3.38639 0
M  V30 6719 C 659.979 1.03448 4.13764 0
M  V30 6720 S 660.812 2.55789 4.70459 0
M  V30 6721 C 661.968 1.91529 5.95875 0
M  V30 6722 H 662.201 1.61181 2.49816 0
M  V30 6723 H 659.734 0.934401 1.22916 0
M  V30 6724 H 661.692 -0.307609 4.09346 0
M  V30 6725 H 660.353 -0.804471 3.03623 0
M  V30 6726 H 659.546 0.523188 5.01277 0
M  V30 6727 H 659.148 1.34893 3.48826 0
M  V30 6728 H 661.44 1.25286 6.65815 0
M  V30 6729 H 662.383 2.77047 6.51652 0
M  V30 6730 H 662.791 1.37468 5.47506 0
M  V30 6731 N 662.189 -1.289 0.906776 0
M  V30 6732 C 663.437 -1.94883 0.535266 0
M  V30 6733 C 663.758 -1.71784 -0.922791 0
M  V30 6734 O 663.028 -1.05359 -1.65156 0
M  V30 6735 H 661.608 -0.721109 0.194962 0
M  V30 6736 H 664.27 -1.57018 1.15461 0
M  V30 6737 H 663.366 -3.03591 0.723821 0
M  V30 6738 N 663.667 -0.670007 -1.42649 0
M  V30 6739 C 664.577 0.0114788 -2.34597 0
M  V30 6740 C 665.593 0.794055 -1.54825 0
M  V30 6741 O 666.769 0.737472 -1.87412 0
M  V30 6742 C 663.834 0.954436 -3.33304 0
M  V30 6743 C 662.895 0.166925 -4.28975 0
M  V30 6744 C 662.128 1.06497 -5.22967 0
M  V30 6745 O 662.351 2.30446 -5.21777 0
M  V30 6746 O 661.285 0.528347 -5.99577 0
M  V30 6747 H 665.111 -0.745794 -2.944 0
M  V30 6748 H 662.696 -0.430228 -1.43071 0
M  V30 6749 H 664.578 1.49589 -3.93956 0
M  V30 6750 H 663.253 1.69164 -2.7598 0
M  V30 6751 H 662.16 -0.418515 -3.71752 0
M  V30 6752 H 663.493 -0.531067 -4.89327 0
M  V30 6753 N 665.145 1.52092 -0.413018 0
M  V30 6754 C 666.373 2.06274 0.160881 0
M  V30 6755 C 666.788 1.28273 1.38533 0
M  V30 6756 O 666.145 0.33563 1.79387 0
M  V30 6757 C 666.196 3.57921 0.507443 0
M  V30 6758 O 665.917 4.32971 -0.668388 0
M  V30 6759 C 667.418 4.28533 1.13465 0
M  V30 6760 H 664.638 0.67074 0.0186759 0
M  V30 6761 H 667.182 1.95951 -0.585092 0
M  V30 6762 H 665.337 3.68238 1.20331 0
M  V30 6763 H 665.751 5.23135 -0.378169 0
M  V30 6764 H 667.225 5.35804 1.32732 0
M  V30 6765 H 667.702 3.85258 2.10886 0
M  V30 6766 H 668.308 4.22595 0.478876 0
M  V30 6767 N 666.623 0.143563 1.56945 0
M  V30 6768 C 667.553 -0.7936 2.196 0
M  V30 6769 C 668.534 -1.25955 1.14321 0
M  V30 6770 O 669.719 -1.31773 1.42651 0
M  V30 6771 C 666.849 -2.03424 2.81489 0
M  V30 6772 C 665.803 -1.70519 3.92565 0
M  V30 6773 C 665.129 -3.01817 4.41373 0
M  V30 6774 C 666.429 -0.95449 5.13504 0
M  V30 6775 H 668.123 -0.271423 2.98167 0
M  V30 6776 H 665.669 -0.12911 1.4342 0
M  V30 6777 H 667.622 -2.69463 3.23987 0
M  V30 6778 H 666.346 -2.58008 2.00248 0
M  V30 6779 H 665.005 -1.06859 3.5068 0
M  V30 6780 H 664.653 -3.54386 3.56959 0
M  V30 6781 H 664.353 -2.80565 5.16292 0
M  V30 6782 H 665.877 -3.68934 4.86539 0
M  V30 6783 H 667.291 -1.5169 5.52868 0
M  V30 6784 H 665.688 -0.842035 5.94163 0
M  V30 6785 H 666.758 0.0544033 4.84869 0
M  V30 6786 N 668.101 -1.57061 -0.130224 0
M  V30 6787 C 669.378 -1.75205 -0.869631 0
M  V30 6788 C 669.758 -0.716063 -1.98584 0
M  V30 6789 O 669.106 0.262032 -2.26993 0
M  V30 6790 C 669.316 -3.19835 -1.39666 0
M  V30 6791 C 670.664 -3.82011 -1.85345 0
M  V30 6792 O 671.688 -3.23368 -1.49371 0
M  V30 6793 O 670.547 -4.85064 -2.51744 0
M  V30 6794 H 667.641 -0.716977 -0.412157 0
M  V30 6795 H 670.187 -1.69311 -0.11484 0
M  V30 6796 H 668.959 -3.86745 -0.595288 0
M  V30 6797 H 668.582 -3.30222 -2.21448 0
M  V30 6798 N 669.579 0.400081 -1.52437 0
M  V30 6799 C 670.542 1.4707 -1.75793 0
M  V30 6800 C 671.542 1.48036 -0.627856 0
M  V30 6801 O 672.732 1.49401 -0.895817 0
M  V30 6802 C 669.864 2.86427 -1.84858 0
M  V30 6803 H 671.057 1.27649 -2.71377 0
M  V30 6804 H 668.61 0.631141 -1.42991 0
M  V30 6805 H 669.345 3.11207 -0.912194 0
M  V30 6806 H 669.13 2.87128 -2.6702 0
M  V30 6807 H 670.62 3.64023 -2.04638 0
M  V30 6808 N 671.057 1.43213 0.657864 0
M  V30 6809 C 672.285 1.48015 1.44566 0
M  V30 6810 C 672.7 0.0965951 1.88553 0
M  V30 6811 O 672.057 -0.892221 1.59203 0
M  V30 6812 C 672.108 2.42199 2.68369 0
M  V30 6813 O 671.829 3.75173 2.26223 0
M  V30 6814 C 673.33 2.56195 3.61772 0
M  V30 6815 H 670.55 0.502861 0.444266 0
M  V30 6816 H 673.094 1.87907 0.806917 0
M  V30 6817 H 671.249 2.05514 3.28394 0
M  V30 6818 H 671.663 4.25776 3.06293 0
M  V30 6819 H 673.137 3.26182 4.4532 0
M  V30 6820 H 673.614 1.60534 4.0881 0
M  V30 6821 H 674.22 2.93671 3.07632 0
M  V30 6822 N 672.536 -0.895792 1.29666 0
M  V30 6823 C 673.484 -2.02173 1.15017 0
M  V30 6824 C 674.478 -1.69276 0.0647651 0
M  V30 6825 O 675.684 -1.7859 0.224846 0
M  V30 6826 H 672.059 -0.662719 0.355397 0
M  V30 6827 H 674.03 -2.11666 2.10334 0
M  V30 6828 C 672.779 -3.37212 0.847555 0
M  V30 6829 H 672.102 -3.6303 1.67479 0
M  V30 6830 H 673.542 -4.16668 0.785106 0
M  V30 6831 C 672.001 -3.33891 -0.44929 0
M  V30 6832 O 672.531 -3.73673 -1.47415 0
M  V30 6833 N 670.737 -2.86991 -0.456547 0
M  V30 6834 H 670.284 -2.54813 0.377925 0
M  V30 6835 H 670.242 -2.85152 -1.32423 0
M  V30 6836 N 674.014 -1.12206 -1.10668 0
M  V30 6837 C 675.291 -0.787382 -1.79052 0
M  V30 6838 C 675.671 0.723267 -1.98323 0
M  V30 6839 O 675.019 1.6561 -1.57434 0
M  V30 6840 C 675.229 -1.55968 -3.1221 0
M  V30 6841 C 676.577 -1.74413 -3.87125 0
M  V30 6842 O 677.601 -1.5246 -3.21923 0
M  V30 6843 O 676.46 -2.10952 -5.04144 0
M  V30 6844 H 673.554 -0.286137 -0.775922 0
M  V30 6845 H 676.1 -1.22595 -1.1734 0
M  V30 6846 H 674.872 -2.58692 -2.93588 0
M  V30 6847 H 674.495 -1.1152 -3.8164 0
M  V30 6848 N 675.492 1.28418 -0.913599 0
M  V30 6849 C 676.738 1.95627 -0.556933 0
M  V30 6850 C 677.093 1.706 0.889565 0
M  V30 6851 O 676.386 1.01637 1.6242 0
M  V30 6852 C 676.58 3.48283 -0.802099 0
M  V30 6853 C 676.409 3.88151 -2.27088 0
M  V30 6854 C 675.179 4.1232 -2.92096 0
M  V30 6855 C 677.377 3.98819 -3.24728 0
M  V30 6856 N 675.359 4.3886 -4.29272 0
M  V30 6857 C 676.73 4.29571 -4.47067 0
M  V30 6858 C 678.785 3.81342 -3.20129 0
M  V30 6859 C 677.488 4.44667 -5.65388 0
M  V30 6860 C 679.514 3.97656 -4.37749 0
M  V30 6861 C 678.876 4.2878 -5.58862 0
M  V30 6862 H 674.975 0.739715 -0.253664 0
M  V30 6863 H 677.559 1.55074 -1.1773 0
M  V30 6864 H 675.73 3.87826 -0.211007 0
M  V30 6865 H 677.462 4.02623 -0.409478 0
M  V30 6866 H 674.217 4.06611 -2.42826 0
M  V30 6867 H 674.641 4.56214 -5.00198 0
M  V30 6868 H 679.283 3.56331 -2.2757 0
M  V30 6869 H 677.001 4.68509 -6.58426 0
M  V30 6870 H 680.587 3.85569 -4.35692 0
M  V30 6871 H 679.467 4.41136 -6.48359 0
M  V30 6872 N 676.97 0.677563 1.42291 0
M  V30 6873 C 677.9 0.014968 2.33495 0
M  V30 6874 C 678.881 -0.786376 1.50831 0
M  V30 6875 O 680.066 -0.742975 1.79426 0
M  V30 6876 C 677.196 -0.935023 3.34477 0
M  V30 6877 C 676.15 -0.242074 4.27315 0
M  V30 6878 C 675.476 -1.30519 5.18526 0
M  V30 6879 C 676.776 0.880604 5.14823 0
M  V30 6880 H 678.47 0.776671 2.89151 0
M  V30 6881 H 676.016 0.37494 1.39033 0
M  V30 6882 H 677.969 -1.40766 3.97194 0
M  V30 6883 H 676.693 -1.72818 2.77131 0
M  V30 6884 H 675.352 0.210351 3.65996 0
M  V30 6885 H 675 -2.09041 4.57505 0
M  V30 6886 H 674.7 -0.846652 5.81468 0
M  V30 6887 H 676.224 -1.7787 5.84119 0
M  V30 6888 H 677.638 0.489062 5.7121 0
M  V30 6889 H 676.035 1.26511 5.86613 0
M  V30 6890 H 677.105 1.72818 4.53059 0
M  V30 6891 N 678.448 -1.51871 0.421078 0
M  V30 6892 C 679.694 -2.02237 -0.151014 0
M  V30 6893 C 680.027 -1.30554 -1.43768 0
M  V30 6894 O 679.302 -0.41546 -1.90011 0
M  V30 6895 C 679.585 -3.5802 -0.386482 0
M  V30 6896 C 679.438 -4.40339 0.9177 0
M  V30 6897 C 680.757 -4.24444 -1.16342 0
M  V30 6898 H 677.876 -0.735062 -0.0534102 0
M  V30 6899 H 680.518 -1.81656 0.556888 0
M  V30 6900 H 678.668 -3.75688 -0.989494 0
M  V30 6901 H 680.34 -4.34357 1.55344 0
M  V30 6902 H 678.583 -4.06073 1.526 0
M  V30 6903 H 679.254 -5.47451 0.707187 0
M  V30 6904 H 681.73 -4.10948 -0.652788 0
M  V30 6905 H 680.606 -5.33358 -1.29693 0
M  V30 6906 H 680.867 -3.84204 -2.18724 0
M  V30 6907 N 679.926 -0.151884 -1.56866 0
M  V30 6908 C 681.166 0.500695 -1.98173 0
M  V30 6909 C 681.53 1.61715 -1.03499 0
M  V30 6910 O 682.731 2.33093 -1.33869 0
M  V30 6911 C 681.002 0.989333 -3.43434 0
M  V30 6912 S 682.561 1.64583 -4.06765 0
M  V30 6913 H 679.379 0.16173 -0.692361 0
M  V30 6914 H 681.981 -0.244754 -1.93962 0
M  V30 6915 H 680.685 0.166072 -4.10064 0
M  V30 6916 H 680.216 1.76929 -3.51368 0
M  V30 6917 H 682.231 2.93326 -4.00218 0
M  V30 6918 N 681.404 1.57128 0.121893 0
M  V30 6919 C 682.334 2.03165 1.15092 0
M  V30 6920 C 683.315 0.915587 1.43356 0
M  V30 6921 O 684.5 1.1851 1.53847 0
M  V30 6922 C 681.63 2.43352 2.47784 0
M  V30 6923 C 680.584 3.58376 2.33989 0
M  V30 6924 C 679.91 3.84454 3.71617 0
M  V30 6925 C 681.21 4.90199 1.80283 0
M  V30 6926 H 682.904 2.89382 0.768023 0
M  V30 6927 H 680.45 1.39218 0.367998 0
M  V30 6928 H 682.403 2.74163 3.20019 0
M  V30 6929 H 681.127 1.54103 2.87958 0
M  V30 6930 H 679.786 3.2777 1.64202 0
M  V30 6931 H 679.434 2.92414 4.09271 0
M  V30 6932 H 679.134 4.61877 3.6324 0
M  V30 6933 H 680.658 4.17714 4.45362 0
M  V30 6934 H 682.072 5.19565 2.42333 0
M  V30 6935 H 680.469 5.71601 1.82735 0
M  V30 6936 H 681.539 4.78904 0.760184 0
M  V30 6937 N 682.882 -0.391992 1.52647 0
M  V30 6938 C 684.107 -1.16312 1.71716 0
M  V30 6939 C 684.532 -1.83042 0.433279 0
M  V30 6940 O 683.89 -1.70705 -0.610707 0
M  V30 6941 C 683.938 -2.18908 2.86551 0
M  V30 6942 O 683.042 -3.2543 2.53316 0
M  V30 6943 H 682.383 -0.338743 0.571095 0
M  V30 6944 H 684.913 -0.457202 1.99426 0
M  V30 6945 H 684.923 -2.62954 3.1196 0
M  V30 6946 H 683.598 -1.69726 3.79692 0
M  V30 6947 H 682.175 -2.86543 2.38637 0
M  V30 6948 N 684.36 -1.4356 -0.65026 0
M  V30 6949 C 685.307 -1.48948 -1.76304 0
M  V30 6950 C 686.277 -0.338919 -1.62605 0
M  V30 6951 O 687.462 -0.54649 -1.82806 0
M  V30 6952 C 684.602 -1.42131 -3.14472 0
M  V30 6953 C 683.715 -2.67415 -3.39284 0
M  V30 6954 C 682.85 -2.52565 -4.67316 0
M  V30 6955 C 681.889 -3.73103 -4.85243 0
M  V30 6956 N 681.026 -3.57046 -6.04535 0
M  V30 6957 H 685.866 -2.44032 -1.71034 0
M  V30 6958 H 683.403 -1.21131 -0.834601 0
M  V30 6959 H 685.361 -1.36172 -3.94351 0
M  V30 6960 H 683.991 -0.506273 -3.18805 0
M  V30 6961 H 683.043 -2.8364 -2.53481 0
M  V30 6962 H 684.355 -3.56943 -3.48415 0
M  V30 6963 H 683.509 -2.44331 -5.55326 0
M  V30 6964 H 682.248 -1.60566 -4.60511 0
M  V30 6965 H 681.253 -3.81743 -3.95667 0
M  V30 6966 H 682.478 -4.66115 -4.93876 0
M  V30 6967 H 680.424 -2.67783 -5.98856 0
M  V30 6968 H 680.341 -4.40178 -6.14638 0
M  V30 6969 H 681.609 -3.52669 -6.95158 0
M  V30 6970 N 685.838 0.888903 -1.30139 0
M  V30 6971 C 687.085 1.64037 -1.18736 0
M  V30 6972 C 687.413 1.92771 0.258801 0
M  V30 6973 O 686.668 1.54427 1.20212 0
M  V30 6974 C 686.967 2.99041 -1.95728 0
M  V30 6975 C 686.633 2.89874 -3.45375 0
M  V30 6976 C 685.295 2.87082 -3.86183 0
M  V30 6977 C 687.647 2.78289 -4.40687 0
M  V30 6978 C 684.975 2.70536 -5.20603 0
M  V30 6979 C 687.327 2.63282 -5.75209 0
M  V30 6980 C 685.991 2.58861 -6.15262 0
M  V30 6981 H 685.261 0.600253 -0.434485 0
M  V30 6982 H 687.908 1.0338 -1.61198 0
M  V30 6983 H 686.213 3.63626 -1.45888 0
M  V30 6984 H 687.91 3.56139 -1.843 0
M  V30 6985 H 684.5 2.92856 -3.12943 0
M  V30 6986 H 688.684 2.79516 -4.10103 0
M  V30 6987 H 683.94 2.65526 -5.50732 0
M  V30 6988 H 688.114 2.5329 -6.48704 0
M  V30 6989 H 685.741 2.45799 -7.19366 0
M  V30 6990 N 687.317 1.12792 1.10072 0
M  V30 6991 C 688.542 0.908838 1.86427 0
M  V30 6992 C 688.967 -0.536793 1.80278 0
M  V30 6993 O 688.325 -1.38033 1.17543 0
M  V30 6994 C 688.373 1.39295 3.3261 0
M  V30 6995 O 687.477 0.573846 4.08388 0
M  V30 6996 H 686.818 0.326234 0.578331 0
M  V30 6997 H 689.348 1.50094 1.39043 0
M  V30 6998 H 689.358 1.39366 3.83459 0
M  V30 6999 H 688.033 2.44555 3.36401 0
M  V30 7000 H 686.61 0.640438 3.67359 0
M  V30 7001 N 688.795 -1.27931 0.920396 0
M  V30 7002 C 689.742 -2.27085 0.412422 0
M  V30 7003 C 690.712 -1.57858 -0.516725 0
M  V30 7004 O 691.897 -1.85717 -0.437475 0
M  V30 7005 C 689.037 -3.43466 -0.335399 0
M  V30 7006 C 688.15 -4.27425 0.627017 0
M  V30 7007 C 687.285 -5.31016 -0.139916 0
M  V30 7008 C 686.324 -6.06641 0.815683 0
M  V30 7009 N 685.461 -7.02052 0.0818439 0
M  V30 7010 H 690.301 -2.69913 1.26298 0
M  V30 7011 H 687.838 -1.32732 0.634076 0
M  V30 7012 H 689.796 -4.09744 -0.785226 0
M  V30 7013 H 688.426 -3.01611 -1.15025 0
M  V30 7014 H 687.478 -3.6113 1.19537 0
M  V30 7015 H 688.79 -4.79969 1.35763 0
M  V30 7016 H 687.944 -6.03208 -0.649998 0
M  V30 7017 H 686.683 -4.79257 -0.903543 0
M  V30 7018 H 685.688 -5.33294 1.33708 0
M  V30 7019 H 686.913 -6.60489 1.57897 0
M  V30 7020 H 684.859 -6.52634 -0.663671 0
M  V30 7021 H 684.776 -7.52249 0.752163 0
M  V30 7022 H 686.044 -7.78432 -0.407825 0
M  V30 7023 N 690.273 -0.685099 -1.4193 0
M  V30 7024 C 691.55 -0.140152 -1.95097 0
M  V30 7025 C 691.93 1.34745 -1.62502 0
M  V30 7026 O 691.278 2.08872 -0.926534 0
M  V30 7027 C 691.488 -0.420268 -3.4646 0
M  V30 7028 C 692.836 -0.342338 -4.23218 0
M  V30 7029 O 693.86 -0.354592 -3.54431 0
M  V30 7030 O 692.719 -0.293404 -5.45712 0
M  V30 7031 H 689.813 -0.00885998 -0.826953 0
M  V30 7032 H 692.359 -0.760539 -1.51703 0
M  V30 7033 H 691.131 -1.45037 -3.63428 0
M  V30 7034 H 690.754 0.231616 -3.96925 0
M  V30 7035 N 691.751 1.51645 -0.429126 0
M  V30 7036 C 693.167 1.59394 -0.080994 0
M  V30 7037 C 693.367 1.44064 1.40882 0
M  V30 7038 O 692.423 1.27771 2.17786 0
M  V30 7039 C 693.736 2.94779 -0.593773 0
M  V30 7040 C 695.284 3.08067 -0.553494 0
M  V30 7041 C 695.759 4.45963 -1.04311 0
M  V30 7042 N 697.25 4.5226 -1.00076 0
M  V30 7043 C 697.985 5.57268 -1.35056 0
M  V30 7044 N 697.481 6.69734 -1.77282 0
M  V30 7045 N 699.274 5.47582 -1.26925 0
M  V30 7046 H 691.425 1.59856 -1.39857 0
M  V30 7047 H 693.688 0.753095 -0.575805 0
M  V30 7048 H 693.394 3.11342 -1.63583 0
M  V30 7049 H 693.268 3.77197 -0.0142202 0
M  V30 7050 H 695.655 2.91177 0.479556 0
M  V30 7051 H 695.736 2.27508 -1.16935 0
M  V30 7052 H 695.38 4.63598 -2.07459 0
M  V30 7053 H 695.31 5.25049 -0.403873 0
M  V30 7054 H 697.801 3.71537 -0.690564 0
M  V30 7055 H 698.114 7.4587 -2.02232 0
M  V30 7056 H 696.459 6.70963 -1.81202 0
M  V30 7057 H 699.65 4.58604 -0.93809 0
M  V30 7058 H 699.823 6.29308 -1.54516 0
M  V30 7059 N 693.229 0.160201 1.56784 0
M  V30 7060 C 694.476 -0.487588 1.96542 0
M  V30 7061 C 694.804 -1.63999 1.04569 0
M  V30 7062 O 694.059 -1.95546 0.0775211 0
M  V30 7063 C 694.358 -1.02259 3.42459 0
M  V30 7064 C 694.024 0.0127436 4.50898 0
M  V30 7065 C 692.686 0.297318 4.80281 0
M  V30 7066 C 695.038 0.716078 5.16257 0
M  V30 7067 C 692.366 1.29081 5.72324 0
M  V30 7068 C 694.718 1.69847 6.09372 0
M  V30 7069 C 693.382 1.99061 6.37127 0
M  V30 7070 H 692.652 -0.178421 0.719199 0
M  V30 7071 H 695.299 0.249818 1.89864 0
M  V30 7072 H 693.604 -1.8376 3.46034 0
M  V30 7073 H 695.301 -1.53261 3.70556 0
M  V30 7074 H 691.891 -0.219235 4.28039 0
M  V30 7075 H 696.075 0.509428 4.93679 0
M  V30 7076 H 691.331 1.52344 5.92116 0
M  V30 7077 H 695.505 2.2489 6.59088 0
M  V30 7078 H 693.132 2.76194 7.08252 0
M  V30 7079 N 694.707 -1.5719 -0.113559 0
M  V30 7080 C 695.637 -2.03772 -1.14013 0
M  V30 7081 C 696.618 -0.923176 -1.42869 0
M  V30 7082 O 697.803 -1.19325 -1.53216 0
M  V30 7083 C 694.933 -2.44663 -2.4649 0
M  V30 7084 C 693.887 -3.59612 -2.32085 0
M  V30 7085 C 693.213 -3.8642 -3.69573 0
M  V30 7086 C 694.513 -4.91149 -1.7768 0
M  V30 7087 H 696.207 -2.89785 -0.752665 0
M  V30 7088 H 693.753 -1.39412 -0.360609 0
M  V30 7089 H 695.706 -2.75857 -3.18561 0
M  V30 7090 H 694.43 -1.55628 -2.87137 0
M  V30 7091 H 693.089 -3.28636 -1.62461 0
M  V30 7092 H 692.737 -2.94581 -4.07715 0
M  V30 7093 H 692.437 -4.63797 -3.60786 0
M  V30 7094 H 693.961 -4.2007 -4.4314 0
M  V30 7095 H 695.375 -5.20843 -2.39574 0
M  V30 7096 H 693.772 -5.72562 -1.79701 0
M  V30 7097 H 694.842 -4.79301 -0.734776 0
M  V30 7098 N 696.185 0.383891 -1.52853 0
M  V30 7099 C 697.133 1.48965 -1.7864 0
M  V30 7100 C 698.127 1.56242 -0.654577 0
M  V30 7101 O 699.333 1.59347 -0.83716 0
M  V30 7102 H 695.708 0.495892 -0.565328 0
M  V30 7103 H 697.679 1.24411 -2.71228 0
M  V30 7104 C 696.428 2.86036 -1.97683 0
M  V30 7105 H 695.751 2.81188 -2.84206 0
M  V30 7106 H 697.191 3.62632 -2.19713 0
M  V30 7107 C 695.65 3.28428 -0.750776 0
M  V30 7108 O 696.18 4.0164 0.0693491 0
M  V30 7109 N 694.386 2.84765 -0.579427 0
M  V30 7110 H 693.933 2.25353 -1.24795 0
M  V30 7111 H 693.891 3.13486 0.239544 0
M  V30 7112 N 697.663 1.43903 0.642637 0
M  V30 7113 C 698.909 1.46296 1.40447 0
M  V30 7114 C 699.242 0.0908361 1.93987 0
M  V30 7115 O 698.517 -0.889884 1.72949 0
M  V30 7116 C 698.8 2.51399 2.57819 0
M  V30 7117 C 698.653 3.97926 2.09702 0
M  V30 7118 C 699.972 2.53125 3.60022 0
M  V30 7119 H 697.091 0.532676 0.509338 0
M  V30 7120 H 699.733 1.75515 0.727635 0
M  V30 7121 H 697.883 2.26614 3.1556 0
M  V30 7122 H 699.555 4.33804 1.5688 0
M  V30 7123 H 697.798 4.10252 1.40982 0
M  V30 7124 H 698.469 4.67096 2.94152 0
M  V30 7125 H 700.945 2.75242 3.12059 0
M  V30 7126 H 699.821 3.28589 4.39682 0
M  V30 7127 H 700.082 1.56895 4.13324 0
M  V30 7128 N 699.141 -0.881989 1.30609 0
M  V30 7129 C 700.389 -1.63082 1.19368 0
M  V30 7130 C 700.71 -1.93376 -0.251147 0
M  V30 7131 O 699.98 -1.5723 -1.16857 0
M  V30 7132 H 698.56 -0.604542 0.438791 0
M  V30 7133 H 701.222 -1.05658 1.63776 0
M  V30 7134 H 700.318 -2.57966 1.7567 0
M  V30 7135 N 700.619 -1.13374 -1.09472 0
M  V30 7136 C 702.03 -0.90801 -1.63132 0
M  V30 7137 C 702.381 0.555576 -1.8817 0
M  V30 7138 O 701.506 1.42218 -1.63104 0
M  V30 7139 C 702.101 -1.64182 -2.96361 0
M  V30 7140 C 700.66 -1.46197 -3.46848 0
M  V30 7141 C 699.807 -1.67134 -2.21273 0
M  V30 7142 H 702.758 -1.2871 -0.928411 0
M  V30 7143 H 702.779 -1.09863 -3.64294 0
M  V30 7144 H 702.291 -2.707 -2.78106 0
M  V30 7145 H 700.392 -0.419788 -3.70228 0
M  V30 7146 H 700.505 -2.22472 -4.24315 0
M  V30 7147 H 698.869 -1.09616 -2.29905 0
M  V30 7148 H 699.652 -2.74971 -2.05538 0
M  V30 7149 N 702.098 1.27442 -0.927168 0
M  V30 7150 C 703.028 2.29256 -0.443188 0
M  V30 7151 C 704.009 1.62701 0.49624 0
M  V30 7152 O 705.194 1.90013 0.401105 0
M  V30 7153 C 702.324 3.45955 0.305366 0
M  V30 7154 C 701.278 4.24501 -0.546178 0
M  V30 7155 C 700.604 5.33671 0.331512 0
M  V30 7156 C 701.904 4.89921 -1.81037 0
M  V30 7157 H 703.598 2.69988 -1.29409 0
M  V30 7158 H 701.144 1.29792 -0.623705 0
M  V30 7159 H 703.097 4.1628 0.654885 0
M  V30 7160 H 701.821 3.04138 1.19029 0
M  V30 7161 H 700.48 3.55921 -0.878398 0
M  V30 7162 H 700.128 4.88096 1.21537 0
M  V30 7163 H 699.828 5.87131 -0.234746 0
M  V30 7164 H 701.352 6.0684 0.676614 0
M  V30 7165 H 702.766 5.52536 -1.52895 0
M  V30 7166 H 701.163 5.53436 -2.32009 0
M  V30 7167 H 702.233 4.13652 -2.53021 0
M  V30 7168 N 703.576 0.692616 1.41565 0
M  V30 7169 C 704.523 0.0254264 2.30786 0
M  V30 7170 C 705.493 -0.774347 1.46946 0
M  V30 7171 O 706.678 -0.742981 1.7574 0
M  V30 7172 C 703.818 -0.907123 3.32964 0
M  V30 7173 C 702.931 -0.0992784 4.31886 0
M  V30 7174 C 702.066 -1.0292 5.21134 0
M  V30 7175 C 701.105 -0.214088 6.11725 0
M  V30 7176 N 700.242 -1.09766 6.93467 0
M  V30 7177 H 705.082 0.792036 2.87282 0
M  V30 7178 H 702.619 0.4023 1.41492 0
M  V30 7179 H 704.577 -1.46181 3.90752 0
M  V30 7180 H 703.207 -1.64016 2.78026 0
M  V30 7181 H 702.259 0.572287 3.76071 0
M  V30 7182 H 703.571 0.532782 4.95946 0
M  V30 7183 H 702.725 -1.65321 5.83741 0
M  V30 7184 H 701.464 -1.69512 4.57293 0
M  V30 7185 H 700.469 0.42302 5.4817 0
M  V30 7186 H 701.694 0.447995 6.77621 0
M  V30 7187 H 699.64 -1.74965 6.32237 0
M  V30 7188 H 699.557 -0.521099 7.54202 0
M  V30 7189 H 700.825 -1.70858 7.60544 0
M  V30 7190 N 705.054 -1.51416 0.437162 0
M  V30 7191 C 706.465 -1.86682 -0.0260005 0
M  V30 7192 C 706.816 -1.35432 -1.4196 0
M  V30 7193 O 705.941 -0.705055 -2.04592 0
M  V30 7194 C 706.536 -3.38757 -0.0539577 0
M  V30 7195 C 705.095 -3.7356 -0.461532 0
M  V30 7196 C 704.242 -2.75134 0.345924 0
M  V30 7197 H 707.193 -1.44642 0.653013 0
M  V30 7198 H 707.214 -3.70573 -0.863478 0
M  V30 7199 H 706.726 -3.76028 0.96045 0
M  V30 7200 H 704.827 -3.41878 -1.48155 0
M  V30 7201 H 704.94 -4.78737 -0.186451 0
M  V30 7202 H 703.304 -2.53947 -0.195739 0
M  V30 7203 H 704.087 -3.15247 1.35921 0
M  V30 7204 N 706.532 -0.168513 -1.56696 0
M  V30 7205 C 707.442 0.775435 -2.21414 0
M  V30 7206 C 708.458 1.25529 -1.20492 0
M  V30 7207 O 709.634 1.30801 -1.53144 0
M  V30 7208 C 706.699 1.9886 -2.83999 0
M  V30 7209 C 705.76 1.5559 -4.00113 0
M  V30 7210 C 704.993 2.71124 -4.59704 0
M  V30 7211 O 705.216 3.87917 -4.18182 0
M  V30 7212 O 704.15 2.4536 -5.4962 0
M  V30 7213 H 707.976 0.254416 -3.02632 0
M  V30 7214 H 705.561 0.0595507 -1.49281 0
M  V30 7215 H 707.443 2.69816 -3.23693 0
M  V30 7216 H 706.118 2.49874 -2.05779 0
M  V30 7217 H 705.025 0.815924 -3.65094 0
M  V30 7218 H 706.358 1.09271 -4.79917 0
M  V30 7219 N 708.01 1.57248 0.105221 0
M  V30 7220 C 708.958 2.02337 1.14728 0
M  V30 7221 C 709.952 0.922652 1.42069 0
M  V30 7222 O 711.158 1.10785 1.41869 0
M  V30 7223 H 707.533 0.644682 0.387155 0
M  V30 7224 H 709.504 2.89063 0.740607 0
M  V30 7225 C 708.253 2.45513 2.46209 0
M  V30 7226 H 707.576 3.29785 2.26013 0
M  V30 7227 H 709.016 2.80846 3.1765 0
M  V30 7228 C 707.475 1.3243 3.09781 0
M  V30 7229 O 708.005 0.647841 3.96442 0
M  V30 7230 N 706.211 1.07785 2.69872 0
M  V30 7231 H 705.758 1.62973 1.99493 0
M  V30 7232 H 705.716 0.323204 3.12734 0
M  V30 7233 N 709.488 -0.375779 1.53054 0
M  V30 7234 C 710.765 -1.13453 1.59336 0
M  V30 7235 C 711.145 -2.07379 0.394614 0
M  V30 7236 O 710.493 -2.2004 -0.616 0
M  V30 7237 C 710.703 -1.8826 2.93869 0
M  V30 7238 C 712.051 -2.43155 3.48081 0
M  V30 7239 O 713.075 -1.984 2.95831 0
M  V30 7240 O 711.934 -3.24944 4.39401 0
M  V30 7241 H 709.028 -0.519856 0.643179 0
M  V30 7242 H 711.574 -0.379865 1.65394 0
M  V30 7243 H 710.346 -1.19652 3.72558 0
M  V30 7244 H 709.969 -2.70658 2.91256 0
M  V30 7245 N 710.966 -1.44241 -0.634997 0
M  V30 7246 C 711.898 -1.46793 -1.76024 0
M  V30 7247 C 712.911 -0.361781 -1.58729 0
M  V30 7248 O 714.1 -0.627297 -1.67114 0
M  V30 7249 C 711.2 -1.28248 -3.13697 0
M  V30 7250 C 710.373 -2.52038 -3.57485 0
M  V30 7251 C 709.432 -2.2845 -4.74022 0
M  V30 7252 O 708.458 -3.01915 -4.82531 0
M  V30 7253 N 709.66 -1.31264 -5.65464 0
M  V30 7254 H 712.425 -2.43797 -1.74307 0
M  V30 7255 H 709.986 -1.39631 -0.819438 0
M  V30 7256 H 711.978 -1.10321 -3.89373 0
M  V30 7257 H 710.548 -0.39623 -3.10079 0
M  V30 7258 H 709.768 -2.85268 -2.72059 0
M  V30 7259 H 711.056 -3.34382 -3.83492 0
M  V30 7260 H 710.454 -0.705817 -5.6128 0
M  V30 7261 H 709.011 -1.19316 -6.40786 0
M  V30 7262 N 712.444 0.87505 -1.31075 0
M  V30 7263 C 713.374 1.99775 -1.20881 0
M  V30 7264 C 714.355 1.69822 -0.0971612 0
M  V30 7265 O 715.54 1.92158 -0.280895 0
M  V30 7266 C 712.67 3.35163 -0.910118 0
M  V30 7267 C 711.624 3.79406 -1.98078 0
M  V30 7268 C 710.95 5.12197 -1.53488 0
M  V30 7269 C 712.25 3.97061 -3.39323 0
M  V30 7270 H 713.944 2.08562 -2.14808 0
M  V30 7271 H 711.49 1.00207 -1.03415 0
M  V30 7272 H 713.443 4.13237 -0.825423 0
M  V30 7273 H 712.167 3.26536 0.064822 0
M  V30 7274 H 710.826 3.03568 -2.05528 0
M  V30 7275 H 710.474 5.00007 -0.547941 0
M  V30 7276 H 710.174 5.4277 -2.2511 0
M  V30 7277 H 711.698 5.92785 -1.46417 0
M  V30 7278 H 713.112 4.65545 -3.34576 0
M  V30 7279 H 711.509 4.39025 -4.09118 0
M  V30 7280 H 712.579 3.00601 -3.80483 0
M  V30 7281 N 713.922 1.13953 1.08869 0
M  V30 7282 C 715.171 0.899431 1.80536 0
M  V30 7283 C 715.484 -0.575781 1.86933 0
M  V30 7284 O 716.69 -0.932988 2.54966 0
M  V30 7285 C 715.146 1.55963 3.24351 0
M  V30 7286 C 714.754 3.07077 3.26202 0
M  V30 7287 C 716.498 1.40046 4.00733 0
M  V30 7288 C 714.405 3.65955 4.64576 0
M  V30 7289 H 713.335 0.332849 0.676556 0
M  V30 7290 H 715.986 1.3679 1.22314 0
M  V30 7291 H 714.368 1.01883 3.82669 0
M  V30 7292 H 715.542 3.67785 2.77617 0
M  V30 7293 H 713.857 3.22576 2.63312 0
M  V30 7294 H 716.454 1.81441 5.02974 0
M  V30 7295 H 716.797 0.345993 4.1486 0
M  V30 7296 H 717.33 1.91137 3.48872 0
M  V30 7297 H 714.069 4.71234 4.55652 0
M  V30 7298 H 713.589 3.10027 5.13462 0
M  V30 7299 H 715.268 3.65968 5.33551 0
M  V30 7300 N 715.4 -1.26948 0.933913 0
M  V30 7301 C 716.677 -1.89212 0.495784 0
M  V30 7302 C 717.057 -1.84469 -1.02637 0
M  V30 7303 O 716.405 -1.29409 -1.88323 0
M  V30 7304 C 716.615 -3.32865 1.0489 0
M  V30 7305 C 717.963 -4.09749 1.11315 0
M  V30 7306 O 718.987 -3.41905 0.998966 0
M  V30 7307 O 717.846 -5.31061 1.28983 0
M  V30 7308 H 714.94 -0.811284 0.160459 0
M  V30 7309 H 717.486 -1.35171 1.02601 0
M  V30 7310 H 716.258 -3.30642 2.09265 0
M  V30 7311 H 715.881 -3.94435 0.500692 0
M  V30 7312 N 716.879 -0.700114 -1.41195 0
M  V30 7313 C 718.128 -0.230082 -2.00383 0
M  V30 7314 C 718.441 1.17857 -1.56106 0
M  V30 7315 O 719.647 1.74631 -2.07885 0
M  V30 7316 C 718.103 -0.360447 -3.5809 0
M  V30 7317 C 717.711 -1.77475 -4.11347 0
M  V30 7318 C 719.455 0.0495799 -4.24471 0
M  V30 7319 C 717.362 -1.85653 -5.61504 0
M  V30 7320 H 716.292 -0.0822633 -0.749499 0
M  V30 7321 H 718.943 -0.868969 -1.6162 0
M  V30 7322 H 717.325 0.346768 -3.94479 0
M  V30 7323 H 718.499 -2.51109 -3.86369 0
M  V30 7324 H 716.814 -2.13486 -3.57509 0
M  V30 7325 H 719.411 0.00898219 -5.34699 0
M  V30 7326 H 719.754 1.08904 -4.01803 0
M  V30 7327 H 720.287 -0.607521 -3.93134 0
M  V30 7328 H 717.026 -2.87667 -5.89006 0
M  V30 7329 H 716.546 -1.1641 -5.88395 0
M  V30 7330 H 718.225 -1.62151 -6.26351 0
M  V30 7331 N 718.357 1.51182 -0.445186 0
M  V30 7332 C 719.582 2.07056 0.119445 0
M  V30 7333 C 720.007 1.30966 1.35016 0
M  V30 7334 O 719.365 0.349827 1.77893 0
M  V30 7335 C 719.413 3.58234 0.412428 0
M  V30 7336 O 718.517 3.84249 1.49754 0
M  V30 7337 H 717.858 0.663998 -0.00157797 0
M  V30 7338 H 720.388 1.94699 -0.628779 0
M  V30 7339 H 720.398 4.02617 0.660583 0
M  V30 7340 H 719.073 4.13038 -0.487049 0
M  V30 7341 H 717.65 3.51724 1.23873 0
M  V30 7342 N 719.835 0.176821 1.56605 0
M  V30 7343 C 721.083 -0.465793 1.96659 0
M  V30 7344 C 721.404 -1.63406 1.06412 0
M  V30 7345 O 720.674 -1.95457 0.131603 0
M  V30 7346 H 719.254 -0.175072 0.726195 0
M  V30 7347 H 721.916 0.25929 1.93168 0
M  V30 7348 H 721.012 -0.822138 3.01077 0
M  V30 7349 N 721.313 -1.57302 -0.09688 0
M  V30 7350 C 722.59 -1.7701 -0.832272 0
M  V30 7351 C 722.97 -0.758025 -1.97021 0
M  V30 7352 O 722.318 0.213824 -2.27497 0
M  V30 7353 C 722.528 -3.22725 -1.32851 0
M  V30 7354 C 723.876 -3.85856 -1.772 0
M  V30 7355 O 724.9 -3.26464 -1.42478 0
M  V30 7356 O 723.759 -4.90295 -2.41398 0
M  V30 7357 H 720.853 -0.725558 -0.396856 0
M  V30 7358 H 723.399 -1.69516 -0.0789005 0
M  V30 7359 H 722.171 -3.87921 -0.51312 0
M  V30 7360 H 721.794 -3.34845 -2.14394 0
M  V30 7361 N 722.791 0.367657 -1.53252 0
M  V30 7362 C 723.738 1.45028 -1.79543 0
M  V30 7363 C 724.708 1.53288 -0.63969 0
M  V30 7364 O 725.893 1.69209 -0.881653 0
M  V30 7365 C 723.033 2.82 -1.98923 0
M  V30 7366 C 722.146 2.82722 -3.26638 0
M  V30 7367 C 721.281 4.11257 -3.36216 0
M  V30 7368 C 720.32 4.06113 -4.57972 0
M  V30 7369 N 719.457 5.26293 -4.64715 0
M  V30 7370 H 724.297 1.21908 -2.71923 0
M  V30 7371 H 721.834 0.591011 -1.34705 0
M  V30 7372 H 723.792 3.61568 -2.08146 0
M  V30 7373 H 722.422 3.03523 -1.09881 0
M  V30 7374 H 721.474 1.95399 -3.26379 0
M  V30 7375 H 722.786 2.74794 -4.16281 0
M  V30 7376 H 721.94 4.99239 -3.44739 0
M  V30 7377 H 720.679 4.21935 -2.44586 0
M  V30 7378 H 719.684 3.16517 -4.49552 0
M  V30 7379 H 720.909 3.97039 -5.50942 0
M  V30 7380 H 718.855 5.37561 -3.75985 0
M  V30 7381 H 718.772 5.20526 -5.4826 0
M  V30 7382 H 720.04 6.16113 -4.77519 0
M  V30 7383 N 724.269 1.44576 0.627338 0
M  V30 7384 C 725.202 1.46206 1.75212 0
M  V30 7385 C 726.18 0.320483 1.5941 0
M  V30 7386 O 727.364 0.518028 1.81242 0
M  V30 7387 C 724.491 1.29834 3.12827 0
M  V30 7388 C 723.537 2.47603 3.47268 0
M  V30 7389 S 724.37 4.10125 3.44322 0
M  V30 7390 C 725.526 3.96183 4.84551 0
M  V30 7391 H 725.759 2.41378 1.73563 0
M  V30 7392 H 723.292 1.3192 0.802283 0
M  V30 7393 H 725.25 1.21075 3.92239 0
M  V30 7394 H 723.911 0.361662 3.12011 0
M  V30 7395 H 723.104 2.3202 4.47418 0
M  V30 7396 H 722.706 2.53121 2.75329 0
M  V30 7397 H 724.998 3.60107 5.73872 0
M  V30 7398 H 725.941 4.96176 5.05188 0
M  V30 7399 H 726.349 3.28177 4.59304 0
M  V30 7400 N 725.747 -0.868086 1.31537 0
M  V30 7401 C 726.993 -1.62367 1.2151 0
M  V30 7402 C 727.326 -1.92883 -0.225819 0
M  V30 7403 O 726.601 -1.56176 -1.15927 0
M  V30 7404 C 726.884 -2.95268 2.06129 0
M  V30 7405 C 726.737 -2.71619 3.58529 0
M  V30 7406 C 728.056 -3.96391 1.91212 0
M  V30 7407 H 725.175 -0.589178 0.442762 0
M  V30 7408 H 727.817 -1.00336 1.61347 0
M  V30 7409 H 725.967 -3.4821 1.72284 0
M  V30 7410 H 727.639 -2.25334 4.0252 0
M  V30 7411 H 725.882 -2.05817 3.81866 0
M  V30 7412 H 726.553 -3.66192 4.13047 0
M  V30 7413 H 729.029 -3.52663 2.20834 0
M  V30 7414 H 727.905 -4.87263 2.52718 0
M  V30 7415 H 728.166 -4.33335 0.875953 0
M  V30 7416 N 727.225 -1.14528 -1.08264 0
M  V30 7417 C 728.155 -0.856356 -2.1723 0
M  V30 7418 C 729.136 0.189251 -1.69044 0
M  V30 7419 O 730.321 0.0456119 -1.94146 0
M  V30 7420 C 727.451 -0.334662 -3.45684 0
M  V30 7421 C 726.405 -1.31588 -4.0727 0
M  V30 7422 C 725.731 -0.653428 -5.30692 0
M  V30 7423 C 727.031 -2.67866 -4.48381 0
M  V30 7424 H 728.725 -1.76755 -2.41657 0
M  V30 7425 H 726.271 -0.851287 -1.16143 0
M  V30 7426 H 728.224 -0.120128 -4.21229 0
M  V30 7427 H 726.948 0.611967 -3.20815 0
M  V30 7428 H 725.607 -1.51661 -3.33758 0
M  V30 7429 H 725.255 0.299054 -5.0211 0
M  V30 7430 H 724.955 -1.30817 -5.72853 0
M  V30 7431 H 726.479 -0.448453 -6.08951 0
M  V30 7432 H 727.893 -2.51692 -5.15096 0
M  V30 7433 H 726.29 -3.29627 -5.01464 0
M  V30 7434 H 727.36 -3.24632 -3.60198 0
M  V30 7435 N 728.703 1.26451 -0.940633 0
M  V30 7436 C 729.949 1.94065 -0.58878 0
M  V30 7437 C 730.282 1.7363 0.869853 0
M  V30 7438 O 729.557 1.073 1.62225 0
M  V30 7439 C 729.84 3.47852 -0.931199 0
M  V30 7440 C 729.693 3.77575 -2.44453 0
M  V30 7441 C 731.012 4.37832 -0.446229 0
M  V30 7442 H 728.131 0.704827 -0.21538 0
M  V30 7443 H 730.773 1.4933 -1.17475 0
M  V30 7444 H 728.923 3.86085 -0.432539 0
M  V30 7445 H 730.595 3.49059 -3.01588 0
M  V30 7446 H 728.838 3.23671 -2.88825 0
M  V30 7447 H 729.509 4.85068 -2.63464 0
M  V30 7448 H 731.985 4.06822 -0.873778 0
M  V30 7449 H 730.861 5.44228 -0.714648 0
M  V30 7450 H 731.122 4.37239 0.653815 0
M  V30 7451 N 730.181 0.707592 1.40822 0
M  V30 7452 C 731.131 0.0265008 2.27985 0
M  V30 7453 C 732.115 -0.740685 1.42838 0
M  V30 7454 O 733.307 -0.6142 1.66002 0
M  V30 7455 C 730.436 -0.900382 3.31282 0
M  V30 7456 C 729.522 -0.128807 4.23904 0
M  V30 7457 N 729.913 0.883744 4.9802 0
M  V30 7458 C 728.211 -0.362539 4.44524 0
M  V30 7459 C 728.912 1.34666 5.65898 0
M  V30 7460 N 727.888 0.670306 5.39451 0
M  V30 7461 H 731.69 0.802667 2.82727 0
M  V30 7462 H 729.204 0.539475 1.53178 0
M  V30 7463 H 731.201 -1.40357 3.92563 0
M  V30 7464 H 729.861 -1.67601 2.781 0
M  V30 7465 H 730.872 1.26435 5.0223 0
M  V30 7466 H 727.549 -1.11512 4.02332 0
M  V30 7467 H 728.939 2.18756 6.35292 0
M  V30 7468 N 731.66 -1.50943 0.453197 0
M  V30 7469 C 732.937 -1.94872 -0.168633 0
M  V30 7470 C 733.317 -1.39272 -1.5864 0
M  V30 7471 O 732.665 -0.586272 -2.20851 0
M  V30 7472 C 732.875 -3.48757 -0.130217 0
M  V30 7473 C 734.223 -4.23331 -0.327975 0
M  V30 7474 O 735.247 -3.55594 -0.207619 0
M  V30 7475 O 734.106 -5.43529 -0.569077 0
M  V30 7476 H 731.2 -0.818042 -0.121394 0
M  V30 7477 H 733.746 -1.61782 0.512316 0
M  V30 7478 H 732.518 -3.81725 0.860346 0
M  V30 7479 H 732.141 -3.88333 -0.853397 0
M  V30 7480 N 733.138 -0.185124 -1.56509 0
M  V30 7481 C 734.386 0.455357 -1.96903 0
M  V30 7482 C 734.707 1.62839 -1.07277 0
M  V30 7483 O 733.977 1.95385 -0.141966 0
M  V30 7484 H 732.557 0.171218 -0.727113 0
M  V30 7485 H 735.219 -0.26953 -1.93027 0
M  V30 7486 H 734.315 0.80616 -3.01509 0
M  V30 7487 N 734.616 1.57351 0.0885366 0
M  V30 7488 C 736.027 1.75303 0.642308 0
M  V30 7489 C 736.378 0.808238 1.78779 0
M  V30 7490 O 735.503 -0.01171 2.16397 0
M  V30 7491 C 736.098 3.17885 1.17194 0
M  V30 7492 C 734.657 3.37239 1.67172 0
M  V30 7493 C 733.804 2.7108 0.584045 0
M  V30 7494 H 736.755 1.58103 -0.137567 0
M  V30 7495 H 736.776 3.2112 2.04114 0
M  V30 7496 H 736.288 3.86625 0.338024 0
M  V30 7497 H 734.389 2.73588 2.52943 0
M  V30 7498 H 734.502 4.45594 1.76019 0
M  V30 7499 H 732.866 2.33161 1.02508 0
M  V30 7500 H 733.649 3.42464 -0.239403 0
M  V30 7501 N 736.094 -0.359525 1.53444 0
M  V30 7502 C 737.322 -1.12198 1.73837 0
M  V30 7503 C 737.737 -1.82854 0.470107 0
M  V30 7504 O 737.094 -1.73781 -0.557349 0
M  V30 7505 C 737.145 -2.14769 2.90786 0
M  V30 7506 O 736.866 -1.46989 4.12706 0
M  V30 7507 C 738.367 -3.03514 3.231 0
M  V30 7508 H 735.587 -0.33524 0.581253 0
M  V30 7509 H 738.131 -0.416598 2.00212 0
M  V30 7510 H 736.286 -2.80896 2.66788 0
M  V30 7511 H 736.7 -2.15378 4.78239 0
M  V30 7512 H 738.174 -3.71453 4.08322 0
M  V30 7513 H 738.651 -3.68658 2.38721 0
M  V30 7514 H 739.257 -2.42996 3.49046 0
M  V30 7515 N 737.572 -1.44907 -0.619662 0
M  V30 7516 C 738.819 -1.48292 -1.37898 0
M  V30 7517 C 739.147 -0.119933 -1.9413 0
M  V30 7518 O 738.402 0.879834 -1.74807 0
M  V30 7519 C 738.701 -2.50002 -2.55409 0
M  V30 7520 C 738.367 -3.95031 -2.17397 0
M  V30 7521 C 737.029 -4.34524 -2.06743 0
M  V30 7522 C 739.381 -4.86287 -1.87548 0
M  V30 7523 C 736.709 -5.63183 -1.64445 0
M  V30 7524 C 739.061 -6.15346 -1.4674 0
M  V30 7525 C 737.725 -6.53781 -1.34636 0
M  V30 7526 H 736.995 -0.542638 -0.504603 0
M  V30 7527 H 739.642 -1.78186 -0.701581 0
M  V30 7528 H 737.947 -2.13634 -3.28433 0
M  V30 7529 H 739.644 -2.49864 -3.13639 0
M  V30 7530 H 736.234 -3.63793 -2.26611 0
M  V30 7531 H 740.418 -4.56522 -1.94682 0
M  V30 7532 H 735.674 -5.91769 -1.53687 0
M  V30 7533 H 739.848 -6.85508 -1.22685 0
M  V30 7534 H 737.475 -7.53375 -1.01634 0
M  V30 7535 N 739.05 0.861098 -1.31996 0
M  V30 7536 C 740.013 1.95068 -1.20338 0
M  V30 7537 C 741.013 1.60289 -0.128114 0
M  V30 7538 O 742.203 1.70048 -0.378044 0
M  V30 7539 C 739.335 3.30153 -0.849205 0
M  V30 7540 H 740.528 2.06833 -2.17164 0
M  V30 7541 H 738.081 1.05049 -1.15734 0
M  V30 7542 H 738.816 3.24087 0.117508 0
M  V30 7543 H 738.601 3.56771 -1.62655 0
M  V30 7544 H 740.091 4.10025 -0.791782 0
M  V30 7545 N 740.528 1.15101 1.07655 0
M  V30 7546 C 741.438 0.858869 2.18313 0
M  V30 7547 C 742.454 -0.163641 1.73229 0
M  V30 7548 O 743.63 0.00969541 2.01398 0
M  V30 7549 C 740.695 0.34893 3.4494 0
M  V30 7550 C 739.756 1.43495 4.04608 0
M  V30 7551 C 738.989 0.949253 5.2519 0
M  V30 7552 O 739.212 -0.20636 5.70027 0
M  V30 7553 O 738.146 1.73161 5.76454 0
M  V30 7554 H 741.972 1.78386 2.45788 0
M  V30 7555 H 739.557 0.929876 1.16934 0
M  V30 7556 H 741.439 0.070851 4.2134 0
M  V30 7557 H 740.114 -0.548237 3.19024 0
M  V30 7558 H 739.021 1.7666 3.29761 0
M  V30 7559 H 740.354 2.30692 4.3479 0
M  V30 7560 N 742.006 -1.2595 0.947325 0
M  V30 7561 C 743.417 -1.75389 0.639963 0
M  V30 7562 C 743.768 -1.77081 -0.844788 0
M  V30 7563 O 742.893 -1.3869 -1.66114 0
M  V30 7564 C 743.488 -3.18506 1.15496 0
M  V30 7565 C 742.047 -3.65534 0.897894 0
M  V30 7566 C 741.194 -2.44818 1.30228 0
M  V30 7567 H 744.145 -1.1194 1.12495 0
M  V30 7568 H 744.166 -3.77045 0.511627 0
M  V30 7569 H 743.678 -3.17243 2.23559 0
M  V30 7570 H 741.779 -3.72221 -0.168096 0
M  V30 7571 H 741.892 -4.54039 1.52922 0
M  V30 7572 H 740.256 -2.44291 0.720678 0
M  V30 7573 H 741.039 -2.46251 2.39198 0
M  V30 7574 N 743.484 -0.715051 -1.40445 0
M  V30 7575 C 744.434 -0.038591 -2.27967 0
M  V30 7576 C 745.418 0.733099 -1.43229 0
M  V30 7577 O 746.61 0.605388 -1.66325 0
M  V30 7578 C 743.739 0.882801 -3.31755 0
M  V30 7579 C 742.825 0.106325 -4.23967 0
M  V30 7580 N 743.216 -0.910143 -4.97544 0
M  V30 7581 C 741.514 0.33896 -4.4471 0
M  V30 7582 C 742.215 -1.37665 -5.65175 0
M  V30 7583 N 741.191 -0.698905 -5.39088 0
M  V30 7584 H 744.993 -0.81765 -2.82297 0
M  V30 7585 H 742.507 -0.547591 -1.5289 0
M  V30 7586 H 744.504 1.38273 -3.93302 0
M  V30 7587 H 743.164 1.66124 -2.78985 0
M  V30 7588 H 744.175 -1.29097 -5.01552 0
M  V30 7589 H 740.852 1.09377 -4.02918 0
M  V30 7590 H 742.242 -2.22122 -6.34123 0
M  V30 7591 N 744.962 1.50701 -0.461195 0
M  V30 7592 C 746.239 1.94958 0.158296 0
M  V30 7593 C 746.619 1.40111 1.57899 0
M  V30 7594 O 745.967 0.597976 2.20537 0
M  V30 7595 C 746.177 3.48821 0.11172 0
M  V30 7596 C 747.525 4.23499 0.30552 0
M  V30 7597 O 748.549 3.557 0.188758 0
M  V30 7598 O 747.408 5.43823 0.540244 0
M  V30 7599 H 744.502 0.818674 0.117054 0
M  V30 7600 H 747.048 1.61508 -0.520888 0
M  V30 7601 H 745.82 3.81263 -0.880577 0
M  V30 7602 H 745.443 3.88781 0.832791 0
M  V30 7603 N 746.441 0.193421 1.56409 0
M  V30 7604 C 747.404 -0.714371 2.17783 0
M  V30 7605 C 748.404 -1.1422 1.13183 0
M  V30 7606 O 749.594 -1.05557 1.38576 0
M  V30 7607 C 746.726 -1.97509 2.77855 0
M  V30 7608 H 747.919 -0.179714 2.99361 0
M  V30 7609 H 745.472 -0.0561944 1.56199 0
M  V30 7610 H 746.207 -2.5523 2.0007 0
M  V30 7611 H 745.992 -1.67706 3.54425 0
M  V30 7612 H 747.482 -2.62246 3.24987 0
M  V30 7613 N 747.919 -1.57396 -0.0801906 0
M  V30 7614 C 749.168 -1.8602 -0.779702 0
M  V30 7615 C 749.481 -0.784864 -1.79163 0
M  V30 7616 O 750.687 -0.958691 -2.54011 0
M  V30 7617 C 749.143 -3.29942 -1.43758 0
M  V30 7618 C 748.751 -4.45584 -0.464654 0
M  V30 7619 C 750.495 -3.67775 -2.11995 0
M  V30 7620 C 748.402 -5.80544 -1.12797 0
M  V30 7621 H 747.332 -0.69392 -0.294943 0
M  V30 7622 H 749.983 -1.83471 -0.0328527 0
M  V30 7623 H 748.365 -3.27078 -2.2324 0
M  V30 7624 H 749.539 -4.59824 0.299749 0
M  V30 7625 H 747.854 -4.16247 0.112813 0
M  V30 7626 H 750.451 -4.65896 -2.62383 0
M  V30 7627 H 750.794 -2.9715 -2.91561 0
M  V30 7628 H 751.327 -3.72593 -1.39354 0
M  V30 7629 H 748.066 -6.54439 -0.372807 0
M  V30 7630 H 747.586 -5.70119 -1.86344 0
M  V30 7631 H 749.265 -6.25602 -1.6502 0
M  V30 7632 N 749.397 0.351382 -1.53633 0
M  V30 7633 C 750.36 1.41403 -1.80383 0
M  V30 7634 C 751.36 1.45963 -0.674635 0
M  V30 7635 O 752.55 1.46476 -0.942895 0
M  V30 7636 C 749.682 2.80401 -1.93876 0
M  V30 7637 H 750.875 1.18951 -2.75301 0
M  V30 7638 H 748.428 0.58533 -1.44926 0
M  V30 7639 H 749.163 3.08147 -1.01074 0
M  V30 7640 H 748.948 2.78488 -2.7602 0
M  V30 7641 H 750.438 3.57329 -2.16116 0
M  V30 7642 N 750.875 1.45233 0.611969 0
M  V30 7643 C 752.121 1.49242 1.37312 0
M  V30 7644 C 752.454 0.131963 1.93751 0
M  V30 7645 O 751.729 -0.852999 1.74798 0
M  V30 7646 C 752.012 2.56811 2.52428 0
M  V30 7647 C 751.865 4.02284 2.01215 0
M  V30 7648 C 753.184 2.60705 3.54572 0
M  V30 7649 H 750.303 0.54336 0.497925 0
M  V30 7650 H 752.945 1.77019 0.690242 0
M  V30 7651 H 751.095 2.33256 3.10683 0
M  V30 7652 H 752.767 4.37035 1.47643 0
M  V30 7653 H 751.01 4.1315 1.32248 0
M  V30 7654 H 751.681 4.7323 2.84178 0
M  V30 7655 H 754.157 2.81799 3.06151 0
M  V30 7656 H 753.033 3.37841 4.32614 0
M  V30 7657 H 753.294 1.65627 4.09903 0
M  V30 7658 N 752.353 -0.854086 1.3245 0
M  V30 7659 C 753.303 -1.9508 1.18016 0
M  V30 7660 C 754.287 -1.60665 0.0869417 0
M  V30 7661 O 755.479 -1.74201 0.313505 0
M  V30 7662 C 752.608 -3.3113 0.905961 0
M  V30 7663 C 751.694 -3.71763 2.04091 0
M  V30 7664 N 752.085 -3.84218 3.28953 0
M  V30 7665 C 750.383 -4.01393 1.94421 0
M  V30 7666 C 751.084 -4.192 4.03294 0
M  V30 7667 N 750.06 -4.30749 3.31596 0
M  V30 7668 H 753.862 -2.02843 2.12678 0
M  V30 7669 H 751.376 -1.04588 1.24238 0
M  V30 7670 H 753.373 -4.09471 0.783508 0
M  V30 7671 H 752.033 -3.24684 -0.0322715 0
M  V30 7672 H 753.044 -3.68524 3.63883 0
M  V30 7673 H 749.721 -4.03246 1.08162 0
M  V30 7674 H 751.111 -4.36301 5.1097 0
M  V30 7675 N 753.831 -1.1567 -1.07043 0
M  V30 7676 C 755.242 -0.942408 -1.61169 0
M  V30 7677 C 755.593 0.515537 -1.89306 0
M  V30 7678 O 754.718 1.38726 -1.66084 0
M  V30 7679 C 755.313 -1.70431 -2.92812 0
M  V30 7680 C 753.872 -1.53521 -3.43669 0
M  V30 7681 C 753.019 -1.7179 -2.17678 0
M  V30 7682 H 755.97 -1.3065 -0.9009 0
M  V30 7683 H 755.991 -1.17566 -3.61882 0
M  V30 7684 H 755.503 -2.76538 -2.72302 0
M  V30 7685 H 753.604 -0.498224 -3.69254 0
M  V30 7686 H 753.717 -2.31422 -4.19501 0
M  V30 7687 H 752.081 -1.14468 -2.27529 0
M  V30 7688 H 752.864 -2.79269 -1.99659 0
M  V30 7689 N 755.309 1.25446 -0.953992 0
M  V30 7690 C 756.534 1.97755 -0.625129 0
M  V30 7691 C 756.959 1.70437 0.795787 0
M  V30 7692 O 756.317 0.95992 1.53803 0
M  V30 7693 C 756.365 3.49463 -0.889251 0
M  V30 7694 O 755.469 4.12387 0.0322757 0
M  V30 7695 H 754.81 0.61998 -0.237742 0
M  V30 7696 H 757.34 1.59582 -1.28041 0
M  V30 7697 H 757.35 3.99772 -0.815263 0
M  V30 7698 H 756.025 3.68676 -1.92487 0
M  V30 7699 H 754.602 3.72782 -0.0938625 0
M  V30 7700 N 756.787 0.722489 1.40064 0
M  V30 7701 C 758.036 0.261932 1.99992 0
M  V30 7702 C 758.349 -1.15358 1.57961 0
M  V30 7703 O 759.555 -1.71301 2.10637 0
M  V30 7704 C 758.011 0.41737 3.57472 0
M  V30 7705 C 757.619 1.83997 4.08472 0
M  V30 7706 C 759.363 0.0179561 4.24496 0
M  V30 7707 C 757.27 1.94563 5.5848 0
M  V30 7708 H 756.2 0.0941768 0.748095 0
M  V30 7709 H 758.851 0.894572 1.60218 0
M  V30 7710 H 757.233 -0.283965 3.94981 0
M  V30 7711 H 758.407 2.57224 3.82325 0
M  V30 7712 H 756.722 2.19147 3.54067 0
M  V30 7713 H 759.319 0.076085 5.34646 0
M  V30 7714 H 759.662 -1.02498 4.03485 0
M  V30 7715 H 760.195 0.669988 3.92117 0
M  V30 7716 H 756.934 2.97001 5.84355 0
M  V30 7717 H 756.454 1.25756 5.86469 0
M  V30 7718 H 758.133 1.72095 6.23692 0
M  V30 7719 N 758.265 -1.50454 0.469181 0
M  V30 7720 C 759.195 -2.31353 -0.31592 0
M  V30 7721 C 760.176 -1.38172 -0.992094 0
M  V30 7722 O 761.361 -1.67093 -0.989633 0
M  V30 7723 C 758.491 -3.1786 -1.39937 0
M  V30 7724 C 757.445 -4.19578 -0.844909 0
M  V30 7725 C 756.771 -4.9481 -2.0265 0
M  V30 7726 C 758.071 -5.22106 0.142499 0
M  V30 7727 H 759.765 -2.97237 0.359269 0
M  V30 7728 H 757.311 -1.42942 0.174224 0
M  V30 7729 H 759.264 -3.7325 -1.95607 0
M  V30 7730 H 757.988 -2.49858 -2.1033 0
M  V30 7731 H 756.647 -3.65285 -0.310189 0
M  V30 7732 H 756.295 -4.23282 -2.71737 0
M  V30 7733 H 755.995 -5.63613 -1.66174 0
M  V30 7734 H 757.519 -5.53035 -2.58815 0
M  V30 7735 H 758.933 -5.72378 -0.324966 0
M  V30 7736 H 757.33 -5.98618 0.421441 0
M  V30 7737 H 758.4 -4.7297 1.06901 0
M  V30 7738 N 759.743 -0.201713 -1.56304 0
M  V30 7739 C 760.968 0.443815 -2.02596 0
M  V30 7740 C 761.393 1.53945 -1.08086 0
M  V30 7741 O 760.751 1.81182 -0.0655056 0
M  V30 7742 C 760.799 0.971066 -3.47279 0
M  V30 7743 O 759.903 2.0836 -3.55893 0
M  V30 7744 H 759.244 0.10294 -0.655972 0
M  V30 7745 H 761.774 -0.314533 -2.02168 0
M  V30 7746 H 761.784 1.28598 -3.87204 0
M  V30 7747 H 760.459 0.169048 -4.15556 0
M  V30 7748 H 759.036 1.77683 -3.27846 0
M  V30 7749 N 761.222 1.57436 0.0718424 0
M  V30 7750 C 762.499 1.78312 0.804006 0
M  V30 7751 C 762.879 0.789273 1.9579 0
M  V30 7752 O 762.227 -0.177605 2.27809 0
M  V30 7753 C 762.437 3.24798 1.277 0
M  V30 7754 C 763.785 3.88627 1.71039 0
M  V30 7755 O 764.809 3.28689 1.37266 0
M  V30 7756 O 763.668 4.94073 2.33567 0
M  V30 7757 H 760.762 0.73178 0.385262 0
M  V30 7758 H 763.308 1.69621 0.0519219 0
M  V30 7759 H 762.08 3.88688 0.45134 0
M  V30 7760 H 761.703 3.38213 2.0904 0
M  V30 7761 N 762.7 -0.34323 1.53817 0
M  V30 7762 C 763.949 -1.08086 1.70295 0
M  V30 7763 C 764.262 -1.89794 0.47302 0
M  V30 7764 O 765.468 -2.66498 0.518754 0
M  V30 7765 C 763.924 -1.97097 3.01133 0
M  V30 7766 C 763.532 -1.20594 4.31464 0
M  V30 7767 C 765.276 -2.70715 3.26976 0
M  V30 7768 C 763.183 -2.08636 5.53376 0
M  V30 7769 H 762.113 -0.407228 0.634572 0
M  V30 7770 H 764.764 -0.340328 1.80316 0
M  V30 7771 H 763.146 -2.74971 2.84969 0
M  V30 7772 H 764.32 -0.476282 4.58332 0
M  V30 7773 H 762.635 -0.587426 4.12236 0
M  V30 7774 H 765.232 -3.36857 4.15248 0
M  V30 7775 H 765.575 -3.37299 2.43998 0
M  V30 7776 H 766.108 -1.99914 3.43917 0
M  V30 7777 H 762.847 -1.46594 6.38898 0
M  V30 7778 H 762.367 -2.7939 5.30755 0
M  V30 7779 H 764.046 -2.67682 5.89029 0
M  V30 7780 N 764.178 -1.45556 -0.604258 0
M  V30 7781 C 765.125 -1.54482 -1.71476 0
M  V30 7782 C 766.095 -0.390479 -1.61445 0
M  V30 7783 O 767.28 -0.604371 -1.80975 0
M  V30 7784 C 764.42 -1.52064 -3.09791 0
M  V30 7785 C 763.533 -2.78073 -3.30604 0
M  V30 7786 C 762.668 -2.67304 -4.59044 0
M  V30 7787 C 761.707 -3.88352 -4.73127 0
M  V30 7788 N 760.844 -3.76098 -5.9287 0
M  V30 7789 H 765.684 -2.49349 -1.63184 0
M  V30 7790 H 763.221 -1.23725 -0.795641 0
M  V30 7791 H 765.179 -1.48649 -3.89819 0
M  V30 7792 H 763.809 -0.607442 -3.17033 0
M  V30 7793 H 762.861 -2.91561 -2.44329 0
M  V30 7794 H 764.173 -3.67847 -3.36883 0
M  V30 7795 H 763.327 -2.61875 -5.47272 0
M  V30 7796 H 762.066 -1.75135 -4.55169 0
M  V30 7797 H 761.071 -3.94137 -3.83322 0
M  V30 7798 H 762.296 -4.81591 -4.78797 0
M  V30 7799 H 760.242 -2.867 -5.90033 0
M  V30 7800 H 760.159 -4.59509 -6.00323 0
M  V30 7801 H 761.427 -3.74607 -6.83586 0
M  V30 7802 N 765.656 0.84705 -1.32902 0
M  V30 7803 C 766.881 1.63925 -1.27056 0
M  V30 7804 C 767.306 1.87443 0.157136 0
M  V30 7805 O 766.664 1.43266 1.11106 0
M  V30 7806 C 766.712 2.97134 -2.04313 0
M  V30 7807 O 765.816 3.88049 -1.39614 0
M  V30 7808 H 765.157 0.499477 -0.437514 0
M  V30 7809 H 767.687 1.05443 -1.75336 0
M  V30 7810 H 767.697 3.46896 -2.14772 0
M  V30 7811 H 766.372 2.79339 -3.08128 0
M  V30 7812 H 764.949 3.46525 -1.3775 0
M  V30 7813 N 767.134 1.16236 1.06428 0
M  V30 7814 C 768.38 0.944431 1.79467 0
M  V30 7815 C 768.713 -0.526558 1.86925 0
M  V30 7816 O 767.988 -1.39061 1.35986 0
M  V30 7817 C 768.271 1.57092 3.24028 0
M  V30 7818 C 768.124 3.11315 3.24658 0
M  V30 7819 C 769.443 1.26447 4.21544 0
M  V30 7820 H 766.562 0.344521 0.651517 0
M  V30 7821 H 769.204 1.43545 1.24478 0
M  V30 7822 H 767.354 1.15337 3.70985 0
M  V30 7823 H 769.026 3.62042 2.85873 0
M  V30 7824 H 767.269 3.44716 2.6335 0
M  V30 7825 H 767.94 3.50269 4.26633 0
M  V30 7826 H 770.416 1.62581 3.83023 0
M  V30 7827 H 769.292 1.72885 5.20963 0
M  V30 7828 H 769.553 0.183068 4.41721 0
M  V30 7829 N 768.612 -1.24939 0.960631 0
M  V30 7830 C 769.858 -1.93425 0.629155 0
M  V30 7831 C 770.213 -1.73784 -0.825635 0
M  V30 7832 O 769.506 -1.07595 -1.58536 0
M  V30 7833 C 769.7 -3.45066 0.930809 0
M  V30 7834 C 769.529 -3.79455 2.41337 0
M  V30 7835 C 768.299 -4.01195 3.07197 0
M  V30 7836 C 770.497 -3.86492 3.39306 0
M  V30 7837 N 768.479 -4.22626 4.45265 0
M  V30 7838 C 769.85 -4.12682 4.62702 0
M  V30 7839 C 771.905 -3.69198 3.34061 0
M  V30 7840 C 770.608 -4.23376 5.81502 0
M  V30 7841 C 772.634 -3.81135 4.52206 0
M  V30 7842 C 771.996 -4.07743 5.74391 0
M  V30 7843 H 768.095 -0.729791 0.280943 0
M  V30 7844 H 770.679 -1.50597 1.23404 0
M  V30 7845 H 768.85 -3.86776 0.354801 0
M  V30 7846 H 770.582 -4.00826 0.558627 0
M  V30 7847 H 767.337 -3.97319 2.5775 0
M  V30 7848 H 767.761 -4.37335 5.16785 0
M  V30 7849 H 772.403 -3.47639 2.40638 0
M  V30 7850 H 770.121 -4.4375 6.75361 0
M  V30 7851 H 773.707 -3.69133 4.49702 0
M  V30 7852 H 772.587 -4.16768 6.64284 0
M  V30 7853 N 770.09 -0.729906 -1.39679 0
M  V30 7854 C 771.367 -0.202149 -1.94553 0
M  V30 7855 C 771.747 1.29507 -1.66707 0
M  V30 7856 O 771.095 2.05819 -0.992517 0
M  V30 7857 C 771.305 -0.530279 -3.44948 0
M  V30 7858 C 772.653 -0.476808 -4.21914 0
M  V30 7859 O 773.677 -0.467171 -3.53123 0
M  V30 7860 O 772.536 -0.466869 -5.44502 0
M  V30 7861 H 769.63 -0.0351644 -0.826252 0
M  V30 7862 H 772.176 -0.808417 -1.49207 0
M  V30 7863 H 770.948 -1.56526 -3.5863 0
M  V30 7864 H 770.571 0.10522 -3.97461 0
M  V30 7865 N 771.568 1.50203 -0.477153 0
M  V30 7866 C 772.984 1.59056 -0.131663 0
M  V30 7867 C 773.184 1.48473 1.36227 0
M  V30 7868 O 772.24 1.34635 2.13611 0
M  V30 7869 C 773.553 2.92741 -0.687254 0
M  V30 7870 C 775.101 3.0615 -0.651223 0
M  V30 7871 C 775.576 4.42419 -1.18446 0
M  V30 7872 N 777.067 4.48847 -1.14413 0
M  V30 7873 C 777.802 5.52689 -1.52717 0
M  V30 7874 N 777.298 6.63754 -1.98499 0
M  V30 7875 N 779.091 5.43267 -1.44282 0
M  V30 7876 H 771.242 1.55325 -1.44872 0
M  V30 7877 H 773.505 0.734395 -0.599473 0
M  V30 7878 H 773.211 3.0598 -1.73405 0
M  V30 7879 H 773.085 3.76961 -0.134215 0
M  V30 7880 H 775.472 2.92556 0.386677 0
M  V30 7881 H 775.553 2.23673 -1.24114 0
M  V30 7882 H 775.197 4.56763 -2.22103 0
M  V30 7883 H 775.127 5.23498 -0.570709 0
M  V30 7884 H 777.618 3.69152 -0.808416 0
M  V30 7885 H 777.931 7.39059 -2.25859 0
M  V30 7886 H 776.276 6.64858 -2.02456 0
M  V30 7887 H 779.467 4.55387 -1.08352 0
M  V30 7888 H 779.64 6.24074 -1.74459 0
M  V30 7889 N 773.046 0.209999 1.56195 0
M  V30 7890 C 773.994 -0.721416 2.2113 0
M  V30 7891 C 774.988 -1.20852 1.18706 0
M  V30 7892 O 776.194 -1.16968 1.36815 0
M  V30 7893 H 772.569 -0.251033 0.708863 0
M  V30 7894 H 774.54 -0.150193 2.98022 0
M  V30 7895 C 773.289 -1.92392 2.89621 0
M  V30 7896 H 772.612 -1.5582 3.68185 0
M  V30 7897 H 774.052 -2.55367 3.38473 0
M  V30 7898 C 772.511 -2.77208 1.91461 0
M  V30 7899 O 773.041 -3.75603 1.42426 0
M  V30 7900 N 771.247 -2.43006 1.59363 0
M  V30 7901 H 770.794 -1.63047 1.99433 0
M  V30 7902 H 770.752 -3.00036 0.939449 0
M  V30 7903 N 774.524 -1.57472 -0.0634922 0
M  V30 7904 C 775.801 -1.78736 -0.794538 0
M  V30 7905 C 776.181 -0.799645 -1.95369 0
M  V30 7906 O 775.529 0.165521 -2.279 0
M  V30 7907 C 775.739 -3.25471 -1.25975 0
M  V30 7908 C 777.087 -3.89528 -1.68976 0
M  V30 7909 O 778.111 -3.29412 -1.35521 0
M  V30 7910 O 776.97 -4.95305 -2.30944 0
M  V30 7911 H 774.064 -0.733813 -0.381376 0
M  V30 7912 H 776.61 -1.69646 -0.0429258 0
M  V30 7913 H 775.382 -3.88922 -0.430721 0
M  V30 7914 H 775.005 -3.39317 -2.07243 0
M  V30 7915 N 776.003 0.335068 -1.53997 0
M  V30 7916 C 777.414 0.910191 -1.6301 0
M  V30 7917 C 777.765 1.89271 -0.516809 0
M  V30 7918 O 776.89 2.13516 0.352123 0
M  V30 7919 C 777.485 1.65761 -2.9548 0
M  V30 7920 C 776.044 2.18163 -3.06728 0
M  V30 7921 C 775.191 1.00338 -2.5851 0
M  V30 7922 H 778.142 0.112965 -1.58297 0
M  V30 7923 H 778.163 2.52107 -2.84995 0
M  V30 7924 H 777.675 0.94227 -3.76488 0
M  V30 7925 H 775.776 2.92847 -2.30372 0
M  V30 7926 H 775.889 2.43952 -4.1234 0
M  V30 7927 H 774.253 1.37925 -2.14124 0
M  V30 7928 H 775.036 0.30254 -3.41964 0
M  V30 7929 N 777.481 1.45874 0.596531 0
M  V30 7930 C 778.414 1.49889 1.72071 0
M  V30 7931 C 779.392 0.354224 1.58695 0
M  V30 7932 O 780.576 0.556355 1.80103 0
M  V30 7933 C 777.703 1.3644 3.10003 0
M  V30 7934 C 776.749 2.54913 3.41938 0
M  V30 7935 S 777.582 4.17336 3.35545 0
M  V30 7936 C 778.738 4.06372 4.76039 0
M  V30 7937 H 778.971 2.45005 1.68404 0
M  V30 7938 H 776.504 1.33592 0.77412 0
M  V30 7939 H 778.462 1.29368 3.89582 0
M  V30 7940 H 777.123 0.427762 3.11174 0
M  V30 7941 H 776.316 2.41458 4.42396 0
M  V30 7942 H 775.918 2.58904 2.69898 0
M  V30 7943 H 778.21 3.72199 5.66105 0
M  V30 7944 H 779.153 5.0678 4.9455 0
M  V30 7945 H 779.561 3.37846 4.52239 0
M  V30 7946 N 778.959 -0.83999 1.33349 0
M  V30 7947 C 780.205 -1.59724 1.25936 0
M  V30 7948 C 780.56 -1.91616 -0.173563 0
M  V30 7949 O 779.853 -1.55791 -1.11534 0
M  V30 7950 C 780.047 -2.91571 2.06691 0
M  V30 7951 C 779.876 -2.72556 3.57691 0
M  V30 7952 C 778.646 -2.70174 4.27006 0
M  V30 7953 C 780.844 -2.45272 4.52047 0
M  V30 7954 N 778.826 -2.42525 5.63964 0
M  V30 7955 C 780.197 -2.27163 5.76885 0
M  V30 7956 C 782.252 -2.30859 4.41144 0
M  V30 7957 C 780.955 -1.96105 6.92052 0
M  V30 7958 C 782.981 -2.01194 5.56125 0
M  V30 7959 C 782.343 -1.83897 6.79972 0
M  V30 7960 H 778.442 -0.587568 0.516031 0
M  V30 7961 H 781.026 -0.986169 1.67877 0
M  V30 7962 H 779.197 -3.5063 1.67073 0
M  V30 7963 H 780.929 -3.56762 1.91057 0
M  V30 7964 H 777.684 -2.8364 3.7927 0
M  V30 7965 H 778.108 -2.31588 6.36157 0
M  V30 7966 H 782.75 -2.42946 3.46031 0
M  V30 7967 H 780.468 -1.82756 7.87163 0
M  V30 7968 H 784.054 -1.90799 5.49624 0
M  V30 7969 H 782.934 -1.61271 7.67438 0
M  V30 7970 N 780.437 -1.16799 -1.0581 0
M  V30 7971 C 781.4 -0.881396 -2.11575 0
M  V30 7972 C 782.4 0.12574 -1.60308 0
M  V30 7973 O 783.59 -0.105716 -1.73879 0
M  V30 7974 C 780.722 -0.319037 -3.39404 0
M  V30 7975 H 781.915 -1.81907 -2.38432 0
M  V30 7976 H 779.468 -0.977597 -1.21954 0
M  V30 7977 H 780.203 0.626082 -3.18199 0
M  V30 7978 H 779.988 -1.04481 -3.77923 0
M  V30 7979 H 781.478 -0.13663 -4.17376 0
M  V30 7980 N 781.915 1.24427 -0.967243 0
M  V30 7981 C 782.825 2.29109 -0.504592 0
M  V30 7982 C 783.841 1.68495 0.434224 0
M  V30 7983 O 785.017 1.99041 0.307379 0
M  V30 7984 C 782.082 3.46133 0.198273 0
M  V30 7985 C 781.143 4.22149 -0.780313 0
M  V30 7986 C 780.376 5.33585 -0.110896 0
M  V30 7987 O 780.599 5.59676 1.10088 0
M  V30 7988 O 779.533 5.96522 -0.802823 0
M  V30 7989 H 783.359 2.708 -1.37482 0
M  V30 7990 H 780.944 1.30111 -0.73426 0
M  V30 7991 H 782.826 4.17205 0.593124 0
M  V30 7992 H 781.501 3.0642 1.04347 0
M  V30 7993 H 780.408 3.53454 -1.22561 0
M  V30 7994 H 781.741 4.65677 -1.59392 0
M  V30 7995 N 783.393 0.737304 1.3929 0
M  V30 7996 C 784.621 0.296573 2.04763 0
M  V30 7997 C 785.036 -1.06941 1.55592 0
M  V30 7998 O 784.393 -1.67619 0.721822 0
M  V30 7999 C 784.444 0.291906 3.6032 0
M  V30 8000 O 784.165 1.60397 4.07682 0
M  V30 8001 C 785.666 -0.164708 4.42994 0
M  V30 8002 H 782.886 0.129251 0.658434 0
M  V30 8003 H 785.43 1.0016 1.78293 0
M  V30 8004 H 783.585 -0.364251 3.85684 0
M  V30 8005 H 783.999 1.51909 5.0202 0
M  V30 8006 H 785.473 -0.116814 5.51876 0
M  V30 8007 H 785.95 -1.21022 4.22197 0
M  V30 8008 H 786.556 0.461968 4.22784 0
M  V30 8009 N 784.871 -1.49948 0.485112 0
M  V30 8010 C 786.287 -1.58984 0.140096 0
M  V30 8011 C 786.487 -1.49194 -1.35438 0
M  V30 8012 O 785.543 -1.35765 -2.12894 0
M  V30 8013 C 786.856 -2.92372 0.702769 0
M  V30 8014 C 788.404 -3.05801 0.66745 0
M  V30 8015 C 788.879 -4.41785 1.20791 0
M  V30 8016 N 790.37 -4.48234 1.16792 0
M  V30 8017 C 791.105 -5.51871 1.55646 0
M  V30 8018 N 790.601 -6.62692 2.02016 0
M  V30 8019 N 792.394 -5.42494 1.47161 0
M  V30 8020 H 784.545 -1.54555 1.45693 0
M  V30 8021 H 786.808 -0.731206 0.603359 0
M  V30 8022 H 786.514 -3.05056 1.75025 0
M  V30 8023 H 786.388 -3.76885 0.154205 0
M  V30 8024 H 788.775 -2.92757 -0.371157 0
M  V30 8025 H 788.856 -2.23011 1.25298 0
M  V30 8026 H 788.5 -4.55579 2.24522 0
M  V30 8027 H 788.43 -5.23188 0.598464 0
M  V30 8028 H 790.921 -3.68718 0.827982 0
M  V30 8029 H 791.234 -7.3785 2.29775 0
M  V30 8030 H 789.579 -6.63775 2.05979 0
M  V30 8031 H 792.77 -4.54806 1.10765 0
M  V30 8032 H 792.943 -6.2314 1.77766 0
M  V30 8033 N 786.349 -0.21828 -1.56081 0
M  V30 8034 C 787.312 0.679633 -2.18892 0
M  V30 8035 C 788.312 1.12405 -1.14986 0
M  V30 8036 O 789.502 1.03339 -1.40238 0
M  V30 8037 C 786.634 1.93063 -2.80962 0
M  V30 8038 H 787.827 0.132066 -2.99609 0
M  V30 8039 H 785.38 0.0313374 -1.56269 0
M  V30 8040 H 786.115 2.52015 -2.04106 0
M  V30 8041 H 785.9 1.62046 -3.57048 0
M  V30 8042 H 787.39 2.57043 -3.29118 0
M  V30 8043 N 787.827 1.57504 0.0551401 0
M  V30 8044 C 788.759 2.0158 1.09078 0
M  V30 8045 C 789.772 0.92434 1.34014 0
M  V30 8046 O 790.961 1.20202 1.31961 0
M  V30 8047 C 788.061 2.35385 2.43818 0
M  V30 8048 C 787.234 3.66588 2.38605 0
M  V30 8049 C 786.293 3.87874 3.55585 0
M  V30 8050 O 785.319 4.59259 3.36258 0
M  V30 8051 N 786.521 3.31503 4.76536 0
M  V30 8052 H 789.286 2.91039 0.71529 0
M  V30 8053 H 786.847 1.60058 0.243532 0
M  V30 8054 H 788.839 2.46784 3.20749 0
M  V30 8055 H 787.409 1.51731 2.73307 0
M  V30 8056 H 786.629 3.65787 1.46947 0
M  V30 8057 H 787.917 4.52706 2.32239 0
M  V30 8058 H 787.315 2.73592 4.9514 0
M  V30 8059 H 785.872 3.48324 5.50921 0
M  V30 8060 N 789.305 -0.326896 1.54172 0
M  V30 8061 C 790.268 -1.38515 1.8261 0
M  V30 8062 C 791.268 -1.44872 0.697771 0
M  V30 8063 O 792.458 -1.44957 0.966078 0
M  V30 8064 C 789.59 -2.77281 1.98313 0
M  V30 8065 H 790.783 -1.14556 2.77159 0
M  V30 8066 H 788.336 -0.562199 1.45839 0
M  V30 8067 H 789.071 -3.065 1.05964 0
M  V30 8068 H 788.856 -2.74061 2.80416 0
M  V30 8069 H 790.346 -3.53845 2.21773 0
M  V30 8070 N 790.784 -1.46188 -0.588786 0
M  V30 8071 C 791.694 -1.58865 -1.72624 0
M  V30 8072 C 792.71 -0.472348 -1.67466 0
M  V30 8073 O 793.886 -0.735638 -1.87484 0
M  V30 8074 C 790.951 -1.56989 -3.0912 0
M  V30 8075 C 790.012 -2.79804 -3.25589 0
M  V30 8076 C 789.245 -2.78009 -4.55573 0
M  V30 8077 O 789.468 -1.86406 -5.39082 0
M  V30 8078 O 788.402 -3.6947 -4.75159 0
M  V30 8079 H 792.228 -2.55047 -1.64878 0
M  V30 8080 H 789.813 -1.28912 -0.755115 0
M  V30 8081 H 791.695 -1.58618 -3.90408 0
M  V30 8082 H 790.37 -0.639648 -3.17317 0
M  V30 8083 H 789.277 -2.83732 -2.43818 0
M  V30 8084 H 790.61 -3.72017 -3.22279 0
M  V30 8085 N 792.262 0.832906 -1.33792 0
M  V30 8086 C 793.225 1.92471 -1.24449 0
M  V30 8087 C 794.225 1.59981 -0.162085 0
M  V30 8088 O 795.415 1.69208 -0.414029 0
M  V30 8089 C 792.547 3.28278 -0.919044 0
M  V30 8090 H 793.74 2.0218 -2.21502 0
M  V30 8091 H 791.293 1.0257 -1.17936 0
M  V30 8092 H 792.028 3.24263 0.048738 0
M  V30 8093 H 791.813 3.53241 -1.70187 0
M  V30 8094 H 793.303 4.08253 -0.878576 0
M  V30 8095 N 793.74 1.17359 1.05189 0
M  V30 8096 C 795.017 0.871914 1.75091 0
M  V30 8097 C 795.397 -0.627821 2.01548 0
M  V30 8098 O 794.745 -1.5791 1.65156 0
M  V30 8099 C 794.955 1.70687 3.04413 0
M  V30 8100 C 796.303 1.92684 3.78362 0
M  V30 8101 O 797.327 1.67645 3.14282 0
M  V30 8102 O 796.186 2.34765 4.93505 0
M  V30 8103 H 793.28 0.322831 0.761386 0
M  V30 8104 H 795.826 1.28054 1.11357 0
M  V30 8105 H 794.598 2.72405 2.80911 0
M  V30 8106 H 794.221 1.29602 3.75884 0
M  V30 8107 N 795.218 -1.23913 0.973828 0
M  V30 8108 C 796.466 -1.91771 0.637817 0
M  V30 8109 C 796.787 -1.76434 -0.830435 0
M  V30 8110 O 796.057 -1.13965 -1.59339 0
M  V30 8111 H 794.637 -0.709761 0.232912 0
M  V30 8112 H 797.299 -1.50677 1.23622 0
M  V30 8113 H 796.395 -2.99327 0.883731 0
M  V30 8114 N 796.696 -0.74468 -1.38897 0
M  V30 8115 C 797.942 -0.297324 -2.00609 0
M  V30 8116 C 798.275 1.11547 -1.58968 0
M  V30 8117 O 797.55 1.76227 -0.823057 0
M  V30 8118 C 797.833 -0.410125 -3.57757 0
M  V30 8119 C 797.686 -1.86338 -4.09387 0
M  V30 8120 C 799.005 0.20176 -4.39637 0
M  V30 8121 H 796.124 -0.109509 -0.728819 0
M  V30 8122 H 798.766 -0.942653 -1.64967 0
M  V30 8123 H 796.916 0.139287 -3.8825 0
M  V30 8124 H 798.588 -2.47042 -3.89574 0
M  V30 8125 H 796.831 -2.38146 -3.62586 0
M  V30 8126 H 797.502 -1.89352 -5.18507 0
M  V30 8127 H 799.978 -0.266703 -4.15244 0
M  V30 8128 H 798.854 0.0925415 -5.48822 0
M  V30 8129 H 799.115 1.289 -4.22891 0
M  V30 8130 N 798.174 1.49689 -0.493057 0
M  V30 8131 C 799.451 1.9525 0.116907 0
M  V30 8132 C 799.831 1.43429 1.54892 0
M  V30 8133 O 799.179 0.644621 2.19219 0
M  V30 8134 C 799.389 3.4898 0.037705 0
M  V30 8135 C 800.737 4.24052 0.215621 0
M  V30 8136 O 801.761 3.5602 0.113266 0
M  V30 8137 O 800.62 5.44847 0.42477 0
M  V30 8138 H 797.714 0.820973 0.099662 0
M  V30 8139 H 800.26 1.60367 -0.555029 0
M  V30 8140 H 799.032 3.79309 -0.961251 0
M  V30 8141 H 798.655 3.9046 0.750137 0
M  V30 8142 N 799.652 0.226554 1.55963 0
M  V30 8143 C 800.901 -0.40417 1.97609 0
M  V30 8144 C 801.214 -1.60541 1.1174 0
M  V30 8145 O 802.42 -2.30598 1.43307 0
M  V30 8146 C 800.876 -0.770466 3.51556 0
M  V30 8147 C 800.484 0.408244 4.46136 0
M  V30 8148 C 802.228 -1.36651 4.01904 0
M  V30 8149 C 800.135 0.0192347 5.91397 0
M  V30 8150 H 799.065 -0.15478 0.737943 0
M  V30 8151 H 801.716 0.323558 1.80625 0
M  V30 8152 H 800.098 -1.55575 3.6416 0
M  V30 8153 H 801.272 1.18575 4.45283 0
M  V30 8154 H 799.587 0.917859 4.06158 0
M  V30 8155 H 802.184 -1.67055 5.07934 0
M  V30 8156 H 802.527 -2.28403 3.48049 0
M  V30 8157 H 803.06 -0.644556 3.92543 0
M  V30 8158 H 799.799 0.90336 6.49245 0
M  V30 8159 H 799.319 -0.722485 5.95433 0
M  V30 8160 H 800.998 -0.405711 6.45727 0
M  V30 8161 N 801.13 -1.57531 -0.0467866 0
M  V30 8162 C 802.407 -1.79568 -0.775536 0
M  V30 8163 C 802.787 -0.820322 -1.94509 0
M  V30 8164 O 802.135 0.14134 -2.28062 0
M  V30 8165 C 802.345 -3.26789 -1.22516 0
M  V30 8166 C 803.693 -3.91299 -1.64835 0
M  V30 8167 O 804.717 -3.30831 -1.3202 0
M  V30 8168 O 803.576 -4.97727 -2.25677 0
M  V30 8169 H 800.67 -0.737817 -0.373572 0
M  V30 8170 H 803.216 -1.69682 -0.0249302 0
M  V30 8171 H 801.988 -3.89357 -0.389446 0
M  V30 8172 H 801.611 -3.41496 -2.03633 0
M  V30 8173 N 802.608 0.318715 -1.54344 0
M  V30 8174 C 803.556 1.41254 -1.84798 0
M  V30 8175 C 804.55 1.53325 -0.720256 0
M  V30 8176 O 805.756 1.55653 -0.903992 0
M  V30 8177 H 802.131 0.471468 -0.585851 0
M  V30 8178 H 804.102 1.12795 -2.7626 0
M  V30 8179 C 802.851 2.77395 -2.09637 0
M  V30 8180 H 802.174 2.68881 -2.95876 0
M  V30 8181 H 803.614 3.52987 -2.34896 0
M  V30 8182 C 802.073 3.24948 -0.889398 0
M  V30 8183 O 802.603 4.01573 -0.101063 0
M  V30 8184 N 800.809 2.82051 -0.699684 0
M  V30 8185 H 800.356 2.19858 -1.3424 0
M  V30 8186 H 800.314 3.1422 0.106368 0
M  V30 8187 N 804.086 1.46499 0.581025 0
M  V30 8188 C 805.332 1.53108 1.33901 0
M  V30 8189 C 805.687 0.181007 1.91547 0
M  V30 8190 O 804.98 -0.810518 1.73612 0
M  V30 8191 C 805.174 2.56686 2.48691 0
M  V30 8192 C 805.003 4.01633 2.0229 0
M  V30 8193 C 803.773 4.69333 1.87228 0
M  V30 8194 C 805.971 4.89379 1.58154 0
M  V30 8195 N 803.953 5.98891 1.34917 0
M  V30 8196 C 805.324 6.08775 1.17445 0
M  V30 8197 C 807.379 4.76017 1.45987 0
M  V30 8198 C 806.082 7.16286 0.657805 0
M  V30 8199 C 808.108 5.83601 0.95726 0
M  V30 8200 C 807.47 7.02171 0.55996 0
M  V30 8201 H 803.569 0.61509 0.482896 0
M  V30 8202 H 806.153 1.83123 0.661361 0
M  V30 8203 H 804.324 2.28578 3.14017 0
M  V30 8204 H 806.056 2.5328 3.15644 0
M  V30 8205 H 802.811 4.24878 2.09226 0
M  V30 8206 H 803.235 6.67852 1.10917 0
M  V30 8207 H 807.877 3.84736 1.75322 0
M  V30 8208 H 805.595 8.07333 0.352047 0
M  V30 8209 H 809.181 5.75304 0.867007 0
M  V30 8210 H 808.061 7.84 0.177046 0
M  V30 8211 N 805.565 -0.825799 1.34232 0
M  V30 8212 C 806.793 -1.61363 1.29497 0
M  V30 8213 C 807.208 -1.88341 -0.131536 0
M  V30 8214 O 806.565 -1.47279 -1.07773 0
M  V30 8215 C 806.616 -2.95623 2.08061 0
M  V30 8216 O 806.337 -2.69824 3.45147 0
M  V30 8217 C 807.838 -3.90032 2.10688 0
M  V30 8218 H 805.058 -0.501676 0.445603 0
M  V30 8219 H 807.602 -1.02767 1.76803 0
M  V30 8220 H 805.757 -3.50785 1.64404 0
M  V30 8221 H 806.171 -3.55412 3.85723 0
M  V30 8222 H 807.645 -4.81411 2.70087 0
M  V30 8223 H 808.122 -4.25188 1.10052 0
M  V30 8224 H 808.728 -3.40807 2.54422 0
M  V30 8225 N 807.043 -1.17915 -1.04565 0
M  V30 8226 C 807.953 -0.916449 -2.15959 0
M  V30 8227 C 808.969 0.117655 -1.73602 0
M  V30 8228 O 810.145 -0.063089 -2.01301 0
M  V30 8229 C 807.21 -0.440262 -3.43893 0
M  V30 8230 C 806.271 -1.54172 -4.00661 0
M  V30 8231 C 805.504 -1.08816 -5.22489 0
M  V30 8232 O 805.727 0.0551547 -5.70373 0
M  V30 8233 O 804.661 -1.88383 -5.7166 0
M  V30 8234 H 808.487 -1.8484 -2.40972 0
M  V30 8235 H 806.072 -0.960552 -1.14428 0
M  V30 8236 H 807.954 -0.182537 -4.21004 0
M  V30 8237 H 806.629 0.46346 -3.20365 0
M  V30 8238 H 805.536 -1.85341 -3.24961 0
M  V30 8239 H 806.869 -2.42139 -4.2852 0
M  V30 8240 N 808.521 1.23394 -0.980386 0
M  V30 8241 C 809.431 2.28561 -0.528864 0
M  V30 8242 C 810.447 1.68946 0.416329 0
M  V30 8243 O 811.623 1.99355 0.286251 0
M  V30 8244 C 808.688 3.46323 0.16155 0
M  V30 8245 C 807.749 4.21297 -0.825044 0
M  V30 8246 C 806.982 5.33437 -0.167483 0
M  V30 8247 O 807.205 5.60812 1.04146 0
M  V30 8248 O 806.139 5.95637 -0.866047 0
M  V30 8249 H 809.965 2.69326 -1.40346 0
M  V30 8250 H 807.55 1.29325 -0.748019 0
M  V30 8251 H 809.432 4.17811 0.548841 0
M  V30 8252 H 808.107 3.0751 1.01092 0
M  V30 8253 H 807.014 3.52134 -1.26303 0
M  V30 8254 H 808.347 4.6396 -1.64322 0
M  V30 8255 N 809.999 0.752036 1.385 0
M  V30 8256 C 811.245 0.307958 2.00448 0
M  V30 8257 C 811.578 -1.10702 1.59558 0
M  V30 8258 O 810.853 -1.75788 0.832391 0
M  V30 8259 C 811.136 0.429092 3.57534 0
M  V30 8260 C 810.989 1.88507 4.08393 0
M  V30 8261 C 812.308 -0.178442 4.39738 0
M  V30 8262 H 809.427 0.113373 0.728228 0
M  V30 8263 H 812.069 0.951389 1.64465 0
M  V30 8264 H 810.219 -0.118695 3.88319 0
M  V30 8265 H 811.891 2.49104 3.88259 0
M  V30 8266 H 810.134 2.40066 3.61318 0
M  V30 8267 H 810.805 1.92099 5.17496 0
M  V30 8268 H 813.281 0.28872 4.15097 0
M  V30 8269 H 812.157 -0.0634349 5.48863 0
M  V30 8270 H 812.418 -1.26655 4.23569 0
M  V30 8271 N 811.477 -1.49425 0.500989 0
M  V30 8272 C 812.726 -2.01649 -0.04538 0
M  V30 8273 C 813.039 -1.38572 -1.38047 0
M  V30 8274 O 814.245 -1.82124 -2.01353 0
M  V30 8275 C 812.701 -3.5966 -0.131337 0
M  V30 8276 C 812.309 -4.3171 1.19711 0
M  V30 8277 C 814.053 -4.19828 -0.628071 0
M  V30 8278 C 811.96 -5.81579 1.07332 0
M  V30 8279 H 810.89 -0.753715 -0.0207329 0
M  V30 8280 H 813.541 -1.71962 0.640407 0
M  V30 8281 H 811.923 -3.86063 -0.881574 0
M  V30 8282 H 813.097 -4.17008 1.96064 0
M  V30 8283 H 811.412 -3.83286 1.62729 0
M  V30 8284 H 814.009 -5.2958 -0.738198 0
M  V30 8285 H 814.352 -3.83194 -1.6269 0
M  V30 8286 H 814.885 -3.97746 0.0656314 0
M  V30 8287 H 811.624 -6.22738 2.04642 0
M  V30 8288 H 811.144 -5.98774 0.350679 0
M  V30 8289 H 812.823 -6.42614 0.752047 0
M  V30 8290 N 812.955 -0.234822 -1.55841 0
M  V30 8291 C 814.371 0.120295 -1.59146 0
M  V30 8292 C 814.571 1.57896 -1.25184 0
M  V30 8293 O 813.627 2.32138 -0.993393 0
M  V30 8294 C 814.94 -0.217984 -2.99909 0
M  V30 8295 C 816.488 -0.161298 -3.12584 0
M  V30 8296 C 816.963 -0.473438 -4.55546 0
M  V30 8297 N 818.454 -0.423494 -4.6126 0
M  V30 8298 C 819.189 -0.638334 -5.69836 0
M  V30 8299 N 818.685 -0.915659 -6.86722 0
M  V30 8300 N 820.478 -0.569864 -5.59204 0
M  V30 8301 H 812.629 -1.18622 -1.76189 0
M  V30 8302 H 814.892 -0.476426 -0.819587 0
M  V30 8303 H 814.598 -1.2309 -3.29457 0
M  V30 8304 H 814.472 0.460707 -3.74376 0
M  V30 8305 H 816.859 0.842274 -2.82825 0
M  V30 8306 H 816.94 -0.873661 -2.40418 0
M  V30 8307 H 816.584 -1.47451 -4.86025 0
M  V30 8308 H 816.514 0.260268 -5.25956 0
M  V30 8309 H 819.005 -0.217383 -3.77274 0
M  V30 8310 H 819.318 -1.06734 -7.65394 0
M  V30 8311 H 817.663 -0.953 -6.88435 0
M  V30 8312 H 820.854 -0.35334 -4.66765 0
M  V30 8313 H 821.027 -0.740698 -6.43753 0
M  V30 8314 N 814.433 1.57553 0.0384317 0
M  V30 8315 C 815.71 1.79977 0.766002 0
M  V30 8316 C 816.09 0.830625 1.94072 0
M  V30 8317 O 815.438 -0.129243 2.28134 0
M  V30 8318 C 815.648 3.27434 1.20781 0
M  V30 8319 C 816.996 3.92167 1.62758 0
M  V30 8320 O 818.02 3.31527 1.30263 0
M  V30 8321 O 816.879 4.98917 2.23035 0
M  V30 8322 H 813.973 0.739787 0.369654 0
M  V30 8323 H 816.519 1.69693 0.0159312 0
M  V30 8324 H 815.291 3.89558 0.368792 0
M  V30 8325 H 814.914 3.42571 2.01819 0
M  V30 8326 N 815.911 -0.310526 1.54511 0
M  V30 8327 C 817.159 -1.04484 1.72996 0
M  V30 8328 C 817.48 -1.88118 0.513479 0
M  V30 8329 O 816.75 -1.90119 -0.472384 0
M  V30 8330 H 815.33 -0.388747 0.637875 0
M  V30 8331 H 817.992 -0.343811 1.91844 0
M  V30 8332 H 817.088 -1.70341 2.61515 0
M  V30 8333 N 817.389 -1.46805 -0.573248 0
M  V30 8334 C 818.337 -1.58468 -1.70267 0
M  V30 8335 C 819.331 -0.452694 -1.63239 0
M  V30 8336 O 820.537 -0.629915 -1.68618 0
M  V30 8337 H 816.912 -0.498408 -0.56311 0
M  V30 8338 H 818.883 -2.5341 -1.57563 0
M  V30 8339 C 817.632 -1.60104 -3.08645 0
M  V30 8340 H 816.955 -2.4655 -3.14727 0
M  V30 8341 H 818.395 -1.72318 -3.87405 0
M  V30 8342 C 816.854 -0.33138 -3.35266 0
M  V30 8343 O 817.384 0.57438 -3.97572 0
M  V30 8344 N 815.59 -0.216358 -2.89793 0
M  V30 8345 H 815.137 -0.954345 -2.3927 0
M  V30 8346 H 815.095 0.632253 -3.07977 0
M  V30 8347 N 818.867 0.818669 -1.34668 0
M  V30 8348 C 819.814 1.92983 -1.26595 0
M  V30 8349 C 820.784 1.65506 -0.140315 0
M  V30 8350 O 821.969 1.88063 -0.322005 0
M  V30 8351 C 819.109 3.2932 -1.03163 0
M  V30 8352 C 818.222 3.69061 -2.24539 0
M  V30 8353 C 817.357 4.94368 -1.94355 0
M  V30 8354 C 816.396 5.26702 -3.11851 0
M  V30 8355 N 815.533 6.43187 -2.81522 0
M  V30 8356 H 820.373 1.99219 -2.2162 0
M  V30 8357 H 817.91 0.974612 -1.1018 0
M  V30 8358 H 819.868 4.07897 -0.87613 0
M  V30 8359 H 818.498 3.22584 -0.118045 0
M  V30 8360 H 817.55 2.85842 -2.50995 0
M  V30 8361 H 818.862 3.88924 -3.12313 0
M  V30 8362 H 818.016 5.80742 -1.75566 0
M  V30 8363 H 816.755 4.76515 -1.03848 0
M  V30 8364 H 815.76 4.38823 -3.31231 0
M  V30 8365 H 816.985 5.46492 -4.03142 0
M  V30 8366 H 814.931 6.26783 -1.93596 0
M  V30 8367 H 814.848 6.63243 -3.62829 0
M  V30 8368 H 816.116 7.32621 -2.66247 0
M  V30 8369 N 820.346 1.18468 1.03938 0
M  V30 8370 C 821.592 0.982286 1.77423 0
M  V30 8371 C 821.925 -0.48679 1.88 0
M  V30 8372 O 821.2 -1.36146 1.38905 0
M  V30 8373 C 821.483 1.63929 3.20623 0
M  V30 8374 C 821.336 3.18132 3.17982 0
M  V30 8375 C 822.655 1.3536 4.18767 0
M  V30 8376 H 819.774 0.358264 0.644062 0
M  V30 8377 H 822.416 1.46154 1.21405 0
M  V30 8378 H 820.566 1.2318 3.68455 0
M  V30 8379 H 822.238 3.68024 2.78129 0
M  V30 8380 H 820.481 3.50225 2.55978 0
M  V30 8381 H 821.152 3.5924 4.19107 0
M  V30 8382 H 823.628 1.70669 3.79488 0
M  V30 8383 H 822.504 1.83896 5.17178 0
M  V30 8384 H 822.765 0.276722 4.41233 0
M  V30 8385 N 821.824 -1.22873 0.986916 0
M  V30 8386 C 823.24 -1.43594 0.696633 0
M  V30 8387 C 823.44 -1.87622 -0.734869 0
M  V30 8388 O 822.496 -2.02633 -1.50652 0
M  V30 8389 C 823.809 -2.48231 1.69711 0
M  V30 8390 C 825.357 -2.62037 1.71188 0
M  V30 8391 C 825.832 -3.6989 2.70084 0
M  V30 8392 N 827.323 -3.77341 2.68641 0
M  V30 8393 C 828.058 -4.6037 3.41829 0
M  V30 8394 N 827.554 -5.47438 4.24598 0
M  V30 8395 N 829.347 -4.54626 3.30563 0
M  V30 8396 H 821.498 -0.925982 1.91153 0
M  V30 8397 H 823.761 -0.46866 0.824052 0
M  V30 8398 H 823.467 -2.22812 2.72117 0
M  V30 8399 H 823.341 -3.46731 1.48516 0
M  V30 8400 H 825.728 -2.86803 0.694837 0
M  V30 8401 H 825.809 -1.63831 1.96451 0
M  V30 8402 H 825.453 -3.45872 3.71934 0
M  V30 8403 H 825.383 -4.67652 2.42093 0
M  V30 8404 H 827.874 -3.15124 2.08578 0
M  V30 8405 H 828.187 -6.078 4.77283 0
M  V30 8406 H 826.532 -5.4704 4.28687 0
M  V30 8407 H 829.723 -3.85627 2.65347 0
M  V30 8408 H 829.896 -5.19103 3.8786 0
M  V30 8409 N 823.302 -0.75937 -1.38099 0
M  V30 8410 C 824.548 -0.318584 -2.00282 0
M  V30 8411 C 824.881 1.09854 -1.60143 0
M  V30 8412 O 824.156 1.75344 -0.841702 0
M  V30 8413 C 824.439 -0.448047 -3.57302 0
M  V30 8414 C 824.292 -1.9067 -4.07388 0
M  V30 8415 C 825.611 0.155119 -4.39827 0
M  V30 8416 H 822.73 -0.117233 -0.727616 0
M  V30 8417 H 825.372 -0.960097 -1.63958 0
M  V30 8418 H 823.522 0.0981003 -3.88376 0
M  V30 8419 H 825.194 -2.5116 -3.86932 0
M  V30 8420 H 823.437 -2.41979 -3.6004 0
M  V30 8421 H 824.108 -1.94841 -5.1647 0
M  V30 8422 H 826.584 -0.31073 -4.14938 0
M  V30 8423 H 825.46 0.0343264 -5.48889 0
M  V30 8424 H 825.721 1.24407 -4.24235 0
M  V30 8425 N 824.78 1.49157 -0.508906 0
M  V30 8426 C 826.01 2.06579 0.0293308 0
M  V30 8427 C 826.418 1.36852 1.30645 0
M  V30 8428 O 825.761 0.443079 1.78276 0
M  V30 8429 C 825.823 3.57838 0.345296 0
M  V30 8430 C 825.487 4.49302 -0.835256 0
M  V30 8431 C 826.484 4.90345 -1.72793 0
M  V30 8432 C 824.169 4.91494 -1.0363 0
M  V30 8433 C 826.163 5.72327 -2.80573 0
M  V30 8434 C 823.85 5.7325 -2.11726 0
M  V30 8435 C 824.848 6.13572 -3.00032 0
M  V30 8436 O 824.536 6.93691 -4.06261 0
M  V30 8437 H 824.268 0.675679 -0.0208193 0
M  V30 8438 H 826.822 1.9282 -0.707789 0
M  V30 8439 H 825.052 3.69634 1.13612 0
M  V30 8440 H 826.741 3.97467 0.823089 0
M  V30 8441 H 827.507 4.58388 -1.58446 0
M  V30 8442 H 823.386 4.59605 -0.358308 0
M  V30 8443 H 826.93 6.03719 -3.49527 0
M  V30 8444 H 822.827 6.0462 -2.26065 0
M  V30 8445 H 823.595 7.12011 -4.03711 0
M  V30 8446 N 826.258 0.243083 1.55714 0
M  V30 8447 C 827.191 -0.698623 2.17243 0
M  V30 8448 C 828.169 -1.1756 1.12331 0
M  V30 8449 O 829.353 -1.25444 1.40699 0
M  V30 8450 C 826.48 -1.94901 2.77004 0
M  V30 8451 C 825.526 -1.61022 3.94936 0
M  V30 8452 S 826.359 -0.716173 5.30689 0
M  V30 8453 C 827.515 -1.97565 5.93901 0
M  V30 8454 H 827.748 -0.175724 2.9678 0
M  V30 8455 H 825.281 0.0275727 1.54375 0
M  V30 8456 H 827.239 -2.66687 3.12071 0
M  V30 8457 H 825.9 -2.44304 1.9742 0
M  V30 8458 H 825.093 -2.5398 4.35328 0
M  V30 8459 H 824.695 -0.972829 3.61126 0
M  V30 8460 H 826.987 -2.92333 6.11186 0
M  V30 8461 H 827.93 -1.61528 6.8943 0
M  V30 8462 H 828.338 -2.126 5.22935 0
M  V30 8463 N 827.736 -1.57571 -0.0300757 0
M  V30 8464 C 828.961 -1.93879 -0.736601 0
M  V30 8465 C 829.386 -0.842998 -1.68152 0
M  V30 8466 O 828.744 0.20135 -1.80178 0
M  V30 8467 C 828.792 -3.29247 -1.47066 0
M  V30 8468 O 827.896 -3.21426 -2.58378 0
M  V30 8469 H 827.237 -0.633735 -0.198181 0
M  V30 8470 H 829.767 -2.04595 0.0141485 0
M  V30 8471 H 829.777 -3.64113 -1.84081 0
M  V30 8472 H 828.452 -4.08565 -0.77764 0
M  V30 8473 H 827.029 -2.98189 -2.23914 0
M  V30 8474 N 829.214 0.302327 -1.54673 0
M  V30 8475 C 830.439 1.06103 -1.78205 0
M  V30 8476 C 830.864 1.80204 -0.53926 0
M  V30 8477 O 830.222 1.73975 0.510142 0
M  V30 8478 C 830.27 2.01829 -2.98827 0
M  V30 8479 O 829.374 3.10108 -2.71858 0
M  V30 8480 H 828.715 0.30487 -0.589873 0
M  V30 8481 H 831.245 0.340153 -2.01753 0
M  V30 8482 H 831.255 2.44319 -3.2676 0
M  V30 8483 H 829.93 1.473 -3.88942 0
M  V30 8484 H 828.507 2.72142 -2.54937 0
M  V30 8485 N 830.692 1.47107 0.565454 0
M  V30 8486 C 831.938 1.53535 1.32495 0
M  V30 8487 C 832.271 0.193537 1.93233 0
M  V30 8488 O 831.546 -0.796956 1.77423 0
M  V30 8489 C 831.829 2.64712 2.4413 0
M  V30 8490 C 831.682 4.08482 1.88314 0
M  V30 8491 C 833.001 2.71853 3.46098 0
M  V30 8492 H 830.12 0.558926 0.480386 0
M  V30 8493 H 832.762 1.79125 0.633575 0
M  V30 8494 H 830.912 2.43023 3.03104 0
M  V30 8495 H 832.584 4.4151 1.33665 0
M  V30 8496 H 830.827 4.17148 1.19037 0
M  V30 8497 H 831.498 4.82032 2.68978 0
M  V30 8498 H 833.974 2.91397 2.97031 0
M  V30 8499 H 832.85 3.51433 4.21646 0
M  V30 8500 H 833.111 1.78584 4.04426 0
M  V30 8501 N 832.17 -0.811516 1.35101 0
M  V30 8502 C 833.133 -1.90467 1.27495 0
M  V30 8503 C 834.133 -1.59703 0.187516 0
M  V30 8504 O 835.323 -1.68528 0.440896 0
M  V30 8505 C 832.455 -3.26774 0.971154 0
M  V30 8506 H 833.648 -1.98631 2.2469 0
M  V30 8507 H 831.201 -1.00681 1.19553 0
M  V30 8508 H 831.936 -3.243 0.0028557 0
M  V30 8509 H 831.721 -3.50488 1.75785 0
M  V30 8510 H 833.211 -4.06804 0.943414 0
M  V30 8511 N 833.648 -1.19017 -1.03309 0
M  V30 8512 C 835.059 -0.993206 -1.5809 0
M  V30 8513 C 835.41 0.45505 -1.9085 0
M  V30 8514 O 834.535 1.33372 -1.70414 0
M  V30 8515 C 835.13 -1.79661 -2.87241 0
M  V30 8516 C 833.689 -1.64377 -3.38611 0
M  V30 8517 C 832.836 -1.78628 -2.12102 0
M  V30 8518 H 835.787 -1.3345 -0.858879 0
M  V30 8519 H 835.808 -1.29019 -3.57958 0
M  V30 8520 H 835.32 -2.85061 -2.63366 0
M  V30 8521 H 833.421 -0.615447 -3.67482 0
M  V30 8522 H 833.534 -2.44651 -4.11926 0
M  V30 8523 H 831.898 -1.21648 -2.23772 0
M  V30 8524 H 832.681 -2.8548 -1.90673 0
M  V30 8525 N 835.127 1.22348 -0.993418 0
M  V30 8526 C 836.352 1.95666 -0.687727 0
M  V30 8527 C 836.777 1.72883 0.741161 0
M  V30 8528 O 836.135 1.00837 1.50671 0
M  V30 8529 C 836.183 3.46457 -0.99998 0
M  V30 8530 O 835.287 4.12281 -0.0989386 0
M  V30 8531 H 834.628 0.612102 -0.257346 0
M  V30 8532 H 837.158 1.55428 -1.33054 0
M  V30 8533 H 837.168 3.96976 -0.942035 0
M  V30 8534 H 835.843 3.62365 -2.04118 0
M  V30 8535 H 834.42 3.72295 -0.212413 0
M  V30 8536 N 836.605 0.766683 1.37694 0
M  V30 8537 C 837.852 0.328714 1.99814 0
M  V30 8538 C 838.18 -1.09333 1.60862 0
M  V30 8539 O 837.435 -1.7657 0.8439 0
M  V30 8540 C 837.734 0.413831 3.54996 0
M  V30 8541 C 837.4 1.7934 4.137 0
M  V30 8542 C 836.062 2.17092 4.29447 0
M  V30 8543 C 838.414 2.69776 4.45949 0
M  V30 8544 C 835.742 3.44726 4.74743 0
M  V30 8545 C 838.094 3.96814 4.92667 0
M  V30 8546 C 836.758 4.34618 5.0662 0
M  V30 8547 H 836.028 0.120285 0.731172 0
M  V30 8548 H 838.675 0.97972 1.64541 0
M  V30 8549 H 836.98 -0.320723 3.90485 0
M  V30 8550 H 838.677 0.0563369 4.0096 0
M  V30 8551 H 835.267 1.48997 4.01868 0
M  V30 8552 H 839.451 2.41871 4.33373 0
M  V30 8553 H 834.707 3.73917 4.83731 0
M  V30 8554 H 838.881 4.67022 5.16588 0
M  V30 8555 H 836.508 5.33578 5.41478 0
M  V30 8556 N 838.083 -1.48885 0.516809 0
M  V30 8557 C 839.308 -2.0739 -0.0205201 0
M  V30 8558 C 839.733 -1.37259 -1.28614 0
M  V30 8559 O 839.091 -0.434304 -1.76021 0
M  V30 8560 C 839.139 -3.59793 -0.24104 0
M  V30 8561 O 838.243 -3.90957 -1.31251 0
M  V30 8562 H 837.584 -0.663167 0.0332564 0
M  V30 8563 H 840.114 -1.91477 0.720956 0
M  V30 8564 H 840.124 -4.0531 -0.467737 0
M  V30 8565 H 838.799 -4.10244 0.68356 0
M  V30 8566 H 837.376 -3.57234 -1.06951 0
M  V30 8567 N 839.561 -0.251338 -1.55583 0
M  V30 8568 C 840.81 0.372681 -1.98227 0
M  V30 8569 C 841.123 1.58743 -1.1428 0
M  V30 8570 O 842.329 2.28289 -1.46957 0
M  V30 8571 C 840.785 0.714439 -3.52738 0
M  V30 8572 C 840.393 -0.479168 -4.4543 0
M  V30 8573 C 842.137 1.3024 -4.04027 0
M  V30 8574 C 840.044 -0.113318 -5.91291 0
M  V30 8575 H 838.974 0.14302 -0.740312 0
M  V30 8576 H 841.625 -0.352253 -1.80087 0
M  V30 8577 H 840.007 1.49762 -3.66589 0
M  V30 8578 H 841.181 -1.25644 -4.4334 0
M  V30 8579 H 839.496 -0.982359 -4.04646 0
M  V30 8580 H 842.093 1.58953 -5.10527 0
M  V30 8581 H 842.436 2.22837 -3.51638 0
M  V30 8582 H 842.969 0.582024 -3.93519 0
M  V30 8583 H 839.708 -1.00654 -6.47726 0
M  V30 8584 H 839.228 0.627666 -5.96507 0
M  V30 8585 H 840.907 0.30293 -6.4629 0
M  V30 8586 N 841.039 1.57585 0.0217189 0
M  V30 8587 C 841.949 2.10444 1.03684 0
M  V30 8588 C 842.965 1.04472 1.39146 0
M  V30 8589 O 844.141 1.36249 1.48317 0
M  V30 8590 C 841.206 2.5794 2.31664 0
M  V30 8591 C 840.267 3.78425 2.02714 0
M  V30 8592 C 839.5 4.23646 3.24592 0
M  V30 8593 O 839.723 3.6834 4.35525 0
M  V30 8594 O 838.657 5.16013 3.09862 0
M  V30 8595 H 842.483 2.97354 0.617584 0
M  V30 8596 H 840.068 1.47473 0.239174 0
M  V30 8597 H 841.95 2.88785 3.06889 0
M  V30 8598 H 840.625 1.74138 2.7287 0
M  V30 8599 H 839.532 3.52587 1.25033 0
M  V30 8600 H 840.865 4.63234 1.66359 0
M  V30 8601 N 842.517 -0.29412 1.54831 0
M  V30 8602 C 843.742 -1.05156 1.78765 0
M  V30 8603 C 844.167 -1.79916 0.548809 0
M  V30 8604 O 843.525 -1.74243 -0.500909 0
M  V30 8605 C 843.573 -2.00242 2.99893 0
M  V30 8606 O 842.677 -3.08662 2.73499 0
M  V30 8607 H 842.018 -0.301737 0.591482 0
M  V30 8608 H 844.548 -0.329449 2.0193 0
M  V30 8609 H 844.558 -2.42583 3.28051 0
M  V30 8610 H 843.233 -1.45235 3.89717 0
M  V30 8611 H 841.81 -2.70786 2.56377 0
M  V30 8612 N 843.995 -1.47404 -0.557645 0
M  V30 8613 C 845.242 -1.54007 -1.31484 0
M  V30 8614 C 845.57 -0.202162 -1.93447 0
M  V30 8615 O 844.825 0.804901 -1.78381 0
M  V30 8616 C 845.124 -2.6061 -2.44575 0
M  V30 8617 C 844.79 -4.03896 -2.00446 0
M  V30 8618 C 843.452 -4.42901 -1.88127 0
M  V30 8619 C 845.804 -4.93804 -1.66754 0
M  V30 8620 C 843.132 -5.6965 -1.40411 0
M  V30 8621 C 845.484 -6.21016 -1.20509 0
M  V30 8622 C 844.148 -6.58903 -1.06786 0
M  V30 8623 H 843.418 -0.563552 -0.481134 0
M  V30 8624 H 846.065 -1.81001 -0.625375 0
M  V30 8625 H 844.37 -2.27371 -3.19076 0
M  V30 8626 H 846.067 -2.62941 -3.02759 0
M  V30 8627 H 842.657 -3.73077 -2.10977 0
M  V30 8628 H 846.841 -4.64369 -1.75144 0
M  V30 8629 H 842.097 -5.97755 -1.2845 0
M  V30 8630 H 846.271 -6.90095 -0.935001 0
M  V30 8631 H 843.898 -7.57008 -0.695891 0
M  V30 8632 N 845.473 0.80434 -1.35529 0
M  V30 8633 C 846.701 1.59283 -1.32048 0
M  V30 8634 C 847.116 1.88527 0.101556 0
M  V30 8635 O 846.473 1.48975 1.05417 0
M  V30 8636 C 846.524 2.92276 -2.12737 0
M  V30 8637 O 846.245 2.64299 -3.49396 0
M  V30 8638 C 847.746 3.86631 -2.16867 0
M  V30 8639 H 844.966 0.494523 -0.453528 0
M  V30 8640 H 847.51 0.999415 -1.78415 0
M  V30 8641 H 845.665 3.48125 -1.69964 0
M  V30 8642 H 846.079 3.4923 -3.91329 0
M  V30 8643 H 847.553 4.77053 -2.77712 0
M  V30 8644 H 848.03 4.23384 -1.16803 0
M  V30 8645 H 848.636 3.36717 -2.59811 0
M  V30 8646 N 846.951 1.19563 1.02676 0
M  V30 8647 C 848.197 1.00105 1.76371 0
M  V30 8648 C 848.53 -0.466823 1.88506 0
M  V30 8649 O 847.805 -1.34665 1.40341 0
M  V30 8650 C 848.088 1.67321 3.18866 0
M  V30 8651 C 847.941 3.21486 3.1459 0
M  V30 8652 C 849.26 1.39794 4.17308 0
M  V30 8653 H 846.379 0.365075 0.640226 0
M  V30 8654 H 849.021 1.47433 1.19848 0
M  V30 8655 H 847.171 1.27081 3.67128 0
M  V30 8656 H 848.843 3.70953 2.7421 0
M  V30 8657 H 847.086 3.5292 2.52249 0
M  V30 8658 H 847.757 3.63665 4.15273 0
M  V30 8659 H 850.233 1.74685 3.77657 0
M  V30 8660 H 849.109 1.89371 5.15199 0
M  V30 8661 H 849.37 0.323505 4.40915 0
M  V30 8662 N 848.429 -1.21819 0.999893 0
M  V30 8663 C 849.376 -2.24003 0.556005 0
M  V30 8664 C 850.346 -1.60825 -0.415287 0
M  V30 8665 O 851.531 -1.88123 -0.318481 0
M  V30 8666 C 848.671 -3.44904 -0.116289 0
M  V30 8667 C 847.784 -4.22573 0.897574 0
M  V30 8668 C 846.919 -5.30831 0.198073 0
M  V30 8669 C 845.958 -6.00225 1.19983 0
M  V30 8670 N 845.095 -7.00111 0.528157 0
M  V30 8671 H 849.935 -2.61334 1.43208 0
M  V30 8672 H 847.472 -1.28431 0.717205 0
M  V30 8673 H 849.43 -4.13908 -0.523055 0
M  V30 8674 H 848.06 -3.08315 -0.956108 0
M  V30 8675 H 847.112 -3.52797 1.42262 0
M  V30 8676 H 848.424 -4.70363 1.66013 0
M  V30 8677 H 847.578 -6.06121 -0.265065 0
M  V30 8678 H 846.317 -4.84033 -0.596924 0
M  V30 8679 H 845.322 -5.23711 1.67353 0
M  V30 8680 H 846.547 -6.4911 1.99582 0
M  V30 8681 H 844.493 -6.55534 -0.247276 0
M  V30 8682 H 844.41 -7.45943 1.22904 0
M  V30 8683 H 845.678 -7.7945 0.0880543 0
M  V30 8684 N 849.908 -0.773975 -1.37286 0
M  V30 8685 C 850.818 -0.162571 -2.34036 0
M  V30 8686 C 851.834 0.677022 -1.60289 0
M  V30 8687 O 853.01 0.596423 -1.92366 0
M  V30 8688 C 850.075 0.70457 -3.39465 0
M  V30 8689 C 849.136 -0.151738 -4.29032 0
M  V30 8690 C 848.369 0.674111 -5.29426 0
M  V30 8691 O 848.592 1.91107 -5.37433 0
M  V30 8692 O 847.526 0.0821398 -6.01844 0
M  V30 8693 H 851.352 -0.962119 -2.88057 0
M  V30 8694 H 848.937 -0.53517 -1.39486 0
M  V30 8695 H 850.819 1.19954 -4.03967 0
M  V30 8696 H 849.494 1.48227 -2.87768 0
M  V30 8697 H 848.401 -0.693118 -3.67623 0
M  V30 8698 H 849.734 -0.892575 -4.84039 0
M  V30 8699 N 851.386 1.48609 -0.524698 0
M  V30 8700 C 852.634 2.02097 0.0112991 0
M  V30 8701 C 852.955 1.40455 1.35268 0
M  V30 8702 O 852.225 0.56807 1.87483 0
M  V30 8703 H 850.805 0.746966 0.00716426 0
M  V30 8704 H 853.467 1.82378 -0.687329 0
M  V30 8705 H 852.563 3.11855 0.123531 0
M  V30 8706 N 852.864 0.259585 1.55447 0
M  V30 8707 C 854.141 -0.412595 1.91199 0
M  V30 8708 C 854.521 -1.74909 1.18194 0
M  V30 8709 O 853.869 -2.26474 0.303603 0
M  V30 8710 C 854.079 -0.568195 3.44344 0
M  V30 8711 C 855.427 -0.858253 4.15836 0
M  V30 8712 O 856.451 -0.653588 3.50152 0
M  V30 8713 O 855.31 -1.24874 5.32042 0
M  V30 8714 H 852.404 -0.223403 0.796254 0
M  V30 8715 H 854.95 0.30459 1.66944 0
M  V30 8716 H 853.722 0.372989 3.89518 0
M  V30 8717 H 853.345 -1.33544 3.74502 0
M  V30 8718 N 854.342 -1.57594 -0.0133615 0
M  V30 8719 C 855.252 -2.10991 -1.02566 0
M  V30 8720 C 856.268 -1.05208 -1.3859 0
M  V30 8721 O 857.444 -1.37034 -1.47593 0
M  V30 8722 C 854.509 -2.59165 -2.30292 0
M  V30 8723 C 853.57 -3.79495 -2.00704 0
M  V30 8724 C 852.803 -4.25361 -3.22341 0
M  V30 8725 O 853.026 -3.70645 -4.33565 0
M  V30 8726 O 851.96 -5.17649 -3.07121 0
M  V30 8727 H 855.786 -2.97678 -0.601806 0
M  V30 8728 H 853.371 -1.47598 -0.23135 0
M  V30 8729 H 855.253 -2.90409 -3.05354 0
M  V30 8730 H 853.928 -1.75582 -2.71942 0
M  V30 8731 H 852.835 -3.53245 -1.23161 0
M  V30 8732 H 854.168 -4.64109 -1.639 0
M  V30 8733 N 855.82 0.285905 -1.54985 0
M  V30 8734 C 857.066 1.02071 -1.75241 0
M  V30 8735 C 857.399 1.864 -0.544842 0
M  V30 8736 O 856.674 1.89034 0.457844 0
M  V30 8737 C 856.957 1.91409 -3.05016 0
M  V30 8738 C 856.81 1.10158 -4.36102 0
M  V30 8739 C 858.129 2.90335 -3.30747 0
M  V30 8740 H 855.248 0.369663 -0.637588 0
M  V30 8741 H 857.89 0.294114 -1.8771 0
M  V30 8742 H 856.04 2.53362 -2.94517 0
M  V30 8743 H 857.712 0.503756 -4.58541 0
M  V30 8744 H 855.955 0.404675 -4.31908 0
M  V30 8745 H 856.626 1.75956 -5.23205 0
M  V30 8746 H 859.102 2.38514 -3.40955 0
M  V30 8747 H 857.978 3.49997 -4.2284 0
M  V30 8748 H 858.239 3.64787 -2.49765 0
M  V30 8749 N 857.298 1.47698 0.54982 0
M  V30 8750 C 858.526 1.5833 1.33188 0
M  V30 8751 C 858.941 0.236193 1.87317 0
M  V30 8752 O 858.298 -0.77167 1.65383 0
M  V30 8753 C 858.349 2.61438 2.49664 0
M  V30 8754 O 858.07 3.9092 1.97771 0
M  V30 8755 C 859.571 2.82324 3.41772 0
M  V30 8756 H 856.791 0.53443 0.405741 0
M  V30 8757 H 859.335 1.93375 0.665309 0
M  V30 8758 H 857.49 2.29307 3.12245 0
M  V30 8759 H 857.904 4.47323 2.73866 0
M  V30 8760 H 859.378 3.58316 4.19897 0
M  V30 8761 H 859.855 1.90416 3.95776 0
M  V30 8762 H 860.461 3.15682 2.85 0
M  V30 8763 N 858.776 -0.797141 1.35954 0
M  V30 8764 C 860.022 -1.55698 1.29946 0
M  V30 8765 C 860.355 -1.93808 -0.123259 0
M  V30 8766 O 859.63 -1.62102 -1.07486 0
M  V30 8767 C 859.913 -2.83926 2.2149 0
M  V30 8768 C 859.766 -2.52232 3.72423 0
M  V30 8769 C 861.085 -3.85698 2.11955 0
M  V30 8770 H 858.204 -0.56488 0.47337 0
M  V30 8771 H 860.846 -0.916421 1.66438 0
M  V30 8772 H 858.996 -3.38588 1.905 0
M  V30 8773 H 860.668 -2.0368 4.13899 0
M  V30 8774 H 858.911 -1.85286 3.92239 0
M  V30 8775 H 859.582 -3.43782 4.31877 0
M  V30 8776 H 862.058 -3.40462 2.39218 0
M  V30 8777 H 860.934 -4.73182 2.78191 0
M  V30 8778 H 861.195 -4.28083 1.10442 0
M  V30 8779 N 860.254 -1.20106 -1.0204 0
M  V30 8780 C 861.503 -1.00316 -1.74985 0
M  V30 8781 C 861.816 0.465814 -1.89972 0
M  V30 8782 O 863.022 0.782749 -2.59972 0
M  V30 8783 C 861.478 -1.74608 -3.14706 0
M  V30 8784 C 861.086 -3.25573 -3.07744 0
M  V30 8785 C 862.83 -1.63172 -3.91887 0
M  V30 8786 C 860.737 -3.92419 -4.42449 0
M  V30 8787 H 859.667 -0.371728 -0.655999 0
M  V30 8788 H 862.318 -1.43688 -1.14131 0
M  V30 8789 H 860.7 -1.24021 -3.76078 0
M  V30 8790 H 861.874 -3.83345 -2.55702 0
M  V30 8791 H 860.189 -3.3738 -2.44057 0
M  V30 8792 H 862.786 -2.10457 -4.9154 0
M  V30 8793 H 863.129 -0.58728 -4.12137 0
M  V30 8794 H 863.662 -2.11152 -3.37135 0
M  V30 8795 H 860.401 -4.96998 -4.27403 0
M  V30 8796 H 859.921 -3.39436 -4.94513 0
M  V30 8797 H 861.6 -3.96453 -5.11306 0
M  V30 8798 N 861.732 1.21287 -1.00634 0
M  V30 8799 C 862.978 1.90671 -0.690822 0
M  V30 8800 C 863.311 1.77996 0.776592 0
M  V30 8801 O 862.586 1.15748 1.5631 0
M  V30 8802 C 862.869 3.42426 -1.11428 0
M  V30 8803 C 862.722 3.64086 -2.64124 0
M  V30 8804 C 864.041 4.34851 -0.677686 0
M  V30 8805 H 861.16 0.692419 -0.252439 0
M  V30 8806 H 863.802 1.42893 -1.25226 0
M  V30 8807 H 861.952 3.83249 -0.636586 0
M  V30 8808 H 863.624 3.32582 -3.19667 0
M  V30 8809 H 861.867 3.07906 -3.05576 0
M  V30 8810 H 862.538 4.7042 -2.88806 0
M  V30 8811 H 865.014 4.01619 -1.0882 0
M  V30 8812 H 863.89 5.39675 -1.00213 0
M  V30 8813 H 864.151 4.4009 0.421125 0
M  V30 8814 N 863.21 0.781244 1.36873 0
M  V30 8815 C 864.438 0.361566 2.03716 0
M  V30 8816 C 864.853 -1.01937 1.58916 0
M  V30 8817 O 864.21 -1.65237 0.774783 0
M  V30 8818 C 864.261 0.406391 3.59208 0
M  V30 8819 O 863.982 1.73286 4.02372 0
M  V30 8820 C 865.483 -0.0236894 4.43294 0
M  V30 8821 H 862.703 0.150133 0.653988 0
M  V30 8822 H 865.247 1.05781 1.75016 0
M  V30 8823 H 863.402 -0.241364 3.86647 0
M  V30 8824 H 863.816 1.67804 4.96933 0
M  V30 8825 H 865.29 0.0588205 5.51969 0
M  V30 8826 H 865.767 -1.07529 4.25833 0
M  V30 8827 H 866.373 0.59624 4.211 0
M  V30 8828 N 864.689 -1.48329 0.532571 0
M  V30 8829 C 865.637 -2.31336 -0.242133 0
M  V30 8830 C 866.631 -1.41391 -0.933006 0
M  V30 8831 O 867.837 -1.58284 -0.857096 0
M  V30 8832 H 864.212 -0.745724 -0.0969536 0
M  V30 8833 H 866.183 -2.94555 0.477504 0
M  V30 8834 C 864.932 -3.23501 -1.27446 0
M  V30 8835 H 864.255 -3.92659 -0.752261 0
M  V30 8836 H 865.695 -3.84461 -1.78789 0
M  V30 8837 C 864.154 -2.45288 -2.30944 0
M  V30 8838 O 864.684 -2.17955 -3.37429 0
M  V30 8839 N 862.89 -2.06737 -2.04226 0
M  V30 8840 H 862.437 -2.29166 -1.17647 0
M  V30 8841 H 862.395 -1.54719 -2.73696 0
M  V30 8842 N 866.167 -0.267825 -1.55308 0
M  V30 8843 C 867.097 0.616585 -2.25212 0
M  V30 8844 C 868.078 1.16472 -1.23969 0
M  V30 8845 O 869.263 1.20021 -1.52672 0
M  V30 8846 C 866.393 1.80412 -2.96764 0
M  V30 8847 C 865.347 1.38784 -4.04874 0
M  V30 8848 C 864.673 2.65789 -4.63961 0
M  V30 8849 C 865.973 0.543415 -5.19465 0
M  V30 8850 H 867.667 0.0336257 -2.99381 0
M  V30 8851 H 865.213 0.0147328 -1.43992 0
M  V30 8852 H 867.166 2.42866 -3.44375 0
M  V30 8853 H 865.89 2.4128 -2.20118 0
M  V30 8854 H 864.549 0.786541 -3.58063 0
M  V30 8855 H 864.197 3.24899 -3.83992 0
M  V30 8856 H 863.897 2.38651 -5.36954 0
M  V30 8857 H 865.421 3.29104 -5.14318 0
M  V30 8858 H 866.835 1.07277 -5.63174 0
M  V30 8859 H 865.232 0.367219 -5.98975 0
M  V30 8860 H 866.302 -0.439534 -4.82904 0
M  V30 8861 N 867.645 1.57599 0.00500368 0
M  V30 8862 C 868.922 1.81561 0.727654 0
M  V30 8863 C 869.302 0.871604 1.92266 0
M  V30 8864 O 868.65 -0.0808232 2.28357 0
M  V30 8865 C 868.86 3.29922 1.13809 0
M  V30 8866 C 870.208 3.95531 1.54403 0
M  V30 8867 O 871.232 3.34215 1.23202 0
M  V30 8868 O 870.091 5.03535 2.12402 0
M  V30 8869 H 867.185 0.747462 0.353878 0
M  V30 8870 H 869.731 1.69688 -0.0200667 0
M  V30 8871 H 868.503 3.90253 0.286078 0
M  V30 8872 H 868.126 3.46775 1.94507 0
M  V30 8873 N 869.123 -0.277682 1.55134 0
M  V30 8874 C 870.033 -1.36524 1.90783 0
M  V30 8875 C 871.049 -1.54283 0.804542 0
M  V30 8876 O 872.225 -1.68499 1.10318 0
M  V30 8877 C 869.29 -2.70524 2.16835 0
M  V30 8878 C 868.351 -2.61552 3.40424 0
M  V30 8879 C 867.584 -3.89162 3.65224 0
M  V30 8880 O 867.807 -4.89624 2.92616 0
M  V30 8881 O 866.741 -3.89647 4.58758 0
M  V30 8882 H 870.567 -1.0929 2.83354 0
M  V30 8883 H 868.152 -0.475799 1.41621 0
M  V30 8884 H 870.034 -3.49765 2.35038 0
M  V30 8885 H 868.709 -2.97555 1.27448 0
M  V30 8886 H 867.616 -1.80704 3.27562 0
M  V30 8887 H 868.949 -2.39472 4.30016 0
M  V30 8888 N 870.601 -1.47988 -0.541979 0
M  V30 8889 C 871.85 -1.5465 -1.29485 0
M  V30 8890 C 872.163 -0.220041 -1.94358 0
M  V30 8891 O 873.369 -0.164792 -2.70999 0
M  V30 8892 C 871.825 -2.72685 -2.34885 0
M  V30 8893 C 871.433 -4.11923 -1.76134 0
M  V30 8894 C 873.177 -2.88651 -3.11257 0
M  V30 8895 C 871.084 -5.21237 -2.79404 0
M  V30 8896 H 870.014 -0.575688 -0.486928 0
M  V30 8897 H 872.665 -1.74296 -0.573853 0
M  V30 8898 H 871.047 -2.46448 -3.09966 0
M  V30 8899 H 872.221 -4.48128 -1.07322 0
M  V30 8900 H 870.536 -4.00972 -1.12295 0
M  V30 8901 H 873.133 -3.67487 -3.88404 0
M  V30 8902 H 873.476 -1.97658 -3.66384 0
M  V30 8903 H 874.009 -3.14731 -2.43288 0
M  V30 8904 H 870.748 -6.14156 -2.29113 0
M  V30 8905 H 870.268 -4.89533 -3.4658 0
M  V30 8906 H 871.947 -5.48839 -3.42615 0
M  V30 8907 N 872.079 0.78992 -1.36375 0
M  V30 8908 C 873.356 1.53584 -1.21126 0
M  V30 8909 C 873.736 2.10124 0.202785 0
M  V30 8910 O 873.084 1.93936 1.20835 0
M  V30 8911 C 873.294 2.63117 -2.29282 0
M  V30 8912 C 874.642 3.31013 -2.65924 0
M  V30 8913 O 875.666 2.734 -2.28321 0
M  V30 8914 O 874.525 4.35129 -3.30643 0
M  V30 8915 H 871.619 0.679366 -0.471583 0
M  V30 8916 H 874.165 0.828446 -1.48104 0
M  V30 8917 H 872.937 2.19329 -3.24053 0
M  V30 8918 H 872.56 3.41476 -2.03666 0
M  V30 8919 N 873.557 1.20646 1.01402 0
M  V30 8920 C 874.834 0.927176 1.72229 0
M  V30 8921 C 875.214 -0.563382 2.03443 0
M  V30 8922 O 874.562 -1.52576 1.70096 0
M  V30 8923 C 874.772 1.80285 2.98828 0
M  V30 8924 C 876.12 2.04624 3.72041 0
M  V30 8925 O 877.144 1.77559 3.0879 0
M  V30 8926 O 876.003 2.50347 4.85787 0
M  V30 8927 H 873.097 0.346891 0.75073 0
M  V30 8928 H 875.643 1.31532 1.07227 0
M  V30 8929 H 874.415 2.81204 2.72102 0
M  V30 8930 H 874.038 1.41495 3.71571 0
M  V30 8931 N 875.035 -1.20752 1.01276 0
M  V30 8932 C 875.965 -2.25658 0.600064 0
M  V30 8933 C 876.946 -1.65733 -0.38298 0
M  V30 8934 O 878.131 -1.92324 -0.269256 0
M  V30 8935 C 875.261 -3.47237 -0.0663197 0
M  V30 8936 C 874.215 -4.1973 0.83731 0
M  V30 8937 C 873.541 -5.34687 0.0369102 0
M  V30 8938 C 874.841 -4.76286 2.14357 0
M  V30 8939 H 876.535 -2.60432 1.477 0
M  V30 8940 H 874.081 -1.25187 0.711634 0
M  V30 8941 H 876.034 -4.19803 -0.366563 0
M  V30 8942 H 874.758 -3.11615 -0.977944 0
M  V30 8943 H 873.417 -3.49024 1.1215 0
M  V30 8944 H 873.065 -4.95309 -0.876244 0
M  V30 8945 H 872.765 -5.84119 0.63865 0
M  V30 8946 H 874.289 -6.10059 -0.256968 0
M  V30 8947 H 875.703 -5.40691 1.90595 0
M  V30 8948 H 874.1 -5.36139 2.69583 0
M  V30 8949 H 875.17 -3.9524 2.80916 0
M  V30 8950 N 876.513 -0.788492 -1.36457 0
M  V30 8951 C 877.741 -0.372365 -2.03522 0
M  V30 8952 C 878.156 1.01093 -1.59454 0
M  V30 8953 O 877.513 1.64824 -0.783535 0
M  V30 8954 C 877.564 -0.425435 -3.58988 0
M  V30 8955 O 877.285 -1.75418 -4.01448 0
M  V30 8956 C 878.786 0.000180167 -4.433 0
M  V30 8957 H 876.006 -0.1536 -0.653183 0
M  V30 8958 H 878.55 -1.06708 -1.74452 0
M  V30 8959 H 876.705 0.220856 -3.8677 0
M  V30 8960 H 877.119 -1.70437 -4.96036 0
M  V30 8961 H 878.593 -0.0880919 -5.5193 0
M  V30 8962 H 879.07 1.05269 -4.26398 0
M  V30 8963 H 879.676 -0.618563 -4.20778 0
M  V30 8964 N 877.991 1.48044 -0.54043 0
M  V30 8965 C 878.941 2.26768 0.236657 0
M  V30 8966 C 879.925 1.33341 0.900505 0
M  V30 8967 O 881.117 1.57809 0.801584 0
M  V30 8968 C 878.246 3.18685 1.27651 0
M  V30 8969 C 877.332 4.19589 0.616923 0
M  V30 8970 N 877.723 5.04889 -0.303377 0
M  V30 8971 C 876.021 4.37375 0.872879 0
M  V30 8972 C 876.722 5.77654 -0.684905 0
M  V30 8973 N 875.698 5.43583 -0.0435728 0
M  V30 8974 H 879.5 2.90098 -0.471183 0
M  V30 8975 H 877.014 1.58378 -0.359183 0
M  V30 8976 H 879.011 3.73752 1.84702 0
M  V30 8977 H 877.671 2.56911 1.98562 0
M  V30 8978 H 878.682 5.13461 -0.676591 0
M  V30 8979 H 875.359 3.86784 1.57177 0
M  V30 8980 H 876.749 6.56285 -1.44015 0
M  V30 8981 N 879.47 0.276058 1.55163 0
M  V30 8982 C 880.718 -0.339782 1.99223 0
M  V30 8983 C 881.039 -1.56307 1.16589 0
M  V30 8984 O 880.309 -1.94225 0.25564 0
M  V30 8985 H 878.889 -0.128534 0.735859 0
M  V30 8986 H 881.551 0.381612 1.91128 0
M  V30 8987 H 880.647 -0.629 3.05696 0
M  V30 8988 N 880.948 -1.576 0.00335426 0
M  V30 8989 C 882.195 -1.90713 -0.680791 0
M  V30 8990 C 882.523 -0.877263 -1.73592 0
M  V30 8991 O 881.778 0.117497 -1.95347 0
M  V30 8992 C 882.077 -3.3058 -1.35837 0
M  V30 8993 C 881.743 -4.48786 -0.436111 0
M  V30 8994 C 880.405 -4.80855 -0.182195 0
M  V30 8995 C 882.757 -5.20821 0.198677 0
M  V30 8996 C 880.085 -5.8233 0.714747 0
M  V30 8997 C 882.437 -6.23252 1.08351 0
M  V30 8998 C 881.101 -6.53776 1.34658 0
M  V30 8999 H 880.371 -0.697869 -0.249119 0
M  V30 9000 H 883.018 -1.91407 0.0596011 0
M  V30 9001 H 881.323 -3.26026 -2.17289 0
M  V30 9002 H 883.02 -3.53462 -1.89383 0
M  V30 9003 H 879.61 -4.23731 -0.644186 0
M  V30 9004 H 883.794 -4.96298 0.0155259 0
M  V30 9005 H 879.05 -6.04339 0.926529 0
M  V30 9006 H 883.224 -6.78199 1.58172 0
M  V30 9007 H 880.851 -7.32225 2.04328 0
M  V30 9008 N 882.426 0.269451 -1.5528 0
M  V30 9009 C 883.654 1.01872 -1.80082 0
M  V30 9010 C 884.069 1.79802 -0.575917 0
M  V30 9011 O 883.426 1.76735 0.455081 0
M  V30 9012 C 883.477 1.9745 -3.02813 0
M  V30 9013 O 883.198 1.22677 -4.20573 0
M  V30 9014 C 884.699 2.8416 -3.40247 0
M  V30 9015 H 881.919 0.300781 -0.59981 0
M  V30 9016 H 884.463 0.29916 -2.023 0
M  V30 9017 H 882.618 2.64864 -2.82712 0
M  V30 9018 H 883.032 1.87129 -4.89982 0
M  V30 9019 H 884.506 3.47014 -4.29284 0
M  V30 9020 H 884.983 3.54113 -2.59809 0
M  V30 9021 H 885.589 2.22232 -3.6262 0
M  V30 9022 N 883.904 1.48273 0.534124 0
M  V30 9023 C 884.837 1.57053 1.65559 0
M  V30 9024 C 885.815 0.421213 1.5705 0
M  V30 9025 O 886.999 0.632242 1.77581 0
M  V30 9026 C 884.126 1.49465 3.03937 0
M  V30 9027 C 883.172 2.69186 3.30819 0
M  V30 9028 S 884.005 4.31192 3.17543 0
M  V30 9029 C 885.161 4.26197 4.58375 0
M  V30 9030 H 885.394 2.51927 1.57861 0
M  V30 9031 H 882.927 1.36755 0.716763 0
M  V30 9032 H 884.885 1.45775 3.83745 0
M  V30 9033 H 883.546 0.559357 3.09079 0
M  V30 9034 H 882.739 2.60005 4.31756 0
M  V30 9035 H 882.341 2.70118 2.58674 0
M  V30 9036 H 884.633 3.95874 5.49809 0
M  V30 9037 H 885.576 5.27299 4.72611 0
M  V30 9038 H 885.984 3.56723 4.37503 0
M  V30 9039 N 885.382 -0.782676 1.36792 0
M  V30 9040 C 886.63 -1.53778 1.31136 0
M  V30 9041 C 886.951 -1.94706 -0.107014 0
M  V30 9042 O 886.221 -1.65465 -1.04872 0
M  V30 9043 H 884.801 -0.570328 0.482426 0
M  V30 9044 H 887.463 -0.932181 1.71162 0
M  V30 9045 H 886.559 -2.44224 1.94321 0
M  V30 9046 N 886.86 -1.21182 -1.00761 0
M  V30 9047 C 887.808 -0.965728 -2.11604 0
M  V30 9048 C 888.802 0.0861028 -1.69181 0
M  V30 9049 O 890.008 -0.0650558 -1.79882 0
M  V30 9050 H 886.383 -0.295023 -0.691712 0
M  V30 9051 H 888.354 -1.90667 -2.2954 0
M  V30 9052 C 887.103 -0.544164 -3.43415 0
M  V30 9053 H 886.426 -1.34515 -3.76491 0
M  V30 9054 H 887.866 -0.411268 -4.22001 0
M  V30 9055 C 886.325 0.744583 -3.28569 0
M  V30 9056 O 886.855 1.80078 -3.59075 0
M  V30 9057 N 885.061 0.710083 -2.81791 0
M  V30 9058 H 884.608 -0.14971 -2.57165 0
M  V30 9059 H 884.566 1.57268 -2.72239 0
M  V30 9060 N 888.338 1.20213 -1.01915 0
M  V30 9061 C 889.568 1.93341 -0.728197 0
M  V30 9062 C 889.976 1.75151 0.715454 0
M  V30 9063 O 889.319 1.06437 1.49722 0
M  V30 9064 C 889.381 3.45677 -0.9873 0
M  V30 9065 C 889.045 3.8763 -2.42057 0
M  V30 9066 C 890.042 3.93184 -3.40151 0
M  V30 9067 C 887.727 4.19547 -2.76199 0
M  V30 9068 C 889.721 4.30069 -4.70446 0
M  V30 9069 C 887.408 4.56106 -4.06707 0
M  V30 9070 C 888.406 4.6134 -5.03641 0
M  V30 9071 O 888.094 4.97059 -6.31813 0
M  V30 9072 H 887.826 0.621258 -0.266485 0
M  V30 9073 H 890.38 1.53577 -1.36393 0
M  V30 9074 H 888.61 3.85578 -0.294405 0
M  V30 9075 H 890.299 4.00035 -0.687536 0
M  V30 9076 H 891.065 3.68687 -3.15111 0
M  V30 9077 H 886.944 4.14663 -2.01434 0
M  V30 9078 H 890.488 4.34069 -5.46105 0
M  V30 9079 H 886.385 4.80059 -4.31525 0
M  V30 9080 H 887.153 5.15043 -6.36139 0
M  V30 9081 N 889.816 0.795718 1.36037 0
M  V30 9082 C 891.064 0.370291 1.98679 0
M  V30 9083 C 891.385 -1.06332 1.63458 0
M  V30 9084 O 890.655 -1.73394 0.911671 0
M  V30 9085 H 889.235 0.133928 0.734896 0
M  V30 9086 H 891.897 1.01915 1.6613 0
M  V30 9087 H 890.993 0.467207 3.08583 0
M  V30 9088 N 891.294 -1.47756 0.548274 0
M  V30 9089 C 892.54 -2.02789 0.0209265 0
M  V30 9090 C 892.873 -1.42268 -1.32187 0
M  V30 9091 O 892.148 -0.575001 -1.85806 0
M  V30 9092 C 892.431 -3.60007 -0.0816674 0
M  V30 9093 C 892.284 -4.30977 1.28759 0
M  V30 9094 C 893.603 -4.32777 -0.799515 0
M  V30 9095 H 890.722 -0.736944 0.00907884 0
M  V30 9096 H 893.364 -1.76282 0.708839 0
M  V30 9097 H 891.514 -3.82722 -0.667537 0
M  V30 9098 H 893.186 -4.19629 1.91597 0
M  V30 9099 H 891.429 -3.9168 1.86466 0
M  V30 9100 H 892.1 -5.39488 1.16861 0
M  V30 9101 H 894.576 -4.15001 -0.30216 0
M  V30 9102 H 893.452 -5.42431 -0.840239 0
M  V30 9103 H 893.713 -4.01358 -1.85375 0
M  V30 9104 N 892.772 -0.284283 -1.55015 0
M  V30 9105 C 893.735 0.586182 -2.21577 0
M  V30 9106 C 894.735 1.07427 -1.1965 0
M  V30 9107 O 895.925 0.972977 -1.44495 0
M  V30 9108 C 893.057 1.80973 -2.88897 0
M  V30 9109 H 894.25 0.00487253 -2.999 0
M  V30 9110 H 891.803 -0.0349696 -1.56261 0
M  V30 9111 H 892.538 2.43131 -2.14611 0
M  V30 9112 H 892.323 1.46757 -3.636 0
M  V30 9113 H 893.813 2.42853 -3.39724 0
M  V30 9114 N 894.251 1.57596 -0.0117121 0
M  V30 9115 C 895.184 2.04624 1.01016 0
M  V30 9116 C 896.162 0.938437 1.32786 0
M  V30 9117 O 897.346 1.20746 1.44751 0
M  V30 9118 C 894.473 2.45369 2.33477 0
M  V30 9119 C 893.519 3.66998 2.17289 0
M  V30 9120 S 894.352 5.14412 1.48795 0
M  V30 9121 C 895.508 5.58438 2.82662 0
M  V30 9122 H 895.741 2.9098 0.60977 0
M  V30 9123 H 893.274 1.53106 0.199494 0
M  V30 9124 H 895.232 2.69511 3.09635 0
M  V30 9125 H 893.893 1.59391 2.70653 0
M  V30 9126 H 893.086 3.93297 3.15172 0
M  V30 9127 H 892.688 3.42918 1.49275 0
M  V30 9128 H 894.98 5.61614 3.78941 0
M  V30 9129 H 895.923 6.58224 2.61049 0
M  V30 9130 H 896.331 4.86033 2.8711 0
M  V30 9131 N 895.729 -0.261212 1.5542 0
M  V30 9132 C 896.639 -1.34493 1.92221 0
M  V30 9133 C 897.655 -1.53421 0.82086 0
M  V30 9134 O 898.831 -1.6732 1.12099 0
M  V30 9135 C 895.896 -2.68209 2.19692 0
M  V30 9136 C 894.957 -2.57927 3.43179 0
M  V30 9137 C 894.19 -3.85266 3.69331 0
M  V30 9138 O 894.413 -4.86493 2.97793 0
M  V30 9139 O 893.347 -3.8476 4.62865 0
M  V30 9140 H 897.173 -1.06278 2.84497 0
M  V30 9141 H 894.758 -0.460752 1.42118 0
M  V30 9142 H 896.64 -3.47252 2.38734 0
M  V30 9143 H 895.315 -2.96186 1.30597 0
M  V30 9144 H 894.222 -1.77219 3.2946 0
M  V30 9145 H 895.555 -2.34898 4.32532 0
M  V30 9146 N 897.207 -1.48554 -0.526253 0
M  V30 9147 C 898.456 -1.56014 -1.27837 0
M  V30 9148 C 898.769 -0.240643 -1.94114 0
M  V30 9149 O 899.975 -0.193525 -2.70809 0
M  V30 9150 C 898.431 -2.75161 -2.31979 0
M  V30 9151 C 898.039 -4.13768 -1.71755 0
M  V30 9152 C 899.783 -2.91936 -3.08178 0
M  V30 9153 C 897.69 -5.24171 -2.7386 0
M  V30 9154 H 896.62 -0.58082 -0.480795 0
M  V30 9155 H 899.271 -1.74895 -0.555335 0
M  V30 9156 H 897.653 -2.49722 -3.07335 0
M  V30 9157 H 898.827 -4.49241 -1.02563 0
M  V30 9158 H 897.142 -4.02141 -1.08036 0
M  V30 9159 H 899.739 -3.71586 -3.84484 0
M  V30 9160 H 900.082 -2.01533 -3.64267 0
M  V30 9161 H 900.615 -3.17294 -2.39937 0
M  V30 9162 H 897.354 -6.16552 -2.22586 0
M  V30 9163 H 896.874 -4.93181 -3.41368 0
M  V30 9164 H 898.553 -5.52442 -3.36774 0
M  V30 9165 N 898.685 0.775411 -1.37205 0
M  V30 9166 C 899.933 1.53081 -1.3195 0
M  V30 9167 C 900.254 1.9476 0.0966864 0
M  V30 9168 O 899.524 1.66019 1.03993 0
M  V30 9169 H 898.104 0.567762 -0.485444 0
M  V30 9170 H 900.766 0.92309 -1.71654 0
M  V30 9171 H 899.862 2.4319 -1.95614 0
M  V30 9172 N 900.163 1.21714 1.00117 0
M  V30 9173 C 901.574 1.03477 1.55401 0
M  V30 9174 C 901.925 -0.40429 1.91989 0
M  V30 9175 O 901.05 -1.28807 1.7389 0
M  V30 9176 C 901.645 1.87213 2.82377 0
M  V30 9177 C 900.204 1.73297 3.34133 0
M  V30 9178 C 899.351 1.84189 2.07291 0
M  V30 9179 H 902.302 1.3568 0.823195 0
M  V30 9180 H 902.323 1.38465 3.54412 0
M  V30 9181 H 901.835 2.91944 2.55715 0
M  V30 9182 H 899.936 0.712662 3.65721 0
M  V30 9183 H 900.049 2.55486 4.05294 0
M  V30 9184 H 898.413 1.27538 2.20468 0
M  V30 9185 H 899.196 2.90435 1.83037 0
M  V30 9186 N 901.641 -1.19671 1.02551 0
M  V30 9187 C 902.573 -2.22215 0.561517 0
M  V30 9188 C 903.586 -1.58751 -0.360821 0
M  V30 9189 O 904.775 -1.77802 -0.157749 0
M  V30 9190 C 901.875 -3.383 -0.201494 0
M  V30 9191 C 901.048 -4.3135 0.724952 0
M  V30 9192 C 900.107 -5.26199 0.00794334 0
M  V30 9193 O 899.133 -5.65665 0.633398 0
M  V30 9194 N 900.335 -5.66573 -1.26394 0
M  V30 9195 H 903.1 -2.6265 1.44343 0
M  V30 9196 H 900.661 -1.34303 0.904122 0
M  V30 9197 H 902.653 -3.98764 -0.690625 0
M  V30 9198 H 901.223 -2.96683 -0.98479 0
M  V30 9199 H 900.443 -3.6872 1.39423 0
M  V30 9200 H 901.731 -4.90433 1.35472 0
M  V30 9201 H 901.129 -5.36538 -1.79287 0
M  V30 9202 H 899.686 -6.29304 -1.69763 0
M  V30 9203 N 903.119 -0.802921 -1.35613 0
M  V30 9204 C 904.052 -0.156345 -2.27664 0
M  V30 9205 C 905.03 0.675517 -1.47904 0
M  V30 9206 O 906.214 0.643589 -1.77173 0
M  V30 9207 C 903.341 0.78348 -3.29514 0
M  V30 9208 C 902.387 0.0317062 -4.26488 0
M  V30 9209 S 903.22 -1.30183 -5.19435 0
M  V30 9210 C 904.376 -0.366354 -6.24827 0
M  V30 9211 H 904.609 -0.936803 -2.82155 0
M  V30 9212 H 902.142 -0.597799 -1.42358 0
M  V30 9213 H 904.1 1.32023 -3.8869 0
M  V30 9214 H 902.761 1.53729 -2.73909 0
M  V30 9215 H 901.954 0.745364 -4.98458 0
M  V30 9216 H 901.556 -0.43497 -3.71462 0
M  V30 9217 H 903.848 0.44976 -6.76005 0
M  V30 9218 H 904.791 -1.05513 -7.00195 0
M  V30 9219 H 905.199 0.0363203 -5.64488 0
M  V30 9220 N 904.597 1.47463 -0.556102 0
M  V30 9221 C 905.825 2.06868 -0.0364585 0
M  V30 9222 C 906.24 1.40893 1.25677 0
M  V30 9223 O 905.597 0.505083 1.75371 0
M  V30 9224 C 905.648 3.61128 0.163984 0
M  V30 9225 O 905.369 4.24629 -1.07803 0
M  V30 9226 C 906.87 4.37397 0.721036 0
M  V30 9227 H 904.09 0.669466 -0.0453399 0
M  V30 9228 H 906.634 1.89482 -0.769198 0
M  V30 9229 H 904.789 3.78031 0.84685 0
M  V30 9230 H 905.203 5.17149 -0.875067 0
M  V30 9231 H 906.677 5.46016 0.810584 0
M  V30 9232 H 907.154 4.03604 1.73206 0
M  V30 9233 H 907.76 4.25236 0.073904 0
M  V30 9234 N 906.075 0.2925 1.54862 0
M  V30 9235 C 907.3 -0.32494 2.04839 0
M  V30 9236 C 907.725 -1.47381 1.16877 0
M  V30 9237 O 907.083 -1.80492 0.171028 0
M  V30 9238 C 907.131 -0.76694 3.5235 0
M  V30 9239 O 906.235 -1.87256 3.67436 0
M  V30 9240 H 905.576 -0.0645195 0.660858 0
M  V30 9241 H 908.106 0.431867 1.9999 0
M  V30 9242 H 908.116 -1.05804 3.94043 0
M  V30 9243 H 906.791 0.0735212 4.15835 0
M  V30 9244 H 905.368 -1.58266 3.37648 0
M  V30 9245 N 907.553 -1.57587 0.0200696 0
M  V30 9246 C 908.778 -1.96124 -0.674547 0
M  V30 9247 C 909.203 -0.896068 -1.65385 0
M  V30 9248 O 908.561 0.143925 -1.80728 0
M  V30 9249 C 908.609 -3.3376 -1.36517 0
M  V30 9250 O 907.713 -3.29483 -2.48022 0
M  V30 9251 H 907.054 -0.639719 -0.177919 0
M  V30 9252 H 909.584 -2.04447 0.0792317 0
M  V30 9253 H 909.594 -3.69785 -1.72403 0
M  V30 9254 H 908.269 -4.10832 -0.647265 0
M  V30 9255 H 906.846 -3.05162 -2.14314 0
M  V30 9256 N 909.032 0.252966 -1.55557 0
M  V30 9257 C 910.278 0.983306 -1.77367 0
M  V30 9258 C 910.611 1.85203 -0.584258 0
M  V30 9259 O 909.886 1.89963 0.417644 0
M  V30 9260 C 910.169 1.84896 -3.09007 0
M  V30 9261 C 910.022 1.00883 -4.38341 0
M  V30 9262 C 911.341 2.83254 -3.36831 0
M  V30 9263 H 908.46 0.356056 -0.645286 0
M  V30 9264 H 911.102 0.254232 -1.88291 0
M  V30 9265 H 909.252 2.47058 -2.99825 0
M  V30 9266 H 910.924 0.40638 -4.59507 0
M  V30 9267 H 909.167 0.31297 -4.3267 0
M  V30 9268 H 909.838 1.64818 -5.2682 0
M  V30 9269 H 912.314 2.31228 -3.45937 0
M  V30 9270 H 911.19 3.40949 -4.30169 0
M  V30 9271 H 911.451 3.59407 -2.57447 0
M  V30 9272 N 910.51 1.48831 0.518367 0
M  V30 9273 C 911.738 1.6112 1.298 0
M  V30 9274 C 912.153 0.275872 1.86774 0
M  V30 9275 O 911.51 -0.736416 1.66983 0
M  V30 9276 C 911.561 2.66675 2.44063 0
M  V30 9277 O 911.282 3.95027 1.89434 0
M  V30 9278 C 912.783 2.8951 3.35706 0
M  V30 9279 H 910.003 0.542916 0.394314 0
M  V30 9280 H 912.547 1.94743 0.624142 0
M  V30 9281 H 910.702 2.35879 3.07311 0
M  V30 9282 H 911.116 4.53031 2.64316 0
M  V30 9283 H 912.59 3.67142 4.12202 0
M  V30 9284 H 913.067 1.98768 3.91648 0
M  V30 9285 H 913.673 3.21656 2.7824 0
M  V30 9286 N 911.988 -0.768124 1.37614 0
M  V30 9287 C 913.235 -1.5268 1.33022 0
M  V30 9288 C 913.563 -1.94318 -0.0841918 0
M  V30 9289 O 912.818 -1.64623 -1.0582 0
M  V30 9290 C 913.117 -2.80204 2.21856 0
M  V30 9291 C 912.783 -2.57602 3.7007 0
M  V30 9292 C 911.445 -2.51146 4.10462 0
M  V30 9293 C 913.797 -2.37482 4.63952 0
M  V30 9294 C 911.125 -2.22566 5.42846 0
M  V30 9295 C 913.477 -2.10425 5.96577 0
M  V30 9296 C 912.141 -2.02416 6.36069 0
M  V30 9297 H 911.411 -0.558697 0.486763 0
M  V30 9298 H 914.058 -0.88447 1.69851 0
M  V30 9299 H 912.363 -3.49014 1.78034 0
M  V30 9300 H 914.06 -3.38099 2.15615 0
M  V30 9301 H 910.65 -2.63491 3.38039 0
M  V30 9302 H 914.834 -2.41457 4.33604 0
M  V30 9303 H 910.09 -2.14863 5.72402 0
M  V30 9304 H 914.264 -1.93857 6.68874 0
M  V30 9305 H 911.891 -1.80034 7.38574 0
M  V30 9306 N 913.466 -1.22244 -0.994698 0
M  V30 9307 C 914.712 -1.04746 -1.73655 0
M  V30 9308 C 915.045 0.41668 -1.89677 0
M  V30 9309 O 914.32 1.30897 -1.43862 0
M  V30 9310 C 914.603 -1.75716 -3.14318 0
M  V30 9311 C 914.456 -3.29714 -3.05955 0
M  V30 9312 C 915.775 -1.50809 -4.13455 0
M  V30 9313 H 912.894 -0.381921 -0.630322 0
M  V30 9314 H 915.536 -1.50559 -1.15897 0
M  V30 9315 H 913.686 -1.3677 -3.63629 0
M  V30 9316 H 915.358 -3.78093 -2.64279 0
M  V30 9317 H 913.601 -3.59484 -2.42804 0
M  V30 9318 H 914.272 -3.74547 -4.05485 0
M  V30 9319 H 916.748 -1.84636 -3.72892 0
M  V30 9320 H 915.624 -2.02964 -5.09997 0
M  V30 9321 H 915.885 -0.440292 -4.39902 0
M  V30 9322 N 914.944 1.19125 -1.03184 0
M  V30 9323 C 915.907 2.20662 -0.619766 0
M  V30 9324 C 916.907 1.57621 0.318179 0
M  V30 9325 O 918.097 1.73885 0.104783 0
M  V30 9326 C 915.229 3.40774 0.0926696 0
M  V30 9327 H 916.422 2.58633 -1.5182 0
M  V30 9328 H 913.975 1.32855 -0.823364 0
M  V30 9329 H 914.71 3.08324 1.00531 0
M  V30 9330 H 914.495 3.87766 -0.581344 0
M  V30 9331 H 915.985 4.15977 0.367792 0
M  V30 9332 N 916.422 0.810101 1.35185 0
M  V30 9333 C 917.385 0.22852 2.28058 0
M  V30 9334 C 918.385 -0.586168 1.49735 0
M  V30 9335 O 919.575 -0.40414 1.69447 0
M  V30 9336 C 916.707 -0.681041 3.34028 0
M  V30 9337 H 917.9 1.04768 2.81005 0
M  V30 9338 H 915.453 0.58101 1.451 0
M  V30 9339 H 916.188 -1.52375 2.86273 0
M  V30 9340 H 915.973 -0.0985276 3.91976 0
M  V30 9341 H 917.463 -1.08217 4.03335 0
M  V30 9342 N 917.9 -1.47166 0.563914 0
M  V30 9343 C 918.848 -2.31798 -0.193009 0
M  V30 9344 C 919.842 -1.43338 -0.902805 0
M  V30 9345 O 921.048 -1.60067 -0.823328 0
M  V30 9346 H 917.423 -0.747613 -0.0811139 0
M  V30 9347 H 919.394 -2.93476 0.539876 0
M  V30 9348 C 918.143 -3.26131 -1.20555 0
M  V30 9349 H 917.466 -3.94166 -0.668803 0
M  V30 9350 H 918.906 -3.88167 -1.70593 0
M  V30 9351 C 917.365 -2.50132 -2.25689 0
M  V30 9352 O 917.895 -2.25064 -3.3273 0
M  V30 9353 N 916.101 -2.11022 -1.99795 0
M  V30 9354 H 915.648 -2.3161 -1.1276 0
M  V30 9355 H 915.606 -1.60489 -2.70353 0
M  V30 9356 N 919.378 -0.300708 -1.54705 0
M  V30 9357 C 920.789 0.191995 -1.8571 0
M  V30 9358 C 921.14 1.53447 -1.22264 0
M  V30 9359 O 920.265 2.10054 -0.520226 0
M  V30 9360 C 920.86 0.355148 -3.36933 0
M  V30 9361 C 919.419 0.792071 -3.67972 0
M  V30 9362 C 918.566 -0.099756 -2.77121 0
M  V30 9363 H 921.517 -0.521729 -1.49879 0
M  V30 9364 H 921.538 1.18977 -3.61421 0
M  V30 9365 H 921.05 -0.622075 -3.83082 0
M  V30 9366 H 919.151 1.77986 -3.27341 0
M  V30 9367 H 919.264 0.611661 -4.75179 0
M  V30 9368 H 917.628 0.420909 -2.51198 0
M  V30 9369 H 918.411 -1.07333 -3.2609 0
M  V30 9370 N 920.856 1.57574 -0.0284266 0
M  V30 9371 C 922.104 1.91393 0.649079 0
M  V30 9372 C 922.425 0.905368 1.72708 0
M  V30 9373 O 921.695 -0.0532107 1.95828 0
M  V30 9374 H 920.275 0.70646 0.24274 0
M  V30 9375 H 922.937 1.94752 -0.076066 0
M  V30 9376 H 922.033 2.91988 1.10226 0
M  V30 9377 N 922.334 -0.244713 1.55689 0
M  V30 9378 C 923.58 -0.973886 1.77886 0
M  V30 9379 C 923.913 -1.8489 0.594071 0
M  V30 9380 O 923.188 -1.90182 -0.407564 0
M  V30 9381 C 923.471 -1.83255 3.09983 0
M  V30 9382 C 923.324 -0.985571 4.3887 0
M  V30 9383 C 924.643 -2.81464 3.38329 0
M  V30 9384 H 921.762 -0.352629 0.647165 0
M  V30 9385 H 924.404 -0.244243 1.88424 0
M  V30 9386 H 922.554 -2.45464 3.01131 0
M  V30 9387 H 924.226 -0.382005 4.59716 0
M  V30 9388 H 922.469 -0.29002 4.32829 0
M  V30 9389 H 923.14 -1.62022 5.27686 0
M  V30 9390 H 925.616 -2.2939 3.47159 0
M  V30 9391 H 924.492 -3.38663 4.31971 0
M  V30 9392 H 924.753 -3.58037 2.59349 0
M  V30 9393 N 923.813 -1.49104 -0.510467 0
M  V30 9394 C 925.043 -1.61571 -1.28757 0
M  V30 9395 C 925.451 -0.282638 -1.87077 0
M  V30 9396 O 924.794 0.740749 -1.68103 0
M  V30 9397 C 924.856 -2.61851 -2.46322 0
M  V30 9398 C 924.52 -4.06438 -2.08942 0
M  V30 9399 C 925.517 -4.93532 -1.63469 0
M  V30 9400 C 923.202 -4.52109 -2.18867 0
M  V30 9401 C 925.196 -6.24331 -1.28411 0
M  V30 9402 C 922.883 -5.82924 -1.83421 0
M  V30 9403 C 923.881 -6.68858 -1.38267 0
M  V30 9404 O 923.569 -7.97236 -1.03296 0
M  V30 9405 H 923.301 -0.547082 -0.397086 0
M  V30 9406 H 925.855 -1.95806 -0.620424 0
M  V30 9407 H 924.085 -2.22777 -3.16081 0
M  V30 9408 H 925.774 -2.63947 -3.08362 0
M  V30 9409 H 926.54 -4.59479 -1.55255 0
M  V30 9410 H 922.419 -3.85395 -2.52966 0
M  V30 9411 H 925.963 -6.9136 -0.930946 0
M  V30 9412 H 921.86 -6.16507 -1.91282 0
M  V30 9413 H 922.628 -8.10163 -1.16525 0
M  V30 9414 N 925.291 0.760815 -1.38019 0
M  V30 9415 C 926.537 1.52109 -1.35034 0
M  V30 9416 C 926.892 1.92302 0.0615509 0
M  V30 9417 O 926.185 1.62028 1.02261 0
M  V30 9418 C 926.379 2.79024 -2.23339 0
M  V30 9419 C 926.208 2.51238 -3.72974 0
M  V30 9420 C 924.978 2.44818 -4.42032 0
M  V30 9421 C 927.176 2.18499 -4.65578 0
M  V30 9422 N 925.158 2.09232 -5.77144 0
M  V30 9423 C 926.529 1.93143 -5.89148 0
M  V30 9424 C 928.584 2.04747 -4.53854 0
M  V30 9425 C 927.287 1.55423 -7.02308 0
M  V30 9426 C 929.313 1.68428 -5.66909 0
M  V30 9427 C 928.675 1.43939 -6.89537 0
M  V30 9428 H 924.774 0.556482 -0.54941 0
M  V30 9429 H 927.358 0.886614 -1.73341 0
M  V30 9430 H 925.529 3.40292 -1.87232 0
M  V30 9431 H 927.261 3.45016 -2.11533 0
M  V30 9432 H 924.016 2.61045 -3.95161 0
M  V30 9433 H 924.44 1.94104 -6.48577 0
M  V30 9434 H 929.082 2.22358 -3.59607 0
M  V30 9435 H 926.8 1.36551 -7.96479 0
M  V30 9436 H 930.386 1.5843 -5.59814 0
M  V30 9437 H 929.266 1.16253 -7.75535 0
M  V30 9438 N 926.769 1.22769 0.988202 0
M  V30 9439 C 927.999 1.07998 1.76125 0
M  V30 9440 C 928.407 -0.372062 1.85506 0
M  V30 9441 O 927.75 -1.26946 1.3278 0
M  V30 9442 C 927.812 1.6219 3.20834 0
M  V30 9443 C 927.476 3.1086 3.34986 0
M  V30 9444 C 928.473 4.08239 3.21927 0
M  V30 9445 C 926.158 3.50411 3.59886 0
M  V30 9446 C 928.152 5.43154 3.33561 0
M  V30 9447 C 925.839 4.85473 3.71159 0
M  V30 9448 C 926.837 5.81653 3.58006 0
M  V30 9449 O 926.525 7.14263 3.68895 0
M  V30 9450 H 926.257 0.378937 0.559806 0
M  V30 9451 H 928.811 1.62925 1.25078 0
M  V30 9452 H 927.041 1.01676 3.73094 0
M  V30 9453 H 928.73 1.43011 3.79872 0
M  V30 9454 H 929.496 3.79025 3.02597 0
M  V30 9455 H 925.375 2.76068 3.69198 0
M  V30 9456 H 928.919 6.18207 3.23211 0
M  V30 9457 H 924.816 5.14365 3.89998 0
M  V30 9458 H 925.584 7.21906 3.85739 0
M  V30 9459 N 928.247 -1.18576 1.03814 0
M  V30 9460 C 929.477 -1.92158 0.758864 0
M  V30 9461 C 929.885 -1.76267 -0.687498 0
M  V30 9462 O 929.228 -1.08806 -1.4801 0
M  V30 9463 C 929.29 -3.44063 1.04217 0
M  V30 9464 C 928.954 -3.8373 2.48193 0
M  V30 9465 C 929.951 -3.87722 3.46363 0
M  V30 9466 C 927.636 -4.151 2.82838 0
M  V30 9467 C 929.63 -4.2253 4.77229 0
M  V30 9468 C 927.317 -4.49578 4.13911 0
M  V30 9469 C 928.315 -4.53269 5.10917 0
M  V30 9470 O 928.003 -4.86945 6.39641 0
M  V30 9471 H 927.735 -0.61694 0.276335 0
M  V30 9472 H 930.289 -1.51388 1.38819 0
M  V30 9473 H 928.519 -3.85061 0.355709 0
M  V30 9474 H 930.208 -3.9889 0.751091 0
M  V30 9475 H 930.974 -3.63627 3.20936 0
M  V30 9476 H 926.853 -4.11406 2.08006 0
M  V30 9477 H 930.397 -4.25326 5.52941 0
M  V30 9478 H 926.294 -4.73133 4.39107 0
M  V30 9479 H 927.062 -5.04857 6.44253 0
M  V30 9480 N 929.725 -0.817259 -1.34754 0
M  V30 9481 C 930.965 -0.408429 -2.00278 0
M  V30 9482 C 931.329 1.00818 -1.634 0
M  V30 9483 O 932.53 1.51959 -2.21725 0
M  V30 9484 C 930.801 -0.598219 -3.52358 0
M  V30 9485 S 932.36 -0.281395 -4.37897 0
M  V30 9486 H 929.178 -0.154587 -0.693991 0
M  V30 9487 H 931.78 -1.06184 -1.6415 0
M  V30 9488 H 930.484 -1.62901 -3.76685 0
M  V30 9489 H 930.015 0.0701299 -3.93337 0
M  V30 9490 H 932.03 0.907024 -4.8784 0
M  V30 9491 N 931.203 1.46865 -0.571711 0
M  V30 9492 C 932.135 2.28277 0.205479 0
M  V30 9493 C 933.148 1.37866 0.865835 0
M  V30 9494 O 934.337 1.62564 0.737247 0
M  V30 9495 C 931.437 3.12572 1.30965 0
M  V30 9496 C 930.61 4.31038 0.743328 0
M  V30 9497 C 929.669 4.96815 1.73382 0
M  V30 9498 O 928.695 5.54755 1.2742 0
M  V30 9499 N 929.897 4.92825 3.06764 0
M  V30 9500 H 932.662 2.95618 -0.49294 0
M  V30 9501 H 930.223 1.56655 -0.408744 0
M  V30 9502 H 932.215 3.53442 1.97131 0
M  V30 9503 H 930.785 2.47378 1.91109 0
M  V30 9504 H 930.005 3.94084 -0.0955004 0
M  V30 9505 H 931.293 5.07632 0.344556 0
M  V30 9506 H 930.691 4.46978 3.46738 0
M  V30 9507 H 929.248 5.3767 3.68449 0
M  V30 9508 N 932.681 0.308908 1.54543 0
M  V30 9509 C 933.927 -0.291311 2.01303 0
M  V30 9510 C 934.282 -1.50917 1.19339 0
M  V30 9511 O 933.575 -1.89776 0.263724 0
M  V30 9512 C 933.769 -0.691522 3.50646 0
M  V30 9513 C 933.598 0.486007 4.47066 0
M  V30 9514 C 932.368 0.980515 4.95695 0
M  V30 9515 C 934.566 1.33352 4.96711 0
M  V30 9516 N 932.548 2.12398 5.75986 0
M  V30 9517 C 933.919 2.32436 5.74781 0
M  V30 9518 C 935.974 1.36298 4.78881 0
M  V30 9519 C 934.677 3.34252 6.36921 0
M  V30 9520 C 936.703 2.36976 5.41845 0
M  V30 9521 C 936.065 3.34789 6.19755 0
M  V30 9522 H 932.164 -0.0708418 0.778785 0
M  V30 9523 H 934.748 0.440621 1.89649 0
M  V30 9524 H 932.919 -1.39261 3.62575 0
M  V30 9525 H 934.651 -1.27196 3.84192 0
M  V30 9526 H 931.406 0.55419 4.70346 0
M  V30 9527 H 931.83 2.70036 6.20814 0
M  V30 9528 H 936.472 0.620472 4.18222 0
M  V30 9529 H 934.19 4.09417 6.96709 0
M  V30 9530 H 937.776 2.40039 5.29974 0
M  V30 9531 H 936.656 4.11418 6.67611 0
M  V30 9532 N 934.159 -1.57557 0.0367827 0
M  V30 9533 C 935.406 -1.92114 -0.640185 0
M  V30 9534 C 935.734 -0.913887 -1.71693 0
M  V30 9535 O 934.989 0.0760343 -1.95552 0
M  V30 9536 C 935.288 -3.33387 -1.28794 0
M  V30 9537 C 934.954 -4.4961 -0.340819 0
M  V30 9538 C 933.616 -4.81133 -0.0801574 0
M  V30 9539 C 935.968 -5.20283 0.309106 0
M  V30 9540 C 933.296 -5.80683 0.838107 0
M  V30 9541 C 935.648 -6.20813 1.21547 0
M  V30 9542 C 934.312 -6.50773 1.48495 0
M  V30 9543 H 933.582 -0.702996 -0.23426 0
M  V30 9544 H 936.229 -1.91238 0.100188 0
M  V30 9545 H 934.534 -3.30561 -2.10324 0
M  V30 9546 H 936.231 -3.57399 -1.81843 0
M  V30 9547 H 932.821 -4.25002 -0.554161 0
M  V30 9548 H 937.005 -4.96153 0.120794 0
M  V30 9549 H 932.261 -6.02238 1.05451 0
M  V30 9550 H 936.435 -6.74692 1.72522 0
M  V30 9551 H 934.062 -7.27727 2.19814 0
M  V30 9552 N 935.637 0.236453 -1.55816 0
M  V30 9553 C 936.877 0.970249 -1.79904 0
M  V30 9554 C 937.241 1.8212 -0.607965 0
M  V30 9555 O 938.442 2.58759 -0.727833 0
M  V30 9556 C 936.713 1.79938 -3.088 0
M  V30 9557 S 938.272 2.59084 -3.54148 0
M  V30 9558 H 935.09 0.32618 -0.631765 0
M  V30 9559 H 937.692 0.237147 -1.94056 0
M  V30 9560 H 936.396 1.16412 -3.93544 0
M  V30 9561 H 935.927 2.57504 -2.97414 0
M  V30 9562 H 937.942 3.82315 -3.16306 0
M  V30 9563 N 937.115 1.49373 0.502552 0
M  V30 9564 C 938.065 1.62321 1.60112 0
M  V30 9565 C 939.049 0.47895 1.53606 0
M  V30 9566 O 940.241 0.731824 1.61162 0
M  V30 9567 C 937.37 1.69162 2.98729 0
M  V30 9568 C 936.456 2.89161 3.10237 0
M  V30 9569 N 936.847 4.13256 2.91638 0
M  V30 9570 C 935.145 2.87065 3.41335 0
M  V30 9571 C 935.846 4.93913 3.07287 0
M  V30 9572 N 934.822 4.27249 3.36094 0
M  V30 9573 H 938.624 2.55989 1.44384 0
M  V30 9574 H 936.138 1.46123 0.708644 0
M  V30 9575 H 938.135 1.76536 3.77678 0
M  V30 9576 H 936.795 0.766301 3.15528 0
M  V30 9577 H 937.806 4.4326 2.67844 0
M  V30 9578 H 934.483 2.03905 3.6432 0
M  V30 9579 H 935.873 6.02491 2.97413 0
M  V30 9580 N 938.594 -0.753485 1.38421 0
M  V30 9581 C 939.557 -1.84888 1.35459 0
M  V30 9582 C 940.557 -1.58764 0.255083 0
M  V30 9583 O 941.747 -1.66507 0.511978 0
M  V30 9584 C 938.879 -3.22361 1.10888 0
M  V30 9585 H 940.072 -1.88922 2.32913 0
M  V30 9586 H 937.625 -0.955199 1.23716 0
M  V30 9587 H 938.36 -3.23996 0.1404 0
M  V30 9588 H 938.145 -3.42717 1.90492 0
M  V30 9589 H 939.635 -4.02437 1.1151 0
M  V30 9590 N 940.072 -1.23292 -0.981677 0
M  V30 9591 C 941.002 -1.03738 -2.09191 0
M  V30 9592 C 941.983 0.0453041 -1.7004 0
M  V30 9593 O 943.168 -0.119092 -1.93834 0
M  V30 9594 C 940.298 -0.626426 -3.41604 0
M  V30 9595 C 939.252 -1.65631 -3.94652 0
M  V30 9596 C 938.578 -1.10084 -5.23245 0
M  V30 9597 C 939.878 -3.04903 -4.24066 0
M  V30 9598 H 941.572 -1.966 -2.25807 0
M  V30 9599 H 939.118 -0.946656 -1.0851 0
M  V30 9600 H 941.071 -0.476689 -4.18695 0
M  V30 9601 H 939.795 0.337873 -3.24848 0
M  V30 9602 H 938.454 -1.79402 -3.19704 0
M  V30 9603 H 938.102 -0.127562 -5.02838 0
M  V30 9604 H 937.802 -1.78896 -5.59705 0
M  V30 9605 H 939.326 -0.962928 -6.02959 0
M  V30 9606 H 940.74 -2.94441 -4.91912 0
M  V30 9607 H 939.137 -3.70941 -4.71724 0
M  V30 9608 H 940.207 -3.53991 -3.31389 0
M  V30 9609 N 941.55 1.18024 -1.04442 0
M  V30 9610 C 942.5 2.19714 -0.609069 0
M  V30 9611 C 943.484 1.57037 0.350473 0
M  V30 9612 O 944.676 1.76192 0.16892 0
M  V30 9613 C 941.805 3.43293 0.0225911 0
M  V30 9614 C 940.891 4.13084 -0.960325 0
M  V30 9615 N 941.282 4.58819 -2.12883 0
M  V30 9616 C 939.58 4.38999 -0.787146 0
M  V30 9617 C 940.281 5.12589 -2.75004 0
M  V30 9618 N 939.257 5.04333 -2.02853 0
M  V30 9619 H 943.059 2.5277 -1.49948 0
M  V30 9620 H 940.573 1.34271 -0.913517 0
M  V30 9621 H 942.57 4.1541 0.352196 0
M  V30 9622 H 941.23 3.11731 0.908495 0
M  V30 9623 H 942.241 4.53148 -2.50754 0
M  V30 9624 H 938.918 4.17472 0.048348 0
M  V30 9625 H 940.308 5.58152 -3.74053 0
M  V30 9626 N 943.028 0.824394 1.34319 0
M  V30 9627 C 943.961 0.192544 2.27386 0
M  V30 9628 C 944.939 -0.651901 1.4896 0
M  V30 9629 O 946.123 -0.615321 1.78174 0
M  V30 9630 C 943.25 -0.730958 3.30718 0
M  V30 9631 C 942.296 0.0361484 4.26485 0
M  V30 9632 S 943.129 1.3843 5.17298 0
M  V30 9633 C 944.285 0.465713 6.24165 0
M  V30 9634 H 944.518 0.981573 2.80629 0
M  V30 9635 H 942.051 0.620371 1.41389 0
M  V30 9636 H 944.009 -1.25822 3.90742 0
M  V30 9637 H 942.67 -1.49352 2.7632 0
M  V30 9638 H 941.863 -0.665969 4.99581 0
M  V30 9639 H 941.465 0.494011 3.70723 0
M  V30 9640 H 943.757 -0.342157 6.76635 0
M  V30 9641 H 944.7 1.16639 6.98427 0
M  V30 9642 H 945.108 0.0534895 5.64475 0
M  V30 9643 N 944.506 -1.46559 0.579492 0
M  V30 9644 C 945.416 -2.34066 -0.15816 0
M  V30 9645 C 946.432 -1.49556 -0.88932 0
M  V30 9646 O 947.608 -1.82434 -0.853226 0
M  V30 9647 C 944.673 -3.26683 -1.161 0
M  V30 9648 C 943.734 -4.27092 -0.434855 0
M  V30 9649 C 942.967 -5.15283 -1.38992 0
M  V30 9650 O 943.19 -5.06345 -2.62623 0
M  V30 9651 O 942.124 -5.95099 -0.902253 0
M  V30 9652 H 945.95 -2.98488 0.560234 0
M  V30 9653 H 943.535 -1.45482 0.339918 0
M  V30 9654 H 945.417 -3.8383 -1.73932 0
M  V30 9655 H 944.092 -2.64862 -1.86091 0
M  V30 9656 H 942.999 -3.73641 0.185224 0
M  V30 9657 H 944.332 -4.9169 0.224031 0
M  V30 9658 N 945.984 -0.3171 -1.54377 0
M  V30 9659 C 946.917 0.594178 -2.20329 0
M  V30 9660 C 947.895 1.12067 -1.17812 0
M  V30 9661 O 949.079 1.18588 -1.46524 0
M  V30 9662 C 946.206 1.81463 -2.85987 0
M  V30 9663 C 945.252 1.41996 -4.02168 0
M  V30 9664 S 946.085 0.462159 -5.33502 0
M  V30 9665 C 947.241 1.69004 -6.02651 0
M  V30 9666 H 947.474 0.0339261 -2.97281 0
M  V30 9667 H 945.007 -0.101196 -1.54068 0
M  V30 9668 H 946.965 2.51494 -3.2444 0
M  V30 9669 H 945.626 2.34606 -2.08851 0
M  V30 9670 H 944.819 2.32921 -4.4695 0
M  V30 9671 H 944.421 0.799423 -3.65356 0
M  V30 9672 H 946.713 2.62839 -6.24437 0
M  V30 9673 H 947.656 1.28451 -6.96352 0
M  V30 9674 H 948.064 1.87408 -5.32483 0
M  V30 9675 N 947.462 1.57535 -0.0451378 0
M  V30 9676 C 948.878 1.56533 0.311373 0
M  V30 9677 C 949.078 1.05225 1.71843 0
M  V30 9678 O 948.134 0.706144 2.42425 0
M  V30 9679 C 949.447 3.00349 0.145348 0
M  V30 9680 C 950.995 3.12248 0.216908 0
M  V30 9681 C 951.47 4.57931 0.0794834 0
M  V30 9682 N 952.961 4.63 0.135954 0
M  V30 9683 C 953.696 5.73375 0.0536426 0
M  V30 9684 N 953.192 6.92753 -0.0806725 0
M  V30 9685 N 954.985 5.61995 0.108789 0
M  V30 9686 H 947.136 1.89211 -0.965044 0
M  V30 9687 H 949.399 0.871068 -0.374091 0
M  V30 9688 H 949.105 3.41898 -0.824533 0
M  V30 9689 H 948.979 3.66086 0.908903 0
M  V30 9690 H 951.366 2.70601 1.17726 0
M  V30 9691 H 951.447 2.49201 -0.577299 0
M  V30 9692 H 951.091 5.00262 -0.877516 0
M  V30 9693 H 951.021 5.18977 0.892758 0
M  V30 9694 H 953.512 3.77142 0.23926 0
M  V30 9695 H 953.825 7.7268 -0.136351 0
M  V30 9696 H 952.17 6.94904 -0.115675 0
M  V30 9697 H 955.361 4.67619 0.212235 0
M  V30 9698 H 955.534 6.47987 0.0411822 0
M  V30 9699 N 948.94 -0.228186 1.55939 0
M  V30 9700 C 950.188 -0.951668 1.78291 0
M  V30 9701 C 950.509 -1.85132 0.612474 0
M  V30 9702 O 949.779 -1.92356 -0.370942 0
M  V30 9703 H 948.359 -0.354388 0.657585 0
M  V30 9704 H 951.021 -0.241635 1.93396 0
M  V30 9705 H 950.117 -1.56239 2.70177 0
M  V30 9706 N 950.418 -1.49637 -0.494624 0
M  V30 9707 C 951.834 -1.36541 -0.826361 0
M  V30 9708 C 952.034 -0.403386 -1.97421 0
M  V30 9709 O 951.09 0.162614 -2.51976 0
M  V30 9710 C 952.403 -2.77401 -1.16057 0
M  V30 9711 C 953.951 -2.86148 -1.26841 0
M  V30 9712 C 954.426 -4.27789 -1.63587 0
M  V30 9713 N 955.917 -4.3063 -1.70624 0
M  V30 9714 C 956.652 -5.37198 -2.00514 0
M  V30 9715 N 956.148 -6.54004 -2.28584 0
M  V30 9716 N 957.941 -5.2462 -2.01818 0
M  V30 9717 H 950.092 -2.10776 0.26219 0
M  V30 9718 H 952.355 -0.946419 0.0547235 0
M  V30 9719 H 952.061 -3.49526 -0.390434 0
M  V30 9720 H 951.935 -3.1317 -2.10249 0
M  V30 9721 H 954.322 -2.14256 -2.02925 0
M  V30 9722 H 954.403 -2.53953 -0.30684 0
M  V30 9723 H 954.047 -5.00209 -0.880507 0
M  V30 9724 H 953.977 -4.57453 -2.60854 0
M  V30 9725 H 956.468 -3.46393 -1.51065 0
M  V30 9726 H 956.781 -7.31041 -2.50598 0
M  V30 9727 H 955.126 -6.57219 -2.26027 0
M  V30 9728 H 958.317 -4.32371 -1.79369 0
M  V30 9729 H 958.49 -6.07765 -2.24778 0
M  V30 9730 N 951.896 0.746133 -1.38819 0
M  V30 9731 C 952.829 1.86833 -1.31029 0
M  V30 9732 C 953.807 1.61533 -0.185948 0
M  V30 9733 O 954.991 1.84942 -0.364529 0
M  V30 9734 C 952.118 3.22596 -1.03198 0
M  V30 9735 C 951.164 3.66772 -2.17671 0
M  V30 9736 S 951.997 3.77438 -3.7987 0
M  V30 9737 C 953.153 5.16008 -3.54241 0
M  V30 9738 H 953.386 1.93155 -2.26005 0
M  V30 9739 H 950.919 0.909872 -1.24742 0
M  V30 9740 H 952.877 4.00995 -0.878237 0
M  V30 9741 H 951.538 3.13943 -0.0992704 0
M  V30 9742 H 950.731 4.65266 -1.93762 0
M  V30 9743 H 950.333 2.95547 -2.2919 0
M  V30 9744 H 952.625 6.01996 -3.10816 0
M  V30 9745 H 953.568 5.44941 -4.52156 0
M  V30 9746 H 953.976 4.85158 -2.88587 0
M  V30 9747 N 953.375 1.23811 0.975125 0
M  V30 9748 C 954.305 1.04846 2.08638 0
M  V30 9749 C 955.286 -0.0362859 1.70061 0
M  V30 9750 O 956.471 0.12937 1.93769 0
M  V30 9751 C 953.601 0.644534 3.41267 0
M  V30 9752 C 952.555 1.67722 3.93768 0
M  V30 9753 C 951.881 1.12857 5.22654 0
M  V30 9754 C 953.181 3.07147 4.22443 0
M  V30 9755 H 954.875 1.97795 2.24761 0
M  V30 9756 H 952.421 0.952397 1.08006 0
M  V30 9757 H 954.374 0.498887 4.18436 0
M  V30 9758 H 953.098 -0.320641 3.25022 0
M  V30 9759 H 951.757 1.81095 3.18748 0
M  V30 9760 H 951.405 0.154227 5.02764 0
M  V30 9761 H 951.105 1.81862 5.58749 0
M  V30 9762 H 952.629 0.994891 6.0244 0
M  V30 9763 H 954.043 2.97045 4.90344 0
M  V30 9764 H 952.44 3.73437 4.6975 0
M  V30 9765 H 953.51 3.55743 3.29507 0
M  V30 9766 N 954.853 -1.17469 1.05066 0
M  V30 9767 C 956.099 -1.87976 0.761113 0
M  V30 9768 C 956.432 -1.80756 -0.709995 0
M  V30 9769 O 955.707 -1.21469 -1.51906 0
M  V30 9770 C 955.99 -3.38055 1.2406 0
M  V30 9771 C 955.843 -3.54032 2.77455 0
M  V30 9772 C 957.162 -4.32036 0.838612 0
M  V30 9773 H 954.281 -0.682573 0.277963 0
M  V30 9774 H 956.923 -1.38147 1.30443 0
M  V30 9775 H 955.073 -3.80622 0.778388 0
M  V30 9776 H 956.745 -3.20489 3.3179 0
M  V30 9777 H 954.988 -2.96352 3.16793 0
M  V30 9778 H 955.659 -4.59377 3.06066 0
M  V30 9779 H 958.135 -3.97303 1.23651 0
M  V30 9780 H 957.011 -5.35583 1.20173 0
M  V30 9781 H 957.272 -4.41349 -0.257498 0
M  V30 9782 N 956.331 -0.831506 -1.3388 0
M  V30 9783 C 957.241 -0.261688 -2.33136 0
M  V30 9784 C 958.257 0.608429 -1.63016 0
M  V30 9785 O 959.433 0.514297 -1.94723 0
M  V30 9786 C 956.498 0.559957 -3.42148 0
M  V30 9787 C 955.559 -0.333569 -4.28002 0
M  V30 9788 C 954.792 0.448956 -5.31808 0
M  V30 9789 O 955.015 1.6814 -5.45055 0
M  V30 9790 O 953.949 -0.173197 -6.01651 0
M  V30 9791 H 957.775 -1.08343 -2.83717 0
M  V30 9792 H 955.36 -0.593849 -1.3709 0
M  V30 9793 H 957.242 1.02712 -4.08691 0
M  V30 9794 H 955.917 1.35888 -2.93796 0
M  V30 9795 H 954.824 -0.848416 -3.64352 0
M  V30 9796 H 956.157 -1.09707 -4.79818 0
M  V30 9797 N 957.809 1.4625 -0.587256 0
M  V30 9798 C 959.22 1.85997 -0.161918 0
M  V30 9799 C 959.571 1.49025 1.27616 0
M  V30 9800 O 958.696 0.907282 1.96462 0
M  V30 9801 C 959.291 3.37582 -0.287077 0
M  V30 9802 C 957.85 3.76308 0.0834211 0
M  V30 9803 C 956.997 2.70259 -0.620932 0
M  V30 9804 H 959.948 1.3734 -0.795199 0
M  V30 9805 H 959.969 3.77379 0.486333 0
M  V30 9806 H 959.481 3.64459 -1.33383 0
M  V30 9807 H 957.582 3.55047 1.13013 0
M  V30 9808 H 957.695 4.78184 -0.296064 0
M  V30 9809 H 956.059 2.54628 -0.0607027 0
M  V30 9810 H 956.842 2.99975 -1.66942 0
M  V30 9811 N 959.287 0.325282 1.54207 0
M  V30 9812 C 960.234 -0.539889 2.24397 0
M  V30 9813 C 961.204 -1.11028 1.2354 0
M  V30 9814 O 962.389 -1.1503 1.52226 0
M  V30 9815 C 959.529 -1.69405 3.00659 0
M  V30 9816 C 958.642 -1.15273 4.16337 0
M  V30 9817 C 957.777 -2.27272 4.80126 0
M  V30 9818 C 956.816 -1.70397 5.87904 0
M  V30 9819 N 955.953 -2.76065 6.45548 0
M  V30 9820 H 960.793 0.0652318 2.97929 0
M  V30 9821 H 958.33 0.043964 1.47034 0
M  V30 9822 H 960.288 -2.37325 3.43122 0
M  V30 9823 H 958.918 -2.27043 2.29458 0
M  V30 9824 H 957.97 -0.365034 3.78645 0
M  V30 9825 H 959.282 -0.696576 4.93912 0
M  V30 9826 H 958.436 -3.03092 5.25566 0
M  V30 9827 H 957.175 -2.76224 4.01935 0
M  V30 9828 H 956.18 -0.930752 5.41864 0
M  V30 9829 H 957.405 -1.22319 6.67993 0
M  V30 9830 H 955.351 -3.24306 5.7023 0
M  V30 9831 H 955.268 -2.35018 7.18542 0
M  V30 9832 H 956.536 -3.5171 6.95644 0
M  V30 9833 N 960.765 -1.57509 0.0534917 0
M  V30 9834 C 961.675 -2.15152 -0.935249 0
M  V30 9835 C 962.691 -1.10991 -1.34003 0
M  V30 9836 O 963.867 -1.43171 -1.41648 0
M  V30 9837 C 960.932 -2.68699 -2.19093 0
M  V30 9838 C 959.993 -3.87666 -1.84428 0
M  V30 9839 C 959.226 -4.3865 -3.0401 0
M  V30 9840 O 959.449 -3.887 -4.17455 0
M  V30 9841 O 958.383 -5.30209 -2.84889 0
M  V30 9842 H 962.209 -2.99962 -0.475009 0
M  V30 9843 H 959.794 -1.48446 -0.16854 0
M  V30 9844 H 961.676 -3.03098 -2.92762 0
M  V30 9845 H 960.351 -1.86958 -2.6425 0
M  V30 9846 H 959.258 -3.58151 -1.08068 0
M  V30 9847 H 960.591 -4.70643 -1.44068 0
M  V30 9848 N 962.243 0.219913 -1.56058 0
M  V30 9849 C 963.206 1.25606 -1.91718 0
M  V30 9850 C 964.206 1.39721 -0.795912 0
M  V30 9851 O 965.396 1.37958 -1.06364 0
M  V30 9852 C 962.528 2.62961 -2.16943 0
M  V30 9853 H 963.721 0.951909 -2.84392 0
M  V30 9854 H 961.274 0.460398 -1.49365 0
M  V30 9855 H 962.009 2.98472 -1.26826 0
M  V30 9856 H 961.794 2.54093 -2.98629 0
M  V30 9857 H 963.284 3.37727 -2.45622 0
M  V30 9858 O 963.76 1.57313 0.365352 0
M  V30 9859 H 964.451 1.64911 1.01607 0
M  V30 END ATOM
M  V30 BEGIN BOND
M  V30 END BOND
M  V30 END CTAB
M  END
$$$$
