drugbank_target|Q51990 Morphinone reductase (DB03247)
 OpenBabel12092120273D

  0  0  0     0  0            999 V3000
M  V30 BEGIN CTAB
M  V30 COUNTS 5707 5782 0 0 0
M  V30 BEGIN ATOM
M  V30 1 H -0.908 1.98254 -0.117106 0
M  V30 2 N 0 1.576 0 0
M  V30 3 C 0.933 2.03868 1.02534 0
M  V30 4 C 1.911 0.928543 1.3348 0
M  V30 5 O 3.095 1.19667 1.45644 0
M  V30 6 C 0.222 2.43627 2.35294 0
M  V30 7 C -0.732 3.65373 2.2001 0
M  V30 8 S 0.101 5.13292 1.52614 0
M  V30 9 C 1.257 5.56322 2.86805 0
M  V30 10 H 1.49 2.90518 0.631377 0
M  V30 11 H -0.977 1.52953 0.210867 0
M  V30 12 H 0.981 2.67203 3.11629 0
M  V30 13 H -0.358 1.57376 2.7183 0
M  V30 14 H -1.165 3.90944 3.18086 0
M  V30 15 H -1.563 3.418 1.51819 0
M  V30 16 H 0.729 5.58782 3.83104 0
M  V30 17 H 1.672 6.56266 2.65933 0
M  V30 18 H 2.08 4.83886 2.90714 0
M  V30 19 N 1.4781 -0.272755 1.55222 0
M  V30 20 C 2.8891 -0.84378 1.66545 0
M  V30 21 C 3.2401 -1.87035 0.592641 0
M  V30 22 O 2.3651 -2.14761 -0.265818 0
M  V30 23 C 2.9601 -1.53723 3.01918 0
M  V30 24 C 1.5191 -2.05628 3.15268 0
M  V30 25 C 0.6661 -0.898424 2.62343 0
M  V30 26 H 3.6171 -0.0490998 1.58624 0
M  V30 27 H 3.6381 -2.40421 2.94921 0
M  V30 28 H 3.1501 -0.78983 3.79978 0
M  V30 29 H 1.2511 -2.83329 2.41983 0
M  V30 30 H 1.3641 -2.27142 4.21833 0
M  V30 31 H -0.2719 -1.29186 2.19506 0
M  V30 32 H 0.5111 -0.164528 3.42906 0
M  V30 33 N 2.9562 -1.48159 -0.537278 0
M  V30 34 C 4.2332 -1.46291 -1.29839 0
M  V30 35 C 4.6132 -0.170613 -2.10409 0
M  V30 36 O 3.9612 0.847746 -2.12192 0
M  V30 37 C 4.1712 -2.72055 -2.18603 0
M  V30 38 C 5.5192 -3.20087 -2.7898 0
M  V30 39 O 6.5432 -2.72921 -2.28894 0
M  V30 40 O 5.4022 -4.02138 -3.70064 0
M  V30 41 H 2.4962 -0.583906 -0.585647 0
M  V30 42 H 5.0422 -1.60384 -0.554534 0
M  V30 43 H 3.8142 -3.57628 -1.58801 0
M  V30 44 H 3.4372 -2.60646 -3.00249 0
M  V30 45 N 4.4343 0.785586 -1.36625 0
M  V30 46 C 5.6623 1.57448 -1.3423 0
M  V30 47 C 6.0773 1.88649 0.0755653 0
M  V30 48 O 5.4343 1.50414 1.03354 0
M  V30 49 C 5.4853 2.89316 -2.16745 0
M  V30 50 O 5.2063 2.59459 -3.53005 0
M  V30 51 C 6.7073 3.83606 -2.22174 0
M  V30 52 H 3.9273 0.488226 -0.4603 0
M  V30 53 H 6.4713 0.974733 -1.79775 0
M  V30 54 H 4.6263 3.4575 -1.74745 0
M  V30 55 H 5.0403 3.43804 -3.96105 0
M  V30 56 H 6.5143 4.73181 -2.8426 0
M  V30 57 H 6.9913 4.21734 -1.22627 0
M  V30 58 H 7.5973 3.33104 -2.64427 0
M  V30 59 N 5.9124 1.20967 1.01018 0
M  V30 60 C 7.1374 1.0503 1.78839 0
M  V30 61 C 7.5624 -0.395752 1.8389 0
M  V30 62 O 6.9204 -1.28529 1.27867 0
M  V30 63 C 6.9684 1.64602 3.2084 0
M  V30 64 O 6.0724 0.887988 4.02726 0
M  V30 65 H 5.4134 0.369987 0.551367 0
M  V30 66 H 7.9434 1.60399 1.27018 0
M  V30 67 H 7.9534 1.68607 3.71532 0
M  V30 68 H 6.6284 2.69841 3.16479 0
M  V30 69 H 5.2054 0.922648 3.61305 0
M  V30 70 N 7.3905 -1.2043 1.01659 0
M  V30 71 C 8.6375 -1.89797 0.705917 0
M  V30 72 C 8.9655 -1.78848 -0.764439 0
M  V30 73 O 8.2205 -1.16694 -1.57102 0
M  V30 74 C 8.5195 -3.40464 1.08714 0
M  V30 75 C 8.1855 -3.71614 2.5537 0
M  V30 76 C 6.8475 -3.79826 2.95441 0
M  V30 77 C 9.1995 -3.85915 3.50313 0
M  V30 78 C 6.5275 -3.99797 4.29394 0
M  V30 79 C 8.8795 -4.07396 4.83954 0
M  V30 80 C 7.5435 -4.13837 5.23732 0
M  V30 81 H 6.8135 -0.694518 0.258313 0
M  V30 82 H 9.4605 -1.42691 1.27717 0
M  V30 83 H 7.7655 -3.89385 0.434309 0
M  V30 84 H 9.4625 -3.92433 0.824461 0
M  V30 85 H 6.0525 -3.65822 2.23321 0
M  V30 86 H 10.2365 -3.78926 3.20513 0
M  V30 87 H 5.4925 -4.03018 4.59768 0
M  V30 88 H 9.6665 -4.17404 5.57447 0
M  V30 89 H 7.2935 -4.29064 6.27541 0
M  V30 90 N 8.8686 -0.792821 -1.36206 0
M  V30 91 C 10.0936 -0.377701 -2.03932 0
M  V30 92 C 10.5186 0.998947 -1.59382 0
M  V30 93 O 9.8766 1.64421 -0.763903 0
M  V30 94 C 9.9246 -0.453635 -3.57735 0
M  V30 95 O 9.0286 0.538151 -4.08874 0
M  V30 96 H 8.3696 -0.159855 -0.644471 0
M  V30 97 H 10.8996 -1.07488 -1.7409 0
M  V30 98 H 10.9096 -0.318464 -4.06755 0
M  V30 99 H 9.5846 -1.45784 -3.89512 0
M  V30 100 H 8.1616 0.364359 -3.71116 0
M  V30 101 N 10.3467 1.47872 -0.545128 0
M  V30 102 C 11.2947 2.31533 0.222512 0
M  V30 103 C 12.2887 1.42177 0.920985 0
M  V30 104 O 13.4947 1.59005 0.843645 0
M  V30 105 H 9.8697 0.746519 0.0906278 0
M  V30 106 H 11.8407 2.94139 -0.50246 0
M  V30 107 C 10.5897 3.2457 1.24699 0
M  V30 108 H 9.9127 3.93283 0.718944 0
M  V30 109 H 11.3527 3.85963 1.75523 0
M  V30 110 C 9.8117 2.47237 2.28856 0
M  V30 111 O 10.3417 2.20808 3.35569 0
M  V30 112 N 8.5477 2.08461 2.02466 0
M  V30 113 H 8.0947 2.30155 1.157 0
M  V30 114 H 8.0527 1.57033 2.72375 0
M  V30 115 N 11.8248 0.280983 1.55075 0
M  V30 116 C 13.2358 -0.215629 1.85451 0
M  V30 117 C 13.5868 -1.54991 1.203 0
M  V30 118 O 12.7118 -2.10699 0.493435 0
M  V30 119 C 13.3068 -0.398026 3.36454 0
M  V30 120 C 11.8658 -0.838866 3.66933 0
M  V30 121 C 11.0128 0.064458 2.77225 0
M  V30 122 H 13.9638 0.502601 1.50531 0
M  V30 123 H 13.9848 -1.23569 3.59876 0
M  V30 124 H 13.4968 0.573241 3.83843 0
M  V30 125 H 11.5978 -1.8214 3.25048 0
M  V30 126 H 11.7108 -0.672123 4.74362 0
M  V30 127 H 10.0748 -0.452863 2.50642 0
M  V30 128 H 10.8578 1.03172 3.2743 0
M  V30 129 N 13.3029 -1.57598 0.00835791 0
M  V30 130 C 14.5509 -1.90551 -0.6734 0
M  V30 131 C 14.8719 -0.883301 -1.73847 0
M  V30 132 O 14.1419 0.0781442 -1.95744 0
M  V30 133 H 12.7219 -0.703312 -0.251717 0
M  V30 134 H 15.3839 -1.94833 0.0512592 0
M  V30 135 H 14.4799 -2.9056 -1.13935 0
M  V30 136 N 14.781 0.264519 -1.55364 0
M  V30 137 C 15.711 1.33121 -1.91836 0
M  V30 138 C 16.692 1.51101 -0.781192 0
M  V30 139 O 17.877 1.64003 -1.04003 0
M  V30 140 C 15.007 2.68921 -2.19769 0
M  V30 141 C 13.961 2.65661 -3.35571 0
M  V30 142 C 13.287 4.05093 -3.49004 0
M  V30 143 C 14.587 2.24187 -4.71739 0
M  V30 144 H 16.281 1.02844 -2.81182 0
M  V30 145 H 13.827 0.493286 -1.35287 0
M  V30 146 H 15.78 3.43663 -2.43872 0
M  V30 147 H 14.504 3.00799 -1.27231 0
M  V30 148 H 13.163 1.93377 -3.1145 0
M  V30 149 H 12.811 4.34206 -2.53917 0
M  V30 150 H 12.511 4.03804 -4.26868 0
M  V30 151 H 14.035 4.81561 -3.75408 0
M  V30 152 H 15.449 2.88654 -4.9533 0
M  V30 153 H 13.846 2.34044 -5.52579 0
M  V30 154 H 14.916 1.19327 -4.69988 0
M  V30 155 N 16.2591 1.48442 0.529413 0
M  V30 156 C 17.5061 1.56488 1.28521 0
M  V30 157 C 17.8341 0.239042 1.93025 0
M  V30 158 O 17.0891 -0.770713 1.79885 0
M  V30 159 C 17.3881 2.6523 2.39558 0
M  V30 160 C 17.0541 4.07648 1.92702 0
M  V30 161 C 15.7161 4.46411 1.79641 0
M  V30 162 C 18.0681 4.96896 1.573 0
M  V30 163 C 15.3961 5.72226 1.29514 0
M  V30 164 C 17.7481 6.23202 1.08636 0
M  V30 165 C 16.4121 6.60821 0.941919 0
M  V30 166 H 15.6821 0.572631 0.470292 0
M  V30 167 H 18.3291 1.82161 0.59072 0
M  V30 168 H 16.6341 2.33419 3.14679 0
M  V30 169 H 18.3311 2.68671 2.97686 0
M  V30 170 H 14.9211 3.77036 2.03819 0
M  V30 171 H 19.1051 4.67626 1.66251 0
M  V30 172 H 14.3611 6.00097 1.17019 0
M  V30 173 H 18.5351 6.91753 0.803136 0
M  V30 174 H 16.1621 7.58198 0.5513 0
M  V30 175 N 17.7372 -0.778329 1.37039 0
M  V30 176 C 18.9652 -1.56734 1.35063 0
M  V30 177 C 19.3802 -1.88686 -0.0655597 0
M  V30 178 O 18.7372 -1.5096 -1.02554 0
M  V30 179 C 18.7882 -2.88163 2.18276 0
M  V30 180 O 18.5092 -2.57583 3.54376 0
M  V30 181 C 20.0102 -3.82422 2.24206 0
M  V30 182 H 17.2302 -0.485778 0.462883 0
M  V30 183 H 19.7742 -0.965185 1.8029 0
M  V30 184 H 17.9292 -3.44818 1.76576 0
M  V30 185 H 18.3432 -3.41699 3.97922 0
M  V30 186 H 19.8172 -4.71667 2.86765 0
M  V30 187 H 20.2942 -4.21078 1.24861 0
M  V30 188 H 20.9002 -3.31697 2.6619 0
M  V30 189 N 19.2153 -1.21501 -1.00376 0
M  V30 190 C 20.6263 -1.03146 -1.55621 0
M  V30 191 C 20.9773 0.408375 -1.91903 0
M  V30 192 O 20.1023 1.29177 -1.73616 0
M  V30 193 C 20.6973 -1.86612 -2.82775 0
M  V30 194 C 19.2563 -1.72586 -3.34501 0
M  V30 195 C 18.4033 -1.83747 -2.07683 0
M  V30 196 H 21.3543 -1.35505 -0.826081 0
M  V30 197 H 21.3753 -1.3771 -3.54706 0
M  V30 198 H 20.8873 -2.91399 -2.56336 0
M  V30 199 H 18.9883 -0.704877 -3.65872 0
M  V30 200 H 19.1013 -2.54623 -4.05837 0
M  V30 201 H 17.4653 -1.27069 -2.20739 0
M  V30 202 H 18.2483 -2.90044 -1.83655 0
M  V30 203 N 20.6934 1.19889 -1.02296 0
M  V30 204 C 21.6234 2.25141 -0.619174 0
M  V30 205 C 22.6044 1.66051 0.368915 0
M  V30 206 O 23.7894 1.92546 0.252941 0
M  V30 207 C 20.9194 3.4728 0.0368783 0
M  V30 208 C 19.8734 4.19005 -0.872865 0
M  V30 209 C 19.1994 5.34637 -0.0822402 0
M  V30 210 C 20.4994 4.74452 -2.18387 0
M  V30 211 H 22.1934 2.59171 -1.49903 0
M  V30 212 H 19.7394 1.24579 -0.722222 0
M  V30 213 H 21.6924 4.20098 0.330958 0
M  V30 214 H 20.4164 3.12433 0.95149 0
M  V30 215 H 19.0754 3.48061 -1.15105 0
M  V30 216 H 18.7234 4.96034 0.83422 0
M  V30 217 H 18.4234 5.83557 -0.688149 0
M  V30 218 H 19.9474 6.10255 0.205238 0
M  V30 219 H 21.3614 5.39055 -1.95172 0
M  V30 220 H 19.7584 5.33834 -2.74119 0
M  V30 221 H 20.8284 3.92844 -2.84257 0
M  V30 222 N 22.1715 0.800033 1.35784 0
M  V30 223 C 23.1035 0.163596 2.28615 0
M  V30 224 C 24.1165 -0.633317 1.49976 0
M  V30 225 O 25.3055 -0.466754 1.72289 0
M  V30 226 C 22.4055 -0.790958 3.29541 0
M  V30 227 C 21.5785 -0.0418255 4.3738 0
M  V30 228 C 20.6375 -0.91389 5.18203 0
M  V30 229 O 19.6635 -0.367234 5.68014 0
M  V30 230 N 20.8655 -2.23682 5.35674 0
M  V30 231 H 23.6305 0.96105 2.83873 0
M  V30 232 H 21.1915 0.654894 1.48063 0
M  V30 233 H 23.1835 -1.37844 3.80501 0
M  V30 234 H 21.7535 -1.48925 2.74846 0
M  V30 235 H 20.9735 0.726813 3.87442 0
M  V30 236 H 22.2615 0.474719 5.06581 0
M  V30 237 H 21.6595 -2.70497 4.96838 0
M  V30 238 H 20.2165 -2.77369 5.89839 0
M  V30 239 N 23.6496 -1.47581 0.552962 0
M  V30 240 C 24.5796 -2.32762 -0.185451 0
M  V30 241 C 25.5606 -1.43527 -0.912905 0
M  V30 242 O 26.7456 -1.72388 -0.894201 0
M  V30 243 C 23.8756 -3.25219 -1.21859 0
M  V30 244 C 22.8296 -4.23661 -0.607864 0
M  V30 245 C 22.1556 -5.05413 -1.74533 0
M  V30 246 C 23.4556 -5.20481 0.435582 0
M  V30 247 H 25.1496 -2.94749 0.525684 0
M  V30 248 H 22.6956 -1.41738 0.254251 0
M  V30 249 H 24.6486 -3.8365 -1.7433 0
M  V30 250 H 23.3726 -2.61279 -1.95961 0
M  V30 251 H 22.0316 -3.66451 -0.104489 0
M  V30 252 H 21.6796 -4.3788 -2.47529 0
M  V30 253 H 21.3796 -5.72059 -1.34249 0
M  V30 254 H 22.9036 -5.66701 -2.27338 0
M  V30 255 H 24.3176 -5.733 -0.00290157 0
M  V30 256 H 22.7146 -5.95305 0.757067 0
M  V30 257 H 23.7846 -4.66217 1.33303 0
M  V30 258 N 25.1277 -0.289203 -1.54924 0
M  V30 259 C 26.3757 0.322879 -1.99504 0
M  V30 260 C 26.6967 1.55313 -1.1791 0
M  V30 261 O 25.9667 1.94001 -0.272097 0
M  V30 262 H 24.5467 0.122291 -0.736922 0
M  V30 263 H 27.2087 -0.397802 -1.90797 0
M  V30 264 H 26.3047 0.603061 -3.06218 0
M  V30 265 N 26.6058 1.57591 -0.0167156 0
M  V30 266 C 27.8308 1.9598 0.67872 0
M  V30 267 C 28.2558 0.892546 1.65575 0
M  V30 268 O 27.6138 -0.147772 1.80697 0
M  V30 269 C 27.6618 3.33468 1.37227 0
M  V30 270 O 26.7658 3.28954 2.48722 0
M  V30 271 H 26.1068 0.639339 0.17928 0
M  V30 272 H 28.6368 2.04463 -0.0748802 0
M  V30 273 H 28.6468 3.69417 1.7319 0
M  V30 274 H 27.3218 4.10694 0.656007 0
M  V30 275 H 25.8988 3.04705 2.14963 0
M  V30 276 N 28.0839 -0.256276 1.55502 0
M  V30 277 C 29.0139 -1.32102 1.92539 0
M  V30 278 C 29.9949 -1.50684 0.789194 0
M  V30 279 O 31.1799 -1.63449 1.04872 0
M  V30 280 C 28.3099 -2.67752 2.21192 0
M  V30 281 C 27.2639 -2.63878 3.36975 0
M  V30 282 C 26.5899 -4.03236 3.51147 0
M  V30 283 C 27.8899 -2.21682 4.72921 0
M  V30 284 H 29.5839 -1.01351 2.81724 0
M  V30 285 H 27.1299 -0.486105 1.35547 0
M  V30 286 H 29.0829 -3.42365 2.45691 0
M  V30 287 H 27.8069 -3.0012 1.28824 0
M  V30 288 H 26.4659 -1.91722 3.12471 0
M  V30 289 H 26.1139 -4.32854 2.56216 0
M  V30 290 H 25.8139 -4.01535 4.29003 0
M  V30 291 H 27.3379 -4.79563 3.77957 0
M  V30 292 H 28.7519 -2.86023 4.96854 0
M  V30 293 H 27.1489 -2.3111 5.53812 0
M  V30 294 H 28.2189 -1.16833 4.70615 0
M  V30 295 N 29.562 -1.4872 -0.521534 0
M  V30 296 C 30.787 -1.61101 -1.30618 0
M  V30 297 C 31.212 -0.274611 -1.86085 0
M  V30 298 O 30.57 0.754937 -1.64834 0
M  V30 299 C 30.618 -2.66709 -2.4269 0
M  V30 300 O 29.722 -2.24456 -3.45967 0
M  V30 301 H 29.063 -0.539921 -0.386499 0
M  V30 302 H 31.593 -1.94767 -0.626645 0
M  V30 303 H 31.603 -2.88245 -2.88754 0
M  V30 304 H 30.278 -3.63727 -2.01682 0
M  V30 305 H 28.855 -2.13168 -3.05964 0
M  V30 306 N 31.0401 0.771051 -1.3745 0
M  V30 307 C 31.9701 1.89827 -1.3597 0
M  V30 308 C 32.9511 1.68562 -0.228216 0
M  V30 309 O 34.1361 1.8941 -0.428675 0
M  V30 310 C 31.2661 3.2712 -1.16662 0
M  V30 311 C 30.2201 3.6295 -2.2683 0
M  V30 312 C 29.5461 4.98791 -1.92644 0
M  V30 313 C 30.8461 3.69627 -3.69017 0
M  V30 314 H 32.5401 1.91323 -2.30295 0
M  V30 315 H 30.0861 0.919082 -1.10855 0
M  V30 316 H 32.0391 4.05615 -1.14256 0
M  V30 317 H 30.7631 3.26059 -0.187926 0
M  V30 318 H 29.4221 2.86763 -2.28392 0
M  V30 319 H 29.0701 4.94271 -0.933021 0
M  V30 320 H 28.7701 5.23733 -2.66416 0
M  V30 321 H 30.2941 5.79685 -1.91826 0
M  V30 322 H 31.7081 4.38273 -3.69581 0
M  V30 323 H 30.1051 4.06067 -4.41848 0
M  V30 324 H 31.1751 2.70273 -4.02592 0
M  V30 325 N 32.5182 1.22032 0.997298 0
M  V30 326 C 33.9292 1.0397 1.55071 0
M  V30 327 C 34.2802 -0.398192 1.92117 0
M  V30 328 O 33.4052 -1.28254 1.74298 0
M  V30 329 C 34.0002 1.88109 2.81781 0
M  V30 330 C 32.5592 1.74357 3.33581 0
M  V30 331 C 31.7062 1.84846 2.06706 0
M  V30 332 H 34.6572 1.35941 0.818883 0
M  V30 333 H 34.6782 1.39589 3.53971 0
M  V30 334 H 34.1902 2.92754 2.54787 0
M  V30 335 H 32.2912 0.72427 3.65493 0
M  V30 336 H 32.4042 2.56772 4.04481 0
M  V30 337 H 30.7682 1.28238 2.20062 0
M  V30 338 H 31.5512 2.91014 1.82114 0
M  V30 339 N 33.9963 -1.19345 1.0293 0
M  V30 340 C 34.9443 -2.24621 0.604001 0
M  V30 341 C 35.9383 -1.65452 -0.363587 0
M  V30 342 O 37.1443 -1.78497 -0.23212 0
M  V30 343 H 33.5193 -0.730858 0.177061 0
M  V30 344 H 35.4903 -2.5781 1.50255 0
M  V30 345 C 34.2393 -3.47688 -0.0289127 0
M  V30 346 H 33.5623 -3.93505 0.706651 0
M  V30 347 H 35.0023 -4.23011 -0.289432 0
M  V30 348 C 33.4613 -3.11817 -1.2756 0
M  V30 349 O 33.9913 -3.2451 -2.36762 0
M  V30 350 N 32.1973 -2.66246 -1.16453 0
M  V30 351 H 31.7443 -2.56118 -0.275914 0
M  V30 352 H 31.7023 -2.42617 -1.99961 0
M  V30 353 N 35.4744 -0.807222 -1.35358 0
M  V30 354 C 36.8904 -0.491038 -1.51858 0
M  V30 355 C 37.0904 0.987648 -1.75635 0
M  V30 356 O 36.1464 1.77265 -1.79815 0
M  V30 357 C 37.4594 -1.33695 -2.69344 0
M  V30 358 C 39.0074 -1.33246 -2.83222 0
M  V30 359 C 39.4824 -2.1625 -4.03733 0
M  V30 360 N 40.9734 -2.1379 -4.10911 0
M  V30 361 C 41.7084 -2.74772 -5.03277 0
M  V30 362 N 41.2044 -3.44684 -6.0097 0
M  V30 363 N 42.9974 -2.6441 -4.96028 0
M  V30 364 H 35.1484 -1.76485 -1.18181 0
M  V30 365 H 37.4114 -0.751199 -0.578276 0
M  V30 366 H 37.1174 -2.38634 -2.58354 0
M  V30 367 H 36.9914 -0.990618 -3.6396 0
M  V30 368 H 39.3784 -0.290911 -2.93663 0
M  V30 369 H 39.4594 -1.71866 -1.89461 0
M  V30 370 H 39.1034 -3.20445 -3.94052 0
M  V30 371 H 39.0334 -1.74989 -4.96675 0
M  V30 372 H 41.5244 -1.62923 -3.40976 0
M  V30 373 H 41.8374 -3.88501 -6.68047 0
M  V30 374 H 40.1824 -3.48788 -6.01142 0
M  V30 375 H 43.3734 -2.0938 -4.18662 0
M  V30 376 H 43.5464 -3.12225 -5.6782 0
M  V30 377 N 36.9525 1.47285 -0.560781 0
M  V30 378 C 38.1985 2.02764 -0.0381184 0
M  V30 379 C 38.5315 1.43384 1.30976 0
M  V30 380 O 37.8065 0.590733 1.85312 0
M  V30 381 C 38.0895 3.60064 0.0511427 0
M  V30 382 C 37.9425 4.2987 -1.32408 0
M  V30 383 C 39.2615 4.33439 0.762795 0
M  V30 384 H 36.3805 0.736841 -0.0153264 0
M  V30 385 H 39.0225 1.75675 -0.723759 0
M  V30 386 H 37.1725 3.83274 0.635065 0
M  V30 387 H 38.8445 4.17989 -1.95148 0
M  V30 388 H 37.0875 3.90085 -1.8978 0
M  V30 389 H 37.7585 5.38478 -1.21431 0
M  V30 390 H 40.2345 4.15243 0.266965 0
M  V30 391 H 39.1105 5.43124 0.794221 0
M  V30 392 H 39.3715 4.02915 1.81966 0
M  V30 393 N 38.4306 0.297415 1.54768 0
M  V30 394 C 39.6796 -0.313669 1.99246 0
M  V30 395 C 39.9926 -1.55281 1.18942 0
M  V30 396 O 41.1986 -2.23825 1.5367 0
M  V30 397 C 39.6546 -0.609407 3.54703 0
M  V30 398 C 39.2626 0.611192 4.43811 0
M  V30 399 C 41.0066 -1.18188 4.07715 0
M  V30 400 C 38.9136 0.288805 5.90694 0
M  V30 401 H 37.8436 -0.120979 0.744231 0
M  V30 402 H 40.4946 0.40556 1.78962 0
M  V30 403 H 38.8766 -1.38813 3.70873 0
M  V30 404 H 40.0506 1.3875 4.39414 0
M  V30 405 H 38.3656 1.10205 4.01552 0
M  V30 406 H 40.9626 -1.43727 5.15021 0
M  V30 407 H 41.3056 -2.12299 3.58099 0
M  V30 408 H 41.8386 -0.464944 3.95074 0
M  V30 409 H 38.5776 1.19838 6.44453 0
M  V30 410 H 38.0976 -0.450305 5.98107 0
M  V30 411 H 39.7766 -0.110933 6.46905 0
M  V30 412 N 39.9087 -1.5758 0.0250728 0
M  V30 413 C 40.8417 -2.05473 -0.992777 0
M  V30 414 C 41.8197 -0.949661 -1.31986 0
M  V30 415 O 43.0037 -1.21969 -1.43722 0
M  V30 416 C 40.1307 -2.4734 -2.31389 0
M  V30 417 C 39.1767 -3.68827 -2.1417 0
M  V30 418 S 40.0097 -5.15655 -1.44429 0
M  V30 419 C 41.1657 -5.60814 -2.77918 0
M  V30 420 H 41.3987 -2.91486 -0.585078 0
M  V30 421 H 38.9317 -1.53269 -0.186507 0
M  V30 422 H 40.8897 -2.72127 -3.07339 0
M  V30 423 H 39.5507 -1.6168 -2.69292 0
M  V30 424 H 38.7437 -3.95955 -3.11826 0
M  V30 425 H 38.3457 -3.44172 -1.46362 0
M  V30 426 H 40.6377 -5.64806 -3.74166 0
M  V30 427 H 41.5807 -6.60414 -2.55459 0
M  V30 428 H 41.9887 -4.8845 -2.82979 0
M  V30 429 N 41.3868 0.248026 -1.55636 0
M  V30 430 C 42.3498 1.29044 -1.89421 0
M  V30 431 C 43.3498 1.41134 -0.770581 0
M  V30 432 O 44.5398 1.39854 -1.03858 0
M  V30 433 C 41.6718 2.66831 -2.12165 0
M  V30 434 H 42.8648 1.00305 -2.82629 0
M  V30 435 H 40.4178 0.487265 -1.48511 0
M  V30 436 H 41.1528 3.00711 -1.21422 0
M  V30 437 H 40.9378 2.59438 -2.93997 0
M  V30 438 H 42.4278 3.42103 -2.3949 0
M  V30 439 N 42.8649 1.48995 0.513639 0
M  V30 440 C 44.2759 1.5119 1.09537 0
M  V30 441 C 44.6269 0.290906 1.94031 0
M  V30 442 O 43.7519 -0.60049 2.07902 0
M  V30 443 C 44.3469 2.73964 1.99322 0
M  V30 444 C 42.9059 2.78978 2.52682 0
M  V30 445 C 42.0529 2.44934 1.30009 0
M  V30 446 H 45.0039 1.55875 0.298125 0
M  V30 447 H 45.0249 2.53409 2.83838 0
M  V30 448 H 44.5369 3.62813 1.37799 0
M  V30 449 H 42.6379 1.94378 3.1788 0
M  V30 450 H 42.7509 3.8083 2.90698 0
M  V30 451 H 41.1149 1.9644 1.62122 0
M  V30 452 H 41.8979 3.36043 0.702131 0
M  V30 453 N 44.343 -0.763751 1.37857 0
M  V30 454 C 45.273 -1.89103 1.36975 0
M  V30 455 C 46.254 -1.68439 0.237152 0
M  V30 456 O 47.439 -1.8918 0.438713 0
M  V30 457 C 44.569 -3.26496 1.18395 0
M  V30 458 C 43.523 -3.61741 2.28751 0
M  V30 459 C 42.849 -4.97762 1.95286 0
M  V30 460 C 44.149 -3.67665 3.70972 0
M  V30 461 H 45.843 -1.90099 2.31307 0
M  V30 462 H 43.389 -0.91319 1.11341 0
M  V30 463 H 45.342 -4.05003 1.16406 0
M  V30 464 H 44.066 -3.25955 0.205215 0
M  V30 465 H 42.725 -2.85547 2.29909 0
M  V30 466 H 42.373 -4.93769 0.959221 0
M  V30 467 H 42.073 -5.22313 2.69189 0
M  V30 468 H 43.597 -5.7866 1.94898 0
M  V30 469 H 45.011 -4.36307 3.719 0
M  V30 470 H 43.408 -4.03718 4.43995 0
M  V30 471 H 44.478 -2.68134 4.0402 0
M  V30 472 N 45.8211 -1.22559 -0.990812 0
M  V30 473 C 47.0491 -1.07779 -1.76611 0
M  V30 474 C 47.4641 0.371513 -1.85109 0
M  V30 475 O 46.8211 1.25737 -1.32274 0
M  V30 476 C 46.8721 -1.68512 -3.19822 0
M  V30 477 O 46.5931 -3.07774 -3.1178 0
M  V30 478 C 48.0941 -1.59035 -4.13791 0
M  V30 479 H 45.3141 -0.377729 -0.554583 0
M  V30 480 H 47.8581 -1.62195 -1.24551 0
M  V30 481 H 46.0131 -1.18154 -3.68942 0
M  V30 482 H 46.4271 -3.37062 -4.01858 0
M  V30 483 H 47.9011 -2.0625 -5.1202 0
M  V30 484 H 48.3781 -0.547273 -4.35777 0
M  V30 485 H 48.9841 -2.08709 -3.70568 0
M  V30 486 N 47.2992 1.18797 -1.03562 0
M  V30 487 C 48.7152 1.40671 -0.753917 0
M  V30 488 C 48.9152 1.9043 0.658686 0
M  V30 489 O 47.9712 2.08538 1.42366 0
M  V30 490 C 49.2842 2.41192 -1.79574 0
M  V30 491 C 50.8322 2.54928 -1.81606 0
M  V30 492 C 51.3072 3.58709 -2.84766 0
M  V30 493 N 52.7982 3.66212 -2.83625 0
M  V30 494 C 53.5332 4.46225 -3.60098 0
M  V30 495 N 53.0292 5.29888 -4.46308 0
M  V30 496 N 54.8222 4.40939 -3.4861 0
M  V30 497 H 46.9732 0.848221 -1.94728 0
M  V30 498 H 49.2362 0.435081 -0.842264 0
M  V30 499 H 48.9422 2.11669 -2.80872 0
M  V30 500 H 48.8162 3.40467 -1.62365 0
M  V30 501 H 51.2032 2.83771 -0.809817 0
M  V30 502 H 51.2842 1.55784 -2.02891 0
M  V30 503 H 50.9282 3.30607 -3.85566 0
M  V30 504 H 50.8582 4.57519 -2.60737 0
M  V30 505 H 53.3492 3.06466 -2.21105 0
M  V30 506 H 53.6622 5.88078 -5.01382 0
M  V30 507 H 52.0072 5.29326 -4.50377 0
M  V30 508 H 55.1982 3.74624 -2.80668 0
M  V30 509 H 55.3712 5.03056 -4.08459 0
M  V30 510 N 48.7773 0.814389 1.34928 0
M  V30 511 C 50.0023 0.410097 2.03305 0
M  V30 512 C 50.4273 -0.973464 1.60951 0
M  V30 513 O 49.7853 -1.63185 0.789964 0
M  V30 514 C 49.8333 0.51049 3.56968 0
M  V30 515 O 48.9373 -0.473035 4.09678 0
M  V30 516 H 48.2783 0.170088 0.641846 0
M  V30 517 H 50.8083 1.10244 1.72358 0
M  V30 518 H 50.8183 0.383135 4.06197 0
M  V30 519 H 49.4933 1.51963 3.87144 0
M  V30 520 H 48.0703 -0.305272 3.71648 0
M  V30 521 N 50.2554 -1.46986 0.568584 0
M  V30 522 C 51.6714 -1.57946 0.229189 0
M  V30 523 C 51.8714 -1.56567 -1.26843 0
M  V30 524 O 50.9274 -1.47511 -2.04931 0
M  V30 525 C 52.2404 -2.87963 0.865909 0
M  V30 526 C 53.7884 -3.01568 0.838188 0
M  V30 527 C 54.2634 -4.34301 1.45419 0
M  V30 528 N 55.7544 -4.40965 1.41788 0
M  V30 529 C 56.4894 -5.42256 1.86403 0
M  V30 530 N 55.9854 -6.50297 2.38926 0
M  V30 531 N 57.7784 -5.3337 1.77405 0
M  V30 532 H 49.9294 -1.46126 1.54146 0
M  V30 533 H 52.1924 -0.696156 0.643484 0
M  V30 534 H 51.8984 -2.94742 1.91886 0
M  V30 535 H 51.7724 -3.75423 0.365687 0
M  V30 536 H 54.1594 -2.94379 -0.206106 0
M  V30 537 H 54.2404 -2.1562 1.37629 0
M  V30 538 H 53.8844 -4.42247 2.49761 0
M  V30 539 H 53.8144 -5.19 0.891435 0
M  V30 540 H 56.3054 -3.63484 1.03381 0
M  V30 541 H 56.6184 -7.23777 2.70863 0
M  V30 542 H 54.9634 -6.51155 2.42944 0
M  V30 543 H 58.1544 -4.47865 1.3614 0
M  V30 544 H 58.3274 -6.12169 2.12492 0
M  V30 545 N 51.7335 -0.305618 -1.54608 0
M  V30 546 C 52.9615 0.304775 -2.04643 0
M  V30 547 C 53.3765 1.47167 -1.18268 0
M  V30 548 O 52.7335 1.81296 -0.209328 0
M  V30 549 C 52.7845 0.756564 -3.53495 0
M  V30 550 O 52.5055 -0.36389 -4.36586 0
M  V30 551 C 54.0065 1.43163 -4.19546 0
M  V30 552 H 51.2265 0.0655481 -0.667791 0
M  V30 553 H 53.7705 -0.446592 -1.99564 0
M  V30 554 H 51.9255 1.45794 -3.58919 0
M  V30 555 H 52.3395 -0.0113121 -5.24499 0
M  V30 556 H 53.8135 1.69886 -5.25207 0
M  V30 557 H 54.2905 2.37318 -3.69563 0
M  V30 558 H 54.8965 0.773307 -4.18211 0
M  V30 559 N 53.2116 1.57565 -0.0334293 0
M  V30 560 C 54.6226 1.79746 0.504798 0
M  V30 561 C 54.9736 0.944091 1.71992 0
M  V30 562 O 54.0986 0.155694 2.15839 0
M  V30 563 C 54.6936 3.25997 0.922567 0
M  V30 564 C 53.2526 3.49159 1.40588 0
M  V30 565 C 52.3996 2.74785 0.372633 0
M  V30 566 H 55.3506 1.56565 -0.259436 0
M  V30 567 H 55.3716 3.35945 1.78666 0
M  V30 568 H 54.8836 3.88081 0.0379825 0
M  V30 569 H 52.9846 2.92332 2.31025 0
M  V30 570 H 53.0976 4.57873 1.41028 0
M  V30 571 H 51.4616 2.40391 0.841672 0
M  V30 572 H 52.2446 3.39587 -0.503559 0
M  V30 573 N 54.6897 -0.239769 1.55765 0
M  V30 574 C 55.9667 -0.990056 1.68693 0
M  V30 575 C 56.3467 -2.03107 0.5754 0
M  V30 576 O 55.6947 -2.24604 -0.42017 0
M  V30 577 C 55.9047 -1.61696 3.09282 0
M  V30 578 C 57.2527 -2.11613 3.6811 0
M  V30 579 O 58.2767 -1.71624 3.12127 0
M  V30 580 O 57.1357 -2.85057 4.66267 0
M  V30 581 H 54.2297 -0.461299 0.686391 0
M  V30 582 H 56.7757 -0.232991 1.68093 0
M  V30 583 H 55.5477 -0.864357 3.81634 0
M  V30 584 H 55.1707 -2.44005 3.13923 0
M  V30 585 N 56.1678 -1.49265 -0.50573 0
M  V30 586 C 57.3928 -1.62478 -1.28902 0
M  V30 587 C 57.8178 -0.294332 -1.85783 0
M  V30 588 O 57.1758 0.737412 -1.65626 0
M  V30 589 C 57.2238 -2.69268 -2.39848 0
M  V30 590 O 56.3278 -2.28113 -3.43567 0
M  V30 591 H 55.6688 -0.54399 -0.380751 0
M  V30 592 H 58.1988 -1.95421 -0.605952 0
M  V30 593 H 58.2088 -2.91291 -2.85681 0
M  V30 594 H 56.8838 -3.65846 -1.97812 0
M  V30 595 H 55.4608 -2.16401 -3.03685 0
M  V30 596 N 57.6459 0.756429 -1.3826 0
M  V30 597 C 58.8919 1.51772 -1.34511 0
M  V30 598 C 59.2249 1.94089 0.0656691 0
M  V30 599 O 58.4999 1.65221 1.02626 0
M  V30 600 C 58.7829 2.77226 -2.29821 0
M  V30 601 C 58.6359 2.41065 -3.79747 0
M  V30 602 C 59.9549 3.79236 -2.23312 0
M  V30 603 H 57.0739 0.550578 -0.489931 0
M  V30 604 H 59.7159 0.866607 -1.69086 0
M  V30 605 H 57.8659 3.32784 -2.00467 0
M  V30 606 H 59.5379 1.91303 -4.19763 0
M  V30 607 H 57.7809 1.7356 -3.97567 0
M  V30 608 H 58.4519 3.3081 -4.41892 0
M  V30 609 H 60.9279 3.3321 -2.49219 0
M  V30 610 H 59.8039 4.64714 -2.92116 0
M  V30 611 H 60.0649 4.24615 -1.23102 0
M  V30 612 N 59.124 1.23083 0.984299 0
M  V30 613 C 60.535 1.05609 1.5396 0
M  V30 614 C 60.886 -0.377793 1.92528 0
M  V30 615 O 60.011 -1.26398 1.75649 0
M  V30 616 C 60.606 1.91087 2.7977 0
M  V30 617 C 59.165 1.77885 3.31713 0
M  V30 618 C 58.312 1.87028 2.04733 0
M  V30 619 H 61.263 1.36802 0.804419 0
M  V30 620 H 61.284 1.43336 3.5247 0
M  V30 621 H 60.796 2.9544 2.51668 0
M  V30 622 H 58.897 0.762995 3.64704 0
M  V30 623 H 59.01 2.61047 4.01735 0
M  V30 624 H 57.374 1.30565 2.18689 0
M  V30 625 H 58.157 2.92929 1.79017 0
M  V30 626 N 60.6021 -1.18246 1.0419 0
M  V30 627 C 61.8501 -1.87886 0.744543 0
M  V30 628 C 62.1711 -1.8082 -0.730006 0
M  V30 629 O 61.4411 -1.22736 -1.52685 0
M  V30 630 H 60.0211 -0.695556 0.272417 0
M  V30 631 H 62.6831 -1.43494 1.31892 0
M  V30 632 H 61.7791 -2.9389 1.05049 0
M  V30 633 N 62.0802 -0.821533 -1.34494 0
M  V30 634 C 63.4962 -0.507117 -1.51329 0
M  V30 635 C 63.6962 0.968964 -1.76673 0
M  V30 636 O 62.7522 1.75348 -1.81685 0
M  V30 637 C 64.0652 -1.36544 -2.67911 0
M  V30 638 C 65.6132 -1.36242 -2.81793 0
M  V30 639 C 66.0882 -2.2052 -4.01416 0
M  V30 640 N 67.5792 -2.18136 -4.08621 0
M  V30 641 C 68.3142 -2.80095 -5.00334 0
M  V30 642 N 67.8102 -3.51039 -5.9728 0
M  V30 643 N 69.6032 -2.69656 -4.93196 0
M  V30 644 H 61.7542 -1.77729 -1.16302 0
M  V30 645 H 64.0172 -0.757291 -0.570276 0
M  V30 646 H 63.7232 -2.41361 -2.55808 0
M  V30 647 H 63.5972 -1.02917 -3.62888 0
M  V30 648 H 65.9842 -0.322041 -2.93338 0
M  V30 649 H 66.0652 -1.73866 -1.87628 0
M  V30 650 H 65.7092 -3.24607 -3.90631 0
M  V30 651 H 65.6392 -1.80247 -4.94791 0
M  V30 652 H 68.1302 -1.6653 -3.39229 0
M  V30 653 H 68.4432 -3.95565 -6.63889 0
M  V30 654 H 66.7882 -3.55145 -5.97409 0
M  V30 655 H 69.9792 -2.13808 -4.16418 0
M  V30 656 H 70.1522 -3.1823 -5.64476 0
M  V30 657 N 63.5583 1.46682 -0.576371 0
M  V30 658 C 64.4883 2.33028 0.148397 0
M  V30 659 C 65.4693 1.44961 0.889956 0
M  V30 660 O 66.6543 1.73789 0.866662 0
M  V30 661 C 63.7843 3.27117 1.1667 0
M  V30 662 C 62.7383 4.24575 0.540386 0
M  V30 663 C 62.0643 5.08126 1.6647 0
M  V30 664 C 63.3643 5.19722 -0.518331 0
M  V30 665 H 65.0583 2.93875 -0.572509 0
M  V30 666 H 62.6043 1.41315 -0.276768 0
M  V30 667 H 64.5573 3.86374 1.68204 0
M  V30 668 H 63.2813 2.64364 1.9178 0
M  V30 669 H 61.9403 3.66571 0.0461769 0
M  V30 670 H 61.5883 4.41762 2.40531 0
M  V30 671 H 61.2883 5.74122 1.25131 0
M  V30 672 H 62.8123 5.70246 2.18293 0
M  V30 673 H 64.2263 5.73232 -0.0883058 0
M  V30 674 H 62.6233 5.94026 -0.851679 0
M  V30 675 H 63.6933 4.64037 -1.40703 0
M  V30 676 N 65.0364 0.313813 1.54444 0
M  V30 677 C 65.9684 -0.590425 2.21465 0
M  V30 678 C 66.9814 -1.08753 1.21147 0
M  V30 679 O 68.1704 -1.00278 1.4767 0
M  V30 680 C 65.2704 -1.82179 2.85769 0
M  V30 681 C 64.4434 -1.46502 4.12136 0
M  V30 682 C 63.5024 -2.55288 4.60124 0
M  V30 683 O 62.5284 -2.19842 5.25032 0
M  V30 684 N 63.7304 -3.86053 4.33525 0
M  V30 685 H 66.4954 -0.0166033 2.99695 0
M  V30 686 H 64.0564 0.136578 1.61323 0
M  V30 687 H 66.0484 -2.54328 3.14801 0
M  V30 688 H 64.6184 -2.30369 2.11303 0
M  V30 689 H 63.8384 -0.575595 3.89975 0
M  V30 690 H 65.1264 -1.20221 4.94393 0
M  V30 691 H 64.5244 -4.17654 3.81552 0
M  V30 692 H 63.0814 -4.54461 4.67235 0
M  V30 693 N 66.5145 -1.57545 0.0417849 0
M  V30 694 C 67.4465 -2.07904 -0.964799 0
M  V30 695 C 68.4595 -1.00497 -1.28079 0
M  V30 696 O 69.6485 -1.28087 -1.24322 0
M  V30 697 C 66.7485 -2.49928 -2.28887 0
M  V30 698 C 65.9215 -3.80562 -2.15619 0
M  V30 699 C 64.9805 -4.08999 -3.31069 0
M  V30 700 O 64.0065 -4.79061 -3.0739 0
M  V30 701 N 65.2085 -3.6017 -4.55256 0
M  V30 702 H 67.9735 -2.94886 -0.535029 0
M  V30 703 H 65.5345 -1.61252 -0.144681 0
M  V30 704 H 67.5265 -2.66034 -3.04972 0
M  V30 705 H 66.0965 -1.68245 -2.63463 0
M  V30 706 H 65.3165 -3.74129 -1.24183 0
M  V30 707 H 66.6045 -4.66126 -2.03971 0
M  V30 708 H 66.0025 -3.03512 -4.77386 0
M  V30 709 H 64.5595 -3.81532 -5.28466 0
M  V30 710 N 67.9926 0.231505 -1.5589 0
M  V30 711 C 69.2416 0.955346 -1.7764 0
M  V30 712 C 69.5546 1.85893 -0.608546 0
M  V30 713 O 70.7606 2.62067 -0.70943 0
M  V30 714 C 69.2166 1.74886 -3.14552 0
M  V30 715 C 68.8246 0.891915 -4.39032 0
M  V30 716 C 70.5686 2.46452 -3.45633 0
M  V30 717 C 68.4756 1.68221 -5.66971 0
M  V30 718 H 67.4056 0.360446 -0.662265 0
M  V30 719 H 70.0566 0.209516 -1.823 0
M  V30 720 H 68.4386 2.53723 -3.04041 0
M  V30 721 H 69.6126 0.144793 -4.60572 0
M  V30 722 H 67.9276 0.288863 -4.15397 0
M  V30 723 H 70.5246 3.06061 -4.38441 0
M  V30 724 H 70.8676 3.18841 -2.67668 0
M  V30 725 H 71.4006 1.74613 -3.57428 0
M  V30 726 H 68.1396 1.00178 -6.478 0
M  V30 727 H 67.6596 2.4042 -5.49507 0
M  V30 728 H 69.3386 2.24544 -6.06786 0
M  V30 729 N 69.4707 1.49531 0.497807 0
M  V30 730 C 70.7007 1.62657 1.27382 0
M  V30 731 C 71.1087 0.298488 1.86831 0
M  V30 732 O 70.4517 -0.72647 1.68725 0
M  V30 733 C 70.5137 2.6393 2.44093 0
M  V30 734 C 70.1777 4.08195 2.05489 0
M  V30 735 C 71.1747 4.949 1.59279 0
M  V30 736 C 68.8597 4.53948 2.15026 0
M  V30 737 C 70.8537 6.25397 1.23113 0
M  V30 738 C 68.5407 5.84458 1.78473 0
M  V30 739 C 69.5387 6.70006 1.32591 0
M  V30 740 O 69.2267 7.98083 0.965327 0
M  V30 741 H 68.9587 0.550429 0.392434 0
M  V30 742 H 71.5127 1.96325 0.603801 0
M  V30 743 H 69.7427 2.25449 3.14181 0
M  V30 744 H 71.4317 2.66552 3.06113 0
M  V30 745 H 72.1977 4.60779 1.51354 0
M  V30 746 H 68.0767 3.87525 2.4969 0
M  V30 747 H 71.6207 6.92125 0.872299 0
M  V30 748 H 67.5177 6.18107 1.86048 0
M  V30 749 H 68.2857 8.11122 1.09652 0
M  V30 750 N 70.9488 -0.749086 1.3866 0
M  V30 751 C 72.1788 -1.53611 1.38157 0
M  V30 752 C 72.5868 -1.89177 -0.0293595 0
M  V30 753 O 71.9298 -1.53606 -1.00752 0
M  V30 754 C 71.9918 -2.86087 2.17702 0
M  V30 755 C 71.6558 -2.73034 3.66472 0
M  V30 756 C 72.6528 -2.42526 4.59866 0
M  V30 757 C 70.3378 -2.90345 4.09884 0
M  V30 758 C 72.3318 -2.29492 5.94653 0
M  V30 759 C 70.0188 -2.7693 5.4475 0
M  V30 760 C 71.0168 -2.46547 6.36949 0
M  V30 761 O 70.7048 -2.33199 7.69333 0
M  V30 762 H 70.4368 -0.481773 0.474205 0
M  V30 763 H 72.9908 -0.934465 1.82912 0
M  V30 764 H 71.2208 -3.48458 1.67672 0
M  V30 765 H 72.9098 -3.47625 2.09551 0
M  V30 766 H 73.6758 -2.28816 4.27631 0
M  V30 767 H 69.5548 -3.1299 3.38464 0
M  V30 768 H 73.0988 -2.05698 6.66584 0
M  V30 769 H 68.9958 -2.90215 5.76581 0
M  V30 770 H 69.7638 -2.48376 7.79905 0
M  V30 771 N 72.4269 -1.23603 -0.977757 0
M  V30 772 C 73.6749 -1.06759 -1.71601 0
M  V30 773 C 73.9959 0.395929 -1.90938 0
M  V30 774 O 73.2659 1.28356 -1.47992 0
M  V30 775 H 71.8459 -0.392062 -0.635843 0
M  V30 776 H 74.5079 -1.55362 -1.1768 0
M  V30 777 H 73.6039 -1.55763 -2.70452 0
M  V30 778 N 73.905 1.17692 -1.04816 0
M  V30 779 C 74.837 2.21103 -0.603822 0
M  V30 780 C 75.85 1.59411 0.33046 0
M  V30 781 O 77.039 1.7807 0.12379 0
M  V30 782 C 74.139 3.38623 0.136898 0
M  V30 783 C 73.312 4.29888 -0.807137 0
M  V30 784 C 72.371 5.26088 -0.10836 0
M  V30 785 O 71.397 5.64353 -0.741232 0
M  V30 786 N 72.599 5.68882 1.15558 0
M  V30 787 H 75.364 2.59848 -1.49329 0
M  V30 788 H 72.925 1.32553 -0.929587 0
M  V30 789 H 74.917 4.00009 0.614401 0
M  V30 790 H 73.487 2.98508 0.927993 0
M  V30 791 H 72.707 3.65993 -1.46434 0
M  V30 792 H 73.995 4.87759 -1.44807 0
M  V30 793 H 73.393 5.39861 1.69015 0
M  V30 794 H 71.95 6.32429 1.57722 0
M  V30 795 N 75.3831 0.828654 1.34056 0
M  V30 796 C 76.7991 0.515135 1.51058 0
M  V30 797 C 76.9991 -0.959581 1.77184 0
M  V30 798 O 76.0551 -1.74382 1.82612 0
M  V30 799 C 77.3681 1.37963 2.67183 0
M  V30 800 C 78.9161 1.37735 2.81066 0
M  V30 801 C 79.3911 2.22645 4.00241 0
M  V30 802 N 80.8821 2.203 4.07458 0
M  V30 803 C 81.6171 2.82744 4.98842 0
M  V30 804 N 81.1131 3.54201 5.9541 0
M  V30 805 N 82.9061 2.72268 4.91759 0
M  V30 806 H 75.0571 1.78343 1.15358 0
M  V30 807 H 77.3201 0.760304 0.566252 0
M  V30 808 H 77.0261 2.42714 2.54525 0
M  V30 809 H 76.9001 1.0484 3.62338 0
M  V30 810 H 79.2871 0.337593 2.93163 0
M  V30 811 H 79.3681 1.74859 1.86703 0
M  V30 812 H 79.0121 3.26674 3.88905 0
M  V30 813 H 78.9421 1.82869 4.93829 0
M  V30 814 H 81.4331 1.68327 3.38341 0
M  V30 815 H 81.7461 3.9908 6.61782 0
M  V30 816 H 80.0911 3.58308 5.95517 0
M  V30 817 H 83.2821 2.16014 4.15278 0
M  V30 818 H 83.4551 3.21219 5.62781 0
M  V30 819 N 76.8612 -1.46375 0.584142 0
M  V30 820 C 77.8242 -2.28784 -0.138108 0
M  V30 821 C 78.8242 -1.38471 -0.817462 0
M  V30 822 O 80.0142 -1.60833 -0.669199 0
M  V30 823 C 77.1462 -3.18892 -1.20503 0
M  V30 824 H 78.3392 -2.94117 0.586127 0
M  V30 825 H 75.8922 -1.52509 0.342171 0
M  V30 826 H 76.6272 -2.58309 -1.96079 0
M  V30 827 H 76.4122 -3.85388 -0.722384 0
M  V30 828 H 77.9022 -3.80914 -1.71155 0
M  V30 829 N 78.3393 -0.321999 -1.54275 0
M  V30 830 C 79.5643 0.285791 -2.05422 0
M  V30 831 C 79.9893 1.45124 -1.19669 0
M  V30 832 O 79.3473 1.80132 -0.205441 0
M  V30 833 C 79.3953 0.69956 -3.53749 0
M  V30 834 O 78.4993 1.8021 -3.70942 0
M  V30 835 H 77.8403 0.0518962 -0.661969 0
M  V30 836 H 80.3703 -0.469954 -1.9913 0
M  V30 837 H 80.3803 0.982649 -3.9599 0
M  V30 838 H 79.0553 -0.152864 -4.15619 0
M  V30 839 H 77.6323 1.51794 -3.40607 0
M  V30 840 N 79.8174 1.5752 -0.0501392 0
M  V30 841 C 80.7804 2.1037 0.909786 0
M  V30 842 C 81.7804 1.02308 1.24056 0
M  V30 843 O 82.9704 1.28385 1.17741 0
M  V30 844 C 80.1024 2.58708 2.21998 0
M  V30 845 H 81.2954 2.96479 0.451665 0
M  V30 846 H 78.8484 1.55038 0.198248 0
M  V30 847 H 79.5834 1.75989 2.72394 0
M  V30 848 H 79.3684 3.37675 1.99295 0
M  V30 849 H 80.8584 2.99747 2.9076 0
M  V30 850 N 81.2955 -0.223234 1.56011 0
M  V30 851 C 82.5435 -0.946003 1.78592 0
M  V30 852 C 82.8645 -1.84936 0.618349 0
M  V30 853 O 82.1345 -1.92473 -0.364833 0
M  V30 854 H 80.7145 -0.352298 0.658707 0
M  V30 855 H 83.3765 -0.235494 1.93472 0
M  V30 856 H 82.4725 -1.55381 2.70672 0
M  V30 857 N 82.7736 -1.49793 -0.48987 0
M  V30 858 C 83.7036 -1.70201 -1.59856 0
M  V30 859 C 84.6846 -0.55076 -1.60937 0
M  V30 860 O 85.8696 -0.787841 -1.77501 0
M  V30 861 C 82.9996 -1.77882 -2.98287 0
M  V30 862 C 81.9536 -2.92907 -3.12073 0
M  V30 863 C 81.2796 -2.85712 -4.51965 0
M  V30 864 C 82.5796 -4.3369 -2.91051 0
M  V30 865 H 84.2736 -2.63025 -1.43032 0
M  V30 866 H 81.8196 -1.26574 -0.686664 0
M  V30 867 H 83.7726 -1.90744 -3.75759 0
M  V30 868 H 82.4966 -0.816653 -3.16225 0
M  V30 869 H 81.1556 -2.79665 -2.37029 0
M  V30 870 H 80.8036 -1.8738 -4.66795 0
M  V30 871 H 80.5036 -3.62921 -4.62128 0
M  V30 872 H 82.0276 -3.00598 -5.31482 0
M  V30 873 H 83.4416 -4.47555 -3.58284 0
M  V30 874 H 81.8386 -5.12205 -3.12675 0
M  V30 875 H 82.9086 -4.47362 -1.87071 0
M  V30 876 N 84.2517 0.741722 -1.39055 0
M  V30 877 C 85.5007 1.49656 -1.35225 0
M  V30 878 C 85.8137 1.95533 0.0512708 0
M  V30 879 O 87.0197 2.7067 0.212138 0
M  V30 880 C 85.4757 2.70389 -2.37525 0
M  V30 881 C 85.0837 2.31489 -3.83558 0
M  V30 882 C 86.8277 3.48236 -2.42759 0
M  V30 883 C 84.7347 3.48903 -4.77515 0
M  V30 884 H 83.6647 0.56197 -0.502699 0
M  V30 885 H 86.3157 0.809727 -1.64668 0
M  V30 886 H 84.6977 3.41113 -2.01142 0
M  V30 887 H 85.8717 1.68354 -4.28945 0
M  V30 888 H 84.1867 1.66749 -3.81554 0
M  V30 889 H 86.7837 4.35558 -3.1015 0
M  V30 890 H 87.1267 3.90229 -1.45008 0
M  V30 891 H 87.6597 2.84535 -2.78002 0
M  V30 892 H 84.3987 3.11966 -5.76504 0
M  V30 893 H 83.9187 4.11041 -4.36813 0
M  V30 894 H 85.5977 4.15328 -4.96096 0
M  V30 895 N 85.7298 1.2412 0.971189 0
M  V30 896 C 86.9788 1.07284 1.70801 0
M  V30 897 C 87.2918 -0.388902 1.91695 0
M  V30 898 O 88.4978 -0.677379 2.62914 0
M  V30 899 C 86.9538 1.87145 3.07416 0
M  V30 900 C 86.5618 3.37707 2.94377 0
M  V30 901 C 88.3058 1.78828 3.84995 0
M  V30 902 C 86.2128 4.09925 4.26281 0
M  V30 903 H 85.1428 0.397854 0.64049 0
M  V30 904 H 87.7938 1.4817 1.0825 0
M  V30 905 H 86.1758 1.39071 3.70777 0
M  V30 906 H 87.3498 3.93335 2.4005 0
M  V30 907 H 85.6648 3.46938 2.30267 0
M  V30 908 H 88.2618 2.30089 4.82662 0
M  V30 909 H 88.6048 0.75284 4.09436 0
M  V30 910 H 89.1378 2.24563 3.28354 0
M  V30 911 H 85.8768 5.13813 4.07033 0
M  V30 912 H 85.3968 3.59083 4.80437 0
M  V30 913 H 87.0758 4.1673 4.94919 0
M  V30 914 N 87.2079 -1.17134 1.05439 0
M  V30 915 C 88.4329 -1.91913 0.786396 0
M  V30 916 C 88.8579 -1.7643 -0.652234 0
M  V30 917 O 88.2159 -1.08372 -1.45345 0
M  V30 918 C 88.2639 -3.40921 1.17497 0
M  V30 919 O 87.3679 -4.11244 0.308589 0
M  V30 920 H 86.7089 -0.598215 0.288158 0
M  V30 921 H 89.2389 -1.48457 1.4079 0
M  V30 922 H 89.2489 -3.91668 1.14281 0
M  V30 923 H 87.9239 -3.5151 2.22292 0
M  V30 924 H 86.5009 -3.70731 0.40157 0
M  V30 925 N 88.686 -0.835752 -1.33615 0
M  V30 926 C 89.596 -0.269088 -2.33052 0
M  V30 927 C 90.612 0.603251 -1.63208 0
M  V30 928 O 91.788 0.508112 -1.94885 0
M  V30 929 C 88.853 0.549091 -3.42324 0
M  V30 930 C 87.914 -0.347156 -4.27894 0
M  V30 931 C 87.147 0.43207 -5.31948 0
M  V30 932 O 87.37 1.66409 -5.45586 0
M  V30 933 O 86.304 -0.192298 -6.01593 0
M  V30 934 H 90.13 -1.09243 -2.83372 0
M  V30 935 H 87.715 -0.598198 -1.36901 0
M  V30 936 H 89.597 1.01414 -4.09015 0
M  V30 937 H 88.272 1.34955 -2.94226 0
M  V30 938 H 87.179 -0.859979 -3.64081 0
M  V30 939 H 88.512 -1.1123 -4.79467 0
M  V30 940 N 90.1641 1.46063 -0.591896 0
M  V30 941 C 91.1271 2.28854 0.125973 0
M  V30 942 C 92.1271 1.38903 0.810107 0
M  V30 943 O 93.3171 1.61186 0.66066 0
M  V30 944 C 90.4491 3.19526 1.1881 0
M  V30 945 H 91.6421 2.93802 -0.601717 0
M  V30 946 H 89.1951 1.52325 -0.350254 0
M  V30 947 H 89.9301 2.59345 1.94707 0
M  V30 948 H 89.7151 3.85766 0.701936 0
M  V30 949 H 91.2051 3.81817 1.69132 0
M  V30 950 N 91.6422 0.330177 1.54103 0
M  V30 951 C 92.8702 -0.272179 2.05102 0
M  V30 952 C 93.2852 -1.45267 1.20595 0
M  V30 953 O 92.6422 -1.8094 0.238144 0
M  V30 954 C 92.6932 -0.70023 3.54653 0
M  V30 955 O 92.4142 0.433301 4.35952 0
M  V30 956 C 93.9152 -1.3647 4.21771 0
M  V30 957 H 91.1352 -0.0549159 0.668749 0
M  V30 958 H 93.6792 0.478285 1.98828 0
M  V30 959 H 91.8342 -1.40066 3.61193 0
M  V30 960 H 92.2482 0.0947539 5.24414 0
M  V30 961 H 93.7222 -1.61509 5.27843 0
M  V30 962 H 94.1992 -2.31409 3.73292 0
M  V30 963 H 94.8052 -0.706675 4.19388 0
M  V30 964 N 93.1203 -1.57491 0.0584922 0
M  V30 965 C 94.0683 -2.13148 -0.931168 0
M  V30 966 C 95.0623 -1.06507 -1.31729 0
M  V30 967 O 96.2683 -1.24906 -1.29609 0
M  V30 968 H 92.6433 -0.68137 -0.31818 0
M  V30 969 H 94.6143 -2.95187 -0.436707 0
M  V30 970 C 93.3633 -2.69732 -2.19408 0
M  V30 971 H 92.6863 -3.51454 -1.90578 0
M  V30 972 H 94.1263 -3.12287 -2.86798 0
M  V30 973 C 92.5853 -1.63855 -2.94369 0
M  V30 974 O 93.1153 -1.05565 -3.87581 0
M  V30 975 N 91.3213 -1.35202 -2.57233 0
M  V30 976 H 90.8683 -1.82791 -1.81508 0
M  V30 977 H 90.8263 -0.645922 -3.07693 0
M  V30 978 N 94.5984 0.214957 -1.56127 0
M  V30 979 C 95.8474 0.936451 -1.78643 0
M  V30 980 C 96.1604 1.85237 -0.628229 0
M  V30 981 O 97.3664 2.613 -0.737186 0
M  V30 982 C 95.8224 1.7154 -3.16389 0
M  V30 983 C 95.4304 0.845299 -4.39953 0
M  V30 984 C 97.1744 2.42772 -3.48227 0
M  V30 985 C 95.0814 1.62198 -5.68723 0
M  V30 986 H 94.0114 0.353401 -0.666051 0
M  V30 987 H 96.6624 0.190169 -1.82512 0
M  V30 988 H 95.0444 2.50484 -3.06715 0
M  V30 989 H 96.2184 0.0959353 -4.607 0
M  V30 990 H 94.5334 0.244789 -4.1568 0
M  V30 991 H 97.1304 3.01394 -4.41663 0
M  V30 992 H 97.4734 3.15984 -2.71035 0
M  V30 993 H 98.0064 1.70813 -3.5926 0
M  V30 994 H 94.7454 0.933011 -6.48826 0
M  V30 995 H 94.2654 2.34579 -5.52026 0
M  V30 996 H 95.9444 2.18095 -6.09133 0
M  V30 997 N 96.0765 1.50051 0.48192 0
M  V30 998 C 97.3015 1.64508 1.26301 0
M  V30 999 C 97.7265 0.323851 1.85291 0
M  V30 1000 O 97.0845 -0.710969 1.66778 0
M  V30 1001 C 97.1325 2.7305 2.35533 0
M  V30 1002 O 96.2365 2.3355 3.39895 0
M  V30 1003 H 95.5775 0.549978 0.372048 0
M  V30 1004 H 98.1075 1.9636 0.574786 0
M  V30 1005 H 98.1175 2.95799 2.8101 0
M  V30 1006 H 96.7925 3.68946 1.91967 0
M  V30 1007 H 95.3695 2.21205 3.00204 0
M  V30 1008 N 97.5546 -0.734337 1.39446 0
M  V30 1009 C 98.9656 -1.31264 1.32766 0
M  V30 1010 C 99.3166 -1.96198 -0.00767497 0
M  V30 1011 O 98.4416 -1.96346 -0.909796 0
M  V30 1012 C 99.0366 -2.38682 2.4045 0
M  V30 1013 C 97.5956 -2.92184 2.37288 0
M  V30 1014 C 96.7426 -1.6576 2.22304 0
M  V30 1015 H 99.6936 -0.531799 1.49525 0
M  V30 1016 H 99.7146 -3.19087 2.07276 0
M  V30 1017 H 99.2266 -1.91392 3.37625 0
M  V30 1018 H 97.3276 -3.43752 1.43754 0
M  V30 1019 H 97.4406 -3.45253 3.3217 0
M  V30 1020 H 95.8046 -1.9012 1.69489 0
M  V30 1021 H 96.5876 -1.20521 3.21449 0
M  V30 1022 N 99.0327 -1.24633 -0.964593 0
M  V30 1023 C 100.261 -1.11501 -1.74285 0
M  V30 1024 C 100.676 0.332165 -1.85855 0
M  V30 1025 O 100.033 1.22903 -1.34911 0
M  V30 1026 C 100.084 -1.75258 -3.16175 0
M  V30 1027 O 99.8047 -3.14318 -3.05182 0
M  V30 1028 C 101.306 -1.67776 -4.10324 0
M  V30 1029 H 98.5257 -0.389407 -0.546446 0
M  V30 1030 H 101.07 -1.64801 -1.21083 0
M  V30 1031 H 99.2247 -1.25954 -3.66353 0
M  V30 1032 H 99.6387 -3.4551 -3.94618 0
M  V30 1033 H 101.113 -2.17064 -5.0753 0
M  V30 1034 H 101.59 -0.639584 -4.34518 0
M  V30 1035 H 102.196 -2.16522 -3.66058 0
M  V30 1036 N 100.511 1.16574 -1.06058 0
M  V30 1037 C 101.474 2.19085 -0.673392 0
M  V30 1038 C 102.474 1.5835 0.279648 0
M  V30 1039 O 103.664 1.74088 0.0623488 0
M  V30 1040 C 100.796 3.40899 0.00954234 0
M  V30 1041 H 101.989 2.54853 -1.58081 0
M  V30 1042 H 99.5418 1.30808 -0.855516 0
M  V30 1043 H 100.277 3.10684 0.929826 0
M  V30 1044 H 100.062 3.86233 -0.67573 0
M  V30 1045 H 101.552 4.1675 0.266245 0
M  V30 1046 N 101.989 0.842826 1.3317 0
M  V30 1047 C 103.405 0.531128 1.50503 0
M  V30 1048 C 103.605 -0.940734 1.78192 0
M  V30 1049 O 102.661 -1.72436 1.84451 0
M  V30 1050 C 103.974 1.40789 2.65705 0
M  V30 1051 C 105.522 1.40708 2.79589 0
M  V30 1052 C 105.997 2.26878 3.97857 0
M  V30 1053 N 107.488 2.24609 4.05099 0
M  V30 1054 C 108.223 2.88019 4.95815 0
M  V30 1055 N 107.719 3.60496 5.9162 0
M  V30 1056 N 109.512 2.77469 4.88843 0
M  V30 1057 H 101.663 1.79557 1.1346 0
M  V30 1058 H 103.926 0.766267 0.558156 0
M  V30 1059 H 103.632 2.454 2.51936 0
M  V30 1060 H 103.506 1.08677 3.61205 0
M  V30 1061 H 105.893 0.368668 2.92788 0
M  V30 1062 H 105.974 1.76829 1.84838 0
M  V30 1063 H 105.618 3.3078 3.85418 0
M  V30 1064 H 105.548 1.88096 4.91861 0
M  V30 1065 H 108.039 1.71906 3.36536 0
M  V30 1066 H 108.352 4.06076 6.57512 0
M  V30 1067 H 106.697 3.64604 5.91683 0
M  V30 1068 H 109.888 2.20406 4.12963 0
M  V30 1069 H 110.061 3.2717 5.59342 0
M  V30 1070 N 103.467 -1.45747 0.599634 0
M  V30 1071 C 104.715 -2.01893 0.0915472 0
M  V30 1072 C 105.036 -1.47155 -1.27946 0
M  V30 1073 O 104.306 -0.66273 -1.84349 0
M  V30 1074 H 102.886 -0.746363 0.0308524 0
M  V30 1075 H 105.548 -1.78645 0.779237 0
M  V30 1076 H 104.644 -3.1208 0.0353086 0
M  V30 1077 N 104.945 -0.338344 -1.53925 0
M  V30 1078 C 106.175 0.260919 -2.04946 0
M  V30 1079 C 106.583 1.45174 -1.2133 0
M  V30 1080 O 105.926 1.82122 -0.240262 0
M  V30 1081 C 105.988 0.744596 -3.51704 0
M  V30 1082 C 105.652 -0.325883 -4.55837 0
M  V30 1083 C 106.649 -1.16687 -5.06636 0
M  V30 1084 C 104.334 -0.478317 -5.00017 0
M  V30 1085 C 106.328 -2.14588 -6.00192 0
M  V30 1086 C 104.015 -1.46073 -5.93385 0
M  V30 1087 C 105.013 -2.29297 -6.4336 0
M  V30 1088 O 104.701 -3.25867 -7.34892 0
M  V30 1089 H 104.433 0.0551207 -0.673749 0
M  V30 1090 H 106.987 -0.486984 -1.99544 0
M  V30 1091 H 105.217 1.54366 -3.54553 0
M  V30 1092 H 106.906 1.26383 -3.85723 0
M  V30 1093 H 107.672 -1.06016 -4.73271 0
M  V30 1094 H 103.551 0.159613 -4.60724 0
M  V30 1095 H 107.095 -2.79585 -6.39123 0
M  V30 1096 H 102.992 -1.56802 -6.26166 0
M  V30 1097 H 103.76 -3.21278 -7.5281 0
M  V30 1098 N 106.423 1.57458 -0.0668435 0
M  V30 1099 C 107.669 1.93587 0.6043 0
M  V30 1100 C 108.002 0.946722 1.69561 0
M  V30 1101 O 107.277 -0.0248516 1.94484 0
M  V30 1102 C 107.56 3.40014 1.18585 0
M  V30 1103 C 107.413 4.49685 0.101529 0
M  V30 1104 C 108.732 3.87154 2.09284 0
M  V30 1105 H 105.851 0.703958 0.218202 0
M  V30 1106 H 108.493 1.89542 -0.131804 0
M  V30 1107 H 106.643 3.43592 1.81319 0
M  V30 1108 H 108.315 4.5823 -0.531279 0
M  V30 1109 H 106.558 4.30059 -0.568487 0
M  V30 1110 H 107.229 5.49266 0.54874 0
M  V30 1111 H 109.705 3.85551 1.56491 0
M  V30 1112 H 108.581 4.90231 2.46911 0
M  V30 1113 H 108.842 3.2481 2.99918 0
M  V30 1114 N 107.901 -0.206675 1.56239 0
M  V30 1115 C 109.131 -0.943975 1.83773 0
M  V30 1116 C 109.539 -1.77841 0.645703 0
M  V30 1117 O 108.882 -1.79403 -0.395008 0
M  V30 1118 C 108.944 -1.899 3.05251 0
M  V30 1119 C 108.608 -1.24764 4.39639 0
M  V30 1120 C 109.605 -0.630216 5.16066 0
M  V30 1121 C 107.29 -1.25496 4.8637 0
M  V30 1122 C 109.284 -0.0287946 6.37393 0
M  V30 1123 C 106.971 -0.649698 6.07637 0
M  V30 1124 C 107.969 -0.0376845 6.8299 0
M  V30 1125 O 107.657 0.55812 8.0196 0
M  V30 1126 H 107.389 -0.281508 0.614597 0
M  V30 1127 H 109.943 -0.222458 2.04192 0
M  V30 1128 H 108.173 -2.6599 2.80689 0
M  V30 1129 H 109.862 -2.5031 3.1953 0
M  V30 1130 H 110.628 -0.616785 4.81062 0
M  V30 1131 H 106.507 -1.72072 4.27683 0
M  V30 1132 H 110.051 0.449518 6.9615 0
M  V30 1133 H 105.948 -0.660592 6.42111 0
M  V30 1134 H 106.716 0.453891 8.17241 0
M  V30 1135 N 109.379 -1.50304 -0.473955 0
M  V30 1136 C 110.607 -1.64902 -1.24959 0
M  V30 1137 C 111.022 -0.331198 -1.85872 0
M  V30 1138 O 110.379 0.68652 -1.69095 0
M  V30 1139 C 110.43 -2.73803 -2.36038 0
M  V30 1140 O 110.151 -4.00477 -1.77624 0
M  V30 1141 C 111.652 -2.99349 -3.26964 0
M  V30 1142 H 108.872 -0.554383 -0.378022 0
M  V30 1143 H 111.416 -1.9651 -0.566054 0
M  V30 1144 H 109.571 -2.44898 -3.00173 0
M  V30 1145 H 109.985 -4.60678 -2.5075 0
M  V30 1146 H 111.459 -3.79217 -4.01121 0
M  V30 1147 H 111.936 -2.10307 -3.85574 0
M  V30 1148 H 112.542 -3.29774 -2.68569 0
M  V30 1149 N 110.857 0.726932 -1.39834 0
M  V30 1150 C 112.268 1.30558 -1.3346 0
M  V30 1151 C 112.619 1.962 -0.00273003 0
M  V30 1152 O 111.744 1.96826 0.899371 0
M  V30 1153 C 112.339 2.37404 -2.41713 0
M  V30 1154 C 110.898 2.90921 -2.38835 0
M  V30 1155 C 110.045 1.64578 -2.2318 0
M  V30 1156 H 112.996 0.523862 -1.49804 0
M  V30 1157 H 113.017 3.17984 -2.08966 0
M  V30 1158 H 112.529 1.89599 -3.38635 0
M  V30 1159 H 110.63 3.42985 -1.45575 0
M  V30 1160 H 110.743 3.43487 -3.33997 0
M  V30 1161 H 109.107 1.89219 -1.70494 0
M  V30 1162 H 109.89 1.18814 -3.22084 0
M  V30 1163 N 112.336 1.25143 0.95797 0
M  V30 1164 C 113.584 1.09476 1.69881 0
M  V30 1165 C 113.905 -0.365502 1.91544 0
M  V30 1166 O 113.175 -1.25985 1.50015 0
M  V30 1167 H 111.755 0.402128 0.629525 0
M  V30 1168 H 114.417 1.57214 1.15194 0
M  V30 1169 H 113.513 1.60046 2.6794 0
M  V30 1170 N 113.814 -1.1601 1.06675 0
M  V30 1171 C 115.063 -1.85973 0.780818 0
M  V30 1172 C 115.376 -1.82819 -0.695444 0
M  V30 1173 O 116.582 -2.484 -1.09589 0
M  V30 1174 C 115.038 -3.33757 1.34665 0
M  V30 1175 C 114.646 -3.45374 2.85343 0
M  V30 1176 C 116.39 -4.0895 1.13843 0
M  V30 1177 C 114.297 -4.87266 3.35151 0
M  V30 1178 H 113.227 -0.696661 0.288407 0
M  V30 1179 H 115.878 -1.30903 1.28595 0
M  V30 1180 H 114.26 -3.88456 0.769274 0
M  V30 1181 H 115.434 -3.00816 3.49065 0
M  V30 1182 H 113.749 -2.83619 3.04876 0
M  V30 1183 H 116.346 -5.13654 1.4854 0
M  V30 1184 H 116.689 -4.16229 0.0770282 0
M  V30 1185 H 117.222 -3.605 1.68179 0
M  V30 1186 H 113.961 -4.85168 4.40786 0
M  V30 1187 H 113.481 -5.32433 2.76179 0
M  V30 1188 H 115.16 -5.56097 3.30704 0
M  V30 1189 N 115.292 -0.849877 -1.32721 0
M  V30 1190 C 116.538 -0.460855 -1.9811 0
M  V30 1191 C 116.893 0.971716 -1.66059 0
M  V30 1192 O 116.186 1.67184 -0.935944 0
M  V30 1193 C 116.38 -0.631272 -3.51781 0
M  V30 1194 C 116.209 -2.07886 -3.98765 0
M  V30 1195 C 114.979 -2.71637 -4.26077 0
M  V30 1196 C 117.177 -3.04889 -4.14182 0
M  V30 1197 N 115.159 -4.07356 -4.59276 0
M  V30 1198 C 116.53 -4.25583 -4.50865 0
M  V30 1199 C 118.585 -3.01148 -3.96503 0
M  V30 1200 C 117.288 -5.43027 -4.71714 0
M  V30 1201 C 119.314 -4.17832 -4.18533 0
M  V30 1202 C 118.676 -5.37284 -4.55528 0
M  V30 1203 H 114.775 -0.217283 -0.751207 0
M  V30 1204 H 117.359 -1.10026 -1.60631 0
M  V30 1205 H 115.53 -0.0215966 -3.88394 0
M  V30 1206 H 117.262 -0.212614 -4.04141 0
M  V30 1207 H 114.017 -2.22705 -4.17971 0
M  V30 1208 H 114.441 -4.77351 -4.80068 0
M  V30 1209 H 119.083 -2.0992 -3.67006 0
M  V30 1210 H 116.801 -6.34791 -5.00066 0
M  V30 1211 H 120.387 -4.16368 -4.06361 0
M  V30 1212 H 119.267 -6.26071 -4.72234 0
M  V30 1213 N 116.77 1.45427 -0.607355 0
M  V30 1214 C 117.998 2.06614 -0.108814 0
M  V30 1215 C 118.413 1.45204 1.2067 0
M  V30 1216 O 117.77 0.566132 1.73497 0
M  V30 1217 C 117.821 3.61481 0.0375347 0
M  V30 1218 O 117.542 4.20598 -1.22593 0
M  V30 1219 C 119.043 4.39652 0.567561 0
M  V30 1220 H 116.263 0.66747 -0.0687351 0
M  V30 1221 H 118.807 1.86675 -0.835022 0
M  V30 1222 H 116.962 3.80762 0.714068 0
M  V30 1223 H 117.376 5.1377 -1.05547 0
M  V30 1224 H 118.85 5.48518 0.61905 0
M  V30 1225 H 119.327 4.09417 1.58978 0
M  V30 1226 H 119.933 4.25234 -0.0749202 0
M  V30 1227 N 118.248 0.346503 1.53744 0
M  V30 1228 C 119.525 -0.304532 1.93215 0
M  V30 1229 C 119.905 -1.67993 1.27834 0
M  V30 1230 O 119.253 -2.24411 0.430352 0
M  V30 1231 C 119.463 -0.373852 3.46992 0
M  V30 1232 C 120.811 -0.62329 4.2 0
M  V30 1233 O 121.835 -0.455847 3.53271 0
M  V30 1234 O 120.694 -0.947879 5.38217 0
M  V30 1235 H 117.788 -0.178318 0.807547 0
M  V30 1236 H 120.334 0.397895 1.64969 0
M  V30 1237 H 119.106 0.591224 3.86808 0
M  V30 1238 H 118.729 -1.12294 3.81413 0
M  V30 1239 N 119.726 -1.57421 0.075193 0
M  V30 1240 C 120.689 -2.11791 -0.876203 0
M  V30 1241 C 121.689 -1.04268 -1.22412 0
M  V30 1242 O 122.879 -1.30242 -1.15684 0
M  V30 1243 C 120.011 -2.62207 -2.17854 0
M  V30 1244 H 121.204 -2.9716 -0.40444 0
M  V30 1245 H 118.757 -1.55333 -0.173557 0
M  V30 1246 H 119.492 -1.803 -2.6956 0
M  V30 1247 H 119.277 -3.40802 -1.93897 0
M  V30 1248 H 120.767 -3.04335 -2.85955 0
M  V30 1249 N 121.204 0.198386 -1.56346 0
M  V30 1250 C 122.136 1.26987 -1.90806 0
M  V30 1251 C 123.149 1.41877 -0.798419 0
M  V30 1252 O 124.338 1.42362 -1.07682 0
M  V30 1253 C 121.438 2.64246 -2.12196 0
M  V30 1254 C 120.611 2.71007 -3.43328 0
M  V30 1255 C 119.67 3.89439 -3.5387 0
M  V30 1256 O 118.696 3.76695 -4.26719 0
M  V30 1257 N 119.898 5.04752 -2.86715 0
M  V30 1258 H 122.663 0.977433 -2.83313 0
M  V30 1259 H 120.224 0.388322 -1.57174 0
M  V30 1260 H 122.216 3.41896 -2.1654 0
M  V30 1261 H 120.786 2.85992 -1.26204 0
M  V30 1262 H 120.006 1.79657 -3.50881 0
M  V30 1263 H 121.294 2.72512 -4.29668 0
M  V30 1264 H 120.692 5.18004 -2.2735 0
M  V30 1265 H 119.249 5.8036 -2.96691 0
M  V30 1266 N 122.682 1.50554 0.465978 0
M  V30 1267 C 123.592 1.72585 1.58907 0
M  V30 1268 C 124.608 0.60911 1.6299 0
M  V30 1269 O 125.784 0.88804 1.80765 0
M  V30 1270 C 122.849 1.81995 2.95091 0
M  V30 1271 C 121.91 3.05751 3.01355 0
M  V30 1272 C 121.143 3.14702 4.31043 0
M  V30 1273 O 121.366 2.30313 5.21835 0
M  V30 1274 O 120.3 4.07468 4.43005 0
M  V30 1275 H 124.126 2.67799 1.43239 0
M  V30 1276 H 121.711 1.34711 0.646013 0
M  V30 1277 H 123.593 1.90335 3.75966 0
M  V30 1278 H 122.268 0.899659 3.10947 0
M  V30 1279 H 121.175 3.02908 2.19539 0
M  V30 1280 H 122.508 3.97375 2.90437 0
M  V30 1281 N 124.16 -0.719506 1.40217 0
M  V30 1282 C 125.123 -1.8153 1.39927 0
M  V30 1283 C 126.123 -1.58095 0.293723 0
M  V30 1284 O 127.313 -1.65209 0.552429 0
M  V30 1285 C 124.445 -3.19561 1.18716 0
M  V30 1286 H 125.638 -1.83186 2.37451 0
M  V30 1287 H 123.191 -0.924746 1.26008 0
M  V30 1288 H 123.926 -3.23557 0.219366 0
M  V30 1289 H 123.711 -3.3797 1.98793 0
M  V30 1290 H 125.201 -3.99598 1.21291 0
M  V30 1291 N 125.638 -1.25649 -0.95132 0
M  V30 1292 C 126.886 -1.10375 -1.69298 0
M  V30 1293 C 127.207 0.355339 -1.91735 0
M  V30 1294 O 126.477 1.25188 -1.50681 0
M  V30 1295 H 125.057 -0.405461 -0.627384 0
M  V30 1296 H 127.719 -1.57823 -1.14358 0
M  V30 1297 H 126.815 -1.61465 -2.67087 0
M  V30 1298 N 127.117 1.15442 -1.07289 0
M  V30 1299 C 128.363 1.8672 -0.806679 0
M  V30 1300 C 128.718 1.80723 0.660084 0
M  V30 1301 O 128.011 1.21902 1.47819 0
M  V30 1302 C 128.205 3.3489 -1.24834 0
M  V30 1303 C 128.034 3.55313 -2.7565 0
M  V30 1304 C 126.804 3.7082 -3.4325 0
M  V30 1305 C 129.002 3.53188 -3.73848 0
M  V30 1306 N 126.984 3.7929 -4.82713 0
M  V30 1307 C 128.355 3.67765 -4.99149 0
M  V30 1308 C 130.41 3.36459 -3.67015 0
M  V30 1309 C 129.113 3.6734 -6.18428 0
M  V30 1310 C 131.139 3.37333 -4.85758 0
M  V30 1311 C 130.501 3.52438 -6.09891 0
M  V30 1312 H 126.6 0.700433 -0.347733 0
M  V30 1313 H 129.184 1.38441 -1.36902 0
M  V30 1314 H 127.355 3.81786 -0.713713 0
M  V30 1315 H 129.087 3.93875 -0.929745 0
M  V30 1316 H 125.842 3.71568 -2.93656 0
M  V30 1317 H 126.266 3.8727 -5.55294 0
M  V30 1318 H 130.908 3.237 -2.71989 0
M  V30 1319 H 128.626 3.78878 -7.13777 0
M  V30 1320 H 132.212 3.25617 -4.82146 0
M  V30 1321 H 131.092 3.53047 -7.00234 0
M  V30 1322 N 128.595 0.856903 1.32268 0
M  V30 1323 C 129.542 0.301172 2.28827 0
M  V30 1324 C 130.512 -0.593104 1.5515 0
M  V30 1325 O 131.697 -0.527537 1.83362 0
M  V30 1326 C 128.837 -0.502523 3.41422 0
M  V30 1327 C 127.95 0.417797 4.29975 0
M  V30 1328 C 127.085 -0.398749 5.29701 0
M  V30 1329 C 126.124 0.518827 6.09897 0
M  V30 1330 N 125.261 -0.260674 7.01616 0
M  V30 1331 H 130.101 1.12983 2.75751 0
M  V30 1332 H 127.638 0.568582 1.35667 0
M  V30 1333 H 129.596 -0.984141 4.05426 0
M  V30 1334 H 128.226 -1.29599 2.95642 0
M  V30 1335 H 127.278 1.01781 3.66531 0
M  V30 1336 H 128.59 1.12191 4.86019 0
M  V30 1337 H 127.744 -0.943435 5.9932 0
M  V30 1338 H 126.483 -1.13622 4.7428 0
M  V30 1339 H 125.488 1.07538 5.39181 0
M  V30 1340 H 126.713 1.25495 6.67404 0
M  V30 1341 H 124.659 -0.981198 6.4862 0
M  V30 1342 H 124.576 0.384364 7.55022 0
M  V30 1343 H 125.844 -0.787014 7.75517 0
M  V30 1344 N 130.073 -1.45103 0.615059 0
M  V30 1345 C 131.321 -2.01784 0.112955 0
M  V30 1346 C 131.642 -1.48504 -1.26378 0
M  V30 1347 O 130.912 -0.682245 -1.83636 0
M  V30 1348 H 129.492 -0.745993 0.0387668 0
M  V30 1349 H 132.154 -1.77808 0.798141 0
M  V30 1350 H 131.25 -3.12025 0.0684069 0
M  V30 1351 N 131.551 -0.354651 -1.53558 0
M  V30 1352 C 132.797 0.238797 -2.01389 0
M  V30 1353 C 133.13 1.49309 -1.2418 0
M  V30 1354 O 132.405 1.91638 -0.332457 0
M  V30 1355 C 132.688 0.541771 -3.56001 0
M  V30 1356 C 132.541 -0.725388 -4.43912 0
M  V30 1357 C 133.86 1.34685 -4.18984 0
M  V30 1358 H 130.979 0.0853177 -0.732045 0
M  V30 1359 H 133.621 -0.477384 -1.83905 0
M  V30 1360 H 131.771 1.15189 -3.71031 0
M  V30 1361 H 133.443 -1.36313 -4.407 0
M  V30 1362 H 131.686 -1.34801 -4.12324 0
M  V30 1363 H 132.357 -0.468505 -5.50008 0
M  V30 1364 H 134.833 0.830837 -4.07721 0
M  V30 1365 H 133.709 1.52759 -5.27215 0
M  V30 1366 H 133.97 2.35221 -3.74331 0
M  V30 1367 N 133.029 1.57378 -0.0835403 0
M  V30 1368 C 134.275 1.94217 0.583733 0
M  V30 1369 C 134.608 0.964653 1.68547 0
M  V30 1370 O 133.883 -0.00422258 1.945 0
M  V30 1371 C 134.166 3.41253 1.14972 0
M  V30 1372 C 134.019 4.49768 0.0538277 0
M  V30 1373 C 135.338 3.89352 2.05166 0
M  V30 1374 H 132.457 0.706233 0.210724 0
M  V30 1375 H 135.099 1.89392 -0.1519 0
M  V30 1376 H 133.249 3.45496 1.77665 0
M  V30 1377 H 134.921 4.57641 -0.579851 0
M  V30 1378 H 133.164 4.29432 -0.614068 0
M  V30 1379 H 133.835 5.49817 0.490452 0
M  V30 1380 H 136.311 3.87189 1.52393 0
M  V30 1381 H 135.187 4.92822 2.41698 0
M  V30 1382 H 135.448 3.27973 2.96456 0
M  V30 1383 N 134.507 -0.190092 1.56449 0
M  V30 1384 C 135.417 -1.25591 1.98152 0
M  V30 1385 C 136.433 -1.49519 0.889944 0
M  V30 1386 O 137.609 -1.62036 1.19609 0
M  V30 1387 C 134.674 -2.57916 2.3169 0
M  V30 1388 C 133.735 -2.42015 3.5458 0
M  V30 1389 C 132.968 -3.6803 3.8651 0
M  V30 1390 O 133.191 -4.72413 3.1966 0
M  V30 1391 O 132.125 -3.6326 4.79923 0
M  V30 1392 H 135.951 -0.931988 2.89046 0
M  V30 1393 H 133.536 -0.395488 1.4407 0
M  V30 1394 H 135.418 -3.36008 2.54316 0
M  V30 1395 H 134.093 -2.89925 1.43963 0
M  V30 1396 H 133 -1.62017 3.37196 0
M  V30 1397 H 134.333 -2.14937 4.4279 0
M  V30 1398 N 135.985 -1.50799 -0.457987 0
M  V30 1399 C 136.948 -1.7005 -1.53674 0
M  V30 1400 C 137.948 -0.570881 -1.50325 0
M  V30 1401 O 139.138 -0.838126 -1.52712 0
M  V30 1402 C 136.27 -1.73788 -2.93276 0
M  V30 1403 H 137.463 -2.66306 -1.37917 0
M  V30 1404 H 135.016 -1.40477 -0.685271 0
M  V30 1405 H 135.751 -0.792717 -3.14462 0
M  V30 1406 H 135.536 -2.55864 -2.97113 0
M  V30 1407 H 137.026 -1.90591 -3.71571 0
M  V30 1408 N 137.463 0.71206 -1.40597 0
M  V30 1409 C 138.709 1.47416 -1.39271 0
M  V30 1410 C 139.042 1.942 0.00388791 0
M  V30 1411 O 138.317 1.68403 0.973179 0
M  V30 1412 C 138.6 2.69774 -2.38525 0
M  V30 1413 C 138.453 2.28861 -3.87224 0
M  V30 1414 C 139.772 3.71939 -2.35264 0
M  V30 1415 H 136.891 0.534713 -0.5072 0
M  V30 1416 H 139.533 0.812375 -1.71757 0
M  V30 1417 H 137.683 3.26238 -2.10953 0
M  V30 1418 H 139.355 1.77852 -4.25636 0
M  V30 1419 H 137.598 1.60824 -4.02887 0
M  V30 1420 H 138.269 3.16584 -4.52193 0
M  V30 1421 H 140.745 3.25113 -2.59694 0
M  V30 1422 H 139.621 4.55186 -3.06753 0
M  V30 1423 H 139.882 4.20484 -1.36549 0
M  V30 1424 N 138.941 1.26152 0.944643 0
M  V30 1425 C 139.891 1.04081 2.02857 0
M  V30 1426 C 140.875 -0.0256555 1.6088 0
M  V30 1427 O 142.067 0.190884 1.75968 0
M  V30 1428 C 139.196 0.672118 3.36656 0
M  V30 1429 C 138.282 1.77586 3.85128 0
M  V30 1430 N 138.673 3.01272 4.06287 0
M  V30 1431 C 136.971 1.65867 4.1401 0
M  V30 1432 C 137.672 3.72983 4.46384 0
M  V30 1433 N 136.648 3.00653 4.52889 0
M  V30 1434 H 140.45 1.97968 2.17223 0
M  V30 1435 H 137.964 1.16618 1.13022 0
M  V30 1436 H 139.961 0.495166 4.13949 0
M  V30 1437 H 138.621 -0.259307 3.23663 0
M  V30 1438 H 139.632 3.37213 3.93075 0
M  V30 1439 H 136.309 0.796907 4.09824 0
M  V30 1440 H 137.699 4.792 4.70975 0
M  V30 1441 N 140.419 -1.14872 1.07899 0
M  V30 1442 C 141.382 -2.17986 0.708161 0
M  V30 1443 C 142.382 -1.58775 -0.25442 0
M  V30 1444 O 143.572 -1.74166 -0.034645 0
M  V30 1445 C 140.704 -3.40871 0.0446929 0
M  V30 1446 H 141.897 -2.52306 1.62116 0
M  V30 1447 H 139.45 -1.2943 0.876218 0
M  V30 1448 H 140.185 -3.12124 -0.880281 0
M  V30 1449 H 139.97 -3.8511 0.737091 0
M  V30 1450 H 141.46 -4.17121 -0.19991 0
M  V30 1451 N 141.898 -0.863906 -1.31812 0
M  V30 1452 C 142.845 -0.313303 -2.28664 0
M  V30 1453 C 143.815 0.584868 -1.55462 0
M  V30 1454 O 145 0.517805 -1.83639 0
M  V30 1455 C 142.14 0.48441 -3.41683 0
M  V30 1456 C 141.253 -0.440594 -4.29747 0
M  V30 1457 C 140.388 0.370652 -5.29905 0
M  V30 1458 C 139.427 -0.551164 -6.09613 0
M  V30 1459 N 138.564 0.223462 -7.01744 0
M  V30 1460 H 143.404 -1.14444 -2.75148 0
M  V30 1461 H 140.941 -0.575769 -1.35364 0
M  V30 1462 H 142.899 0.962627 -4.05943 0
M  V30 1463 H 141.529 1.28029 -2.96325 0
M  V30 1464 H 140.581 -1.03724 -3.65986 0
M  V30 1465 H 141.893 -1.14767 -4.85417 0
M  V30 1466 H 141.047 0.911638 -5.99812 0
M  V30 1467 H 139.786 1.11105 -4.74876 0
M  V30 1468 H 138.791 -1.10396 -5.38603 0
M  V30 1469 H 140.016 -1.29032 -6.66729 0
M  V30 1470 H 137.962 0.946787 -6.49132 0
M  V30 1471 H 137.879 -0.424399 -7.54808 0
M  V30 1472 H 139.147 0.745876 -7.75923 0
M  V30 1473 N 143.376 1.44774 -0.622745 0
M  V30 1474 C 144.624 2.01721 -0.123655 0
M  V30 1475 C 144.945 1.49172 1.25589 0
M  V30 1476 O 144.215 0.691974 1.83272 0
M  V30 1477 H 142.795 0.745777 -0.0427225 0
M  V30 1478 H 145.457 1.77382 -0.807559 0
M  V30 1479 H 144.553 3.11984 -0.0849534 0
M  V30 1480 N 144.854 0.36279 1.53368 0
M  V30 1481 C 146.102 -0.227326 2.00817 0
M  V30 1482 C 146.423 -1.49511 1.25186 0
M  V30 1483 O 145.693 -1.92482 0.364348 0
M  V30 1484 H 144.273 -0.0869923 0.741917 0
M  V30 1485 H 146.935 0.488381 1.88682 0
M  V30 1486 H 146.031 -0.456273 3.08747 0
M  V30 1487 N 146.332 -1.57332 0.0918853 0
M  V30 1488 C 147.748 -1.57389 -0.264766 0
M  V30 1489 C 147.948 -1.10281 -1.68643 0
M  V30 1490 O 147.004 -0.777801 -2.40222 0
M  V30 1491 C 148.317 -3.00648 -0.0561195 0
M  V30 1492 C 149.865 -3.12754 -0.124116 0
M  V30 1493 C 150.34 -4.57965 0.0564972 0
M  V30 1494 N 151.831 -4.632 0.00155611 0
M  V30 1495 C 152.566 -5.73281 0.116598 0
M  V30 1496 N 152.062 -6.92208 0.286294 0
M  V30 1497 N 153.855 -5.6207 0.0580973 0
M  V30 1498 H 146.006 -1.86262 1.02079 0
M  V30 1499 H 148.269 -0.859579 0.399786 0
M  V30 1500 H 147.975 -3.393 0.925669 0
M  V30 1501 H 147.849 -3.68623 -0.799823 0
M  V30 1502 H 150.236 -2.73976 -1.09641 0
M  V30 1503 H 150.317 -2.47377 0.651024 0
M  V30 1504 H 149.961 -4.97436 1.02564 0
M  V30 1505 H 149.891 -5.21399 -0.738297 0
M  V30 1506 H 152.382 -3.77686 -0.127192 0
M  V30 1507 H 152.695 -7.71934 0.365676 0
M  V30 1508 H 151.04 -6.94254 0.32192 0
M  V30 1509 H 154.231 -4.68043 -0.0733204 0
M  V30 1510 H 154.404 -6.47824 0.151203 0
M  V30 1511 N 147.81 0.181792 -1.56548 0
M  V30 1512 C 149.059 0.898348 -1.8059 0
M  V30 1513 C 149.372 1.83862 -0.667379 0
M  V30 1514 O 150.578 2.59678 -0.792446 0
M  V30 1515 C 149.034 1.64791 -3.19956 0
M  V30 1516 C 148.642 0.751789 -4.41647 0
M  V30 1517 C 150.386 2.35331 -3.53298 0
M  V30 1518 C 148.293 1.50098 -5.72035 0
M  V30 1519 H 147.223 0.339194 -0.673397 0
M  V30 1520 H 149.874 0.151413 -1.82874 0
M  V30 1521 H 148.256 2.43921 -3.11959 0
M  V30 1522 H 149.43 -0.0018076 -4.608 0
M  V30 1523 H 147.745 0.156562 -4.16106 0
M  V30 1524 H 150.342 2.91958 -4.47956 0
M  V30 1525 H 150.685 3.10164 -2.77676 0
M  V30 1526 H 151.218 1.63154 -3.62803 0
M  V30 1527 H 147.957 0.795175 -6.50659 0
M  V30 1528 H 147.477 2.22817 -5.56878 0
M  V30 1529 H 149.156 2.05125 -6.13622 0
M  V30 1530 N 149.288 1.51039 0.449983 0
M  V30 1531 C 150.251 1.70863 1.5277 0
M  V30 1532 C 151.251 0.578846 1.5002 0
M  V30 1533 O 152.441 0.846213 1.52266 0
M  V30 1534 C 149.573 1.75341 2.9235 0
M  V30 1535 H 150.766 2.67034 1.36502 0
M  V30 1536 H 148.319 1.40838 0.677812 0
M  V30 1537 H 149.054 0.809383 3.14037 0
M  V30 1538 H 148.839 2.57436 2.95752 0
M  V30 1539 H 150.329 1.92559 3.70555 0
M  V30 1540 N 150.766 -0.704594 1.40972 0
M  V30 1541 C 151.696 -1.83124 1.44872 0
M  V30 1542 C 152.677 -1.67281 0.30838 0
M  V30 1543 O 153.862 -1.87149 0.518556 0
M  V30 1544 C 150.992 -3.21181 1.32136 0
M  V30 1545 C 149.946 -3.51714 2.43888 0
M  V30 1546 C 149.272 -4.89032 2.16222 0
M  V30 1547 C 150.572 -3.516 3.86232 0
M  V30 1548 H 152.266 -1.80117 2.39161 0
M  V30 1549 H 149.812 -0.865145 1.15114 0
M  V30 1550 H 151.765 -3.99702 1.33479 0
M  V30 1551 H 150.489 -3.24791 0.343279 0
M  V30 1552 H 149.148 -2.75539 2.41813 0
M  V30 1553 H 148.796 -4.89256 1.16778 0
M  V30 1554 H 148.496 -5.10426 2.911 0
M  V30 1555 H 150.02 -5.69873 2.19265 0
M  V30 1556 H 151.434 -4.2014 3.9007 0
M  V30 1557 H 149.831 -3.84523 4.60719 0
M  V30 1558 H 150.901 -2.50757 4.15029 0
M  V30 1559 N 152.244 -1.26651 -0.937939 0
M  V30 1560 C 153.176 -1.04283 -2.04102 0
M  V30 1561 C 154.189 -0.00221014 -1.628 0
M  V30 1562 O 155.378 -0.242645 -1.76843 0
M  V30 1563 C 152.478 -0.557846 -3.34277 0
M  V30 1564 C 151.651 -1.66843 -4.04329 0
M  V30 1565 C 150.71 -1.18095 -5.12777 0
M  V30 1566 O 149.736 -1.87865 -5.37304 0
M  V30 1567 N 150.938 -0.0311006 -5.80492 0
M  V30 1568 H 153.703 -1.9927 -2.23856 0
M  V30 1569 H 151.264 -1.1808 -1.10764 0
M  V30 1570 H 153.256 -0.215836 -4.04124 0
M  V30 1571 H 151.826 0.298523 -3.11171 0
M  V30 1572 H 151.046 -2.18123 -3.28353 0
M  V30 1573 H 152.334 -2.41408 -4.47883 0
M  V30 1574 H 151.732 0.551486 -5.63005 0
M  V30 1575 H 150.289 0.251809 -6.51313 0
M  V30 1576 N 153.722 1.14298 -1.08507 0
M  V30 1577 C 154.652 2.21542 -0.737646 0
M  V30 1578 C 155.633 1.67773 0.280377 0
M  V30 1579 O 156.818 1.93616 0.150521 0
M  V30 1580 C 153.948 3.46988 -0.147259 0
M  V30 1581 C 152.902 4.13789 -1.09374 0
M  V30 1582 C 152.228 5.33449 -0.365524 0
M  V30 1583 C 153.528 4.62208 -2.4323 0
M  V30 1584 H 155.222 2.5086 -1.6343 0
M  V30 1585 H 152.768 1.20576 -0.787243 0
M  V30 1586 H 154.721 4.21262 0.107808 0
M  V30 1587 H 153.445 3.17037 0.784538 0
M  V30 1588 H 152.104 3.4147 -1.33393 0
M  V30 1589 H 151.752 4.99759 0.57011 0
M  V30 1590 H 151.452 5.79088 -0.996512 0
M  V30 1591 H 152.976 6.10485 -0.118534 0
M  V30 1592 H 154.39 5.27952 -2.23472 0
M  V30 1593 H 152.787 5.18553 -3.02031 0
M  V30 1594 H 153.857 3.77224 -3.04681 0
M  V30 1595 N 155.201 0.870884 1.31352 0
M  V30 1596 C 156.447 0.492314 1.97352 0
M  V30 1597 C 156.802 -0.945174 1.67583 0
M  V30 1598 O 156.095 -1.65674 0.962423 0
M  V30 1599 C 156.289 0.687157 3.50732 0
M  V30 1600 C 156.118 2.14203 3.95407 0
M  V30 1601 C 154.888 2.78382 4.21701 0
M  V30 1602 C 157.086 3.1144 4.09279 0
M  V30 1603 N 155.068 4.14611 4.52737 0
M  V30 1604 C 156.439 4.32702 4.44037 0
M  V30 1605 C 158.494 3.07418 3.91661 0
M  V30 1606 C 157.197 5.50463 4.63015 0
M  V30 1607 C 159.223 4.24438 4.11833 0
M  V30 1608 C 158.585 5.44463 4.46923 0
M  V30 1609 H 154.684 0.229206 0.747655 0
M  V30 1610 H 157.268 1.12568 1.5886 0
M  V30 1611 H 155.439 0.083384 3.8831 0
M  V30 1612 H 157.171 0.276883 4.03752 0
M  V30 1613 H 153.926 2.29326 4.14375 0
M  V30 1614 H 154.35 4.84928 4.72413 0
M  V30 1615 H 158.992 2.15732 3.6362 0
M  V30 1616 H 156.71 6.42666 4.89904 0
M  V30 1617 H 160.296 4.2278 3.99685 0
M  V30 1618 H 159.176 6.33504 4.62214 0
M  V30 1619 N 156.679 -1.44442 0.630414 0
M  V30 1620 C 157.629 -2.27794 -0.0968103 0
M  V30 1621 C 158.613 -1.38624 -0.816834 0
M  V30 1622 O 159.805 -1.62438 -0.70306 0
M  V30 1623 C 156.934 -3.25929 -1.07819 0
M  V30 1624 C 156.02 -4.22588 -0.357826 0
M  V30 1625 N 156.411 -5.0207 0.613169 0
M  V30 1626 C 154.709 -4.41914 -0.602365 0
M  V30 1627 C 155.41 -5.72351 1.03871 0
M  V30 1628 N 154.386 -5.42287 0.377642 0
M  V30 1629 H 158.188 -2.86653 0.648621 0
M  V30 1630 H 155.702 -1.55871 0.455862 0
M  V30 1631 H 157.699 -3.84399 -1.61378 0
M  V30 1632 H 156.359 -2.68631 -1.82393 0
M  V30 1633 H 157.37 -5.08331 0.990947 0
M  V30 1634 H 154.047 -3.95714 -1.33103 0
M  V30 1635 H 155.437 -6.4619 1.84086 0
M  V30 1636 N 158.157 -0.370918 -1.53173 0
M  V30 1637 C 159.403 0.217423 -2.01631 0
M  V30 1638 C 159.736 1.47983 -1.25756 0
M  V30 1639 O 159.011 1.91274 -0.352764 0
M  V30 1640 C 159.294 0.503982 -3.56556 0
M  V30 1641 C 159.147 -0.77243 -4.43118 0
M  V30 1642 C 160.466 1.30234 -4.20389 0
M  V30 1643 H 157.585 0.0775486 -0.732909 0
M  V30 1644 H 160.227 -0.496863 -1.83388 0
M  V30 1645 H 158.377 1.11248 -3.72231 0
M  V30 1646 H 160.049 -1.4098 -4.39229 0
M  V30 1647 H 158.292 -1.39167 -4.10871 0
M  V30 1648 H 158.963 -0.526815 -5.4948 0
M  V30 1649 H 161.439 0.787546 -4.08579 0
M  V30 1650 H 160.315 1.47158 -5.28806 0
M  V30 1651 H 160.576 2.31237 -3.76805 0
M  V30 1652 N 159.635 1.57281 -0.100228 0
M  V30 1653 C 160.883 1.94153 0.561157 0
M  V30 1654 C 161.204 0.983157 1.68401 0
M  V30 1655 O 160.474 0.0361132 1.95867 0
M  V30 1656 H 159.054 0.716791 0.210283 0
M  V30 1657 H 161.716 1.94202 -0.164765 0
M  V30 1658 H 160.812 2.96709 0.968008 0
M  V30 1659 N 161.113 -0.173488 1.56642 0
M  V30 1660 C 162.529 -0.525174 1.50712 0
M  V30 1661 C 162.729 -1.8476 0.804107 0
M  V30 1662 O 161.785 -2.49869 0.363574 0
M  V30 1663 C 163.098 -0.559937 2.95441 0
M  V30 1664 C 164.646 -0.647288 3.06234 0
M  V30 1665 C 165.121 -0.712963 4.52417 0
M  V30 1666 N 166.612 -0.775911 4.56655 0
M  V30 1667 C 167.347 -0.847264 5.67106 0
M  V30 1668 N 166.843 -0.879585 6.87194 0
M  V30 1669 N 168.636 -0.886117 5.55071 0
M  V30 1670 H 160.787 0.693681 2.00753 0
M  V30 1671 H 163.05 0.249841 0.914485 0
M  V30 1672 H 162.756 0.343049 3.50023 0
M  V30 1673 H 162.63 -1.40718 3.49969 0
M  V30 1674 H 165.017 -1.5407 2.51687 0
M  V30 1675 H 165.098 0.226586 2.54794 0
M  V30 1676 H 164.742 0.176183 5.07594 0
M  V30 1677 H 164.672 -1.60295 5.0161 0
M  V30 1678 H 167.163 -0.759304 3.70193 0
M  V30 1679 H 167.476 -0.935144 7.67121 0
M  V30 1680 H 165.821 -0.847898 6.89808 0
M  V30 1681 H 169.012 -0.857853 4.60172 0
M  V30 1682 H 169.185 -0.938263 6.41171 0
M  V30 1683 N 162.591 -1.51276 -0.441967 0
M  V30 1684 C 163.837 -1.63958 -1.19355 0
M  V30 1685 C 164.17 -0.352543 -1.90973 0
M  V30 1686 O 163.445 0.647627 -1.83401 0
M  V30 1687 C 163.728 -2.83979 -2.21422 0
M  V30 1688 C 163.581 -4.22646 -1.53918 0
M  V30 1689 C 164.9 -2.99521 -3.22451 0
M  V30 1690 H 162.019 -0.596709 -0.432559 0
M  V30 1691 H 164.661 -1.83748 -0.483398 0
M  V30 1692 H 162.811 -2.67237 -2.81987 0
M  V30 1693 H 164.483 -4.51045 -0.967256 0
M  V30 1694 H 162.726 -4.25558 -0.841615 0
M  V30 1695 H 163.397 -5.02609 -2.28229 0
M  V30 1696 H 165.873 -3.14944 -2.71937 0
M  V30 1697 H 164.749 -3.85072 -3.91166 0
M  V30 1698 H 165.01 -2.11391 -3.88287 0
M  V30 1699 N 164.069 0.697108 -1.41344 0
M  V30 1700 C 165.294 1.49096 -1.44171 0
M  V30 1701 C 165.719 1.88038 -0.0481568 0
M  V30 1702 O 165.077 1.54525 0.948243 0
M  V30 1703 C 165.125 2.73088 -2.3549 0
M  V30 1704 O 164.229 3.70514 -1.81088 0
M  V30 1705 H 163.57 0.448801 -0.489361 0
M  V30 1706 H 166.1 0.856992 -1.85787 0
M  V30 1707 H 166.11 3.21413 -2.51312 0
M  V30 1708 H 164.785 2.44081 -3.36745 0
M  V30 1709 H 163.362 3.29441 -1.74708 0
M  V30 1710 N 165.547 1.27147 0.931209 0
M  V30 1711 C 166.497 1.06227 2.01742 0
M  V30 1712 C 167.481 -0.00859065 1.60898 0
M  V30 1713 O 168.673 0.209537 1.75755 0
M  V30 1714 C 165.802 0.707787 3.35924 0
M  V30 1715 C 164.888 1.81661 3.83223 0
M  V30 1716 N 165.279 3.05564 4.03069 0
M  V30 1717 C 163.577 1.70249 4.12227 0
M  V30 1718 C 164.278 3.77697 4.42403 0
M  V30 1719 N 163.254 3.0544 4.49675 0
M  V30 1720 H 167.056 2.00261 2.15111 0
M  V30 1721 H 164.57 1.1781 1.11779 0
M  V30 1722 H 166.567 0.539043 4.134 0
M  V30 1723 H 165.227 -0.224964 3.2392 0
M  V30 1724 H 166.238 3.41363 3.89476 0
M  V30 1725 H 162.915 0.840329 4.08956 0
M  V30 1726 H 164.305 4.84168 4.65866 0
M  V30 1727 N 167.025 -1.13721 1.09112 0
M  V30 1728 C 167.935 -2.22638 0.73957 0
M  V30 1729 C 168.951 -1.72091 -0.257068 0
M  V30 1730 O 170.127 -2.01155 -0.0992154 0
M  V30 1731 C 167.192 -3.46322 0.16191 0
M  V30 1732 C 166.253 -4.11775 1.21408 0
M  V30 1733 C 165.486 -5.29555 0.663891 0
M  V30 1734 O 165.709 -5.68077 -0.514274 0
M  V30 1735 O 164.643 -5.84973 1.41738 0
M  V30 1736 H 168.469 -2.55074 1.64836 0
M  V30 1737 H 166.054 -1.21791 0.865289 0
M  V30 1738 H 167.936 -4.21107 -0.157073 0
M  V30 1739 H 166.611 -3.15593 -0.719932 0
M  V30 1740 H 165.518 -3.3883 1.58571 0
M  V30 1741 H 166.851 -4.46627 2.06845 0
M  V30 1742 N 168.503 -0.877838 -1.30888 0
M  V30 1743 C 169.433 -0.35534 -2.3078 0
M  V30 1744 C 170.414 0.557994 -1.60687 0
M  V30 1745 O 171.599 0.473355 -1.88343 0
M  V30 1746 C 168.729 0.437221 -3.44537 0
M  V30 1747 C 167.683 -0.383715 -4.26276 0
M  V30 1748 C 167.009 0.535014 -5.32017 0
M  V30 1749 C 168.309 -1.62201 -4.96476 0
M  V30 1750 H 170.003 -1.19007 -2.74732 0
M  V30 1751 H 167.549 -0.573698 -1.32078 0
M  V30 1752 H 169.502 0.813334 -4.13477 0
M  V30 1753 H 168.226 1.30553 -2.99372 0
M  V30 1754 H 166.885 -0.741874 -3.59015 0
M  V30 1755 H 166.533 1.40083 -4.831 0
M  V30 1756 H 166.233 -0.0104211 -5.87599 0
M  V30 1757 H 167.757 0.907799 -6.03814 0
M  V30 1758 H 169.171 -1.31689 -5.5797 0
M  V30 1759 H 167.568 -2.10711 -5.61891 0
M  V30 1760 H 168.638 -2.37044 -4.23011 0
M  V30 1761 N 169.982 1.44106 -0.638065 0
M  V30 1762 C 171.228 2.02277 -0.145546 0
M  V30 1763 C 171.561 1.50125 1.23191 0
M  V30 1764 O 170.836 0.688133 1.8192 0
M  V30 1765 C 171.119 3.59829 -0.139791 0
M  V30 1766 C 170.972 4.22247 -1.55008 0
M  V30 1767 C 172.291 4.36873 0.531966 0
M  V30 1768 H 169.41 0.734992 -0.0543632 0
M  V30 1769 H 172.052 1.71592 -0.815863 0
M  V30 1770 H 170.202 3.86102 0.431007 0
M  V30 1771 H 171.874 4.07057 -2.1703 0
M  V30 1772 H 170.117 3.79476 -2.10191 0
M  V30 1773 H 170.788 5.31284 -1.49804 0
M  V30 1774 H 173.264 4.16074 0.0464781 0
M  V30 1775 H 172.14 5.4657 0.505206 0
M  V30 1776 H 172.401 4.11995 1.60352 0
M  V30 1777 N 171.46 0.379036 1.52974 0
M  V30 1778 C 172.392 -0.495963 2.2377 0
M  V30 1779 C 173.405 -1.03517 1.25651 0
M  V30 1780 O 174.594 -0.939249 1.51791 0
M  V30 1781 C 171.694 -1.69894 2.93239 0
M  V30 1782 C 170.867 -1.2889 4.17979 0
M  V30 1783 C 169.926 -2.35543 4.70538 0
M  V30 1784 O 168.952 -1.97375 5.33883 0
M  V30 1785 N 170.154 -3.67318 4.49508 0
M  V30 1786 H 172.919 0.110523 2.99496 0
M  V30 1787 H 170.48 0.204878 1.60598 0
M  V30 1788 H 172.472 -2.40747 3.25304 0
M  V30 1789 H 171.042 -2.212 2.20883 0
M  V30 1790 H 170.262 -0.409676 3.92065 0
M  V30 1791 H 171.55 -0.991443 4.99047 0
M  V30 1792 H 170.948 -4.01095 3.98923 0
M  V30 1793 H 169.505 -4.34235 4.8609 0
M  V30 1794 N 172.938 -1.57226 0.108567 0
M  V30 1795 C 174.349 -1.8195 -0.418464 0
M  V30 1796 C 174.7 -1.02508 -1.67292 0
M  V30 1797 O 173.825 -0.258496 -2.14851 0
M  V30 1798 C 174.42 -3.30028 -0.765979 0
M  V30 1799 C 172.979 -3.55469 -1.23769 0
M  V30 1800 C 172.126 -2.7625 -0.241106 0
M  V30 1801 H 175.077 -1.55149 0.33384 0
M  V30 1802 H 175.098 -3.44086 -1.62434 0
M  V30 1803 H 174.61 -3.87821 0.147219 0
M  V30 1804 H 172.711 -3.03022 -2.16814 0
M  V30 1805 H 172.824 -4.6408 -1.19022 0
M  V30 1806 H 171.188 -2.44133 -0.72602 0
M  V30 1807 H 171.971 -3.36797 0.665007 0
M  V30 1808 N 174.416 0.165178 -1.56732 0
M  V30 1809 C 175.693 0.908443 -1.73224 0
M  V30 1810 C 176.073 2.0013 -0.67165 0
M  V30 1811 O 175.421 2.26353 0.31253 0
M  V30 1812 C 175.631 1.46756 -3.16644 0
M  V30 1813 C 176.979 1.93809 -3.77787 0
M  V30 1814 O 178.003 1.56537 -3.1996 0
M  V30 1815 O 176.862 2.62486 -4.79336 0
M  V30 1816 H 173.956 0.428025 -0.707618 0
M  V30 1817 H 176.502 0.152526 -1.69013 0
M  V30 1818 H 175.274 0.68129 -3.85323 0
M  V30 1819 H 174.897 2.28749 -3.25207 0
M  V30 1820 N 175.894 1.51508 0.433938 0
M  V30 1821 C 177.142 1.6402 1.18075 0
M  V30 1822 C 177.463 0.360328 1.91642 0
M  V30 1823 O 176.733 -0.623945 1.85698 0
M  V30 1824 H 175.313 0.6045 0.43885 0
M  V30 1825 H 177.975 1.88452 0.497178 0
M  V30 1826 H 177.071 2.46949 1.90847 0
M  V30 1827 N 177.372 -0.689602 1.41712 0
M  V30 1828 C 178.304 -1.815 1.39966 0
M  V30 1829 C 179.317 -1.59995 0.300917 0
M  V30 1830 O 180.506 -1.69387 0.563039 0
M  V30 1831 C 177.606 -3.18364 1.16179 0
M  V30 1832 C 176.779 -3.66847 2.38206 0
M  V30 1833 C 175.838 -4.82398 2.10186 0
M  V30 1834 O 174.864 -4.93706 2.83272 0
M  V30 1835 N 176.066 -5.70064 1.0958 0
M  V30 1836 H 178.831 -1.83488 2.36965 0
M  V30 1837 H 176.392 -0.872149 1.36401 0
M  V30 1838 H 178.384 -3.93301 0.953756 0
M  V30 1839 H 176.954 -3.11365 0.27756 0
M  V30 1840 H 176.174 -2.82751 2.74673 0
M  V30 1841 H 177.462 -3.95978 3.19498 0
M  V30 1842 H 176.86 -5.63565 0.491019 0
M  V30 1843 H 175.417 -6.44874 0.947656 0
M  V30 1844 N 178.85 -1.27639 -0.924453 0
M  V30 1845 C 179.782 -1.06442 -2.02985 0
M  V30 1846 C 180.795 -0.0194771 -1.62788 0
M  V30 1847 O 181.984 -0.261388 -1.76576 0
M  V30 1848 C 179.084 -0.59327 -3.33667 0
M  V30 1849 C 178.257 -1.71123 -4.02537 0
M  V30 1850 C 177.316 -1.23527 -5.11495 0
M  V30 1851 O 176.342 -1.93553 -5.35281 0
M  V30 1852 N 177.544 -0.0926678 -5.80426 0
M  V30 1853 H 180.309 -2.01633 -2.2173 0
M  V30 1854 H 177.87 -1.19248 -1.09505 0
M  V30 1855 H 179.862 -0.258686 -4.03872 0
M  V30 1856 H 178.432 0.265502 -3.1147 0
M  V30 1857 H 177.652 -2.21593 -3.26022 0
M  V30 1858 H 178.94 -2.46145 -4.45298 0
M  V30 1859 H 178.338 0.491741 -5.63559 0
M  V30 1860 H 176.895 0.182714 -6.51544 0
M  V30 1861 N 180.328 1.1314 -1.09713 0
M  V30 1862 C 181.739 1.66029 -0.853885 0
M  V30 1863 C 182.09 1.86241 0.617142 0
M  V30 1864 O 181.215 1.5834 1.47503 0
M  V30 1865 C 181.81 3.01599 -1.5435 0
M  V30 1866 C 180.369 3.51467 -1.34714 0
M  V30 1867 C 179.516 2.26648 -1.59769 0
M  V30 1868 H 182.467 0.970226 -1.25588 0
M  V30 1869 H 182.488 3.67709 -0.978267 0
M  V30 1870 H 182 2.86856 -2.6141 0
M  V30 1871 H 180.101 3.71408 -0.297838 0
M  V30 1872 H 180.214 4.314 -2.08401 0
M  V30 1873 H 178.578 2.33385 -1.01998 0
M  V30 1874 H 179.361 2.14467 -2.68065 0
M  V30 1875 N 181.806 0.884767 1.30421 0
M  V30 1876 C 183.052 0.503851 1.96441 0
M  V30 1877 C 183.385 -0.944518 1.69684 0
M  V30 1878 O 182.66 -1.66737 1.00145 0
M  V30 1879 C 182.943 0.779085 3.51571 0
M  V30 1880 C 182.796 2.27807 3.87846 0
M  V30 1881 C 184.115 0.255452 4.39358 0
M  V30 1882 H 181.234 0.184533 0.713524 0
M  V30 1883 H 183.876 1.10872 1.54297 0
M  V30 1884 H 182.026 0.264274 3.876 0
M  V30 1885 H 183.698 2.86127 3.61841 0
M  V30 1886 H 181.941 2.74479 3.35922 0
M  V30 1887 H 182.612 2.42125 4.96064 0
M  V30 1888 H 185.088 0.696079 4.10236 0
M  V30 1889 H 183.964 0.477361 5.4682 0
M  V30 1890 H 184.225 -0.843293 4.33983 0
M  V30 1891 N 183.284 -1.43765 0.645699 0
M  V30 1892 C 184.247 -2.29163 -0.0409488 0
M  V30 1893 C 185.247 -1.41813 -0.757996 0
M  V30 1894 O 186.437 -1.63527 -0.600382 0
M  V30 1895 C 183.569 -3.23716 -1.06869 0
M  V30 1896 H 184.762 -2.91366 0.710345 0
M  V30 1897 H 182.315 -1.5092 0.406547 0
M  V30 1898 H 183.05 -2.66393 -1.84947 0
M  V30 1899 H 182.835 -3.88105 -0.558277 0
M  V30 1900 H 184.325 -3.87831 -1.54845 0
M  V30 1901 N 184.763 -0.387143 -1.52771 0
M  V30 1902 C 186.174 0.0873634 -1.86495 0
M  V30 1903 C 186.525 1.46336 -1.30691 0
M  V30 1904 O 185.65 2.068 -0.637409 0
M  V30 1905 C 186.245 0.165305 -3.38396 0
M  V30 1906 C 184.804 0.584101 -3.7184 0
M  V30 1907 C 183.951 -0.255279 -2.76122 0
M  V30 1908 H 186.902 -0.605104 -1.46711 0
M  V30 1909 H 186.923 0.984848 -3.67534 0
M  V30 1910 H 186.435 -0.836301 -3.78982 0
M  V30 1911 H 184.536 1.59315 -3.36823 0
M  V30 1912 H 184.649 0.343749 -4.77865 0
M  V30 1913 H 183.013 0.279126 -2.53166 0
M  V30 1914 H 183.796 -1.25482 -3.19545 0
M  V30 1915 N 186.241 1.57166 -0.116904 0
M  V30 1916 C 187.466 1.999 0.55271 0
M  V30 1917 C 187.891 0.996039 1.59564 0
M  V30 1918 O 187.249 -0.032556 1.81271 0
M  V30 1919 C 187.297 3.4152 1.15742 0
M  V30 1920 O 186.401 3.44106 2.27299 0
M  V30 1921 H 185.742 0.649447 0.138258 0
M  V30 1922 H 188.272 2.03573 -0.204759 0
M  V30 1923 H 188.282 3.79684 1.49346 0
M  V30 1924 H 186.957 4.14034 0.393493 0
M  V30 1925 H 185.534 3.17759 1.9515 0
M  V30 1926 N 187.719 -0.156864 1.56817 0
M  V30 1927 C 188.682 -1.17781 1.96622 0
M  V30 1928 C 189.682 -1.36401 0.851555 0
M  V30 1929 O 190.872 -1.33561 1.11836 0
M  V30 1930 C 188.004 -2.54008 2.27361 0
M  V30 1931 H 189.197 -0.836564 2.87996 0
M  V30 1932 H 186.75 -0.39985 1.51099 0
M  V30 1933 H 187.485 -2.9312 1.38748 0
M  V30 1934 H 187.27 -2.41856 3.08623 0
M  V30 1935 H 188.76 -3.27558 2.59029 0
M  V30 1936 N 189.197 -1.51736 -0.425897 0
M  V30 1937 C 190.127 -1.76827 -1.52494 0
M  V30 1938 C 191.108 -0.618524 -1.58456 0
M  V30 1939 O 192.293 -0.862416 -1.74 0
M  V30 1940 C 189.423 -1.90374 -2.90474 0
M  V30 1941 C 188.377 -3.0588 -2.99369 0
M  V30 1942 C 187.703 -3.04625 -4.3944 0
M  V30 1943 C 189.003 -4.45644 -2.72394 0
M  V30 1944 H 190.697 -2.68855 -1.31748 0
M  V30 1945 H 188.243 -1.29372 -0.632362 0
M  V30 1946 H 190.196 -2.0651 -3.6733 0
M  V30 1947 H 188.92 -0.95004 -3.12477 0
M  V30 1948 H 187.579 -2.89467 -2.24954 0
M  V30 1949 H 187.227 -2.0701 -4.58428 0
M  V30 1950 H 186.927 -3.82195 -4.46319 0
M  V30 1951 H 188.451 -3.22869 -5.18255 0
M  V30 1952 H 189.865 -4.62348 -3.38979 0
M  V30 1953 H 188.262 -5.25006 -2.9067 0
M  V30 1954 H 189.332 -4.54893 -1.67929 0
M  V30 1955 N 190.675 0.682077 -1.42076 0
M  V30 1956 C 191.622 1.79578 -1.44984 0
M  V30 1957 C 192.592 1.6332 -0.302614 0
M  V30 1958 O 193.777 1.83978 -0.505633 0
M  V30 1959 C 190.917 3.1756 -1.35091 0
M  V30 1960 C 190.03 3.45156 -2.59791 0
M  V30 1961 C 189.165 4.72826 -2.42093 0
M  V30 1962 C 188.204 4.93433 -3.62202 0
M  V30 1963 N 187.341 6.12338 -3.43491 0
M  V30 1964 H 192.181 1.76427 -2.40161 0
M  V30 1965 H 189.718 0.861376 -1.19242 0
M  V30 1966 H 191.676 3.97287 -1.27354 0
M  V30 1967 H 190.306 3.19854 -0.435133 0
M  V30 1968 H 189.358 2.59736 -2.77923 0
M  V30 1969 H 190.67 3.5628 -3.49094 0
M  V30 1970 H 189.824 5.60631 -2.319 0
M  V30 1971 H 188.563 4.63973 -1.50268 0
M  V30 1972 H 187.568 4.04073 -3.72834 0
M  V30 1973 H 188.793 5.04136 -4.54998 0
M  V30 1974 H 186.739 6.04672 -2.54377 0
M  V30 1975 H 186.656 6.2429 -4.26377 0
M  V30 1976 H 187.924 7.02841 -3.37097 0
M  V30 1977 N 192.153 1.28127 0.917671 0
M  V30 1978 C 193.116 1.11744 2.00115 0
M  V30 1979 C 194.116 0.0583052 1.60694 0
M  V30 1980 O 195.306 0.303755 1.71531 0
M  V30 1981 C 192.438 0.704862 3.33533 0
M  V30 1982 H 193.631 2.07966 2.16079 0
M  V30 1983 H 191.184 1.11058 1.09981 0
M  V30 1984 H 191.919 -0.258299 3.2327 0
M  V30 1985 H 191.704 1.4699 3.63505 0
M  V30 1986 H 193.194 0.612768 4.1308 0
M  V30 1987 N 193.631 -1.12557 1.10312 0
M  V30 1988 C 194.541 -2.21841 0.763142 0
M  V30 1989 C 195.557 -1.72354 -0.238801 0
M  V30 1990 O 196.733 -2.01249 -0.0778746 0
M  V30 1991 C 193.798 -3.46131 0.198632 0
M  V30 1992 C 192.859 -4.10464 1.25769 0
M  V30 1993 C 192.092 -5.28821 0.72002 0
M  V30 1994 O 192.315 -5.6859 -0.453993 0
M  V30 1995 O 191.249 -5.83437 1.47935 0
M  V30 1996 H 195.075 -2.53312 1.67532 0
M  V30 1997 H 192.66 -1.20867 0.878157 0
M  V30 1998 H 194.542 -4.2125 -0.112401 0
M  V30 1999 H 193.217 -3.16338 -0.686419 0
M  V30 2000 H 192.124 -3.3713 1.62156 0
M  V30 2001 H 193.457 -4.44408 2.11571 0
M  V30 2002 N 195.109 -0.891671 -1.2995 0
M  V30 2003 C 196.357 -0.512486 -1.95494 0
M  V30 2004 C 196.678 0.942776 -1.70695 0
M  V30 2005 O 195.948 1.66374 -1.03424 0
M  V30 2006 H 194.528 -0.186533 -0.723336 0
M  V30 2007 H 197.19 -1.13621 -1.58355 0
M  V30 2008 H 196.286 -0.688342 -3.04415 0
M  V30 2009 N 196.587 1.43421 -0.653314 0
M  V30 2010 C 197.55 2.29182 0.0287951 0
M  V30 2011 C 198.55 1.42213 0.750465 0
M  V30 2012 O 199.74 1.63843 0.591701 0
M  V30 2013 C 196.872 3.24278 1.05151 0
M  V30 2014 H 198.065 2.90985 -0.725786 0
M  V30 2015 H 195.618 1.50702 -0.414545 0
M  V30 2016 H 196.353 2.6737 1.83532 0
M  V30 2017 H 196.138 3.88396 0.537687 0
M  V30 2018 H 197.628 3.88647 1.52786 0
M  V30 2019 N 198.065 0.39524 1.52563 0
M  V30 2020 C 198.975 -0.444232 2.30356 0
M  V30 2021 C 199.991 -1.06615 1.37511 0
M  V30 2022 O 201.167 -1.07067 1.70583 0
M  V30 2023 C 198.232 -1.55315 3.09964 0
M  V30 2024 C 197.293 -0.955734 4.18526 0
M  V30 2025 C 196.526 -2.01181 4.9433 0
M  V30 2026 O 196.749 -3.22781 4.70285 0
M  V30 2027 O 195.683 -1.62579 5.79527 0
M  V30 2028 H 199.509 0.189667 3.03107 0
M  V30 2029 H 197.094 0.1588 1.48554 0
M  V30 2030 H 198.976 -2.19724 3.59582 0
M  V30 2031 H 197.651 -2.17191 2.4002 0
M  V30 2032 H 196.558 -0.274743 3.7309 0
M  V30 2033 H 197.891 -0.381109 4.90722 0
M  V30 2034 N 199.544 -1.57102 0.125237 0
M  V30 2035 C 200.784 -1.97294 -0.534259 0
M  V30 2036 C 201.148 -1.0074 -1.63449 0
M  V30 2037 O 202.349 -1.29893 -2.35332 0
M  V30 2038 C 200.62 -3.41705 -1.04748 0
M  V30 2039 S 202.179 -4.03913 -1.71463 0
M  V30 2040 H 198.997 -0.689517 -0.173458 0
M  V30 2041 H 201.599 -1.94349 0.211797 0
M  V30 2042 H 200.303 -4.09723 -0.235649 0
M  V30 2043 H 199.834 -3.48315 -1.82867 0
M  V30 2044 H 201.849 -3.95182 -3.00077 0
M  V30 2045 N 201.022 0.148545 -1.56898 0
M  V30 2046 C 202.269 0.861418 -1.83264 0
M  V30 2047 C 202.597 1.81239 -0.705883 0
M  V30 2048 O 201.852 1.93305 0.305212 0
M  V30 2049 C 202.151 1.67064 -3.1595 0
M  V30 2050 C 201.817 0.866591 -4.42494 0
M  V30 2051 C 200.479 0.644762 -4.76861 0
M  V30 2052 C 202.831 0.30418 -5.20312 0
M  V30 2053 C 200.159 -0.15021 -5.86508 0
M  V30 2054 C 202.511 -0.477824 -6.30793 0
M  V30 2055 C 201.175 -0.710244 -6.63711 0
M  V30 2056 H 200.445 0.315215 -0.670612 0
M  V30 2057 H 203.092 0.125142 -1.91091 0
M  V30 2058 H 201.397 2.47698 -3.03567 0
M  V30 2059 H 203.094 2.22566 -3.33565 0
M  V30 2060 H 199.684 1.04955 -4.15551 0
M  V30 2061 H 203.868 0.462844 -4.94137 0
M  V30 2062 H 199.124 -0.339796 -6.10455 0
M  V30 2063 H 203.298 -0.92076 -6.90286 0
M  V30 2064 H 200.925 -1.3281 -7.48509 0
M  V30 2065 N 202.5 1.5196 0.417844 0
M  V30 2066 C 203.746 1.65836 1.16732 0
M  V30 2067 C 204.079 0.382881 1.90388 0
M  V30 2068 O 203.354 -0.618368 1.84408 0
M  V30 2069 C 203.637 2.87466 2.16876 0
M  V30 2070 C 203.49 4.25041 1.47174 0
M  V30 2071 C 204.809 3.04613 3.17646 0
M  V30 2072 H 201.928 0.603515 0.423011 0
M  V30 2073 H 204.57 1.84494 0.454105 0
M  V30 2074 H 202.72 2.71689 2.777 0
M  V30 2075 H 204.392 4.52527 0.895376 0
M  V30 2076 H 202.635 4.26843 0.773806 0
M  V30 2077 H 203.306 5.06176 2.20204 0
M  V30 2078 H 205.782 3.1923 2.66892 0
M  V30 2079 H 204.658 3.91247 3.8499 0
M  V30 2080 H 204.919 2.17541 3.84874 0
M  V30 2081 N 203.978 -0.674533 1.42435 0
M  V30 2082 C 204.888 -1.81751 1.48337 0
M  V30 2083 C 205.904 -1.69975 0.372099 0
M  V30 2084 O 207.08 -1.91521 0.62304 0
M  V30 2085 C 204.145 -3.17895 1.38361 0
M  V30 2086 C 203.206 -3.41625 2.59982 0
M  V30 2087 C 202.439 -4.71274 2.50473 0
M  V30 2088 O 202.662 -5.49197 1.54075 0
M  V30 2089 O 201.596 -4.96254 3.4061 0
M  V30 2090 H 205.422 -1.79728 2.44809 0
M  V30 2091 H 203.007 -0.830312 1.24202 0
M  V30 2092 H 204.889 -3.99136 1.35161 0
M  V30 2093 H 203.564 -3.20555 0.450144 0
M  V30 2094 H 202.471 -2.60231 2.68757 0
M  V30 2095 H 203.804 -3.43796 3.52229 0
M  V30 2096 N 205.456 -1.28612 -0.910864 0
M  V30 2097 C 206.703 -1.15934 -1.66029 0
M  V30 2098 C 207.031 0.291483 -1.92303 0
M  V30 2099 O 206.286 1.22816 -1.52364 0
M  V30 2100 C 206.585 -1.90624 -3.0232 0
M  V30 2101 C 206.251 -3.40405 -2.95695 0
M  V30 2102 C 204.913 -3.81255 -2.93595 0
M  V30 2103 C 207.265 -4.359 -2.85728 0
M  V30 2104 C 204.593 -5.15936 -2.79334 0
M  V30 2105 C 206.945 -5.70657 -2.73007 0
M  V30 2106 C 205.609 -6.10779 -2.69267 0
M  V30 2107 H 204.879 -0.424234 -0.607541 0
M  V30 2108 H 207.526 -1.5942 -1.06101 0
M  V30 2109 H 205.831 -1.39696 -3.6605 0
M  V30 2110 H 207.528 -1.78228 -3.59215 0
M  V30 2111 H 204.118 -3.07927 -2.98125 0
M  V30 2112 H 208.302 -4.053 -2.86436 0
M  V30 2113 H 203.558 -5.46146 -2.74835 0
M  V30 2114 H 207.732 -6.44311 -2.64264 0
M  V30 2115 H 205.359 -7.1509 -2.57974 0
M  V30 2116 N 206.934 1.1197 -1.10907 0
M  V30 2117 C 207.844 2.21433 -0.774896 0
M  V30 2118 C 208.86 1.72478 0.229657 0
M  V30 2119 O 210.036 2.01288 0.0672008 0
M  V30 2120 C 207.101 3.4602 -0.216986 0
M  V30 2121 C 206.162 4.09791 -1.27944 0
M  V30 2122 C 205.395 5.28431 -0.748055 0
M  V30 2123 O 205.618 5.68823 0.423833 0
M  V30 2124 O 204.552 5.82644 -1.51027 0
M  V30 2125 H 208.378 2.5242 -1.68873 0
M  V30 2126 H 205.963 1.20399 -0.884555 0
M  V30 2127 H 207.845 4.21304 0.090059 0
M  V30 2128 H 206.52 3.16698 0.669633 0
M  V30 2129 H 205.427 3.36265 -1.63941 0
M  V30 2130 H 206.76 4.4328 -2.13925 0
M  V30 2131 N 208.412 0.89855 1.29475 0
M  V30 2132 C 209.689 0.443416 1.90508 0
M  V30 2133 C 210.069 -1.07685 1.81569 0
M  V30 2134 O 209.417 -1.9182 1.24166 0
M  V30 2135 C 209.627 0.956708 3.35631 0
M  V30 2136 C 210.975 0.999728 4.12663 0
M  V30 2137 O 211.999 0.904299 3.4453 0
M  V30 2138 O 210.858 1.14289 5.34416 0
M  V30 2139 H 207.952 0.138025 0.815401 0
M  V30 2140 H 210.498 0.98834 1.37949 0
M  V30 2141 H 209.27 2.00067 3.36287 0
M  V30 2142 H 208.893 0.391728 3.95666 0
M  V30 2143 N 209.89 -1.43072 0.660911 0
M  V30 2144 C 211.138 -2.01323 0.177094 0
M  V30 2145 C 211.459 -1.5245 -1.2159 0
M  V30 2146 O 210.729 -0.740322 -1.81373 0
M  V30 2147 H 209.309 -0.744382 0.0624804 0
M  V30 2148 H 211.971 -1.75179 0.854305 0
M  V30 2149 H 211.067 -3.11649 0.167641 0
M  V30 2150 N 211.368 -0.403325 -1.52352 0
M  V30 2151 C 212.596 0.174012 -2.06167 0
M  V30 2152 C 213.011 1.39347 -1.27388 0
M  V30 2153 O 212.368 1.79597 -0.324201 0
M  V30 2154 C 212.419 0.530223 -3.5759 0
M  V30 2155 O 212.14 -0.640806 -4.33388 0
M  V30 2156 C 213.641 1.16192 -4.27802 0
M  V30 2157 H 210.861 0.0229464 -0.670608 0
M  V30 2158 H 213.405 -0.572604 -1.9632 0
M  V30 2159 H 211.56 1.22673 -3.67464 0
M  V30 2160 H 211.974 -0.344851 -5.23365 0
M  V30 2161 H 213.448 1.36141 -5.34948 0
M  V30 2162 H 213.925 2.13335 -3.83907 0
M  V30 2163 H 214.531 0.505775 -4.22282 0
M  V30 2164 N 212.846 1.57033 -0.133567 0
M  V30 2165 C 213.809 2.14897 0.796995 0
M  V30 2166 C 214.809 1.0874 1.18458 0
M  V30 2167 O 215.999 1.34446 1.1077 0
M  V30 2168 C 213.131 2.70112 2.07973 0
M  V30 2169 H 214.324 2.98457 0.293873 0
M  V30 2170 H 211.877 1.55871 0.115787 0
M  V30 2171 H 212.612 1.9018 2.62682 0
M  V30 2172 H 212.397 3.47764 1.81115 0
M  V30 2173 H 213.887 3.14738 2.74462 0
M  V30 2174 N 214.325 -0.140222 1.56975 0
M  V30 2175 C 215.573 -0.850005 1.83356 0
M  V30 2176 C 215.894 -1.81399 0.71551 0
M  V30 2177 O 215.164 -1.94136 -0.262294 0
M  V30 2178 H 213.744 -0.316886 0.676456 0
M  V30 2179 H 216.406 -0.132608 1.94448 0
M  V30 2180 H 215.502 -1.40814 2.78528 0
M  V30 2181 N 215.803 -1.52179 -0.40978 0
M  V30 2182 C 216.733 -1.78435 -1.5061 0
M  V30 2183 C 217.714 -0.635295 -1.57791 0
M  V30 2184 O 218.899 -0.880823 -1.73076 0
M  V30 2185 C 216.029 -1.93444 -2.88439 0
M  V30 2186 C 214.983 -3.09038 -2.96108 0
M  V30 2187 C 214.309 -3.09268 -4.36185 0
M  V30 2188 C 215.609 -4.48508 -2.67652 0
M  V30 2189 H 217.303 -2.70237 -1.28889 0
M  V30 2190 H 214.849 -1.30036 -0.618605 0
M  V30 2191 H 216.802 -2.10394 -3.65119 0
M  V30 2192 H 215.526 -0.983129 -3.11452 0
M  V30 2193 H 214.185 -2.91837 -2.21872 0
M  V30 2194 H 213.833 -2.11861 -4.56206 0
M  V30 2195 H 213.533 -3.86907 -4.42241 0
M  V30 2196 H 215.057 -3.28348 -5.14801 0
M  V30 2197 H 216.471 -4.65918 -3.34056 0
M  V30 2198 H 214.868 -5.28059 -2.85085 0
M  V30 2199 H 215.938 -4.56649 -1.63095 0
M  V30 2200 N 217.281 0.66697 -1.42791 0
M  V30 2201 C 218.231 1.77313 -1.43332 0
M  V30 2202 C 219.215 1.5801 -0.303586 0
M  V30 2203 O 220.407 1.68356 -0.546385 0
M  V30 2204 C 217.536 3.15822 -1.34578 0
M  V30 2205 C 216.622 3.40721 -2.52528 0
M  V30 2206 N 217.013 3.36162 -3.77927 0
M  V30 2207 C 215.311 3.71387 -2.46956 0
M  V30 2208 C 216.012 3.60762 -4.56318 0
M  V30 2209 N 214.988 3.81908 -3.86843 0
M  V30 2210 H 218.79 1.72193 -2.38174 0
M  V30 2211 H 216.304 0.868114 -1.3725 0
M  V30 2212 H 218.301 3.951 -1.33048 0
M  V30 2213 H 216.961 3.22133 -0.407453 0
M  V30 2214 H 217.972 3.15885 -4.10411 0
M  V30 2215 H 214.649 3.84897 -1.61743 0
M  V30 2216 H 216.039 3.63132 -5.65318 0
M  V30 2217 N 218.759 1.29093 0.90403 0
M  V30 2218 C 220.17 1.15186 1.46932 0
M  V30 2219 C 220.521 -0.254587 1.94541 0
M  V30 2220 O 219.646 -1.14972 1.83332 0
M  V30 2221 C 220.241 2.08492 2.67051 0
M  V30 2222 C 218.8 1.98621 3.19729 0
M  V30 2223 C 217.947 1.9967 1.92425 0
M  V30 2224 H 220.898 1.41641 0.715789 0
M  V30 2225 H 220.919 1.65461 3.42641 0
M  V30 2226 H 220.431 3.10847 2.3237 0
M  V30 2227 H 218.532 0.993389 3.59114 0
M  V30 2228 H 218.645 2.86068 3.8432 0
M  V30 2229 H 217.009 1.44208 2.09943 0
M  V30 2230 H 217.792 3.03721 1.60026 0
M  V30 2231 N 220.237 -1.11381 1.11499 0
M  V30 2232 C 221.465 -1.86934 0.88675 0
M  V30 2233 C 221.88 -1.80195 -0.563476 0
M  V30 2234 O 221.237 -1.18367 -1.38908 0
M  V30 2235 C 221.288 -3.35722 1.34064 0
M  V30 2236 O 221.009 -3.4232 2.73401 0
M  V30 2237 C 222.51 -4.2818 1.14791 0
M  V30 2238 H 219.73 -0.591117 0.317523 0
M  V30 2239 H 222.274 -1.40865 1.48248 0
M  V30 2240 H 220.429 -3.79294 0.788355 0
M  V30 2241 H 220.843 -4.34971 2.93087 0
M  V30 2242 H 222.317 -5.30817 1.5145 0
M  V30 2243 H 222.794 -4.39113 0.0875279 0
M  V30 2244 H 223.4 -3.90402 1.68721 0
M  V30 2245 N 221.715 -0.905404 -1.28997 0
M  V30 2246 C 222.94 -0.549175 -1.99997 0
M  V30 2247 C 223.365 0.860276 -1.67275 0
M  V30 2248 O 222.723 1.57355 -0.900502 0
M  V30 2249 C 222.771 -0.755185 -3.52604 0
M  V30 2250 O 221.875 0.189692 -4.11964 0
M  V30 2251 H 221.216 -0.213899 -0.628604 0
M  V30 2252 H 223.746 -1.21856 -1.64354 0
M  V30 2253 H 223.756 -0.662045 -4.02593 0
M  V30 2254 H 222.431 -1.78271 -3.75755 0
M  V30 2255 H 221.008 0.0485257 -3.72868 0
M  V30 2256 N 223.193 1.4272 -0.668489 0
M  V30 2257 C 224.421 2.05966 -0.196348 0
M  V30 2258 C 224.836 1.50191 1.14403 0
M  V30 2259 O 224.193 0.639208 1.7094 0
M  V30 2260 C 224.244 3.61314 -0.115815 0
M  V30 2261 O 223.965 4.1502 -1.40322 0
M  V30 2262 C 225.466 4.41663 0.380579 0
M  V30 2263 H 222.686 0.663954 -0.0969829 0
M  V30 2264 H 225.23 1.82966 -0.913446 0
M  V30 2265 H 223.385 3.83448 0.551931 0
M  V30 2266 H 223.799 5.08832 -1.27243 0
M  V30 2267 H 225.273 5.5065 0.385848 0
M  V30 2268 H 225.75 4.15792 1.41471 0
M  V30 2269 H 226.356 4.24534 -0.255209 0
M  V30 2270 N 224.671 0.411399 1.52136 0
M  V30 2271 C 226.082 -0.0576826 1.86611 0
M  V30 2272 C 226.433 -1.44238 1.33003 0
M  V30 2273 O 225.558 -2.05759 0.670228 0
M  V30 2274 C 226.153 -0.111448 3.38617 0
M  V30 2275 C 224.712 -0.52487 3.72723 0
M  V30 2276 C 223.859 0.299176 2.75681 0
M  V30 2277 H 226.81 0.628368 1.4573 0
M  V30 2278 H 226.831 -0.926252 3.69054 0
M  V30 2279 H 226.343 0.896488 3.77604 0
M  V30 2280 H 224.444 -1.53936 3.39315 0
M  V30 2281 H 224.557 -0.267681 4.78352 0
M  V30 2282 H 222.921 -0.238814 2.53578 0
M  V30 2283 H 223.704 1.3055 3.17508 0
M  V30 2284 N 226.149 -1.5696 0.141893 0
M  V30 2285 C 227.565 -1.58151 -0.21456 0
M  V30 2286 C 227.765 -1.1559 -1.65049 0
M  V30 2287 O 226.821 -0.853832 -2.37626 0
M  V30 2288 C 228.134 -3.00674 0.0395576 0
M  V30 2289 C 229.682 -3.1299 -0.0245529 0
M  V30 2290 C 230.157 -4.57554 0.202167 0
M  V30 2291 N 231.648 -4.62961 0.148919 0
M  V30 2292 C 232.383 -5.7262 0.298924 0
M  V30 2293 N 231.879 -6.90947 0.50637 0
M  V30 2294 N 233.672 -5.61601 0.236886 0
M  V30 2295 H 225.823 -1.8292 1.07953 0
M  V30 2296 H 228.086 -0.846425 0.42693 0
M  V30 2297 H 227.792 -3.36183 1.03315 0
M  V30 2298 H 227.666 -3.70981 -0.682143 0
M  V30 2299 H 230.053 -2.77326 -1.00869 0
M  V30 2300 H 230.134 -2.4518 0.729396 0
M  V30 2301 H 229.778 -4.93922 1.18338 0
M  V30 2302 H 229.708 -5.23484 -0.572044 0
M  V30 2303 H 232.199 -3.77899 -0.00697015 0
M  V30 2304 H 232.512 -7.7038 0.611076 0
M  V30 2305 H 230.857 -6.92878 0.542628 0
M  V30 2306 H 234.048 -4.68039 0.0756209 0
M  V30 2307 H 234.221 -6.47015 0.357227 0
M  V30 2308 N 227.627 0.131896 -1.57047 0
M  V30 2309 C 228.59 1.14638 -1.98471 0
M  V30 2310 C 229.59 1.35029 -0.873148 0
M  V30 2311 O 230.78 1.31764 -1.13946 0
M  V30 2312 C 227.912 2.50358 -2.31373 0
M  V30 2313 H 229.105 0.79064 -2.8929 0
M  V30 2314 H 226.658 0.375761 -1.51716 0
M  V30 2315 H 227.393 2.90876 -1.43393 0
M  V30 2316 H 227.178 2.36915 -3.12432 0
M  V30 2317 H 228.668 3.23395 -2.64207 0
M  V30 2318 N 229.106 1.52395 0.401703 0
M  V30 2319 C 230.036 1.79231 1.49661 0
M  V30 2320 C 231.017 0.643654 1.57452 0
M  V30 2321 O 232.202 0.889989 1.72606 0
M  V30 2322 C 229.332 1.94971 2.87409 0
M  V30 2323 C 228.286 3.10604 2.94465 0
M  V30 2324 C 227.612 3.11577 4.34538 0
M  V30 2325 C 228.912 4.49921 2.6527 0
M  V30 2326 H 230.606 2.70917 1.27454 0
M  V30 2327 H 228.152 1.30362 0.6117 0
M  V30 2328 H 230.105 2.12328 3.63999 0
M  V30 2329 H 228.829 0.999632 3.10926 0
M  V30 2330 H 227.488 2.93009 2.20321 0
M  V30 2331 H 227.136 2.14277 4.55076 0
M  V30 2332 H 226.836 3.89247 4.40183 0
M  V30 2333 H 228.36 3.31073 5.13053 0
M  V30 2334 H 229.774 4.67683 3.31581 0
M  V30 2335 H 228.171 5.29564 2.82281 0
M  V30 2336 H 229.241 4.57507 1.60671 0
M  V30 2337 N 230.584 -0.659388 1.43143 0
M  V30 2338 C 231.494 -1.80167 1.50256 0
M  V30 2339 C 232.51 -1.69571 0.390106 0
M  V30 2340 O 233.686 -1.90849 0.643319 0
M  V30 2341 C 230.751 -3.16409 1.41725 0
M  V30 2342 C 229.812 -3.38848 2.63591 0
M  V30 2343 C 229.045 -4.68591 2.55458 0
M  V30 2344 O 229.268 -5.47532 1.59891 0
M  V30 2345 O 228.202 -4.92614 3.45854 0
M  V30 2346 H 232.028 -1.77121 2.46702 0
M  V30 2347 H 229.613 -0.817092 1.25076 0
M  V30 2348 H 231.495 -3.9768 1.39387 0
M  V30 2349 H 230.17 -3.20059 0.484118 0
M  V30 2350 H 229.077 -2.57366 2.71502 0
M  V30 2351 H 230.41 -3.4004 3.55856 0
M  V30 2352 N 232.062 -1.29571 -0.897171 0
M  V30 2353 C 233.29 -1.20583 -1.68129 0
M  V30 2354 C 233.705 0.233181 -1.87354 0
M  V30 2355 O 233.062 1.15579 -1.41236 0
M  V30 2356 C 233.113 -1.91772 -3.06441 0
M  V30 2357 O 232.834 -3.30053 -2.88091 0
M  V30 2358 C 234.335 -1.89291 -4.00854 0
M  V30 2359 H 231.555 -0.417826 -0.525036 0
M  V30 2360 H 234.099 -1.70987 -1.12177 0
M  V30 2361 H 232.254 -1.45196 -3.59161 0
M  V30 2362 H 232.668 -3.65942 -3.75748 0
M  V30 2363 H 234.142 -2.43662 -4.95311 0
M  V30 2364 H 234.619 -0.869014 -4.30517 0
M  V30 2365 H 235.225 -2.35622 -3.54066 0
M  V30 2366 N 233.54 1.10788 -1.12088 0
M  V30 2367 C 234.817 1.79136 -0.785476 0
M  V30 2368 C 235.197 1.98246 0.725377 0
M  V30 2369 O 234.545 1.57258 1.65778 0
M  V30 2370 C 234.755 3.12375 -1.55636 0
M  V30 2371 C 236.103 3.8731 -1.74001 0
M  V30 2372 O 237.127 3.22085 -1.52117 0
M  V30 2373 O 235.986 5.04369 -2.10415 0
M  V30 2374 H 233.08 0.776226 -0.285311 0
M  V30 2375 H 235.626 1.1747 -1.2247 0
M  V30 2376 H 234.398 2.93863 -2.5838 0
M  V30 2377 H 234.021 3.81758 -1.11114 0
M  V30 2378 N 235.018 0.912232 1.28515 0
M  V30 2379 C 235.928 0.404506 2.31086 0
M  V30 2380 C 236.944 -0.50707 1.66448 0
M  V30 2381 O 238.12 -0.393624 1.97516 0
M  V30 2382 C 235.185 -0.348572 3.44943 0
M  V30 2383 C 234.246 0.59604 4.25142 0
M  V30 2384 C 233.479 -0.121194 5.33562 0
M  V30 2385 O 233.702 -1.34317 5.5436 0
M  V30 2386 O 232.636 0.542716 5.99448 0
M  V30 2387 H 236.462 1.25579 2.76521 0
M  V30 2388 H 234.047 0.676998 1.33181 0
M  V30 2389 H 235.929 -0.77395 4.14232 0
M  V30 2390 H 234.604 -1.17571 3.01594 0
M  V30 2391 H 233.511 1.07079 3.58448 0
M  V30 2392 H 234.844 1.38995 4.72167 0
M  V30 2393 N 236.496 -1.42363 0.676048 0
M  V30 2394 C 237.745 -2.00745 0.196037 0
M  V30 2395 C 238.058 -1.54083 -1.20489 0
M  V30 2396 O 239.264 -2.04891 -1.78134 0
M  V30 2397 C 237.72 -3.58651 0.299616 0
M  V30 2398 C 237.328 -4.143 1.70468 0
M  V30 2399 C 239.072 -4.24326 -0.121619 0
M  V30 2400 C 236.979 -5.64574 1.76096 0
M  V30 2401 H 235.909 -0.750787 0.0695301 0
M  V30 2402 H 238.56 -1.63072 0.841412 0
M  V30 2403 H 236.942 -3.93833 -0.413673 0
M  V30 2404 H 238.116 -3.90575 2.44515 0
M  V30 2405 H 236.431 -3.61081 2.07387 0
M  V30 2406 H 239.028 -5.34607 -0.0997362 0
M  V30 2407 H 239.371 -3.99897 -1.15708 0
M  V30 2408 H 239.904 -3.94108 0.540706 0
M  V30 2409 H 236.643 -5.93804 2.77628 0
M  V30 2410 H 236.163 -5.90286 1.06406 0
M  V30 2411 H 237.842 -6.29013 1.51496 0
M  V30 2412 N 237.974 -0.419461 -1.51915 0
M  V30 2413 C 239.385 0.0477853 -1.86639 0
M  V30 2414 C 239.736 1.43531 -1.33766 0
M  V30 2415 O 238.861 2.05401 -0.68113 0
M  V30 2416 C 239.456 0.0934885 -3.38671 0
M  V30 2417 C 238.015 0.505097 -3.72996 0
M  V30 2418 C 237.162 -0.313792 -2.75519 0
M  V30 2419 H 240.113 -0.636088 -1.45395 0
M  V30 2420 H 240.134 0.906667 -3.6954 0
M  V30 2421 H 239.646 -0.916501 -3.77123 0
M  V30 2422 H 237.747 1.52135 -3.40126 0
M  V30 2423 H 237.86 0.242309 -4.78487 0
M  V30 2424 H 236.224 0.225363 -2.53701 0
M  V30 2425 H 237.007 -1.32232 -3.16812 0
M  V30 2426 N 239.452 1.56882 -0.150215 0
M  V30 2427 C 240.7 1.9584 0.499105 0
M  V30 2428 C 241.021 1.03623 1.65188 0
M  V30 2429 O 240.291 0.0984084 1.95653 0
M  V30 2430 H 238.871 0.723119 0.187373 0
M  V30 2431 H 241.533 1.9358 -0.226466 0
M  V30 2432 H 240.629 2.99638 0.873122 0
M  V30 2433 N 240.93 -0.123565 1.57115 0
M  V30 2434 C 242.179 -0.830704 1.83799 0
M  V30 2435 C 242.492 -1.81259 0.735158 0
M  V30 2436 O 243.698 -2.56558 0.888278 0
M  V30 2437 C 242.154 -1.52802 3.25852 0
M  V30 2438 C 241.762 -0.587356 4.44133 0
M  V30 2439 C 243.506 -2.22056 3.61789 0
M  V30 2440 C 241.413 -1.28764 5.77212 0
M  V30 2441 H 240.343 -0.313967 0.685522 0
M  V30 2442 H 242.994 -0.0834359 1.8331 0
M  V30 2443 H 241.376 -2.32175 3.20797 0
M  V30 2444 H 242.55 0.172829 4.60476 0
M  V30 2445 H 240.865 -0.00201892 4.164 0
M  V30 2446 H 243.462 -2.75131 4.58483 0
M  V30 2447 H 243.805 -2.99644 2.88997 0
M  V30 2448 H 244.338 -1.49576 3.68608 0
M  V30 2449 H 241.077 -0.55314 6.53162 0
M  V30 2450 H 240.597 -2.01995 5.64764 0
M  V30 2451 H 242.276 -1.8221 6.20813 0
M  V30 2452 N 242.408 -1.52605 -0.393616 0
M  V30 2453 C 243.654 -1.67672 -1.14079 0
M  V30 2454 C 243.987 -0.413121 -1.89755 0
M  V30 2455 O 243.262 0.588952 -1.85369 0
M  V30 2456 C 243.545 -2.9088 -2.12276 0
M  V30 2457 C 243.398 -4.27329 -1.40394 0
M  V30 2458 C 244.717 -3.09628 -3.12759 0
M  V30 2459 H 241.836 -0.610168 -0.413356 0
M  V30 2460 H 244.478 -1.85193 -0.424696 0
M  V30 2461 H 242.628 -2.76073 -2.73342 0
M  V30 2462 H 244.3 -4.53894 -0.82327 0
M  V30 2463 H 242.543 -4.2802 -0.705801 0
M  V30 2464 H 243.214 -5.09615 -2.12123 0
M  V30 2465 H 245.69 -3.23436 -2.61779 0
M  V30 2466 H 244.566 -3.97322 -3.78717 0
M  V30 2467 H 244.827 -2.23637 -3.81365 0
M  V30 2468 N 243.887 0.651787 -1.4349 0
M  V30 2469 C 244.797 1.79368 -1.5121 0
M  V30 2470 C 245.813 1.69361 -0.399093 0
M  V30 2471 O 246.989 1.90505 -0.653431 0
M  V30 2472 C 244.054 3.15653 -1.43401 0
M  V30 2473 C 243.115 3.37446 -2.65384 0
M  V30 2474 C 242.348 4.67229 -2.57939 0
M  V30 2475 O 242.571 5.46676 -1.62792 0
M  V30 2476 O 241.505 4.90773 -3.48462 0
M  V30 2477 H 245.331 1.7581 -2.47638 0
M  V30 2478 H 242.916 0.810447 -1.25507 0
M  V30 2479 H 244.798 3.96935 -1.41494 0
M  V30 2480 H 243.473 3.19798 -0.501085 0
M  V30 2481 H 242.38 2.55923 -2.72863 0
M  V30 2482 H 243.713 3.38148 -3.57654 0
M  V30 2483 N 245.365 1.30045 0.890287 0
M  V30 2484 C 246.642 1.09227 1.62262 0
M  V30 2485 C 247.022 -0.360305 2.08002 0
M  V30 2486 O 246.37 -1.35084 1.84295 0
M  V30 2487 C 246.58 2.08835 2.79623 0
M  V30 2488 C 247.928 2.40266 3.50082 0
M  V30 2489 O 248.952 2.07104 2.89804 0
M  V30 2490 O 247.811 2.96967 4.58773 0
M  V30 2491 H 244.905 0.419132 0.712922 0
M  V30 2492 H 247.451 1.41451 0.937529 0
M  V30 2493 H 246.223 3.06633 2.43089 0
M  V30 2494 H 245.846 1.77397 3.55832 0
M  V30 2495 N 246.843 -1.10192 1.12674 0
M  V30 2496 C 248.073 -1.85713 0.905213 0
M  V30 2497 C 248.481 -1.81056 -0.549108 0
M  V30 2498 O 247.824 -1.19927 -1.39151 0
M  V30 2499 C 247.886 -3.34972 1.30516 0
M  V30 2500 C 247.55 -3.63385 2.77129 0
M  V30 2501 C 248.547 -3.59772 3.75313 0
M  V30 2502 C 246.232 -3.91981 3.14096 0
M  V30 2503 C 248.226 -3.84354 5.08479 0
M  V30 2504 C 245.913 -4.16218 4.47443 0
M  V30 2505 C 246.911 -4.12395 5.44444 0
M  V30 2506 O 246.599 -4.36014 6.75387 0
M  V30 2507 H 246.331 -0.593719 0.323223 0
M  V30 2508 H 248.885 -1.40198 1.50112 0
M  V30 2509 H 247.115 -3.81156 0.652463 0
M  V30 2510 H 248.804 -3.91886 1.05736 0
M  V30 2511 H 249.57 -3.37716 3.48099 0
M  V30 2512 H 245.449 -3.94085 2.39202 0
M  V30 2513 H 248.993 -3.81285 5.84181 0
M  V30 2514 H 244.89 -4.37754 4.74386 0
M  V30 2515 H 245.658 -4.53516 6.8137 0
M  V30 2516 N 248.321 -0.919034 -1.28029 0
M  V30 2517 C 249.737 -0.617972 -1.4715 0
M  V30 2518 C 249.937 0.835242 -1.83374 0
M  V30 2519 O 248.993 1.61388 -1.94191 0
M  V30 2520 C 250.306 -1.56041 -2.57044 0
M  V30 2521 C 251.854 -1.56769 -2.7091 0
M  V30 2522 C 252.329 -2.49688 -3.83953 0
M  V30 2523 N 253.82 -2.47845 -3.91314 0
M  V30 2524 C 254.555 -3.16437 -4.78179 0
M  V30 2525 N 254.051 -3.94376 -5.69596 0
M  V30 2526 N 255.844 -3.05498 -4.71834 0
M  V30 2527 H 247.995 -1.85866 -1.02798 0
M  V30 2528 H 250.258 -0.797506 -0.512531 0
M  V30 2529 H 249.964 -2.59671 -2.372 0
M  V30 2530 H 249.838 -1.29551 -3.54255 0
M  V30 2531 H 252.225 -0.538745 -2.90141 0
M  V30 2532 H 252.306 -1.87305 -1.74214 0
M  V30 2533 H 251.95 -3.52688 -3.65477 0
M  V30 2534 H 251.88 -2.16453 -4.80058 0
M  V30 2535 H 254.371 -1.91234 -3.25941 0
M  V30 2536 H 254.684 -4.43721 -6.32718 0
M  V30 2537 H 253.029 -3.98481 -5.69419 0
M  V30 2538 H 256.22 -2.44108 -3.99411 0
M  V30 2539 H 256.393 -3.59225 -5.39316 0
M  V30 2540 N 249.799 1.42003 -0.683588 0
M  V30 2541 C 250.731 2.29183 0.0283068 0
M  V30 2542 C 251.744 1.4415 0.756611 0
M  V30 2543 O 252.933 1.67779 0.609306 0
M  V30 2544 C 250.033 3.21765 1.06398 0
M  V30 2545 C 249.206 4.35496 0.407723 0
M  V30 2546 C 248.265 5.08737 1.34437 0
M  V30 2547 O 247.291 5.62948 0.841318 0
M  V30 2548 N 248.493 5.15075 2.67728 0
M  V30 2549 H 251.258 2.9092 -0.720105 0
M  V30 2550 H 248.819 1.53025 -0.528682 0
M  V30 2551 H 250.811 3.6763 1.69204 0
M  V30 2552 H 249.381 2.61418 1.71404 0
M  V30 2553 H 248.601 3.92165 -0.400012 0
M  V30 2554 H 249.889 5.08776 -0.0490956 0
M  V30 2555 H 249.287 4.72457 3.11129 0
M  V30 2556 H 247.844 5.64556 3.2576 0
M  V30 2557 N 251.277 0.427512 1.51691 0
M  V30 2558 C 252.24 -0.377132 2.26076 0
M  V30 2559 C 253.24 -0.958089 1.29141 0
M  V30 2560 O 254.43 -0.83408 1.52934 0
M  V30 2561 C 251.562 -1.53262 3.04506 0
M  V30 2562 H 252.755 0.27464 2.9864 0
M  V30 2563 H 250.308 0.180445 1.55255 0
M  V30 2564 H 251.043 -2.22072 2.36335 0
M  V30 2565 H 250.828 -1.12232 3.75694 0
M  V30 2566 H 252.318 -2.10135 3.60878 0
M  V30 2567 N 252.755 -1.56801 0.158532 0
M  V30 2568 C 253.718 -2.16138 -0.762705 0
M  V30 2569 C 254.718 -1.1061 -1.16713 0
M  V30 2570 O 255.908 -1.36191 -1.08617 0
M  V30 2571 C 253.04 -2.73386 -2.03649 0
M  V30 2572 H 254.233 -2.98886 -0.246354 0
M  V30 2573 H 251.786 -1.56035 -0.0909744 0
M  V30 2574 H 252.521 -1.94335 -2.59623 0
M  V30 2575 H 252.306 -3.50601 -1.75559 0
M  V30 2576 H 253.796 -3.19065 -2.6942 0
M  V30 2577 N 254.233 0.115231 -1.57178 0
M  V30 2578 C 255.165 1.16694 -1.97269 0
M  V30 2579 C 256.178 1.37445 -0.872502 0
M  V30 2580 O 257.367 1.36454 -1.15077 0
M  V30 2581 C 254.467 2.52627 -2.25905 0
M  V30 2582 C 253.64 2.52427 -3.57211 0
M  V30 2583 C 252.699 3.70134 -3.74016 0
M  V30 2584 O 251.725 3.53546 -4.46087 0
M  V30 2585 N 252.927 4.88844 -3.13068 0
M  V30 2586 H 255.692 0.82588 -2.88096 0
M  V30 2587 H 253.253 0.304461 -1.59011 0
M  V30 2588 H 255.245 3.29937 -2.34359 0
M  V30 2589 H 253.815 2.789 -1.41186 0
M  V30 2590 H 253.035 1.60805 -3.5991 0
M  V30 2591 H 254.323 2.49353 -4.43509 0
M  V30 2592 H 253.721 5.05225 -2.54489 0
M  V30 2593 H 252.278 5.63817 -3.27037 0
M  V30 2594 N 255.711 1.52812 0.385517 0
M  V30 2595 C 257.127 1.4214 0.725829 0
M  V30 2596 C 257.327 0.544589 1.94001 0
M  V30 2597 O 256.383 0.0193693 2.52493 0
M  V30 2598 C 257.696 2.85042 0.957668 0
M  V30 2599 C 259.244 2.94543 1.05892 0
M  V30 2600 C 259.719 4.38464 1.32337 0
M  V30 2601 N 261.21 4.41804 1.39151 0
M  V30 2602 C 261.945 5.5025 1.61285 0
M  V30 2603 N 261.441 6.68775 1.80866 0
M  V30 2604 N 263.234 5.37798 1.63492 0
M  V30 2605 H 255.385 2.08338 -0.413383 0
M  V30 2606 H 257.648 0.940016 -0.122775 0
M  V30 2607 H 257.354 3.51431 0.137568 0
M  V30 2608 H 257.228 3.27505 1.87137 0
M  V30 2609 H 259.615 2.28321 1.86959 0
M  V30 2610 H 259.696 2.55504 0.123057 0
M  V30 2611 H 259.34 5.05254 0.517793 0
M  V30 2612 H 259.27 4.75059 2.27214 0
M  V30 2613 H 261.761 3.56377 1.25713 0
M  V30 2614 H 262.074 7.47197 1.97271 0
M  V30 2615 H 260.419 6.71797 1.78083 0
M  V30 2616 H 263.61 4.44171 1.47749 0
M  V30 2617 H 263.783 6.22382 1.80402 0
M  V30 2618 N 257.189 -0.644168 1.43834 0
M  V30 2619 C 258.152 -1.73857 1.49353 0
M  V30 2620 C 259.152 -1.56315 0.377112 0
M  V30 2621 O 260.342 -1.62048 0.639226 0
M  V30 2622 C 257.474 -3.12819 1.35488 0
M  V30 2623 H 258.667 -1.70342 2.46827 0
M  V30 2624 H 256.22 -0.856652 1.30733 0
M  V30 2625 H 256.955 -3.2194 0.390569 0
M  V30 2626 H 256.74 -3.26958 2.16428 0
M  V30 2627 H 258.23 -3.92606 1.42302 0
M  V30 2628 N 258.668 -1.30515 -0.883378 0
M  V30 2629 C 259.615 -1.17032 -1.98927 0
M  V30 2630 C 260.585 -0.0594241 -1.65994 0
M  V30 2631 O 261.77 -0.229895 -1.8941 0
M  V30 2632 C 258.91 -0.869777 -3.33959 0
M  V30 2633 C 258.023 -2.06271 -3.79574 0
M  V30 2634 C 257.158 -1.70011 -5.03259 0
M  V30 2635 C 256.197 -2.8579 -5.41286 0
M  V30 2636 N 255.334 -2.49816 -6.56153 0
M  V30 2637 H 260.174 -2.1164 -2.09792 0
M  V30 2638 H 257.711 -1.05296 -1.02719 0
M  V30 2639 H 259.669 -0.676138 -4.11685 0
M  V30 2640 H 258.299 0.0394332 -3.22776 0
M  V30 2641 H 257.351 -2.36755 -2.97744 0
M  V30 2642 H 258.663 -2.92971 -4.03694 0
M  V30 2643 H 257.817 -1.47032 -5.88614 0
M  V30 2644 H 256.556 -0.804829 -4.81013 0
M  V30 2645 H 255.561 -3.09434 -4.54456 0
M  V30 2646 H 256.786 -3.76008 -5.65504 0
M  V30 2647 H 254.732 -1.62795 -6.35479 0
M  V30 2648 H 254.649 -3.30048 -6.8015 0
M  V30 2649 H 255.917 -2.30197 -7.44735 0
M  V30 2650 N 260.146 1.09593 -1.13257 0
M  V30 2651 C 261.562 1.33775 -0.870423 0
M  V30 2652 C 261.762 1.95327 0.494926 0
M  V30 2653 O 260.818 2.19853 1.2418 0
M  V30 2654 C 262.131 2.25106 -1.99369 0
M  V30 2655 C 263.679 2.3862 -2.02558 0
M  V30 2656 C 264.154 3.33285 -3.14142 0
M  V30 2657 N 265.645 3.40857 -3.13641 0
M  V30 2658 C 266.38 4.14101 -3.96621 0
M  V30 2659 N 265.876 4.90157 -4.8961 0
M  V30 2660 N 267.669 4.09808 -3.84726 0
M  V30 2661 H 259.82 0.680136 -2.01216 0
M  V30 2662 H 262.083 0.362133 -0.876107 0
M  V30 2663 H 261.789 1.87103 -2.97801 0
M  V30 2664 H 261.663 3.25481 -1.90635 0
M  V30 2665 H 264.05 2.75887 -1.0474 0
M  V30 2666 H 264.131 1.38028 -2.15364 0
M  V30 2667 H 263.775 2.96741 -4.12198 0
M  V30 2668 H 263.705 4.33776 -2.98574 0
M  V30 2669 H 266.196 2.86624 -2.46282 0
M  V30 2670 H 266.509 5.4347 -5.49418 0
M  V30 2671 H 264.854 4.89251 -4.93617 0
M  V30 2672 H 268.045 3.4949 -3.11408 0
M  V30 2673 H 268.218 4.66629 -4.49623 0
M  V30 2674 N 261.624 0.925811 1.2754 0
M  V30 2675 C 262.587 0.428129 2.25166 0
M  V30 2676 C 263.587 -0.452261 1.54309 0
M  V30 2677 O 264.777 -0.253608 1.72344 0
M  V30 2678 C 261.909 -0.384749 3.38722 0
M  V30 2679 H 263.102 1.29066 2.70706 0
M  V30 2680 H 260.655 0.706323 1.3943 0
M  V30 2681 H 261.39 -1.26618 2.98561 0
M  V30 2682 H 261.175 0.246454 3.91325 0
M  V30 2683 H 262.665 -0.723389 4.11287 0
M  V30 2684 N 263.102 -1.41638 0.69111 0
M  V30 2685 C 264.35 -2.00902 0.219758 0
M  V30 2686 C 264.671 -1.54994 -1.18329 0
M  V30 2687 O 263.941 -0.778628 -1.79762 0
M  V30 2688 H 262.521 -0.74289 0.0782558 0
M  V30 2689 H 265.183 -1.73327 0.891271 0
M  V30 2690 H 264.279 -3.11224 0.233708 0
M  V30 2691 N 264.58 -0.43555 -1.51462 0
M  V30 2692 C 265.827 0.131514 -2.02072 0
M  V30 2693 C 266.155 1.42868 -1.31981 0
M  V30 2694 O 265.41 1.91076 -0.422883 0
M  V30 2695 C 265.709 0.39942 -3.55161 0
M  V30 2696 C 265.375 -0.81172 -4.43533 0
M  V30 2697 C 264.037 -1.14387 -4.67407 0
M  V30 2698 C 266.389 -1.61976 -4.95392 0
M  V30 2699 C 263.717 -2.28477 -5.40384 0
M  V30 2700 C 266.069 -2.75164 -5.6962 0
M  V30 2701 C 264.733 -3.08835 -5.91758 0
M  V30 2702 H 264.003 0.0481244 -0.739436 0
M  V30 2703 H 266.65 -0.58238 -1.8243 0
M  V30 2704 H 264.955 1.19519 -3.73125 0
M  V30 2705 H 266.652 0.85157 -3.91854 0
M  V30 2706 H 263.242 -0.542898 -4.25148 0
M  V30 2707 H 267.426 -1.37637 -4.76833 0
M  V30 2708 H 262.682 -2.5488 -5.55739 0
M  V30 2709 H 266.856 -3.38147 -6.08793 0
M  V30 2710 H 264.483 -3.97353 -6.48086 0
M  V30 2711 N 266.058 1.56714 -0.166846 0
M  V30 2712 C 267.335 1.88412 0.525373 0
M  V30 2713 C 267.715 1.07602 1.81618 0
M  V30 2714 O 267.063 0.168621 2.27877 0
M  V30 2715 C 267.273 3.40363 0.771613 0
M  V30 2716 C 268.621 4.10007 1.1036 0
M  V30 2717 O 269.645 3.45655 0.860304 0
M  V30 2718 O 268.504 5.2369 1.56239 0
M  V30 2719 H 265.598 0.781587 0.270278 0
M  V30 2720 H 268.144 1.68458 -0.204946 0
M  V30 2721 H 266.916 3.91046 -0.141093 0
M  V30 2722 H 266.539 3.65914 1.55541 0
M  V30 2723 N 267.536 -0.106894 1.57237 0
M  V30 2724 C 268.469 -1.16125 1.96444 0
M  V30 2725 C 269.447 -1.3947 0.835871 0
M  V30 2726 O 270.631 -1.53425 1.09513 0
M  V30 2727 C 267.758 -2.51277 2.27107 0
M  V30 2728 C 266.804 -2.44285 3.4961 0
M  V30 2729 S 267.637 -1.87077 5.01759 0
M  V30 2730 C 268.793 -3.23877 5.35588 0
M  V30 2731 H 269.026 -0.826971 2.85567 0
M  V30 2732 H 266.559 -0.314124 1.51171 0
M  V30 2733 H 268.517 -3.29035 2.45451 0
M  V30 2734 H 267.178 -2.81879 1.38576 0
M  V30 2735 H 266.371 -3.4387 3.68469 0
M  V30 2736 H 265.973 -1.74652 3.30715 0
M  V30 2737 H 268.265 -4.20122 5.31511 0
M  V30 2738 H 269.208 -3.09833 6.36717 0
M  V30 2739 H 269.616 -3.22864 4.63054 0
M  V30 2740 N 269.014 -1.53014 -0.377408 0
M  V30 2741 C 270.26 -1.68872 -1.12294 0
M  V30 2742 C 270.593 -0.433224 -1.89306 0
M  V30 2743 O 269.868 0.569258 -1.85983 0
M  V30 2744 C 270.151 -2.93115 -2.09179 0
M  V30 2745 C 270.004 -4.28794 -1.35853 0
M  V30 2746 C 271.323 -3.12928 -3.09458 0
M  V30 2747 H 268.442 -0.614518 -0.406862 0
M  V30 2748 H 271.084 -1.85633 -0.40503 0
M  V30 2749 H 269.234 -2.78956 -2.70399 0
M  V30 2750 H 270.906 -4.54742 -0.775082 0
M  V30 2751 H 269.149 -4.28744 -0.660364 0
M  V30 2752 H 269.82 -5.11837 -2.06706 0
M  V30 2753 H 272.296 -3.26194 -2.58334 0
M  V30 2754 H 271.172 -4.01316 -3.74482 0
M  V30 2755 H 271.433 -2.27669 -3.78971 0
M  V30 2756 N 270.492 0.636531 -1.44174 0
M  V30 2757 C 271.402 1.77754 -1.53103 0
M  V30 2758 C 272.418 1.68928 -0.417034 0
M  V30 2759 O 273.594 1.89801 -0.6736 0
M  V30 2760 C 270.659 3.14115 -1.46741 0
M  V30 2761 C 269.72 3.34612 -2.68948 0
M  V30 2762 C 268.953 4.64467 -2.6288 0
M  V30 2763 O 269.176 5.44919 -1.68581 0
M  V30 2764 O 268.11 4.87049 -3.53648 0
M  V30 2765 H 271.936 1.73174 -2.49489 0
M  V30 2766 H 269.521 0.79709 -1.2636 0
M  V30 2767 H 271.403 3.95412 -1.45696 0
M  V30 2768 H 270.078 3.19249 -0.534975 0
M  V30 2769 H 268.985 2.53014 -2.75562 0
M  V30 2770 H 270.318 3.34336 -3.61221 0
M  V30 2771 N 271.97 1.30982 0.876444 0
M  V30 2772 C 273.216 1.20474 1.63138 0
M  V30 2773 C 273.549 -0.238096 1.92735 0
M  V30 2774 O 272.824 -1.1692 1.55435 0
M  V30 2775 C 273.107 2.04244 2.96574 0
M  V30 2776 C 272.96 3.56793 2.73896 0
M  V30 2777 C 274.279 1.88684 3.97601 0
M  V30 2778 H 271.398 0.439001 0.591985 0
M  V30 2779 H 274.04 1.60704 1.01361 0
M  V30 2780 H 272.19 1.70063 3.493 0
M  V30 2781 H 273.862 4.01077 2.27892 0
M  V30 2782 H 272.105 3.80548 2.08245 0
M  V30 2783 H 272.776 4.10706 3.68815 0
M  V30 2784 H 275.252 2.18584 3.54062 0
M  V30 2785 H 274.128 2.4961 4.88862 0
M  V30 2786 H 274.389 0.848343 4.33884 0
M  V30 2787 N 273.449 -1.08991 1.13837 0
M  V30 2788 C 274.399 -2.1393 0.788535 0
M  V30 2789 C 275.383 -1.59396 -0.219516 0
M  V30 2790 O 276.575 -1.76985 -0.0227557 0
M  V30 2791 C 273.704 -3.42305 0.261147 0
M  V30 2792 C 272.79 -4.03736 1.29837 0
M  V30 2793 N 273.181 -4.39659 2.50067 0
M  V30 2794 C 271.479 -4.30993 1.1472 0
M  V30 2795 C 272.18 -4.88113 3.16419 0
M  V30 2796 N 271.156 -4.85846 2.43832 0
M  V30 2797 H 274.958 -2.39516 1.70322 0
M  V30 2798 H 272.472 -1.26263 1.02134 0
M  V30 2799 H 274.469 -4.16899 -0.0077405 0
M  V30 2800 H 273.129 -3.18172 -0.647805 0
M  V30 2801 H 274.14 -4.30878 2.8734 0
M  V30 2802 H 270.817 -4.16444 0.296773 0
M  V30 2803 H 272.207 -5.25336 4.18894 0
M  V30 2804 N 274.927 -0.932562 -1.27047 0
M  V30 2805 C 275.89 -0.440064 -2.24936 0
M  V30 2806 C 276.89 0.444071 -1.54547 0
M  V30 2807 O 278.08 0.244465 -1.72476 0
M  V30 2808 C 275.212 0.36678 -3.38921 0
M  V30 2809 H 276.405 -1.305 -2.70018 0
M  V30 2810 H 273.958 -0.713707 -1.39054 0
M  V30 2811 H 274.693 1.25033 -2.99228 0
M  V30 2812 H 274.478 -0.267204 -3.91188 0
M  V30 2813 H 275.968 0.701567 -4.11665 0
M  V30 2814 N 276.405 1.4127 -0.698611 0
M  V30 2815 C 277.368 2.29158 -0.044132 0
M  V30 2816 C 278.368 1.44529 0.704841 0
M  V30 2817 O 279.558 1.65643 0.539276 0
M  V30 2818 C 276.69 3.27459 0.947809 0
M  V30 2819 H 277.883 2.88529 -0.817994 0
M  V30 2820 H 275.436 1.49307 -0.46228 0
M  V30 2821 H 276.171 2.73073 1.74933 0
M  V30 2822 H 275.956 3.8991 0.41385 0
M  V30 2823 H 277.446 3.93311 1.40344 0
M  V30 2824 N 277.883 0.443576 1.51229 0
M  V30 2825 C 278.831 -0.37904 2.29491 0
M  V30 2826 C 279.825 -1.0153 1.35603 0
M  V30 2827 O 281.031 -0.94955 1.52917 0
M  V30 2828 H 277.406 -0.141053 0.738653 0
M  V30 2829 H 279.377 0.301799 2.9687 0
M  V30 2830 C 278.126 -1.46426 3.15364 0
M  V30 2831 H 277.449 -0.984037 3.87501 0
M  V30 2832 H 278.889 -2.01297 3.7317 0
M  V30 2833 C 277.348 -2.45099 2.31146 0
M  V30 2834 O 277.878 -3.49773 1.9754 0
M  V30 2835 N 276.084 -2.16139 1.94249 0
M  V30 2836 H 275.631 -1.31044 2.21777 0
M  V30 2837 H 275.589 -2.82398 1.38198 0
M  V30 2838 N 279.361 -1.56624 0.175154 0
M  V30 2839 C 280.324 -2.16934 -0.739738 0
M  V30 2840 C 281.324 -1.11842 -1.15533 0
M  V30 2841 O 282.514 -1.37335 -1.07167 0
M  V30 2842 C 279.646 -2.75531 -2.00738 0
M  V30 2843 H 280.839 -2.99131 -0.214639 0
M  V30 2844 H 278.392 -1.56123 -0.0744197 0
M  V30 2845 H 279.127 -1.97078 -2.57548 0
M  V30 2846 H 278.912 -3.52444 -1.71831 0
M  V30 2847 H 280.402 -3.21904 -2.66021 0
M  V30 2848 N 280.839 0.0985539 -1.57292 0
M  V30 2849 C 282.079 0.808332 -1.87737 0
M  V30 2850 C 282.443 1.7607 -0.76572 0
M  V30 2851 O 283.644 2.51358 -0.952499 0
M  V30 2852 C 281.915 1.52093 -3.23423 0
M  V30 2853 S 283.474 2.26947 -3.75554 0
M  V30 2854 H 280.292 0.269377 -0.657995 0
M  V30 2855 H 282.894 0.0656269 -1.9539 0
M  V30 2856 H 281.598 0.81363 -4.02254 0
M  V30 2857 H 281.129 2.30361 -3.189 0
M  V30 2858 H 283.144 3.53027 -3.48692 0
M  V30 2859 N 282.317 1.53212 0.369288 0
M  V30 2860 C 283.247 1.82365 1.45826 0
M  V30 2861 C 284.228 0.676907 1.56051 0
M  V30 2862 O 285.413 0.926401 1.70679 0
M  V30 2863 C 282.543 2.01023 2.83208 0
M  V30 2864 C 281.497 3.1678 2.8781 0
M  V30 2865 C 280.823 3.20724 4.27832 0
M  V30 2866 C 282.123 4.55447 2.55667 0
M  V30 2867 H 283.817 2.73559 1.21678 0
M  V30 2868 H 281.363 1.3163 0.583911 0
M  V30 2869 H 283.316 2.20001 3.59413 0
M  V30 2870 H 282.04 1.06536 3.08736 0
M  V30 2871 H 280.699 2.97616 2.14056 0
M  V30 2872 H 280.347 2.23882 4.50429 0
M  V30 2873 H 280.047 3.98496 4.31827 0
M  V30 2874 H 281.571 3.41881 5.05915 0
M  V30 2875 H 282.985 4.74611 3.21586 0
M  V30 2876 H 281.382 5.35432 2.70984 0
M  V30 2877 H 282.452 4.60812 1.5093 0
M  V30 2878 N 283.795 -0.628877 1.44509 0
M  V30 2879 C 285.206 -1.21054 1.42137 0
M  V30 2880 C 285.557 -1.95715 0.137881 0
M  V30 2881 O 284.682 -2.02554 -0.761645 0
M  V30 2882 C 285.277 -2.20189 2.57493 0
M  V30 2883 C 283.836 -2.73777 2.58308 0
M  V30 2884 C 282.983 -1.48813 2.33987 0
M  V30 2885 H 285.934 -0.41942 1.53057 0
M  V30 2886 H 285.955 -3.02833 2.30375 0
M  V30 2887 H 285.467 -1.6582 3.50892 0
M  V30 2888 H 283.568 -3.32142 1.68856 0
M  V30 2889 H 283.681 -3.19662 3.56865 0
M  V30 2890 H 282.045 -1.77024 1.83124 0
M  V30 2891 H 282.828 -0.963442 3.29504 0
M  V30 2892 N 285.273 -1.31445 -0.869486 0
M  V30 2893 C 286.221 -1.19067 -1.99814 0
M  V30 2894 C 287.215 -0.0988569 -1.69111 0
M  V30 2895 O 288.421 -0.260781 -1.78101 0
M  V30 2896 H 284.796 -0.368677 -0.655425 0
M  V30 2897 H 286.767 -2.14555 -2.07385 0
M  V30 2898 C 285.516 -0.915323 -3.35436 0
M  V30 2899 H 284.839 -1.74759 -3.59582 0
M  V30 2900 H 286.279 -0.868895 -4.15001 0
M  V30 2901 C 284.738 0.381928 -3.34728 0
M  V30 2902 O 285.268 1.39857 -3.76567 0
M  V30 2903 N 283.474 0.398633 -2.87853 0
M  V30 2904 H 283.021 -0.429186 -2.54 0
M  V30 2905 H 282.979 1.26651 -2.87762 0
M  V30 2906 N 286.751 1.08385 -1.14413 0
M  V30 2907 C 287.683 2.1519 -0.789036 0
M  V30 2908 C 288.696 1.61638 0.19417 0
M  V30 2909 O 289.885 1.78479 -0.0275711 0
M  V30 2910 C 286.985 3.38565 -0.15058 0
M  V30 2911 C 286.158 4.21501 -1.16857 0
M  V30 2912 C 285.217 5.23277 -0.553832 0
M  V30 2913 O 284.243 5.56041 -1.21686 0
M  V30 2914 N 285.445 5.76629 0.669296 0
M  V30 2915 H 288.21 2.46257 -1.70814 0
M  V30 2916 H 285.771 1.24198 -1.03858 0
M  V30 2917 H 287.763 4.03777 0.273181 0
M  V30 2918 H 286.333 3.05299 0.671667 0
M  V30 2919 H 285.553 3.52265 -1.76926 0
M  V30 2920 H 286.841 4.73731 -1.85624 0
M  V30 2921 H 286.239 5.52243 1.22654 0
M  V30 2922 H 284.796 6.43521 1.03556 0
M  V30 2923 N 288.23 0.939286 1.26551 0
M  V30 2924 C 289.477 0.585847 1.9384 0
M  V30 2925 C 289.805 -0.874784 1.73718 0
M  V30 2926 O 289.06 -1.64092 1.06642 0
M  V30 2927 C 289.359 0.872106 3.46596 0
M  V30 2928 C 289.025 2.31632 3.86856 0
M  V30 2929 C 287.687 2.71111 3.97558 0
M  V30 2930 C 290.039 3.25494 4.07066 0
M  V30 2931 C 287.367 4.03553 4.25866 0
M  V30 2932 C 289.719 4.57531 4.36862 0
M  V30 2933 C 288.383 4.96828 4.45778 0
M  V30 2934 H 287.653 0.214377 0.709312 0
M  V30 2935 H 290.3 1.18544 1.50398 0
M  V30 2936 H 288.605 0.18996 3.91339 0
M  V30 2937 H 290.302 0.577442 3.96821 0
M  V30 2938 H 286.892 2.00008 3.79071 0
M  V30 2939 H 291.076 2.9619 3.98227 0
M  V30 2940 H 286.332 4.33665 4.30981 0
M  V30 2941 H 290.506 5.30254 4.51446 0
M  V30 2942 H 288.133 5.99482 4.67468 0
M  V30 2943 N 289.708 -1.40897 0.706093 0
M  V30 2944 C 290.638 -2.33418 0.0620085 0
M  V30 2945 C 291.619 -1.52385 -0.755827 0
M  V30 2946 O 292.804 -1.80886 -0.706674 0
M  V30 2947 C 289.934 -3.36293 -0.867445 0
M  V30 2948 C 288.888 -4.27716 -0.155932 0
M  V30 2949 C 288.214 -5.2105 -1.20046 0
M  V30 2950 C 289.514 -5.12944 0.984149 0
M  V30 2951 H 291.208 -2.87527 0.83477 0
M  V30 2952 H 288.754 -1.38249 0.402875 0
M  V30 2953 H 290.707 -3.99949 -1.32735 0
M  V30 2954 H 289.431 -2.80556 -1.67199 0
M  V30 2955 H 288.09 -3.65498 0.284047 0
M  V30 2956 H 287.738 -4.61624 -1.99781 0
M  V30 2957 H 287.438 -5.83056 -0.729328 0
M  V30 2958 H 288.962 -5.87584 -1.66066 0
M  V30 2959 H 290.376 -5.70109 0.604048 0
M  V30 2960 H 288.773 -5.83945 1.38304 0
M  V30 2961 H 289.843 -4.49485 1.81911 0
M  V30 2962 N 291.186 -0.45159 -1.50991 0
M  V30 2963 C 292.149 0.341117 -2.26647 0
M  V30 2964 C 293.149 0.937422 -1.30649 0
M  V30 2965 O 294.339 0.809644 -1.54241 0
M  V30 2966 C 291.471 1.48398 -3.06905 0
M  V30 2967 H 292.664 -0.322117 -2.98165 0
M  V30 2968 H 290.217 -0.205122 -1.54948 0
M  V30 2969 H 290.952 2.18284 -2.39838 0
M  V30 2970 H 290.737 1.06241 -3.77432 0
M  V30 2971 H 292.227 2.04367 -3.64176 0
M  V30 2972 N 292.664 1.56529 -0.183458 0
M  V30 2973 C 293.892 2.01623 0.464285 0
M  V30 2974 C 294.307 1.06366 1.55986 0
M  V30 2975 O 293.664 0.0665398 1.82379 0
M  V30 2976 C 293.715 3.46475 1.03139 0
M  V30 2977 O 293.436 4.38095 -0.0204675 0
M  V30 2978 C 294.937 4.0703 1.75617 0
M  V30 2979 H 292.157 0.660596 0.117704 0
M  V30 2980 H 294.701 2.02451 -0.288751 0
M  V30 2981 H 292.856 3.46383 1.73486 0
M  V30 2982 H 293.27 5.22973 0.399952 0
M  V30 2983 H 294.744 5.10271 2.10542 0
M  V30 2984 H 295.221 3.49819 2.65563 0
M  V30 2985 H 295.827 4.1086 1.09882 0
M  V30 2986 N 294.142 -0.090211 1.57342 0
M  V30 2987 C 295.39 -0.791241 1.85967 0
M  V30 2988 C 295.711 -1.7903 0.772859 0
M  V30 2989 O 294.981 -1.94872 -0.200398 0
M  V30 2990 H 293.561 -0.295205 0.686195 0
M  V30 2991 H 296.223 -0.0706782 1.94772 0
M  V30 2992 H 295.319 -1.31882 2.82867 0
M  V30 2993 N 295.62 -1.53406 -0.361157 0
M  V30 2994 C 296.848 -1.73717 -1.12383 0
M  V30 2995 C 297.263 -0.468161 -1.82904 0
M  V30 2996 O 296.62 0.559198 -1.73722 0
M  V30 2997 C 296.671 -2.90558 -2.15078 0
M  V30 2998 O 296.392 -4.12549 -1.47428 0
M  V30 2999 C 297.893 -3.22777 -3.03858 0
M  V30 3000 H 295.113 -0.580896 -0.335858 0
M  V30 3001 H 297.657 -2.00167 -0.418728 0
M  V30 3002 H 295.812 -2.66489 -2.8118 0
M  V30 3003 H 296.226 -4.78009 -2.15887 0
M  V30 3004 H 297.7 -4.07927 -3.71887 0
M  V30 3005 H 298.177 -2.38329 -3.68912 0
M  V30 3006 H 298.783 -3.48787 -2.43367 0
M  V30 3007 N 297.098 0.621204 -1.44841 0
M  V30 3008 C 298.046 1.75385 -1.52784 0
M  V30 3009 C 299.04 1.64639 -0.398779 0
M  V30 3010 O 300.246 1.70598 -0.574137 0
M  V30 3011 H 296.621 0.579193 -0.479625 0
M  V30 3012 H 298.592 1.6581 -2.48092 0
M  V30 3013 C 297.341 3.13742 -1.4987 0
M  V30 3014 H 296.664 3.22663 -2.36069 0
M  V30 3015 H 298.104 3.92861 -1.59487 0
M  V30 3016 C 296.563 3.36175 -0.220973 0
M  V30 3017 O 297.093 3.95469 0.704782 0
M  V30 3018 N 295.299 2.90348 -0.120963 0
M  V30 3019 H 294.846 2.42278 -0.875162 0
M  V30 3020 H 294.804 3.05732 0.733168 0
M  V30 3021 N 298.576 1.31904 0.862503 0
M  V30 3022 C 299.992 1.10724 1.14945 0
M  V30 3023 C 300.192 -0.117421 2.01158 0
M  V30 3024 O 299.248 -0.804595 2.39338 0
M  V30 3025 C 300.561 2.38267 1.83437 0
M  V30 3026 C 302.109 2.43949 1.96106 0
M  V30 3027 C 302.584 3.71394 2.68013 0
M  V30 3028 N 304.075 3.72331 2.75543 0
M  V30 3029 C 304.81 4.67641 3.31812 0
M  V30 3030 N 304.306 5.73313 3.88953 0
M  V30 3031 N 306.099 4.5515 3.29841 0
M  V30 3032 H 298.25 2.10436 0.288191 0
M  V30 3033 H 300.513 0.928705 0.190292 0
M  V30 3034 H 300.219 3.27759 1.27542 0
M  V30 3035 H 300.093 2.48633 2.83657 0
M  V30 3036 H 302.48 1.54922 2.51164 0
M  V30 3037 H 302.561 2.37543 0.949059 0
M  V30 3038 H 302.205 4.60791 2.13621 0
M  V30 3039 H 302.135 3.75069 3.69636 0
M  V30 3040 H 304.626 2.95947 2.34997 0
M  V30 3041 H 304.939 6.42107 4.30022 0
M  V30 3042 H 303.284 5.77077 3.87308 0
M  V30 3043 H 306.475 3.71766 2.84443 0
M  V30 3044 H 306.648 5.29604 3.73394 0
M  V30 3045 N 300.054 -1.07777 1.14986 0
M  V30 3046 C 301.47 -1.32373 0.891596 0
M  V30 3047 C 301.67 -1.9609 -0.463788 0
M  V30 3048 O 300.726 -2.21801 -1.20667 0
M  V30 3049 C 302.039 -2.21905 2.02925 0
M  V30 3050 C 303.587 -2.35367 2.06329 0
M  V30 3051 C 304.062 -3.28245 3.19405 0
M  V30 3052 N 305.553 -3.35824 3.19024 0
M  V30 3053 C 306.288 -4.07739 4.03158 0
M  V30 3054 N 305.784 -4.82306 4.97346 0
M  V30 3055 N 307.577 -4.03635 3.91197 0
M  V30 3056 H 299.728 -0.648039 2.02273 0
M  V30 3057 H 301.991 -0.348149 0.881757 0
M  V30 3058 H 301.697 -1.82342 3.0074 0
M  V30 3059 H 301.571 -3.22407 1.95789 0
M  V30 3060 H 303.958 -2.74186 1.09116 0
M  V30 3061 H 304.039 -1.34585 2.17533 0
M  V30 3062 H 303.683 -2.90146 4.16867 0
M  V30 3063 H 303.613 -4.28971 3.05437 0
M  V30 3064 H 306.104 -2.8267 2.50811 0
M  V30 3065 H 306.417 -5.34661 5.57994 0
M  V30 3066 H 304.762 -4.81337 5.01338 0
M  V30 3067 H 307.953 -3.44491 3.16928 0
M  V30 3068 H 308.126 -4.59417 4.5699 0
M  V30 3069 N 301.532 -0.945985 -1.26051 0
M  V30 3070 C 302.76 -0.613025 -1.9761 0
M  V30 3071 C 303.175 0.813035 -1.70397 0
M  V30 3072 O 302.532 1.54274 -0.974979 0
M  V30 3073 C 302.583 -0.85159 -3.51326 0
M  V30 3074 O 302.304 -2.22157 -3.77595 0
M  V30 3075 C 303.805 -0.529831 -4.40122 0
M  V30 3076 H 301.025 -0.230593 -0.630133 0
M  V30 3077 H 303.569 -1.268 -1.60443 0
M  V30 3078 H 301.724 -0.243151 -3.86636 0
M  V30 3079 H 302.138 -2.2852 -4.721 0
M  V30 3080 H 303.612 -0.747348 -5.46917 0
M  V30 3081 H 304.089 0.535341 -4.35925 0
M  V30 3082 H 304.695 -1.11721 -4.10364 0
M  V30 3083 N 303.011 1.40521 -0.713556 0
M  V30 3084 C 304.288 1.94775 -0.17943 0
M  V30 3085 C 304.668 1.65184 1.31444 0
M  V30 3086 O 304.016 0.968429 2.06963 0
M  V30 3087 C 304.226 3.45543 -0.489986 0
M  V30 3088 C 305.574 4.22442 -0.427536 0
M  V30 3089 O 306.598 3.53644 -0.425929 0
M  V30 3090 O 305.457 5.4501 -0.403292 0
M  V30 3091 H 302.551 0.826606 -0.0255192 0
M  V30 3092 H 305.097 1.5014 -0.790949 0
M  V30 3093 H 303.869 3.60432 -1.5233 0
M  V30 3094 H 303.492 3.97311 0.151598 0
M  V30 3095 N 304.489 0.459591 1.5075 0
M  V30 3096 C 305.421 -0.37665 2.26084 0
M  V30 3097 C 306.434 -0.967109 1.30961 0
M  V30 3098 O 307.623 -0.857468 1.56556 0
M  V30 3099 C 304.723 -1.54112 3.01832 0
M  V30 3100 C 303.896 -1.06553 4.24223 0
M  V30 3101 C 302.955 -2.1027 4.82362 0
M  V30 3102 O 301.981 -1.68798 5.43595 0
M  V30 3103 N 303.183 -3.42974 4.68347 0
M  V30 3104 H 305.948 0.269124 2.98489 0
M  V30 3105 H 303.509 0.28972 1.59287 0
M  V30 3106 H 305.501 -2.23165 3.37608 0
M  V30 3107 H 304.071 -2.0918 2.32298 0
M  V30 3108 H 303.291 -0.201274 3.93686 0
M  V30 3109 H 304.579 -0.725516 5.03601 0
M  V30 3110 H 303.977 -3.79385 4.19623 0
M  V30 3111 H 302.534 -4.07858 5.08424 0
M  V30 3112 N 305.967 -1.56429 0.191757 0
M  V30 3113 C 307.197 -2.01574 -0.452928 0
M  V30 3114 C 307.605 -1.07107 -1.55964 0
M  V30 3115 O 306.948 -0.067534 -1.83576 0
M  V30 3116 C 307.01 -3.43121 -1.07278 0
M  V30 3117 C 306.674 -4.56879 -0.105214 0
M  V30 3118 C 307.671 -5.15379 0.684149 0
M  V30 3119 C 305.356 -5.023 0.00489824 0
M  V30 3120 C 307.35 -6.17746 1.57062 0
M  V30 3121 C 305.037 -6.04511 0.894935 0
M  V30 3122 C 306.035 -6.62108 1.67637 0
M  V30 3123 O 305.723 -7.62335 2.55149 0
M  V30 3124 H 305.455 -0.665554 -0.118379 0
M  V30 3125 H 308.009 -2.03245 0.296737 0
M  V30 3126 H 306.239 -3.38425 -1.87097 0
M  V30 3127 H 307.928 -3.72093 -1.62177 0
M  V30 3128 H 308.694 -4.81157 0.609365 0
M  V30 3129 H 304.573 -4.57168 -0.593156 0
M  V30 3130 H 308.117 -6.6263 2.181 0
M  V30 3131 H 304.014 -6.38157 0.970847 0
M  V30 3132 H 304.782 -7.79741 2.48892 0
M  V30 3133 N 307.445 0.0818655 -1.57387 0
M  V30 3134 C 308.693 0.781368 -1.86384 0
M  V30 3135 C 309.014 1.78618 -0.782342 0
M  V30 3136 O 308.284 1.94976 0.190061 0
M  V30 3137 H 306.864 0.291562 -0.687751 0
M  V30 3138 H 309.526 0.060348 -1.94807 0
M  V30 3139 H 308.622 1.3038 -2.83562 0
M  V30 3140 N 308.923 1.53595 0.353017 0
M  V30 3141 C 310.171 1.70049 1.09215 0
M  V30 3142 C 310.492 0.461406 1.89463 0
M  V30 3143 O 309.762 -0.524633 1.88744 0
M  V30 3144 H 308.342 0.626912 0.40619 0
M  V30 3145 H 311.004 1.90822 0.396585 0
M  V30 3146 H 310.1 2.56718 1.77488 0
M  V30 3147 N 310.401 -0.613514 1.45168 0
M  V30 3148 C 311.626 -1.40437 1.52618 0
M  V30 3149 C 312.051 -1.87438 0.157707 0
M  V30 3150 O 311.409 -1.59791 -0.856537 0
M  V30 3151 C 311.457 -2.58894 2.51011 0
M  V30 3152 O 310.561 -3.59326 2.02382 0
M  V30 3153 H 309.902 -0.419506 0.514695 0
M  V30 3154 H 312.432 -0.747215 1.90467 0
M  V30 3155 H 312.442 -3.06214 2.69624 0
M  V30 3156 H 311.117 -2.24032 3.50403 0
M  V30 3157 H 309.694 -3.18695 1.93618 0
M  V30 3158 N 311.879 -1.3236 -0.855495 0
M  V30 3159 C 313.128 -1.22226 -1.60448 0
M  V30 3160 C 313.441 0.214733 -1.94418 0
M  V30 3161 O 314.647 0.437917 -2.67945 0
M  V30 3162 C 313.103 -2.14063 -2.89318 0
M  V30 3163 C 312.711 -3.62839 -2.62777 0
M  V30 3164 C 314.455 -2.12764 -3.67331 0
M  V30 3165 C 312.362 -4.4664 -3.87643 0
M  V30 3166 H 311.292 -0.453904 -0.602069 0
M  V30 3167 H 313.943 -1.57314 -0.944698 0
M  V30 3168 H 312.325 -1.71889 -3.5675 0
M  V30 3169 H 313.499 -4.1335 -2.03662 0
M  V30 3170 H 311.814 -3.66261 -1.98096 0
M  V30 3171 H 314.411 -2.72611 -4.59987 0
M  V30 3172 H 314.754 -1.11841 -4.00995 0
M  V30 3173 H 315.287 -2.53214 -3.06802 0
M  V30 3174 H 312.026 -5.48373 -3.5912 0
M  V30 3175 H 311.546 -4.0088 -4.46156 0
M  V30 3176 H 313.225 -4.59597 -4.55389 0
M  V30 3177 N 313.357 1.07166 -1.15556 0
M  V30 3178 C 314.267 2.17947 -0.868116 0
M  V30 3179 C 315.283 1.73297 0.156297 0
M  V30 3180 O 316.459 2.01392 -0.0182327 0
M  V30 3181 C 313.524 3.44789 -0.36355 0
M  V30 3182 C 312.585 4.03996 -1.45209 0
M  V30 3183 C 311.818 5.24783 -0.971508 0
M  V30 3184 O 312.041 5.70109 0.182194 0
M  V30 3185 O 310.975 5.75715 -1.75603 0
M  V30 3186 H 314.801 2.4503 -1.79427 0
M  V30 3187 H 312.386 1.16539 -0.934824 0
M  V30 3188 H 314.268 4.21307 -0.0887113 0
M  V30 3189 H 312.943 3.19253 0.534708 0
M  V30 3190 H 311.85 3.29009 -1.78056 0
M  V30 3191 H 313.183 4.33808 -2.32533 0
M  V30 3192 N 314.835 0.952656 1.25548 0
M  V30 3193 C 315.783 0.462354 2.27958 0
M  V30 3194 C 316.777 -0.46634 1.62855 0
M  V30 3195 O 317.983 -0.343287 1.76696 0
M  V30 3196 H 314.358 0.13101 0.7405 0
M  V30 3197 H 316.329 1.33839 2.66702 0
M  V30 3198 C 315.078 -0.24628 3.46827 0
M  V30 3199 H 314.401 0.459192 3.97154 0
M  V30 3200 H 315.841 -0.553393 4.20373 0
M  V30 3201 C 314.3 -1.4681 3.0323 0
M  V30 3202 O 314.83 -2.56591 3.09069 0
M  V30 3203 N 313.036 -1.32874 2.58443 0
M  V30 3204 H 312.583 -0.435536 2.53891 0
M  V30 3205 H 312.541 -2.14742 2.29637 0
M  V30 3206 N 316.313 -1.40141 0.720998 0
M  V30 3207 C 317.729 -1.54632 0.395113 0
M  V30 3208 C 317.929 -1.69115 -1.09555 0
M  V30 3209 O 316.985 -1.68377 -1.88163 0
M  V30 3210 C 318.298 -2.77177 1.1659 0
M  V30 3211 C 319.846 -2.91 1.15274 0
M  V30 3212 C 320.321 -4.16465 1.90579 0
M  V30 3213 N 321.812 -4.23476 1.87675 0
M  V30 3214 C 322.547 -5.19475 2.42762 0
M  V30 3215 N 322.043 -6.21348 3.06428 0
M  V30 3216 N 323.836 -5.11592 2.32874 0
M  V30 3217 H 315.987 -1.28986 1.68749 0
M  V30 3218 H 318.25 -0.62412 0.713567 0
M  V30 3219 H 317.956 -2.72771 2.22011 0
M  V30 3220 H 317.83 -3.69442 0.76108 0
M  V30 3221 H 320.217 -2.94907 0.106702 0
M  V30 3222 H 320.298 -1.99838 1.59682 0
M  V30 3223 H 319.942 -4.1332 2.95176 0
M  V30 3224 H 319.872 -5.06646 1.43587 0
M  V30 3225 H 322.363 -3.50497 1.41281 0
M  V30 3226 H 322.676 -6.91034 3.45965 0
M  V30 3227 H 321.021 -6.21777 3.10514 0
M  V30 3228 H 324.212 -4.30936 1.82789 0
M  V30 3229 H 324.385 -5.86233 2.76106 0
M  V30 3230 N 317.792 -0.46758 -1.50504 0
M  V30 3231 C 318.755 0.317059 -2.26996 0
M  V30 3232 C 319.755 0.923513 -1.31635 0
M  V30 3233 O 320.945 0.793239 -1.55091 0
M  V30 3234 C 318.077 1.45134 -3.08462 0
M  V30 3235 H 319.27 -0.353723 -2.97807 0
M  V30 3236 H 316.823 -0.221545 -1.54722 0
M  V30 3237 H 317.558 2.15728 -2.4214 0
M  V30 3238 H 317.343 1.02232 -3.78538 0
M  V30 3239 H 318.833 2.00493 -3.66323 0
M  V30 3240 N 319.27 1.56325 -0.20005 0
M  V30 3241 C 320.686 1.58839 0.155716 0
M  V30 3242 C 320.886 1.21636 1.60645 0
M  V30 3243 O 319.942 0.941437 2.34293 0
M  V30 3244 C 321.255 3.0032 -0.151124 0
M  V30 3245 C 322.803 3.12866 -0.0916284 0
M  V30 3246 C 323.278 4.56488 -0.371845 0
M  V30 3247 N 324.769 4.62089 -0.320641 0
M  V30 3248 C 325.504 5.71116 -0.511243 0
M  V30 3249 N 325 6.88592 -0.762461 0
M  V30 3250 N 326.793 5.60335 -0.445157 0
M  V30 3251 H 318.944 1.78788 -1.14668 0
M  V30 3252 H 321.207 0.829996 -0.458051 0
M  V30 3253 H 320.913 3.32117 -1.15721 0
M  V30 3254 H 320.787 3.73257 0.543986 0
M  V30 3255 H 323.174 2.80878 0.905065 0
M  V30 3256 H 323.255 2.42304 -0.81989 0
M  V30 3257 H 322.899 4.89189 -1.36588 0
M  V30 3258 H 322.829 5.25246 0.377362 0
M  V30 3259 H 325.32 3.77665 -0.13329 0
M  V30 3260 H 325.633 7.67581 -0.896576 0
M  V30 3261 H 323.978 6.90387 -0.799412 0
M  V30 3262 H 327.169 4.67436 -0.249278 0
M  V30 3263 H 327.342 6.45243 -0.597116 0
M  V30 3264 N 320.748 -0.0735177 1.57428 0
M  V30 3265 C 321.995 -0.772999 1.87166 0
M  V30 3266 C 322.323 -1.77665 0.791551 0
M  V30 3267 O 321.578 -1.94541 -0.212636 0
M  V30 3268 C 321.877 -1.51799 3.23561 0
M  V30 3269 C 321.543 -0.654484 4.46125 0
M  V30 3270 C 320.205 -0.416511 4.79394 0
M  V30 3271 C 322.557 -0.0555862 5.2117 0
M  V30 3272 C 319.885 0.429869 5.85123 0
M  V30 3273 C 322.237 0.778239 6.27795 0
M  V30 3274 C 320.901 1.0261 6.59566 0
M  V30 3275 H 320.171 -0.282861 0.684888 0
M  V30 3276 H 322.818 -0.0338272 1.9147 0
M  V30 3277 H 321.123 -2.32932 3.1504 0
M  V30 3278 H 322.82 -2.06397 3.43804 0
M  V30 3279 H 319.41 -0.850091 4.20085 0
M  V30 3280 H 323.594 -0.226558 4.95783 0
M  V30 3281 H 318.85 0.630665 6.08139 0
M  V30 3282 H 323.024 1.24906 6.85107 0
M  V30 3283 H 320.651 1.68371 7.4132 0
M  V30 3284 N 322.226 -1.5378 -0.344866 0
M  V30 3285 C 323.637 -1.62428 -0.920552 0
M  V30 3286 C 323.988 -0.504747 -1.89596 0
M  V30 3287 O 323.113 0.365711 -2.13287 0
M  V30 3288 C 323.708 -2.94419 -1.67639 0
M  V30 3289 C 322.267 -3.05333 -2.20111 0
M  V30 3290 C 321.414 -2.57866 -1.01982 0
M  V30 3291 H 324.365 -1.58222 -0.123042 0
M  V30 3292 H 324.386 -2.83384 -2.53917 0
M  V30 3293 H 323.898 -3.7588 -0.966224 0
M  V30 3294 H 321.999 -2.28502 -2.94308 0
M  V30 3295 H 322.112 -4.10778 -2.46573 0
M  V30 3296 H 320.476 -2.13241 -1.39285 0
M  V30 3297 H 321.259 -3.41765 -0.324308 0
M  V30 3298 N 323.704 0.605807 -1.45491 0
M  V30 3299 C 324.634 1.72709 -1.57143 0
M  V30 3300 C 325.615 1.6476 -0.422884 0
M  V30 3301 O 326.8 1.83132 -0.646247 0
M  V30 3302 C 323.93 3.11316 -1.53948 0
M  V30 3303 C 322.884 3.34077 -2.67537 0
M  V30 3304 C 322.21 4.72975 -2.49397 0
M  V30 3305 C 323.51 3.24158 -4.09535 0
M  V30 3306 H 325.204 1.63214 -2.51001 0
M  V30 3307 H 322.75 0.78379 -1.208 0
M  V30 3308 H 324.703 3.89557 -1.60696 0
M  V30 3309 H 323.427 3.21655 -0.566205 0
M  V30 3310 H 322.086 2.58227 -2.6022 0
M  V30 3311 H 321.734 4.8005 -1.50205 0
M  V30 3312 H 321.434 4.8916 -3.25571 0
M  V30 3313 H 322.958 5.53414 -2.58002 0
M  V30 3314 H 324.372 3.92271 -4.18086 0
M  V30 3315 H 322.769 3.51872 -4.86113 0
M  V30 3316 H 323.839 2.2157 -4.31317 0
M  V30 3317 N 325.182 1.32811 0.848464 0
M  V30 3318 C 326.092 1.24278 1.98978 0
M  V30 3319 C 327.108 0.155176 1.73307 0
M  V30 3320 O 328.284 0.376999 1.9784 0
M  V30 3321 C 325.349 0.972444 3.32783 0
M  V30 3322 C 324.41 2.14911 3.71634 0
M  V30 3323 C 323.643 1.89157 4.99054 0
M  V30 3324 O 323.866 0.837165 5.64223 0
M  V30 3325 O 322.8 2.75433 5.35183 0
M  V30 3326 H 326.626 2.20238 2.09115 0
M  V30 3327 H 324.211 1.12762 0.980052 0
M  V30 3328 H 326.093 0.838432 4.12975 0
M  V30 3329 H 324.768 0.043051 3.23671 0
M  V30 3330 H 323.675 2.33862 2.91992 0
M  V30 3331 H 325.008 3.06151 3.85399 0
M  V30 3332 N 326.66 -1.06551 1.16123 0
M  V30 3333 C 327.906 -1.79567 0.94252 0
M  V30 3334 C 328.239 -1.86869 -0.528547 0
M  V30 3335 O 327.514 -1.35838 -1.39206 0
M  V30 3336 C 327.797 -3.24195 1.56747 0
M  V30 3337 C 327.65 -3.24989 3.10969 0
M  V30 3338 C 328.969 -4.21678 1.25998 0
M  V30 3339 H 326.088 -0.651883 0.343828 0
M  V30 3340 H 328.73 -1.2463 1.43413 0
M  V30 3341 H 326.88 -3.71107 1.14942 0
M  V30 3342 H 328.552 -2.86258 3.61737 0
M  V30 3343 H 326.795 -2.63716 3.44436 0
M  V30 3344 H 327.466 -4.27005 3.49815 0
M  V30 3345 H 329.942 -3.83196 1.62174 0
M  V30 3346 H 328.818 -5.21146 1.7233 0
M  V30 3347 H 329.079 -4.4174 0.178367 0
M  V30 3348 N 328.138 -0.959301 -1.25041 0
M  V30 3349 C 329.384 -0.617525 -1.9317 0
M  V30 3350 C 329.717 0.843981 -1.74902 0
M  V30 3351 O 328.992 1.60615 -1.09696 0
M  V30 3352 C 329.275 -0.982736 -3.46431 0
M  V30 3353 C 329.128 -2.50032 -3.73904 0
M  V30 3354 C 330.447 -0.511176 -4.37121 0
M  V30 3355 H 327.566 -0.22582 -0.701552 0
M  V30 3356 H 330.208 -1.19679 -1.4757 0
M  V30 3357 H 328.358 -0.489806 -3.854 0
M  V30 3358 H 330.03 -3.06737 -3.44544 0
M  V30 3359 H 328.273 -2.93598 -3.19348 0
M  V30 3360 H 328.944 -2.70635 -4.81103 0
M  V30 3361 H 331.42 -0.934075 -4.0548 0
M  V30 3362 H 330.296 -0.795361 -5.43107 0
M  V30 3363 H 330.557 0.588834 -4.38161 0
M  V30 3364 N 329.616 1.39756 -0.72842 0
M  V30 3365 C 330.893 1.94574 -0.200079 0
M  V30 3366 C 331.273 1.66569 1.29684 0
M  V30 3367 O 330.621 0.990326 2.05924 0
M  V30 3368 C 330.831 3.45004 -0.526608 0
M  V30 3369 C 332.179 4.21965 -0.472318 0
M  V30 3370 O 333.203 3.53173 -0.463413 0
M  V30 3371 O 332.062 5.44552 -0.461075 0
M  V30 3372 H 329.156 0.826289 -0.0342851 0
M  V30 3373 H 331.702 1.49293 -0.806829 0
M  V30 3374 H 330.474 3.58796 -1.56144 0
M  V30 3375 H 330.097 3.97449 0.109449 0
M  V30 3376 N 331.094 0.475555 1.50254 0
M  V30 3377 C 332.057 -0.305016 2.27161 0
M  V30 3378 C 333.057 -0.916519 1.32123 0
M  V30 3379 O 334.247 -0.785003 1.5551 0
M  V30 3380 C 331.379 -1.43496 3.09227 0
M  V30 3381 H 332.572 0.369511 2.97615 0
M  V30 3382 H 330.125 0.229747 1.54602 0
M  V30 3383 H 330.86 -2.14441 2.43281 0
M  V30 3384 H 330.645 -1.00223 3.79075 0
M  V30 3385 H 332.135 -1.98548 3.67381 0
M  V30 3386 N 332.573 -1.56217 0.208337 0
M  V30 3387 C 333.819 -1.98242 -0.427552 0
M  V30 3388 C 334.152 -1.09554 -1.60348 0
M  V30 3389 O 333.427 -0.15035 -1.93918 0
M  V30 3390 C 333.71 -3.4931 -0.874907 0
M  V30 3391 C 333.563 -4.48773 0.303751 0
M  V30 3392 C 334.882 -4.04424 -1.73577 0
M  V30 3393 H 332.001 -0.720744 -0.153936 0
M  V30 3394 H 334.643 -1.87586 0.30192 0
M  V30 3395 H 332.793 -3.58522 -1.49648 0
M  V30 3396 H 334.465 -4.51586 0.941682 0
M  V30 3397 H 332.708 -4.23194 0.953375 0
M  V30 3398 H 333.379 -5.51976 -0.0519883 0
M  V30 3399 H 335.855 -3.98075 -1.21143 0
M  V30 3400 H 334.731 -5.1047 -2.01771 0
M  V30 3401 H 334.992 -3.50494 -2.69456 0
M  V30 3402 N 334.051 0.0651679 -1.57465 0
M  V30 3403 C 335.014 1.06117 -2.03155 0
M  V30 3404 C 336.014 1.31204 -0.929632 0
M  V30 3405 O 337.204 1.26813 -1.19432 0
M  V30 3406 C 334.336 2.4032 -2.41783 0
M  V30 3407 H 335.529 0.667231 -2.92383 0
M  V30 3408 H 333.082 0.311075 -1.53173 0
M  V30 3409 H 333.817 2.84532 -1.55601 0
M  V30 3410 H 333.602 2.23451 -3.22199 0
M  V30 3411 H 335.092 3.11898 -2.77685 0
M  V30 3412 N 335.529 1.53961 0.336706 0
M  V30 3413 C 336.439 1.85432 1.43708 0
M  V30 3414 C 337.455 0.745053 1.57242 0
M  V30 3415 O 338.631 1.03804 1.72588 0
M  V30 3416 C 335.696 2.06349 2.78605 0
M  V30 3417 C 334.757 3.30191 2.74358 0
M  V30 3418 C 333.99 3.50101 4.02822 0
M  V30 3419 O 334.213 2.7371 5.00439 0
M  V30 3420 O 333.147 4.43547 4.06878 0
M  V30 3421 H 336.973 2.78975 1.20028 0
M  V30 3422 H 334.558 1.39701 0.52952 0
M  V30 3423 H 336.44 2.21513 3.58483 0
M  V30 3424 H 335.115 1.15995 3.02203 0
M  V30 3425 H 334.022 3.20425 1.93078 0
M  V30 3426 H 335.355 4.2056 2.55715 0
M  V30 3427 N 337.007 -0.598083 1.45811 0
M  V30 3428 C 338.253 -1.35882 1.50545 0
M  V30 3429 C 338.586 -1.93616 0.150445 0
M  V30 3430 O 337.861 -1.75604 -0.83628 0
M  V30 3431 C 338.144 -2.49966 2.59208 0
M  V30 3432 C 337.997 -1.97367 4.04186 0
M  V30 3433 C 339.316 -3.52068 2.64076 0
M  V30 3434 H 336.435 -0.492717 0.548087 0
M  V30 3435 H 339.077 -0.673319 1.77669 0
M  V30 3436 H 337.227 -3.08443 2.3621 0
M  V30 3437 H 338.899 -1.43466 4.38423 0
M  V30 3438 H 337.142 -1.283 4.14393 0
M  V30 3439 H 337.813 -2.79649 4.75921 0
M  V30 3440 H 340.289 -3.03448 2.84708 0
M  V30 3441 H 339.165 -4.2937 3.41954 0
M  V30 3442 H 339.426 -4.08304 1.69531 0
M  V30 3443 N 338.485 -1.33259 -0.841409 0
M  V30 3444 C 339.732 -1.24572 -1.5965 0
M  V30 3445 C 340.06 0.189137 -1.93578 0
M  V30 3446 O 339.315 1.14566 -1.5866 0
M  V30 3447 C 339.614 -2.06381 -2.9179 0
M  V30 3448 C 339.28 -3.556 -2.77235 0
M  V30 3449 C 337.942 -3.96282 -2.72973 0
M  V30 3450 C 340.294 -4.50433 -2.62221 0
M  V30 3451 C 337.622 -5.30017 -2.51592 0
M  V30 3452 C 339.974 -5.84327 -2.42374 0
M  V30 3453 C 338.638 -6.24194 -2.36512 0
M  V30 3454 H 337.908 -0.455842 -0.5842 0
M  V30 3455 H 340.555 -1.6482 -0.975016 0
M  V30 3456 H 338.86 -1.58903 -3.5813 0
M  V30 3457 H 340.557 -1.97019 -3.49263 0
M  V30 3458 H 337.147 -3.23298 -2.81384 0
M  V30 3459 H 341.331 -4.19914 -2.64549 0
M  V30 3460 H 336.587 -5.59947 -2.45499 0
M  V30 3461 H 340.761 -6.57414 -2.29739 0
M  V30 3462 H 338.388 -7.27759 -2.19706 0
M  V30 3463 N 339.963 1.05934 -1.16686 0
M  V30 3464 C 341.211 1.78447 -0.948744 0
M  V30 3465 C 341.532 1.87813 0.524523 0
M  V30 3466 O 340.802 1.38945 1.38098 0
M  V30 3467 H 339.382 0.660971 -0.348033 0
M  V30 3468 H 342.044 1.27947 -1.47022 0
M  V30 3469 H 341.14 2.80394 -1.37061 0
M  V30 3470 N 341.441 0.965919 1.2453 0
M  V30 3471 C 342.852 0.665929 1.7442 0
M  V30 3472 C 343.203 -0.818407 1.78316 0
M  V30 3473 O 342.328 -1.64037 1.41141 0
M  V30 3474 C 342.923 1.20211 3.16757 0
M  V30 3475 C 341.482 0.952059 3.6416 0
M  V30 3476 C 340.629 1.33848 2.42858 0
M  V30 3477 H 343.58 1.14144 1.10258 0
M  V30 3478 H 343.601 0.567544 3.76244 0
M  V30 3479 H 343.113 2.28244 3.13889 0
M  V30 3480 H 341.214 -0.112821 3.72429 0
M  V30 3481 H 341.327 1.59645 4.51719 0
M  V30 3482 H 339.691 0.756864 2.43195 0
M  V30 3483 H 340.474 2.42827 2.42673 0
M  V30 3484 N 342.919 -1.39368 0.735821 0
M  V30 3485 C 343.829 -2.34395 0.0979693 0
M  V30 3486 C 344.845 -1.58361 -0.720968 0
M  V30 3487 O 346.021 -1.90648 -0.649245 0
M  V30 3488 C 343.086 -3.37393 -0.797916 0
M  V30 3489 C 342.147 -4.29287 0.0333662 0
M  V30 3490 C 341.38 -5.27365 -0.819854 0
M  V30 3491 O 341.603 -5.31959 -2.05855 0
M  V30 3492 O 340.537 -6.01389 -0.248079 0
M  V30 3493 H 344.363 -2.90601 0.882315 0
M  V30 3494 H 341.948 -1.40909 0.4965 0
M  V30 3495 H 343.83 -4.00505 -1.31048 0
M  V30 3496 H 342.505 -2.83571 -1.56106 0
M  V30 3497 H 341.412 -3.69395 0.591475 0
M  V30 3498 H 342.745 -4.86317 0.758752 0
M  V30 3499 N 344.397 -0.483516 -1.5 0
M  V30 3500 C 345.813 -0.138404 -1.58999 0
M  V30 3501 C 346.013 1.35597 -1.4905 0
M  V30 3502 O 345.069 2.13039 -1.35539 0
M  V30 3503 C 346.382 -0.699658 -2.92447 0
M  V30 3504 C 347.93 -0.664195 -3.05872 0
M  V30 3505 C 348.405 -1.20321 -4.41913 0
M  V30 3506 N 349.896 -1.16315 -4.48358 0
M  V30 3507 C 350.631 -1.55058 -5.52037 0
M  V30 3508 N 350.127 -2.01311 -6.62907 0
M  V30 3509 N 351.92 -1.46584 -5.42651 0
M  V30 3510 H 344.071 -1.45529 -1.5471 0
M  V30 3511 H 346.334 -0.60258 -0.731848 0
M  V30 3512 H 346.04 -1.747 -3.05242 0
M  V30 3513 H 345.914 -0.150194 -3.76901 0
M  V30 3514 H 348.301 0.374272 -2.92717 0
M  V30 3515 H 348.382 -1.25061 -2.23144 0
M  V30 3516 H 348.026 -2.24037 -4.55818 0
M  V30 3517 H 347.956 -0.592896 -5.23252 0
M  V30 3518 H 350.447 -0.824058 -3.68806 0
M  V30 3519 H 350.76 -2.2899 -7.38095 0
M  V30 3520 H 349.105 -2.05273 -6.63994 0
M  V30 3521 H 352.296 -1.10281 -4.54924 0
M  V30 3522 H 352.469 -1.77103 -6.23329 0
M  V30 3523 N 345.875 1.56104 -0.216619 0
M  V30 3524 C 347.121 1.98466 0.417033 0
M  V30 3525 C 347.454 1.10403 1.59765 0
M  V30 3526 O 346.729 0.160632 1.93836 0
M  V30 3527 C 347.012 3.49769 0.85637 0
M  V30 3528 C 346.865 4.48606 -0.327546 0
M  V30 3529 C 348.184 4.05339 1.7143 0
M  V30 3530 H 345.303 0.721551 0.150112 0
M  V30 3531 H 347.945 1.87423 -0.311864 0
M  V30 3532 H 346.095 3.5931 1.47745 0
M  V30 3533 H 347.767 4.5108 -0.965618 0
M  V30 3534 H 346.01 4.22682 -0.975805 0
M  V30 3535 H 346.681 5.51995 0.0227149 0
M  V30 3536 H 349.157 3.98712 1.19031 0
M  V30 3537 H 348.033 5.11533 1.99061 0
M  V30 3538 H 348.294 3.51918 2.67593 0
M  V30 3539 N 347.353 -0.0568162 1.57498 0
M  V30 3540 C 348.601 -0.751617 1.87604 0
M  V30 3541 C 348.922 -1.77351 0.81066 0
M  V30 3542 O 348.192 -1.95254 -0.159018 0
M  V30 3543 H 346.772 -0.280583 0.692302 0
M  V30 3544 H 349.434 -0.0293483 1.94878 0
M  V30 3545 H 348.53 -1.25852 2.856 0
M  V30 3546 N 348.832 -1.54138 -0.328536 0
M  V30 3547 C 350.081 -1.71318 -1.06456 0
M  V30 3548 C 350.394 -0.491109 -1.89334 0
M  V30 3549 O 351.6 -0.54416 -2.65991 0
M  V30 3550 C 350.056 -3.03 -1.94214 0
M  V30 3551 C 349.664 -4.32595 -1.16471 0
M  V30 3552 C 351.408 -3.29544 -2.67583 0
M  V30 3553 C 349.315 -5.55341 -2.03347 0
M  V30 3554 H 348.245 -0.638429 -0.401155 0
M  V30 3555 H 350.896 -1.80633 -0.323106 0
M  V30 3556 H 349.278 -2.87579 -2.72239 0
M  V30 3557 H 350.452 -4.58766 -0.432525 0
M  V30 3558 H 348.767 -4.12777 -0.548063 0
M  V30 3559 H 351.364 -4.18444 -3.3288 0
M  V30 3560 H 351.707 -2.47206 -3.34955 0
M  V30 3561 H 352.24 -3.45809 -1.96623 0
M  V30 3562 H 348.979 -6.40268 -1.40491 0
M  V30 3563 H 348.499 -5.33397 -2.74313 0
M  V30 3564 H 350.178 -5.91557 -2.62049 0
M  V30 3565 N 350.31 0.590341 -1.46126 0
M  V30 3566 C 351.726 0.912917 -1.30912 0
M  V30 3567 C 351.926 1.99616 -0.274893 0
M  V30 3568 O 350.982 2.50397 0.325197 0
M  V30 3569 C 352.295 1.3375 -2.69317 0
M  V30 3570 C 353.843 1.45077 -2.77348 0
M  V30 3571 C 354.318 1.90904 -4.16317 0
M  V30 3572 N 355.809 1.9811 -4.18696 0
M  V30 3573 C 356.544 2.34828 -5.23109 0
M  V30 3574 N 356.04 2.70393 -6.37856 0
M  V30 3575 N 357.833 2.35317 -5.10473 0
M  V30 3576 H 349.984 -0.125358 -2.1203 0
M  V30 3577 H 352.247 0.00658481 -0.947977 0
M  V30 3578 H 351.953 0.615614 -3.4627 0
M  V30 3579 H 351.827 2.30058 -2.9892 0
M  V30 3580 H 354.214 2.16353 -2.00687 0
M  V30 3581 H 354.295 0.4704 -2.51438 0
M  V30 3582 H 353.939 1.20209 -4.9347 0
M  V30 3583 H 353.869 2.89886 -4.39629 0
M  V30 3584 H 356.36 1.73146 -3.359 0
M  V30 3585 H 356.673 2.97341 -7.13308 0
M  V30 3586 H 355.018 2.68048 -6.41229 0
M  V30 3587 H 358.209 2.0695 -4.19868 0
M  V30 3588 H 358.382 2.63605 -5.9196 0
M  V30 3589 N 351.788 1.33704 0.83433 0
M  V30 3590 C 352.718 1.26967 1.95963 0
M  V30 3591 C 353.699 0.149337 1.69443 0
M  V30 3592 O 354.884 0.339852 1.91203 0
M  V30 3593 C 352.014 1.01275 3.32206 0
M  V30 3594 C 350.968 2.09652 3.73136 0
M  V30 3595 C 350.294 1.69166 5.07235 0
M  V30 3596 C 351.594 3.51372 3.86439 0
M  V30 3597 H 353.288 2.2112 2.01857 0
M  V30 3598 H 350.834 1.06447 0.969793 0
M  V30 3599 H 352.787 0.952106 4.10503 0
M  V30 3600 H 351.511 0.0356203 3.26581 0
M  V30 3601 H 350.17 2.14766 2.97104 0
M  V30 3602 H 349.818 0.701437 4.98085 0
M  V30 3603 H 349.518 2.41694 5.35591 0
M  V30 3604 H 351.042 1.64576 5.88003 0
M  V30 3605 H 352.456 3.48734 4.55036 0
M  V30 3606 H 350.853 4.22425 4.26236 0
M  V30 3607 H 351.923 3.89546 2.88759 0
M  V30 3608 N 353.266 -1.05314 1.17247 0
M  V30 3609 C 354.494 -1.81971 0.984593 0
M  V30 3610 C 354.909 -1.82929 -0.467166 0
M  V30 3611 O 354.266 -1.25564 -1.32438 0
M  V30 3612 C 354.317 -3.28143 1.51672 0
M  V30 3613 O 354.038 -3.27347 2.91163 0
M  V30 3614 C 355.539 -4.21493 1.37326 0
M  V30 3615 H 352.759 -0.573455 0.348411 0
M  V30 3616 H 355.303 -1.32808 1.55506 0
M  V30 3617 H 353.458 -3.74582 0.988302 0
M  V30 3618 H 353.872 -4.18824 3.15732 0
M  V30 3619 H 355.346 -5.22043 1.79375 0
M  V30 3620 H 355.823 -4.38031 0.320169 0
M  V30 3621 H 356.429 -3.80909 1.89178 0
M  V30 3622 N 354.744 -0.972509 -1.24016 0
M  V30 3623 C 356.155 -0.67517 -1.74064 0
M  V30 3624 C 356.506 0.808939 -1.78747 0
M  V30 3625 O 355.631 1.63286 -1.42009 0
M  V30 3626 C 356.226 -1.21889 -3.16115 0
M  V30 3627 C 354.785 -0.971358 -3.6365 0
M  V30 3628 C 353.932 -1.35134 -2.42145 0
M  V30 3629 H 356.883 -1.14727 -1.09651 0
M  V30 3630 H 356.904 -0.587489 -3.75937 0
M  V30 3631 H 356.416 -2.29906 -3.12674 0
M  V30 3632 H 354.517 0.0930686 -3.72484 0
M  V30 3633 H 354.63 -1.62039 -4.50866 0
M  V30 3634 H 352.994 -0.769751 -2.4279 0
M  V30 3635 H 353.777 -2.4411 -2.41381 0
M  V30 3636 N 356.222 1.38976 -0.743202 0
M  V30 3637 C 357.469 2.00343 -0.294752 0
M  V30 3638 C 357.797 1.58983 1.12047 0
M  V30 3639 O 357.052 0.813809 1.77977 0
M  V30 3640 C 357.351 3.55647 -0.353517 0
M  V30 3641 C 357.017 4.16685 -1.72292 0
M  V30 3642 C 355.679 4.3307 -2.09771 0
M  V30 3643 C 358.031 4.50464 -2.62168 0
M  V30 3644 C 355.359 4.80526 -3.36618 0
M  V30 3645 C 357.711 4.99332 -3.88395 0
M  V30 3646 C 356.375 5.13924 -4.25956 0
M  V30 3647 H 355.645 0.733108 -0.107857 0
M  V30 3648 H 358.292 1.6618 -0.951651 0
M  V30 3649 H 356.597 3.89884 0.386954 0
M  V30 3650 H 358.294 4.00998 0.0117269 0
M  V30 3651 H 354.884 4.04339 -1.42155 0
M  V30 3652 H 359.068 4.37416 -2.3448 0
M  V30 3653 H 354.324 4.90008 -3.65653 0
M  V30 3654 H 358.498 5.2444 -4.58187 0
M  V30 3655 H 356.125 5.50457 -5.2431 0
M  V30 3656 N 357.7 0.491464 1.49741 0
M  V30 3657 C 358.63 -0.28154 2.31796 0
M  V30 3658 C 359.611 -0.971473 1.3963 0
M  V30 3659 O 360.796 -0.964719 1.68543 0
M  V30 3660 C 357.926 -1.35203 3.19902 0
M  V30 3661 C 356.88 -0.782529 4.20786 0
M  V30 3662 C 356.206 -1.95283 4.97764 0
M  V30 3663 C 357.506 0.21999 5.21837 0
M  V30 3664 H 359.2 0.403355 2.96671 0
M  V30 3665 H 356.746 0.195425 1.42668 0
M  V30 3666 H 358.699 -1.90045 3.76113 0
M  V30 3667 H 357.423 -2.06598 2.52953 0
M  V30 3668 H 356.082 -0.255928 3.65706 0
M  V30 3669 H 355.73 -2.65423 4.2727 0
M  V30 3670 H 355.43 -1.57789 5.66018 0
M  V30 3671 H 356.954 -2.50577 5.56816 0
M  V30 3672 H 358.368 -0.23996 5.72798 0
M  V30 3673 H 356.765 0.51026 5.97927 0
M  V30 3674 H 357.835 1.13911 4.7133 0
M  V30 3675 N 359.178 -1.55987 0.224894 0
M  V30 3676 C 360.088 -2.24066 -0.69511 0
M  V30 3677 C 361.104 -1.24939 -1.21104 0
M  V30 3678 O 362.28 -1.5776 -1.25195 0
M  V30 3679 C 359.345 -2.90983 -1.88493 0
M  V30 3680 C 358.406 -4.05462 -1.41064 0
M  V30 3681 C 357.639 -4.69179 -2.54375 0
M  V30 3682 O 357.862 -4.31895 -3.72589 0
M  V30 3683 O 356.796 -5.58108 -2.25386 0
M  V30 3684 H 360.622 -3.03353 -0.145149 0
M  V30 3685 H 358.207 -1.49399 -0.00569476 0
M  V30 3686 H 360.089 -3.33209 -2.57972 0
M  V30 3687 H 358.764 -2.14653 -2.42293 0
M  V30 3688 H 357.671 -3.67798 -0.683774 0
M  V30 3689 H 359.004 -4.83545 -0.918985 0
M  V30 3690 N 360.656 0.0484629 -1.57525 0
M  V30 3691 C 361.586 1.0549 -2.08313 0
M  V30 3692 C 362.567 1.38929 -0.981463 0
M  V30 3693 O 363.752 1.48151 -1.25558 0
M  V30 3694 C 360.882 2.36162 -2.54646 0
M  V30 3695 C 359.836 2.17016 -3.68901 0
M  V30 3696 C 359.162 3.53278 -4.01371 0
M  V30 3697 C 360.462 1.57219 -4.98076 0
M  V30 3698 H 362.156 0.632195 -2.92649 0
M  V30 3699 H 359.702 0.302654 -1.40784 0
M  V30 3700 H 361.655 3.06882 -2.88793 0
M  V30 3701 H 360.379 2.80456 -1.67368 0
M  V30 3702 H 359.038 1.48733 -3.35073 0
M  V30 3703 H 358.686 3.95185 -3.11188 0
M  V30 3704 H 358.386 3.41299 -4.78318 0
M  V30 3705 H 359.91 4.25391 -4.38035 0
M  V30 3706 H 361.324 2.17832 -5.30304 0
M  V30 3707 H 359.721 1.55871 -5.79503 0
M  V30 3708 H 360.791 0.535956 -4.81929 0
M  V30 3709 N 362.134 1.5431 0.320358 0
M  V30 3710 C 363.381 1.72668 1.05792 0
M  V30 3711 C 363.709 0.502084 1.87908 0
M  V30 3712 O 362.964 -0.516149 1.88771 0
M  V30 3713 C 363.263 2.95639 2.00828 0
M  V30 3714 C 362.929 4.30265 1.34843 0
M  V30 3715 C 361.591 4.66865 1.16578 0
M  V30 3716 C 363.943 5.13801 0.875095 0
M  V30 3717 C 361.271 5.84597 0.496336 0
M  V30 3718 C 363.623 6.32219 0.219463 0
M  V30 3719 C 362.287 6.67495 0.0246915 0
M  V30 3720 H 361.557 0.631837 0.387121 0
M  V30 3721 H 364.204 1.88552 0.334735 0
M  V30 3722 H 362.509 2.74456 2.79609 0
M  V30 3723 H 364.206 3.07038 2.57932 0
M  V30 3724 H 360.796 4.01472 1.50061 0
M  V30 3725 H 364.98 4.86039 1.00398 0
M  V30 3726 H 360.236 6.10486 0.334264 0
M  V30 3727 H 364.41 6.96227 -0.155291 0
M  V30 3728 H 362.037 7.5858 -0.496065 0
M  V30 3729 N 363.613 -0.582584 1.46437 0
M  V30 3730 C 364.861 -1.33814 1.51453 0
M  V30 3731 C 365.182 -1.94277 0.167792 0
M  V30 3732 O 364.452 -1.78566 -0.805677 0
M  V30 3733 H 363.032 -0.496838 0.557818 0
M  V30 3734 H 365.694 -0.682281 1.82568 0
M  V30 3735 H 364.79 -2.14479 2.26728 0
M  V30 3736 N 365.091 -1.34144 -0.827227 0
M  V30 3737 C 366.021 -1.28005 -1.95287 0
M  V30 3738 C 367.002 -0.158321 -1.69362 0
M  V30 3739 O 368.187 -0.349987 -1.9102 0
M  V30 3740 C 365.317 -1.03036 -3.31664 0
M  V30 3741 C 364.271 -2.11628 -3.72019 0
M  V30 3742 C 363.597 -1.71854 -5.0633 0
M  V30 3743 C 364.897 -3.53417 -3.8457 0
M  V30 3744 H 366.591 -2.22187 -2.00682 0
M  V30 3745 H 364.137 -1.0696 -0.964135 0
M  V30 3746 H 366.09 -0.973863 -4.09993 0
M  V30 3747 H 364.814 -0.0529391 -3.26557 0
M  V30 3748 H 363.473 -2.16339 -2.95961 0
M  V30 3749 H 363.121 -0.727841 -4.97706 0
M  V30 3750 H 362.821 -2.44531 -5.34302 0
M  V30 3751 H 364.345 -1.67692 -5.87122 0
M  V30 3752 H 365.759 -3.51142 -4.5318 0
M  V30 3753 H 364.156 -4.24679 -4.2399 0
M  V30 3754 H 365.226 -3.91072 -2.86689 0
M  V30 3755 N 366.569 1.04691 -1.17803 0
M  V30 3756 C 367.797 1.81446 -0.99423 0
M  V30 3757 C 368.212 1.83174 0.457459 0
M  V30 3758 O 367.569 1.26265 1.31771 0
M  V30 3759 C 367.62 3.27334 -1.5341 0
M  V30 3760 O 367.341 3.25798 -2.92895 0
M  V30 3761 C 368.842 4.20759 -1.39559 0
M  V30 3762 H 366.062 0.571599 -0.351447 0
M  V30 3763 H 368.606 1.31982 -1.56208 0
M  V30 3764 H 366.761 3.74052 -1.00815 0
M  V30 3765 H 367.175 4.17144 -3.17949 0
M  V30 3766 H 368.649 5.21084 -1.82141 0
M  V30 3767 H 369.126 4.37856 -0.343394 0
M  V30 3768 H 369.732 3.79901 -1.91195 0
M  V30 3769 N 368.047 0.979072 1.23499 0
M  V30 3770 C 369.324 0.563674 1.87302 0
M  V30 3771 C 369.704 -0.959199 1.88049 0
M  V30 3772 O 369.052 -1.83535 1.36114 0
M  V30 3773 C 369.262 1.16822 3.28867 0
M  V30 3774 C 370.61 1.26014 4.0547 0
M  V30 3775 O 371.634 1.12158 3.38082 0
M  V30 3776 O 370.493 1.48044 5.26066 0
M  V30 3777 H 367.587 0.189602 0.804972 0
M  V30 3778 H 370.133 1.07407 1.31384 0
M  V30 3779 H 368.905 2.21049 3.22883 0
M  V30 3780 H 368.528 0.642564 3.92373 0
M  V30 3781 N 369.525 -1.3858 0.750561 0
M  V30 3782 C 370.802 -1.94231 0.231009 0
M  V30 3783 C 371.182 -1.68611 -1.27018 0
M  V30 3784 O 370.53 -1.02296 -2.04323 0
M  V30 3785 C 370.74 -3.44123 0.581428 0
M  V30 3786 C 372.088 -4.2116 0.539389 0
M  V30 3787 O 373.112 -3.52391 0.519541 0
M  V30 3788 O 371.971 -5.43749 0.54765 0
M  V30 3789 H 369.065 -0.825639 0.0474263 0
M  V30 3790 H 371.611 -1.4799 0.830478 0
M  V30 3791 H 370.383 -3.56267 1.61833 0
M  V30 3792 H 370.006 -3.97573 -0.0462047 0
M  V30 3793 N 371.003 -0.499398 -1.49478 0
M  V30 3794 C 371.913 0.284489 -2.32869 0
M  V30 3795 C 372.929 0.968885 -1.44529 0
M  V30 3796 O 374.105 0.95062 -1.77553 0
M  V30 3797 C 371.17 1.33594 -3.19928 0
M  V30 3798 C 370.231 0.665149 -4.24116 0
M  V30 3799 C 369.464 1.6665 -5.07014 0
M  V30 3800 O 369.687 2.89618 -4.91404 0
M  V30 3801 O 368.621 1.22271 -5.8935 0
M  V30 3802 H 372.447 -0.39802 -3.01081 0
M  V30 3803 H 370.032 -0.260758 -1.47107 0
M  V30 3804 H 371.914 1.94431 -3.73864 0
M  V30 3805 H 370.589 2.0014 -2.54412 0
M  V30 3806 H 369.496 0.0170769 -3.74096 0
M  V30 3807 H 370.829 0.0421555 -4.92182 0
M  V30 3808 N 372.481 1.55866 -0.233164 0
M  V30 3809 C 373.892 1.847 0.272554 0
M  V30 3810 C 374.243 1.15477 1.58617 0
M  V30 3811 O 373.368 0.42841 2.12117 0
M  V30 3812 C 373.963 3.35071 0.501299 0
M  V30 3813 C 372.522 3.6418 0.951304 0
M  V30 3814 C 371.669 2.77292 0.0208209 0
M  V30 3815 H 374.62 1.52005 -0.456074 0
M  V30 3816 H 374.641 3.55906 1.34577 0
M  V30 3817 H 374.153 3.85424 -0.454936 0
M  V30 3818 H 372.254 3.19293 1.92049 0
M  V30 3819 H 372.367 4.72071 0.817675 0
M  V30 3820 H 370.731 2.49131 0.529723 0
M  V30 3821 H 371.514 3.30448 -0.93054 0
M  V30 3822 N 373.959 -0.0401083 1.57549 0
M  V30 3823 C 374.869 -1.06133 2.0922 0
M  V30 3824 C 375.885 -1.40356 1.0284 0
M  V30 3825 O 377.061 -1.49897 1.34509 0
M  V30 3826 C 374.126 -2.34658 2.55218 0
M  V30 3827 C 373.187 -2.07117 3.76033 0
M  V30 3828 C 372.42 -3.29514 4.19829 0
M  V30 3829 O 372.643 -4.39794 3.63232 0
M  V30 3830 O 371.577 -3.15863 5.12362 0
M  V30 3831 H 375.403 -0.652244 2.96613 0
M  V30 3832 H 372.988 -0.256368 1.47184 0
M  V30 3833 H 374.87 -3.10239 2.85184 0
M  V30 3834 H 373.545 -2.74883 1.70941 0
M  V30 3835 H 372.452 -1.29139 3.51104 0
M  V30 3836 H 373.785 -1.71754 4.61261 0
M  V30 3837 N 375.437 -1.54477 -0.31217 0
M  V30 3838 C 376.4 -1.83923 -1.36766 0
M  V30 3839 C 377.4 -0.711563 -1.44199 0
M  V30 3840 O 378.59 -0.979866 -1.44029 0
M  V30 3841 C 375.722 -2.0095 -2.75376 0
M  V30 3842 H 376.915 -2.78239 -1.11906 0
M  V30 3843 H 374.468 -1.46369 -0.548257 0
M  V30 3844 H 375.203 -1.08883 -3.05475 0
M  V30 3845 H 374.988 -2.83018 -2.71373 0
M  V30 3846 H 376.478 -2.2514 -3.51713 0
M  V30 3847 N 376.915 0.57481 -1.46744 0
M  V30 3848 C 377.848 1.69827 -1.52427 0
M  V30 3849 C 378.826 1.58151 -0.377744 0
M  V30 3850 O 380.01 1.79257 -0.58303 0
M  V30 3851 C 377.137 3.07943 -1.41027 0
M  V30 3852 C 376.183 3.38116 -2.59961 0
M  V30 3853 S 377.016 3.29313 -4.22272 0
M  V30 3854 C 378.172 4.69953 -4.13394 0
M  V30 3855 H 378.405 1.64748 -2.47478 0
M  V30 3856 H 375.938 0.754203 -1.34726 0
M  V30 3857 H 377.896 3.87619 -1.35137 0
M  V30 3858 H 376.557 3.10504 -0.473909 0
M  V30 3859 H 375.75 4.38762 -2.47999 0
M  V30 3860 H 375.352 2.66024 -2.62882 0
M  V30 3861 H 377.644 5.60517 -3.80562 0
M  V30 3862 H 378.587 4.86972 -5.14066 0
M  V30 3863 H 378.995 4.47174 -3.44522 0
M  V30 3864 N 378.394 1.34581 0.820102 0
M  V30 3865 C 379.357 1.2628 1.91275 0
M  V30 3866 C 380.357 0.177344 1.59819 0
M  V30 3867 O 381.547 0.430156 1.68806 0
M  V30 3868 C 378.679 0.950327 3.27386 0
M  V30 3869 H 379.872 2.23421 2.00057 0
M  V30 3870 H 377.425 1.1891 1.0144 0
M  V30 3871 H 378.16 -0.0177938 3.24295 0
M  V30 3872 H 377.945 1.73549 3.51601 0
M  V30 3873 H 379.435 0.917492 4.07396 0
M  V30 3874 N 379.872 -1.04064 1.18357 0
M  V30 3875 C 381.119 -1.77265 0.978947 0
M  V30 3876 C 381.447 -1.88189 -0.491428 0
M  V30 3877 O 380.702 -1.38653 -1.38108 0
M  V30 3878 C 381.001 -3.20634 1.57888 0
M  V30 3879 C 380.667 -3.29743 3.07539 0
M  V30 3880 C 379.329 -3.31937 3.48384 0
M  V30 3881 C 381.681 -3.29841 4.03552 0
M  V30 3882 C 379.009 -3.3187 4.83818 0
M  V30 3883 C 381.361 -3.31313 5.38901 0
M  V30 3884 C 380.025 -3.31799 5.79194 0
M  V30 3885 H 379.295 -0.648659 0.358222 0
M  V30 3886 H 381.942 -1.22225 1.47422 0
M  V30 3887 H 380.247 -3.78675 1.00561 0
M  V30 3888 H 381.944 -3.75917 1.39598 0
M  V30 3889 H 378.534 -3.28757 2.74986 0
M  V30 3890 H 382.718 -3.27337 3.73047 0
M  V30 3891 H 377.974 -3.30562 5.14333 0
M  V30 3892 H 382.148 -3.30338 6.13066 0
M  V30 3893 H 379.775 -3.315 6.84114 0
M  V30 3894 N 381.35 -0.985608 -1.22978 0
M  V30 3895 C 382.58 -0.674603 -1.95276 0
M  V30 3896 C 382.988 0.763483 -1.73111 0
M  V30 3897 O 382.331 1.52601 -1.02268 0
M  V30 3898 C 382.393 -0.891597 -3.48268 0
M  V30 3899 C 382.057 -2.31275 -3.94158 0
M  V30 3900 C 383.054 -3.29179 -4.02415 0
M  V30 3901 C 380.739 -2.64524 -4.27004 0
M  V30 3902 C 382.733 -4.58407 -4.42879 0
M  V30 3903 C 380.42 -3.93974 -4.67149 0
M  V30 3904 C 381.418 -4.90727 -4.75053 0
M  V30 3905 O 381.106 -6.17865 -5.14294 0
M  V30 3906 H 380.838 -0.249251 -0.628371 0
M  V30 3907 H 383.392 -1.32106 -1.5728 0
M  V30 3908 H 381.622 -0.187962 -3.86243 0
M  V30 3909 H 383.311 -0.576957 -4.01779 0
M  V30 3910 H 384.077 -3.04823 -3.77237 0
M  V30 3911 H 379.956 -1.89923 -4.2006 0
M  V30 3912 H 383.5 -5.33926 -4.48964 0
M  V30 3913 H 379.397 -4.18122 -4.91777 0
M  V30 3914 H 380.165 -6.21694 -5.32389 0
M  V30 3915 N 382.828 1.3818 -0.7579 0
M  V30 3916 C 383.758 2.33027 -0.148597 0
M  V30 3917 C 384.739 1.55085 0.69875 0
M  V30 3918 O 385.924 1.83384 0.639053 0
M  V30 3919 C 383.054 3.3928 0.742034 0
M  V30 3920 C 382.008 4.28 -0.00291946 0
M  V30 3921 C 381.334 5.25146 1.00625 0
M  V30 3922 C 382.634 5.08938 -1.17385 0
M  V30 3923 H 384.328 2.84231 -0.940909 0
M  V30 3924 H 381.874 1.36659 -0.453908 0
M  V30 3925 H 383.827 4.046 1.17799 0
M  V30 3926 H 382.551 2.86569 1.56671 0
M  V30 3927 H 381.21 3.64192 -0.419504 0
M  V30 3928 H 380.858 4.68721 1.8251 0
M  V30 3929 H 380.558 5.85361 0.512428 0
M  V30 3930 H 382.082 5.93342 1.44143 0
M  V30 3931 H 383.496 5.67474 -0.815224 0
M  V30 3932 H 381.893 5.7841 -1.59882 0
M  V30 3933 H 382.963 4.42424 -1.98468 0
M  V30 3934 N 384.306 0.507319 1.49211 0
M  V30 3935 C 385.269 -0.256763 2.27757 0
M  V30 3936 C 386.269 -0.888287 1.34038 0
M  V30 3937 O 387.459 -0.751841 1.5714 0
M  V30 3938 C 384.591 -1.36905 3.12202 0
M  V30 3939 H 385.784 0.432557 2.96764 0
M  V30 3940 H 383.337 0.262488 1.5408 0
M  V30 3941 H 384.072 -2.09233 2.47775 0
M  V30 3942 H 383.857 -0.921599 3.81115 0
M  V30 3943 H 385.347 -1.9071 3.7151 0
M  V30 3944 N 385.784 -1.5574 0.241426 0
M  V30 3945 C 387.032 -1.98417 -0.384075 0
M  V30 3946 C 387.353 -1.13078 -1.58866 0
M  V30 3947 O 386.623 -0.212312 -1.94746 0
M  V30 3948 H 385.203 -0.732813 -0.144894 0
M  V30 3949 H 387.865 -1.9193 0.338943 0
M  V30 3950 H 386.961 -3.04219 -0.696939 0
M  V30 3951 N 387.262 0.0317525 -1.57568 0
M  V30 3952 C 388.172 1.05021 -2.0978 0
M  V30 3953 C 389.188 1.39809 -1.03583 0
M  V30 3954 O 390.364 1.49182 -1.35302 0
M  V30 3955 C 387.429 2.33301 -2.56459 0
M  V30 3956 C 386.49 2.0512 -3.77127 0
M  V30 3957 C 385.723 3.27283 -4.2157 0
M  V30 3958 O 385.946 4.37861 -3.65559 0
M  V30 3959 O 384.88 3.13141 -5.14029 0
M  V30 3960 H 388.706 0.636505 -2.96955 0
M  V30 3961 H 386.291 0.248559 -1.47318 0
M  V30 3962 H 388.173 3.08722 -2.86825 0
M  V30 3963 H 386.848 2.73973 -1.72397 0
M  V30 3964 H 385.755 1.27276 -3.51784 0
M  V30 3965 H 387.088 1.69305 -4.62165 0
M  V30 3966 N 388.74 1.54641 0.303973 0
M  V30 3967 C 389.67 1.88386 1.3796 0
M  V30 3968 C 390.651 0.742485 1.5304 0
M  V30 3969 O 391.836 0.997959 1.66597 0
M  V30 3970 C 388.966 2.12854 2.74427 0
M  V30 3971 C 387.92 3.28702 2.74115 0
M  V30 3972 C 387.246 3.38582 4.13844 0
M  V30 3973 C 388.546 4.65881 2.3612 0
M  V30 3974 H 390.24 2.78474 1.09966 0
M  V30 3975 H 387.786 1.33988 0.527556 0
M  V30 3976 H 389.739 2.35047 3.49758 0
M  V30 3977 H 388.463 1.19535 3.03939 0
M  V30 3978 H 387.122 3.06428 2.0124 0
M  V30 3979 H 386.77 2.42784 4.40528 0
M  V30 3980 H 386.47 4.16453 4.14537 0
M  V30 3981 H 387.994 3.63031 4.90959 0
M  V30 3982 H 389.408 4.87823 3.01167 0
M  V30 3983 H 387.805 5.46444 2.48031 0
M  V30 3984 H 388.875 4.66799 1.3125 0
M  V30 3985 N 390.218 -0.567019 1.47046 0
M  V30 3986 C 391.495 -1.3276 1.43646 0
M  V30 3987 C 391.875 -2.1071 0.128186 0
M  V30 3988 O 391.223 -2.10441 -0.890326 0
M  V30 3989 C 391.433 -2.2404 2.67595 0
M  V30 3990 C 392.781 -2.85372 3.14401 0
M  V30 3991 O 393.805 -2.34346 2.68254 0
M  V30 3992 O 392.664 -3.78091 3.946 0
M  V30 3993 H 389.758 -0.597293 0.571988 0
M  V30 3994 H 392.304 -0.586735 1.59234 0
M  V30 3995 H 391.076 -1.65975 3.54356 0
M  V30 3996 H 390.699 -3.05439 2.54544 0
M  V30 3997 N 391.696 -1.35014 -0.812953 0
M  V30 3998 C 393.112 -1.14914 -1.10757 0
M  V30 3999 C 393.312 0.0426818 -2.01455 0
M  V30 4000 O 392.368 0.715212 -2.42159 0
M  V30 4001 C 393.681 -2.44911 -1.74468 0
M  V30 4002 C 395.229 -2.5106 -1.86917 0
M  V30 4003 C 395.704 -3.81085 -2.54044 0
M  V30 4004 N 397.195 -3.82301 -2.61535 0
M  V30 4005 C 397.93 -4.79634 -3.14227 0
M  V30 4006 N 397.426 -5.87353 -3.67407 0
M  V30 4007 N 399.219 -4.67078 -3.12721 0
M  V30 4008 H 391.37 -2.1136 -0.20989 0
M  V30 4009 H 393.633 -0.935128 -0.155692 0
M  V30 4010 H 393.339 -3.32267 -1.15289 0
M  V30 4011 H 393.213 -2.58989 -2.74234 0
M  V30 4012 H 395.6 -1.64137 -2.45241 0
M  V30 4013 H 395.681 -2.40901 -0.860242 0
M  V30 4014 H 395.325 -4.68402 -1.96372 0
M  V30 4015 H 395.255 -3.88529 -3.55461 0
M  V30 4016 H 397.746 -3.04465 -2.23851 0
M  V30 4017 H 398.059 -6.57624 -4.05894 0
M  V30 4018 H 396.404 -5.91054 -3.65623 0
M  V30 4019 H 399.595 -3.82067 -2.70449 0
M  V30 4020 H 399.768 -5.43098 -3.53481 0
M  V30 4021 N 393.175 1.03435 -1.18907 0
M  V30 4022 C 394.591 1.28973 -0.940111 0
M  V30 4023 C 394.791 1.97676 0.390691 0
M  V30 4024 O 393.847 2.26127 1.12352 0
M  V30 4025 C 395.16 2.14221 -2.11021 0
M  V30 4026 C 396.708 2.27547 -2.14922 0
M  V30 4027 C 397.183 3.16164 -3.31367 0
M  V30 4028 N 398.674 3.23752 -3.31269 0
M  V30 4029 C 399.409 3.92495 -4.18014 0
M  V30 4030 N 398.905 4.63515 -5.14904 0
M  V30 4031 N 400.698 3.88838 -4.05908 0
M  V30 4032 H 392.849 0.57252 -2.04538 0
M  V30 4033 H 395.112 0.315184 -0.894071 0
M  V30 4034 H 394.818 1.71054 -3.073 0
M  V30 4035 H 394.692 3.14919 -2.0762 0
M  V30 4036 H 397.079 2.69947 -1.19217 0
M  V30 4037 H 397.16 1.26418 -2.22378 0
M  V30 4038 H 396.804 2.74474 -4.27348 0
M  V30 4039 H 396.734 4.17339 -3.21148 0
M  V30 4040 H 399.225 2.73167 -2.61129 0
M  V30 4041 H 399.538 5.13583 -5.77453 0
M  V30 4042 H 397.883 4.62398 -5.18857 0
M  V30 4043 H 401.074 3.32491 -3.29495 0
M  V30 4044 H 401.247 4.4214 -4.73726 0
M  V30 4045 N 394.653 0.992116 1.22453 0
M  V30 4046 C 395.901 0.666215 1.90804 0
M  V30 4047 C 396.222 -0.804152 1.77647 0
M  V30 4048 O 395.492 -1.57629 1.16318 0
M  V30 4049 H 394.072 0.243423 0.706225 0
M  V30 4050 H 396.734 1.25845 1.48825 0
M  V30 4051 H 395.83 0.928069 2.97982 0
M  V30 4052 N 396.131 -1.37776 0.765217 0
M  V30 4053 C 397.061 -2.32945 0.160953 0
M  V30 4054 C 398.042 -1.55454 -0.690516 0
M  V30 4055 O 399.227 -1.83721 -0.629318 0
M  V30 4056 C 396.357 -3.39669 -0.724031 0
M  V30 4057 C 395.311 -4.27992 0.0256173 0
M  V30 4058 C 394.637 -5.25673 -0.978383 0
M  V30 4059 C 395.937 -5.08309 1.20082 0
M  V30 4060 H 397.631 -2.83728 0.955969 0
M  V30 4061 H 395.177 -1.36416 0.461149 0
M  V30 4062 H 397.13 -4.05219 -1.15652 0
M  V30 4063 H 395.854 -2.87396 -1.5515 0
M  V30 4064 H 394.513 -3.63964 0.438812 0
M  V30 4065 H 394.161 -4.69682 -1.80022 0
M  V30 4066 H 393.861 -5.85625 -0.481378 0
M  V30 4067 H 395.385 -5.94098 -1.40995 0
M  V30 4068 H 396.799 -5.67034 0.845307 0
M  V30 4069 H 395.196 -5.77554 1.62947 0
M  V30 4070 H 396.266 -4.41365 2.00811 0
M  V30 4071 N 397.609 -0.515225 -1.4894 0
M  V30 4072 C 398.572 0.244681 -2.2789 0
M  V30 4073 C 399.572 0.881166 -1.34507 0
M  V30 4074 O 400.762 0.743497 -1.57537 0
M  V30 4075 C 397.894 1.35247 -3.12923 0
M  V30 4076 H 399.087 -0.448289 -2.96531 0
M  V30 4077 H 396.64 -0.270656 -1.53939 0
M  V30 4078 H 397.375 2.07916 -2.48881 0
M  V30 4079 H 397.16 0.901374 -3.81599 0
M  V30 4080 H 398.65 1.88737 -3.72516 0
M  V30 4081 N 399.087 1.5561 -0.249682 0
M  V30 4082 C 400.317 2.03116 0.377803 0
M  V30 4083 C 400.725 1.12822 1.51881 0
M  V30 4084 O 400.068 0.13562 1.83199 0
M  V30 4085 C 400.13 3.46866 0.944693 0
M  V30 4086 C 399.794 4.56955 -0.0644259 0
M  V30 4087 C 400.791 5.12485 -0.874957 0
M  V30 4088 C 398.476 5.01936 -0.19132 0
M  V30 4089 C 400.47 6.11491 -1.79881 0
M  V30 4090 C 398.157 6.00773 -1.11868 0
M  V30 4091 C 399.155 6.5543 -1.92095 0
M  V30 4092 O 398.843 7.5234 -2.83267 0
M  V30 4093 H 398.575 0.669489 0.0935961 0
M  V30 4094 H 401.129 2.02004 -0.371966 0
M  V30 4095 H 399.359 3.45136 1.74407 0
M  V30 4096 H 401.048 3.77856 1.48255 0
M  V30 4097 H 401.814 4.78564 -0.787523 0
M  V30 4098 H 397.693 4.59055 0.423072 0
M  V30 4099 H 401.237 6.54078 -2.42543 0
M  V30 4100 H 397.134 6.34114 -1.20703 0
M  V30 4101 H 397.902 7.69966 -2.7766 0
M  V30 4102 N 400.565 -0.0233959 1.57583 0
M  V30 4103 C 401.495 -1.02162 2.09965 0
M  V30 4104 C 402.476 -1.3735 1.00344 0
M  V30 4105 O 403.661 -1.46135 1.27899 0
M  V30 4106 C 400.791 -2.32081 2.58371 0
M  V30 4107 C 399.745 -2.1112 3.72307 0
M  V30 4108 C 399.071 -3.46848 4.06941 0
M  V30 4109 C 400.371 -1.49276 5.00514 0
M  V30 4110 H 402.065 -0.585557 2.93618 0
M  V30 4111 H 399.611 -0.280218 1.41247 0
M  V30 4112 H 401.564 -3.02249 2.93639 0
M  V30 4113 H 400.288 -2.77758 1.71808 0
M  V30 4114 H 398.947 -1.43384 3.37397 0
M  V30 4115 H 398.595 -3.90184 3.17436 0
M  V30 4116 H 398.295 -3.33646 4.83688 0
M  V30 4117 H 399.819 -4.18369 4.44747 0
M  V30 4118 H 401.233 -2.09368 5.33702 0
M  V30 4119 H 399.63 -1.46632 5.8191 0
M  V30 4120 H 400.7 -0.459217 4.82721 0
M  V30 4121 N 402.043 -1.548 -0.295768 0
M  V30 4122 C 402.993 -1.82497 -1.3667 0
M  V30 4123 C 403.977 -0.682434 -1.45711 0
M  V30 4124 O 405.169 -0.943207 -1.49775 0
M  V30 4125 C 402.298 -2.08036 -2.73086 0
M  V30 4126 C 401.384 -3.28488 -2.68247 0
M  V30 4127 N 401.775 -4.48924 -2.33025 0
M  V30 4128 C 400.073 -3.3062 -2.99343 0
M  V30 4129 C 400.774 -5.30956 -2.37613 0
M  V30 4130 N 399.75 -4.68805 -2.75178 0
M  V30 4131 H 403.552 -2.73175 -1.0841 0
M  V30 4132 H 401.066 -1.5437 -0.504361 0
M  V30 4133 H 403.063 -2.26027 -3.5031 0
M  V30 4134 H 401.723 -1.18629 -3.02254 0
M  V30 4135 H 402.734 -4.75432 -2.05389 0
M  V30 4136 H 399.411 -2.51336 -3.33371 0
M  V30 4137 H 400.801 -6.37199 -2.13135 0
M  V30 4138 N 403.521 0.559213 -1.47345 0
M  V30 4139 C 404.768 1.31648 -1.53867 0
M  V30 4140 C 405.096 1.93468 -0.200104 0
M  V30 4141 O 404.351 1.78295 0.806799 0
M  V30 4142 C 404.65 2.44853 -2.6035 0
M  V30 4143 C 404.316 2.00876 -4.03683 0
M  V30 4144 C 402.978 1.88599 -4.42701 0
M  V30 4145 C 405.33 1.67279 -4.93626 0
M  V30 4146 C 402.658 1.41017 -5.69501 0
M  V30 4147 C 405.01 1.21169 -6.20887 0
M  V30 4148 C 403.674 1.07487 -6.58789 0
M  V30 4149 H 402.944 0.481734 -0.56304 0
M  V30 4150 H 405.591 0.627301 -1.80934 0
M  V30 4151 H 403.896 3.19318 -2.27032 0
M  V30 4152 H 405.593 3.03039 -2.62619 0
M  V30 4153 H 402.183 2.11374 -3.72853 0
M  V30 4154 H 406.367 1.75638 -4.64182 0
M  V30 4155 H 401.623 1.29086 -5.97618 0
M  V30 4156 H 405.797 0.942345 -6.89995 0
M  V30 4157 H 403.424 0.703946 -7.56934 0
M  V30 4158 N 404.999 1.35443 0.805782 0
M  V30 4159 C 405.947 1.28465 1.93906 0
M  V30 4160 C 406.941 0.17943 1.68447 0
M  V30 4161 O 408.147 0.345459 1.76654 0
M  V30 4162 H 404.522 0.399528 0.637088 0
M  V30 4163 H 406.493 2.24206 1.96912 0
M  V30 4164 C 405.242 1.07432 3.30687 0
M  V30 4165 H 404.565 1.91716 3.50835 0
M  V30 4166 H 406.005 1.06591 4.10383 0
M  V30 4167 C 404.464 -0.22179 3.36169 0
M  V30 4168 O 404.994 -1.21731 3.82811 0
M  V30 4169 N 403.2 -0.260841 2.89427 0
M  V30 4170 H 402.747 0.549884 2.51663 0
M  V30 4171 H 402.705 -1.12777 2.93477 0
M  V30 4172 N 406.477 -1.02803 1.19454 0
M  V30 4173 C 407.387 -2.14575 0.948408 0
M  V30 4174 C 408.403 -1.73757 -0.091871 0
M  V30 4175 O 409.579 -2.01185 0.0929654 0
M  V30 4176 C 406.644 -3.43202 0.491265 0
M  V30 4177 C 405.705 -3.98328 1.60103 0
M  V30 4178 C 404.938 -5.20816 1.16561 0
M  V30 4179 O 405.161 -5.70392 0.0295238 0
M  V30 4180 O 404.095 -5.68801 1.96849 0
M  V30 4181 H 407.921 -2.38202 1.88397 0
M  V30 4182 H 405.506 -1.12989 0.977433 0
M  V30 4183 H 407.388 -4.20687 0.245015 0
M  V30 4184 H 406.063 -3.21018 -0.415851 0
M  V30 4185 H 404.97 -3.22174 1.90144 0
M  V30 4186 H 406.303 -4.24879 2.48473 0
M  V30 4187 N 407.956 -0.998596 -1.21925 0
M  V30 4188 C 409.367 -0.711939 -1.72593 0
M  V30 4189 C 409.718 0.770842 -1.80423 0
M  V30 4190 O 408.843 1.60237 -1.4544 0
M  V30 4191 C 409.438 -1.28567 -3.13458 0
M  V30 4192 C 407.997 -1.04828 -3.61508 0
M  V30 4193 C 407.144 -1.4024 -2.39224 0
M  V30 4194 H 410.095 -1.17027 -1.07193 0
M  V30 4195 H 410.116 -0.667098 -3.74607 0
M  V30 4196 H 409.628 -2.36486 -3.07727 0
M  V30 4197 H 407.729 0.0140383 -3.72597 0
M  V30 4198 H 407.842 -1.71566 -4.47328 0
M  V30 4199 H 406.206 -0.821077 -2.41103 0
M  V30 4200 H 406.989 -2.49176 -2.36149 0
M  V30 4201 N 409.434 1.37368 -0.772513 0
M  V30 4202 C 410.711 1.93839 -0.26188 0
M  V30 4203 C 411.091 1.7061 1.24319 0
M  V30 4204 O 410.439 1.05534 2.02669 0
M  V30 4205 C 410.649 3.43154 -0.636102 0
M  V30 4206 C 411.997 4.20249 -0.606324 0
M  V30 4207 O 413.021 3.5152 -0.575538 0
M  V30 4208 O 411.88 5.42809 -0.634086 0
M  V30 4209 H 408.974 0.82478 -0.0605555 0
M  V30 4210 H 411.52 1.4665 -0.853917 0
M  V30 4211 H 410.292 3.53647 -1.6748 0
M  V30 4212 H 409.915 3.97596 -0.0170516 0
M  V30 4213 N 410.912 0.523116 1.48665 0
M  V30 4214 C 412.158 -0.00540031 2.03399 0
M  V30 4215 C 412.513 -1.3264 1.39372 0
M  V30 4216 O 411.806 -1.84184 0.527916 0
M  V30 4217 C 412 -0.191671 3.56886 0
M  V30 4218 C 411.829 1.10972 4.35793 0
M  V30 4219 C 410.599 1.66769 4.76987 0
M  V30 4220 C 412.797 2.01861 4.73029 0
M  V30 4221 N 410.779 2.91268 5.40404 0
M  V30 4222 C 412.15 3.10937 5.36394 0
M  V30 4223 C 414.205 2.02271 4.54962 0
M  V30 4224 C 412.908 4.20478 5.83601 0
M  V30 4225 C 414.934 3.10802 5.03146 0
M  V30 4226 C 414.296 4.18597 5.6653 0
M  V30 4227 H 410.395 0.0393531 0.781009 0
M  V30 4228 H 412.979 0.702876 1.8157 0
M  V30 4229 H 411.15 -0.869025 3.78553 0
M  V30 4230 H 412.882 -0.719177 3.98259 0
M  V30 4231 H 409.637 1.20996 4.57883 0
M  V30 4232 H 410.061 3.54635 5.76683 0
M  V30 4233 H 414.703 1.2023 4.05345 0
M  V30 4234 H 412.421 5.03303 6.32228 0
M  V30 4235 H 416.007 3.12166 4.90962 0
M  V30 4236 H 414.887 5.01193 6.03138 0
M  V30 4237 N 412.39 -1.55475 0.257931 0
M  V30 4238 C 413.639 -1.98383 -0.364275 0
M  V30 4239 C 413.952 -1.14952 -1.58258 0
M  V30 4240 O 415.158 -1.47924 -2.27664 0
M  V30 4241 C 413.614 -3.53037 -0.699479 0
M  V30 4242 C 413.222 -4.45223 0.498046 0
M  V30 4243 C 414.966 -4.04575 -1.28526 0
M  V30 4244 C 412.873 -5.91238 0.138383 0
M  V30 4245 H 411.803 -0.740911 -0.13988 0
M  V30 4246 H 414.454 -1.79936 0.359883 0
M  V30 4247 H 412.836 -3.6722 -1.48207 0
M  V30 4248 H 414.01 -4.42803 1.27522 0
M  V30 4249 H 412.325 -4.04226 0.999503 0
M  V30 4250 H 414.922 -5.11196 -1.56788 0
M  V30 4251 H 415.265 -3.5258 -2.21344 0
M  V30 4252 H 415.798 -3.93762 -0.565337 0
M  V30 4253 H 412.537 -6.47294 1.03398 0
M  V30 4254 H 412.057 -5.96768 -0.602374 0
M  V30 4255 H 413.736 -6.46413 -0.27553 0
M  V30 4256 N 413.868 0.0150385 -1.57593 0
M  V30 4257 C 415.116 0.701613 -1.8953 0
M  V30 4258 C 415.437 1.75139 -0.857396 0
M  V30 4259 O 414.707 1.95607 0.107194 0
M  V30 4260 H 413.287 0.26213 -0.699498 0
M  V30 4261 H 415.949 -0.0223304 -1.94887 0
M  V30 4262 H 415.045 1.18236 -2.88837 0
M  V30 4263 N 415.346 1.54954 0.287554 0
M  V30 4264 C 416.594 1.74528 1.01904 0
M  V30 4265 C 416.915 0.541349 1.87335 0
M  V30 4266 O 416.185 -0.444108 1.908 0
M  V30 4267 H 414.765 0.643576 0.379235 0
M  V30 4268 H 417.427 1.92333 0.315294 0
M  V30 4269 H 416.523 2.64015 1.6644 0
M  V30 4270 N 416.824 -0.551391 1.4764 0
M  V30 4271 C 418.101 -1.31229 1.45046 0
M  V30 4272 C 418.481 -2.10563 0.150527 0
M  V30 4273 O 417.829 -2.11374 -0.867956 0
M  V30 4274 C 418.039 -2.21189 2.69956 0
M  V30 4275 C 419.387 -2.82021 3.1741 0
M  V30 4276 O 420.411 -2.31488 2.70724 0
M  V30 4277 O 419.27 -3.73885 3.98588 0
M  V30 4278 H 416.364 -0.591193 0.578291 0
M  V30 4279 H 418.91 -0.569813 1.59847 0
M  V30 4280 H 417.682 -1.62207 3.56096 0
M  V30 4281 H 417.305 -3.02722 2.57769 0
M  V30 4282 N 418.302 -1.35869 -0.798587 0
M  V30 4283 C 419.551 -1.28921 -1.5512 0
M  V30 4284 C 419.864 0.13208 -1.95154 0
M  V30 4285 O 421.07 0.323879 -2.69561 0
M  V30 4286 C 419.526 -2.26141 -2.79979 0
M  V30 4287 C 419.134 -3.73658 -2.47151 0
M  V30 4288 C 420.878 -2.28152 -3.57976 0
M  V30 4289 C 418.785 -4.62679 -3.6835 0
M  V30 4290 H 417.715 -0.479031 -0.582276 0
M  V30 4291 H 420.366 -1.61179 -0.877125 0
M  V30 4292 H 418.748 -1.86865 -3.49138 0
M  V30 4293 H 419.922 -4.21616 -1.85947 0
M  V30 4294 H 418.237 -3.74333 -1.82383 0
M  V30 4295 H 420.834 -2.91875 -4.4801 0
M  V30 4296 H 421.177 -1.28748 -3.95891 0
M  V30 4297 H 421.71 -2.65998 -2.95787 0
M  V30 4298 H 418.449 -5.63111 -3.35538 0
M  V30 4299 H 417.969 -4.19442 -4.28752 0
M  V30 4300 H 419.648 -4.78498 -4.35487 0
M  V30 4301 N 419.78 1.02168 -1.19998 0
M  V30 4302 C 421.008 1.79296 -1.03249 0
M  V30 4303 C 421.423 1.84103 0.418502 0
M  V30 4304 O 420.78 1.29031 1.29063 0
M  V30 4305 C 420.831 3.24007 -1.60319 0
M  V30 4306 O 420.552 3.19512 -2.99739 0
M  V30 4307 C 422.053 4.17704 -1.48453 0
M  V30 4308 H 419.273 0.564016 -0.363493 0
M  V30 4309 H 421.817 1.28639 -1.58973 0
M  V30 4310 H 419.972 3.7183 -1.08727 0
M  V30 4311 H 420.386 4.10306 -3.26725 0
M  V30 4312 H 421.86 5.17104 -1.93153 0
M  V30 4313 H 422.337 4.37029 -0.436193 0
M  V30 4314 H 422.943 3.7576 -1.99211 0
M  V30 4315 N 421.258 1.00505 1.21394 0
M  V30 4316 C 422.488 0.705584 1.94178 0
M  V30 4317 C 422.896 -0.735846 1.74304 0
M  V30 4318 O 422.239 -1.50954 1.04683 0
M  V30 4319 C 422.301 0.94689 3.46806 0
M  V30 4320 C 421.965 2.37517 3.90429 0
M  V30 4321 C 422.962 3.35539 3.97127 0
M  V30 4322 C 420.647 2.71284 4.22742 0
M  V30 4323 C 422.641 4.65395 4.3553 0
M  V30 4324 C 420.328 4.01356 4.60822 0
M  V30 4325 C 421.326 4.98223 4.67186 0
M  V30 4326 O 421.014 6.25969 5.04399 0
M  V30 4327 H 420.746 0.259216 0.624326 0
M  V30 4328 H 423.3 1.34592 1.55159 0
M  V30 4329 H 421.53 0.249386 3.85895 0
M  V30 4330 H 423.219 0.640804 4.0081 0
M  V30 4331 H 423.985 3.10786 3.7234 0
M  V30 4332 H 419.864 1.96581 4.16985 0
M  V30 4333 H 423.408 5.41002 4.40412 0
M  V30 4334 H 419.305 4.25893 4.85063 0
M  V30 4335 H 420.073 6.30085 5.22431 0
M  V30 4336 N 422.737 -1.36956 0.779787 0
M  V30 4337 C 424.148 -1.82094 0.412156 0
M  V30 4338 C 424.499 -1.64926 -1.06273 0
M  V30 4339 O 423.624 -1.16483 -1.82375 0
M  V30 4340 C 424.219 -3.3059 0.741319 0
M  V30 4341 C 422.778 -3.73974 0.426641 0
M  V30 4342 C 421.925 -2.59368 0.980987 0
M  V30 4343 H 424.876 -1.25314 0.973758 0
M  V30 4344 H 424.897 -3.80489 0.028887 0
M  V30 4345 H 424.409 -3.43054 1.81482 0
M  V30 4346 H 422.51 -3.67076 -0.639215 0
M  V30 4347 H 422.623 -4.69778 0.940515 0
M  V30 4348 H 420.987 -2.51463 0.404757 0
M  V30 4349 H 421.77 -2.74621 2.06005 0
M  V30 4350 N 424.215 -0.530993 -1.48385 0
M  V30 4351 C 425.125 0.23503 -2.3342 0
M  V30 4352 C 426.141 0.93801 -1.46552 0
M  V30 4353 O 427.317 0.912745 -1.7953 0
M  V30 4354 C 424.382 1.26778 -3.22689 0
M  V30 4355 C 423.443 0.575038 -4.25431 0
M  V30 4356 C 422.676 1.55858 -5.10435 0
M  V30 4357 O 422.899 2.79129 -4.97437 0
M  V30 4358 O 421.833 1.09742 -5.91811 0
M  V30 4359 H 425.659 -0.461794 -3.00169 0
M  V30 4360 H 423.244 -0.291903 -1.46521 0
M  V30 4361 H 425.126 1.86457 -3.77904 0
M  V30 4362 H 423.801 1.94699 -2.586 0
M  V30 4363 H 422.708 -0.0622782 -3.74048 0
M  V30 4364 H 424.041 -0.062253 -4.92161 0
M  V30 4365 N 425.693 1.55336 -0.266172 0
M  V30 4366 C 426.941 1.99003 0.35246 0
M  V30 4367 C 427.262 1.15591 1.57047 0
M  V30 4368 O 426.532 0.243268 1.94384 0
M  V30 4369 H 425.112 0.735025 0.133217 0
M  V30 4370 H 427.774 1.91367 -0.369434 0
M  V30 4371 H 426.87 3.05289 0.648453 0
M  V30 4372 N 427.171 -0.0066808 1.57599 0
M  V30 4373 C 428.418 -0.69292 1.90276 0
M  V30 4374 C 428.746 -1.74148 0.866192 0
M  V30 4375 O 428.001 -1.95268 -0.129933 0
M  V30 4376 C 428.3 -1.37939 3.29708 0
M  V30 4377 C 427.966 -0.464679 4.48499 0
M  V30 4378 C 426.628 -0.212809 4.80729 0
M  V30 4379 C 428.98 0.16551 5.20937 0
M  V30 4380 C 426.308 0.677653 5.82773 0
M  V30 4381 C 428.66 1.04381 6.23929 0
M  V30 4382 C 427.324 1.30492 6.54621 0
M  V30 4383 H 426.594 -0.253558 0.696268 0
M  V30 4384 H 429.241 0.0474123 1.91441 0
M  V30 4385 H 427.546 -2.1936 3.24636 0
M  V30 4386 H 429.243 -1.9163 3.52249 0
M  V30 4387 H 425.833 -0.671153 4.23313 0
M  V30 4388 H 430.017 -0.0160756 4.96297 0
M  V30 4389 H 425.273 0.88803 6.04917 0
M  V30 4390 H 429.447 1.53851 6.79193 0
M  V30 4391 H 427.074 1.99662 7.33512 0
M  V30 4392 N 428.649 -1.55105 -0.279332 0
M  V30 4393 C 430.065 -1.46803 -0.626187 0
M  V30 4394 C 430.265 -0.676939 -1.89789 0
M  V30 4395 O 429.321 -0.19326 -2.51759 0
M  V30 4396 C 430.634 -2.90962 -0.759034 0
M  V30 4397 C 432.182 -3.01138 -0.853504 0
M  V30 4398 C 432.657 -4.46539 -1.01818 0
M  V30 4399 N 434.148 -4.50341 -1.08386 0
M  V30 4400 C 434.883 -5.60053 -1.22996 0
M  V30 4401 N 434.379 -6.79645 -1.34366 0
M  V30 4402 N 436.172 -5.47783 -1.26056 0
M  V30 4403 H 428.323 -2.04996 0.555921 0
M  V30 4404 H 430.586 -0.929325 0.187239 0
M  V30 4405 H 430.292 -3.51544 0.104852 0
M  V30 4406 H 430.166 -3.39619 -1.64131 0
M  V30 4407 H 432.553 -2.40658 -1.70786 0
M  V30 4408 H 432.634 -2.55745 0.0532466 0
M  V30 4409 H 432.278 -5.0762 -0.168504 0
M  V30 4410 H 432.208 -4.89583 -1.93948 0
M  V30 4411 H 434.699 -3.64191 -1.00864 0
M  V30 4412 H 435.012 -7.59012 -1.4533 0
M  V30 4413 H 433.357 -6.82469 -1.31382 0
M  V30 4414 H 436.548 -4.53294 -1.168 0
M  V30 4415 H 436.721 -6.33331 -1.37098 0
M  V30 4416 N 430.127 0.543554 -1.4793 0
M  V30 4417 C 431.037 1.67657 -1.64098 0
M  V30 4418 C 432.053 1.65934 -0.523622 0
M  V30 4419 O 433.229 1.85133 -0.792943 0
M  V30 4420 C 430.294 3.04146 -1.66421 0
M  V30 4421 C 429.355 3.16831 -2.89684 0
M  V30 4422 C 428.588 4.46809 -2.91886 0
M  V30 4423 O 428.811 5.33095 -2.02895 0
M  V30 4424 O 427.745 4.63573 -3.83906 0
M  V30 4425 H 431.571 1.56957 -2.59997 0
M  V30 4426 H 429.156 0.715116 -1.31173 0
M  V30 4427 H 431.038 3.85346 -1.70548 0
M  V30 4428 H 429.713 3.152 -0.736923 0
M  V30 4429 H 428.62 2.34977 -2.91095 0
M  V30 4430 H 429.953 3.10687 -3.81752 0
M  V30 4431 N 431.605 1.3629 0.791371 0
M  V30 4432 C 432.537 1.26321 1.91248 0
M  V30 4433 C 433.55 0.18313 1.61767 0
M  V30 4434 O 434.739 0.437682 1.73051 0
M  V30 4435 C 431.839 0.925901 3.26007 0
M  V30 4436 C 431.012 2.10746 3.83281 0
M  V30 4437 C 430.071 1.74352 4.96475 0
M  V30 4438 O 429.097 2.46416 5.13096 0
M  V30 4439 N 430.299 0.676058 5.7655 0
M  V30 4440 H 433.064 2.22915 2.00323 0
M  V30 4441 H 430.625 1.29659 0.969546 0
M  V30 4442 H 432.617 0.663636 3.99222 0
M  V30 4443 H 431.187 0.0491581 3.12561 0
M  V30 4444 H 430.407 2.53264 3.02077 0
M  V30 4445 H 431.695 2.8969 4.18279 0
M  V30 4446 H 431.093 0.0776467 5.65647 0
M  V30 4447 H 429.65 0.473612 6.50077 0
M  V30 4448 N 433.083 -1.0153 1.20538 0
M  V30 4449 C 434.016 -2.09759 0.898695 0
M  V30 4450 C 434.994 -1.61909 -0.149733 0
M  V30 4451 O 436.178 -1.88486 -0.0230293 0
M  V30 4452 C 433.305 -3.36913 0.347512 0
M  V30 4453 C 432.351 -4.03655 1.37713 0
M  V30 4454 S 433.184 -4.47402 2.94265 0
M  V30 4455 C 434.34 -5.77756 2.40726 0
M  V30 4456 H 434.573 -2.3545 1.81523 0
M  V30 4457 H 432.106 -1.14665 1.03399 0
M  V30 4458 H 434.064 -4.10484 0.0360518 0
M  V30 4459 H 432.725 -3.09291 -0.547546 0
M  V30 4460 H 431.918 -4.9514 0.940872 0
M  V30 4461 H 431.52 -3.36313 1.63614 0
M  V30 4462 H 433.812 -6.52994 1.80569 0
M  V30 4463 H 434.755 -6.2618 3.30612 0
M  V30 4464 H 435.163 -5.34081 1.82806 0
M  V30 4465 N 434.561 -1.01147 -1.20859 0
M  V30 4466 C 435.977 -0.725422 -1.42161 0
M  V30 4467 C 436.177 0.696919 -1.89064 0
M  V30 4468 O 435.233 1.46539 -2.05627 0
M  V30 4469 C 436.546 -1.74678 -2.44761 0
M  V30 4470 C 438.094 -1.76433 -2.58535 0
M  V30 4471 C 438.569 -2.77481 -3.64374 0
M  V30 4472 N 440.06 -2.76189 -3.71852 0
M  V30 4473 C 440.795 -3.51035 -4.53389 0
M  V30 4474 N 440.291 -4.35541 -5.38773 0
M  V30 4475 N 442.084 -3.39655 -4.47873 0
M  V30 4476 H 434.235 -1.92979 -0.887282 0
M  V30 4477 H 436.498 -0.833327 -0.451962 0
M  V30 4478 H 436.204 -2.76551 -2.17285 0
M  V30 4479 H 436.078 -1.55472 -3.43669 0
M  V30 4480 H 438.465 -0.75248 -2.85345 0
M  V30 4481 H 438.546 -1.99712 -1.5984 0
M  V30 4482 H 438.19 -3.78827 -3.38308 0
M  V30 4483 H 438.12 -2.51466 -4.6268 0
M  V30 4484 H 440.611 -2.14885 -3.10858 0
M  V30 4485 H 440.924 -4.89432 -5.98061 0
M  V30 4486 H 439.269 -4.39621 -5.38292 0
M  V30 4487 H 442.46 -2.73063 -3.80203 0
M  V30 4488 H 442.633 -3.9824 -5.11184 0
M  V30 4489 N 436.039 1.36541 -0.78704 0
M  V30 4490 C 436.971 2.28761 -0.141773 0
M  V30 4491 C 437.984 1.49365 0.647599 0
M  V30 4492 O 439.173 1.71836 0.483173 0
M  V30 4493 C 436.273 3.28771 0.822368 0
M  V30 4494 C 435.446 4.3732 0.0835594 0
M  V30 4495 C 434.505 5.17307 0.963296 0
M  V30 4496 O 433.531 5.67638 0.421419 0
M  V30 4497 N 434.733 5.33515 2.28784 0
M  V30 4498 H 437.498 2.84777 -0.933919 0
M  V30 4499 H 435.059 1.48682 -0.640735 0
M  V30 4500 H 437.051 3.79169 1.41468 0
M  V30 4501 H 435.621 2.73412 1.5154 0
M  V30 4502 H 434.841 3.88118 -0.689809 0
M  V30 4503 H 436.129 5.0701 -0.426358 0
M  V30 4504 H 435.527 4.94234 2.75226 0
M  V30 4505 H 434.084 5.87165 2.82985 0
M  V30 4506 N 437.518 0.538854 1.48102 0
M  V30 4507 C 438.934 0.19732 1.58376 0
M  V30 4508 C 439.134 -1.29971 1.5398 0
M  V30 4509 O 438.19 -2.07861 1.43352 0
M  V30 4510 C 439.503 0.807716 2.89649 0
M  V30 4511 C 441.051 0.77726 3.03196 0
M  V30 4512 C 441.526 1.36639 4.37143 0
M  V30 4513 N 443.017 1.32875 4.43732 0
M  V30 4514 C 443.752 1.7544 5.45901 0
M  V30 4515 N 443.248 2.25776 6.54979 0
M  V30 4516 N 445.041 1.66623 5.36836 0
M  V30 4517 H 437.192 1.5117 1.49202 0
M  V30 4518 H 439.455 0.629327 0.708979 0
M  V30 4519 H 439.161 1.85909 2.98548 0
M  V30 4520 H 439.035 0.289975 3.76084 0
M  V30 4521 H 441.422 -0.265374 2.93904 0
M  V30 4522 H 441.503 1.33256 2.18349 0
M  V30 4523 H 441.147 2.408 4.47189 0
M  V30 4524 H 441.077 0.786689 5.20691 0
M  V30 4525 H 443.568 0.96037 3.65493 0
M  V30 4526 H 443.881 2.56226 7.29087 0
M  V30 4527 H 442.226 2.29775 6.55918 0
M  V30 4528 H 445.417 1.27089 4.50517 0
M  V30 4529 H 445.59 2.00115 6.16326 0
M  V30 4530 N 438.996 -1.55193 0.274407 0
M  V30 4531 C 440.243 -1.99581 -0.342579 0
M  V30 4532 C 440.571 -1.1628 -1.55914 0
M  V30 4533 O 439.826 -0.22029 -1.94456 0
M  V30 4534 C 440.125 -3.49019 -0.769458 0
M  V30 4535 C 439.791 -4.49598 0.342389 0
M  V30 4536 C 438.453 -4.76821 0.647686 0
M  V30 4537 C 440.805 -5.0964 1.09163 0
M  V30 4538 C 438.133 -5.61354 1.70581 0
M  V30 4539 C 440.485 -5.95323 2.13948 0
M  V30 4540 C 439.149 -6.20867 2.45113 0
M  V30 4541 H 438.419 -0.730319 -0.125358 0
M  V30 4542 H 441.066 -1.87529 0.387971 0
M  V30 4543 H 439.371 -3.58544 -1.57967 0
M  V30 4544 H 441.068 -3.8077 -1.25757 0
M  V30 4545 H 437.658 -4.28496 0.094318 0
M  V30 4546 H 441.842 -4.88632 0.869024 0
M  V30 4547 H 437.098 -5.79392 1.9523 0
M  V30 4548 H 441.272 -6.40881 2.72478 0
M  V30 4549 H 438.899 -6.86162 3.27239 0
M  V30 4550 N 440.474 -0.00167713 -1.576 0
M  V30 4551 C 441.421 0.989195 -2.08527 0
M  V30 4552 C 442.391 1.34031 -0.981065 0
M  V30 4553 O 443.576 1.43839 -1.2536 0
M  V30 4554 C 440.716 2.27537 -2.59463 0
M  V30 4555 C 439.829 1.98314 -3.83791 0
M  V30 4556 C 438.964 3.21025 -4.23222 0
M  V30 4557 C 438.003 2.87495 -5.40382 0
M  V30 4558 N 437.14 4.02749 -5.75098 0
M  V30 4559 H 441.98 0.547973 -2.92919 0
M  V30 4560 H 439.517 0.258917 -1.44803 0
M  V30 4561 H 441.475 3.02729 -2.87073 0
M  V30 4562 H 440.105 2.69325 -1.77943 0
M  V30 4563 H 439.157 1.13482 -3.63078 0
M  V30 4564 H 440.469 1.69601 -4.69081 0
M  V30 4565 H 439.623 4.04561 -4.52123 0
M  V30 4566 H 438.362 3.52877 -3.36644 0
M  V30 4567 H 437.367 2.02367 -5.11202 0
M  V30 4568 H 438.592 2.56889 -6.28637 0
M  V30 4569 H 436.538 4.34494 -4.91478 0
M  V30 4570 H 436.455 3.77566 -6.54966 0
M  V30 4571 H 437.723 4.87068 -6.08592 0
M  V30 4572 N 441.952 1.55251 0.271103 0
M  V30 4573 C 443.2 1.75599 1.00047 0
M  V30 4574 C 443.521 0.561188 1.8675 0
M  V30 4575 O 442.791 -0.423846 1.9126 0
M  V30 4576 H 441.371 0.647562 0.372387 0
M  V30 4577 H 444.033 1.92656 0.294876 0
M  V30 4578 H 443.129 2.65766 1.6363 0
M  V30 4579 N 443.43 -0.535701 1.48216 0
M  V30 4580 C 444.678 -1.28928 1.55634 0
M  V30 4581 C 444.999 -1.93645 0.229514 0
M  V30 4582 O 444.269 -1.81038 -0.74846 0
M  V30 4583 H 442.849 -0.47884 0.573342 0
M  V30 4584 H 445.511 -0.623853 1.84646 0
M  V30 4585 H 444.607 -2.07157 2.33436 0
M  V30 4586 N 444.908 -1.36708 -0.784132 0
M  V30 4587 C 445.838 -1.34153 -1.91116 0
M  V30 4588 C 446.819 -0.212121 -1.68772 0
M  V30 4589 O 448.004 -0.410581 -1.8981 0
M  V30 4590 C 445.134 -1.13535 -3.28218 0
M  V30 4591 C 444.088 -2.23356 -3.65097 0
M  V30 4592 C 443.414 -1.87875 -5.00607 0
M  V30 4593 C 444.714 -3.65473 -3.73131 0
M  V30 4594 H 446.408 -2.28459 -1.93512 0
M  V30 4595 H 443.954 -1.09973 -0.929618 0
M  V30 4596 H 445.907 -1.10381 -4.06687 0
M  V30 4597 H 444.631 -0.156804 -3.26223 0
M  V30 4598 H 443.29 -2.25645 -2.88929 0
M  V30 4599 H 442.938 -0.885814 -4.95139 0
M  V30 4600 H 442.638 -2.61406 -5.26252 0
M  V30 4601 H 444.162 -1.86286 -5.81489 0
M  V30 4602 H 445.576 -3.65382 -4.41779 0
M  V30 4603 H 443.973 -4.37953 -4.10265 0
M  V30 4604 H 445.043 -3.99995 -2.74102 0
M  V30 4605 N 446.386 1.0089 -1.21074 0
M  V30 4606 C 447.635 1.74019 -1.01981 0
M  V30 4607 C 447.948 1.90408 0.447665 0
M  V30 4608 O 449.154 2.60707 0.757906 0
M  V30 4609 C 447.61 3.13026 -1.77603 0
M  V30 4610 C 447.218 3.04623 -3.28495 0
M  V30 4611 C 448.962 3.90312 -1.66904 0
M  V30 4612 C 446.869 4.38685 -3.96623 0
M  V30 4613 H 445.799 0.652422 -0.377971 0
M  V30 4614 H 448.45 1.12755 -1.44771 0
M  V30 4615 H 446.832 3.74878 -1.27604 0
M  V30 4616 H 448.006 2.52032 -3.85767 0
M  V30 4617 H 446.321 2.40827 -3.39693 0
M  V30 4618 H 448.918 4.8951 -2.15138 0
M  V30 4619 H 449.261 4.11558 -0.62658 0
M  V30 4620 H 449.794 3.35104 -2.14359 0
M  V30 4621 H 446.533 4.22641 -5.01054 0
M  V30 4622 H 446.053 4.91252 -3.4414 0
M  V30 4623 H 447.732 5.075 -4.01314 0
M  V30 4624 N 447.864 1.01787 1.20321 0
M  V30 4625 C 449.094 0.72614 1.93419 0
M  V30 4626 C 449.502 -0.717317 1.75075 0
M  V30 4627 O 448.845 -1.49836 1.06278 0
M  V30 4628 C 448.907 0.983621 3.45782 0
M  V30 4629 C 448.571 2.41645 3.87888 0
M  V30 4630 C 449.568 3.39732 3.93545 0
M  V30 4631 C 447.253 2.75752 4.19841 0
M  V30 4632 C 449.247 4.69988 4.30569 0
M  V30 4633 C 446.934 4.06221 4.56539 0
M  V30 4634 C 447.932 5.0315 4.61876 0
M  V30 4635 O 447.62 6.31284 4.97731 0
M  V30 4636 H 447.352 0.265824 0.621541 0
M  V30 4637 H 449.906 1.3623 1.53722 0
M  V30 4638 H 448.136 0.290301 3.85609 0
M  V30 4639 H 449.825 0.683279 4.00108 0
M  V30 4640 H 450.591 3.14718 3.69022 0
M  V30 4641 H 446.47 2.00993 4.14877 0
M  V30 4642 H 450.014 5.45642 4.3465 0
M  V30 4643 H 445.911 4.31013 4.80518 0
M  V30 4644 H 446.679 6.35591 5.15719 0
M  V30 4645 N 449.342 -1.36122 0.79427 0
M  V30 4646 C 450.582 -2.00942 0.374376 0
M  V30 4647 C 450.946 -1.61666 -1.03577 0
M  V30 4648 O 452.147 -2.19113 -1.55701 0
M  V30 4649 C 450.418 -3.53323 0.538327 0
M  V30 4650 S 451.977 -4.38311 0.20703 0
M  V30 4651 H 448.795 -0.696515 0.142785 0
M  V30 4652 H 451.397 -1.65929 1.03382 0
M  V30 4653 H 450.101 -3.79395 1.56484 0
M  V30 4654 H 449.632 -3.93162 -0.136882 0
M  V30 4655 H 451.647 -4.8623 -0.989695 0
M  V30 4656 N 450.82 -0.546701 -1.47814 0
M  V30 4657 C 452.068 -0.0187037 -2.02091 0
M  V30 4658 C 452.389 1.33168 -1.42447 0
M  V30 4659 O 451.659 1.86619 -0.595839 0
M  V30 4660 H 450.239 -0.00392531 -0.74699 0
M  V30 4661 H 452.901 -0.714327 -1.81338 0
M  V30 4662 H 451.997 0.0772219 -3.12004 0
M  V30 4663 N 452.299 1.55045 -0.282633 0
M  V30 4664 C 453.247 2.24254 0.617478 0
M  V30 4665 C 454.241 1.24215 1.15183 0
M  V30 4666 O 455.447 1.42123 1.10459 0
M  V30 4667 H 451.822 0.719801 0.217693 0
M  V30 4668 H 453.793 2.98398 0.0110076 0
M  V30 4669 C 452.542 2.98281 1.78672 0
M  V30 4670 H 451.865 3.75053 1.38475 0
M  V30 4671 H 453.305 3.50017 2.393 0
M  V30 4672 C 451.764 2.04184 2.67975 0
M  V30 4673 O 452.294 1.59792 3.6855 0
M  V30 4674 N 450.5 1.70526 2.35307 0
M  V30 4675 H 450.047 2.06821 1.53567 0
M  V30 4676 H 450.005 1.07839 2.95327 0
M  V30 4677 N 453.777 0.010035 1.57597 0
M  V30 4678 C 455.007 -0.682422 1.95004 0
M  V30 4679 C 455.415 -1.67278 0.884014 0
M  V30 4680 O 454.758 -1.83129 -0.144672 0
M  V30 4681 C 454.82 -1.46141 3.28456 0
M  V30 4682 C 454.484 -0.631523 4.52615 0
M  V30 4683 C 455.481 0.0850905 5.1983 0
M  V30 4684 C 453.166 -0.574539 4.99003 0
M  V30 4685 C 455.16 0.847566 6.3174 0
M  V30 4686 C 452.847 0.191655 6.10799 0
M  V30 4687 C 453.845 0.901432 6.77025 0
M  V30 4688 O 453.533 1.65511 7.86677 0
M  V30 4689 H 453.265 -0.194361 0.647456 0
M  V30 4690 H 455.819 0.060312 2.05311 0
M  V30 4691 H 454.049 -2.24885 3.14585 0
M  V30 4692 H 455.738 -2.04016 3.50902 0
M  V30 4693 H 456.504 0.0502812 4.84974 0
M  V30 4694 H 452.383 -1.11654 4.47274 0
M  V30 4695 H 455.927 1.4021 6.83364 0
M  V30 4696 H 451.824 0.228249 6.45096 0
M  V30 4697 H 452.592 1.57287 8.03245 0
M  V30 4698 N 455.255 -1.55392 -0.262866 0
M  V30 4699 C 456.532 -1.67204 -1.01499 0
M  V30 4700 C 456.912 -0.545186 -2.03939 0
M  V30 4701 O 456.26 0.453467 -2.23955 0
M  V30 4702 C 456.47 -3.06847 -1.6627 0
M  V30 4703 C 457.818 -3.64928 -2.17054 0
M  V30 4704 O 458.842 -3.09545 -1.76239 0
M  V30 4705 O 457.701 -4.61984 -2.91947 0
M  V30 4706 H 454.795 -0.679467 -0.471438 0
M  V30 4707 H 457.341 -1.67729 -0.257918 0
M  V30 4708 H 456.113 -3.80309 -0.920915 0
M  V30 4709 H 455.736 -3.10266 -2.48638 0
M  V30 4710 N 456.733 0.527833 -1.48498 0
M  V30 4711 C 457.696 1.61439 -1.62696 0
M  V30 4712 C 458.696 1.52824 -0.500136 0
M  V30 4713 O 459.886 1.56456 -0.765976 0
M  V30 4714 C 457.018 3.01063 -1.59918 0
M  V30 4715 H 458.211 1.50189 -2.59583 0
M  V30 4716 H 455.764 0.750055 -1.37127 0
M  V30 4717 H 456.499 3.17818 -0.645163 0
M  V30 4718 H 456.284 3.08725 -2.41726 0
M  V30 4719 H 457.774 3.80057 -1.73051 0
M  V30 4720 N 458.211 1.37122 0.776871 0
M  V30 4721 C 459.459 1.31787 1.53221 0
M  V30 4722 C 459.78 -0.0987589 1.9475 0
M  V30 4723 O 459.05 -1.0417 1.65908 0
M  V30 4724 H 457.63 0.484839 0.568278 0
M  V30 4725 H 460.292 1.71556 0.924917 0
M  V30 4726 H 459.388 1.95355 2.43398 0
M  V30 4727 N 459.689 -1.00246 1.21608 0
M  V30 4728 C 461.105 -1.26435 0.973975 0
M  V30 4729 C 461.305 -1.98642 -0.338143 0
M  V30 4730 O 460.361 -2.29026 -1.06317 0
M  V30 4731 C 461.674 -2.08551 2.16626 0
M  V30 4732 C 463.222 -2.21769 2.20879 0
M  V30 4733 C 463.697 -3.07267 3.39633 0
M  V30 4734 N 465.188 -3.14855 3.39736 0
M  V30 4735 C 465.923 -3.81274 4.28273 0
M  V30 4736 N 465.419 -4.497 5.27012 0
M  V30 4737 N 467.212 -3.7794 4.16074 0
M  V30 4738 H 459.363 -0.518089 2.05984 0
M  V30 4739 H 461.626 -0.291368 0.902113 0
M  V30 4740 H 461.332 -1.62847 3.11727 0
M  V30 4741 H 461.206 -3.09303 2.15897 0
M  V30 4742 H 463.593 -2.66691 1.26332 0
M  V30 4743 H 463.674 -1.20478 2.25652 0
M  V30 4744 H 463.318 -2.63047 4.34475 0
M  V30 4745 H 463.248 -4.08678 3.321 0
M  V30 4746 H 465.739 -2.66147 2.6828 0
M  V30 4747 H 466.052 -4.98092 5.90867 0
M  V30 4748 H 464.397 -4.48479 5.30935 0
M  V30 4749 H 467.588 -3.23638 3.38195 0
M  V30 4750 H 467.761 -4.29424 4.85282 0
M  V30 4751 N 461.167 -1.02423 -1.1978 0
M  V30 4752 C 462.13 -0.605703 -2.21052 0
M  V30 4753 C 463.13 0.328209 -1.57415 0
M  V30 4754 O 464.32 0.115853 -1.73814 0
M  V30 4755 C 461.452 0.114366 -3.40708 0
M  V30 4756 H 462.645 -1.5017 -2.59594 0
M  V30 4757 H 460.198 -0.814888 -1.33376 0
M  V30 4758 H 460.933 1.02492 -3.07678 0
M  V30 4759 H 460.718 -0.556641 -3.88129 0
M  V30 4760 H 462.208 0.394272 -4.15735 0
M  V30 4761 N 462.645 1.35699 -0.801477 0
M  V30 4762 C 463.577 2.28598 -0.166028 0
M  V30 4763 C 464.59 1.50044 0.631721 0
M  V30 4764 O 465.779 1.72339 0.464921 0
M  V30 4765 C 462.879 3.29625 0.787451 0
M  V30 4766 C 462.052 4.37384 0.037171 0
M  V30 4767 C 461.111 5.183 0.908375 0
M  V30 4768 O 460.137 5.68053 0.361189 0
M  V30 4769 N 461.339 5.35912 2.23112 0
M  V30 4770 H 464.104 2.83771 -0.964071 0
M  V30 4771 H 461.665 1.47994 -0.656469 0
M  V30 4772 H 463.657 3.80648 1.37439 0
M  V30 4773 H 462.227 2.75004 1.48632 0
M  V30 4774 H 461.447 3.87364 -0.730935 0
M  V30 4775 H 462.735 5.0653 -0.480109 0
M  V30 4776 H 462.133 4.97125 2.69968 0
M  V30 4777 H 460.69 5.90133 2.76741 0
M  V30 4778 N 464.123 0.554532 1.47522 0
M  V30 4779 C 465.086 -0.184174 2.28459 0
M  V30 4780 C 466.086 -0.845195 1.36796 0
M  V30 4781 O 467.276 -0.701467 1.59452 0
M  V30 4782 C 464.408 -1.26903 3.16399 0
M  V30 4783 H 465.601 0.526751 2.95238 0
M  V30 4784 H 463.154 0.311375 1.53167 0
M  V30 4785 H 463.889 -2.01244 2.54306 0
M  V30 4786 H 463.674 -0.799883 3.83854 0
M  V30 4787 H 465.164 -1.78794 3.77389 0
M  V30 4788 N 465.601 -1.54893 0.290851 0
M  V30 4789 C 467.017 -1.59476 -0.0628432 0
M  V30 4790 C 467.217 -1.30795 -1.5328 0
M  V30 4791 O 466.273 -1.07644 -2.28406 0
M  V30 4792 C 467.586 -2.98928 0.325962 0
M  V30 4793 C 469.134 -3.11799 0.273882 0
M  V30 4794 C 469.609 -4.53544 0.637359 0
M  V30 4795 N 471.1 -4.59433 0.589507 0
M  V30 4796 C 471.835 -5.67164 0.84335 0
M  V30 4797 N 471.331 -6.82975 1.16263 0
M  V30 4798 N 473.124 -5.56786 0.771091 0
M  V30 4799 H 465.275 -1.71798 1.24896 0
M  V30 4800 H 467.538 -0.801879 0.505663 0
M  V30 4801 H 467.244 -3.24805 1.34887 0
M  V30 4802 H 467.118 -3.75793 -0.325441 0
M  V30 4803 H 469.505 -2.85677 -0.739765 0
M  V30 4804 H 469.586 -2.37112 0.959766 0
M  V30 4805 H 469.23 -4.80394 1.64877 0
M  V30 4806 H 469.16 -5.26553 -0.0704866 0
M  V30 4807 H 471.651 -3.76245 0.353252 0
M  V30 4808 H 471.964 -7.61048 1.34257 0
M  V30 4809 H 470.309 -6.84552 1.20057 0
M  V30 4810 H 473.5 -4.65187 0.521383 0
M  V30 4811 H 473.673 -6.40664 0.972295 0
M  V30 4812 N 467.08 -0.0183926 -1.57589 0
M  V30 4813 C 468.01 0.965596 -2.12599 0
M  V30 4814 C 468.991 1.34641 -1.0395 0
M  V30 4815 O 470.176 1.42693 -1.31729 0
M  V30 4816 C 467.306 2.25149 -2.64434 0
M  V30 4817 C 466.26 2.01175 -3.77773 0
M  V30 4818 C 465.586 3.35937 -4.15994 0
M  V30 4819 C 466.886 1.35953 -5.04296 0
M  V30 4820 H 468.58 0.507504 -2.95067 0
M  V30 4821 H 466.126 0.242671 -1.41941 0
M  V30 4822 H 468.079 2.94357 -3.01549 0
M  V30 4823 H 466.803 2.73105 -1.79112 0
M  V30 4824 H 465.462 1.34388 -3.4108 0
M  V30 4825 H 465.11 3.81631 -3.27669 0
M  V30 4826 H 464.81 3.20705 -4.92364 0
M  V30 4827 H 466.334 4.0643 -4.55683 0
M  V30 4828 H 467.748 1.95144 -5.39065 0
M  V30 4829 H 466.145 1.31152 -5.85593 0
M  V30 4830 H 467.215 0.331071 -4.83768 0
M  V30 4831 N 468.558 1.5553 0.254621 0
M  V30 4832 C 469.835 1.6774 1.00611 0
M  V30 4833 C 470.215 0.555993 2.03647 0
M  V30 4834 O 469.563 -0.441583 2.24193 0
M  V30 4835 C 469.773 3.07725 1.6464 0
M  V30 4836 C 471.121 3.66074 2.15116 0
M  V30 4837 O 472.145 3.10476 1.74595 0
M  V30 4838 O 471.004 4.63526 2.89493 0
M  V30 4839 H 468.098 0.681958 0.467828 0
M  V30 4840 H 470.644 1.67863 0.24902 0
M  V30 4841 H 469.416 3.80792 0.900734 0
M  V30 4842 H 469.039 3.1158 2.46989 0
M  V30 4843 N 470.036 -0.519951 1.48776 0
M  V30 4844 C 471.313 -1.28123 1.47797 0
M  V30 4845 C 471.693 -2.10196 0.195157 0
M  V30 4846 O 471.041 -2.13167 -0.822925 0
M  V30 4847 C 471.251 -2.15413 2.74587 0
M  V30 4848 C 472.599 -2.75225 3.23321 0
M  V30 4849 O 473.623 -2.25694 2.75574 0
M  V30 4850 O 472.482 -3.65346 4.06429 0
M  V30 4851 H 469.576 -0.578793 0.590701 0
M  V30 4852 H 472.122 -0.535779 1.6102 0
M  V30 4853 H 470.894 -1.54617 3.59457 0
M  V30 4854 H 470.517 -2.97186 2.64132 0
M  V30 4855 N 471.514 -1.37532 -0.769588 0
M  V30 4856 C 472.462 -1.33561 -1.90432 0
M  V30 4857 C 473.456 -0.224027 -1.67912 0
M  V30 4858 O 474.662 -0.392174 -1.75676 0
M  V30 4859 H 471.037 -0.416279 -0.626271 0
M  V30 4860 H 473.008 -2.29348 -1.90899 0
M  V30 4861 C 471.757 -1.16162 -3.27722 0
M  V30 4862 H 471.08 -2.00951 -3.45628 0
M  V30 4863 H 472.52 -1.17434 -4.07413 0
M  V30 4864 C 470.979 0.132583 -3.36639 0
M  V30 4865 O 471.509 1.11539 -3.85904 0
M  V30 4866 N 469.715 0.184013 -2.90017 0
M  V30 4867 H 469.262 -0.616415 -2.50116 0
M  V30 4868 H 469.22 1.04956 -2.96364 0
M  V30 4869 N 472.992 0.995999 -1.22138 0
M  V30 4870 C 474.22 1.77066 -1.07029 0
M  V30 4871 C 474.635 1.8495 0.379357 0
M  V30 4872 O 473.992 1.3174 1.26297 0
M  V30 4873 C 474.043 3.20533 -1.67155 0
M  V30 4874 O 473.764 3.13082 -3.06449 0
M  V30 4875 C 475.265 4.14461 -1.5728 0
M  V30 4876 H 472.485 0.556179 -0.375374 0
M  V30 4877 H 475.029 1.25238 -1.61666 0
M  V30 4878 H 473.184 3.6944 -1.16589 0
M  V30 4879 H 473.598 4.03283 -3.35355 0
M  V30 4880 H 475.072 5.1289 -2.04078 0
M  V30 4881 H 475.549 4.36005 -0.528795 0
M  V30 4882 H 476.155 3.71449 -2.07136 0
M  V30 4883 N 474.47 1.03057 1.19235 0
M  V30 4884 C 475.433 0.617418 2.20727 0
M  V30 4885 C 476.433 -0.319856 1.57587 0
M  V30 4886 O 477.623 -0.106633 1.73873 0
M  V30 4887 C 474.755 -0.096296 3.40764 0
M  V30 4888 H 475.948 1.51544 2.58794 0
M  V30 4889 H 473.501 0.821949 1.32942 0
M  V30 4890 H 474.236 -1.00859 3.08217 0
M  V30 4891 H 474.021 0.577217 3.87828 0
M  V30 4892 H 475.511 -0.372219 4.15938 0
M  V30 4893 N 475.948 -1.35272 0.808662 0
M  V30 4894 C 477.225 -1.93077 0.313181 0
M  V30 4895 C 477.605 -1.73847 -1.19752 0
M  V30 4896 O 476.953 -1.1087 -1.998 0
M  V30 4897 C 477.163 -3.41347 0.726859 0
M  V30 4898 C 478.511 -4.18493 0.717532 0
M  V30 4899 O 479.535 -3.4987 0.668535 0
M  V30 4900 O 478.394 -5.40937 0.777779 0
M  V30 4901 H 475.488 -0.822885 0.0824018 0
M  V30 4902 H 478.034 -1.44335 0.892499 0
M  V30 4903 H 476.806 -3.49082 1.76797 0
M  V30 4904 H 476.429 -3.97411 0.122461 0
M  V30 4905 N 477.426 -0.562348 -1.47226 0
M  V30 4906 C 478.389 0.172056 -2.28553 0
M  V30 4907 C 479.389 0.837928 -1.37242 0
M  V30 4908 O 480.579 0.693001 -1.59822 0
M  V30 4909 C 477.711 1.25223 -3.17068 0
M  V30 4910 H 478.904 -0.542401 -2.94954 0
M  V30 4911 H 476.457 -0.319493 -1.53 0
M  V30 4912 H 477.192 1.99892 -2.55369 0
M  V30 4913 H 476.977 0.779515 -3.84273 0
M  V30 4914 H 478.467 1.76791 -3.78332 0
M  V30 4915 N 478.904 1.54736 -0.299062 0
M  V30 4916 C 480.15 2.00397 0.311244 0
M  V30 4917 C 480.483 1.18716 1.53688 0
M  V30 4918 O 479.758 0.263154 1.92712 0
M  V30 4919 C 480.041 3.53817 0.669761 0
M  V30 4920 C 479.894 4.46239 -0.564882 0
M  V30 4921 C 481.213 4.13856 1.49702 0
M  V30 4922 H 478.332 0.728493 0.111653 0
M  V30 4923 H 480.974 1.85506 -0.410774 0
M  V30 4924 H 479.124 3.66637 1.28491 0
M  V30 4925 H 480.796 4.45328 -1.20337 0
M  V30 4926 H 479.039 4.16916 -1.19849 0
M  V30 4927 H 479.71 5.5134 -0.269918 0
M  V30 4928 H 482.186 4.04461 0.977284 0
M  V30 4929 H 481.062 5.21365 1.71666 0
M  V30 4930 H 481.323 3.65608 2.48563 0
M  V30 4931 N 480.382 0.0267497 1.57577 0
M  V30 4932 C 481.345 -0.940916 2.08996 0
M  V30 4933 C 482.345 -1.25561 1.00455 0
M  V30 4934 O 483.535 -1.19634 1.26623 0
M  V30 4935 C 480.667 -2.25814 2.55384 0
M  V30 4936 H 481.86 -0.495628 2.95776 0
M  V30 4937 H 479.413 -0.221241 1.54726 0
M  V30 4938 H 480.148 -2.74976 1.71926 0
M  V30 4939 H 479.933 -2.04285 3.34679 0
M  V30 4940 H 481.423 -2.95178 2.95398 0
M  V30 4941 N 481.861 -1.55662 -0.24637 0
M  V30 4942 C 483.108 -1.77519 -0.974335 0
M  V30 4943 C 483.436 -0.591165 -1.85298 0
M  V30 4944 O 482.691 0.425497 -1.91018 0
M  V30 4945 C 482.99 -3.04885 -1.86494 0
M  V30 4946 C 482.656 -4.36209 -1.14161 0
M  V30 4947 C 481.318 -4.71896 -0.941701 0
M  V30 4948 C 483.67 -5.17391 -0.628957 0
M  V30 4949 C 480.998 -5.86299 -0.216852 0
M  V30 4950 C 483.35 -6.32546 0.0824273 0
M  V30 4951 C 482.014 -6.66853 0.293807 0
M  V30 4952 H 481.284 -0.649588 -0.356535 0
M  V30 4953 H 483.931 -1.89934 -0.244394 0
M  V30 4954 H 482.236 -2.87484 -2.66196 0
M  V30 4955 H 483.933 -3.18994 -2.42989 0
M  V30 4956 H 480.523 -4.08174 -1.30736 0
M  V30 4957 H 484.707 -4.90276 -0.770943 0
M  V30 4958 H 479.963 -6.11385 -0.0426124 0
M  V30 4959 H 484.137 -6.94693 0.487292 0
M  V30 4960 H 481.764 -7.55349 0.857428 0
M  V30 4961 N 483.339 0.512053 -1.4905 0
M  V30 4962 C 484.587 1.26436 -1.57665 0
M  V30 4963 C 484.908 1.93255 -0.260293 0
M  V30 4964 O 484.178 1.82206 0.719564 0
M  V30 4965 H 482.758 0.469658 -0.580888 0
M  V30 4966 H 485.42 0.594398 -1.85615 0
M  V30 4967 H 484.516 2.03417 -2.36702 0
M  V30 4968 N 484.817 1.37938 0.762283 0
M  V30 4969 C 486.233 1.18945 1.06415 0
M  V30 4970 C 486.433 0.0321163 2.01474 0
M  V30 4971 O 485.489 -0.624844 2.44647 0
M  V30 4972 C 486.802 2.51218 1.65258 0
M  V30 4973 C 488.35 2.57824 1.7747 0
M  V30 4974 C 488.825 3.90251 2.39725 0
M  V30 4975 N 490.316 3.91744 2.47166 0
M  V30 4976 C 491.051 4.90966 2.96209 0
M  V30 4977 N 490.547 6.00585 3.45354 0
M  V30 4978 N 492.34 4.78363 2.9517 0
M  V30 4979 H 484.491 2.11994 0.131301 0
M  V30 4980 H 486.754 0.940262 0.120879 0
M  V30 4981 H 486.46 3.36317 1.02878 0
M  V30 4982 H 486.334 2.68989 2.64433 0
M  V30 4983 H 488.721 1.73126 2.3898 0
M  V30 4984 H 488.802 2.43928 0.770241 0
M  V30 4985 H 488.446 4.75368 1.78852 0
M  V30 4986 H 488.376 4.01454 3.40796 0
M  V30 4987 H 490.867 3.12563 2.12397 0
M  V30 4988 H 491.18 6.72236 3.81207 0
M  V30 4989 H 489.525 6.04217 3.43434 0
M  V30 4990 H 492.716 3.91841 2.56082 0
M  V30 4991 H 492.889 5.55843 3.33081 0
M  V30 4992 N 486.295 -0.989507 1.22664 0
M  V30 4993 C 487.706 -1.54406 1.04955 0
M  V30 4994 C 488.057 -1.92366 -0.385951 0
M  V30 4995 O 487.182 -1.75111 -1.27142 0
M  V30 4996 C 487.777 -2.80578 1.89899 0
M  V30 4997 C 486.336 -3.32464 1.76478 0
M  V30 4998 C 485.483 -2.05524 1.86159 0
M  V30 4999 H 488.434 -0.810211 1.3646 0
M  V30 5000 H 488.455 -3.53075 1.4184 0
M  V30 5001 H 487.967 -2.52918 2.94371 0
M  V30 5002 H 486.068 -3.65024 0.747528 0
M  V30 5003 H 486.181 -4.02838 2.59342 0
M  V30 5004 H 484.545 -2.19241 1.29636 0
M  V30 5005 H 485.328 -1.80258 2.92168 0
M  V30 5006 N 487.773 -1.03688 -1.18687 0
M  V30 5007 C 489.02 -0.73803 -1.88572 0
M  V30 5008 C 489.348 0.733973 -1.8012 0
M  V30 5009 O 488.603 1.55098 -1.19344 0
M  V30 5010 C 488.902 -1.14477 -3.3857 0
M  V30 5011 C 488.568 -2.61641 -3.67226 0
M  V30 5012 C 487.23 -3.01846 -3.74757 0
M  V30 5013 C 489.582 -3.56812 -3.79914 0
M  V30 5014 C 486.91 -4.36118 -3.92451 0
M  V30 5015 C 489.262 -4.90799 -3.99123 0
M  V30 5016 C 487.926 -5.3068 -4.04888 0
M  V30 5017 H 487.196 -0.270064 -0.690034 0
M  V30 5018 H 489.843 -1.3012 -1.40503 0
M  V30 5019 H 488.148 -0.500337 -3.88592 0
M  V30 5020 H 489.845 -0.89095 -3.90977 0
M  V30 5021 H 486.435 -2.29498 -3.61979 0
M  V30 5022 H 490.619 -3.26899 -3.73431 0
M  V30 5023 H 485.875 -4.66542 -3.95157 0
M  V30 5024 H 490.049 -5.64451 -4.07882 0
M  V30 5025 H 487.676 -6.34733 -4.18351 0
M  V30 5026 N 489.251 1.34841 -0.815825 0
M  V30 5027 C 490.5 1.97755 -0.396976 0
M  V30 5028 C 490.813 1.65422 1.04379 0
M  V30 5029 O 492.019 2.21771 1.5662 0
M  V30 5030 C 490.475 3.53818 -0.658869 0
M  V30 5031 C 490.083 3.95051 -2.11278 0
M  V30 5032 C 491.827 4.23397 -0.305834 0
M  V30 5033 C 489.734 5.43997 -2.31994 0
M  V30 5034 H 488.664 0.739985 -0.1447 0
M  V30 5035 H 491.315 1.53781 -1.00118 0
M  V30 5036 H 489.697 3.95997 0.0154112 0
M  V30 5037 H 490.871 3.63998 -2.82564 0
M  V30 5038 H 489.186 3.38388 -2.42657 0
M  V30 5039 H 491.783 5.32899 -0.43854 0
M  V30 5040 H 492.126 4.09508 0.748952 0
M  V30 5041 H 492.659 3.8667 -0.934403 0
M  V30 5042 H 489.398 5.62865 -3.35952 0
M  V30 5043 H 488.918 5.76589 -1.65244 0
M  V30 5044 H 490.597 6.10584 -2.14001 0
M  V30 5045 N 490.729 0.570148 1.46925 0
M  V30 5046 C 491.692 -0.159933 2.28641 0
M  V30 5047 C 492.692 -0.830638 1.37685 0
M  V30 5048 O 493.882 -0.684516 1.60187 0
M  V30 5049 C 491.014 -1.2354 3.17727 0
M  V30 5050 H 492.207 0.558035 2.94662 0
M  V30 5051 H 489.76 0.327603 1.52828 0
M  V30 5052 H 490.495 -1.98535 2.56426 0
M  V30 5053 H 490.28 -0.759125 3.84681 0
M  V30 5054 H 491.77 -1.74782 3.79264 0
M  V30 5055 N 492.207 -1.54576 0.307264 0
M  V30 5056 C 493.155 -2.25208 -0.581723 0
M  V30 5057 C 494.149 -1.26031 -1.13192 0
M  V30 5058 O 495.355 -1.43862 -1.08184 0
M  V30 5059 H 491.73 -0.723173 -0.206214 0
M  V30 5060 H 493.701 -2.98378 0.0364663 0
M  V30 5061 C 492.45 -3.01086 -1.73904 0
M  V30 5062 H 491.773 -3.77208 -1.32491 0
M  V30 5063 H 493.213 -3.5378 -2.33701 0
M  V30 5064 C 491.672 -2.08422 -2.64692 0
M  V30 5065 O 492.202 -1.65636 -3.65961 0
M  V30 5066 N 490.408 -1.74247 -2.32564 0
M  V30 5067 H 489.955 -2.09238 -1.50257 0
M  V30 5068 H 489.913 -1.12524 -2.93574 0
M  V30 5069 N 493.685 -0.035106 -1.57561 0
M  V30 5070 C 495.096 0.502885 -1.798 0
M  V30 5071 C 495.447 1.71892 -0.945921 0
M  V30 5072 O 494.572 2.15822 -0.157991 0
M  V30 5073 C 495.167 0.919097 -3.26095 0
M  V30 5074 C 493.726 1.40216 -3.49308 0
M  V30 5075 C 492.873 0.369709 -2.74824 0
M  V30 5076 H 495.824 -0.261102 -1.56537 0
M  V30 5077 H 495.845 1.78308 -3.36135 0
M  V30 5078 H 495.357 0.0338526 -3.88085 0
M  V30 5079 H 493.458 2.30714 -2.92578 0
M  V30 5080 H 493.571 1.40541 -4.58023 0
M  V30 5081 H 491.935 0.839113 -2.40481 0
M  V30 5082 H 492.718 -0.507173 -3.39533 0
M  V30 5083 N 495.163 1.55791 0.238111 0
M  V30 5084 C 496.44 1.68798 0.98826 0
M  V30 5085 C 496.82 0.577562 2.03045 0
M  V30 5086 O 496.168 -0.41778 2.24648 0
M  V30 5087 C 496.378 3.09454 1.61367 0
M  V30 5088 C 497.726 3.68335 2.11221 0
M  V30 5089 O 498.75 3.1231 1.71292 0
M  V30 5090 O 497.609 4.6657 2.84561 0
M  V30 5091 H 494.703 0.686881 0.460568 0
M  V30 5092 H 497.249 1.68118 0.231202 0
M  V30 5093 H 496.021 3.81726 0.860295 0
M  V30 5094 H 495.644 3.14182 2.4367 0
M  V30 5095 N 496.642 -0.504142 1.49319 0
M  V30 5096 C 497.572 -1.61473 1.68667 0
M  V30 5097 C 498.553 -1.61455 0.535378 0
M  V30 5098 O 499.738 -1.78245 0.770868 0
M  V30 5099 C 496.868 -2.99971 1.75028 0
M  V30 5100 C 495.822 -3.14854 2.89916 0
M  V30 5101 C 495.148 -4.54671 2.81387 0
M  V30 5102 C 496.448 -2.95176 4.30893 0
M  V30 5103 H 498.142 -1.45535 2.61648 0
M  V30 5104 H 495.688 -0.698711 1.25913 0
M  V30 5105 H 497.641 -3.77562 1.8715 0
M  V30 5106 H 496.365 -3.1699 0.786441 0
M  V30 5107 H 495.024 -2.39687 2.77391 0
M  V30 5108 H 494.672 -4.68562 1.82917 0
M  V30 5109 H 494.372 -4.6557 3.58494 0
M  V30 5110 H 495.896 -5.34327 2.95512 0
M  V30 5111 H 497.31 -3.62538 4.44116 0
M  V30 5112 H 495.707 -3.17549 5.09198 0
M  V30 5113 H 496.777 -1.91332 4.45556 0
M  V30 5114 N 498.12 -1.38341 -0.754957 0
M  V30 5115 C 499.531 -1.30803 -1.3322 0
M  V30 5116 C 499.882 0.0368 -1.96165 0
M  V30 5117 O 499.007 0.938844 -1.94974 0
M  V30 5118 C 499.602 -2.3688 -2.42225 0
M  V30 5119 C 498.161 -2.32925 -2.95674 0
M  V30 5120 C 497.308 -2.19819 -1.69042 0
M  V30 5121 H 500.259 -1.48719 -0.553937 0
M  V30 5122 H 500.28 -2.02517 -3.22129 0
M  V30 5123 H 499.792 -3.34747 -1.96383 0
M  V30 5124 H 497.893 -1.38635 -3.45848 0
M  V30 5125 H 498.006 -3.27008 -3.50146 0
M  V30 5126 H 496.37 -1.66648 -1.92615 0
M  V30 5127 H 497.153 -3.19625 -1.25279 0
M  V30 5128 N 499.598 0.982988 -1.23187 0
M  V30 5129 C 500.508 2.10907 -1.02739 0
M  V30 5130 C 501.524 1.73979 0.0273188 0
M  V30 5131 O 502.7 2.00702 -0.16757 0
M  V30 5132 C 499.765 3.41142 -0.618304 0
M  V30 5133 C 498.826 3.92112 -1.74777 0
M  V30 5134 C 498.059 5.16131 -1.3581 0
M  V30 5135 O 498.282 5.6989 -0.241201 0
M  V30 5136 O 497.216 5.61103 -2.17824 0
M  V30 5137 H 501.042 2.31046 -1.97108 0
M  V30 5138 H 498.627 1.09284 -1.01869 0
M  V30 5139 H 500.509 4.19488 -0.400982 0
M  V30 5140 H 499.184 3.2234 0.296421 0
M  V30 5141 H 498.091 3.14895 -2.0197 0
M  V30 5142 H 499.424 4.15364 -2.64071 0
M  V30 5143 N 501.076 1.04316 1.18135 0
M  V30 5144 C 502.492 0.762858 1.40188 0
M  V30 5145 C 502.692 -0.646547 1.90846 0
M  V30 5146 O 501.748 -1.41036 2.0944 0
M  V30 5147 C 503.061 1.81106 2.40044 0
M  V30 5148 C 504.609 1.83226 2.53766 0
M  V30 5149 C 505.084 2.87044 3.56889 0
M  V30 5150 N 506.575 2.85951 3.64398 0
M  V30 5151 C 507.31 3.62932 4.43923 0
M  V30 5152 N 506.806 4.49672 5.27036 0
M  V30 5153 N 508.599 3.51411 4.38711 0
M  V30 5154 H 500.75 1.95264 0.835805 0
M  V30 5155 H 503.013 0.845017 0.429709 0
M  V30 5156 H 502.719 2.82214 2.09876 0
M  V30 5157 H 502.593 1.64529 3.39426 0
M  V30 5158 H 504.98 0.827869 2.8325 0
M  V30 5159 H 505.061 2.03879 1.54489 0
M  V30 5160 H 504.705 3.87663 3.28145 0
M  V30 5161 H 504.635 2.63645 4.5585 0
M  V30 5162 H 507.126 2.23051 3.05052 0
M  V30 5163 H 507.439 5.05116 5.84874 0
M  V30 5164 H 505.784 4.53738 5.26447 0
M  V30 5165 H 508.975 2.83047 3.72829 0
M  V30 5166 H 509.148 4.11654 5.00445 0
M  V30 5167 N 502.554 -1.34406 0.822964 0
M  V30 5168 C 503.801 -1.98284 0.411057 0
M  V30 5169 C 504.129 -1.65245 -1.02588 0
M  V30 5170 O 503.384 -0.91619 -1.72929 0
M  V30 5171 C 503.683 -3.52981 0.560268 0
M  V30 5172 C 503.349 -4.05931 1.96293 0
M  V30 5173 C 502.011 -4.20103 2.34664 0
M  V30 5174 C 504.363 -4.34412 2.87985 0
M  V30 5175 C 501.691 -4.60082 3.64062 0
M  V30 5176 C 504.043 -4.75838 4.16847 0
M  V30 5177 C 502.707 -4.88215 4.55195 0
M  V30 5178 H 501.977 -0.725573 0.150416 0
M  V30 5179 H 504.624 -1.60349 1.04692 0
M  V30 5180 H 502.929 -3.91477 -0.158982 0
M  V30 5181 H 504.626 -4.00385 0.222087 0
M  V30 5182 H 501.216 -3.95363 1.65487 0
M  V30 5183 H 505.4 -4.23001 2.59584 0
M  V30 5184 H 500.656 -4.67856 3.93599 0
M  V30 5185 H 504.83 -4.96834 4.87984 0
M  V30 5186 H 502.457 -5.18952 5.55512 0
M  V30 5187 N 504.032 -0.577932 -1.46621 0
M  V30 5188 C 505.448 -0.239242 -1.57797 0
M  V30 5189 C 505.648 1.25843 -1.57371 0
M  V30 5190 O 504.704 2.03988 -1.48813 0
M  V30 5191 C 506.017 -0.884227 -2.87405 0
M  V30 5192 C 507.565 -0.857373 -3.01028 0
M  V30 5193 C 508.04 -1.48181 -4.33366 0
M  V30 5194 N 509.531 -1.44593 -4.40053 0
M  V30 5195 C 510.266 -1.89852 -5.41058 0
M  V30 5196 N 509.762 -2.43062 -6.48762 0
M  V30 5197 N 511.555 -1.80797 -5.3223 0
M  V30 5198 H 503.706 -1.55073 -1.45142 0
M  V30 5199 H 505.969 -0.647903 -0.692044 0
M  V30 5200 H 505.675 -1.93759 -2.93514 0
M  V30 5201 H 505.549 -0.389585 -3.75183 0
M  V30 5202 H 507.936 0.187357 -2.94505 0
M  V30 5203 H 508.017 -1.38999 -2.14739 0
M  V30 5204 H 507.661 -2.52572 -4.40647 0
M  V30 5205 H 507.591 -0.924464 -5.18422 0
M  V30 5206 H 510.082 -1.05694 -3.62819 0
M  V30 5207 H 510.395 -2.75466 -7.22038 0
M  V30 5208 H 508.74 -2.47085 -6.49595 0
M  V30 5209 H 511.931 -1.38989 -4.46989 0
M  V30 5210 H 512.104 -2.16385 -6.10804 0
M  V30 5211 N 505.51 1.54411 -0.315457 0
M  V30 5212 C 506.44 2.27002 0.547039 0
M  V30 5213 C 507.421 1.27492 1.12605 0
M  V30 5214 O 508.606 1.5629 1.15269 0
M  V30 5215 C 505.736 3.02171 1.71201 0
M  V30 5216 C 504.69 4.0895 1.26268 0
M  V30 5217 C 504.016 4.71915 2.51396 0
M  V30 5218 C 505.316 5.20891 0.383419 0
M  V30 5219 H 507.01 2.99343 -0.0584517 0
M  V30 5220 H 504.556 1.4397 -0.0295527 0
M  V30 5221 H 506.509 3.51681 2.32161 0
M  V30 5222 H 505.233 2.27433 2.34397 0
M  V30 5223 H 503.892 3.60312 0.676062 0
M  V30 5224 H 503.54 3.93801 3.12937 0
M  V30 5225 H 503.24 5.44039 2.22026 0
M  V30 5226 H 504.764 5.24195 3.13133 0
M  V30 5227 H 506.178 5.66206 0.899082 0
M  V30 5228 H 504.575 5.99821 0.182857 0
M  V30 5229 H 505.645 4.81324 -0.587821 0
M  V30 5230 N 506.988 0.0434614 1.5754 0
M  V30 5231 C 508.236 -0.630786 1.92004 0
M  V30 5232 C 508.557 -1.71836 0.921807 0
M  V30 5233 O 507.827 -1.9587 -0.034522 0
M  V30 5234 H 506.407 -0.235988 0.708745 0
M  V30 5235 H 509.069 0.0946462 1.9467 0
M  V30 5236 H 508.165 -1.07434 2.93026 0
M  V30 5237 N 508.466 -1.55915 -0.229846 0
M  V30 5238 C 509.429 -1.90914 -1.26824 0
M  V30 5239 C 510.429 -0.786999 -1.40225 0
M  V30 5240 O 511.619 -1.05484 -1.38632 0
M  V30 5241 C 508.751 -2.15264 -2.64337 0
M  V30 5242 H 509.944 -2.8378 -0.969998 0
M  V30 5243 H 507.497 -1.49069 -0.4699 0
M  V30 5244 H 508.232 -1.24923 -2.99274 0
M  V30 5245 H 508.017 -2.97005 -2.55989 0
M  V30 5246 H 509.507 -2.43467 -3.39284 0
M  V30 5247 N 509.944 0.496216 -1.49584 0
M  V30 5248 C 510.907 1.57952 -1.66084 0
M  V30 5249 C 511.907 1.51729 -0.53244 0
M  V30 5250 O 513.097 1.54796 -0.79899 0
M  V30 5251 C 510.229 2.97604 -1.66268 0
M  V30 5252 H 511.422 1.44649 -2.6271 0
M  V30 5253 H 508.975 0.7208 -1.38687 0
M  V30 5254 H 509.71 3.16378 -0.712432 0
M  V30 5255 H 509.495 3.03528 -2.4822 0
M  V30 5256 H 510.985 3.76301 -1.81073 0
M  V30 5257 N 511.423 1.38739 0.74761 0
M  V30 5258 C 512.353 1.39173 1.87492 0
M  V30 5259 C 513.334 0.256794 1.6815 0
M  V30 5260 O 514.519 0.460762 1.88655 0
M  V30 5261 C 511.649 1.22197 3.25093 0
M  V30 5262 C 510.603 2.32957 3.59047 0
M  V30 5263 C 509.929 2.01082 4.95449 0
M  V30 5264 C 511.229 3.75237 3.6331 0
M  V30 5265 H 512.923 2.3351 1.87386 0
M  V30 5266 H 510.469 1.12399 0.900134 0
M  V30 5267 H 512.422 1.21124 4.03617 0
M  V30 5268 H 511.146 0.243241 3.25693 0
M  V30 5269 H 509.805 2.33226 2.82845 0
M  V30 5270 H 509.453 1.01678 4.92616 0
M  V30 5271 H 509.153 2.75267 5.19136 0
M  V30 5272 H 510.677 2.01638 5.76346 0
M  V30 5273 H 512.091 3.76966 4.31937 0
M  V30 5274 H 510.488 4.48677 3.98509 0
M  V30 5275 H 511.558 4.07122 2.634 0
M  V30 5276 N 512.901 -0.976442 1.23707 0
M  V30 5277 C 513.849 -2.09078 1.01927 0
M  V30 5278 C 514.843 -1.69345 -0.0430193 0
M  V30 5279 O 516.049 -1.79659 0.110814 0
M  V30 5280 H 512.424 -0.68398 0.312531 0
M  V30 5281 H 514.395 -2.24614 1.96447 0
M  V30 5282 C 513.144 -3.41919 0.631385 0
M  V30 5283 H 512.467 -3.72946 1.44053 0
M  V30 5284 H 513.907 -4.20817 0.518532 0
M  V30 5285 C 512.366 -3.30357 -0.660723 0
M  V30 5286 O 512.896 -3.63542 -1.70881 0
M  V30 5287 N 511.102 -2.83507 -0.638139 0
M  V30 5288 H 510.649 -2.567 0.215108 0
M  V30 5289 H 510.607 -2.76153 -1.50289 0
M  V30 5290 N 514.379 -1.04941 -1.1758 0
M  V30 5291 C 515.289 -0.658826 -2.25159 0
M  V30 5292 C 516.305 0.318941 -1.71052 0
M  V30 5293 O 517.481 0.171669 -2.00667 0
M  V30 5294 C 514.546 -0.0369522 -3.4668 0
M  V30 5295 C 513.607 -1.06484 -4.15884 0
M  V30 5296 C 512.84 -0.472551 -5.31604 0
M  V30 5297 O 513.063 0.718736 -5.65854 0
M  V30 5298 O 511.997 -1.20557 -5.89703 0
M  V30 5299 H 515.823 -1.55533 -2.60851 0
M  V30 5300 H 513.408 -0.820819 -1.24832 0
M  V30 5301 H 515.29 0.308784 -4.20267 0
M  V30 5302 H 513.965 0.833238 -3.12792 0
M  V30 5303 H 512.872 -1.46253 -3.44327 0
M  V30 5304 H 514.205 -1.9061 -4.53794 0
M  V30 5305 N 515.857 1.33968 -0.830081 0
M  V30 5306 C 517.268 1.80439 -0.479455 0
M  V30 5307 C 517.619 1.68756 1.00079 0
M  V30 5308 O 516.744 1.23171 1.77927 0
M  V30 5309 C 517.339 3.27611 -0.863505 0
M  V30 5310 C 515.898 3.72133 -0.565145 0
M  V30 5311 C 515.045 2.55549 -1.07657 0
M  V30 5312 H 517.996 1.21614 -1.0196 0
M  V30 5313 H 518.017 3.8012 -0.170083 0
M  V30 5314 H 517.529 3.36082 -1.94089 0
M  V30 5315 H 515.63 3.69196 0.502536 0
M  V30 5316 H 515.743 4.65963 -1.11422 0
M  V30 5317 H 514.107 2.49788 -0.497807 0
M  V30 5318 H 514.89 2.66786 -2.16055 0
M  V30 5319 N 517.335 0.585699 1.46312 0
M  V30 5320 C 518.612 0.00542031 1.95599 0
M  V30 5321 C 518.992 -1.45619 1.52834 0
M  V30 5322 O 518.34 -2.14759 0.780446 0
M  V30 5323 C 518.55 0.180601 3.48532 0
M  V30 5324 C 519.898 0.049979 4.24571 0
M  V30 5325 O 520.922 0.109589 3.56031 0
M  V30 5326 O 519.781 -0.0832226 5.46437 0
M  V30 5327 H 516.875 -0.0481281 0.825598 0
M  V30 5328 H 519.421 0.654227 1.56582 0
M  V30 5329 H 518.193 1.19657 3.72556 0
M  V30 5330 H 517.816 -0.504498 3.94386 0
M  V30 5331 N 518.813 -1.54241 0.323641 0
M  V30 5332 C 520.224 -1.85975 -0.164405 0
M  V30 5333 C 520.575 -1.24529 -1.51615 0
M  V30 5334 O 519.7 -0.551351 -2.09258 0
M  V30 5335 C 520.295 -3.37424 -0.305091 0
M  V30 5336 C 518.854 -3.69107 -0.737358 0
M  V30 5337 C 518.001 -2.76942 0.140884 0
M  V30 5338 H 520.952 -1.49088 0.543922 0
M  V30 5339 H 520.973 -3.63147 -1.13598 0
M  V30 5340 H 520.485 -3.82116 0.678876 0
M  V30 5341 H 518.586 -3.29947 -1.73107 0
M  V30 5342 H 518.699 -4.76035 -0.541053 0
M  V30 5343 H 517.063 -2.51795 -0.383572 0
M  V30 5344 H 517.846 -3.24461 1.12162 0
M  V30 5345 N 520.291 -0.0518155 -1.57515 0
M  V30 5346 C 521.516 0.634896 -1.97443 0
M  V30 5347 C 521.941 1.63546 -0.929207 0
M  V30 5348 O 521.299 1.80981 0.107484 0
M  V30 5349 C 521.347 1.29765 -3.36442 0
M  V30 5350 O 520.451 2.41333 -3.34413 0
M  V30 5351 H 519.792 0.164994 -0.643174 0
M  V30 5352 H 522.322 -0.120407 -2.04245 0
M  V30 5353 H 522.332 1.64918 -3.73184 0
M  V30 5354 H 521.007 0.564361 -4.12053 0
M  V30 5355 H 519.584 2.08122 -3.09418 0
M  V30 5356 N 521.769 1.56035 0.221574 0
M  V30 5357 C 522.997 1.8313 0.962864 0
M  V30 5358 C 523.412 0.630934 1.77946 0
M  V30 5359 O 522.769 -0.400519 1.78051 0
M  V30 5360 C 522.82 3.08742 1.88045 0
M  V30 5361 O 522.541 4.24147 1.09686 0
M  V30 5362 C 524.042 3.48824 2.73563 0
M  V30 5363 H 521.262 0.608775 0.282194 0
M  V30 5364 H 523.806 2.03124 0.23681 0
M  V30 5365 H 521.961 2.90723 2.56045 0
M  V30 5366 H 522.375 4.95505 1.71974 0
M  V30 5367 H 523.849 4.39752 3.3365 0
M  V30 5368 H 524.326 2.70575 3.45956 0
M  V30 5369 H 524.932 3.69282 2.10976 0
M  V30 5370 N 523.247 -0.488276 1.49845 0
M  V30 5371 C 524.494 -1.24157 1.59973 0
M  V30 5372 C 524.822 -1.92293 0.292182 0
M  V30 5373 O 524.077 -1.81942 -0.720813 0
M  V30 5374 C 524.376 -2.32152 2.71735 0
M  V30 5375 C 524.042 -1.81387 4.12807 0
M  V30 5376 C 522.704 -1.67262 4.51195 0
M  V30 5377 C 525.056 -1.43537 5.01045 0
M  V30 5378 C 522.384 -1.13685 5.7558 0
M  V30 5379 C 524.736 -0.914081 6.25961 0
M  V30 5380 C 523.4 -0.759327 6.63167 0
M  V30 5381 H 522.67 -0.454322 0.585383 0
M  V30 5382 H 525.317 -0.540261 1.83721 0
M  V30 5383 H 523.622 -3.08122 2.42008 0
M  V30 5384 H 525.319 -2.90164 2.76778 0
M  V30 5385 H 521.909 -1.93344 3.82513 0
M  V30 5386 H 526.093 -1.53292 4.72033 0
M  V30 5387 H 521.349 -1.00426 6.03096 0
M  V30 5388 H 525.523 -0.612066 6.93705 0
M  V30 5389 H 523.15 -0.342002 7.5943 0
M  V30 5390 N 524.725 -1.39134 -0.740242 0
M  V30 5391 C 525.955 -1.39132 -1.52728 0
M  V30 5392 C 526.363 0.0173133 -1.89192 0
M  V30 5393 O 525.706 0.997715 -1.54244 0
M  V30 5394 C 525.768 -2.1952 -2.84695 0
M  V30 5395 C 525.432 -3.68203 -2.70695 0
M  V30 5396 C 526.429 -4.61401 -2.39593 0
M  V30 5397 C 524.114 -4.11724 -2.8773 0
M  V30 5398 C 526.108 -5.96102 -2.25701 0
M  V30 5399 C 523.795 -5.46503 -2.73456 0
M  V30 5400 C 524.793 -6.38506 -2.42486 0
M  V30 5401 O 524.481 -7.70803 -2.28295 0
M  V30 5402 H 524.213 -0.477263 -0.478744 0
M  V30 5403 H 526.767 -1.83504 -0.922799 0
M  V30 5404 H 524.997 -1.69888 -3.47383 0
M  V30 5405 H 526.686 -2.1176 -3.46284 0
M  V30 5406 H 527.452 -4.29079 -2.26088 0
M  V30 5407 H 523.331 -3.4045 -3.10829 0
M  V30 5408 H 526.875 -6.6788 -2.0145 0
M  V30 5409 H 522.772 -5.78417 -2.86538 0
M  V30 5410 H 523.54 -7.8147 -2.43405 0
M  V30 5411 N 526.204 0.969867 -1.24223 0
M  V30 5412 C 527.452 1.70918 -1.0785 0
M  V30 5413 C 527.773 1.91186 0.383763 0
M  V30 5414 O 527.043 1.48806 1.27411 0
M  V30 5415 H 525.623 0.633334 -0.396103 0
M  V30 5416 H 528.285 1.16689 -1.56108 0
M  V30 5417 H 527.381 2.69455 -1.57482 0
M  V30 5418 N 527.682 1.05563 1.17022 0
M  V30 5419 C 528.93 0.76642 1.87004 0
M  V30 5420 C 529.251 -0.708854 1.8166 0
M  V30 5421 O 528.521 -1.51242 1.2451 0
M  V30 5422 H 527.101 0.280516 0.692329 0
M  V30 5423 H 529.763 1.33557 1.41945 0
M  V30 5424 H 528.859 1.08472 2.92644 0
M  V30 5425 N 529.16 -1.33526 0.837174 0
M  V30 5426 C 530.123 -2.27551 0.274421 0
M  V30 5427 C 531.123 -1.50886 -0.555881 0
M  V30 5428 O 532.313 -1.70227 -0.369918 0
M  V30 5429 C 529.445 -3.35332 -0.613605 0
M  V30 5430 H 530.638 -2.78837 1.10408 0
M  V30 5431 H 528.191 -1.439 0.610126 0
M  V30 5432 H 528.926 -2.89285 -1.46577 0
M  V30 5433 H 528.711 -3.92095 -0.0195341 0
M  V30 5434 H 530.201 -4.05433 -1.00068 0
M  V30 5435 N 530.638 -0.59345 -1.46 0
M  V30 5436 C 531.548 0.135817 -2.34207 0
M  V30 5437 C 532.564 0.875008 -1.50398 0
M  V30 5438 O 533.74 0.835778 -1.83239 0
M  V30 5439 C 530.805 1.12977 -3.27776 0
M  V30 5440 C 529.866 0.394081 -4.27487 0
M  V30 5441 C 529.099 1.34068 -5.16586 0
M  V30 5442 O 529.322 2.5778 -5.08828 0
M  V30 5443 O 528.256 0.845426 -5.95933 0
M  V30 5444 H 532.082 -0.588691 -2.9794 0
M  V30 5445 H 529.667 -0.353784 -1.45151 0
M  V30 5446 H 531.549 1.70261 -3.85473 0
M  V30 5447 H 530.224 1.83556 -2.66625 0
M  V30 5448 H 529.131 -0.220869 -3.73447 0
M  V30 5449 H 530.464 -0.270939 -4.91454 0
M  V30 5450 N 532.116 1.54067 -0.331816 0
M  V30 5451 C 533.362 2.01012 0.268667 0
M  V30 5452 C 533.695 1.2195 1.51136 0
M  V30 5453 O 532.97 0.303972 1.9211 0
M  V30 5454 C 533.253 3.55158 0.59456 0
M  V30 5455 C 533.106 4.4494 -0.659409 0
M  V30 5456 C 534.425 4.16939 1.4089 0
M  V30 5457 H 531.544 0.730698 0.0961756 0
M  V30 5458 H 534.186 1.84593 -0.450031 0
M  V30 5459 H 532.336 3.6928 1.20685 0
M  V30 5460 H 534.008 4.42675 -1.29756 0
M  V30 5461 H 532.251 4.1428 -1.28665 0
M  V30 5462 H 532.922 5.50643 -0.386804 0
M  V30 5463 H 535.398 4.06443 0.891272 0
M  V30 5464 H 534.274 5.24889 1.60569 0
M  V30 5465 H 534.535 3.70798 2.40752 0
M  V30 5466 N 533.594 0.0601682 1.57485 0
M  V30 5467 C 534.842 -0.610386 1.92662 0
M  V30 5468 C 535.163 -1.70849 0.939981 0
M  V30 5469 O 534.433 -1.95895 -0.0137455 0
M  V30 5470 H 533.013 -0.228457 0.711208 0
M  V30 5471 H 535.675 0.115288 1.94559 0
M  V30 5472 H 534.771 -1.0432 2.94149 0
M  V30 5473 N 535.072 -1.5615 -0.213296 0
M  V30 5474 C 536.302 -1.83372 -0.951757 0
M  V30 5475 C 536.71 -0.638158 -1.78113 0
M  V30 5476 O 536.053 0.402609 -1.79234 0
M  V30 5477 C 536.115 -3.04444 -1.91192 0
M  V30 5478 C 535.779 -4.39107 -1.26627 0
M  V30 5479 C 536.776 -5.15794 -0.652087 0
M  V30 5480 C 534.461 -4.85834 -1.27556 0
M  V30 5481 C 536.455 -6.37376 -0.055814 0
M  V30 5482 C 534.142 -6.07356 -0.675451 0
M  V30 5483 C 535.14 -6.82967 -0.0666367 0
M  V30 5484 O 534.828 -8.0219 0.524119 0
M  V30 5485 H 534.56 -0.613398 -0.284111 0
M  V30 5486 H 537.114 -2.04096 -0.231112 0
M  V30 5487 H 535.344 -2.79559 -2.67178 0
M  V30 5488 H 537.033 -3.18466 -2.51662 0
M  V30 5489 H 537.799 -4.80796 -0.637172 0
M  V30 5490 H 533.678 -4.26949 -1.73883 0
M  V30 5491 H 537.222 -6.96334 0.420004 0
M  V30 5492 H 533.119 -6.41825 -0.687806 0
M  V30 5493 H 533.887 -8.17426 0.419243 0
M  V30 5494 N 536.55 0.480323 -1.50102 0
M  V30 5495 C 537.778 1.25657 -1.64371 0
M  V30 5496 C 538.193 1.86011 -0.323316 0
M  V30 5497 O 537.55 1.68803 0.693682 0
M  V30 5498 C 537.601 2.37197 -2.728 0
M  V30 5499 O 537.322 1.7932 -3.9972 0
M  V30 5500 C 538.823 3.2823 -2.9796 0
M  V30 5501 H 536.043 0.380369 -0.552775 0
M  V30 5502 H 538.587 0.574379 -1.96268 0
M  V30 5503 H 536.742 3.01208 -2.43623 0
M  V30 5504 H 537.156 2.52701 -4.59611 0
M  V30 5505 H 538.63 4.02725 -3.77513 0
M  V30 5506 H 539.107 3.86462 -2.08671 0
M  V30 5507 H 539.713 2.69964 -3.28633 0
M  V30 5508 N 538.028 1.39524 0.732853 0
M  V30 5509 C 539.305 1.27373 1.48444 0
M  V30 5510 C 539.685 -0.115725 2.10783 0
M  V30 5511 O 539.033 -1.12713 1.98766 0
M  V30 5512 C 539.243 2.39966 2.53412 0
M  V30 5513 C 540.591 2.79384 3.19733 0
M  V30 5514 O 541.615 2.39431 2.63725 0
M  V30 5515 O 540.474 3.48353 4.21085 0
M  V30 5516 H 537.568 0.499272 0.659285 0
M  V30 5517 H 540.114 1.51403 0.766496 0
M  V30 5518 H 538.886 3.32845 2.05742 0
M  V30 5519 H 538.509 2.17612 3.32762 0
M  V30 5520 N 539.506 -0.963266 1.24736 0
M  V30 5521 C 540.736 -1.73913 1.11524 0
M  V30 5522 C 541.144 -1.86218 -0.334612 0
M  V30 5523 O 540.487 -1.3531 -1.24245 0
M  V30 5524 C 540.549 -3.17501 1.68622 0
M  V30 5525 C 540.213 -3.28655 3.17546 0
M  V30 5526 C 541.21 -3.13637 4.14642 0
M  V30 5527 C 538.895 -3.52753 3.5759 0
M  V30 5528 C 540.889 -3.2255 5.49764 0
M  V30 5529 C 538.576 -3.61303 4.92852 0
M  V30 5530 C 539.574 -3.46214 5.88748 0
M  V30 5531 O 539.262 -3.5443 7.2155 0
M  V30 5532 H 538.994 -0.552057 0.390139 0
M  V30 5533 H 541.548 -1.2177 1.65412 0
M  V30 5534 H 539.778 -3.70969 1.09172 0
M  V30 5535 H 541.467 -3.76914 1.50635 0
M  V30 5536 H 542.233 -2.94899 3.85045 0
M  V30 5537 H 538.112 -3.63561 2.83451 0
M  V30 5538 H 541.656 -3.1069 6.24594 0
M  V30 5539 H 537.553 -3.79556 5.22118 0
M  V30 5540 H 538.321 -3.71116 7.29531 0
M  V30 5541 N 540.985 -1.06182 -1.16461 0
M  V30 5542 C 542.396 -0.802426 -1.68576 0
M  V30 5543 C 542.747 0.67412 -1.84255 0
M  V30 5544 O 541.872 1.52303 -1.5373 0
M  V30 5545 C 542.467 -1.45002 -3.06202 0
M  V30 5546 C 541.026 -1.23843 -3.55443 0
M  V30 5547 C 540.173 -1.52724 -2.31454 0
M  V30 5548 H 543.124 -1.22545 -1.00839 0
M  V30 5549 H 543.145 -0.864731 -3.70544 0
M  V30 5550 H 542.657 -2.52466 -2.94759 0
M  V30 5551 H 540.758 -0.183487 -3.72148 0
M  V30 5552 H 540.871 -1.95036 -4.37604 0
M  V30 5553 H 539.235 -0.947726 -2.36411 0
M  V30 5554 H 540.018 -2.61343 -2.22609 0
M  V30 5555 N 542.463 1.3308 -0.844243 0
M  V30 5556 C 543.71 1.97605 -0.44255 0
M  V30 5557 C 544.038 1.66856 0.999458 0
M  V30 5558 O 543.293 0.943586 1.7145 0
M  V30 5559 C 543.592 3.52045 -0.616354 0
M  V30 5560 C 543.258 4.02757 -2.02726 0
M  V30 5561 C 541.92 4.16316 -2.41317 0
M  V30 5562 C 544.272 4.29776 -2.9486 0
M  V30 5563 C 541.6 4.54232 -3.71335 0
M  V30 5564 C 543.952 4.69146 -4.24364 0
M  V30 5565 C 542.616 4.80911 -4.62904 0
M  V30 5566 H 541.886 0.723088 -0.161941 0
M  V30 5567 H 544.533 1.58663 -1.0723 0
M  V30 5568 H 542.838 3.91681 0.0966812 0
M  V30 5569 H 544.535 3.99981 -0.285756 0
M  V30 5570 H 541.125 3.9268 -1.71756 0
M  V30 5571 H 545.309 4.18818 -2.6628 0
M  V30 5572 H 540.565 4.61535 -4.00993 0
M  V30 5573 H 544.739 4.89008 -4.95827 0
M  V30 5574 H 542.366 5.10048 -5.63698 0
M  V30 5575 N 543.941 0.601185 1.45683 0
M  V30 5576 C 544.871 -0.108824 2.33246 0
M  V30 5577 C 545.852 -0.865223 1.46451 0
M  V30 5578 O 547.037 -0.83704 1.75235 0
M  V30 5579 C 544.167 -1.11101 3.2905 0
M  V30 5580 C 543.121 -0.468244 4.25431 0
M  V30 5581 C 542.447 -1.57822 5.10878 0
M  V30 5582 C 543.747 0.606469 5.18767 0
M  V30 5583 H 545.441 0.622306 2.92861 0
M  V30 5584 H 542.987 0.300714 1.40825 0
M  V30 5585 H 544.94 -1.61622 3.89174 0
M  V30 5586 H 543.664 -1.87265 2.67581 0
M  V30 5587 H 542.323 0.0160484 3.66596 0
M  V30 5588 H 541.971 -2.32998 4.45781 0
M  V30 5589 H 541.671 -1.15369 5.76163 0
M  V30 5590 H 543.195 -2.08583 5.73869 0
M  V30 5591 H 544.609 0.185589 5.73 0
M  V30 5592 H 543.006 0.952381 5.92494 0
M  V30 5593 H 544.076 1.48559 4.61582 0
M  V30 5594 N 545.419 -1.53889 0.339982 0
M  V30 5595 C 546.696 -1.93084 -0.312719 0
M  V30 5596 C 547.076 -1.2712 -1.68534 0
M  V30 5597 O 546.424 -0.420835 -2.24591 0
M  V30 5598 C 546.634 -3.4683 -0.388558 0
M  V30 5599 C 547.982 -4.19732 -0.641088 0
M  V30 5600 O 549.006 -3.53075 -0.470818 0
M  V30 5601 O 547.865 -5.3781 -0.970685 0
M  V30 5602 H 544.959 -0.806784 -0.18174 0
M  V30 5603 H 547.505 -1.65137 0.390898 0
M  V30 5604 H 546.277 -3.87055 0.574821 0
M  V30 5605 H 545.9 -3.80933 -1.1391 0
M  V30 5606 N 546.897 -0.0685191 -1.57451 0
M  V30 5607 C 547.845 0.917577 -2.13736 0
M  V30 5608 C 548.839 1.31049 -1.07344 0
M  V30 5609 O 550.045 1.28811 -1.25728 0
M  V30 5610 H 546.42 0.313835 -0.683382 0
M  V30 5611 H 548.391 0.417903 -2.95459 0
M  V30 5612 C 547.14 2.17686 -2.71123 0
M  V30 5613 H 546.463 1.88336 -3.52661 0
M  V30 5614 H 547.903 2.84803 -3.14107 0
M  V30 5615 C 546.362 2.9332 -1.65726 0
M  V30 5616 O 546.892 3.86901 -1.08031 0
M  V30 5617 N 545.098 2.56367 -1.36837 0
M  V30 5618 H 544.645 1.80341 -1.83943 0
M  V30 5619 H 544.603 3.07276 -0.665501 0
M  V30 5620 N 548.375 1.56261 0.205012 0
M  V30 5621 C 549.623 1.79684 0.925096 0
M  V30 5622 C 549.944 0.63989 1.84202 0
M  V30 5623 O 549.214 -0.342345 1.92885 0
M  V30 5624 H 547.794 0.662774 0.344587 0
M  V30 5625 H 550.456 1.93734 0.212899 0
M  V30 5626 H 549.552 2.72467 1.52211 0
M  V30 5627 N 549.853 -0.472356 1.50355 0
M  V30 5628 C 550.803 -1.56809 1.65514 0
M  V30 5629 C 551.787 -1.5261 0.509801 0
M  V30 5630 O 552.979 -1.59655 0.764145 0
M  V30 5631 C 550.108 -2.9526 1.75146 0
M  V30 5632 C 549.194 -3.04348 2.95353 0
M  V30 5633 N 549.585 -2.83253 4.19048 0
M  V30 5634 C 547.883 -3.35482 2.93884 0
M  V30 5635 C 548.584 -2.97273 5.00003 0
M  V30 5636 N 547.56 -3.27418 4.33934 0
M  V30 5637 H 551.362 -1.39197 2.58846 0
M  V30 5638 H 548.876 -0.67906 1.47521 0
M  V30 5639 H 550.873 -3.74044 1.8411 0
M  V30 5640 H 549.533 -3.1392 0.829717 0
M  V30 5641 H 550.544 -2.5886 4.48567 0
M  V30 5642 H 547.221 -3.60138 2.11204 0
M  V30 5643 H 548.611 -2.85214 6.08361 0
M  V30 5644 N 551.331 -1.39911 -0.725443 0
M  V30 5645 C 552.608 -1.28158 -1.47766 0
M  V30 5646 C 552.988 0.104545 -2.10841 0
M  V30 5647 O 552.336 1.11657 -1.99361 0
M  V30 5648 C 552.546 -2.41306 -2.52135 0
M  V30 5649 C 553.894 -2.81076 -3.18247 0
M  V30 5650 O 554.918 -2.40827 -2.62452 0
M  V30 5651 O 553.777 -3.50581 -4.19231 0
M  V30 5652 H 550.871 -0.502761 -0.656628 0
M  V30 5653 H 553.417 -1.51808 -0.758456 0
M  V30 5654 H 552.189 -3.33932 -2.03974 0
M  V30 5655 H 551.812 -2.19374 -3.31603 0
M  V30 5656 N 552.809 0.956637 -1.25245 0
M  V30 5657 C 554.225 1.22733 -1.02023 0
M  V30 5658 C 554.425 1.99761 0.264186 0
M  V30 5659 O 553.481 2.32814 0.977436 0
M  V30 5660 C 554.794 2.00367 -2.24217 0
M  V30 5661 C 556.342 2.13418 -2.28958 0
M  V30 5662 C 556.817 2.9445 -3.50803 0
M  V30 5663 N 558.308 3.02029 -3.51187 0
M  V30 5664 C 559.043 3.65116 -4.42129 0
M  V30 5665 N 558.539 4.2983 -5.43339 0
M  V30 5666 N 560.332 3.62237 -4.29815 0
M  V30 5667 H 552.483 0.441282 -2.07765 0
M  V30 5668 H 554.746 0.257686 -0.912306 0
M  V30 5669 H 554.452 1.51165 -3.17556 0
M  V30 5670 H 554.326 3.01077 -2.27228 0
M  V30 5671 H 556.713 2.61819 -1.36143 0
M  V30 5672 H 556.794 1.1202 -2.29968 0
M  V30 5673 H 556.438 2.46741 -4.43939 0
M  V30 5674 H 556.368 3.9607 -3.47039 0
M  V30 5675 H 558.859 2.56007 -2.77973 0
M  V30 5676 H 559.172 4.75819 -6.08947 0
M  V30 5677 H 557.517 4.28465 -5.47214 0
M  V30 5678 H 560.708 3.10863 -3.49974 0
M  V30 5679 H 560.881 4.11117 -5.00886 0
M  V30 5680 N 554.287 1.06798 1.15896 0
M  V30 5681 C 555.217 0.704677 2.22613 0
M  V30 5682 C 556.198 -0.305252 1.67339 0
M  V30 5683 O 557.383 -0.179247 1.93371 0
M  V30 5684 C 554.513 0.0957325 3.47168 0
M  V30 5685 C 553.467 1.0322 4.15367 0
M  V30 5686 C 552.793 0.286293 5.33933 0
M  V30 5687 C 554.093 2.36341 4.65768 0
M  V30 5688 H 555.787 1.59688 2.53259 0
M  V30 5689 H 553.333 0.769257 1.21731 0
M  V30 5690 H 555.286 -0.170333 4.21056 0
M  V30 5691 H 554.01 -0.831516 3.15838 0
M  V30 5692 H 552.669 1.28309 3.43413 0
M  V30 5693 H 552.317 -0.644237 4.98857 0
M  V30 5694 H 552.017 0.910436 5.80504 0
M  V30 5695 H 553.541 0.0278938 6.10594 0
M  V30 5696 H 554.955 2.1561 5.31211 0
M  V30 5697 H 553.352 2.94299 5.2298 0
M  V30 5698 H 554.422 2.99047 3.81705 0
M  V30 5699 N 555.766 -1.3263 0.851289 0
M  V30 5700 C 557.014 -1.96978 0.452128 0
M  V30 5701 C 557.335 -1.67715 -0.99482 0
M  V30 5702 O 556.605 -0.98259 -1.69476 0
M  V30 5703 H 555.185 -0.72873 0.164202 0
M  V30 5704 H 557.847 -1.61774 1.08698 0
M  V30 5705 H 556.943 -3.06387 0.594407 0
M  V30 5706 O 557.283 -0.749239 -1.43069 0
M  V30 5707 H 557.974 -0.305579 -1.91274 0
M  V30 END ATOM
M  V30 BEGIN BOND
M  V30 END BOND
M  V30 END CTAB
M  END
$$$$
