drugbank_target|Q52369 Cytochrome c4 (DB03317)
 OpenBabel12092119593D

  0  0  0     0  0            999 V3000
M  V30 BEGIN CTAB
M  V30 COUNTS 3030 3054 0 0 0
M  V30 BEGIN ATOM
M  V30 1 H -0.908 1.98254 -0.117106 0
M  V30 2 N 0 1.576 0 0
M  V30 3 C 0.933 2.03868 1.02534 0
M  V30 4 C 1.911 0.928543 1.3348 0
M  V30 5 O 3.095 1.19667 1.45644 0
M  V30 6 C 0.222 2.43627 2.35294 0
M  V30 7 C -0.732 3.65373 2.2001 0
M  V30 8 S 0.101 5.13292 1.52614 0
M  V30 9 C 1.257 5.56322 2.86805 0
M  V30 10 H 1.49 2.90518 0.631377 0
M  V30 11 H -0.977 1.52953 0.210867 0
M  V30 12 H 0.981 2.67203 3.11629 0
M  V30 13 H -0.358 1.57376 2.7183 0
M  V30 14 H -1.165 3.90944 3.18086 0
M  V30 15 H -1.563 3.418 1.51819 0
M  V30 16 H 0.729 5.58782 3.83104 0
M  V30 17 H 1.672 6.56266 2.65933 0
M  V30 18 H 2.08 4.83886 2.90714 0
M  V30 19 N 1.4781 -0.272755 1.55222 0
M  V30 20 C 2.4261 -1.35705 1.88909 0
M  V30 21 C 3.4201 -1.5112 0.765456 0
M  V30 22 O 4.6261 -1.52901 0.949802 0
M  V30 23 H 1.0011 -0.453868 0.59959 0
M  V30 24 H 2.9721 -1.04544 2.79487 0
M  V30 25 C 1.7211 -2.71049 2.17779 0
M  V30 26 H 1.0441 -2.59979 3.03728 0
M  V30 27 H 2.4841 -3.45858 2.45272 0
M  V30 28 C 0.9431 -3.22165 0.985473 0
M  V30 29 O 1.4731 -4.01096 0.220233 0
M  V30 30 N -0.3209 -2.7985 0.783108 0
M  V30 31 H -0.7739 -2.15775 1.40708 0
M  V30 32 H -0.8159 -3.14397 -0.0130392 0
M  V30 33 N 2.9562 -1.48159 -0.537278 0
M  V30 34 C 3.9032 -1.62138 -1.64256 0
M  V30 35 C 4.8732 -0.463668 -1.59497 0
M  V30 36 O 6.0582 -0.686241 -1.78032 0
M  V30 37 C 3.1982 -1.66028 -3.02537 0
M  V30 38 C 2.3112 -2.92855 -3.17585 0
M  V30 39 C 1.4462 -2.87952 -4.46382 0
M  V30 40 C 0.4852 -4.09516 -4.54932 0
M  V30 41 N -0.3778 -4.02733 -5.75109 0
M  V30 42 H 4.4622 -2.56529 -1.51647 0
M  V30 43 H 1.9992 -1.27224 -0.738414 0
M  V30 44 H 3.9572 -1.66265 -3.82638 0
M  V30 45 H 2.5872 -0.751331 -3.13934 0
M  V30 46 H 1.6392 -3.02395 -2.30784 0
M  V30 47 H 2.9512 -3.82822 -3.19764 0
M  V30 48 H 2.1052 -2.8655 -5.34765 0
M  V30 49 H 0.8442 -1.95702 -4.46712 0
M  V30 50 H -0.1508 -4.11201 -3.64957 0
M  V30 51 H 1.0742 -5.02917 -4.56346 0
M  V30 52 H -0.9798 -3.13299 -5.76351 0
M  V30 53 H -1.0628 -4.86397 -5.78752 0
M  V30 54 H 0.2052 -4.05379 -6.65799 0
M  V30 55 N 4.4343 0.785586 -1.36625 0
M  V30 56 C 5.6803 1.54591 -1.31261 0
M  V30 57 C 6.0133 1.93906 0.106823 0
M  V30 58 O 5.2883 1.63007 1.06108 0
M  V30 59 C 5.5713 2.82038 -2.23889 0
M  V30 60 C 5.4243 2.49066 -3.74548 0
M  V30 61 C 6.7433 3.83887 -2.15217 0
M  V30 62 H 3.8623 0.560846 -0.478143 0
M  V30 63 H 6.5043 0.902278 -1.67209 0
M  V30 64 H 4.6543 3.36961 -1.93363 0
M  V30 65 H 6.3263 2.00164 -4.15611 0
M  V30 66 H 4.5693 1.81954 -3.93796 0
M  V30 67 H 5.2403 3.40109 -4.34776 0
M  V30 68 H 7.7163 3.38421 -2.42096 0
M  V30 69 H 6.5923 4.70806 -2.82193 0
M  V30 70 H 6.8533 4.27131 -1.14068 0
M  V30 71 N 5.9124 1.20967 1.01018 0
M  V30 72 C 6.8424 0.988272 2.11555 0
M  V30 73 C 7.8234 -0.0849778 1.69888 0
M  V30 74 O 9.0084 0.0738202 1.9406 0
M  V30 75 C 6.1384 0.546528 3.42973 0
M  V30 76 C 5.0924 1.56375 3.9841 0
M  V30 77 C 4.4184 0.97842 5.25672 0
M  V30 78 C 5.7184 2.94922 4.31066 0
M  V30 79 H 7.4124 1.91276 2.30334 0
M  V30 80 H 4.9584 0.921073 1.1069 0
M  V30 81 H 6.9114 0.378839 4.19694 0
M  V30 82 H 5.6354 -0.413598 3.23971 0
M  V30 83 H 4.2944 1.71891 3.23804 0
M  V30 84 H 3.9424 0.0101688 5.02999 0
M  V30 85 H 3.6424 1.65784 5.63728 0
M  V30 86 H 5.1664 0.821939 6.05043 0
M  V30 87 H 6.5804 2.8288 4.9865 0
M  V30 88 H 4.9774 3.5983 4.80253 0
M  V30 89 H 6.0474 3.4616 3.39561 0
M  V30 90 N 7.3905 -1.2043 1.01659 0
M  V30 91 C 8.6365 -1.90079 0.706963 0
M  V30 92 C 8.9695 -1.78648 -0.761474 0
M  V30 93 O 8.2445 -1.17069 -1.55323 0
M  V30 94 C 8.5275 -3.41469 1.14327 0
M  V30 95 C 8.3805 -3.61833 2.67201 0
M  V30 96 C 9.6995 -4.34261 0.714529 0
M  V30 97 H 6.8185 -0.690254 0.2583 0
M  V30 98 H 9.4605 -1.41826 1.26433 0
M  V30 99 H 7.6105 -3.82696 0.669056 0
M  V30 100 H 9.2825 -3.2986 3.22475 0
M  V30 101 H 7.5255 -3.05304 3.08175 0
M  V30 102 H 8.1965 -4.67955 2.92783 0
M  V30 103 H 10.6725 -4.00682 1.12221 0
M  V30 104 H 9.5485 -5.38806 1.04784 0
M  V30 105 H 9.8095 -4.40431 -0.383799 0
M  V30 106 N 8.8686 -0.792821 -1.36206 0
M  V30 107 C 10.0936 -0.377701 -2.03932 0
M  V30 108 C 10.5186 0.998947 -1.59382 0
M  V30 109 O 9.8766 1.64421 -0.763903 0
M  V30 110 C 9.9246 -0.453635 -3.57735 0
M  V30 111 O 9.0286 0.538151 -4.08874 0
M  V30 112 H 8.3696 -0.159855 -0.644471 0
M  V30 113 H 10.8996 -1.07488 -1.7409 0
M  V30 114 H 10.9096 -0.318464 -4.06755 0
M  V30 115 H 9.5846 -1.45784 -3.89512 0
M  V30 116 H 8.1616 0.364359 -3.71116 0
M  V30 117 N 10.3467 1.47872 -0.545128 0
M  V30 118 C 11.2767 2.32661 0.197793 0
M  V30 119 C 12.2577 1.43041 0.920504 0
M  V30 120 O 13.4427 1.71912 0.90333 0
M  V30 121 C 10.5727 3.24569 1.23582 0
M  V30 122 C 9.5267 4.23333 0.630323 0
M  V30 123 C 8.8527 5.0448 1.77211 0
M  V30 124 C 10.1527 5.20704 -0.407974 0
M  V30 125 H 11.8467 2.95024 -0.510045 0
M  V30 126 H 9.3927 1.4187 -0.246731 0
M  V30 127 H 11.3457 3.8272 1.76362 0
M  V30 128 H 10.0697 2.60236 1.97344 0
M  V30 129 H 8.7287 3.6639 0.123922 0
M  V30 130 H 8.3767 4.36561 2.49847 0
M  V30 131 H 8.0767 5.71339 1.37281 0
M  V30 132 H 9.6007 5.65487 2.3034 0
M  V30 133 H 11.0147 5.7329 0.033305 0
M  V30 134 H 9.4117 5.95699 -0.725486 0
M  V30 135 H 10.4817 4.66917 -1.30828 0
M  V30 136 N 11.8248 0.280983 1.55075 0
M  V30 137 C 12.7548 -0.597469 2.25727 0
M  V30 138 C 13.7358 -1.15417 1.24952 0
M  V30 139 O 14.9208 -1.18722 1.53684 0
M  V30 140 C 12.0508 -1.7789 2.98283 0
M  V30 141 C 11.0048 -1.35347 4.06036 0
M  V30 142 C 10.3308 -2.61846 4.66198 0
M  V30 143 C 11.6308 -0.499354 5.19907 0
M  V30 144 H 13.3248 -0.00824265 2.99399 0
M  V30 145 H 10.8708 -0.0025244 1.44 0
M  V30 146 H 12.8238 -2.39937 3.46422 0
M  V30 147 H 11.5478 -2.39405 2.22155 0
M  V30 148 H 10.2068 -0.756156 3.58717 0
M  V30 149 H 9.8548 -3.21632 3.86732 0
M  V30 150 H 9.5548 -2.3409 5.38958 0
M  V30 151 H 11.0788 -3.24732 5.1709 0
M  V30 152 H 12.4928 -1.02498 5.64063 0
M  V30 153 H 10.8898 -0.316424 5.99265 0
M  V30 154 H 11.9598 0.480459 4.82514 0
M  V30 155 N 13.3029 -1.57598 0.00835791 0
M  V30 156 C 14.2329 -2.1198 -0.979113 0
M  V30 157 C 15.2139 -1.03091 -1.35301 0
M  V30 158 O 16.3989 -1.30818 -1.43528 0
M  V30 159 C 13.5289 -2.62995 -2.26828 0
M  V30 160 C 12.4829 -3.76485 -2.03576 0
M  V30 161 C 11.8089 -4.13846 -3.38579 0
M  V30 162 C 13.1089 -5.0342 -1.39161 0
M  V30 163 H 14.8029 -2.94738 -0.526281 0
M  V30 164 H 12.3489 -1.41783 -0.251704 0
M  V30 165 H 14.3019 -2.99669 -2.96271 0
M  V30 166 H 13.0259 -1.7737 -2.7424 0
M  V30 167 H 11.6849 -3.40217 -1.36557 0
M  V30 168 H 11.3329 -3.25232 -3.83709 0
M  V30 169 H 11.0329 -4.90312 -3.23834 0
M  V30 170 H 12.5569 -4.53086 -4.09323 0
M  V30 171 H 13.9709 -5.37812 -1.98573 0
M  V30 172 H 12.3679 -5.84746 -1.34878 0
M  V30 173 H 13.4379 -4.83548 -0.361868 0
M  V30 174 N 14.781 0.264519 -1.55364 0
M  V30 175 C 16.009 1.013 -1.80405 0
M  V30 176 C 16.424 1.79618 -0.581622 0
M  V30 177 O 15.781 1.76879 0.449468 0
M  V30 178 C 15.832 1.96487 -3.03439 0
M  V30 179 O 15.553 1.21341 -4.20961 0
M  V30 180 C 17.054 2.83079 -3.41147 0
M  V30 181 H 14.274 0.298875 -0.600762 0
M  V30 182 H 16.818 0.292736 -2.02394 0
M  V30 183 H 14.973 2.63965 -2.83551 0
M  V30 184 H 15.387 1.85573 -4.90574 0
M  V30 185 H 16.861 3.4565 -4.30384 0
M  V30 186 H 17.338 3.53286 -2.60932 0
M  V30 187 H 17.944 2.2108 -3.63323 0
M  V30 188 N 16.2591 1.48442 0.529413 0
M  V30 189 C 17.1891 1.65902 1.64313 0
M  V30 190 C 18.1701 0.507897 1.6234 0
M  V30 191 O 19.3551 0.740503 1.79528 0
M  V30 192 C 16.4851 1.69911 3.02898 0
M  V30 193 C 15.4391 2.8453 3.19729 0
M  V30 194 C 14.7651 2.73629 4.59381 0
M  V30 195 C 16.0651 4.25821 3.02447 0
M  V30 196 H 17.7591 2.5914 1.49955 0
M  V30 197 H 15.3051 1.24709 0.719982 0
M  V30 198 H 17.2581 1.80715 3.80684 0
M  V30 199 H 15.9821 0.732524 3.18279 0
M  V30 200 H 14.6411 2.73283 2.44361 0
M  V30 201 H 14.2891 1.74938 4.71599 0
M  V30 202 H 13.9891 3.50541 4.71588 0
M  V30 203 H 15.5131 2.86401 5.39265 0
M  V30 204 H 16.9271 4.37898 3.70024 0
M  V30 205 H 15.3241 5.03735 3.26146 0
M  V30 206 H 16.3941 4.42244 1.98867 0
M  V30 207 N 17.7372 -0.778329 1.37039 0
M  V30 208 C 18.9852 -1.53361 1.31623 0
M  V30 209 C 19.3062 -1.94739 -0.100831 0
M  V30 210 O 18.5762 -1.65797 -1.04347 0
M  V30 211 H 17.1562 -0.568794 0.484234 0
M  V30 212 H 19.8182 -0.926742 1.71457 0
M  V30 213 H 18.9142 -2.43606 1.95096 0
M  V30 214 N 19.2153 -1.21501 -1.00376 0
M  V30 215 C 20.4643 -1.02718 -1.73586 0
M  V30 216 C 20.7773 0.439589 -1.90596 0
M  V30 217 O 21.9833 0.746848 -2.61026 0
M  V30 218 C 20.4393 -1.78929 -3.1227 0
M  V30 219 C 20.0473 -3.29783 -3.03228 0
M  V30 220 C 21.7913 -1.68557 -3.89601 0
M  V30 221 C 19.6983 -3.98479 -4.36999 0
M  V30 222 H 18.6283 -0.380733 -0.650814 0
M  V30 223 H 21.2793 -1.45248 -1.1214 0
M  V30 224 H 19.6613 -1.29192 -3.74333 0
M  V30 225 H 20.8353 -3.86832 -2.50395 0
M  V30 226 H 19.1503 -3.40711 -2.39385 0
M  V30 227 H 21.7473 -2.17211 -4.88593 0
M  V30 228 H 22.0903 -0.644021 -4.11288 0
M  V30 229 H 22.6233 -2.15778 -3.34193 0
M  V30 230 H 19.3623 -5.02841 -4.20513 0
M  V30 231 H 18.8823 -3.46219 -4.89788 0
M  V30 232 H 20.5613 -4.03462 -5.05794 0
M  V30 233 N 20.6934 1.19889 -1.02296 0
M  V30 234 C 21.9214 1.9339 -0.735399 0
M  V30 235 C 22.3364 1.75148 0.704887 0
M  V30 236 O 21.6934 1.06954 1.47875 0
M  V30 237 C 21.7444 3.45313 -1.06962 0
M  V30 238 O 21.4654 3.62964 -2.45334 0
M  V30 239 C 22.9664 4.35948 -0.804021 0
M  V30 240 H 20.1864 0.61448 -0.269546 0
M  V30 241 H 22.7304 1.522 -1.36585 0
M  V30 242 H 20.8854 3.84359 -0.484455 0
M  V30 243 H 21.2994 4.56886 -2.57595 0
M  V30 244 H 22.7734 5.41174 -1.0879 0
M  V30 245 H 23.2504 4.3842 0.261691 0
M  V30 246 H 23.8564 4.02574 -1.37164 0
M  V30 247 N 22.1715 0.800033 1.35784 0
M  V30 248 C 23.4195 0.376597 1.9856 0
M  V30 249 C 23.7405 -1.05812 1.63795 0
M  V30 250 O 23.0105 -1.73103 0.917171 0
M  V30 251 H 21.5905 0.136261 0.734467 0
M  V30 252 H 24.2525 1.02442 1.65806 0
M  V30 253 H 23.3485 0.477002 3.08433 0
M  V30 254 N 23.6496 -1.47581 0.552962 0
M  V30 255 C 24.5826 -2.26883 -0.244857 0
M  V30 256 C 25.5606 -1.33784 -0.924147 0
M  V30 257 O 26.7446 -1.6316 -0.943981 0
M  V30 258 C 23.8716 -3.10695 -1.34856 0
M  V30 259 C 22.9176 -4.19339 -0.778268 0
M  V30 260 S 23.7506 -5.34207 0.37184 0
M  V30 261 C 24.9066 -6.21584 -0.733779 0
M  V30 262 H 25.1396 -2.94202 0.428087 0
M  V30 263 H 22.6726 -1.50628 0.339197 0
M  V30 264 H 24.6306 -3.59555 -1.98066 0
M  V30 265 H 23.2916 -2.42746 -1.99332 0
M  V30 266 H 22.4846 -4.77695 -1.60696 0
M  V30 267 H 22.0866 -3.73338 -0.222422 0
M  V30 268 H 24.3786 -6.57676 -1.62692 0
M  V30 269 H 25.3216 -7.07851 -0.187668 0
M  V30 270 H 25.7296 -5.55125 -1.02454 0
M  V30 271 N 25.1277 -0.289203 -1.54924 0
M  V30 272 C 26.0907 0.579144 -2.21762 0
M  V30 273 C 27.0907 1.07047 -1.1999 0
M  V30 274 O 28.2807 0.968384 -1.44803 0
M  V30 275 C 25.4127 1.80055 -2.8947 0
M  V30 276 H 26.6057 -0.00464908 -2.999 0
M  V30 277 H 24.1587 -0.0399306 -1.56249 0
M  V30 278 H 24.8937 2.42449 -2.15381 0
M  V30 279 H 24.6787 1.45602 -3.64064 0
M  V30 280 H 26.1687 2.41773 -3.40493 0
M  V30 281 N 26.6058 1.57591 -0.0167156 0
M  V30 282 C 27.5558 2.05953 0.978137 0
M  V30 283 C 28.5398 0.957532 1.29306 0
M  V30 284 O 29.7318 1.22119 1.28125 0
M  V30 285 C 26.8608 2.58006 2.26468 0
M  V30 286 C 25.9468 3.75113 1.97867 0
M  V30 287 N 26.3378 4.86187 1.39486 0
M  V30 288 C 24.6358 3.83363 2.27924 0
M  V30 289 C 25.3368 5.67502 1.27735 0
M  V30 290 N 24.3128 5.14023 1.76866 0
M  V30 291 H 28.1148 2.89236 0.521522 0
M  V30 292 H 25.6288 1.61301 0.188596 0
M  V30 293 H 27.6258 2.90937 2.98599 0
M  V30 294 H 26.2858 1.76148 2.72767 0
M  V30 295 H 27.2968 5.06695 1.07147 0
M  V30 296 H 23.9738 3.1239 2.76982 0
M  V30 297 H 25.3638 6.66791 0.826978 0
M  V30 298 N 28.0839 -0.256276 1.55502 0
M  V30 299 C 29.0469 -1.30047 1.88734 0
M  V30 300 C 30.0469 -1.4154 0.763086 0
M  V30 301 O 31.2369 -1.40403 1.03115 0
M  V30 302 C 28.3689 -2.67953 2.10747 0
M  V30 303 H 29.5619 -1.01802 2.82093 0
M  V30 304 H 27.1149 -0.495134 1.4825 0
M  V30 305 H 27.8499 -3.01351 1.19825 0
M  V30 306 H 27.6349 -2.60993 2.92617 0
M  V30 307 H 29.1249 -3.43368 2.37673 0
M  V30 308 N 29.562 -1.4872 -0.521534 0
M  V30 309 C 30.525 -1.63379 -1.60748 0
M  V30 310 C 31.525 -0.50661 -1.52611 0
M  V30 311 O 32.715 -0.772601 -1.5613 0
M  V30 312 C 29.847 -1.61192 -3.00383 0
M  V30 313 H 31.04 -2.60217 -1.49087 0
M  V30 314 H 28.593 -1.37444 -0.744235 0
M  V30 315 H 29.328 -0.65863 -3.17541 0
M  V30 316 H 29.113 -2.43032 -3.07698 0
M  V30 317 H 30.603 -1.7466 -3.7932 0
M  V30 318 N 31.0401 0.771051 -1.3745 0
M  V30 319 C 32.2881 1.52661 -1.32435 0
M  V30 320 C 32.6091 1.9479 0.0905024 0
M  V30 321 O 31.8791 1.66348 1.03466 0
M  V30 322 H 30.4591 0.566218 -0.487244 0
M  V30 323 H 33.1211 0.917636 -1.71946 0
M  V30 324 H 32.2171 2.42568 -1.96385 0
M  V30 325 N 32.5182 1.22032 0.997298 0
M  V30 326 C 33.7952 0.950823 1.70935 0
M  V30 327 C 34.1752 -0.535292 2.042 0
M  V30 328 O 33.5232 -1.50217 1.72183 0
M  V30 329 C 33.7332 1.84386 2.96315 0
M  V30 330 C 35.0812 2.09732 3.69185 0
M  V30 331 O 36.1052 1.81798 3.06314 0
M  V30 332 O 34.9642 2.57018 4.82291 0
M  V30 333 H 32.0582 0.357204 0.745878 0
M  V30 334 H 34.6042 1.32997 1.05404 0
M  V30 335 H 33.3762 2.84928 2.68201 0
M  V30 336 H 32.9992 1.46602 3.69586 0
M  V30 337 N 33.9963 -1.19345 1.0293 0
M  V30 338 C 34.9593 -2.20793 0.615069 0
M  V30 339 C 35.9593 -1.57553 -0.321533 0
M  V30 340 O 37.1493 -1.73862 -0.108483 0
M  V30 341 C 34.2813 -3.40754 -0.0999222 0
M  V30 342 H 35.4743 -2.58955 1.51269 0
M  V30 343 H 33.0273 -1.3303 0.820534 0
M  V30 344 H 33.7623 -3.0811 -1.01187 0
M  V30 345 H 33.5473 -3.87889 0.57309 0
M  V30 346 H 35.0373 -4.15898 -0.376645 0
M  V30 347 N 35.4744 -0.807222 -1.35358 0
M  V30 348 C 36.3844 -0.219594 -2.3357 0
M  V30 349 C 37.4004 0.637734 -1.61892 0
M  V30 350 O 38.5764 0.549336 -1.93763 0
M  V30 351 C 35.6414 0.62158 -3.41083 0
M  V30 352 C 34.7024 -0.256315 -4.28534 0
M  V30 353 C 33.9354 0.544807 -5.30912 0
M  V30 354 O 34.1584 1.77944 -5.41934 0
M  V30 355 O 33.0924 -0.0646478 -6.01865 0
M  V30 356 H 36.9184 -1.03208 -2.85625 0
M  V30 357 H 34.5034 -0.569025 -1.38139 0
M  V30 358 H 36.3854 1.10067 -4.06772 0
M  V30 359 H 35.0604 1.41165 -2.91297 0
M  V30 360 H 33.9674 -0.782559 -3.65823 0
M  V30 361 H 35.3004 -1.01034 -4.81719 0
M  V30 362 N 36.9525 1.47285 -0.560781 0
M  V30 363 C 37.9155 2.28535 0.174488 0
M  V30 364 C 38.9155 1.37153 0.839388 0
M  V30 365 O 40.1055 1.59748 0.694702 0
M  V30 366 C 37.2375 3.16934 1.25561 0
M  V30 367 H 38.4305 2.95012 -0.539262 0
M  V30 368 H 35.9835 1.53034 -0.317865 0
M  V30 369 H 36.7185 2.55157 2.00164 0
M  V30 370 H 36.5035 3.8419 0.783604 0
M  V30 371 H 37.9935 3.78143 1.77193 0
M  V30 372 N 38.4306 0.297415 1.54768 0
M  V30 373 C 39.6786 -0.312295 1.99673 0
M  V30 374 C 39.9996 -1.54686 1.18732 0
M  V30 375 O 39.2696 -1.93854 0.282382 0
M  V30 376 H 37.8496 -0.118381 0.73756 0
M  V30 377 H 40.5116 0.407915 1.90583 0
M  V30 378 H 39.6076 -0.586813 3.06534 0
M  V30 379 N 39.9087 -1.5758 0.0250728 0
M  V30 380 C 40.8407 -2.06869 -0.986796 0
M  V30 381 C 41.8537 -0.991332 -1.29137 0
M  V30 382 O 43.0427 -1.26761 -1.25674 0
M  V30 383 C 40.1427 -2.47486 -2.31525 0
M  V30 384 C 39.3157 -3.78253 -2.19643 0
M  V30 385 C 38.3747 -4.05464 -3.35388 0
M  V30 386 O 37.4007 -4.75774 -3.12454 0
M  V30 387 N 38.6027 -3.55321 -4.59051 0
M  V30 388 H 41.3677 -2.94302 -0.566276 0
M  V30 389 H 38.9287 -1.6109 -0.161776 0
M  V30 390 H 40.9207 -2.62785 -3.07776 0
M  V30 391 H 39.4907 -1.65441 -2.65232 0
M  V30 392 H 38.7107 -3.7279 -1.28144 0
M  V30 393 H 39.9987 -4.63936 -2.08903 0
M  V30 394 H 39.3967 -2.98431 -4.80578 0
M  V30 395 H 37.9537 -3.75905 -5.32483 0
M  V30 396 N 41.3868 0.248026 -1.55636 0
M  V30 397 C 42.6348 0.974295 -1.77065 0
M  V30 398 C 42.9558 1.85897 -0.588849 0
M  V30 399 O 42.2258 1.91868 0.395407 0
M  V30 400 H 40.8058 0.362733 -0.653019 0
M  V30 401 H 43.4678 0.266244 -1.93073 0
M  V30 402 H 42.5638 1.59667 -2.68166 0
M  V30 403 N 42.8649 1.48995 0.513639 0
M  V30 404 C 43.8119 1.6473 1.61656 0
M  V30 405 C 44.7819 0.488984 1.58739 0
M  V30 406 O 45.9669 0.714478 1.76918 0
M  V30 407 C 43.1069 1.7082 2.99858 0
M  V30 408 C 42.2199 2.9787 3.12885 0
M  V30 409 C 41.3549 2.95017 4.41744 0
M  V30 410 C 40.3939 4.16702 4.48359 0
M  V30 411 N 39.5309 4.11832 5.68629 0
M  V30 412 H 44.3709 2.58909 1.47547 0
M  V30 413 H 41.9079 1.28382 0.71808 0
M  V30 414 H 43.8659 1.72331 3.79944 0
M  V30 415 H 42.4959 0.801181 3.12699 0
M  V30 416 H 41.5479 3.06029 2.25944 0
M  V30 417 H 42.8599 3.8786 3.13633 0
M  V30 418 H 42.0139 2.95021 5.30139 0
M  V30 419 H 40.7529 2.02784 4.43542 0
M  V30 420 H 39.7579 4.16955 3.58369 0
M  V30 421 H 40.9829 5.10113 4.48287 0
M  V30 422 H 38.9289 3.22428 5.71293 0
M  V30 423 H 38.8459 4.95543 5.7094 0
M  V30 424 H 40.1139 4.1592 6.59266 0
M  V30 425 N 44.343 -0.763751 1.37857 0
M  V30 426 C 45.589 -1.52483 1.33704 0
M  V30 427 C 45.922 -1.94051 -0.0759612 0
M  V30 428 O 45.197 -1.64675 -1.03501 0
M  V30 429 C 45.48 -2.78441 2.28348 0
M  V30 430 C 45.333 -2.43075 3.78463 0
M  V30 431 C 46.652 -3.80415 2.21298 0
M  V30 432 H 43.771 -0.553169 0.487005 0
M  V30 433 H 46.413 -0.875562 1.68624 0
M  V30 434 H 44.563 -3.33842 1.987 0
M  V30 435 H 46.235 -1.93527 4.18742 0
M  V30 436 H 44.478 -1.75666 3.96641 0
M  V30 437 H 45.149 -3.33149 4.40132 0
M  V30 438 H 47.625 -3.34527 2.47449 0
M  V30 439 H 46.501 -4.66257 2.89647 0
M  V30 440 H 46.762 -4.25262 1.20849 0
M  V30 441 N 45.8211 -1.22559 -0.990812 0
M  V30 442 C 46.7841 -0.998863 -2.0629 0
M  V30 443 C 47.7841 0.0354834 -1.60761 0
M  V30 444 O 48.9741 -0.203231 -1.7301 0
M  V30 445 C 46.1061 -0.509203 -3.37076 0
M  V30 446 H 47.2991 -1.95014 -2.27837 0
M  V30 447 H 44.8521 -1.04456 -1.16269 0
M  V30 448 H 45.5871 0.446335 -3.21214 0
M  V30 449 H 45.3721 -1.25547 -3.71457 0
M  V30 450 H 46.8621 -0.370888 -4.1595 0
M  V30 451 N 47.2992 1.18797 -1.03562 0
M  V30 452 C 48.5452 1.8893 -0.737113 0
M  V30 453 C 48.8782 1.79837 0.732956 0
M  V30 454 O 48.1532 1.19525 1.5344 0
M  V30 455 C 48.4362 3.39607 -1.19745 0
M  V30 456 C 48.2892 3.57537 -2.72924 0
M  V30 457 C 49.6082 4.33069 -0.783526 0
M  V30 458 H 46.7272 0.686057 -0.269249 0
M  V30 459 H 49.3692 1.39797 -1.28673 0
M  V30 460 H 47.5192 3.81583 -0.729855 0
M  V30 461 H 49.1912 3.24688 -3.27682 0
M  V30 462 H 47.4342 3.00363 -3.12993 0
M  V30 463 H 48.1052 4.63238 -3.00191 0
M  V30 464 H 50.5812 3.98846 -1.18581 0
M  V30 465 H 49.4572 5.3707 -1.13343 0
M  V30 466 H 49.7182 4.40986 0.313681 0
M  V30 467 N 48.7773 0.814389 1.34928 0
M  V30 468 C 50.0173 0.404165 2.00364 0
M  V30 469 C 50.3813 -1.01166 1.63185 0
M  V30 470 O 51.5823 -1.52431 2.21401 0
M  V30 471 C 49.8533 0.590718 3.52484 0
M  V30 472 S 51.4123 0.272075 4.37956 0
M  V30 473 H 48.2303 0.15311 0.694319 0
M  V30 474 H 50.8323 1.05834 1.64376 0
M  V30 475 H 49.5363 1.62099 3.77031 0
M  V30 476 H 49.0673 -0.0785013 3.93322 0
M  V30 477 H 51.0823 -0.917405 4.87645 0
M  V30 478 N 50.2554 -1.46986 0.568584 0
M  V30 479 C 51.5034 -2.02041 0.0487022 0
M  V30 480 C 51.8244 -1.44408 -1.31039 0
M  V30 481 O 51.0944 -0.623477 -1.85714 0
M  V30 482 H 49.6744 -0.746849 0.015014 0
M  V30 483 H 52.3364 -1.80257 0.741168 0
M  V30 484 H 51.4324 -3.12085 -0.0308961 0
M  V30 485 N 51.7335 -0.305618 -1.54608 0
M  V30 486 C 52.6965 0.555591 -2.22364 0
M  V30 487 C 53.6965 1.05768 -1.21119 0
M  V30 488 O 54.8865 0.952972 -1.45822 0
M  V30 489 C 52.0185 1.76974 -2.91364 0
M  V30 490 H 53.2115 -0.0364572 -2.99878 0
M  V30 491 H 50.7645 -0.0565007 -1.56198 0
M  V30 492 H 51.4995 2.40151 -2.17941 0
M  V30 493 H 51.2845 1.41732 -3.65588 0
M  V30 494 H 52.7745 2.38148 -3.43038 0
M  V30 495 N 53.2116 1.57565 -0.0334293 0
M  V30 496 C 54.4516 1.93844 0.648379 0
M  V30 497 C 54.8156 0.910387 1.69044 0
M  V30 498 O 56.0166 1.15952 2.42505 0
M  V30 499 C 54.2876 3.35017 1.24492 0
M  V30 500 S 55.8466 3.93229 1.94721 0
M  V30 501 H 52.6646 0.678231 0.213364 0
M  V30 502 H 55.2666 1.95254 -0.0981253 0
M  V30 503 H 53.9706 4.07652 0.474128 0
M  V30 504 H 53.5016 3.37061 2.02864 0
M  V30 505 H 55.5166 3.77014 3.22606 0
M  V30 506 N 54.6897 -0.239769 1.55765 0
M  V30 507 C 55.6397 -1.30002 1.87306 0
M  V30 508 C 56.6237 -1.43156 0.73452 0
M  V30 509 O 57.8157 -1.46277 0.99659 0
M  V30 510 C 54.9447 -2.65409 2.17745 0
M  V30 511 C 54.0307 -2.56231 3.37945 0
M  V30 512 N 54.4217 -2.16689 4.57033 0
M  V30 513 C 52.7197 -2.87229 3.41197 0
M  V30 514 C 53.4207 -2.18318 5.39177 0
M  V30 515 N 52.3967 -2.58098 4.78421 0
M  V30 516 H 56.1987 -0.984912 2.76906 0
M  V30 517 H 53.7127 -0.448381 1.56087 0
M  V30 518 H 55.7097 -3.41934 2.38509 0
M  V30 519 H 54.3697 -2.97781 1.29448 0
M  V30 520 H 55.3807 -1.88116 4.82528 0
M  V30 521 H 52.0577 -3.24094 2.63191 0
M  V30 522 H 53.4477 -1.90025 6.44469 0
M  V30 523 N 56.1678 -1.49265 -0.50573 0
M  V30 524 C 57.4158 -1.582 -1.25766 0
M  V30 525 C 57.7368 -0.268482 -1.93143 0
M  V30 526 O 57.0068 0.711833 -1.8251 0
M  V30 527 H 55.5868 -0.582873 -0.467191 0
M  V30 528 H 58.2488 -1.85865 -0.586525 0
M  V30 529 H 57.3448 -2.37563 -2.02412 0
M  V30 530 N 57.6459 0.756429 -1.3826 0
M  V30 531 C 58.8919 1.51772 -1.34511 0
M  V30 532 C 59.2249 1.94089 0.0656691 0
M  V30 533 O 58.4999 1.65221 1.02626 0
M  V30 534 C 58.7829 2.77226 -2.29821 0
M  V30 535 C 58.6359 2.41065 -3.79747 0
M  V30 536 C 59.9549 3.79236 -2.23312 0
M  V30 537 H 57.0739 0.550578 -0.489931 0
M  V30 538 H 59.7159 0.866607 -1.69086 0
M  V30 539 H 57.8659 3.32784 -2.00467 0
M  V30 540 H 59.5379 1.91303 -4.19763 0
M  V30 541 H 57.7809 1.7356 -3.97567 0
M  V30 542 H 58.4519 3.3081 -4.41892 0
M  V30 543 H 60.9279 3.3321 -2.49219 0
M  V30 544 H 59.8039 4.64714 -2.92116 0
M  V30 545 H 60.0649 4.24615 -1.23102 0
M  V30 546 N 59.124 1.23083 0.984299 0
M  V30 547 C 60.401 0.9689 1.69917 0
M  V30 548 C 60.781 -0.513604 2.04757 0
M  V30 549 O 60.129 -1.48383 1.73767 0
M  V30 550 C 60.339 1.87518 2.94343 0
M  V30 551 C 61.687 2.13636 3.6694 0
M  V30 552 O 62.711 1.85036 3.04368 0
M  V30 553 O 61.57 2.62119 4.79537 0
M  V30 554 H 58.664 0.365095 0.742048 0
M  V30 555 H 61.21 1.34107 1.03987 0
M  V30 556 H 59.982 2.87756 2.65164 0
M  V30 557 H 59.605 1.50514 3.6801 0
M  V30 558 N 60.6021 -1.18246 1.0419 0
M  V30 559 C 61.8501 -1.87886 0.744543 0
M  V30 560 C 62.1711 -1.8082 -0.730006 0
M  V30 561 O 61.4411 -1.22736 -1.52685 0
M  V30 562 H 60.0211 -0.695556 0.272417 0
M  V30 563 H 62.6831 -1.43494 1.31892 0
M  V30 564 H 61.7791 -2.9389 1.05049 0
M  V30 565 N 62.0802 -0.821533 -1.34494 0
M  V30 566 C 63.0282 -0.230702 -2.31453 0
M  V30 567 C 64.0222 0.627793 -1.57338 0
M  V30 568 O 65.2282 0.519288 -1.72347 0
M  V30 569 H 61.6032 -0.0558577 -0.749923 0
M  V30 570 H 63.5742 -1.06332 -2.78812 0
M  V30 571 C 62.3232 0.59391 -3.4259 0
M  V30 572 H 61.6462 -0.0573588 -3.99759 0
M  V30 573 H 63.0862 0.973446 -4.12674 0
M  V30 574 C 61.5452 1.76568 -2.86924 0
M  V30 575 O 62.0752 2.8638 -2.81691 0
M  V30 576 N 60.2812 1.58198 -2.43766 0
M  V30 577 H 59.8282 0.68872 -2.48222 0
M  V30 578 H 59.7862 2.36752 -2.06871 0
M  V30 579 N 63.5583 1.46682 -0.576371 0
M  V30 580 C 64.7833 2.07304 -0.0630475 0
M  V30 581 C 65.2083 1.42329 1.2298 0
M  V30 582 O 64.5663 0.504865 1.74129 0
M  V30 583 C 64.6143 3.60472 0.095895 0
M  V30 584 O 63.7183 3.95927 1.15394 0
M  V30 585 H 63.0593 0.661288 -0.0599463 0
M  V30 586 H 65.5893 1.88417 -0.797511 0
M  V30 587 H 65.5993 4.06865 0.304071 0
M  V30 588 H 64.2743 4.07157 -0.84828 0
M  V30 589 H 62.8513 3.61252 0.924724 0
M  V30 590 N 65.0364 0.313813 1.54444 0
M  V30 591 C 66.4474 -0.176243 1.85866 0
M  V30 592 C 66.7984 -1.52405 1.23561 0
M  V30 593 O 65.9234 -2.09605 0.538016 0
M  V30 594 C 66.5184 -0.32657 3.37222 0
M  V30 595 C 65.0774 -0.760846 3.6863 0
M  V30 596 C 64.2244 0.123247 2.77026 0
M  V30 597 H 67.1754 0.534418 1.49431 0
M  V30 598 H 67.1964 -1.15908 3.62416 0
M  V30 599 H 66.7084 0.654531 3.82541 0
M  V30 600 H 64.8094 -1.75204 3.28838 0
M  V30 601 H 64.9224 -0.571353 4.75681 0
M  V30 602 H 63.2864 -0.399597 2.51546 0
M  V30 603 H 64.0694 1.10094 3.25168 0
M  V30 604 N 66.5145 -1.57545 0.0417849 0
M  V30 605 C 67.4775 -2.09885 -0.92093 0
M  V30 606 C 68.4775 -1.01648 -1.24596 0
M  V30 607 O 69.6675 -1.27759 -1.1842 0
M  V30 608 C 66.7995 -2.57527 -2.23367 0
M  V30 609 H 67.9925 -2.96236 -0.467382 0
M  V30 610 H 65.5455 -1.5493 -0.206467 0
M  V30 611 H 66.2805 -1.74542 -2.73323 0
M  V30 612 H 66.0655 -3.36613 -2.01083 0
M  V30 613 H 67.5555 -2.98201 -2.92346 0
M  V30 614 N 67.9926 0.231505 -1.5589 0
M  V30 615 C 69.4036 0.799327 -1.68724 0
M  V30 616 C 69.7546 1.85398 -0.642022 0
M  V30 617 O 68.8796 2.1539 0.208784 0
M  V30 618 C 69.4746 1.45664 -3.05888 0
M  V30 619 C 68.0336 1.97197 -3.20609 0
M  V30 620 C 67.1806 0.828552 -2.64632 0
M  V30 621 H 70.1316 0.00702616 -1.58698 0
M  V30 622 H 70.1526 2.32517 -3.01191 0
M  V30 623 H 69.6646 0.688808 -3.81939 0
M  V30 624 H 67.7656 2.76813 -2.4941 0
M  V30 625 H 67.8786 2.15878 -4.27707 0
M  V30 626 H 66.2426 1.23321 -2.22854 0
M  V30 627 H 67.0256 0.0735544 -3.43221 0
M  V30 628 N 69.4707 1.49531 0.497807 0
M  V30 629 C 70.4187 1.66926 1.61983 0
M  V30 630 C 71.4127 0.535167 1.60724 0
M  V30 631 O 72.6187 0.714896 1.65195 0
M  V30 632 H 68.9937 0.526415 0.537021 0
M  V30 633 H 70.9647 2.61098 1.44465 0
M  V30 634 C 69.7137 1.75602 3.00099 0
M  V30 635 H 69.0367 2.62244 3.01775 0
M  V30 636 H 70.4767 1.91807 3.78135 0
M  V30 637 C 68.9357 0.501543 3.33146 0
M  V30 638 O 69.4657 -0.371342 3.9998 0
M  V30 639 N 67.6717 0.363531 2.88317 0
M  V30 640 H 67.2187 1.07485 2.34104 0
M  V30 641 H 67.1767 -0.474728 3.10795 0
M  V30 642 N 70.9488 -0.749086 1.3866 0
M  V30 643 C 72.1958 -1.50833 1.35114 0
M  V30 644 C 72.5238 -1.94415 -0.0574049 0
M  V30 645 O 71.7788 -1.66065 -1.03541 0
M  V30 646 C 72.0778 -2.7712 2.25697 0
M  V30 647 C 71.7438 -2.52477 3.73585 0
M  V30 648 C 70.4058 -2.45466 4.13884 0
M  V30 649 C 72.7578 -2.31066 4.67181 0
M  V30 650 C 70.0858 -2.15064 5.45861 0
M  V30 651 C 72.4378 -2.02183 5.9942 0
M  V30 652 C 71.1018 -1.93631 6.38798 0
M  V30 653 H 70.3718 -0.551936 0.494416 0
M  V30 654 H 73.0188 -0.860979 1.71054 0
M  V30 655 H 71.3238 -3.46528 1.82827 0
M  V30 656 H 73.0208 -3.35096 2.20254 0
M  V30 657 H 69.6108 -2.58807 3.41638 0
M  V30 658 H 73.7948 -2.35459 4.3689 0
M  V30 659 H 69.0508 -2.06954 5.75308 0
M  V30 660 H 73.2248 -1.8462 6.71482 0
M  V30 661 H 70.8518 -1.69839 7.40985 0
M  V30 662 N 72.4269 -1.23603 -0.977757 0
M  V30 663 C 73.8379 -1.06424 -1.53398 0
M  V30 664 C 74.1889 0.367578 -1.92726 0
M  V30 665 O 73.3139 1.25465 -1.76316 0
M  V30 666 C 73.9089 -1.92568 -2.78753 0
M  V30 667 C 72.4679 -1.79642 -3.30765 0
M  V30 668 C 71.6149 -1.88111 -2.03739 0
M  V30 669 H 74.5659 -1.37227 -0.797152 0
M  V30 670 H 74.5869 -1.45203 -3.51705 0
M  V30 671 H 74.0989 -2.96771 -2.50098 0
M  V30 672 H 72.1999 -0.782325 -3.64294 0
M  V30 673 H 72.3129 -2.63174 -4.00345 0
M  V30 674 H 70.6769 -1.31723 -2.17994 0
M  V30 675 H 71.4599 -2.93875 -1.77461 0
M  V30 676 N 73.905 1.17692 -1.04816 0
M  V30 677 C 74.852 2.21581 -0.645797 0
M  V30 678 C 75.822 1.62367 0.350159 0
M  V30 679 O 77.007 1.89254 0.242433 0
M  V30 680 C 74.147 3.45092 -0.0227568 0
M  V30 681 C 73.26 4.18613 -1.06709 0
M  V30 682 C 72.395 5.29602 -0.411767 0
M  V30 683 C 71.434 5.94904 -1.44067 0
M  V30 684 N 70.571 6.97414 -0.809781 0
M  V30 685 H 75.411 2.55353 -1.5362 0
M  V30 686 H 72.948 1.25438 -0.768364 0
M  V30 687 H 74.906 4.15679 0.35588 0
M  V30 688 H 73.536 3.11917 0.831122 0
M  V30 689 H 72.588 3.46779 -1.5636 0
M  V30 690 H 73.9 4.63293 -1.84827 0
M  V30 691 H 73.054 6.06696 0.0206623 0
M  V30 692 H 71.793 4.86045 0.401438 0
M  V30 693 H 70.798 5.16544 -1.88316 0
M  V30 694 H 72.023 6.40542 -2.25571 0
M  V30 695 H 69.969 6.55998 -0.0170186 0
M  V30 696 H 69.886 7.40386 -1.52856 0
M  V30 697 H 71.154 7.78463 -0.401999 0
M  V30 698 N 75.3831 0.828654 1.34056 0
M  V30 699 C 76.3131 0.269443 2.3194 0
M  V30 700 C 77.2941 -0.617247 1.58506 0
M  V30 701 O 78.4791 -0.542931 1.86456 0
M  V30 702 C 75.6091 -0.564793 3.42677 0
M  V30 703 C 74.5631 0.225241 4.27407 0
M  V30 704 C 73.8891 -0.7321 5.29664 0
M  V30 705 C 75.1891 1.43663 5.02154 0
M  V30 706 H 76.8831 1.08728 2.7896 0
M  V30 707 H 74.4291 0.524283 1.34117 0
M  V30 708 H 76.3821 -0.966233 4.10173 0
M  V30 709 H 75.1061 -1.41574 2.9432 0
M  V30 710 H 73.7651 0.608117 3.61521 0
M  V30 711 H 73.4131 -1.57916 4.77568 0
M  V30 712 H 73.1131 -0.20767 5.87233 0
M  V30 713 H 74.6371 -1.13128 6.00029 0
M  V30 714 H 76.0511 1.1089 5.62473 0
M  V30 715 H 74.4481 1.89711 5.69324 0
M  V30 716 H 75.5181 2.21181 4.31517 0
M  V30 717 N 76.8612 -1.46375 0.584142 0
M  V30 718 C 77.8242 -2.28784 -0.138108 0
M  V30 719 C 78.8242 -1.38471 -0.817462 0
M  V30 720 O 80.0142 -1.60833 -0.669199 0
M  V30 721 C 77.1462 -3.18892 -1.20503 0
M  V30 722 H 78.3392 -2.94117 0.586127 0
M  V30 723 H 75.8922 -1.52509 0.342171 0
M  V30 724 H 76.6272 -2.58309 -1.96079 0
M  V30 725 H 76.4122 -3.85388 -0.722384 0
M  V30 726 H 77.9022 -3.80914 -1.71155 0
M  V30 727 N 78.3393 -0.321999 -1.54275 0
M  V30 728 C 79.5873 0.280489 -2.00144 0
M  V30 729 C 79.9083 1.52777 -1.21178 0
M  V30 730 O 79.1783 1.9338 -0.313187 0
M  V30 731 H 77.7583 0.106632 -0.73935 0
M  V30 732 H 80.4203 -0.438184 -1.8991 0
M  V30 733 H 79.5163 0.537972 -3.07428 0
M  V30 734 N 79.8174 1.5752 -0.0501392 0
M  V30 735 C 80.7494 2.08413 0.95376 0
M  V30 736 C 81.7624 1.01175 1.27544 0
M  V30 737 O 82.9514 1.28744 1.23641 0
M  V30 738 C 80.0514 2.51138 2.27559 0
M  V30 739 C 79.2244 3.817 2.13598 0
M  V30 740 C 78.2834 4.10749 3.28895 0
M  V30 741 O 77.3094 4.80685 3.04845 0
M  V30 742 N 78.5114 3.62579 4.5334 0
M  V30 743 H 81.2764 2.95165 0.519383 0
M  V30 744 H 78.8374 1.61327 0.136127 0
M  V30 745 H 80.8294 2.67648 3.03557 0
M  V30 746 H 79.3994 1.6964 2.62567 0
M  V30 747 H 78.6194 3.74782 1.22197 0
M  V30 748 H 79.9074 4.67201 2.01496 0
M  V30 749 H 79.3054 3.06039 4.75769 0
M  V30 750 H 77.8624 3.84329 5.26436 0
M  V30 751 N 81.2955 -0.223234 1.56011 0
M  V30 752 C 82.5435 -0.946003 1.78592 0
M  V30 753 C 82.8645 -1.84936 0.618349 0
M  V30 754 O 82.1345 -1.92473 -0.364833 0
M  V30 755 H 80.7145 -0.352298 0.658707 0
M  V30 756 H 83.3765 -0.235494 1.93472 0
M  V30 757 H 82.4725 -1.55381 2.70672 0
M  V30 758 N 82.7736 -1.49793 -0.48987 0
M  V30 759 C 83.6836 -1.70036 -1.61632 0
M  V30 760 C 84.6996 -0.583102 -1.63939 0
M  V30 761 O 85.8756 -0.859169 -1.82154 0
M  V30 762 C 82.9406 -1.77277 -2.97949 0
M  V30 763 C 82.0016 -3.00918 -3.06181 0
M  V30 764 C 81.2346 -3.07804 -4.35996 0
M  V30 765 O 81.4576 -2.21982 -5.25433 0
M  V30 766 O 80.3916 -4.00369 -4.49431 0
M  V30 767 H 84.2176 -2.65486 -1.47482 0
M  V30 768 H 81.8026 -1.33666 -0.667362 0
M  V30 769 H 83.6846 -1.84329 -3.78947 0
M  V30 770 H 82.3596 -0.850076 -3.12339 0
M  V30 771 H 81.2666 -2.99377 -2.2433 0
M  V30 772 H 82.5996 -3.92704 -2.96723 0
M  V30 773 N 84.2517 0.741722 -1.39055 0
M  V30 774 C 85.6677 1.04638 -1.20512 0
M  V30 775 C 85.8677 2.01405 -0.0620218 0
M  V30 776 O 84.9237 2.45547 0.588457 0
M  V30 777 C 86.2367 1.6151 -2.53643 0
M  V30 778 C 87.7847 1.73623 -2.6043 0
M  V30 779 C 88.2597 2.33906 -3.93767 0
M  V30 780 N 89.7507 2.41323 -3.9537 0
M  V30 781 C 90.4857 2.88888 -4.95309 0
M  V30 782 N 89.9817 3.36401 -6.05645 0
M  V30 783 N 91.7747 2.88037 -4.82692 0
M  V30 784 H 83.9257 0.0998155 -2.12165 0
M  V30 785 H 86.1887 0.106907 -0.941953 0
M  V30 786 H 85.8947 0.978739 -3.37807 0
M  V30 787 H 85.7687 2.60411 -2.72885 0
M  V30 788 H 88.1557 2.36384 -1.76655 0
M  V30 789 H 88.2367 0.733945 -2.45045 0
M  V30 790 H 87.8807 1.71776 -4.7797 0
M  V30 791 H 87.8107 3.34799 -4.06469 0
M  V30 792 H 90.3017 2.07734 -3.15682 0
M  V30 793 H 90.6147 3.71186 -6.77821 0
M  V30 794 H 88.9597 3.34427 -6.09248 0
M  V30 795 H 92.1507 2.50237 -3.95599 0
M  V30 796 H 92.3237 3.24792 -5.60726 0
M  V30 797 N 85.7298 1.2412 0.971189 0
M  V30 798 C 86.9598 1.10415 1.7462 0
M  V30 799 C 87.3678 -0.346462 1.86001 0
M  V30 800 O 86.7108 -1.25104 1.34517 0
M  V30 801 C 86.7728 1.66596 3.18568 0
M  V30 802 C 86.4368 3.15446 3.3067 0
M  V30 803 C 87.4338 4.12636 3.16271 0
M  V30 804 C 85.1188 3.55337 3.55022 0
M  V30 805 C 87.1128 5.47699 3.26044 0
M  V30 806 C 84.7998 4.90542 3.64434 0
M  V30 807 C 85.7978 5.86532 3.49956 0
M  V30 808 O 85.4858 7.19279 3.59017 0
M  V30 809 H 85.2178 0.386616 0.55453 0
M  V30 810 H 87.7718 1.64633 1.22821 0
M  V30 811 H 86.0018 1.06808 3.71657 0
M  V30 812 H 87.6908 1.48232 3.77865 0
M  V30 813 H 88.4568 3.8316 2.97344 0
M  V30 814 H 84.3358 2.8113 3.65359 0
M  V30 815 H 87.8798 6.22603 3.14661 0
M  V30 816 H 83.7768 5.19691 3.82873 0
M  V30 817 H 84.5448 7.27153 3.75754 0
M  V30 818 N 87.2079 -1.17134 1.05439 0
M  V30 819 C 88.1379 -2.2342 0.678649 0
M  V30 820 C 89.1189 -1.66971 -0.32476 0
M  V30 821 O 90.3039 -1.93149 -0.201802 0
M  V30 822 C 87.4339 -3.47256 0.0552099 0
M  V30 823 C 86.3879 -4.16543 0.98365 0
M  V30 824 C 85.7139 -5.34231 0.223961 0
M  V30 825 C 87.0139 -4.68495 2.3089 0
M  V30 826 H 88.7079 -2.55105 1.56722 0
M  V30 827 H 86.2539 -1.2262 0.754998 0
M  V30 828 H 88.2069 -4.20828 -0.21946 0
M  V30 829 H 86.9309 -3.14846 -0.868319 0
M  V30 830 H 85.5899 -3.44887 1.24293 0
M  V30 831 H 85.2379 -4.98071 -0.702412 0
M  V30 832 H 84.9379 -5.81527 0.842627 0
M  V30 833 H 86.4619 -6.10585 -0.0433671 0
M  V30 834 H 87.8759 -5.33691 2.09396 0
M  V30 835 H 86.2729 -5.26379 2.88176 0
M  V30 836 H 87.3429 -3.85169 2.94572 0
M  V30 837 N 88.686 -0.835752 -1.33615 0
M  V30 838 C 89.616 -0.281739 -2.31794 0
M  V30 839 C 90.597 0.608833 -1.58831 0
M  V30 840 O 91.782 0.533035 -1.86741 0
M  V30 841 C 88.912 0.546612 -3.42971 0
M  V30 842 C 87.866 -0.247904 -4.27281 0
M  V30 843 C 87.192 0.704001 -5.30045 0
M  V30 844 C 88.492 -1.46324 -5.01385 0
M  V30 845 H 90.186 -1.10206 -2.78379 0
M  V30 846 H 87.732 -0.531388 -1.33837 0
M  V30 847 H 89.685 0.944467 -4.1068 0
M  V30 848 H 88.409 1.40011 -2.95067 0
M  V30 849 H 87.068 -0.627281 -3.61194 0
M  V30 850 H 86.716 1.55381 -4.78399 0
M  V30 851 H 86.416 0.176524 -5.87335 0
M  V30 852 H 87.94 1.09944 -6.0062 0
M  V30 853 H 89.354 -1.13871 -5.61877 0
M  V30 854 H 87.751 -1.92728 -5.6831 0
M  V30 855 H 88.821 -2.23467 -4.30338 0
M  V30 856 N 90.1641 1.46063 -0.591896 0
M  V30 857 C 91.1111 2.30399 0.136069 0
M  V30 858 C 92.0811 1.41169 0.875238 0
M  V30 859 O 93.2661 1.70112 0.86409 0
M  V30 860 C 90.4061 3.25804 1.13781 0
M  V30 861 C 89.5191 4.30134 0.401137 0
M  V30 862 C 88.6541 5.12659 1.39121 0
M  V30 863 C 87.6931 6.0873 0.641462 0
M  V30 864 N 86.8301 6.8409 1.58004 0
M  V30 865 H 91.6701 2.92118 -0.589144 0
M  V30 866 H 89.2071 1.43959 -0.302342 0
M  V30 867 H 91.1651 3.79569 1.73156 0
M  V30 868 H 89.7951 2.65872 1.83062 0
M  V30 869 H 88.8471 3.79152 -0.307826 0
M  V30 870 H 90.1591 4.98458 -0.184565 0
M  V30 871 H 89.3131 5.70747 2.05749 0
M  V30 872 H 88.0521 4.44316 2.01084 0
M  V30 873 H 87.0571 5.49786 -0.0385419 0
M  V30 874 H 88.2821 6.79095 0.0270945 0
M  V30 875 H 86.2281 6.18449 2.18761 0
M  V30 876 H 86.1451 7.48709 1.04738 0
M  V30 877 H 87.4131 7.4673 2.23639 0
M  V30 878 N 91.6422 0.330177 1.54103 0
M  V30 879 C 92.5742 -0.566902 2.22079 0
M  V30 880 C 93.5872 -1.07462 1.22294 0
M  V30 881 O 94.7762 -0.987065 1.48726 0
M  V30 882 C 91.8762 -1.79138 2.87685 0
M  V30 883 C 91.0492 -1.42123 4.13666 0
M  V30 884 C 90.1082 -2.50394 4.62806 0
M  V30 885 O 89.1342 -2.14261 5.27334 0
M  V30 886 N 90.3362 -3.81433 4.37595 0
M  V30 887 H 93.1012 0.0151844 2.99696 0
M  V30 888 H 90.6622 0.153681 1.61169 0
M  V30 889 H 92.6542 -2.50975 3.1748 0
M  V30 890 H 91.2242 -2.28115 2.13734 0
M  V30 891 H 90.4442 -0.534201 3.90564 0
M  V30 892 H 91.7322 -1.14971 4.9564 0
M  V30 893 H 91.1302 -4.13584 3.8596 0
M  V30 894 H 89.6872 -4.4948 4.72029 0
M  V30 895 N 93.1203 -1.57491 0.0584922 0
M  V30 896 C 94.0503 -2.14988 -0.911178 0
M  V30 897 C 95.0313 -1.07343 -1.31952 0
M  V30 898 O 96.2163 -1.35318 -1.39294 0
M  V30 899 C 93.3463 -2.70078 -2.18347 0
M  V30 900 C 92.3003 -3.82771 -1.91495 0
M  V30 901 C 91.6263 -4.24408 -3.25241 0
M  V30 902 C 92.9263 -5.07592 -1.23075 0
M  V30 903 H 94.6203 -2.96263 -0.432246 0
M  V30 904 H 92.1663 -1.42512 -0.206469 0
M  V30 905 H 94.1193 -3.08943 -2.86587 0
M  V30 906 H 92.8433 -1.86005 -2.68458 0
M  V30 907 H 91.5023 -3.44389 -1.25664 0
M  V30 908 H 91.1503 -3.37275 -3.73168 0
M  V30 909 H 90.8503 -5.00366 -3.08071 0
M  V30 910 H 92.3743 -4.65879 -3.94701 0
M  V30 911 H 93.7883 -5.43857 -1.81362 0
M  V30 912 H 92.1853 -5.88741 -1.16207 0
M  V30 913 H 93.2553 -4.84454 -0.207847 0
M  V30 914 N 94.5984 0.214957 -1.56127 0
M  V30 915 C 95.5304 1.29004 -1.89448 0
M  V30 916 C 96.5434 1.42716 -0.783326 0
M  V30 917 O 97.7324 1.43496 -1.06166 0
M  V30 918 C 94.8324 2.66482 -2.09381 0
M  V30 919 C 94.0054 2.74633 -3.40434 0
M  V30 920 C 93.0644 3.9317 -3.49719 0
M  V30 921 O 92.0904 3.812 -4.227 0
M  V30 922 N 93.2924 5.07765 -2.81346 0
M  V30 923 H 96.0574 1.00743 -2.82261 0
M  V30 924 H 93.6184 0.40497 -1.56753 0
M  V30 925 H 95.6104 3.44173 -2.12901 0
M  V30 926 H 94.1804 2.87314 -1.23163 0
M  V30 927 H 93.4004 1.83368 -3.48955 0
M  V30 928 H 94.6884 2.77054 -4.26754 0
M  V30 929 H 94.0864 5.20386 -2.21843 0
M  V30 930 H 92.6434 5.83474 -2.90519 0
M  V30 931 N 96.0765 1.50051 0.48192 0
M  V30 932 C 97.3535 1.51009 1.2432 0
M  V30 933 C 97.7335 0.248587 2.09631 0
M  V30 934 O 97.0815 -0.768409 2.15192 0
M  V30 935 C 97.2915 2.79981 2.08355 0
M  V30 936 C 98.6395 3.3022 2.66908 0
M  V30 937 O 99.6635 2.81228 2.18607 0
M  V30 938 O 98.5225 4.15595 3.54884 0
M  V30 939 H 95.6165 0.605239 0.563573 0
M  V30 940 H 98.1625 1.62332 0.494627 0
M  V30 941 H 96.9345 3.63275 1.45419 0
M  V30 942 H 96.5575 2.7161 2.90368 0
M  V30 943 N 97.5546 -0.734337 1.39446 0
M  V30 944 C 98.8036 -1.48937 1.36017 0
M  V30 945 C 99.1166 -1.95557 -0.0409005 0
M  V30 946 O 100.323 -2.70779 -0.19778 0
M  V30 947 C 98.7786 -2.69125 2.38955 0
M  V30 948 C 98.3866 -2.29452 3.8478 0
M  V30 949 C 100.131 -3.46944 2.44603 0
M  V30 950 C 98.0376 -3.46366 4.79358 0
M  V30 951 H 96.9676 -0.559296 0.505672 0
M  V30 952 H 99.6186 -0.800983 1.65095 0
M  V30 953 H 98.0006 -3.40041 2.02948 0
M  V30 954 H 99.1746 -1.66077 4.29831 0
M  V30 955 H 97.4896 -1.64723 3.82433 0
M  V30 956 H 100.087 -4.33907 3.12456 0
M  V30 957 H 100.43 -3.89454 1.47076 0
M  V30 958 H 100.963 -2.83056 2.79507 0
M  V30 959 H 97.7016 -3.08905 5.78151 0
M  V30 960 H 97.2216 -4.08719 4.38986 0
M  V30 961 H 98.9006 -4.12691 4.98292 0
M  V30 962 N 99.0327 -1.24633 -0.964593 0
M  V30 963 C 99.9797 -1.04144 -2.05968 0
M  V30 964 C 100.95 0.046262 -1.66036 0
M  V30 965 O 102.135 -0.108972 -1.90489 0
M  V30 966 C 99.2747 -0.65563 -3.38815 0
M  V30 967 C 98.3877 -1.81714 -3.91923 0
M  V30 968 C 97.5227 -1.37662 -5.13052 0
M  V30 969 C 96.5617 -2.50788 -5.58365 0
M  V30 970 N 95.6987 -2.07582 -6.70712 0
M  V30 971 H 100.539 -1.9787 -2.22827 0
M  V30 972 H 98.0757 -0.9855 -1.09208 0
M  V30 973 H 100.034 -0.412954 -4.15151 0
M  V30 974 H 98.6637 0.244627 -3.21872 0
M  V30 975 H 97.7157 -2.1734 -3.12198 0
M  V30 976 H 99.0277 -2.66705 -4.21509 0
M  V30 977 H 98.1817 -1.093 -5.96773 0
M  V30 978 H 96.9207 -0.497293 -4.85158 0
M  V30 979 H 95.9257 -2.79906 -4.73215 0
M  V30 980 H 97.1507 -3.39283 -5.88272 0
M  V30 981 H 95.0967 -1.22051 -6.44546 0
M  V30 982 H 95.0137 -2.86125 -6.99763 0
M  V30 983 H 96.2817 -1.82369 -7.57867 0
M  V30 984 N 100.511 1.16574 -1.06058 0
M  V30 985 C 101.474 2.19085 -0.673392 0
M  V30 986 C 102.474 1.5835 0.279648 0
M  V30 987 O 103.664 1.74088 0.0623488 0
M  V30 988 C 100.796 3.40899 0.00954234 0
M  V30 989 H 101.989 2.54853 -1.58081 0
M  V30 990 H 99.5418 1.30808 -0.855516 0
M  V30 991 H 100.277 3.10684 0.929826 0
M  V30 992 H 100.062 3.86233 -0.67573 0
M  V30 993 H 101.552 4.1675 0.266245 0
M  V30 994 N 101.989 0.842826 1.3317 0
M  V30 995 C 103.237 0.439577 1.97262 0
M  V30 996 C 103.558 -1.00548 1.67078 0
M  V30 997 O 102.828 -1.70098 0.971779 0
M  V30 998 H 101.408 0.159558 0.72976 0
M  V30 999 H 104.07 1.07665 1.62463 0
M  V30 1000 H 103.166 0.574886 3.0676 0
M  V30 1001 N 103.467 -1.45747 0.599634 0
M  V30 1002 C 104.692 -2.07178 0.0960198 0
M  V30 1003 C 105.117 -1.44268 -1.207 0
M  V30 1004 O 104.475 -0.532503 -1.73303 0
M  V30 1005 C 104.523 -3.60579 -0.0385348 0
M  V30 1006 O 103.627 -3.97713 -1.0908 0
M  V30 1007 H 102.968 -0.660251 0.0704593 0
M  V30 1008 H 105.498 -1.87124 0.827385 0
M  V30 1009 H 105.508 -4.07298 -0.239304 0
M  V30 1010 H 104.183 -4.05756 0.912947 0
M  V30 1011 H 102.76 -3.62678 -0.867135 0
M  V30 1012 N 104.945 -0.338344 -1.53925 0
M  V30 1013 C 106.173 0.261298 -2.05243 0
M  V30 1014 C 106.588 1.44625 -1.21363 0
M  V30 1015 O 105.945 1.80811 -0.247736 0
M  V30 1016 C 105.996 0.681412 -3.5502 0
M  V30 1017 O 105.717 -0.456414 -4.35716 0
M  V30 1018 C 107.218 1.34232 -4.22489 0
M  V30 1019 H 104.438 0.0513685 -0.669031 0
M  V30 1020 H 106.982 -0.488822 -1.98572 0
M  V30 1021 H 105.137 1.38148 -3.61931 0
M  V30 1022 H 105.551 -0.122564 -5.24357 0
M  V30 1023 H 107.025 1.58708 -5.28693 0
M  V30 1024 H 107.502 2.29426 -3.74514 0
M  V30 1025 H 108.108 0.684424 -4.19757 0
M  V30 1026 N 106.423 1.57458 -0.0668435 0
M  V30 1027 C 107.834 1.80776 0.466558 0
M  V30 1028 C 108.185 0.980361 1.69951 0
M  V30 1029 O 107.31 0.201441 2.1546 0
M  V30 1030 C 107.905 3.27881 0.85321 0
M  V30 1031 C 106.464 3.52062 1.3315 0
M  V30 1032 C 105.611 2.75513 0.314264 0
M  V30 1033 H 108.562 1.5598 -0.292588 0
M  V30 1034 H 108.583 3.39659 1.715 0
M  V30 1035 H 108.095 3.88075 -0.0443439 0
M  V30 1036 H 106.196 2.97167 2.24772 0
M  V30 1037 H 106.309 4.60762 1.31285 0
M  V30 1038 H 104.673 2.42123 0.790492 0
M  V30 1039 H 105.456 3.38442 -0.575477 0
M  V30 1040 N 107.901 -0.206675 1.56239 0
M  V30 1041 C 109.149 -0.927007 1.79586 0
M  V30 1042 C 109.47 -1.8427 0.637929 0
M  V30 1043 O 108.74 -1.92849 -0.344398 0
M  V30 1044 H 107.32 -0.345292 0.662407 0
M  V30 1045 H 109.982 -0.21496 1.93711 0
M  V30 1046 H 109.078 -1.52501 2.72305 0
M  V30 1047 N 109.379 -1.50304 -0.473955 0
M  V30 1048 C 110.342 -1.6841 -1.55469 0
M  V30 1049 C 111.342 -0.554905 -1.50922 0
M  V30 1050 O 112.532 -0.821882 -1.53593 0
M  V30 1051 C 109.664 -1.70667 -2.95102 0
M  V30 1052 H 110.857 -2.64828 -1.40733 0
M  V30 1053 H 108.41 -1.39742 -0.700132 0
M  V30 1054 H 109.145 -0.75932 -3.15285 0
M  V30 1055 H 108.93 -2.52698 -2.9981 0
M  V30 1056 H 110.42 -1.8664 -3.73571 0
M  V30 1057 N 110.857 0.726932 -1.39834 0
M  V30 1058 C 112.268 1.30558 -1.3346 0
M  V30 1059 C 112.619 1.962 -0.00273003 0
M  V30 1060 O 111.744 1.96826 0.899371 0
M  V30 1061 C 112.339 2.37404 -2.41713 0
M  V30 1062 C 110.898 2.90921 -2.38835 0
M  V30 1063 C 110.045 1.64578 -2.2318 0
M  V30 1064 H 112.996 0.523862 -1.49804 0
M  V30 1065 H 113.017 3.17984 -2.08966 0
M  V30 1066 H 112.529 1.89599 -3.38635 0
M  V30 1067 H 110.63 3.42985 -1.45575 0
M  V30 1068 H 110.743 3.43487 -3.33997 0
M  V30 1069 H 109.107 1.89219 -1.70494 0
M  V30 1070 H 109.89 1.18814 -3.22084 0
M  V30 1071 N 112.336 1.25143 0.95797 0
M  V30 1072 C 113.246 1.06968 2.08794 0
M  V30 1073 C 114.262 0.00773911 1.73998 0
M  V30 1074 O 115.438 0.207972 2.00323 0
M  V30 1075 C 112.503 0.68691 3.39827 0
M  V30 1076 C 111.564 1.82641 3.88511 0
M  V30 1077 C 110.797 1.46181 5.1329 0
M  V30 1078 O 111.02 0.355971 5.69288 0
M  V30 1079 O 109.954 2.29085 5.566 0
M  V30 1080 H 113.78 2.01723 2.27027 0
M  V30 1081 H 111.365 1.04051 1.07209 0
M  V30 1082 H 113.247 0.485417 4.18595 0
M  V30 1083 H 111.922 -0.231417 3.22872 0
M  V30 1084 H 110.829 2.08274 3.10762 0
M  V30 1085 H 112.162 2.72386 4.09959 0
M  V30 1086 N 113.814 -1.1601 1.06675 0
M  V30 1087 C 115.062 -1.86264 0.784229 0
M  V30 1088 C 115.383 -1.82328 -0.691488 0
M  V30 1089 O 114.653 -1.25947 -1.50047 0
M  V30 1090 H 113.233 -0.689621 0.28711 0
M  V30 1091 H 115.895 -1.40664 1.34906 0
M  V30 1092 H 114.991 -2.91595 1.11259 0
M  V30 1093 N 115.292 -0.849877 -1.32721 0
M  V30 1094 C 116.538 -0.451591 -1.97708 0
M  V30 1095 C 116.871 0.989175 -1.6712 0
M  V30 1096 O 116.146 1.69334 -0.956891 0
M  V30 1097 C 116.429 -0.685598 -3.53513 0
M  V30 1098 C 116.282 -2.17444 -3.93749 0
M  V30 1099 C 117.601 -0.138874 -4.39881 0
M  V30 1100 H 114.72 -0.16555 -0.718166 0
M  V30 1101 H 117.362 -1.06742 -1.57182 0
M  V30 1102 H 115.512 -0.161416 -3.88165 0
M  V30 1103 H 117.184 -2.76433 -3.693 0
M  V30 1104 H 115.427 -2.65476 -3.43081 0
M  V30 1105 H 116.098 -2.28888 -5.02309 0
M  V30 1106 H 118.574 -0.587068 -4.11938 0
M  V30 1107 H 117.45 -0.332213 -5.47894 0
M  V30 1108 H 117.711 0.95806 -4.31594 0
M  V30 1109 N 116.77 1.45427 -0.607355 0
M  V30 1110 C 118.018 2.01841 -0.102253 0
M  V30 1111 C 118.339 1.47832 1.27164 0
M  V30 1112 O 117.609 0.672497 1.83995 0
M  V30 1113 H 116.189 0.746188 -0.0348101 0
M  V30 1114 H 118.851 1.78229 -0.7887 0
M  V30 1115 H 117.947 3.12057 -0.0518585 0
M  V30 1116 N 118.248 0.346503 1.53744 0
M  V30 1117 C 119.664 -0.00530975 1.59599 0
M  V30 1118 C 119.864 -1.48465 1.36236 0
M  V30 1119 O 118.92 -2.24376 1.15808 0
M  V30 1120 C 120.233 0.433516 2.97559 0
M  V30 1121 C 121.781 0.386111 3.10609 0
M  V30 1122 C 122.256 0.800451 4.50951 0
M  V30 1123 N 123.747 0.754753 4.5701 0
M  V30 1124 C 124.482 1.04727 5.63755 0
M  V30 1125 N 123.978 1.4081 6.7834 0
M  V30 1126 N 125.771 0.971316 5.53644 0
M  V30 1127 H 117.922 1.31009 1.67184 0
M  V30 1128 H 120.185 0.534242 0.783128 0
M  V30 1129 H 119.891 1.46509 3.19731 0
M  V30 1130 H 119.765 -0.189753 3.76722 0
M  V30 1131 H 122.152 -0.636295 2.88158 0
M  V30 1132 H 122.233 1.04462 2.33498 0
M  V30 1133 H 121.877 1.82088 4.74137 0
M  V30 1134 H 121.807 0.119386 5.26465 0
M  V30 1135 H 124.298 0.488662 3.74727 0
M  V30 1136 H 124.611 1.61607 7.55714 0
M  V30 1137 H 122.956 1.44657 6.79779 0
M  V30 1138 H 126.147 0.688748 4.63005 0
M  V30 1139 H 126.32 1.20263 6.36742 0
M  V30 1140 N 119.726 -1.57421 0.075193 0
M  V30 1141 C 120.673 -2.12915 -0.890843 0
M  V30 1142 C 121.643 -1.04252 -1.29309 0
M  V30 1143 O 122.828 -1.31933 -1.37834 0
M  V30 1144 C 119.968 -2.69795 -2.15186 0
M  V30 1145 C 119.081 -3.92624 -1.80194 0
M  V30 1146 C 118.216 -4.37736 -3.00933 0
M  V30 1147 C 117.255 -5.53205 -2.61974 0
M  V30 1148 N 116.392 -5.9326 -3.75483 0
M  V30 1149 H 121.232 -2.95156 -0.410735 0
M  V30 1150 H 118.769 -1.45854 -0.191086 0
M  V30 1151 H 120.727 -3.00883 -2.89008 0
M  V30 1152 H 119.357 -1.90313 -2.60731 0
M  V30 1153 H 118.409 -3.67977 -0.964218 0
M  V30 1154 H 119.721 -4.76482 -1.47534 0
M  V30 1155 H 118.875 -4.70503 -3.8303 0
M  V30 1156 H 117.614 -3.52739 -3.36789 0
M  V30 1157 H 116.619 -5.20086 -1.783 0
M  V30 1158 H 117.844 -6.39936 -2.27284 0
M  V30 1159 H 115.79 -5.11212 -4.11094 0
M  V30 1160 H 115.707 -6.71865 -3.46602 0
M  V30 1161 H 116.975 -6.30651 -4.58148 0
M  V30 1162 N 121.204 0.198386 -1.56346 0
M  V30 1163 C 122.45 0.920648 -1.80698 0
M  V30 1164 C 122.783 1.83045 -0.648697 0
M  V30 1165 O 122.058 1.91308 0.350925 0
M  V30 1166 C 122.341 1.73971 -3.15287 0
M  V30 1167 C 122.194 0.85485 -4.41602 0
M  V30 1168 C 123.513 2.71296 -3.46535 0
M  V30 1169 H 120.632 0.333261 -0.657348 0
M  V30 1170 H 123.274 0.188198 -1.89066 0
M  V30 1171 H 121.424 2.36416 -3.08285 0
M  V30 1172 H 123.096 0.245362 -4.60647 0
M  V30 1173 H 121.339 0.161398 -4.335 0
M  V30 1174 H 122.01 1.46286 -5.32264 0
M  V30 1175 H 124.486 2.18983 -3.53816 0
M  V30 1176 H 123.362 3.2569 -4.41834 0
M  V30 1177 H 123.623 3.5018 -2.69864 0
M  V30 1178 N 122.682 1.50554 0.465978 0
M  V30 1179 C 123.612 1.72722 1.57128 0
M  V30 1180 C 124.593 0.576294 1.6004 0
M  V30 1181 O 125.778 0.81598 1.76225 0
M  V30 1182 C 122.908 1.82605 2.95419 0
M  V30 1183 C 121.862 2.97835 3.07373 0
M  V30 1184 C 121.188 2.92867 4.47363 0
M  V30 1185 C 122.488 4.38265 2.84114 0
M  V30 1186 H 124.182 2.65267 1.38829 0
M  V30 1187 H 121.728 1.2765 0.666441 0
M  V30 1188 H 123.681 1.96698 3.72677 0
M  V30 1189 H 122.405 0.866858 3.14886 0
M  V30 1190 H 121.064 2.83401 2.3255 0
M  V30 1191 H 120.712 1.94783 4.63755 0
M  V30 1192 H 120.412 3.70227 4.56296 0
M  V30 1193 H 121.936 3.09015 5.26633 0
M  V30 1194 H 123.35 4.53198 3.51118 0
M  V30 1195 H 121.747 5.17115 3.04487 0
M  V30 1196 H 122.817 4.50281 1.7993 0
M  V30 1197 N 124.16 -0.719506 1.40217 0
M  V30 1198 C 125.07 -1.86378 1.42479 0
M  V30 1199 C 126.086 -1.71073 0.317834 0
M  V30 1200 O 127.262 -1.93406 0.561794 0
M  V30 1201 C 124.327 -3.22136 1.28178 0
M  V30 1202 C 123.388 -3.49723 2.48982 0
M  V30 1203 C 122.621 -4.79004 2.35353 0
M  V30 1204 O 122.844 -5.53821 1.36524 0
M  V30 1205 O 121.778 -5.06839 3.2465 0
M  V30 1206 H 125.604 -1.87425 2.38968 0
M  V30 1207 H 123.189 -0.869405 1.21498 0
M  V30 1208 H 125.071 -4.03234 1.22395 0
M  V30 1209 H 123.746 -3.21825 0.347934 0
M  V30 1210 H 122.653 -2.6865 2.60342 0
M  V30 1211 H 123.986 -3.54828 3.41113 0
M  V30 1212 N 125.638 -1.25649 -0.95132 0
M  V30 1213 C 126.571 -1.00644 -2.04807 0
M  V30 1214 C 127.549 0.0654271 -1.62468 0
M  V30 1215 O 128.733 -0.074911 -1.88351 0
M  V30 1216 C 125.86 -0.522052 -3.34653 0
M  V30 1217 C 124.906 -1.58495 -3.95957 0
M  V30 1218 S 125.739 -3.17108 -4.31512 0
M  V30 1219 C 126.895 -2.70412 -5.64471 0
M  V30 1220 H 127.128 -1.93508 -2.25703 0
M  V30 1221 H 124.661 -1.09216 -1.09139 0
M  V30 1222 H 126.619 -0.24923 -4.09743 0
M  V30 1223 H 125.28 0.386146 -3.11717 0
M  V30 1224 H 124.473 -1.1968 -4.89584 0
M  V30 1225 H 124.075 -1.80862 -3.2736 0
M  V30 1226 H 126.367 -2.14245 -6.42733 0
M  V30 1227 H 127.31 -3.62693 -6.08161 0
M  V30 1228 H 127.718 -2.10302 -5.23864 0
M  V30 1229 N 127.117 1.15442 -1.07289 0
M  V30 1230 C 128.345 1.90096 -0.81676 0
M  V30 1231 C 128.76 1.7798 0.629966 0
M  V30 1232 O 128.117 1.1313 1.43206 0
M  V30 1233 C 128.168 3.40466 -1.21512 0
M  V30 1234 O 127.889 3.52232 -2.60508 0
M  V30 1235 C 129.39 4.32145 -0.988198 0
M  V30 1236 H 126.61 0.602495 -0.295366 0
M  V30 1237 H 129.154 1.4627 -1.42918 0
M  V30 1238 H 127.309 3.81958 -0.647039 0
M  V30 1239 H 127.723 4.45549 -2.76742 0
M  V30 1240 H 129.197 5.36072 -1.31645 0
M  V30 1241 H 129.674 4.39135 0.0755063 0
M  V30 1242 H 130.28 3.96395 -1.54115 0
M  V30 1243 N 128.595 0.856903 1.32268 0
M  V30 1244 C 129.843 0.460474 1.96784 0
M  V30 1245 C 130.164 -0.987701 1.68135 0
M  V30 1246 O 129.434 -1.69058 0.989765 0
M  V30 1247 H 128.014 0.167289 0.728027 0
M  V30 1248 H 130.676 1.09383 1.61312 0
M  V30 1249 H 129.772 0.60739 3.06133 0
M  V30 1250 N 130.073 -1.45103 0.615059 0
M  V30 1251 C 131.006 -2.27717 -0.148408 0
M  V30 1252 C 131.984 -1.37584 -0.866572 0
M  V30 1253 O 133.168 -1.67017 -0.87393 0
M  V30 1254 C 130.295 -3.16136 -1.21557 0
M  V30 1255 C 129.341 -4.22263 -0.599712 0
M  V30 1256 S 130.174 -5.3215 0.598081 0
M  V30 1257 C 131.33 -6.24137 -0.469484 0
M  V30 1258 H 131.563 -2.92121 0.552483 0
M  V30 1259 H 129.096 -1.49054 0.402778 0
M  V30 1260 H 131.054 -3.67633 -1.82638 0
M  V30 1261 H 129.715 -2.50982 -1.88857 0
M  V30 1262 H 128.908 -4.84081 -1.4029 0
M  V30 1263 H 128.51 -3.73945 -0.063876 0
M  V30 1264 H 130.802 -6.63984 -1.34652 0
M  V30 1265 H 131.745 -7.0801 0.112725 0
M  V30 1266 H 132.153 -5.58971 -0.788168 0
M  V30 1267 N 131.551 -0.354651 -1.53558 0
M  V30 1268 C 132.481 0.489091 -2.2832 0
M  V30 1269 C 133.462 1.09324 -1.30316 0
M  V30 1270 O 134.647 1.11255 -1.59173 0
M  V30 1271 C 131.777 1.63456 -3.0643 0
M  V30 1272 C 130.731 1.1582 -4.12031 0
M  V30 1273 C 130.057 2.39305 -4.7816 0
M  V30 1274 C 131.357 0.250731 -5.21698 0
M  V30 1275 H 133.051 -0.134614 -2.99097 0
M  V30 1276 H 130.597 -0.0661826 -1.43848 0
M  V30 1277 H 132.55 2.23136 -3.57475 0
M  V30 1278 H 131.274 2.28533 -2.33325 0
M  V30 1279 H 129.933 0.584146 -3.61916 0
M  V30 1280 H 129.581 3.02814 -4.01637 0
M  V30 1281 H 129.281 2.08109 -5.49513 0
M  V30 1282 H 130.805 2.99691 -5.31994 0
M  V30 1283 H 132.219 0.754695 -5.68311 0
M  V30 1284 H 130.616 0.0301468 -6.00092 0
M  V30 1285 H 131.686 -0.710125 -4.79672 0
M  V30 1286 N 133.029 1.57378 -0.0835403 0
M  V30 1287 C 134.306 1.85363 0.624507 0
M  V30 1288 C 134.686 0.978239 1.87066 0
M  V30 1289 O 134.034 0.0475908 2.2845 0
M  V30 1290 C 134.244 3.35795 0.950947 0
M  V30 1291 C 135.592 4.03581 1.31939 0
M  V30 1292 O 136.616 3.40609 1.04232 0
M  V30 1293 O 135.475 5.14672 1.83779 0
M  V30 1294 H 132.569 0.766162 0.311329 0
M  V30 1295 H 135.115 1.69307 -0.115362 0
M  V30 1296 H 133.887 3.91244 0.0663899 0
M  V30 1297 H 133.51 3.57154 1.74719 0
M  V30 1298 N 134.507 -0.190092 1.56449 0
M  V30 1299 C 135.918 -0.754312 1.70784 0
M  V30 1300 C 136.269 -1.83631 0.690951 0
M  V30 1301 O 135.394 -2.15868 -0.151604 0
M  V30 1302 C 135.989 -1.37503 3.09642 0
M  V30 1303 C 134.548 -1.88628 3.25725 0
M  V30 1304 C 133.695 -0.758098 2.66736 0
M  V30 1305 H 136.646 0.0350524 1.58661 0
M  V30 1306 H 136.667 -2.2445 3.0725 0
M  V30 1307 H 136.179 -0.587302 3.83631 0
M  V30 1308 H 134.28 -2.70103 2.56661 0
M  V30 1309 H 134.393 -2.04462 4.3328 0
M  V30 1310 H 132.757 -1.17369 2.26046 0
M  V30 1311 H 133.54 0.0174705 3.43296 0
M  V30 1312 N 135.985 -1.50799 -0.457987 0
M  V30 1313 C 136.915 -1.73553 -1.5621 0
M  V30 1314 C 137.896 -0.584774 -1.59732 0
M  V30 1315 O 139.081 -0.825314 -1.7579 0
M  V30 1316 C 136.211 -1.84169 -2.94447 0
M  V30 1317 C 135.165 -2.99461 -3.0579 0
M  V30 1318 C 134.491 -2.95235 -4.45803 0
M  V30 1319 C 135.791 -4.39766 -2.81786 0
M  V30 1320 H 137.485 -2.66 -1.37421 0
M  V30 1321 H 135.031 -1.28002 -0.659662 0
M  V30 1322 H 136.984 -1.98672 -3.71628 0
M  V30 1323 H 135.708 -0.883545 -3.14422 0
M  V30 1324 H 134.367 -2.8463 -2.31044 0
M  V30 1325 H 134.015 -1.97239 -4.62715 0
M  V30 1326 H 133.715 -3.72642 -4.54326 0
M  V30 1327 H 135.239 -3.11803 -5.24987 0
M  V30 1328 H 136.653 -4.55054 -3.4871 0
M  V30 1329 H 135.05 -5.18722 -3.0174 0
M  V30 1330 H 136.12 -4.51229 -1.7754 0
M  V30 1331 N 137.463 0.71206 -1.40597 0
M  V30 1332 C 138.688 1.50617 -1.42581 0
M  V30 1333 C 139.113 1.88079 -0.0282102 0
M  V30 1334 O 138.471 1.53511 0.964579 0
M  V30 1335 C 138.519 2.7557 -2.3258 0
M  V30 1336 O 137.623 3.72414 -1.77148 0
M  V30 1337 H 136.964 0.453966 -0.484573 0
M  V30 1338 H 139.494 0.876649 -1.84868 0
M  V30 1339 H 139.504 3.2406 -2.47889 0
M  V30 1340 H 138.179 2.47639 -3.34138 0
M  V30 1341 H 136.756 3.31276 -1.71204 0
M  V30 1342 N 138.941 1.26152 0.944643 0
M  V30 1343 C 140.218 1.02247 1.66748 0
M  V30 1344 C 140.598 -0.448202 2.06287 0
M  V30 1345 O 139.946 -1.42779 1.78399 0
M  V30 1346 C 140.156 1.96788 2.88228 0
M  V30 1347 C 141.504 2.25201 3.59958 0
M  V30 1348 O 142.528 1.94626 2.98327 0
M  V30 1349 O 141.387 2.77242 4.70956 0
M  V30 1350 H 138.481 0.388517 0.730057 0
M  V30 1351 H 141.027 1.37348 0.99668 0
M  V30 1352 H 139.799 2.96047 2.55875 0
M  V30 1353 H 139.422 1.62145 3.63035 0
M  V30 1354 N 140.419 -1.14872 1.07899 0
M  V30 1355 C 141.351 -2.19425 0.662231 0
M  V30 1356 C 142.364 -1.60231 -0.288079 0
M  V30 1357 O 143.553 -1.78336 -0.076534 0
M  V30 1358 C 140.653 -3.38867 -0.0470695 0
M  V30 1359 C 139.826 -4.27597 0.920831 0
M  V30 1360 C 138.885 -5.25616 0.247805 0
M  V30 1361 O 137.911 -5.62189 0.890599 0
M  V30 1362 N 139.113 -5.71746 -1.00435 0
M  V30 1363 H 141.878 -2.55797 1.56166 0
M  V30 1364 H 139.439 -1.30042 0.964404 0
M  V30 1365 H 141.431 -4.01497 -0.50813 0
M  V30 1366 H 140.001 -3.00864 -0.848523 0
M  V30 1367 H 139.221 -3.61982 1.56087 0
M  V30 1368 H 140.509 -4.83748 1.57688 0
M  V30 1369 H 139.907 -5.44153 -1.54642 0
M  V30 1370 H 138.464 -6.36389 -1.40899 0
M  V30 1371 N 141.898 -0.863906 -1.31812 0
M  V30 1372 C 143.175 -0.39275 -1.91616 0
M  V30 1373 C 143.555 1.12461 -1.7865 0
M  V30 1374 O 142.903 1.95045 -1.19037 0
M  V30 1375 C 143.113 -0.867385 -3.38049 0
M  V30 1376 C 144.461 -0.889966 -4.15168 0
M  V30 1377 O 145.485 -0.812635 -3.46806 0
M  V30 1378 O 144.344 -1.00079 -5.37258 0
M  V30 1379 H 141.438 -0.116358 -0.818773 0
M  V30 1380 H 143.984 -0.951418 -1.40521 0
M  V30 1381 H 142.756 -1.91081 -3.41473 0
M  V30 1382 H 142.379 -0.286687 -3.96565 0
M  V30 1383 N 143.376 1.44774 -0.622745 0
M  V30 1384 C 144.306 2.33382 0.0741861 0
M  V30 1385 C 145.287 1.47719 0.843387 0
M  V30 1386 O 146.472 1.76458 0.810934 0
M  V30 1387 C 143.602 3.30663 1.06204 0
M  V30 1388 C 142.556 4.26079 0.405037 0
M  V30 1389 C 141.882 5.13165 1.5022 0
M  V30 1390 C 143.182 5.1781 -0.683414 0
M  V30 1391 H 144.876 2.91905 -0.665713 0
M  V30 1392 H 142.422 1.40363 -0.321587 0
M  V30 1393 H 144.375 3.9153 1.55827 0
M  V30 1394 H 143.099 2.70331 1.83272 0
M  V30 1395 H 141.758 3.66532 -0.0704683 0
M  V30 1396 H 141.406 4.49191 2.26355 0
M  V30 1397 H 141.106 5.77812 1.06803 0
M  V30 1398 H 142.63 5.76902 2.00041 0
M  V30 1399 H 144.044 5.72661 -0.270631 0
M  V30 1400 H 142.441 5.91015 -1.04023 0
M  V30 1401 H 143.511 4.59326 -1.55395 0
M  V30 1402 N 144.854 0.36279 1.53368 0
M  V30 1403 C 145.764 -0.492994 2.29362 0
M  V30 1404 C 146.78 -1.09507 1.35219 0
M  V30 1405 O 147.956 -1.10662 1.68273 0
M  V30 1406 C 145.021 -1.61855 3.066 0
M  V30 1407 C 144.082 -1.04429 4.16405 0
M  V30 1408 C 143.315 -2.11621 4.89951 0
M  V30 1409 O 143.538 -3.32684 4.63333 0
M  V30 1410 O 142.472 -1.74835 5.75948 0
M  V30 1411 H 146.298 0.125331 3.03441 0
M  V30 1412 H 143.883 0.127253 1.48857 0
M  V30 1413 H 145.765 -2.27302 3.54841 0
M  V30 1414 H 144.44 -2.22233 2.3536 0
M  V30 1415 H 143.347 -0.353819 3.72423 0
M  V30 1416 H 144.68 -0.485113 4.89804 0
M  V30 1417 N 146.332 -1.57332 0.0918853 0
M  V30 1418 C 147.609 -1.85691 -0.614668 0
M  V30 1419 C 147.989 -0.988146 -1.86545 0
M  V30 1420 O 147.337 -0.0597055 -2.28422 0
M  V30 1421 C 147.547 -3.36294 -0.933126 0
M  V30 1422 C 148.895 -4.04275 -1.29796 0
M  V30 1423 O 149.919 -3.41157 -1.02424 0
M  V30 1424 O 148.778 -5.1564 -1.81047 0
M  V30 1425 H 145.872 -0.767802 -0.307261 0
M  V30 1426 H 148.418 -1.69244 0.12434 0
M  V30 1427 H 147.19 -3.91273 -0.0456404 0
M  V30 1428 H 146.813 -3.58076 -1.72822 0
M  V30 1429 N 147.81 0.181792 -1.56548 0
M  V30 1430 C 149.059 0.898348 -1.8059 0
M  V30 1431 C 149.372 1.83862 -0.667379 0
M  V30 1432 O 150.578 2.59678 -0.792446 0
M  V30 1433 C 149.034 1.64791 -3.19956 0
M  V30 1434 C 148.642 0.751789 -4.41647 0
M  V30 1435 C 150.386 2.35331 -3.53298 0
M  V30 1436 C 148.293 1.50098 -5.72035 0
M  V30 1437 H 147.223 0.339194 -0.673397 0
M  V30 1438 H 149.874 0.151413 -1.82874 0
M  V30 1439 H 148.256 2.43921 -3.11959 0
M  V30 1440 H 149.43 -0.0018076 -4.608 0
M  V30 1441 H 147.745 0.156562 -4.16106 0
M  V30 1442 H 150.342 2.91958 -4.47956 0
M  V30 1443 H 150.685 3.10164 -2.77676 0
M  V30 1444 H 151.218 1.63154 -3.62803 0
M  V30 1445 H 147.957 0.795175 -6.50659 0
M  V30 1446 H 147.477 2.22817 -5.56878 0
M  V30 1447 H 149.156 2.05125 -6.13622 0
M  V30 1448 N 149.288 1.51039 0.449983 0
M  V30 1449 C 150.251 1.70863 1.5277 0
M  V30 1450 C 151.251 0.578846 1.5002 0
M  V30 1451 O 152.441 0.846213 1.52266 0
M  V30 1452 C 149.573 1.75341 2.9235 0
M  V30 1453 H 150.766 2.67034 1.36502 0
M  V30 1454 H 148.319 1.40838 0.677812 0
M  V30 1455 H 149.054 0.809383 3.14037 0
M  V30 1456 H 148.839 2.57436 2.95752 0
M  V30 1457 H 150.329 1.92559 3.70555 0
M  V30 1458 N 150.766 -0.704594 1.40972 0
M  V30 1459 C 151.729 -1.80035 1.41845 0
M  V30 1460 C 152.729 -1.57774 0.310474 0
M  V30 1461 O 153.919 -1.64613 0.56992 0
M  V30 1462 C 151.051 -3.18284 1.22098 0
M  V30 1463 H 152.244 -1.80658 2.3938 0
M  V30 1464 H 149.797 -0.911329 1.26982 0
M  V30 1465 H 150.532 -3.23306 0.253672 0
M  V30 1466 H 150.317 -3.35843 2.02366 0
M  V30 1467 H 151.807 -3.98289 1.25522 0
M  V30 1468 N 152.244 -1.26651 -0.937939 0
M  V30 1469 C 153.474 -1.15006 -1.71631 0
M  V30 1470 C 153.882 0.297026 -1.86854 0
M  V30 1471 O 153.225 1.21493 -1.37786 0
M  V30 1472 C 153.287 -1.74984 -3.14039 0
M  V30 1473 C 152.951 -3.24103 -3.2219 0
M  V30 1474 C 153.948 -4.20877 -3.05219 0
M  V30 1475 C 151.633 -3.64625 -3.45476 0
M  V30 1476 C 153.627 -5.56151 -3.11408 0
M  V30 1477 C 151.314 -5.00032 -3.513 0
M  V30 1478 C 152.312 -5.95604 -3.34282 0
M  V30 1479 O 152 -7.28545 -3.3982 0
M  V30 1480 H 151.732 -0.401183 -0.544085 0
M  V30 1481 H 154.286 -1.67832 -1.18413 0
M  V30 1482 H 152.516 -1.16624 -3.68695 0
M  V30 1483 H 154.205 -1.58199 -3.73802 0
M  V30 1484 H 154.971 -3.90908 -2.87081 0
M  V30 1485 H 150.85 -2.90718 -3.57777 0
M  V30 1486 H 154.394 -6.30727 -2.98043 0
M  V30 1487 H 150.291 -5.29659 -3.68959 0
M  V30 1488 H 151.059 -7.3686 -3.56343 0
M  V30 1489 N 153.722 1.14298 -1.08507 0
M  V30 1490 C 154.969 1.85359 -0.815373 0
M  V30 1491 C 155.297 1.83001 0.658865 0
M  V30 1492 O 154.552 1.25655 1.50031 0
M  V30 1493 C 154.851 3.33547 -1.28379 0
M  V30 1494 C 154.517 3.56093 -2.76602 0
M  V30 1495 C 153.179 3.61955 -3.17084 0
M  V30 1496 C 155.531 3.64834 -3.72217 0
M  V30 1497 C 152.859 3.74082 -4.51973 0
M  V30 1498 C 155.211 3.78487 -5.06883 0
M  V30 1499 C 153.875 3.82598 -5.46969 0
M  V30 1500 H 153.145 0.678276 -0.298366 0
M  V30 1501 H 155.792 1.35002 -1.35819 0
M  V30 1502 H 154.097 3.86191 -0.660593 0
M  V30 1503 H 155.794 3.86959 -1.05186 0
M  V30 1504 H 152.384 3.52179 -2.4427 0
M  V30 1505 H 156.568 3.59595 -3.42061 0
M  V30 1506 H 151.824 3.75527 -4.82483 0
M  V30 1507 H 155.998 3.84193 -5.80834 0
M  V30 1508 H 153.625 3.91747 -6.51489 0
M  V30 1509 N 155.201 0.870884 1.31352 0
M  V30 1510 C 156.426 0.495957 2.01383 0
M  V30 1511 C 156.851 -0.904324 1.64935 0
M  V30 1512 O 156.209 -1.59687 0.858466 0
M  V30 1513 C 156.257 0.661433 3.54482 0
M  V30 1514 O 155.361 -0.298851 4.11316 0
M  V30 1515 H 154.702 0.197158 0.634054 0
M  V30 1516 H 157.232 1.17455 1.67527 0
M  V30 1517 H 157.242 0.555072 4.04207 0
M  V30 1518 H 155.917 1.68246 3.8035 0
M  V30 1519 H 154.494 -0.147368 3.72609 0
M  V30 1520 N 156.679 -1.44442 0.630414 0
M  V30 1521 C 157.904 -2.06927 0.139944 0
M  V30 1522 C 158.329 -1.46795 -1.17613 0
M  V30 1523 O 157.687 -0.569144 -1.72135 0
M  V30 1524 C 157.735 -3.6058 0.0379581 0
M  V30 1525 O 156.839 -3.99937 -1.0062 0
M  V30 1526 H 156.18 -0.658608 0.0844483 0
M  V30 1527 H 158.71 -1.85327 0.866891 0
M  V30 1528 H 158.72 -4.07714 -0.152856 0
M  V30 1529 H 157.395 -4.03728 0.998809 0
M  V30 1530 H 155.972 -3.64436 -0.79001 0
M  V30 1531 N 158.157 -0.370918 -1.53173 0
M  V30 1532 C 159.089 0.507823 -2.23503 0
M  V30 1533 C 160.102 1.04182 -1.251 0
M  V30 1534 O 161.291 0.947286 -1.5129 0
M  V30 1535 C 158.391 1.71447 -2.92334 0
M  V30 1536 C 157.564 1.31105 -4.17289 0
M  V30 1537 C 156.623 2.38035 -4.69282 0
M  V30 1538 O 155.649 2.00204 -5.32829 0
M  V30 1539 N 156.851 3.69697 -4.47554 0
M  V30 1540 H 159.616 -0.0946382 -2.99551 0
M  V30 1541 H 157.177 -0.196358 -1.60705 0
M  V30 1542 H 159.169 2.42469 -3.24023 0
M  V30 1543 H 157.739 2.22368 -2.19707 0
M  V30 1544 H 156.959 0.430462 -3.91843 0
M  V30 1545 H 158.247 1.0179 -4.98514 0
M  V30 1546 H 157.645 4.03205 -3.9679 0
M  V30 1547 H 156.202 4.36807 -4.8378 0
M  V30 1548 N 159.635 1.57281 -0.100228 0
M  V30 1549 C 160.582 2.14305 0.856858 0
M  V30 1550 C 161.552 1.06296 1.27634 0
M  V30 1551 O 162.737 1.34109 1.35718 0
M  V30 1552 C 159.877 2.73184 2.10866 0
M  V30 1553 C 158.99 3.95442 1.73925 0
M  V30 1554 C 158.125 4.42468 2.93931 0
M  V30 1555 C 157.164 5.57303 2.5314 0
M  V30 1556 N 156.301 5.99158 3.65997 0
M  V30 1557 H 161.141 2.95772 0.363726 0
M  V30 1558 H 158.678 1.46139 0.167858 0
M  V30 1559 H 160.636 3.05442 2.84185 0
M  V30 1560 H 159.266 1.94437 2.57671 0
M  V30 1561 H 158.318 3.69464 0.905554 0
M  V30 1562 H 159.63 4.78769 1.39935 0
M  V30 1563 H 158.784 4.76537 3.75496 0
M  V30 1564 H 157.523 3.58052 3.31134 0
M  V30 1565 H 156.528 5.22857 1.70003 0
M  V30 1566 H 157.753 6.43471 2.17075 0
M  V30 1567 H 155.699 5.17687 4.02909 0
M  V30 1568 H 155.616 6.77295 3.35869 0
M  V30 1569 H 156.884 6.3786 4.48057 0
M  V30 1570 N 161.113 -0.173488 1.56642 0
M  V30 1571 C 162.361 -0.888706 1.81512 0
M  V30 1572 C 162.682 -1.82875 0.676872 0
M  V30 1573 O 161.952 -1.93536 -0.303414 0
M  V30 1574 H 160.532 -0.331164 0.669582 0
M  V30 1575 H 163.194 -0.173823 1.94123 0
M  V30 1576 H 162.29 -1.46691 2.75478 0
M  V30 1577 N 162.591 -1.51276 -0.441967 0
M  V30 1578 C 163.816 -1.67799 -1.21895 0
M  V30 1579 C 164.241 -0.372864 -1.84367 0
M  V30 1580 O 163.599 0.666501 -1.68604 0
M  V30 1581 C 163.647 -2.79199 -2.28211 0
M  V30 1582 O 162.751 -2.42479 -3.33583 0
M  V30 1583 H 162.092 -0.559649 -0.357336 0
M  V30 1584 H 164.622 -1.97815 -0.522522 0
M  V30 1585 H 164.632 -3.03146 -2.73069 0
M  V30 1586 H 163.307 -3.73906 -1.82118 0
M  V30 1587 H 161.884 -2.29087 -2.94234 0
M  V30 1588 N 164.069 0.697108 -1.41344 0
M  V30 1589 C 165.315 1.4593 -1.40827 0
M  V30 1590 C 165.648 1.94193 -0.0167098 0
M  V30 1591 O 164.923 1.69425 0.955263 0
M  V30 1592 C 165.206 2.67229 -2.41373 0
M  V30 1593 C 165.059 2.24741 -3.8963 0
M  V30 1594 C 166.378 3.69423 -2.39196 0
M  V30 1595 H 163.497 0.529303 -0.512842 0
M  V30 1596 H 166.139 0.794112 -1.72609 0
M  V30 1597 H 164.289 3.23982 -2.14401 0
M  V30 1598 H 165.961 1.73327 -4.27499 0
M  V30 1599 H 164.204 1.56542 -4.0457 0
M  V30 1600 H 164.875 3.1177 -4.55525 0
M  V30 1601 H 167.351 3.2234 -2.63128 0
M  V30 1602 H 166.227 4.51907 -3.11563 0
M  V30 1603 H 166.488 4.19012 -1.41001 0
M  V30 1604 N 165.547 1.27147 0.931209 0
M  V30 1605 C 166.795 1.13055 1.6752 0
M  V30 1606 C 167.116 -0.324791 1.92276 0
M  V30 1607 O 166.386 -1.22775 1.52654 0
M  V30 1608 H 164.966 0.415391 0.620854 0
M  V30 1609 H 167.628 1.59623 1.11833 0
M  V30 1610 H 166.724 1.65694 2.64485 0
M  V30 1611 N 167.025 -1.13721 1.09112 0
M  V30 1612 C 168.255 -1.88499 0.845671 0
M  V30 1613 C 168.663 -1.79218 -0.606432 0
M  V30 1614 O 168.006 -1.1544 -1.42896 0
M  V30 1615 C 168.068 -3.38954 1.19793 0
M  V30 1616 C 167.732 -3.72018 2.65428 0
M  V30 1617 C 168.729 -3.7153 3.63677 0
M  V30 1618 C 166.414 -4.01775 3.01467 0
M  V30 1619 C 168.408 -4.00336 4.95994 0
M  V30 1620 C 166.095 -4.30243 4.33975 0
M  V30 1621 C 167.093 -4.29508 5.31048 0
M  V30 1622 O 166.781 -4.5728 6.61173 0
M  V30 1623 H 166.513 -0.603702 0.304171 0
M  V30 1624 H 169.067 -1.44903 1.45576 0
M  V30 1625 H 167.297 -3.83039 0.530871 0
M  V30 1626 H 168.986 -3.95052 0.932146 0
M  V30 1627 H 169.752 -3.4862 3.37179 0
M  V30 1628 H 165.631 -4.01496 2.26544 0
M  V30 1629 H 169.175 -3.99678 5.71755 0
M  V30 1630 H 165.072 -4.52625 4.60219 0
M  V30 1631 H 165.84 -4.74964 6.66597 0
M  V30 1632 N 168.503 -0.877838 -1.30888 0
M  V30 1633 C 169.466 -0.344265 -2.266 0
M  V30 1634 C 170.466 0.50922 -1.52524 0
M  V30 1635 O 171.656 0.317398 -1.71284 0
M  V30 1636 C 168.788 0.510198 -3.37061 0
M  V30 1637 H 169.981 -1.1893 -2.7531 0
M  V30 1638 H 167.534 -0.654088 -1.41956 0
M  V30 1639 H 168.269 1.37612 -2.93655 0
M  V30 1640 H 168.054 -0.101047 -3.9197 0
M  V30 1641 H 169.544 0.875537 -4.08319 0
M  V30 1642 N 169.982 1.44106 -0.638065 0
M  V30 1643 C 171.259 1.95453 -0.0759321 0
M  V30 1644 C 171.639 1.57984 1.40015 0
M  V30 1645 O 170.987 0.857361 2.11806 0
M  V30 1646 C 171.197 3.47655 -0.306132 0
M  V30 1647 C 172.545 4.24114 -0.203008 0
M  V30 1648 O 173.569 3.55405 -0.237871 0
M  V30 1649 O 172.428 5.46381 -0.113827 0
M  V30 1650 H 169.522 0.826797 0.0183332 0
M  V30 1651 H 172.068 1.54122 -0.710251 0
M  V30 1652 H 170.84 3.68 -1.3301 0
M  V30 1653 H 170.463 3.95949 0.361991 0
M  V30 1654 N 171.46 0.379036 1.52974 0
M  V30 1655 C 172.871 -0.0972525 1.86447 0
M  V30 1656 C 173.222 -1.47027 1.29914 0
M  V30 1657 O 172.347 -2.07135 0.626433 0
M  V30 1658 C 172.942 -0.183248 3.38304 0
M  V30 1659 C 171.501 -0.603812 3.71525 0
M  V30 1660 C 170.648 0.240632 2.76254 0
M  V30 1661 H 173.599 0.597316 1.4703 0
M  V30 1662 H 173.62 -1.00432 3.67006 0
M  V30 1663 H 173.132 0.816191 3.79421 0
M  V30 1664 H 171.233 -1.61099 3.35973 0
M  V30 1665 H 171.346 -0.369086 4.77676 0
M  V30 1666 H 169.71 -0.292548 2.53014 0
M  V30 1667 H 170.493 1.23786 3.20206 0
M  V30 1668 N 172.938 -1.57226 0.108567 0
M  V30 1669 C 173.901 -2.13602 -0.831082 0
M  V30 1670 C 174.901 -1.06841 -1.20173 0
M  V30 1671 O 176.091 -1.32666 -1.12895 0
M  V30 1672 C 173.223 -2.66769 -2.12243 0
M  V30 1673 H 174.416 -2.97951 -0.341317 0
M  V30 1674 H 171.969 -1.55667 -0.14057 0
M  V30 1675 H 172.704 -1.85977 -2.65675 0
M  V30 1676 H 172.489 -3.44839 -1.86625 0
M  V30 1677 H 173.979 -3.10332 -2.79435 0
M  V30 1678 N 174.416 0.165178 -1.56732 0
M  V30 1679 C 175.346 1.20651 -1.99914 0
M  V30 1680 C 176.327 1.45827 -0.875705 0
M  V30 1681 O 177.512 1.57057 -1.14223 0
M  V30 1682 C 174.642 2.54401 -2.36427 0
M  V30 1683 C 173.596 2.43782 -3.51787 0
M  V30 1684 C 172.922 3.82078 -3.7406 0
M  V30 1685 C 174.222 1.93732 -4.85041 0
M  V30 1686 H 175.916 0.847534 -2.87154 0
M  V30 1687 H 173.462 0.40625 -1.38151 0
M  V30 1688 H 175.415 3.27458 -2.65234 0
M  V30 1689 H 174.139 2.92098 -1.46103 0
M  V30 1690 H 172.798 1.73178 -3.23117 0
M  V30 1691 H 172.446 4.17179 -2.81017 0
M  V30 1692 H 172.146 3.7584 -4.51684 0
M  V30 1693 H 173.67 4.56712 -4.05274 0
M  V30 1694 H 175.084 2.56569 -5.12684 0
M  V30 1695 H 173.481 1.98428 -5.66345 0
M  V30 1696 H 174.551 0.891962 -4.76626 0
M  V30 1697 N 175.894 1.51508 0.433938 0
M  V30 1698 C 176.857 1.72473 1.50949 0
M  V30 1699 C 177.857 0.594725 1.49398 0
M  V30 1700 O 179.047 0.862315 1.5136 0
M  V30 1701 C 176.179 1.78431 2.90474 0
M  V30 1702 H 177.372 2.68467 1.33662 0
M  V30 1703 H 174.925 1.41549 0.662836 0
M  V30 1704 H 175.66 0.842645 3.13161 0
M  V30 1705 H 175.445 2.60558 2.93005 0
M  V30 1706 H 176.935 1.96479 3.68491 0
M  V30 1707 N 177.372 -0.689602 1.41712 0
M  V30 1708 C 178.319 -1.80345 1.44029 0
M  V30 1709 C 179.289 -1.63478 0.293948 0
M  V30 1710 O 180.474 -1.84244 0.495869 0
M  V30 1711 C 177.614 -3.18272 1.33405 0
M  V30 1712 C 176.727 -3.46529 2.57956 0
M  V30 1713 C 175.862 -4.74103 2.39582 0
M  V30 1714 C 174.901 -4.95347 3.5958 0
M  V30 1715 N 174.038 -6.14151 3.40239 0
M  V30 1716 H 178.878 -1.77698 2.39222 0
M  V30 1717 H 176.415 -0.867688 1.18784 0
M  V30 1718 H 178.373 -3.97956 1.25246 0
M  V30 1719 H 177.003 -3.2008 0.418164 0
M  V30 1720 H 176.055 -2.61207 2.76542 0
M  V30 1721 H 177.367 -3.58126 3.47199 0
M  V30 1722 H 176.521 -5.61853 2.28924 0
M  V30 1723 H 175.26 -4.64763 1.47805 0
M  V30 1724 H 174.265 -4.06044 3.70686 0
M  V30 1725 H 175.49 -5.06542 4.52318 0
M  V30 1726 H 173.436 -6.06013 2.51167 0
M  V30 1727 H 173.353 -6.26543 4.23061 0
M  V30 1728 H 174.621 -7.04619 3.33365 0
M  V30 1729 N 178.85 -1.27639 -0.924453 0
M  V30 1730 C 179.782 -1.06442 -2.02985 0
M  V30 1731 C 180.795 -0.0194771 -1.62788 0
M  V30 1732 O 181.984 -0.261388 -1.76576 0
M  V30 1733 C 179.084 -0.59327 -3.33667 0
M  V30 1734 C 178.257 -1.71123 -4.02537 0
M  V30 1735 C 177.316 -1.23527 -5.11495 0
M  V30 1736 O 176.342 -1.93553 -5.35281 0
M  V30 1737 N 177.544 -0.0926678 -5.80426 0
M  V30 1738 H 180.309 -2.01633 -2.2173 0
M  V30 1739 H 177.87 -1.19248 -1.09505 0
M  V30 1740 H 179.862 -0.258686 -4.03872 0
M  V30 1741 H 178.432 0.265502 -3.1147 0
M  V30 1742 H 177.652 -2.21593 -3.26022 0
M  V30 1743 H 178.94 -2.46145 -4.45298 0
M  V30 1744 H 178.338 0.491741 -5.63559 0
M  V30 1745 H 176.895 0.182714 -6.51544 0
M  V30 1746 N 180.328 1.1314 -1.09713 0
M  V30 1747 C 181.576 1.84119 -0.833338 0
M  V30 1748 C 181.897 1.84097 0.642904 0
M  V30 1749 O 181.167 1.29881 1.46655 0
M  V30 1750 H 179.747 0.681766 -0.305293 0
M  V30 1751 H 182.409 1.37038 -1.38588 0
M  V30 1752 H 181.505 2.88543 -1.18951 0
M  V30 1753 N 181.806 0.884767 1.30421 0
M  V30 1754 C 182.716 0.355398 2.31892 0
M  V30 1755 C 183.732 -0.542261 1.65335 0
M  V30 1756 O 184.908 -0.435432 1.96637 0
M  V30 1757 C 181.973 -0.421661 3.44126 0
M  V30 1758 C 181.034 0.505727 4.26311 0
M  V30 1759 C 180.267 -0.234343 5.33185 0
M  V30 1760 O 180.49 -1.46045 5.51386 0
M  V30 1761 O 179.424 0.415443 6.00465 0
M  V30 1762 H 183.25 1.19685 2.79122 0
M  V30 1763 H 180.835 0.648596 1.34587 0
M  V30 1764 H 182.717 -0.861641 4.12497 0
M  V30 1765 H 181.392 -1.23942 2.99032 0
M  V30 1766 H 180.299 0.994513 3.60639 0
M  V30 1767 H 181.632 1.28948 4.75009 0
M  V30 1768 N 183.284 -1.43765 0.645699 0
M  V30 1769 C 184.231 -2.30745 -0.0504648 0
M  V30 1770 C 185.201 -1.4432 -0.822241 0
M  V30 1771 O 186.386 -1.73202 -0.800358 0
M  V30 1772 C 183.526 -3.29802 -1.0161 0
M  V30 1773 C 182.639 -4.31326 -0.241219 0
M  V30 1774 C 181.774 -5.17469 -1.19998 0
M  V30 1775 C 180.813 -6.10691 -0.415094 0
M  V30 1776 N 179.95 -6.89483 -1.32506 0
M  V30 1777 H 184.79 -2.8973 0.697155 0
M  V30 1778 H 182.327 -1.42738 0.355563 0
M  V30 1779 H 184.285 -3.85734 -1.58949 0
M  V30 1780 H 182.915 -2.72483 -1.73069 0
M  V30 1781 H 181.967 -3.77749 0.448334 0
M  V30 1782 H 183.279 -4.9743 0.369437 0
M  V30 1783 H 182.433 -5.7799 -1.84424 0
M  V30 1784 H 181.172 -4.51473 -1.84455 0
M  V30 1785 H 180.177 -5.49265 0.242565 0
M  V30 1786 H 181.402 -6.78727 0.224966 0
M  V30 1787 H 179.348 -6.26142 -1.95657 0
M  V30 1788 H 179.265 -7.52081 -0.768783 0
M  V30 1789 H 180.533 -7.54516 -1.9577 0
M  V30 1790 N 184.763 -0.387143 -1.52771 0
M  V30 1791 C 185.693 0.440551 -2.29306 0
M  V30 1792 C 186.674 1.06535 -1.32606 0
M  V30 1793 O 187.859 1.07853 -1.61497 0
M  V30 1794 C 184.989 1.56919 -3.09829 0
M  V30 1795 C 183.943 1.07054 -4.14395 0
M  V30 1796 C 183.269 2.29109 -4.83129 0
M  V30 1797 C 184.569 0.140015 -5.22112 0
M  V30 1798 H 186.263 -0.198026 -2.98744 0
M  V30 1799 H 183.809 -0.09668 -1.43675 0
M  V30 1800 H 185.762 2.15503 -3.62128 0
M  V30 1801 H 184.486 2.23532 -2.3812 0
M  V30 1802 H 183.145 0.507247 -3.63074 0
M  V30 1803 H 182.793 2.94227 -4.0797 0
M  V30 1804 H 182.493 1.96406 -5.53804 0
M  V30 1805 H 184.017 2.88339 -5.38231 0
M  V30 1806 H 185.431 0.633978 -5.69784 0
M  V30 1807 H 183.828 -0.0971485 -6.00021 0
M  V30 1808 H 184.898 -0.811711 -4.78058 0
M  V30 1809 N 186.241 1.57166 -0.116904 0
M  V30 1810 C 187.488 1.95123 0.541603 0
M  V30 1811 C 187.816 1.00006 1.6682 0
M  V30 1812 O 187.071 0.0235658 1.95686 0
M  V30 1813 C 187.37 3.39508 1.11664 0
M  V30 1814 C 187.036 4.50762 0.111606 0
M  V30 1815 C 185.698 4.80918 -0.164758 0
M  V30 1816 C 188.05 5.18036 -0.573438 0
M  V30 1817 C 185.378 5.75666 -1.13249 0
M  V30 1818 C 187.73 6.13824 -1.52978 0
M  V30 1819 C 186.394 6.42374 -1.81415 0
M  V30 1820 H 185.664 0.714005 0.198187 0
M  V30 1821 H 188.311 1.9048 -0.197365 0
M  V30 1822 H 186.616 3.40835 1.93232 0
M  V30 1823 H 188.313 3.66189 1.63422 0
M  V30 1824 H 184.903 4.27272 0.337192 0
M  V30 1825 H 189.087 4.94896 -0.373092 0
M  V30 1826 H 184.343 5.96092 -1.35958 0
M  V30 1827 H 188.517 6.65039 -2.06629 0
M  V30 1828 H 186.144 7.15599 -2.56557 0
M  V30 1829 N 187.719 -0.156864 1.56817 0
M  V30 1830 C 189.135 -0.50916 1.5126 0
M  V30 1831 C 189.335 -1.83897 0.823658 0
M  V30 1832 O 188.391 -2.49469 0.390055 0
M  V30 1833 C 189.704 -0.52857 2.96018 0
M  V30 1834 C 191.252 -0.614771 3.06903 0
M  V30 1835 C 191.727 -0.664938 4.53147 0
M  V30 1836 N 193.218 -0.727433 4.57452 0
M  V30 1837 C 193.953 -0.787067 5.67973 0
M  V30 1838 N 193.449 -0.806649 6.88088 0
M  V30 1839 N 195.242 -0.827195 5.5598 0
M  V30 1840 H 187.393 0.714935 2.00006 0
M  V30 1841 H 189.656 0.259526 0.911784 0
M  V30 1842 H 189.362 0.380154 3.49639 0
M  V30 1843 H 189.236 -1.36998 3.51442 0
M  V30 1844 H 191.623 -1.51392 2.53307 0
M  V30 1845 H 191.704 0.253597 2.5454 0
M  V30 1846 H 191.348 0.230011 5.07379 0
M  V30 1847 H 191.278 -1.54966 5.03282 0
M  V30 1848 H 193.769 -0.719998 3.70978 0
M  V30 1849 H 194.082 -0.853727 7.6807 0
M  V30 1850 H 192.427 -0.774687 6.90669 0
M  V30 1851 H 195.618 -0.808998 4.61056 0
M  V30 1852 H 195.791 -0.870206 6.4213 0
M  V30 1853 N 189.197 -1.51736 -0.425897 0
M  V30 1854 C 190.445 -1.64644 -1.17204 0
M  V30 1855 C 190.766 -0.370486 -1.91448 0
M  V30 1856 O 190.036 0.614088 -1.86026 0
M  V30 1857 H 188.616 -0.606819 -0.435638 0
M  V30 1858 H 191.278 -1.88713 -0.487177 0
M  V30 1859 H 190.374 -2.47958 -1.89534 0
M  V30 1860 N 190.675 0.682077 -1.42076 0
M  V30 1861 C 191.923 1.4393 -1.41876 0
M  V30 1862 C 192.244 1.94971 -0.0335599 0
M  V30 1863 O 191.514 1.72591 0.926773 0
M  V30 1864 H 190.094 0.534085 -0.522267 0
M  V30 1865 H 192.756 0.806427 -1.77434 0
M  V30 1866 H 191.852 2.29588 -2.11414 0
M  V30 1867 N 192.153 1.28127 0.917671 0
M  V30 1868 C 193.1 1.11717 2.0196 0
M  V30 1869 C 194.07 0.0153929 1.66093 0
M  V30 1870 O 195.255 0.179596 1.89953 0
M  V30 1871 C 192.395 0.780927 3.36148 0
M  V30 1872 C 191.508 1.96135 3.84909 0
M  V30 1873 C 190.643 1.56609 5.0759 0
M  V30 1874 C 189.682 2.71339 5.48673 0
M  V30 1875 N 188.819 2.32332 6.62545 0
M  V30 1876 H 193.659 2.06003 2.15329 0
M  V30 1877 H 191.196 1.02535 1.05475 0
M  V30 1878 H 193.154 0.56675 4.13333 0
M  V30 1879 H 191.784 -0.124998 3.22558 0
M  V30 1880 H 190.836 2.28777 3.03916 0
M  V30 1881 H 192.148 2.82165 4.1132 0
M  V30 1882 H 191.302 1.31374 5.92305 0
M  V30 1883 H 190.041 0.677014 4.82978 0
M  V30 1884 H 189.046 2.97276 4.62501 0
M  V30 1885 H 190.271 3.60882 5.75274 0
M  V30 1886 H 188.217 1.45889 6.39572 0
M  V30 1887 H 188.134 3.11899 6.88662 0
M  V30 1888 H 189.402 2.10371 7.50576 0
M  V30 1889 N 193.631 -1.12557 1.10312 0
M  V30 1890 C 194.561 -2.20341 0.772798 0
M  V30 1891 C 195.542 -1.68198 -0.25365 0
M  V30 1892 O 196.727 -1.93831 -0.119699 0
M  V30 1893 C 193.857 -3.46709 0.202443 0
M  V30 1894 C 192.811 -4.11996 1.15943 0
M  V30 1895 C 192.137 -5.328 0.450345 0
M  V30 1896 C 193.437 -4.5828 2.50552 0
M  V30 1897 H 195.131 -2.48229 1.674 0
M  V30 1898 H 192.677 -1.19308 0.806326 0
M  V30 1899 H 194.63 -4.2138 -0.0407752 0
M  V30 1900 H 193.354 -3.18245 -0.734001 0
M  V30 1901 H 192.013 -3.39305 1.38808 0
M  V30 1902 H 191.661 -5.00602 -0.490531 0
M  V30 1903 H 191.361 -5.7743 1.08851 0
M  V30 1904 H 192.885 -6.10219 0.215642 0
M  V30 1905 H 194.299 -5.2433 2.31843 0
M  V30 1906 H 192.696 -5.13683 3.10242 0
M  V30 1907 H 193.766 -3.72329 3.10643 0
M  V30 1908 N 195.109 -0.891671 -1.2995 0
M  V30 1909 C 196.386 -0.433307 -1.9074 0
M  V30 1910 C 196.766 1.08646 -1.80995 0
M  V30 1911 O 196.114 1.92476 -1.23147 0
M  V30 1912 C 196.324 -0.938895 -3.36134 0
M  V30 1913 C 197.672 -0.977829 -4.13187 0
M  V30 1914 O 198.696 -0.886015 -3.45005 0
M  V30 1915 O 197.555 -1.11453 -5.35015 0
M  V30 1916 H 194.649 -0.133699 -0.816121 0
M  V30 1917 H 197.195 -0.981011 -1.38471 0
M  V30 1918 H 195.967 -1.98281 -3.37343 0
M  V30 1919 H 195.59 -0.37074 -3.95868 0
M  V30 1920 N 196.587 1.43421 -0.653314 0
M  V30 1921 C 197.519 2.29071 0.0769134 0
M  V30 1922 C 198.532 1.42513 0.787017 0
M  V30 1923 O 199.721 1.66449 0.644757 0
M  V30 1924 C 196.821 3.19436 1.13199 0
M  V30 1925 C 195.994 4.34533 0.500006 0
M  V30 1926 C 195.053 5.05771 1.45198 0
M  V30 1927 O 194.079 5.61037 0.960538 0
M  V30 1928 N 195.281 5.0928 2.78594 0
M  V30 1929 H 198.046 2.92382 -0.658235 0
M  V30 1930 H 195.607 1.54112 -0.496104 0
M  V30 1931 H 197.599 3.63958 1.76964 0
M  V30 1932 H 196.169 2.57724 1.7691 0
M  V30 1933 H 195.389 3.92925 -0.316738 0
M  V30 1934 H 196.677 5.08766 0.0588345 0
M  V30 1935 H 196.075 4.65751 3.2108 0
M  V30 1936 H 194.632 5.57519 3.37662 0
M  V30 1937 N 198.065 0.39524 1.52563 0
M  V30 1938 C 199.313 -0.184678 2.01254 0
M  V30 1939 C 199.634 -1.46822 1.28329 0
M  V30 1940 O 198.904 -1.91666 0.405094 0
M  V30 1941 H 197.484 -0.0712355 0.743596 0
M  V30 1942 H 200.146 0.528293 1.87603 0
M  V30 1943 H 199.242 -0.390681 3.09645 0
M  V30 1944 N 199.544 -1.57102 0.125237 0
M  V30 1945 C 200.477 -2.11371 -0.860094 0
M  V30 1946 C 201.455 -1.03168 -1.25679 0
M  V30 1947 O 202.639 -1.30862 -1.35674 0
M  V30 1948 C 199.766 -2.61555 -2.1519 0
M  V30 1949 C 198.812 -3.81701 -1.9028 0
M  V30 1950 S 199.645 -5.23797 -1.11343 0
M  V30 1951 C 200.801 -5.77353 -2.41689 0
M  V30 1952 H 201.034 -2.94617 -0.39852 0
M  V30 1953 H 198.567 -1.54145 -0.0886555 0
M  V30 1954 H 200.525 -2.91122 -2.89411 0
M  V30 1955 H 199.186 -1.78479 -2.58465 0
M  V30 1956 H 198.379 -4.14985 -2.86014 0
M  V30 1957 H 197.981 -3.52783 -1.24178 0
M  V30 1958 H 200.273 -5.87458 -3.37489 0
M  V30 1959 H 201.216 -6.75323 -2.12942 0
M  V30 1960 H 201.624 -5.05457 -2.51342 0
M  V30 1961 N 201.022 0.148545 -1.56898 0
M  V30 1962 C 202.433 0.708766 -1.72723 0
M  V30 1963 C 202.784 1.81734 -0.739395 0
M  V30 1964 O 201.909 2.16194 0.0943169 0
M  V30 1965 C 202.504 1.29245 -3.13179 0
M  V30 1966 C 201.063 1.79925 -3.30611 0
M  V30 1967 C 200.21 0.687111 -2.68652 0
M  V30 1968 H 203.161 -0.0771063 -1.58513 0
M  V30 1969 H 203.182 2.16224 -3.13093 0
M  V30 1970 H 202.694 0.485382 -3.85053 0
M  V30 1971 H 200.795 2.63203 -2.63732 0
M  V30 1972 H 200.908 1.92903 -4.38549 0
M  V30 1973 H 199.272 1.11335 -2.29078 0
M  V30 1974 H 200.055 -0.108483 -3.43129 0
M  V30 1975 N 202.5 1.5196 0.417844 0
M  V30 1976 C 203.463 1.74065 1.49111 0
M  V30 1977 C 204.463 0.610537 1.48758 0
M  V30 1978 O 205.653 0.87832 1.50437 0
M  V30 1979 C 202.785 1.81502 2.88565 0
M  V30 1980 H 203.978 2.69869 1.30807 0
M  V30 1981 H 201.531 1.42244 0.647785 0
M  V30 1982 H 202.266 0.875813 3.1225 0
M  V30 1983 H 202.051 2.63651 2.90225 0
M  V30 1984 H 203.541 2.00376 3.66387 0
M  V30 1985 N 203.978 -0.674533 1.42435 0
M  V30 1986 C 205.218 -1.4466 1.44405 0
M  V30 1987 C 205.582 -1.91911 0.0585784 0
M  V30 1988 O 206.783 -2.68759 -0.0469991 0
M  V30 1989 C 205.054 -2.61136 2.44013 0
M  V30 1990 S 206.613 -3.49981 2.64687 0
M  V30 1991 H 203.431 -0.494074 0.511284 0
M  V30 1992 H 206.033 -0.785162 1.7904 0
M  V30 1993 H 204.737 -2.24662 3.43446 0
M  V30 1994 H 204.268 -3.32153 2.10803 0
M  V30 1995 H 206.283 -4.57124 1.93007 0
M  V30 1996 N 205.456 -1.28612 -0.910864 0
M  V30 1997 C 206.684 -1.18792 -1.69399 0
M  V30 1998 C 207.099 0.253039 -1.87097 0
M  V30 1999 O 206.456 1.17071 -1.40003 0
M  V30 2000 C 206.507 -1.88511 -3.08457 0
M  V30 2001 O 206.228 -3.26979 -2.91576 0
M  V30 2002 C 207.729 -1.85029 -4.02839 0
M  V30 2003 H 204.949 -0.412233 -0.529438 0
M  V30 2004 H 207.493 -1.69788 -1.13984 0
M  V30 2005 H 205.648 -1.41379 -3.60681 0
M  V30 2006 H 206.062 -3.61936 -3.79608 0
M  V30 2007 H 207.536 -2.38395 -4.97867 0
M  V30 2008 H 208.013 -0.823303 -4.31414 0
M  V30 2009 H 208.619 -2.31853 -3.56545 0
M  V30 2010 N 206.934 1.1197 -1.10907 0
M  V30 2011 C 208.182 1.83225 -0.852819 0
M  V30 2012 C 208.503 1.84769 0.623341 0
M  V30 2013 O 207.773 1.3143 1.45269 0
M  V30 2014 H 206.353 0.67849 -0.312507 0
M  V30 2015 H 209.015 1.3556 -1.40033 0
M  V30 2016 H 208.111 2.87265 -1.22005 0
M  V30 2017 N 208.412 0.89855 1.29475 0
M  V30 2018 C 209.652 0.530771 1.97388 0
M  V30 2019 C 210.016 -0.905832 1.69289 0
M  V30 2020 O 211.217 -1.38042 2.30646 0
M  V30 2021 C 209.488 0.81369 3.48014 0
M  V30 2022 S 211.047 0.550048 4.35339 0
M  V30 2023 H 207.865 0.196956 0.683176 0
M  V30 2024 H 210.467 1.16074 1.57312 0
M  V30 2025 H 209.171 1.85749 3.65958 0
M  V30 2026 H 208.702 0.171795 3.93025 0
M  V30 2027 H 210.717 -0.605423 4.92493 0
M  V30 2028 N 209.89 -1.43072 0.660911 0
M  V30 2029 C 210.84 -2.27948 -0.04847 0
M  V30 2030 C 211.824 -1.40325 -0.787246 0
M  V30 2031 O 213.016 -1.63893 -0.668446 0
M  V30 2032 C 210.145 -3.28143 -1.00881 0
M  V30 2033 C 209.231 -4.23252 -0.268108 0
M  V30 2034 N 209.622 -5.00656 0.719528 0
M  V30 2035 C 207.92 -4.43092 -0.508493 0
M  V30 2036 C 208.621 -5.70019 1.15988 0
M  V30 2037 N 207.597 -5.41364 0.492584 0
M  V30 2038 H 211.399 -2.85213 0.709279 0
M  V30 2039 H 208.913 -1.54869 0.488822 0
M  V30 2040 H 210.91 -3.87736 -1.53188 0
M  V30 2041 H 209.57 -2.7244 -1.76654 0
M  V30 2042 H 210.581 -5.06115 1.09855 0
M  V30 2043 H 207.258 -3.98449 -1.24679 0
M  V30 2044 H 208.648 -6.4214 1.97751 0
M  V30 2045 N 211.368 -0.403325 -1.52352 0
M  V30 2046 C 212.331 0.413051 -2.25447 0
M  V30 2047 C 213.331 0.978513 -1.276 0
M  V30 2048 O 214.521 0.858305 -1.51587 0
M  V30 2049 C 211.653 1.58087 -3.02029 0
M  V30 2050 H 212.846 -0.227094 -2.99039 0
M  V30 2051 H 210.399 -0.155722 -1.55522 0
M  V30 2052 H 211.134 2.25804 -2.32772 0
M  V30 2053 H 210.919 1.18195 -3.73861 0
M  V30 2054 H 212.409 2.1585 -3.57489 0
M  V30 2055 N 212.846 1.57033 -0.133567 0
M  V30 2056 C 214.257 1.82593 0.389464 0
M  V30 2057 C 214.608 1.05156 1.6564 0
M  V30 2058 O 213.733 0.292644 2.14412 0
M  V30 2059 C 214.328 3.31204 0.713377 0
M  V30 2060 C 212.887 3.57393 1.18098 0
M  V30 2061 C 212.034 2.76598 0.197126 0
M  V30 2062 H 214.985 1.54598 -0.358481 0
M  V30 2063 H 215.006 3.46627 1.56939 0
M  V30 2064 H 214.518 3.87537 -0.2089 0
M  V30 2065 H 212.619 3.06433 2.11966 0
M  V30 2066 H 212.732 4.65915 1.11624 0
M  V30 2067 H 211.096 2.45257 0.687088 0
M  V30 2068 H 211.879 3.35697 -0.718504 0
M  V30 2069 N 214.325 -0.140222 1.56975 0
M  V30 2070 C 215.273 -1.19207 1.99731 0
M  V30 2071 C 216.267 -1.44089 0.890777 0
M  V30 2072 O 217.473 -1.44301 1.07597 0
M  V30 2073 H 213.848 -0.40142 0.635898 0
M  V30 2074 H 215.819 -0.804813 2.87342 0
M  V30 2075 C 214.568 -2.51617 2.39967 0
M  V30 2076 H 213.891 -2.33303 3.24669 0
M  V30 2077 H 215.331 -3.23827 2.73701 0
M  V30 2078 C 213.79 -3.12654 1.25496 0
M  V30 2079 O 214.32 -3.97786 0.559371 0
M  V30 2080 N 212.526 -2.72206 1.01746 0
M  V30 2081 H 212.073 -2.03074 1.58489 0
M  V30 2082 H 212.031 -3.13377 0.253461 0
M  V30 2083 N 215.803 -1.52179 -0.40978 0
M  V30 2084 C 217.051 -1.65878 -1.15451 0
M  V30 2085 C 217.372 -0.390771 -1.91044 0
M  V30 2086 O 216.642 0.594323 -1.86667 0
M  V30 2087 H 215.222 -0.611405 -0.429177 0
M  V30 2088 H 217.884 -1.89219 -0.467134 0
M  V30 2089 H 216.98 -2.49954 -1.86894 0
M  V30 2090 N 217.281 0.66697 -1.42791 0
M  V30 2091 C 218.527 1.4291 -1.43891 0
M  V30 2092 C 218.86 1.94114 -0.0578972 0
M  V30 2093 O 218.135 1.71414 0.91911 0
M  V30 2094 C 218.418 2.62049 -2.46987 0
M  V30 2095 C 218.271 2.16426 -3.94309 0
M  V30 2096 C 219.59 3.64266 -2.46978 0
M  V30 2097 H 216.709 0.518306 -0.523954 0
M  V30 2098 H 219.351 0.757321 -1.74255 0
M  V30 2099 H 217.501 3.19361 -2.21225 0
M  V30 2100 H 219.173 1.64221 -4.31079 0
M  V30 2101 H 217.416 1.47925 -4.078 0
M  V30 2102 H 218.087 3.02038 -4.62036 0
M  V30 2103 H 220.563 3.16686 -2.69906 0
M  V30 2104 H 219.439 4.45196 -3.21079 0
M  V30 2105 H 219.7 4.15927 -1.49857 0
M  V30 2106 N 218.759 1.29093 0.90403 0
M  V30 2107 C 220.007 1.16583 1.65085 0
M  V30 2108 C 220.328 -0.283933 1.92922 0
M  V30 2109 O 219.598 -1.19509 1.55224 0
M  V30 2110 H 218.178 0.428467 0.611903 0
M  V30 2111 H 220.84 1.61959 1.08422 0
M  V30 2112 H 219.936 1.71266 2.6091 0
M  V30 2113 N 220.237 -1.11381 1.11499 0
M  V30 2114 C 221.185 -2.19522 0.768956 0
M  V30 2115 C 222.179 -1.67693 -0.239857 0
M  V30 2116 O 223.385 -1.79727 -0.0990755 0
M  V30 2117 H 219.76 -0.715711 0.230786 0
M  V30 2118 H 221.731 -2.45954 1.68964 0
M  V30 2119 C 220.48 -3.46945 0.229073 0
M  V30 2120 H 219.803 -3.8718 0.996596 0
M  V30 2121 H 221.243 -4.23993 0.0251441 0
M  V30 2122 C 219.702 -3.2042 -1.04079 0
M  V30 2123 O 220.232 -3.41178 -2.12038 0
M  V30 2124 N 218.438 -2.74151 -0.963823 0
M  V30 2125 H 217.985 -2.57459 -0.0851722 0
M  V30 2126 H 217.943 -2.56781 -1.81414 0
M  V30 2127 N 221.715 -0.905404 -1.28997 0
M  V30 2128 C 222.992 -0.453513 -1.9027 0
M  V30 2129 C 223.372 1.06721 -1.82137 0
M  V30 2130 O 222.72 1.91159 -1.25182 0
M  V30 2131 C 222.93 -0.974494 -3.35119 0
M  V30 2132 C 224.278 -1.0216 -4.12127 0
M  V30 2133 O 225.302 -0.922557 -3.44046 0
M  V30 2134 O 224.161 -1.17121 -5.33802 0
M  V30 2135 H 221.255 -0.142347 -0.814657 0
M  V30 2136 H 223.801 -0.995642 -1.37423 0
M  V30 2137 H 222.573 -2.01848 -3.35221 0
M  V30 2138 H 222.196 -0.412706 -3.95452 0
M  V30 2139 N 223.193 1.4272 -0.668489 0
M  V30 2140 C 224.123 2.335 -0.000100175 0
M  V30 2141 C 225.104 1.50328 0.795964 0
M  V30 2142 O 226.289 1.78949 0.754385 0
M  V30 2143 C 223.419 3.33874 0.956302 0
M  V30 2144 C 222.373 4.27152 0.269278 0
M  V30 2145 C 221.699 5.17684 1.33818 0
M  V30 2146 C 222.999 5.15373 -0.847805 0
M  V30 2147 H 224.693 2.89639 -0.758244 0
M  V30 2148 H 222.239 1.39269 -0.366079 0
M  V30 2149 H 224.192 3.9629 1.43292 0
M  V30 2150 H 222.916 2.76025 1.74579 0
M  V30 2151 H 221.575 3.66123 -0.187042 0
M  V30 2152 H 221.223 4.56165 2.1195 0
M  V30 2153 H 220.923 5.80918 0.883659 0
M  V30 2154 H 222.447 5.82974 1.81586 0
M  V30 2155 H 223.861 5.7151 -0.452681 0
M  V30 2156 H 222.258 5.87407 -1.22773 0
M  V30 2157 H 223.328 4.5415 -1.69929 0
M  V30 2158 N 224.671 0.411399 1.52136 0
M  V30 2159 C 225.634 -0.401089 2.25663 0
M  V30 2160 C 226.634 -0.971732 1.28117 0
M  V30 2161 O 227.824 -0.850254 1.52041 0
M  V30 2162 C 224.956 -1.56483 3.02863 0
M  V30 2163 H 226.149 0.24295 2.98914 0
M  V30 2164 H 223.702 0.163968 1.55438 0
M  V30 2165 H 224.437 -2.24567 2.33967 0
M  V30 2166 H 224.222 -1.16211 3.74483 0
M  V30 2167 H 225.712 -2.13951 3.58629 0
M  V30 2168 N 226.149 -1.5696 0.141893 0
M  V30 2169 C 227.397 -1.95573 -0.509484 0
M  V30 2170 C 227.718 -1.02746 -1.65736 0
M  V30 2171 O 226.988 -0.0880311 -1.95702 0
M  V30 2172 H 225.568 -0.722115 -0.191205 0
M  V30 2173 H 228.23 -1.93697 0.216196 0
M  V30 2174 H 227.326 -2.99171 -0.889 0
M  V30 2175 N 227.627 0.131896 -1.57047 0
M  V30 2176 C 228.874 0.841932 -1.84168 0
M  V30 2177 C 229.202 1.8048 -0.725066 0
M  V30 2178 O 228.457 1.93618 0.284692 0
M  V30 2179 C 228.756 1.63703 -3.17704 0
M  V30 2180 C 228.422 0.81961 -4.43388 0
M  V30 2181 C 227.084 0.594148 -4.77518 0
M  V30 2182 C 229.436 0.248977 -5.20605 0
M  V30 2183 C 226.764 -0.212409 -5.86315 0
M  V30 2184 C 229.116 -0.544701 -6.30251 0
M  V30 2185 C 227.78 -0.780599 -6.6292 0
M  V30 2186 H 227.05 0.308085 -0.673917 0
M  V30 2187 H 229.697 0.104867 -1.91213 0
M  V30 2188 H 228.002 2.44464 -3.06177 0
M  V30 2189 H 229.699 2.19015 -3.35907 0
M  V30 2190 H 226.289 1.00542 -4.16641 0
M  V30 2191 H 230.473 0.410408 -4.946 0
M  V30 2192 H 225.729 -0.404524 -6.1006 0
M  V30 2193 H 229.903 -0.993922 -6.89271 0
M  V30 2194 H 227.53 -1.40742 -7.47058 0
M  V30 2195 N 229.106 1.52395 0.401703 0
M  V30 2196 C 230.517 1.58899 0.980202 0
M  V30 2197 C 230.868 0.434032 1.91339 0
M  V30 2198 O 229.993 -0.444619 2.11783 0
M  V30 2199 C 230.588 2.87994 1.78451 0
M  V30 2200 C 229.147 2.96953 2.31292 0
M  V30 2201 C 228.294 2.53903 1.11483 0
M  V30 2202 H 231.245 1.57657 0.18168 0
M  V30 2203 H 231.266 2.73765 2.64259 0
M  V30 2204 H 230.778 3.72035 1.10506 0
M  V30 2205 H 228.879 2.17422 3.02586 0
M  V30 2206 H 228.992 4.01344 2.61649 0
M  V30 2207 H 227.356 2.07925 1.47104 0
M  V30 2208 H 228.139 3.40326 0.450928 0
M  V30 2209 N 230.584 -0.659388 1.43143 0
M  V30 2210 C 231.531 -1.77249 1.47822 0
M  V30 2211 C 232.501 -1.62818 0.328558 0
M  V30 2212 O 233.686 -1.83151 0.534838 0
M  V30 2213 C 230.826 -3.15371 1.40126 0
M  V30 2214 C 229.939 -3.4098 2.65249 0
M  V30 2215 C 229.074 -4.68915 2.49584 0
M  V30 2216 C 228.113 -4.87608 3.70006 0
M  V30 2217 N 227.25 -6.06796 3.53189 0
M  V30 2218 H 232.09 -1.72584 2.42938 0
M  V30 2219 H 229.627 -0.842297 1.20598 0
M  V30 2220 H 231.585 -3.9521 1.33659 0
M  V30 2221 H 230.215 -3.19121 0.485964 0
M  V30 2222 H 229.267 -2.55282 2.8202 0
M  V30 2223 H 230.579 -3.50681 3.54717 0
M  V30 2224 H 229.733 -5.56871 2.4079 0
M  V30 2225 H 228.472 -4.61524 1.5763 0
M  V30 2226 H 227.477 -3.9809 3.79215 0
M  V30 2227 H 228.702 -4.96834 4.62961 0
M  V30 2228 H 226.648 -6.00549 2.63965 0
M  V30 2229 H 226.565 -6.17428 4.36255 0
M  V30 2230 H 227.833 -6.9739 3.48236 0
M  V30 2231 N 232.062 -1.29571 -0.897171 0
M  V30 2232 C 232.992 -1.17473 -2.01798 0
M  V30 2233 C 233.973 -0.068323 -1.69963 0
M  V30 2234 O 235.158 -0.248239 -1.92607 0
M  V30 2235 C 232.288 -0.853099 -3.36659 0
M  V30 2236 C 231.242 -1.9161 -3.82713 0
M  V30 2237 C 230.568 -1.44773 -5.14728 0
M  V30 2238 C 231.868 -3.32535 -4.02763 0
M  V30 2239 H 233.562 -2.11237 -2.12177 0
M  V30 2240 H 231.108 -1.01699 -1.01948 0
M  V30 2241 H 233.061 -0.755165 -4.14578 0
M  V30 2242 H 231.785 0.120236 -3.26379 0
M  V30 2243 H 230.444 -2.00346 -3.07013 0
M  V30 2244 H 230.092 -0.462995 -5.00865 0
M  V30 2245 H 229.792 -2.15865 -5.46513 0
M  V30 2246 H 231.316 -1.36334 -5.95185 0
M  V30 2247 H 232.73 -3.26626 -4.71156 0
M  V30 2248 H 231.127 -4.01607 -4.45905 0
M  V30 2249 H 232.197 -3.75326 -3.07016 0
M  V30 2250 N 233.54 1.10788 -1.12088 0
M  V30 2251 C 234.788 1.8231 -0.872205 0
M  V30 2252 C 235.109 1.85419 0.603709 0
M  V30 2253 O 234.379 1.32963 1.43867 0
M  V30 2254 H 232.959 0.675137 -0.319686 0
M  V30 2255 H 235.621 1.34068 -1.41463 0
M  V30 2256 H 234.717 2.85955 -1.25045 0
M  V30 2257 N 235.018 0.912232 1.28515 0
M  V30 2258 C 236.266 0.543523 1.94654 0
M  V30 2259 C 236.587 -0.9155 1.72173 0
M  V30 2260 O 235.857 -1.64708 1.06058 0
M  V30 2261 H 234.437 0.198017 0.720277 0
M  V30 2262 H 237.099 1.16126 1.56527 0
M  V30 2263 H 236.195 0.736684 3.03281 0
M  V30 2264 N 236.496 -1.42363 0.676048 0
M  V30 2265 C 237.428 -2.29164 -0.0404605 0
M  V30 2266 C 238.441 -1.43747 -0.764245 0
M  V30 2267 O 239.63 -1.67453 -0.618195 0
M  V30 2268 C 236.73 -3.21196 -1.08103 0
M  V30 2269 C 235.903 -4.35273 -0.430812 0
M  V30 2270 C 234.962 -5.08017 -1.37133 0
M  V30 2271 O 233.988 -5.62494 -0.87116 0
M  V30 2272 N 235.19 -5.13647 -2.70456 0
M  V30 2273 H 237.955 -2.91298 0.704667 0
M  V30 2274 H 235.516 -1.53303 0.520559 0
M  V30 2275 H 237.508 -3.66728 -1.71152 0
M  V30 2276 H 236.078 -2.60505 -1.72788 0
M  V30 2277 H 235.298 -3.92372 0.379209 0
M  V30 2278 H 236.586 -5.08795 0.0221132 0
M  V30 2279 H 235.984 -4.708 -3.1363 0
M  V30 2280 H 234.541 -5.62821 -3.28749 0
M  V30 2281 N 237.974 -0.419461 -1.51915 0
M  V30 2282 C 238.924 0.418496 -2.24126 0
M  V30 2283 C 239.908 1.00495 -1.25656 0
M  V30 2284 O 241.1 0.926058 -1.50842 0
M  V30 2285 C 238.229 1.52899 -3.07371 0
M  V30 2286 C 237.315 0.952797 -4.13258 0
M  V30 2287 N 237.706 0.104175 -5.05693 0
M  V30 2288 C 236.004 1.22224 -4.28926 0
M  V30 2289 C 236.705 -0.21752 -5.81293 0
M  V30 2290 N 235.681 0.394293 -5.42168 0
M  V30 2291 H 239.483 -0.236048 -2.92951 0
M  V30 2292 H 236.997 -0.230481 -1.60756 0
M  V30 2293 H 238.994 2.14199 -3.57665 0
M  V30 2294 H 237.654 2.18605 -2.40088 0
M  V30 2295 H 238.665 -0.260924 -5.17242 0
M  V30 2296 H 235.342 1.87812 -3.72871 0
M  V30 2297 H 236.732 -0.906992 -6.6575 0
M  V30 2298 N 239.452 1.56882 -0.150215 0
M  V30 2299 C 240.415 2.1573 0.774157 0
M  V30 2300 C 241.415 1.0999 1.17298 0
M  V30 2301 O 242.605 1.35613 1.09338 0
M  V30 2302 C 239.737 2.72302 2.05096 0
M  V30 2303 H 240.93 2.98752 0.262201 0
M  V30 2304 H 238.483 1.55985 0.099248 0
M  V30 2305 H 239.218 1.92956 2.6065 0
M  V30 2306 H 239.003 3.49665 1.77416 0
M  V30 2307 H 240.493 3.17632 2.71109 0
M  V30 2308 N 240.93 -0.123565 1.57115 0
M  V30 2309 C 241.893 -1.13583 1.99076 0
M  V30 2310 C 242.893 -1.34564 0.880296 0
M  V30 2311 O 244.083 -1.31158 1.14644 0
M  V30 2312 C 241.215 -2.49128 2.32698 0
M  V30 2313 H 242.408 -0.775287 2.89706 0
M  V30 2314 H 239.961 -0.36771 1.51913 0
M  V30 2315 H 240.696 -2.90111 1.44934 0
M  V30 2316 H 240.481 -2.35255 3.13684 0
M  V30 2317 H 241.971 -3.2199 2.65918 0
M  V30 2318 N 242.408 -1.52605 -0.393616 0
M  V30 2319 C 243.638 -1.71046 -1.15874 0
M  V30 2320 C 244.046 -0.426483 -1.84331 0
M  V30 2321 O 243.389 0.608513 -1.73329 0
M  V30 2322 C 243.451 -2.80118 -2.25332 0
M  V30 2323 C 243.115 -4.21381 -1.76881 0
M  V30 2324 C 244.112 -5.04697 -1.24808 0
M  V30 2325 C 241.797 -4.67683 -1.83244 0
M  V30 2326 C 243.791 -6.32393 -0.797387 0
M  V30 2327 C 241.478 -5.95364 -1.37787 0
M  V30 2328 C 242.476 -6.77549 -0.861208 0
M  V30 2329 O 242.164 -8.02837 -0.413252 0
M  V30 2330 H 241.896 -0.576155 -0.353583 0
M  V30 2331 H 244.45 -2.00018 -0.467123 0
M  V30 2332 H 242.68 -2.46557 -2.97904 0
M  V30 2333 H 244.369 -2.87006 -2.87023 0
M  V30 2334 H 245.135 -4.70111 -1.19252 0
M  V30 2335 H 241.014 -4.03805 -2.22401 0
M  V30 2336 H 244.558 -6.9649 -0.393437 0
M  V30 2337 H 240.455 -6.29455 -1.43026 0
M  V30 2338 H 241.223 -8.16749 -0.53515 0
M  V30 2339 N 243.887 0.651787 -1.4349 0
M  V30 2340 C 245.115 1.43937 -1.48626 0
M  V30 2341 C 245.53 1.8851 -0.104587 0
M  V30 2342 O 244.887 1.5958 0.885464 0
M  V30 2343 C 244.938 2.6734 -2.43334 0
M  V30 2344 O 244.659 2.24631 -3.76128 0
M  V30 2345 C 246.16 3.60683 -2.57726 0
M  V30 2346 H 243.38 0.44213 -0.504739 0
M  V30 2347 H 245.924 0.798944 -1.88248 0
M  V30 2348 H 244.079 3.2752 -2.06904 0
M  V30 2349 H 244.493 3.04485 -4.2707 0
M  V30 2350 H 245.967 4.43933 -3.28067 0
M  V30 2351 H 246.444 4.08126 -1.62265 0
M  V30 2352 H 247.05 3.06384 -2.94973 0
M  V30 2353 N 245.365 1.30045 0.890287 0
M  V30 2354 C 246.328 1.15963 1.977 0
M  V30 2355 C 247.328 0.0923777 1.60534 0
M  V30 2356 O 248.518 0.340071 1.70848 0
M  V30 2357 C 245.65 0.775451 3.31963 0
M  V30 2358 H 246.843 2.12502 2.11619 0
M  V30 2359 H 244.396 1.13366 1.07601 0
M  V30 2360 H 245.131 -0.189671 3.23745 0
M  V30 2361 H 244.916 1.54668 3.60306 0
M  V30 2362 H 246.406 0.700251 4.11687 0
M  V30 2363 N 246.843 -1.10192 1.12674 0
M  V30 2364 C 247.79 -2.16606 0.796906 0
M  V30 2365 C 248.76 -1.64394 -0.237476 0
M  V30 2366 O 249.945 -1.90474 -0.111484 0
M  V30 2367 C 247.085 -3.44116 0.26043 0
M  V30 2368 C 246.198 -4.10268 1.35293 0
M  V30 2369 C 245.333 -5.25507 0.775621 0
M  V30 2370 C 244.372 -5.83567 1.84706 0
M  V30 2371 N 243.509 -6.90179 1.28829 0
M  V30 2372 H 248.349 -2.44163 1.70846 0
M  V30 2373 H 245.886 -1.19846 0.85295 0
M  V30 2374 H 247.844 -4.17143 -0.0686814 0
M  V30 2375 H 246.474 -3.16901 -0.614274 0
M  V30 2376 H 245.526 -3.35184 1.79877 0
M  V30 2377 H 246.838 -4.4946 2.16303 0
M  V30 2378 H 245.992 -6.05398 0.397327 0
M  V30 2379 H 244.731 -4.87656 -0.0656581 0
M  V30 2380 H 243.736 -5.02344 2.23452 0
M  V30 2381 H 244.961 -6.23482 2.69161 0
M  V30 2382 H 242.907 -6.54322 0.468881 0
M  V30 2383 H 242.824 -7.28097 2.03497 0
M  V30 2384 H 244.092 -7.73844 0.937311 0
M  V30 2385 N 248.321 -0.919034 -1.28029 0
M  V30 2386 C 249.253 -0.368762 -2.26214 0
M  V30 2387 C 250.266 0.495716 -1.55069 0
M  V30 2388 O 251.455 0.30974 -1.75792 0
M  V30 2389 C 248.555 0.491049 -3.35324 0
M  V30 2390 C 247.728 -0.352133 -4.3598 0
M  V30 2391 C 246.787 0.443622 -5.24327 0
M  V30 2392 O 245.813 -0.14566 -5.69014 0
M  V30 2393 N 247.015 1.74545 -5.53637 0
M  V30 2394 H 249.78 -1.21273 -2.74068 0
M  V30 2395 H 247.341 -0.785541 -1.41566 0
M  V30 2396 H 249.333 1.03026 -3.91366 0
M  V30 2397 H 247.903 1.23574 -2.87138 0
M  V30 2398 H 247.123 -1.07269 -3.79324 0
M  V30 2399 H 248.411 -0.928883 -5.00249 0
M  V30 2400 H 247.809 2.24666 -5.19174 0
M  V30 2401 H 246.366 2.23138 -6.12416 0
M  V30 2402 N 249.799 1.42003 -0.683588 0
M  V30 2403 C 250.729 2.33487 -0.024866 0
M  V30 2404 C 251.71 1.51163 0.779975 0
M  V30 2405 O 252.895 1.79739 0.735362 0
M  V30 2406 C 250.025 3.3487 0.920836 0
M  V30 2407 C 248.979 4.27414 0.223958 0
M  V30 2408 C 248.305 5.19074 1.2832 0
M  V30 2409 C 249.605 5.14445 -0.90242 0
M  V30 2410 H 251.299 2.88819 -0.788921 0
M  V30 2411 H 248.845 1.38873 -0.38083 0
M  V30 2412 H 250.798 3.97787 1.39081 0
M  V30 2413 H 249.522 2.77861 1.71642 0
M  V30 2414 H 248.181 3.65904 -0.225864 0
M  V30 2415 H 247.829 4.58387 2.071 0
M  V30 2416 H 247.529 5.81822 0.821995 0
M  V30 2417 H 249.053 5.84867 1.75392 0
M  V30 2418 H 250.467 5.70998 -0.513272 0
M  V30 2419 H 248.864 5.86072 -1.28997 0
M  V30 2420 H 249.934 4.52322 -1.74737 0
M  V30 2421 N 251.277 0.427512 1.51691 0
M  V30 2422 C 252.505 -0.141191 2.06418 0
M  V30 2423 C 252.92 -1.37303 1.29589 0
M  V30 2424 O 252.277 -1.79059 0.352732 0
M  V30 2425 C 252.328 -0.473266 3.58389 0
M  V30 2426 O 252.049 0.709673 4.32314 0
M  V30 2427 C 253.55 -1.09371 4.29596 0
M  V30 2428 H 250.77 -0.0122747 0.670888 0
M  V30 2429 H 253.314 0.603764 1.95384 0
M  V30 2430 H 251.469 -1.16812 3.69369 0
M  V30 2431 H 251.883 0.42807 5.2275 0
M  V30 2432 H 253.357 -1.27613 5.37046 0
M  V30 2433 H 253.834 -2.072 3.87253 0
M  V30 2434 H 254.44 -0.43853 4.23033 0
M  V30 2435 N 252.755 -1.56801 0.158532 0
M  V30 2436 C 254.032 -1.88131 -0.535357 0
M  V30 2437 C 254.412 -1.06638 -1.82186 0
M  V30 2438 O 253.76 -0.156533 -2.27963 0
M  V30 2439 C 253.97 -3.39949 -0.789653 0
M  V30 2440 C 255.318 -4.09416 -1.12533 0
M  V30 2441 O 256.342 -3.45194 -0.878622 0
M  V30 2442 O 255.201 -5.22855 -1.59014 0
M  V30 2443 H 252.295 -0.780143 -0.27442 0
M  V30 2444 H 254.841 -1.68564 0.19601 0
M  V30 2445 H 253.613 -3.91115 0.120353 0
M  V30 2446 H 253.236 -3.65084 -1.57479 0
M  V30 2447 N 254.233 0.115231 -1.57178 0
M  V30 2448 C 255.48 0.822351 -1.8505 0
M  V30 2449 C 255.808 1.79701 -0.744168 0
M  V30 2450 O 255.063 1.93909 0.26414 0
M  V30 2451 C 255.362 1.60324 -3.19423 0
M  V30 2452 C 255.028 0.772536 -4.44233 0
M  V30 2453 C 253.69 0.543468 -4.78121 0
M  V30 2454 C 256.042 0.193746 -5.2084 0
M  V30 2455 C 253.37 -0.274583 -5.86057 0
M  V30 2456 C 255.722 -0.611517 -6.29637 0
M  V30 2457 C 254.386 -0.850867 -6.62055 0
M  V30 2458 H 253.656 0.30092 -0.677147 0
M  V30 2459 H 256.303 0.0845802 -1.91313 0
M  V30 2460 H 254.608 2.41203 -3.08753 0
M  V30 2461 H 256.305 2.1544 -3.38211 0
M  V30 2462 H 252.895 0.96117 -4.17683 0
M  V30 2463 H 257.079 0.357926 -4.95008 0
M  V30 2464 H 252.335 -0.469206 -6.09597 0
M  V30 2465 H 256.509 -1.06697 -6.88178 0
M  V30 2466 H 254.136 -1.48657 -7.45523 0
M  V30 2467 N 255.711 1.52812 0.385517 0
M  V30 2468 C 257.127 1.4214 0.725829 0
M  V30 2469 C 257.327 0.544589 1.94001 0
M  V30 2470 O 256.383 0.0193693 2.52493 0
M  V30 2471 C 257.696 2.85042 0.957668 0
M  V30 2472 C 259.244 2.94543 1.05892 0
M  V30 2473 C 259.719 4.38464 1.32337 0
M  V30 2474 N 261.21 4.41804 1.39151 0
M  V30 2475 C 261.945 5.5025 1.61285 0
M  V30 2476 N 261.441 6.68775 1.80866 0
M  V30 2477 N 263.234 5.37798 1.63492 0
M  V30 2478 H 255.385 2.08338 -0.413383 0
M  V30 2479 H 257.648 0.940016 -0.122775 0
M  V30 2480 H 257.354 3.51431 0.137568 0
M  V30 2481 H 257.228 3.27505 1.87137 0
M  V30 2482 H 259.615 2.28321 1.86959 0
M  V30 2483 H 259.696 2.55504 0.123057 0
M  V30 2484 H 259.34 5.05254 0.517793 0
M  V30 2485 H 259.27 4.75059 2.27214 0
M  V30 2486 H 261.761 3.56377 1.25713 0
M  V30 2487 H 262.074 7.47197 1.97271 0
M  V30 2488 H 260.419 6.71797 1.78083 0
M  V30 2489 H 263.61 4.44171 1.47749 0
M  V30 2490 H 263.783 6.22382 1.80402 0
M  V30 2491 N 257.189 -0.644168 1.43834 0
M  V30 2492 C 258.099 -1.78563 1.52159 0
M  V30 2493 C 259.115 -1.69147 0.408069 0
M  V30 2494 O 260.291 -1.90156 0.663524 0
M  V30 2495 C 257.356 -3.14888 1.45073 0
M  V30 2496 C 256.417 -3.36034 2.6717 0
M  V30 2497 C 255.65 -4.65855 2.60413 0
M  V30 2498 O 255.873 -5.45805 1.65689 0
M  V30 2499 O 254.807 -4.88918 3.5106 0
M  V30 2500 H 258.633 -1.74494 2.48567 0
M  V30 2501 H 256.218 -0.80378 1.25935 0
M  V30 2502 H 258.1 -3.96179 1.43597 0
M  V30 2503 H 256.775 -3.19528 0.518037 0
M  V30 2504 H 255.682 -2.54472 2.74217 0
M  V30 2505 H 257.015 -3.36247 3.59442 0
M  V30 2506 N 258.668 -1.30515 -0.883378 0
M  V30 2507 C 259.916 -1.19194 -1.63209 0
M  V30 2508 C 260.237 0.253205 -1.93349 0
M  V30 2509 O 259.507 1.17025 -1.57105 0
M  V30 2510 H 258.087 -0.438148 -0.605009 0
M  V30 2511 H 260.749 -1.63663 -1.05832 0
M  V30 2512 H 259.845 -1.75396 -2.58153 0
M  V30 2513 N 260.146 1.09593 -1.13257 0
M  V30 2514 C 261.094 2.18271 -0.803783 0
M  V30 2515 C 262.088 1.68054 0.213148 0
M  V30 2516 O 263.294 1.79862 0.0704699 0
M  V30 2517 H 259.669 0.711949 -0.242143 0
M  V30 2518 H 261.64 2.43235 -1.72856 0
M  V30 2519 C 260.389 3.46536 -0.28424 0
M  V30 2520 H 259.712 3.85545 -1.05807 0
M  V30 2521 H 261.152 4.23899 -0.0925945 0
M  V30 2522 C 259.611 3.22036 0.989684 0
M  V30 2523 O 260.141 3.44509 2.06584 0
M  V30 2524 N 258.347 2.7565 0.920086 0
M  V30 2525 H 257.894 2.57562 0.0442019 0
M  V30 2526 H 257.852 2.59635 1.77306 0
M  V30 2527 N 261.624 0.925811 1.2754 0
M  V30 2528 C 263.04 0.625767 1.46821 0
M  V30 2529 C 263.24 -0.825506 1.83814 0
M  V30 2530 O 262.296 -1.60356 1.95044 0
M  V30 2531 C 263.609 1.57402 2.56213 0
M  V30 2532 C 265.157 1.58204 2.70075 0
M  V30 2533 C 265.632 2.51721 3.82623 0
M  V30 2534 N 267.123 2.49917 3.89994 0
M  V30 2535 C 267.858 3.18968 4.76494 0
M  V30 2536 N 267.354 3.97391 5.67496 0
M  V30 2537 N 269.147 3.07996 4.70208 0
M  V30 2538 H 261.298 1.86409 1.01811 0
M  V30 2539 H 263.561 0.800213 0.508295 0
M  V30 2540 H 263.267 2.60925 2.35819 0
M  V30 2541 H 263.141 1.31428 3.53563 0
M  V30 2542 H 265.528 0.554124 2.89851 0
M  V30 2543 H 265.609 1.88226 1.73218 0
M  V30 2544 H 265.253 3.54622 3.63601 0
M  V30 2545 H 265.183 2.18996 4.78903 0
M  V30 2546 H 267.674 1.9296 3.24923 0
M  V30 2547 H 267.987 4.4707 6.30356 0
M  V30 2548 H 266.332 4.01495 5.67298 0
M  V30 2549 H 269.523 2.46223 3.9811 0
M  V30 2550 H 269.696 3.6208 5.37403 0
M  V30 2551 N 263.102 -1.41638 0.69111 0
M  V30 2552 C 264.33 -2.05628 0.22909 0
M  V30 2553 C 264.745 -1.51992 -1.11999 0
M  V30 2554 O 264.102 -0.666322 -1.69901 0
M  V30 2555 C 264.153 -3.61084 0.173283 0
M  V30 2556 O 263.874 -4.12735 1.46907 0
M  V30 2557 C 265.375 -4.42213 -0.310266 0
M  V30 2558 H 262.595 -0.662327 0.107534 0
M  V30 2559 H 265.139 -1.81489 0.942438 0
M  V30 2560 H 263.294 -3.84278 -0.490858 0
M  V30 2561 H 263.708 -5.06743 1.35322 0
M  V30 2562 H 265.182 -5.51194 -0.298196 0
M  V30 2563 H 265.659 -4.1799 -1.34838 0
M  V30 2564 H 266.265 -4.24074 0.322716 0
M  V30 2565 N 264.58 -0.43555 -1.51462 0
M  V30 2566 C 265.528 0.391205 -2.29287 0
M  V30 2567 C 266.522 1.02247 -1.35062 0
M  V30 2568 O 267.728 0.957646 -1.52411 0
M  V30 2569 H 264.103 0.144968 -0.737895 0
M  V30 2570 H 266.074 -0.286051 -2.97026 0
M  V30 2571 C 264.823 1.48096 -3.14583 0
M  V30 2572 H 264.146 1.00457 -3.86973 0
M  V30 2573 H 265.586 2.03273 -3.72097 0
M  V30 2574 C 264.045 2.46321 -2.29843 0
M  V30 2575 O 264.575 3.50815 -1.95682 0
M  V30 2576 N 262.781 2.17166 -1.931 0
M  V30 2577 H 262.328 1.32218 -2.21079 0
M  V30 2578 H 262.286 2.83127 -1.36698 0
M  V30 2579 N 266.058 1.56714 -0.166846 0
M  V30 2580 C 267.335 1.88412 0.525373 0
M  V30 2581 C 267.715 1.07602 1.81618 0
M  V30 2582 O 267.063 0.168621 2.27877 0
M  V30 2583 C 267.273 3.40363 0.771613 0
M  V30 2584 C 268.621 4.10007 1.1036 0
M  V30 2585 O 269.645 3.45655 0.860304 0
M  V30 2586 O 268.504 5.2369 1.56239 0
M  V30 2587 H 265.598 0.781587 0.270278 0
M  V30 2588 H 268.144 1.68458 -0.204946 0
M  V30 2589 H 266.916 3.91046 -0.141093 0
M  V30 2590 H 266.539 3.65914 1.55541 0
M  V30 2591 N 267.536 -0.106894 1.57237 0
M  V30 2592 C 268.784 -0.810921 1.85117 0
M  V30 2593 C 269.105 -1.7984 0.753827 0
M  V30 2594 O 268.375 -1.94649 -0.221056 0
M  V30 2595 H 266.955 -0.302466 0.683025 0
M  V30 2596 H 269.617 -0.0913324 1.94686 0
M  V30 2597 H 268.713 -1.34875 2.81452 0
M  V30 2598 N 269.014 -1.53014 -0.377408 0
M  V30 2599 C 270.291 -1.59215 -1.13622 0
M  V30 2600 C 270.671 -0.392407 -2.07421 0
M  V30 2601 O 270.019 0.618342 -2.19975 0
M  V30 2602 C 270.229 -2.93669 -1.88573 0
M  V30 2603 C 271.577 -3.47822 -2.43526 0
M  V30 2604 O 272.601 -2.9562 -1.98715 0
M  V30 2605 O 271.46 -4.39055 -3.25412 0
M  V30 2606 H 268.554 -0.642625 -0.52054 0
M  V30 2607 H 271.1 -1.65353 -0.381625 0
M  V30 2608 H 269.872 -3.7243 -1.20048 0
M  V30 2609 H 269.495 -2.90968 -2.70968 0
M  V30 2610 N 270.492 0.636531 -1.44174 0
M  V30 2611 C 271.72 1.42353 -1.50144 0
M  V30 2612 C 272.135 1.88389 -0.124575 0
M  V30 2613 O 271.492 1.6051 0.868489 0
M  V30 2614 C 271.543 2.64744 -2.46156 0
M  V30 2615 O 271.264 2.20629 -3.7849 0
M  V30 2616 C 272.765 3.57929 -2.61537 0
M  V30 2617 H 269.985 0.436752 -0.5094 0
M  V30 2618 H 272.529 0.778933 -1.89084 0
M  V30 2619 H 270.684 3.25307 -2.10366 0
M  V30 2620 H 271.098 2.99938 -4.30276 0
M  V30 2621 H 272.572 4.40428 -3.32757 0
M  V30 2622 H 273.049 4.06382 -1.66585 0
M  V30 2623 H 273.655 3.03238 -2.98206 0
M  V30 2624 N 271.97 1.30982 0.876444 0
M  V30 2625 C 272.903 1.12414 1.98591 0
M  V30 2626 C 273.881 0.0294078 1.62573 0
M  V30 2627 O 275.065 0.184598 1.87594 0
M  V30 2628 C 272.192 0.716276 3.3104 0
M  V30 2629 C 271.238 1.81311 3.86042 0
M  V30 2630 S 272.071 3.41727 4.1229 0
M  V30 2631 C 273.227 3.02863 5.47745 0
M  V30 2632 H 273.46 2.06338 2.14037 0
M  V30 2633 H 270.993 1.15393 1.02586 0
M  V30 2634 H 272.951 0.487697 4.07593 0
M  V30 2635 H 271.612 -0.203749 3.13438 0
M  V30 2636 H 270.805 1.48021 4.81774 0
M  V30 2637 H 270.407 1.99641 3.16259 0
M  V30 2638 H 272.699 2.51353 6.29148 0
M  V30 2639 H 273.642 3.97533 5.8598 0
M  V30 2640 H 274.05 2.40487 5.10711 0
M  V30 2641 N 273.449 -1.08991 1.13837 0
M  V30 2642 C 274.698 -1.80631 0.897509 0
M  V30 2643 C 275.011 -1.86872 -0.57777 0
M  V30 2644 O 276.217 -2.54866 -0.935701 0
M  V30 2645 C 274.673 -3.24517 1.55618 0
M  V30 2646 C 274.281 -3.26529 3.0673 0
M  V30 2647 C 276.025 -4.00882 1.3962 0
M  V30 2648 C 273.932 -4.64965 3.65461 0
M  V30 2649 H 272.862 -0.67691 0.332129 0
M  V30 2650 H 275.513 -1.2246 1.3666 0
M  V30 2651 H 273.895 -3.82778 1.01476 0
M  V30 2652 H 275.069 -2.78008 3.67489 0
M  V30 2653 H 273.384 -2.63656 3.22296 0
M  V30 2654 H 275.981 -5.03167 1.80906 0
M  V30 2655 H 276.324 -4.14896 0.341578 0
M  V30 2656 H 276.857 -3.49075 1.90766 0
M  V30 2657 H 273.596 -4.56153 4.70749 0
M  V30 2658 H 273.116 -5.13792 3.09481 0
M  V30 2659 H 274.795 -5.3394 3.654 0
M  V30 2660 N 274.927 -0.932562 -1.27047 0
M  V30 2661 C 275.86 -0.379774 -2.25018 0
M  V30 2662 C 276.838 0.526587 -1.53837 0
M  V30 2663 O 278.022 0.465992 -1.82649 0
M  V30 2664 C 275.149 0.455187 -3.35627 0
M  V30 2665 C 274.195 -0.388428 -4.24728 0
M  V30 2666 S 275.028 -1.80701 -5.04091 0
M  V30 2667 C 276.184 -0.979865 -6.18182 0
M  V30 2668 H 276.417 -1.2101 -2.71558 0
M  V30 2669 H 273.95 -0.735078 -1.35779 0
M  V30 2670 H 275.908 0.931052 -3.99802 0
M  V30 2671 H 274.569 1.26009 -2.87716 0
M  V30 2672 H 273.762 0.25089 -5.03375 0
M  V30 2673 H 273.364 -0.798649 -3.65373 0
M  V30 2674 H 275.656 -0.218115 -6.77149 0
M  V30 2675 H 276.599 -1.73951 -6.86401 0
M  V30 2676 H 277.007 -0.51973 -5.62102 0
M  V30 2677 N 276.405 1.4127 -0.698611 0
M  V30 2678 C 277.821 1.55241 -0.370462 0
M  V30 2679 C 278.021 1.67351 1.12231 0
M  V30 2680 O 277.077 1.65363 1.90818 0
M  V30 2681 C 278.39 2.78997 -1.12165 0
M  V30 2682 C 279.938 2.92797 -1.1063 0
M  V30 2683 C 280.413 4.19445 -1.8393 0
M  V30 2684 N 281.904 4.26409 -1.80914 0
M  V30 2685 C 282.639 5.23271 -2.34467 0
M  V30 2686 N 282.135 6.26145 -2.96504 0
M  V30 2687 N 283.928 5.15232 -2.24706 0
M  V30 2688 H 276.079 1.31654 -1.66676 0
M  V30 2689 H 278.342 0.635393 -0.703548 0
M  V30 2690 H 278.048 2.76268 -2.17644 0
M  V30 2691 H 277.922 3.70606 -0.702209 0
M  V30 2692 H 280.309 2.95039 -0.0597713 0
M  V30 2693 H 280.39 2.02353 -1.56483 0
M  V30 2694 H 280.034 4.17964 -2.88563 0
M  V30 2695 H 279.964 5.08866 -1.35509 0
M  V30 2696 H 282.455 3.527 -1.35687 0
M  V30 2697 H 282.768 6.96451 -3.34927 0
M  V30 2698 H 281.113 6.26638 -3.00583 0
M  V30 2699 H 284.304 4.33789 -1.7591 0
M  V30 2700 H 284.477 5.90552 -2.66745 0
M  V30 2701 N 277.883 0.443576 1.51229 0
M  V30 2702 C 279.131 -0.120557 2.0174 0
M  V30 2703 C 279.452 -1.42665 1.32935 0
M  V30 2704 O 278.722 -1.9028 0.465866 0
M  V30 2705 H 277.302 -0.0475426 0.745486 0
M  V30 2706 H 279.964 0.587711 1.85828 0
M  V30 2707 H 279.06 -0.291972 3.10731 0
M  V30 2708 N 279.361 -1.56624 0.175154 0
M  V30 2709 C 280.607 -1.9729 -0.469506 0
M  V30 2710 C 280.94 -1.06128 -1.62636 0
M  V30 2711 O 280.215 -0.109183 -1.94193 0
M  V30 2712 C 280.498 -3.47375 -0.948804 0
M  V30 2713 C 280.351 -4.49317 0.208491 0
M  V30 2714 C 281.67 -4.00652 -1.82116 0
M  V30 2715 H 278.789 -0.717317 -0.16919 0
M  V30 2716 H 281.431 -1.88184 0.262062 0
M  V30 2717 H 279.581 -3.55267 -1.57219 0
M  V30 2718 H 281.253 -4.53482 0.845682 0
M  V30 2719 H 279.496 -4.25121 0.863395 0
M  V30 2720 H 280.167 -5.51741 -0.169059 0
M  V30 2721 H 282.643 -3.95416 -1.2956 0
M  V30 2722 H 281.519 -5.06075 -2.12554 0
M  V30 2723 H 281.78 -3.44699 -2.7683 0
M  V30 2724 N 280.839 0.0985539 -1.57292 0
M  V30 2725 C 281.802 1.10402 -2.00858 0
M  V30 2726 C 282.802 1.33146 -0.901593 0
M  V30 2727 O 283.992 1.29318 -1.16716 0
M  V30 2728 C 281.124 2.45394 -2.36632 0
M  V30 2729 H 282.317 0.729099 -2.90902 0
M  V30 2730 H 279.87 0.343495 -1.52479 0
M  V30 2731 H 280.605 2.87769 -1.49531 0
M  V30 2732 H 280.39 2.30235 -3.17387 0
M  V30 2733 H 281.88 3.17718 -2.71007 0
M  V30 2734 N 282.317 1.53212 0.369288 0
M  V30 2735 C 283.28 1.7872 1.43498 0
M  V30 2736 C 284.28 0.657554 1.46741 0
M  V30 2737 O 285.47 0.925736 1.47566 0
M  V30 2738 C 282.602 1.90591 2.82645 0
M  V30 2739 H 283.795 2.73894 1.22156 0
M  V30 2740 H 281.348 1.44233 0.602203 0
M  V30 2741 H 282.083 0.974709 3.09306 0
M  V30 2742 H 281.868 2.72751 2.8169 0
M  V30 2743 H 283.358 2.11931 3.59826 0
M  V30 2744 N 283.795 -0.628877 1.44509 0
M  V30 2745 C 284.742 -1.74074 1.51549 0
M  V30 2746 C 285.712 -1.62084 0.363021 0
M  V30 2747 O 286.897 -1.81975 0.573567 0
M  V30 2748 C 284.037 -3.12328 1.46784 0
M  V30 2749 C 283.15 -3.35277 2.72422 0
M  V30 2750 C 282.285 -4.63515 2.59475 0
M  V30 2751 C 281.324 -4.7965 3.80266 0
M  V30 2752 N 280.461 -5.99168 3.65981 0
M  V30 2753 H 285.301 -1.67392 2.46544 0
M  V30 2754 H 282.838 -0.816527 1.22357 0
M  V30 2755 H 284.796 -3.92286 1.42012 0
M  V30 2756 H 283.426 -3.18018 0.553544 0
M  V30 2757 H 282.478 -2.49242 2.87372 0
M  V30 2758 H 283.79 -3.43078 3.62076 0
M  V30 2759 H 282.944 -5.51638 2.52548 0
M  V30 2760 H 281.683 -4.58076 1.67384 0
M  V30 2761 H 280.688 -3.89957 3.87574 0
M  V30 2762 H 281.913 -4.86902 4.73395 0
M  V30 2763 H 279.859 -5.94814 2.76644 0
M  V30 2764 H 279.776 -6.08035 4.49254 0
M  V30 2765 H 281.044 -6.89846 3.6295 0
M  V30 2766 N 285.273 -1.31445 -0.869486 0
M  V30 2767 C 286.203 -1.21727 -1.99261 0
M  V30 2768 C 287.184 -0.104359 -1.6978 0
M  V30 2769 O 288.369 -0.289038 -1.92037 0
M  V30 2770 C 285.499 -0.924317 -3.34774 0
M  V30 2771 C 284.453 -1.99685 -3.78563 0
M  V30 2772 C 283.779 -1.55658 -5.11541 0
M  V30 2773 C 285.079 -3.41003 -3.95619 0
M  V30 2774 H 286.773 -2.1569 -2.07649 0
M  V30 2775 H 284.319 -1.03839 -0.997675 0
M  V30 2776 H 286.272 -0.842934 -4.12883 0
M  V30 2777 H 284.996 0.0509793 -3.2656 0
M  V30 2778 H 283.655 -2.06813 -3.02694 0
M  V30 2779 H 283.303 -0.569132 -4.9977 0
M  V30 2780 H 283.003 -2.27409 -5.41811 0
M  V30 2781 H 284.527 -1.48928 -5.92159 0
M  V30 2782 H 285.941 -3.36547 -4.64122 0
M  V30 2783 H 284.338 -4.10975 -4.37286 0
M  V30 2784 H 285.408 -3.81754 -2.98985 0
M  V30 2785 N 286.751 1.08385 -1.14413 0
M  V30 2786 C 287.976 1.85057 -0.936413 0
M  V30 2787 C 288.401 1.81055 0.509971 0
M  V30 2788 O 287.759 1.1958 1.36273 0
M  V30 2789 C 287.807 3.30505 -1.44217 0
M  V30 2790 O 286.911 4.07491 -0.634409 0
M  V30 2791 H 286.252 0.573425 -0.334784 0
M  V30 2792 H 288.782 1.36799 -1.52142 0
M  V30 2793 H 288.792 3.81348 -1.45043 0
M  V30 2794 H 287.467 3.32734 -2.49522 0
M  V30 2795 H 286.044 3.66368 -0.694902 0
M  V30 2796 N 288.23 0.939286 1.26551 0
M  V30 2797 C 289.178 0.43815 2.28436 0
M  V30 2798 C 290.172 -0.483587 1.62351 0
M  V30 2799 O 291.378 -0.362009 1.76322 0
M  V30 2800 H 287.753 0.123149 0.741848 0
M  V30 2801 H 289.724 1.31002 2.68106 0
M  V30 2802 C 288.473 -0.283052 3.46546 0
M  V30 2803 H 287.796 0.417043 3.97619 0
M  V30 2804 H 289.236 -0.597948 4.19763 0
M  V30 2805 C 287.695 -1.50018 3.01656 0
M  V30 2806 O 288.225 -2.59855 3.0633 0
M  V30 2807 N 286.431 -1.35608 2.57019 0
M  V30 2808 H 285.978 -0.46244 2.53415 0
M  V30 2809 H 285.936 -2.17165 2.27347 0
M  V30 2810 N 289.708 -1.40897 0.706093 0
M  V30 2811 C 290.655 -2.30751 0.0474474 0
M  V30 2812 C 291.625 -1.47678 -0.76029 0
M  V30 2813 O 292.81 -1.76441 -0.726177 0
M  V30 2814 C 289.95 -3.33815 -0.875309 0
M  V30 2815 C 289.063 -4.31961 -0.0580623 0
M  V30 2816 C 288.198 -5.22093 -0.979425 0
M  V30 2817 C 287.237 -6.11902 -0.155706 0
M  V30 2818 N 286.374 -6.94482 -1.03144 0
M  V30 2819 H 291.214 -2.86513 0.819413 0
M  V30 2820 H 288.751 -1.41102 0.415783 0
M  V30 2821 H 290.709 -3.92129 -1.42446 0
M  V30 2822 H 289.339 -2.79579 -1.61356 0
M  V30 2823 H 288.391 -3.75507 0.608147 0
M  V30 2824 H 289.703 -4.95415 0.580082 0
M  V30 2825 H 288.857 -5.85292 -1.59744 0
M  V30 2826 H 287.596 -4.5889 -1.65141 0
M  V30 2827 H 286.601 -5.47742 0.475309 0
M  V30 2828 H 287.826 -6.77162 0.512635 0
M  V30 2829 H 285.772 -6.33877 -1.68924 0
M  V30 2830 H 285.689 -7.54665 -0.449108 0
M  V30 2831 H 286.957 -7.6214 -1.63593 0
M  V30 2832 N 291.186 -0.45159 -1.50991 0
M  V30 2833 C 292.463 0.170707 -1.94854 0
M  V30 2834 C 292.843 1.58788 -1.39103 0
M  V30 2835 O 292.191 2.20913 -0.583921 0
M  V30 2836 C 292.401 0.133929 -3.48743 0
M  V30 2837 C 293.749 0.33248 -4.23296 0
M  V30 2838 O 294.773 0.211403 -3.55572 0
M  V30 2839 O 293.632 0.57486 -5.43468 0
M  V30 2840 H 290.726 0.122264 -0.817912 0
M  V30 2841 H 293.272 -0.510594 -1.61836 0
M  V30 2842 H 292.044 -0.856283 -3.81816 0
M  V30 2843 H 291.667 0.857529 -3.88242 0
M  V30 2844 N 292.664 1.56529 -0.183458 0
M  V30 2845 C 293.913 1.96419 0.458511 0
M  V30 2846 C 294.226 1.0727 1.63562 0
M  V30 2847 O 295.432 1.36893 2.34462 0
M  V30 2848 C 293.888 3.49298 0.867122 0
M  V30 2849 C 293.496 4.47092 -0.285057 0
M  V30 2850 C 295.24 3.97983 1.47683 0
M  V30 2851 C 293.147 5.91225 0.143862 0
M  V30 2852 H 292.077 0.733394 0.175071 0
M  V30 2853 H 294.728 1.81448 -0.273624 0
M  V30 2854 H 293.11 3.59731 1.65559 0
M  V30 2855 H 294.284 4.48383 -1.0625 0
M  V30 2856 H 292.599 4.08535 -0.805503 0
M  V30 2857 H 295.196 5.03134 1.80999 0
M  V30 2858 H 295.539 3.41618 2.37914 0
M  V30 2859 H 296.072 3.90617 0.752562 0
M  V30 2860 H 292.811 6.5149 -0.723974 0
M  V30 2861 H 292.331 5.93214 0.886413 0
M  V30 2862 H 294.01 6.44362 0.583628 0
M  V30 2863 N 294.142 -0.090211 1.57342 0
M  V30 2864 C 295.052 -1.12735 2.05738 0
M  V30 2865 C 296.068 -1.43557 0.983231 0
M  V30 2866 O 297.244 -1.54101 1.29672 0
M  V30 2867 C 294.309 -2.42659 2.47624 0
M  V30 2868 C 293.37 -2.18975 3.69254 0
M  V30 2869 C 292.603 -3.42704 4.09133 0
M  V30 2870 O 292.826 -4.51127 3.49057 0
M  V30 2871 O 291.76 -3.32003 5.02053 0
M  V30 2872 H 295.586 -0.746279 2.94388 0
M  V30 2873 H 293.171 -0.303064 1.46294 0
M  V30 2874 H 295.053 -3.19155 2.7517 0
M  V30 2875 H 293.728 -2.80182 1.62109 0
M  V30 2876 H 292.635 -1.40244 3.46818 0
M  V30 2877 H 293.968 -1.86342 4.55563 0
M  V30 2878 N 295.62 -1.53406 -0.361157 0
M  V30 2879 C 296.583 -1.79479 -1.42548 0
M  V30 2880 C 297.583 -0.665327 -1.4639 0
M  V30 2881 O 298.773 -0.933549 -1.47073 0
M  V30 2882 C 295.905 -1.92087 -2.8163 0
M  V30 2883 H 297.098 -2.74538 -1.20701 0
M  V30 2884 H 294.651 -1.4455 -0.594546 0
M  V30 2885 H 295.386 -0.991099 -3.08784 0
M  V30 2886 H 295.171 -2.74241 -2.80239 0
M  V30 2887 H 296.661 -2.13836 -3.58697 0
M  V30 2888 N 297.098 0.621204 -1.44841 0
M  V30 2889 C 298.028 1.74366 -1.55303 0
M  V30 2890 C 299.009 1.65199 -0.405385 0
M  V30 2891 O 300.194 1.83807 -0.626787 0
M  V30 2892 C 297.324 3.12931 -1.50637 0
M  V30 2893 C 296.278 3.36896 -2.63979 0
M  V30 2894 C 295.604 4.75594 -2.44366 0
M  V30 2895 C 296.904 3.28483 -4.06074 0
M  V30 2896 H 298.598 1.65867 -2.49256 0
M  V30 2897 H 296.144 0.796558 -1.19962 0
M  V30 2898 H 298.097 3.9124 -1.56555 0
M  V30 2899 H 296.821 3.22237 -0.532057 0
M  V30 2900 H 295.48 2.60972 -2.57467 0
M  V30 2901 H 295.128 4.81616 -1.45105 0
M  V30 2902 H 294.828 4.92586 -3.20364 0
M  V30 2903 H 296.352 5.5612 -2.52117 0
M  V30 2904 H 297.766 3.96684 -4.13902 0
M  V30 2905 H 296.163 3.57008 -4.82354 0
M  V30 2906 H 297.233 2.26133 -4.28943 0
M  V30 2907 N 298.576 1.31904 0.862503 0
M  V30 2908 C 299.801 1.25135 1.65397 0
M  V30 2909 C 300.226 -0.179 1.87246 0
M  V30 2910 O 299.584 -1.1277 1.4196 0
M  V30 2911 C 299.632 2.00832 2.99498 0
M  V30 2912 O 298.736 1.35075 3.89652 0
M  V30 2913 H 298.077 0.431655 0.504549 0
M  V30 2914 H 300.607 1.74094 1.07483 0
M  V30 2915 H 300.617 2.10709 3.49379 0
M  V30 2916 H 299.292 3.04847 2.82916 0
M  V30 2917 H 297.869 1.33696 3.48109 0
M  V30 2918 N 300.054 -1.07777 1.14986 0
M  V30 2919 C 301.279 -1.84558 0.946213 0
M  V30 2920 C 301.704 -1.81323 -0.500362 0
M  V30 2921 O 301.062 -1.20301 -1.35637 0
M  V30 2922 C 301.11 -3.29736 1.45968 0
M  V30 2923 O 300.214 -4.07149 0.65601 0
M  V30 2924 H 299.555 -0.571641 0.33782 0
M  V30 2925 H 302.085 -1.35991 1.52865 0
M  V30 2926 H 302.095 -3.80574 1.47063 0
M  V30 2927 H 300.77 -3.31406 2.51283 0
M  V30 2928 H 299.347 -3.65994 0.714322 0
M  V30 2929 N 301.532 -0.945985 -1.26051 0
M  V30 2930 C 302.762 -0.612136 -1.97323 0
M  V30 2931 C 303.17 0.818171 -1.70595 0
M  V30 2932 O 302.513 1.55777 -0.973613 0
M  V30 2933 C 302.575 -0.780347 -3.50929 0
M  V30 2934 C 302.239 -2.18619 -4.01317 0
M  V30 2935 C 303.236 -3.16209 -4.12683 0
M  V30 2936 C 300.921 -2.50805 -4.35203 0
M  V30 2937 C 302.915 -4.44085 -4.57238 0
M  V30 2938 C 300.602 -3.78912 -4.79446 0
M  V30 2939 C 301.6 -4.75365 -4.90425 0
M  V30 2940 O 301.288 -6.01191 -5.3369 0
M  V30 2941 H 301.02 -0.229134 -0.635982 0
M  V30 2942 H 303.574 -1.27036 -1.61404 0
M  V30 2943 H 301.804 -0.0649864 -3.86645 0
M  V30 2944 H 303.493 -0.448842 -4.03411 0
M  V30 2945 H 304.259 -2.92668 -3.86744 0
M  V30 2946 H 300.138 -1.76463 -4.2589 0
M  V30 2947 H 303.682 -5.19373 -4.65723 0
M  V30 2948 H 299.579 -4.02265 -5.0483 0
M  V30 2949 H 300.347 -6.04442 -5.51899 0
M  V30 2950 N 303.011 1.40521 -0.713556 0
M  V30 2951 C 304.26 2.00155 -0.249192 0
M  V30 2952 C 304.573 1.57224 1.16362 0
M  V30 2953 O 305.779 2.09542 1.72639 0
M  V30 2954 C 304.235 3.5773 -0.3946 0
M  V30 2955 C 303.843 4.09635 -1.81392 0
M  V30 2956 C 305.587 4.24499 0.00907364 0
M  V30 2957 C 303.494 5.59707 -1.91003 0
M  V30 2958 H 302.424 0.74868 -0.0894114 0
M  V30 2959 H 305.075 1.60784 -0.884352 0
M  V30 2960 H 303.457 3.94792 0.30911 0
M  V30 2961 H 304.631 3.83955 -2.54785 0
M  V30 2962 H 302.946 3.55456 -2.16888 0
M  V30 2963 H 305.543 5.34683 -0.0420404 0
M  V30 2964 H 305.886 4.02824 1.05065 0
M  V30 2965 H 306.419 3.92536 -0.645007 0
M  V30 2966 H 303.158 5.86234 -2.93275 0
M  V30 2967 H 302.678 5.87258 -1.22019 0
M  V30 2968 H 304.357 6.24776 -1.6812 0
M  V30 2969 N 304.489 0.459591 1.5075 0
M  V30 2970 C 305.421 -0.37665 2.26084 0
M  V30 2971 C 306.434 -0.967109 1.30961 0
M  V30 2972 O 307.623 -0.857468 1.56556 0
M  V30 2973 C 304.723 -1.54112 3.01832 0
M  V30 2974 C 303.896 -1.06553 4.24223 0
M  V30 2975 C 302.955 -2.1027 4.82362 0
M  V30 2976 O 301.981 -1.68798 5.43595 0
M  V30 2977 N 303.183 -3.42974 4.68347 0
M  V30 2978 H 305.948 0.269124 2.98489 0
M  V30 2979 H 303.509 0.28972 1.59287 0
M  V30 2980 H 305.501 -2.23165 3.37608 0
M  V30 2981 H 304.071 -2.0918 2.32298 0
M  V30 2982 H 303.291 -0.201274 3.93686 0
M  V30 2983 H 304.579 -0.725516 5.03601 0
M  V30 2984 H 303.977 -3.79385 4.19623 0
M  V30 2985 H 302.534 -4.07858 5.08424 0
M  V30 2986 N 305.967 -1.56429 0.191757 0
M  V30 2987 C 307.215 -1.97095 -0.447006 0
M  V30 2988 C 307.536 -1.07967 -1.62383 0
M  V30 2989 O 306.806 -0.150248 -1.95323 0
M  V30 2990 H 305.386 -0.727832 -0.168135 0
M  V30 2991 H 308.048 -1.92911 0.27771 0
M  V30 2992 H 307.144 -3.01848 -0.793371 0
M  V30 2993 N 307.445 0.0818655 -1.57387 0
M  V30 2994 C 308.375 1.09885 -2.06028 0
M  V30 2995 C 309.356 1.4098 -0.951774 0
M  V30 2996 O 310.541 1.50781 -1.22387 0
M  V30 2997 C 307.671 2.4151 -2.4958 0
M  V30 2998 C 306.625 2.24792 -3.64215 0
M  V30 2999 C 305.951 3.61712 -3.93787 0
M  V30 3000 C 307.251 1.67749 -4.94629 0
M  V30 3001 H 308.945 0.694128 -2.91243 0
M  V30 3002 H 306.491 0.332448 -1.4011 0
M  V30 3003 H 308.444 3.12939 -2.82219 0
M  V30 3004 H 307.168 2.83943 -1.61381 0
M  V30 3005 H 305.827 1.55807 -3.31843 0
M  V30 3006 H 305.475 4.01697 -3.02735 0
M  V30 3007 H 305.175 3.51368 -4.70971 0
M  V30 3008 H 306.699 4.34587 -4.28913 0
M  V30 3009 H 308.113 2.29032 -5.25564 0
M  V30 3010 H 306.51 1.68128 -5.76067 0
M  V30 3011 H 307.58 0.638059 -4.80684 0
M  V30 3012 N 308.923 1.53595 0.353017 0
M  V30 3013 C 309.873 1.77299 1.43349 0
M  V30 3014 C 310.857 0.627884 1.48143 0
M  V30 3015 O 312.049 0.88697 1.53173 0
M  V30 3016 C 309.178 1.97757 2.80619 0
M  V30 3017 C 308.264 3.18305 2.80254 0
M  V30 3018 N 308.655 4.39967 2.49526 0
M  V30 3019 C 306.953 3.19283 3.11407 0
M  V30 3020 C 307.654 5.21772 2.57156 0
M  V30 3021 N 306.63 4.58269 2.92388 0
M  V30 3022 H 310.432 2.68963 1.18474 0
M  V30 3023 H 307.946 1.52391 0.561306 0
M  V30 3024 H 309.943 2.1287 3.58458 0
M  V30 3025 H 308.603 1.07329 3.06448 0
M  V30 3026 H 309.614 4.67482 2.22893 0
M  V30 3027 H 306.291 2.3879 3.4247 0
M  V30 3028 H 307.681 6.2885 2.36638 0
M  V30 3029 O 310.44 -0.498996 1.53598 0
M  V30 3030 H 311.131 -1.15384 1.55584 0
M  V30 END ATOM
M  V30 BEGIN BOND
M  V30 END BOND
M  V30 END CTAB
M  END
$$$$
