drugbank_target|Q52437 Ferredoxin reductase (DB03147)
 OpenBabel12092120233D

  0  0  0     0  0            999 V3000
M  V30 BEGIN CTAB
M  V30 COUNTS 6115 6167 0 0 0
M  V30 BEGIN ATOM
M  V30 1 H -0.908 1.98254 -0.117106 0
M  V30 2 N 0 1.576 0 0
M  V30 3 C 0.933 2.03868 1.02534 0
M  V30 4 C 1.911 0.928543 1.3348 0
M  V30 5 O 3.095 1.19667 1.45644 0
M  V30 6 C 0.222 2.43627 2.35294 0
M  V30 7 C -0.732 3.65373 2.2001 0
M  V30 8 S 0.101 5.13292 1.52614 0
M  V30 9 C 1.257 5.56322 2.86805 0
M  V30 10 H 1.49 2.90518 0.631377 0
M  V30 11 H -0.977 1.52953 0.210867 0
M  V30 12 H 0.981 2.67203 3.11629 0
M  V30 13 H -0.358 1.57376 2.7183 0
M  V30 14 H -1.165 3.90944 3.18086 0
M  V30 15 H -1.563 3.418 1.51819 0
M  V30 16 H 0.729 5.58782 3.83104 0
M  V30 17 H 1.672 6.56266 2.65933 0
M  V30 18 H 2.08 4.83886 2.90714 0
M  V30 19 N 1.4781 -0.272755 1.55222 0
M  V30 20 C 2.7031 -1.02683 1.80197 0
M  V30 21 C 3.1281 -1.79142 0.573551 0
M  V30 22 O 2.4861 -1.74917 -0.476849 0
M  V30 23 C 2.5341 -1.9609 3.02624 0
M  V30 24 O 1.6381 -3.04863 2.77727 0
M  V30 25 H 0.9791 -0.293557 0.595584 0
M  V30 26 H 3.5091 -0.30159 2.02365 0
M  V30 27 H 3.5191 -2.38039 3.31363 0
M  V30 28 H 2.1941 -1.39851 3.91682 0
M  V30 29 H 0.7711 -2.67228 2.60084 0
M  V30 30 N 2.9562 -1.48159 -0.537278 0
M  V30 31 C 3.8882 -1.58218 -1.65831 0
M  V30 32 C 4.9012 -0.466948 -1.5596 0
M  V30 33 O 6.0902 -0.73747 -1.62553 0
M  V30 34 C 3.1902 -1.48906 -3.04434 0
M  V30 35 C 2.3632 -2.75343 -3.3986 0
M  V30 36 C 1.4222 -2.59588 -4.57712 0
M  V30 37 O 0.4482 -3.33457 -4.61297 0
M  V30 38 N 1.6502 -1.68724 -5.55439 0
M  V30 39 H 4.4152 -2.54891 -1.57641 0
M  V30 40 H 1.9762 -1.4479 -0.724386 0
M  V30 41 H 3.9682 -1.36072 -3.81139 0
M  V30 42 H 2.5382 -0.602368 -3.06741 0
M  V30 43 H 1.7582 -3.02795 -2.52406 0
M  V30 44 H 3.0462 -3.5924 -3.60311 0
M  V30 45 H 2.4442 -1.07898 -5.55315 0
M  V30 46 H 1.0012 -1.61832 -6.3139 0
M  V30 47 N 4.4343 0.785586 -1.36625 0
M  V30 48 C 5.3443 1.92964 -1.33425 0
M  V30 49 C 6.3603 1.72394 -0.235851 0
M  V30 50 O 7.5363 1.95866 -0.468878 0
M  V30 51 C 4.6013 3.27884 -1.12662 0
M  V30 52 C 3.6623 3.61204 -2.32013 0
M  V30 53 C 2.8953 4.89687 -2.12231 0
M  V30 54 O 3.1183 5.59704 -1.09945 0
M  V30 55 O 2.0523 5.21752 -3.00098 0
M  V30 56 H 5.8783 1.98613 -2.29753 0
M  V30 57 H 3.4633 0.926384 -1.17211 0
M  V30 58 H 5.3453 4.08614 -1.03016 0
M  V30 59 H 4.0203 3.23118 -0.193991 0
M  V30 60 H 2.9273 2.80765 -2.47228 0
M  V30 61 H 4.2603 3.70698 -3.23796 0
M  V30 62 N 5.9124 1.20967 1.01018 0
M  V30 63 C 6.8754 0.965918 2.07853 0
M  V30 64 C 7.8754 -0.0610545 1.60684 0
M  V30 65 O 9.0654 0.175681 1.73312 0
M  V30 66 C 6.1974 0.455513 3.37843 0
M  V30 67 H 7.3904 1.91365 2.3091 0
M  V30 68 H 4.9434 1.02594 1.17916 0
M  V30 69 H 5.6784 -0.497381 3.20463 0
M  V30 70 H 5.4634 1.19622 3.73407 0
M  V30 71 H 6.9534 0.304667 4.16487 0
M  V30 72 N 7.3905 -1.2043 1.01659 0
M  V30 73 C 8.3205 -2.25466 0.607226 0
M  V30 74 C 9.3015 -1.65853 -0.377716 0
M  V30 75 O 10.4865 -1.92409 -0.263149 0
M  V30 76 C 7.6165 -3.47256 -0.0552949 0
M  V30 77 C 6.5705 -4.19462 0.850632 0
M  V30 78 C 5.8965 -5.34673 0.0538859 0
M  V30 79 C 7.1965 -4.75603 2.15868 0
M  V30 80 H 8.8905 -2.59962 1.48526 0
M  V30 81 H 6.4365 -1.2496 0.715605 0
M  V30 82 H 8.3895 -4.19917 -0.353233 0
M  V30 83 H 7.1135 -3.11924 -0.968045 0
M  V30 84 H 5.7725 -3.48667 1.13257 0
M  V30 85 H 5.4205 -4.95585 -0.860514 0
M  V30 86 H 5.1205 -5.83913 0.657192 0
M  V30 87 H 6.6445 -6.10138 -0.237598 0
M  V30 88 H 8.0585 -5.40083 1.92311 0
M  V30 89 H 6.4555 -5.3528 2.71284 0
M  V30 90 H 7.5255 -3.94346 2.82169 0
M  V30 91 N 8.8686 -0.792821 -1.36206 0
M  V30 92 C 9.8156 -0.191653 -2.30003 0
M  V30 93 C 10.7856 0.666453 -1.52143 0
M  V30 94 O 11.9706 0.61442 -1.80636 0
M  V30 95 C 9.1106 0.664848 -3.38635 0
M  V30 96 C 8.2236 -0.212175 -4.31479 0
M  V30 97 C 7.3586 0.651022 -5.27196 0
M  V30 98 C 6.3976 -0.227247 -6.11678 0
M  V30 99 N 5.5346 0.595127 -6.99573 0
M  V30 100 H 10.3746 -0.996978 -2.80828 0
M  V30 101 H 7.9116 -0.503206 -1.38225 0
M  V30 102 H 9.8696 1.17645 -4.00269 0
M  V30 103 H 8.4996 1.43557 -2.89122 0
M  V30 104 H 7.5516 -0.841777 -3.70969 0
M  V30 105 H 8.8636 -0.888751 -4.90818 0
M  V30 106 H 8.0176 1.2283 -5.94136 0
M  V30 107 H 6.7566 1.36121 -4.68319 0
M  V30 108 H 5.7616 -0.816904 -5.43697 0
M  V30 109 H 6.9866 -0.93509 -6.72631 0
M  V30 110 H 4.9326 1.28955 -6.432 0
M  V30 111 H 4.8496 -0.0236952 -7.55996 0
M  V30 112 H 6.1176 1.15613 -7.70879 0
M  V30 113 N 10.3467 1.47872 -0.545128 0
M  V30 114 C 11.3097 2.28337 0.198717 0
M  V30 115 C 12.3097 1.36255 0.853888 0
M  V30 116 O 13.4997 1.59003 0.711606 0
M  V30 117 C 10.6317 3.15585 1.28915 0
M  V30 118 H 11.8247 2.95567 -0.507941 0
M  V30 119 H 9.3777 1.53362 -0.301616 0
M  V30 120 H 10.1127 2.53019 2.02859 0
M  V30 121 H 9.8977 3.83337 0.824309 0
M  V30 122 H 11.3877 3.76243 1.81194 0
M  V30 123 N 11.8248 0.280983 1.55075 0
M  V30 124 C 13.2358 -0.215629 1.85451 0
M  V30 125 C 13.5868 -1.54991 1.203 0
M  V30 126 O 12.7118 -2.10699 0.493435 0
M  V30 127 C 13.3068 -0.398026 3.36454 0
M  V30 128 C 11.8658 -0.838866 3.66933 0
M  V30 129 C 11.0128 0.064458 2.77225 0
M  V30 130 H 13.9638 0.502601 1.50531 0
M  V30 131 H 13.9848 -1.23569 3.59876 0
M  V30 132 H 13.4968 0.573241 3.83843 0
M  V30 133 H 11.5978 -1.8214 3.25048 0
M  V30 134 H 11.7108 -0.672123 4.74362 0
M  V30 135 H 10.0748 -0.452863 2.50642 0
M  V30 136 H 10.8578 1.03172 3.2743 0
M  V30 137 N 13.3029 -1.57598 0.00835791 0
M  V30 138 C 14.5489 -1.91211 -0.675732 0
M  V30 139 C 14.8819 -0.883139 -1.72958 0
M  V30 140 O 14.1569 0.097016 -1.94258 0
M  V30 141 C 14.4399 -3.35379 -1.31123 0
M  V30 142 C 14.2929 -4.48999 -0.268356 0
M  V30 143 C 15.6119 -3.7912 -2.23508 0
M  V30 144 H 12.7309 -0.695374 -0.244179 0
M  V30 145 H 15.3729 -1.89901 0.0613655 0
M  V30 146 H 13.5229 -3.36626 -1.93946 0
M  V30 147 H 15.1949 -4.59887 0.360844 0
M  V30 148 H 13.4379 -4.31873 0.408482 0
M  V30 149 H 14.1089 -5.46851 -0.752218 0
M  V30 150 H 16.5849 -3.79477 -1.70693 0
M  V30 151 H 15.4609 -4.80729 -2.64936 0
M  V30 152 H 15.7219 -3.13455 -3.11766 0
M  V30 153 N 14.781 0.264519 -1.55364 0
M  V30 154 C 16.027 0.99646 -1.76631 0
M  V30 155 C 16.36 1.85632 -0.570478 0
M  V30 156 O 15.635 1.89647 0.43175 0
M  V30 157 C 15.918 1.87187 -3.07625 0
M  V30 158 C 15.771 1.04138 -4.37579 0
M  V30 159 C 17.09 2.85749 -3.34717 0
M  V30 160 H 14.209 0.360841 -0.642622 0
M  V30 161 H 16.851 0.268218 -1.88097 0
M  V30 162 H 15.001 2.49279 -2.9798 0
M  V30 163 H 16.673 0.440517 -4.59192 0
M  V30 164 H 14.916 0.345115 -4.32425 0
M  V30 165 H 15.587 1.68729 -5.2558 0
M  V30 166 H 18.063 2.33793 -3.4421 0
M  V30 167 H 16.939 3.44136 -4.27623 0
M  V30 168 H 17.2 3.61311 -2.54768 0
M  V30 169 N 16.2591 1.48442 0.529413 0
M  V30 170 C 17.5051 1.5672 1.28711 0
M  V30 171 C 17.8381 0.2406 1.92704 0
M  V30 172 O 17.1131 -0.753454 1.79313 0
M  V30 173 C 17.3961 2.70587 2.37603 0
M  V30 174 C 17.2491 4.12953 1.78297 0
M  V30 175 C 18.5681 2.80212 3.39366 0
M  V30 176 H 15.6871 0.570474 0.466613 0
M  V30 177 H 18.3291 1.80617 0.589706 0
M  V30 178 H 16.4791 2.50342 2.97088 0
M  V30 179 H 18.1511 4.44639 1.22858 0
M  V30 180 H 16.3941 4.19927 1.0883 0
M  V30 181 H 17.0651 4.88448 2.57144 0
M  V30 182 H 19.5411 2.98553 2.89836 0
M  V30 183 H 18.4171 3.61611 4.12951 0
M  V30 184 H 18.6781 1.88393 3.99951 0
M  V30 185 N 17.7372 -0.778329 1.37039 0
M  V30 186 C 18.6672 -1.90546 1.34962 0
M  V30 187 C 19.6482 -1.68681 0.219274 0
M  V30 188 O 20.8332 -1.89634 0.418624 0
M  V30 189 C 17.9632 -3.27734 1.14925 0
M  V30 190 C 16.9172 -3.64147 2.24902 0
M  V30 191 C 16.2432 -4.99806 1.89996 0
M  V30 192 C 17.5432 -3.71579 3.67051 0
M  V30 193 H 19.2372 -1.92541 2.29277 0
M  V30 194 H 16.7832 -0.924948 1.10366 0
M  V30 195 H 18.7362 -4.06215 1.12104 0
M  V30 196 H 17.4602 -3.26154 0.170631 0
M  V30 197 H 16.1192 -2.8797 2.26868 0
M  V30 198 H 15.7672 -4.94759 0.906796 0
M  V30 199 H 15.4672 -5.25139 2.63634 0
M  V30 200 H 16.9912 -5.80694 1.88749 0
M  V30 201 H 18.4052 -4.40227 3.67251 0
M  V30 202 H 16.8022 -4.08405 4.39688 0
M  V30 203 H 17.8722 -2.72404 4.01154 0
M  V30 204 N 19.2153 -1.21501 -1.00376 0
M  V30 205 C 20.4633 -1.03095 -1.73827 0
M  V30 206 C 20.7843 0.436341 -1.90055 0
M  V30 207 O 20.0543 1.31466 -1.45236 0
M  V30 208 H 18.6343 -0.378487 -0.644016 0
M  V30 209 H 21.2963 -1.52831 -1.20949 0
M  V30 210 H 20.3923 -1.49991 -2.73695 0
M  V30 211 N 20.6934 1.19889 -1.02296 0
M  V30 212 C 21.6564 2.21116 -0.603351 0
M  V30 213 C 22.6564 1.5738 0.329884 0
M  V30 214 O 23.8464 1.73802 0.117702 0
M  V30 215 C 20.9784 3.40696 0.117992 0
M  V30 216 H 22.1714 2.59754 -1.49893 0
M  V30 217 H 19.7244 1.33463 -0.813468 0
M  V30 218 H 20.4594 3.07569 1.0282 0
M  V30 219 H 20.2444 3.88188 -0.552511 0
M  V30 220 H 21.7344 4.15692 0.398696 0
M  V30 221 N 22.1715 0.800033 1.35784 0
M  V30 222 C 23.4195 0.376597 1.9856 0
M  V30 223 C 23.7405 -1.05812 1.63795 0
M  V30 224 O 23.0105 -1.73103 0.917171 0
M  V30 225 H 21.5905 0.136261 0.734467 0
M  V30 226 H 24.2525 1.02442 1.65806 0
M  V30 227 H 23.3485 0.477002 3.08433 0
M  V30 228 N 23.6496 -1.47581 0.552962 0
M  V30 229 C 24.5796 -2.32762 -0.185451 0
M  V30 230 C 25.5606 -1.43527 -0.912905 0
M  V30 231 O 26.7456 -1.72388 -0.894201 0
M  V30 232 C 23.8756 -3.25219 -1.21859 0
M  V30 233 C 22.8296 -4.23661 -0.607864 0
M  V30 234 C 22.1556 -5.05413 -1.74533 0
M  V30 235 C 23.4556 -5.20481 0.435582 0
M  V30 236 H 25.1496 -2.94749 0.525684 0
M  V30 237 H 22.6956 -1.41738 0.254251 0
M  V30 238 H 24.6486 -3.8365 -1.7433 0
M  V30 239 H 23.3726 -2.61279 -1.95961 0
M  V30 240 H 22.0316 -3.66451 -0.104489 0
M  V30 241 H 21.6796 -4.3788 -2.47529 0
M  V30 242 H 21.3796 -5.72059 -1.34249 0
M  V30 243 H 22.9036 -5.66701 -2.27338 0
M  V30 244 H 24.3176 -5.733 -0.00290157 0
M  V30 245 H 22.7146 -5.95305 0.757067 0
M  V30 246 H 23.7846 -4.66217 1.33303 0
M  V30 247 N 25.1277 -0.289203 -1.54924 0
M  V30 248 C 26.0907 0.579144 -2.21762 0
M  V30 249 C 27.0907 1.07047 -1.1999 0
M  V30 250 O 28.2807 0.968384 -1.44803 0
M  V30 251 C 25.4127 1.80055 -2.8947 0
M  V30 252 H 26.6057 -0.00464908 -2.999 0
M  V30 253 H 24.1587 -0.0399306 -1.56249 0
M  V30 254 H 24.8937 2.42449 -2.15381 0
M  V30 255 H 24.6787 1.45602 -3.64064 0
M  V30 256 H 26.1687 2.41773 -3.40493 0
M  V30 257 N 26.6058 1.57591 -0.0167156 0
M  V30 258 C 27.8308 1.9598 0.67872 0
M  V30 259 C 28.2558 0.892546 1.65575 0
M  V30 260 O 27.6138 -0.147772 1.80697 0
M  V30 261 C 27.6618 3.33468 1.37227 0
M  V30 262 O 26.7658 3.28954 2.48722 0
M  V30 263 H 26.1068 0.639339 0.17928 0
M  V30 264 H 28.6368 2.04463 -0.0748802 0
M  V30 265 H 28.6468 3.69417 1.7319 0
M  V30 266 H 27.3218 4.10694 0.656007 0
M  V30 267 H 25.8988 3.04705 2.14963 0
M  V30 268 N 28.0839 -0.256276 1.55502 0
M  V30 269 C 29.3299 -0.987079 1.77157 0
M  V30 270 C 29.6629 -1.85327 0.580315 0
M  V30 271 O 28.9379 -1.89874 -0.421686 0
M  V30 272 C 29.2209 -1.85553 3.08613 0
M  V30 273 C 29.0739 -1.01816 4.38125 0
M  V30 274 C 30.3929 -2.8397 3.36228 0
M  V30 275 H 27.5119 -0.357428 0.644526 0
M  V30 276 H 30.1539 -0.258239 1.88237 0
M  V30 277 H 28.3039 -2.47695 2.99298 0
M  V30 278 H 29.9759 -0.416159 4.59419 0
M  V30 279 H 28.2189 -0.322178 4.32602 0
M  V30 280 H 28.8899 -1.65939 5.26468 0
M  V30 281 H 31.3659 -2.31964 3.45445 0
M  V30 282 H 30.2419 -3.41864 4.29442 0
M  V30 283 H 30.5029 -3.59955 2.56681 0
M  V30 284 N 29.562 -1.4872 -0.521534 0
M  V30 285 C 30.787 -1.61101 -1.30618 0
M  V30 286 C 31.212 -0.274611 -1.86085 0
M  V30 287 O 30.57 0.754937 -1.64834 0
M  V30 288 C 30.618 -2.66709 -2.4269 0
M  V30 289 O 29.722 -2.24456 -3.45967 0
M  V30 290 H 29.063 -0.539921 -0.386499 0
M  V30 291 H 31.593 -1.94767 -0.626645 0
M  V30 292 H 31.603 -2.88245 -2.88754 0
M  V30 293 H 30.278 -3.63727 -2.01682 0
M  V30 294 H 28.855 -2.13168 -3.05964 0
M  V30 295 N 31.0401 0.771051 -1.3745 0
M  V30 296 C 32.2871 1.52963 -1.32697 0
M  V30 297 C 32.6151 1.94299 0.0883274 0
M  V30 298 O 31.8701 1.64397 1.0617 0
M  V30 299 C 32.1691 2.80676 -2.2126 0
M  V30 300 C 31.8351 2.58389 -3.69521 0
M  V30 301 C 30.4971 2.52019 -4.09927 0
M  V30 302 C 32.8491 2.38469 -4.63446 0
M  V30 303 C 30.1771 2.23721 -5.42371 0
M  V30 304 C 32.5291 2.11694 -5.96128 0
M  V30 305 C 31.1931 2.03769 -6.35637 0
M  V30 306 H 30.4631 0.559732 -0.485573 0
M  V30 307 H 33.1101 0.888083 -1.69662 0
M  V30 308 H 31.4151 3.49392 -1.77291 0
M  V30 309 H 33.1121 3.38557 -2.14895 0
M  V30 310 H 29.7021 2.6421 -3.37478 0
M  V30 311 H 33.8861 2.4238 -4.33089 0
M  V30 312 H 29.1421 2.16081 -5.71943 0
M  V30 313 H 33.3161 1.9528 -6.6846 0
M  V30 314 H 30.9431 1.81606 -7.38189 0
M  V30 315 N 32.5182 1.22032 0.997298 0
M  V30 316 C 33.7642 1.04376 1.73878 0
M  V30 317 C 34.0972 -0.420716 1.89588 0
M  V30 318 O 33.3722 -1.31202 1.43583 0
M  V30 319 C 33.6552 1.75047 3.14691 0
M  V30 320 C 33.5082 3.29062 3.06656 0
M  V30 321 C 34.8272 1.49928 4.13775 0
M  V30 322 H 31.9462 0.380578 0.631133 0
M  V30 323 H 34.5882 1.50312 1.16217 0
M  V30 324 H 32.7382 1.35996 3.63919 0
M  V30 325 H 34.4102 3.7753 2.65083 0
M  V30 326 H 32.6532 3.58967 2.43568 0
M  V30 327 H 33.3242 3.73683 4.06282 0
M  V30 328 H 35.8002 1.83842 3.73285 0
M  V30 329 H 34.6762 2.01878 5.10428 0
M  V30 330 H 34.9372 0.430929 4.39995 0
M  V30 331 N 33.9963 -1.19345 1.0293 0
M  V30 332 C 34.9593 -2.20793 0.615069 0
M  V30 333 C 35.9593 -1.57553 -0.321533 0
M  V30 334 O 37.1493 -1.73862 -0.108483 0
M  V30 335 C 34.2813 -3.40754 -0.0999222 0
M  V30 336 H 35.4743 -2.58955 1.51269 0
M  V30 337 H 33.0273 -1.3303 0.820534 0
M  V30 338 H 33.7623 -3.0811 -1.01187 0
M  V30 339 H 33.5473 -3.87889 0.57309 0
M  V30 340 H 35.0373 -4.15898 -0.376645 0
M  V30 341 N 35.4744 -0.807222 -1.35358 0
M  V30 342 C 36.3844 -0.219594 -2.3357 0
M  V30 343 C 37.4004 0.637734 -1.61892 0
M  V30 344 O 38.5764 0.549336 -1.93763 0
M  V30 345 C 35.6414 0.62158 -3.41083 0
M  V30 346 C 34.7024 -0.256315 -4.28534 0
M  V30 347 C 33.9354 0.544807 -5.30912 0
M  V30 348 O 34.1584 1.77944 -5.41934 0
M  V30 349 O 33.0924 -0.0646478 -6.01865 0
M  V30 350 H 36.9184 -1.03208 -2.85625 0
M  V30 351 H 34.5034 -0.569025 -1.38139 0
M  V30 352 H 36.3854 1.10067 -4.06772 0
M  V30 353 H 35.0604 1.41165 -2.91297 0
M  V30 354 H 33.9674 -0.782559 -3.65823 0
M  V30 355 H 35.3004 -1.01034 -4.81719 0
M  V30 356 N 36.9525 1.47285 -0.560781 0
M  V30 357 C 37.8825 2.32857 0.173105 0
M  V30 358 C 38.8635 1.44009 0.905281 0
M  V30 359 O 40.0485 1.7286 0.885046 0
M  V30 360 C 37.1785 3.25861 1.20133 0
M  V30 361 C 36.1325 4.23978 0.585388 0
M  V30 362 C 35.4585 5.06332 1.7185 0
M  V30 363 C 36.7585 5.20242 -0.463178 0
M  V30 364 H 38.4525 2.94466 -0.541307 0
M  V30 365 H 35.9985 1.41601 -0.261764 0
M  V30 366 H 37.9515 3.84569 1.72293 0
M  V30 367 H 36.6755 2.62315 1.94573 0
M  V30 368 H 35.3345 3.66501 0.085054 0
M  V30 369 H 34.9825 4.39186 2.45203 0
M  V30 370 H 34.6825 5.72762 1.31213 0
M  V30 371 H 36.2065 5.67899 2.24329 0
M  V30 372 H 37.6205 5.73293 -0.027502 0
M  V30 373 H 36.0175 5.94896 -0.788627 0
M  V30 374 H 37.0875 4.65504 -1.35773 0
M  V30 375 N 38.4306 0.297415 1.54768 0
M  V30 376 C 39.8466 -0.0560823 1.59501 0
M  V30 377 C 40.0466 -1.52725 1.31444 0
M  V30 378 O 39.1026 -2.27947 1.08611 0
M  V30 379 C 40.4156 0.338631 2.98787 0
M  V30 380 C 41.9636 0.287097 3.11681 0
M  V30 381 C 42.4386 0.656579 4.53269 0
M  V30 382 N 43.9296 0.608977 4.59179 0
M  V30 383 C 44.6646 0.867385 5.66802 0
M  V30 384 N 44.1606 1.19157 6.82476 0
M  V30 385 N 45.9536 0.794687 5.56454 0
M  V30 386 H 38.1046 1.25624 1.71267 0
M  V30 387 H 40.3676 0.509057 0.799728 0
M  V30 388 H 40.0736 1.36263 3.2423 0
M  V30 389 H 39.9476 -0.309508 3.75928 0
M  V30 390 H 42.3346 -0.727649 2.85988 0
M  V30 391 H 42.4156 0.969809 2.36703 0
M  V30 392 H 42.0596 1.66912 4.7969 0
M  V30 393 H 41.9896 -0.0481649 5.26578 0
M  V30 394 H 44.4806 0.369198 3.76092 0
M  V30 395 H 44.7936 1.37482 7.60473 0
M  V30 396 H 43.1386 1.22958 6.84037 0
M  V30 397 H 46.3296 0.541098 4.64962 0
M  V30 398 H 46.5026 0.999445 6.40246 0
M  V30 399 N 39.9087 -1.5758 0.0250728 0
M  V30 400 C 40.8407 -2.06869 -0.986796 0
M  V30 401 C 41.8537 -0.991332 -1.29137 0
M  V30 402 O 43.0427 -1.26761 -1.25674 0
M  V30 403 C 40.1427 -2.47486 -2.31525 0
M  V30 404 C 39.3157 -3.78253 -2.19643 0
M  V30 405 C 38.3747 -4.05464 -3.35388 0
M  V30 406 O 37.4007 -4.75774 -3.12454 0
M  V30 407 N 38.6027 -3.55321 -4.59051 0
M  V30 408 H 41.3677 -2.94302 -0.566276 0
M  V30 409 H 38.9287 -1.6109 -0.161776 0
M  V30 410 H 40.9207 -2.62785 -3.07776 0
M  V30 411 H 39.4907 -1.65441 -2.65232 0
M  V30 412 H 38.7107 -3.7279 -1.28144 0
M  V30 413 H 39.9987 -4.63936 -2.08903 0
M  V30 414 H 39.3967 -2.98431 -4.80578 0
M  V30 415 H 37.9537 -3.75905 -5.32483 0
M  V30 416 N 41.3868 0.248026 -1.55636 0
M  V30 417 C 42.3498 1.29044 -1.89421 0
M  V30 418 C 43.3498 1.41134 -0.770581 0
M  V30 419 O 44.5398 1.39854 -1.03858 0
M  V30 420 C 41.6718 2.66831 -2.12165 0
M  V30 421 H 42.8648 1.00305 -2.82629 0
M  V30 422 H 40.4178 0.487265 -1.48511 0
M  V30 423 H 41.1528 3.00711 -1.21422 0
M  V30 424 H 40.9378 2.59438 -2.93997 0
M  V30 425 H 42.4278 3.42103 -2.3949 0
M  V30 426 N 42.8649 1.48995 0.513639 0
M  V30 427 C 44.1129 1.57531 1.26604 0
M  V30 428 C 44.4339 0.258236 1.93283 0
M  V30 429 O 43.7039 -0.721502 1.8213 0
M  V30 430 H 42.2839 0.580387 0.470276 0
M  V30 431 H 44.9459 1.85552 0.596373 0
M  V30 432 H 44.0419 2.36486 2.03669 0
M  V30 433 N 44.343 -0.763751 1.37857 0
M  V30 434 C 45.573 -1.55067 1.3652 0
M  V30 435 C 45.981 -1.89135 -0.0494227 0
M  V30 436 O 45.324 -1.52529 -1.02375 0
M  V30 437 C 45.386 -2.8838 2.14656 0
M  V30 438 C 45.05 -2.76905 3.63555 0
M  V30 439 C 46.047 -2.4739 4.57268 0
M  V30 440 C 43.732 -2.94676 4.06781 0
M  V30 441 C 45.726 -2.35786 5.92186 0
M  V30 442 C 43.413 -2.82692 5.41782 0
M  V30 443 C 44.411 -2.53289 6.34298 0
M  V30 444 O 44.099 -2.41345 7.66817 0
M  V30 445 H 43.831 -0.486776 0.469069 0
M  V30 446 H 46.385 -0.953812 1.81911 0
M  V30 447 H 44.615 -3.50217 1.63967 0
M  V30 448 H 46.304 -3.49828 2.05852 0
M  V30 449 H 47.07 -2.33339 4.2518 0
M  V30 450 H 42.949 -3.16563 3.35126 0
M  V30 451 H 46.493 -2.12757 6.64365 0
M  V30 452 H 42.39 -2.96314 5.7347 0
M  V30 453 H 43.158 -2.56634 7.77226 0
M  V30 454 N 45.8211 -1.22559 -0.990812 0
M  V30 455 C 46.7531 -0.955325 -2.08342 0
M  V30 456 C 47.7661 0.0668408 -1.62663 0
M  V30 457 O 48.9551 -0.167421 -1.77713 0
M  V30 458 C 46.0551 -0.415566 -3.36342 0
M  V30 459 C 45.2281 -1.49544 -4.11042 0
M  V30 460 C 44.2871 -0.962399 -5.17324 0
M  V30 461 O 43.3131 -1.64907 -5.44788 0
M  V30 462 N 44.5151 0.215134 -5.80101 0
M  V30 463 H 47.2801 -1.89596 -2.32106 0
M  V30 464 H 44.8411 -1.13276 -1.15673 0
M  V30 465 H 46.8331 -0.0442386 -4.04676 0
M  V30 466 H 45.4031 0.430232 -3.09625 0
M  V30 467 H 44.6231 -2.04 -3.37309 0
M  V30 468 H 45.9111 -2.22195 -4.57719 0
M  V30 469 H 45.3091 0.789779 -5.6016 0
M  V30 470 H 43.8661 0.527826 -6.49659 0
M  V30 471 N 47.2992 1.18797 -1.03562 0
M  V30 472 C 48.5472 1.88278 -0.734569 0
M  V30 473 C 48.8682 1.8043 0.739586 0
M  V30 474 O 48.1382 1.21925 1.53333 0
M  V30 475 H 46.7182 0.696991 -0.268725 0
M  V30 476 H 49.3802 1.44192 -1.31129 0
M  V30 477 H 48.4762 2.94443 -1.03489 0
M  V30 478 N 48.7773 0.814389 1.34928 0
M  V30 479 C 49.7073 0.244827 2.32213 0
M  V30 480 C 50.6883 -0.634024 1.57842 0
M  V30 481 O 51.8733 -0.562676 1.8587 0
M  V30 482 C 49.0033 -0.601106 3.42058 0
M  V30 483 C 47.9573 0.179896 4.27622 0
M  V30 484 C 47.2833 -0.788237 5.28858 0
M  V30 485 C 48.5833 1.38329 5.03649 0
M  V30 486 H 50.2773 1.05763 2.80097 0
M  V30 487 H 47.8233 0.510029 1.34665 0
M  V30 488 H 49.7763 -1.00968 4.09125 0
M  V30 489 H 48.5003 -1.44688 2.92802 0
M  V30 490 H 47.1593 0.569739 3.62146 0
M  V30 491 H 46.8073 -1.62973 4.75866 0
M  V30 492 H 46.5073 -0.269942 5.8698 0
M  V30 493 H 48.0313 -1.19485 5.98795 0
M  V30 494 H 49.4453 1.04918 5.63618 0
M  V30 495 H 47.8423 1.83662 5.71304 0
M  V30 496 H 48.9123 2.16592 4.33839 0
M  V30 497 N 50.2554 -1.46986 0.568584 0
M  V30 498 C 51.5044 -2.01646 0.0465894 0
M  V30 499 C 51.8174 -1.44721 -1.31587 0
M  V30 500 O 53.0234 -1.91113 -1.92842 0
M  V30 501 C 51.4794 -3.59885 0.032752 0
M  V30 502 C 51.0874 -4.25804 1.39266 0
M  V30 503 C 52.8314 -4.22255 -0.436038 0
M  V30 504 C 50.7384 -5.76081 1.33732 0
M  V30 505 H 49.6684 -0.753876 0.013647 0
M  V30 506 H 52.3194 -1.68864 0.718131 0
M  V30 507 H 50.7014 -3.8968 -0.704669 0
M  V30 508 H 51.8754 -4.07637 2.1487 0
M  V30 509 H 50.1904 -3.7547 1.80032 0
M  V30 510 H 52.7874 -5.32394 -0.49602 0
M  V30 511 H 53.1304 -3.90212 -1.45053 0
M  V30 512 H 53.6634 -3.97033 0.246877 0
M  V30 513 H 50.4024 -6.12761 2.32817 0
M  V30 514 H 49.9224 -5.96553 0.623267 0
M  V30 515 H 51.6014 -6.38518 1.0442 0
M  V30 516 N 51.7335 -0.305618 -1.54608 0
M  V30 517 C 52.9615 0.304775 -2.04643 0
M  V30 518 C 53.3765 1.47167 -1.18268 0
M  V30 519 O 52.7335 1.81296 -0.209328 0
M  V30 520 C 52.7845 0.756564 -3.53495 0
M  V30 521 O 52.5055 -0.36389 -4.36586 0
M  V30 522 C 54.0065 1.43163 -4.19546 0
M  V30 523 H 51.2265 0.0655481 -0.667791 0
M  V30 524 H 53.7705 -0.446592 -1.99564 0
M  V30 525 H 51.9255 1.45794 -3.58919 0
M  V30 526 H 52.3395 -0.0113121 -5.24499 0
M  V30 527 H 53.8135 1.69886 -5.25207 0
M  V30 528 H 54.2905 2.37318 -3.69563 0
M  V30 529 H 54.8965 0.773307 -4.18211 0
M  V30 530 N 53.2116 1.57565 -0.0334293 0
M  V30 531 C 54.4576 1.92262 0.645226 0
M  V30 532 C 54.7906 0.910543 1.71531 0
M  V30 533 O 54.0656 -0.066099 1.94388 0
M  V30 534 C 54.3486 3.37422 1.2577 0
M  V30 535 C 54.2016 4.49369 0.196891 0
M  V30 536 C 55.5206 3.82628 2.17449 0
M  V30 537 H 52.6396 0.699171 0.233085 0
M  V30 538 H 55.2816 1.89779 -0.0915694 0
M  V30 539 H 53.4316 3.39669 1.88566 0
M  V30 540 H 55.1036 4.59254 -0.433962 0
M  V30 541 H 53.3466 4.31168 -0.477137 0
M  V30 542 H 54.0176 5.47978 0.665124 0
M  V30 543 H 56.4936 3.82145 1.64634 0
M  V30 544 H 55.3696 4.84883 2.57254 0
M  V30 545 H 55.6306 3.18376 3.0674 0
M  V30 546 N 54.6897 -0.239769 1.55765 0
M  V30 547 C 55.9357 -0.968234 1.78194 0
M  V30 548 C 56.2687 -1.84701 0.599938 0
M  V30 549 O 55.5437 -1.9031 -0.401524 0
M  V30 550 C 55.8267 -1.8227 3.10564 0
M  V30 551 C 55.6797 -0.971633 4.3918 0
M  V30 552 C 56.9987 -2.80388 3.39221 0
M  V30 553 H 54.1177 -0.350572 0.648281 0
M  V30 554 H 56.7597 -0.238259 1.885 0
M  V30 555 H 54.9097 -2.44507 3.01908 0
M  V30 556 H 56.5817 -0.367408 4.59835 0
M  V30 557 H 54.8247 -0.276276 4.32919 0
M  V30 558 H 55.4957 -1.60346 5.28198 0
M  V30 559 H 57.9717 -2.28287 3.47885 0
M  V30 560 H 56.8477 -3.3729 4.33044 0
M  V30 561 H 57.1087 -3.57212 2.60484 0
M  V30 562 N 56.1678 -1.49265 -0.50573 0
M  V30 563 C 57.4158 -1.582 -1.25766 0
M  V30 564 C 57.7368 -0.268482 -1.93143 0
M  V30 565 O 57.0068 0.711833 -1.8251 0
M  V30 566 H 55.5868 -0.582873 -0.467191 0
M  V30 567 H 58.2488 -1.85865 -0.586525 0
M  V30 568 H 57.3448 -2.37563 -2.02412 0
M  V30 569 N 57.6459 0.756429 -1.3826 0
M  V30 570 C 58.9229 1.50584 -1.24835 0
M  V30 571 C 59.3029 2.10556 0.151485 0
M  V30 572 O 58.6509 1.96825 1.1607 0
M  V30 573 C 58.8609 2.57448 -2.3563 0
M  V30 574 C 60.2089 3.24429 -2.73917 0
M  V30 575 O 61.2329 2.67751 -2.34921 0
M  V30 576 O 60.0919 4.26937 -3.41156 0
M  V30 577 H 57.1859 0.667664 -0.48801 0
M  V30 578 H 59.7319 0.792083 -1.5008 0
M  V30 579 H 58.5039 2.11362 -3.29305 0
M  V30 580 H 58.1269 3.36408 -2.11933 0
M  V30 581 N 59.124 1.23083 0.984299 0
M  V30 582 C 60.034 1.02515 2.11016 0
M  V30 583 C 61.05 -0.0291702 1.73976 0
M  V30 584 O 62.226 0.165434 2.00719 0
M  V30 585 C 59.291 0.614673 3.41208 0
M  V30 586 C 58.352 1.74359 3.92297 0
M  V30 587 C 57.585 1.35261 5.16275 0
M  V30 588 O 57.808 0.235136 5.69915 0
M  V30 589 O 56.742 2.17227 5.61334 0
M  V30 590 H 60.568 1.96862 2.31255 0
M  V30 591 H 58.153 1.01753 1.09392 0
M  V30 592 H 60.035 0.396518 4.1953 0
M  V30 593 H 58.71 -0.299851 3.22308 0
M  V30 594 H 57.617 2.01635 3.1511 0
M  V30 595 H 58.95 2.63629 4.15645 0
M  V30 596 N 60.6021 -1.18246 1.0419 0
M  V30 597 C 61.5651 -2.20128 0.638452 0
M  V30 598 C 62.5651 -1.57885 -0.304805 0
M  V30 599 O 63.7551 -1.73967 -0.0900369 0
M  V30 600 C 60.8871 -3.4084 -0.0637751 0
M  V30 601 H 62.0801 -2.57336 1.54007 0
M  V30 602 H 59.6331 -1.32152 0.834598 0
M  V30 603 H 60.3681 -3.09166 -0.979136 0
M  V30 604 H 60.1531 -3.8726 0.614198 0
M  V30 605 H 61.6431 -4.16274 -0.332512 0
M  V30 606 N 62.0802 -0.821533 -1.34494 0
M  V30 607 C 62.9902 -0.244355 -2.33324 0
M  V30 608 C 64.0062 0.620527 -1.62559 0
M  V30 609 O 65.1822 0.528754 -1.94335 0
M  V30 610 C 62.2472 0.585368 -3.41723 0
M  V30 611 C 61.3082 -0.301752 -4.28238 0
M  V30 612 C 60.5412 0.488466 -5.3146 0
M  V30 613 O 60.7642 1.72186 -5.4379 0
M  V30 614 O 59.6982 -0.12848 -6.01763 0
M  V30 615 H 63.5242 -1.06231 -2.84515 0
M  V30 616 H 61.1092 -0.583645 -1.37528 0
M  V30 617 H 62.9912 1.05747 -4.07916 0
M  V30 618 H 61.6662 1.38068 -2.92778 0
M  V30 619 H 60.5732 -0.821315 -3.64973 0
M  V30 620 H 61.9062 -1.06138 -4.8062 0
M  V30 621 N 63.5583 1.46682 -0.576371 0
M  V30 622 C 64.9743 1.57822 -0.237562 0
M  V30 623 C 65.1743 1.57237 1.26011 0
M  V30 624 O 64.2303 1.48596 2.04146 0
M  V30 625 C 65.5433 2.87499 -0.881168 0
M  V30 626 C 67.0913 3.01119 -0.85417 0
M  V30 627 C 67.5663 4.33524 -1.4772 0
M  V30 628 N 69.0573 4.40207 -1.44125 0
M  V30 629 C 69.7923 5.4126 -1.89276 0
M  V30 630 N 69.2883 6.49021 -2.42371 0
M  V30 631 N 71.0813 5.32422 -1.80231 0
M  V30 632 H 63.2323 1.45306 -1.54919 0
M  V30 633 H 65.4953 0.692733 -0.647167 0
M  V30 634 H 65.2013 2.9372 -1.93447 0
M  V30 635 H 65.0753 3.75224 -0.385592 0
M  V30 636 H 67.4623 2.94485 0.190491 0
M  V30 637 H 67.5433 2.14887 -1.3877 0
M  V30 638 H 67.1873 4.40916 -2.52103 0
M  V30 639 H 67.1173 5.1852 -0.918947 0
M  V30 640 H 69.6083 3.62931 -1.05307 0
M  V30 641 H 69.9213 7.2233 -2.74698 0
M  V30 642 H 68.2663 6.49858 -2.46393 0
M  V30 643 H 71.4573 4.47137 -1.38514 0
M  V30 644 H 71.6303 6.11034 -2.15735 0
M  V30 645 N 65.0364 0.313813 1.54444 0
M  V30 646 C 66.4474 -0.176243 1.85866 0
M  V30 647 C 66.7984 -1.52405 1.23561 0
M  V30 648 O 65.9234 -2.09605 0.538016 0
M  V30 649 C 66.5184 -0.32657 3.37222 0
M  V30 650 C 65.0774 -0.760846 3.6863 0
M  V30 651 C 64.2244 0.123247 2.77026 0
M  V30 652 H 67.1754 0.534418 1.49431 0
M  V30 653 H 67.1964 -1.15908 3.62416 0
M  V30 654 H 66.7084 0.654531 3.82541 0
M  V30 655 H 64.8094 -1.75204 3.28838 0
M  V30 656 H 64.9224 -0.571353 4.75681 0
M  V30 657 H 63.2864 -0.399597 2.51546 0
M  V30 658 H 64.0694 1.10094 3.25168 0
M  V30 659 N 66.5145 -1.57545 0.0417849 0
M  V30 660 C 67.7445 -1.96339 -0.642995 0
M  V30 661 C 68.1525 -0.917536 -1.65463 0
M  V30 662 O 67.4955 0.107747 -1.83384 0
M  V30 663 C 67.5575 -3.31333 -1.39494 0
M  V30 664 C 67.2215 -4.53796 -0.540204 0
M  V30 665 C 68.2185 -5.19553 0.189806 0
M  V30 666 C 65.9035 -5.0006 -0.473886 0
M  V30 667 C 67.8975 -6.29904 0.974674 0
M  V30 668 C 65.5845 -6.10289 0.314677 0
M  V30 669 C 66.5825 -6.75072 1.03765 0
M  V30 670 O 66.2705 -7.83183 1.81327 0
M  V30 671 H 66.0025 -0.651241 -0.181277 0
M  V30 672 H 68.5565 -2.05148 0.101665 0
M  V30 673 H 66.7865 -3.19052 -2.18502 0
M  V30 674 H 68.4755 -3.54942 -1.96904 0
M  V30 675 H 69.2415 -4.84774 0.147981 0
M  V30 676 H 65.1205 -4.49433 -1.0262 0
M  V30 677 H 68.6645 -6.80401 1.5395 0
M  V30 678 H 64.5615 -6.44506 0.358174 0
M  V30 679 H 65.3295 -7.99913 1.73438 0
M  V30 680 N 67.9926 0.231505 -1.5589 0
M  V30 681 C 69.2696 0.981096 -1.69215 0
M  V30 682 C 69.6496 2.02799 -0.586164 0
M  V30 683 O 68.9976 2.24823 0.408253 0
M  V30 684 C 69.2076 1.60054 -3.10135 0
M  V30 685 C 70.5556 2.09658 -3.69227 0
M  V30 686 O 71.5796 1.69967 -3.13033 0
M  V30 687 O 70.4386 2.8258 -4.67772 0
M  V30 688 H 67.5326 0.457653 -0.688827 0
M  V30 689 H 70.0786 0.224073 -1.68214 0
M  V30 690 H 68.8506 0.844105 -3.82087 0
M  V30 691 H 68.4736 2.42336 -3.15212 0
M  V30 692 N 69.4707 1.49531 0.497807 0
M  V30 693 C 70.8867 1.36365 0.829266 0
M  V30 694 C 71.0867 0.399184 1.97506 0
M  V30 695 O 70.1427 -0.167977 2.51941 0
M  V30 696 C 71.4557 2.77153 1.16647 0
M  V30 697 C 73.0037 2.85877 1.27449 0
M  V30 698 C 73.4787 4.2744 1.64497 0
M  V30 699 N 74.9697 4.30265 1.7154 0
M  V30 700 C 75.7047 5.3677 2.01656 0
M  V30 701 N 75.2007 6.53516 2.29976 0
M  V30 702 N 76.9937 5.24189 2.02934 0
M  V30 703 H 69.1447 2.10831 -0.257703 0
M  V30 704 H 71.4077 0.946534 -0.0527091 0
M  V30 705 H 71.1137 3.49442 0.397872 0
M  V30 706 H 70.9877 3.12722 2.10915 0
M  V30 707 H 73.3747 2.13824 2.0338 0
M  V30 708 H 73.4557 2.53887 0.312244 0
M  V30 709 H 73.0997 5.00021 0.891151 0
M  V30 710 H 73.0297 4.56896 2.61827 0
M  V30 711 H 75.5207 3.4607 1.51802 0
M  V30 712 H 75.8337 7.30506 2.52153 0
M  V30 713 H 74.1787 6.56737 2.27425 0
M  V30 714 H 77.3697 4.31988 1.80289 0
M  V30 715 H 77.5427 6.07286 2.26071 0
M  V30 716 N 70.9488 -0.749086 1.3866 0
M  V30 717 C 72.3598 -1.32664 1.31366 0
M  V30 718 C 72.7108 -1.96179 -0.028484 0
M  V30 719 O 71.8358 -1.9537 -0.93057 0
M  V30 720 C 72.4308 -2.41219 2.37905 0
M  V30 721 C 70.9898 -2.94684 2.34176 0
M  V30 722 C 70.1368 -1.68108 2.20533 0
M  V30 723 H 73.0878 -0.547628 1.48952 0
M  V30 724 H 73.1088 -3.21268 2.0388 0
M  V30 725 H 72.6208 -1.94962 3.35576 0
M  V30 726 H 70.7218 -3.45258 1.401 0
M  V30 727 H 70.8348 -3.48757 3.2849 0
M  V30 728 H 69.1988 -1.91907 1.67463 0
M  V30 729 H 69.9818 -1.23923 3.20153 0
M  V30 730 N 72.4269 -1.23603 -0.977757 0
M  V30 731 C 73.8379 -1.06424 -1.53398 0
M  V30 732 C 74.1889 0.367578 -1.92726 0
M  V30 733 O 73.3139 1.25465 -1.76316 0
M  V30 734 C 73.9089 -1.92568 -2.78753 0
M  V30 735 C 72.4679 -1.79642 -3.30765 0
M  V30 736 C 71.6149 -1.88111 -2.03739 0
M  V30 737 H 74.5659 -1.37227 -0.797152 0
M  V30 738 H 74.5869 -1.45203 -3.51705 0
M  V30 739 H 74.0989 -2.96771 -2.50098 0
M  V30 740 H 72.1999 -0.782325 -3.64294 0
M  V30 741 H 72.3129 -2.63174 -4.00345 0
M  V30 742 H 70.6769 -1.31723 -2.17994 0
M  V30 743 H 71.4599 -2.93875 -1.77461 0
M  V30 744 N 73.905 1.17692 -1.04816 0
M  V30 745 C 74.835 2.23777 -0.666791 0
M  V30 746 C 75.816 1.66796 0.33361 0
M  V30 747 O 77.001 1.93039 0.212042 0
M  V30 748 C 74.131 3.47281 -0.0367933 0
M  V30 749 C 73.085 4.17059 -0.961546 0
M  V30 750 C 72.411 5.34342 -0.195626 0
M  V30 751 C 73.711 4.69713 -2.28402 0
M  V30 752 H 75.405 2.55933 -1.55367 0
M  V30 753 H 72.951 1.23019 -0.748484 0
M  V30 754 H 74.904 4.20706 0.241775 0
M  V30 755 H 73.628 3.14381 0.885004 0
M  V30 756 H 72.287 3.45541 -1.22462 0
M  V30 757 H 71.935 4.97692 0.728816 0
M  V30 758 H 71.635 5.81966 -0.811775 0
M  V30 759 H 73.159 6.10553 0.0757473 0
M  V30 760 H 74.573 5.34794 -2.06563 0
M  V30 761 H 72.97 5.279 -2.8538 0
M  V30 762 H 74.04 3.86726 -2.92525 0
M  V30 763 N 75.3831 0.828654 1.34056 0
M  V30 764 C 76.6081 0.431637 2.02859 0
M  V30 765 C 77.0331 -0.956339 1.61975 0
M  V30 766 O 76.3911 -1.62338 0.807228 0
M  V30 767 C 76.4391 0.548323 3.56407 0
M  V30 768 O 75.5431 -0.429556 4.10157 0
M  V30 769 H 74.8841 0.176886 0.640006 0
M  V30 770 H 77.4141 1.12066 1.71179 0
M  V30 771 H 77.4241 0.426196 4.05768 0
M  V30 772 H 76.0991 1.5606 3.8551 0
M  V30 773 H 74.6761 -0.265836 3.71951 0
M  V30 774 N 76.8612 -1.46375 0.584142 0
M  V30 775 C 77.8082 -2.30323 -0.148286 0
M  V30 776 C 78.7782 -1.40703 -0.882713 0
M  V30 777 O 79.9632 -1.69651 -0.873099 0
M  V30 778 C 77.1032 -3.25196 -1.15507 0
M  V30 779 C 76.2162 -4.29915 -0.423943 0
M  V30 780 C 75.3512 -5.11914 -1.41838 0
M  V30 781 C 74.3902 -6.08381 -0.673736 0
M  V30 782 N 73.5272 -6.83242 -1.6163 0
M  V30 783 H 78.3672 -2.92427 0.573644 0
M  V30 784 H 75.9042 -1.44118 0.294703 0
M  V30 785 H 77.8622 -3.78646 -1.75166 0
M  V30 786 H 76.4922 -2.64898 -1.8447 0
M  V30 787 H 75.5442 -3.7931 0.287714 0
M  V30 788 H 76.8562 -4.98549 0.158128 0
M  V30 789 H 76.0102 -5.69648 -2.08773 0
M  V30 790 H 74.7492 -4.43243 -2.03438 0
M  V30 791 H 73.7542 -5.49799 0.00938483 0
M  V30 792 H 74.9792 -6.79071 -0.0631082 0
M  V30 793 H 72.9252 -6.1728 -2.22038 0
M  V30 794 H 72.8422 -7.48144 -1.08707 0
M  V30 795 H 74.1102 -7.45534 -2.27596 0
M  V30 796 N 78.3393 -0.321999 -1.54275 0
M  V30 797 C 79.6163 0.335232 -1.92706 0
M  V30 798 C 79.9963 1.70006 -1.25145 0
M  V30 799 O 79.3443 2.25067 -0.394596 0
M  V30 800 C 79.5543 0.429008 -3.46353 0
M  V30 801 C 80.9023 0.690029 -4.18956 0
M  V30 802 O 81.9263 0.511992 -3.52501 0
M  V30 803 O 80.7853 1.03338 -5.36641 0
M  V30 804 H 77.8793 0.191143 -0.804608 0
M  V30 805 H 80.4253 -0.3716 -1.65581 0
M  V30 806 H 79.1973 -0.529611 -3.87699 0
M  V30 807 H 78.8203 1.18348 -3.79578 0
M  V30 808 N 79.8174 1.5752 -0.0501392 0
M  V30 809 C 81.0644 1.9265 0.623874 0
M  V30 810 C 81.3924 0.928411 1.70912 0
M  V30 811 O 80.6474 -0.0594525 1.9561 0
M  V30 812 C 80.9464 3.34467 1.25963 0
M  V30 813 C 80.6124 4.49883 0.302689 0
M  V30 814 C 79.2744 4.81184 0.0393636 0
M  V30 815 C 81.6264 5.20002 -0.353205 0
M  V30 816 C 78.9544 5.79951 -0.887308 0
M  V30 817 C 81.3064 6.1976 -1.26806 0
M  V30 818 C 79.9704 6.49491 -1.54007 0
M  V30 819 H 79.2404 0.704957 0.228292 0
M  V30 820 H 81.8874 1.91146 -0.116398 0
M  V30 821 H 80.1924 3.32333 2.07514 0
M  V30 822 H 81.8894 3.58928 1.78806 0
M  V30 823 H 78.4794 4.25457 0.518109 0
M  V30 824 H 82.6634 4.96033 -0.162854 0
M  V30 825 H 77.9194 6.01322 -1.10553 0
M  V30 826 H 82.0934 6.73205 -1.78236 0
M  V30 827 H 79.7204 7.25837 -2.25976 0
M  V30 828 N 81.2955 -0.223234 1.56011 0
M  V30 829 C 82.2285 -1.30377 1.87289 0
M  V30 830 C 83.2065 -1.45286 0.730112 0
M  V30 831 O 84.3905 -1.61126 0.978302 0
M  V30 832 C 81.5175 -2.67431 2.07843 0
M  V30 833 C 80.5635 -2.69546 3.30526 0
M  V30 834 S 81.3965 -2.23781 4.865 0
M  V30 835 C 82.5525 -3.62714 5.10088 0
M  V30 836 H 82.7855 -1.03652 2.78646 0
M  V30 837 H 80.3185 -0.425393 1.48424 0
M  V30 838 H 82.2765 -3.46336 2.20368 0
M  V30 839 H 80.9375 -2.91381 1.17285 0
M  V30 840 H 80.1305 -3.70255 3.41947 0
M  V30 841 H 79.7325 -1.98703 3.16849 0
M  V30 842 H 82.0245 -4.58391 4.98883 0
M  V30 843 H 82.9675 -3.5621 6.11981 0
M  V30 844 H 83.3755 -3.56323 4.37829 0
M  V30 845 N 82.7736 -1.49793 -0.48987 0
M  V30 846 C 83.7366 -1.66752 -1.57246 0
M  V30 847 C 84.7366 -0.538867 -1.51502 0
M  V30 848 O 85.9266 -0.805545 -1.54456 0
M  V30 849 C 83.0586 -1.67528 -2.96896 0
M  V30 850 H 84.2516 -2.63321 -1.43534 0
M  V30 851 H 81.8046 -1.38992 -0.714914 0
M  V30 852 H 82.5396 -0.725837 -3.16073 0
M  V30 853 H 82.3246 -2.49504 -3.02473 0
M  V30 854 H 83.8146 -1.82667 -3.7553 0
M  V30 855 N 84.2517 0.741722 -1.39055 0
M  V30 856 C 85.2017 1.84661 -1.33732 0
M  V30 857 C 86.1857 1.59397 -0.219401 0
M  V30 858 O 87.3777 1.71015 -0.456375 0
M  V30 859 C 84.5067 3.22512 -1.17647 0
M  V30 860 C 83.5927 3.53628 -2.34112 0
M  V30 861 N 83.9837 3.55723 -3.59576 0
M  V30 862 C 82.2817 3.83956 -2.26923 0
M  V30 863 C 82.9827 3.84443 -4.36553 0
M  V30 864 N 81.9587 4.01877 -3.66055 0
M  V30 865 H 85.7607 1.84576 -2.28711 0
M  V30 866 H 83.2747 0.939647 -1.32455 0
M  V30 867 H 85.2717 4.01597 -1.11917 0
M  V30 868 H 83.9317 3.2384 -0.236124 0
M  V30 869 H 84.9427 3.37196 -3.93089 0
M  V30 870 H 81.6197 3.92929 -1.41113 0
M  V30 871 H 83.0097 3.92588 -5.45274 0
M  V30 872 N 85.7298 1.2412 0.971189 0
M  V30 873 C 86.9778 1.07668 1.71032 0
M  V30 874 C 87.2988 -0.385797 1.91146 0
M  V30 875 O 86.5688 -1.27569 1.4867 0
M  V30 876 H 85.1488 0.395429 0.633755 0
M  V30 877 H 87.8108 1.55984 1.16855 0
M  V30 878 H 86.9068 1.57195 2.69622 0
M  V30 879 N 87.2079 -1.17134 1.05439 0
M  V30 880 C 88.4849 -1.83411 0.679699 0
M  V30 881 C 88.8649 -1.9368 -0.839726 0
M  V30 882 O 88.2129 -1.47325 -1.74664 0
M  V30 883 C 88.4229 -3.20918 1.37159 0
M  V30 884 C 89.7709 -3.96796 1.51123 0
M  V30 885 O 90.7949 -3.30406 1.3308 0
M  V30 886 O 89.6539 -5.15778 1.80651 0
M  V30 887 H 86.7479 -0.79154 0.239569 0
M  V30 888 H 89.2939 -1.24411 1.15413 0
M  V30 889 H 88.0659 -3.08428 2.40807 0
M  V30 890 H 87.6889 -3.87587 0.886674 0
M  V30 891 N 88.686 -0.835752 -1.33615 0
M  V30 892 C 89.649 -0.272 -2.2758 0
M  V30 893 C 90.649 0.557487 -1.50827 0
M  V30 894 O 91.839 0.37173 -1.70188 0
M  V30 895 C 88.971 0.617173 -3.35267 0
M  V30 896 H 90.164 -1.10111 -2.78954 0
M  V30 897 H 87.717 -0.608594 -1.43965 0
M  V30 898 H 88.452 1.46884 -2.89129 0
M  V30 899 H 88.237 0.0237066 -3.92093 0
M  V30 900 H 89.727 1.005 -4.05326 0
M  V30 901 N 90.1641 1.46063 -0.591896 0
M  V30 902 C 91.0741 2.34192 0.13831 0
M  V30 903 C 92.0901 1.50305 0.876608 0
M  V30 904 O 93.2661 1.8315 0.837728 0
M  V30 905 C 90.3311 3.27656 1.13326 0
M  V30 906 C 89.3921 4.27445 0.39863 0
M  V30 907 C 88.6251 5.16443 1.34618 0
M  V30 908 O 88.8481 5.08553 2.58321 0
M  V30 909 O 87.7821 5.95843 0.851768 0
M  V30 910 H 91.6081 2.98002 -0.58552 0
M  V30 911 H 89.1931 1.45188 -0.352239 0
M  V30 912 H 91.0751 3.85291 1.70671 0
M  V30 913 H 89.7501 2.6643 1.83839 0
M  V30 914 H 88.6571 3.73471 -0.216895 0
M  V30 915 H 89.9901 4.91482 -0.265709 0
M  V30 916 N 91.6422 0.330177 1.54103 0
M  V30 917 C 92.5892 -0.532762 2.24567 0
M  V30 918 C 93.5592 -1.10635 1.23892 0
M  V30 919 O 94.7442 -1.14546 1.5259 0
M  V30 920 C 91.8842 -1.6845 3.01195 0
M  V30 921 C 90.9972 -1.13951 4.167 0
M  V30 922 C 90.1322 -2.25746 4.80845 0
M  V30 923 C 89.1712 -1.6853 5.88442 0
M  V30 924 N 88.3082 -2.74014 6.46421 0
M  V30 925 H 93.1482 0.0746905 2.97906 0
M  V30 926 H 90.6852 0.048632 1.4702 0
M  V30 927 H 92.6432 -2.36234 3.43874 0
M  V30 928 H 91.2732 -2.26314 2.30178 0
M  V30 929 H 90.3252 -0.35301 3.78758 0
M  V30 930 H 91.6372 -0.680892 4.94131 0
M  V30 931 H 90.7912 -3.01422 5.26526 0
M  V30 932 H 89.5302 -2.74947 4.0281 0
M  V30 933 H 88.5352 -0.913543 5.42157 0
M  V30 934 H 89.7602 -1.20198 6.68378 0
M  V30 935 H 87.7062 -3.22494 5.71256 0
M  V30 936 H 87.6232 -2.32735 7.19285 0
M  V30 937 H 88.8912 -3.49499 6.96757 0
M  V30 938 N 93.1203 -1.57491 0.0584922 0
M  V30 939 C 94.3693 -1.92155 -0.613146 0
M  V30 940 C 94.6823 -0.939334 -1.71569 0
M  V30 941 O 95.8883 -1.17829 -2.44599 0
M  V30 942 C 94.3443 -3.41303 -1.14195 0
M  V30 943 C 93.9523 -4.47944 -0.0711265 0
M  V30 944 C 95.6963 -3.84988 -1.78841 0
M  V30 945 C 93.6033 -5.88212 -0.613225 0
M  V30 946 H 92.5333 -0.717162 -0.232796 0
M  V30 947 H 95.1843 -1.83049 0.12857 0
M  V30 948 H 93.5663 -3.45437 -1.93621 0
M  V30 949 H 94.7403 -4.55408 0.702836 0
M  V30 950 H 93.0553 -4.13644 0.478313 0
M  V30 951 H 95.6523 -4.87159 -2.20408 0
M  V30 952 H 95.9953 -3.21632 -2.64308 0
M  V30 953 H 96.5283 -3.83401 -1.06059 0
M  V30 954 H 93.2673 -6.55183 0.203978 0
M  V30 955 H 92.7873 -5.84294 -1.35501 0
M  V30 956 H 94.4663 -6.37687 -1.09383 0
M  V30 957 N 94.5984 0.214957 -1.56127 0
M  V30 958 C 96.0144 0.564948 -1.49267 0
M  V30 959 C 96.2144 1.86827 -0.754838 0
M  V30 960 O 95.2704 2.50745 -0.297198 0
M  V30 961 C 96.5834 0.638071 -2.93852 0
M  V30 962 C 98.1314 0.728253 -3.0441 0
M  V30 963 C 98.6064 0.832663 -4.50367 0
M  V30 964 N 100.097 0.896712 -4.54437 0
M  V30 965 C 100.832 0.997324 -5.6466 0
M  V30 966 N 100.328 1.06147 -6.8462 0
M  V30 967 N 102.121 1.03297 -5.52527 0
M  V30 968 H 94.2724 -0.640211 -2.02522 0
M  V30 969 H 96.5354 -0.225507 -0.920788 0
M  V30 970 H 96.2414 -0.250126 -3.50809 0
M  V30 971 H 96.1154 1.49947 -3.46115 0
M  V30 972 H 98.5024 1.60689 -2.47514 0
M  V30 973 H 98.5834 -0.158952 -2.55306 0
M  V30 974 H 98.2274 -0.0415417 -5.07883 0
M  V30 975 H 98.1574 1.73538 -4.97184 0
M  V30 976 H 100.648 0.857188 -3.6805 0
M  V30 977 H 100.961 1.1382 -7.64372 0
M  V30 978 H 99.3064 1.03049 -6.87318 0
M  V30 979 H 102.497 0.979558 -4.57736 0
M  V30 980 H 102.67 1.10793 -6.38458 0
M  V30 981 N 96.0765 1.50051 0.48192 0
M  V30 982 C 97.0065 1.71046 1.58951 0
M  V30 983 C 97.9875 0.559288 1.60642 0
M  V30 984 O 99.1725 0.797243 1.77081 0
M  V30 985 C 96.3025 1.79462 2.97339 0
M  V30 986 C 95.2565 2.94558 3.10515 0
M  V30 987 C 94.5825 2.88105 4.50444 0
M  V30 988 C 95.8825 4.35227 2.88747 0
M  V30 989 H 97.5765 2.6378 1.41635 0
M  V30 990 H 95.1225 1.26936 0.679942 0
M  V30 991 H 97.0755 1.92734 3.74742 0
M  V30 992 H 95.7995 0.833412 3.15788 0
M  V30 993 H 94.4585 2.80918 2.35543 0
M  V30 994 H 94.1065 1.89853 4.65795 0
M  V30 995 H 93.8065 3.65366 4.60197 0
M  V30 996 H 95.3305 3.03412 5.29881 0
M  V30 997 H 96.7445 4.49449 3.55905 0
M  V30 998 H 95.1415 5.13856 3.09955 0
M  V30 999 H 96.2115 4.48347 1.84696 0
M  V30 1000 N 97.5546 -0.734337 1.39446 0
M  V30 1001 C 98.8316 -1.48579 1.27215 0
M  V30 1002 C 99.2116 -2.1077 -0.117968 0
M  V30 1003 O 98.5596 -1.98646 -1.12924 0
M  V30 1004 C 98.7696 -2.53667 2.39696 0
M  V30 1005 C 100.118 -3.20031 2.79044 0
M  V30 1006 O 101.142 -2.6398 2.39151 0
M  V30 1007 O 100.001 -4.21455 3.47905 0
M  V30 1008 H 97.0946 -0.659816 0.49857 0
M  V30 1009 H 99.6406 -0.768106 1.51322 0
M  V30 1010 H 98.4126 -2.06096 3.32626 0
M  V30 1011 H 98.0356 -3.32994 2.17258 0
M  V30 1012 N 99.0327 -1.24633 -0.964593 0
M  V30 1013 C 100.273 -1.09981 -1.72289 0
M  V30 1014 C 100.637 0.354792 -1.88693 0
M  V30 1015 O 101.838 0.62289 -2.61483 0
M  V30 1016 C 100.109 -1.82262 -3.07434 0
M  V30 1017 S 101.668 -1.83379 -3.98645 0
M  V30 1018 H 98.4857 -0.393292 -0.59232 0
M  V30 1019 H 101.088 -1.58009 -1.15123 0
M  V30 1020 H 99.7917 -2.87206 -2.93157 0
M  V30 1021 H 99.3227 -1.3458 -3.69664 0
M  V30 1022 H 101.338 -0.903691 -4.87901 0
M  V30 1023 N 100.511 1.16574 -1.06058 0
M  V30 1024 C 101.458 2.20883 -0.669263 0
M  V30 1025 C 102.428 1.62729 0.332918 0
M  V30 1026 O 103.613 1.895 0.222346 0
M  V30 1027 C 100.753 3.45049 -0.0593572 0
M  V30 1028 C 99.8658 4.17458 -1.11143 0
M  V30 1029 C 99.0008 5.29135 -0.467916 0
M  V30 1030 C 98.0398 5.93343 -1.50369 0
M  V30 1031 N 97.1768 6.96516 -0.883706 0
M  V30 1032 H 102.017 2.53709 -1.5632 0
M  V30 1033 H 99.5538 1.24616 -0.781625 0
M  V30 1034 H 101.512 4.16033 0.311771 0
M  V30 1035 H 100.142 3.12781 0.797992 0
M  V30 1036 H 99.1938 3.45101 -1.60029 0
M  V30 1037 H 100.506 4.61307 -1.89731 0
M  V30 1038 H 99.6598 6.06684 -0.0436871 0
M  V30 1039 H 98.3988 4.86443 0.349864 0
M  V30 1040 H 97.4038 5.14517 -1.93784 0
M  V30 1041 H 98.6288 6.38114 -2.32352 0
M  V30 1042 H 96.5748 6.55943 -0.086595 0
M  V30 1043 H 96.4918 7.38723 -1.607 0
M  V30 1044 H 97.7598 7.77993 -0.484543 0
M  V30 1045 N 101.989 0.842826 1.3317 0
M  V30 1046 C 103.405 0.531128 1.50503 0
M  V30 1047 C 103.605 -0.940734 1.78192 0
M  V30 1048 O 102.661 -1.72436 1.84451 0
M  V30 1049 C 103.974 1.40789 2.65705 0
M  V30 1050 C 105.522 1.40708 2.79589 0
M  V30 1051 C 105.997 2.26878 3.97857 0
M  V30 1052 N 107.488 2.24609 4.05099 0
M  V30 1053 C 108.223 2.88019 4.95815 0
M  V30 1054 N 107.719 3.60496 5.9162 0
M  V30 1055 N 109.512 2.77469 4.88843 0
M  V30 1056 H 101.663 1.79557 1.1346 0
M  V30 1057 H 103.926 0.766267 0.558156 0
M  V30 1058 H 103.632 2.454 2.51936 0
M  V30 1059 H 103.506 1.08677 3.61205 0
M  V30 1060 H 105.893 0.368668 2.92788 0
M  V30 1061 H 105.974 1.76829 1.84838 0
M  V30 1062 H 105.618 3.3078 3.85418 0
M  V30 1063 H 105.548 1.88096 4.91861 0
M  V30 1064 H 108.039 1.71906 3.36536 0
M  V30 1065 H 108.352 4.06076 6.57512 0
M  V30 1066 H 106.697 3.64604 5.91683 0
M  V30 1067 H 109.888 2.20406 4.12963 0
M  V30 1068 H 110.061 3.2717 5.59342 0
M  V30 1069 N 103.467 -1.45747 0.599634 0
M  V30 1070 C 104.43 -2.28917 -0.113835 0
M  V30 1071 C 105.43 -1.3933 -0.802729 0
M  V30 1072 O 106.62 -1.61534 -0.652103 0
M  V30 1073 C 103.752 -3.20152 -1.17114 0
M  V30 1074 H 104.945 -2.93478 0.617289 0
M  V30 1075 H 102.498 -1.52137 0.358327 0
M  V30 1076 H 103.233 -2.60374 -1.93329 0
M  V30 1077 H 103.018 -3.86133 -0.681468 0
M  V30 1078 H 104.508 -3.82708 -1.67105 0
M  V30 1079 N 104.945 -0.338344 -1.53925 0
M  V30 1080 C 106.356 0.146651 -1.86123 0
M  V30 1081 C 106.707 1.5042 -1.2597 0
M  V30 1082 O 105.832 2.08723 -0.571294 0
M  V30 1083 C 106.427 0.272879 -3.37699 0
M  V30 1084 C 104.986 0.702103 -3.69794 0
M  V30 1085 C 104.133 -0.167304 -2.76795 0
M  V30 1086 H 107.084 -0.558123 -1.48562 0
M  V30 1087 H 107.105 1.10128 -3.64214 0
M  V30 1088 H 106.617 -0.715307 -3.81451 0
M  V30 1089 H 104.718 1.6995 -3.31584 0
M  V30 1090 H 104.831 0.495604 -4.7653 0
M  V30 1091 H 103.195 0.359527 -2.5215 0
M  V30 1092 H 103.978 -1.15253 -3.23375 0
M  V30 1093 N 106.423 1.57458 -0.0668435 0
M  V30 1094 C 107.333 2.15937 0.916975 0
M  V30 1095 C 108.349 1.12123 1.33058 0
M  V30 1096 O 109.525 1.44366 1.40429 0
M  V30 1097 C 106.59 2.70547 2.16807 0
M  V30 1098 C 105.651 3.89215 1.81135 0
M  V30 1099 C 104.884 4.41211 3.0028 0
M  V30 1100 O 105.107 3.92225 4.14144 0
M  V30 1101 O 104.041 5.32605 2.80384 0
M  V30 1102 H 107.867 3.00354 0.449561 0
M  V30 1103 H 105.452 1.48584 0.155949 0
M  V30 1104 H 107.334 3.0557 2.90181 0
M  V30 1105 H 106.009 1.89192 2.62656 0
M  V30 1106 H 104.916 3.59054 1.05028 0
M  V30 1107 H 106.249 4.71848 1.40073 0
M  V30 1108 N 107.901 -0.206675 1.56239 0
M  V30 1109 C 109.147 -0.930218 1.80208 0
M  V30 1110 C 109.48 -1.83387 0.638981 0
M  V30 1111 O 108.755 -1.91119 -0.361066 0
M  V30 1112 C 109.038 -1.75641 3.1436 0
M  V30 1113 C 108.891 -0.878257 4.41142 0
M  V30 1114 C 110.21 -2.73129 3.45092 0
M  V30 1115 H 107.329 -0.336742 0.655571 0
M  V30 1116 H 109.971 -0.198222 1.88963 0
M  V30 1117 H 108.121 -2.38048 3.07027 0
M  V30 1118 H 109.793 -0.269787 4.6051 0
M  V30 1119 H 108.036 -0.184385 4.33408 0
M  V30 1120 H 108.707 -1.49106 5.3148 0
M  V30 1121 H 111.183 -2.20856 3.52649 0
M  V30 1122 H 110.059 -3.28028 4.40101 0
M  V30 1123 H 110.32 -3.51606 2.68003 0
M  V30 1124 N 109.379 -1.50304 -0.473955 0
M  V30 1125 C 110.289 -1.7174 -1.5982 0
M  V30 1126 C 111.305 -0.600457 -1.63311 0
M  V30 1127 O 112.481 -0.878441 -1.81233 0
M  V30 1128 C 109.546 -1.80427 -2.96052 0
M  V30 1129 C 108.607 -3.04148 -3.02972 0
M  V30 1130 C 107.84 -3.12411 -4.32706 0
M  V30 1131 O 108.063 -2.27542 -5.23049 0
M  V30 1132 O 106.997 -4.05113 -4.45159 0
M  V30 1133 H 110.823 -2.67035 -1.44657 0
M  V30 1134 H 108.408 -1.34366 -0.653148 0
M  V30 1135 H 110.29 -1.88338 -3.7697 0
M  V30 1136 H 108.965 -0.883156 -3.11419 0
M  V30 1137 H 107.872 -3.0174 -2.21142 0
M  V30 1138 H 109.205 -3.95829 -2.92541 0
M  V30 1139 N 110.857 0.726932 -1.39834 0
M  V30 1140 C 112.103 1.48771 -1.38704 0
M  V30 1141 C 112.458 1.92394 0.0146387 0
M  V30 1142 O 111.751 1.64474 0.982797 0
M  V30 1143 C 111.945 2.73495 -2.30077 0
M  V30 1144 C 111.774 2.42068 -3.78989 0
M  V30 1145 C 110.544 2.33966 -4.4787 0
M  V30 1146 C 112.742 2.0708 -4.70768 0
M  V30 1147 N 110.724 1.95095 -5.82075 0
M  V30 1148 C 112.095 1.78719 -5.93683 0
M  V30 1149 C 114.15 1.93618 -4.58712 0
M  V30 1150 C 112.853 1.3825 -7.05889 0
M  V30 1151 C 114.879 1.54553 -5.70848 0
M  V30 1152 C 114.241 1.27082 -6.92842 0
M  V30 1153 H 110.34 0.542919 -0.562817 0
M  V30 1154 H 112.924 0.84408 -1.75452 0
M  V30 1155 H 111.095 3.35625 -1.95474 0
M  V30 1156 H 112.827 3.39755 -2.19883 0
M  V30 1157 H 109.582 2.51331 -4.0141 0
M  V30 1158 H 110.006 1.7823 -6.53118 0
M  V30 1159 H 114.648 2.13522 -3.64922 0
M  V30 1160 H 112.366 1.17088 -7.99572 0
M  V30 1161 H 115.952 1.44731 -5.6351 0
M  V30 1162 H 114.832 0.973069 -7.78139 0
M  V30 1163 N 112.336 1.25143 0.95797 0
M  V30 1164 C 113.266 1.07711 2.07173 0
M  V30 1165 C 114.247 -0.0128462 1.70095 0
M  V30 1166 O 115.432 0.156061 1.93572 0
M  V30 1167 C 112.562 0.691503 3.40346 0
M  V30 1168 C 111.516 1.73132 3.9142 0
M  V30 1169 C 110.842 1.20049 5.21049 0
M  V30 1170 C 112.142 3.1294 4.1817 0
M  V30 1171 H 113.836 2.00873 2.22014 0
M  V30 1172 H 111.382 0.967191 1.06684 0
M  V30 1173 H 113.335 0.556505 4.17709 0
M  V30 1174 H 112.059 -0.275819 3.25433 0
M  V30 1175 H 110.718 1.8547 3.16222 0
M  V30 1176 H 110.366 0.223499 5.02503 0
M  V30 1177 H 110.066 1.89545 5.56189 0
M  V30 1178 H 111.59 1.07782 6.01012 0
M  V30 1179 H 113.004 3.03775 4.86203 0
M  V30 1180 H 111.401 3.79875 4.64559 0
M  V30 1181 H 112.471 3.6025 3.24573 0
M  V30 1182 N 113.814 -1.1601 1.06675 0
M  V30 1183 C 114.744 -2.22688 0.702307 0
M  V30 1184 C 115.725 -1.67306 -0.307032 0
M  V30 1185 O 116.91 -1.93352 -0.181305 0
M  V30 1186 C 114.04 -3.47178 0.092038 0
M  V30 1187 C 112.994 -4.15477 1.02777 0
M  V30 1188 C 112.32 -5.33963 0.28061 0
M  V30 1189 C 113.62 -4.66019 2.35846 0
M  V30 1190 H 115.314 -2.53429 1.59419 0
M  V30 1191 H 112.86 -1.21813 0.767961 0
M  V30 1192 H 114.813 -4.21037 -0.174814 0
M  V30 1193 H 113.537 -3.15749 -0.834877 0
M  V30 1194 H 112.196 -3.43549 1.27944 0
M  V30 1195 H 111.844 -4.98788 -0.649545 0
M  V30 1196 H 111.544 -5.806 0.904258 0
M  V30 1197 H 113.068 -6.10596 0.021396 0
M  V30 1198 H 114.482 -5.3144 2.15045 0
M  V30 1199 H 112.879 -5.23293 2.93743 0
M  V30 1200 H 113.949 -3.82023 2.98641 0
M  V30 1201 N 115.292 -0.849877 -1.32721 0
M  V30 1202 C 116.54 -0.450032 -1.97026 0
M  V30 1203 C 116.861 0.996604 -1.67609 0
M  V30 1204 O 116.131 1.6958 -0.980786 0
M  V30 1205 H 114.711 -0.163426 -0.728904 0
M  V30 1206 H 117.373 -1.08526 -1.6189 0
M  V30 1207 H 116.469 -0.591146 -3.0645 0
M  V30 1208 N 116.77 1.45427 -0.607355 0
M  V30 1209 C 118.016 2.0254 -0.102607 0
M  V30 1210 C 118.349 1.47478 1.26348 0
M  V30 1211 O 117.624 0.64939 1.83339 0
M  V30 1212 C 117.907 3.60044 -0.0634347 0
M  V30 1213 C 117.76 4.2544 -1.46017 0
M  V30 1214 C 119.079 4.35646 0.624514 0
M  V30 1215 H 116.198 0.73598 -0.0387607 0
M  V30 1216 H 118.84 1.73284 -0.779282 0
M  V30 1217 H 116.99 3.85101 0.512808 0
M  V30 1218 H 118.662 4.11569 -2.08347 0
M  V30 1219 H 116.905 3.83849 -2.02094 0
M  V30 1220 H 117.576 5.34342 -1.385 0
M  V30 1221 H 120.052 4.15882 0.134723 0
M  V30 1222 H 118.928 5.45376 0.621028 0
M  V30 1223 H 119.189 4.08501 1.69055 0
M  V30 1224 N 118.248 0.346503 1.53744 0
M  V30 1225 C 119.476 -0.25041 2.05379 0
M  V30 1226 C 119.891 -1.43979 1.22129 0
M  V30 1227 O 119.248 -1.80677 0.257321 0
M  V30 1228 C 119.299 -0.662575 3.55376 0
M  V30 1229 O 119.02 0.479515 4.35468 0
M  V30 1230 C 120.521 -1.31989 4.23195 0
M  V30 1231 H 117.741 -0.0478198 0.669294 0
M  V30 1232 H 120.285 0.499346 1.9831 0
M  V30 1233 H 118.44 -1.36227 3.62658 0
M  V30 1234 H 118.854 0.15037 5.24284 0
M  V30 1235 H 120.328 -1.55902 5.29527 0
M  V30 1236 H 120.805 -2.27436 3.75725 0
M  V30 1237 H 121.411 -0.662154 4.20114 0
M  V30 1238 N 119.726 -1.57421 0.075193 0
M  V30 1239 C 120.689 -2.11791 -0.876203 0
M  V30 1240 C 121.689 -1.04268 -1.22412 0
M  V30 1241 O 122.879 -1.30242 -1.15684 0
M  V30 1242 C 120.011 -2.62207 -2.17854 0
M  V30 1243 H 121.204 -2.9716 -0.40444 0
M  V30 1244 H 118.757 -1.55333 -0.173557 0
M  V30 1245 H 119.492 -1.803 -2.6956 0
M  V30 1246 H 119.277 -3.40802 -1.93897 0
M  V30 1247 H 120.767 -3.04335 -2.85955 0
M  V30 1248 N 121.204 0.198386 -1.56346 0
M  V30 1249 C 122.136 1.26987 -1.90806 0
M  V30 1250 C 123.149 1.41877 -0.798419 0
M  V30 1251 O 124.338 1.42362 -1.07682 0
M  V30 1252 C 121.438 2.64246 -2.12196 0
M  V30 1253 C 120.611 2.71007 -3.43328 0
M  V30 1254 C 119.67 3.89439 -3.5387 0
M  V30 1255 O 118.696 3.76695 -4.26719 0
M  V30 1256 N 119.898 5.04752 -2.86715 0
M  V30 1257 H 122.663 0.977433 -2.83313 0
M  V30 1258 H 120.224 0.388322 -1.57174 0
M  V30 1259 H 122.216 3.41896 -2.1654 0
M  V30 1260 H 120.786 2.85992 -1.26204 0
M  V30 1261 H 120.006 1.79657 -3.50881 0
M  V30 1262 H 121.294 2.72512 -4.29668 0
M  V30 1263 H 120.692 5.18004 -2.2735 0
M  V30 1264 H 119.249 5.8036 -2.96691 0
M  V30 1265 N 122.682 1.50554 0.465978 0
M  V30 1266 C 123.907 1.65838 1.24549 0
M  V30 1267 C 124.332 0.343486 1.84937 0
M  V30 1268 O 123.69 -0.69324 1.67523 0
M  V30 1269 C 123.738 2.75533 2.32624 0
M  V30 1270 O 122.842 2.37142 3.37398 0
M  V30 1271 H 122.183 0.553893 0.366194 0
M  V30 1272 H 124.713 1.96959 0.553927 0
M  V30 1273 H 124.723 2.98763 2.77857 0
M  V30 1274 H 123.398 3.70962 1.88043 0
M  V30 1275 H 121.975 2.24377 2.97841 0
M  V30 1276 N 124.16 -0.719506 1.40217 0
M  V30 1277 C 125.407 -1.47933 1.38283 0
M  V30 1278 C 125.735 -1.94493 -0.0161536 0
M  V30 1279 O 124.99 -1.68224 -0.999956 0
M  V30 1280 C 125.289 -2.72271 2.31524 0
M  V30 1281 C 124.955 -2.44496 3.78857 0
M  V30 1282 C 123.617 -2.36631 4.18998 0
M  V30 1283 C 125.969 -2.21104 4.71977 0
M  V30 1284 C 123.297 -2.03437 5.503 0
M  V30 1285 C 125.649 -1.89423 6.03574 0
M  V30 1286 C 124.313 -1.80038 6.42762 0
M  V30 1287 H 123.583 -0.541325 0.506012 0
M  V30 1288 H 126.23 -0.824502 1.72842 0
M  V30 1289 H 124.535 -3.42572 1.90137 0
M  V30 1290 H 126.232 -3.30348 2.27313 0
M  V30 1291 H 122.822 -2.51503 3.47051 0
M  V30 1292 H 127.006 -2.26139 4.41786 0
M  V30 1293 H 122.262 -1.94705 5.79569 0
M  V30 1294 H 126.436 -1.70336 6.75247 0
M  V30 1295 H 124.063 -1.54083 7.44421 0
M  V30 1296 N 125.638 -1.25649 -0.95132 0
M  V30 1297 C 126.915 -1.01361 -1.67288 0
M  V30 1298 C 127.295 0.459135 -2.06046 0
M  V30 1299 O 126.643 1.43723 -1.7764 0
M  V30 1300 C 126.853 -1.95256 -2.89268 0
M  V30 1301 C 128.201 -2.23289 -3.61147 0
M  V30 1302 O 129.225 -1.93041 -2.99355 0
M  V30 1303 O 128.084 -2.74741 -4.72419 0
M  V30 1304 H 125.178 -0.38464 -0.732107 0
M  V30 1305 H 127.724 -1.36817 -1.00395 0
M  V30 1306 H 126.496 -2.94685 -2.57442 0
M  V30 1307 H 126.119 -1.60218 -3.6389 0
M  V30 1308 N 127.117 1.15442 -1.07289 0
M  V30 1309 C 128.528 1.67803 -0.818475 0
M  V30 1310 C 128.879 1.8489 0.656507 0
M  V30 1311 O 128.004 1.55176 1.50829 0
M  V30 1312 C 128.599 3.04805 -1.47917 0
M  V30 1313 C 127.158 3.54245 -1.27229 0
M  V30 1314 C 126.305 2.29986 -1.54925 0
M  V30 1315 H 129.256 0.996646 -1.23502 0
M  V30 1316 H 129.277 3.69702 -0.90005 0
M  V30 1317 H 128.789 2.92336 -2.55267 0
M  V30 1318 H 126.89 3.71956 -0.21899 0
M  V30 1319 H 127.003 4.35723 -1.99203 0
M  V30 1320 H 125.367 2.35496 -0.970242 0
M  V30 1321 H 126.15 2.20105 -2.63455 0
M  V30 1322 N 128.595 0.856903 1.32268 0
M  V30 1323 C 129.527 0.260412 2.27716 0
M  V30 1324 C 130.54 -0.569137 1.52528 0
M  V30 1325 O 131.729 -0.39326 1.74114 0
M  V30 1326 C 128.829 -0.650477 3.32599 0
M  V30 1327 C 128.002 0.14372 4.37164 0
M  V30 1328 C 127.061 -0.69328 5.21613 0
M  V30 1329 O 126.087 -0.12599 5.69061 0
M  V30 1330 N 127.289 -2.00761 5.44679 0
M  V30 1331 H 130.054 1.08059 2.79541 0
M  V30 1332 H 127.615 0.717103 1.45152 0
M  V30 1333 H 129.607 -1.21581 3.86005 0
M  V30 1334 H 128.177 -1.37133 2.80915 0
M  V30 1335 H 127.397 0.890486 3.8401 0
M  V30 1336 H 128.685 0.68915 5.04111 0
M  V30 1337 H 128.083 -2.49181 5.07863 0
M  V30 1338 H 126.64 -2.52103 6.01072 0
M  V30 1339 N 130.073 -1.45103 0.615059 0
M  V30 1340 C 131.036 -2.29025 -0.0895485 0
M  V30 1341 C 132.036 -1.40174 -0.787906 0
M  V30 1342 O 133.226 -1.62217 -0.634933 0
M  V30 1343 C 130.358 -3.21376 -1.13711 0
M  V30 1344 H 131.551 -2.92807 0.648382 0
M  V30 1345 H 129.104 -1.51749 0.374444 0
M  V30 1346 H 129.839 -2.6241 -1.90556 0
M  V30 1347 H 129.624 -3.86834 -0.640475 0
M  V30 1348 H 131.114 -3.84459 -1.63036 0
M  V30 1349 N 131.551 -0.354651 -1.53558 0
M  V30 1350 C 132.501 0.513179 -2.2215 0
M  V30 1351 C 133.485 1.05734 -1.21281 0
M  V30 1352 O 134.677 0.989202 -1.46778 0
M  V30 1353 C 131.806 1.65798 -3.00609 0
M  V30 1354 C 130.892 1.12722 -4.08845 0
M  V30 1355 N 131.283 0.318563 -5.04796 0
M  V30 1356 C 129.581 1.40307 -4.23356 0
M  V30 1357 C 130.282 0.0292224 -5.81693 0
M  V30 1358 N 129.258 0.623891 -5.40008 0
M  V30 1359 H 133.06 -0.111586 -2.93688 0
M  V30 1360 H 130.574 -0.162091 -1.61589 0
M  V30 1361 H 132.571 2.29176 -3.48258 0
M  V30 1362 H 131.231 2.28591 -2.306 0
M  V30 1363 H 132.242 -0.0413091 -5.17884 0
M  V30 1364 H 128.919 2.03458 -3.6457 0
M  V30 1365 H 130.309 -0.623808 -6.68998 0
M  V30 1366 N 133.029 1.57378 -0.0835403 0
M  V30 1367 C 134.257 1.98263 0.59157 0
M  V30 1368 C 134.672 0.962302 1.62435 0
M  V30 1369 O 134.029 -0.049581 1.82433 0
M  V30 1370 C 134.08 3.39214 1.24965 0
M  V30 1371 O 133.801 4.37339 0.258186 0
M  V30 1372 C 135.302 3.95038 2.01147 0
M  V30 1373 H 132.522 0.651773 0.159477 0
M  V30 1374 H 135.066 2.03878 -0.159415 0
M  V30 1375 H 133.221 3.34649 1.95164 0
M  V30 1376 H 133.635 5.19371 0.731734 0
M  V30 1377 H 135.109 4.95848 2.42567 0
M  V30 1378 H 135.586 3.32222 2.87272 0
M  V30 1379 H 136.192 4.0304 1.35789 0
M  V30 1380 N 134.507 -0.190092 1.56449 0
M  V30 1381 C 135.753 -0.911052 1.81184 0
M  V30 1382 C 136.086 -1.82699 0.658396 0
M  V30 1383 O 135.361 -1.91491 -0.340775 0
M  V30 1384 C 135.644 -1.72297 3.16205 0
M  V30 1385 C 135.497 -0.831419 4.42049 0
M  V30 1386 C 136.816 -2.69454 3.47969 0
M  V30 1387 H 133.935 -0.32977 0.659106 0
M  V30 1388 H 136.577 -0.178169 1.89163 0
M  V30 1389 H 134.727 -2.34778 3.09534 0
M  V30 1390 H 136.399 -0.220929 4.60771 0
M  V30 1391 H 134.642 -0.138406 4.33579 0
M  V30 1392 H 135.313 -1.43461 5.33032 0
M  V30 1393 H 137.789 -2.17104 3.54972 0
M  V30 1394 H 136.665 -3.23342 4.43555 0
M  V30 1395 H 136.926 -3.48744 2.71717 0
M  V30 1396 N 135.985 -1.50799 -0.457987 0
M  V30 1397 C 136.948 -1.7005 -1.53674 0
M  V30 1398 C 137.948 -0.570881 -1.50325 0
M  V30 1399 O 139.138 -0.838126 -1.52712 0
M  V30 1400 C 136.27 -1.73788 -2.93276 0
M  V30 1401 H 137.463 -2.66306 -1.37917 0
M  V30 1402 H 135.016 -1.40477 -0.685271 0
M  V30 1403 H 135.751 -0.792717 -3.14462 0
M  V30 1404 H 135.536 -2.55864 -2.97113 0
M  V30 1405 H 137.026 -1.90591 -3.71571 0
M  V30 1406 N 137.463 0.71206 -1.40597 0
M  V30 1407 C 138.393 1.83889 -1.43899 0
M  V30 1408 C 139.374 1.67442 -0.299504 0
M  V30 1409 O 140.559 1.87421 -0.508624 0
M  V30 1410 C 137.689 3.21877 -1.30431 0
M  V30 1411 C 136.643 3.53002 -2.42019 0
M  V30 1412 C 135.969 4.90172 -2.13626 0
M  V30 1413 C 137.269 3.53643 -3.84362 0
M  V30 1414 H 138.963 1.81383 -2.38203 0
M  V30 1415 H 136.509 0.871237 -1.14654 0
M  V30 1416 H 138.462 4.00404 -1.31357 0
M  V30 1417 H 137.186 3.24968 -0.326049 0
M  V30 1418 H 135.845 2.76818 -2.40349 0
M  V30 1419 H 135.493 4.89869 -1.14182 0
M  V30 1420 H 135.193 5.11962 -2.88389 0
M  V30 1421 H 136.717 5.71028 -2.1624 0
M  V30 1422 H 138.131 4.22203 -3.87837 0
M  V30 1423 H 136.528 3.86961 -4.58673 0
M  V30 1424 H 137.598 2.52954 -4.13693 0
M  V30 1425 N 138.941 1.26152 0.944643 0
M  V30 1426 C 140.166 1.14363 1.7302 0
M  V30 1427 C 140.591 -0.29772 1.85729 0
M  V30 1428 O 139.949 -1.2157 1.34501 0
M  V30 1429 C 139.997 1.81378 3.11664 0
M  V30 1430 O 139.101 1.10022 3.97453 0
M  V30 1431 H 138.442 0.398694 0.53098 0
M  V30 1432 H 140.972 1.66906 1.18337 0
M  V30 1433 H 140.982 1.88064 3.62072 0
M  V30 1434 H 139.657 2.86237 3.0173 0
M  V30 1435 H 138.234 1.11287 3.55907 0
M  V30 1436 N 140.419 -1.14872 1.07899 0
M  V30 1437 C 141.696 -1.81928 0.71845 0
M  V30 1438 C 142.076 -1.95417 -0.798455 0
M  V30 1439 O 141.424 -1.50997 -1.715 0
M  V30 1440 C 141.634 -3.17937 1.43935 0
M  V30 1441 C 142.982 -3.93501 1.59506 0
M  V30 1442 O 144.006 -3.27509 1.40058 0
M  V30 1443 O 142.865 -5.1183 1.91551 0
M  V30 1444 H 139.959 -0.78628 0.256305 0
M  V30 1445 H 142.505 -1.21934 1.18026 0
M  V30 1446 H 141.277 -3.0325 2.47295 0
M  V30 1447 H 140.9 -3.85619 0.968687 0
M  V30 1448 N 141.898 -0.863906 -1.31812 0
M  V30 1449 C 143.146 -0.470904 -1.96537 0
M  V30 1450 C 143.467 0.978771 -1.68657 0
M  V30 1451 O 142.737 1.6853 -0.998717 0
M  V30 1452 H 141.317 -0.171148 -0.72713 0
M  V30 1453 H 143.979 -1.10236 -1.60729 0
M  V30 1454 H 143.075 -0.623616 -3.05806 0
M  V30 1455 N 143.376 1.44774 -0.622745 0
M  V30 1456 C 144.792 1.56986 -0.287652 0
M  V30 1457 C 144.992 1.61167 1.20944 0
M  V30 1458 O 144.048 1.55015 1.99315 0
M  V30 1459 C 145.361 2.84551 -0.972188 0
M  V30 1460 C 146.909 2.9825 -0.949536 0
M  V30 1461 C 147.384 4.28605 -1.61437 0
M  V30 1462 N 148.875 4.35399 -1.58057 0
M  V30 1463 C 149.61 5.34964 -2.064 0
M  V30 1464 N 149.106 6.40981 -2.62897 0
M  V30 1465 N 150.899 5.26419 -1.97078 0
M  V30 1466 H 143.05 1.40304 -1.59463 0
M  V30 1467 H 145.313 0.671794 -0.668878 0
M  V30 1468 H 145.019 2.87417 -2.02693 0
M  V30 1469 H 144.893 3.73807 -0.504771 0
M  V30 1470 H 147.28 2.94941 0.0967067 0
M  V30 1471 H 147.361 2.10364 -1.45536 0
M  V30 1472 H 147.005 4.32672 -2.66002 0
M  V30 1473 H 146.935 5.15334 -1.08344 0
M  V30 1474 H 149.426 3.59397 -1.16801 0
M  V30 1475 H 149.739 7.13225 -2.97539 0
M  V30 1476 H 148.084 6.4169 -2.66943 0
M  V30 1477 H 151.275 4.42504 -1.52669 0
M  V30 1478 H 151.448 6.03861 -2.35066 0
M  V30 1479 N 144.854 0.36279 1.53368 0
M  V30 1480 C 146.082 -0.228613 2.05633 0
M  V30 1481 C 146.497 -1.42676 1.23649 0
M  V30 1482 O 145.854 -1.80394 0.27647 0
M  V30 1483 C 145.905 -0.624845 3.56059 0
M  V30 1484 O 145.626 0.525675 4.34935 0
M  V30 1485 C 147.127 -1.27493 4.24571 0
M  V30 1486 H 144.347 -0.0407183 0.669763 0
M  V30 1487 H 146.891 0.520352 1.97769 0
M  V30 1488 H 145.046 -1.32373 3.64083 0
M  V30 1489 H 145.46 0.205969 5.24095 0
M  V30 1490 H 146.934 -1.50277 5.31151 0
M  V30 1491 H 147.411 -2.23439 3.78116 0
M  V30 1492 H 148.017 -0.617558 4.20792 0
M  V30 1493 N 146.332 -1.57332 0.0918853 0
M  V30 1494 C 147.262 -2.16872 -0.865371 0
M  V30 1495 C 148.243 -1.10118 -1.29646 0
M  V30 1496 O 149.428 -1.38242 -1.36392 0
M  V30 1497 C 146.558 -2.74649 -2.12569 0
M  V30 1498 C 145.512 -3.86747 -1.83333 0
M  V30 1499 C 144.838 -4.31212 -3.16166 0
M  V30 1500 C 146.138 -5.10089 -1.1228 0
M  V30 1501 H 147.832 -2.97114 -0.369307 0
M  V30 1502 H 145.378 -1.42918 -0.176194 0
M  V30 1503 H 147.331 -3.14952 -2.7997 0
M  V30 1504 H 146.055 -1.91657 -2.64452 0
M  V30 1505 H 144.714 -3.46978 -1.18331 0
M  V30 1506 H 144.362 -3.45115 -3.6593 0
M  V30 1507 H 144.062 -5.06788 -2.97388 0
M  V30 1508 H 145.586 -4.74146 -3.84731 0
M  V30 1509 H 147 -5.47582 -1.69785 0
M  V30 1510 H 145.397 -5.91073 -1.03693 0
M  V30 1511 H 146.467 -4.84786 -0.105041 0
M  V30 1512 N 147.81 0.181792 -1.56548 0
M  V30 1513 C 149.221 0.745244 -1.71181 0
M  V30 1514 C 149.572 1.83262 -0.70068 0
M  V30 1515 O 148.697 2.15946 0.140154 0
M  V30 1516 C 149.292 1.35859 -3.10367 0
M  V30 1517 C 147.851 1.86898 -3.2672 0
M  V30 1518 C 146.998 0.743942 -2.67134 0
M  V30 1519 H 149.949 -0.0434661 -1.5864 0
M  V30 1520 H 149.97 2.22817 -3.08436 0
M  V30 1521 H 149.482 0.566948 -3.83937 0
M  V30 1522 H 147.583 2.68738 -2.5809 0
M  V30 1523 H 147.696 2.02162 -4.34359 0
M  V30 1524 H 146.06 1.16169 -2.26665 0
M  V30 1525 H 146.843 -0.035676 -3.43281 0
M  V30 1526 N 149.288 1.51039 0.449983 0
M  V30 1527 C 150.518 1.66627 1.22143 0
M  V30 1528 C 150.926 0.357776 1.85786 0
M  V30 1529 O 150.269 -0.672424 1.70951 0
M  V30 1530 C 150.331 2.71562 2.35573 0
M  V30 1531 C 149.995 4.14526 1.92399 0
M  V30 1532 C 150.992 4.99717 1.43453 0
M  V30 1533 C 148.677 4.60559 2.00475 0
M  V30 1534 C 150.671 6.28998 1.03155 0
M  V30 1535 C 148.358 5.8984 1.59788 0
M  V30 1536 C 149.356 6.73886 1.11208 0
M  V30 1537 O 149.044 8.0075 0.710935 0
M  V30 1538 H 148.776 0.562635 0.374724 0
M  V30 1539 H 151.33 1.98146 0.541036 0
M  V30 1540 H 149.56 2.3533 3.06849 0
M  V30 1541 H 151.249 2.76156 2.97478 0
M  V30 1542 H 152.015 4.65361 1.36618 0
M  V30 1543 H 147.894 3.95273 2.37235 0
M  V30 1544 H 151.438 6.9455 0.651663 0
M  V30 1545 H 147.335 6.23713 1.66289 0
M  V30 1546 H 148.103 8.142 0.837913 0
M  V30 1547 N 150.766 -0.704594 1.40972 0
M  V30 1548 C 152.014 -1.46169 1.39568 0
M  V30 1549 C 152.335 -1.95 0.00253745 0
M  V30 1550 O 151.605 -1.71095 -0.954114 0
M  V30 1551 H 150.185 -0.542326 0.513704 0
M  V30 1552 H 152.847 -0.834553 1.76128 0
M  V30 1553 H 151.943 -2.32922 2.07735 0
M  V30 1554 N 152.244 -1.26651 -0.937939 0
M  V30 1555 C 153.472 -1.15173 -1.7188 0
M  V30 1556 C 153.887 0.292668 -1.86518 0
M  V30 1557 O 153.244 1.20014 -1.37488 0
M  V30 1558 C 153.295 -1.81925 -3.12387 0
M  V30 1559 O 153.016 -3.2072 -2.98446 0
M  V30 1560 C 154.517 -1.76442 -4.06673 0
M  V30 1561 H 151.737 -0.400911 -0.538063 0
M  V30 1562 H 154.281 -1.67332 -1.1756 0
M  V30 1563 H 152.436 -1.33696 -3.63599 0
M  V30 1564 H 152.85 -3.53802 -3.872 0
M  V30 1565 H 154.324 -2.27781 -5.02812 0
M  V30 1566 H 154.801 -0.731608 -4.33064 0
M  V30 1567 H 155.407 -2.24238 -3.61382 0
M  V30 1568 N 153.722 1.14298 -1.08507 0
M  V30 1569 C 154.652 2.21542 -0.737646 0
M  V30 1570 C 155.633 1.67773 0.280377 0
M  V30 1571 O 156.818 1.93616 0.150521 0
M  V30 1572 C 153.948 3.46988 -0.147259 0
M  V30 1573 C 152.902 4.13789 -1.09374 0
M  V30 1574 C 152.228 5.33449 -0.365524 0
M  V30 1575 C 153.528 4.62208 -2.4323 0
M  V30 1576 H 155.222 2.5086 -1.6343 0
M  V30 1577 H 152.768 1.20576 -0.787243 0
M  V30 1578 H 154.721 4.21262 0.107808 0
M  V30 1579 H 153.445 3.17037 0.784538 0
M  V30 1580 H 152.104 3.4147 -1.33393 0
M  V30 1581 H 151.752 4.99759 0.57011 0
M  V30 1582 H 151.452 5.79088 -0.996512 0
M  V30 1583 H 152.976 6.10485 -0.118534 0
M  V30 1584 H 154.39 5.27952 -2.23472 0
M  V30 1585 H 152.787 5.18553 -3.02031 0
M  V30 1586 H 153.857 3.77224 -3.04681 0
M  V30 1587 N 155.201 0.870884 1.31352 0
M  V30 1588 C 156.447 0.482987 1.96965 0
M  V30 1589 C 156.78 -0.962462 1.68672 0
M  V30 1590 O 156.055 -1.6779 0.98371 0
M  V30 1591 C 156.338 0.741752 3.52378 0
M  V30 1592 C 156.191 2.2368 3.9024 0
M  V30 1593 C 157.51 0.208838 4.39604 0
M  V30 1594 H 154.629 0.176955 0.715441 0
M  V30 1595 H 157.271 1.09229 1.55464 0
M  V30 1596 H 155.421 0.223149 3.87859 0
M  V30 1597 H 157.093 2.82273 3.64856 0
M  V30 1598 H 155.336 2.70901 3.38814 0
M  V30 1599 H 156.007 2.3685 4.98604 0
M  V30 1600 H 158.483 0.652529 4.10952 0
M  V30 1601 H 157.359 0.419336 5.47296 0
M  V30 1602 H 157.62 -0.889275 4.33064 0
M  V30 1603 N 156.679 -1.44442 0.630414 0
M  V30 1604 C 157.609 -2.33418 -0.0618083 0
M  V30 1605 C 158.59 -1.48165 -0.835541 0
M  V30 1606 O 159.775 -1.76886 -0.801564 0
M  V30 1607 C 156.905 -3.31222 -1.04449 0
M  V30 1608 C 155.859 -4.26288 -0.382436 0
M  V30 1609 C 155.185 -5.13954 -1.47497 0
M  V30 1610 C 156.485 -5.1744 0.710865 0
M  V30 1611 H 158.179 -2.91548 0.681184 0
M  V30 1612 H 155.725 -1.40191 0.329026 0
M  V30 1613 H 157.678 -3.92351 -1.53748 0
M  V30 1614 H 156.402 -2.71299 -1.81836 0
M  V30 1615 H 155.061 -3.6649 0.0899054 0
M  V30 1616 H 154.709 -4.50385 -2.2397 0
M  V30 1617 H 154.409 -5.7837 -1.03737 0
M  V30 1618 H 155.933 -5.77955 -1.96979 0
M  V30 1619 H 157.347 -5.72509 0.300996 0
M  V30 1620 H 155.744 -5.90455 1.07156 0
M  V30 1621 H 156.814 -4.58496 1.57829 0
M  V30 1622 N 158.157 -0.370918 -1.53173 0
M  V30 1623 C 159.12 0.460778 -2.24521 0
M  V30 1624 C 160.12 1.00536 -1.25496 0
M  V30 1625 O 161.31 0.890266 -1.49733 0
M  V30 1626 C 158.442 1.64457 -2.98608 0
M  V30 1627 H 159.635 -0.163613 -2.99453 0
M  V30 1628 H 157.188 -0.122699 -1.55818 0
M  V30 1629 H 157.923 2.30691 -2.2793 0
M  V30 1630 H 157.708 1.26099 -3.7127 0
M  V30 1631 H 159.198 2.23384 -3.5283 0
M  V30 1632 N 159.635 1.57281 -0.100228 0
M  V30 1633 C 160.863 1.98879 0.570509 0
M  V30 1634 C 161.278 0.979476 1.61405 0
M  V30 1635 O 160.635 -0.0302288 1.82475 0
M  V30 1636 C 160.686 3.4052 1.2136 0
M  V30 1637 O 160.407 4.37588 0.211786 0
M  V30 1638 C 161.908 3.97149 1.96945 0
M  V30 1639 H 159.128 0.653428 0.152555 0
M  V30 1640 H 161.672 2.03697 -0.18103 0
M  V30 1641 H 159.827 3.367 1.91603 0
M  V30 1642 H 160.241 5.20118 0.676607 0
M  V30 1643 H 161.715 4.98393 2.37294 0
M  V30 1644 H 162.192 3.3525 2.83733 0
M  V30 1645 H 162.798 4.04458 1.31506 0
M  V30 1646 N 161.113 -0.173488 1.56642 0
M  V30 1647 C 162.361 -0.888706 1.81512 0
M  V30 1648 C 162.682 -1.82875 0.676872 0
M  V30 1649 O 161.952 -1.93536 -0.303414 0
M  V30 1650 H 160.532 -0.331164 0.669582 0
M  V30 1651 H 163.194 -0.173823 1.94123 0
M  V30 1652 H 162.29 -1.46691 2.75478 0
M  V30 1653 N 162.591 -1.51276 -0.441967 0
M  V30 1654 C 163.554 -1.7167 -1.51862 0
M  V30 1655 C 164.554 -0.586793 -1.49711 0
M  V30 1656 O 165.744 -0.854276 -1.51815 0
M  V30 1657 C 162.876 -1.76889 -2.91416 0
M  V30 1658 H 164.069 -2.67754 -1.35084 0
M  V30 1659 H 161.622 -1.41196 -0.670333 0
M  V30 1660 H 162.357 -0.826026 -3.13604 0
M  V30 1661 H 162.142 -2.59001 -2.94382 0
M  V30 1662 H 163.632 -1.94522 -3.69528 0
M  V30 1663 N 164.069 0.697108 -1.41344 0
M  V30 1664 C 165.032 1.79281 -1.42797 0
M  V30 1665 C 166.032 1.57607 -0.318837 0
M  V30 1666 O 167.222 1.64309 -0.578642 0
M  V30 1667 C 164.354 3.17632 -1.23785 0
M  V30 1668 H 165.547 1.79385 -2.40335 0
M  V30 1669 H 163.1 0.904582 -1.27464 0
M  V30 1670 H 163.835 3.23167 -0.270814 0
M  V30 1671 H 163.62 3.34765 -2.04144 0
M  V30 1672 H 165.11 3.97617 -1.27633 0
M  V30 1673 N 165.547 1.27147 0.931209 0
M  V30 1674 C 166.958 1.12044 1.49342 0
M  V30 1675 C 167.309 -0.295795 1.93957 0
M  V30 1676 O 166.434 -1.18835 1.80852 0
M  V30 1677 C 167.029 2.02781 2.71414 0
M  V30 1678 C 165.588 1.91794 3.2387 0
M  V30 1679 C 164.735 1.95543 1.96617 0
M  V30 1680 H 167.686 1.40091 0.745672 0
M  V30 1681 H 167.707 1.58156 3.46074 0
M  V30 1682 H 167.219 3.05848 2.38911 0
M  V30 1683 H 165.32 0.916992 3.6114 0
M  V30 1684 H 165.433 2.77852 3.90302 0
M  V30 1685 H 163.797 1.39722 2.12955 0
M  V30 1686 H 164.58 3.00259 1.66432 0
M  V30 1687 N 167.025 -1.13721 1.09112 0
M  V30 1688 C 168.441 -1.36914 0.820174 0
M  V30 1689 C 168.641 -1.93356 -0.567079 0
M  V30 1690 O 167.697 -2.15093 -1.32255 0
M  V30 1691 C 169.01 -2.3235 1.90877 0
M  V30 1692 C 170.558 -2.45973 1.93562 0
M  V30 1693 C 171.033 -3.44714 3.01556 0
M  V30 1694 N 172.524 -3.52263 3.00775 0
M  V30 1695 C 173.259 -4.28536 3.80978 0
M  V30 1696 N 172.755 -5.07991 4.71081 0
M  V30 1697 N 174.548 -4.23804 3.69251 0
M  V30 1698 H 166.699 -0.754348 1.98553 0
M  V30 1699 H 168.962 -0.3944 0.862063 0
M  V30 1700 H 168.668 -1.98027 2.90651 0
M  V30 1701 H 168.542 -3.32332 1.78424 0
M  V30 1702 H 170.929 -2.79584 0.944286 0
M  V30 1703 H 171.01 -1.45926 2.10093 0
M  V30 1704 H 170.654 -3.11835 4.00901 0
M  V30 1705 H 170.584 -4.44558 2.82269 0
M  V30 1706 H 173.075 -2.95567 2.35475 0
M  V30 1707 H 173.388 -5.63487 5.28869 0
M  V30 1708 H 171.733 -5.07235 4.75119 0
M  V30 1709 H 174.924 -3.60806 2.98222 0
M  V30 1710 H 175.097 -4.82995 4.31995 0
M  V30 1711 N 168.503 -0.877838 -1.30888 0
M  V30 1712 C 169.466 -0.344265 -2.266 0
M  V30 1713 C 170.466 0.50922 -1.52524 0
M  V30 1714 O 171.656 0.317398 -1.71284 0
M  V30 1715 C 168.788 0.510198 -3.37061 0
M  V30 1716 H 169.981 -1.1893 -2.7531 0
M  V30 1717 H 167.534 -0.654088 -1.41956 0
M  V30 1718 H 168.269 1.37612 -2.93655 0
M  V30 1719 H 168.054 -0.101047 -3.9197 0
M  V30 1720 H 169.544 0.875537 -4.08319 0
M  V30 1721 N 169.982 1.44106 -0.638065 0
M  V30 1722 C 170.912 2.33448 0.0494287 0
M  V30 1723 C 171.893 1.48606 0.827672 0
M  V30 1724 O 173.078 1.77308 0.792173 0
M  V30 1725 C 170.208 3.31771 1.02691 0
M  V30 1726 C 169.162 4.26485 0.359823 0
M  V30 1727 C 168.488 5.14729 1.44769 0
M  V30 1728 C 169.788 5.17056 -0.738296 0
M  V30 1729 H 171.482 2.91183 -0.696636 0
M  V30 1730 H 169.028 1.40014 -0.336456 0
M  V30 1731 H 170.981 3.93161 1.51666 0
M  V30 1732 H 169.705 2.7226 1.80395 0
M  V30 1733 H 168.364 3.66437 -0.10934 0
M  V30 1734 H 168.012 4.51566 2.21578 0
M  V30 1735 H 167.712 5.78913 1.00668 0
M  V30 1736 H 169.236 5.78991 1.93911 0
M  V30 1737 H 170.65 5.72342 -0.331354 0
M  V30 1738 H 169.047 5.89879 -1.10286 0
M  V30 1739 H 170.117 4.57652 -1.60258 0
M  V30 1740 N 171.46 0.379036 1.52974 0
M  V30 1741 C 172.871 -0.0972525 1.86447 0
M  V30 1742 C 173.222 -1.47027 1.29914 0
M  V30 1743 O 172.347 -2.07135 0.626433 0
M  V30 1744 C 172.942 -0.183248 3.38304 0
M  V30 1745 C 171.501 -0.603812 3.71525 0
M  V30 1746 C 170.648 0.240632 2.76254 0
M  V30 1747 H 173.599 0.597316 1.4703 0
M  V30 1748 H 173.62 -1.00432 3.67006 0
M  V30 1749 H 173.132 0.816191 3.79421 0
M  V30 1750 H 171.233 -1.61099 3.35973 0
M  V30 1751 H 171.346 -0.369086 4.77676 0
M  V30 1752 H 169.71 -0.292548 2.53014 0
M  V30 1753 H 170.493 1.23786 3.20206 0
M  V30 1754 N 172.938 -1.57226 0.108567 0
M  V30 1755 C 174.166 -1.99179 -0.559954 0
M  V30 1756 C 174.581 -0.988022 -1.60884 0
M  V30 1757 O 173.938 0.0205512 -1.82488 0
M  V30 1758 C 173.989 -3.41159 -1.19552 0
M  V30 1759 O 173.71 -4.37694 -0.188577 0
M  V30 1760 C 175.211 -3.98188 -1.94837 0
M  V30 1761 H 172.431 -0.654228 -0.149088 0
M  V30 1762 H 174.975 -2.03598 0.19183 0
M  V30 1763 H 173.13 -3.37711 -1.89815 0
M  V30 1764 H 173.544 -5.20469 -0.649014 0
M  V30 1765 H 175.018 -4.99644 -2.34648 0
M  V30 1766 H 175.495 -3.3675 -2.81951 0
M  V30 1767 H 176.101 -4.0515 -1.2936 0
M  V30 1768 N 174.416 0.165178 -1.56732 0
M  V30 1769 C 175.346 1.20651 -1.99914 0
M  V30 1770 C 176.327 1.45827 -0.875705 0
M  V30 1771 O 177.512 1.57057 -1.14223 0
M  V30 1772 C 174.642 2.54401 -2.36427 0
M  V30 1773 C 173.596 2.43782 -3.51787 0
M  V30 1774 C 172.922 3.82078 -3.7406 0
M  V30 1775 C 174.222 1.93732 -4.85041 0
M  V30 1776 H 175.916 0.847534 -2.87154 0
M  V30 1777 H 173.462 0.40625 -1.38151 0
M  V30 1778 H 175.415 3.27458 -2.65234 0
M  V30 1779 H 174.139 2.92098 -1.46103 0
M  V30 1780 H 172.798 1.73178 -3.23117 0
M  V30 1781 H 172.446 4.17179 -2.81017 0
M  V30 1782 H 172.146 3.7584 -4.51684 0
M  V30 1783 H 173.67 4.56712 -4.05274 0
M  V30 1784 H 175.084 2.56569 -5.12684 0
M  V30 1785 H 173.481 1.98428 -5.66345 0
M  V30 1786 H 174.551 0.891962 -4.76626 0
M  V30 1787 N 175.894 1.51508 0.433938 0
M  V30 1788 C 176.826 1.69266 1.54537 0
M  V30 1789 C 177.839 0.573276 1.52373 0
M  V30 1790 O 179.028 0.847698 1.57087 0
M  V30 1791 C 176.128 1.69524 2.93453 0
M  V30 1792 C 175.301 2.98101 3.20085 0
M  V30 1793 C 174.36 2.90502 4.38742 0
M  V30 1794 O 173.386 3.64442 4.3723 0
M  V30 1795 N 174.588 2.06586 5.42496 0
M  V30 1796 H 177.353 2.65145 1.39708 0
M  V30 1797 H 174.914 1.49437 0.622922 0
M  V30 1798 H 176.906 1.62004 3.70859 0
M  V30 1799 H 175.476 0.812245 3.01863 0
M  V30 1800 H 174.696 3.19464 2.30947 0
M  V30 1801 H 175.984 3.83207 3.34708 0
M  V30 1802 H 175.382 1.45896 5.46563 0
M  V30 1803 H 173.939 2.04943 6.18742 0
M  V30 1804 N 177.372 -0.689602 1.41712 0
M  V30 1805 C 178.62 -1.4468 1.4111 0
M  V30 1806 C 178.941 -1.94986 0.0232196 0
M  V30 1807 O 178.211 -1.72097 -0.935913 0
M  V30 1808 H 176.791 -0.536847 0.519427 0
M  V30 1809 H 179.453 -0.815825 1.77004 0
M  V30 1810 H 178.549 -2.30706 2.10193 0
M  V30 1811 N 178.85 -1.27639 -0.924453 0
M  V30 1812 C 179.813 -1.10681 -2.00705 0
M  V30 1813 C 180.813 -0.0497823 -1.60723 0
M  V30 1814 O 182.003 -0.294654 -1.7169 0
M  V30 1815 C 179.135 -0.687164 -3.33902 0
M  V30 1816 H 180.328 -2.06817 -2.17179 0
M  V30 1817 H 177.881 -1.10473 -1.10569 0
M  V30 1818 H 178.616 0.275439 -3.23128 0
M  V30 1819 H 178.401 -1.45061 -3.6428 0
M  V30 1820 H 179.891 -0.590853 -4.13399 0
M  V30 1821 N 180.328 1.1314 -1.09713 0
M  V30 1822 C 181.556 1.88321 -0.856898 0
M  V30 1823 C 181.971 1.79276 0.592073 0
M  V30 1824 O 181.328 1.16142 1.40774 0
M  V30 1825 C 181.379 3.37812 -1.28706 0
M  V30 1826 O 181.1 3.46627 -2.67921 0
M  V30 1827 C 182.601 4.29952 -1.07964 0
M  V30 1828 H 179.821 0.596094 -0.308079 0
M  V30 1829 H 182.365 1.43205 -1.45988 0
M  V30 1830 H 180.52 3.805 -0.727912 0
M  V30 1831 H 180.934 4.39579 -2.8613 0
M  V30 1832 H 182.408 5.33159 -1.42986 0
M  V30 1833 H 182.885 4.39196 -0.0176577 0
M  V30 1834 H 183.491 3.93036 -1.62489 0
M  V30 1835 N 181.806 0.884767 1.30421 0
M  V30 1836 C 182.739 0.295999 2.26272 0
M  V30 1837 C 183.717 -0.58332 1.51777 0
M  V30 1838 O 184.901 -0.53346 1.80794 0
M  V30 1839 C 182.028 -0.57944 3.33707 0
M  V30 1840 C 181.074 0.230525 4.25877 0
M  V30 1841 S 181.907 1.61867 5.1045 0
M  V30 1842 C 183.063 0.749756 6.21393 0
M  V30 1843 H 183.296 1.10848 2.75862 0
M  V30 1844 H 180.829 0.684178 1.38414 0
M  V30 1845 H 182.787 -1.07879 3.96071 0
M  V30 1846 H 181.448 -1.36601 2.82841 0
M  V30 1847 H 180.641 -0.437542 5.02097 0
M  V30 1848 H 180.243 0.662493 3.68086 0
M  V30 1849 H 182.535 -0.0333547 6.77492 0
M  V30 1850 H 183.478 1.48356 6.92384 0
M  V30 1851 H 183.886 0.310751 5.63644 0
M  V30 1852 N 183.284 -1.43765 0.645699 0
M  V30 1853 C 184.695 -1.85193 0.236719 0
M  V30 1854 C 185.046 -1.54045 -1.21509 0
M  V30 1855 O 184.171 -0.985694 -1.92647 0
M  V30 1856 C 184.766 -3.36151 0.422845 0
M  V30 1857 C 183.325 -3.76338 0.0682492 0
M  V30 1858 C 182.472 -2.67538 0.729306 0
M  V30 1859 H 185.423 -1.34025 0.849883 0
M  V30 1860 H 185.444 -3.79032 -0.333904 0
M  V30 1861 H 184.956 -3.5879 1.47958 0
M  V30 1862 H 183.057 -3.59312 -0.986179 0
M  V30 1863 H 183.17 -4.76603 0.488469 0
M  V30 1864 H 181.534 -2.54176 0.163235 0
M  V30 1865 H 182.317 -2.93006 1.78892 0
M  V30 1866 N 184.763 -0.387143 -1.52771 0
M  V30 1867 C 186.009 0.196025 -2.0185 0
M  V30 1868 C 186.342 1.46641 -1.27319 0
M  V30 1869 O 185.617 1.90889 -0.373032 0
M  V30 1870 C 185.9 0.466136 -3.5707 0
M  V30 1871 C 185.753 -0.819385 -4.42274 0
M  V30 1872 C 187.072 1.25768 -4.21747 0
M  V30 1873 H 184.191 0.0697708 -0.73369 0
M  V30 1874 H 186.833 -0.516286 -1.82851 0
M  V30 1875 H 184.983 1.07293 -3.7339 0
M  V30 1876 H 186.655 -1.4563 -4.37709 0
M  V30 1877 H 184.898 -1.43517 -4.09372 0
M  V30 1878 H 185.569 -0.585065 -5.48891 0
M  V30 1879 H 188.045 0.744167 -4.09391 0
M  V30 1880 H 186.921 1.41541 -5.30337 0
M  V30 1881 H 187.182 2.27228 -3.79236 0
M  V30 1882 N 186.241 1.57166 -0.116904 0
M  V30 1883 C 187.191 2.11756 0.845178 0
M  V30 1884 C 188.175 1.03783 1.22955 0
M  V30 1885 O 189.367 1.3002 1.20099 0
M  V30 1886 C 186.496 2.71886 2.09602 0
M  V30 1887 C 185.582 3.86937 1.7361 0
M  V30 1888 N 185.973 4.94073 1.08284 0
M  V30 1889 C 184.271 3.97082 2.03082 0
M  V30 1890 C 184.972 5.74477 0.913855 0
M  V30 1891 N 183.948 5.2423 1.43818 0
M  V30 1892 H 187.75 2.91967 0.336523 0
M  V30 1893 H 185.264 1.62174 0.0856332 0
M  V30 1894 H 187.261 3.09338 2.79492 0
M  V30 1895 H 185.921 1.93138 2.61013 0
M  V30 1896 H 186.932 5.12483 0.747067 0
M  V30 1897 H 183.609 3.29372 2.56554 0
M  V30 1898 H 184.999 6.70701 0.40125 0
M  V30 1899 N 187.719 -0.156864 1.56817 0
M  V30 1900 C 188.947 -0.886316 1.86955 0
M  V30 1901 C 189.362 -1.75185 0.703975 0
M  V30 1902 O 188.719 -1.79555 -0.326552 0
M  V30 1903 C 188.77 -1.75117 3.16253 0
M  V30 1904 O 188.491 -0.920537 4.2832 0
M  V30 1905 C 189.992 -2.58905 3.59837 0
M  V30 1906 H 187.212 -0.25678 0.619923 0
M  V30 1907 H 189.756 -0.152615 2.0393 0
M  V30 1908 H 187.911 -2.43805 3.01062 0
M  V30 1909 H 188.325 -1.51337 5.02192 0
M  V30 1910 H 189.799 -3.1518 4.53172 0
M  V30 1911 H 190.276 -3.34472 2.84649 0
M  V30 1912 H 190.882 -1.95526 3.7769 0
M  V30 1913 N 189.197 -1.51736 -0.425897 0
M  V30 1914 C 190.127 -1.76827 -1.52494 0
M  V30 1915 C 191.108 -0.618524 -1.58456 0
M  V30 1916 O 192.293 -0.862416 -1.74 0
M  V30 1917 C 189.423 -1.90374 -2.90474 0
M  V30 1918 C 188.377 -3.0588 -2.99369 0
M  V30 1919 C 187.703 -3.04625 -4.3944 0
M  V30 1920 C 189.003 -4.45644 -2.72394 0
M  V30 1921 H 190.697 -2.68855 -1.31748 0
M  V30 1922 H 188.243 -1.29372 -0.632362 0
M  V30 1923 H 190.196 -2.0651 -3.6733 0
M  V30 1924 H 188.92 -0.95004 -3.12477 0
M  V30 1925 H 187.579 -2.89467 -2.24954 0
M  V30 1926 H 187.227 -2.0701 -4.58428 0
M  V30 1927 H 186.927 -3.82195 -4.46319 0
M  V30 1928 H 188.451 -3.22869 -5.18255 0
M  V30 1929 H 189.865 -4.62348 -3.38979 0
M  V30 1930 H 188.262 -5.25006 -2.9067 0
M  V30 1931 H 189.332 -4.54893 -1.67929 0
M  V30 1932 N 190.675 0.682077 -1.42076 0
M  V30 1933 C 192.091 0.994324 -1.24841 0
M  V30 1934 C 192.291 2.0096 -0.147389 0
M  V30 1935 O 191.347 2.47822 0.483782 0
M  V30 1936 C 192.66 1.50607 -2.60265 0
M  V30 1937 C 194.208 1.62421 -2.6756 0
M  V30 1938 C 194.683 2.16994 -4.03333 0
M  V30 1939 N 196.174 2.24337 -4.0525 0
M  V30 1940 C 196.909 2.67621 -5.07116 0
M  V30 1941 N 196.405 3.1041 -6.19368 0
M  V30 1942 N 198.198 2.67305 -4.94474 0
M  V30 1943 H 190.349 0.00973908 -2.12398 0
M  V30 1944 H 192.612 0.0668593 -0.945639 0
M  V30 1945 H 192.318 0.834583 -3.41654 0
M  V30 1946 H 192.192 2.48602 -2.83684 0
M  V30 1947 H 194.579 2.28678 -1.86521 0
M  V30 1948 H 194.66 0.629352 -2.47937 0
M  V30 1949 H 194.304 1.51349 -4.84826 0
M  V30 1950 H 194.234 3.17258 -4.20304 0
M  V30 1951 H 196.725 1.94158 -3.24209 0
M  V30 1952 H 197.038 3.42103 -6.92954 0
M  V30 1953 H 195.383 3.08286 -6.22884 0
M  V30 1954 H 198.574 2.33233 -4.05857 0
M  V30 1955 H 198.747 3.00718 -5.73997 0
M  V30 1956 N 192.153 1.28127 0.917671 0
M  V30 1957 C 193.381 1.17892 1.70026 0
M  V30 1958 C 193.796 -0.262958 1.8696 0
M  V30 1959 O 193.153 -1.17811 1.3938 0
M  V30 1960 C 193.204 1.86872 3.09453 0
M  V30 1961 O 192.925 3.25428 2.93306 0
M  V30 1962 C 194.426 1.8289 4.03815 0
M  V30 1963 H 191.646 0.40942 0.531617 0
M  V30 1964 H 194.19 1.69181 1.14883 0
M  V30 1965 H 192.345 1.39464 3.61426 0
M  V30 1966 H 192.759 3.59918 3.81523 0
M  V30 1967 H 194.233 2.35751 4.99125 0
M  V30 1968 H 194.71 0.800412 4.31845 0
M  V30 1969 H 195.316 2.29959 3.57769 0
M  V30 1970 N 193.631 -1.12557 1.10312 0
M  V30 1971 C 194.561 -2.20341 0.772798 0
M  V30 1972 C 195.542 -1.68198 -0.25365 0
M  V30 1973 O 196.727 -1.93831 -0.119699 0
M  V30 1974 C 193.857 -3.46709 0.202443 0
M  V30 1975 C 192.811 -4.11996 1.15943 0
M  V30 1976 C 192.137 -5.328 0.450345 0
M  V30 1977 C 193.437 -4.5828 2.50552 0
M  V30 1978 H 195.131 -2.48229 1.674 0
M  V30 1979 H 192.677 -1.19308 0.806326 0
M  V30 1980 H 194.63 -4.2138 -0.0407752 0
M  V30 1981 H 193.354 -3.18245 -0.734001 0
M  V30 1982 H 192.013 -3.39305 1.38808 0
M  V30 1983 H 191.661 -5.00602 -0.490531 0
M  V30 1984 H 191.361 -5.7743 1.08851 0
M  V30 1985 H 192.885 -6.10219 0.215642 0
M  V30 1986 H 194.299 -5.2433 2.31843 0
M  V30 1987 H 192.696 -5.13683 3.10242 0
M  V30 1988 H 193.766 -3.72329 3.10643 0
M  V30 1989 N 195.109 -0.891671 -1.2995 0
M  V30 1990 C 196.019 -0.367691 -2.31701 0
M  V30 1991 C 197.035 0.533486 -1.6562 0
M  V30 1992 O 198.211 0.424997 -1.96865 0
M  V30 1993 C 195.276 0.403406 -3.44345 0
M  V30 1994 C 194.337 -0.528328 -4.26037 0
M  V30 1995 C 193.57 0.206063 -5.33302 0
M  V30 1996 O 193.793 1.43119 -5.52153 0
M  V30 1997 O 192.727 -0.447281 -6.00236 0
M  V30 1998 H 196.553 -1.21163 -2.78484 0
M  V30 1999 H 194.138 -0.655725 -1.34241 0
M  V30 2000 H 196.02 0.839753 -4.12948 0
M  V30 2001 H 194.695 1.22354 -2.99685 0
M  V30 2002 H 193.602 -1.01362 -3.60106 0
M  V30 2003 H 194.935 -1.31465 -4.74318 0
M  V30 2004 N 196.587 1.43421 -0.653314 0
M  V30 2005 C 197.864 1.95361 -0.0966581 0
M  V30 2006 C 198.244 1.59461 1.38331 0
M  V30 2007 O 197.592 0.879777 2.10884 0
M  V30 2008 C 197.802 3.47311 -0.342988 0
M  V30 2009 C 199.15 4.23875 -0.24798 0
M  V30 2010 O 200.174 3.55133 -0.275553 0
M  V30 2011 O 199.033 5.4623 -0.171771 0
M  V30 2012 H 196.127 0.826945 0.00956291 0
M  V30 2013 H 198.673 1.5336 -0.726558 0
M  V30 2014 H 197.445 3.66569 -1.36906 0
M  V30 2015 H 197.068 3.9631 0.319975 0
M  V30 2016 N 198.065 0.39524 1.52563 0
M  V30 2017 C 199.028 -0.425001 2.25225 0
M  V30 2018 C 200.028 -0.985266 1.27079 0
M  V30 2019 O 201.218 -0.866332 1.5113 0
M  V30 2020 C 198.35 -1.59686 3.01186 0
M  V30 2021 H 199.543 0.211233 2.99155 0
M  V30 2022 H 197.096 0.147472 1.55603 0
M  V30 2023 H 197.831 -2.27035 2.31572 0
M  V30 2024 H 197.616 -1.20176 3.73229 0
M  V30 2025 H 199.106 -2.17743 3.5634 0
M  V30 2026 N 199.544 -1.57102 0.125237 0
M  V30 2027 C 200.96 -1.57915 -0.231322 0
M  V30 2028 C 201.16 -1.13833 -1.66266 0
M  V30 2029 O 200.216 -0.828581 -2.38518 0
M  V30 2030 C 201.529 -3.00699 0.00766489 0
M  V30 2031 C 203.077 -3.12947 -0.0577483 0
M  V30 2032 C 203.552 -4.57742 0.153626 0
M  V30 2033 N 205.043 -4.63092 0.0998073 0
M  V30 2034 C 205.778 -5.72905 0.238174 0
M  V30 2035 N 205.274 -6.91445 0.433057 0
M  V30 2036 N 207.067 -5.6182 0.177308 0
M  V30 2037 H 199.218 -1.84055 1.06007 0
M  V30 2038 H 201.481 -0.850905 0.417929 0
M  V30 2039 H 201.187 -3.3726 0.997431 0
M  V30 2040 H 201.061 -3.70236 -0.721452 0
M  V30 2041 H 203.448 -2.7624 -1.03804 0
M  V30 2042 H 203.529 -2.4594 0.70335 0
M  V30 2043 H 203.173 -4.95149 1.13092 0
M  V30 2044 H 203.103 -5.22848 -0.627534 0
M  V30 2045 H 205.594 -3.77871 -0.047051 0
M  V30 2046 H 205.907 -7.70985 0.529332 0
M  V30 2047 H 204.252 -6.93415 0.469109 0
M  V30 2048 H 207.443 -4.68093 0.0259748 0
M  V30 2049 H 207.616 -6.47357 0.288582 0
M  V30 2050 N 201.022 0.148545 -1.56898 0
M  V30 2051 C 202.438 0.501131 -1.51528 0
M  V30 2052 C 202.638 1.83458 -0.833399 0
M  V30 2053 O 201.694 2.49259 -0.40328 0
M  V30 2054 C 203.007 0.512864 -2.96294 0
M  V30 2055 C 204.555 0.598487 -3.07225 0
M  V30 2056 C 205.03 0.640897 -4.53494 0
M  V30 2057 N 206.521 0.703163 -4.57832 0
M  V30 2058 C 207.256 0.756935 -5.68382 0
M  V30 2059 N 206.752 0.770147 -6.88506 0
M  V30 2060 N 208.545 0.797698 -5.56411 0
M  V30 2061 H 200.696 -0.725532 -1.99624 0
M  V30 2062 H 202.959 -0.264358 -0.910395 0
M  V30 2063 H 202.665 -0.398691 -3.49433 0
M  V30 2064 H 202.539 1.35133 -3.52163 0
M  V30 2065 H 204.926 1.50046 -2.54106 0
M  V30 2066 H 205.007 -0.267093 -2.54402 0
M  V30 2067 H 204.651 -0.256915 -5.0725 0
M  V30 2068 H 204.581 1.52295 -5.04097 0
M  V30 2069 H 207.072 0.700314 -3.71354 0
M  V30 2070 H 207.385 0.812983 -7.68512 0
M  V30 2071 H 205.73 0.738049 -6.9107 0
M  V30 2072 H 208.921 0.784535 -4.61479 0
M  V30 2073 H 209.094 0.83614 -6.42583 0
M  V30 2074 N 202.5 1.5196 0.417844 0
M  V30 2075 C 203.749 1.6482 1.16264 0
M  V30 2076 C 204.062 0.379886 1.91876 0
M  V30 2077 O 205.268 0.388154 2.68711 0
M  V30 2078 C 203.724 2.91161 2.1155 0
M  V30 2079 C 203.332 4.25068 1.41495 0
M  V30 2080 C 205.076 3.13383 2.86341 0
M  V30 2081 C 202.983 5.42541 2.35379 0
M  V30 2082 H 201.913 0.613954 0.437694 0
M  V30 2083 H 204.564 1.78442 0.427871 0
M  V30 2084 H 202.946 2.71218 2.88543 0
M  V30 2085 H 204.12 4.55463 0.699263 0
M  V30 2086 H 202.435 4.0888 0.787792 0
M  V30 2087 H 205.032 3.98324 3.5671 0
M  V30 2088 H 205.375 2.27256 3.48798 0
M  V30 2089 H 205.908 3.33757 2.1645 0
M  V30 2090 H 202.647 6.30987 1.77582 0
M  V30 2091 H 202.167 5.16497 3.04945 0
M  V30 2092 H 203.846 5.75272 2.96093 0
M  V30 2093 N 203.978 -0.674533 1.42435 0
M  V30 2094 C 204.91 -1.80005 1.41883 0
M  V30 2095 C 205.923 -1.59667 0.31787 0
M  V30 2096 O 207.112 -1.68781 0.580973 0
M  V30 2097 C 204.212 -3.17114 1.19549 0
M  V30 2098 C 203.385 -3.64299 2.42084 0
M  V30 2099 C 202.444 -4.80142 2.15291 0
M  V30 2100 O 201.47 -4.90673 2.88493 0
M  V30 2101 N 202.672 -5.68869 1.1562 0
M  V30 2102 H 205.437 -1.80964 2.38898 0
M  V30 2103 H 202.998 -0.857633 1.37318 0
M  V30 2104 H 204.99 -3.92267 0.995417 0
M  V30 2105 H 203.56 -3.11053 0.310569 0
M  V30 2106 H 202.78 -2.79822 2.77657 0
M  V30 2107 H 204.068 -3.92567 3.23679 0
M  V30 2108 H 203.466 -5.63012 0.550765 0
M  V30 2109 H 202.023 -6.43833 1.016 0
M  V30 2110 N 205.456 -1.28612 -0.910864 0
M  V30 2111 C 206.419 -1.12803 -1.9952 0
M  V30 2112 C 207.419 -0.0668264 -1.60661 0
M  V30 2113 O 208.609 -0.312847 -1.71368 0
M  V30 2114 C 205.741 -0.72254 -3.33155 0
M  V30 2115 H 206.934 -2.09109 -2.14973 0
M  V30 2116 H 204.487 -1.11639 -1.09391 0
M  V30 2117 H 205.222 0.241152 -3.23402 0
M  V30 2118 H 205.007 -1.48916 -3.62721 0
M  V30 2119 H 206.497 -0.634666 -4.12749 0
M  V30 2120 N 206.934 1.1197 -1.10907 0
M  V30 2121 C 208.182 1.83225 -0.852819 0
M  V30 2122 C 208.503 1.84769 0.623341 0
M  V30 2123 O 207.773 1.3143 1.45269 0
M  V30 2124 H 206.353 0.67849 -0.312507 0
M  V30 2125 H 209.015 1.3556 -1.40033 0
M  V30 2126 H 208.111 2.87265 -1.22005 0
M  V30 2127 N 208.412 0.89855 1.29475 0
M  V30 2128 C 209.342 0.39201 2.30186 0
M  V30 2129 C 210.323 -0.532359 1.61555 0
M  V30 2130 O 211.508 -0.443331 1.89072 0
M  V30 2131 C 208.638 -0.382353 3.45189 0
M  V30 2132 C 207.592 0.451483 4.25612 0
M  V30 2133 C 206.918 -0.450307 5.328 0
M  V30 2134 C 208.218 1.70079 4.93832 0
M  V30 2135 H 209.912 1.23362 2.72804 0
M  V30 2136 H 207.458 0.594638 1.31149 0
M  V30 2137 H 209.411 -0.747451 4.14718 0
M  V30 2138 H 208.135 -1.25774 3.01411 0
M  V30 2139 H 206.794 0.798897 3.57789 0
M  V30 2140 H 206.442 -1.32379 4.85268 0
M  V30 2141 H 206.142 0.103902 5.87508 0
M  V30 2142 H 207.666 -0.811623 6.05182 0
M  V30 2143 H 209.08 1.40549 5.55805 0
M  V30 2144 H 207.477 2.19623 5.58467 0
M  V30 2145 H 208.547 2.43744 4.19186 0
M  V30 2146 N 209.89 -1.43072 0.660911 0
M  V30 2147 C 211.306 -1.56169 0.329173 0
M  V30 2148 C 211.506 -1.64317 -1.16629 0
M  V30 2149 O 210.562 -1.60245 -1.95135 0
M  V30 2150 C 211.875 -2.81873 1.04729 0
M  V30 2151 C 213.423 -2.95627 1.02828 0
M  V30 2152 C 213.898 -4.24174 1.72744 0
M  V30 2153 N 215.389 -4.31055 1.69545 0
M  V30 2154 C 216.124 -5.29304 2.20511 0
M  V30 2155 N 215.62 -6.33786 2.79799 0
M  V30 2156 N 217.413 -5.21008 2.10966 0
M  V30 2157 H 209.564 -1.36027 1.63127 0
M  V30 2158 H 211.827 -0.653823 0.686454 0
M  V30 2159 H 211.533 -2.81942 2.10242 0
M  V30 2160 H 211.407 -3.72338 0.603702 0
M  V30 2161 H 213.794 -2.95094 -0.0184742 0
M  V30 2162 H 213.875 -2.06431 1.51063 0
M  V30 2163 H 213.519 -4.25467 2.7738 0
M  V30 2164 H 213.449 -5.1228 1.2197 0
M  V30 2165 H 215.94 -3.56174 1.26288 0
M  V30 2166 H 216.253 -7.05086 3.16344 0
M  V30 2167 H 214.598 -6.34387 2.83863 0
M  V30 2168 H 217.789 -4.38301 1.64347 0
M  V30 2169 H 217.962 -5.97416 2.50993 0
M  V30 2170 N 211.368 -0.403325 -1.52352 0
M  V30 2171 C 212.779 0.0675782 -1.86578 0
M  V30 2172 C 213.13 1.44941 -1.32236 0
M  V30 2173 O 212.255 2.06112 -0.659307 0
M  V30 2174 C 212.85 0.129404 -3.38553 0
M  V30 2175 C 211.409 0.544629 -3.72439 0
M  V30 2176 C 210.556 -0.284551 -2.75836 0
M  V30 2177 H 213.507 -0.620631 -1.46061 0
M  V30 2178 H 213.528 0.94581 -3.68558 0
M  V30 2179 H 213.04 -0.87645 -3.78074 0
M  V30 2180 H 211.141 1.55734 -3.38493 0
M  V30 2181 H 211.254 0.293046 -4.78203 0
M  V30 2182 H 209.618 0.252258 -2.53448 0
M  V30 2183 H 210.401 -1.28865 -3.18196 0
M  V30 2184 N 212.846 1.57033 -0.133567 0
M  V30 2185 C 213.778 2.13176 0.841944 0
M  V30 2186 C 214.791 1.07794 1.22001 0
M  V30 2187 O 215.98 1.35117 1.16643 0
M  V30 2188 C 213.08 2.62847 2.13926 0
M  V30 2189 C 212.253 3.92486 1.93064 0
M  V30 2190 C 211.312 4.27605 3.0666 0
M  V30 2191 O 210.338 4.96168 2.78937 0
M  V30 2192 N 211.54 3.861 4.33483 0
M  V30 2193 H 214.305 2.97503 0.362192 0
M  V30 2194 H 211.866 1.61821 0.05042 0
M  V30 2195 H 213.858 2.83363 2.88942 0
M  V30 2196 H 212.428 1.83319 2.53205 0
M  V30 2197 H 211.648 3.80732 1.02159 0
M  V30 2198 H 212.936 4.77225 1.76447 0
M  V30 2199 H 212.334 3.30828 4.58878 0
M  V30 2200 H 210.891 4.11694 5.05323 0
M  V30 2201 N 214.325 -0.140222 1.56975 0
M  V30 2202 C 215.55 -0.870414 1.88251 0
M  V30 2203 C 215.975 -1.73637 0.723312 0
M  V30 2204 O 215.333 -1.78329 -0.32689 0
M  V30 2205 C 215.381 -1.69737 3.18154 0
M  V30 2206 O 214.485 -2.80229 3.02565 0
M  V30 2207 H 213.826 -0.242025 0.61832 0
M  V30 2208 H 216.356 -0.128999 2.04193 0
M  V30 2209 H 216.366 -2.09099 3.50345 0
M  V30 2210 H 215.041 -1.06152 4.02125 0
M  V30 2211 H 213.618 -2.44224 2.81796 0
M  V30 2212 N 215.803 -1.52179 -0.40978 0
M  V30 2213 C 217.219 -1.40968 -0.74835 0
M  V30 2214 C 217.419 -0.513657 -1.94843 0
M  V30 2215 O 216.475 0.0208026 -2.52491 0
M  V30 2216 C 217.788 -2.83483 -1.0029 0
M  V30 2217 C 219.336 -2.92821 -1.10565 0
M  V30 2218 C 219.811 -4.36303 -1.39296 0
M  V30 2219 N 221.302 -4.39535 -1.46162 0
M  V30 2220 C 222.037 -5.47614 -1.70018 0
M  V30 2221 N 221.533 -6.65812 -1.91483 0
M  V30 2222 N 223.326 -5.35129 -1.72027 0
M  V30 2223 H 215.477 -2.0897 0.380186 0
M  V30 2224 H 217.74 -0.94185 0.107805 0
M  V30 2225 H 217.446 -3.51168 -0.193461 0
M  V30 2226 H 217.32 -3.24487 -1.92323 0
M  V30 2227 H 219.707 -2.25318 -1.90568 0
M  V30 2228 H 219.788 -2.55276 -0.16369 0
M  V30 2229 H 219.432 -5.04366 -0.598109 0
M  V30 2230 H 219.362 -4.71385 -2.34743 0
M  V30 2231 H 221.853 -3.54332 -1.31367 0
M  V30 2232 H 222.166 -7.43964 -2.09134 0
M  V30 2233 H 220.511 -6.68879 -1.88749 0
M  V30 2234 H 223.702 -4.41764 -1.54796 0
M  V30 2235 H 223.875 -6.19433 -1.9028 0
M  V30 2236 N 217.281 0.66697 -1.42791 0
M  V30 2237 C 218.211 1.79218 -1.49677 0
M  V30 2238 C 219.192 1.66405 -0.352623 0
M  V30 2239 O 220.377 1.85708 -0.567993 0
M  V30 2240 C 217.507 3.17565 -1.40605 0
M  V30 2241 C 216.461 3.45124 -2.53127 0
M  V30 2242 C 215.787 4.83127 -2.29112 0
M  V30 2243 C 217.087 3.41236 -3.95418 0
M  V30 2244 H 218.781 1.73713 -2.43853 0
M  V30 2245 H 216.327 0.83432 -1.17367 0
M  V30 2246 H 218.28 3.96022 -1.44029 0
M  V30 2247 H 217.004 3.23767 -0.429271 0
M  V30 2248 H 215.663 2.69031 -2.49034 0
M  V30 2249 H 215.311 4.85988 -1.29709 0
M  V30 2250 H 215.011 5.02528 -3.04531 0
M  V30 2251 H 216.535 5.63859 -2.34297 0
M  V30 2252 H 217.949 4.09651 -4.01073 0
M  V30 2253 H 216.346 3.72173 -4.70752 0
M  V30 2254 H 217.416 2.39665 -4.21532 0
M  V30 2255 N 218.759 1.29093 0.90403 0
M  V30 2256 C 219.689 1.16401 2.02418 0
M  V30 2257 C 220.67 0.0593085 1.69997 0
M  V30 2258 O 221.855 0.238021 1.92736 0
M  V30 2259 C 218.985 0.835233 3.37107 0
M  V30 2260 C 217.939 1.89578 3.83724 0
M  V30 2261 C 217.265 1.42041 5.15489 0
M  V30 2262 C 218.565 3.30394 4.04521 0
M  V30 2263 H 220.259 2.10109 2.13295 0
M  V30 2264 H 217.805 1.01157 1.02486 0
M  V30 2265 H 219.758 0.733169 4.14973 0
M  V30 2266 H 218.482 -0.137543 3.2631 0
M  V30 2267 H 217.141 1.98715 3.08071 0
M  V30 2268 H 216.789 0.436426 5.01103 0
M  V30 2269 H 216.489 2.12964 5.4765 0
M  V30 2270 H 218.013 1.33176 5.959 0
M  V30 2271 H 219.427 3.24123 4.72882 0
M  V30 2272 H 217.824 3.99237 4.48029 0
M  V30 2273 H 218.894 3.73692 3.09002 0
M  V30 2274 N 220.237 -1.11381 1.11499 0
M  V30 2275 C 221.486 -1.82494 0.858993 0
M  V30 2276 C 221.799 -1.85605 -0.617278 0
M  V30 2277 O 223.005 -2.52824 -0.989552 0
M  V30 2278 C 221.461 -3.27745 1.48699 0
M  V30 2279 C 221.069 -3.32961 2.99735 0
M  V30 2280 C 222.813 -4.03754 1.31085 0
M  V30 2281 C 220.72 -4.72612 3.55516 0
M  V30 2282 H 219.65 -0.683802 0.317696 0
M  V30 2283 H 222.301 -1.25331 1.34031 0
M  V30 2284 H 220.683 -3.84844 0.933339 0
M  V30 2285 H 221.857 -2.85741 3.61509 0
M  V30 2286 H 220.172 -2.70433 3.16631 0
M  V30 2287 H 222.769 -5.06891 1.70192 0
M  V30 2288 H 223.112 -4.15527 0.253496 0
M  V30 2289 H 223.645 -3.53043 1.83318 0
M  V30 2290 H 220.384 -4.66036 4.60967 0
M  V30 2291 H 219.904 -5.2024 2.98513 0
M  V30 2292 H 221.583 -5.4157 3.53992 0
M  V30 2293 N 221.715 -0.905404 -1.28997 0
M  V30 2294 C 222.961 -0.535039 -1.95615 0
M  V30 2295 C 223.294 0.917404 -1.71165 0
M  V30 2296 O 222.569 1.65123 -1.02785 0
M  V30 2297 C 222.852 -0.834918 -3.50287 0
M  V30 2298 C 222.705 -2.33948 -3.84172 0
M  V30 2299 C 224.024 -0.325318 -4.38896 0
M  V30 2300 H 221.143 -0.195861 -0.710498 0
M  V30 2301 H 223.785 -1.13313 -1.52513 0
M  V30 2302 H 221.935 -0.325904 -3.87131 0
M  V30 2303 H 223.607 -2.91847 -3.57243 0
M  V30 2304 H 221.85 -2.79789 -3.31513 0
M  V30 2305 H 222.521 -2.49987 -4.92149 0
M  V30 2306 H 224.997 -0.761256 -4.09077 0
M  V30 2307 H 223.873 -0.564295 -5.45992 0
M  V30 2308 H 224.134 0.774144 -4.35269 0
M  V30 2309 N 223.193 1.4272 -0.668489 0
M  V30 2310 C 224.441 2.01226 -0.187769 0
M  V30 2311 C 224.762 1.53092 1.2078 0
M  V30 2312 O 224.032 0.74993 1.80977 0
M  V30 2313 H 222.612 0.744041 -0.0664272 0
M  V30 2314 H 225.274 1.74723 -0.863583 0
M  V30 2315 H 224.37 3.11556 -0.184166 0
M  V30 2316 N 224.671 0.411399 1.52136 0
M  V30 2317 C 225.919 -0.163322 2.01439 0
M  V30 2318 C 226.24 -1.45453 1.29879 0
M  V30 2319 O 225.51 -1.91225 0.4254 0
M  V30 2320 H 224.09 -0.0633447 0.744309 0
M  V30 2321 H 226.752 0.548161 1.87033 0
M  V30 2322 H 225.848 -0.357817 3.10042 0
M  V30 2323 N 226.149 -1.5696 0.141893 0
M  V30 2324 C 227.397 -1.95573 -0.509484 0
M  V30 2325 C 227.718 -1.02746 -1.65736 0
M  V30 2326 O 226.988 -0.0880311 -1.95702 0
M  V30 2327 H 225.568 -0.722115 -0.191205 0
M  V30 2328 H 228.23 -1.93697 0.216196 0
M  V30 2329 H 227.326 -2.99171 -0.889 0
M  V30 2330 N 227.627 0.131896 -1.57047 0
M  V30 2331 C 228.873 0.843179 -1.84441 0
M  V30 2332 C 229.206 1.80129 -0.725749 0
M  V30 2333 O 228.481 1.92624 0.269469 0
M  V30 2334 C 228.764 1.60442 -3.22382 0
M  V30 2335 C 228.617 0.666782 -4.4483 0
M  V30 2336 C 229.936 2.56354 -3.5773 0
M  V30 2337 H 227.055 0.305081 -0.670891 0
M  V30 2338 H 229.697 0.107839 -1.89694 0
M  V30 2339 H 227.847 2.23128 -3.18035 0
M  V30 2340 H 229.519 0.0497646 -4.61273 0
M  V30 2341 H 227.762 -0.022609 -4.33794 0
M  V30 2342 H 228.433 1.23579 -5.37989 0
M  V30 2343 H 230.909 2.0378 -3.62785 0
M  V30 2344 H 229.785 3.06657 -4.5525 0
M  V30 2345 H 230.046 3.38419 -2.84473 0
M  V30 2346 N 229.106 1.52395 0.401703 0
M  V30 2347 C 230.355 1.66044 1.14509 0
M  V30 2348 C 230.668 0.400216 1.91462 0
M  V30 2349 O 231.874 0.416632 2.68284 0
M  V30 2350 C 230.33 2.93388 2.0845 0
M  V30 2351 C 229.938 4.26545 1.36978 0
M  V30 2352 C 231.682 3.16402 2.83001 0
M  V30 2353 C 229.589 5.45007 2.29611 0
M  V30 2354 H 228.519 0.618562 0.431158 0
M  V30 2355 H 231.17 1.78886 0.40892 0
M  V30 2356 H 229.552 2.74263 2.8565 0
M  V30 2357 H 230.726 4.56179 0.650916 0
M  V30 2358 H 229.041 4.09692 0.74438 0
M  V30 2359 H 231.638 4.02085 3.52465 0
M  V30 2360 H 231.981 2.30943 3.46368 0
M  V30 2361 H 232.514 3.36034 2.12898 0
M  V30 2362 H 229.253 6.32835 1.70879 0
M  V30 2363 H 228.773 5.19702 2.9945 0
M  V30 2364 H 230.452 5.7838 2.89974 0
M  V30 2365 N 230.584 -0.659388 1.43143 0
M  V30 2366 C 231.832 -1.41654 1.44147 0
M  V30 2367 C 232.153 -1.94893 0.0645739 0
M  V30 2368 O 231.423 -1.74044 -0.899198 0
M  V30 2369 H 230.003 -0.525708 0.530697 0
M  V30 2370 H 232.665 -0.778097 1.78694 0
M  V30 2371 H 231.761 -2.26195 2.1504 0
M  V30 2372 N 232.062 -1.29571 -0.897171 0
M  V30 2373 C 232.992 -1.17473 -2.01798 0
M  V30 2374 C 233.973 -0.068323 -1.69963 0
M  V30 2375 O 235.158 -0.248239 -1.92607 0
M  V30 2376 C 232.288 -0.853099 -3.36659 0
M  V30 2377 C 231.242 -1.9161 -3.82713 0
M  V30 2378 C 230.568 -1.44773 -5.14728 0
M  V30 2379 C 231.868 -3.32535 -4.02763 0
M  V30 2380 H 233.562 -2.11237 -2.12177 0
M  V30 2381 H 231.108 -1.01699 -1.01948 0
M  V30 2382 H 233.061 -0.755165 -4.14578 0
M  V30 2383 H 231.785 0.120236 -3.26379 0
M  V30 2384 H 230.444 -2.00346 -3.07013 0
M  V30 2385 H 230.092 -0.462995 -5.00865 0
M  V30 2386 H 229.792 -2.15865 -5.46513 0
M  V30 2387 H 231.316 -1.36334 -5.95185 0
M  V30 2388 H 232.73 -3.26626 -4.71156 0
M  V30 2389 H 231.127 -4.01607 -4.45905 0
M  V30 2390 H 232.197 -3.75326 -3.07016 0
M  V30 2391 N 233.54 1.10788 -1.12088 0
M  V30 2392 C 234.45 2.20599 -0.798338 0
M  V30 2393 C 235.466 1.72712 0.21135 0
M  V30 2394 O 236.642 2.01348 0.0458477 0
M  V30 2395 C 233.707 3.45771 -0.253674 0
M  V30 2396 C 232.768 4.08411 -1.32283 0
M  V30 2397 C 232.001 5.27608 -0.80406 0
M  V30 2398 O 232.224 5.69241 0.363478 0
M  V30 2399 O 231.158 5.8101 -1.57198 0
M  V30 2400 H 234.984 2.50614 -1.7154 0
M  V30 2401 H 232.569 1.19454 -0.897275 0
M  V30 2402 H 234.451 4.21376 0.0453691 0
M  V30 2403 H 233.126 3.1739 0.636005 0
M  V30 2404 H 232.033 3.34507 -1.67499 0
M  V30 2405 H 233.366 4.40986 -2.18614 0
M  V30 2406 N 235.018 0.912232 1.28515 0
M  V30 2407 C 235.948 0.416403 2.29757 0
M  V30 2408 C 236.929 -0.515194 1.6211 0
M  V30 2409 O 238.114 -0.423253 1.89532 0
M  V30 2410 C 235.244 -0.34572 3.45575 0
M  V30 2411 C 234.198 0.496599 4.25109 0
M  V30 2412 C 233.524 -0.393771 5.33248 0
M  V30 2413 C 234.824 1.75307 4.92001 0
M  V30 2414 H 236.518 1.26249 2.7148 0
M  V30 2415 H 234.064 0.608515 1.30511 0
M  V30 2416 H 236.017 -0.703422 4.15488 0
M  V30 2417 H 234.741 -1.2257 3.02728 0
M  V30 2418 H 233.4 0.8368 3.56922 0
M  V30 2419 H 233.048 -1.27225 4.86644 0
M  V30 2420 H 232.748 0.166209 5.87365 0
M  V30 2421 H 234.272 -0.747389 6.06009 0
M  V30 2422 H 235.686 1.46437 5.54283 0
M  V30 2423 H 234.083 2.25534 5.56106 0
M  V30 2424 H 235.153 2.48176 4.16577 0
M  V30 2425 N 236.496 -1.42363 0.676048 0
M  V30 2426 C 237.459 -2.29199 0.00766941 0
M  V30 2427 C 238.459 -1.43389 -0.727745 0
M  V30 2428 O 239.649 -1.64764 -0.56556 0
M  V30 2429 C 236.781 -3.2591 -0.999785 0
M  V30 2430 H 237.974 -2.89794 0.771988 0
M  V30 2431 H 235.527 -1.50024 0.438468 0
M  V30 2432 H 236.262 -2.70256 -1.79255 0
M  V30 2433 H 236.047 -3.89202 -0.475829 0
M  V30 2434 H 237.537 -3.91028 -1.46583 0
M  V30 2435 N 237.974 -0.419461 -1.51915 0
M  V30 2436 C 238.937 0.389116 -2.25873 0
M  V30 2437 C 239.937 0.964924 -1.28631 0
M  V30 2438 O 241.127 0.842179 -1.52489 0
M  V30 2439 C 238.259 1.54874 -3.03689 0
M  V30 2440 H 239.452 -0.258799 -2.98781 0
M  V30 2441 H 237.005 -0.172209 -1.55348 0
M  V30 2442 H 237.74 2.23323 -2.35154 0
M  V30 2443 H 237.525 1.14223 -3.75094 0
M  V30 2444 H 239.015 2.12046 -3.59759 0
M  V30 2445 N 239.452 1.56882 -0.150215 0
M  V30 2446 C 240.68 2.00593 0.506948 0
M  V30 2447 C 241.095 1.03033 1.58208 0
M  V30 2448 O 240.452 0.0278396 1.82479 0
M  V30 2449 C 240.503 3.44209 1.10465 0
M  V30 2450 O 240.224 4.3804 0.0724636 0
M  V30 2451 C 241.725 4.03214 1.84211 0
M  V30 2452 H 238.945 0.65795 0.13169 0
M  V30 2453 H 241.489 2.03018 -0.245743 0
M  V30 2454 H 239.644 3.42625 1.80795 0
M  V30 2455 H 240.058 5.22007 0.510793 0
M  V30 2456 H 241.532 5.0569 2.21318 0
M  V30 2457 H 242.009 3.44107 2.72923 0
M  V30 2458 H 242.615 4.08437 1.18572 0
M  V30 2459 N 240.93 -0.123565 1.57115 0
M  V30 2460 C 241.893 -1.13583 1.99076 0
M  V30 2461 C 242.893 -1.34564 0.880296 0
M  V30 2462 O 244.083 -1.31158 1.14644 0
M  V30 2463 C 241.215 -2.49128 2.32698 0
M  V30 2464 H 242.408 -0.775287 2.89706 0
M  V30 2465 H 239.961 -0.36771 1.51913 0
M  V30 2466 H 240.696 -2.90111 1.44934 0
M  V30 2467 H 240.481 -2.35255 3.13684 0
M  V30 2468 H 241.971 -3.2199 2.65918 0
M  V30 2469 N 242.408 -1.52605 -0.393616 0
M  V30 2470 C 243.824 -1.41753 -0.733357 0
M  V30 2471 C 244.024 -0.534293 -1.94287 0
M  V30 2472 O 243.08 -0.0059787 -2.52499 0
M  V30 2473 C 244.393 -2.84531 -0.972772 0
M  V30 2474 C 245.941 -2.93978 -1.07453 0
M  V30 2475 C 246.416 -4.37756 -1.3466 0
M  V30 2476 N 247.907 -4.4106 -1.41492 0
M  V30 2477 C 248.642 -5.49387 -1.642 0
M  V30 2478 N 248.138 -6.67806 -1.8441 0
M  V30 2479 N 249.931 -5.36923 -1.66342 0
M  V30 2480 H 242.082 -2.08555 0.402328 0
M  V30 2481 H 244.345 -0.940654 0.117789 0
M  V30 2482 H 244.051 -3.51353 -0.156204 0
M  V30 2483 H 243.925 -3.26508 -1.88871 0
M  V30 2484 H 246.312 -2.27326 -1.88167 0
M  V30 2485 H 246.393 -2.55435 -0.136605 0
M  V30 2486 H 246.037 -5.04972 -0.544581 0
M  V30 2487 H 245.967 -4.73848 -2.2973 0
M  V30 2488 H 248.458 -3.55705 -1.27601 0
M  V30 2489 H 248.771 -7.46141 -2.01231 0
M  V30 2490 H 247.116 -6.70843 -1.81644 0
M  V30 2491 H 250.307 -4.43381 -1.50102 0
M  V30 2492 H 250.48 -6.21416 -1.837 0
M  V30 2493 N 243.887 0.651787 -1.4349 0
M  V30 2494 C 245.115 1.43937 -1.48626 0
M  V30 2495 C 245.53 1.8851 -0.104587 0
M  V30 2496 O 244.887 1.5958 0.885464 0
M  V30 2497 C 244.938 2.6734 -2.43334 0
M  V30 2498 O 244.659 2.24631 -3.76128 0
M  V30 2499 C 246.16 3.60683 -2.57726 0
M  V30 2500 H 243.38 0.44213 -0.504739 0
M  V30 2501 H 245.924 0.798944 -1.88248 0
M  V30 2502 H 244.079 3.2752 -2.06904 0
M  V30 2503 H 244.493 3.04485 -4.2707 0
M  V30 2504 H 245.967 4.43933 -3.28067 0
M  V30 2505 H 246.444 4.08126 -1.62265 0
M  V30 2506 H 247.05 3.06384 -2.94973 0
M  V30 2507 N 245.365 1.30045 0.890287 0
M  V30 2508 C 246.328 1.15963 1.977 0
M  V30 2509 C 247.328 0.0923777 1.60534 0
M  V30 2510 O 248.518 0.340071 1.70848 0
M  V30 2511 C 245.65 0.775451 3.31963 0
M  V30 2512 H 246.843 2.12502 2.11619 0
M  V30 2513 H 244.396 1.13366 1.07601 0
M  V30 2514 H 245.131 -0.189671 3.23745 0
M  V30 2515 H 244.916 1.54668 3.60306 0
M  V30 2516 H 246.406 0.700251 4.11687 0
M  V30 2517 N 246.843 -1.10192 1.12674 0
M  V30 2518 C 248.091 -1.81845 0.881861 0
M  V30 2519 C 248.412 -1.85737 -0.593867 0
M  V30 2520 O 247.682 -1.33724 -1.4316 0
M  V30 2521 H 246.262 -0.673432 0.323261 0
M  V30 2522 H 248.924 -1.33316 1.42172 0
M  V30 2523 H 248.02 -2.85288 1.2656 0
M  V30 2524 N 248.321 -0.919034 -1.28029 0
M  V30 2525 C 249.567 -0.555757 -1.95036 0
M  V30 2526 C 249.9 0.899198 -1.72128 0
M  V30 2527 O 249.175 1.64023 -1.04531 0
M  V30 2528 C 249.458 -0.872024 -3.49382 0
M  V30 2529 C 249.311 -2.3801 -3.81669 0
M  V30 2530 C 250.63 -0.37185 -4.38526 0
M  V30 2531 H 247.749 -0.203386 -0.708381 0
M  V30 2532 H 250.391 -1.14924 -1.51303 0
M  V30 2533 H 248.541 -0.366946 -3.86763 0
M  V30 2534 H 250.213 -2.9562 -3.54128 0
M  V30 2535 H 248.456 -2.83289 -3.28526 0
M  V30 2536 H 249.127 -2.55192 -4.8947 0
M  V30 2537 H 251.603 -0.804602 -4.08247 0
M  V30 2538 H 250.479 -0.622173 -5.45362 0
M  V30 2539 H 250.74 0.727934 -4.36066 0
M  V30 2540 N 249.799 1.42003 -0.683588 0
M  V30 2541 C 250.749 2.27997 0.0121992 0
M  V30 2542 C 251.733 1.4156 0.764822 0
M  V30 2543 O 252.925 1.64935 0.642287 0
M  V30 2544 C 250.054 3.29706 0.956482 0
M  V30 2545 C 249.14 4.23625 0.200739 0
M  V30 2546 N 249.531 4.99448 -0.799087 0
M  V30 2547 C 247.829 4.43845 0.437937 0
M  V30 2548 C 248.53 5.68102 -1.25041 0
M  V30 2549 N 247.506 5.40511 -0.578648 0
M  V30 2550 H 251.308 2.84048 -0.754564 0
M  V30 2551 H 248.822 1.54071 -0.513398 0
M  V30 2552 H 250.819 3.90124 1.47 0
M  V30 2553 H 249.479 2.75216 1.72297 0
M  V30 2554 H 250.49 5.04303 -1.17893 0
M  V30 2555 H 247.167 4.00382 1.18325 0
M  V30 2556 H 248.557 6.38913 -2.07942 0
M  V30 2557 N 251.277 0.427512 1.51691 0
M  V30 2558 C 252.523 -0.142439 2.02299 0
M  V30 2559 C 252.856 -1.43214 1.31162 0
M  V30 2560 O 252.131 -1.89833 0.423511 0
M  V30 2561 C 252.414 -0.371301 3.58181 0
M  V30 2562 C 252.267 0.936358 4.39946 0
M  V30 2563 C 253.586 -1.14542 4.24933 0
M  V30 2564 H 250.705 -0.0502937 0.735282 0
M  V30 2565 H 253.347 0.564584 1.81418 0
M  V30 2566 H 251.497 -0.973559 3.76104 0
M  V30 2567 H 253.169 1.57184 4.33694 0
M  V30 2568 H 251.412 1.5432 4.05423 0
M  V30 2569 H 252.083 0.730388 5.47147 0
M  V30 2570 H 254.559 -0.635362 4.11221 0
M  V30 2571 H 253.435 -1.27431 5.33903 0
M  V30 2572 H 253.696 -2.17093 3.85127 0
M  V30 2573 N 252.755 -1.56801 0.158532 0
M  V30 2574 C 253.98 -2.01295 -0.499516 0
M  V30 2575 C 254.405 -1.03799 -1.56867 0
M  V30 2576 O 253.763 -0.0155162 -1.81293 0
M  V30 2577 C 253.811 -3.44469 -1.06647 0
M  V30 2578 O 252.915 -3.50012 -2.18095 0
M  V30 2579 H 252.256 -0.652884 -0.12099 0
M  V30 2580 H 254.786 -2.02958 0.258661 0
M  V30 2581 H 254.796 -3.8351 -1.39227 0
M  V30 2582 H 253.471 -4.14932 -0.283581 0
M  V30 2583 H 252.048 -3.22822 -1.86656 0
M  V30 2584 N 254.233 0.115231 -1.57178 0
M  V30 2585 C 255.163 1.1423 -2.03651 0
M  V30 2586 C 256.144 1.42967 -0.921655 0
M  V30 2587 O 257.329 1.53343 -1.19162 0
M  V30 2588 C 254.459 2.4675 -2.44401 0
M  V30 2589 C 253.413 2.32467 -3.59365 0
M  V30 2590 C 252.739 3.69984 -3.86026 0
M  V30 2591 C 254.039 1.78203 -4.90959 0
M  V30 2592 H 255.733 0.755749 -2.89705 0
M  V30 2593 H 253.279 0.362093 -1.39373 0
M  V30 2594 H 255.232 3.18854 -2.75517 0
M  V30 2595 H 253.956 2.87302 -1.55322 0
M  V30 2596 H 252.615 1.62811 -3.28463 0
M  V30 2597 H 252.263 4.08028 -2.94147 0
M  V30 2598 H 251.963 3.61279 -4.63412 0
M  V30 2599 H 253.487 4.43587 -4.19599 0
M  V30 2600 H 254.901 2.40128 -5.20587 0
M  V30 2601 H 253.298 1.8031 -5.72371 0
M  V30 2602 H 254.368 0.739876 -4.79222 0
M  V30 2603 N 255.711 1.52812 0.385517 0
M  V30 2604 C 256.957 1.68275 1.13188 0
M  V30 2605 C 257.29 0.423179 1.89533 0
M  V30 2606 O 256.565 -0.579113 1.85679 0
M  V30 2607 C 256.848 2.92001 2.1073 0
M  V30 2608 C 256.701 4.28067 1.38125 0
M  V30 2609 C 258.02 3.11283 3.11113 0
M  V30 2610 H 255.139 0.612352 0.410115 0
M  V30 2611 H 257.781 1.85415 0.414869 0
M  V30 2612 H 255.931 2.77519 2.71874 0
M  V30 2613 H 257.603 4.54324 0.799187 0
M  V30 2614 H 255.846 4.28388 0.683092 0
M  V30 2615 H 256.517 5.10733 2.09417 0
M  V30 2616 H 258.993 3.2482 2.6006 0
M  V30 2617 H 257.869 3.99325 3.76605 0
M  V30 2618 H 258.13 2.25656 3.80173 0
M  V30 2619 N 257.189 -0.644168 1.43834 0
M  V30 2620 C 258.099 -1.78563 1.52159 0
M  V30 2621 C 259.115 -1.69147 0.408069 0
M  V30 2622 O 260.291 -1.90156 0.663524 0
M  V30 2623 C 257.356 -3.14888 1.45073 0
M  V30 2624 C 256.417 -3.36034 2.6717 0
M  V30 2625 C 255.65 -4.65855 2.60413 0
M  V30 2626 O 255.873 -5.45805 1.65689 0
M  V30 2627 O 254.807 -4.88918 3.5106 0
M  V30 2628 H 258.633 -1.74494 2.48567 0
M  V30 2629 H 256.218 -0.80378 1.25935 0
M  V30 2630 H 258.1 -3.96179 1.43597 0
M  V30 2631 H 256.775 -3.19528 0.518037 0
M  V30 2632 H 255.682 -2.54472 2.74217 0
M  V30 2633 H 257.015 -3.36247 3.59442 0
M  V30 2634 N 258.668 -1.30515 -0.883378 0
M  V30 2635 C 259.896 -1.22359 -1.66841 0
M  V30 2636 C 260.311 0.213296 -1.87591 0
M  V30 2637 O 259.668 1.14075 -1.42454 0
M  V30 2638 C 259.719 -1.95011 -3.04389 0
M  V30 2639 O 259.44 -3.3309 -2.84575 0
M  V30 2640 C 260.941 -1.93532 -3.98824 0
M  V30 2641 H 258.161 -0.423371 -0.520575 0
M  V30 2642 H 260.705 -1.72167 -1.10357 0
M  V30 2643 H 258.86 -1.48997 -3.57601 0
M  V30 2644 H 259.274 -3.69907 -3.71846 0
M  V30 2645 H 260.748 -2.48902 -4.92699 0
M  V30 2646 H 261.225 -0.914627 -4.29571 0
M  V30 2647 H 261.831 -2.39364 -3.51547 0
M  V30 2648 N 260.146 1.09593 -1.13257 0
M  V30 2649 C 261.078 2.16015 -0.766167 0
M  V30 2650 C 262.091 1.61423 0.211303 0
M  V30 2651 O 263.28 1.78498 -0.00863946 0
M  V30 2652 C 260.38 3.38706 -0.114662 0
M  V30 2653 C 259.553 4.22717 -1.12379 0
M  V30 2654 C 258.612 5.23835 -0.498301 0
M  V30 2655 O 257.638 5.573 -1.15781 0
M  V30 2656 N 258.84 5.75886 0.730417 0
M  V30 2657 H 261.605 2.48055 -1.68193 0
M  V30 2658 H 259.166 1.25292 -1.02535 0
M  V30 2659 H 261.158 4.03464 0.315991 0
M  V30 2660 H 259.728 3.04569 0.704011 0
M  V30 2661 H 258.948 3.54122 -1.73179 0
M  V30 2662 H 260.236 4.75673 -1.80589 0
M  V30 2663 H 259.634 5.50911 1.28504 0
M  V30 2664 H 258.191 6.42387 1.10376 0
M  V30 2665 N 261.624 0.925811 1.2754 0
M  V30 2666 C 263.035 0.610102 1.7645 0
M  V30 2667 C 263.386 -0.874723 1.75622 0
M  V30 2668 O 262.511 -1.68444 1.35851 0
M  V30 2669 C 263.106 1.10073 3.20421 0
M  V30 2670 C 261.665 0.835723 3.67005 0
M  V30 2671 C 260.812 1.26054 2.46993 0
M  V30 2672 H 263.763 1.10579 1.13833 0
M  V30 2673 H 263.784 0.447557 3.77859 0
M  V30 2674 H 263.296 2.18143 3.20991 0
M  V30 2675 H 261.397 -0.231249 3.71882 0
M  V30 2676 H 261.51 1.45193 4.56569 0
M  V30 2677 H 259.874 0.679111 2.45479 0
M  V30 2678 H 260.657 2.34984 2.50275 0
M  V30 2679 N 263.102 -1.41638 0.69111 0
M  V30 2680 C 264.518 -1.55435 0.362224 0
M  V30 2681 C 264.718 -1.66754 -1.13117 0
M  V30 2682 O 263.774 -1.64348 -1.91692 0
M  V30 2683 C 265.087 -2.79588 1.10684 0
M  V30 2684 C 266.635 -2.9338 1.09075 0
M  V30 2685 C 267.11 -4.20414 1.81703 0
M  V30 2686 N 268.601 -4.27362 1.7865 0
M  V30 2687 C 269.336 -5.24507 2.31689 0
M  V30 2688 N 268.832 -6.27708 2.93179 0
M  V30 2689 N 270.625 -5.16416 2.2197 0
M  V30 2690 H 262.776 -1.32536 1.65976 0
M  V30 2691 H 265.039 -0.639115 0.700168 0
M  V30 2692 H 264.745 -2.77419 2.16175 0
M  V30 2693 H 264.619 -3.70973 0.682545 0
M  V30 2694 H 267.006 -2.95067 0.0441238 0
M  V30 2695 H 267.087 -2.0318 1.55407 0
M  V30 2696 H 266.731 -4.19488 2.86343 0
M  V30 2697 H 266.661 -5.09578 1.32808 0
M  V30 2698 H 269.152 -3.53415 1.33815 0
M  V30 2699 H 269.465 -6.98217 3.31229 0
M  V30 2700 H 267.81 -6.28223 2.97255 0
M  V30 2701 H 271.001 -4.34716 1.73607 0
M  V30 2702 H 271.174 -5.91958 2.63609 0
M  V30 2703 N 264.58 -0.43555 -1.51462 0
M  V30 2704 C 265.51 0.367376 -2.30592 0
M  V30 2705 C 266.491 1.02263 -1.35928 0
M  V30 2706 O 267.676 1.02661 -1.64847 0
M  V30 2707 C 264.806 1.46983 -3.14664 0
M  V30 2708 C 263.76 0.938161 -4.17591 0
M  V30 2709 C 263.086 2.13622 -4.90173 0
M  V30 2710 C 264.386 -0.0261621 -5.22293 0
M  V30 2711 H 266.08 -0.292969 -2.97963 0
M  V30 2712 H 263.626 -0.14234 -1.43295 0
M  V30 2713 H 265.579 2.03873 -3.688 0
M  V30 2714 H 264.303 2.15843 -2.4511 0
M  V30 2715 H 262.962 0.391481 -3.64504 0
M  V30 2716 H 262.61 2.81098 -4.17124 0
M  V30 2717 H 262.31 1.78688 -5.59772 0
M  V30 2718 H 263.834 2.7107 -5.47132 0
M  V30 2719 H 265.248 0.452384 -5.71512 0
M  V30 2720 H 263.645 -0.287992 -5.99409 0
M  V30 2721 H 264.715 -0.963391 -4.75233 0
M  V30 2722 N 266.058 1.56714 -0.166846 0
M  V30 2723 C 266.991 2.13577 0.80375 0
M  V30 2724 C 267.969 1.06464 1.22899 0
M  V30 2725 O 269.153 1.34413 1.32157 0
M  V30 2726 C 266.28 2.67168 2.0818 0
M  V30 2727 C 265.326 3.86612 1.80093 0
M  V30 2728 S 266.159 5.26565 0.97416 0
M  V30 2729 C 267.315 5.83558 2.26297 0
M  V30 2730 H 267.548 2.9557 0.320267 0
M  V30 2731 H 265.081 1.54326 0.0477555 0
M  V30 2732 H 267.039 2.98692 2.8159 0
M  V30 2733 H 265.7 1.85269 2.53642 0
M  V30 2734 H 264.893 4.22422 2.7491 0
M  V30 2735 H 264.495 3.55951 1.14781 0
M  V30 2736 H 266.787 5.962 3.21795 0
M  V30 2737 H 267.73 6.80731 1.94962 0
M  V30 2738 H 268.138 5.11944 2.37853 0
M  V30 2739 N 267.536 -0.106894 1.57237 0
M  V30 2740 C 268.761 -0.830287 1.90055 0
M  V30 2741 C 269.186 -1.72064 0.75998 0
M  V30 2742 O 268.544 -1.78982 -0.288991 0
M  V30 2743 C 268.592 -1.6295 3.21683 0
M  V30 2744 O 267.696 -2.73748 3.08441 0
M  V30 2745 H 267.037 -0.228855 0.623315 0
M  V30 2746 H 269.567 -0.085658 2.04421 0
M  V30 2747 H 269.577 -2.01621 3.54701 0
M  V30 2748 H 268.252 -0.975989 4.04286 0
M  V30 2749 H 266.829 -2.38192 2.86913 0
M  V30 2750 N 269.014 -1.53014 -0.377408 0
M  V30 2751 C 270.43 -1.42523 -0.718281 0
M  V30 2752 C 270.63 -0.55487 -1.9371 0
M  V30 2753 O 269.686 -0.0327593 -2.52479 0
M  V30 2754 C 270.999 -2.85546 -0.942539 0
M  V30 2755 C 272.547 -2.95101 -1.04329 0
M  V30 2756 C 273.022 -4.3916 -1.3001 0
M  V30 2757 N 274.513 -4.42536 -1.36806 0
M  V30 2758 C 275.248 -5.51097 -1.58364 0
M  V30 2759 N 274.744 -6.69724 -1.77317 0
M  V30 2760 N 276.537 -5.38657 -1.60638 0
M  V30 2761 H 268.688 -2.08116 0.424426 0
M  V30 2762 H 270.951 -0.939352 0.127759 0
M  V30 2763 H 270.657 -3.51499 -0.118929 0
M  V30 2764 H 270.531 -3.28493 -1.85397 0
M  V30 2765 H 272.918 -2.29309 -1.85745 0
M  V30 2766 H 272.999 -2.55566 -0.109505 0
M  V30 2767 H 272.643 -5.05521 -0.490991 0
M  V30 2768 H 272.573 -4.76258 -2.24691 0
M  V30 2769 H 275.064 -3.57039 -1.23821 0
M  V30 2770 H 275.377 -7.48233 -1.93306 0
M  V30 2771 H 273.722 -6.72732 -1.74518 0
M  V30 2772 H 276.913 -4.44948 -1.45391 0
M  V30 2773 H 277.086 -6.2333 -1.77098 0
M  V30 2774 N 270.492 0.636531 -1.44174 0
M  V30 2775 C 271.455 1.73063 -1.50273 0
M  V30 2776 C 272.455 1.56113 -0.385397 0
M  V30 2777 O 273.645 1.61707 -0.64781 0
M  V30 2778 C 270.777 3.12096 -1.37145 0
M  V30 2779 H 271.97 1.69031 -2.47727 0
M  V30 2780 H 269.523 0.849706 -1.31186 0
M  V30 2781 H 270.258 3.21728 -0.407636 0
M  V30 2782 H 270.043 3.25805 -2.18159 0
M  V30 2783 H 271.533 3.91846 -1.44382 0
M  V30 2784 N 271.97 1.30982 0.876444 0
M  V30 2785 C 272.933 1.18054 1.96459 0
M  V30 2786 C 273.933 0.109399 1.60427 0
M  V30 2787 O 275.123 0.358173 1.70478 0
M  V30 2788 C 272.255 0.810616 3.31122 0
M  V30 2789 H 273.448 2.14735 2.09354 0
M  V30 2790 H 271.001 1.145 1.06392 0
M  V30 2791 H 271.736 -0.155322 3.23928 0
M  V30 2792 H 271.521 1.58481 3.58645 0
M  V30 2793 H 273.011 0.743876 4.10921 0
M  V30 2794 N 273.449 -1.08991 1.13837 0
M  V30 2795 C 274.86 -1.62746 0.914917 0
M  V30 2796 C 275.211 -1.88403 -0.547594 0
M  V30 2797 O 274.336 -1.63706 -1.41525 0
M  V30 2798 C 274.931 -2.95662 1.65437 0
M  V30 2799 C 273.49 -3.46225 1.47666 0
M  V30 2800 C 272.637 -2.20562 1.6807 0
M  V30 2801 H 275.588 -0.922946 1.29102 0
M  V30 2802 H 275.609 -3.63825 1.11407 0
M  V30 2803 H 275.121 -2.76956 2.71877 0
M  V30 2804 H 273.222 -3.70046 0.435478 0
M  V30 2805 H 273.335 -4.23368 2.24268 0
M  V30 2806 H 271.699 -2.29439 1.10589 0
M  V30 2807 H 272.482 -2.0437 2.7584 0
M  V30 2808 N 274.927 -0.932562 -1.27047 0
M  V30 2809 C 275.89 -0.440064 -2.24936 0
M  V30 2810 C 276.89 0.444071 -1.54547 0
M  V30 2811 O 278.08 0.244465 -1.72476 0
M  V30 2812 C 275.212 0.36678 -3.38921 0
M  V30 2813 H 276.405 -1.305 -2.70018 0
M  V30 2814 H 273.958 -0.713707 -1.39054 0
M  V30 2815 H 274.693 1.25033 -2.99228 0
M  V30 2816 H 274.478 -0.267204 -3.91188 0
M  V30 2817 H 275.968 0.701567 -4.11665 0
M  V30 2818 N 276.405 1.4127 -0.698611 0
M  V30 2819 C 277.633 2.05503 -0.239992 0
M  V30 2820 C 278.048 1.52584 1.11191 0
M  V30 2821 O 277.405 0.675323 1.69545 0
M  V30 2822 C 277.456 3.60987 -0.192429 0
M  V30 2823 O 277.177 4.1195 -1.49094 0
M  V30 2824 C 278.678 4.42371 0.28681 0
M  V30 2825 H 275.898 0.661748 -0.111045 0
M  V30 2826 H 278.442 1.80987 -0.95205 0
M  V30 2827 H 276.597 3.84533 0.470472 0
M  V30 2828 H 277.011 5.06018 -1.38007 0
M  V30 2829 H 278.485 5.51344 0.26896 0
M  V30 2830 H 278.962 4.18699 1.32619 0
M  V30 2831 H 279.568 4.23897 -0.345201 0
M  V30 2832 N 277.883 0.443576 1.51229 0
M  V30 2833 C 278.813 -0.355142 2.30783 0
M  V30 2834 C 279.794 -1.0154 1.36468 0
M  V30 2835 O 280.979 -1.01785 1.65389 0
M  V30 2836 C 278.109 -1.45312 3.15439 0
M  V30 2837 C 277.063 -0.916002 4.18083 0
M  V30 2838 C 276.389 -2.1102 4.91299 0
M  V30 2839 C 277.689 0.0538602 5.22272 0
M  V30 2840 H 279.383 0.308767 2.97804 0
M  V30 2841 H 276.929 0.149937 1.43217 0
M  V30 2842 H 278.882 -2.01914 3.69876 0
M  V30 2843 H 277.606 -2.14541 2.46252 0
M  V30 2844 H 276.265 -0.372145 3.64706 0
M  V30 2845 H 275.913 -2.78882 4.18609 0
M  V30 2846 H 275.613 -1.75717 5.60712 0
M  V30 2847 H 277.137 -2.68164 5.48562 0
M  V30 2848 H 278.551 -0.422069 5.71744 0
M  V30 2849 H 276.948 0.319776 5.99247 0
M  V30 2850 H 278.018 0.98858 4.74716 0
M  V30 2851 N 279.361 -1.56624 0.175154 0
M  V30 2852 C 280.324 -2.16934 -0.739738 0
M  V30 2853 C 281.324 -1.11842 -1.15533 0
M  V30 2854 O 282.514 -1.37335 -1.07167 0
M  V30 2855 C 279.646 -2.75531 -2.00738 0
M  V30 2856 H 280.839 -2.99131 -0.214639 0
M  V30 2857 H 278.392 -1.56123 -0.0744197 0
M  V30 2858 H 279.127 -1.97078 -2.57548 0
M  V30 2859 H 278.912 -3.52444 -1.71831 0
M  V30 2860 H 280.402 -3.21904 -2.66021 0
M  V30 2861 N 280.839 0.0985539 -1.57292 0
M  V30 2862 C 282.116 0.834155 -1.76921 0
M  V30 2863 C 282.496 1.97101 -0.755928 0
M  V30 2864 O 281.844 2.27474 0.216245 0
M  V30 2865 C 282.054 1.33194 -3.22584 0
M  V30 2866 C 283.402 1.77611 -3.85668 0
M  V30 2867 O 284.426 1.42825 -3.26312 0
M  V30 2868 O 283.285 2.4192 -4.90038 0
M  V30 2869 H 280.379 0.397628 -0.725135 0
M  V30 2870 H 282.925 0.0807044 -1.69508 0
M  V30 2871 H 281.697 0.517248 -3.87866 0
M  V30 2872 H 281.32 2.1475 -3.34616 0
M  V30 2873 N 282.317 1.53212 0.369288 0
M  V30 2874 C 283.564 1.69215 1.11232 0
M  V30 2875 C 283.892 0.442048 1.8941 0
M  V30 2876 O 283.147 -0.575944 1.87033 0
M  V30 2877 C 283.446 2.89101 2.10132 0
M  V30 2878 C 283.112 4.25758 1.48463 0
M  V30 2879 C 281.774 4.6292 1.31372 0
M  V30 2880 C 284.126 5.10757 1.03811 0
M  V30 2881 C 281.454 5.82722 0.68207 0
M  V30 2882 C 283.806 6.31201 0.420487 0
M  V30 2883 C 282.47 6.67079 0.237038 0
M  V30 2884 H 281.74 0.619201 0.407027 0
M  V30 2885 H 284.387 1.87391 0.394552 0
M  V30 2886 H 282.692 2.65421 2.88199 0
M  V30 2887 H 284.389 2.98676 2.6757 0
M  V30 2888 H 280.979 3.96494 1.62758 0
M  V30 2889 H 285.163 4.82599 1.1581 0
M  V30 2890 H 280.419 6.09113 0.528316 0
M  V30 2891 H 284.593 6.96368 0.0662874 0
M  V30 2892 H 282.22 7.59774 -0.254477 0
M  V30 2893 N 283.795 -0.628877 1.44509 0
M  V30 2894 C 285.041 -1.39045 1.47629 0
M  V30 2895 C 285.374 -1.93892 0.109343 0
M  V30 2896 O 284.649 -1.7379 -0.87334 0
M  V30 2897 C 284.932 -2.55408 2.53848 0
M  V30 2898 C 284.785 -2.05896 3.99909 0
M  V30 2899 C 286.104 -3.5759 2.56549 0
M  V30 2900 H 283.223 -0.504232 0.537512 0
M  V30 2901 H 285.865 -0.710854 1.76201 0
M  V30 2902 H 284.015 -3.13384 2.29615 0
M  V30 2903 H 285.687 -1.52734 4.35282 0
M  V30 2904 H 283.93 -1.37061 4.11578 0
M  V30 2905 H 284.601 -2.89681 4.69882 0
M  V30 2906 H 287.077 -3.09419 2.78207 0
M  V30 2907 H 285.953 -4.36527 3.32769 0
M  V30 2908 H 286.214 -4.11808 1.60832 0
M  V30 2909 N 285.273 -1.31445 -0.869486 0
M  V30 2910 C 286.236 -1.19094 -1.9583 0
M  V30 2911 C 287.236 -0.117906 -1.60367 0
M  V30 2912 O 288.426 -0.367208 -1.70286 0
M  V30 2913 C 285.558 -0.828165 -3.30688 0
M  V30 2914 H 286.751 -2.15842 -2.08212 0
M  V30 2915 H 284.304 -1.15063 -1.05784 0
M  V30 2916 H 285.039 0.138142 -3.24006 0
M  V30 2917 H 284.824 -1.6038 -3.578 0
M  V30 2918 H 286.314 -0.765658 -4.10521 0
M  V30 2919 N 286.751 1.08385 -1.14413 0
M  V30 2920 C 288.167 1.32844 -0.884563 0
M  V30 2921 C 288.367 1.95841 0.474181 0
M  V30 2922 O 287.423 2.21158 1.21842 0
M  V30 2923 C 288.736 2.22978 -2.01745 0
M  V30 2924 C 290.284 2.36458 -2.05077 0
M  V30 2925 C 290.759 3.29934 -3.1766 0
M  V30 2926 N 292.25 3.37511 -3.17239 0
M  V30 2927 C 292.985 4.09871 -4.0099 0
M  V30 2928 N 292.481 4.84936 -4.94781 0
M  V30 2929 N 294.274 4.05704 -3.89051 0
M  V30 2930 H 286.425 0.658756 -2.01926 0
M  V30 2931 H 288.688 0.352821 -0.879899 0
M  V30 2932 H 288.394 1.83934 -2.99769 0
M  V30 2933 H 288.268 3.23441 -1.94077 0
M  V30 2934 H 290.655 2.7476 -1.0766 0
M  V30 2935 H 290.736 1.35736 -2.16816 0
M  V30 2936 H 290.38 2.92352 -4.15322 0
M  V30 2937 H 290.31 4.30584 -3.03158 0
M  V30 2938 H 292.801 2.83996 -2.49308 0
M  V30 2939 H 293.114 5.37612 -5.55151 0
M  V30 2940 H 291.459 4.83988 -4.98779 0
M  V30 2941 H 294.65 3.46167 -3.15097 0
M  V30 2942 H 294.823 4.61834 -4.54547 0
M  V30 2943 N 288.23 0.939286 1.26551 0
M  V30 2944 C 289.46 0.601663 1.97645 0
M  V30 2945 C 289.868 -0.827206 1.70159 0
M  V30 2946 O 289.211 -1.56291 0.965338 0
M  V30 2947 C 289.273 0.761725 3.51337 0
M  V30 2948 C 288.937 2.16487 4.0247 0
M  V30 2949 C 289.934 3.14016 4.14355 0
M  V30 2950 C 287.619 2.48494 4.36527 0
M  V30 2951 C 289.613 4.41654 4.59587 0
M  V30 2952 C 287.3 3.76364 4.81449 0
M  V30 2953 C 288.298 4.72758 4.92939 0
M  V30 2954 O 287.986 5.98352 5.36871 0
M  V30 2955 H 287.718 0.225758 0.637189 0
M  V30 2956 H 290.272 1.26178 1.62075 0
M  V30 2957 H 288.502 0.0444808 3.86674 0
M  V30 2958 H 290.191 0.427442 4.03643 0
M  V30 2959 H 290.957 2.90613 3.8829 0
M  V30 2960 H 286.836 1.74202 4.26819 0
M  V30 2961 H 290.38 5.16896 4.68471 0
M  V30 2962 H 286.277 3.99582 5.06956 0
M  V30 2963 H 287.045 6.01507 5.55096 0
M  V30 2964 N 289.708 -1.40897 0.706093 0
M  V30 2965 C 290.658 -2.27987 0.0240746 0
M  V30 2966 C 291.642 -1.42759 -0.742204 0
M  V30 2967 O 292.834 -1.65936 -0.615966 0
M  V30 2968 C 289.963 -3.31186 -0.903907 0
M  V30 2969 C 289.049 -4.2389 -0.133318 0
M  V30 2970 N 289.44 -4.98113 0.878444 0
M  V30 2971 C 287.738 -4.44485 -0.367269 0
M  V30 2972 C 288.439 -5.6604 1.34064 0
M  V30 2973 N 287.415 -5.39522 0.664565 0
M  V30 2974 H 291.217 -2.82812 0.799658 0
M  V30 2975 H 288.731 -1.53235 0.537845 0
M  V30 2976 H 290.728 -3.92413 -1.40775 0
M  V30 2977 H 289.388 -2.77922 -1.67897 0
M  V30 2978 H 290.399 -5.02364 1.25901 0
M  V30 2979 H 287.076 -4.02213 -1.1194 0
M  V30 2980 H 288.466 -6.35524 2.1808 0
M  V30 2981 N 291.186 -0.45159 -1.50991 0
M  V30 2982 C 292.149 0.341117 -2.26647 0
M  V30 2983 C 293.149 0.937422 -1.30649 0
M  V30 2984 O 294.339 0.809644 -1.54241 0
M  V30 2985 C 291.471 1.48398 -3.06905 0
M  V30 2986 H 292.664 -0.322117 -2.98165 0
M  V30 2987 H 290.217 -0.205122 -1.54948 0
M  V30 2988 H 290.952 2.18284 -2.39838 0
M  V30 2989 H 290.737 1.06241 -3.77432 0
M  V30 2990 H 292.227 2.04367 -3.64176 0
M  V30 2991 N 292.664 1.56529 -0.183458 0
M  V30 2992 C 293.627 2.17324 0.728223 0
M  V30 2993 C 294.627 1.12453 1.14939 0
M  V30 2994 O 295.817 1.37902 1.06437 0
M  V30 2995 C 292.949 2.76591 1.99274 0
M  V30 2996 H 294.142 2.99241 0.198772 0
M  V30 2997 H 291.695 1.5616 0.0661391 0
M  V30 2998 H 292.43 1.98441 2.56499 0
M  V30 2999 H 292.215 3.5335 1.69959 0
M  V30 3000 H 293.705 3.23311 2.6431 0
M  V30 3001 N 294.142 -0.090211 1.57342 0
M  V30 3002 C 295.074 -1.13541 1.99101 0
M  V30 3003 C 296.087 -1.3604 0.894258 0
M  V30 3004 O 297.276 -1.34606 1.17233 0
M  V30 3005 C 294.376 -2.49001 2.29895 0
M  V30 3006 C 293.549 -2.46712 3.61182 0
M  V30 3007 C 292.608 -3.64136 3.79857 0
M  V30 3008 O 291.634 -3.46405 4.51655 0
M  V30 3009 N 292.836 -4.83802 3.20806 0
M  V30 3010 H 295.601 -0.779942 2.89373 0
M  V30 3011 H 293.162 -0.279125 1.59476 0
M  V30 3012 H 295.154 -3.26166 2.39578 0
M  V30 3013 H 293.724 -2.76619 1.45605 0
M  V30 3014 H 292.944 -1.55058 3.62423 0
M  V30 3015 H 294.232 -2.42265 4.4742 0
M  V30 3016 H 293.63 -5.01112 2.62494 0
M  V30 3017 H 292.187 -5.58543 3.35966 0
M  V30 3018 N 295.62 -1.53406 -0.361157 0
M  V30 3019 C 296.868 -1.69467 -1.10115 0
M  V30 3020 C 297.189 -0.451352 -1.89705 0
M  V30 3021 O 296.459 0.534636 -1.88463 0
M  V30 3022 H 295.039 -0.624749 -0.409508 0
M  V30 3023 H 297.701 -1.90609 -0.406699 0
M  V30 3024 H 296.797 -2.55774 -1.78847 0
M  V30 3025 N 297.098 0.621204 -1.44841 0
M  V30 3026 C 298.344 1.3826 -1.48365 0
M  V30 3027 C 298.677 1.93831 -0.119624 0
M  V30 3028 O 297.952 1.74251 0.864111 0
M  V30 3029 C 298.235 2.54058 -2.55199 0
M  V30 3030 C 298.088 2.03772 -4.00995 0
M  V30 3031 C 299.407 3.56225 -2.58442 0
M  V30 3032 H 296.526 0.501374 -0.540179 0
M  V30 3033 H 299.168 0.7015 -1.76576 0
M  V30 3034 H 297.318 3.12162 -2.31274 0
M  V30 3035 H 298.99 1.50423 -4.36086 0
M  V30 3036 H 297.233 1.34876 -4.12299 0
M  V30 3037 H 297.904 2.87185 -4.71411 0
M  V30 3038 H 300.38 3.07939 -2.79844 0
M  V30 3039 H 299.256 4.34756 -3.3508 0
M  V30 3040 H 299.517 4.10949 -1.63013 0
M  V30 3041 N 298.576 1.31904 0.862503 0
M  V30 3042 C 299.853 1.12644 1.59908 0
M  V30 3043 C 300.233 -0.316104 2.0872 0
M  V30 3044 O 299.581 -1.31145 1.87118 0
M  V30 3045 C 299.791 2.1472 2.7513 0
M  V30 3046 C 301.139 2.47637 3.44907 0
M  V30 3047 O 302.163 2.13205 2.85346 0
M  V30 3048 O 301.022 3.06632 4.52371 0
M  V30 3049 H 298.116 0.43416 0.703871 0
M  V30 3050 H 300.662 1.43408 0.907314 0
M  V30 3051 H 299.434 3.1172 2.3653 0
M  V30 3052 H 299.057 1.84905 3.51989 0
M  V30 3053 N 300.054 -1.07777 1.14986 0
M  V30 3054 C 300.984 -2.16865 0.865557 0
M  V30 3055 C 301.965 -1.69123 -0.182083 0
M  V30 3056 O 303.15 -1.94164 -0.0373815 0
M  V30 3057 C 300.28 -3.45539 0.349313 0
M  V30 3058 C 299.234 -4.06708 1.33313 0
M  V30 3059 C 298.56 -5.30411 0.675918 0
M  V30 3060 C 299.86 -4.47241 2.69764 0
M  V30 3061 H 301.554 -2.40905 1.77778 0
M  V30 3062 H 299.1 -1.15781 0.856203 0
M  V30 3063 H 301.053 -4.21174 0.137983 0
M  V30 3064 H 299.777 -3.21072 -0.598362 0
M  V30 3065 H 298.436 -3.33112 1.53075 0
M  V30 3066 H 298.084 -5.02232 -0.277767 0
M  V30 3067 H 297.784 -5.72293 1.33244 0
M  V30 3068 H 299.308 -6.08755 0.474262 0
M  V30 3069 H 300.722 -5.14025 2.53873 0
M  V30 3070 H 299.119 -5.00062 3.3175 0
M  V30 3071 H 300.189 -3.58818 3.26156 0
M  V30 3072 N 301.532 -0.945985 -1.26051 0
M  V30 3073 C 302.948 -0.649045 -1.45807 0
M  V30 3074 C 303.148 0.796158 -1.85104 0
M  V30 3075 O 302.204 1.57233 -1.97571 0
M  V30 3076 C 303.517 -1.61458 -2.53677 0
M  V30 3077 C 305.065 -1.62481 -2.67524 0
M  V30 3078 C 305.54 -2.57776 -3.7857 0
M  V30 3079 N 307.031 -2.5609 -3.85969 0
M  V30 3080 C 307.766 -3.26508 -4.7136 0
M  V30 3081 N 307.262 -4.0637 -5.61102 0
M  V30 3082 N 309.055 -3.15437 -4.65248 0
M  V30 3083 H 301.206 -1.88005 -0.988328 0
M  V30 3084 H 303.469 -0.808198 -0.4955 0
M  V30 3085 H 303.175 -2.64644 -2.31638 0
M  V30 3086 H 303.049 -1.37036 -3.51427 0
M  V30 3087 H 305.436 -0.600167 -2.88933 0
M  V30 3088 H 305.517 -1.90958 -1.70202 0
M  V30 3089 H 305.161 -3.60361 -3.57913 0
M  V30 3090 H 305.091 -2.26587 -4.75359 0
M  V30 3091 H 307.582 -1.98105 -3.21812 0
M  V30 3092 H 307.895 -4.57042 -6.23164 0
M  V30 3093 H 306.24 -4.10469 -5.60839 0
M  V30 3094 H 309.431 -2.52525 -3.94143 0
M  V30 3095 H 309.604 -3.70584 -5.31575 0
M  V30 3096 N 303.011 1.40521 -0.713556 0
M  V30 3097 C 304.258 2.00923 -0.25219 0
M  V30 3098 C 304.586 1.56571 1.15395 0
M  V30 3099 O 303.841 0.775874 1.79663 0
M  V30 3100 C 304.14 3.56317 -0.278 0
M  V30 3101 C 303.806 4.20246 -1.63415 0
M  V30 3102 C 302.468 4.37422 -2.00538 0
M  V30 3103 C 304.82 4.55923 -2.52554 0
M  V30 3104 C 302.148 4.87558 -3.2635 0
M  V30 3105 C 304.5 5.07458 -3.77716 0
M  V30 3106 C 303.164 5.22843 -4.14959 0
M  V30 3107 H 302.434 0.735231 -0.0922829 0
M  V30 3108 H 305.081 1.68161 -0.916188 0
M  V30 3109 H 303.386 3.88976 0.469567 0
M  V30 3110 H 305.083 4.00883 0.0967819 0
M  V30 3111 H 301.673 4.07263 -1.33546 0
M  V30 3112 H 305.857 4.42291 -2.25149 0
M  V30 3113 H 301.113 4.97654 -3.55176 0
M  V30 3114 H 305.287 5.34041 -4.4696 0
M  V30 3115 H 302.914 5.61454 -5.12516 0
M  V30 3116 N 304.489 0.459591 1.5075 0
M  V30 3117 C 305.399 -0.34613 2.32033 0
M  V30 3118 C 306.415 -1.00686 1.41909 0
M  V30 3119 O 307.591 -0.997361 1.7497 0
M  V30 3120 C 304.656 -1.42029 3.16273 0
M  V30 3121 C 303.717 -0.777362 4.22203 0
M  V30 3122 C 302.95 -1.80034 5.02418 0
M  V30 3123 O 303.173 -3.02544 4.83553 0
M  V30 3124 O 302.107 -1.37853 5.85901 0
M  V30 3125 H 305.933 0.318054 3.0203 0
M  V30 3126 H 303.518 0.221663 1.47746 0
M  V30 3127 H 305.4 -2.04275 3.68578 0
M  V30 3128 H 304.075 -2.06815 2.49016 0
M  V30 3129 H 302.982 -0.116256 3.73919 0
M  V30 3130 H 304.315 -0.172634 4.91897 0
M  V30 3131 N 305.967 -1.56429 0.191757 0
M  V30 3132 C 307.383 -1.58754 -0.164137 0
M  V30 3133 C 307.583 -1.20782 -1.61288 0
M  V30 3134 O 306.639 -0.928999 -2.34789 0
M  V30 3135 C 307.952 -3.00396 0.135195 0
M  V30 3136 C 309.5 -3.1291 0.0750351 0
M  V30 3137 C 309.975 -4.56679 0.347632 0
M  V30 3138 N 311.466 -4.62252 0.296131 0
M  V30 3139 C 312.201 -5.71379 0.480948 0
M  V30 3140 N 311.697 -6.88986 0.725933 0
M  V30 3141 N 313.49 -5.60563 0.415435 0
M  V30 3142 H 305.641 -1.79393 1.13718 0
M  V30 3143 H 307.904 -0.832414 0.453643 0
M  V30 3144 H 307.61 -3.32726 1.13958 0
M  V30 3145 H 307.484 -3.72963 -0.563773 0
M  V30 3146 H 309.871 -2.80394 -0.919948 0
M  V30 3147 H 309.952 -2.42736 0.807029 0
M  V30 3148 H 309.596 -4.89907 1.33992 0
M  V30 3149 H 309.526 -5.25039 -0.405212 0
M  V30 3150 H 312.017 -3.7773 0.113259 0
M  V30 3151 H 312.33 -7.68046 0.855857 0
M  V30 3152 H 310.675 -6.90801 0.762788 0
M  V30 3153 H 313.866 -4.67561 0.224486 0
M  V30 3154 H 314.039 -6.45551 0.562889 0
M  V30 3155 N 307.445 0.0818655 -1.57387 0
M  V30 3156 C 308.67 0.799946 -1.91352 0
M  V30 3157 C 309.095 1.70833 -0.787258 0
M  V30 3158 O 308.453 1.79419 0.26048 0
M  V30 3159 C 308.501 1.57812 -3.24234 0
M  V30 3160 O 307.605 2.68806 -3.12757 0
M  V30 3161 H 306.946 0.21891 -0.626877 0
M  V30 3162 H 309.476 0.0531256 -2.04531 0
M  V30 3163 H 309.486 1.95952 -3.57864 0
M  V30 3164 H 308.161 0.911548 -4.05788 0
M  V30 3165 H 306.738 2.33597 -2.90666 0
M  V30 3166 N 308.923 1.53595 0.353017 0
M  V30 3167 C 310.169 1.70638 1.09593 0
M  V30 3168 C 310.502 0.463286 1.88593 0
M  V30 3169 O 309.777 -0.539597 1.86865 0
M  V30 3170 C 310.06 2.96406 2.04489 0
M  V30 3171 C 309.913 4.30901 1.29014 0
M  V30 3172 C 311.232 3.17812 3.0444 0
M  V30 3173 H 308.351 0.620913 0.397034 0
M  V30 3174 H 310.993 1.86254 0.375446 0
M  V30 3175 H 309.143 2.83223 2.65927 0
M  V30 3176 H 310.815 4.55917 0.702638 0
M  V30 3177 H 309.058 4.29741 0.592071 0
M  V30 3178 H 309.729 5.1506 1.98537 0
M  V30 3179 H 312.205 3.30263 2.53112 0
M  V30 3180 H 311.081 4.07223 3.6805 0
M  V30 3181 H 311.342 2.33669 3.75301 0
M  V30 3182 N 310.401 -0.613514 1.45168 0
M  V30 3183 C 311.629 -1.39946 1.5239 0
M  V30 3184 C 312.044 -1.88167 0.154531 0
M  V30 3185 O 311.401 -1.61872 -0.842843 0
M  V30 3186 C 311.452 -2.60795 2.50337 0
M  V30 3187 O 311.173 -2.1458 3.81952 0
M  V30 3188 C 312.674 -3.53723 2.67198 0
M  V30 3189 H 309.894 -0.428593 0.516284 0
M  V30 3190 H 312.438 -0.748753 1.903 0
M  V30 3191 H 310.593 -3.21919 2.15515 0
M  V30 3192 H 311.007 -2.93055 4.34993 0
M  V30 3193 H 312.481 -4.35079 3.39721 0
M  V30 3194 H 312.958 -4.0368 1.73029 0
M  V30 3195 H 313.564 -2.98456 3.02992 0
M  V30 3196 N 311.879 -1.3236 -0.855495 0
M  V30 3197 C 313.127 -1.22629 -1.60644 0
M  V30 3198 C 313.448 0.212136 -1.93843 0
M  V30 3199 O 312.718 1.13666 -1.59552 0
M  V30 3200 H 311.298 -0.450882 -0.595579 0
M  V30 3201 H 313.96 -1.65871 -1.02337 0
M  V30 3202 H 313.056 -1.80832 -2.54374 0
M  V30 3203 N 313.357 1.07166 -1.15556 0
M  V30 3204 C 314.582 1.84053 -0.955988 0
M  V30 3205 C 315.007 1.81586 0.490739 0
M  V30 3206 O 314.365 1.21018 1.34997 0
M  V30 3207 C 314.413 3.28957 -1.47714 0
M  V30 3208 O 313.517 4.06795 -0.677593 0
M  V30 3209 H 312.858 0.569842 -0.340847 0
M  V30 3210 H 315.388 1.35178 -1.53584 0
M  V30 3211 H 315.398 3.79788 -1.4908 0
M  V30 3212 H 314.073 3.30068 -2.53037 0
M  V30 3213 H 312.65 3.6561 -0.733721 0
M  V30 3214 N 314.835 0.952656 1.25548 0
M  V30 3215 C 316.081 0.607272 1.93494 0
M  V30 3216 C 316.414 -0.853245 1.74452 0
M  V30 3217 O 315.689 -1.61194 1.08843 0
M  V30 3218 C 315.972 0.96435 3.46947 0
M  V30 3219 C 315.825 2.48045 3.75225 0
M  V30 3220 C 317.144 0.487987 4.37386 0
M  V30 3221 H 314.263 0.222096 0.702739 0
M  V30 3222 H 316.905 1.18895 1.48203 0
M  V30 3223 H 315.055 0.469361 3.85654 0
M  V30 3224 H 316.727 3.04905 3.46166 0
M  V30 3225 H 314.97 2.919 3.209 0
M  V30 3226 H 315.641 2.6808 4.82532 0
M  V30 3227 H 318.117 0.912558 4.0597 0
M  V30 3228 H 316.993 0.766547 5.43521 0
M  V30 3229 H 317.254 -0.612063 4.37843 0
M  V30 3230 N 316.313 -1.40141 0.720998 0
M  V30 3231 C 317.59 -1.94677 0.189757 0
M  V30 3232 C 317.97 -1.65879 -1.30566 0
M  V30 3233 O 317.318 -0.979391 -2.06447 0
M  V30 3234 C 317.528 -3.45279 0.508304 0
M  V30 3235 C 318.876 -4.22209 0.449934 0
M  V30 3236 O 319.9 -3.53413 0.444677 0
M  V30 3237 O 318.759 -5.44788 0.432189 0
M  V30 3238 H 315.853 -0.826459 0.0299026 0
M  V30 3239 H 318.399 -1.49719 0.7989 0
M  V30 3240 H 317.171 -3.59619 1.54239 0
M  V30 3241 H 316.794 -3.97386 -0.130525 0
M  V30 3242 N 317.792 -0.46758 -1.50504 0
M  V30 3243 C 319.04 0.0884469 -2.01906 0
M  V30 3244 C 319.361 1.40532 -1.35188 0
M  V30 3245 O 318.631 1.89515 -0.496079 0
M  V30 3246 H 317.211 0.0356765 -0.746148 0
M  V30 3247 H 319.873 -0.6172 -1.84869 0
M  V30 3248 H 318.969 0.2425 -3.11156 0
M  V30 3249 N 319.27 1.56325 -0.20005 0
M  V30 3250 C 320.516 1.98012 0.438059 0
M  V30 3251 C 320.849 1.08702 1.60927 0
M  V30 3252 O 320.124 0.140064 1.93995 0
M  V30 3253 C 320.407 3.48841 0.893419 0
M  V30 3254 C 320.26 4.48928 -0.279947 0
M  V30 3255 C 321.579 4.03498 1.75719 0
M  V30 3256 H 318.698 0.719918 0.157757 0
M  V30 3257 H 321.34 1.87743 -0.291968 0
M  V30 3258 H 319.49 3.57723 1.51547 0
M  V30 3259 H 321.162 4.52079 -0.91772 0
M  V30 3260 H 319.405 4.23694 -0.930919 0
M  V30 3261 H 320.076 5.5194 0.0812601 0
M  V30 3262 H 322.552 3.97427 1.23253 0
M  V30 3263 H 321.428 5.09393 2.04476 0
M  V30 3264 H 321.689 3.4906 2.71311 0
M  V30 3265 N 320.748 -0.0735177 1.57428 0
M  V30 3266 C 321.994 -0.774145 1.87443 0
M  V30 3267 C 322.327 -1.77311 0.792103 0
M  V30 3268 O 321.602 -1.93492 -0.197793 0
M  V30 3269 C 321.885 -1.48367 3.28115 0
M  V30 3270 C 321.738 -0.501227 4.46999 0
M  V30 3271 C 323.057 -2.429 3.66998 0
M  V30 3272 H 320.176 -0.279971 0.681752 0
M  V30 3273 H 322.818 -0.0373616 1.89963 0
M  V30 3274 H 320.968 -2.11171 3.26097 0
M  V30 3275 H 322.64 0.121468 4.6114 0
M  V30 3276 H 320.883 0.183593 4.33411 0
M  V30 3277 H 321.554 -1.03526 5.42205 0
M  V30 3278 H 324.03 -1.90175 3.70098 0
M  V30 3279 H 322.906 -2.89549 4.66318 0
M  V30 3280 H 323.167 -3.27628 2.96837 0
M  V30 3281 N 322.226 -1.5378 -0.344866 0
M  V30 3282 C 323.156 -1.84662 -1.42906 0
M  V30 3283 C 324.137 -0.701648 -1.54955 0
M  V30 3284 O 325.322 -0.953438 -1.69184 0
M  V30 3285 C 322.452 -2.05503 -2.79974 0
M  V30 3286 C 321.406 -3.21318 -2.82734 0
M  V30 3287 C 320.732 -3.2749 -4.22675 0
M  V30 3288 C 322.032 -4.59456 -2.48389 0
M  V30 3289 H 323.726 -2.75461 -1.17311 0
M  V30 3290 H 321.272 -1.32542 -0.562896 0
M  V30 3291 H 323.225 -2.25691 -3.55867 0
M  V30 3292 H 321.949 -1.11434 -3.07002 0
M  V30 3293 H 320.608 -3.00984 -2.09294 0
M  V30 3294 H 320.256 -2.31019 -4.4681 0
M  V30 3295 H 319.956 -4.05316 -4.25433 0
M  V30 3296 H 321.48 -3.49887 -5.00412 0
M  V30 3297 H 322.894 -4.79667 -3.13995 0
M  V30 3298 H 321.291 -5.39675 -2.62432 0
M  V30 3299 H 322.361 -4.63155 -1.4358 0
M  V30 3300 N 323.704 0.605807 -1.45491 0
M  V30 3301 C 324.634 1.72709 -1.57143 0
M  V30 3302 C 325.615 1.6476 -0.422884 0
M  V30 3303 O 326.8 1.83132 -0.646247 0
M  V30 3304 C 323.93 3.11316 -1.53948 0
M  V30 3305 C 322.884 3.34077 -2.67537 0
M  V30 3306 C 322.21 4.72975 -2.49397 0
M  V30 3307 C 323.51 3.24158 -4.09535 0
M  V30 3308 H 325.204 1.63214 -2.51001 0
M  V30 3309 H 322.75 0.78379 -1.208 0
M  V30 3310 H 324.703 3.89557 -1.60696 0
M  V30 3311 H 323.427 3.21655 -0.566205 0
M  V30 3312 H 322.086 2.58227 -2.6022 0
M  V30 3313 H 321.734 4.8005 -1.50205 0
M  V30 3314 H 321.434 4.8916 -3.25571 0
M  V30 3315 H 322.958 5.53414 -2.58002 0
M  V30 3316 H 324.372 3.92271 -4.18086 0
M  V30 3317 H 322.769 3.51872 -4.86113 0
M  V30 3318 H 323.839 2.2157 -4.31317 0
M  V30 3319 N 325.182 1.32811 0.848464 0
M  V30 3320 C 326.459 1.14334 1.58704 0
M  V30 3321 C 326.839 -0.293948 2.09043 0
M  V30 3322 O 326.187 -1.29153 1.88499 0
M  V30 3323 C 326.397 2.17626 2.72837 0
M  V30 3324 C 327.745 2.51282 3.42261 0
M  V30 3325 O 328.769 2.16219 2.83068 0
M  V30 3326 O 327.628 3.11413 4.49093 0
M  V30 3327 H 324.722 0.441601 0.699226 0
M  V30 3328 H 327.268 1.44362 0.892053 0
M  V30 3329 H 326.04 3.14211 2.3321 0
M  V30 3330 H 325.663 1.88628 3.50008 0
M  V30 3331 N 326.66 -1.06551 1.16123 0
M  V30 3332 C 327.937 -1.76097 0.85142 0
M  V30 3333 C 328.317 -2.00802 -0.6513 0
M  V30 3334 O 327.665 -1.63302 -1.59827 0
M  V30 3335 C 327.875 -3.06384 1.67122 0
M  V30 3336 C 329.223 -3.80585 1.88255 0
M  V30 3337 O 330.247 -3.16218 1.63966 0
M  V30 3338 O 329.106 -4.96212 2.2899 0
M  V30 3339 H 326.2 -0.765102 0.313923 0
M  V30 3340 H 328.746 -1.12844 1.26745 0
M  V30 3341 H 327.518 -2.84071 2.69108 0
M  V30 3342 H 327.141 -3.77371 1.25206 0
M  V30 3343 N 328.138 -0.959301 -1.25041 0
M  V30 3344 C 329.386 -0.615393 -1.92503 0
M  V30 3345 C 329.707 0.850969 -1.75452 0
M  V30 3346 O 328.977 1.60658 -1.12098 0
M  V30 3347 H 327.557 -0.224613 -0.712431 0
M  V30 3348 H 330.219 -1.21855 -1.5211 0
M  V30 3349 H 329.315 -0.848738 -3.00338 0
M  V30 3350 N 329.616 1.39756 -0.72842 0
M  V30 3351 C 330.844 2.04948 -0.283528 0
M  V30 3352 C 331.259 1.54908 1.0793 0
M  V30 3353 O 330.616 0.711135 1.68075 0
M  V30 3354 C 330.667 3.60498 -0.268957 0
M  V30 3355 O 330.388 4.08695 -1.57798 0
M  V30 3356 C 331.889 4.4288 0.192912 0
M  V30 3357 H 329.109 0.659243 -0.125056 0
M  V30 3358 H 331.653 1.78927 -0.990226 0
M  V30 3359 H 329.808 3.85444 0.388801 0
M  V30 3360 H 330.222 5.02977 -1.48709 0
M  V30 3361 H 331.696 5.51791 0.151952 0
M  V30 3362 H 332.173 4.21418 1.23708 0
M  V30 3363 H 332.779 4.23069 -0.435039 0
M  V30 3364 N 331.094 0.475555 1.50254 0
M  V30 3365 C 332.51 0.12997 1.5907 0
M  V30 3366 C 332.71 -1.36385 1.48328 0
M  V30 3367 O 331.766 -2.13754 1.34407 0
M  V30 3368 C 333.079 0.684139 2.92814 0
M  V30 3369 C 334.627 0.647965 3.0622 0
M  V30 3370 C 335.102 1.17975 4.42545 0
M  V30 3371 N 336.593 1.13936 4.48969 0
M  V30 3372 C 337.328 1.52129 5.52851 0
M  V30 3373 N 336.824 1.97793 6.63965 0
M  V30 3374 N 338.617 1.43704 5.4342 0
M  V30 3375 H 330.768 1.44706 1.55479 0
M  V30 3376 H 333.031 0.598691 0.735033 0
M  V30 3377 H 332.737 1.73079 3.06164 0
M  V30 3378 H 332.611 0.130204 3.76975 0
M  V30 3379 H 334.998 -0.38979 2.92514 0
M  V30 3380 H 335.079 1.23876 2.23805 0
M  V30 3381 H 334.723 2.21616 4.57 0
M  V30 3382 H 334.653 0.565138 5.23559 0
M  V30 3383 H 337.144 0.804488 3.69238 0
M  V30 3384 H 337.457 2.25072 7.39299 0
M  V30 3385 H 335.802 2.01749 6.65073 0
M  V30 3386 H 338.993 1.07867 4.55502 0
M  V30 3387 H 339.166 1.73794 6.24259 0
M  V30 3388 N 332.573 -1.56217 0.208337 0
M  V30 3389 C 333.822 -1.97124 -0.427204 0
M  V30 3390 C 334.135 -1.09859 -1.61835 0
M  V30 3391 O 335.341 -1.40606 -2.32255 0
M  V30 3392 C 333.797 -3.50633 -0.811442 0
M  V30 3393 C 333.405 -4.46582 0.35615 0
M  V30 3394 C 335.149 -4.00282 -1.41332 0
M  V30 3395 C 333.056 -5.91379 -0.0497852 0
M  V30 3396 H 331.986 -0.736086 -0.163381 0
M  V30 3397 H 334.637 -1.8099 0.302456 0
M  V30 3398 H 333.019 -3.62319 -1.59815 0
M  V30 3399 H 334.193 -4.46636 1.1337 0
M  V30 3400 H 332.508 -4.07202 0.870396 0
M  V30 3401 H 335.105 -5.0595 -1.72972 0
M  V30 3402 H 335.448 -3.45359 -2.32449 0
M  V30 3403 H 335.981 -3.91764 -0.690323 0
M  V30 3404 H 332.72 -6.50255 0.827529 0
M  V30 3405 H 332.24 -5.94549 -0.791926 0
M  V30 3406 H 333.919 -6.45209 -0.481042 0
M  V30 3407 N 334.051 0.0651679 -1.57465 0
M  V30 3408 C 335.014 1.06117 -2.03155 0
M  V30 3409 C 336.014 1.31204 -0.929632 0
M  V30 3410 O 337.204 1.26813 -1.19432 0
M  V30 3411 C 334.336 2.4032 -2.41783 0
M  V30 3412 H 335.529 0.667231 -2.92383 0
M  V30 3413 H 333.082 0.311075 -1.53173 0
M  V30 3414 H 333.817 2.84532 -1.55601 0
M  V30 3415 H 333.602 2.23451 -3.22199 0
M  V30 3416 H 335.092 3.11898 -2.77685 0
M  V30 3417 N 335.529 1.53961 0.336706 0
M  V30 3418 C 336.492 1.81724 1.39675 0
M  V30 3419 C 337.492 0.688532 1.45313 0
M  V30 3420 O 338.682 0.956829 1.45569 0
M  V30 3421 C 335.814 1.96543 2.78538 0
M  V30 3422 H 337.007 2.76424 1.16318 0
M  V30 3423 H 334.56 1.45478 0.571474 0
M  V30 3424 H 335.295 1.0401 3.07168 0
M  V30 3425 H 335.08 2.78665 2.75841 0
M  V30 3426 H 336.57 2.19516 3.5525 0
M  V30 3427 N 337.007 -0.598083 1.45811 0
M  V30 3428 C 338.284 -1.35777 1.40797 0
M  V30 3429 C 338.664 -2.10935 0.083462 0
M  V30 3430 O 338.012 -2.08505 -0.934763 0
M  V30 3431 C 338.222 -2.29666 2.62783 0
M  V30 3432 C 339.57 -2.91977 3.08277 0
M  V30 3433 O 340.594 -2.39984 2.63223 0
M  V30 3434 O 339.453 -3.86376 3.86491 0
M  V30 3435 H 336.547 -0.609291 0.55919 0
M  V30 3436 H 339.093 -0.620379 1.57954 0
M  V30 3437 H 337.865 -1.73454 3.50756 0
M  V30 3438 H 337.488 -3.1077 2.48008 0
M  V30 3439 N 338.485 -1.33259 -0.841409 0
M  V30 3440 C 339.418 -1.1764 -1.95541 0
M  V30 3441 C 340.396 -0.072501 -1.62438 0
M  V30 3442 O 341.58 -0.23427 -1.87039 0
M  V30 3443 C 338.707 -0.803794 -3.29024 0
M  V30 3444 C 337.753 -1.91482 -3.81099 0
M  V30 3445 S 338.586 -3.52538 -4.03085 0
M  V30 3446 C 339.742 -3.17279 -5.39523 0
M  V30 3447 H 339.975 -2.11941 -2.08491 0
M  V30 3448 H 337.508 -1.18072 -0.9949 0
M  V30 3449 H 339.466 -0.595592 -4.06156 0
M  V30 3450 H 338.127 0.120574 -3.13868 0
M  V30 3451 H 337.32 -1.60742 -4.7768 0
M  V30 3452 H 336.922 -2.07956 -3.10854 0
M  V30 3453 H 339.214 -2.67946 -6.22263 0
M  V30 3454 H 340.157 -4.1293 -5.75234 0
M  V30 3455 H 340.565 -2.53943 -5.04156 0
M  V30 3456 N 339.963 1.05934 -1.16686 0
M  V30 3457 C 341.209 1.79065 -0.95203 0
M  V30 3458 C 341.542 1.87147 0.518629 0
M  V30 3459 O 340.817 1.36574 1.38484 0
M  V30 3460 C 341.1 3.23359 -1.58464 0
M  V30 3461 C 340.953 3.23336 -3.12689 0
M  V30 3462 C 342.272 4.21004 -1.28232 0
M  V30 3463 H 339.391 0.65005 -0.34728 0
M  V30 3464 H 342.033 1.23868 -1.44072 0
M  V30 3465 H 340.183 3.70493 -1.16908 0
M  V30 3466 H 341.855 2.84336 -3.6325 0
M  V30 3467 H 340.098 2.61886 -3.4583 0
M  V30 3468 H 340.769 4.25144 -3.52075 0
M  V30 3469 H 343.245 3.8233 -1.64203 0
M  V30 3470 H 342.121 5.20225 -1.75092 0
M  V30 3471 H 342.382 4.41639 -0.201791 0
M  V30 3472 N 341.441 0.965919 1.2453 0
M  V30 3473 C 342.687 0.62776 1.92839 0
M  V30 3474 C 343.02 -0.834694 1.75347 0
M  V30 3475 O 342.295 -1.60031 1.10546 0
M  V30 3476 C 342.578 1.00109 3.45905 0
M  V30 3477 C 342.431 2.52011 3.72573 0
M  V30 3478 C 343.75 0.53435 4.36844 0
M  V30 3479 H 340.869 0.229537 0.700344 0
M  V30 3480 H 343.511 1.2046 1.46933 0
M  V30 3481 H 341.661 0.510238 3.85135 0
M  V30 3482 H 343.333 3.08559 3.42912 0
M  V30 3483 H 341.576 2.95287 3.17786 0
M  V30 3484 H 342.247 2.73183 4.79661 0
M  V30 3485 H 344.723 0.955565 4.04979 0
M  V30 3486 H 343.599 0.824152 5.42678 0
M  V30 3487 H 343.86 -0.565589 4.38467 0
M  V30 3488 N 342.919 -1.39368 0.735821 0
M  V30 3489 C 344.165 -2.00794 0.284544 0
M  V30 3490 C 344.498 -1.58255 -1.12557 0
M  V30 3491 O 343.773 -0.811819 -1.76748 0
M  V30 3492 C 344.056 -3.58011 0.387337 0
M  V30 3493 C 343.909 -4.10566 1.83728 0
M  V30 3494 C 345.228 -4.395 -0.22975 0
M  V30 3495 H 342.347 -0.729501 0.104866 0
M  V30 3496 H 344.989 -1.65564 0.93213 0
M  V30 3497 H 343.139 -3.88154 -0.164006 0
M  V30 3498 H 344.811 -3.91139 2.44556 0
M  V30 3499 H 343.054 -3.64095 2.35833 0
M  V30 3500 H 343.725 -5.19702 1.86047 0
M  V30 3501 H 346.201 -4.15406 0.240257 0
M  V30 3502 H 345.077 -5.48752 -0.127485 0
M  V30 3503 H 345.338 -4.22062 -1.3159 0
M  V30 3504 N 344.397 -0.483516 -1.5 0
M  V30 3505 C 345.645 0.067027 -2.01989 0
M  V30 3506 C 345.966 1.3909 -1.36671 0
M  V30 3507 O 345.236 1.88978 -0.516152 0
M  V30 3508 H 343.816 0.0277606 -0.746484 0
M  V30 3509 H 346.478 -0.636773 -1.84204 0
M  V30 3510 H 345.574 0.209484 -3.11396 0
M  V30 3511 N 345.875 1.56104 -0.216619 0
M  V30 3512 C 347.124 1.97348 0.416744 0
M  V30 3513 C 347.437 1.10715 1.6125 0
M  V30 3514 O 348.643 1.41836 2.31506 0
M  V30 3515 C 347.099 3.51059 0.792835 0
M  V30 3516 C 346.707 4.46387 -0.379828 0
M  V30 3517 C 348.451 4.01026 1.39208 0
M  V30 3518 C 346.358 5.91397 0.0184223 0
M  V30 3519 H 345.288 0.736942 0.159475 0
M  V30 3520 H 347.939 1.80827 -0.31205 0
M  V30 3521 H 346.321 3.63162 1.57891 0
M  V30 3522 H 347.495 4.46029 -1.15737 0
M  V30 3523 H 345.81 4.06734 -0.891979 0
M  V30 3524 H 348.407 5.0686 1.70286 0
M  V30 3525 H 348.75 3.46587 2.30614 0
M  V30 3526 H 349.283 3.92125 0.669537 0
M  V30 3527 H 346.022 6.49807 -0.862002 0
M  V30 3528 H 345.542 5.94961 0.760384 0
M  V30 3529 H 347.221 6.45455 0.446818 0
M  V30 3530 N 347.353 -0.0568162 1.57498 0
M  V30 3531 C 348.601 -0.751617 1.87604 0
M  V30 3532 C 348.922 -1.77351 0.81066 0
M  V30 3533 O 348.192 -1.95254 -0.159018 0
M  V30 3534 H 346.772 -0.280583 0.692302 0
M  V30 3535 H 349.434 -0.0293483 1.94878 0
M  V30 3536 H 348.53 -1.25852 2.856 0
M  V30 3537 N 348.832 -1.54138 -0.328536 0
M  V30 3538 C 350.078 -1.7236 -1.06865 0
M  V30 3539 C 350.411 -0.493231 -1.87832 0
M  V30 3540 O 349.686 0.5098 -1.877 0
M  V30 3541 C 349.969 -2.99621 -1.99747 0
M  V30 3542 C 349.822 -4.32899 -1.22143 0
M  V30 3543 C 351.141 -3.22615 -2.99345 0
M  V30 3544 H 348.26 -0.627151 -0.387105 0
M  V30 3545 H 350.902 -1.86827 -0.345767 0
M  V30 3546 H 349.052 -2.87418 -2.61387 0
M  V30 3547 H 350.724 -4.56978 -0.630017 0
M  V30 3548 H 348.967 -4.30628 -0.523628 0
M  V30 3549 H 349.638 -5.18154 -1.90318 0
M  V30 3550 H 352.114 -3.34248 -2.47826 0
M  V30 3551 H 350.99 -4.13027 -3.61524 0
M  V30 3552 H 351.251 -2.3961 -3.71536 0
M  V30 3553 N 350.31 0.590341 -1.46126 0
M  V30 3554 C 351.24 1.71032 -1.58966 0
M  V30 3555 C 352.221 1.64302 -0.440335 0
M  V30 3556 O 353.406 1.82436 -0.665634 0
M  V30 3557 C 350.536 3.09665 -1.57241 0
M  V30 3558 C 349.49 3.31221 -2.71066 0
M  V30 3559 C 348.816 4.70303 -2.54399 0
M  V30 3560 C 350.116 3.19796 -4.1295 0
M  V30 3561 H 351.81 1.60543 -2.52718 0
M  V30 3562 H 349.356 0.770933 -1.21625 0
M  V30 3563 H 351.309 3.87831 -1.64819 0
M  V30 3564 H 350.033 3.21036 -0.600289 0
M  V30 3565 H 348.692 2.55452 -2.62944 0
M  V30 3566 H 348.34 4.78429 -1.55288 0
M  V30 3567 H 348.04 4.85679 -3.30741 0
M  V30 3568 H 349.564 5.50647 -2.63857 0
M  V30 3569 H 350.978 3.87815 -4.22223 0
M  V30 3570 H 349.375 3.46696 -4.89818 0
M  V30 3571 H 350.445 2.16983 -4.33643 0
M  V30 3572 N 351.788 1.33704 0.83433 0
M  V30 3573 C 352.751 1.24244 1.92603 0
M  V30 3574 C 353.751 0.160383 1.59998 0
M  V30 3575 O 354.941 0.412228 1.69252 0
M  V30 3576 C 352.073 0.91555 3.28376 0
M  V30 3577 H 353.266 2.21287 2.02416 0
M  V30 3578 H 350.819 1.17827 1.02696 0
M  V30 3579 H 351.554 -0.0521886 3.24258 0
M  V30 3580 H 351.339 1.69811 3.53422 0
M  V30 3581 H 352.829 0.874231 4.08347 0
M  V30 3582 N 353.266 -1.05314 1.17247 0
M  V30 3583 C 354.214 -2.15137 0.884238 0
M  V30 3584 C 355.208 -1.68729 -0.15063 0
M  V30 3585 O 356.414 -1.8 -0.00366673 0
M  V30 3586 H 352.789 -0.702471 0.2684 0
M  V30 3587 H 354.76 -2.36652 1.81764 0
M  V30 3588 C 353.509 -3.45243 0.412659 0
M  V30 3589 H 352.832 -3.81352 1.20043 0
M  V30 3590 H 354.272 -4.23263 0.249858 0
M  V30 3591 C 352.731 -3.25487 -0.86948 0
M  V30 3592 O 353.261 -3.51938 -1.93655 0
M  V30 3593 N 351.467 -2.78875 -0.817147 0
M  V30 3594 H 351.014 -2.57549 0.0514211 0
M  V30 3595 H 350.972 -2.66036 -1.67547 0
M  V30 3596 N 354.744 -0.972509 -1.24016 0
M  V30 3597 C 356.021 -0.553733 -1.87598 0
M  V30 3598 C 356.401 0.969158 -1.87538 0
M  V30 3599 O 355.749 1.84255 -1.35139 0
M  V30 3600 C 355.959 -1.15076 -3.29482 0
M  V30 3601 C 357.307 -1.23862 -4.06132 0
M  V30 3602 O 358.331 -1.10363 -3.38672 0
M  V30 3603 O 357.19 -1.45252 -5.26844 0
M  V30 3604 H 354.284 -0.185331 -0.805966 0
M  V30 3605 H 356.83 -1.06709 -1.31952 0
M  V30 3606 H 355.602 -2.19333 -3.2405 0
M  V30 3607 H 355.225 -0.621746 -3.92709 0
M  V30 3608 N 356.222 1.38976 -0.743202 0
M  V30 3609 C 357.185 2.28901 -0.117014 0
M  V30 3610 C 358.185 1.46698 0.658503 0
M  V30 3611 O 359.375 1.67274 0.486305 0
M  V30 3612 C 356.507 3.30309 0.84315 0
M  V30 3613 H 357.7 2.8578 -0.909373 0
M  V30 3614 H 355.253 1.47761 -0.509547 0
M  V30 3615 H 355.988 2.785 1.66157 0
M  V30 3616 H 355.773 3.91029 0.289594 0
M  V30 3617 H 357.263 3.97577 1.2776 0
M  V30 3618 N 357.7 0.491464 1.49741 0
M  V30 3619 C 358.63 -0.28154 2.31796 0
M  V30 3620 C 359.611 -0.971473 1.3963 0
M  V30 3621 O 360.796 -0.964719 1.68543 0
M  V30 3622 C 357.926 -1.35203 3.19902 0
M  V30 3623 C 356.88 -0.782529 4.20786 0
M  V30 3624 C 356.206 -1.95283 4.97764 0
M  V30 3625 C 357.506 0.21999 5.21837 0
M  V30 3626 H 359.2 0.403355 2.96671 0
M  V30 3627 H 356.746 0.195425 1.42668 0
M  V30 3628 H 358.699 -1.90045 3.76113 0
M  V30 3629 H 357.423 -2.06598 2.52953 0
M  V30 3630 H 356.082 -0.255928 3.65706 0
M  V30 3631 H 355.73 -2.65423 4.2727 0
M  V30 3632 H 355.43 -1.57789 5.66018 0
M  V30 3633 H 356.954 -2.50577 5.56816 0
M  V30 3634 H 358.368 -0.23996 5.72798 0
M  V30 3635 H 356.765 0.51026 5.97927 0
M  V30 3636 H 357.835 1.13911 4.7133 0
M  V30 3637 N 359.178 -1.55987 0.224894 0
M  V30 3638 C 360.141 -2.19178 -0.670348 0
M  V30 3639 C 361.141 -1.15461 -1.11917 0
M  V30 3640 O 362.331 -1.40675 -1.02743 0
M  V30 3641 C 359.463 -2.81777 -1.9187 0
M  V30 3642 H 360.656 -2.99662 -0.119364 0
M  V30 3643 H 358.209 -1.5628 -0.0247128 0
M  V30 3644 H 358.944 -2.05172 -2.51147 0
M  V30 3645 H 358.729 -3.57732 -1.60531 0
M  V30 3646 H 360.219 -3.30205 -2.55645 0
M  V30 3647 N 360.656 0.0484629 -1.57525 0
M  V30 3648 C 362.072 0.40375 -1.54409 0
M  V30 3649 C 362.272 1.77786 -0.948384 0
M  V30 3650 O 361.328 2.46189 -0.560983 0
M  V30 3651 C 362.641 0.323394 -2.98956 0
M  V30 3652 C 364.189 0.401892 -3.10409 0
M  V30 3653 C 364.664 0.351195 -4.56652 0
M  V30 3654 N 366.155 0.410576 -4.61377 0
M  V30 3655 C 366.89 0.393933 -5.72045 0
M  V30 3656 N 366.386 0.330724 -6.9201 0
M  V30 3657 N 368.179 0.442227 -5.60358 0
M  V30 3658 H 360.33 -0.851016 -1.94606 0
M  V30 3659 H 362.593 -0.321721 -0.89174 0
M  V30 3660 H 362.299 -0.62011 -3.4619 0
M  V30 3661 H 362.173 1.12463 -3.60044 0
M  V30 3662 H 364.56 1.33582 -2.63134 0
M  V30 3663 H 364.641 -0.428342 -2.52188 0
M  V30 3664 H 364.285 -0.578987 -5.04589 0
M  V30 3665 H 364.215 1.19928 -5.12762 0
M  V30 3666 H 366.706 0.462729 -3.75056 0
M  V30 3667 H 367.019 0.322592 -7.72126 0
M  V30 3668 H 365.364 0.29706 -6.94365 0
M  V30 3669 H 368.555 0.489464 -4.65534 0
M  V30 3670 H 368.728 0.425788 -6.466 0
M  V30 3671 N 362.134 1.5431 0.320358 0
M  V30 3672 C 363.097 1.83195 1.3774 0
M  V30 3673 C 364.097 0.703906 1.44575 0
M  V30 3674 O 365.287 0.972214 1.44546 0
M  V30 3675 C 362.419 1.99487 2.76438 0
M  V30 3676 H 363.612 2.77642 1.1338 0
M  V30 3677 H 361.165 1.46076 0.556012 0
M  V30 3678 H 361.9 1.07262 3.06048 0
M  V30 3679 H 361.685 2.81575 2.7287 0
M  V30 3680 H 363.175 2.23271 3.52902 0
M  V30 3681 N 363.613 -0.582584 1.46437 0
M  V30 3682 C 364.576 -1.67366 1.56592 0
M  V30 3683 C 365.576 -1.54575 0.443072 0
M  V30 3684 O 366.766 -1.59191 0.707381 0
M  V30 3685 C 363.898 -3.06791 1.48634 0
M  V30 3686 H 365.091 -1.5972 2.5383 0
M  V30 3687 H 362.644 -0.800432 1.34249 0
M  V30 3688 H 363.379 -3.19993 0.526763 0
M  V30 3689 H 363.164 -3.17484 2.30101 0
M  V30 3690 H 364.654 -3.86218 1.58826 0
M  V30 3691 N 365.091 -1.34144 -0.827227 0
M  V30 3692 C 366.339 -1.26009 -1.58007 0
M  V30 3693 C 366.66 0.170971 -1.94249 0
M  V30 3694 O 365.93 1.10256 -1.61927 0
M  V30 3695 H 364.51 -0.463414 -0.585881 0
M  V30 3696 H 367.172 -1.68005 -0.987951 0
M  V30 3697 H 366.268 -1.86187 -2.50481 0
M  V30 3698 N 366.569 1.04691 -1.17803 0
M  V30 3699 C 367.499 2.14494 -0.92275 0
M  V30 3700 C 368.48 1.69546 0.137179 0
M  V30 3701 O 369.665 1.94195 -0.0141108 0
M  V30 3702 C 366.795 3.44491 -0.440803 0
M  V30 3703 C 365.749 4.03031 -1.4405 0
M  V30 3704 C 365.075 5.28432 -0.81631 0
M  V30 3705 C 366.375 4.39932 -2.81527 0
M  V30 3706 H 368.069 2.36107 -1.84103 0
M  V30 3707 H 365.615 1.1347 -0.886599 0
M  V30 3708 H 367.568 4.2066 -0.249602 0
M  V30 3709 H 366.292 3.22546 0.513025 0
M  V30 3710 H 364.951 3.28937 -1.61853 0
M  V30 3711 H 364.599 5.02792 0.144511 0
M  V30 3712 H 364.299 5.68559 -1.48371 0
M  V30 3713 H 365.823 6.07284 -0.635496 0
M  V30 3714 H 367.237 5.07113 -2.67412 0
M  V30 3715 H 365.634 4.9109 -3.44892 0
M  V30 3716 H 366.704 3.50045 -3.35554 0
M  V30 3717 N 368.047 0.979072 1.23499 0
M  V30 3718 C 369.01 0.523244 2.23147 0
M  V30 3719 C 370.01 -0.386406 1.56088 0
M  V30 3720 O 371.2 -0.180283 1.73265 0
M  V30 3721 C 368.332 -0.240739 3.40049 0
M  V30 3722 H 369.525 1.40432 2.64989 0
M  V30 3723 H 367.078 0.764824 1.36309 0
M  V30 3724 H 367.813 -1.13841 3.03662 0
M  V30 3725 H 367.598 0.412207 3.89927 0
M  V30 3726 H 369.088 -0.548297 4.13985 0
M  V30 3727 N 369.525 -1.3858 0.750561 0
M  V30 3728 C 370.765 -2.02032 0.310258 0
M  V30 3729 C 371.129 -1.58288 -1.08668 0
M  V30 3730 O 372.33 -2.14049 -1.62593 0
M  V30 3731 C 370.601 -3.54856 0.425647 0
M  V30 3732 S 372.16 -4.38748 0.0674797 0
M  V30 3733 H 368.978 -0.700705 0.120554 0
M  V30 3734 H 371.58 -1.69134 0.980512 0
M  V30 3735 H 370.284 -3.84182 1.44335 0
M  V30 3736 H 369.815 -3.92527 -0.261894 0
M  V30 3737 H 371.83 -4.82835 -1.14388 0
M  V30 3738 N 371.003 -0.499398 -1.49478 0
M  V30 3739 C 372.28 0.108629 -1.95298 0
M  V30 3740 C 372.66 1.54282 -1.44084 0
M  V30 3741 O 372.008 2.18944 -0.653908 0
M  V30 3742 C 372.218 0.0229111 -3.48992 0
M  V30 3743 C 373.566 0.197643 -4.2414 0
M  V30 3744 O 374.59 0.0981735 -3.56065 0
M  V30 3745 O 373.449 0.401669 -5.45022 0
M  V30 3746 H 370.543 0.096181 -0.821388 0
M  V30 3747 H 373.089 -0.561822 -1.6013 0
M  V30 3748 H 371.861 -0.977321 -3.78899 0
M  V30 3749 H 371.484 0.733579 -3.90774 0
M  V30 3750 N 372.481 1.55866 -0.233164 0
M  V30 3751 C 373.758 1.90471 0.444988 0
M  V30 3752 C 374.138 1.15209 1.7689 0
M  V30 3753 O 373.486 0.265119 2.26957 0
M  V30 3754 C 373.696 3.4333 0.626559 0
M  V30 3755 C 375.044 4.14319 0.92871 0
M  V30 3756 O 376.068 3.48993 0.712926 0
M  V30 3757 O 374.927 5.29846 1.33887 0
M  V30 3758 H 372.021 0.792347 0.236885 0
M  V30 3759 H 374.567 1.67437 -0.276211 0
M  V30 3760 H 373.339 3.90095 -0.306822 0
M  V30 3761 H 372.962 3.72181 1.39881 0
M  V30 3762 N 373.959 -0.0401083 1.57549 0
M  V30 3763 C 375.207 -0.731677 1.8839 0
M  V30 3764 C 375.528 -1.76481 0.829425 0
M  V30 3765 O 374.798 -1.95411 -0.1383 0
M  V30 3766 H 373.378 -0.273225 0.695239 0
M  V30 3767 H 376.04 -0.00867725 1.94898 0
M  V30 3768 H 375.136 -1.22816 2.86919 0
M  V30 3769 N 375.437 -1.54477 -0.31217 0
M  V30 3770 C 376.686 -1.72438 -1.04633 0
M  V30 3771 C 376.999 -0.511163 -1.88803 0
M  V30 3772 O 378.205 -0.572341 -2.65399 0
M  V30 3773 C 376.661 -3.05043 -1.9099 0
M  V30 3774 C 376.269 -4.33806 -1.11877 0
M  V30 3775 C 378.013 -3.32364 -2.64073 0
M  V30 3776 C 375.92 -5.57467 -1.97445 0
M  V30 3777 H 374.85 -0.642647 -0.394361 0
M  V30 3778 H 377.501 -1.80966 -0.303929 0
M  V30 3779 H 375.883 -2.90451 -2.69173 0
M  V30 3780 H 377.057 -4.59199 -0.383843 0
M  V30 3781 H 375.372 -4.13336 -0.504252 0
M  V30 3782 H 377.969 -4.21951 -3.28423 0
M  V30 3783 H 378.312 -2.50745 -3.32314 0
M  V30 3784 H 378.845 -3.47875 -1.92944 0
M  V30 3785 H 375.584 -6.41722 -1.33692 0
M  V30 3786 H 375.104 -5.36277 -2.6864 0
M  V30 3787 H 376.783 -5.94303 -2.5576 0
M  V30 3788 N 376.915 0.57481 -1.46744 0
M  V30 3789 C 378.162 1.33272 -1.52462 0
M  V30 3790 C 378.49 1.93669 -0.179572 0
M  V30 3791 O 377.745 1.7743 0.825664 0
M  V30 3792 C 378.044 2.476 -2.57738 0
M  V30 3793 C 377.71 2.05146 -4.01529 0
M  V30 3794 C 376.372 1.93284 -4.40676 0
M  V30 3795 C 378.724 1.72506 -4.91824 0
M  V30 3796 C 376.052 1.47049 -5.67973 0
M  V30 3797 C 378.404 1.27748 -6.19567 0
M  V30 3798 C 377.068 1.14468 -6.57612 0
M  V30 3799 H 376.338 0.487678 -0.557899 0
M  V30 3800 H 378.985 0.646456 -1.80259 0
M  V30 3801 H 377.29 3.21708 -2.23632 0
M  V30 3802 H 378.987 3.05807 -2.5939 0
M  V30 3803 H 375.577 2.15316 -3.7059 0
M  V30 3804 H 379.761 1.80552 -4.62293 0
M  V30 3805 H 375.017 1.35417 -5.96215 0
M  V30 3806 H 379.191 1.01547 -6.88957 0
M  V30 3807 H 376.818 0.78419 -7.56145 0
M  V30 3808 N 378.394 1.34581 0.820102 0
M  V30 3809 C 379.64 1.27285 1.57881 0
M  V30 3810 C 379.973 -0.156137 1.93571 0
M  V30 3811 O 379.248 -1.10222 1.60254 0
M  V30 3812 C 379.531 2.16639 2.87645 0
M  V30 3813 C 379.384 3.68088 2.58517 0
M  V30 3814 C 380.703 2.05378 3.8924 0
M  V30 3815 H 377.822 0.463714 0.572833 0
M  V30 3816 H 380.464 1.64859 0.944539 0
M  V30 3817 H 378.614 1.84725 3.41773 0
M  V30 3818 H 380.286 4.10382 2.10676 0
M  V30 3819 H 378.529 3.89038 1.91917 0
M  V30 3820 H 379.2 4.2598 3.51063 0
M  V30 3821 H 381.676 2.33404 3.44473 0
M  V30 3822 H 380.552 2.7012 4.77835 0
M  V30 3823 H 380.813 1.0316 4.29896 0
M  V30 3824 N 379.872 -1.04064 1.18357 0
M  V30 3825 C 381.149 -1.74252 0.888581 0
M  V30 3826 C 381.529 -2.02138 -0.60856 0
M  V30 3827 O 380.877 -1.66656 -1.56327 0
M  V30 3828 C 381.087 -3.0277 1.73584 0
M  V30 3829 C 382.435 -3.76506 1.96286 0
M  V30 3830 O 383.459 -3.12668 1.70637 0
M  V30 3831 O 382.318 -4.91243 2.39464 0
M  V30 3832 H 379.412 -0.758271 0.330082 0
M  V30 3833 H 381.958 -1.1013 1.2911 0
M  V30 3834 H 380.73 -2.78299 2.75073 0
M  V30 3835 H 380.353 -3.74631 1.33183 0
M  V30 3836 N 381.35 -0.985608 -1.22978 0
M  V30 3837 C 382.313 -0.535071 -2.22867 0
M  V30 3838 C 383.313 0.378123 -1.56291 0
M  V30 3839 O 384.503 0.171092 -1.73358 0
M  V30 3840 C 381.635 0.222702 -3.40172 0
M  V30 3841 H 382.828 -1.41835 -2.6424 0
M  V30 3842 H 380.381 -0.772042 -1.35901 0
M  V30 3843 H 381.116 1.12229 -3.04262 0
M  V30 3844 H 380.901 -0.43288 -3.89703 0
M  V30 3845 H 382.391 0.526335 -4.1427 0
M  V30 3846 N 382.828 1.3818 -0.7579 0
M  V30 3847 C 384.058 2.04004 -0.326463 0
M  V30 3848 C 384.466 1.57286 1.05156 0
M  V30 3849 O 383.809 0.743144 1.67997 0
M  V30 3850 C 383.871 3.58444 -0.275402 0
M  V30 3851 C 383.535 4.28237 -1.59569 0
M  V30 3852 C 384.532 4.53312 -2.54566 0
M  V30 3853 C 382.217 4.66341 -1.86631 0
M  V30 3854 C 384.211 5.15531 -3.74842 0
M  V30 3855 C 381.898 5.28283 -3.0718 0
M  V30 3856 C 382.896 5.52814 -4.01106 0
M  V30 3857 O 382.584 6.13465 -5.19534 0
M  V30 3858 H 382.316 0.662026 -0.136739 0
M  V30 3859 H 384.87 1.7777 -1.02893 0
M  V30 3860 H 383.1 3.83667 0.483337 0
M  V30 3861 H 384.789 4.05701 0.127099 0
M  V30 3862 H 385.555 4.24299 -2.34936 0
M  V30 3863 H 381.434 4.46591 -1.14358 0
M  V30 3864 H 384.978 5.34594 -4.48168 0
M  V30 3865 H 380.875 5.56719 -3.26702 0
M  V30 3866 H 381.643 6.31951 -5.20173 0
M  V30 3867 N 384.306 0.507319 1.49211 0
M  V30 3868 C 385.554 -0.0348839 2.0207 0
M  V30 3869 C 385.875 -1.36898 1.38866 0
M  V30 3870 O 385.145 -1.88133 0.546151 0
M  V30 3871 H 383.725 -0.0158812 0.746831 0
M  V30 3872 H 386.387 0.665998 1.83168 0
M  V30 3873 H 385.483 -0.159917 3.1169 0
M  V30 3874 N 385.784 -1.5574 0.241426 0
M  V30 3875 C 387.2 -1.59196 -0.113548 0
M  V30 3876 C 387.4 -1.25852 -1.57364 0
M  V30 3877 O 386.456 -1.00322 -2.31715 0
M  V30 3878 C 387.769 -2.99814 0.230695 0
M  V30 3879 C 389.317 -3.12513 0.174547 0
M  V30 3880 C 389.792 -4.55342 0.492744 0
M  V30 3881 N 391.283 -4.61076 0.443043 0
M  V30 3882 C 392.018 -5.6956 0.662484 0
M  V30 3883 N 391.514 -6.86328 0.944761 0
M  V30 3884 N 393.307 -5.58957 0.593564 0
M  V30 3885 H 385.458 -1.75685 1.19368 0
M  V30 3886 H 387.721 -0.81756 0.479896 0
M  V30 3887 H 387.427 -3.28932 1.24485 0
M  V30 3888 H 387.301 -3.74568 -0.444833 0
M  V30 3889 H 389.688 -2.83179 -0.830277 0
M  V30 3890 H 389.769 -2.40045 0.883845 0
M  V30 3891 H 389.413 -4.85396 1.4951 0
M  V30 3892 H 389.343 -5.26062 -0.23797 0
M  V30 3893 H 391.834 -3.77179 0.233374 0
M  V30 3894 H 392.147 -7.64935 1.09977 0
M  V30 3895 H 390.492 -6.88025 0.982175 0
M  V30 3896 H 393.683 -4.66611 0.373123 0
M  V30 3897 H 393.856 -6.43433 0.767981 0
M  V30 3898 N 387.262 0.0317525 -1.57568 0
M  V30 3899 C 388.49 0.734949 -1.93407 0
M  V30 3900 C 388.905 1.69036 -0.84096 0
M  V30 3901 O 388.262 1.81582 0.182836 0
M  V30 3902 C 388.313 1.49432 -3.29169 0
M  V30 3903 O 388.034 0.577261 -4.3428 0
M  V30 3904 C 389.535 2.29492 -3.79273 0
M  V30 3905 H 386.755 0.206706 -0.638368 0
M  V30 3906 H 389.299 -0.00992046 -2.04498 0
M  V30 3907 H 387.454 2.1911 -3.19483 0
M  V30 3908 H 387.868 1.10952 -5.1263 0
M  V30 3909 H 389.342 2.78172 -4.76785 0
M  V30 3910 H 389.819 3.10794 -3.10328 0
M  V30 3911 H 390.425 1.64894 -3.92033 0
M  V30 3912 N 388.74 1.54641 0.303973 0
M  V30 3913 C 389.968 1.77768 1.05858 0
M  V30 3914 C 390.383 0.535722 1.8104 0
M  V30 3915 O 389.74 -0.494337 1.75677 0
M  V30 3916 C 389.791 2.9834 2.04146 0
M  V30 3917 O 389.512 4.17736 1.32015 0
M  V30 3918 C 391.013 3.33832 2.91669 0
M  V30 3919 H 388.233 0.592961 0.314067 0
M  V30 3920 H 390.777 2.01583 0.344149 0
M  V30 3921 H 388.932 2.76742 2.71096 0
M  V30 3922 H 389.346 4.85693 1.97998 0
M  V30 3923 H 390.82 4.21448 3.56491 0
M  V30 3924 H 391.297 2.51857 3.59812 0
M  V30 3925 H 391.903 3.57579 2.30254 0
M  V30 3926 N 390.218 -0.567019 1.47046 0
M  V30 3927 C 391.458 -1.3355 1.54738 0
M  V30 3928 C 391.822 -1.90947 0.200772 0
M  V30 3929 O 393.023 -2.68367 0.152489 0
M  V30 3930 C 391.294 -2.42317 2.62712 0
M  V30 3931 S 392.853 -3.29383 2.89918 0
M  V30 3932 H 389.671 -0.454788 0.546525 0
M  V30 3933 H 392.273 -0.650191 1.84371 0
M  V30 3934 H 390.977 -1.98568 3.59164 0
M  V30 3935 H 390.508 -3.15601 2.34861 0
M  V30 3936 H 392.523 -4.41548 2.26384 0
M  V30 3937 N 391.696 -1.35014 -0.812953 0
M  V30 3938 C 393.107 -1.25035 -1.38648 0
M  V30 3939 C 393.458 0.119967 -1.95833 0
M  V30 3940 O 392.583 1.02069 -1.90816 0
M  V30 3941 C 393.178 -2.26394 -2.52054 0
M  V30 3942 C 391.737 -2.20175 -3.05287 0
M  V30 3943 C 390.884 -2.12451 -1.78213 0
M  V30 3944 H 393.835 -1.46235 -0.616516 0
M  V30 3945 H 393.856 -1.88672 -3.30429 0
M  V30 3946 H 393.368 -3.26116 -2.10404 0
M  V30 3947 H 391.469 -1.23841 -3.51417 0
M  V30 3948 H 391.582 -3.11863 -3.63701 0
M  V30 3949 H 389.946 -1.58328 -1.9951 0
M  V30 3950 H 390.729 -3.14024 -1.38723 0
M  V30 3951 N 393.175 1.03435 -1.18907 0
M  V30 3952 C 394.452 1.73778 -0.89781 0
M  V30 3953 C 394.832 2.02458 0.597832 0
M  V30 3954 O 394.18 1.67482 1.55441 0
M  V30 3955 C 394.39 3.01845 -1.75187 0
M  V30 3956 C 395.738 3.7546 -1.9828 0
M  V30 3957 O 396.762 3.11759 -1.72293 0
M  V30 3958 O 395.621 4.89966 -2.42065 0
M  V30 3959 H 392.715 0.75651 -0.334098 0
M  V30 3960 H 395.261 1.09444 -1.29693 0
M  V30 3961 H 394.033 2.76836 -2.76545 0
M  V30 3962 H 393.656 3.73919 -1.35167 0
M  V30 3963 N 394.653 0.992116 1.22453 0
M  V30 3964 C 395.899 0.668523 1.91464 0
M  V30 3965 C 396.232 -0.797313 1.77078 0
M  V30 3966 O 395.507 -1.5765 1.13916 0
M  V30 3967 C 395.79 1.07424 3.43703 0
M  V30 3968 C 395.643 2.59857 3.67143 0
M  V30 3969 C 396.962 0.626891 4.35612 0
M  V30 3970 H 394.081 0.244341 0.695318 0
M  V30 3971 H 396.723 1.2355 1.44345 0
M  V30 3972 H 394.873 0.591816 3.83966 0
M  V30 3973 H 396.545 3.15764 3.3629 0
M  V30 3974 H 394.788 3.01961 3.11451 0
M  V30 3975 H 395.459 2.83296 4.73759 0
M  V30 3976 H 397.935 1.04125 4.02861 0
M  V30 3977 H 396.811 0.939076 5.40807 0
M  V30 3978 H 397.072 -0.472457 4.39568 0
M  V30 3979 N 396.131 -1.37776 0.765217 0
M  V30 3980 C 397.361 -2.03828 0.337277 0
M  V30 3981 C 397.769 -1.57841 -1.04321 0
M  V30 3982 O 397.112 -0.752043 -1.67601 0
M  V30 3983 C 397.174 -3.58292 0.294407 0
M  V30 3984 C 396.838 -4.27384 1.61838 0
M  V30 3985 C 397.835 -4.51956 2.56967 0
M  V30 3986 C 395.52 -4.65345 1.89102 0
M  V30 3987 C 397.514 -5.13536 3.77571 0
M  V30 3988 C 395.201 -5.26647 3.09978 0
M  V30 3989 C 396.199 -5.50679 4.04032 0
M  V30 3990 O 395.887 -6.10702 5.2278 0
M  V30 3991 H 395.619 -0.661292 0.140248 0
M  V30 3992 H 398.173 -1.77222 1.03834 0
M  V30 3993 H 396.403 -3.83918 -0.462983 0
M  V30 3994 H 398.092 -4.05763 -0.105581 0
M  V30 3995 H 398.858 -4.23048 2.37183 0
M  V30 3996 H 394.737 -4.45978 1.16725 0
M  V30 3997 H 398.281 -5.3221 4.50997 0
M  V30 3998 H 394.178 -5.54979 3.29649 0
M  V30 3999 H 394.946 -6.29183 5.23517 0
M  V30 4000 N 397.609 -0.515225 -1.4894 0
M  V30 4001 C 398.572 0.244681 -2.2789 0
M  V30 4002 C 399.572 0.881166 -1.34507 0
M  V30 4003 O 400.762 0.743497 -1.57537 0
M  V30 4004 C 397.894 1.35247 -3.12923 0
M  V30 4005 H 399.087 -0.448289 -2.96531 0
M  V30 4006 H 396.64 -0.270656 -1.53939 0
M  V30 4007 H 397.375 2.07916 -2.48881 0
M  V30 4008 H 397.16 0.901374 -3.81599 0
M  V30 4009 H 398.65 1.88737 -3.72516 0
M  V30 4010 N 399.087 1.5561 -0.249682 0
M  V30 4011 C 400.017 2.24477 0.642826 0
M  V30 4012 C 400.998 1.22601 1.17911 0
M  V30 4013 O 402.183 1.5126 1.21795 0
M  V30 4014 C 399.313 2.94638 1.83863 0
M  V30 4015 C 398.267 4.03227 1.435 0
M  V30 4016 C 397.593 4.60828 2.71186 0
M  V30 4017 C 398.893 5.18796 0.604002 0
M  V30 4018 H 400.587 2.99321 0.0685625 0
M  V30 4019 H 398.133 1.43965 0.0315363 0
M  V30 4020 H 400.086 3.41517 2.46868 0
M  V30 4021 H 398.81 2.17287 2.43832 0
M  V30 4022 H 397.469 3.57121 0.828275 0
M  V30 4023 H 397.117 3.80174 3.29358 0
M  V30 4024 H 396.817 5.34132 2.44901 0
M  V30 4025 H 398.341 5.10442 3.35084 0
M  V30 4026 H 399.755 5.61883 1.13842 0
M  V30 4027 H 398.152 5.98506 0.437097 0
M  V30 4028 H 399.222 4.83384 -0.383147 0
M  V30 4029 N 400.565 -0.0233959 1.57583 0
M  V30 4030 C 401.813 -0.711654 1.89156 0
M  V30 4031 C 402.134 -1.75591 0.848096 0
M  V30 4032 O 401.404 -1.95547 -0.117566 0
M  V30 4033 H 399.984 -0.265835 0.698098 0
M  V30 4034 H 402.646 0.0119948 1.94896 0
M  V30 4035 H 401.742 -1.19766 2.88206 0
M  V30 4036 N 402.043 -1.548 -0.295768 0
M  V30 4037 C 403.32 -1.65014 -1.05023 0
M  V30 4038 C 403.7 -0.501805 -2.05049 0
M  V30 4039 O 403.048 0.500869 -2.22943 0
M  V30 4040 C 403.258 -3.03252 -1.72741 0
M  V30 4041 C 404.606 -3.60242 -2.24746 0
M  V30 4042 O 405.63 -3.05737 -1.82765 0
M  V30 4043 O 404.489 -4.55687 -3.01681 0
M  V30 4044 H 401.583 -0.669314 -0.485744 0
M  V30 4045 H 404.129 -1.67144 -0.293438 0
M  V30 4046 H 402.901 -3.7827 -1.00138 0
M  V30 4047 H 402.524 -3.04922 -2.55163 0
M  V30 4048 N 403.521 0.559213 -1.47345 0
M  V30 4049 C 404.767 1.31843 -1.54095 0
M  V30 4050 C 405.1 1.93149 -0.201726 0
M  V30 4051 O 404.375 1.77759 0.789428 0
M  V30 4052 C 404.658 2.43006 -2.65744 0
M  V30 4053 C 404.511 1.86581 -4.09277 0
M  V30 4054 C 405.83 3.44943 -2.73318 0
M  V30 4055 H 402.949 0.478012 -0.560957 0
M  V30 4056 H 405.591 0.625977 -1.79392 0
M  V30 4057 H 403.741 3.02072 -2.44305 0
M  V30 4058 H 405.413 1.31792 -4.42073 0
M  V30 4059 H 403.656 1.17268 -4.17649 0
M  V30 4060 H 404.327 2.66933 -4.83168 0
M  V30 4061 H 406.803 2.95793 -2.92653 0
M  V30 4062 H 405.679 4.20153 -3.53218 0
M  V30 4063 H 405.94 4.03665 -1.80296 0
M  V30 4064 N 404.999 1.35443 0.805782 0
M  V30 4065 C 406.227 1.31878 1.59423 0
M  V30 4066 C 406.642 -0.103562 1.88516 0
M  V30 4067 O 405.999 -1.05575 1.48863 0
M  V30 4068 C 406.05 2.12426 2.92502 0
M  V30 4069 O 405.771 3.49115 2.6467 0
M  V30 4070 C 407.272 2.16455 3.86862 0
M  V30 4071 H 404.492 0.453002 0.495005 0
M  V30 4072 H 407.036 1.78309 1.00131 0
M  V30 4073 H 405.191 1.69593 3.48306 0
M  V30 4074 H 405.605 3.90957 3.49647 0
M  V30 4075 H 407.079 2.77204 4.77349 0
M  V30 4076 H 407.556 1.16352 4.23508 0
M  V30 4077 H 408.162 2.59453 3.36993 0
M  V30 4078 N 406.477 -1.02803 1.19454 0
M  V30 4079 C 407.893 -1.28473 0.946937 0
M  V30 4080 C 408.093 -1.97881 -0.380202 0
M  V30 4081 O 407.149 -2.26719 -1.11151 0
M  V30 4082 C 408.462 -2.13099 2.12154 0
M  V30 4083 C 410.01 -2.26404 2.16126 0
M  V30 4084 C 410.485 -3.14402 3.33039 0
M  V30 4085 N 411.976 -3.21991 3.32981 0
M  V30 4086 C 412.711 -3.90272 4.20089 0
M  V30 4087 N 412.207 -4.60777 5.17355 0
M  V30 4088 N 414 -3.8668 4.07964 0
M  V30 4089 H 406.151 -0.561665 2.04839 0
M  V30 4090 H 408.414 -0.310438 0.89573 0
M  V30 4091 H 408.12 -1.69422 3.08203 0
M  V30 4092 H 407.994 -3.13813 2.09287 0
M  V30 4093 H 410.381 -2.69311 1.20647 0
M  V30 4094 H 410.462 -1.25237 2.23045 0
M  V30 4095 H 410.106 -2.72204 4.28798 0
M  V30 4096 H 410.036 -4.1563 3.23356 0
M  V30 4097 H 412.527 -2.71778 2.62574 0
M  V30 4098 H 412.84 -5.10513 5.80169 0
M  V30 4099 H 411.185 -4.5964 5.21302 0
M  V30 4100 H 414.376 -3.30739 3.31254 0
M  V30 4101 H 414.549 -4.39621 4.76064 0
M  V30 4102 N 407.956 -0.998596 -1.21925 0
M  V30 4103 C 408.888 -0.511879 -2.23411 0
M  V30 4104 C 409.901 0.396094 -1.57908 0
M  V30 4105 O 411.09 0.197316 -1.77406 0
M  V30 4106 C 408.19 0.276802 -3.37768 0
M  V30 4107 C 407.363 -0.628687 -4.32858 0
M  V30 4108 C 406.422 0.109272 -5.26087 0
M  V30 4109 O 405.448 -0.507237 -5.66935 0
M  V30 4110 N 406.65 1.38983 -5.63617 0
M  V30 4111 H 409.415 -1.38457 -2.658 0
M  V30 4112 H 406.976 -0.873981 -1.36283 0
M  V30 4113 H 408.968 0.77928 -3.97126 0
M  V30 4114 H 407.538 1.05063 -2.94415 0
M  V30 4115 H 406.758 -1.31175 -3.71735 0
M  V30 4116 H 408.046 -1.24514 -4.93329 0
M  V30 4117 H 407.444 1.91194 -5.32411 0
M  V30 4118 H 406.001 1.83739 -6.25367 0
M  V30 4119 N 409.434 1.37368 -0.772513 0
M  V30 4120 C 410.85 1.53059 -0.452231 0
M  V30 4121 C 411.05 1.73065 1.03203 0
M  V30 4122 O 410.106 1.75245 1.81784 0
M  V30 4123 C 411.419 2.72659 -1.26797 0
M  V30 4124 C 412.967 2.86521 -1.25995 0
M  V30 4125 C 413.442 4.09105 -2.05905 0
M  V30 4126 N 414.933 4.16219 -2.03263 0
M  V30 4127 C 415.668 5.10107 -2.61875 0
M  V30 4128 N 415.164 6.09547 -3.29278 0
M  V30 4129 N 416.957 5.02596 -2.51701 0
M  V30 4130 H 409.108 1.22634 -1.7342 0
M  V30 4131 H 411.371 0.597206 -0.736239 0
M  V30 4132 H 411.077 2.64343 -2.31982 0
M  V30 4133 H 410.951 3.66363 -0.897672 0
M  V30 4134 H 413.338 2.94308 -0.216081 0
M  V30 4135 H 413.419 1.93774 -1.66989 0
M  V30 4136 H 413.063 4.0208 -3.10313 0
M  V30 4137 H 412.993 5.00968 -1.62292 0
M  V30 4138 H 415.484 3.45012 -1.54192 0
M  V30 4139 H 415.797 6.77718 -3.71374 0
M  V30 4140 H 414.142 6.09824 -3.33377 0
M  V30 4141 H 417.333 4.23855 -1.98657 0
M  V30 4142 H 417.506 5.75582 -2.97673 0
M  V30 4143 N 410.912 0.523116 1.48665 0
M  V30 4144 C 411.86 -0.256859 2.31177 0
M  V30 4145 C 412.854 -0.94199 1.40794 0
M  V30 4146 O 414.06 -0.867157 1.57735 0
M  V30 4147 H 410.435 -0.1017 0.745091 0
M  V30 4148 H 412.406 0.458739 2.94853 0
M  V30 4149 C 411.155 -1.29503 3.22683 0
M  V30 4150 H 410.478 -0.777248 3.92172 0
M  V30 4151 H 411.918 -1.81233 3.83315 0
M  V30 4152 C 410.377 -2.32501 2.43813 0
M  V30 4153 O 410.907 -3.3881 2.15803 0
M  V30 4154 N 409.113 -2.05538 2.05432 0
M  V30 4155 H 408.66 -1.19104 2.28412 0
M  V30 4156 H 408.618 -2.74676 1.52973 0
M  V30 4157 N 412.39 -1.55475 0.257931 0
M  V30 4158 C 413.801 -1.8511 -0.243135 0
M  V30 4159 C 414.152 -1.17986 -1.5676 0
M  V30 4160 O 413.277 -0.462102 -2.11409 0
M  V30 4161 C 413.872 -3.35826 -0.447929 0
M  V30 4162 C 412.431 -3.65647 -0.893245 0
M  V30 4163 C 411.578 -2.7729 0.0232965 0
M  V30 4164 H 414.529 -1.51261 0.480199 0
M  V30 4165 H 414.55 -3.58002 -1.28898 0
M  V30 4166 H 414.062 -3.84652 0.516196 0
M  V30 4167 H 412.163 -3.22308 -1.86945 0
M  V30 4168 H 412.276 -4.73312 -0.742469 0
M  V30 4169 H 410.64 -2.49942 -0.490021 0
M  V30 4170 H 411.423 -3.28926 0.982994 0
M  V30 4171 N 413.868 0.0150385 -1.57593 0
M  V30 4172 C 414.798 1.01047 -2.10503 0
M  V30 4173 C 415.779 1.36816 -1.01071 0
M  V30 4174 O 416.964 1.45455 -1.28672 0
M  V30 4175 C 414.094 2.30708 -2.59598 0
M  V30 4176 C 413.048 2.09142 -3.73421 0
M  V30 4177 C 412.374 3.44685 -4.08774 0
M  V30 4178 C 413.674 1.46619 -5.01298 0
M  V30 4179 H 415.368 0.569978 -2.93925 0
M  V30 4180 H 412.914 0.272724 -1.41394 0
M  V30 4181 H 414.867 3.00687 -2.95238 0
M  V30 4182 H 413.591 2.76843 -1.73279 0
M  V30 4183 H 412.25 1.41592 -3.38153 0
M  V30 4184 H 411.898 3.88495 -3.195 0
M  V30 4185 H 411.598 3.31077 -4.8545 0
M  V30 4186 H 413.122 4.16004 -4.4696 0
M  V30 4187 H 414.536 2.06535 -5.34805 0
M  V30 4188 H 412.933 1.43544 -5.82679 0
M  V30 4189 H 414.003 0.433611 -4.82957 0
M  V30 4190 N 415.346 1.54954 0.287554 0
M  V30 4191 C 416.571 1.79209 1.04397 0
M  V30 4192 C 416.996 0.556431 1.79682 0
M  V30 4193 O 416.354 -0.493518 1.74454 0
M  V30 4194 C 416.402 3.00739 1.98969 0
M  V30 4195 O 415.506 2.74805 3.075 0
M  V30 4196 H 414.847 0.592755 0.299227 0
M  V30 4197 H 417.377 2.02068 0.320886 0
M  V30 4198 H 417.387 3.29077 2.4119 0
M  V30 4199 H 416.062 3.90329 1.43582 0
M  V30 4200 H 414.639 2.57523 2.69697 0
M  V30 4201 N 416.824 -0.551391 1.4764 0
M  V30 4202 C 418.072 -1.30572 1.54258 0
M  V30 4203 C 418.393 -1.93877 0.208963 0
M  V30 4204 O 417.663 -1.80234 -0.767619 0
M  V30 4205 H 416.243 -0.484894 0.568231 0
M  V30 4206 H 418.905 -0.643402 1.83974 0
M  V30 4207 H 418.001 -2.09621 2.31226 0
M  V30 4208 N 418.302 -1.35869 -0.798587 0
M  V30 4209 C 419.718 -1.16082 -1.09532 0
M  V30 4210 C 419.918 0.0213124 -2.01489 0
M  V30 4211 O 418.974 0.689488 -2.42904 0
M  V30 4212 C 420.287 -2.46748 -1.7186 0
M  V30 4213 C 421.835 -2.53028 -1.84244 0
M  V30 4214 C 422.31 -3.83758 -2.49988 0
M  V30 4215 N 423.801 -3.85053 -2.57465 0
M  V30 4216 C 424.536 -4.8294 -3.09122 0
M  V30 4217 N 424.032 -5.91217 -3.61157 0
M  V30 4218 N 425.825 -4.70369 -3.0775 0
M  V30 4219 H 417.976 -2.11571 -0.187461 0
M  V30 4220 H 420.239 -0.936726 -0.145765 0
M  V30 4221 H 419.945 -3.33471 -1.11759 0
M  V30 4222 H 419.819 -2.61883 -2.71472 0
M  V30 4223 H 422.206 -1.66729 -2.43486 0
M  V30 4224 H 422.287 -2.418 -0.834643 0
M  V30 4225 H 421.931 -4.70459 -1.91393 0
M  V30 4226 H 421.861 -3.92278 -3.5132 0
M  V30 4227 H 424.352 -3.06822 -2.20609 0
M  V30 4228 H 424.665 -6.61892 -3.98896 0
M  V30 4229 H 423.01 -5.94899 -3.59333 0
M  V30 4230 H 426.201 -3.84914 -2.66381 0
M  V30 4231 H 426.374 -5.46816 -3.47701 0
M  V30 4232 N 419.78 1.02168 -1.19998 0
M  V30 4233 C 421.027 1.75685 -1.00702 0
M  V30 4234 C 421.355 1.88947 0.461426 0
M  V30 4235 O 420.61 1.40832 1.35885 0
M  V30 4236 C 420.909 3.18081 -1.62969 0
M  V30 4237 C 420.575 3.24809 -3.12746 0
M  V30 4238 C 419.237 3.26352 -3.53621 0
M  V30 4239 C 421.589 3.23379 -4.08749 0
M  V30 4240 C 418.917 3.2413 -4.89036 0
M  V30 4241 C 421.269 3.22698 -5.44104 0
M  V30 4242 C 419.933 3.22542 -5.84399 0
M  V30 4243 H 419.203 0.642877 -0.368496 0
M  V30 4244 H 421.85 1.19865 -1.49348 0
M  V30 4245 H 420.155 3.77027 -1.06573 0
M  V30 4246 H 421.852 3.73648 -1.45561 0
M  V30 4247 H 418.442 3.2434 -2.80181 0
M  V30 4248 H 422.626 3.21361 -3.78207 0
M  V30 4249 H 417.882 3.22338 -5.19527 0
M  V30 4250 H 422.056 3.20543 -6.18244 0
M  V30 4251 H 419.683 3.20575 -6.89301 0
M  V30 4252 N 421.258 1.00505 1.21394 0
M  V30 4253 C 422.168 0.574806 2.27449 0
M  V30 4254 C 423.184 -0.382206 1.6975 0
M  V30 4255 O 424.36 -0.246027 1.99892 0
M  V30 4256 C 421.425 -0.0917414 3.46579 0
M  V30 4257 C 420.486 0.909758 4.1955 0
M  V30 4258 C 419.719 0.274924 5.32991 0
M  V30 4259 O 419.942 -0.928254 5.62796 0
M  V30 4260 O 418.876 0.985877 5.93771 0
M  V30 4261 H 422.702 1.45744 2.66444 0
M  V30 4262 H 420.287 0.773923 1.27792 0
M  V30 4263 H 422.169 -0.464551 4.18832 0
M  V30 4264 H 420.844 -0.948755 3.09484 0
M  V30 4265 H 419.751 1.33372 3.49518 0
M  V30 4266 H 421.084 1.73636 4.60555 0
M  V30 4267 N 422.737 -1.36956 0.779787 0
M  V30 4268 C 424.153 -1.52817 0.460342 0
M  V30 4269 C 424.353 -1.7361 -1.02283 0
M  V30 4270 O 423.409 -1.76207 -1.80852 0
M  V30 4271 C 424.722 -2.71983 1.28241 0
M  V30 4272 C 426.27 -2.85849 1.27512 0
M  V30 4273 C 426.745 -4.08008 2.08072 0
M  V30 4274 N 428.236 -4.15135 2.05467 0
M  V30 4275 C 428.971 -5.08711 2.64577 0
M  V30 4276 N 428.467 -6.07792 3.32506 0
M  V30 4277 N 430.26 -5.01254 2.54363 0
M  V30 4278 H 422.411 -1.21713 1.74068 0
M  V30 4279 H 424.674 -0.593294 0.739396 0
M  V30 4280 H 424.38 -2.63109 2.33381 0
M  V30 4281 H 424.254 -3.65882 0.917088 0
M  V30 4282 H 426.641 -2.94189 0.231686 0
M  V30 4283 H 426.722 -1.92886 1.68014 0
M  V30 4284 H 426.366 -4.00429 3.12441 0
M  V30 4285 H 426.296 -5.001 1.64947 0
M  V30 4286 H 428.787 -3.44189 1.5602 0
M  V30 4287 H 429.1 -6.75739 3.74963 0
M  V30 4288 H 427.445 -6.08047 3.36606 0
M  V30 4289 H 430.636 -4.22795 2.00902 0
M  V30 4290 H 430.809 -5.73995 3.00722 0
M  V30 4291 N 424.215 -0.530993 -1.48385 0
M  V30 4292 C 425.464 0.00474348 -2.01699 0
M  V30 4293 C 425.777 1.35227 -1.41325 0
M  V30 4294 O 426.983 1.97643 -1.86144 0
M  V30 4295 C 425.439 0.0588473 -3.59852 0
M  V30 4296 C 425.047 -1.28385 -4.2921 0
M  V30 4297 C 426.791 0.543358 -4.21008 0
M  V30 4298 C 424.698 -1.19028 -5.79298 0
M  V30 4299 H 423.628 0.00554317 -0.75398 0
M  V30 4300 H 426.279 -0.674924 -1.70637 0
M  V30 4301 H 424.661 0.803612 -3.8776 0
M  V30 4302 H 425.835 -2.04426 -4.12973 0
M  V30 4303 H 424.15 -1.70418 -3.7993 0
M  V30 4304 H 426.747 0.631351 -5.3096 0
M  V30 4305 H 427.09 1.54937 -3.86394 0
M  V30 4306 H 427.623 -0.145754 -3.97533 0
M  V30 4307 H 424.362 -2.17147 -6.18488 0
M  V30 4308 H 423.882 -0.471246 -5.97946 0
M  V30 4309 H 425.561 -0.881365 -6.40969 0
M  V30 4310 N 425.693 1.55336 -0.266172 0
M  V30 4311 C 426.603 2.2583 0.635458 0
M  V30 4312 C 427.619 1.28106 1.17749 0
M  V30 4313 O 428.795 1.61024 1.20968 0
M  V30 4314 C 425.86 2.95879 1.80712 0
M  V30 4315 C 424.921 4.09059 1.30265 0
M  V30 4316 C 424.154 4.75759 2.41846 0
M  V30 4317 O 424.377 4.41622 3.61007 0
M  V30 4318 O 423.311 5.63888 2.1051 0
M  V30 4319 H 427.137 3.03631 0.0646693 0
M  V30 4320 H 424.722 1.49361 -0.0339177 0
M  V30 4321 H 426.604 3.39932 2.49047 0
M  V30 4322 H 425.279 2.21002 2.36516 0
M  V30 4323 H 424.186 3.69482 0.586019 0
M  V30 4324 H 425.519 4.85811 0.790458 0
M  V30 4325 N 427.171 -0.0066808 1.57599 0
M  V30 4326 C 428.399 -0.704087 1.94551 0
M  V30 4327 C 428.814 -1.67677 0.867746 0
M  V30 4328 O 428.171 -1.8185 -0.153925 0
M  V30 4329 C 428.222 -1.44177 3.31505 0
M  V30 4330 O 427.943 -0.508097 4.35144 0
M  V30 4331 C 429.444 -2.23429 3.82876 0
M  V30 4332 H 426.664 -0.196523 0.641576 0
M  V30 4333 H 429.208 0.042453 2.04456 0
M  V30 4334 H 427.363 -2.13999 3.22929 0
M  V30 4335 H 427.777 -1.02782 5.14331 0
M  V30 4336 H 429.251 -2.70552 4.8115 0
M  V30 4337 H 429.728 -3.05818 3.15233 0
M  V30 4338 H 430.334 -1.58636 3.94607 0
M  V30 4339 N 428.649 -1.55105 -0.279332 0
M  V30 4340 C 429.895 -1.76597 -1.00921 0
M  V30 4341 C 430.25 -0.556831 -1.84166 0
M  V30 4342 O 429.543 0.450573 -1.86227 0
M  V30 4343 C 429.737 -3.0086 -1.92919 0
M  V30 4344 C 429.566 -4.33744 -1.18728 0
M  V30 4345 C 428.336 -4.9712 -0.905545 0
M  V30 4346 C 430.534 -5.11009 -0.580857 0
M  V30 4347 N 428.516 -6.13749 -0.136169 0
M  V30 4348 C 429.887 -6.19976 0.0546661 0
M  V30 4349 C 431.942 -4.95502 -0.488067 0
M  V30 4350 C 430.645 -7.15123 0.774028 0
M  V30 4351 C 432.671 -5.90999 0.217688 0
M  V30 4352 C 432.033 -6.9935 0.841975 0
M  V30 4353 H 428.132 -0.698553 -0.351493 0
M  V30 4354 H 430.716 -1.92595 -0.285531 0
M  V30 4355 H 428.887 -2.86249 -2.62519 0
M  V30 4356 H 430.619 -3.10784 -2.59221 0
M  V30 4357 H 427.374 -4.57903 -1.20921 0
M  V30 4358 H 427.798 -6.7659 0.235665 0
M  V30 4359 H 432.44 -4.11841 -0.956406 0
M  V30 4360 H 430.158 -7.9831 1.25407 0
M  V30 4361 H 433.744 -5.81078 0.289717 0
M  V30 4362 H 432.624 -7.71973 1.37939 0
M  V30 4363 N 430.127 0.543554 -1.4793 0
M  V30 4364 C 431.352 1.32995 -1.59145 0
M  V30 4365 C 431.777 1.86472 -0.246956 0
M  V30 4366 O 431.135 1.63696 0.779324 0
M  V30 4367 C 431.183 2.46623 -2.63077 0
M  V30 4368 O 430.287 3.49261 -2.19295 0
M  V30 4369 H 429.628 0.394472 -0.534124 0
M  V30 4370 H 432.158 0.655489 -1.93816 0
M  V30 4371 H 432.168 2.93001 -2.83926 0
M  V30 4372 H 430.843 2.07059 -3.60693 0
M  V30 4373 H 429.42 3.09094 -2.08603 0
M  V30 4374 N 431.605 1.3629 0.791371 0
M  V30 4375 C 432.553 1.30514 1.92533 0
M  V30 4376 C 433.547 0.197285 1.68247 0
M  V30 4377 O 434.753 0.364176 1.76278 0
M  V30 4378 H 431.128 0.406263 0.632815 0
M  V30 4379 H 433.099 2.26282 1.94523 0
M  V30 4380 C 431.848 1.10933 3.29529 0
M  V30 4381 H 431.171 1.95427 3.48781 0
M  V30 4382 H 432.611 1.10937 4.0923 0
M  V30 4383 C 431.07 -0.186123 3.36385 0
M  V30 4384 O 431.6 -1.17664 3.84081 0
M  V30 4385 N 429.806 -0.230128 2.89687 0
M  V30 4386 H 429.353 0.576545 2.51065 0
M  V30 4387 H 429.311 -1.09658 2.94657 0
M  V30 4388 N 433.083 -1.0153 1.20538 0
M  V30 4389 C 434.046 -2.0826 0.957098 0
M  V30 4390 C 435.046 -1.60657 -0.0678655 0
M  V30 4391 O 436.236 -1.73385 0.168332 0
M  V30 4392 C 433.368 -3.38033 0.441188 0
M  V30 4393 H 434.561 -2.31719 1.90384 0
M  V30 4394 H 432.114 -1.1835 1.02093 0
M  V30 4395 H 432.849 -3.20249 -0.510961 0
M  V30 4396 H 432.634 -3.73911 1.18038 0
M  V30 4397 H 434.124 -4.16613 0.287009 0
M  V30 4398 N 434.561 -1.01147 -1.20859 0
M  V30 4399 C 435.493 -0.535546 -2.22855 0
M  V30 4400 C 436.506 0.379323 -1.58319 0
M  V30 4401 O 437.695 0.178489 -1.77605 0
M  V30 4402 C 434.795 0.240962 -3.38042 0
M  V30 4403 C 433.968 -0.674562 -4.32167 0
M  V30 4404 C 433.027 0.053467 -5.26173 0
M  V30 4405 O 432.053 -0.567339 -5.66366 0
M  V30 4406 N 433.255 1.32997 -5.65059 0
M  V30 4407 H 436.02 -1.41268 -2.64317 0
M  V30 4408 H 433.581 -0.888386 -1.35349 0
M  V30 4409 H 435.573 0.737115 -3.97931 0
M  V30 4410 H 434.143 1.01935 -2.95513 0
M  V30 4411 H 433.363 -1.35111 -3.70322 0
M  V30 4412 H 434.651 -1.2974 -4.91981 0
M  V30 4413 H 434.049 1.85536 -5.34409 0
M  V30 4414 H 432.606 1.77095 -6.2728 0
M  V30 4415 N 436.039 1.36541 -0.78704 0
M  V30 4416 C 436.987 2.31965 -0.171724 0
M  V30 4417 C 437.981 1.55689 0.667631 0
M  V30 4418 O 439.187 1.70969 0.562981 0
M  V30 4419 H 435.562 0.751101 -0.0367545 0
M  V30 4420 H 437.533 2.81428 -0.992017 0
M  V30 4421 C 436.282 3.40968 0.680904 0
M  V30 4422 H 435.605 3.99775 0.0443961 0
M  V30 4423 H 437.045 4.10063 1.07815 0
M  V30 4424 C 435.504 2.82338 1.83813 0
M  V30 4425 O 436.034 2.74311 2.93456 0
M  V30 4426 N 434.24 2.39661 1.6435 0
M  V30 4427 H 433.787 2.46389 0.751668 0
M  V30 4428 H 433.745 2.00779 2.4194 0
M  V30 4429 N 437.518 0.538854 1.48102 0
M  V30 4430 C 438.45 -0.256278 2.27763 0
M  V30 4431 C 439.463 -0.89633 1.35904 0
M  V30 4432 O 440.652 -0.773275 1.60881 0
M  V30 4433 C 437.752 -1.37896 3.09577 0
M  V30 4434 C 436.925 -0.839159 4.29275 0
M  V30 4435 C 435.984 -1.84405 4.9283 0
M  V30 4436 O 435.01 -1.39746 5.51779 0
M  V30 4437 N 436.212 -3.17666 4.85869 0
M  V30 4438 H 438.977 0.426968 2.96643 0
M  V30 4439 H 436.538 0.373747 1.57527 0
M  V30 4440 H 438.53 -2.04955 3.48963 0
M  V30 4441 H 437.1 -1.96572 2.4306 0
M  V30 4442 H 436.32 0.00769287 3.94199 0
M  V30 4443 H 437.608 -0.457548 5.06739 0
M  V30 4444 H 437.006 -3.56609 4.39143 0
M  V30 4445 H 435.563 -3.80334 5.29329 0
M  V30 4446 N 438.996 -1.55193 0.274407 0
M  V30 4447 C 440.244 -1.99187 -0.341902 0
M  V30 4448 C 440.565 -1.16422 -1.56431 0
M  V30 4449 O 439.835 -0.253573 -1.94252 0
M  V30 4450 H 438.415 -0.735721 -0.129317 0
M  V30 4451 H 441.077 -1.91168 0.379578 0
M  V30 4452 H 440.173 -3.05629 -0.632253 0
M  V30 4453 N 440.474 -0.00167713 -1.576 0
M  V30 4454 C 441.723 0.682021 -1.89819 0
M  V30 4455 C 442.036 1.74844 -0.876871 0
M  V30 4456 O 443.242 2.48688 -1.08934 0
M  V30 4457 C 441.698 1.26425 -3.36964 0
M  V30 4458 C 441.306 0.232568 -4.47396 0
M  V30 4459 C 443.05 1.92604 -3.78291 0
M  V30 4460 C 440.957 0.824882 -5.85619 0
M  V30 4461 H 439.887 0.258499 -0.708304 0
M  V30 4462 H 442.538 -0.0624957 -1.83394 0
M  V30 4463 H 440.92 2.05949 -3.38232 0
M  V30 4464 H 442.094 -0.5382 -4.57646 0
M  V30 4465 H 440.409 -0.32888 -4.15099 0
M  V30 4466 H 443.006 2.37827 -4.78897 0
M  V30 4467 H 443.349 2.75732 -3.11894 0
M  V30 4468 H 443.882 1.19812 -3.79328 0
M  V30 4469 H 440.621 0.0323542 -6.55492 0
M  V30 4470 H 440.141 1.56477 -5.79029 0
M  V30 4471 H 441.82 1.32301 -6.33329 0
M  V30 4472 N 441.952 1.55251 0.271103 0
M  V30 4473 C 442.915 1.87484 1.31842 0
M  V30 4474 C 443.915 0.749545 1.42262 0
M  V30 4475 O 445.105 1.01771 1.4138 0
M  V30 4476 C 442.237 2.0818 2.69951 0
M  V30 4477 H 443.43 2.81108 1.0449 0
M  V30 4478 H 440.983 1.47771 0.509258 0
M  V30 4479 H 441.718 1.16944 3.02481 0
M  V30 4480 H 441.503 2.90114 2.63774 0
M  V30 4481 H 442.993 2.34385 3.4562 0
M  V30 4482 N 443.43 -0.535701 1.48216 0
M  V30 4483 C 444.676 -1.29375 1.56173 0
M  V30 4484 C 445.009 -1.92804 0.232429 0
M  V30 4485 O 444.284 -1.78992 -0.761048 0
M  V30 4486 C 444.567 -2.38747 2.69577 0
M  V30 4487 C 444.42 -1.80046 4.12193 0
M  V30 4488 C 445.739 -3.40551 2.78771 0
M  V30 4489 H 442.858 -0.469027 0.568491 0
M  V30 4490 H 445.5 -0.597358 1.80365 0
M  V30 4491 H 443.65 -2.98147 2.4908 0
M  V30 4492 H 445.322 -1.24742 4.44114 0
M  V30 4493 H 443.565 -1.10609 4.19462 0
M  V30 4494 H 444.236 -2.59212 4.87353 0
M  V30 4495 H 446.712 -2.91099 2.97322 0
M  V30 4496 H 445.588 -4.1448 3.59857 0
M  V30 4497 H 445.849 -4.00746 1.86696 0
M  V30 4498 N 444.908 -1.36708 -0.784132 0
M  V30 4499 C 445.871 -1.31307 -1.87859 0
M  V30 4500 C 446.871 -0.219654 -1.59293 0
M  V30 4501 O 448.061 -0.47476 -1.67606 0
M  V30 4502 C 445.193 -1.03679 -3.24751 0
M  V30 4503 H 446.386 -2.28647 -1.94064 0
M  V30 4504 H 443.939 -1.21558 -0.98252 0
M  V30 4505 H 444.674 -0.0681936 -3.24228 0
M  V30 4506 H 444.459 -1.82811 -3.46876 0
M  V30 4507 H 445.949 -1.02518 -4.04821 0
M  V30 4508 N 446.386 1.0089 -1.21074 0
M  V30 4509 C 447.802 1.2695 -0.967257 0
M  V30 4510 C 448.002 1.9846 0.348673 0
M  V30 4511 O 447.058 2.28459 1.0753 0
M  V30 4512 C 448.371 2.09697 -2.15517 0
M  V30 4513 C 449.919 2.22937 -2.197 0
M  V30 4514 C 450.394 3.09064 -3.37999 0
M  V30 4515 N 451.885 3.16653 -3.38061 0
M  V30 4516 C 452.62 3.8354 -4.26245 0
M  V30 4517 N 452.116 4.52488 -5.2462 0
M  V30 4518 N 453.909 3.80141 -4.14064 0
M  V30 4519 H 446.06 0.529005 -2.05707 0
M  V30 4520 H 448.323 0.296148 -0.900556 0
M  V30 4521 H 448.029 1.64497 -3.10859 0
M  V30 4522 H 447.903 3.10444 -2.14253 0
M  V30 4523 H 450.29 2.67357 -1.24916 0
M  V30 4524 H 450.371 1.21673 -2.2501 0
M  V30 4525 H 450.015 2.65347 -4.33074 0
M  V30 4526 H 449.945 4.10433 -3.29928 0
M  V30 4527 H 452.436 2.67566 -2.66865 0
M  V30 4528 H 452.749 5.01219 -5.88217 0
M  V30 4529 H 451.094 4.51288 -5.28549 0
M  V30 4530 H 454.285 3.25427 -3.36474 0
M  V30 4531 H 454.458 4.31992 -4.82998 0
M  V30 4532 N 447.864 1.01787 1.20321 0
M  V30 4533 C 448.814 0.559976 2.21016 0
M  V30 4534 C 449.798 -0.385366 1.56217 0
M  V30 4535 O 450.99 -0.208126 1.75772 0
M  V30 4536 C 448.119 -0.0990553 3.43157 0
M  V30 4537 C 447.205 0.86807 4.15121 0
M  V30 4538 N 447.596 2.0261 4.63447 0
M  V30 4539 C 445.894 0.689162 4.40643 0
M  V30 4540 C 446.595 2.63518 5.18588 0
M  V30 4541 N 445.571 1.91569 5.08726 0
M  V30 4542 H 449.373 1.44281 2.56048 0
M  V30 4543 H 446.887 0.883381 1.36272 0
M  V30 4544 H 448.884 -0.444643 4.14522 0
M  V30 4545 H 447.544 -0.977709 3.0963 0
M  V30 4546 H 448.555 2.40598 4.58621 0
M  V30 4547 H 445.232 -0.14133 4.17261 0
M  V30 4548 H 446.622 3.61527 5.66346 0
M  V30 4549 N 449.342 -1.36122 0.79427 0
M  V30 4550 C 450.272 -2.32551 0.210328 0
M  V30 4551 C 451.253 -1.56884 -0.657386 0
M  V30 4552 O 452.438 -1.85014 -0.590207 0
M  V30 4553 C 449.568 -3.41128 -0.651819 0
M  V30 4554 C 448.522 -4.27842 0.116395 0
M  V30 4555 C 447.848 -5.2763 -0.86666 0
M  V30 4556 C 449.148 -5.05647 1.30837 0
M  V30 4557 H 450.842 -2.81636 1.01594 0
M  V30 4558 H 448.388 -1.35407 0.489981 0
M  V30 4559 H 450.341 -4.07581 -1.07031 0
M  V30 4560 H 449.065 -2.90622 -1.49019 0
M  V30 4561 H 447.724 -3.62952 0.515915 0
M  V30 4562 H 447.372 -4.73395 -1.70019 0
M  V30 4563 H 447.072 -5.86514 -0.35705 0
M  V30 4564 H 448.596 -5.96955 -1.28361 0
M  V30 4565 H 450.01 -5.65113 0.965393 0
M  V30 4566 H 448.407 -5.73967 1.75161 0
M  V30 4567 H 449.477 -4.37006 2.10128 0
M  V30 4568 N 450.82 -0.546701 -1.47814 0
M  V30 4569 C 452.066 -0.0187684 -2.02791 0
M  V30 4570 C 452.399 1.32338 -1.42128 0
M  V30 4571 O 451.674 1.85867 -0.573023 0
M  V30 4572 C 451.957 0.0854985 -3.59998 0
M  V30 4573 C 451.81 -1.283 -4.31114 0
M  V30 4574 C 453.129 0.80412 -4.32691 0
M  V30 4575 H 450.248 -0.0082946 -0.736953 0
M  V30 4576 H 452.89 -0.706962 -1.76358 0
M  V30 4577 H 451.04 0.671609 -3.82651 0
M  V30 4578 H 452.712 -1.91151 -4.19832 0
M  V30 4579 H 450.955 -1.86049 -3.91878 0
M  V30 4580 H 451.626 -1.16287 -5.39612 0
M  V30 4581 H 454.102 0.306576 -4.14969 0
M  V30 4582 H 452.978 0.846011 -5.42341 0
M  V30 4583 H 453.239 1.85802 -4.01161 0
M  V30 4584 N 452.299 1.55045 -0.282633 0
M  V30 4585 C 453.576 1.9179 0.384166 0
M  V30 4586 C 453.956 1.20778 1.73136 0
M  V30 4587 O 453.304 0.33719 2.25998 0
M  V30 4588 C 453.514 3.45149 0.517014 0
M  V30 4589 C 454.862 4.17064 0.796427 0
M  V30 4590 O 455.886 3.51084 0.601535 0
M  V30 4591 O 454.745 5.33837 1.16962 0
M  V30 4592 H 451.839 0.799483 0.211558 0
M  V30 4593 H 454.385 1.66474 -0.32934 0
M  V30 4594 H 453.157 3.88922 -0.430772 0
M  V30 4595 H 452.78 3.76443 1.2797 0
M  V30 4596 N 453.777 0.010035 1.57597 0
M  V30 4597 C 455.188 -0.531426 1.78977 0
M  V30 4598 C 455.539 -1.73375 0.918454 0
M  V30 4599 O 454.664 -2.16047 0.123635 0
M  V30 4600 C 455.259 -0.97086 3.24592 0
M  V30 4601 C 453.818 -1.45756 3.47033 0
M  V30 4602 C 452.965 -0.413384 2.74201 0
M  V30 4603 H 455.916 0.236166 1.56933 0
M  V30 4604 H 455.937 -1.83633 3.33255 0
M  V30 4605 H 455.449 -0.0955893 3.87982 0
M  V30 4606 H 453.55 -2.35339 2.88871 0
M  V30 4607 H 453.663 -1.4781 4.55729 0
M  V30 4608 H 452.027 -0.877266 2.39115 0
M  V30 4609 H 452.81 0.453092 3.40297 0
M  V30 4610 N 455.255 -1.55392 -0.262866 0
M  V30 4611 C 456.483 -1.80513 -1.01108 0
M  V30 4612 C 456.898 -0.583533 -1.79556 0
M  V30 4613 O 456.255 0.447585 -1.76926 0
M  V30 4614 C 456.306 -3.03648 -1.96164 0
M  V30 4615 O 456.027 -4.2109 -1.20893 0
M  V30 4616 C 457.528 -3.41448 -2.82715 0
M  V30 4617 H 454.748 -0.601079 -0.298236 0
M  V30 4618 H 457.292 -2.02425 -0.290582 0
M  V30 4619 H 455.447 -2.83832 -2.63663 0
M  V30 4620 H 455.861 -4.90771 -1.85051 0
M  V30 4621 H 457.335 -4.30751 -3.45192 0
M  V30 4622 H 457.812 -2.61308 -3.53008 0
M  V30 4623 H 458.418 -3.63559 -2.20693 0
M  V30 4624 N 456.733 0.527833 -1.48498 0
M  V30 4625 C 457.696 1.61439 -1.62696 0
M  V30 4626 C 458.696 1.52824 -0.500136 0
M  V30 4627 O 459.886 1.56456 -0.765976 0
M  V30 4628 C 457.018 3.01063 -1.59918 0
M  V30 4629 H 458.211 1.50189 -2.59583 0
M  V30 4630 H 455.764 0.750055 -1.37127 0
M  V30 4631 H 456.499 3.17818 -0.645163 0
M  V30 4632 H 456.284 3.08725 -2.41726 0
M  V30 4633 H 457.774 3.80057 -1.73051 0
M  V30 4634 N 458.211 1.37122 0.776871 0
M  V30 4635 C 459.622 1.28667 1.35284 0
M  V30 4636 C 459.973 -0.0680035 1.96082 0
M  V30 4637 O 459.098 -0.969743 1.93455 0
M  V30 4638 C 459.693 2.32997 2.45963 0
M  V30 4639 C 458.252 2.28191 2.99342 0
M  V30 4640 C 457.399 2.17101 1.72517 0
M  V30 4641 H 460.35 1.47819 0.577527 0
M  V30 4642 H 460.371 1.97366 3.2531 0
M  V30 4643 H 459.883 3.3158 2.01684 0
M  V30 4644 H 457.984 1.33115 3.4801 0
M  V30 4645 H 458.097 3.21397 3.55304 0
M  V30 4646 H 456.461 1.63562 1.95242 0
M  V30 4647 H 457.244 3.17591 1.30348 0
M  V30 4648 N 459.689 -1.00246 1.21608 0
M  V30 4649 C 460.937 -1.73717 1.0328 0
M  V30 4650 C 461.258 -1.90102 -0.434318 0
M  V30 4651 O 460.528 -1.45376 -1.31311 0
M  V30 4652 H 459.108 -0.643613 0.379172 0
M  V30 4653 H 461.77 -1.20787 1.52959 0
M  V30 4654 H 460.866 -2.73535 1.50283 0
M  V30 4655 N 461.167 -1.02423 -1.1978 0
M  V30 4656 C 462.397 -0.736387 -1.93031 0
M  V30 4657 C 462.805 0.708023 -1.75453 0
M  V30 4658 O 462.148 1.4927 -1.07071 0
M  V30 4659 C 462.21 -1.00194 -3.45255 0
M  V30 4660 C 461.874 -2.43698 -3.86601 0
M  V30 4661 C 462.871 -3.41814 -3.91738 0
M  V30 4662 C 460.556 -2.77975 -4.18372 0
M  V30 4663 C 462.55 -4.72265 -4.28071 0
M  V30 4664 C 460.237 -4.08636 -4.54378 0
M  V30 4665 C 461.235 -5.05592 -4.59201 0
M  V30 4666 O 460.923 -6.33914 -4.94376 0
M  V30 4667 H 460.655 -0.269116 -0.620123 0
M  V30 4668 H 463.209 -1.37043 -1.52998 0
M  V30 4669 H 461.439 -0.310747 -3.85449 0
M  V30 4670 H 463.128 -0.704488 -3.9974 0
M  V30 4671 H 463.894 -3.16671 -3.67348 0
M  V30 4672 H 459.773 -2.0319 -4.13805 0
M  V30 4673 H 463.317 -5.4794 -4.3175 0
M  V30 4674 H 459.214 -4.33556 -4.78226 0
M  V30 4675 H 459.982 -6.38317 -5.12341 0
M  V30 4676 N 462.645 1.35699 -0.801477 0
M  V30 4677 C 463.608 2.28199 -0.213994 0
M  V30 4678 C 464.608 1.49359 0.595691 0
M  V30 4679 O 465.798 1.69186 0.414921 0
M  V30 4680 C 462.93 3.33587 0.702297 0
M  V30 4681 H 464.123 2.81666 -1.02976 0
M  V30 4682 H 461.676 1.45467 -0.571759 0
M  V30 4683 H 462.411 2.85297 1.54195 0
M  V30 4684 H 462.196 3.91906 0.123484 0
M  V30 4685 H 463.686 4.02638 1.10783 0
M  V30 4686 N 464.123 0.554532 1.47522 0
M  V30 4687 C 465.033 -0.197865 2.33764 0
M  V30 4688 C 466.049 -0.914576 1.48025 0
M  V30 4689 O 467.225 -0.884067 1.80959 0
M  V30 4690 C 464.29 -1.21628 3.24665 0
M  V30 4691 C 463.351 -0.507283 4.26292 0
M  V30 4692 C 462.584 -1.47718 5.1285 0
M  V30 4693 O 462.807 -2.7118 5.01814 0
M  V30 4694 O 461.741 -1.00313 5.93482 0
M  V30 4695 H 465.567 0.50949 2.99396 0
M  V30 4696 H 463.152 0.315176 1.46038 0
M  V30 4697 H 465.034 -1.80421 3.80823 0
M  V30 4698 H 463.709 -1.9056 2.61665 0
M  V30 4699 H 462.616 0.121778 3.73902 0
M  V30 4700 H 463.949 0.140544 4.91999 0
M  V30 4701 N 465.601 -1.54893 0.290851 0
M  V30 4702 C 466.531 -2.26103 -0.583084 0
M  V30 4703 C 467.512 -1.25684 -1.14619 0
M  V30 4704 O 468.697 -1.54436 -1.17741 0
M  V30 4705 C 465.827 -2.99409 -1.75987 0
M  V30 4706 C 464.781 -4.0689 -1.32758 0
M  V30 4707 C 464.107 -4.67856 -2.58872 0
M  V30 4708 C 465.407 -5.20215 -0.46624 0
M  V30 4709 H 467.101 -2.99398 0.0108214 0
M  V30 4710 H 464.647 -1.43998 0.00664468 0
M  V30 4711 H 466.6 -3.47943 -2.37727 0
M  V30 4712 H 465.324 -2.23675 -2.37985 0
M  V30 4713 H 463.983 -3.59191 -0.733299 0
M  V30 4714 H 463.631 -3.88772 -3.19163 0
M  V30 4715 H 463.331 -5.40438 -2.30653 0
M  V30 4716 H 464.855 -5.19147 -3.21433 0
M  V30 4717 H 466.269 -5.64704 -0.989047 0
M  V30 4718 H 464.666 -5.99455 -0.27826 0
M  V30 4719 H 465.736 -4.82198 0.511173 0
M  V30 4720 N 467.08 -0.0183926 -1.57589 0
M  V30 4721 C 468.491 0.521927 -1.79256 0
M  V30 4722 C 468.842 1.72885 -0.927636 0
M  V30 4723 O 467.967 2.15978 -0.135091 0
M  V30 4724 C 468.562 0.953632 -3.25102 0
M  V30 4725 C 467.121 1.43913 -3.47801 0
M  V30 4726 C 466.268 0.398837 -2.74417 0
M  V30 4727 H 469.219 -0.244485 -1.56805 0
M  V30 4728 H 469.24 1.81863 -3.34224 0
M  V30 4729 H 468.752 0.0750123 -3.88028 0
M  V30 4730 H 466.853 2.33804 -2.90115 0
M  V30 4731 H 466.966 1.45391 -4.56507 0
M  V30 4732 H 465.33 0.864572 -2.39577 0
M  V30 4733 H 466.113 -0.471132 -3.40052 0
M  V30 4734 N 468.558 1.5553 0.254621 0
M  V30 4735 C 469.804 1.7818 0.980989 0
M  V30 4736 C 470.159 0.586059 1.83257 0
M  V30 4737 O 469.452 -0.420889 1.8692 0
M  V30 4738 C 469.646 3.03891 1.88109 0
M  V30 4739 C 469.475 4.35578 1.11812 0
M  V30 4740 C 468.245 4.98497 0.826343 0
M  V30 4741 C 470.443 5.11869 0.499486 0
M  V30 4742 N 468.425 6.13888 0.0385095 0
M  V30 4743 C 469.796 6.1981 -0.153292 0
M  V30 4744 C 471.851 4.96216 0.409175 0
M  V30 4745 C 470.554 7.13801 -0.8877 0
M  V30 4746 C 472.58 5.90578 -0.311683 0
M  V30 4747 C 471.942 6.97922 -0.953129 0
M  V30 4748 H 468.041 0.704057 0.340335 0
M  V30 4749 H 470.625 1.93025 0.254855 0
M  V30 4750 H 468.796 2.90389 2.57932 0
M  V30 4751 H 470.528 3.14869 2.54244 0
M  V30 4752 H 467.283 4.59769 1.13621 0
M  V30 4753 H 467.707 6.76129 -0.343275 0
M  V30 4754 H 472.349 4.1331 0.890765 0
M  V30 4755 H 470.067 7.96214 -1.38092 0
M  V30 4756 H 473.653 5.80544 -0.382125 0
M  V30 4757 H 472.533 7.69681 -1.50203 0
M  V30 4758 N 470.036 -0.519951 1.48776 0
M  V30 4759 C 471.266 -1.29783 1.60748 0
M  V30 4760 C 471.674 -1.87253 0.27072 0
M  V30 4761 O 471.017 -1.67628 -0.751438 0
M  V30 4762 C 471.079 -2.47984 2.60277 0
M  V30 4763 C 470.743 -2.11526 4.051 0
M  V30 4764 C 471.74 -1.66608 4.92481 0
M  V30 4765 C 469.425 -2.21742 4.50706 0
M  V30 4766 C 471.419 -1.32384 6.23501 0
M  V30 4767 C 469.106 -1.87129 5.81744 0
M  V30 4768 C 470.104 -1.42523 6.67964 0
M  V30 4769 O 469.792 -1.0837 7.96562 0
M  V30 4770 H 469.524 -0.400562 0.544542 0
M  V30 4771 H 472.078 -0.632879 1.95407 0
M  V30 4772 H 470.308 -3.17493 2.2076 0
M  V30 4773 H 471.997 -3.10036 2.61978 0
M  V30 4774 H 472.763 -1.58178 4.58481 0
M  V30 4775 H 468.642 -2.55415 3.83776 0
M  V30 4776 H 472.186 -0.974949 6.90754 0
M  V30 4777 H 468.083 -1.95204 6.15277 0
M  V30 4778 H 468.851 -1.21681 8.09405 0
M  V30 4779 N 471.514 -1.37532 -0.769588 0
M  V30 4780 C 472.76 -1.34063 -1.52966 0
M  V30 4781 C 473.115 0.0737942 -1.92258 0
M  V30 4782 O 472.408 1.03291 -1.61374 0
M  V30 4783 C 472.602 -2.21558 -2.8044 0
M  V30 4784 C 472.431 -3.71367 -2.53608 0
M  V30 4785 C 471.201 -4.40464 -2.47628 0
M  V30 4786 C 473.399 -4.64177 -2.21459 0
M  V30 4787 N 471.381 -5.758 -2.12902 0
M  V30 4788 C 472.752 -5.87907 -1.9689 0
M  V30 4789 C 474.807 -4.52541 -2.07633 0
M  V30 4790 C 473.51 -7.01304 -1.59892 0
M  V30 4791 C 475.536 -5.65825 -1.72034 0
M  V30 4792 C 474.898 -6.88606 -1.48327 0
M  V30 4793 H 470.997 -0.545856 -0.559969 0
M  V30 4794 H 473.581 -1.72773 -0.897634 0
M  V30 4795 H 471.752 -1.85061 -3.41478 0
M  V30 4796 H 473.484 -2.09332 -3.46356 0
M  V30 4797 H 470.239 -3.93491 -2.63556 0
M  V30 4798 H 470.663 -6.47328 -1.9823 0
M  V30 4799 H 475.305 -3.58183 -2.24643 0
M  V30 4800 H 473.023 -7.95594 -1.4162 0
M  V30 4801 H 476.609 -5.58793 -1.61991 0
M  V30 4802 H 475.489 -7.74779 -1.21189 0
M  V30 4803 N 472.992 0.995999 -1.22138 0
M  V30 4804 C 474.217 1.77601 -1.0711 0
M  V30 4805 C 474.642 1.84339 0.374264 0
M  V30 4806 O 474 1.29359 1.27028 0
M  V30 4807 C 474.048 3.18897 -1.68336 0
M  V30 4808 O 473.152 4.01663 -0.934928 0
M  V30 4809 H 472.493 0.547011 -0.376397 0
M  V30 4810 H 475.023 1.25137 -1.6187 0
M  V30 4811 H 475.033 3.69539 -1.72931 0
M  V30 4812 H 473.708 3.13308 -2.73516 0
M  V30 4813 H 472.285 3.60204 -0.964751 0
M  V30 4814 N 474.47 1.03057 1.19235 0
M  V30 4815 C 475.747 0.642608 1.84743 0
M  V30 4816 C 476.127 -0.878577 1.91948 0
M  V30 4817 O 475.475 -1.77597 1.43776 0
M  V30 4818 C 475.685 1.30665 3.23616 0
M  V30 4819 C 477.033 1.43098 3.9976 0
M  V30 4820 O 478.057 1.26396 3.3302 0
M  V30 4821 O 476.916 1.70223 5.19313 0
M  V30 4822 H 474.01 0.223573 0.796206 0
M  V30 4823 H 476.556 1.12883 1.26711 0
M  V30 4824 H 475.328 2.34544 3.13217 0
M  V30 4825 H 474.951 0.808405 3.89295 0
M  V30 4826 N 475.948 -1.35272 0.808662 0
M  V30 4827 C 476.88 -2.28507 0.178149 0
M  V30 4828 C 477.893 -1.50377 -0.623754 0
M  V30 4829 O 479.082 -1.72583 -0.455774 0
M  V30 4830 C 476.182 -3.30038 -0.769959 0
M  V30 4831 C 475.355 -4.37398 -0.0139749 0
M  V30 4832 C 474.414 -5.18775 -0.880875 0
M  V30 4833 O 473.44 -5.68236 -0.331059 0
M  V30 4834 N 474.642 -5.37087 -2.20267 0
M  V30 4835 H 477.407 -2.83255 0.979106 0
M  V30 4836 H 474.968 -1.47643 0.664308 0
M  V30 4837 H 476.96 -3.81371 -1.35418 0
M  V30 4838 H 475.53 -2.75789 -1.47171 0
M  V30 4839 H 474.75 -3.86971 0.751468 0
M  V30 4840 H 476.038 -5.06268 0.506965 0
M  V30 4841 H 475.436 -4.9855 -2.67328 0
M  V30 4842 H 473.993 -5.91593 -2.73608 0
M  V30 4843 N 477.426 -0.562348 -1.47226 0
M  V30 4844 C 478.674 -0.0401371 -2.0206 0
M  V30 4845 C 478.995 1.3165 -1.43852 0
M  V30 4846 O 478.265 1.85976 -0.615599 0
M  V30 4847 H 476.845 -0.0118479 -0.746906 0
M  V30 4848 H 479.507 -0.73352 -1.8057 0
M  V30 4849 H 478.603 0.0441254 -3.12069 0
M  V30 4850 N 478.904 1.54736 -0.299062 0
M  V30 4851 C 479.867 2.22127 0.565012 0
M  V30 4852 C 480.867 1.20669 1.06281 0
M  V30 4853 O 482.057 1.45417 0.959145 0
M  V30 4854 C 479.189 2.90611 1.78208 0
M  V30 4855 H 480.382 2.99891 -0.0237448 0
M  V30 4856 H 477.935 1.5622 -0.0498788 0
M  V30 4857 H 478.67 2.16921 2.41072 0
M  V30 4858 H 478.455 3.64984 1.43281 0
M  V30 4859 H 479.945 3.42026 2.396 0
M  V30 4860 N 480.382 0.0267497 1.57577 0
M  V30 4861 C 481.312 -0.954308 2.13108 0
M  V30 4862 C 482.293 -1.34088 1.04663 0
M  V30 4863 O 483.478 -1.41992 1.32484 0
M  V30 4864 C 480.608 -2.23744 2.65624 0
M  V30 4865 C 479.562 -1.99168 3.78835 0
M  V30 4866 C 478.888 -3.33726 4.17769 0
M  V30 4867 C 480.188 -1.33277 5.0501 0
M  V30 4868 H 481.882 -0.491848 2.95332 0
M  V30 4869 H 479.428 -0.23514 1.42067 0
M  V30 4870 H 481.381 -2.92754 3.03106 0
M  V30 4871 H 480.105 -2.72151 1.80558 0
M  V30 4872 H 478.764 -1.32577 3.41788 0
M  V30 4873 H 478.412 -3.79888 3.29688 0
M  V30 4874 H 478.112 -3.18089 4.94058 0
M  V30 4875 H 479.636 -4.04008 4.57832 0
M  V30 4876 H 481.05 -1.92283 5.40093 0
M  V30 4877 H 479.447 -1.28045 5.8628 0
M  V30 4878 H 480.517 -0.305411 4.83937 0
M  V30 4879 N 481.861 -1.55662 -0.24637 0
M  V30 4880 C 483.277 -1.48098 -0.594907 0
M  V30 4881 C 483.477 -0.717044 -1.8831 0
M  V30 4882 O 482.533 -0.246618 -2.51293 0
M  V30 4883 C 483.846 -2.92507 -0.697146 0
M  V30 4884 C 485.394 -3.02881 -0.789436 0
M  V30 4885 C 485.869 -4.48598 -0.923232 0
M  V30 4886 N 487.36 -4.52538 -0.988088 0
M  V30 4887 C 488.095 -5.62536 -1.11089 0
M  V30 4888 N 487.591 -6.82342 -1.19919 0
M  V30 4889 N 489.384 -5.50334 -1.14408 0
M  V30 4890 H 481.535 -2.0377 0.599278 0
M  V30 4891 H 483.798 -0.925145 0.20691 0
M  V30 4892 H 483.504 -3.51242 0.179396 0
M  V30 4893 H 483.378 -3.43024 -1.5689 0
M  V30 4894 H 485.765 -2.44226 -1.65643 0
M  V30 4895 H 485.846 -2.55574 0.107482 0
M  V30 4896 H 485.49 -5.07864 -0.0607927 0
M  V30 4897 H 485.42 -4.93587 -1.8352 0
M  V30 4898 H 487.911 -3.66248 -0.931167 0
M  V30 4899 H 488.224 -7.61924 -1.29197 0
M  V30 4900 H 486.569 -6.85102 -1.16876 0
M  V30 4901 H 489.76 -4.5567 -1.07158 0
M  V30 4902 H 489.933 -6.36096 -1.23634 0
M  V30 4903 N 483.339 0.512053 -1.4905 0
M  V30 4904 C 484.588 1.26343 -1.57227 0
M  V30 4905 C 484.901 1.93876 -0.259155 0
M  V30 4906 O 486.107 2.70612 -0.219358 0
M  V30 4907 C 484.563 2.29343 -2.77362 0
M  V30 4908 C 484.171 1.67799 -4.15388 0
M  V30 4909 C 485.915 3.05378 -2.94864 0
M  V30 4910 C 483.822 2.68845 -5.2676 0
M  V30 4911 H 482.752 0.475231 -0.585382 0
M  V30 4912 H 485.403 0.53862 -1.75417 0
M  V30 4913 H 483.785 3.04938 -2.52643 0
M  V30 4914 H 484.959 0.982715 -4.50199 0
M  V30 4915 H 483.274 1.04194 -4.03153 0
M  V30 4916 H 485.871 3.80921 -3.75238 0
M  V30 4917 H 486.214 3.62327 -2.05 0
M  V30 4918 H 486.747 2.36898 -3.19569 0
M  V30 4919 H 483.486 2.16692 -6.18647 0
M  V30 4920 H 483.006 3.36647 -4.96416 0
M  V30 4921 H 484.685 3.31487 -5.5563 0
M  V30 4922 N 484.817 1.37938 0.762283 0
M  V30 4923 C 485.749 1.30349 1.88525 0
M  V30 4924 C 486.762 0.217402 1.61342 0
M  V30 4925 O 487.951 0.474291 1.72084 0
M  V30 4926 C 485.051 0.994844 3.23969 0
M  V30 4927 C 484.224 2.18829 3.78725 0
M  V30 4928 C 483.283 1.84844 4.92665 0
M  V30 4929 O 482.309 2.57244 5.07754 0
M  V30 4930 N 483.511 0.798201 5.74986 0
M  V30 4931 H 486.276 2.27114 1.95549 0
M  V30 4932 H 483.837 1.31686 0.941825 0
M  V30 4933 H 485.829 0.748168 3.97724 0
M  V30 4934 H 484.399 0.115446 3.12387 0
M  V30 4935 H 483.619 2.59615 2.96637 0
M  V30 4936 H 484.907 2.98497 4.1204 0
M  V30 4937 H 484.305 0.197611 5.65355 0
M  V30 4938 H 482.862 0.611396 6.48926 0
M  V30 4939 N 486.295 -0.989507 1.22664 0
M  V30 4940 C 487.541 -1.7321 1.05481 0
M  V30 4941 C 487.874 -1.89852 -0.408635 0
M  V30 4942 O 487.149 -1.44416 -1.30285 0
M  V30 4943 C 487.432 -3.1357 1.77047 0
M  V30 4944 C 487.285 -3.04555 3.31008 0
M  V30 4945 C 488.604 -4.12812 1.5256 0
M  V30 4946 H 485.723 -0.628697 0.384589 0
M  V30 4947 H 488.365 -1.15258 1.51049 0
M  V30 4948 H 486.515 -3.63046 1.3831 0
M  V30 4949 H 488.187 -2.62674 3.7921 0
M  V30 4950 H 486.43 -2.41278 3.6051 0
M  V30 4951 H 487.101 -4.03894 3.76263 0
M  V30 4952 H 489.577 -3.72106 1.86215 0
M  V30 4953 H 488.453 -5.09132 2.05124 0
M  V30 4954 H 488.714 -4.39711 0.458936 0
M  V30 4955 N 487.773 -1.03688 -1.18687 0
M  V30 4956 C 488.736 -0.629115 -2.20397 0
M  V30 4957 C 489.736 0.311495 -1.57754 0
M  V30 4958 O 490.926 0.0974107 -1.73927 0
M  V30 4959 C 488.058 0.0782231 -3.4081 0
M  V30 4960 H 489.251 -1.52915 -2.57987 0
M  V30 4961 H 486.804 -0.828988 -1.32505 0
M  V30 4962 H 487.539 0.992233 -3.08748 0
M  V30 4963 H 487.324 -0.597776 -3.87517 0
M  V30 4964 H 488.814 0.350156 -4.16129 0
M  V30 4965 N 489.251 1.34841 -0.815825 0
M  V30 4966 C 490.499 1.98107 -0.399744 0
M  V30 4967 C 490.82 1.65019 1.03894 0
M  V30 4968 O 490.09 0.937311 1.72021 0
M  V30 4969 H 488.67 0.732827 -0.144823 0
M  V30 4970 H 491.332 1.64599 -1.0437 0
M  V30 4971 H 490.428 3.07856 -0.512965 0
M  V30 4972 N 490.729 0.570148 1.46925 0
M  V30 4973 C 491.659 -0.158274 2.32963 0
M  V30 4974 C 492.64 -0.896093 1.44583 0
M  V30 4975 O 493.825 -0.874022 1.7342 0
M  V30 4976 C 490.955 -1.18055 3.26619 0
M  V30 4977 C 489.909 -0.558379 4.24342 0
M  V30 4978 C 489.235 -1.68623 5.07415 0
M  V30 4979 C 490.535 0.496295 5.19937 0
M  V30 4980 H 492.229 0.560046 2.94115 0
M  V30 4981 H 489.775 0.270775 1.41431 0
M  V30 4982 H 491.728 -1.69841 3.85658 0
M  V30 4983 H 490.452 -1.92899 2.63548 0
M  V30 4984 H 489.111 -0.0617157 3.66548 0
M  V30 4985 H 488.759 -2.42402 4.40738 0
M  V30 4986 H 488.459 -1.27564 5.73586 0
M  V30 4987 H 489.983 -2.20709 5.69315 0
M  V30 4988 H 491.397 0.0640052 5.73264 0
M  V30 4989 H 489.794 0.82649 5.94381 0
M  V30 4990 H 490.864 1.38735 4.6463 0
M  V30 4991 N 492.207 -1.54576 0.307264 0
M  V30 4992 C 493.17 -2.22423 -0.553224 0
M  V30 4993 C 494.17 -1.21231 -1.05639 0
M  V30 4994 O 495.36 -1.45923 -0.951419 0
M  V30 4995 C 492.492 -2.91552 -1.76664 0
M  V30 4996 H 493.685 -2.99874 0.0396484 0
M  V30 4997 H 491.238 -1.56192 0.0581629 0
M  V30 4998 H 491.973 -2.18196 -2.39918 0
M  V30 4999 H 491.758 -3.65738 -1.41343 0
M  V30 5000 H 493.248 -3.43292 -2.37783 0
M  V30 5001 N 493.685 -0.035106 -1.57561 0
M  V30 5002 C 494.91 0.655802 -1.96759 0
M  V30 5003 C 495.335 1.64523 -0.911809 0
M  V30 5004 O 494.693 1.80857 0.126673 0
M  V30 5005 C 494.741 1.33326 -3.35047 0
M  V30 5006 O 493.845 2.44866 -3.31835 0
M  V30 5007 H 493.186 0.171807 -0.641388 0
M  V30 5008 H 495.716 -0.0987369 -2.04362 0
M  V30 5009 H 495.726 1.68867 -3.71413 0
M  V30 5010 H 494.401 0.608033 -4.11431 0
M  V30 5011 H 492.978 2.11392 -3.07193 0
M  V30 5012 N 495.163 1.55791 0.238111 0
M  V30 5013 C 496.411 1.77681 0.963001 0
M  V30 5014 C 496.732 0.600674 1.85518 0
M  V30 5015 O 496.002 -0.383182 1.92116 0
M  V30 5016 H 494.582 0.655315 0.358568 0
M  V30 5017 H 497.244 1.93239 0.253945 0
M  V30 5018 H 496.34 2.69177 1.57956 0
M  V30 5019 N 496.642 -0.504142 1.49319 0
M  V30 5020 C 497.919 -1.26548 1.49147 0
M  V30 5021 C 498.299 -2.09977 0.21744 0
M  V30 5022 O 497.647 -2.14028 -0.800269 0
M  V30 5023 C 497.857 -2.12489 2.76857 0
M  V30 5024 C 499.205 -2.7178 3.26222 0
M  V30 5025 O 500.229 -2.22758 2.77952 0
M  V30 5026 O 499.088 -3.61015 4.10281 0
M  V30 5027 H 496.182 -0.572495 0.596806 0
M  V30 5028 H 498.728 -0.51867 1.61579 0
M  V30 5029 H 497.5 -1.50796 3.61077 0
M  V30 5030 H 497.123 -2.94368 2.6727 0
M  V30 5031 N 498.12 -1.38341 -0.754957 0
M  V30 5032 C 499.03 -1.3769 -1.89944 0
M  V30 5033 C 500.046 -0.274194 -1.71826 0
M  V30 5034 O 501.222 -0.512391 -1.94773 0
M  V30 5035 C 498.287 -1.19938 -3.25293 0
M  V30 5036 C 497.348 -2.40001 -3.55946 0
M  V30 5037 C 496.581 -2.23087 -4.84838 0
M  V30 5038 O 496.804 -1.22386 -5.57116 0
M  V30 5039 O 495.738 -3.11646 -5.14937 0
M  V30 5040 H 499.564 -2.3412 -1.93446 0
M  V30 5041 H 497.149 -1.19246 -0.900044 0
M  V30 5042 H 499.031 -1.12093 -4.06218 0
M  V30 5043 H 497.706 -0.265919 -3.22606 0
M  V30 5044 H 496.613 -2.53421 -2.75188 0
M  V30 5045 H 497.946 -3.31973 -3.63394 0
M  V30 5046 N 499.598 0.982988 -1.23187 0
M  V30 5047 C 500.508 2.10907 -1.02739 0
M  V30 5048 C 501.524 1.73979 0.0273188 0
M  V30 5049 O 502.7 2.00702 -0.16757 0
M  V30 5050 C 499.765 3.41142 -0.618304 0
M  V30 5051 C 498.826 3.92112 -1.74777 0
M  V30 5052 C 498.059 5.16131 -1.3581 0
M  V30 5053 O 498.282 5.6989 -0.241201 0
M  V30 5054 O 497.216 5.61103 -2.17824 0
M  V30 5055 H 501.042 2.31046 -1.97108 0
M  V30 5056 H 498.627 1.09284 -1.01869 0
M  V30 5057 H 500.509 4.19488 -0.400982 0
M  V30 5058 H 499.184 3.2234 0.296421 0
M  V30 5059 H 498.091 3.14895 -2.0197 0
M  V30 5060 H 499.424 4.15364 -2.64071 0
M  V30 5061 N 501.076 1.04316 1.18135 0
M  V30 5062 C 502.325 0.74319 1.87509 0
M  V30 5063 C 502.638 -0.732136 1.81381 0
M  V30 5064 O 503.844 -1.14572 2.46141 0
M  V30 5065 C 502.3 1.27913 3.36402 0
M  V30 5066 C 501.908 2.78326 3.51053 0
M  V30 5067 C 503.652 1.0558 4.11161 0
M  V30 5068 C 501.559 3.25266 4.93919 0
M  V30 5069 H 500.489 0.274313 0.702331 0
M  V30 5070 H 503.14 1.25931 1.33467 0
M  V30 5071 H 501.522 0.690853 3.89927 0
M  V30 5072 H 502.696 3.42933 3.07788 0
M  V30 5073 H 501.011 2.991 2.89704 0
M  V30 5074 H 503.608 1.38161 5.16542 0
M  V30 5075 H 503.951 -0.00684729 4.16299 0
M  V30 5076 H 504.484 1.60882 3.63816 0
M  V30 5077 H 501.223 4.30922 4.9395 0
M  V30 5078 H 500.743 2.65396 5.3789 0
M  V30 5079 H 502.422 3.19433 5.62647 0
M  V30 5080 N 502.554 -1.34406 0.822964 0
M  V30 5081 C 503.8 -1.98578 0.411666 0
M  V30 5082 C 504.133 -1.65093 -1.02264 0
M  V30 5083 O 503.408 -0.92258 -1.71227 0
M  V30 5084 C 503.691 -3.54823 0.614235 0
M  V30 5085 C 503.544 -3.9805 2.09466 0
M  V30 5086 C 504.863 -4.40071 0.050221 0
M  V30 5087 H 501.982 -0.721355 0.151047 0
M  V30 5088 H 504.624 -1.59301 1.03554 0
M  V30 5089 H 502.774 -3.88411 0.0831774 0
M  V30 5090 H 504.446 -3.74795 2.68936 0
M  V30 5091 H 502.689 -3.4836 2.5851 0
M  V30 5092 H 503.36 -5.06819 2.18721 0
M  V30 5093 H 505.836 -4.13037 0.503953 0
M  V30 5094 H 504.712 -5.48452 0.221759 0
M  V30 5095 H 504.973 -4.29576 -1.04482 0
M  V30 5096 N 504.032 -0.577932 -1.46621 0
M  V30 5097 C 505.448 -0.239242 -1.57797 0
M  V30 5098 C 505.648 1.25843 -1.57371 0
M  V30 5099 O 504.704 2.03988 -1.48813 0
M  V30 5100 C 506.017 -0.884227 -2.87405 0
M  V30 5101 C 507.565 -0.857373 -3.01028 0
M  V30 5102 C 508.04 -1.48181 -4.33366 0
M  V30 5103 N 509.531 -1.44593 -4.40053 0
M  V30 5104 C 510.266 -1.89852 -5.41058 0
M  V30 5105 N 509.762 -2.43062 -6.48762 0
M  V30 5106 N 511.555 -1.80797 -5.3223 0
M  V30 5107 H 503.706 -1.55073 -1.45142 0
M  V30 5108 H 505.969 -0.647903 -0.692044 0
M  V30 5109 H 505.675 -1.93759 -2.93514 0
M  V30 5110 H 505.549 -0.389585 -3.75183 0
M  V30 5111 H 507.936 0.187357 -2.94505 0
M  V30 5112 H 508.017 -1.38999 -2.14739 0
M  V30 5113 H 507.661 -2.52572 -4.40647 0
M  V30 5114 H 507.591 -0.924464 -5.18422 0
M  V30 5115 H 510.082 -1.05694 -3.62819 0
M  V30 5116 H 510.395 -2.75466 -7.22038 0
M  V30 5117 H 508.74 -2.47085 -6.49595 0
M  V30 5118 H 511.931 -1.38989 -4.46989 0
M  V30 5119 H 512.104 -2.16385 -6.10804 0
M  V30 5120 N 505.51 1.54411 -0.315457 0
M  V30 5121 C 506.758 2.00023 0.288971 0
M  V30 5122 C 507.079 1.20529 1.5329 0
M  V30 5123 O 506.349 0.304986 1.93511 0
M  V30 5124 H 504.929 0.738891 0.109766 0
M  V30 5125 H 507.591 1.90094 -0.430129 0
M  V30 5126 H 506.687 3.07198 0.550999 0
M  V30 5127 N 506.988 0.0434614 1.5754 0
M  V30 5128 C 507.898 -0.94893 2.14552 0
M  V30 5129 C 508.914 -1.34707 1.10136 0
M  V30 5130 O 510.09 -1.42557 1.42266 0
M  V30 5131 C 507.155 -2.208 2.67298 0
M  V30 5132 C 506.216 -1.86893 3.86484 0
M  V30 5133 C 505.449 -3.06797 4.36705 0
M  V30 5134 O 505.672 -4.19921 3.86034 0
M  V30 5135 O 504.606 -2.8826 5.28384 0
M  V30 5136 H 508.432 -0.494099 2.99654 0
M  V30 5137 H 506.017 -0.177989 1.48336 0
M  V30 5138 H 507.899 -2.94686 3.01228 0
M  V30 5139 H 506.574 -2.65436 1.85272 0
M  V30 5140 H 505.481 -1.10347 3.57455 0
M  V30 5141 H 506.814 -1.47062 4.69716 0
M  V30 5142 N 508.466 -1.55915 -0.229846 0
M  V30 5143 C 509.712 -1.78807 -0.956868 0
M  V30 5144 C 510.045 -0.611687 -1.84315 0
M  V30 5145 O 509.32 0.389398 -1.90562 0
M  V30 5146 C 509.603 -3.11718 -1.80288 0
M  V30 5147 C 509.456 -4.3979 -0.943649 0
M  V30 5148 C 510.775 -3.40999 -2.78222 0
M  V30 5149 H 507.894 -0.6505 -0.346437 0
M  V30 5150 H 510.536 -1.88648 -0.226252 0
M  V30 5151 H 508.686 -3.03459 -2.42579 0
M  V30 5152 H 510.358 -4.60059 -0.338121 0
M  V30 5153 H 508.601 -4.33086 -0.248705 0
M  V30 5154 H 509.272 -5.29208 -1.5698 0
M  V30 5155 H 511.748 -3.49332 -2.26067 0
M  V30 5156 H 510.624 -4.35183 -3.34526 0
M  V30 5157 H 510.885 -2.62754 -3.55546 0
M  V30 5158 N 509.944 0.496216 -1.49584 0
M  V30 5159 C 511.169 1.27865 -1.63295 0
M  V30 5160 C 511.594 1.85592 -0.306156 0
M  V30 5161 O 510.952 1.66092 0.726851 0
M  V30 5162 C 511 2.38128 -2.7079 0
M  V30 5163 O 510.104 3.42108 -2.30296 0
M  V30 5164 H 509.445 0.377279 -0.546403 0
M  V30 5165 H 511.975 0.593497 -1.95803 0
M  V30 5166 H 511.985 2.8382 -2.93104 0
M  V30 5167 H 510.66 1.95479 -3.67098 0
M  V30 5168 H 509.237 3.02301 -2.18331 0
M  V30 5169 N 511.423 1.38739 0.74761 0
M  V30 5170 C 512.353 1.39173 1.87492 0
M  V30 5171 C 513.334 0.256794 1.6815 0
M  V30 5172 O 514.519 0.460762 1.88655 0
M  V30 5173 C 511.649 1.22197 3.25093 0
M  V30 5174 C 510.603 2.32957 3.59047 0
M  V30 5175 C 509.929 2.01082 4.95449 0
M  V30 5176 C 511.229 3.75237 3.6331 0
M  V30 5177 H 512.923 2.3351 1.87386 0
M  V30 5178 H 510.469 1.12399 0.900134 0
M  V30 5179 H 512.422 1.21124 4.03617 0
M  V30 5180 H 511.146 0.243241 3.25693 0
M  V30 5181 H 509.805 2.33226 2.82845 0
M  V30 5182 H 509.453 1.01678 4.92616 0
M  V30 5183 H 509.153 2.75267 5.19136 0
M  V30 5184 H 510.677 2.01638 5.76346 0
M  V30 5185 H 512.091 3.76966 4.31937 0
M  V30 5186 H 510.488 4.48677 3.98509 0
M  V30 5187 H 511.558 4.07122 2.634 0
M  V30 5188 N 512.901 -0.976442 1.23707 0
M  V30 5189 C 514.178 -1.69296 0.979699 0
M  V30 5190 C 514.558 -2.0508 -0.500555 0
M  V30 5191 O 513.906 -1.74708 -1.47273 0
M  V30 5192 C 514.116 -2.93143 1.89389 0
M  V30 5193 C 515.464 -3.65572 2.15968 0
M  V30 5194 O 516.488 -3.03184 1.86971 0
M  V30 5195 O 515.347 -4.77859 2.65167 0
M  V30 5196 H 512.441 -0.739708 0.369812 0
M  V30 5197 H 514.987 -1.03131 1.34767 0
M  V30 5198 H 513.759 -2.63327 2.89439 0
M  V30 5199 H 513.382 -3.67044 1.52854 0
M  V30 5200 N 514.379 -1.04941 -1.1758 0
M  V30 5201 C 515.342 -0.652456 -2.19717 0
M  V30 5202 C 516.342 0.294745 -1.58076 0
M  V30 5203 O 517.532 0.0789579 -1.74021 0
M  V30 5204 C 514.664 0.0420712 -3.40874 0
M  V30 5205 H 515.857 -1.55642 -2.5635 0
M  V30 5206 H 513.41 -0.842995 -1.31618 0
M  V30 5207 H 514.145 0.95943 -3.09783 0
M  V30 5208 H 513.93 -0.638844 -3.86861 0
M  V30 5209 H 515.42 0.306 -4.16477 0
M  V30 5210 N 515.857 1.33968 -0.830081 0
M  V30 5211 C 517.268 1.80439 -0.479455 0
M  V30 5212 C 517.619 1.68756 1.00079 0
M  V30 5213 O 516.744 1.23171 1.77927 0
M  V30 5214 C 517.339 3.27611 -0.863505 0
M  V30 5215 C 515.898 3.72133 -0.565145 0
M  V30 5216 C 515.045 2.55549 -1.07657 0
M  V30 5217 H 517.996 1.21614 -1.0196 0
M  V30 5218 H 518.017 3.8012 -0.170083 0
M  V30 5219 H 517.529 3.36082 -1.94089 0
M  V30 5220 H 515.63 3.69196 0.502536 0
M  V30 5221 H 515.743 4.65963 -1.11422 0
M  V30 5222 H 514.107 2.49788 -0.497807 0
M  V30 5223 H 514.89 2.66786 -2.16055 0
M  V30 5224 N 517.335 0.585699 1.46312 0
M  V30 5225 C 518.282 -0.145835 2.30339 0
M  V30 5226 C 519.252 -0.881215 1.40797 0
M  V30 5227 O 520.437 -0.871293 1.69744 0
M  V30 5228 C 517.577 -1.15161 3.25318 0
M  V30 5229 C 516.69 -0.419367 4.2996 0
M  V30 5230 C 515.825 -1.41293 5.12064 0
M  V30 5231 C 514.864 -0.667261 6.08452 0
M  V30 5232 N 514.001 -1.60903 6.83414 0
M  V30 5233 H 518.841 0.576755 2.92365 0
M  V30 5234 H 516.378 0.296237 1.44086 0
M  V30 5235 H 518.336 -1.74763 3.78832 0
M  V30 5236 H 516.966 -1.84188 2.65094 0
M  V30 5237 H 516.018 0.291751 3.7928 0
M  V30 5238 H 517.33 0.163433 4.98532 0
M  V30 5239 H 516.484 -2.08167 5.6987 0
M  V30 5240 H 515.223 -2.02966 4.43459 0
M  V30 5241 H 514.228 0.0152356 5.49798 0
M  V30 5242 H 515.453 -0.0558817 6.79077 0
M  V30 5243 H 513.399 -2.21381 6.17516 0
M  V30 5244 H 513.316 -1.07911 7.48259 0
M  V30 5245 H 514.584 -2.26802 7.45775 0
M  V30 5246 N 518.813 -1.54241 0.323641 0
M  V30 5247 C 520.06 -2.0057 -0.27891 0
M  V30 5248 C 520.388 -1.21181 -1.52136 0
M  V30 5249 O 519.643 -0.282043 -1.93657 0
M  V30 5250 C 519.942 -3.5129 -0.658031 0
M  V30 5251 C 519.608 -4.48281 0.485252 0
M  V30 5252 C 518.27 -4.74519 0.799055 0
M  V30 5253 C 520.622 -5.05909 1.25322 0
M  V30 5254 C 517.95 -5.55643 1.88354 0
M  V30 5255 C 520.302 -5.88215 2.32779 0
M  V30 5256 C 518.966 -6.12755 2.64741 0
M  V30 5257 H 518.236 -0.733938 -0.10206 0
M  V30 5258 H 520.883 -1.862 0.447435 0
M  V30 5259 H 519.188 -3.63388 -1.4648 0
M  V30 5260 H 520.885 -3.84578 -1.1358 0
M  V30 5261 H 517.475 -4.27979 0.230593 0
M  V30 5262 H 521.659 -4.8562 1.02404 0
M  V30 5263 H 516.915 -5.72888 2.13564 0
M  V30 5264 H 521.089 -6.31888 2.92729 0
M  V30 5265 H 518.716 -6.75404 3.48904 0
M  V30 5266 N 520.291 -0.0518155 -1.57515 0
M  V30 5267 C 521.519 0.631395 -1.9703 0
M  V30 5268 C 521.934 1.64341 -0.92938 0
M  V30 5269 O 521.291 1.82296 0.0863266 0
M  V30 5270 C 521.342 1.31774 -3.36627 0
M  V30 5271 O 521.063 0.346247 -4.3673 0
M  V30 5272 C 522.564 2.09065 -3.90905 0
M  V30 5273 H 519.784 0.172576 -0.648428 0
M  V30 5274 H 522.328 -0.118306 -2.04158 0
M  V30 5275 H 520.483 2.01867 -3.30649 0
M  V30 5276 H 520.897 0.836226 -5.17791 0
M  V30 5277 H 522.371 2.52508 -4.9086 0
M  V30 5278 H 522.848 2.93908 -3.26366 0
M  V30 5279 H 523.454 1.43882 -4.00223 0
M  V30 5280 N 521.769 1.56035 0.221574 0
M  V30 5281 C 522.699 1.95434 1.2778 0
M  V30 5282 C 523.68 0.822564 1.48889 0
M  V30 5283 O 524.865 1.08486 1.61072 0
M  V30 5284 C 521.995 2.27102 2.62759 0
M  V30 5285 C 520.949 3.4277 2.56306 0
M  V30 5286 C 520.275 3.60043 3.95314 0
M  V30 5287 C 521.575 4.77742 2.11093 0
M  V30 5288 H 523.269 2.83912 0.950504 0
M  V30 5289 H 520.815 1.36596 0.455791 0
M  V30 5290 H 522.768 2.53256 3.36807 0
M  V30 5291 H 521.492 1.35478 2.97176 0
M  V30 5292 H 520.151 3.16664 1.84715 0
M  V30 5293 H 519.799 2.65794 4.27039 0
M  V30 5294 H 519.499 4.37841 3.91879 0
M  V30 5295 H 521.023 3.88545 4.71025 0
M  V30 5296 H 522.437 5.03102 2.74885 0
M  V30 5297 H 520.834 5.58823 2.18716 0
M  V30 5298 H 521.904 4.731 1.06321 0
M  V30 5299 N 523.247 -0.488276 1.49845 0
M  V30 5300 C 524.496 -1.23826 1.59217 0
M  V30 5301 C 524.809 -1.93439 0.289966 0
M  V30 5302 O 526.015 -2.70229 0.262382 0
M  V30 5303 C 524.471 -2.24902 2.80976 0
M  V30 5304 C 524.079 -1.6117 4.18005 0
M  V30 5305 C 525.823 -3.00648 2.99685 0
M  V30 5306 C 523.73 -2.60431 5.3097 0
M  V30 5307 H 522.66 -0.465858 0.592868 0
M  V30 5308 H 525.311 -0.510645 1.76252 0
M  V30 5309 H 523.693 -3.0088 2.57463 0
M  V30 5310 H 524.867 -0.910968 4.51706 0
M  V30 5311 H 523.182 -0.97767 4.0476 0
M  V30 5312 H 525.779 -3.74903 3.81251 0
M  V30 5313 H 526.122 -3.5902 2.10738 0
M  V30 5314 H 526.655 -2.31784 3.23297 0
M  V30 5315 H 523.394 -2.06823 6.22017 0
M  V30 5316 H 522.914 -3.28707 5.01709 0
M  V30 5317 H 524.593 -3.22606 5.60834 0
M  V30 5318 N 524.725 -1.39134 -0.740242 0
M  V30 5319 C 525.635 -1.39697 -1.88473 0
M  V30 5320 C 526.651 -0.292403 -1.71526 0
M  V30 5321 O 527.827 -0.533021 -1.94219 0
M  V30 5322 C 524.892 -1.23382 -3.24003 0
M  V30 5323 C 523.953 -2.43763 -3.53381 0
M  V30 5324 C 523.186 -2.28216 -4.82445 0
M  V30 5325 O 523.409 -1.28288 -5.55786 0
M  V30 5326 O 522.343 -3.1709 -5.11603 0
M  V30 5327 H 526.169 -2.36159 -1.90952 0
M  V30 5328 H 523.754 -1.20194 -0.887346 0
M  V30 5329 H 525.636 -1.16395 -4.05006 0
M  V30 5330 H 524.311 -0.300121 -3.22306 0
M  V30 5331 H 523.218 -2.56325 -2.72485 0
M  V30 5332 H 524.551 -3.35808 -3.59852 0
M  V30 5333 N 526.204 0.969867 -1.24223 0
M  V30 5334 C 527.134 2.08191 -1.05729 0
M  V30 5335 C 528.115 1.70075 0.0290765 0
M  V30 5336 O 529.3 1.93712 -0.137583 0
M  V30 5337 C 526.43 3.40991 -0.658995 0
M  V30 5338 C 525.384 3.93054 -1.69389 0
M  V30 5339 C 524.71 5.22171 -1.15072 0
M  V30 5340 C 526.01 4.21137 -3.08935 0
M  V30 5341 H 527.704 2.23921 -1.98746 0
M  V30 5342 H 525.25 1.07602 -0.956967 0
M  V30 5343 H 527.203 4.18221 -0.51662 0
M  V30 5344 H 525.927 3.25155 0.30686 0
M  V30 5345 H 524.586 3.17977 -1.82444 0
M  V30 5346 H 524.234 5.02694 -0.175539 0
M  V30 5347 H 523.934 5.57973 -1.84229 0
M  V30 5348 H 525.458 6.02013 -1.02042 0
M  V30 5349 H 526.872 4.8908 -2.99121 0
M  V30 5350 H 525.269 4.68163 -3.75425 0
M  V30 5351 H 526.339 3.27996 -3.57137 0
M  V30 5352 N 527.682 1.05563 1.17022 0
M  V30 5353 C 528.614 0.617888 2.20714 0
M  V30 5354 C 529.627 -0.320303 1.59618 0
M  V30 5355 O 530.816 -0.112449 1.78145 0
M  V30 5356 C 527.916 -0.115333 3.38704 0
M  V30 5357 C 527.089 0.834493 4.29366 0
M  V30 5358 C 526.148 0.141855 5.26009 0
M  V30 5359 O 525.174 0.777151 5.6387 0
M  V30 5360 N 526.376 -1.11934 5.69606 0
M  V30 5361 H 529.141 1.50981 2.58892 0
M  V30 5362 H 526.702 0.938008 1.31958 0
M  V30 5363 H 528.694 -0.588918 4.00392 0
M  V30 5364 H 527.264 -0.908967 2.99093 0
M  V30 5365 H 526.484 1.48762 3.65053 0
M  V30 5366 H 527.772 1.4791 4.86827 0
M  V30 5367 H 527.17 -1.65574 5.40927 0
M  V30 5368 H 525.727 -1.53692 6.33421 0
M  V30 5369 N 529.16 -1.33526 0.837174 0
M  V30 5370 C 530.107 -2.29248 0.267169 0
M  V30 5371 C 531.077 -1.54252 -0.616071 0
M  V30 5372 O 532.262 -1.82559 -0.554699 0
M  V30 5373 C 529.402 -3.40638 -0.553152 0
M  V30 5374 C 528.515 -4.30548 0.353921 0
M  V30 5375 C 527.65 -5.29051 -0.477339 0
M  V30 5376 C 526.689 -6.106 0.42823 0
M  V30 5377 N 525.826 -7.01152 -0.364801 0
M  V30 5378 H 530.666 -2.77398 1.08877 0
M  V30 5379 H 528.203 -1.36496 0.54838 0
M  V30 5380 H 530.161 -4.03921 -1.04422 0
M  V30 5381 H 528.791 -2.93685 -1.33973 0
M  V30 5382 H 527.843 -3.68001 0.963289 0
M  V30 5383 H 529.155 -4.87631 1.04964 0
M  V30 5384 H 528.309 -5.97853 -1.0323 0
M  V30 5385 H 527.048 -4.72541 -1.2065 0
M  V30 5386 H 526.053 -5.40718 0.995219 0
M  V30 5387 H 527.278 -6.69193 1.15573 0
M  V30 5388 H 525.224 -6.47092 -1.07738 0
M  V30 5389 H 525.141 -7.5551 0.272238 0
M  V30 5390 H 526.409 -7.74263 -0.902054 0
M  V30 5391 N 530.638 -0.59345 -1.46 0
M  V30 5392 C 531.886 -0.082988 -2.0193 0
M  V30 5393 C 532.207 1.28569 -1.46612 0
M  V30 5394 O 531.477 1.84629 -0.654909 0
M  V30 5395 H 530.057 -0.0276882 -0.746487 0
M  V30 5396 H 532.719 -0.771657 -1.78973 0
M  V30 5397 H 531.815 -0.022079 -3.12092 0
M  V30 5398 N 532.116 1.54067 -0.331816 0
M  V30 5399 C 533.532 1.59587 0.0205388 0
M  V30 5400 C 533.732 1.34813 1.49759 0
M  V30 5401 O 532.788 1.13661 2.25471 0
M  V30 5402 C 534.101 2.97959 -0.405103 0
M  V30 5403 C 535.649 3.10964 -0.356454 0
M  V30 5404 C 536.124 4.51694 -0.757384 0
M  V30 5405 N 537.615 4.57709 -0.71111 0
M  V30 5406 C 538.35 5.64729 -0.993427 0
M  V30 5407 N 537.846 6.79652 -1.3433 0
M  V30 5408 N 539.639 5.54546 -0.918442 0
M  V30 5409 H 531.79 1.68426 -1.29407 0
M  V30 5410 H 534.053 0.78819 -0.526745 0
M  V30 5411 H 533.759 3.21115 -1.43451 0
M  V30 5412 H 533.633 3.76524 0.225692 0
M  V30 5413 H 536.02 2.87538 0.663763 0
M  V30 5414 H 536.101 2.34484 -1.02229 0
M  V30 5415 H 535.745 4.75853 -1.77555 0
M  V30 5416 H 535.675 5.26555 -0.0691444 0
M  V30 5417 H 538.166 3.75176 -0.452883 0
M  V30 5418 H 538.479 7.57221 -1.54388 0
M  V30 5419 H 536.824 6.81128 -1.38164 0
M  V30 5420 H 540.015 4.63641 -0.644536 0
M  V30 5421 H 540.188 6.37861 -1.14181 0
M  V30 5422 N 533.594 0.0601682 1.57485 0
M  V30 5423 C 534.843 -0.611101 1.9222 0
M  V30 5424 C 535.156 -1.71469 0.941159 0
M  V30 5425 O 536.362 -2.44473 1.18089 0
M  V30 5426 C 534.818 -1.13832 3.41424 0
M  V30 5427 C 534.426 -0.0663596 4.47951 0
M  V30 5428 C 536.17 -1.78432 3.85178 0
M  V30 5429 C 534.077 -0.606965 5.88277 0
M  V30 5430 H 533.007 -0.232033 0.71741 0
M  V30 5431 H 535.658 0.130518 1.83035 0
M  V30 5432 H 534.04 -1.93254 3.45643 0
M  V30 5433 H 535.214 0.707682 4.55333 0
M  V30 5434 H 533.529 0.482715 4.13593 0
M  V30 5435 H 536.126 -2.1989 4.87394 0
M  V30 5436 H 536.469 -2.63966 3.21913 0
M  V30 5437 H 537.002 -1.05651 3.83514 0
M  V30 5438 H 533.741 0.21095 6.5516 0
M  V30 5439 H 533.261 -1.34879 5.84438 0
M  V30 5440 H 534.94 -1.08704 6.37803 0
M  V30 5441 N 535.072 -1.5615 -0.213296 0
M  V30 5442 C 536.318 -1.79812 -0.937849 0
M  V30 5443 C 536.651 -0.631201 -1.83656 0
M  V30 5444 O 535.926 0.369165 -1.90964 0
M  V30 5445 C 536.209 -3.13613 -1.76972 0
M  V30 5446 C 536.062 -4.40766 -0.89695 0
M  V30 5447 C 537.381 -3.43931 -2.7459 0
M  V30 5448 H 534.5 -0.654138 -0.339518 0
M  V30 5449 H 537.142 -1.88877 -0.20623 0
M  V30 5450 H 535.292 -3.06015 -2.39347 0
M  V30 5451 H 536.964 -4.60392 -0.289306 0
M  V30 5452 H 535.207 -4.33326 -0.202756 0
M  V30 5453 H 535.878 -5.30843 -1.51358 0
M  V30 5454 H 538.354 -3.5171 -2.22349 0
M  V30 5455 H 537.23 -4.38706 -3.29891 0
M  V30 5456 H 537.491 -2.6651 -3.52739 0
M  V30 5457 N 536.55 0.480323 -1.50102 0
M  V30 5458 C 537.798 1.23063 -1.60312 0
M  V30 5459 C 538.119 1.92659 -0.301226 0
M  V30 5460 O 537.389 1.83691 0.680753 0
M  V30 5461 H 535.969 0.457231 -0.590719 0
M  V30 5462 H 538.631 0.554893 -1.86834 0
M  V30 5463 H 537.727 1.9835 -2.40964 0
M  V30 5464 N 538.028 1.39524 0.732853 0
M  V30 5465 C 538.991 1.38189 1.82857 0
M  V30 5466 C 539.991 0.278624 1.58368 0
M  V30 5467 O 541.181 0.536639 1.65728 0
M  V30 5468 C 538.313 1.15661 3.2068 0
M  V30 5469 H 539.506 2.35692 1.85444 0
M  V30 5470 H 537.059 1.2512 0.936728 0
M  V30 5471 H 537.794 0.188482 3.23752 0
M  V30 5472 H 537.579 1.95559 3.39852 0
M  V30 5473 H 539.069 1.17472 4.00737 0
M  V30 5474 N 539.506 -0.963266 1.24736 0
M  V30 5475 C 540.734 -1.74166 1.11686 0
M  V30 5476 C 541.149 -1.8589 -0.330187 0
M  V30 5477 O 540.506 -1.35042 -1.2276 0
M  V30 5478 C 540.557 -3.15989 1.75595 0
M  V30 5479 O 540.278 -3.04847 3.14642 0
M  V30 5480 C 541.779 -4.10145 1.68213 0
M  V30 5481 H 538.999 -0.546031 0.389989 0
M  V30 5482 H 541.543 -1.20907 1.64929 0
M  V30 5483 H 539.698 -3.66219 1.26343 0
M  V30 5484 H 540.112 -3.9425 3.4593 0
M  V30 5485 H 541.586 -5.07299 2.17604 0
M  V30 5486 H 542.063 -4.3445 0.644208 0
M  V30 5487 H 542.669 -3.65827 2.16912 0
M  V30 5488 N 540.985 -1.06182 -1.16461 0
M  V30 5489 C 542.225 -0.787048 -1.8864 0
M  V30 5490 C 542.589 0.674093 -1.79778 0
M  V30 5491 O 543.79 1.06341 -2.46871 0
M  V30 5492 C 542.061 -1.2666 -3.34203 0
M  V30 5493 S 543.62 -1.12071 -4.24247 0
M  V30 5494 H 540.438 -0.285539 -0.651144 0
M  V30 5495 H 543.04 -1.35851 -1.40587 0
M  V30 5496 H 541.744 -2.32496 -3.38192 0
M  V30 5497 H 541.275 -0.689841 -3.87304 0
M  V30 5498 H 543.29 -0.0509341 -4.96174 0
M  V30 5499 N 542.463 1.3308 -0.844243 0
M  V30 5500 C 543.709 1.97898 -0.443206 0
M  V30 5501 C 544.042 1.66699 0.99625 0
M  V30 5502 O 543.317 0.949704 1.69738 0
M  V30 5503 C 543.6 3.53801 -0.670606 0
M  V30 5504 C 543.453 3.94667 -2.15772 0
M  V30 5505 C 544.772 4.39936 -0.120226 0
M  V30 5506 H 541.891 0.718861 -0.162504 0
M  V30 5507 H 544.533 1.57633 -1.06075 0
M  V30 5508 H 542.683 3.88229 -0.14496 0
M  V30 5509 H 544.355 3.70469 -2.74865 0
M  V30 5510 H 542.598 3.44203 -2.6402 0
M  V30 5511 H 543.269 5.03275 -2.26757 0
M  V30 5512 H 545.745 4.12183 -0.5696 0
M  V30 5513 H 544.621 5.4803 -0.308984 0
M  V30 5514 H 544.882 4.31184 0.976347 0
M  V30 5515 N 543.941 0.601185 1.45683 0
M  V30 5516 C 544.889 -0.133955 2.32214 0
M  V30 5517 C 545.883 -0.866034 1.45589 0
M  V30 5518 O 547.089 -0.782326 1.6211 0
M  V30 5519 H 543.464 -0.0620613 0.749435 0
M  V30 5520 H 545.435 0.614389 2.92007 0
M  V30 5521 C 544.184 -1.12216 3.29094 0
M  V30 5522 H 543.507 -0.568273 3.95741 0
M  V30 5523 H 544.947 -1.60659 3.92383 0
M  V30 5524 C 543.406 -2.19251 2.55794 0
M  V30 5525 O 543.936 -3.26894 2.33459 0
M  V30 5526 N 542.142 -1.9436 2.16039 0
M  V30 5527 H 541.689 -1.06829 2.34404 0
M  V30 5528 H 541.647 -2.66181 1.67318 0
M  V30 5529 N 545.419 -1.53889 0.339982 0
M  V30 5530 C 546.367 -2.26391 -0.533822 0
M  V30 5531 C 547.361 -1.28404 -1.10493 0
M  V30 5532 O 548.567 -1.46124 -1.05108 0
M  V30 5533 H 544.942 -0.727385 -0.190828 0
M  V30 5534 H 546.913 -2.98233 0.0997484 0
M  V30 5535 C 545.662 -3.04707 -1.67479 0
M  V30 5536 H 544.985 -3.79934 -1.2446 0
M  V30 5537 H 546.425 -3.58657 -2.26144 0
M  V30 5538 C 544.884 -2.13989 -2.60212 0
M  V30 5539 O 545.414 -1.73361 -3.62366 0
M  V30 5540 N 543.62 -1.79141 -2.28816 0
M  V30 5541 H 543.167 -2.12378 -1.45785 0
M  V30 5542 H 543.125 -1.18725 -2.91121 0
M  V30 5543 N 546.897 -0.0685191 -1.57451 0
M  V30 5544 C 547.86 0.885173 -2.11417 0
M  V30 5545 C 548.86 1.22853 -1.03748 0
M  V30 5546 O 550.05 1.16235 -1.2975 0
M  V30 5547 C 547.182 2.18964 -2.61281 0
M  V30 5548 H 548.375 0.417034 -2.96986 0
M  V30 5549 H 545.928 0.18014 -1.55258 0
M  V30 5550 H 546.663 2.70321 -1.79156 0
M  V30 5551 H 546.448 1.9534 -3.39977 0
M  V30 5552 H 547.938 2.87242 -3.0312 0
M  V30 5553 N 548.375 1.56261 0.205012 0
M  V30 5554 C 549.791 1.49623 0.555433 0
M  V30 5555 C 549.991 0.766719 1.86343 0
M  V30 5556 O 549.047 0.313158 2.50551 0
M  V30 5557 C 550.36 2.94253 0.619347 0
M  V30 5558 C 551.908 3.04868 0.708855 0
M  V30 5559 C 552.383 4.50888 0.803969 0
M  V30 5560 N 553.874 4.54999 0.867758 0
M  V30 5561 C 554.609 5.65284 0.96135 0
M  V30 5562 N 554.105 6.85282 1.01786 0
M  V30 5563 N 555.898 5.53174 0.997771 0
M  V30 5564 H 548.049 2.0211 -0.653094 0
M  V30 5565 H 550.312 0.919333 -0.231366 0
M  V30 5566 H 550.018 3.50643 -0.272458 0
M  V30 5567 H 549.892 3.47063 1.47741 0
M  V30 5568 H 552.279 2.48532 1.5911 0
M  V30 5569 H 552.36 2.55199 -0.175205 0
M  V30 5570 H 552.004 5.07846 -0.0738798 0
M  V30 5571 H 551.934 4.98279 1.70369 0
M  V30 5572 H 554.425 3.68588 0.833735 0
M  V30 5573 H 554.738 7.65081 1.08951 0
M  V30 5574 H 553.083 6.8796 0.986706 0
M  V30 5575 H 556.274 4.5835 0.950392 0
M  V30 5576 H 556.447 6.39151 1.06725 0
M  V30 5577 N 549.853 -0.472356 1.50355 0
M  V30 5578 C 551.13 -1.23356 1.51798 0
M  V30 5579 C 551.51 -2.09469 0.26193 0
M  V30 5580 O 550.858 -2.15677 -0.754691 0
M  V30 5581 C 551.068 -2.06568 2.81302 0
M  V30 5582 C 552.416 -2.648 3.31913 0
M  V30 5583 O 553.44 -2.16812 2.82614 0
M  V30 5584 O 552.299 -3.52231 4.17846 0
M  V30 5585 H 549.393 -0.559707 0.608816 0
M  V30 5586 H 551.939 -0.48428 1.62643 0
M  V30 5587 H 550.711 -1.43103 3.64194 0
M  V30 5588 H 550.334 -2.88633 2.73454 0
M  V30 5589 N 551.331 -1.39911 -0.725443 0
M  V30 5590 C 552.578 -1.37654 -1.48518 0
M  V30 5591 C 552.906 0.0243982 -1.94485 0
M  V30 5592 O 552.161 1.00708 -1.67799 0
M  V30 5593 C 552.46 -2.30368 -2.7325 0
M  V30 5594 C 552.126 -3.77817 -2.461 0
M  V30 5595 C 550.788 -4.17991 -2.38405 0
M  V30 5596 C 553.14 -4.71036 -2.23103 0
M  V30 5597 C 550.468 -5.49433 -2.05768 0
M  V30 5598 C 552.82 -6.02766 -1.9198 0
M  V30 5599 C 551.484 -6.41993 -1.82761 0
M  V30 5600 H 550.754 -0.503713 -0.543465 0
M  V30 5601 H 553.401 -1.7249 -0.831822 0
M  V30 5602 H 551.706 -1.88683 -3.43375 0
M  V30 5603 H 553.403 -2.2591 -3.31309 0
M  V30 5604 H 549.993 -3.45982 -2.52972 0
M  V30 5605 H 554.177 -4.40823 -2.2801 0
M  V30 5606 H 549.433 -5.78738 -1.9716 0
M  V30 5607 H 553.607 -6.74519 -1.73197 0
M  V30 5608 H 551.234 -7.43761 -1.57237 0
M  V30 5609 N 552.809 0.956637 -1.25245 0
M  V30 5610 C 553.772 2.03457 -1.05537 0
M  V30 5611 C 554.772 1.60798 -0.00886317 0
M  V30 5612 O 555.962 1.72384 -0.250865 0
M  V30 5613 C 553.094 3.35543 -0.601965 0
M  V30 5614 H 554.287 2.22372 -2.01223 0
M  V30 5615 H 551.84 1.13344 -1.07623 0
M  V30 5616 H 552.575 3.22323 0.357584 0
M  V30 5617 H 552.36 3.67854 -1.35743 0
M  V30 5618 H 553.85 4.14769 -0.485454 0
M  V30 5619 N 554.287 1.06798 1.15896 0
M  V30 5620 C 555.698 0.811355 1.68149 0
M  V30 5621 C 556.049 -0.664339 1.8461 0
M  V30 5622 O 555.174 -1.51485 1.54535 0
M  V30 5623 C 555.769 1.46624 3.05429 0
M  V30 5624 C 554.328 1.25726 3.54781 0
M  V30 5625 C 553.475 1.53949 2.3064 0
M  V30 5626 H 556.426 1.23078 1.00187 0
M  V30 5627 H 556.447 0.88437 3.7008 0
M  V30 5628 H 555.959 2.54025 2.93416 0
M  V30 5629 H 554.06 0.20322 3.72045 0
M  V30 5630 H 554.173 1.97354 4.36564 0
M  V30 5631 H 552.537 0.96025 2.35905 0
M  V30 5632 H 553.32 2.6252 2.2122 0
M  V30 5633 N 555.766 -1.3263 0.851289 0
M  V30 5634 C 556.696 -2.31449 0.308771 0
M  V30 5635 C 557.677 -1.59531 -0.590255 0
M  V30 5636 O 558.862 -1.87351 -0.511205 0
M  V30 5637 C 555.992 -3.43586 -0.506548 0
M  V30 5638 C 554.946 -4.26963 0.297753 0
M  V30 5639 C 554.272 -5.30831 -0.642094 0
M  V30 5640 C 555.572 -4.99643 1.52166 0
M  V30 5641 H 557.266 -2.77074 1.13447 0
M  V30 5642 H 554.812 -1.33207 0.546971 0
M  V30 5643 H 556.765 -4.11754 -0.896474 0
M  V30 5644 H 555.489 -2.96681 -1.36558 0
M  V30 5645 H 554.148 -3.60437 0.669391 0
M  V30 5646 H 553.796 -4.8018 -1.49788 0
M  V30 5647 H 553.496 -5.87501 -0.107968 0
M  V30 5648 H 555.02 -6.01862 -1.02927 0
M  V30 5649 H 556.434 -5.6051 1.20421 0
M  V30 5650 H 554.831 -5.66022 1.99347 0
M  V30 5651 H 555.901 -4.27701 2.28474 0
M  V30 5652 N 557.244 -0.608902 -1.45362 0
M  V30 5653 C 558.66 -0.272659 -1.57254 0
M  V30 5654 C 558.86 1.22477 -1.60005 0
M  V30 5655 O 557.916 2.00785 -1.53106 0
M  V30 5656 C 559.229 -0.944991 -2.85465 0
M  V30 5657 C 560.777 -0.921033 -2.99142 0
M  V30 5658 C 561.252 -1.5734 -4.30126 0
M  V30 5659 N 562.743 -1.53895 -4.36887 0
M  V30 5660 C 563.478 -2.01286 -5.36909 0
M  V30 5661 N 562.974 -2.56768 -6.43461 0
M  V30 5662 N 564.767 -1.92046 -5.28275 0
M  V30 5663 H 556.918 -1.58117 -1.4182 0
M  V30 5664 H 559.181 -0.662437 -0.678146 0
M  V30 5665 H 558.887 -1.99941 -2.89338 0
M  V30 5666 H 558.761 -0.469079 -3.74272 0
M  V30 5667 H 561.148 0.124846 -2.94836 0
M  V30 5668 H 561.229 -1.43522 -2.11743 0
M  V30 5669 H 560.873 -2.61862 -4.35191 0
M  V30 5670 H 560.803 -1.03422 -5.16344 0
M  V30 5671 H 563.294 -1.13366 -3.60495 0
M  V30 5672 H 563.607 -2.9072 -7.16032 0
M  V30 5673 H 561.952 -2.60808 -6.44208 0
M  V30 5674 H 565.143 -1.48439 -4.43941 0
M  V30 5675 H 565.316 -2.29293 -6.06077 0
M  V30 5676 N 558.722 1.53707 -0.348139 0
M  V30 5677 C 560.138 1.596 0.00361134 0
M  V30 5678 C 560.338 1.36394 1.4832 0
M  V30 5679 O 559.394 1.16046 2.24253 0
M  V30 5680 C 560.707 2.97512 -0.436682 0
M  V30 5681 C 562.255 3.10568 -0.389416 0
M  V30 5682 C 562.73 4.50866 -0.805249 0
M  V30 5683 N 564.221 4.56929 -0.759616 0
M  V30 5684 C 564.956 5.63643 -1.05327 0
M  V30 5685 N 564.452 6.78189 -1.41531 0
M  V30 5686 N 566.245 5.5354 -0.977207 0
M  V30 5687 H 558.396 1.67044 -1.31187 0
M  V30 5688 H 560.659 0.782559 -0.535075 0
M  V30 5689 H 560.365 3.19575 -1.46849 0
M  V30 5690 H 560.239 3.76742 0.185744 0
M  V30 5691 H 562.626 2.88226 0.633228 0
M  V30 5692 H 562.707 2.33387 -1.04711 0
M  V30 5693 H 562.351 4.73943 -1.82593 0
M  V30 5694 H 562.281 5.26452 -0.124989 0
M  V30 5695 H 564.772 3.74675 -0.49265 0
M  V30 5696 H 565.085 7.55541 -1.62411 0
M  V30 5697 H 563.43 6.79624 -1.45381 0
M  V30 5698 H 566.621 4.62932 -0.693675 0
M  V30 5699 H 566.794 6.36614 -1.2094 0
M  V30 5700 N 560.2 0.0768682 1.57412 0
M  V30 5701 C 561.13 -0.886026 2.16037 0
M  V30 5702 C 562.111 -1.30691 1.08876 0
M  V30 5703 O 563.296 -1.37705 1.36934 0
M  V30 5704 C 560.426 -2.1518 2.72608 0
M  V30 5705 C 559.38 -1.87015 3.8498 0
M  V30 5706 C 558.706 -3.20266 4.28175 0
M  V30 5707 C 560.006 -1.17143 5.08994 0
M  V30 5708 H 561.7 -0.397642 2.96748 0
M  V30 5709 H 559.246 -0.189823 1.42743 0
M  V30 5710 H 561.199 -2.82962 3.12266 0
M  V30 5711 H 559.923 -2.66269 1.89125 0
M  V30 5712 H 558.582 -1.21636 3.45833 0
M  V30 5713 H 558.23 -3.69207 3.41607 0
M  V30 5714 H 557.93 -3.0221 5.03927 0
M  V30 5715 H 559.454 -3.89237 4.70454 0
M  V30 5716 H 560.868 -1.75003 5.45937 0
M  V30 5717 H 559.265 -1.09328 5.90057 0
M  V30 5718 H 560.335 -0.151295 4.84664 0
M  V30 5719 N 561.678 -1.56367 -0.196722 0
M  V30 5720 C 562.608 -1.97442 -1.24655 0
M  V30 5721 C 563.589 -0.846147 -1.47561 0
M  V30 5722 O 564.774 -1.11035 -1.59326 0
M  V30 5723 C 561.904 -2.31253 -2.59112 0
M  V30 5724 C 560.858 -3.46804 -2.50821 0
M  V30 5725 C 560.184 -3.66286 -3.89536 0
M  V30 5726 C 561.484 -4.8104 -2.03465 0
M  V30 5727 H 563.178 -2.85388 -0.905216 0
M  V30 5728 H 560.724 -1.37304 -0.434002 0
M  V30 5729 H 562.677 -2.58583 -3.32736 0
M  V30 5730 H 561.401 -1.40188 -2.94983 0
M  V30 5731 H 560.06 -3.19563 -1.79653 0
M  V30 5732 H 559.708 -2.72555 -4.22756 0
M  V30 5733 H 559.408 -4.4402 -3.84864 0
M  V30 5734 H 560.932 -3.9599 -4.64784 0
M  V30 5735 H 562.346 -5.07411 -2.66846 0
M  V30 5736 H 560.743 -5.62232 -2.09798 0
M  V30 5737 H 561.813 -4.74732 -0.98781 0
M  V30 5738 N 563.156 0.464375 -1.50603 0
M  V30 5739 C 564.119 1.54393 -1.69397 0
M  V30 5740 C 565.119 1.50566 -0.564504 0
M  V30 5741 O 566.309 1.53066 -0.831645 0
M  V30 5742 C 563.441 2.9401 -1.72543 0
M  V30 5743 H 564.634 1.39044 -2.65719 0
M  V30 5744 H 562.187 0.69122 -1.40185 0
M  V30 5745 H 562.922 3.14795 -0.77938 0
M  V30 5746 H 562.707 2.98195 -2.54602 0
M  V30 5747 H 564.197 3.72375 -1.89015 0
M  V30 5748 N 564.634 1.40294 0.718013 0
M  V30 5749 C 565.88 1.38645 1.48005 0
M  V30 5750 C 566.213 -0.0121202 1.94196 0
M  V30 5751 O 565.488 -0.980309 1.67989 0
M  V30 5752 C 565.771 2.37379 2.70782 0
M  V30 5753 C 565.624 3.8625 2.30501 0
M  V30 5754 C 566.943 2.33685 3.72933 0
M  V30 5755 H 564.062 0.504928 0.536858 0
M  V30 5756 H 566.704 1.71411 0.819649 0
M  V30 5757 H 564.854 2.09568 3.27129 0
M  V30 5758 H 566.526 4.24879 1.79655 0
M  V30 5759 H 564.769 4.02202 1.6253 0
M  V30 5760 H 565.44 4.50847 3.18498 0
M  V30 5761 H 567.916 2.58314 3.2621 0
M  V30 5762 H 566.792 3.0482 4.56482 0
M  V30 5763 H 567.053 1.34765 4.21059 0
M  V30 5764 N 566.112 -0.949982 1.2575 0
M  V30 5765 C 567.36 -1.6918 1.10555 0
M  V30 5766 C 567.681 -1.91773 -0.353298 0
M  V30 5767 O 566.951 -1.50814 -1.25027 0
M  V30 5768 H 565.531 -0.626952 0.406129 0
M  V30 5769 H 568.193 -1.1419 1.57945 0
M  V30 5770 H 567.289 -2.66915 1.61749 0
M  V30 5771 N 567.59 -1.07411 -1.15328 0
M  V30 5772 C 568.553 -0.698914 -2.18284 0
M  V30 5773 C 569.553 0.261149 -1.58665 0
M  V30 5774 O 570.743 0.0420277 -1.74149 0
M  V30 5775 C 567.875 -0.0302427 -3.40887 0
M  V30 5776 H 569.068 -1.61045 -2.52991 0
M  V30 5777 H 566.621 -0.870724 -1.298 0
M  V30 5778 H 567.356 0.893505 -3.11748 0
M  V30 5779 H 567.141 -0.720759 -3.85419 0
M  V30 5780 H 568.631 0.21759 -4.17033 0
M  V30 5781 N 569.068 1.32177 -0.85831 0
M  V30 5782 C 570.015 2.28794 -0.303607 0
M  V30 5783 C 570.985 1.55213 0.591453 0
M  V30 5784 O 572.17 1.83418 0.525585 0
M  V30 5785 C 569.31 3.41475 0.49889 0
M  V30 5786 C 568.423 4.2993 -0.422373 0
M  V30 5787 C 567.558 5.29743 0.393111 0
M  V30 5788 C 566.597 6.09842 -0.525317 0
M  V30 5789 N 565.734 7.01643 0.253208 0
M  V30 5790 H 570.574 2.75631 -1.13276 0
M  V30 5791 H 568.111 1.35606 -0.570026 0
M  V30 5792 H 570.069 4.05531 0.979826 0
M  V30 5793 H 568.699 2.95779 1.29284 0
M  V30 5794 H 567.751 3.66422 -1.02171 0
M  V30 5795 H 569.063 4.85899 -1.12709 0
M  V30 5796 H 568.217 5.9942 0.937056 0
M  V30 5797 H 566.956 4.744 1.13117 0
M  V30 5798 H 565.961 5.39066 -1.08112 0
M  V30 5799 H 567.186 6.6727 -1.26205 0
M  V30 5800 H 565.132 6.48725 0.974295 0
M  V30 5801 H 565.049 7.54981 -0.392398 0
M  V30 5802 H 566.317 7.756 0.778761 0
M  V30 5803 N 570.547 0.616602 1.45037 0
M  V30 5804 C 571.958 0.199359 1.85633 0
M  V30 5805 C 572.309 -1.24588 1.51566 0
M  V30 5806 O 571.434 -1.94594 0.94668 0
M  V30 5807 C 572.029 0.355033 3.36935 0
M  V30 5808 C 570.588 -0.00758748 3.76399 0
M  V30 5809 C 569.735 0.675256 2.68953 0
M  V30 5810 H 572.686 0.822708 1.3571 0
M  V30 5811 H 572.707 -0.410201 3.78282 0
M  V30 5812 H 572.219 1.40699 3.61698 0
M  V30 5813 H 570.32 -1.05837 3.57252 0
M  V30 5814 H 570.433 0.392346 4.77491 0
M  V30 5815 H 568.797 0.111992 2.54454 0
M  V30 5816 H 569.58 1.72952 2.96551 0
M  V30 5817 N 572.025 -1.5352 0.356285 0
M  V30 5818 C 573.302 -1.93405 -0.292223 0
M  V30 5819 C 573.682 -1.28901 -1.67176 0
M  V30 5820 O 573.03 -0.444632 -2.24132 0
M  V30 5821 C 573.24 -3.47223 -0.35175 0
M  V30 5822 C 574.588 -4.20389 -0.596534 0
M  V30 5823 O 575.612 -3.53554 -0.433344 0
M  V30 5824 O 574.471 -5.3881 -0.913589 0
M  V30 5825 H 571.565 -0.808666 -0.173172 0
M  V30 5826 H 574.111 -1.64713 0.408391 0
M  V30 5827 H 572.883 -3.86423 0.615841 0
M  V30 5828 H 572.506 -3.8212 -1.09864 0
M  V30 5829 N 573.503 -0.0852151 -1.57369 0
M  V30 5830 C 574.919 0.271436 -1.57275 0
M  V30 5831 C 575.119 1.69109 -1.09565 0
M  V30 5832 O 574.175 2.40549 -0.767611 0
M  V30 5833 C 575.488 0.0688638 -3.00621 0
M  V30 5834 C 577.036 0.137373 -3.12698 0
M  V30 5835 C 577.511 -0.0370832 -4.57985 0
M  V30 5836 N 579.002 0.0180794 -4.63196 0
M  V30 5837 C 579.737 -0.0922953 -5.73326 0
M  V30 5838 N 579.233 -0.256948 -6.92323 0
M  V30 5839 N 581.026 -0.0342702 -5.6209 0
M  V30 5840 H 573.177 -1.01288 -1.86693 0
M  V30 5841 H 575.44 -0.396138 -0.861266 0
M  V30 5842 H 575.146 -0.911277 -3.39689 0
M  V30 5843 H 575.02 0.815442 -3.6828 0
M  V30 5844 H 577.407 1.10801 -2.73509 0
M  V30 5845 H 577.488 -0.640532 -2.47651 0
M  V30 5846 H 577.132 -1.00455 -4.97867 0
M  V30 5847 H 577.062 0.760392 -5.21081 0
M  V30 5848 H 579.553 0.143202 -3.77629 0
M  V30 5849 H 579.866 -0.332949 -7.72082 0
M  V30 5850 H 578.211 -0.292487 -6.94384 0
M  V30 5851 H 581.402 0.0931605 -4.68007 0
M  V30 5852 H 581.575 -0.12374 -6.47882 0
M  V30 5853 N 574.981 1.5647 0.188427 0
M  V30 5854 C 575.944 1.9421 1.21718 0
M  V30 5855 C 576.944 0.823901 1.38089 0
M  V30 5856 O 578.134 1.09122 1.35787 0
M  V30 5857 C 575.266 2.22197 2.58537 0
M  V30 5858 H 576.459 2.86252 0.894418 0
M  V30 5859 H 574.012 1.50263 0.430211 0
M  V30 5860 H 574.747 1.32814 2.95856 0
M  V30 5861 H 574.532 3.03688 2.48025 0
M  V30 5862 H 576.022 2.52376 3.3271 0
M  V30 5863 N 576.459 -0.456382 1.50847 0
M  V30 5864 C 577.422 -1.53493 1.70213 0
M  V30 5865 C 578.422 -1.50264 0.572481 0
M  V30 5866 O 579.612 -1.52623 0.839751 0
M  V30 5867 C 576.744 -2.93091 1.741 0
M  V30 5868 H 577.937 -1.37633 2.66453 0
M  V30 5869 H 575.49 -0.683776 1.4055 0
M  V30 5870 H 576.225 -3.14378 0.796063 0
M  V30 5871 H 576.01 -2.9684 2.5618 0
M  V30 5872 H 577.5 -3.71368 1.90987 0
M  V30 5873 N 577.937 -1.40673 -0.710563 0
M  V30 5874 C 578.867 -1.44095 -1.83736 0
M  V30 5875 C 579.848 -0.301286 -1.67411 0
M  V30 5876 O 581.033 -0.510618 -1.87367 0
M  V30 5877 C 578.163 -1.30773 -3.21738 0
M  V30 5878 C 577.117 -2.42395 -3.52745 0
M  V30 5879 C 576.443 -2.14147 -4.89944 0
M  V30 5880 C 577.743 -3.84738 -3.53234 0
M  V30 5881 H 579.437 -2.38396 -1.81129 0
M  V30 5882 H 576.983 -1.14746 -0.870017 0
M  V30 5883 H 578.936 -1.31783 -4.00264 0
M  V30 5884 H 577.66 -0.329507 -3.24934 0
M  V30 5885 H 576.319 -2.40643 -2.76562 0
M  V30 5886 H 575.967 -1.14703 -4.89747 0
M  V30 5887 H 575.667 -2.88934 -5.11655 0
M  V30 5888 H 577.191 -2.16848 -5.70797 0
M  V30 5889 H 578.605 -3.88286 -4.2179 0
M  V30 5890 H 577.002 -4.59085 -3.86473 0
M  V30 5891 H 578.072 -4.13962 -2.52514 0
M  V30 5892 N 579.415 0.9433 -1.26252 0
M  V30 5893 C 580.378 2.02326 -1.07689 0
M  V30 5894 C 581.378 1.60779 -0.0259174 0
M  V30 5895 O 582.568 1.72108 -0.269134 0
M  V30 5896 C 579.7 3.34886 -0.63752 0
M  V30 5897 H 580.893 2.20225 -2.0357 0
M  V30 5898 H 578.446 1.12197 -1.08819 0
M  V30 5899 H 579.181 3.22684 0.323377 0
M  V30 5900 H 578.966 3.66393 -1.39637 0
M  V30 5901 H 580.456 4.14231 -0.529418 0
M  V30 5902 N 580.893 1.08022 1.14757 0
M  V30 5903 C 582.17 0.720386 1.81851 0
M  V30 5904 C 582.55 -0.796375 1.95502 0
M  V30 5905 O 581.898 -1.71339 1.51179 0
M  V30 5906 C 582.108 1.44273 3.17783 0
M  V30 5907 C 583.456 1.59925 3.93331 0
M  V30 5908 O 584.48 1.40407 3.2736 0
M  V30 5909 O 583.339 1.92096 5.11626 0
M  V30 5910 H 580.433 0.257142 0.786007 0
M  V30 5911 H 582.979 1.18155 1.21809 0
M  V30 5912 H 581.751 2.47618 3.02987 0
M  V30 5913 H 581.374 0.97279 3.85516 0
M  V30 5914 N 582.371 -1.3172 0.865308 0
M  V30 5915 C 583.782 -1.79104 0.527126 0
M  V30 5916 C 584.133 -1.7135 -0.955695 0
M  V30 5917 O 583.258 -1.27845 -1.74598 0
M  V30 5918 C 583.853 -3.25207 0.950061 0
M  V30 5919 C 582.412 -3.70504 0.663611 0
M  V30 5920 C 581.559 -2.52605 1.14395 0
M  V30 5921 H 584.51 -1.18868 1.05148 0
M  V30 5922 H 584.531 -3.79535 0.270805 0
M  V30 5923 H 584.043 -3.30818 2.02931 0
M  V30 5924 H 582.144 -3.70398 -0.404474 0
M  V30 5925 H 582.257 -4.62845 1.23737 0
M  V30 5926 H 580.621 -2.4838 0.563859 0
M  V30 5927 H 581.404 -2.60964 2.23053 0
M  V30 5928 N 583.85 -0.624285 -1.44708 0
M  V30 5929 C 584.812 0.0749638 -2.29077 0
M  V30 5930 C 585.812 0.778965 -1.40673 0
M  V30 5931 O 587.003 0.624591 -1.62618 0
M  V30 5932 C 584.135 1.11663 -3.22094 0
M  V30 5933 H 585.327 -0.667013 -2.92388 0
M  V30 5934 H 582.88 -0.384098 -1.51507 0
M  V30 5935 H 583.615 1.88881 -2.63618 0
M  V30 5936 H 583.401 0.61583 -3.87234 0
M  V30 5937 H 584.891 1.60585 -3.8549 0
M  V30 5938 N 585.328 1.53329 -0.364422 0
M  V30 5939 C 586.556 2.05657 0.226424 0
M  V30 5940 C 586.971 1.23801 1.42544 0
M  V30 5941 O 586.328 0.27839 1.80364 0
M  V30 5942 C 586.379 3.56125 0.621056 0
M  V30 5943 O 586.1 4.34879 -0.530304 0
M  V30 5944 C 587.601 4.24706 1.27041 0
M  V30 5945 H 584.821 0.669806 0.0400056 0
M  V30 5946 H 587.365 1.97714 -0.522456 0
M  V30 5947 H 585.52 3.64223 1.31985 0
M  V30 5948 H 585.934 5.24073 -0.211546 0
M  V30 5949 H 587.408 5.3131 1.49711 0
M  V30 5950 H 587.885 3.78354 2.23036 0
M  V30 5951 H 588.491 4.20858 0.613079 0
M  V30 5952 N 586.806 0.0935595 1.57322 0
M  V30 5953 C 588.083 -0.612692 1.85756 0
M  V30 5954 C 588.463 -1.86439 0.99013 0
M  V30 5955 O 587.811 -2.28416 0.0621362 0
M  V30 5956 C 588.021 -0.929547 3.36393 0
M  V30 5957 C 589.369 -1.29366 4.04413 0
M  V30 5958 O 590.393 -1.02061 3.41265 0
M  V30 5959 O 589.252 -1.80498 5.15832 0
M  V30 5960 H 586.346 -0.306444 0.768128 0
M  V30 5961 H 588.892 0.126141 1.69231 0
M  V30 5962 H 587.664 -0.0414766 3.91278 0
M  V30 5963 H 587.287 -1.72441 3.5826 0
M  V30 5964 N 588.284 -1.56567 -0.180126 0
M  V30 5965 C 589.214 -1.98753 -1.22553 0
M  V30 5966 C 590.195 -0.86175 -1.46656 0
M  V30 5967 O 591.38 -1.12719 -1.58139 0
M  V30 5968 C 588.51 -2.33988 -2.56645 0
M  V30 5969 C 587.464 -3.49445 -2.47128 0
M  V30 5970 C 586.79 -3.70397 -3.8563 0
M  V30 5971 C 588.09 -4.83171 -1.98352 0
M  V30 5972 H 589.784 -2.86332 -0.874896 0
M  V30 5973 H 587.33 -1.37757 -0.419414 0
M  V30 5974 H 589.283 -2.62097 -3.29974 0
M  V30 5975 H 588.007 -1.43309 -2.93479 0
M  V30 5976 H 586.666 -3.2145 -1.76254 0
M  V30 5977 H 586.314 -2.77023 -4.19842 0
M  V30 5978 H 586.014 -4.48077 -3.80132 0
M  V30 5979 H 587.538 -4.00897 -4.60558 0
M  V30 5980 H 588.952 -5.10213 -2.61449 0
M  V30 5981 H 587.349 -5.64425 -2.03823 0
M  V30 5982 H 588.419 -4.75753 -0.937402 0
M  V30 5983 N 589.762 0.448376 -1.51087 0
M  V30 5984 C 591.178 0.783984 -1.39017 0
M  V30 5985 C 591.378 1.96087 -0.463904 0
M  V30 5986 O 590.434 2.52357 0.0850534 0
M  V30 5987 C 591.747 1.07471 -2.80839 0
M  V30 5988 C 593.295 1.17981 -2.89913 0
M  V30 5989 C 593.77 1.50354 -4.32617 0
M  V30 5990 N 595.261 1.57301 -4.35673 0
M  V30 5991 C 595.996 1.839 -5.4311 0
M  V30 5992 N 595.492 2.08365 -6.60724 0
M  V30 5993 N 597.285 1.8559 -5.30578 0
M  V30 5994 H 589.436 -0.326881 -2.0987 0
M  V30 5995 H 591.699 -0.0838006 -0.944289 0
M  V30 5996 H 591.405 0.282768 -3.50561 0
M  V30 5997 H 591.279 2.00519 -3.19487 0
M  V30 5998 H 593.666 1.9624 -2.20395 0
M  V30 5999 H 593.747 0.228603 -2.54776 0
M  V30 6000 H 593.391 0.726273 -5.0268 0
M  V30 6001 H 593.321 2.46663 -4.65258 0
M  V30 6002 H 595.812 1.40342 -3.50874 0
M  V30 6003 H 596.125 2.27999 -7.38401 0
M  V30 6004 H 594.47 2.0571 -6.63859 0
M  V30 6005 H 597.661 1.65989 -4.37682 0
M  V30 6006 H 597.834 2.05983 -6.1439 0
M  V30 6007 N 591.24 1.41047 0.703093 0
M  V30 6008 C 592.187 1.42302 1.81711 0
M  V30 6009 C 593.157 0.278336 1.63751 0
M  V30 6010 O 594.342 0.478266 1.84709 0
M  V30 6011 C 591.482 1.30362 3.19531 0
M  V30 6012 C 590.595 2.54638 3.48975 0
M  V30 6013 C 589.73 2.35047 4.76368 0
M  V30 6014 C 588.769 3.54837 4.98756 0
M  V30 6015 N 587.906 3.34363 6.1737 0
M  V30 6016 H 592.746 2.37516 1.79973 0
M  V30 6017 H 590.283 1.1795 0.878983 0
M  V30 6018 H 592.241 1.21443 3.99134 0
M  V30 6019 H 590.871 0.387602 3.20464 0
M  V30 6020 H 589.923 2.74037 2.63833 0
M  V30 6021 H 591.235 3.43766 3.61423 0
M  V30 6022 H 590.389 2.23552 5.64012 0
M  V30 6023 H 589.128 1.43363 4.66153 0
M  V30 6024 H 588.133 3.66795 4.09563 0
M  V30 6025 H 589.358 4.47464 5.10835 0
M  V30 6026 H 587.304 2.45373 6.08382 0
M  V30 6027 H 587.221 4.17063 6.30551 0
M  V30 6028 H 588.489 3.26626 7.07768 0
M  V30 6029 N 592.718 -0.936591 1.26751 0
M  V30 6030 C 593.648 -2.05315 1.11212 0
M  V30 6031 C 594.629 -1.70092 0.0160262 0
M  V30 6032 O 595.814 -1.93279 0.188894 0
M  V30 6033 C 592.944 -3.39123 0.749171 0
M  V30 6034 C 591.898 -3.88425 1.79751 0
M  V30 6035 C 591.224 -5.18936 1.28876 0
M  V30 6036 C 592.524 -4.12798 3.19992 0
M  V30 6037 H 594.218 -2.18573 2.04613 0
M  V30 6038 H 591.764 -1.05027 0.985159 0
M  V30 6039 H 593.717 -4.16704 0.627323 0
M  V30 6040 H 592.441 -3.25855 -0.220543 0
M  V30 6041 H 591.1 -3.13028 1.90811 0
M  V30 6042 H 590.748 -5.02051 0.308757 0
M  V30 6043 H 590.448 -5.52892 1.98958 0
M  V30 6044 H 591.972 -5.99096 1.17967 0
M  V30 6045 H 593.386 -4.80977 3.11983 0
M  V30 6046 H 591.783 -4.58044 3.87705 0
M  V30 6047 H 592.853 -3.18412 3.65707 0
M  V30 6048 N 594.196 -1.08629 -1.14182 0
M  V30 6049 C 595.159 -0.722027 -2.1753 0
M  V30 6050 C 596.159 0.244305 -1.58933 0
M  V30 6051 O 597.349 0.0235545 -1.74184 0
M  V30 6052 C 594.481 -0.0663966 -3.40835 0
M  V30 6053 H 595.674 -1.63719 -2.51269 0
M  V30 6054 H 593.227 -0.884442 -1.28869 0
M  V30 6055 H 593.962 0.860389 -3.12678 0
M  V30 6056 H 593.747 -0.761598 -3.84632 0
M  V30 6057 H 595.237 0.173346 -4.1724 0
M  V30 6058 N 595.674 1.31259 -0.872281 0
M  V30 6059 C 596.637 2.26744 -0.334656 0
M  V30 6060 C 597.637 1.52307 0.515681 0
M  V30 6061 O 598.827 1.71148 0.324656 0
M  V30 6062 C 595.959 3.36841 0.524482 0
M  V30 6063 H 597.152 2.75812 -1.17762 0
M  V30 6064 H 594.705 1.42232 -0.648064 0
M  V30 6065 H 595.44 2.93069 1.38855 0
M  V30 6066 H 595.225 3.92009 -0.0844299 0
M  V30 6067 H 596.715 4.07944 0.892838 0
M  V30 6068 N 597.152 0.631951 1.44375 0
M  V30 6069 C 598.115 -0.0628142 2.29114 0
M  V30 6070 C 599.115 -0.771494 1.41084 0
M  V30 6071 O 600.305 -0.615959 1.62947 0
M  V30 6072 C 597.437 -1.09953 3.22681 0
M  V30 6073 H 598.63 0.682509 2.92031 0
M  V30 6074 H 596.183 0.392128 1.51301 0
M  V30 6075 H 596.918 -1.87481 2.64616 0
M  V30 6076 H 596.703 -0.595286 3.87555 0
M  V30 6077 H 598.193 -1.58538 3.86336 0
M  V30 6078 N 598.631 -1.53133 0.372548 0
M  V30 6079 C 599.877 -2.01654 -0.215277 0
M  V30 6080 C 600.21 -1.25914 -1.47849 0
M  V30 6081 O 599.485 -0.3548 -1.91237 0
M  V30 6082 C 599.768 -3.56609 -0.500187 0
M  V30 6083 C 599.621 -4.43036 0.777145 0
M  V30 6084 C 600.94 -4.20528 -1.29786 0
M  V30 6085 H 598.059 -0.732991 -0.0767686 0
M  V30 6086 H 600.701 -1.83335 0.498814 0
M  V30 6087 H 598.851 -3.7235 -1.10852 0
M  V30 6088 H 600.523 -4.39079 1.41447 0
M  V30 6089 H 598.766 -4.10723 1.39604 0
M  V30 6090 H 599.437 -5.49424 0.532662 0
M  V30 6091 H 601.913 -4.08663 -0.783198 0
M  V30 6092 H 600.789 -5.28962 -1.46596 0
M  V30 6093 H 601.05 -3.77051 -2.30836 0
M  V30 6094 N 600.109 -0.101901 -1.5727 0
M  V30 6095 C 601.072 0.840129 -2.13247 0
M  V30 6096 C 602.072 1.20625 -1.06331 0
M  V30 6097 O 603.262 1.13456 -1.32186 0
M  V30 6098 C 600.394 2.13372 -2.65867 0
M  V30 6099 H 601.587 0.353945 -2.97804 0
M  V30 6100 H 599.14 0.147167 -1.55606 0
M  V30 6101 H 599.875 2.66461 -1.84849 0
M  V30 6102 H 599.66 1.88085 -3.44044 0
M  V30 6103 H 601.15 2.80748 -3.09145 0
M  V30 6104 N 601.587 1.56661 0.17182 0
M  V30 6105 C 602.55 1.9549 1.19651 0
M  V30 6106 C 603.55 0.838501 1.37207 0
M  V30 6107 O 604.74 1.10556 1.34622 0
M  V30 6108 C 601.872 2.24927 2.56166 0
M  V30 6109 H 603.065 2.87184 0.864007 0
M  V30 6110 H 600.618 1.50711 0.41425 0
M  V30 6111 H 601.353 1.35944 2.94431 0
M  V30 6112 H 601.138 3.06301 2.4479 0
M  V30 6113 H 602.628 2.55891 3.30014 0
M  V30 6114 O 603.104 -0.316804 1.58362 0
M  V30 6115 H 603.795 -0.964883 1.67957 0
M  V30 END ATOM
M  V30 BEGIN BOND
M  V30 END BOND
M  V30 END CTAB
M  END
$$$$
