drugbank_target|Q52546 Replication protein (DB03793)
 OpenBabel12092120283D

  0  0  0     0  0            999 V3000
M  V30 BEGIN CTAB
M  V30 COUNTS 3814 3846 0 0 0
M  V30 BEGIN ATOM
M  V30 1 H -0.908 1.98254 -0.117106 0
M  V30 2 N 0 1.576 0 0
M  V30 3 C 0.933 2.03868 1.02534 0
M  V30 4 C 1.911 0.928543 1.3348 0
M  V30 5 O 3.095 1.19667 1.45644 0
M  V30 6 C 0.222 2.43627 2.35294 0
M  V30 7 C -0.732 3.65373 2.2001 0
M  V30 8 S 0.101 5.13292 1.52614 0
M  V30 9 C 1.257 5.56322 2.86805 0
M  V30 10 H 1.49 2.90518 0.631377 0
M  V30 11 H -0.977 1.52953 0.210867 0
M  V30 12 H 0.981 2.67203 3.11629 0
M  V30 13 H -0.358 1.57376 2.7183 0
M  V30 14 H -1.165 3.90944 3.18086 0
M  V30 15 H -1.563 3.418 1.51819 0
M  V30 16 H 0.729 5.58782 3.83104 0
M  V30 17 H 1.672 6.56266 2.65933 0
M  V30 18 H 2.08 4.83886 2.90714 0
M  V30 19 N 1.4781 -0.272755 1.55222 0
M  V30 20 C 2.4111 -1.3627 1.83046 0
M  V30 21 C 3.3891 -1.47536 0.683521 0
M  V30 22 O 4.5731 -1.64157 0.926545 0
M  V30 23 C 1.7001 -2.73908 1.99229 0
M  V30 24 C 0.7461 -2.79925 3.21783 0
M  V30 25 S 1.5791 -2.39146 4.79134 0
M  V30 26 C 2.7351 -3.78758 4.9829 0
M  V30 27 H 2.9681 -1.12464 2.75207 0
M  V30 28 H 0.5011 -0.472398 1.46996 0
M  V30 29 H 2.4591 -3.53171 2.09238 0
M  V30 30 H 1.1201 -2.94965 1.07956 0
M  V30 31 H 0.3131 -3.80946 3.29994 0
M  V30 32 H -0.0849 -2.08683 3.10367 0
M  V30 33 H 2.2071 -4.7403 4.84047 0
M  V30 34 H 3.1501 -3.75499 6.00338 0
M  V30 35 H 3.5581 -3.70072 4.26271 0
M  V30 36 N 2.9562 -1.48159 -0.537278 0
M  V30 37 C 4.2022 -1.56035 -1.29541 0
M  V30 38 C 4.5352 -0.230377 -1.92829 0
M  V30 39 O 3.8102 0.762952 -1.78911 0
M  V30 40 C 4.0932 -2.69323 -2.39034 0
M  V30 41 C 3.9462 -4.12002 -1.80485 0
M  V30 42 C 5.2652 -2.78408 -3.40847 0
M  V30 43 H 2.3842 -0.567992 -0.469632 0
M  V30 44 H 5.0262 -1.80302 -0.599277 0
M  V30 45 H 3.1762 -2.48763 -2.98412 0
M  V30 46 H 4.8482 -4.43981 -1.25215 0
M  V30 47 H 3.0912 -4.19344 -1.11055 0
M  V30 48 H 3.7622 -4.87077 -2.59731 0
M  V30 49 H 6.2382 -2.97012 -2.91416 0
M  V30 50 H 5.1142 -3.59416 -4.14863 0
M  V30 51 H 5.3752 -1.86269 -4.00944 0
M  V30 52 N 4.4343 0.785586 -1.36625 0
M  V30 53 C 5.3443 1.92964 -1.33425 0
M  V30 54 C 6.3603 1.72394 -0.235851 0
M  V30 55 O 7.5363 1.95866 -0.468878 0
M  V30 56 C 4.6013 3.27884 -1.12662 0
M  V30 57 C 3.6623 3.61204 -2.32013 0
M  V30 58 C 2.8953 4.89687 -2.12231 0
M  V30 59 O 3.1183 5.59704 -1.09945 0
M  V30 60 O 2.0523 5.21752 -3.00098 0
M  V30 61 H 5.8783 1.98613 -2.29753 0
M  V30 62 H 3.4633 0.926384 -1.17211 0
M  V30 63 H 5.3453 4.08614 -1.03016 0
M  V30 64 H 4.0203 3.23118 -0.193991 0
M  V30 65 H 2.9273 2.80765 -2.47228 0
M  V30 66 H 4.2603 3.70698 -3.23796 0
M  V30 67 N 5.9124 1.20967 1.01018 0
M  V30 68 C 6.8604 0.961223 2.1181 0
M  V30 69 C 7.8544 -0.0897034 1.69162 0
M  V30 70 O 9.0604 0.0612271 1.79896 0
M  V30 71 H 5.4354 0.29355 0.692338 0
M  V30 72 H 7.4064 1.90178 2.29946 0
M  V30 73 C 6.1554 0.536854 3.4353 0
M  V30 74 H 5.4784 1.33713 3.76777 0
M  V30 75 H 6.9184 0.402286 4.22087 0
M  V30 76 C 5.3774 -0.751574 3.2841 0
M  V30 77 O 5.9074 -1.80841 3.58691 0
M  V30 78 N 4.1134 -0.716079 2.81639 0
M  V30 79 H 3.6604 0.144236 2.57196 0
M  V30 80 H 3.6184 -1.57847 2.71904 0
M  V30 81 N 7.3905 -1.2043 1.01659 0
M  V30 82 C 8.3375 -2.23215 0.586822 0
M  V30 83 C 9.3075 -1.61382 -0.393085 0
M  V30 84 O 10.4925 -1.88544 -0.292525 0
M  V30 85 C 7.6325 -3.45032 -0.0687464 0
M  V30 86 C 6.7455 -4.21296 0.955724 0
M  V30 87 C 5.8805 -5.30507 0.271208 0
M  V30 88 C 4.9195 -5.98515 1.28244 0
M  V30 89 N 4.0565 -6.99316 0.62459 0
M  V30 90 H 8.8965 -2.59336 1.46796 0
M  V30 91 H 6.4335 -1.27431 0.734836 0
M  V30 92 H 8.3915 -4.1459 -0.465965 0
M  V30 93 H 7.0215 -3.09604 -0.913529 0
M  V30 94 H 6.0735 -3.50803 1.4711 0
M  V30 95 H 7.3855 -4.6803 1.72479 0
M  V30 96 H 6.5395 -6.06428 -0.18151 0
M  V30 97 H 5.2785 -4.8481 -0.530163 0
M  V30 98 H 4.2835 -5.21355 1.74554 0
M  V30 99 H 5.5085 -6.46298 2.08509 0
M  V30 100 H 3.4545 -6.55812 -0.156914 0
M  V30 101 H 3.3715 -7.44178 1.33172 0
M  V30 102 H 4.6395 -7.79255 0.195462 0
M  V30 103 N 8.8686 -0.792821 -1.36206 0
M  V30 104 C 10.1146 -0.36733 -1.99446 0
M  V30 105 C 10.4476 1.05917 -1.62774 0
M  V30 106 O 9.7226 1.7324 -0.88421 0
M  V30 107 C 10.0056 -0.535044 -3.56103 0
M  V30 108 C 9.8586 -2.00548 -4.02617 0
M  V30 109 C 11.1776 0.0478191 -4.40074 0
M  V30 110 H 8.2966 -0.134941 -0.724541 0
M  V30 111 H 10.9386 -0.999794 -1.61568 0
M  V30 112 H 9.0886 0.00336329 -3.885 0
M  V30 113 H 10.7606 -2.60521 -3.80692 0
M  V30 114 H 9.0036 -2.50686 -3.54032 0
M  V30 115 H 9.6746 -2.07377 -5.11565 0
M  V30 116 H 12.1506 -0.411822 -4.14057 0
M  V30 117 H 11.0266 -0.0995336 -5.4881 0
M  V30 118 H 11.2876 1.14025 -4.27142 0
M  V30 119 N 10.3467 1.47872 -0.545128 0
M  V30 120 C 11.5747 2.06889 -0.021084 0
M  V30 121 C 11.9897 1.39955 1.2672 0
M  V30 122 O 11.3467 0.492036 1.75742 0
M  V30 123 C 11.3977 3.60996 0.190817 0
M  V30 124 O 11.1187 4.25419 -1.04644 0
M  V30 125 C 12.6197 4.36849 0.753521 0
M  V30 126 H 9.8397 0.669785 -0.0403635 0
M  V30 127 H 12.3837 1.90049 -0.755095 0
M  V30 128 H 10.5387 3.77391 0.87492 0
M  V30 129 H 10.9527 5.17785 -0.836611 0
M  V30 130 H 12.4267 5.45399 0.851139 0
M  V30 131 H 12.9037 4.02306 1.762 0
M  V30 132 H 13.5097 4.25169 0.105503 0
M  V30 133 N 11.8248 0.280983 1.55075 0
M  V30 134 C 12.7568 -0.637268 2.20163 0
M  V30 135 C 13.7698 -1.11298 1.18813 0
M  V30 136 O 14.9588 -1.03388 1.4551 0
M  V30 137 C 12.0588 -1.88199 2.81841 0
M  V30 138 C 11.2318 -1.55211 4.08936 0
M  V30 139 C 10.2908 -2.64991 4.54606 0
M  V30 140 O 9.3168 -2.30929 5.2025 0
M  V30 141 N 10.5188 -3.95161 4.25238 0
M  V30 142 H 13.2838 -0.0801694 2.99593 0
M  V30 143 H 10.8448 0.102329 1.61576 0
M  V30 144 H 12.8368 -2.60948 3.09335 0
M  V30 145 H 11.4068 -2.34799 2.06369 0
M  V30 146 H 10.6268 -0.658185 3.88666 0
M  V30 147 H 11.9148 -1.30681 4.91732 0
M  V30 148 H 11.3128 -4.25653 3.72607 0
M  V30 149 H 9.8698 -4.6427 4.5749 0
M  V30 150 N 13.3029 -1.57598 0.00835791 0
M  V30 151 C 14.5279 -1.95617 -0.689103 0
M  V30 152 C 14.9529 -0.883753 -1.66046 0
M  V30 153 O 14.3109 0.157352 -1.80616 0
M  V30 154 C 14.3589 -3.32736 -1.38994 0
M  V30 155 O 13.4629 -3.27631 -2.50463 0
M  V30 156 H 12.8039 -0.638379 -0.182668 0
M  V30 157 H 15.3339 -2.045 0.064036 0
M  V30 158 H 15.3439 -3.68494 -1.75147 0
M  V30 159 H 14.0189 -4.1034 -0.677778 0
M  V30 160 H 12.5959 -3.03561 -2.16576 0
M  V30 161 N 14.781 0.264519 -1.55364 0
M  V30 162 C 15.729 1.34702 -1.89626 0
M  V30 163 C 16.723 1.50712 -0.773459 0
M  V30 164 O 17.929 1.52395 -0.957897 0
M  V30 165 H 14.304 0.450682 -0.601988 0
M  V30 166 H 16.275 1.0306 -2.80038 0
M  V30 167 C 15.024 2.6989 -2.19214 0
M  V30 168 H 14.347 2.58365 -3.05103 0
M  V30 169 H 15.787 3.44553 -2.47102 0
M  V30 170 C 14.246 3.21637 -1.00254 0
M  V30 171 O 14.776 4.00973 -0.241501 0
M  V30 172 N 12.982 2.7943 -0.797938 0
M  V30 173 H 12.529 2.15026 -1.4185 0
M  V30 174 H 12.487 3.144 -0.00363422 0
M  V30 175 N 16.2591 1.48442 0.529413 0
M  V30 176 C 17.2061 1.63007 1.63394 0
M  V30 177 C 18.1761 0.47212 1.59249 0
M  V30 178 O 19.3611 0.695673 1.77666 0
M  V30 179 C 16.5011 1.6763 3.01653 0
M  V30 180 C 15.6141 2.94535 3.16027 0
M  V30 181 C 14.7491 2.90316 4.44849 0
M  V30 182 C 13.7881 4.11923 4.52754 0
M  V30 183 N 12.9251 4.05777 5.72965 0
M  V30 184 H 17.7651 2.5733 1.50285 0
M  V30 185 H 15.3021 1.27613 0.731656 0
M  V30 186 H 17.2601 1.68292 3.81751 0
M  V30 187 H 15.8901 0.76797 3.13532 0
M  V30 188 H 14.9421 3.03615 2.29177 0
M  V30 189 H 16.2541 3.84512 3.17729 0
M  V30 190 H 15.4081 2.89382 5.33238 0
M  V30 191 H 14.1471 1.98068 4.45668 0
M  V30 192 H 13.1521 4.13131 3.62771 0
M  V30 193 H 14.3771 5.0533 4.53672 0
M  V30 194 H 12.3231 3.16351 5.74681 0
M  V30 195 H 12.2401 4.8946 5.76164 0
M  V30 196 H 13.5081 4.08904 6.6364 0
M  V30 197 N 17.7372 -0.778329 1.37039 0
M  V30 198 C 18.6672 -1.90546 1.34962 0
M  V30 199 C 19.6482 -1.68681 0.219274 0
M  V30 200 O 20.8332 -1.89634 0.418624 0
M  V30 201 C 17.9632 -3.27734 1.14925 0
M  V30 202 C 16.9172 -3.64147 2.24902 0
M  V30 203 C 16.2432 -4.99806 1.89996 0
M  V30 204 C 17.5432 -3.71579 3.67051 0
M  V30 205 H 19.2372 -1.92541 2.29277 0
M  V30 206 H 16.7832 -0.924948 1.10366 0
M  V30 207 H 18.7362 -4.06215 1.12104 0
M  V30 208 H 17.4602 -3.26154 0.170631 0
M  V30 209 H 16.1192 -2.8797 2.26868 0
M  V30 210 H 15.7672 -4.94759 0.906796 0
M  V30 211 H 15.4672 -5.25139 2.63634 0
M  V30 212 H 16.9912 -5.80694 1.88749 0
M  V30 213 H 18.4052 -4.40227 3.67251 0
M  V30 214 H 16.8022 -4.08405 4.39688 0
M  V30 215 H 17.8722 -2.72404 4.01154 0
M  V30 216 N 19.2153 -1.21501 -1.00376 0
M  V30 217 C 20.4643 -1.02718 -1.73586 0
M  V30 218 C 20.7773 0.439589 -1.90596 0
M  V30 219 O 21.9833 0.746848 -2.61026 0
M  V30 220 C 20.4393 -1.78929 -3.1227 0
M  V30 221 C 20.0473 -3.29783 -3.03228 0
M  V30 222 C 21.7913 -1.68557 -3.89601 0
M  V30 223 C 19.6983 -3.98479 -4.36999 0
M  V30 224 H 18.6283 -0.380733 -0.650814 0
M  V30 225 H 21.2793 -1.45248 -1.1214 0
M  V30 226 H 19.6613 -1.29192 -3.74333 0
M  V30 227 H 20.8353 -3.86832 -2.50395 0
M  V30 228 H 19.1503 -3.40711 -2.39385 0
M  V30 229 H 21.7473 -2.17211 -4.88593 0
M  V30 230 H 22.0903 -0.644021 -4.11288 0
M  V30 231 H 22.6233 -2.15778 -3.34193 0
M  V30 232 H 19.3623 -5.02841 -4.20513 0
M  V30 233 H 18.8823 -3.46219 -4.89788 0
M  V30 234 H 20.5613 -4.03462 -5.05794 0
M  V30 235 N 20.6934 1.19889 -1.02296 0
M  V30 236 C 21.6034 2.26571 -0.608508 0
M  V30 237 C 22.6194 1.70299 0.356964 0
M  V30 238 O 23.7954 2.00235 0.216326 0
M  V30 239 C 20.8604 3.46677 0.0402814 0
M  V30 240 C 19.9214 4.18153 -0.97194 0
M  V30 241 C 19.1544 5.32525 -0.354016 0
M  V30 242 O 19.3774 5.64112 0.844604 0
M  V30 243 O 18.3114 5.92242 -1.07391 0
M  V30 244 H 22.1374 2.64251 -1.49684 0
M  V30 245 H 19.7224 1.26629 -0.792809 0
M  V30 246 H 21.6044 4.19475 0.402324 0
M  V30 247 H 20.2794 3.10858 0.902707 0
M  V30 248 H 19.1864 3.47499 -1.38546 0
M  V30 249 H 20.5194 4.57927 -1.80454 0
M  V30 250 N 22.1715 0.800033 1.35784 0
M  V30 251 C 23.3965 0.388511 2.03729 0
M  V30 252 C 23.8215 -0.990481 1.5991 0
M  V30 253 O 23.1795 -1.64013 0.772612 0
M  V30 254 C 23.2275 0.4726 3.5749 0
M  V30 255 O 22.3315 -0.51646 4.09153 0
M  V30 256 H 21.6725 0.163271 0.643614 0
M  V30 257 H 24.2025 1.0841 1.73518 0
M  V30 258 H 24.2125 0.34003 4.06581 0
M  V30 259 H 22.8875 1.47848 3.88734 0
M  V30 260 H 21.4645 -0.344673 3.71304 0
M  V30 261 N 23.6496 -1.47581 0.552962 0
M  V30 262 C 24.8746 -2.07378 0.0300593 0
M  V30 263 C 25.2996 -1.40355 -1.25229 0
M  V30 264 O 24.6576 -0.477099 -1.7491 0
M  V30 265 C 24.7056 -3.60274 -0.153231 0
M  V30 266 O 23.8096 -3.94041 -1.21678 0
M  V30 267 H 23.1506 -0.662158 0.0494182 0
M  V30 268 H 25.6806 -1.89662 0.767434 0
M  V30 269 H 25.6906 -4.0633 -0.368761 0
M  V30 270 H 24.3656 -4.08455 0.783397 0
M  V30 271 H 22.9426 -3.59735 -0.982079 0
M  V30 272 N 25.1277 -0.289203 -1.54924 0
M  V30 273 C 26.0777 0.606939 -2.19773 0
M  V30 274 C 27.0617 1.10783 -1.16687 0
M  V30 275 O 28.2537 1.05057 -1.4245 0
M  V30 276 C 25.3827 1.78398 -2.93307 0
M  V30 277 C 24.4687 1.29961 -4.03697 0
M  V30 278 N 24.8597 0.532377 -5.0299 0
M  V30 279 C 23.1577 1.58136 -4.17024 0
M  V30 280 C 23.8587 0.275912 -5.81045 0
M  V30 281 N 22.8347 0.852365 -5.36876 0
M  V30 282 H 26.6367 0.0130779 -2.93897 0
M  V30 283 H 24.1507 -0.09341 -1.62131 0
M  V30 284 H 26.1477 2.43741 -3.38225 0
M  V30 285 H 24.8077 2.38166 -2.20697 0
M  V30 286 H 25.8187 0.17838 -5.17593 0
M  V30 287 H 22.4957 2.18738 -3.55612 0
M  V30 288 H 23.8857 -0.339502 -6.71042 0
M  V30 289 N 26.6058 1.57591 -0.0167156 0
M  V30 290 C 27.8338 1.95575 0.675128 0
M  V30 291 C 28.2488 0.892542 1.6637 0
M  V30 292 O 27.6058 -0.126912 1.82058 0
M  V30 293 C 27.6568 3.33608 1.39239 0
M  V30 294 O 27.3778 4.3585 0.443444 0
M  V30 295 C 28.8788 3.86151 2.17721 0
M  V30 296 H 26.0988 0.644423 0.186978 0
M  V30 297 H 28.6428 2.0437 -0.0728 0
M  V30 298 H 26.7978 3.2607 2.09182 0
M  V30 299 H 27.2118 5.158 0.951358 0
M  V30 300 H 28.6858 4.85114 2.63379 0
M  V30 301 H 29.1628 3.19738 3.01105 0
M  V30 302 H 29.7688 3.96918 1.52761 0
M  V30 303 N 28.0839 -0.256276 1.55502 0
M  V30 304 C 29.0139 -1.32102 1.92539 0
M  V30 305 C 29.9949 -1.50684 0.789194 0
M  V30 306 O 31.1799 -1.63449 1.04872 0
M  V30 307 C 28.3099 -2.67752 2.21192 0
M  V30 308 C 27.2639 -2.63878 3.36975 0
M  V30 309 C 26.5899 -4.03236 3.51147 0
M  V30 310 C 27.8899 -2.21682 4.72921 0
M  V30 311 H 29.5839 -1.01351 2.81724 0
M  V30 312 H 27.1299 -0.486105 1.35547 0
M  V30 313 H 29.0829 -3.42365 2.45691 0
M  V30 314 H 27.8069 -3.0012 1.28824 0
M  V30 315 H 26.4659 -1.91722 3.12471 0
M  V30 316 H 26.1139 -4.32854 2.56216 0
M  V30 317 H 25.8139 -4.01535 4.29003 0
M  V30 318 H 27.3379 -4.79563 3.77957 0
M  V30 319 H 28.7519 -2.86023 4.96854 0
M  V30 320 H 27.1489 -2.3111 5.53812 0
M  V30 321 H 28.2189 -1.16833 4.70615 0
M  V30 322 N 29.562 -1.4872 -0.521534 0
M  V30 323 C 30.79 -1.60843 -1.30142 0
M  V30 324 C 31.205 -0.271897 -1.86832 0
M  V30 325 O 30.562 0.739969 -1.66825 0
M  V30 326 C 30.613 -2.66155 -2.4463 0
M  V30 327 O 30.334 -3.94623 -1.90275 0
M  V30 328 C 31.835 -2.88795 -3.36322 0
M  V30 329 H 29.055 -0.542075 -0.395468 0
M  V30 330 H 31.599 -1.94609 -0.628285 0
M  V30 331 H 29.754 -2.35224 -3.07812 0
M  V30 332 H 30.168 -4.52468 -2.65279 0
M  V30 333 H 31.642 -3.66264 -4.12983 0
M  V30 334 H 32.119 -1.97934 -3.9207 0
M  V30 335 H 32.725 -3.21063 -2.78924 0
M  V30 336 N 31.0401 0.771051 -1.3745 0
M  V30 337 C 31.9701 1.89827 -1.3597 0
M  V30 338 C 32.9511 1.68562 -0.228216 0
M  V30 339 O 34.1361 1.8941 -0.428675 0
M  V30 340 C 31.2661 3.2712 -1.16662 0
M  V30 341 C 30.2201 3.6295 -2.2683 0
M  V30 342 C 29.5461 4.98791 -1.92644 0
M  V30 343 C 30.8461 3.69627 -3.69017 0
M  V30 344 H 32.5401 1.91323 -2.30295 0
M  V30 345 H 30.0861 0.919082 -1.10855 0
M  V30 346 H 32.0391 4.05615 -1.14256 0
M  V30 347 H 30.7631 3.26059 -0.187926 0
M  V30 348 H 29.4221 2.86763 -2.28392 0
M  V30 349 H 29.0701 4.94271 -0.933021 0
M  V30 350 H 28.7701 5.23733 -2.66416 0
M  V30 351 H 30.2941 5.79685 -1.91826 0
M  V30 352 H 31.7081 4.38273 -3.69581 0
M  V30 353 H 30.1051 4.06067 -4.41848 0
M  V30 354 H 31.1751 2.70273 -4.02592 0
M  V30 355 N 32.5182 1.22032 0.997298 0
M  V30 356 C 33.4662 0.983634 2.10778 0
M  V30 357 C 34.4602 -0.0717564 1.69248 0
M  V30 358 O 35.6662 0.080304 1.79821 0
M  V30 359 H 32.0412 0.300877 0.689186 0
M  V30 360 H 34.0122 1.92606 2.27916 0
M  V30 361 C 32.7612 0.57326 3.42942 0
M  V30 362 H 32.0842 1.37702 3.75338 0
M  V30 363 H 33.5242 0.447031 4.21637 0
M  V30 364 C 31.9832 -0.7167 3.29188 0
M  V30 365 O 32.5132 -1.77027 3.60589 0
M  V30 366 N 30.7192 -0.686167 2.82383 0
M  V30 367 H 30.2662 0.171507 2.57028 0
M  V30 368 H 30.2242 -1.54955 2.73562 0
M  V30 369 N 33.9963 -1.19345 1.0293 0
M  V30 370 C 34.9063 -2.26245 0.620515 0
M  V30 371 C 35.9223 -1.70486 -0.347928 0
M  V30 372 O 37.0983 -2.00347 -0.205704 0
M  V30 373 C 34.1633 -3.46693 -0.0218957 0
M  V30 374 C 33.2243 -4.17632 0.994102 0
M  V30 375 C 32.4573 -5.32329 0.382253 0
M  V30 376 O 32.6803 -5.64552 -0.814676 0
M  V30 377 O 31.6143 -5.91664 1.10531 0
M  V30 378 H 35.4403 -2.63453 1.51083 0
M  V30 379 H 33.0253 -1.26207 0.799513 0
M  V30 380 H 34.9073 -4.19683 -0.380072 0
M  V30 381 H 33.5823 -3.11333 -0.886209 0
M  V30 382 H 32.4893 -3.4676 1.40387 0
M  V30 383 H 33.8223 -4.56964 1.8288 0
M  V30 384 N 35.4744 -0.807222 -1.35358 0
M  V30 385 C 36.4214 -0.216037 -2.29787 0
M  V30 386 C 37.3914 0.650278 -1.52842 0
M  V30 387 O 38.5764 0.595227 -1.81278 0
M  V30 388 C 35.7164 0.628893 -3.39321 0
M  V30 389 C 34.8294 -0.257927 -4.31229 0
M  V30 390 C 33.9644 0.595069 -5.27856 0
M  V30 391 C 33.0034 -0.292111 -6.11403 0
M  V30 392 N 32.1404 0.520895 -7.00165 0
M  V30 393 H 36.9804 -1.02671 -2.79755 0
M  V30 394 H 34.5174 -0.517839 -1.37684 0
M  V30 395 H 36.4754 1.13393 -4.01494 0
M  V30 396 H 35.1054 1.40482 -2.90628 0
M  V30 397 H 34.1574 -0.881076 -3.70056 0
M  V30 398 H 35.4694 -0.940759 -4.89848 0
M  V30 399 H 34.6234 1.16522 -5.95405 0
M  V30 400 H 33.3624 1.31146 -4.69736 0
M  V30 401 H 32.3674 -0.874525 -5.428 0
M  V30 402 H 33.5924 -1.00638 -6.71602 0
M  V30 403 H 31.5384 1.22125 -6.44532 0
M  V30 404 H 31.4554 -0.103877 -7.55929 0
M  V30 405 H 32.7234 1.0743 -7.72062 0
M  V30 406 N 36.9525 1.47285 -0.560781 0
M  V30 407 C 38.3685 1.58065 -0.22081 0
M  V30 408 C 38.5685 1.55892 1.27671 0
M  V30 409 O 37.6245 1.46422 2.0571 0
M  V30 410 C 38.9375 2.88418 -0.850625 0
M  V30 411 C 40.4855 3.02009 -0.822184 0
M  V30 412 C 40.9605 4.35066 -1.43113 0
M  V30 413 N 42.4515 4.41711 -1.39448 0
M  V30 414 C 43.1865 5.43237 -1.83525 0
M  V30 415 N 42.6825 6.51555 -2.35474 0
M  V30 416 N 44.4755 5.34304 -1.74574 0
M  V30 417 H 36.6265 1.46941 -1.53369 0
M  V30 418 H 38.8895 0.699558 -0.639783 0
M  V30 419 H 38.5955 2.95755 -1.9032 0
M  V30 420 H 38.4695 3.75612 -0.345773 0
M  V30 421 H 40.8565 2.94266 0.221714 0
M  V30 422 H 40.9375 2.16347 -1.36483 0
M  V30 423 H 40.5815 4.43565 -2.47412 0
M  V30 424 H 40.5115 5.19465 -0.863899 0
M  V30 425 H 43.0025 3.64027 -1.01452 0
M  V30 426 H 43.3155 7.25203 -2.67021 0
M  V30 427 H 41.6605 6.52435 -2.39487 0
M  V30 428 H 44.8515 4.48581 -1.33763 0
M  V30 429 H 45.0245 6.13288 -2.09242 0
M  V30 430 N 38.4306 0.297415 1.54768 0
M  V30 431 C 39.3606 -0.573494 2.26348 0
M  V30 432 C 40.3416 -1.14085 1.26169 0
M  V30 433 O 41.5266 -1.17086 1.54934 0
M  V30 434 C 38.6566 -1.74716 3.00153 0
M  V30 435 C 37.6106 -1.31032 4.07449 0
M  V30 436 C 36.9366 -2.56887 4.68949 0
M  V30 437 C 38.2366 -0.444183 5.20408 0
M  V30 438 H 39.9306 0.0235131 2.99391 0
M  V30 439 H 37.4766 0.0127488 1.43994 0
M  V30 440 H 39.4296 -2.3625 3.48947 0
M  V30 441 H 38.1536 -2.37035 2.24682 0
M  V30 442 H 36.8126 -0.718066 3.59499 0
M  V30 443 H 36.4606 -3.17512 3.90122 0
M  V30 444 H 36.1606 -2.2836 5.41411 0
M  V30 445 H 37.6846 -3.19229 5.20505 0
M  V30 446 H 39.0986 -0.9651 5.65118 0
M  V30 447 H 37.4956 -0.252846 5.99567 0
M  V30 448 H 38.5656 0.531609 4.81977 0
M  V30 449 N 39.9087 -1.5758 0.0250728 0
M  V30 450 C 41.1547 -1.91917 -0.655413 0
M  V30 451 C 41.4877 -0.901433 -1.72011 0
M  V30 452 O 40.7627 0.0764069 -1.9435 0
M  V30 453 C 41.0457 -3.36751 -1.27558 0
M  V30 454 C 40.8987 -4.49258 -0.220719 0
M  V30 455 C 42.2177 -3.81469 -2.19475 0
M  V30 456 H 39.3367 -0.697925 -0.23679 0
M  V30 457 H 41.9787 -1.89825 0.0815036 0
M  V30 458 H 40.1287 -3.38664 -1.90365 0
M  V30 459 H 41.8007 -4.59478 0.409601 0
M  V30 460 H 40.0437 -4.31415 0.454264 0
M  V30 461 H 40.7147 -5.47618 -0.694175 0
M  V30 462 H 43.1907 -3.81266 -1.66659 0
M  V30 463 H 42.0667 -4.83512 -2.59822 0
M  V30 464 H 42.3277 -3.16744 -3.08424 0
M  V30 465 N 41.3868 0.248026 -1.55636 0
M  V30 466 C 42.3168 1.31079 -1.93237 0
M  V30 467 C 43.2978 1.50264 -0.797174 0
M  V30 468 O 44.4828 1.62891 -1.05737 0
M  V30 469 C 41.6128 2.66575 -2.22609 0
M  V30 470 C 40.5668 2.62087 -3.3837 0
M  V30 471 C 39.8928 4.01369 -3.53281 0
M  V30 472 C 41.1928 2.19171 -4.7409 0
M  V30 473 H 42.8868 0.998556 -2.82257 0
M  V30 474 H 40.4328 0.47891 -1.35803 0
M  V30 475 H 42.3858 3.41057 -2.47503 0
M  V30 476 H 41.1098 2.99432 -1.30414 0
M  V30 477 H 39.7688 1.90063 -3.13483 0
M  V30 478 H 39.4168 4.31489 -2.58508 0
M  V30 479 H 39.1168 3.99254 -4.31127 0
M  V30 480 H 40.6408 4.77552 -3.80495 0
M  V30 481 H 42.0548 2.83384 -4.98363 0
M  V30 482 H 40.4518 2.2817 -5.5503 0
M  V30 483 H 41.5218 1.14336 -4.71227 0
M  V30 484 N 42.8649 1.48995 0.513639 0
M  V30 485 C 44.1049 1.59452 1.27885 0
M  V30 486 C 44.4689 0.269479 1.90099 0
M  V30 487 O 45.6699 0.249139 2.67643 0
M  V30 488 C 43.9409 2.71277 2.32688 0
M  V30 489 S 45.4999 3.01604 3.18717 0
M  V30 490 H 42.3179 0.562565 0.434789 0
M  V30 491 H 44.9199 1.86595 0.583301 0
M  V30 492 H 43.6239 3.66089 1.8549 0
M  V30 493 H 43.1549 2.46086 3.06929 0
M  V30 494 H 45.1699 2.42155 4.331 0
M  V30 495 N 44.343 -0.763751 1.37857 0
M  V30 496 C 45.306 -1.85889 1.34081 0
M  V30 497 C 46.306 -1.58949 0.243277 0
M  V30 498 O 47.496 -1.66882 0.499589 0
M  V30 499 C 44.628 -3.23176 1.08489 0
M  V30 500 H 45.821 -1.90648 2.31502 0
M  V30 501 H 43.374 -0.964367 1.23003 0
M  V30 502 H 44.109 -3.24091 0.116318 0
M  V30 503 H 43.894 -3.44124 1.8794 0
M  V30 504 H 45.384 -4.03254 1.08517 0
M  V30 505 N 45.8211 -1.22559 -0.990812 0
M  V30 506 C 46.7841 -0.998863 -2.0629 0
M  V30 507 C 47.7841 0.0354834 -1.60761 0
M  V30 508 O 48.9741 -0.203231 -1.7301 0
M  V30 509 C 46.1061 -0.509203 -3.37076 0
M  V30 510 H 47.2991 -1.95014 -2.27837 0
M  V30 511 H 44.8521 -1.04456 -1.16269 0
M  V30 512 H 45.5871 0.446335 -3.21214 0
M  V30 513 H 45.3721 -1.25547 -3.71457 0
M  V30 514 H 46.8621 -0.370888 -4.1595 0
M  V30 515 N 47.2992 1.18797 -1.03562 0
M  V30 516 C 48.5242 1.9314 -0.755764 0
M  V30 517 C 48.9492 1.7537 0.68022 0
M  V30 518 O 48.3072 1.06046 1.47051 0
M  V30 519 C 48.3552 3.42747 -1.12058 0
M  V30 520 O 47.4592 4.11683 -0.243124 0
M  V30 521 H 46.8002 0.602724 -0.278604 0
M  V30 522 H 49.3302 1.50678 -1.3841 0
M  V30 523 H 49.3402 3.93437 -1.08035 0
M  V30 524 H 48.0152 3.55002 -2.16672 0
M  V30 525 H 46.5922 3.71323 -0.342539 0
M  V30 526 N 48.7773 0.814389 1.34928 0
M  V30 527 C 49.7073 0.244827 2.32213 0
M  V30 528 C 50.6883 -0.634024 1.57842 0
M  V30 529 O 51.8733 -0.562676 1.8587 0
M  V30 530 C 49.0033 -0.601106 3.42058 0
M  V30 531 C 47.9573 0.179896 4.27622 0
M  V30 532 C 47.2833 -0.788237 5.28858 0
M  V30 533 C 48.5833 1.38329 5.03649 0
M  V30 534 H 50.2773 1.05763 2.80097 0
M  V30 535 H 47.8233 0.510029 1.34665 0
M  V30 536 H 49.7763 -1.00968 4.09125 0
M  V30 537 H 48.5003 -1.44688 2.92802 0
M  V30 538 H 47.1593 0.569739 3.62146 0
M  V30 539 H 46.8073 -1.62973 4.75866 0
M  V30 540 H 46.5073 -0.269942 5.8698 0
M  V30 541 H 48.0313 -1.19485 5.98795 0
M  V30 542 H 49.4453 1.04918 5.63618 0
M  V30 543 H 47.8423 1.83662 5.71304 0
M  V30 544 H 48.9123 2.16592 4.33839 0
M  V30 545 N 50.2554 -1.46986 0.568584 0
M  V30 546 C 51.5044 -2.01646 0.0465894 0
M  V30 547 C 51.8174 -1.44721 -1.31587 0
M  V30 548 O 53.0234 -1.91113 -1.92842 0
M  V30 549 C 51.4794 -3.59885 0.032752 0
M  V30 550 C 51.0874 -4.25804 1.39266 0
M  V30 551 C 52.8314 -4.22255 -0.436038 0
M  V30 552 C 50.7384 -5.76081 1.33732 0
M  V30 553 H 49.6684 -0.753876 0.013647 0
M  V30 554 H 52.3194 -1.68864 0.718131 0
M  V30 555 H 50.7014 -3.8968 -0.704669 0
M  V30 556 H 51.8754 -4.07637 2.1487 0
M  V30 557 H 50.1904 -3.7547 1.80032 0
M  V30 558 H 52.7874 -5.32394 -0.49602 0
M  V30 559 H 53.1304 -3.90212 -1.45053 0
M  V30 560 H 53.6634 -3.97033 0.246877 0
M  V30 561 H 50.4024 -6.12761 2.32817 0
M  V30 562 H 49.9224 -5.96553 0.623267 0
M  V30 563 H 51.6014 -6.38518 1.0442 0
M  V30 564 N 51.7335 -0.305618 -1.54608 0
M  V30 565 C 53.0105 0.355652 -1.92339 0
M  V30 566 C 53.3905 1.71324 -1.23335 0
M  V30 567 O 52.7385 2.25473 -0.370702 0
M  V30 568 C 52.9485 0.46572 -3.45879 0
M  V30 569 C 54.2965 0.734426 -4.182 0
M  V30 570 O 55.3205 0.54935 -3.51938 0
M  V30 571 O 54.1795 1.09024 -5.35515 0
M  V30 572 H 51.2735 0.199666 -0.802535 0
M  V30 573 H 53.8195 -0.354017 -1.65966 0
M  V30 574 H 52.5915 -0.488461 -3.88239 0
M  V30 575 H 52.2145 1.22367 -3.78301 0
M  V30 576 N 53.2116 1.57565 -0.0334293 0
M  V30 577 C 54.4366 1.96689 0.657895 0
M  V30 578 C 54.8616 0.910057 1.64619 0
M  V30 579 O 54.2196 -0.128598 1.80843 0
M  V30 580 C 54.2676 3.34905 1.33683 0
M  V30 581 O 53.3716 3.31574 2.45219 0
M  V30 582 H 52.7126 0.641205 0.172489 0
M  V30 583 H 55.2426 2.04372 -0.0965621 0
M  V30 584 H 55.2526 3.71234 1.69262 0
M  V30 585 H 53.9276 4.11366 0.612411 0
M  V30 586 H 52.5046 3.06968 2.11719 0
M  V30 587 N 54.6897 -0.239769 1.55765 0
M  V30 588 C 56.1057 -0.588624 1.48349 0
M  V30 589 C 56.3057 -1.88005 0.72502 0
M  V30 590 O 55.3617 -2.51186 0.257269 0
M  V30 591 C 56.6747 -0.68474 2.928 0
M  V30 592 C 58.2227 -0.77659 3.03213 0
M  V30 593 C 58.6977 -0.904207 4.48986 0
M  V30 594 N 60.1887 -0.968896 4.52953 0
M  V30 595 C 60.9237 -1.08703 5.63002 0
M  V30 596 N 60.4197 -1.17026 6.82845 0
M  V30 597 N 62.2127 -1.12074 5.50814 0
M  V30 598 H 54.3637 0.607911 2.03515 0
M  V30 599 H 56.6267 0.21083 0.924259 0
M  V30 600 H 56.3327 0.194284 3.51163 0
M  V30 601 H 56.2067 -1.55435 3.43686 0
M  V30 602 H 58.5937 -1.64606 2.44926 0
M  V30 603 H 58.6747 0.118315 2.55526 0
M  V30 604 H 58.3187 -0.0392633 5.07885 0
M  V30 605 H 58.2487 -1.81426 4.9436 0
M  V30 606 H 60.7397 -0.915633 3.6664 0
M  V30 607 H 61.0527 -1.25966 7.62465 0
M  V30 608 H 59.3977 -1.13971 6.85591 0
M  V30 609 H 62.5887 -1.05226 4.5612 0
M  V30 610 H 62.7617 -1.20936 6.36615 0
M  V30 611 N 56.1678 -1.49265 -0.50573 0
M  V30 612 C 57.1148 -1.65585 -1.6078 0
M  V30 613 C 58.0848 -0.497396 -1.58478 0
M  V30 614 O 59.2698 -0.72385 -1.76536 0
M  V30 615 C 56.4098 -1.72408 -2.98948 0
M  V30 616 C 55.5228 -2.99525 -3.11301 0
M  V30 617 C 54.6578 -2.97356 -4.40174 0
M  V30 618 C 53.6968 -4.19074 -4.46143 0
M  V30 619 N 52.8338 -4.14841 -5.66437 0
M  V30 620 H 57.6738 -2.59688 -1.46172 0
M  V30 621 H 55.2108 -1.28761 -0.711261 0
M  V30 622 H 57.1688 -1.74344 -3.79025 0
M  V30 623 H 55.7988 -0.817753 -3.1227 0
M  V30 624 H 54.8508 -3.07222 -2.24318 0
M  V30 625 H 56.1628 -3.89518 -3.11572 0
M  V30 626 H 55.3168 -2.97829 -5.28567 0
M  V30 627 H 54.0558 -2.05133 -4.42461 0
M  V30 628 H 53.0608 -4.1885 -3.56153 0
M  V30 629 H 54.2858 -5.12483 -4.45575 0
M  V30 630 H 52.2318 -3.25453 -5.69575 0
M  V30 631 H 52.1488 -4.98564 -5.68304 0
M  V30 632 H 53.4168 -4.1941 -6.57051 0
M  V30 633 N 57.6459 0.756429 -1.3826 0
M  V30 634 C 59.0569 1.33359 -1.30661 0
M  V30 635 C 59.4079 1.96161 0.0388875 0
M  V30 636 O 58.5329 1.94874 0.940918 0
M  V30 637 C 59.1279 2.42477 -2.36622 0
M  V30 638 C 57.6869 2.95922 -2.3261 0
M  V30 639 C 56.8339 1.69275 -2.19639 0
M  V30 640 H 59.7849 0.55552 -1.4866 0
M  V30 641 H 59.8059 3.22345 -2.02174 0
M  V30 642 H 59.3179 1.96739 -3.34538 0
M  V30 643 H 57.4189 3.45996 -1.38267 0
M  V30 644 H 57.5319 3.50494 -3.26636 0
M  V30 645 H 55.8959 1.92793 -1.66442 0
M  V30 646 H 56.6789 1.25619 -3.19491 0
M  V30 647 N 59.124 1.23083 0.984299 0
M  V30 648 C 60.054 1.03292 2.09411 0
M  V30 649 C 61.035 -0.048923 1.7003 0
M  V30 650 O 62.22 0.114967 1.93859 0
M  V30 651 C 59.35 0.619155 3.41736 0
M  V30 652 C 58.304 1.64791 3.95004 0
M  V30 653 C 57.63 1.0897 5.23478 0
M  V30 654 C 58.93 3.03999 4.24714 0
M  V30 655 H 60.624 1.96119 2.26225 0
M  V30 656 H 58.17 0.944344 1.08711 0
M  V30 657 H 60.123 0.467777 4.18796 0
M  V30 658 H 58.847 -0.344786 3.24775 0
M  V30 659 H 57.506 1.78721 3.20085 0
M  V30 660 H 57.154 0.11686 5.02864 0
M  V30 661 H 56.854 1.77704 5.60085 0
M  V30 662 H 58.378 0.950093 6.03163 0
M  V30 663 H 59.792 2.93393 4.92538 0
M  V30 664 H 58.189 3.69936 4.72512 0
M  V30 665 H 59.259 3.53285 3.32142 0
M  V30 666 N 60.6021 -1.18246 1.0419 0
M  V30 667 C 62.0131 -1.69914 0.773698 0
M  V30 668 C 62.3641 -1.83085 -0.705297 0
M  V30 669 O 61.4891 -1.51123 -1.5489 0
M  V30 670 C 62.0841 -3.08619 1.39784 0
M  V30 671 C 60.6431 -3.57494 1.17792 0
M  V30 672 C 59.7901 -2.34013 1.48773 0
M  V30 673 H 62.7411 -1.02904 1.20816 0
M  V30 674 H 62.7621 -3.71958 0.801714 0
M  V30 675 H 62.2741 -2.99001 2.47426 0
M  V30 676 H 60.3751 -3.72406 0.120295 0
M  V30 677 H 60.4881 -4.40852 1.87581 0
M  V30 678 H 58.8521 -2.37986 0.907463 0
M  V30 679 H 59.6351 -2.27013 2.57527 0
M  V30 680 N 62.0802 -0.821533 -1.34494 0
M  V30 681 C 63.0272 -0.240397 -2.29545 0
M  V30 682 C 63.9972 0.634031 -1.53523 0
M  V30 683 O 65.1822 0.575966 -1.81899 0
M  V30 684 C 62.3222 0.592869 -3.39969 0
M  V30 685 C 61.4352 -0.30365 -4.30932 0
M  V30 686 C 60.5702 0.539049 -5.28458 0
M  V30 687 C 59.6092 -0.356942 -6.11058 0
M  V30 688 N 58.7462 0.446603 -7.00678 0
M  V30 689 H 63.5862 -1.05632 -2.7865 0
M  V30 690 H 61.1232 -0.532413 -1.37127 0
M  V30 691 H 63.0812 1.09129 -4.02675 0
M  V30 692 H 61.7112 1.37392 -2.92102 0
M  V30 693 H 60.7632 -0.920276 -3.691 0
M  V30 694 H 62.0752 -0.992661 -4.88823 0
M  V30 695 H 61.2292 1.102 -5.96608 0
M  V30 696 H 59.9682 1.26157 -4.71101 0
M  V30 697 H 58.9732 -0.932047 -5.41842 0
M  V30 698 H 60.1982 -1.07755 -6.70497 0
M  V30 699 H 58.1442 1.15282 -6.45791 0
M  V30 700 H 58.0612 -0.184048 -7.55776 0
M  V30 701 H 59.3292 0.992352 -7.73158 0
M  V30 702 N 63.5583 1.46682 -0.576371 0
M  V30 703 C 64.8353 1.95599 0.00703437 0
M  V30 704 C 65.2153 1.51904 1.46589 0
M  V30 705 O 64.5633 0.766755 2.15251 0
M  V30 706 C 64.7733 3.4864 -0.158404 0
M  V30 707 C 66.1213 4.24594 -0.0229439 0
M  V30 708 O 67.1453 3.56094 -0.0869173 0
M  V30 709 O 66.0043 5.46373 0.118015 0
M  V30 710 H 63.0983 0.825275 0.053384 0
M  V30 711 H 65.6443 1.56996 -0.644244 0
M  V30 712 H 64.4163 3.7331 -1.17282 0
M  V30 713 H 64.0393 3.94057 0.5296 0
M  V30 714 N 65.0364 0.313813 1.54444 0
M  V30 715 C 66.2844 -0.291099 1.99993 0
M  V30 716 C 66.6054 -1.53418 1.20366 0
M  V30 717 O 65.8754 -1.93544 0.302927 0
M  V30 718 H 64.4554 -0.110552 0.738774 0
M  V30 719 H 67.1174 0.428106 1.9014 0
M  V30 720 H 66.2134 -0.554268 3.07139 0
M  V30 721 N 66.5145 -1.57545 0.0417849 0
M  V30 722 C 67.7445 -1.96339 -0.642995 0
M  V30 723 C 68.1525 -0.917536 -1.65463 0
M  V30 724 O 67.4955 0.107747 -1.83384 0
M  V30 725 C 67.5575 -3.31333 -1.39494 0
M  V30 726 C 67.2215 -4.53796 -0.540204 0
M  V30 727 C 68.2185 -5.19553 0.189806 0
M  V30 728 C 65.9035 -5.0006 -0.473886 0
M  V30 729 C 67.8975 -6.29904 0.974674 0
M  V30 730 C 65.5845 -6.10289 0.314677 0
M  V30 731 C 66.5825 -6.75072 1.03765 0
M  V30 732 O 66.2705 -7.83183 1.81327 0
M  V30 733 H 66.0025 -0.651241 -0.181277 0
M  V30 734 H 68.5565 -2.05148 0.101665 0
M  V30 735 H 66.7865 -3.19052 -2.18502 0
M  V30 736 H 68.4755 -3.54942 -1.96904 0
M  V30 737 H 69.2415 -4.84774 0.147981 0
M  V30 738 H 65.1205 -4.49433 -1.0262 0
M  V30 739 H 68.6645 -6.80401 1.5395 0
M  V30 740 H 64.5615 -6.44506 0.358174 0
M  V30 741 H 65.3295 -7.99913 1.73438 0
M  V30 742 N 67.9926 0.231505 -1.5589 0
M  V30 743 C 68.9226 1.29022 -1.94617 0
M  V30 744 C 69.9036 1.4941 -0.813067 0
M  V30 745 O 71.0886 1.6176 -1.07459 0
M  V30 746 C 68.2186 2.64199 -2.25424 0
M  V30 747 C 67.1726 2.58484 -3.41131 0
M  V30 748 C 66.4986 3.97599 -3.57518 0
M  V30 749 C 67.7986 2.1413 -4.76388 0
M  V30 750 H 69.4926 0.968563 -2.83301 0
M  V30 751 H 67.0386 0.464479 -1.36303 0
M  V30 752 H 68.9916 3.38413 -2.51107 0
M  V30 753 H 67.7156 2.98032 -1.33583 0
M  V30 754 H 66.3746 1.86727 -3.15481 0
M  V30 755 H 66.0226 4.28723 -2.6307 0
M  V30 756 H 65.7226 3.94659 -4.35337 0
M  V30 757 H 67.2466 4.7349 -3.85538 0
M  V30 758 H 68.6606 2.78083 -5.01341 0
M  V30 759 H 67.0576 2.2227 -5.57419 0
M  V30 760 H 68.1276 1.09331 -4.72414 0
M  V30 761 N 69.4707 1.49531 0.497807 0
M  V30 762 C 70.6987 1.62893 1.27567 0
M  V30 763 C 71.1137 0.301585 1.86376 0
M  V30 764 O 70.4707 -0.713335 1.67982 0
M  V30 765 C 70.5217 2.70013 2.40364 0
M  V30 766 O 70.2427 3.976 1.83972 0
M  V30 767 C 71.7437 2.94109 3.31685 0
M  V30 768 H 68.9637 0.548298 0.386794 0
M  V30 769 H 71.5077 1.95584 0.597245 0
M  V30 770 H 69.6627 2.40092 3.04031 0
M  V30 771 H 70.0767 4.56631 2.58047 0
M  V30 772 H 71.5507 3.72788 4.07104 0
M  V30 773 H 72.0277 2.04147 3.88871 0
M  V30 774 H 72.6337 3.2546 2.73781 0
M  V30 775 N 70.9488 -0.749086 1.3866 0
M  V30 776 C 72.1978 -1.50371 1.3443 0
M  V30 777 C 72.5108 -1.95503 -0.0616397 0
M  V30 778 O 73.7168 -2.70554 -0.226489 0
M  V30 779 C 72.1728 -2.71644 2.36088 0
M  V30 780 C 71.7808 -2.3352 3.82325 0
M  V30 781 C 73.5248 -3.49518 2.40909 0
M  V30 782 C 71.4318 -3.51431 4.75658 0
M  V30 783 H 70.3618 -0.564628 0.499712 0
M  V30 784 H 73.0128 -0.818449 1.64237 0
M  V30 785 H 71.3948 -3.42175 1.9933 0
M  V30 786 H 72.5688 -1.70627 4.28046 0
M  V30 787 H 70.8838 -1.6877 3.80665 0
M  V30 788 H 73.4808 -4.37197 3.07836 0
M  V30 789 H 73.8238 -3.90992 1.42937 0
M  V30 790 H 74.3568 -2.86005 2.76489 0
M  V30 791 H 71.0958 -3.15019 5.74842 0
M  V30 792 H 70.6158 -4.13352 4.34627 0
M  V30 793 H 72.2948 -4.17953 4.93887 0
M  V30 794 N 72.4269 -1.23603 -0.977757 0
M  V30 795 C 73.8429 -0.999251 -1.24447 0
M  V30 796 C 74.0429 0.298053 -1.99283 0
M  V30 797 O 73.0989 1.01681 -2.31122 0
M  V30 798 C 74.4119 -2.20784 -2.04144 0
M  V30 799 C 75.9599 -2.25303 -2.17273 0
M  V30 800 C 76.4349 -3.45755 -3.00362 0
M  V30 801 N 77.9259 -3.4601 -3.07947 0
M  V30 802 C 78.6609 -4.35868 -3.72568 0
M  V30 803 N 78.1569 -5.35966 -4.38991 0
M  V30 804 N 79.9499 -4.23605 -3.6948 0
M  V30 805 H 72.1009 -2.06986 -0.476483 0
M  V30 806 H 74.3639 -0.907801 -0.273134 0
M  V30 807 H 74.0699 -3.14945 -1.56533 0
M  V30 808 H 73.9439 -2.22085 -3.04891 0
M  V30 809 H 76.3309 -1.3168 -2.64092 0
M  V30 810 H 76.4119 -2.28033 -1.15907 0
M  V30 811 H 76.0559 -4.39687 -2.5424 0
M  V30 812 H 75.9859 -3.40266 -4.01904 0
M  V30 813 H 78.4769 -2.73588 -2.60688 0
M  V30 814 H 78.7899 -6.00783 -4.86086 0
M  V30 815 H 77.1349 -5.39863 -4.37691 0
M  V30 816 H 80.3259 -3.44647 -3.16759 0
M  V30 817 H 80.4989 -4.93836 -4.1956 0
M  V30 818 N 73.905 1.17692 -1.04816 0
M  V30 819 C 74.868 2.19787 -0.650117 0
M  V30 820 C 75.868 1.58044 0.296427 0
M  V30 821 O 77.058 1.74012 0.0808097 0
M  V30 822 C 74.19 3.40869 0.0456987 0
M  V30 823 H 75.383 2.56516 -1.5537 0
M  V30 824 H 72.936 1.31708 -0.841594 0
M  V30 825 H 73.671 3.09681 0.962726 0
M  V30 826 H 73.456 3.86928 -0.634727 0
M  V30 827 H 74.946 4.16445 0.310432 0
M  V30 828 N 75.3831 0.828654 1.34056 0
M  V30 829 C 76.6601 0.341809 1.9259 0
M  V30 830 C 77.0401 -1.17158 1.75605 0
M  V30 831 O 76.3881 -1.98132 1.13824 0
M  V30 832 C 76.5981 0.777453 3.4023 0
M  V30 833 C 77.9461 0.779579 4.17382 0
M  V30 834 O 78.9701 0.7204 3.48839 0
M  V30 835 O 77.8291 0.857996 5.39723 0
M  V30 836 H 74.9231 0.0946085 0.821571 0
M  V30 837 H 77.4691 0.913827 1.42994 0
M  V30 838 H 76.2411 1.8196 3.46419 0
M  V30 839 H 75.8641 0.181444 3.97186 0
M  V30 840 N 76.8612 -1.46375 0.584142 0
M  V30 841 C 78.0892 -2.06761 0.0759296 0
M  V30 842 C 78.5042 -1.43266 -1.22965 0
M  V30 843 O 77.8612 -0.538458 -1.74376 0
M  V30 844 C 77.9122 -3.61375 -0.0950384 0
M  V30 845 O 77.6332 -4.22495 1.15887 0
M  V30 846 C 79.1342 -4.38693 -0.637434 0
M  V30 847 H 76.3542 -0.668479 0.0581075 0
M  V30 848 H 78.8982 -1.8798 0.805218 0
M  V30 849 H 77.0532 -3.79578 -0.774554 0
M  V30 850 H 77.4672 -5.15385 0.973598 0
M  V30 851 H 78.9412 -5.47464 -0.706237 0
M  V30 852 H 79.4182 -4.06836 -1.65472 0
M  V30 853 H 80.0242 -4.25299 0.00725967 0
M  V30 854 N 78.3393 -0.321999 -1.54275 0
M  V30 855 C 79.5863 0.281044 -2.0054 0
M  V30 856 C 79.9143 1.52265 -1.21019 0
M  V30 857 O 79.1693 1.93687 -0.279982 0
M  V30 858 C 79.4683 0.661769 -3.5122 0
M  V30 859 C 79.1343 -0.480482 -4.48333 0
M  V30 860 C 77.7963 -0.794005 -4.74604 0
M  V30 861 C 80.1483 -1.24783 -5.06042 0
M  V30 862 C 77.4763 -1.87763 -5.55844 0
M  V30 863 C 79.8283 -2.32153 -5.88462 0
M  V30 864 C 78.4923 -2.64089 -6.13036 0
M  V30 865 H 77.7623 0.102841 -0.733829 0
M  V30 866 H 80.4093 -0.445453 -1.86247 0
M  V30 867 H 78.7143 1.46867 -3.63232 0
M  V30 868 H 80.4113 1.13989 -3.84457 0
M  V30 869 H 77.0013 -0.226039 -4.28004 0
M  V30 870 H 81.1853 -1.01887 -4.85729 0
M  V30 871 H 76.4413 -2.12954 -5.73115 0
M  V30 872 H 80.6153 -2.92057 -6.32199 0
M  V30 873 H 78.2423 -3.48185 -6.75775 0
M  V30 874 N 79.8174 1.5752 -0.0501392 0
M  V30 875 C 80.7804 2.1037 0.909786 0
M  V30 876 C 81.7804 1.02308 1.24056 0
M  V30 877 O 82.9704 1.28385 1.17741 0
M  V30 878 C 80.1024 2.58708 2.21998 0
M  V30 879 H 81.2954 2.96479 0.451665 0
M  V30 880 H 78.8484 1.55038 0.198248 0
M  V30 881 H 79.5834 1.75989 2.72394 0
M  V30 882 H 79.3684 3.37675 1.99295 0
M  V30 883 H 80.8584 2.99747 2.9076 0
M  V30 884 N 81.2955 -0.223234 1.56011 0
M  V30 885 C 82.2055 -1.29766 1.95443 0
M  V30 886 C 83.2215 -1.51373 0.858028 0
M  V30 887 O 84.3975 -1.64536 1.16146 0
M  V30 888 C 81.4625 -2.62772 2.26167 0
M  V30 889 C 80.5235 -2.49482 3.49367 0
M  V30 890 C 79.7565 -3.76145 3.78616 0
M  V30 891 O 79.9795 -4.79087 3.09568 0
M  V30 892 O 78.9135 -3.73358 4.72109 0
M  V30 893 H 82.7395 -0.99309 2.87004 0
M  V30 894 H 80.3245 -0.425958 1.43199 0
M  V30 895 H 82.2065 -3.41327 2.47131 0
M  V30 896 H 80.8815 -2.92913 1.37781 0
M  V30 897 H 79.7885 -1.69133 3.33684 0
M  V30 898 H 81.1215 -2.2428 4.38131 0
M  V30 899 N 82.7736 -1.49793 -0.48987 0
M  V30 900 C 84.0196 -1.60078 -1.24511 0
M  V30 901 C 84.3526 -0.291608 -1.91998 0
M  V30 902 O 83.6276 0.705647 -1.81248 0
M  V30 903 C 83.9106 -2.76791 -2.30345 0
M  V30 904 C 83.7636 -4.17535 -1.67286 0
M  V30 905 C 85.0826 -2.89111 -3.31817 0
M  V30 906 H 82.2016 -0.582645 -0.451324 0
M  V30 907 H 84.8436 -1.82117 -0.541612 0
M  V30 908 H 82.9936 -2.5813 -2.90346 0
M  V30 909 H 84.6656 -4.4774 -1.11026 0
M  V30 910 H 82.9086 -4.22665 -0.976577 0
M  V30 911 H 83.5796 -4.95094 -2.44103 0
M  V30 912 H 86.0556 -3.06133 -2.81819 0
M  V30 913 H 84.9316 -3.72433 -4.03219 0
M  V30 914 H 85.1926 -1.9893 -3.94815 0
M  V30 915 N 84.2517 0.741722 -1.39055 0
M  V30 916 C 85.4987 1.50114 -1.35912 0
M  V30 917 C 85.8267 1.94443 0.0470937 0
M  V30 918 O 85.0817 1.66612 1.02659 0
M  V30 919 C 85.3807 2.7592 -2.27163 0
M  V30 920 C 85.0467 2.50493 -3.74919 0
M  V30 921 C 83.7087 2.43267 -4.1518 0
M  V30 922 C 86.0607 2.28585 -4.684 0
M  V30 923 C 83.3887 2.12166 -5.46994 0
M  V30 924 C 85.7407 1.99002 -6.00484 0
M  V30 925 C 84.4047 1.90241 -6.39816 0
M  V30 926 H 83.6747 0.549306 -0.497336 0
M  V30 927 H 86.3217 0.851896 -1.71508 0
M  V30 928 H 84.6267 3.45553 -1.84663 0
M  V30 929 H 86.3237 3.33923 -2.22028 0
M  V30 930 H 82.9137 2.56992 -3.43006 0
M  V30 931 H 87.0977 2.33139 -4.38132 0
M  V30 932 H 82.3537 2.03901 -5.76398 0
M  V30 933 H 86.5277 1.81057 -6.72452 0
M  V30 934 H 84.1547 1.65907 -7.41875 0
M  V30 935 N 85.7298 1.2412 0.971189 0
M  V30 936 C 86.9778 1.07668 1.71032 0
M  V30 937 C 87.2988 -0.385797 1.91146 0
M  V30 938 O 86.5688 -1.27569 1.4867 0
M  V30 939 H 85.1488 0.395429 0.633755 0
M  V30 940 H 87.8108 1.55984 1.16855 0
M  V30 941 H 86.9068 1.57195 2.69622 0
M  V30 942 N 87.2079 -1.17134 1.05439 0
M  V30 943 C 88.4569 -1.86791 0.761049 0
M  V30 944 C 88.7699 -1.82072 -0.714795 0
M  V30 945 O 89.9759 -2.47223 -1.12218 0
M  V30 946 C 88.4319 -3.35166 1.31117 0
M  V30 947 C 88.0399 -3.48381 2.81664 0
M  V30 948 C 89.7839 -4.10134 1.09499 0
M  V30 949 C 87.6909 -4.90793 3.29964 0
M  V30 950 H 86.6209 -0.699681 0.281002 0
M  V30 951 H 89.2719 -1.3226 1.27199 0
M  V30 952 H 87.6539 -3.8925 0.72803 0
M  V30 953 H 88.8279 -3.04502 3.45855 0
M  V30 954 H 87.1429 -2.86836 3.01851 0
M  V30 955 H 89.7399 -5.152 1.43084 0
M  V30 956 H 90.0829 -4.16287 0.0328772 0
M  V30 957 H 90.6159 -3.62264 1.64346 0
M  V30 958 H 87.3549 -4.89816 4.35616 0
M  V30 959 H 86.8749 -5.35333 2.70516 0
M  V30 960 H 88.5539 -5.59573 3.24787 0
M  V30 961 N 88.686 -0.835752 -1.33615 0
M  V30 962 C 89.963 -0.352017 -1.92406 0
M  V30 963 C 90.343 1.16225 -1.76224 0
M  V30 964 O 89.691 1.97526 -1.14873 0
M  V30 965 C 89.901 -0.795485 -3.39813 0
M  V30 966 C 91.249 -0.801703 -4.16963 0
M  V30 967 O 92.273 -0.738889 -3.48452 0
M  V30 968 O 91.132 -0.886607 -5.3926 0
M  V30 969 H 88.226 -0.0989641 -0.821057 0
M  V30 970 H 90.772 -0.921397 -1.42507 0
M  V30 971 H 89.544 -1.83795 -3.45449 0
M  V30 972 H 89.167 -0.202505 -3.97084 0
M  V30 973 N 90.1641 1.46063 -0.591896 0
M  V30 974 C 91.4101 2.02638 -0.0811191 0
M  V30 975 C 91.7431 1.4613 1.27905 0
M  V30 976 O 91.0181 0.629908 1.84017 0
M  V30 977 C 91.3011 3.60091 -0.0252436 0
M  V30 978 C 91.1541 4.26965 -1.41496 0
M  V30 979 C 92.4731 4.3496 0.670685 0
M  V30 980 H 89.5921 0.73635 -0.0309524 0
M  V30 981 H 92.2341 1.741 -0.760859 0
M  V30 982 H 90.3841 3.84535 0.553624 0
M  V30 983 H 92.0561 4.13756 -2.0397 0
M  V30 984 H 90.2991 3.85971 -1.98011 0
M  V30 985 H 90.9701 5.35781 -1.32825 0
M  V30 986 H 93.4461 4.15716 0.178825 0
M  V30 987 H 92.3221 5.44686 0.678837 0
M  V30 988 H 92.5831 4.06685 1.73379 0
M  V30 989 N 91.6422 0.330177 1.54103 0
M  V30 990 C 92.5892 -0.532762 2.24567 0
M  V30 991 C 93.5592 -1.10635 1.23892 0
M  V30 992 O 94.7442 -1.14546 1.5259 0
M  V30 993 C 91.8842 -1.6845 3.01195 0
M  V30 994 C 90.9972 -1.13951 4.167 0
M  V30 995 C 90.1322 -2.25746 4.80845 0
M  V30 996 C 89.1712 -1.6853 5.88442 0
M  V30 997 N 88.3082 -2.74014 6.46421 0
M  V30 998 H 93.1482 0.0746905 2.97906 0
M  V30 999 H 90.6852 0.048632 1.4702 0
M  V30 1000 H 92.6432 -2.36234 3.43874 0
M  V30 1001 H 91.2732 -2.26314 2.30178 0
M  V30 1002 H 90.3252 -0.35301 3.78758 0
M  V30 1003 H 91.6372 -0.680892 4.94131 0
M  V30 1004 H 90.7912 -3.01422 5.26526 0
M  V30 1005 H 89.5302 -2.74947 4.0281 0
M  V30 1006 H 88.5352 -0.913543 5.42157 0
M  V30 1007 H 89.7602 -1.20198 6.68378 0
M  V30 1008 H 87.7062 -3.22494 5.71256 0
M  V30 1009 H 87.6232 -2.32735 7.19285 0
M  V30 1010 H 88.8912 -3.49499 6.96757 0
M  V30 1011 N 93.1203 -1.57491 0.0584922 0
M  V30 1012 C 94.0703 -2.08474 -0.923188 0
M  V30 1013 C 95.0543 -0.991479 -1.26722 0
M  V30 1014 O 96.2463 -1.25473 -1.24842 0
M  V30 1015 C 93.3753 -2.6392 -2.19548 0
M  V30 1016 C 92.4613 -3.80227 -1.87852 0
M  V30 1017 N 92.8523 -4.89714 -1.26546 0
M  V30 1018 C 91.1503 -3.89271 -2.17679 0
M  V30 1019 C 91.8513 -5.70689 -1.12644 0
M  V30 1020 N 90.8273 -5.18531 -1.63176 0
M  V30 1021 H 94.6293 -2.90517 -0.444653 0
M  V30 1022 H 92.1433 -1.61745 -0.145764 0
M  V30 1023 H 94.1403 -2.98752 -2.9078 0
M  V30 1024 H 92.8003 -1.83318 -2.68001 0
M  V30 1025 H 93.8113 -5.09358 -0.936757 0
M  V30 1026 H 90.4883 -3.19623 -2.68602 0
M  V30 1027 H 91.8783 -6.6875 -0.6499 0
M  V30 1028 N 94.5984 0.214957 -1.56127 0
M  V30 1029 C 95.5614 1.24997 -1.92116 0
M  V30 1030 C 96.5614 1.39467 -0.800344 0
M  V30 1031 O 97.7514 1.37619 -1.06802 0
M  V30 1032 C 94.8834 2.62271 -2.17777 0
M  V30 1033 H 96.0764 0.942875 -2.84693 0
M  V30 1034 H 93.6294 0.455654 -1.49511 0
M  V30 1035 H 94.3644 2.98068 -1.27773 0
M  V30 1036 H 94.1494 2.53143 -2.99434 0
M  V30 1037 H 95.6394 3.36946 -2.46693 0
M  V30 1038 N 96.0765 1.50051 0.48192 0
M  V30 1039 C 97.3065 1.63999 1.2565 0
M  V30 1040 C 97.7145 0.318288 1.86504 0
M  V30 1041 O 97.0575 -0.708534 1.69486 0
M  V30 1042 C 97.1195 2.66504 2.4128 0
M  V30 1043 C 96.7835 4.10352 2.01148 0
M  V30 1044 C 97.7805 4.96562 1.54021 0
M  V30 1045 C 95.4655 4.56203 2.10199 0
M  V30 1046 C 97.4595 6.26668 1.16473 0
M  V30 1047 C 95.1465 5.86318 1.72264 0
M  V30 1048 C 96.1445 6.71375 1.25477 0
M  V30 1049 O 95.8325 7.99062 0.880626 0
M  V30 1050 H 95.5645 0.55456 0.386574 0
M  V30 1051 H 98.1185 1.96954 0.582944 0
M  V30 1052 H 96.3485 2.28769 3.11772 0
M  V30 1053 H 98.0375 2.69783 3.03268 0
M  V30 1054 H 98.8035 4.62358 1.46458 0
M  V30 1055 H 94.6825 3.90152 2.45566 0
M  V30 1056 H 98.2265 6.93011 0.798841 0
M  V30 1057 H 94.1235 6.20046 1.79482 0
M  V30 1058 H 94.8915 8.12239 1.01043 0
M  V30 1059 N 97.5546 -0.734337 1.39446 0
M  V30 1060 C 98.5176 -1.83004 1.37994 0
M  V30 1061 C 99.5176 -1.58397 0.276938 0
M  V30 1062 O 100.708 -1.65785 0.534875 0
M  V30 1063 C 97.8396 -3.20802 1.1532 0
M  V30 1064 H 99.0326 -1.85694 2.35494 0
M  V30 1065 H 96.5856 -0.938059 1.25021 0
M  V30 1066 H 97.3206 -3.23772 0.185036 0
M  V30 1067 H 97.1056 -3.4006 1.95197 0
M  V30 1068 H 98.5956 -4.00862 1.17046 0
M  V30 1069 N 99.0327 -1.24633 -0.964593 0
M  V30 1070 C 99.9957 -1.0424 -2.04124 0
M  V30 1071 C 100.996 0.00137563 -1.608 0
M  V30 1072 O 102.186 -0.239883 -1.7254 0
M  V30 1073 C 99.3177 -0.580588 -3.3592 0
M  V30 1074 H 100.511 -1.99803 -2.23649 0
M  V30 1075 H 98.0637 -1.06899 -1.14027 0
M  V30 1076 H 98.7987 0.3781 -3.22088 0
M  V30 1077 H 98.5837 -1.33398 -3.6871 0
M  V30 1078 H 100.074 -0.459034 -4.15069 0
M  V30 1079 N 100.511 1.16574 -1.06058 0
M  V30 1080 C 101.441 2.23057 -0.690488 0
M  V30 1081 C 102.422 1.67141 0.315901 0
M  V30 1082 O 103.607 1.93253 0.191556 0
M  V30 1083 C 100.737 3.47222 -0.073625 0
M  V30 1084 C 99.6908 4.16016 -1.00573 0
M  V30 1085 C 99.0168 5.34104 -0.252289 0
M  V30 1086 C 100.317 4.67264 -2.33371 0
M  V30 1087 H 102.011 2.54271 -1.58072 0
M  V30 1088 H 99.5568 1.22218 -0.76149 0
M  V30 1089 H 101.51 4.20939 0.19714 0
M  V30 1090 H 100.234 3.15302 0.85161 0
M  V30 1091 H 98.8928 3.44223 -1.2612 0
M  V30 1092 H 98.5408 4.98437 0.675988 0
M  V30 1093 H 98.2408 5.81072 -0.873455 0
M  V30 1094 H 99.7648 6.10599 0.0109857 0
M  V30 1095 H 101.179 5.32573 -2.12223 0
M  V30 1096 H 99.5758 5.24843 -2.90963 0
M  V30 1097 H 100.646 3.83602 -2.96611 0
M  V30 1098 N 101.989 0.842826 1.3317 0
M  V30 1099 C 103.266 0.362216 1.92217 0
M  V30 1100 C 103.646 -1.15289 1.76838 0
M  V30 1101 O 102.994 -1.96914 1.15919 0
M  V30 1102 C 103.204 0.813495 3.39387 0
M  V30 1103 C 104.552 0.823804 4.16532 0
M  V30 1104 O 105.576 0.757358 3.48055 0
M  V30 1105 O 104.435 0.915193 5.38782 0
M  V30 1106 H 101.529 0.103317 0.820521 0
M  V30 1107 H 104.075 0.928942 1.42017 0
M  V30 1108 H 102.847 1.85624 3.4447 0
M  V30 1109 H 102.47 0.223561 3.96971 0
M  V30 1110 N 103.467 -1.45747 0.599634 0
M  V30 1111 C 104.744 -1.95585 0.0240846 0
M  V30 1112 C 105.124 -1.54217 -1.44154 0
M  V30 1113 O 104.472 -0.800903 -2.14004 0
M  V30 1114 C 104.682 -3.48344 0.21385 0
M  V30 1115 C 106.03 -4.24504 0.0904902 0
M  V30 1116 O 107.054 -3.55911 0.143558 0
M  V30 1117 O 105.913 -5.46491 -0.0310766 0
M  V30 1118 H 103.007 -0.82602 -0.0402478 0
M  V30 1119 H 105.553 -1.55951 0.669139 0
M  V30 1120 H 104.325 -3.71397 1.23206 0
M  V30 1121 H 103.948 -3.9485 -0.466842 0
M  V30 1122 N 104.945 -0.338344 -1.53925 0
M  V30 1123 C 105.908 0.508299 -2.23493 0
M  V30 1124 C 106.908 1.03175 -1.23335 0
M  V30 1125 O 108.098 0.921826 -1.47811 0
M  V30 1126 C 105.23 1.70754 -2.95052 0
M  V30 1127 H 106.423 -0.100058 -2.99733 0
M  V30 1128 H 103.976 -0.0896198 -1.56043 0
M  V30 1129 H 104.711 2.35474 -2.22986 0
M  V30 1130 H 104.496 1.33946 -3.68512 0
M  V30 1131 H 105.986 2.30818 -3.48013 0
M  V30 1132 N 106.423 1.57458 -0.0668435 0
M  V30 1133 C 107.386 2.11323 0.887422 0
M  V30 1134 C 108.386 1.03618 1.22964 0
M  V30 1135 O 109.576 1.29626 1.16373 0
M  V30 1136 C 106.708 2.61048 2.19242 0
M  V30 1137 H 107.901 2.96942 0.420194 0
M  V30 1138 H 105.454 1.55239 0.181793 0
M  V30 1139 H 106.189 1.78868 2.70512 0
M  V30 1140 H 105.974 3.39769 1.95702 0
M  V30 1141 H 107.464 3.02814 2.87565 0
M  V30 1142 N 107.901 -0.206675 1.56239 0
M  V30 1143 C 109.129 -0.945345 1.8404 0
M  V30 1144 C 109.544 -1.77336 0.647885 0
M  V30 1145 O 108.901 -1.78425 -0.383511 0
M  V30 1146 C 108.952 -1.8509 3.10522 0
M  V30 1147 O 108.673 -1.05634 4.25174 0
M  V30 1148 C 110.174 -2.70222 3.51418 0
M  V30 1149 H 107.394 -0.276372 0.61144 0
M  V30 1150 H 109.938 -0.217417 2.03341 0
M  V30 1151 H 108.093 -2.53259 2.93153 0
M  V30 1152 H 108.507 -1.67238 4.97124 0
M  V30 1153 H 109.981 -3.29438 4.42916 0
M  V30 1154 H 110.458 -3.43358 2.73864 0
M  V30 1155 H 111.064 -2.07443 3.71278 0
M  V30 1156 N 109.379 -1.50304 -0.473955 0
M  V30 1157 C 110.326 -1.68959 -1.57231 0
M  V30 1158 C 111.296 -0.530899 -1.57387 0
M  V30 1159 O 112.481 -0.761133 -1.74961 0
M  V30 1160 C 109.621 -1.7871 -2.95223 0
M  V30 1161 C 108.734 -3.06061 -3.04878 0
M  V30 1162 C 107.869 -3.06626 -4.33767 0
M  V30 1163 C 106.908 -4.28443 -4.37154 0
M  V30 1164 N 106.045 -4.26763 -5.5751 0
M  V30 1165 H 110.885 -2.6273 -1.40631 0
M  V30 1166 H 108.422 -1.30241 -0.683789 0
M  V30 1167 H 110.38 -1.82344 -3.75242 0
M  V30 1168 H 109.01 -0.883806 -3.10465 0
M  V30 1169 H 108.062 -3.11911 -2.17751 0
M  V30 1170 H 109.374 -3.96039 -3.0324 0
M  V30 1171 H 108.528 -3.08973 -5.22131 0
M  V30 1172 H 107.267 -2.14473 -4.3801 0
M  V30 1173 H 106.272 -4.2631 -3.47188 0
M  V30 1174 H 107.497 -5.2182 -4.34605 0
M  V30 1175 H 105.443 -3.37462 -5.62544 0
M  V30 1176 H 105.36 -5.10507 -5.57601 0
M  V30 1177 H 106.628 -4.33253 -6.48006 0
M  V30 1178 N 110.857 0.726932 -1.39834 0
M  V30 1179 C 111.787 1.85405 -1.41941 0
M  V30 1180 C 112.768 1.67751 -0.281728 0
M  V30 1181 O 113.953 1.8795 -0.488717 0
M  V30 1182 C 111.083 3.23243 -1.2701 0
M  V30 1183 C 110.037 3.55549 -2.38262 0
M  V30 1184 C 109.363 4.9241 -2.08415 0
M  V30 1185 C 110.663 3.577 -3.80589 0
M  V30 1186 H 112.357 1.83899 -2.36266 0
M  V30 1187 H 109.903 0.883349 -1.13723 0
M  V30 1188 H 111.856 4.01775 -1.27103 0
M  V30 1189 H 110.58 3.25296 -0.291564 0
M  V30 1190 H 109.239 2.79351 -2.37399 0
M  V30 1191 H 108.887 4.91052 -1.0898 0
M  V30 1192 H 108.587 5.14992 -2.82943 0
M  V30 1193 H 110.111 5.73289 -2.10171 0
M  V30 1194 H 111.525 4.26293 -3.83337 0
M  V30 1195 H 109.922 3.91804 -4.54543 0
M  V30 1196 H 110.992 2.57328 -4.10987 0
M  V30 1197 N 112.336 1.25143 0.95797 0
M  V30 1198 C 113.583 1.09692 1.70217 0
M  V30 1199 C 113.911 -0.362654 1.91089 0
M  V30 1200 O 113.166 -1.28386 1.47701 0
M  V30 1201 C 113.465 1.79272 3.09187 0
M  V30 1202 C 113.131 3.29196 3.08125 0
M  V30 1203 C 111.793 3.70096 3.07543 0
M  V30 1204 C 114.145 4.24995 3.0171 0
M  V30 1205 C 111.473 5.05213 2.9829 0
M  V30 1206 C 113.825 5.60132 2.93999 0
M  V30 1207 C 112.489 6.00365 2.9175 0
M  V30 1208 H 111.759 0.401393 0.622868 0
M  V30 1209 H 114.406 1.55372 1.11945 0
M  V30 1210 H 112.711 1.26014 3.70982 0
M  V30 1211 H 114.408 1.64773 3.65583 0
M  V30 1212 H 110.998 2.96651 3.09348 0
M  V30 1213 H 115.182 3.9439 3.01281 0
M  V30 1214 H 110.438 5.35569 2.94916 0
M  V30 1215 H 114.612 6.3406 2.87996 0
M  V30 1216 H 112.239 7.05023 2.84336 0
M  V30 1217 N 113.814 -1.1601 1.06675 0
M  V30 1218 C 114.762 -2.22586 0.675157 0
M  V30 1219 C 115.756 -1.66525 -0.310766 0
M  V30 1220 O 116.962 -1.79145 -0.175215 0
M  V30 1221 H 113.337 -0.724855 0.200223 0
M  V30 1222 H 115.308 -2.52899 1.58381 0
M  V30 1223 C 114.057 -3.47604 0.0817162 0
M  V30 1224 H 113.38 -3.91058 0.831484 0
M  V30 1225 H 114.82 -4.23718 -0.154708 0
M  V30 1226 C 113.279 -3.15718 -1.17576 0
M  V30 1227 O 113.809 -3.31878 -2.26318 0
M  V30 1228 N 112.015 -2.69816 -1.07923 0
M  V30 1229 H 111.562 -2.56866 -0.194293 0
M  V30 1230 H 111.52 -2.48855 -1.92141 0
M  V30 1231 N 115.292 -0.849877 -1.32721 0
M  V30 1232 C 116.708 -0.539102 -1.50219 0
M  V30 1233 C 116.908 0.931271 -1.78689 0
M  V30 1234 O 115.964 1.71455 -1.85363 0
M  V30 1235 C 117.277 -1.42196 -2.64954 0
M  V30 1236 C 118.825 -1.42189 -2.78839 0
M  V30 1237 C 119.3 -2.28985 -3.96648 0
M  V30 1238 N 120.791 -2.26754 -4.03902 0
M  V30 1239 C 121.526 -2.90644 -4.94281 0
M  V30 1240 N 121.022 -3.63629 -5.897 0
M  V30 1241 N 122.815 -2.80057 -4.87365 0
M  V30 1242 H 114.966 -1.80156 -1.12506 0
M  V30 1243 H 117.229 -0.769217 -0.554085 0
M  V30 1244 H 116.935 -2.46733 -2.50631 0
M  V30 1245 H 116.809 -1.10591 -3.60624 0
M  V30 1246 H 119.196 -0.38419 -2.92588 0
M  V30 1247 H 119.277 -1.77807 -1.83898 0
M  V30 1248 H 118.921 -3.32819 -3.83658 0
M  V30 1249 H 118.851 -1.90702 -4.90857 0
M  V30 1250 H 121.342 -1.73688 -3.3562 0
M  V30 1251 H 121.655 -4.09558 -6.55349 0
M  V30 1252 H 120 -3.67737 -5.89741 0
M  V30 1253 H 123.191 -2.22593 -4.11789 0
M  V30 1254 H 123.364 -3.30132 -5.57599 0
M  V30 1255 N 116.77 1.45427 -0.607355 0
M  V30 1256 C 118.047 1.9557 -0.0344566 0
M  V30 1257 C 118.427 1.54979 1.43334 0
M  V30 1258 O 117.775 0.812241 2.13576 0
M  V30 1259 C 117.985 3.48226 -0.232321 0
M  V30 1260 C 119.333 4.2445 -0.113001 0
M  V30 1261 O 120.357 3.55829 -0.162431 0
M  V30 1262 O 119.216 5.465 0.00209442 0
M  V30 1263 H 116.31 0.826222 0.0358667 0
M  V30 1264 H 118.856 1.55594 -0.6774 0
M  V30 1265 H 117.628 3.70739 -1.25174 0
M  V30 1266 H 117.251 3.95092 0.445896 0
M  V30 1267 N 118.248 0.346503 1.53744 0
M  V30 1268 C 119.497 -0.250122 2.00143 0
M  V30 1269 C 119.81 -1.51418 1.23822 0
M  V30 1270 O 121.016 -2.18823 1.60713 0
M  V30 1271 C 119.472 -0.496252 3.56462 0
M  V30 1272 C 119.08 0.752077 4.41642 0
M  V30 1273 C 120.824 -1.05157 4.11269 0
M  V30 1274 C 118.731 0.476583 5.89477 0
M  V30 1275 H 117.661 -0.0972409 0.747703 0
M  V30 1276 H 120.312 0.46229 1.77581 0
M  V30 1277 H 118.694 -1.26944 3.75102 0
M  V30 1278 H 119.868 1.5266 4.34778 0
M  V30 1279 H 118.183 1.22925 3.97842 0
M  V30 1280 H 120.78 -1.27269 5.19333 0
M  V30 1281 H 121.123 -2.00799 3.64672 0
M  V30 1282 H 121.656 -0.339019 3.96353 0
M  V30 1283 H 118.395 1.4028 6.40314 0
M  V30 1284 H 117.915 -0.259794 5.99237 0
M  V30 1285 H 119.594 0.0949315 6.4693 0
M  V30 1286 N 119.726 -1.57421 0.075193 0
M  V30 1287 C 121.142 -1.57099 -0.281444 0
M  V30 1288 C 121.342 -1.08486 -1.69803 0
M  V30 1289 O 120.398 -0.752279 -2.41033 0
M  V30 1290 C 121.711 -3.00571 -0.0880041 0
M  V30 1291 C 123.259 -3.12605 -0.157281 0
M  V30 1292 C 123.734 -4.57999 0.0079207 0
M  V30 1293 N 125.225 -4.63176 -0.0475725 0
M  V30 1294 C 125.96 -5.73373 0.0557876 0
M  V30 1295 N 125.456 -6.92473 0.21286 0
M  V30 1296 N 127.249 -5.621 -0.00152098 0
M  V30 1297 H 119.4 -1.87335 1.00098 0
M  V30 1298 H 121.663 -0.86377 0.390646 0
M  V30 1299 H 121.369 -3.40262 0.889629 0
M  V30 1300 H 121.243 -3.67754 -0.838875 0
M  V30 1301 H 123.63 -2.72798 -1.1254 0
M  V30 1302 H 123.711 -2.48053 0.62475 0
M  V30 1303 H 123.355 -4.98496 0.972824 0
M  V30 1304 H 123.285 -5.20586 -0.793556 0
M  V30 1305 H 125.776 -3.7753 -0.167244 0
M  V30 1306 H 126.089 -7.72279 0.283781 0
M  V30 1307 H 124.434 -6.94556 0.248267 0
M  V30 1308 H 127.625 -4.67938 -0.122958 0
M  V30 1309 H 127.798 -6.47948 0.0824844 0
M  V30 1310 N 121.204 0.198386 -1.56346 0
M  V30 1311 C 122.62 0.549085 -1.49857 0
M  V30 1312 C 122.82 1.86016 -0.774611 0
M  V30 1313 O 121.876 2.50416 -0.323776 0
M  V30 1314 C 123.189 0.606868 -2.94512 0
M  V30 1315 C 124.737 0.695925 -3.05165 0
M  V30 1316 C 125.212 0.784848 -4.51225 0
M  V30 1317 N 126.703 0.848463 -4.55363 0
M  V30 1318 C 127.438 0.937378 -5.65686 0
M  V30 1319 N 126.934 0.9888 -6.85707 0
M  V30 1320 N 128.727 0.974312 -5.53592 0
M  V30 1321 H 120.878 -0.661655 -2.01831 0
M  V30 1322 H 123.141 -0.235261 -0.918344 0
M  V30 1323 H 122.847 -0.28732 -3.50524 0
M  V30 1324 H 122.721 1.46268 -3.47686 0
M  V30 1325 H 125.108 1.58055 -2.49204 0
M  V30 1326 H 125.189 -0.186022 -2.55123 0
M  V30 1327 H 124.833 -0.0954072 -5.0781 0
M  V30 1328 H 124.763 1.68255 -4.98997 0
M  V30 1329 H 127.254 0.818103 -3.68938 0
M  V30 1330 H 127.567 1.05707 -7.65536 0
M  V30 1331 H 125.912 0.957534 -6.88372 0
M  V30 1332 H 129.103 0.930954 -4.58749 0
M  V30 1333 H 129.276 1.04015 -6.39597 0
M  V30 1334 N 122.682 1.50554 0.465978 0
M  V30 1335 C 123.912 1.65323 1.23903 0
M  V30 1336 C 124.32 0.338051 1.86155 0
M  V30 1337 O 123.663 -0.690518 1.70228 0
M  V30 1338 C 123.725 2.69048 2.3844 0
M  V30 1339 C 123.389 4.12462 1.96784 0
M  V30 1340 C 124.386 4.98168 1.48745 0
M  V30 1341 C 122.071 4.58407 2.05349 0
M  V30 1342 C 124.065 6.27868 1.0982 0
M  V30 1343 C 121.752 5.88112 1.66035 0
M  V30 1344 C 122.75 6.72668 1.18349 0
M  V30 1345 O 122.438 7.99951 0.795825 0
M  V30 1346 H 122.17 0.558629 0.38067 0
M  V30 1347 H 124.724 1.97561 0.562022 0
M  V30 1348 H 122.954 2.32062 3.09328 0
M  V30 1349 H 124.643 2.72985 3.0039 0
M  V30 1350 H 125.409 4.63885 1.41546 0
M  V30 1351 H 121.288 3.92735 2.41414 0
M  V30 1352 H 124.832 6.93819 0.725293 0
M  V30 1353 H 120.729 6.21914 1.72895 0
M  V30 1354 H 121.497 8.13265 0.924222 0
M  V30 1355 N 124.16 -0.719506 1.40217 0
M  V30 1356 C 125.406 -1.48152 1.38488 0
M  V30 1357 C 125.739 -1.94195 -0.0141867 0
M  V30 1358 O 125.014 -1.67884 -0.982096 0
M  V30 1359 C 125.297 -2.71035 2.37091 0
M  V30 1360 C 125.15 -2.30912 3.86005 0
M  V30 1361 C 126.469 -3.73182 2.33288 0
M  V30 1362 H 123.588 -0.537395 0.504357 0
M  V30 1363 H 126.23 -0.821472 1.71324 0
M  V30 1364 H 124.38 -3.27352 2.0922 0
M  V30 1365 H 126.052 -1.80107 4.24687 0
M  V30 1366 H 124.295 -1.62958 4.02029 0
M  V30 1367 H 124.966 -3.18978 4.50508 0
M  V30 1368 H 127.442 -3.26485 2.57966 0
M  V30 1369 H 126.318 -4.56806 3.04334 0
M  V30 1370 H 126.579 -4.21202 1.34317 0
M  V30 1371 N 125.638 -1.25649 -0.95132 0
M  V30 1372 C 126.585 -1.06323 -2.04851 0
M  V30 1373 C 127.555 0.0286491 -1.66075 0
M  V30 1374 O 128.74 -0.12917 -1.90362 0
M  V30 1375 C 125.88 -0.691529 -3.381 0
M  V30 1376 C 124.993 -1.85861 -3.89974 0
M  V30 1377 C 124.128 -1.43096 -5.11563 0
M  V30 1378 C 123.167 -2.56696 -5.55674 0
M  V30 1379 N 122.304 -2.14684 -6.68472 0
M  V30 1380 H 127.144 -2.00222 -2.20715 0
M  V30 1381 H 124.681 -0.997027 -1.08156 0
M  V30 1382 H 126.639 -0.456963 -4.1469 0
M  V30 1383 H 125.269 0.210474 -3.22113 0
M  V30 1384 H 124.321 -2.20639 -3.09875 0
M  V30 1385 H 125.633 -2.71161 -4.18657 0
M  V30 1386 H 124.787 -1.15624 -5.9558 0
M  V30 1387 H 123.526 -0.548722 -4.84603 0
M  V30 1388 H 122.531 -2.84909 -4.7022 0
M  V30 1389 H 123.756 -3.45503 -5.8464 0
M  V30 1390 H 121.702 -1.28881 -6.43215 0
M  V30 1391 H 121.619 -2.9353 -6.96689 0
M  V30 1392 H 122.887 -1.90397 -7.5589 0
M  V30 1393 N 127.117 1.15442 -1.07289 0
M  V30 1394 C 128.365 1.85845 -0.794096 0
M  V30 1395 C 128.686 1.82692 0.681809 0
M  V30 1396 O 127.956 1.26741 1.49377 0
M  V30 1397 H 126.536 0.688089 -0.290763 0
M  V30 1398 H 129.198 1.39947 -1.3565 0
M  V30 1399 H 128.294 2.91001 -1.12804 0
M  V30 1400 N 128.595 0.856903 1.32268 0
M  V30 1401 C 129.542 0.301172 2.28827 0
M  V30 1402 C 130.512 -0.593104 1.5515 0
M  V30 1403 O 131.697 -0.527537 1.83362 0
M  V30 1404 C 128.837 -0.502523 3.41422 0
M  V30 1405 C 127.95 0.417797 4.29975 0
M  V30 1406 C 127.085 -0.398749 5.29701 0
M  V30 1407 C 126.124 0.518827 6.09897 0
M  V30 1408 N 125.261 -0.260674 7.01616 0
M  V30 1409 H 130.101 1.12983 2.75751 0
M  V30 1410 H 127.638 0.568582 1.35667 0
M  V30 1411 H 129.596 -0.984141 4.05426 0
M  V30 1412 H 128.226 -1.29599 2.95642 0
M  V30 1413 H 127.278 1.01781 3.66531 0
M  V30 1414 H 128.59 1.12191 4.86019 0
M  V30 1415 H 127.744 -0.943435 5.9932 0
M  V30 1416 H 126.483 -1.13622 4.7428 0
M  V30 1417 H 125.488 1.07538 5.39181 0
M  V30 1418 H 126.713 1.25495 6.67404 0
M  V30 1419 H 124.659 -0.981198 6.4862 0
M  V30 1420 H 124.576 0.384364 7.55022 0
M  V30 1421 H 125.844 -0.787014 7.75517 0
M  V30 1422 N 130.073 -1.45103 0.615059 0
M  V30 1423 C 131.319 -2.02483 0.113347 0
M  V30 1424 C 131.652 -1.48146 -1.25564 0
M  V30 1425 O 130.927 -0.659104 -1.82992 0
M  V30 1426 C 131.21 -3.60005 0.0825278 0
M  V30 1427 C 131.063 -4.2466 1.48271 0
M  V30 1428 C 132.382 -4.35972 -0.601401 0
M  V30 1429 H 129.501 -0.735764 0.0426632 0
M  V30 1430 H 132.143 -1.72868 0.788461 0
M  V30 1431 H 130.293 -3.85367 -0.492378 0
M  V30 1432 H 131.965 -4.10458 2.10527 0
M  V30 1433 H 130.208 -3.82772 2.04127 0
M  V30 1434 H 130.879 -5.336 1.41332 0
M  V30 1435 H 133.355 -4.15947 -0.112666 0
M  V30 1436 H 132.231 -5.45697 -0.592097 0
M  V30 1437 H 132.492 -4.09391 -1.66887 0
M  V30 1438 N 131.551 -0.354651 -1.53558 0
M  V30 1439 C 132.797 0.238797 -2.01389 0
M  V30 1440 C 133.13 1.49309 -1.2418 0
M  V30 1441 O 132.405 1.91638 -0.332457 0
M  V30 1442 C 132.688 0.541771 -3.56001 0
M  V30 1443 C 132.541 -0.725388 -4.43912 0
M  V30 1444 C 133.86 1.34685 -4.18984 0
M  V30 1445 H 130.979 0.0853177 -0.732045 0
M  V30 1446 H 133.621 -0.477384 -1.83905 0
M  V30 1447 H 131.771 1.15189 -3.71031 0
M  V30 1448 H 133.443 -1.36313 -4.407 0
M  V30 1449 H 131.686 -1.34801 -4.12324 0
M  V30 1450 H 132.357 -0.468505 -5.50008 0
M  V30 1451 H 134.833 0.830837 -4.07721 0
M  V30 1452 H 133.709 1.52759 -5.27215 0
M  V30 1453 H 133.97 2.35221 -3.74331 0
M  V30 1454 N 133.029 1.57378 -0.0835403 0
M  V30 1455 C 133.939 2.16897 0.894021 0
M  V30 1456 C 134.955 1.13528 1.31861 0
M  V30 1457 O 136.131 1.45848 1.3889 0
M  V30 1458 C 133.196 2.72831 2.13925 0
M  V30 1459 C 132.257 3.91115 1.76997 0
M  V30 1460 C 131.49 4.44371 2.95584 0
M  V30 1461 O 131.713 3.96596 4.09961 0
M  V30 1462 O 130.647 5.35549 2.74719 0
M  V30 1463 H 134.473 3.00814 0.417679 0
M  V30 1464 H 132.058 1.48741 0.140181 0
M  V30 1465 H 133.94 3.0863 2.86924 0
M  V30 1466 H 132.615 1.91967 2.60635 0
M  V30 1467 H 131.522 3.60148 1.01214 0
M  V30 1468 H 132.855 4.73307 1.3506 0
M  V30 1469 N 134.507 -0.190092 1.56449 0
M  V30 1470 C 135.923 -0.54113 1.50146 0
M  V30 1471 C 136.123 -1.85603 0.784465 0
M  V30 1472 O 135.179 -2.5024 0.337051 0
M  V30 1473 C 136.492 -0.591241 2.9483 0
M  V30 1474 C 138.04 -0.679732 3.0553 0
M  V30 1475 C 138.515 -0.760908 4.51635 0
M  V30 1476 N 140.006 -0.824302 4.55806 0
M  V30 1477 C 140.741 -0.907365 5.66175 0
M  V30 1478 N 140.237 -0.952422 6.86222 0
M  V30 1479 N 142.03 -0.94494 5.541 0
M  V30 1480 H 134.181 0.67235 2.01478 0
M  V30 1481 H 136.444 0.240127 0.917084 0
M  V30 1482 H 136.15 0.305905 3.50367 0
M  V30 1483 H 136.024 -1.44422 3.48457 0
M  V30 1484 H 138.411 -1.56731 2.50039 0
M  V30 1485 H 138.492 0.199549 2.5502 0
M  V30 1486 H 138.136 0.122336 5.07753 0
M  V30 1487 H 138.066 -1.65606 4.99882 0
M  V30 1488 H 140.557 -0.798526 3.69367 0
M  V30 1489 H 140.87 -1.01645 7.66086 0
M  V30 1490 H 139.215 -0.921014 6.8887 0
M  V30 1491 H 142.406 -0.906612 4.59236 0
M  V30 1492 H 142.579 -1.00622 6.4014 0
M  V30 1493 N 135.985 -1.50799 -0.457987 0
M  V30 1494 C 136.918 -1.65273 -1.57353 0
M  V30 1495 C 137.896 -0.500578 -1.54703 0
M  V30 1496 O 139.08 -0.721781 -1.74134 0
M  V30 1497 C 136.207 -1.64737 -2.95938 0
M  V30 1498 C 135.253 -2.8567 -3.16693 0
M  V30 1499 S 136.086 -4.46791 -2.95191 0
M  V30 1500 C 137.242 -4.48968 -4.36095 0
M  V30 1501 H 137.475 -2.59633 -1.44838 0
M  V30 1502 H 135.008 -1.40225 -0.64625 0
M  V30 1503 H 136.966 -1.65112 -3.7583 0
M  V30 1504 H 135.627 -0.715899 -3.05833 0
M  V30 1505 H 134.82 -2.81637 -4.17967 0
M  V30 1506 H 134.422 -2.8293 -2.44594 0
M  V30 1507 H 136.714 -4.23337 -5.28954 0
M  V30 1508 H 137.657 -5.50664 -4.45168 0
M  V30 1509 H 138.065 -3.78522 -4.18786 0
M  V30 1510 N 137.463 0.71206 -1.40597 0
M  V30 1511 C 138.879 1.02058 -1.22704 0
M  V30 1512 C 139.079 2.01228 -0.104729 0
M  V30 1513 O 138.135 2.4674 0.53624 0
M  V30 1514 C 139.448 1.56094 -2.57012 0
M  V30 1515 C 140.996 1.6806 -2.64054 0
M  V30 1516 C 141.471 2.25501 -3.9864 0
M  V30 1517 N 142.962 2.32882 -4.004 0
M  V30 1518 C 143.697 2.78317 -5.01325 0
M  V30 1519 N 143.193 3.23478 -6.12645 0
M  V30 1520 N 144.986 2.77733 -4.88693 0
M  V30 1521 H 137.137 0.0547896 -2.12329 0
M  V30 1522 H 139.4 0.0869027 -0.944008 0
M  V30 1523 H 139.106 0.906865 -3.39807 0
M  V30 1524 H 138.98 2.54564 -2.78347 0
M  V30 1525 H 141.367 2.32583 -1.81629 0
M  V30 1526 H 141.448 0.681802 -2.46546 0
M  V30 1527 H 141.092 1.61598 -4.81506 0
M  V30 1528 H 141.022 3.26102 -4.13479 0
M  V30 1529 H 143.513 2.00991 -3.20017 0
M  V30 1530 H 143.826 3.56725 -6.85542 0
M  V30 1531 H 142.171 3.21429 -6.16205 0
M  V30 1532 H 145.362 2.4179 -4.00818 0
M  V30 1533 H 145.535 3.12826 -5.67489 0
M  V30 1534 N 138.941 1.26152 0.944643 0
M  V30 1535 C 140.187 1.12665 1.69346 0
M  V30 1536 C 140.542 -0.3273 1.89596 0
M  V30 1537 O 139.835 -1.23717 1.46303 0
M  V30 1538 C 140.029 1.82541 3.07268 0
M  V30 1539 C 139.858 3.34582 3.00475 0
M  V30 1540 C 138.628 4.03863 3.03681 0
M  V30 1541 C 140.826 4.30828 2.80877 0
M  V30 1542 N 138.808 5.42603 2.87151 0
M  V30 1543 C 140.179 5.5672 2.7288 0
M  V30 1544 C 142.234 4.21122 2.65633 0
M  V30 1545 C 140.937 6.74013 2.51196 0
M  V30 1546 C 142.963 5.38118 2.45323 0
M  V30 1547 C 142.325 6.62955 2.38055 0
M  V30 1548 H 138.424 0.467041 0.627214 0
M  V30 1549 H 141.008 1.59391 1.11815 0
M  V30 1550 H 139.179 1.38296 3.62945 0
M  V30 1551 H 140.911 1.61708 3.70989 0
M  V30 1552 H 137.666 3.55198 3.1326 0
M  V30 1553 H 138.09 6.15443 2.82063 0
M  V30 1554 H 142.732 3.25344 2.70021 0
M  V30 1555 H 140.45 7.6989 2.4555 0
M  V30 1556 H 144.036 5.32475 2.34439 0
M  V30 1557 H 142.916 7.51959 2.22546 0
M  V30 1558 N 140.419 -1.14872 1.07899 0
M  V30 1559 C 141.665 -1.86064 0.806725 0
M  V30 1560 C 141.998 -1.82434 -0.665706 0
M  V30 1561 O 141.273 -1.25138 -1.48899 0
M  V30 1562 C 141.556 -3.34929 1.32267 0
M  V30 1563 C 141.409 -3.47161 2.86006 0
M  V30 1564 C 142.728 -4.29863 0.943717 0
M  V30 1565 H 139.847 -0.675591 0.294526 0
M  V30 1566 H 142.489 -1.34925 1.33773 0
M  V30 1567 H 140.639 -3.78611 0.870974 0
M  V30 1568 H 142.311 -3.12302 3.39507 0
M  V30 1569 H 140.554 -2.88539 3.23925 0
M  V30 1570 H 141.225 -4.51777 3.17177 0
M  V30 1571 H 143.701 -3.9417 1.33302 0
M  V30 1572 H 142.577 -5.32494 1.33198 0
M  V30 1573 H 142.838 -4.41846 -0.149796 0
M  V30 1574 N 141.898 -0.863906 -1.31812 0
M  V30 1575 C 143.145 -0.471836 -1.96926 0
M  V30 1576 C 143.473 0.974578 -1.68322 0
M  V30 1577 O 142.728 1.7003 -0.968933 0
M  V30 1578 C 143.027 -0.668547 -3.51091 0
M  V30 1579 C 142.693 -2.08683 -3.99703 0
M  V30 1580 C 141.355 -2.47471 -4.12688 0
M  V30 1581 C 143.707 -3.01207 -4.25351 0
M  V30 1582 C 141.035 -3.78037 -4.4867 0
M  V30 1583 C 143.387 -4.31282 -4.62794 0
M  V30 1584 C 142.051 -4.69992 -4.73987 0
M  V30 1585 H 141.321 -0.172657 -0.720604 0
M  V30 1586 H 143.968 -1.09573 -1.57054 0
M  V30 1587 H 142.273 0.0385252 -3.91781 0
M  V30 1588 H 143.97 -0.345102 -3.99512 0
M  V30 1589 H 140.56 -1.77566 -3.90087 0
M  V30 1590 H 144.744 -2.72469 -4.14819 0
M  V30 1591 H 140 -4.078 -4.55532 0
M  V30 1592 H 144.174 -5.03031 -4.81594 0
M  V30 1593 H 141.801 -5.71207 -5.01624 0
M  V30 1594 N 143.376 1.44774 -0.622745 0
M  V30 1595 C 144.326 2.2774 0.108889 0
M  V30 1596 C 145.31 1.38189 0.824175 0
M  V30 1597 O 146.502 1.62063 0.711664 0
M  V30 1598 C 143.631 3.25353 1.09546 0
M  V30 1599 C 142.717 4.22392 0.380232 0
M  V30 1600 N 143.108 5.02388 -0.586535 0
M  V30 1601 C 141.406 4.41588 0.625792 0
M  V30 1602 C 142.107 5.72894 -1.00834 0
M  V30 1603 N 141.083 5.42479 -0.348878 0
M  V30 1604 H 144.885 2.86993 -0.63341 0
M  V30 1605 H 142.399 1.5611 -0.447589 0
M  V30 1606 H 144.396 3.83538 1.63414 0
M  V30 1607 H 143.056 2.6766 1.83815 0
M  V30 1608 H 144.067 5.0885 -0.963975 0
M  V30 1609 H 140.744 3.95003 1.352 0
M  V30 1610 H 142.134 6.47158 -1.80656 0
M  V30 1611 N 144.854 0.36279 1.53368 0
M  V30 1612 C 146.1 -0.228113 2.01513 0
M  V30 1613 C 146.433 -1.48648 1.2497 0
M  V30 1614 O 145.708 -1.91459 0.342616 0
M  V30 1615 C 145.991 -0.522884 3.56284 0
M  V30 1616 C 145.844 0.74892 4.43521 0
M  V30 1617 C 147.163 -1.32461 4.19693 0
M  V30 1618 H 144.282 -0.0814343 0.732487 0
M  V30 1619 H 146.924 0.48713 1.83649 0
M  V30 1620 H 145.074 -1.1322 3.71636 0
M  V30 1621 H 146.746 1.38648 4.39971 0
M  V30 1622 H 144.989 1.36986 4.11603 0
M  V30 1623 H 145.66 0.497667 5.49752 0
M  V30 1624 H 148.136 -0.809203 4.08156 0
M  V30 1625 H 147.012 -1.49961 5.28018 0
M  V30 1626 H 147.273 -2.33232 3.75573 0
M  V30 1627 N 146.332 -1.57332 0.0918853 0
M  V30 1628 C 147.279 -2.13847 -0.868211 0
M  V30 1629 C 148.249 -1.05618 -1.28196 0
M  V30 1630 O 149.434 -1.33387 -1.36427 0
M  V30 1631 C 146.574 -2.72062 -2.12312 0
M  V30 1632 C 145.687 -3.94514 -1.7602 0
M  V30 1633 C 144.822 -4.40903 -2.96273 0
M  V30 1634 C 143.861 -5.55953 -2.56092 0
M  V30 1635 N 142.998 -5.97209 -3.69169 0
M  V30 1636 H 147.838 -2.95575 -0.379406 0
M  V30 1637 H 145.375 -1.46048 -0.175606 0
M  V30 1638 H 147.333 -3.03931 -2.858 0
M  V30 1639 H 145.963 -1.93068 -2.58698 0
M  V30 1640 H 145.015 -3.68979 -0.925135 0
M  V30 1641 H 146.327 -4.7802 -1.42472 0
M  V30 1642 H 145.481 -4.74539 -3.78018 0
M  V30 1643 H 144.22 -3.56291 -3.33029 0
M  V30 1644 H 143.225 -5.21948 -1.72773 0
M  V30 1645 H 144.45 -6.42311 -2.20484 0
M  V30 1646 H 142.396 -5.15543 -4.05649 0
M  V30 1647 H 142.313 -6.75504 -3.39456 0
M  V30 1648 H 143.581 -6.35475 -4.51434 0
M  V30 1649 N 147.81 0.181792 -1.56548 0
M  V30 1650 C 149.04 0.914618 -1.85252 0
M  V30 1651 C 149.448 1.76791 -0.673914 0
M  V30 1652 O 148.791 1.80009 0.366416 0
M  V30 1653 C 148.853 1.85019 -3.08234 0
M  V30 1654 C 148.517 1.17754 -4.41569 0
M  V30 1655 C 149.514 0.548035 -5.17003 0
M  V30 1656 C 147.199 1.17742 -4.88305 0
M  V30 1657 C 149.193 -0.0726128 -6.37359 0
M  V30 1658 C 146.88 0.552946 -6.08593 0
M  V30 1659 C 147.878 -0.070978 -6.82963 0
M  V30 1660 O 147.566 -0.685635 -8.00971 0
M  V30 1661 H 147.298 0.271695 -0.618998 0
M  V30 1662 H 149.852 0.189944 -2.0452 0
M  V30 1663 H 148.082 2.61491 -2.84885 0
M  V30 1664 H 149.771 2.45195 -3.23472 0
M  V30 1665 H 150.537 0.540174 -4.81982 0
M  V30 1666 H 146.416 1.65246 -4.30366 0
M  V30 1667 H 149.96 -0.560213 -6.95347 0
M  V30 1668 H 145.857 0.558354 -6.43081 0
M  V30 1669 H 146.625 -0.58385 -8.16415 0
M  V30 1670 N 149.288 1.51039 0.449983 0
M  V30 1671 C 150.704 1.38934 0.785462 0
M  V30 1672 C 150.904 0.461817 1.96136 0
M  V30 1673 O 149.96 -0.0877389 2.52348 0
M  V30 1674 C 151.273 2.80724 1.0777 0
M  V30 1675 C 152.821 2.89787 1.1829 0
M  V30 1676 C 153.296 4.32457 1.50815 0
M  V30 1677 N 154.787 4.35505 1.57764 0
M  V30 1678 C 155.522 5.42914 1.84477 0
M  V30 1679 N 155.018 6.60502 2.09068 0
M  V30 1680 N 156.811 5.3038 1.86155 0
M  V30 1681 H 148.962 2.09904 -0.324647 0
M  V30 1682 H 151.225 0.944378 -0.0827957 0
M  V30 1683 H 150.931 3.50531 0.286498 0
M  V30 1684 H 150.805 3.19273 2.00859 0
M  V30 1685 H 153.192 2.20186 1.96474 0
M  V30 1686 H 153.273 2.54752 0.231314 0
M  V30 1687 H 152.917 5.02603 0.731622 0
M  V30 1688 H 152.847 4.64995 2.47158 0
M  V30 1689 H 155.338 3.50724 1.40715 0
M  V30 1690 H 155.651 7.38158 2.28785 0
M  V30 1691 H 153.996 6.63639 2.06416 0
M  V30 1692 H 157.187 4.37505 1.66454 0
M  V30 1693 H 157.36 6.1417 2.06637 0
M  V30 1694 N 150.766 -0.704594 1.40972 0
M  V30 1695 C 151.676 -1.84856 1.44448 0
M  V30 1696 C 152.692 -1.70726 0.335961 0
M  V30 1697 O 153.868 -1.92799 0.582276 0
M  V30 1698 C 150.933 -3.20758 1.31587 0
M  V30 1699 C 149.994 -3.47063 2.52677 0
M  V30 1700 C 149.227 -4.76481 2.4042 0
M  V30 1701 O 149.45 -5.52341 1.42391 0
M  V30 1702 O 148.384 -5.03367 3.30007 0
M  V30 1703 H 152.21 -1.8488 2.40942 0
M  V30 1704 H 149.795 -0.85647 1.22413 0
M  V30 1705 H 151.677 -4.01913 1.26665 0
M  V30 1706 H 150.352 -3.21438 0.382049 0
M  V30 1707 H 149.259 -2.65873 2.63177 0
M  V30 1708 H 150.592 -3.5119 3.44858 0
M  V30 1709 N 152.244 -1.26651 -0.937939 0
M  V30 1710 C 153.492 -1.12165 -1.68118 0
M  V30 1711 C 153.813 0.334983 -1.92101 0
M  V30 1712 O 153.083 1.23583 -1.52 0
M  V30 1713 H 151.663 -0.412093 -0.623048 0
M  V30 1714 H 154.325 -1.59027 -1.12678 0
M  V30 1715 H 153.421 -1.64289 -2.6536 0
M  V30 1716 N 153.722 1.14298 -1.08507 0
M  V30 1717 C 154.654 2.1907 -0.673859 0
M  V30 1718 C 155.667 1.60381 0.279577 0
M  V30 1719 O 156.856 1.78374 0.0670754 0
M  V30 1720 C 153.956 3.38888 0.0290979 0
M  V30 1721 C 153.129 4.27103 -0.943494 0
M  V30 1722 C 152.188 5.25477 -0.275676 0
M  V30 1723 O 151.214 5.61709 -0.920401 0
M  V30 1724 N 152.416 5.7227 0.974013 0
M  V30 1725 H 155.181 2.54965 -1.57521 0
M  V30 1726 H 152.742 1.29528 -0.971287 0
M  V30 1727 H 154.734 4.01761 0.48683 0
M  V30 1728 H 153.304 3.01309 0.832555 0
M  V30 1729 H 152.524 3.61149 -1.58004 0
M  V30 1730 H 153.812 4.82905 -1.60251 0
M  V30 1731 H 153.21 5.44965 1.51755 0
M  V30 1732 H 151.767 6.37127 1.37522 0
M  V30 1733 N 155.201 0.870884 1.31352 0
M  V30 1734 C 156.449 0.48132 1.96285 0
M  V30 1735 C 156.77 -0.969813 1.69173 0
M  V30 1736 O 156.04 -1.67998 1.00764 0
M  V30 1737 H 154.62 0.175002 0.726212 0
M  V30 1738 H 157.282 1.11087 1.60143 0
M  V30 1739 H 156.378 0.639825 3.05471 0
M  V30 1740 N 156.679 -1.44442 0.630414 0
M  V30 1741 C 157.919 -2.03934 0.137919 0
M  V30 1742 C 158.283 -1.48509 -1.21692 0
M  V30 1743 O 159.484 -1.99499 -1.80149 0
M  V30 1744 C 157.755 -3.57187 0.123373 0
M  V30 1745 S 159.314 -4.37741 -0.304604 0
M  V30 1746 H 156.132 -0.708401 0.0607353 0
M  V30 1747 H 158.734 -1.76835 0.833643 0
M  V30 1748 H 157.438 -3.95032 1.11256 0
M  V30 1749 H 156.969 -3.88895 -0.59362 0
M  V30 1750 H 158.984 -4.71403 -1.54897 0
M  V30 1751 N 158.157 -0.370918 -1.53173 0
M  V30 1752 C 159.403 0.217423 -2.01631 0
M  V30 1753 C 159.736 1.47983 -1.25756 0
M  V30 1754 O 159.011 1.91274 -0.352764 0
M  V30 1755 C 159.294 0.503982 -3.56556 0
M  V30 1756 C 159.147 -0.77243 -4.43118 0
M  V30 1757 C 160.466 1.30234 -4.20389 0
M  V30 1758 H 157.585 0.0775486 -0.732909 0
M  V30 1759 H 160.227 -0.496863 -1.83388 0
M  V30 1760 H 158.377 1.11248 -3.72231 0
M  V30 1761 H 160.049 -1.4098 -4.39229 0
M  V30 1762 H 158.292 -1.39167 -4.10871 0
M  V30 1763 H 158.963 -0.526815 -5.4948 0
M  V30 1764 H 161.439 0.787546 -4.08579 0
M  V30 1765 H 160.315 1.47158 -5.28806 0
M  V30 1766 H 160.576 2.31237 -3.76805 0
M  V30 1767 N 159.635 1.57281 -0.100228 0
M  V30 1768 C 160.545 2.17833 0.870965 0
M  V30 1769 C 161.561 1.14921 1.30649 0
M  V30 1770 O 162.737 1.47313 1.37335 0
M  V30 1771 C 159.802 2.75085 2.1102 0
M  V30 1772 C 158.863 3.9297 1.72838 0
M  V30 1773 C 158.096 4.47482 2.90854 0
M  V30 1774 O 158.319 4.00922 4.05731 0
M  V30 1775 O 157.253 5.38433 2.69023 0
M  V30 1776 H 161.079 3.0124 0.38575 0
M  V30 1777 H 158.664 1.48881 0.124397 0
M  V30 1778 H 160.546 3.11656 2.83634 0
M  V30 1779 H 159.221 1.94721 2.58584 0
M  V30 1780 H 158.128 3.61201 0.973883 0
M  V30 1781 H 159.461 4.74713 1.30033 0
M  V30 1782 N 161.113 -0.173488 1.56642 0
M  V30 1783 C 162.043 -1.2171 1.99271 0
M  V30 1784 C 163.024 -1.46289 0.867959 0
M  V30 1785 O 164.209 -1.5766 1.13388 0
M  V30 1786 C 161.339 -2.55651 2.35074 0
M  V30 1787 C 160.293 -2.45645 3.50489 0
M  V30 1788 C 159.619 -3.84056 3.72028 0
M  V30 1789 C 160.919 -1.96302 4.84007 0
M  V30 1790 H 162.613 -0.86275 2.867 0
M  V30 1791 H 160.159 -0.413571 1.37933 0
M  V30 1792 H 162.112 -3.2886 2.63494 0
M  V30 1793 H 160.836 -2.92869 1.44552 0
M  V30 1794 H 159.495 -1.7489 3.22194 0
M  V30 1795 H 159.143 -4.18664 2.788 0
M  V30 1796 H 158.843 -3.7823 4.49684 0
M  V30 1797 H 160.367 -4.58854 4.02846 0
M  V30 1798 H 161.781 -2.59284 5.11317 0
M  V30 1799 H 160.178 -2.01429 5.65284 0
M  V30 1800 H 161.248 -0.917226 4.76146 0
M  V30 1801 N 162.591 -1.51276 -0.441967 0
M  V30 1802 C 163.839 -1.63392 -1.18943 0
M  V30 1803 C 164.16 -0.350159 -1.9183 0
M  V30 1804 O 163.43 0.633784 -1.85364 0
M  V30 1805 H 162.01 -0.602164 -0.442049 0
M  V30 1806 H 164.672 -1.88186 -0.507165 0
M  V30 1807 H 163.768 -2.45934 -1.92154 0
M  V30 1808 N 164.069 0.697108 -1.41344 0
M  V30 1809 C 165.316 1.45714 -1.40619 0
M  V30 1810 C 165.644 1.94494 -0.0147907 0
M  V30 1811 O 164.899 1.69794 0.973066 0
M  V30 1812 C 165.198 2.68553 -2.35826 0
M  V30 1813 C 164.864 2.38438 -3.82698 0
M  V30 1814 C 163.526 2.29936 -4.22709 0
M  V30 1815 C 165.878 2.13567 -4.75435 0
M  V30 1816 C 163.206 1.94656 -5.53467 0
M  V30 1817 C 165.558 1.79797 -6.06511 0
M  V30 1818 C 164.222 1.69789 -6.45545 0
M  V30 1819 H 163.492 0.533206 -0.51456 0
M  V30 1820 H 166.139 0.796901 -1.74131 0
M  V30 1821 H 164.444 3.39503 -1.95563 0
M  V30 1822 H 166.141 3.2669 -2.32539 0
M  V30 1823 H 162.731 2.4595 -3.51008 0
M  V30 1824 H 166.915 2.19082 -4.45328 0
M  V30 1825 H 162.171 1.8546 -5.82593 0
M  V30 1826 H 166.345 1.59572 -6.77872 0
M  V30 1827 H 163.972 1.4222 -7.46778 0
M  V30 1828 N 165.547 1.27147 0.931209 0
M  V30 1829 C 166.772 1.16191 1.71797 0
M  V30 1830 C 167.197 -0.278004 1.86034 0
M  V30 1831 O 166.555 -1.20137 1.35782 0
M  V30 1832 C 166.603 1.84673 3.09723 0
M  V30 1833 O 165.707 1.14231 3.96264 0
M  V30 1834 H 165.048 0.404303 0.526721 0
M  V30 1835 H 167.578 1.68152 1.1656 0
M  V30 1836 H 167.588 1.91893 3.60057 0
M  V30 1837 H 166.263 2.89421 2.98677 0
M  V30 1838 H 164.84 1.15056 3.54706 0
M  V30 1839 N 167.025 -1.13721 1.09112 0
M  V30 1840 C 168.436 -1.6648 0.845068 0
M  V30 1841 C 168.787 -1.85911 -0.62701 0
M  V30 1842 O 167.912 -1.57556 -1.48341 0
M  V30 1843 C 168.507 -3.02413 1.52748 0
M  V30 1844 C 167.066 -3.52176 1.32849 0
M  V30 1845 C 166.213 -2.27492 1.58564 0
M  V30 1846 H 169.164 -0.976872 1.25072 0
M  V30 1847 H 169.185 -3.68223 0.958752 0
M  V30 1848 H 168.697 -2.88238 2.59885 0
M  V30 1849 H 166.798 -3.7156 0.278137 0
M  V30 1850 H 166.911 -4.32499 2.0611 0
M  V30 1851 H 165.275 -2.33923 1.00758 0
M  V30 1852 H 166.058 -2.15886 2.66924 0
M  V30 1853 N 168.503 -0.877838 -1.30888 0
M  V30 1854 C 169.731 -0.507414 -2.00581 0
M  V30 1855 C 170.146 0.902216 -1.65848 0
M  V30 1856 O 169.503 1.59225 -0.891831 0
M  V30 1857 C 169.554 -0.664162 -3.55347 0
M  V30 1858 O 169.275 -2.01829 -3.8884 0
M  V30 1859 C 170.776 -0.295787 -4.42312 0
M  V30 1860 H 167.996 -0.196866 -0.641471 0
M  V30 1861 H 170.54 -1.18117 -1.66939 0
M  V30 1862 H 168.695 -0.0378619 -3.87381 0
M  V30 1863 H 169.109 -2.03174 -4.8355 0
M  V30 1864 H 170.583 -0.456388 -5.5011 0
M  V30 1865 H 171.06 0.765663 -4.32475 0
M  V30 1866 H 171.666 -0.898113 -4.15709 0
M  V30 1867 N 169.982 1.44106 -0.638065 0
M  V30 1868 C 171.231 2.01194 -0.142744 0
M  V30 1869 C 171.544 1.50835 1.24532 0
M  V30 1870 O 172.75 2.00096 1.83504 0
M  V30 1871 C 171.206 3.59319 -0.20442 0
M  V30 1872 C 170.814 4.18674 -1.59423 0
M  V30 1873 C 172.558 4.23854 0.234079 0
M  V30 1874 C 170.465 5.69045 -1.61065 0
M  V30 1875 H 169.395 0.752367 -0.0495998 0
M  V30 1876 H 172.046 1.65246 -0.797881 0
M  V30 1877 H 170.428 3.92598 0.517946 0
M  V30 1878 H 171.602 3.96921 -2.34074 0
M  V30 1879 H 169.917 3.66453 -1.97741 0
M  V30 1880 H 172.514 5.34155 0.241443 0
M  V30 1881 H 172.857 3.96688 1.2627 0
M  V30 1882 H 173.39 3.95403 -0.436025 0
M  V30 1883 H 170.129 6.00956 -2.61787 0
M  V30 1884 H 169.649 5.929 -0.90718 0
M  V30 1885 H 171.328 6.32809 -1.34766 0
M  V30 1886 N 171.46 0.379036 1.52974 0
M  V30 1887 C 172.709 -0.207612 2.00629 0
M  V30 1888 C 173.022 -1.48758 1.27006 0
M  V30 1889 O 174.228 -2.15365 1.65318 0
M  V30 1890 C 172.684 -0.42053 3.57435 0
M  V30 1891 C 172.292 0.845587 4.39948 0
M  V30 1892 C 174.036 -0.964102 4.13407 0
M  V30 1893 C 171.943 0.601513 5.88333 0
M  V30 1894 H 170.873 -0.0813591 0.749598 0
M  V30 1895 H 173.524 0.499853 1.76561 0
M  V30 1896 H 171.906 -1.18959 3.7771 0
M  V30 1897 H 173.08 1.61848 4.31442 0
M  V30 1898 H 171.395 1.31336 3.95145 0
M  V30 1899 H 173.992 -1.16225 5.21916 0
M  V30 1900 H 174.335 -1.93019 3.68849 0
M  V30 1901 H 174.868 -0.25487 3.96983 0
M  V30 1902 H 171.607 1.53831 6.37194 0
M  V30 1903 H 171.127 -0.132628 5.99653 0
M  V30 1904 H 172.806 0.232134 6.46583 0
M  V30 1905 N 172.938 -1.57226 0.108567 0
M  V30 1906 C 174.349 -1.8195 -0.418464 0
M  V30 1907 C 174.7 -1.02508 -1.67292 0
M  V30 1908 O 173.825 -0.258496 -2.14851 0
M  V30 1909 C 174.42 -3.30028 -0.765979 0
M  V30 1910 C 172.979 -3.55469 -1.23769 0
M  V30 1911 C 172.126 -2.7625 -0.241106 0
M  V30 1912 H 175.077 -1.55149 0.33384 0
M  V30 1913 H 175.098 -3.44086 -1.62434 0
M  V30 1914 H 174.61 -3.87821 0.147219 0
M  V30 1915 H 172.711 -3.03022 -2.16814 0
M  V30 1916 H 172.824 -4.6408 -1.19022 0
M  V30 1917 H 171.188 -2.44133 -0.72602 0
M  V30 1918 H 171.971 -3.36797 0.665007 0
M  V30 1919 N 174.416 0.165178 -1.56732 0
M  V30 1920 C 175.366 1.20917 -1.93295 0
M  V30 1921 C 176.35 1.39488 -0.801985 0
M  V30 1922 O 177.542 1.41356 -1.06525 0
M  V30 1923 C 174.671 2.54718 -2.3016 0
M  V30 1924 C 173.757 2.39815 -3.49785 0
M  V30 1925 N 174.148 1.94637 -4.66851 0
M  V30 1926 C 172.446 2.70623 -3.54513 0
M  V30 1927 C 173.147 1.92344 -5.4898 0
M  V30 1928 N 172.123 2.34978 -4.9019 0
M  V30 1929 H 175.925 0.851675 -2.81289 0
M  V30 1930 H 173.439 0.373399 -1.58049 0
M  V30 1931 H 175.436 3.30165 -2.54552 0
M  V30 1932 H 174.096 2.91265 -1.43508 0
M  V30 1933 H 175.107 1.6488 -4.90953 0
M  V30 1934 H 171.784 3.11167 -2.78354 0
M  V30 1935 H 173.174 1.5906 -6.52801 0
M  V30 1936 N 175.894 1.51508 0.433938 0
M  V30 1937 C 176.824 1.76016 1.53429 0
M  V30 1938 C 177.805 0.610112 1.58782 0
M  V30 1939 O 178.99 0.853177 1.74455 0
M  V30 1940 C 176.12 1.88831 2.9148 0
M  V30 1941 C 175.074 3.04288 3.00987 0
M  V30 1942 C 174.4 3.0229 4.4105 0
M  V30 1943 C 175.7 4.44193 2.74754 0
M  V30 1944 H 177.394 2.68152 1.33171 0
M  V30 1945 H 174.94 1.29035 0.639214 0
M  V30 1946 H 176.893 2.04559 3.6842 0
M  V30 1947 H 175.617 0.933455 3.12976 0
M  V30 1948 H 174.276 2.8827 2.26486 0
M  V30 1949 H 173.924 2.04576 4.59519 0
M  V30 1950 H 173.624 3.79822 4.4834 0
M  V30 1951 H 175.148 3.20116 5.1996 0
M  V30 1952 H 176.562 4.60544 3.41426 0
M  V30 1953 H 174.959 5.23457 2.9345 0
M  V30 1954 H 176.029 4.53996 1.70339 0
M  V30 1955 N 177.372 -0.689602 1.41712 0
M  V30 1956 C 178.6 -1.47827 1.44758 0
M  V30 1957 C 179.015 -1.88721 0.0545703 0
M  V30 1958 O 178.372 -1.57176 -0.927463 0
M  V30 1959 C 178.423 -2.73698 2.3616 0
M  V30 1960 O 178.144 -2.34524 3.7004 0
M  V30 1961 C 179.645 -3.67389 2.48072 0
M  V30 1962 H 176.865 -0.455357 0.49284 0
M  V30 1963 H 179.409 -0.848574 1.86063 0
M  V30 1964 H 177.564 -3.32891 1.98148 0
M  V30 1965 H 177.978 -3.15701 4.18847 0
M  V30 1966 H 179.452 -4.52475 3.16181 0
M  V30 1967 H 179.929 -4.12284 1.51388 0
M  V30 1968 H 180.535 -3.14097 2.86746 0
M  V30 1969 N 178.85 -1.27639 -0.924453 0
M  V30 1970 C 179.783 -1.04966 -2.02626 0
M  V30 1971 C 180.761 0.0309505 -1.62571 0
M  V30 1972 O 181.945 -0.114846 -1.8815 0
M  V30 1973 C 179.072 -0.59292 -3.3347 0
M  V30 1974 C 178.118 -1.66858 -3.92506 0
M  V30 1975 S 178.951 -3.2619 -4.24689 0
M  V30 1976 C 180.107 -2.82325 -5.58609 0
M  V30 1977 H 180.34 -1.98252 -2.21547 0
M  V30 1978 H 177.873 -1.11506 -1.06798 0
M  V30 1979 H 179.831 -0.336086 -4.09122 0
M  V30 1980 H 178.492 0.319939 -3.12466 0
M  V30 1981 H 177.685 -1.30038 -4.86935 0
M  V30 1982 H 177.287 -1.87766 -3.2345 0
M  V30 1983 H 179.579 -2.2783 -6.38044 0
M  V30 1984 H 180.522 -3.75511 -6.00331 0
M  V30 1985 H 180.93 -2.21367 -5.19285 0
M  V30 1986 N 180.328 1.1314 -1.09713 0
M  V30 1987 C 181.258 2.20748 -0.761102 0
M  V30 1988 C 182.239 1.68061 0.262566 0
M  V30 1989 O 183.424 1.93765 0.129977 0
M  V30 1990 C 180.554 3.46812 -0.184054 0
M  V30 1991 C 179.508 4.12606 -1.13757 0
M  V30 1992 C 178.834 5.33031 -0.422083 0
M  V30 1993 C 180.134 4.59603 -2.48118 0
M  V30 1994 H 181.828 2.49113 -1.66082 0
M  V30 1995 H 179.374 1.19734 -0.799987 0
M  V30 1996 H 181.327 4.21353 0.0631215 0
M  V30 1997 H 180.051 3.17851 0.750868 0
M  V30 1998 H 178.71 3.40036 -1.37007 0
M  V30 1999 H 178.358 5.00335 0.517072 0
M  V30 2000 H 178.058 5.77999 -1.05788 0
M  V30 2001 H 179.582 6.10325 -0.183277 0
M  V30 2002 H 180.996 5.25552 -2.29059 0
M  V30 2003 H 179.393 5.15321 -3.07514 0
M  V30 2004 H 180.463 3.73971 -3.08665 0
M  V30 2005 N 181.806 0.884767 1.30421 0
M  V30 2006 C 182.756 0.322846 2.25703 0
M  V30 2007 C 183.74 -0.548582 1.51259 0
M  V30 2008 O 184.932 -0.39304 1.72581 0
M  V30 2009 C 182.061 -0.461787 3.4018 0
M  V30 2010 C 181.147 0.423717 4.21978 0
M  V30 2011 N 181.538 1.52408 4.82292 0
M  V30 2012 C 179.836 0.218795 4.45463 0
M  V30 2013 C 180.537 2.07136 5.43571 0
M  V30 2014 N 179.513 1.36635 5.26148 0
M  V30 2015 H 183.315 1.16363 2.69883 0
M  V30 2016 H 180.829 0.73415 1.44859 0
M  V30 2017 H 182.826 -0.880985 4.07485 0
M  V30 2018 H 181.486 -1.30001 2.9754 0
M  V30 2019 H 182.497 1.90693 4.81515 0
M  V30 2020 H 179.174 -0.582275 4.1342 0
M  V30 2021 H 180.564 2.99538 6.01437 0
M  V30 2022 N 183.284 -1.43765 0.645699 0
M  V30 2023 C 184.231 -2.30745 -0.0504648 0
M  V30 2024 C 185.201 -1.4432 -0.822241 0
M  V30 2025 O 186.386 -1.73202 -0.800358 0
M  V30 2026 C 183.526 -3.29802 -1.0161 0
M  V30 2027 C 182.639 -4.31326 -0.241219 0
M  V30 2028 C 181.774 -5.17469 -1.19998 0
M  V30 2029 C 180.813 -6.10691 -0.415094 0
M  V30 2030 N 179.95 -6.89483 -1.32506 0
M  V30 2031 H 184.79 -2.8973 0.697155 0
M  V30 2032 H 182.327 -1.42738 0.355563 0
M  V30 2033 H 184.285 -3.85734 -1.58949 0
M  V30 2034 H 182.915 -2.72483 -1.73069 0
M  V30 2035 H 181.967 -3.77749 0.448334 0
M  V30 2036 H 183.279 -4.9743 0.369437 0
M  V30 2037 H 182.433 -5.7799 -1.84424 0
M  V30 2038 H 181.172 -4.51473 -1.84455 0
M  V30 2039 H 180.177 -5.49265 0.242565 0
M  V30 2040 H 181.402 -6.78727 0.224966 0
M  V30 2041 H 179.348 -6.26142 -1.95657 0
M  V30 2042 H 179.265 -7.52081 -0.768783 0
M  V30 2043 H 180.533 -7.54516 -1.9577 0
M  V30 2044 N 184.763 -0.387143 -1.52771 0
M  V30 2045 C 185.673 0.456442 -2.30117 0
M  V30 2046 C 186.689 1.07342 -1.36944 0
M  V30 2047 O 187.865 1.07971 -1.70013 0
M  V30 2048 C 184.93 1.56957 -3.09136 0
M  V30 2049 C 183.991 0.977916 -4.18014 0
M  V30 2050 C 183.224 2.038 -4.93256 0
M  V30 2051 O 183.447 3.25271 -4.68567 0
M  V30 2052 O 182.381 1.6565 -5.78657 0
M  V30 2053 H 186.207 -0.17359 -3.03203 0
M  V30 2054 H 183.792 -0.150919 -1.48636 0
M  V30 2055 H 185.674 2.21628 -3.58412 0
M  V30 2056 H 184.349 2.18461 -2.38865 0
M  V30 2057 H 183.256 0.294525 -3.72939 0
M  V30 2058 H 184.589 0.407128 -4.90513 0
M  V30 2059 N 186.241 1.57166 -0.116904 0
M  V30 2060 C 187.488 1.95123 0.541603 0
M  V30 2061 C 187.816 1.00006 1.6682 0
M  V30 2062 O 187.071 0.0235658 1.95686 0
M  V30 2063 C 187.37 3.39508 1.11664 0
M  V30 2064 C 187.036 4.50762 0.111606 0
M  V30 2065 C 185.698 4.80918 -0.164758 0
M  V30 2066 C 188.05 5.18036 -0.573438 0
M  V30 2067 C 185.378 5.75666 -1.13249 0
M  V30 2068 C 187.73 6.13824 -1.52978 0
M  V30 2069 C 186.394 6.42374 -1.81415 0
M  V30 2070 H 185.664 0.714005 0.198187 0
M  V30 2071 H 188.311 1.9048 -0.197365 0
M  V30 2072 H 186.616 3.40835 1.93232 0
M  V30 2073 H 188.313 3.66189 1.63422 0
M  V30 2074 H 184.903 4.27272 0.337192 0
M  V30 2075 H 189.087 4.94896 -0.373092 0
M  V30 2076 H 184.343 5.96092 -1.35958 0
M  V30 2077 H 188.517 6.65039 -2.06629 0
M  V30 2078 H 186.144 7.15599 -2.56557 0
M  V30 2079 N 187.719 -0.156864 1.56817 0
M  V30 2080 C 188.947 -0.886316 1.86955 0
M  V30 2081 C 189.362 -1.75185 0.703975 0
M  V30 2082 O 188.719 -1.79555 -0.326552 0
M  V30 2083 C 188.77 -1.75117 3.16253 0
M  V30 2084 O 188.491 -0.920537 4.2832 0
M  V30 2085 C 189.992 -2.58905 3.59837 0
M  V30 2086 H 187.212 -0.25678 0.619923 0
M  V30 2087 H 189.756 -0.152615 2.0393 0
M  V30 2088 H 187.911 -2.43805 3.01062 0
M  V30 2089 H 188.325 -1.51337 5.02192 0
M  V30 2090 H 189.799 -3.1518 4.53172 0
M  V30 2091 H 190.276 -3.34472 2.84649 0
M  V30 2092 H 190.882 -1.95526 3.7769 0
M  V30 2093 N 189.197 -1.51736 -0.425897 0
M  V30 2094 C 190.422 -1.69082 -1.20108 0
M  V30 2095 C 190.847 -0.392398 -1.83962 0
M  V30 2096 O 190.205 0.64858 -1.69302 0
M  V30 2097 C 190.253 -2.81604 -2.25237 0
M  V30 2098 O 189.357 -2.46004 -3.30992 0
M  V30 2099 H 188.698 -0.563408 -0.35138 0
M  V30 2100 H 191.228 -1.98358 -0.501512 0
M  V30 2101 H 191.238 -3.06025 -2.69838 0
M  V30 2102 H 189.913 -3.75817 -1.78142 0
M  V30 2103 H 188.49 -2.32195 -2.91787 0
M  V30 2104 N 190.675 0.682077 -1.42076 0
M  V30 2105 C 191.905 1.46844 -1.45329 0
M  V30 2106 C 192.313 1.89102 -0.0609328 0
M  V30 2107 O 191.656 1.58238 0.933082 0
M  V30 2108 C 191.718 2.75375 -2.31104 0
M  V30 2109 C 191.382 2.55238 -3.79081 0
M  V30 2110 C 192.379 2.20309 -4.70914 0
M  V30 2111 C 190.064 2.70459 -4.2327 0
M  V30 2112 C 192.058 2.00859 -6.04925 0
M  V30 2113 C 189.745 2.50624 -5.57343 0
M  V30 2114 C 190.743 2.15876 -6.47986 0
M  V30 2115 O 190.431 1.96227 -7.79583 0
M  V30 2116 H 190.163 0.4586 -0.496651 0
M  V30 2117 H 192.717 0.846131 -1.87162 0
M  V30 2118 H 190.947 3.40061 -1.84107 0
M  V30 2119 H 192.636 3.37231 -2.25898 0
M  V30 2120 H 193.402 2.08153 -4.38061 0
M  V30 2121 H 189.281 2.96485 -3.53012 0
M  V30 2122 H 192.825 1.7366 -6.75639 0
M  V30 2123 H 188.722 2.62375 -5.89771 0
M  V30 2124 H 189.49 2.10883 -7.90867 0
M  V30 2125 N 192.153 1.28127 0.917671 0
M  V30 2126 C 193.085 1.07517 2.02417 0
M  V30 2127 C 194.098 0.0281099 1.62776 0
M  V30 2128 O 195.287 0.270748 1.76435 0
M  V30 2129 C 192.387 0.610957 3.33347 0
M  V30 2130 C 191.56 1.73255 4.01624 0
M  V30 2131 C 190.619 1.26238 5.10833 0
M  V30 2132 O 189.645 1.96389 5.34247 0
M  V30 2133 N 190.847 0.123448 5.80369 0
M  V30 2134 H 193.612 2.02806 2.20658 0
M  V30 2135 H 191.173 1.19827 1.08871 0
M  V30 2136 H 193.165 0.280101 4.0373 0
M  V30 2137 H 191.735 -0.24898 3.11607 0
M  V30 2138 H 190.955 2.23319 3.24842 0
M  V30 2139 H 192.243 2.48503 4.43986 0
M  V30 2140 H 191.641 -0.461847 5.63812 0
M  V30 2141 H 190.198 -0.148158 6.51632 0
M  V30 2142 N 193.631 -1.12557 1.10312 0
M  V30 2143 C 194.561 -2.20341 0.772798 0
M  V30 2144 C 195.542 -1.68198 -0.25365 0
M  V30 2145 O 196.727 -1.93831 -0.119699 0
M  V30 2146 C 193.857 -3.46709 0.202443 0
M  V30 2147 C 192.811 -4.11996 1.15943 0
M  V30 2148 C 192.137 -5.328 0.450345 0
M  V30 2149 C 193.437 -4.5828 2.50552 0
M  V30 2150 H 195.131 -2.48229 1.674 0
M  V30 2151 H 192.677 -1.19308 0.806326 0
M  V30 2152 H 194.63 -4.2138 -0.0407752 0
M  V30 2153 H 193.354 -3.18245 -0.734001 0
M  V30 2154 H 192.013 -3.39305 1.38808 0
M  V30 2155 H 191.661 -5.00602 -0.490531 0
M  V30 2156 H 191.361 -5.7743 1.08851 0
M  V30 2157 H 192.885 -6.10219 0.215642 0
M  V30 2158 H 194.299 -5.2433 2.31843 0
M  V30 2159 H 192.696 -5.13683 3.10242 0
M  V30 2160 H 193.766 -3.72329 3.10643 0
M  V30 2161 N 195.109 -0.891671 -1.2995 0
M  V30 2162 C 196.056 -0.361736 -2.27948 0
M  V30 2163 C 197.026 0.551761 -1.56668 0
M  V30 2164 O 198.211 0.478736 -1.84696 0
M  V30 2165 C 195.351 0.411825 -3.42634 0
M  V30 2166 C 194.464 -0.531651 -4.28716 0
M  V30 2167 C 193.599 0.258167 -5.30572 0
M  V30 2168 C 192.638 -0.680349 -6.08307 0
M  V30 2169 N 191.775 0.0745613 -7.0206 0
M  V30 2170 H 196.615 -1.20254 -2.72659 0
M  V30 2171 H 194.152 -0.604352 -1.34112 0
M  V30 2172 H 196.11 0.876304 -4.07893 0
M  V30 2173 H 194.74 1.21715 -2.98974 0
M  V30 2174 H 193.792 -1.11463 -3.63703 0
M  V30 2175 H 195.104 -1.25038 -4.82874 0
M  V30 2176 H 194.258 0.784204 -6.0161 0
M  V30 2177 H 192.997 1.01008 -4.77126 0
M  V30 2178 H 192.002 -1.21796 -5.3614 0
M  V30 2179 H 193.227 -1.43145 -6.63842 0
M  V30 2180 H 191.173 0.808883 -6.50994 0
M  V30 2181 H 191.09 -0.584409 -7.53738 0
M  V30 2182 H 192.358 0.581123 -7.77331 0
M  V30 2183 N 196.587 1.43421 -0.653314 0
M  V30 2184 C 197.519 2.29071 0.0769134 0
M  V30 2185 C 198.532 1.42513 0.787017 0
M  V30 2186 O 199.721 1.66449 0.644757 0
M  V30 2187 C 196.821 3.19436 1.13199 0
M  V30 2188 C 195.994 4.34533 0.500006 0
M  V30 2189 C 195.053 5.05771 1.45198 0
M  V30 2190 O 194.079 5.61037 0.960538 0
M  V30 2191 N 195.281 5.0928 2.78594 0
M  V30 2192 H 198.046 2.92382 -0.658235 0
M  V30 2193 H 195.607 1.54112 -0.496104 0
M  V30 2194 H 197.599 3.63958 1.76964 0
M  V30 2195 H 196.169 2.57724 1.7691 0
M  V30 2196 H 195.389 3.92925 -0.316738 0
M  V30 2197 H 196.677 5.08766 0.0588345 0
M  V30 2198 H 196.075 4.65751 3.2108 0
M  V30 2199 H 194.632 5.57519 3.37662 0
M  V30 2200 N 198.065 0.39524 1.52563 0
M  V30 2201 C 199.314 -0.186321 2.00838 0
M  V30 2202 C 199.627 -1.47402 1.28577 0
M  V30 2203 O 200.833 -2.13599 1.67593 0
M  V30 2204 C 199.289 -0.382595 3.57861 0
M  V30 2205 C 198.897 0.892202 4.39026 0
M  V30 2206 C 200.641 -0.9202 4.14406 0
M  V30 2207 C 198.548 0.66388 5.87662 0
M  V30 2208 H 197.478 -0.0734041 0.750418 0
M  V30 2209 H 200.129 0.518552 1.76021 0
M  V30 2210 H 198.511 -1.14946 3.7895 0
M  V30 2211 H 199.685 1.66414 4.29701 0
M  V30 2212 H 198 1.35519 3.9373 0
M  V30 2213 H 200.597 -1.10683 5.23119 0
M  V30 2214 H 200.94 -1.89096 3.70875 0
M  V30 2215 H 201.473 -0.212751 3.97231 0
M  V30 2216 H 198.212 1.6058 6.35527 0
M  V30 2217 H 197.732 -0.0690193 5.9976 0
M  V30 2218 H 199.411 0.300699 6.46301 0
M  V30 2219 N 199.544 -1.57102 0.125237 0
M  V30 2220 C 200.792 -1.95021 -0.530198 0
M  V30 2221 C 201.113 -1.00982 -1.66816 0
M  V30 2222 O 200.383 -0.0672693 -1.95784 0
M  V30 2223 H 198.963 -0.720046 -0.198853 0
M  V30 2224 H 201.625 -1.93916 0.19564 0
M  V30 2225 H 200.721 -2.98211 -0.920681 0
M  V30 2226 N 201.022 0.148545 -1.56898 0
M  V30 2227 C 202.247 0.880385 -1.87787 0
M  V30 2228 C 202.672 1.74018 -0.714093 0
M  V30 2229 O 202.03 1.78153 0.336343 0
M  V30 2230 C 202.078 1.71422 -3.17249 0
M  V30 2231 O 201.182 2.8183 -3.01074 0
M  V30 2232 H 200.523 0.245301 -0.617028 0
M  V30 2233 H 203.053 0.139826 -2.04122 0
M  V30 2234 H 203.063 2.10954 -3.49231 0
M  V30 2235 H 201.738 1.08284 -4.01556 0
M  V30 2236 H 200.315 2.45715 -2.80497 0
M  V30 2237 N 202.5 1.5196 0.417844 0
M  V30 2238 C 203.43 1.77634 1.51554 0
M  V30 2239 C 204.411 0.626918 1.58126 0
M  V30 2240 O 205.596 0.871632 1.7354 0
M  V30 2241 C 202.726 1.91911 2.8946 0
M  V30 2242 C 201.68 3.07463 2.97743 0
M  V30 2243 C 201.006 3.06951 4.37819 0
M  V30 2244 C 202.306 4.47082 2.70027 0
M  V30 2245 H 204 2.6955 1.3032 0
M  V30 2246 H 201.546 1.29706 0.625492 0
M  V30 2247 H 203.499 2.08455 3.6623 0
M  V30 2248 H 202.223 0.966598 3.11969 0
M  V30 2249 H 200.882 2.90656 2.23416 0
M  V30 2250 H 200.53 2.09438 4.57323 0
M  V30 2251 H 200.23 3.84556 4.44286 0
M  V30 2252 H 201.754 3.25613 5.16535 0
M  V30 2253 H 203.168 4.6414 3.36522 0
M  V30 2254 H 201.565 5.2654 2.87881 0
M  V30 2255 H 202.635 4.55777 1.65514 0
M  V30 2256 N 203.978 -0.674533 1.42435 0
M  V30 2257 C 205.203 -1.46784 1.46524 0
M  V30 2258 C 205.628 -1.87938 0.078066 0
M  V30 2259 O 204.986 -1.56014 -0.92354 0
M  V30 2260 C 205.034 -2.69307 2.39805 0
M  V30 2261 O 204.138 -3.67587 1.86959 0
M  V30 2262 H 203.479 -0.440959 0.496439 0
M  V30 2263 H 206.009 -0.827326 1.87127 0
M  V30 2264 H 206.019 -3.17374 2.56393 0
M  V30 2265 H 204.694 -2.38692 3.40586 0
M  V30 2266 H 203.271 -3.2662 1.79927 0
M  V30 2267 N 205.456 -1.28612 -0.910864 0
M  V30 2268 C 206.681 -1.1891 -1.69927 0
M  V30 2269 C 207.106 0.248372 -1.86453 0
M  V30 2270 O 206.464 1.17961 -1.37676 0
M  V30 2271 C 206.512 -1.89578 -3.06745 0
M  V30 2272 O 205.616 -1.20521 -3.94396 0
M  V30 2273 H 204.957 -0.412632 -0.520222 0
M  V30 2274 H 207.487 -1.69985 -1.1387 0
M  V30 2275 H 207.497 -1.97597 -3.56958 0
M  V30 2276 H 206.172 -2.94136 -2.94035 0
M  V30 2277 H 204.749 -1.20684 -3.52831 0
M  V30 2278 N 206.934 1.1197 -1.10907 0
M  V30 2279 C 208.181 1.83588 -0.854507 0
M  V30 2280 C 208.509 1.84357 0.6199 0
M  V30 2281 O 207.764 1.28809 1.47332 0
M  V30 2282 C 208.063 3.30749 -1.35425 0
M  V30 2283 C 207.729 3.50146 -2.84093 0
M  V30 2284 C 206.391 3.55148 -3.2469 0
M  V30 2285 C 208.743 3.56857 -3.79872 0
M  V30 2286 C 206.071 3.6441 -4.59806 0
M  V30 2287 C 208.423 3.6765 -5.14797 0
M  V30 2288 C 207.087 3.7091 -5.54961 0
M  V30 2289 H 206.357 0.671795 -0.312686 0
M  V30 2290 H 209.004 1.32091 -1.38652 0
M  V30 2291 H 207.309 3.84703 -0.742361 0
M  V30 2292 H 209.006 3.8464 -1.1337 0
M  V30 2293 H 205.596 3.46919 -2.51685 0
M  V30 2294 H 209.78 3.52258 -3.49611 0
M  V30 2295 H 205.036 3.65208 -4.9034 0
M  V30 2296 H 209.21 3.71786 -5.88853 0
M  V30 2297 H 206.837 3.7784 -6.59652 0
M  V30 2298 N 208.412 0.89855 1.29475 0
M  V30 2299 C 209.642 0.538479 1.99459 0
M  V30 2300 C 210.05 -0.880922 1.67441 0
M  V30 2301 O 209.393 -1.59283 0.915127 0
M  V30 2302 C 209.455 0.649564 3.53583 0
M  V30 2303 C 209.119 2.03573 4.09154 0
M  V30 2304 C 210.116 3.00675 4.24135 0
M  V30 2305 C 207.801 2.3448 4.44212 0
M  V30 2306 C 209.795 4.26809 4.73405 0
M  V30 2307 C 207.482 3.60857 4.93179 0
M  V30 2308 C 208.48 4.56836 5.0773 0
M  V30 2309 O 208.168 5.80969 5.55635 0
M  V30 2310 H 207.9 0.205372 0.644048 0
M  V30 2311 H 210.454 1.20958 1.66007 0
M  V30 2312 H 208.684 -0.0785592 3.8662 0
M  V30 2313 H 210.373 0.29881 4.04799 0
M  V30 2314 H 211.139 2.78112 3.97339 0
M  V30 2315 H 207.018 1.60534 4.32145 0
M  V30 2316 H 210.562 5.0173 4.84678 0
M  V30 2317 H 206.459 3.83251 5.19412 0
M  V30 2318 H 207.227 5.83542 5.73952 0
M  V30 2319 N 209.89 -1.43072 0.660911 0
M  V30 2320 C 210.853 -2.29194 -0.0166406 0
M  V30 2321 C 211.853 -1.42609 -0.742912 0
M  V30 2322 O 213.043 -1.64155 -0.583004 0
M  V30 2323 C 210.175 -3.24831 -1.0343 0
M  V30 2324 H 211.368 -2.90596 0.741208 0
M  V30 2325 H 208.921 -1.5048 0.422532 0
M  V30 2326 H 209.656 -2.68339 -1.82111 0
M  V30 2327 H 209.441 -3.88676 -0.517082 0
M  V30 2328 H 210.931 -3.89451 -1.50723 0
M  V30 2329 N 211.368 -0.403325 -1.52352 0
M  V30 2330 C 212.614 0.174605 -2.02047 0
M  V30 2331 C 212.947 1.45282 -1.28867 0
M  V30 2332 O 212.222 1.90483 -0.393257 0
M  V30 2333 C 212.505 0.428238 -3.57545 0
M  V30 2334 C 212.358 -0.866248 -4.4138 0
M  V30 2335 C 213.677 1.21287 -4.23057 0
M  V30 2336 H 210.796 0.0619851 -0.734389 0
M  V30 2337 H 213.438 -0.53565 -1.82293 0
M  V30 2338 H 211.588 1.03327 -3.74507 0
M  V30 2339 H 213.26 -1.50265 -4.3614 0
M  V30 2340 H 211.503 -1.47851 -4.07827 0
M  V30 2341 H 212.174 -0.643249 -5.48239 0
M  V30 2342 H 214.65 0.700703 -4.10158 0
M  V30 2343 H 213.526 1.35909 -5.31808 0
M  V30 2344 H 213.787 2.23193 -3.81625 0
M  V30 2345 N 212.846 1.57033 -0.133567 0
M  V30 2346 C 214.262 1.58035 0.222944 0
M  V30 2347 C 214.462 1.14713 1.6566 0
M  V30 2348 O 213.518 0.841218 2.38075 0
M  V30 2349 C 214.831 3.00691 -0.0236116 0
M  V30 2350 C 216.379 3.12973 0.0411512 0
M  V30 2351 C 216.854 4.57654 -0.177899 0
M  V30 2352 N 218.345 4.63033 -0.124365 0
M  V30 2353 C 219.08 5.72771 -0.268553 0
M  V30 2354 N 218.576 6.91206 -0.46972 0
M  V30 2355 N 220.369 5.61718 -0.2071 0
M  V30 2356 H 212.52 1.8349 -1.06981 0
M  V30 2357 H 214.783 0.848677 -0.422436 0
M  V30 2358 H 214.489 3.36726 -1.0153 0
M  V30 2359 H 214.363 3.70614 0.701808 0
M  V30 2360 H 216.75 2.76787 1.02338 0
M  V30 2361 H 216.831 2.45564 -0.716383 0
M  V30 2362 H 216.475 4.94542 -1.15717 0
M  V30 2363 H 216.405 5.23173 0.599797 0
M  V30 2364 H 218.896 3.7789 0.027011 0
M  V30 2365 H 219.209 7.70693 -0.570212 0
M  V30 2366 H 217.554 6.93156 -0.505876 0
M  V30 2367 H 220.745 4.68072 -0.0507986 0
M  V30 2368 H 220.918 6.47195 -0.322909 0
M  V30 2369 N 214.325 -0.140222 1.56975 0
M  V30 2370 C 215.255 -1.17456 2.01808 0
M  V30 2371 C 216.236 -1.44415 0.898794 0
M  V30 2372 O 217.421 -1.5522 1.16707 0
M  V30 2373 C 214.551 -2.50607 2.40444 0
M  V30 2374 C 213.505 -2.38155 3.55621 0
M  V30 2375 C 212.831 -3.76078 3.80091 0
M  V30 2376 C 214.131 -1.85991 4.88062 0
M  V30 2377 H 215.825 -0.801743 2.88466 0
M  V30 2378 H 213.371 -0.38422 1.38779 0
M  V30 2379 H 215.324 -3.23197 2.7041 0
M  V30 2380 H 214.048 -2.89737 1.50732 0
M  V30 2381 H 212.707 -1.68016 3.25832 0
M  V30 2382 H 212.355 -4.12656 2.87618 0
M  V30 2383 H 212.055 -3.68606 4.57606 0
M  V30 2384 H 213.579 -4.50206 4.12488 0
M  V30 2385 H 214.993 -2.4838 5.16701 0
M  V30 2386 H 213.39 -1.89393 5.6943 0
M  V30 2387 H 214.46 -0.816023 4.77984 0
M  V30 2388 N 215.803 -1.52179 -0.40978 0
M  V30 2389 C 217.033 -1.69807 -1.17682 0
M  V30 2390 C 217.441 -0.406908 -1.84773 0
M  V30 2391 O 216.784 0.626863 -1.72673 0
M  V30 2392 C 216.846 -2.77712 -2.2829 0
M  V30 2393 C 216.51 -4.19481 -1.81341 0
M  V30 2394 C 217.507 -5.03345 -1.30154 0
M  V30 2395 C 215.192 -4.65713 -1.88194 0
M  V30 2396 C 217.186 -6.31511 -0.864416 0
M  V30 2397 C 214.873 -5.93869 -1.44093 0
M  V30 2398 C 215.871 -6.76597 -0.933023 0
M  V30 2399 O 215.559 -8.02354 -0.49838 0
M  V30 2400 H 215.291 -0.572372 -0.359675 0
M  V30 2401 H 217.845 -1.99511 -0.488311 0
M  V30 2402 H 216.075 -2.43383 -3.00502 0
M  V30 2403 H 217.764 -2.83946 -2.90051 0
M  V30 2404 H 218.53 -4.68819 -1.24232 0
M  V30 2405 H 214.409 -4.01424 -2.26671 0
M  V30 2406 H 217.953 -6.96033 -0.467286 0
M  V30 2407 H 213.85 -6.27903 -1.49694 0
M  V30 2408 H 214.618 -8.16135 -0.621747 0
M  V30 2409 N 217.281 0.66697 -1.42791 0
M  V30 2410 C 218.191 1.80962 -1.49299 0
M  V30 2411 C 219.207 1.69775 -0.381108 0
M  V30 2412 O 220.383 1.91188 -0.633188 0
M  V30 2413 C 217.448 3.17156 -1.40045 0
M  V30 2414 C 216.509 3.40242 -2.6179 0
M  V30 2415 C 215.742 4.69939 -2.52969 0
M  V30 2416 O 215.965 5.48372 -1.56985 0
M  V30 2417 O 214.899 4.94441 -3.43237 0
M  V30 2418 H 218.725 1.78427 -2.45759 0
M  V30 2419 H 216.31 0.823713 -1.24641 0
M  V30 2420 H 218.192 3.98413 -1.37276 0
M  V30 2421 H 216.867 3.20312 -0.467138 0
M  V30 2422 H 215.774 2.58802 -2.70134 0
M  V30 2423 H 217.107 3.41923 -3.54047 0
M  V30 2424 N 218.759 1.29093 0.90403 0
M  V30 2425 C 219.689 1.16401 2.02418 0
M  V30 2426 C 220.67 0.0593085 1.69997 0
M  V30 2427 O 221.855 0.238021 1.92736 0
M  V30 2428 C 218.985 0.835233 3.37107 0
M  V30 2429 C 217.939 1.89578 3.83724 0
M  V30 2430 C 217.265 1.42041 5.15489 0
M  V30 2431 C 218.565 3.30394 4.04521 0
M  V30 2432 H 220.259 2.10109 2.13295 0
M  V30 2433 H 217.805 1.01157 1.02486 0
M  V30 2434 H 219.758 0.733169 4.14973 0
M  V30 2435 H 218.482 -0.137543 3.2631 0
M  V30 2436 H 217.141 1.98715 3.08071 0
M  V30 2437 H 216.789 0.436426 5.01103 0
M  V30 2438 H 216.489 2.12964 5.4765 0
M  V30 2439 H 218.013 1.33176 5.959 0
M  V30 2440 H 219.427 3.24123 4.72882 0
M  V30 2441 H 217.824 3.99237 4.48029 0
M  V30 2442 H 218.894 3.73692 3.09002 0
M  V30 2443 N 220.237 -1.11381 1.11499 0
M  V30 2444 C 221.17 -2.16621 0.71769 0
M  V30 2445 C 222.148 -1.60058 -0.286413 0
M  V30 2446 O 223.332 -1.87613 -0.182689 0
M  V30 2447 C 220.459 -3.38646 0.0607265 0
M  V30 2448 C 219.505 -4.13874 1.03008 0
M  V30 2449 S 220.338 -4.70731 2.55289 0
M  V30 2450 C 221.494 -5.96079 1.90895 0
M  V30 2451 H 221.727 -2.49987 1.60915 0
M  V30 2452 H 219.26 -1.23015 0.933092 0
M  V30 2453 H 221.218 -4.09313 -0.311965 0
M  V30 2454 H 219.879 -3.03537 -0.807702 0
M  V30 2455 H 219.072 -5.01333 0.517853 0
M  V30 2456 H 218.674 -3.4897 1.34522 0
M  V30 2457 H 220.966 -6.65948 1.24577 0
M  V30 2458 H 221.909 -6.51946 2.76354 0
M  V30 2459 H 222.317 -5.47652 1.36885 0
M  V30 2460 N 221.715 -0.905404 -1.28997 0
M  V30 2461 C 222.94 -0.549175 -1.99997 0
M  V30 2462 C 223.365 0.860276 -1.67275 0
M  V30 2463 O 222.723 1.57355 -0.900502 0
M  V30 2464 C 222.771 -0.755185 -3.52604 0
M  V30 2465 O 221.875 0.189692 -4.11964 0
M  V30 2466 H 221.216 -0.213899 -0.628604 0
M  V30 2467 H 223.746 -1.21856 -1.64354 0
M  V30 2468 H 223.756 -0.662045 -4.02593 0
M  V30 2469 H 222.431 -1.78271 -3.75755 0
M  V30 2470 H 221.008 0.0485257 -3.72868 0
M  V30 2471 N 223.193 1.4272 -0.668489 0
M  V30 2472 C 224.125 2.2914 0.052613 0
M  V30 2473 C 225.138 1.43339 0.771857 0
M  V30 2474 O 226.327 1.67123 0.627067 0
M  V30 2475 C 223.427 3.20618 1.09804 0
M  V30 2476 C 222.6 4.35039 0.45389 0
M  V30 2477 C 221.659 5.07282 1.39825 0
M  V30 2478 O 220.685 5.62024 0.900978 0
M  V30 2479 N 221.887 5.12206 2.73176 0
M  V30 2480 H 224.652 2.91668 -0.689209 0
M  V30 2481 H 222.213 1.53577 -0.512422 0
M  V30 2482 H 224.205 3.65815 1.73094 0
M  V30 2483 H 222.775 2.59585 1.74167 0
M  V30 2484 H 221.995 3.92567 -0.358396 0
M  V30 2485 H 223.283 5.088 0.00486972 0
M  V30 2486 H 222.681 4.6913 3.16122 0
M  V30 2487 H 221.238 5.61069 3.31729 0
M  V30 2488 N 224.671 0.411399 1.52136 0
M  V30 2489 C 225.918 -0.163645 2.01838 0
M  V30 2490 C 226.246 -1.4495 1.29691 0
M  V30 2491 O 225.501 -1.91725 0.392431 0
M  V30 2492 C 225.8 -0.455872 3.54481 0
M  V30 2493 C 225.466 0.741055 4.44769 0
M  V30 2494 C 224.128 1.06936 4.69167 0
M  V30 2495 C 226.48 1.54075 4.97906 0
M  V30 2496 C 223.808 2.19851 5.43951 0
M  V30 2497 C 226.16 2.66067 5.73926 0
M  V30 2498 C 224.824 2.99381 5.96596 0
M  V30 2499 H 224.094 -0.0598821 0.738576 0
M  V30 2500 H 226.741 0.553283 1.83333 0
M  V30 2501 H 225.046 -1.2544 3.71177 0
M  V30 2502 H 226.743 -0.913802 3.90449 0
M  V30 2503 H 223.333 0.475192 4.25958 0
M  V30 2504 H 227.517 1.30033 4.78963 0
M  V30 2505 H 222.773 2.46006 5.59724 0
M  V30 2506 H 226.947 3.28419 6.14096 0
M  V30 2507 H 224.574 3.86992 6.54325 0
M  V30 2508 N 226.149 -1.5696 0.141893 0
M  V30 2509 C 227.398 -1.95135 -0.510427 0
M  V30 2510 C 227.711 -1.02896 -1.66348 0
M  V30 2511 O 228.917 -1.30629 -2.38009 0
M  V30 2512 C 227.373 -3.46876 -0.959427 0
M  V30 2513 C 226.981 -4.47691 0.166419 0
M  V30 2514 C 228.725 -3.93927 -1.58183 0
M  V30 2515 C 226.632 -5.90636 -0.300565 0
M  V30 2516 H 225.562 -0.728494 -0.194454 0
M  V30 2517 H 228.213 -1.8211 0.22542 0
M  V30 2518 H 226.595 -3.55215 -1.75038 0
M  V30 2519 H 227.769 -4.51043 0.94325 0
M  V30 2520 H 226.084 -4.10527 0.696905 0
M  V30 2521 H 228.681 -4.98158 -1.94275 0
M  V30 2522 H 229.024 -3.3519 -2.46888 0
M  V30 2523 H 229.557 -3.88484 -0.855863 0
M  V30 2524 H 226.296 -6.5318 0.550989 0
M  V30 2525 H 225.816 -5.90655 -1.04338 0
M  V30 2526 H 227.495 -6.42588 -0.754265 0
M  V30 2527 N 227.627 0.131896 -1.57047 0
M  V30 2528 C 228.574 1.16236 -1.99393 0
M  V30 2529 C 229.544 1.41863 -0.863943 0
M  V30 2530 O 230.729 1.53946 -1.12718 0
M  V30 2531 C 227.869 2.48708 -2.39245 0
M  V30 2532 C 226.982 2.30127 -3.65603 0
M  V30 2533 C 226.117 3.55738 -3.94492 0
M  V30 2534 C 225.156 3.32259 -5.14073 0
M  V30 2535 N 224.293 4.50039 -5.38896 0
M  V30 2536 H 229.133 0.794251 -2.87221 0
M  V30 2537 H 226.67 0.380707 -1.42088 0
M  V30 2538 H 228.628 3.25969 -2.60384 0
M  V30 2539 H 227.258 2.83437 -1.54478 0
M  V30 2540 H 226.31 1.43845 -3.52154 0
M  V30 2541 H 227.622 2.08746 -4.5302 0
M  V30 2542 H 226.776 4.41423 -4.1621 0
M  V30 2543 H 225.515 3.80138 -3.05526 0
M  V30 2544 H 224.52 2.44963 -4.92212 0
M  V30 2545 H 225.745 3.09242 -6.04604 0
M  V30 2546 H 223.691 4.74584 -4.52886 0
M  V30 2547 H 223.608 4.31716 -6.2061 0
M  V30 2548 H 224.876 5.36895 -5.65123 0
M  V30 2549 N 229.106 1.52395 0.401703 0
M  V30 2550 C 230.036 1.79231 1.49661 0
M  V30 2551 C 231.017 0.643654 1.57452 0
M  V30 2552 O 232.202 0.889989 1.72606 0
M  V30 2553 C 229.332 1.94971 2.87409 0
M  V30 2554 C 228.286 3.10604 2.94465 0
M  V30 2555 C 227.612 3.11577 4.34538 0
M  V30 2556 C 228.912 4.49921 2.6527 0
M  V30 2557 H 230.606 2.70917 1.27454 0
M  V30 2558 H 228.152 1.30362 0.6117 0
M  V30 2559 H 230.105 2.12328 3.63999 0
M  V30 2560 H 228.829 0.999632 3.10926 0
M  V30 2561 H 227.488 2.93009 2.20321 0
M  V30 2562 H 227.136 2.14277 4.55076 0
M  V30 2563 H 226.836 3.89247 4.40183 0
M  V30 2564 H 228.36 3.31073 5.13053 0
M  V30 2565 H 229.774 4.67683 3.31581 0
M  V30 2566 H 228.171 5.29564 2.82281 0
M  V30 2567 H 229.241 4.57507 1.60671 0
M  V30 2568 N 230.584 -0.659388 1.43143 0
M  V30 2569 C 231.531 -1.77249 1.47822 0
M  V30 2570 C 232.501 -1.62818 0.328558 0
M  V30 2571 O 233.686 -1.83151 0.534838 0
M  V30 2572 C 230.826 -3.15371 1.40126 0
M  V30 2573 C 229.939 -3.4098 2.65249 0
M  V30 2574 C 229.074 -4.68915 2.49584 0
M  V30 2575 C 228.113 -4.87608 3.70006 0
M  V30 2576 N 227.25 -6.06796 3.53189 0
M  V30 2577 H 232.09 -1.72584 2.42938 0
M  V30 2578 H 229.627 -0.842297 1.20598 0
M  V30 2579 H 231.585 -3.9521 1.33659 0
M  V30 2580 H 230.215 -3.19121 0.485964 0
M  V30 2581 H 229.267 -2.55282 2.8202 0
M  V30 2582 H 230.579 -3.50681 3.54717 0
M  V30 2583 H 229.733 -5.56871 2.4079 0
M  V30 2584 H 228.472 -4.61524 1.5763 0
M  V30 2585 H 227.477 -3.9809 3.79215 0
M  V30 2586 H 228.702 -4.96834 4.62961 0
M  V30 2587 H 226.648 -6.00549 2.63965 0
M  V30 2588 H 226.565 -6.17428 4.36255 0
M  V30 2589 H 227.833 -6.9739 3.48236 0
M  V30 2590 N 232.062 -1.29571 -0.897171 0
M  V30 2591 C 232.994 -1.10724 -2.00681 0
M  V30 2592 C 234.007 -0.0540026 -1.6271 0
M  V30 2593 O 235.196 -0.298783 -1.75982 0
M  V30 2594 C 232.296 -0.663912 -3.32333 0
M  V30 2595 C 231.469 -1.79622 -3.98816 0
M  V30 2596 C 230.528 -1.34349 -5.0876 0
M  V30 2597 O 229.554 -2.04864 -5.31055 0
M  V30 2598 N 230.756 -0.215764 -5.80099 0
M  V30 2599 H 233.521 -2.06291 -2.17403 0
M  V30 2600 H 231.082 -1.21544 -1.06951 0
M  V30 2601 H 233.074 -0.344295 -4.03233 0
M  V30 2602 H 231.644 0.199375 -3.11964 0
M  V30 2603 H 230.864 -2.28459 -3.21248 0
M  V30 2604 H 232.152 -2.55535 -4.39976 0
M  V30 2605 H 231.55 0.372091 -5.64475 0
M  V30 2606 H 230.107 0.0444707 -6.51785 0
M  V30 2607 N 233.54 1.10788 -1.12088 0
M  V30 2608 C 234.956 1.34691 -0.856186 0
M  V30 2609 C 235.156 1.94791 0.515615 0
M  V30 2610 O 234.212 2.18524 1.26505 0
M  V30 2611 C 235.525 2.27208 -1.9697 0
M  V30 2612 C 237.073 2.40755 -2.00016 0
M  V30 2613 C 237.548 3.36598 -3.1059 0
M  V30 2614 N 239.039 3.44164 -3.10008 0
M  V30 2615 C 239.774 4.18284 -3.92206 0
M  V30 2616 N 239.27 4.95322 -4.84384 0
M  V30 2617 N 241.063 4.13865 -3.80357 0
M  V30 2618 H 233.214 0.70144 -2.00483 0
M  V30 2619 H 235.477 0.371405 -0.872217 0
M  V30 2620 H 235.183 1.90251 -2.958 0
M  V30 2621 H 235.057 3.27485 -1.87172 0
M  V30 2622 H 237.444 2.76982 -1.01808 0
M  V30 2623 H 237.525 1.40305 -2.13888 0
M  V30 2624 H 237.169 3.01096 -4.09028 0
M  V30 2625 H 237.099 4.36918 -2.93956 0
M  V30 2626 H 239.59 2.8922 -2.43228 0
M  V30 2627 H 239.903 5.49267 -5.43623 0
M  V30 2628 H 238.248 4.94459 -4.884 0
M  V30 2629 H 241.439 3.52773 -3.07683 0
M  V30 2630 H 241.612 4.71372 -4.44649 0
M  V30 2631 N 235.018 0.912232 1.28515 0
M  V30 2632 C 235.928 0.404506 2.31086 0
M  V30 2633 C 236.944 -0.50707 1.66448 0
M  V30 2634 O 238.12 -0.393624 1.97516 0
M  V30 2635 C 235.185 -0.348572 3.44943 0
M  V30 2636 C 234.246 0.59604 4.25142 0
M  V30 2637 C 233.479 -0.121194 5.33562 0
M  V30 2638 O 233.702 -1.34317 5.5436 0
M  V30 2639 O 232.636 0.542716 5.99448 0
M  V30 2640 H 236.462 1.25579 2.76521 0
M  V30 2641 H 234.047 0.676998 1.33181 0
M  V30 2642 H 235.929 -0.77395 4.14232 0
M  V30 2643 H 234.604 -1.17571 3.01594 0
M  V30 2644 H 233.511 1.07079 3.58448 0
M  V30 2645 H 234.844 1.38995 4.72167 0
M  V30 2646 N 236.496 -1.42363 0.676048 0
M  V30 2647 C 237.736 -2.03392 0.20273 0
M  V30 2648 C 238.1 -1.52306 -1.16906 0
M  V30 2649 O 239.301 -2.05129 -1.73711 0
M  V30 2650 C 237.572 -3.56614 0.236947 0
M  V30 2651 S 239.131 -4.38489 -0.165186 0
M  V30 2652 H 235.949 -0.70611 0.0832418 0
M  V30 2653 H 238.551 -1.74093 0.88948 0
M  V30 2654 H 237.255 -3.91293 1.23767 0
M  V30 2655 H 236.786 -3.90587 -0.469596 0
M  V30 2656 H 238.801 -4.76093 -1.39822 0
M  V30 2657 N 237.974 -0.419461 -1.51915 0
M  V30 2658 C 239.202 0.152136 -2.0634 0
M  V30 2659 C 239.617 1.37988 -1.28859 0
M  V30 2660 O 238.974 1.79243 -0.343232 0
M  V30 2661 C 239.025 0.492266 -3.58133 0
M  V30 2662 O 238.746 -0.686736 -4.32684 0
M  V30 2663 C 240.247 1.11648 -4.2901 0
M  V30 2664 H 237.467 0.0158325 -0.670813 0
M  V30 2665 H 240.011 -0.593394 -1.95702 0
M  V30 2666 H 238.166 1.18769 -3.68745 0
M  V30 2667 H 238.58 -0.400341 -5.2297 0
M  V30 2668 H 240.054 1.3046 -5.36362 0
M  V30 2669 H 240.531 2.09251 -3.86148 0
M  V30 2670 H 241.137 0.460958 -4.22795 0
M  V30 2671 N 239.452 1.56882 -0.150215 0
M  V30 2672 C 240.382 2.19935 0.784284 0
M  V30 2673 C 241.363 1.14854 1.25469 0
M  V30 2674 O 242.548 1.43209 1.31168 0
M  V30 2675 C 239.678 2.82349 2.02229 0
M  V30 2676 C 238.632 3.93285 1.68853 0
M  V30 2677 C 237.958 4.42649 2.99944 0
M  V30 2678 C 239.258 5.13904 0.932714 0
M  V30 2679 H 240.952 2.9828 0.258781 0
M  V30 2680 H 238.498 1.43473 0.123029 0
M  V30 2681 H 240.451 3.25126 2.68088 0
M  V30 2682 H 239.175 2.0134 2.57157 0
M  V30 2683 H 237.834 3.5113 1.05371 0
M  V30 2684 H 237.482 3.58458 3.52869 0
M  V30 2685 H 237.182 5.17476 2.78374 0
M  V30 2686 H 238.706 4.88099 3.66868 0
M  V30 2687 H 240.12 5.53506 1.49345 0
M  V30 2688 H 238.517 5.94515 0.81684 0
M  V30 2689 H 239.587 4.84842 -0.0749568 0
M  V30 2690 N 240.93 -0.123565 1.57115 0
M  V30 2691 C 241.893 -1.13583 1.99076 0
M  V30 2692 C 242.893 -1.34564 0.880296 0
M  V30 2693 O 244.083 -1.31158 1.14644 0
M  V30 2694 C 241.215 -2.49128 2.32698 0
M  V30 2695 H 242.408 -0.775287 2.89706 0
M  V30 2696 H 239.961 -0.36771 1.51913 0
M  V30 2697 H 240.696 -2.90111 1.44934 0
M  V30 2698 H 240.481 -2.35255 3.13684 0
M  V30 2699 H 241.971 -3.2199 2.65918 0
M  V30 2700 N 242.408 -1.52605 -0.393616 0
M  V30 2701 C 243.34 -1.73303 -1.49995 0
M  V30 2702 C 244.353 -0.613473 -1.50799 0
M  V30 2703 O 245.542 -0.889049 -1.54784 0
M  V30 2704 C 242.642 -1.77245 -2.88855 0
M  V30 2705 C 241.815 -3.06483 -3.12069 0
M  V30 2706 C 240.874 -3.02033 -4.30886 0
M  V30 2707 O 239.9 -3.75907 -4.27414 0
M  V30 2708 N 241.102 -2.20897 -5.36828 0
M  V30 2709 H 243.867 -2.68756 -1.32629 0
M  V30 2710 H 241.428 -1.51036 -0.583083 0
M  V30 2711 H 243.42 -1.7178 -3.66434 0
M  V30 2712 H 241.99 -0.891993 -2.99603 0
M  V30 2713 H 241.21 -3.25474 -2.22396 0
M  V30 2714 H 242.498 -3.91947 -3.2443 0
M  V30 2715 H 241.896 -1.60336 -5.42502 0
M  V30 2716 H 240.453 -2.21275 -6.13091 0
M  V30 2717 N 243.887 0.651787 -1.4349 0
M  V30 2718 C 244.817 1.77621 -1.51569 0
M  V30 2719 C 245.798 1.66022 -0.370253 0
M  V30 2720 O 246.983 1.85095 -0.587658 0
M  V30 2721 C 244.113 3.16056 -1.43966 0
M  V30 2722 C 243.067 3.4242 -2.56774 0
M  V30 2723 C 242.393 4.8067 -2.34223 0
M  V30 2724 C 243.693 3.37023 -3.99015 0
M  V30 2725 H 245.387 1.71117 -2.45681 0
M  V30 2726 H 242.933 0.821825 -1.18246 0
M  V30 2727 H 244.886 3.94472 -1.48221 0
M  V30 2728 H 243.61 3.23293 -0.463586 0
M  V30 2729 H 242.269 2.66375 -2.51873 0
M  V30 2730 H 241.917 4.84585 -1.34856 0
M  V30 2731 H 241.617 4.9927 -3.09844 0
M  V30 2732 H 243.141 5.61342 -2.40265 0
M  V30 2733 H 244.555 4.05374 -4.05395 0
M  V30 2734 H 242.952 3.67159 -4.74673 0
M  V30 2735 H 244.022 2.3518 -4.2405 0
M  V30 2736 N 245.365 1.30045 0.890287 0
M  V30 2737 C 246.781 1.08261 1.17268 0
M  V30 2738 C 246.981 -0.160063 2.00863 0
M  V30 2739 O 246.037 -0.855181 2.37577 0
M  V30 2740 C 247.35 2.34323 1.8845 0
M  V30 2741 C 248.898 2.39735 2.01237 0
M  V30 2742 C 249.373 3.65625 2.7583 0
M  V30 2743 N 250.864 3.66402 2.83379 0
M  V30 2744 C 251.599 4.60498 3.41657 0
M  V30 2745 N 251.095 5.64933 4.01026 0
M  V30 2746 N 252.888 4.48051 3.39421 0
M  V30 2747 H 245.039 2.09777 0.332762 0
M  V30 2748 H 247.302 0.92446 0.209948 0
M  V30 2749 H 247.008 3.2498 1.34465 0
M  V30 2750 H 246.882 2.4256 2.88867 0
M  V30 2751 H 249.269 1.4956 2.54393 0
M  V30 2752 H 249.35 2.35476 0.999232 0
M  V30 2753 H 248.994 4.56156 2.23347 0
M  V30 2754 H 248.924 3.67144 3.77509 0
M  V30 2755 H 251.415 2.90896 2.41222 0
M  V30 2756 H 251.728 6.32841 4.43545 0
M  V30 2757 H 250.073 5.68732 3.99461 0
M  V30 2758 H 253.264 3.65649 2.92264 0
M  V30 2759 H 253.437 5.21565 3.84544 0
M  V30 2760 N 246.843 -1.10192 1.12674 0
M  V30 2761 C 247.753 -2.20172 0.810026 0
M  V30 2762 C 248.769 -1.72821 -0.202188 0
M  V30 2763 O 249.945 -2.01369 -0.0351691 0
M  V30 2764 C 247.01 -3.45631 0.272007 0
M  V30 2765 C 246.071 -4.07704 1.34447 0
M  V30 2766 C 245.304 -5.27175 0.832029 0
M  V30 2767 O 245.527 -5.69425 -0.333284 0
M  V30 2768 O 244.461 -5.80168 1.60277 0
M  V30 2769 H 248.287 -2.49701 1.72867 0
M  V30 2770 H 245.872 -1.18977 0.903597 0
M  V30 2771 H 247.754 -4.21394 -0.0230219 0
M  V30 2772 H 246.429 -3.17723 -0.619164 0
M  V30 2773 H 245.336 -3.33614 1.6927 0
M  V30 2774 H 246.669 -4.3982 2.2095 0
M  V30 2775 N 248.321 -0.919034 -1.28029 0
M  V30 2776 C 249.254 -0.355887 -2.25408 0
M  V30 2777 C 250.232 0.542874 -1.5327 0
M  V30 2778 O 251.416 0.485338 -1.82145 0
M  V30 2779 C 248.543 0.490759 -3.35126 0
M  V30 2780 C 247.589 -0.343358 -4.25116 0
M  V30 2781 S 248.422 -1.75344 -5.05979 0
M  V30 2782 C 249.578 -0.914244 -6.19187 0
M  V30 2783 H 249.811 -1.18123 -2.72826 0
M  V30 2784 H 247.344 -0.720636 -1.36551 0
M  V30 2785 H 249.302 0.973404 -3.98792 0
M  V30 2786 H 247.963 1.29054 -2.86363 0
M  V30 2787 H 247.156 0.304266 -5.03081 0
M  V30 2788 H 246.758 -0.759851 -3.662 0
M  V30 2789 H 249.05 -0.146282 -6.77342 0
M  V30 2790 H 249.993 -1.66661 -6.88208 0
M  V30 2791 H 250.401 -0.460082 -5.62622 0
M  V30 2792 N 249.799 1.42003 -0.683588 0
M  V30 2793 C 251.046 2.01413 -0.209514 0
M  V30 2794 C 251.374 1.54088 1.1869 0
M  V30 2795 O 250.629 0.737591 1.81268 0
M  V30 2796 C 250.928 3.56827 -0.202357 0
M  V30 2797 C 250.594 4.23617 -1.54464 0
M  V30 2798 C 249.256 4.41577 -1.91215 0
M  V30 2799 C 251.608 4.61178 -2.42826 0
M  V30 2800 C 248.936 4.9437 -3.15935 0
M  V30 2801 C 251.288 5.15355 -3.66867 0
M  V30 2802 C 249.952 5.31528 -4.03776 0
M  V30 2803 H 249.222 0.737023 -0.0766668 0
M  V30 2804 H 251.869 1.70067 -0.880312 0
M  V30 2805 H 250.174 3.87892 0.551969 0
M  V30 2806 H 251.871 4.00588 0.181793 0
M  V30 2807 H 248.461 4.10004 -1.24877 0
M  V30 2808 H 252.645 4.46968 -2.15717 0
M  V30 2809 H 247.901 5.05076 -3.44541 0
M  V30 2810 H 252.075 5.43402 -4.35531 0
M  V30 2811 H 249.702 5.72199 -5.00492 0
M  V30 2812 N 251.277 0.427512 1.51691 0
M  V30 2813 C 252.554 -0.201684 1.94557 0
M  V30 2814 C 252.934 -1.60981 1.36559 0
M  V30 2815 O 252.282 -2.21814 0.548702 0
M  V30 2816 C 252.492 -0.189394 3.48486 0
M  V30 2817 C 253.84 -0.39978 4.22714 0
M  V30 2818 O 254.864 -0.267945 3.55191 0
M  V30 2819 O 253.723 -0.661249 5.42485 0
M  V30 2820 H 250.817 -0.135261 0.815864 0
M  V30 2821 H 253.363 0.484782 1.62628 0
M  V30 2822 H 252.135 0.795431 3.8313 0
M  V30 2823 H 251.758 -0.919187 3.86829 0
M  V30 2824 N 252.755 -1.56801 0.158532 0
M  V30 2825 C 253.685 -2.20347 -0.772609 0
M  V30 2826 C 254.666 -1.15518 -1.24859 0
M  V30 2827 O 255.851 -1.43902 -1.30406 0
M  V30 2828 C 252.981 -2.83417 -2.00729 0
M  V30 2829 C 251.935 -3.94174 -1.66765 0
M  V30 2830 C 251.261 -4.44233 -2.97592 0
M  V30 2831 C 252.561 -5.14392 -0.905447 0
M  V30 2832 H 254.255 -2.98413 -0.242959 0
M  V30 2833 H 251.801 -1.43537 -0.115419 0
M  V30 2834 H 253.754 -3.26543 -2.6636 0
M  V30 2835 H 252.478 -2.02701 -2.56086 0
M  V30 2836 H 251.137 -3.51684 -1.03508 0
M  V30 2837 H 250.785 -3.60325 -3.50963 0
M  V30 2838 H 250.485 -5.18945 -2.75626 0
M  V30 2839 H 252.009 -4.90037 -3.64274 0
M  V30 2840 H 253.423 -5.5429 -1.46408 0
M  V30 2841 H 251.82 -5.9494 -0.7853 0
M  V30 2842 H 252.89 -4.84795 0.100668 0
M  V30 2843 N 254.233 0.115231 -1.57178 0
M  V30 2844 C 255.481 0.820727 -1.84685 0
M  V30 2845 C 255.802 1.80237 -0.744279 0
M  V30 2846 O 255.072 1.94529 0.231375 0
M  V30 2847 H 253.652 0.306084 -0.681411 0
M  V30 2848 H 256.314 0.101656 -1.94635 0
M  V30 2849 H 255.41 1.36366 -2.80733 0
M  V30 2850 N 255.711 1.52812 0.385517 0
M  V30 2851 C 256.988 1.5861 1.14465 0
M  V30 2852 C 257.368 0.381402 2.07626 0
M  V30 2853 O 256.716 -0.629999 2.19643 0
M  V30 2854 C 256.926 2.92664 1.90128 0
M  V30 2855 C 258.274 3.46526 2.45367 0
M  V30 2856 O 259.298 2.94562 2.0028 0
M  V30 2857 O 258.157 4.37323 3.27736 0
M  V30 2858 H 255.251 0.639855 0.523941 0
M  V30 2859 H 257.797 1.65149 0.390389 0
M  V30 2860 H 256.569 3.71788 1.22022 0
M  V30 2861 H 256.192 2.89527 2.72507 0
M  V30 2862 N 257.189 -0.644168 1.43834 0
M  V30 2863 C 258.136 -1.75671 1.49694 0
M  V30 2864 C 259.106 -1.6246 0.345809 0
M  V30 2865 O 260.291 -1.82573 0.554234 0
M  V30 2866 C 257.431 -3.13867 1.43463 0
M  V30 2867 C 256.544 -3.38147 2.6885 0
M  V30 2868 C 255.679 -4.66241 2.54544 0
M  V30 2869 C 254.718 -4.83657 3.75157 0
M  V30 2870 N 253.855 -6.03016 3.59605 0
M  V30 2871 H 258.695 -1.69998 2.44754 0
M  V30 2872 H 256.232 -0.829458 1.21484 0
M  V30 2873 H 258.19 -3.9377 1.37843 0
M  V30 2874 H 256.82 -3.18588 0.519783 0
M  V30 2875 H 255.872 -2.52276 2.84712 0
M  V30 2876 H 257.184 -3.46899 3.58417 0
M  V30 2877 H 256.338 -5.54285 2.46683 0
M  V30 2878 H 255.077 -4.59826 1.62516 0
M  V30 2879 H 254.082 -3.94046 3.83416 0
M  V30 2880 H 255.307 -4.91896 4.68204 0
M  V30 2881 H 253.253 -5.97715 2.7032 0
M  V30 2882 H 253.17 -6.12766 4.42779 0
M  V30 2883 H 254.438 -6.93657 3.55613 0
M  V30 2884 N 258.668 -1.30515 -0.883378 0
M  V30 2885 C 259.898 -1.22182 -1.66599 0
M  V30 2886 C 260.306 0.217507 -1.87946 0
M  V30 2887 O 259.649 1.1554 -1.42815 0
M  V30 2888 C 259.711 -1.88146 -3.06335 0
M  V30 2889 C 259.375 -3.37476 -3.08154 0
M  V30 2890 C 260.372 -4.33443 -2.87094 0
M  V30 2891 C 258.057 -3.7895 -3.29701 0
M  V30 2892 C 260.051 -5.68858 -2.8754 0
M  V30 2893 C 257.738 -5.14482 -3.29776 0
M  V30 2894 C 258.736 -6.09246 -3.0872 0
M  V30 2895 O 258.424 -7.42302 -3.08615 0
M  V30 2896 H 258.156 -0.423898 -0.52658 0
M  V30 2897 H 260.71 -1.72703 -1.11188 0
M  V30 2898 H 258.94 -1.32157 -3.63416 0
M  V30 2899 H 260.629 -1.7391 -3.66756 0
M  V30 2900 H 261.395 -4.02733 -2.70243 0
M  V30 2901 H 257.274 -3.05631 -3.45124 0
M  V30 2902 H 260.818 -6.428 -2.71024 0
M  V30 2903 H 256.715 -5.44832 -3.46163 0
M  V30 2904 H 257.483 -7.5131 -3.24769 0
M  V30 2905 N 260.146 1.09593 -1.13257 0
M  V30 2906 C 261.078 2.16015 -0.766167 0
M  V30 2907 C 262.091 1.61423 0.211303 0
M  V30 2908 O 263.28 1.78498 -0.00863946 0
M  V30 2909 C 260.38 3.38706 -0.114662 0
M  V30 2910 C 259.553 4.22717 -1.12379 0
M  V30 2911 C 258.612 5.23835 -0.498301 0
M  V30 2912 O 257.638 5.573 -1.15781 0
M  V30 2913 N 258.84 5.75886 0.730417 0
M  V30 2914 H 261.605 2.48055 -1.68193 0
M  V30 2915 H 259.166 1.25292 -1.02535 0
M  V30 2916 H 261.158 4.03464 0.315991 0
M  V30 2917 H 259.728 3.04569 0.704011 0
M  V30 2918 H 258.948 3.54122 -1.73179 0
M  V30 2919 H 260.236 4.75673 -1.80589 0
M  V30 2920 H 259.634 5.50911 1.28504 0
M  V30 2921 H 258.191 6.42387 1.10376 0
M  V30 2922 N 261.624 0.925811 1.2754 0
M  V30 2923 C 262.901 0.483726 1.89524 0
M  V30 2924 C 263.281 -1.03809 1.83812 0
M  V30 2925 O 262.629 -1.89143 1.28207 0
M  V30 2926 C 262.839 1.02769 3.33526 0
M  V30 2927 C 264.187 1.08703 4.10449 0
M  V30 2928 O 265.211 0.977175 3.42534 0
M  V30 2929 O 264.07 1.25599 5.31871 0
M  V30 2930 H 261.164 0.15529 0.812289 0
M  V30 2931 H 263.71 1.01738 1.35822 0
M  V30 2932 H 262.482 2.07155 3.31967 0
M  V30 2933 H 262.105 0.475567 3.94746 0
M  V30 2934 N 263.102 -1.41638 0.69111 0
M  V30 2935 C 264.348 -2.01598 0.220519 0
M  V30 2936 C 264.681 -1.54594 -1.17535 0
M  V30 2937 O 263.956 -0.755177 -1.79241 0
M  V30 2938 C 264.239 -3.59062 0.273243 0
M  V30 2939 C 264.092 -4.16203 1.70573 0
M  V30 2940 C 265.411 -4.38546 -0.369457 0
M  V30 2941 H 262.53 -0.732468 0.0816045 0
M  V30 2942 H 265.172 -1.68445 0.878986 0
M  V30 2943 H 263.322 -3.87435 -0.287411 0
M  V30 2944 H 264.994 -3.98722 2.31989 0
M  V30 2945 H 263.237 -3.71414 2.2413 0
M  V30 2946 H 263.908 -5.25358 1.69419 0
M  V30 2947 H 266.384 -4.1596 0.107977 0
M  V30 2948 H 265.26 -5.48069 -0.302002 0
M  V30 2949 H 265.521 -4.17662 -1.44951 0
M  V30 2950 N 264.58 -0.43555 -1.51462 0
M  V30 2951 C 265.527 0.376797 -2.27703 0
M  V30 2952 C 266.497 1.01838 -1.31219 0
M  V30 2953 O 267.682 1.03762 -1.60119 0
M  V30 2954 C 264.822 1.47301 -3.12084 0
M  V30 2955 C 263.935 0.849744 -4.2356 0
M  V30 2956 C 263.07 1.92086 -4.95254 0
M  V30 2957 C 262.109 1.27593 -5.98654 0
M  V30 2958 N 261.246 2.28833 -6.63762 0
M  V30 2959 H 266.086 -0.279734 -2.96684 0
M  V30 2960 H 263.623 -0.149795 -1.46335 0
M  V30 2961 H 265.581 2.11984 -3.59331 0
M  V30 2962 H 264.211 2.0992 -2.45221 0
M  V30 2963 H 263.263 0.0912529 -3.80291 0
M  V30 2964 H 264.575 0.338878 -4.97648 0
M  V30 2965 H 263.729 2.64435 -5.46039 0
M  V30 2966 H 262.468 2.46545 -4.20793 0
M  V30 2967 H 261.473 0.537893 -5.47162 0
M  V30 2968 H 262.698 0.738693 -6.7507 0
M  V30 2969 H 260.644 2.82375 -5.92115 0
M  V30 2970 H 260.561 1.82632 -7.33608 0
M  V30 2971 H 261.829 3.00671 -7.19178 0
M  V30 2972 N 266.058 1.56714 -0.166846 0
M  V30 2973 C 267.335 1.88412 0.525373 0
M  V30 2974 C 267.715 1.07602 1.81618 0
M  V30 2975 O 267.063 0.168621 2.27877 0
M  V30 2976 C 267.273 3.40363 0.771613 0
M  V30 2977 C 268.621 4.10007 1.1036 0
M  V30 2978 O 269.645 3.45655 0.860304 0
M  V30 2979 O 268.504 5.2369 1.56239 0
M  V30 2980 H 265.598 0.781587 0.270278 0
M  V30 2981 H 268.144 1.68458 -0.204946 0
M  V30 2982 H 266.916 3.91046 -0.141093 0
M  V30 2983 H 266.539 3.65914 1.55541 0
M  V30 2984 N 267.536 -0.106894 1.57237 0
M  V30 2985 C 268.469 -1.16125 1.96444 0
M  V30 2986 C 269.447 -1.3947 0.835871 0
M  V30 2987 O 270.631 -1.53425 1.09513 0
M  V30 2988 C 267.758 -2.51277 2.27107 0
M  V30 2989 C 266.804 -2.44285 3.4961 0
M  V30 2990 S 267.637 -1.87077 5.01759 0
M  V30 2991 C 268.793 -3.23877 5.35588 0
M  V30 2992 H 269.026 -0.826971 2.85567 0
M  V30 2993 H 266.559 -0.314124 1.51171 0
M  V30 2994 H 268.517 -3.29035 2.45451 0
M  V30 2995 H 267.178 -2.81879 1.38576 0
M  V30 2996 H 266.371 -3.4387 3.68469 0
M  V30 2997 H 265.973 -1.74652 3.30715 0
M  V30 2998 H 268.265 -4.20122 5.31511 0
M  V30 2999 H 269.208 -3.09833 6.36717 0
M  V30 3000 H 269.616 -3.22864 4.63054 0
M  V30 3001 N 269.014 -1.53014 -0.377408 0
M  V30 3002 C 270.43 -1.42523 -0.718281 0
M  V30 3003 C 270.63 -0.55487 -1.9371 0
M  V30 3004 O 269.686 -0.0327593 -2.52479 0
M  V30 3005 C 270.999 -2.85546 -0.942539 0
M  V30 3006 C 272.547 -2.95101 -1.04329 0
M  V30 3007 C 273.022 -4.3916 -1.3001 0
M  V30 3008 N 274.513 -4.42536 -1.36806 0
M  V30 3009 C 275.248 -5.51097 -1.58364 0
M  V30 3010 N 274.744 -6.69724 -1.77317 0
M  V30 3011 N 276.537 -5.38657 -1.60638 0
M  V30 3012 H 268.688 -2.08116 0.424426 0
M  V30 3013 H 270.951 -0.939352 0.127759 0
M  V30 3014 H 270.657 -3.51499 -0.118929 0
M  V30 3015 H 270.531 -3.28493 -1.85397 0
M  V30 3016 H 272.918 -2.29309 -1.85745 0
M  V30 3017 H 272.999 -2.55566 -0.109505 0
M  V30 3018 H 272.643 -5.05521 -0.490991 0
M  V30 3019 H 272.573 -4.76258 -2.24691 0
M  V30 3020 H 275.064 -3.57039 -1.23821 0
M  V30 3021 H 275.377 -7.48233 -1.93306 0
M  V30 3022 H 273.722 -6.72732 -1.74518 0
M  V30 3023 H 276.913 -4.44948 -1.45391 0
M  V30 3024 H 277.086 -6.2333 -1.77098 0
M  V30 3025 N 270.492 0.636531 -1.44174 0
M  V30 3026 C 271.439 1.74875 -1.50624 0
M  V30 3027 C 272.409 1.62275 -0.35442 0
M  V30 3028 O 273.594 1.82276 -0.563908 0
M  V30 3029 C 270.734 3.13102 -1.45125 0
M  V30 3030 C 269.847 3.36717 -2.7064 0
M  V30 3031 C 268.982 4.64885 -2.57013 0
M  V30 3032 C 268.021 4.8166 -3.77717 0
M  V30 3033 N 267.158 6.01101 -3.62798 0
M  V30 3034 H 271.998 1.68697 -2.45653 0
M  V30 3035 H 269.535 0.823004 -1.21922 0
M  V30 3036 H 271.493 3.93034 -1.39929 0
M  V30 3037 H 270.123 3.18308 -0.536671 0
M  V30 3038 H 269.175 2.50763 -2.86046 0
M  V30 3039 H 270.487 3.44993 -3.60252 0
M  V30 3040 H 269.641 5.52969 -2.49619 0
M  V30 3041 H 268.38 4.58957 -1.64953 0
M  V30 3042 H 267.385 3.92007 -3.85501 0
M  V30 3043 H 268.61 4.89406 -4.70807 0
M  V30 3044 H 266.556 5.96273 -2.73486 0
M  V30 3045 H 266.473 6.10409 -4.46023 0
M  V30 3046 H 267.741 6.91761 -3.59286 0
M  V30 3047 N 271.97 1.30982 0.876444 0
M  V30 3048 C 273.386 1.09498 1.16113 0
M  V30 3049 C 273.586 -0.13875 2.01022 0
M  V30 3050 O 272.642 -0.829935 2.38471 0
M  V30 3051 C 273.955 2.36308 1.85954 0
M  V30 3052 C 275.503 2.41856 1.98683 0
M  V30 3053 C 275.978 3.6853 2.71937 0
M  V30 3054 N 277.469 3.69387 2.79477 0
M  V30 3055 C 278.204 4.64096 3.36753 0
M  V30 3056 N 277.7 5.69155 3.95012 0
M  V30 3057 N 279.493 4.51626 3.3465 0
M  V30 3058 H 271.644 2.10118 0.310494 0
M  V30 3059 H 273.907 0.926634 0.200131 0
M  V30 3060 H 273.613 3.26388 1.31011 0
M  V30 3061 H 273.487 2.4561 2.86278 0
M  V30 3062 H 275.874 1.52249 2.52793 0
M  V30 3063 H 275.955 2.36523 0.9742 0
M  V30 3064 H 275.599 4.58499 2.18496 0
M  V30 3065 H 275.529 3.71127 3.73593 0
M  V30 3066 H 278.02 2.93438 2.38123 0
M  V30 3067 H 278.333 6.3751 4.36808 0
M  V30 3068 H 276.678 5.72937 3.93406 0
M  V30 3069 H 279.869 3.68728 2.8837 0
M  V30 3070 H 280.042 5.25614 3.7899 0
M  V30 3071 N 273.449 -1.08991 1.13837 0
M  V30 3072 C 274.695 -1.81526 0.90422 0
M  V30 3073 C 275.028 -1.85706 -0.568066 0
M  V30 3074 O 274.303 -1.32855 -1.42056 0
M  V30 3075 C 274.586 -3.27447 1.49835 0
M  V30 3076 C 274.439 -3.31512 3.04006 0
M  V30 3077 C 275.758 -4.24256 1.17025 0
M  V30 3078 H 272.877 -0.659029 0.329923 0
M  V30 3079 H 275.519 -1.27644 1.40737 0
M  V30 3080 H 273.669 -3.73462 1.07044 0
M  V30 3081 H 275.341 -2.93867 3.55584 0
M  V30 3082 H 273.584 -2.70963 3.38765 0
M  V30 3083 H 274.255 -4.34329 3.40679 0
M  V30 3084 H 276.731 -3.86549 1.54009 0
M  V30 3085 H 275.607 -5.24684 1.61237 0
M  V30 3086 H 275.868 -4.42019 0.0846274 0
M  V30 3087 N 274.927 -0.932562 -1.27047 0
M  V30 3088 C 275.857 -0.452902 -2.29066 0
M  V30 3089 C 276.838 0.489338 -1.62909 0
M  V30 3090 O 278.023 0.393046 -1.90181 0
M  V30 3091 C 275.153 0.290698 -3.46081 0
M  V30 3092 C 274.107 -0.564168 -4.24265 0
M  V30 3093 C 273.433 0.308886 -5.33807 0
M  V30 3094 C 274.733 -1.83112 -4.89149 0
M  V30 3095 H 276.427 -1.30552 -2.69437 0
M  V30 3096 H 273.973 -0.629201 -1.29526 0
M  V30 3097 H 275.926 0.637233 -4.16554 0
M  V30 3098 H 274.65 1.17738 -3.0464 0
M  V30 3099 H 273.309 -0.893477 -3.55545 0
M  V30 3100 H 272.957 1.19467 -4.88607 0
M  V30 3101 H 272.657 -0.259633 -5.87026 0
M  V30 3102 H 274.181 0.650884 -6.07121 0
M  V30 3103 H 275.595 -1.55236 -5.51883 0
M  V30 3104 H 273.992 -2.34353 -5.52448 0
M  V30 3105 H 275.062 -2.54772 -4.12576 0
M  V30 3106 N 276.405 1.4127 -0.698611 0
M  V30 3107 C 277.635 2.05205 -0.239644 0
M  V30 3108 C 278.043 1.52684 1.11733 0
M  V30 3109 O 277.386 0.671222 1.70998 0
M  V30 3110 C 277.448 3.59289 -0.123126 0
M  V30 3111 C 277.112 4.34619 -1.41263 0
M  V30 3112 C 278.109 4.63701 -2.35111 0
M  V30 3113 C 275.794 4.73837 -1.66684 0
M  V30 3114 C 277.788 5.30966 -3.52639 0
M  V30 3115 C 275.475 5.40837 -2.84498 0
M  V30 3116 C 276.473 5.69329 -3.77298 0
M  V30 3117 O 276.161 6.34949 -4.93047 0
M  V30 3118 H 275.893 0.66723 -0.108537 0
M  V30 3119 H 278.447 1.81974 -0.952602 0
M  V30 3120 H 276.677 3.81272 0.645628 0
M  V30 3121 H 278.366 4.04797 0.299056 0
M  V30 3122 H 279.132 4.33882 -2.16729 0
M  V30 3123 H 275.011 4.51039 -0.953135 0
M  V30 3124 H 278.555 5.53121 -4.25091 0
M  V30 3125 H 274.452 5.70075 -3.02795 0
M  V30 3126 H 275.22 6.53445 -4.92902 0
M  V30 3127 N 277.883 0.443576 1.51229 0
M  V30 3128 C 279.294 -0.0180867 1.86691 0
M  V30 3129 C 279.645 -1.41384 1.36033 0
M  V30 3130 O 278.77 -2.04291 0.713722 0
M  V30 3131 C 279.365 -0.039597 3.38777 0
M  V30 3132 C 277.924 -0.445692 3.73752 0
M  V30 3133 C 277.071 0.357584 2.74985 0
M  V30 3134 H 280.022 0.659138 1.44364 0
M  V30 3135 H 280.043 -0.847761 3.70936 0
M  V30 3136 H 279.555 0.976382 3.75617 0
M  V30 3137 H 277.656 -1.46704 3.42503 0
M  V30 3138 H 277.769 -0.166155 4.78812 0
M  V30 3139 H 276.133 -0.184973 2.54027 0
M  V30 3140 H 276.916 1.37256 3.14668 0
M  V30 3141 N 279.361 -1.56624 0.175154 0
M  V30 3142 C 280.324 -2.16934 -0.739738 0
M  V30 3143 C 281.324 -1.11842 -1.15533 0
M  V30 3144 O 282.514 -1.37335 -1.07167 0
M  V30 3145 C 279.646 -2.75531 -2.00738 0
M  V30 3146 H 280.839 -2.99131 -0.214639 0
M  V30 3147 H 278.392 -1.56123 -0.0744197 0
M  V30 3148 H 279.127 -1.97078 -2.57548 0
M  V30 3149 H 278.912 -3.52444 -1.71831 0
M  V30 3150 H 280.402 -3.21904 -2.66021 0
M  V30 3151 N 280.839 0.0985539 -1.57292 0
M  V30 3152 C 281.769 1.12064 -2.04851 0
M  V30 3153 C 282.75 1.41981 -0.936767 0
M  V30 3154 O 283.935 1.52071 -1.20781 0
M  V30 3155 C 281.065 2.44144 -2.47004 0
M  V30 3156 C 280.019 2.28643 -3.6181 0
M  V30 3157 C 279.345 3.65869 -3.89929 0
M  V30 3158 C 280.645 1.72986 -4.92822 0
M  V30 3159 H 282.339 0.724979 -2.9049 0
M  V30 3160 H 279.885 0.34729 -1.39749 0
M  V30 3161 H 281.838 3.15914 -2.78884 0
M  V30 3162 H 280.562 2.85639 -1.5836 0
M  V30 3163 H 279.221 1.59318 -3.30172 0
M  V30 3164 H 278.869 4.04885 -2.98458 0
M  V30 3165 H 278.569 3.56344 -4.67218 0
M  V30 3166 H 280.093 4.39112 -4.2428 0
M  V30 3167 H 281.507 2.34593 -5.23105 0
M  V30 3168 H 279.904 1.74229 -5.74251 0
M  V30 3169 H 280.974 0.689007 -4.7998 0
M  V30 3170 N 282.317 1.53212 0.369288 0
M  V30 3171 C 283.227 1.82342 1.47609 0
M  V30 3172 C 284.243 0.711532 1.58787 0
M  V30 3173 O 285.419 1.0012 1.74751 0
M  V30 3174 C 282.484 2.00393 2.8292 0
M  V30 3175 C 281.545 3.24297 2.81301 0
M  V30 3176 C 280.778 3.41478 4.10157 0
M  V30 3177 O 281.001 2.63033 5.06132 0
M  V30 3178 O 279.935 4.34817 4.16194 0
M  V30 3179 H 283.761 2.76366 1.25918 0
M  V30 3180 H 281.346 1.38547 0.559034 0
M  V30 3181 H 283.228 2.13859 3.63101 0
M  V30 3182 H 281.903 1.09559 3.04596 0
M  V30 3183 H 280.81 3.16257 1.99831 0
M  V30 3184 H 282.143 4.15041 2.64578 0
M  V30 3185 N 283.795 -0.628877 1.44509 0
M  V30 3186 C 284.705 -1.7694 1.54044 0
M  V30 3187 C 285.721 -1.68705 0.425987 0
M  V30 3188 O 286.897 -1.89442 0.683656 0
M  V30 3189 C 283.962 -3.13332 1.48405 0
M  V30 3190 C 283.023 -3.33181 2.70719 0
M  V30 3191 C 282.256 -4.63067 2.6534 0
M  V30 3192 O 282.479 -5.44017 1.71469 0
M  V30 3193 O 281.413 -4.85167 3.56226 0
M  V30 3194 H 285.239 -1.71848 2.50403 0
M  V30 3195 H 282.824 -0.790378 1.26781 0
M  V30 3196 H 284.706 -3.94634 1.47791 0
M  V30 3197 H 283.381 -3.1896 0.551898 0
M  V30 3198 H 282.288 -2.51549 2.769 0
M  V30 3199 H 283.621 -3.32416 3.62988 0
M  V30 3200 N 285.273 -1.31445 -0.869486 0
M  V30 3201 C 286.519 -1.21337 -1.62496 0
M  V30 3202 C 286.852 0.227872 -1.92858 0
M  V30 3203 O 286.127 1.16094 -1.56053 0
M  V30 3204 C 286.41 -2.05814 -2.95487 0
M  V30 3205 C 286.263 -3.5824 -2.72 0
M  V30 3206 C 287.582 -1.9079 -3.96594 0
M  V30 3207 H 284.701 -0.442135 -0.589649 0
M  V30 3208 H 287.343 -1.6124 -1.00507 0
M  V30 3209 H 285.493 -1.71913 -3.48394 0
M  V30 3210 H 287.165 -4.0228 -2.25762 0
M  V30 3211 H 285.408 -3.81647 -2.06224 0
M  V30 3212 H 286.079 -4.12657 -3.66631 0
M  V30 3213 H 288.555 -2.20459 -3.52898 0
M  V30 3214 H 287.431 -2.52199 -4.87531 0
M  V30 3215 H 287.692 -0.871341 -4.33428 0
M  V30 3216 N 286.751 1.08385 -1.14413 0
M  V30 3217 C 287.699 2.17406 -0.826888 0
M  V30 3218 C 288.693 1.6827 0.195312 0
M  V30 3219 O 289.899 1.79927 0.0513892 0
M  V30 3220 H 286.274 0.70934 -0.249681 0
M  V30 3221 H 288.245 2.41388 -1.75426 0
M  V30 3222 C 286.994 3.46215 -0.320979 0
M  V30 3223 H 286.317 3.84401 -1.0989 0
M  V30 3224 H 287.757 4.23777 -0.137549 0
M  V30 3225 C 286.216 3.23067 0.955472 0
M  V30 3226 O 286.746 3.4668 2.02918 0
M  V30 3227 N 284.952 2.7661 0.890798 0
M  V30 3228 H 284.499 2.57594 0.0168815 0
M  V30 3229 H 284.457 2.61501 1.74542 0
M  V30 3230 N 288.23 0.939286 1.26551 0
M  V30 3231 C 289.177 0.446088 2.26448 0
M  V30 3232 C 290.147 -0.493234 1.58608 0
M  V30 3233 O 291.332 -0.409857 1.86346 0
M  V30 3234 C 288.472 -0.284375 3.43926 0
M  V30 3235 C 287.585 0.690399 4.26448 0
M  V30 3236 C 286.72 -0.0610712 5.31165 0
M  V30 3237 C 285.759 0.905649 6.05363 0
M  V30 3238 N 284.896 0.186055 7.01853 0
M  V30 3239 H 289.736 1.30291 2.68008 0
M  V30 3240 H 287.273 0.65371 1.31776 0
M  V30 3241 H 289.231 -0.724313 4.10864 0
M  V30 3242 H 287.861 -1.10535 3.03285 0
M  V30 3243 H 286.913 1.24885 3.59316 0
M  V30 3244 H 288.225 1.42873 4.779 0
M  V30 3245 H 287.379 -0.56038 6.04106 0
M  V30 3246 H 286.118 -0.832297 4.80546 0
M  V30 3247 H 285.123 1.4161 5.3125 0
M  V30 3248 H 286.348 1.67685 6.58072 0
M  V30 3249 H 284.294 -0.566714 6.53548 0
M  V30 3250 H 284.211 0.863752 7.51049 0
M  V30 3251 H 285.479 -0.292221 7.78952 0
M  V30 3252 N 289.708 -1.40897 0.706093 0
M  V30 3253 C 290.656 -2.32572 0.0361893 0
M  V30 3254 C 291.65 -1.51532 -0.757266 0
M  V30 3255 O 292.856 -1.67396 -0.661703 0
M  V30 3256 H 289.231 -0.751966 -0.00709935 0
M  V30 3257 H 291.202 -2.86733 0.826249 0
M  V30 3258 C 289.951 -3.36418 -0.87854 0
M  V30 3259 H 289.274 -3.98836 -0.277401 0
M  V30 3260 H 290.714 -4.0308 -1.3154 0
M  V30 3261 C 289.173 -2.71141 -1.99961 0
M  V30 3262 O 289.703 -2.56735 -3.0895 0
M  V30 3263 N 287.909 -2.29671 -1.78043 0
M  V30 3264 H 287.456 -2.41588 -0.894042 0
M  V30 3265 H 287.414 -1.86332 -2.53235 0
M  V30 3266 N 291.186 -0.45159 -1.50991 0
M  V30 3267 C 292.414 0.108334 -2.06616 0
M  V30 3268 C 292.829 1.35224 -1.31757 0
M  V30 3269 O 292.186 1.78475 -0.381174 0
M  V30 3270 C 292.237 0.41619 -3.59096 0
M  V30 3271 O 291.958 -0.778361 -4.3113 0
M  V30 3272 C 293.459 1.02523 -4.31282 0
M  V30 3273 H 290.679 0.00159995 -0.670998 0
M  V30 3274 H 293.223 -0.634771 -1.94399 0
M  V30 3275 H 291.378 1.10921 -3.71181 0
M  V30 3276 H 291.792 -0.511181 -5.22003 0
M  V30 3277 H 293.266 1.19053 -5.39009 0
M  V30 3278 H 293.743 2.01013 -3.905 0
M  V30 3279 H 294.349 0.371173 -4.23677 0
M  V30 3280 N 292.664 1.56529 -0.183458 0
M  V30 3281 C 293.941 1.88959 0.50536 0
M  V30 3282 C 294.321 1.09523 1.80466 0
M  V30 3283 O 293.669 0.19278 2.27685 0
M  V30 3284 C 293.879 3.41162 0.73547 0
M  V30 3285 C 295.227 4.11155 1.06005 0
M  V30 3286 O 296.251 3.46548 0.823594 0
M  V30 3287 O 295.11 5.25318 1.50675 0
M  V30 3288 H 292.204 0.78441 0.261973 0
M  V30 3289 H 294.75 1.68231 -0.222802 0
M  V30 3290 H 293.522 3.90874 -0.182561 0
M  V30 3291 H 293.145 3.67543 1.51651 0
M  V30 3292 N 294.142 -0.090211 1.57342 0
M  V30 3293 C 295.072 -1.10976 2.05443 0
M  V30 3294 C 296.053 -1.41482 0.944284 0
M  V30 3295 O 297.238 -1.51428 1.21586 0
M  V30 3296 C 294.368 -2.42831 2.48295 0
M  V30 3297 C 293.322 -2.26721 3.63018 0
M  V30 3298 C 292.648 -3.63796 3.91863 0
M  V30 3299 C 293.948 -1.7037 4.93732 0
M  V30 3300 H 295.642 -0.709564 2.9087 0
M  V30 3301 H 293.188 -0.339874 1.39932 0
M  V30 3302 H 295.141 -3.14431 2.80555 0
M  V30 3303 H 293.865 -2.84795 1.59873 0
M  V30 3304 H 292.524 -1.57565 3.31012 0
M  V30 3305 H 292.172 -4.03297 3.00601 0
M  V30 3306 H 291.872 -3.53861 4.69101 0
M  V30 3307 H 293.396 -4.36855 4.26603 0
M  V30 3308 H 294.81 -2.31816 5.24342 0
M  V30 3309 H 293.207 -1.71181 5.75167 0
M  V30 3310 H 294.277 -0.663542 4.80339 0
M  V30 3311 N 295.62 -1.53406 -0.361157 0
M  V30 3312 C 296.848 -1.73717 -1.12383 0
M  V30 3313 C 297.263 -0.468161 -1.82904 0
M  V30 3314 O 296.62 0.559198 -1.73722 0
M  V30 3315 C 296.671 -2.90558 -2.15078 0
M  V30 3316 O 296.392 -4.12549 -1.47428 0
M  V30 3317 C 297.893 -3.22777 -3.03858 0
M  V30 3318 H 295.113 -0.580896 -0.335858 0
M  V30 3319 H 297.657 -2.00167 -0.418728 0
M  V30 3320 H 295.812 -2.66489 -2.8118 0
M  V30 3321 H 296.226 -4.78009 -2.15887 0
M  V30 3322 H 297.7 -4.07927 -3.71887 0
M  V30 3323 H 298.177 -2.38329 -3.68912 0
M  V30 3324 H 298.783 -3.48787 -2.43367 0
M  V30 3325 N 297.098 0.621204 -1.44841 0
M  V30 3326 C 298.344 1.3826 -1.48365 0
M  V30 3327 C 298.677 1.93831 -0.119624 0
M  V30 3328 O 297.952 1.74251 0.864111 0
M  V30 3329 C 298.235 2.54058 -2.55199 0
M  V30 3330 C 298.088 2.03772 -4.00995 0
M  V30 3331 C 299.407 3.56225 -2.58442 0
M  V30 3332 H 296.526 0.501374 -0.540179 0
M  V30 3333 H 299.168 0.7015 -1.76576 0
M  V30 3334 H 297.318 3.12162 -2.31274 0
M  V30 3335 H 298.99 1.50423 -4.36086 0
M  V30 3336 H 297.233 1.34876 -4.12299 0
M  V30 3337 H 297.904 2.87185 -4.71411 0
M  V30 3338 H 300.38 3.07939 -2.79844 0
M  V30 3339 H 299.256 4.34756 -3.3508 0
M  V30 3340 H 299.517 4.10949 -1.63013 0
M  V30 3341 N 298.576 1.31904 0.862503 0
M  V30 3342 C 299.539 1.20131 1.95195 0
M  V30 3343 C 300.539 0.126409 1.60302 0
M  V30 3344 O 301.729 0.376234 1.70089 0
M  V30 3345 C 298.861 0.845691 3.30244 0
M  V30 3346 H 300.054 2.16943 2.07064 0
M  V30 3347 H 297.607 1.15622 1.05172 0
M  V30 3348 H 298.342 -0.120957 3.24074 0
M  V30 3349 H 298.127 1.62276 3.56944 0
M  V30 3350 H 299.617 0.787418 4.10109 0
M  V30 3351 N 300.054 -1.07777 1.14986 0
M  V30 3352 C 301.3 -1.80557 0.923422 0
M  V30 3353 C 301.633 -1.86298 -0.548337 0
M  V30 3354 O 300.908 -1.34354 -1.40639 0
M  V30 3355 C 301.191 -3.25839 1.53299 0
M  V30 3356 C 301.044 -3.28269 3.07505 0
M  V30 3357 C 302.363 -4.22991 1.21518 0
M  V30 3358 H 299.482 -0.655493 0.336894 0
M  V30 3359 H 302.124 -1.26144 1.42083 0
M  V30 3360 H 300.274 -3.72306 1.10999 0
M  V30 3361 H 301.946 -2.90079 3.58681 0
M  V30 3362 H 300.189 -2.67355 3.4162 0
M  V30 3363 H 300.86 -4.30691 3.45266 0
M  V30 3364 H 303.336 -3.84894 1.581 0
M  V30 3365 H 302.212 -5.22945 1.66793 0
M  V30 3366 H 302.473 -4.41904 0.131505 0
M  V30 3367 N 301.532 -0.945985 -1.26051 0
M  V30 3368 C 302.442 -0.465633 -2.29933 0
M  V30 3369 C 303.458 0.462761 -1.67733 0
M  V30 3370 O 304.634 0.341118 -1.9849 0
M  V30 3371 C 301.699 0.256994 -3.45746 0
M  V30 3372 C 300.76 -0.708549 -4.23412 0
M  V30 3373 C 299.993 -0.0203135 -5.33696 0
M  V30 3374 O 300.216 1.19571 -5.57726 0
M  V30 3375 O 299.15 -0.701459 -5.97799 0
M  V30 3376 H 302.976 -1.32866 -2.73094 0
M  V30 3377 H 300.561 -0.712071 -1.31339 0
M  V30 3378 H 302.443 0.663852 -4.16138 0
M  V30 3379 H 301.118 1.09533 -3.04605 0
M  V30 3380 H 300.025 -1.16545 -3.55483 0
M  V30 3381 H 301.358 -1.51465 -4.68315 0
M  V30 3382 N 303.011 1.40521 -0.713556 0
M  V30 3383 C 304.422 1.83853 -0.324807 0
M  V30 3384 C 304.773 1.59667 1.14021 0
M  V30 3385 O 303.898 1.07649 1.87725 0
M  V30 3386 C 304.493 3.33751 -0.582746 0
M  V30 3387 C 303.052 3.75584 -0.247727 0
M  V30 3388 C 302.199 2.63753 -0.856121 0
M  V30 3389 H 305.15 1.29817 -0.91286 0
M  V30 3390 H 305.171 3.80194 0.152682 0
M  V30 3391 H 304.683 3.51322 -1.64908 0
M  V30 3392 H 302.784 3.63608 0.813624 0
M  V30 3393 H 302.897 4.7373 -0.715307 0
M  V30 3394 H 301.261 2.53108 -0.28432 0
M  V30 3395 H 302.044 2.84137 -1.92668 0
M  V30 3396 N 304.489 0.459591 1.5075 0
M  V30 3397 C 305.905 0.113092 1.59199 0
M  V30 3398 C 306.105 -1.37951 1.46874 0
M  V30 3399 O 305.161 -2.15168 1.32132 0
M  V30 3400 C 306.474 0.653043 2.93523 0
M  V30 3401 C 308.022 0.615449 3.0689 0
M  V30 3402 C 308.497 1.13275 4.43771 0
M  V30 3403 N 309.988 1.09167 4.50152 0
M  V30 3404 C 310.723 1.46256 5.54434 0
M  V30 3405 N 310.219 1.90739 6.66026 0
M  V30 3406 N 312.012 1.37932 5.44914 0
M  V30 3407 H 304.163 1.43049 1.57005 0
M  V30 3408 H 306.426 0.590861 0.741341 0
M  V30 3409 H 306.132 1.69822 3.07983 0
M  V30 3410 H 306.006 0.0902132 3.77092 0
M  V30 3411 H 308.393 -0.420793 2.92084 0
M  V30 3412 H 308.474 1.21495 2.25106 0
M  V30 3413 H 308.118 2.16757 4.59324 0
M  V30 3414 H 308.048 0.509576 5.24129 0
M  V30 3415 H 310.539 0.76528 3.7007 0
M  V30 3416 H 310.852 2.17218 7.41644 0
M  V30 3417 H 309.197 1.94683 6.67176 0
M  V30 3418 H 312.388 1.0303 4.56621 0
M  V30 3419 H 312.561 1.67164 6.26067 0
M  V30 3420 N 305.967 -1.56429 0.191757 0
M  V30 3421 C 307.383 -1.58754 -0.164137 0
M  V30 3422 C 307.583 -1.20782 -1.61288 0
M  V30 3423 O 306.639 -0.928999 -2.34789 0
M  V30 3424 C 307.952 -3.00396 0.135195 0
M  V30 3425 C 309.5 -3.1291 0.0750351 0
M  V30 3426 C 309.975 -4.56679 0.347632 0
M  V30 3427 N 311.466 -4.62252 0.296131 0
M  V30 3428 C 312.201 -5.71379 0.480948 0
M  V30 3429 N 311.697 -6.88986 0.725933 0
M  V30 3430 N 313.49 -5.60563 0.415435 0
M  V30 3431 H 305.641 -1.79393 1.13718 0
M  V30 3432 H 307.904 -0.832414 0.453643 0
M  V30 3433 H 307.61 -3.32726 1.13958 0
M  V30 3434 H 307.484 -3.72963 -0.563773 0
M  V30 3435 H 309.871 -2.80394 -0.919948 0
M  V30 3436 H 309.952 -2.42736 0.807029 0
M  V30 3437 H 309.596 -4.89907 1.33992 0
M  V30 3438 H 309.526 -5.25039 -0.405212 0
M  V30 3439 H 312.017 -3.7773 0.113259 0
M  V30 3440 H 312.33 -7.68046 0.855857 0
M  V30 3441 H 310.675 -6.90801 0.762788 0
M  V30 3442 H 313.866 -4.67561 0.224486 0
M  V30 3443 H 314.039 -6.45551 0.562889 0
M  V30 3444 N 307.445 0.0818655 -1.57387 0
M  V30 3445 C 308.377 1.12484 -1.997 0
M  V30 3446 C 309.39 1.35564 -0.90146 0
M  V30 3447 O 310.579 1.33982 -1.17945 0
M  V30 3448 C 307.679 2.47778 -2.31213 0
M  V30 3449 C 306.852 2.44793 -3.62485 0
M  V30 3450 C 305.911 3.62117 -3.81782 0
M  V30 3451 O 304.937 3.44005 -4.53486 0
M  V30 3452 N 306.139 4.82094 -3.23367 0
M  V30 3453 H 308.904 0.764585 -2.89783 0
M  V30 3454 H 306.465 0.270664 -1.59621 0
M  V30 3455 H 308.457 3.24891 -2.41304 0
M  V30 3456 H 307.027 2.75843 -1.4707 0
M  V30 3457 H 306.247 1.53134 -3.6324 0
M  V30 3458 H 307.535 2.39889 -4.48699 0
M  V30 3459 H 306.933 4.99713 -2.65148 0
M  V30 3460 H 305.49 5.56753 -3.38923 0
M  V30 3461 N 308.923 1.53595 0.353017 0
M  V30 3462 C 310.171 1.70049 1.09215 0
M  V30 3463 C 310.492 0.461406 1.89463 0
M  V30 3464 O 309.762 -0.524633 1.88744 0
M  V30 3465 H 308.342 0.626912 0.40619 0
M  V30 3466 H 311.004 1.90822 0.396585 0
M  V30 3467 H 310.1 2.56718 1.77488 0
M  V30 3468 N 310.401 -0.613514 1.45168 0
M  V30 3469 C 311.817 -0.933629 1.29443 0
M  V30 3470 C 312.017 -2.00028 0.243101 0
M  V30 3471 O 311.073 -2.49848 -0.364992 0
M  V30 3472 C 312.386 -1.38018 2.67155 0
M  V30 3473 C 313.934 -1.49471 2.75004 0
M  V30 3474 C 314.409 -1.97503 4.13227 0
M  V30 3475 N 315.9 -2.04746 4.15491 0
M  V30 3476 C 316.635 -2.43121 5.19307 0
M  V30 3477 N 316.131 -2.80506 6.33473 0
M  V30 3478 N 317.924 -2.43408 5.06664 0
M  V30 3479 H 310.075 0.0916097 2.12202 0
M  V30 3480 H 312.338 -0.0216655 0.947752 0
M  V30 3481 H 312.044 -0.670625 3.45247 0
M  V30 3482 H 311.918 -2.34784 2.95222 0
M  V30 3483 H 314.305 -2.19519 1.9722 0
M  V30 3484 H 314.386 -0.510342 2.50657 0
M  V30 3485 H 314.03 -1.28045 4.91495 0
M  V30 3486 H 313.96 -2.96843 4.34962 0
M  V30 3487 H 316.451 -1.78468 3.33103 0
M  V30 3488 H 316.764 -3.08652 7.08487 0
M  V30 3489 H 315.109 -2.78216 6.36884 0
M  V30 3490 H 318.3 -2.13604 4.16523 0
M  V30 3491 H 318.473 -2.72989 5.87691 0
M  V30 3492 N 311.879 -1.3236 -0.855495 0
M  V30 3493 C 313.295 -1.11332 -1.14356 0
M  V30 3494 C 313.495 0.106751 -2.01217 0
M  V30 3495 O 312.551 0.791891 -2.39761 0
M  V30 3496 C 313.864 -2.39237 -1.82171 0
M  V30 3497 C 315.412 -2.44986 -1.9481 0
M  V30 3498 C 315.887 -3.7281 -2.66039 0
M  V30 3499 N 317.378 -3.73787 -2.73565 0
M  V30 3500 C 318.113 -4.69394 -3.29327 0
M  V30 3501 N 317.609 -5.75367 -3.85907 0
M  V30 3502 N 319.402 -4.56893 -3.27423 0
M  V30 3503 H 311.553 -2.10586 -0.277027 0
M  V30 3504 H 313.816 -0.929701 -0.185364 0
M  V30 3505 H 313.522 -3.28431 -1.25802 0
M  V30 3506 H 313.396 -2.50134 -2.82335 0
M  V30 3507 H 315.783 -1.56252 -2.50338 0
M  V30 3508 H 315.864 -2.38043 -0.936448 0
M  V30 3509 H 315.508 -4.61918 -2.11174 0
M  V30 3510 H 315.438 -3.77024 -3.67642 0
M  V30 3511 H 317.929 -2.97189 -2.33424 0
M  V30 3512 H 318.242 -6.44378 -4.26611 0
M  V30 3513 H 316.587 -5.79123 -3.84242 0
M  V30 3514 H 319.778 -3.73269 -2.82467 0
M  V30 3515 H 319.951 -5.31577 -3.7058 0
M  V30 3516 N 313.357 1.07166 -1.15556 0
M  V30 3517 C 314.606 1.79181 -0.926132 0
M  V30 3518 C 314.919 1.87768 0.547967 0
M  V30 3519 O 316.125 2.56323 0.895036 0
M  V30 3520 C 314.581 3.22 -1.60761 0
M  V30 3521 C 314.189 3.21607 -3.11886 0
M  V30 3522 C 315.933 3.9861 -1.4598 0
M  V30 3523 C 313.84 4.59092 -3.72812 0
M  V30 3524 H 312.77 0.67154 -0.342856 0
M  V30 3525 H 315.421 1.2027 -1.3859 0
M  V30 3526 H 313.803 3.81115 -1.07553 0
M  V30 3527 H 314.977 2.72127 -3.71865 0
M  V30 3528 H 313.292 2.58495 -3.2645 0
M  V30 3529 H 315.889 5.00225 -1.88888 0
M  V30 3530 H 316.232 4.143 -0.407541 0
M  V30 3531 H 316.765 3.45996 -1.96295 0
M  V30 3532 H 313.504 4.48606 -4.77946 0
M  V30 3533 H 313.024 5.08803 -3.17616 0
M  V30 3534 H 314.703 5.28059 -3.73848 0
M  V30 3535 N 314.835 0.952656 1.25548 0
M  V30 3536 C 316.084 0.602053 1.92505 0
M  V30 3537 C 316.397 -0.864663 1.75451 0
M  V30 3538 O 317.603 -1.32514 2.36965 0
M  V30 3539 C 316.059 1.02607 3.44963 0
M  V30 3540 C 315.667 2.51519 3.70732 0
M  V30 3541 C 317.411 0.747905 4.1786 0
M  V30 3542 C 315.318 2.87732 5.16686 0
M  V30 3543 H 314.248 0.22146 0.720744 0
M  V30 3544 H 316.899 1.15684 1.42441 0
M  V30 3545 H 315.281 0.399712 3.93978 0
M  V30 3546 H 316.455 3.19157 3.32378 0
M  V30 3547 H 314.77 2.76786 3.11092 0
M  V30 3548 H 317.367 0.994647 5.25367 0
M  V30 3549 H 317.71 -0.315629 4.15102 0
M  V30 3550 H 318.243 1.33452 3.74747 0
M  V30 3551 H 314.982 3.93095 5.24554 0
M  V30 3552 H 314.502 2.24765 5.56094 0
M  V30 3553 H 316.181 2.76817 5.84792 0
M  V30 3554 N 316.313 -1.40141 0.720998 0
M  V30 3555 C 317.561 -2.0039 0.262323 0
M  V30 3556 C 317.882 -1.57469 -1.15015 0
M  V30 3557 O 317.152 -0.816582 -1.78069 0
M  V30 3558 H 315.732 -0.741063 0.093996 0
M  V30 3559 H 318.394 -1.71398 0.927835 0
M  V30 3560 H 317.49 -3.10658 0.299671 0
M  V30 3561 N 317.792 -0.46758 -1.50504 0
M  V30 3562 C 319.039 0.0886219 -2.02306 0
M  V30 3563 C 319.367 1.40037 -1.34981 0
M  V30 3564 O 318.622 1.90136 -0.463318 0
M  V30 3565 C 318.921 0.323995 -3.55928 0
M  V30 3566 C 318.587 -0.905618 -4.41712 0
M  V30 3567 C 317.249 -1.24275 -4.64875 0
M  V30 3568 C 319.601 -1.72448 -4.91845 0
M  V30 3569 C 316.929 -2.39888 -5.35417 0
M  V30 3570 C 319.281 -2.87185 -5.63656 0
M  V30 3571 C 317.945 -3.21317 -5.85074 0
M  V30 3572 H 317.215 0.0324291 -0.74029 0
M  V30 3573 H 319.862 -0.620945 -1.81153 0
M  V30 3574 H 318.167 1.11577 -3.75577 0
M  V30 3575 H 319.864 0.76826 -3.93572 0
M  V30 3576 H 316.454 -0.632956 -4.239 0
M  V30 3577 H 320.638 -1.4772 -4.73806 0
M  V30 3578 H 315.894 -2.66611 -5.50208 0
M  V30 3579 H 320.068 -3.50985 -6.01484 0
M  V30 3580 H 317.695 -4.1101 -6.39511 0
M  V30 3581 N 319.27 1.56325 -0.20005 0
M  V30 3582 C 320.495 2.02548 0.44597 0
M  V30 3583 C 320.92 1.07922 1.5406 0
M  V30 3584 O 320.278 0.0635775 1.81188 0
M  V30 3585 C 320.326 3.47175 0.974761 0
M  V30 3586 O 319.43 3.55671 2.08739 0
M  V30 3587 H 318.771 0.655862 0.103638 0
M  V30 3588 H 321.301 2.02201 -0.312381 0
M  V30 3589 H 321.311 3.87067 1.2901 0
M  V30 3590 H 319.986 4.15538 0.17347 0
M  V30 3591 H 318.563 3.27657 1.78032 0
M  V30 3592 N 320.748 -0.0735177 1.57428 0
M  V30 3593 C 321.995 -0.772999 1.87166 0
M  V30 3594 C 322.323 -1.77665 0.791551 0
M  V30 3595 O 321.578 -1.94541 -0.212636 0
M  V30 3596 C 321.877 -1.51799 3.23561 0
M  V30 3597 C 321.543 -0.654484 4.46125 0
M  V30 3598 C 320.205 -0.416511 4.79394 0
M  V30 3599 C 322.557 -0.0555862 5.2117 0
M  V30 3600 C 319.885 0.429869 5.85123 0
M  V30 3601 C 322.237 0.778239 6.27795 0
M  V30 3602 C 320.901 1.0261 6.59566 0
M  V30 3603 H 320.171 -0.282861 0.684888 0
M  V30 3604 H 322.818 -0.0338272 1.9147 0
M  V30 3605 H 321.123 -2.32932 3.1504 0
M  V30 3606 H 322.82 -2.06397 3.43804 0
M  V30 3607 H 319.41 -0.850091 4.20085 0
M  V30 3608 H 323.594 -0.226558 4.95783 0
M  V30 3609 H 318.85 0.630665 6.08139 0
M  V30 3610 H 323.024 1.24906 6.85107 0
M  V30 3611 H 320.651 1.68371 7.4132 0
M  V30 3612 N 322.226 -1.5378 -0.344866 0
M  V30 3613 C 323.454 -1.74899 -1.10534 0
M  V30 3614 C 323.869 -0.487534 -1.82397 0
M  V30 3615 O 323.226 0.540741 -1.74305 0
M  V30 3616 C 323.277 -2.92822 -2.11984 0
M  V30 3617 O 322.998 -4.14089 -1.43044 0
M  V30 3618 C 324.499 -3.25982 -3.00417 0
M  V30 3619 H 321.719 -0.584426 -0.329678 0
M  V30 3620 H 324.263 -2.006 -0.397474 0
M  V30 3621 H 322.418 -2.69457 -2.78338 0
M  V30 3622 H 322.832 -4.80272 -2.10805 0
M  V30 3623 H 324.306 -4.11848 -3.67539 0
M  V30 3624 H 324.783 -2.42228 -3.66363 0
M  V30 3625 H 325.389 -3.51349 -2.39654 0
M  V30 3626 N 323.704 0.605807 -1.45491 0
M  V30 3627 C 324.953 1.36086 -1.48874 0
M  V30 3628 C 325.266 1.95131 -0.135333 0
M  V30 3629 O 326.472 2.7146 -0.0468144 0
M  V30 3630 C 324.928 2.46518 -2.62215 0
M  V30 3631 C 324.536 1.93877 -4.03876 0
M  V30 3632 C 326.28 3.23512 -2.74846 0
M  V30 3633 C 324.187 3.01801 -5.08596 0
M  V30 3634 H 323.117 0.511497 -0.553974 0
M  V30 3635 H 325.768 0.649089 -1.71636 0
M  V30 3636 H 324.15 3.20388 -2.32739 0
M  V30 3637 H 325.324 1.26704 -4.43038 0
M  V30 3638 H 323.639 1.29622 -3.95711 0
M  V30 3639 H 326.236 4.04013 -3.50253 0
M  V30 3640 H 326.579 3.74631 -1.81542 0
M  V30 3641 H 327.112 2.56742 -3.03856 0
M  V30 3642 H 323.851 2.55597 -6.03614 0
M  V30 3643 H 323.371 3.67535 -4.74002 0
M  V30 3644 H 325.05 3.66152 -5.33424 0
M  V30 3645 N 325.182 1.32811 0.848464 0
M  V30 3646 C 326.145 1.22194 1.9391 0
M  V30 3647 C 327.145 0.143404 1.60159 0
M  V30 3648 O 328.335 0.394253 1.6968 0
M  V30 3649 C 325.467 0.88067 3.29328 0
M  V30 3650 H 326.66 2.19127 2.04752 0
M  V30 3651 H 324.213 1.16731 1.0394 0
M  V30 3652 H 324.948 -0.0865776 3.24184 0
M  V30 3653 H 324.733 1.66052 3.55203 0
M  V30 3654 H 326.223 0.830871 4.09251 0
M  V30 3655 N 326.66 -1.06551 1.16123 0
M  V30 3656 C 327.607 -2.13961 0.865414 0
M  V30 3657 C 328.577 -1.65066 -0.185055 0
M  V30 3658 O 329.762 -1.90732 -0.05083 0
M  V30 3659 C 326.902 -3.43113 0.369776 0
M  V30 3660 C 326.015 -4.05756 1.48276 0
M  V30 3661 C 325.15 -5.22773 0.942414 0
M  V30 3662 C 324.189 -5.77395 2.03179 0
M  V30 3663 N 323.326 -6.85731 1.50721 0
M  V30 3664 H 328.166 -2.38605 1.78527 0
M  V30 3665 H 325.703 -1.17072 0.890646 0
M  V30 3666 H 327.661 -4.17151 0.0640643 0
M  V30 3667 H 326.291 -3.18695 -0.513143 0
M  V30 3668 H 325.343 -3.29292 1.9045 0
M  V30 3669 H 326.655 -4.42351 2.30493 0
M  V30 3670 H 325.809 -6.03827 0.589729 0
M  V30 3671 H 324.548 -4.87618 0.0895191 0
M  V30 3672 H 323.553 -4.94981 2.3932 0
M  V30 3673 H 324.778 -6.14603 2.8886 0
M  V30 3674 H 322.724 -6.52499 0.676811 0
M  V30 3675 H 322.641 -7.21254 2.26557 0
M  V30 3676 H 323.909 -7.7047 1.18303 0
M  V30 3677 N 328.138 -0.959301 -1.25041 0
M  V30 3678 C 329.086 -0.474437 -2.2771 0
M  V30 3679 C 330.08 0.457697 -1.631 0
M  V30 3680 O 331.286 0.333912 -1.76876 0
M  V30 3681 H 327.661 -0.134936 -0.739795 0
M  V30 3682 H 329.632 -1.35251 -2.65988 0
M  V30 3683 C 328.381 0.227884 -3.46952 0
M  V30 3684 H 327.704 -0.480248 -3.96905 0
M  V30 3685 H 329.144 0.531091 -4.20661 0
M  V30 3686 C 327.603 1.452 -3.04004 0
M  V30 3687 O 328.133 2.54949 -3.10426 0
M  V30 3688 N 326.339 1.31502 -2.59144 0
M  V30 3689 H 325.886 0.422065 -2.54119 0
M  V30 3690 H 325.844 2.13521 -2.30773 0
M  V30 3691 N 329.616 1.39756 -0.72842 0
M  V30 3692 C 330.893 1.94574 -0.200079 0
M  V30 3693 C 331.273 1.66569 1.29684 0
M  V30 3694 O 330.621 0.990326 2.05924 0
M  V30 3695 C 330.831 3.45004 -0.526608 0
M  V30 3696 C 332.179 4.21965 -0.472318 0
M  V30 3697 O 333.203 3.53173 -0.463413 0
M  V30 3698 O 332.062 5.44552 -0.461075 0
M  V30 3699 H 329.156 0.826289 -0.0342851 0
M  V30 3700 H 331.702 1.49293 -0.806829 0
M  V30 3701 H 330.474 3.58796 -1.56144 0
M  V30 3702 H 330.097 3.97449 0.109449 0
M  V30 3703 N 331.094 0.475555 1.50254 0
M  V30 3704 C 332.026 -0.352649 2.26471 0
M  V30 3705 C 333.039 -0.953165 1.3198 0
M  V30 3706 O 334.228 -0.840815 1.57457 0
M  V30 3707 C 331.328 -1.50902 3.0345 0
M  V30 3708 C 330.501 -1.02047 4.25329 0
M  V30 3709 C 329.56 -2.05142 4.84565 0
M  V30 3710 O 328.586 -1.63023 5.45355 0
M  V30 3711 N 329.788 -3.37987 4.71959 0
M  V30 3712 H 332.553 0.300767 2.98187 0
M  V30 3713 H 330.114 0.306598 1.5897 0
M  V30 3714 H 332.106 -2.19572 3.39956 0
M  V30 3715 H 330.676 -2.06705 2.34504 0
M  V30 3716 H 329.896 -0.159507 3.93877 0
M  V30 3717 H 331.184 -0.672061 5.04342 0
M  V30 3718 H 330.582 -3.74913 4.23623 0
M  V30 3719 H 329.139 -4.02443 5.12721 0
M  V30 3720 N 332.573 -1.56217 0.208337 0
M  V30 3721 C 333.503 -2.22694 -0.702116 0
M  V30 3722 C 334.484 -1.19432 -1.2112 0
M  V30 3723 O 335.669 -1.47978 -1.25762 0
M  V30 3724 C 332.799 -2.8966 -1.9161 0
M  V30 3725 C 331.753 -3.9928 -1.5414 0
M  V30 3726 C 331.079 -4.53476 -2.83308 0
M  V30 3727 C 332.379 -5.17012 -0.741339 0
M  V30 3728 H 334.073 -2.99034 -0.147898 0
M  V30 3729 H 331.619 -1.43831 -0.0696951 0
M  V30 3730 H 333.572 -3.34852 -2.55836 0
M  V30 3731 H 332.296 -2.10746 -2.49507 0
M  V30 3732 H 330.955 -3.54799 -0.922668 0
M  V30 3733 H 330.603 -3.71308 -3.39322 0
M  V30 3734 H 330.303 -5.27451 -2.58976 0
M  V30 3735 H 331.827 -5.01378 -3.485 0
M  V30 3736 H 333.241 -5.58667 -1.28699 0
M  V30 3737 H 331.638 -5.97137 -0.595627 0
M  V30 3738 H 332.708 -4.8423 0.254851 0
M  V30 3739 N 334.051 0.0651679 -1.57465 0
M  V30 3740 C 335.014 1.06117 -2.03155 0
M  V30 3741 C 336.014 1.31204 -0.929632 0
M  V30 3742 O 337.204 1.26813 -1.19432 0
M  V30 3743 C 334.336 2.4032 -2.41783 0
M  V30 3744 H 335.529 0.667231 -2.92383 0
M  V30 3745 H 333.082 0.311075 -1.53173 0
M  V30 3746 H 333.817 2.84532 -1.55601 0
M  V30 3747 H 333.602 2.23451 -3.22199 0
M  V30 3748 H 335.092 3.11898 -2.77685 0
M  V30 3749 N 335.529 1.53961 0.336706 0
M  V30 3750 C 336.459 1.85417 1.41925 0
M  V30 3751 C 337.44 0.709856 1.5458 0
M  V30 3752 O 338.625 0.962396 1.68676 0
M  V30 3753 C 335.755 2.06985 2.78881 0
M  V30 3754 C 334.709 3.22813 2.81026 0
M  V30 3755 C 334.035 3.29727 4.20932 0
M  V30 3756 C 335.335 4.60767 2.45949 0
M  V30 3757 H 337.029 2.76079 1.15848 0
M  V30 3758 H 334.575 1.32839 0.555859 0
M  V30 3759 H 336.528 2.27575 3.54665 0
M  V30 3760 H 335.252 1.13061 3.06406 0
M  V30 3761 H 333.911 3.0209 2.07695 0
M  V30 3762 H 333.559 2.33385 4.45579 0
M  V30 3763 H 333.259 4.07566 4.23277 0
M  V30 3764 H 334.783 3.52536 4.98549 0
M  V30 3765 H 336.197 4.81325 3.11446 0
M  V30 3766 H 334.594 5.4106 2.59566 0
M  V30 3767 H 335.664 4.6391 1.41122 0
M  V30 3768 N 337.007 -0.598083 1.45811 0
M  V30 3769 C 338.232 -1.3881 1.54099 0
M  V30 3770 C 338.657 -1.8726 0.177578 0
M  V30 3771 O 338.015 -1.6069 -0.839541 0
M  V30 3772 C 338.063 -2.56217 2.53743 0
M  V30 3773 O 337.167 -3.5716 2.06182 0
M  V30 3774 H 336.508 -0.414024 0.519115 0
M  V30 3775 H 339.038 -0.726971 1.91249 0
M  V30 3776 H 339.048 -3.03337 2.72856 0
M  V30 3777 H 337.723 -2.20303 3.5276 0
M  V30 3778 H 336.3 -3.16624 1.96987 0
M  V30 3779 N 338.485 -1.33259 -0.841409 0
M  V30 3780 C 339.415 -1.25926 -1.96634 0
M  V30 3781 C 340.396 -0.140349 -1.6952 0
M  V30 3782 O 341.581 -0.329707 -1.91381 0
M  V30 3783 C 338.711 -0.99512 -3.32738 0
M  V30 3784 C 337.665 -2.0767 -3.74242 0
M  V30 3785 C 336.991 -1.66474 -5.08125 0
M  V30 3786 C 338.291 -3.49318 -3.88297 0
M  V30 3787 H 339.985 -2.20046 -2.03027 0
M  V30 3788 H 337.531 -1.05931 -0.975425 0
M  V30 3789 H 339.484 -0.930323 -4.11002 0
M  V30 3790 H 338.208 -0.0183004 -3.26595 0
M  V30 3791 H 336.867 -2.13187 -2.98239 0
M  V30 3792 H 336.515 -0.675012 -4.9845 0
M  V30 3793 H 336.215 -2.3885 -5.36865 0
M  V30 3794 H 337.739 -1.61455 -5.88867 0
M  V30 3795 H 339.153 -3.46316 -4.56879 0
M  V30 3796 H 337.55 -4.20158 -4.28471 0
M  V30 3797 H 338.62 -3.8801 -2.9082 0
M  V30 3798 N 339.963 1.05934 -1.16686 0
M  V30 3799 C 340.873 2.17014 -0.891183 0
M  V30 3800 C 341.889 1.73453 0.137907 0
M  V30 3801 O 343.065 2.01361 -0.039592 0
M  V30 3802 C 340.13 3.44384 -0.400099 0
M  V30 3803 C 339.191 4.02433 -1.49486 0
M  V30 3804 C 338.424 5.23723 -1.02711 0
M  V30 3805 O 338.647 5.7027 0.121716 0
M  V30 3806 O 337.581 5.7382 -1.81699 0
M  V30 3807 H 341.407 2.43113 -1.82015 0
M  V30 3808 H 338.992 1.15541 -0.947132 0
M  V30 3809 H 340.874 4.21189 -0.133392 0
M  V30 3810 H 339.549 3.19802 0.500817 0
M  V30 3811 H 338.456 3.27102 -1.81535 0
M  V30 3812 H 339.789 4.31317 -2.37121 0
M  V30 3813 O 341.48 1.09547 1.18667 0
M  V30 3814 H 342.171 0.792406 1.7675 0
M  V30 END ATOM
M  V30 BEGIN BOND
M  V30 END BOND
M  V30 END CTAB
M  END
$$$$
