drugbank_target|Q52WX2 Serine/threonine-protein kinase SBK1 (DB12010)
 OpenBabel12092121193D

  0  0  0     0  0            999 V3000
M  V30 BEGIN CTAB
M  V30 COUNTS 6582 6666 0 0 0
M  V30 BEGIN ATOM
M  V30 1 H -0.908 1.98254 -0.117106 0
M  V30 2 N 0 1.576 0 0
M  V30 3 C 0.933 2.03868 1.02534 0
M  V30 4 C 1.911 0.928543 1.3348 0
M  V30 5 O 3.095 1.19667 1.45644 0
M  V30 6 C 0.222 2.43627 2.35294 0
M  V30 7 C -0.732 3.65373 2.2001 0
M  V30 8 S 0.101 5.13292 1.52614 0
M  V30 9 C 1.257 5.56322 2.86805 0
M  V30 10 H 1.49 2.90518 0.631377 0
M  V30 11 H -0.977 1.52953 0.210867 0
M  V30 12 H 0.981 2.67203 3.11629 0
M  V30 13 H -0.358 1.57376 2.7183 0
M  V30 14 H -1.165 3.90944 3.18086 0
M  V30 15 H -1.563 3.418 1.51819 0
M  V30 16 H 0.729 5.58782 3.83104 0
M  V30 17 H 1.672 6.56266 2.65933 0
M  V30 18 H 2.08 4.83886 2.90714 0
M  V30 19 N 1.4781 -0.272755 1.55222 0
M  V30 20 C 2.7031 -1.02683 1.80197 0
M  V30 21 C 3.1281 -1.79142 0.573551 0
M  V30 22 O 2.4861 -1.74917 -0.476849 0
M  V30 23 C 2.5341 -1.9609 3.02624 0
M  V30 24 O 1.6381 -3.04863 2.77727 0
M  V30 25 H 0.9791 -0.293557 0.595584 0
M  V30 26 H 3.5091 -0.30159 2.02365 0
M  V30 27 H 3.5191 -2.38039 3.31363 0
M  V30 28 H 2.1941 -1.39851 3.91682 0
M  V30 29 H 0.7711 -2.67228 2.60084 0
M  V30 30 N 2.9562 -1.48159 -0.537278 0
M  V30 31 C 4.2022 -1.56035 -1.29541 0
M  V30 32 C 4.5352 -0.230377 -1.92829 0
M  V30 33 O 3.8102 0.762952 -1.78911 0
M  V30 34 C 4.0932 -2.69323 -2.39034 0
M  V30 35 C 3.9462 -4.12002 -1.80485 0
M  V30 36 C 5.2652 -2.78408 -3.40847 0
M  V30 37 H 2.3842 -0.567992 -0.469632 0
M  V30 38 H 5.0262 -1.80302 -0.599277 0
M  V30 39 H 3.1762 -2.48763 -2.98412 0
M  V30 40 H 4.8482 -4.43981 -1.25215 0
M  V30 41 H 3.0912 -4.19344 -1.11055 0
M  V30 42 H 3.7622 -4.87077 -2.59731 0
M  V30 43 H 6.2382 -2.97012 -2.91416 0
M  V30 44 H 5.1142 -3.59416 -4.14863 0
M  V30 45 H 5.3752 -1.86269 -4.00944 0
M  V30 46 N 4.4343 0.785586 -1.36625 0
M  V30 47 C 5.6823 1.54057 -1.30808 0
M  V30 48 C 6.0033 1.94683 0.111157 0
M  V30 49 O 5.2733 1.65241 1.05224 0
M  V30 50 H 3.8533 0.571354 -0.481211 0
M  V30 51 H 6.5153 0.935821 -1.70963 0
M  V30 52 H 5.6113 2.44637 -1.93801 0
M  V30 53 N 5.9124 1.20967 1.01018 0
M  V30 54 C 7.1524 1.03511 1.76252 0
M  V30 55 C 7.5164 -0.42458 1.87247 0
M  V30 56 O 8.7174 -0.719508 2.58991 0
M  V30 57 C 6.9884 1.70726 3.13986 0
M  V30 58 S 8.5474 1.68458 4.05176 0
M  V30 59 H 5.3654 0.371037 0.606508 0
M  V30 60 H 7.9674 1.53628 1.20908 0
M  V30 61 H 6.6714 2.76128 3.03614 0
M  V30 62 H 6.2024 1.20767 3.74405 0
M  V30 63 H 8.2174 0.721987 4.90919 0
M  V30 64 N 7.3905 -1.2043 1.01659 0
M  V30 65 C 8.8015 -1.71517 0.737482 0
M  V30 66 C 9.1525 -1.81547 -0.743973 0
M  V30 67 O 8.2775 -1.47803 -1.58061 0
M  V30 68 C 8.8725 -3.11515 1.33206 0
M  V30 69 C 7.4315 -3.59912 1.10183 0
M  V30 70 C 6.5785 -2.37116 1.43776 0
M  V30 71 H 9.5295 -1.05444 1.18606 0
M  V30 72 H 9.5505 -3.73575 0.722636 0
M  V30 73 H 9.0625 -3.04182 2.41028 0
M  V30 74 H 7.1635 -3.72577 0.0412756 0
M  V30 75 H 7.2765 -4.44731 1.78188 0
M  V30 76 H 5.6405 -2.39857 0.856778 0
M  V30 77 H 6.4235 -2.32424 2.52654 0
M  V30 78 N 8.8686 -0.792821 -1.36206 0
M  V30 79 C 9.7786 -0.194808 -2.3379 0
M  V30 80 C 10.7946 0.654869 -1.61206 0
M  V30 81 O 11.9706 0.569856 -1.9317 0
M  V30 82 C 9.0356 0.657721 -3.40404 0
M  V30 83 C 8.0966 -0.210849 -4.28782 0
M  V30 84 C 7.3296 0.601086 -5.30304 0
M  V30 85 O 7.5526 1.83682 -5.40016 0
M  V30 86 O 6.4866 -0.000808277 -6.019 0
M  V30 87 H 10.3126 -1.00172 -2.86704 0
M  V30 88 H 7.8976 -0.554341 -1.38735 0
M  V30 89 H 9.7796 1.14375 -4.05581 0
M  V30 90 H 8.4546 1.44247 -2.89784 0
M  V30 91 H 7.3616 -0.743714 -3.66633 0
M  V30 92 H 8.6946 -0.959195 -4.82763 0
M  V30 93 N 10.3467 1.47872 -0.545128 0
M  V30 94 C 11.7577 1.86384 -0.108581 0
M  V30 95 C 12.1087 1.45309 1.31832 0
M  V30 96 O 11.2337 0.850641 1.9898 0
M  V30 97 C 11.8287 3.38265 -0.190274 0
M  V30 98 C 10.3877 3.75914 0.191164 0
M  V30 99 C 9.5347 2.71926 -0.543273 0
M  V30 100 H 12.4857 1.39561 -0.755537 0
M  V30 101 H 12.5067 3.75831 0.594217 0
M  V30 102 H 12.0187 3.6813 -1.2289 0
M  V30 103 H 10.1197 3.51665 1.23136 0
M  V30 104 H 10.2327 4.78836 -0.158987 0
M  V30 105 H 8.5967 2.54697 0.0122495 0
M  V30 106 H 9.3797 3.04634 -1.58282 0
M  V30 107 N 11.8248 0.280983 1.55075 0
M  V30 108 C 12.7348 -0.61388 2.26426 0
M  V30 109 C 13.7508 -1.16521 1.29224 0
M  V30 110 O 14.9268 -1.19426 1.62171 0
M  V30 111 C 11.9918 -1.7788 2.9759 0
M  V30 112 C 11.0528 -1.26355 4.10284 0
M  V30 113 C 10.2858 -2.37295 4.78045 0
M  V30 114 O 10.5088 -3.56777 4.45047 0
M  V30 115 O 9.4428 -2.05119 5.65871 0
M  V30 116 H 13.2688 -0.0356932 3.03679 0
M  V30 117 H 10.8538 0.0481686 1.49322 0
M  V30 118 H 12.7358 -2.45791 3.42293 0
M  V30 119 H 11.4108 -2.34397 2.23249 0
M  V30 120 H 10.3178 -0.550735 3.70024 0
M  V30 121 H 11.6508 -0.744065 4.86543 0
M  V30 122 N 13.3029 -1.57598 0.00835791 0
M  V30 123 C 14.7139 -1.7892 -0.53333 0
M  V30 124 C 15.0649 -0.916609 -1.73473 0
M  V30 125 O 14.1899 -0.121336 -2.1606 0
M  V30 126 C 14.7849 -3.24488 -0.974313 0
M  V30 127 C 13.3439 -3.46878 -1.46125 0
M  V30 128 C 12.4909 -2.74157 -0.416302 0
M  V30 129 H 15.4419 -1.56958 0.234495 0
M  V30 130 H 15.4629 -3.3306 -1.83988 0
M  V30 131 H 14.9749 -3.87972 -0.099718 0
M  V30 132 H 13.0759 -2.8862 -2.35646 0
M  V30 133 H 13.1889 -4.55572 -1.48295 0
M  V30 134 H 11.5529 -2.39022 -0.87981 0
M  V30 135 H 12.3359 -3.40345 0.44947 0
M  V30 136 N 14.781 0.264519 -1.55364 0
M  V30 137 C 16.192 0.834936 -1.6699 0
M  V30 138 C 16.543 1.86718 -0.602552 0
M  V30 139 O 15.668 2.14899 0.254425 0
M  V30 140 C 16.263 1.5212 -3.02729 0
M  V30 141 C 14.822 2.03954 -3.16354 0
M  V30 142 C 13.969 0.884498 -2.62815 0
M  V30 143 H 16.92 0.0406869 -1.58648 0
M  V30 144 H 16.941 2.38853 -2.96191 0
M  V30 145 H 16.453 0.769668 -3.80392 0
M  V30 146 H 14.554 2.82041 -2.43482 0
M  V30 147 H 14.667 2.24902 -4.23032 0
M  V30 148 H 13.031 1.2802 -2.20188 0
M  V30 149 H 13.814 0.14634 -3.42988 0
M  V30 150 N 16.2591 1.48442 0.529413 0
M  V30 151 C 17.6751 1.34575 0.858004 0
M  V30 152 C 17.8751 0.3572 1.98309 0
M  V30 153 O 16.9311 -0.221379 2.51528 0
M  V30 154 C 18.2441 2.74617 1.22499 0
M  V30 155 C 19.7921 2.83109 1.33484 0
M  V30 156 C 20.2671 4.23854 1.73526 0
M  V30 157 N 21.7581 4.2653 1.80628 0
M  V30 158 C 22.4931 5.32372 2.12997 0
M  V30 159 N 21.9891 6.48491 2.43786 0
M  V30 160 N 23.7821 5.19766 2.14008 0
M  V30 161 H 15.9331 2.1133 -0.212925 0
M  V30 162 H 18.1961 0.947439 -0.0326199 0
M  V30 163 H 17.9021 3.4852 0.471905 0
M  V30 164 H 17.7761 3.08177 2.17501 0
M  V30 165 H 20.1631 2.09462 2.0787 0
M  V30 166 H 20.2441 2.53168 0.366027 0
M  V30 167 H 19.8881 4.98018 0.997013 0
M  V30 168 H 19.8181 4.5124 2.71459 0
M  V30 169 H 22.3091 3.42772 1.59108 0
M  V30 170 H 22.6221 7.24993 2.67592 0
M  V30 171 H 20.9671 6.51765 2.41304 0
M  V30 172 H 24.1581 4.28066 1.89412 0
M  V30 173 H 24.3311 6.02354 2.38902 0
M  V30 174 N 17.7372 -0.778329 1.37039 0
M  V30 175 C 18.9622 -1.57248 1.35233 0
M  V30 176 C 19.3872 -1.87999 -0.0615568 0
M  V30 177 O 18.7452 -1.48734 -1.03672 0
M  V30 178 C 18.7932 -2.86353 2.19167 0
M  V30 179 O 17.8972 -3.80442 1.59178 0
M  V30 180 H 17.2382 -0.476569 0.462362 0
M  V30 181 H 19.7682 -0.963853 1.80474 0
M  V30 182 H 19.7782 -3.35519 2.32145 0
M  V30 183 H 18.4532 -2.63299 3.21942 0
M  V30 184 H 17.0302 -3.39067 1.55203 0
M  V30 185 N 19.2153 -1.21501 -1.00376 0
M  V30 186 C 20.1453 -0.999478 -2.11028 0
M  V30 187 C 21.1263 0.0759671 -1.6993 0
M  V30 188 O 22.3113 -0.0841106 -1.94018 0
M  V30 189 C 19.4413 -0.564709 -3.42678 0
M  V30 190 C 18.3953 -1.58486 -3.97576 0
M  V30 191 C 17.7213 -1.00628 -5.25146 0
M  V30 192 C 19.0213 -2.97204 -4.29496 0
M  V30 193 H 20.7153 -1.92495 -2.29317 0
M  V30 194 H 18.2613 -0.92693 -1.102 0
M  V30 195 H 20.2143 -0.401091 -4.19487 0
M  V30 196 H 18.9383 0.396411 -3.24185 0
M  V30 197 H 17.5973 -1.73606 -3.22888 0
M  V30 198 H 17.2453 -0.0368439 -5.02987 0
M  V30 199 H 16.9453 -1.68771 -5.62841 0
M  V30 200 H 18.4693 -0.854015 -6.04598 0
M  V30 201 H 19.8833 -2.8552 -4.97143 0
M  V30 202 H 18.2803 -3.62372 -4.78338 0
M  V30 203 H 19.3503 -3.47956 -3.3772 0
M  V30 204 N 20.6934 1.19889 -1.02296 0
M  V30 205 C 21.9214 1.9339 -0.735399 0
M  V30 206 C 22.3364 1.75148 0.704887 0
M  V30 207 O 21.6934 1.06954 1.47875 0
M  V30 208 C 21.7444 3.45313 -1.06962 0
M  V30 209 O 21.4654 3.62964 -2.45334 0
M  V30 210 C 22.9664 4.35948 -0.804021 0
M  V30 211 H 20.1864 0.61448 -0.269546 0
M  V30 212 H 22.7304 1.522 -1.36585 0
M  V30 213 H 20.8854 3.84359 -0.484455 0
M  V30 214 H 21.2994 4.56886 -2.57595 0
M  V30 215 H 22.7734 5.41174 -1.0879 0
M  V30 216 H 23.2504 4.3842 0.261691 0
M  V30 217 H 23.8564 4.02574 -1.37164 0
M  V30 218 N 22.1715 0.800033 1.35784 0
M  V30 219 C 23.4115 0.382891 2.00782 0
M  V30 220 C 23.7755 -1.02891 1.62103 0
M  V30 221 O 24.9765 -1.54771 2.19771 0
M  V30 222 C 23.2475 0.553299 3.53091 0
M  V30 223 S 24.8065 0.225608 4.3822 0
M  V30 224 H 21.6245 0.145737 0.695904 0
M  V30 225 H 24.2265 1.04085 1.65489 0
M  V30 226 H 22.9305 1.58091 3.78729 0
M  V30 227 H 22.4615 -0.120214 3.93216 0
M  V30 228 H 24.4765 -0.969074 4.86645 0
M  V30 229 N 23.6496 -1.47581 0.552962 0
M  V30 230 C 24.8896 -2.04379 0.0296245 0
M  V30 231 C 25.2536 -1.4185 -1.29393 0
M  V30 232 O 26.4546 -1.89669 -1.90471 0
M  V30 233 C 24.7256 -3.57339 -0.0661371 0
M  V30 234 S 26.2846 -4.35511 -0.536213 0
M  V30 235 H 23.1026 -0.710625 0.0230991 0
M  V30 236 H 25.7046 -1.81005 0.738734 0
M  V30 237 H 24.4086 -4.00374 0.901596 0
M  V30 238 H 23.9396 -3.85202 -0.798931 0
M  V30 239 H 25.9546 -4.6253 -1.79668 0
M  V30 240 N 25.1277 -0.289203 -1.54924 0
M  V30 241 C 26.3757 0.322879 -1.99504 0
M  V30 242 C 26.6967 1.55313 -1.1791 0
M  V30 243 O 25.9667 1.94001 -0.272097 0
M  V30 244 H 24.5467 0.122291 -0.736922 0
M  V30 245 H 27.2087 -0.397802 -1.90797 0
M  V30 246 H 26.3047 0.603061 -3.06218 0
M  V30 247 N 26.6058 1.57591 -0.0167156 0
M  V30 248 C 28.0168 1.79201 0.523834 0
M  V30 249 C 28.3678 0.925796 1.72984 0
M  V30 250 O 27.4928 0.132792 2.15992 0
M  V30 251 C 28.0878 3.25 0.957091 0
M  V30 252 C 26.6468 3.47648 1.44283 0
M  V30 253 C 25.7938 2.74374 0.401757 0
M  V30 254 H 28.7448 1.56831 -0.242816 0
M  V30 255 H 28.7658 3.34031 1.82219 0
M  V30 256 H 28.2778 3.88019 0.0791415 0
M  V30 257 H 26.3788 2.89866 2.34113 0
M  V30 258 H 26.4918 4.56352 1.45877 0
M  V30 259 H 24.8558 2.39485 0.867121 0
M  V30 260 H 25.6388 3.40102 -0.467513 0
M  V30 261 N 28.0839 -0.256276 1.55502 0
M  V30 262 C 29.3319 -0.983672 1.76545 0
M  V30 263 C 29.6529 -1.86206 0.578982 0
M  V30 264 O 28.9229 -1.91656 -0.405577 0
M  V30 265 H 27.5029 -0.366191 0.651086 0
M  V30 266 H 30.1649 -0.276479 1.92929 0
M  V30 267 H 29.2609 -1.61087 2.67315 0
M  V30 268 N 29.562 -1.4872 -0.521534 0
M  V30 269 C 30.79 -1.60843 -1.30142 0
M  V30 270 C 31.205 -0.271897 -1.86832 0
M  V30 271 O 30.562 0.739969 -1.66825 0
M  V30 272 C 30.613 -2.66155 -2.4463 0
M  V30 273 O 30.334 -3.94623 -1.90275 0
M  V30 274 C 31.835 -2.88795 -3.36322 0
M  V30 275 H 29.055 -0.542075 -0.395468 0
M  V30 276 H 31.599 -1.94609 -0.628285 0
M  V30 277 H 29.754 -2.35224 -3.07812 0
M  V30 278 H 30.168 -4.52468 -2.65279 0
M  V30 279 H 31.642 -3.66264 -4.12983 0
M  V30 280 H 32.119 -1.97934 -3.9207 0
M  V30 281 H 32.725 -3.21063 -2.78924 0
M  V30 282 N 31.0401 0.771051 -1.3745 0
M  V30 283 C 32.0031 1.86598 -1.33093 0
M  V30 284 C 33.0031 1.59076 -0.234845 0
M  V30 285 O 34.1931 1.67145 -0.490732 0
M  V30 286 C 31.3251 3.23747 -1.06773 0
M  V30 287 H 32.5181 1.91873 -2.30488 0
M  V30 288 H 30.0711 0.970876 -1.2249 0
M  V30 289 H 30.8061 3.24148 -0.099129 0
M  V30 290 H 30.5911 3.45115 -1.86112 0
M  V30 291 H 32.0811 4.03824 -1.06377 0
M  V30 292 N 32.5182 1.22032 0.997298 0
M  V30 293 C 33.9292 1.0397 1.55071 0
M  V30 294 C 34.2802 -0.398192 1.92117 0
M  V30 295 O 33.4052 -1.28254 1.74298 0
M  V30 296 C 34.0002 1.88109 2.81781 0
M  V30 297 C 32.5592 1.74357 3.33581 0
M  V30 298 C 31.7062 1.84846 2.06706 0
M  V30 299 H 34.6572 1.35941 0.818883 0
M  V30 300 H 34.6782 1.39589 3.53971 0
M  V30 301 H 34.1902 2.92754 2.54787 0
M  V30 302 H 32.2912 0.72427 3.65493 0
M  V30 303 H 32.4042 2.56772 4.04481 0
M  V30 304 H 30.7682 1.28238 2.20062 0
M  V30 305 H 31.5512 2.91014 1.82114 0
M  V30 306 N 33.9963 -1.19345 1.0293 0
M  V30 307 C 35.2443 -1.88665 0.724574 0
M  V30 308 C 35.5653 -1.80036 -0.749144 0
M  V30 309 O 34.8353 -1.2111 -1.53978 0
M  V30 310 H 33.4153 -0.698406 0.265025 0
M  V30 311 H 36.0773 -1.44885 1.30362 0
M  V30 312 H 35.1733 -2.94987 1.01926 0
M  V30 313 N 35.4744 -0.807222 -1.35358 0
M  V30 314 C 36.8854 -0.44876 -1.81226 0
M  V30 315 C 37.2364 1.02929 -1.67033 0
M  V30 316 O 36.3614 1.79991 -1.20133 0
M  V30 317 C 36.9564 -0.807774 -3.2903 0
M  V30 318 C 35.5154 -0.501901 -3.73039 0
M  V30 319 C 34.6624 -1.03304 -2.57339 0
M  V30 320 H 37.6134 -0.998808 -1.23327 0
M  V30 321 H 37.6344 -0.10554 -3.80354 0
M  V30 322 H 37.1464 -1.88357 -3.39328 0
M  V30 323 H 35.2474 0.565128 -3.68289 0
M  V30 324 H 35.3604 -1.03497 -4.67787 0
M  V30 325 H 33.7244 -0.455339 -2.50597 0
M  V30 326 H 34.5074 -2.11496 -2.70415 0
M  V30 327 N 36.9525 1.47285 -0.560781 0
M  V30 328 C 38.2005 2.02064 -0.0379868 0
M  V30 329 C 38.5215 1.43711 1.31803 0
M  V30 330 O 37.7915 0.61362 1.86042 0
M  V30 331 H 36.3715 0.746918 -0.0110531 0
M  V30 332 H 39.0335 1.80648 -0.731598 0
M  V30 333 H 38.1295 3.12064 0.0474463 0
M  V30 334 N 38.4306 0.297415 1.54768 0
M  V30 335 C 39.3936 -0.567375 2.22066 0
M  V30 336 C 40.3936 -1.06409 1.20556 0
M  V30 337 O 41.5836 -0.960691 1.45315 0
M  V30 338 C 38.7156 -1.78517 2.90421 0
M  V30 339 H 39.9086 0.0205534 2.99893 0
M  V30 340 H 37.4616 0.0482163 1.56226 0
M  V30 341 H 38.1966 -2.41303 2.16664 0
M  V30 342 H 37.9816 -1.43669 3.64831 0
M  V30 343 H 39.4716 -2.39964 3.41771 0
M  V30 344 N 39.9087 -1.5758 0.0250728 0
M  V30 345 C 41.1567 -1.91255 -0.653151 0
M  V30 346 C 41.4777 -0.901691 -1.729 0
M  V30 347 O 40.7477 0.0573785 -1.95816 0
M  V30 348 H 39.3277 -0.705942 -0.244243 0
M  V30 349 H 41.9897 -1.94767 0.0719209 0
M  V30 350 H 41.0857 -2.91752 -1.10847 0
M  V30 351 N 41.3868 0.248026 -1.55636 0
M  V30 352 C 42.6328 0.97767 -1.77678 0
M  V30 353 C 42.9658 1.85016 -0.590135 0
M  V30 354 O 42.2408 1.90095 0.411611 0
M  V30 355 C 42.5238 1.83914 -3.09593 0
M  V30 356 C 42.3768 0.99491 -4.38659 0
M  V30 357 C 43.6958 2.82183 -3.37729 0
M  V30 358 H 40.8148 0.354005 -0.646413 0
M  V30 359 H 43.4568 0.248253 -1.88371 0
M  V30 360 H 41.6068 2.46104 -3.00608 0
M  V30 361 H 43.2788 0.391789 -4.59633 0
M  V30 362 H 41.5218 0.299231 -4.32767 0
M  V30 363 H 42.1928 1.63145 -5.2734 0
M  V30 364 H 44.6688 2.30129 -3.4667 0
M  V30 365 H 43.5448 3.39582 -4.31249 0
M  V30 366 H 43.8058 3.58588 -2.58586 0
M  V30 367 N 42.8649 1.48995 0.513639 0
M  V30 368 C 44.2759 1.5119 1.09537 0
M  V30 369 C 44.6269 0.290906 1.94031 0
M  V30 370 O 43.7519 -0.60049 2.07902 0
M  V30 371 C 44.3469 2.73964 1.99322 0
M  V30 372 C 42.9059 2.78978 2.52682 0
M  V30 373 C 42.0529 2.44934 1.30009 0
M  V30 374 H 45.0039 1.55875 0.298125 0
M  V30 375 H 45.0249 2.53409 2.83838 0
M  V30 376 H 44.5369 3.62813 1.37799 0
M  V30 377 H 42.6379 1.94378 3.1788 0
M  V30 378 H 42.7509 3.8083 2.90698 0
M  V30 379 H 41.1149 1.9644 1.62122 0
M  V30 380 H 41.8979 3.36043 0.702131 0
M  V30 381 N 44.343 -0.763751 1.37857 0
M  V30 382 C 45.273 -1.89103 1.36975 0
M  V30 383 C 46.254 -1.68439 0.237152 0
M  V30 384 O 47.439 -1.8918 0.438713 0
M  V30 385 C 44.569 -3.26496 1.18395 0
M  V30 386 C 43.523 -3.61741 2.28751 0
M  V30 387 C 42.849 -4.97762 1.95286 0
M  V30 388 C 44.149 -3.67665 3.70972 0
M  V30 389 H 45.843 -1.90099 2.31307 0
M  V30 390 H 43.389 -0.91319 1.11341 0
M  V30 391 H 45.342 -4.05003 1.16406 0
M  V30 392 H 44.066 -3.25955 0.205215 0
M  V30 393 H 42.725 -2.85547 2.29909 0
M  V30 394 H 42.373 -4.93769 0.959221 0
M  V30 395 H 42.073 -5.22313 2.69189 0
M  V30 396 H 43.597 -5.7866 1.94898 0
M  V30 397 H 45.011 -4.36307 3.719 0
M  V30 398 H 43.408 -4.03718 4.43995 0
M  V30 399 H 44.478 -2.68134 4.0402 0
M  V30 400 N 45.8211 -1.22559 -0.990812 0
M  V30 401 C 46.7511 -1.0218 -2.09956 0
M  V30 402 C 47.7321 0.0579394 -1.70001 0
M  V30 403 O 48.9171 -0.104684 -1.93918 0
M  V30 404 C 46.0471 -0.601023 -3.4206 0
M  V30 405 C 45.0011 -1.62694 -3.95872 0
M  V30 406 C 44.3271 -1.06193 -5.24049 0
M  V30 407 C 45.6271 -3.01743 -4.2632 0
M  V30 408 H 47.3211 -1.94916 -2.27262 0
M  V30 409 H 44.8671 -0.938566 -1.09211 0
M  V30 410 H 46.8201 -0.445561 -4.19038 0
M  V30 411 H 45.5441 0.362005 -3.24588 0
M  V30 412 H 44.2031 -1.77021 -3.21028 0
M  V30 413 H 43.8511 -0.0901903 -5.02919 0
M  V30 414 H 43.5511 -1.74732 -5.61019 0
M  V30 415 H 45.0751 -0.918092 -6.03658 0
M  V30 416 H 46.4891 -2.90777 -4.94087 0
M  V30 417 H 44.8861 -3.67425 -4.74467 0
M  V30 418 H 45.9561 -3.51518 -3.34011 0
M  V30 419 N 47.2992 1.18797 -1.03562 0
M  V30 420 C 48.5272 1.92599 -0.755869 0
M  V30 421 C 48.9422 1.75886 0.686271 0
M  V30 422 O 48.2992 1.08517 1.46732 0
M  V30 423 C 48.3502 3.44159 -1.10619 0
M  V30 424 O 48.0712 3.60341 -2.4917 0
M  V30 425 C 49.5722 4.3507 -0.850214 0
M  V30 426 H 46.7922 0.611587 -0.276048 0
M  V30 427 H 49.3362 1.50742 -1.38192 0
M  V30 428 H 47.4912 3.83823 -0.525194 0
M  V30 429 H 47.9052 4.54128 -2.62427 0
M  V30 430 H 49.3792 5.39989 -1.14523 0
M  V30 431 H 49.8562 4.38673 0.215176 0
M  V30 432 H 50.4622 4.01097 -1.41426 0
M  V30 433 N 48.7773 0.814389 1.34928 0
M  V30 434 C 49.6873 0.231978 2.3345 0
M  V30 435 C 50.7033 -0.629139 1.62228 0
M  V30 436 O 51.8793 -0.539052 1.94052 0
M  V30 437 C 48.9443 -0.603482 3.41407 0
M  V30 438 C 48.0053 0.279037 4.28392 0
M  V30 439 C 47.2383 -0.516643 5.31193 0
M  V30 440 O 47.4613 -1.75068 5.4287 0
M  V30 441 O 46.3953 0.0965652 6.01823 0
M  V30 442 H 50.2213 1.04721 2.85074 0
M  V30 443 H 47.8063 0.576343 1.37836 0
M  V30 444 H 49.6883 -1.07908 4.0735 0
M  V30 445 H 48.3633 -1.39618 2.92042 0
M  V30 446 H 47.2703 0.801948 3.65403 0
M  V30 447 H 48.6033 1.03588 4.81176 0
M  V30 448 N 50.2554 -1.46986 0.568584 0
M  V30 449 C 51.5324 -1.95592 -0.0174074 0
M  V30 450 C 51.9124 -1.51124 -1.47393 0
M  V30 451 O 51.2604 -0.755329 -2.15655 0
M  V30 452 C 51.4704 -3.48719 0.139913 0
M  V30 453 C 52.8184 -4.246 0.000426376 0
M  V30 454 O 53.8424 -3.56135 0.0680316 0
M  V30 455 O 52.7014 -5.46302 -0.146988 0
M  V30 456 H 49.7954 -0.82498 -0.0577599 0
M  V30 457 H 52.3414 -1.57335 0.635909 0
M  V30 458 H 51.1134 -3.73927 1.15301 0
M  V30 459 H 50.7364 -3.93771 -0.550491 0
M  V30 460 N 51.7335 -0.305618 -1.54608 0
M  V30 461 C 52.6665 0.610536 -2.19881 0
M  V30 462 C 53.6445 1.1294 -1.16976 0
M  V30 463 O 54.8285 1.19673 -1.45638 0
M  V30 464 C 51.9555 1.83583 -2.84631 0
M  V30 465 C 51.0015 1.4498 -4.01102 0
M  V30 466 S 51.8345 0.501793 -5.33144 0
M  V30 467 C 52.9905 1.73478 -6.01379 0
M  V30 468 H 53.2235 0.0560177 -2.97247 0
M  V30 469 H 50.7565 -0.0897434 -1.54139 0
M  V30 470 H 52.7145 2.53898 -3.22562 0
M  V30 471 H 51.3755 2.36152 -2.07102 0
M  V30 472 H 50.5685 2.36236 -4.45206 0
M  V30 473 H 50.1705 0.826553 -3.64752 0
M  V30 474 H 52.4625 2.67473 -6.22467 0
M  V30 475 H 53.4055 1.33622 -6.95378 0
M  V30 476 H 53.8135 1.9136 -5.31076 0
M  V30 477 N 53.2116 1.57565 -0.0334293 0
M  V30 478 C 54.1436 2.0739 0.975811 0
M  V30 479 C 55.1566 0.998166 1.2861 0
M  V30 480 O 56.3456 1.27426 1.25 0
M  V30 481 C 53.4456 2.4871 2.30209 0
M  V30 482 C 52.6186 3.79413 2.17634 0
M  V30 483 C 51.6776 4.07237 3.33233 0
M  V30 484 O 50.7036 4.77425 3.09927 0
M  V30 485 N 51.9056 3.5775 4.5716 0
M  V30 486 H 54.6706 2.94598 0.55066 0
M  V30 487 H 52.2316 1.61173 0.15323 0
M  V30 488 H 54.2236 2.64413 3.06378 0
M  V30 489 H 52.7936 1.66845 2.64351 0
M  V30 490 H 52.0136 3.73465 1.26165 0
M  V30 491 H 53.3016 4.65038 2.0644 0
M  V30 492 H 52.6996 3.00976 4.78989 0
M  V30 493 H 51.2566 3.78724 5.30482 0
M  V30 494 N 54.6897 -0.239769 1.55765 0
M  V30 495 C 55.6527 -1.28038 1.90103 0
M  V30 496 C 56.6527 -1.40723 0.778055 0
M  V30 497 O 57.8427 -1.39301 1.04599 0
M  V30 498 C 54.9747 -2.65702 2.13577 0
M  V30 499 H 56.1677 -0.988048 2.83157 0
M  V30 500 H 53.7207 -0.479382 1.48767 0
M  V30 501 H 54.4557 -3.00063 1.23015 0
M  V30 502 H 54.2407 -2.57875 2.95369 0
M  V30 503 H 55.7307 -3.40828 2.41301 0
M  V30 504 N 56.1678 -1.49265 -0.50573 0
M  V30 505 C 57.0978 -1.68495 -1.61653 0
M  V30 506 C 58.0788 -0.53366 -1.61512 0
M  V30 507 O 59.2638 -0.76897 -1.78327 0
M  V30 508 C 56.3938 -1.74709 -3.00157 0
M  V30 509 C 55.3478 -2.89581 -3.15162 0
M  V30 510 C 54.6738 -2.80903 -4.5497 0
M  V30 511 C 55.9738 -4.30578 -2.95634 0
M  V30 512 H 57.6678 -2.61493 -1.45814 0
M  V30 513 H 55.2138 -1.25838 -0.70005 0
M  V30 514 H 57.1668 -1.86748 -3.77761 0
M  V30 515 H 55.8908 -0.783067 -3.17074 0
M  V30 516 H 54.5498 -2.77136 -2.39982 0
M  V30 517 H 54.1978 -1.82419 -4.68756 0
M  V30 518 H 53.8978 -3.57999 -4.65951 0
M  V30 519 H 55.4218 -2.94944 -5.34641 0
M  V30 520 H 56.8358 -4.4373 -3.63011 0
M  V30 521 H 55.2328 -5.0886 -3.18091 0
M  V30 522 H 56.3028 -4.45352 -1.91806 0
M  V30 523 N 57.6459 0.756429 -1.3826 0
M  V30 524 C 58.8739 1.54565 -1.3754 0
M  V30 525 C 59.2889 1.88767 0.0355331 0
M  V30 526 O 58.6459 1.52572 1.0014 0
M  V30 527 C 58.6969 2.84654 -2.22833 0
M  V30 528 O 58.4179 2.51912 -3.5843 0
M  V30 529 C 59.9189 3.78807 -2.30261 0
M  V30 530 H 57.1389 0.478353 -0.470553 0
M  V30 531 H 59.6829 0.936381 -1.81803 0
M  V30 532 H 57.8379 3.41965 -1.8204 0
M  V30 533 H 58.2519 3.35325 -4.03308 0
M  V30 534 H 59.7259 4.67045 -2.94233 0
M  V30 535 H 60.2029 4.19038 -1.31545 0
M  V30 536 H 60.8089 3.2742 -2.71433 0
M  V30 537 N 59.124 1.23083 0.984299 0
M  V30 538 C 60.054 1.03292 2.09411 0
M  V30 539 C 61.035 -0.048923 1.7003 0
M  V30 540 O 62.22 0.114967 1.93859 0
M  V30 541 C 59.35 0.619155 3.41736 0
M  V30 542 C 58.304 1.64791 3.95004 0
M  V30 543 C 57.63 1.0897 5.23478 0
M  V30 544 C 58.93 3.03999 4.24714 0
M  V30 545 H 60.624 1.96119 2.26225 0
M  V30 546 H 58.17 0.944344 1.08711 0
M  V30 547 H 60.123 0.467777 4.18796 0
M  V30 548 H 58.847 -0.344786 3.24775 0
M  V30 549 H 57.506 1.78721 3.20085 0
M  V30 550 H 57.154 0.11686 5.02864 0
M  V30 551 H 56.854 1.77704 5.60085 0
M  V30 552 H 58.378 0.950093 6.03163 0
M  V30 553 H 59.792 2.93393 4.92538 0
M  V30 554 H 58.189 3.69936 4.72512 0
M  V30 555 H 59.259 3.53285 3.32142 0
M  V30 556 N 60.6021 -1.18246 1.0419 0
M  V30 557 C 62.0181 -1.40269 0.761366 0
M  V30 558 C 62.2181 -1.90777 -0.648578 0
M  V30 559 O 61.2741 -2.0929 -1.41258 0
M  V30 560 C 62.5871 -2.40237 1.8085 0
M  V30 561 C 64.1351 -2.53961 1.82955 0
M  V30 562 C 64.6101 -3.57194 2.86664 0
M  V30 563 N 66.1011 -3.64702 2.85563 0
M  V30 564 C 66.8361 -4.44309 3.6246 0
M  V30 565 N 66.3321 -5.27514 4.49111 0
M  V30 566 N 68.1251 -4.39084 3.50944 0
M  V30 567 H 60.2761 -0.837882 1.95175 0
M  V30 568 H 62.5391 -0.430608 0.84456 0
M  V30 569 H 62.2451 -2.10176 2.81991 0
M  V30 570 H 62.1191 -3.39601 1.64168 0
M  V30 571 H 64.5061 -2.83338 0.824855 0
M  V30 572 H 64.5871 -1.54706 2.03715 0
M  V30 573 H 64.2311 -3.28558 3.87314 0
M  V30 574 H 64.1611 -4.5613 2.6316 0
M  V30 575 H 66.6521 -3.05289 2.22727 0
M  V30 576 H 66.9651 -5.85411 5.04493 0
M  V30 577 H 65.3101 -5.2693 4.53178 0
M  V30 578 H 68.5011 -3.7313 2.82651 0
M  V30 579 H 68.6741 -5.00883 4.11121 0
M  V30 580 N 62.0802 -0.821533 -1.34494 0
M  V30 581 C 63.3082 -0.421884 -2.02553 0
M  V30 582 C 63.7232 0.971745 -1.61872 0
M  V30 583 O 63.0802 1.62864 -0.823496 0
M  V30 584 C 63.1312 -0.51285 -3.57844 0
M  V30 585 O 62.8522 -1.85155 -3.97051 0
M  V30 586 C 64.3532 -0.107921 -4.43169 0
M  V30 587 H 61.5732 -0.169482 -0.649243 0
M  V30 588 H 64.1172 -1.1093 -1.71798 0
M  V30 589 H 62.2722 0.126474 -3.87193 0
M  V30 590 H 62.6862 -1.82482 -4.91732 0
M  V30 591 H 64.1602 -0.222657 -5.51551 0
M  V30 592 H 64.6372 0.948401 -4.28838 0
M  V30 593 H 65.2432 -0.720989 -4.19144 0
M  V30 594 N 63.5583 1.46682 -0.576371 0
M  V30 595 C 64.4883 2.33028 0.148397 0
M  V30 596 C 65.4693 1.44961 0.889956 0
M  V30 597 O 66.6543 1.73789 0.866662 0
M  V30 598 C 63.7843 3.27117 1.1667 0
M  V30 599 C 62.7383 4.24575 0.540386 0
M  V30 600 C 62.0643 5.08126 1.6647 0
M  V30 601 C 63.3643 5.19722 -0.518331 0
M  V30 602 H 65.0583 2.93875 -0.572509 0
M  V30 603 H 62.6043 1.41315 -0.276768 0
M  V30 604 H 64.5573 3.86374 1.68204 0
M  V30 605 H 63.2813 2.64364 1.9178 0
M  V30 606 H 61.9403 3.66571 0.0461769 0
M  V30 607 H 61.5883 4.41762 2.40531 0
M  V30 608 H 61.2883 5.74122 1.25131 0
M  V30 609 H 62.8123 5.70246 2.18293 0
M  V30 610 H 64.2263 5.73232 -0.0883058 0
M  V30 611 H 62.6233 5.94026 -0.851679 0
M  V30 612 H 63.6933 4.64037 -1.40703 0
M  V30 613 N 65.0364 0.313813 1.54444 0
M  V30 614 C 65.9994 -0.54379 2.22656 0
M  V30 615 C 66.9994 -1.05124 1.21678 0
M  V30 616 O 68.1894 -0.945225 1.46325 0
M  V30 617 C 65.3214 -1.75427 2.92298 0
M  V30 618 H 66.5144 0.0523599 2.99854 0
M  V30 619 H 64.0674 0.0647834 1.56166 0
M  V30 620 H 64.8024 -2.38991 2.19211 0
M  V30 621 H 64.5874 -1.39791 3.66334 0
M  V30 622 H 66.0774 -2.36325 3.44297 0
M  V30 623 N 66.5145 -1.57545 0.0417849 0
M  V30 624 C 67.4775 -2.09885 -0.92093 0
M  V30 625 C 68.4775 -1.01648 -1.24596 0
M  V30 626 O 69.6675 -1.27759 -1.1842 0
M  V30 627 C 66.7995 -2.57527 -2.23367 0
M  V30 628 H 67.9925 -2.96236 -0.467382 0
M  V30 629 H 65.5455 -1.5493 -0.206467 0
M  V30 630 H 66.2805 -1.74542 -2.73323 0
M  V30 631 H 66.0655 -3.36613 -2.01083 0
M  V30 632 H 67.5555 -2.98201 -2.92346 0
M  V30 633 N 67.9926 0.231505 -1.5589 0
M  V30 634 C 69.2176 0.978689 -1.82856 0
M  V30 635 C 69.6426 1.77559 -0.620846 0
M  V30 636 O 69.0006 1.76119 0.430305 0
M  V30 637 C 69.0486 1.87997 -3.07716 0
M  V30 638 O 68.1526 2.97393 -2.85712 0
M  V30 639 H 67.4936 0.277663 -0.603158 0
M  V30 640 H 70.0236 0.24783 -2.03093 0
M  V30 641 H 70.0336 2.2917 -3.37558 0
M  V30 642 H 68.7086 1.29417 -3.95252 0
M  V30 643 H 67.2856 2.60238 -2.67078 0
M  V30 644 N 69.4707 1.49531 0.497807 0
M  V30 645 C 70.7477 1.49682 1.25915 0
M  V30 646 C 71.1277 0.226339 2.09883 0
M  V30 647 O 70.4757 -0.791189 2.14365 0
M  V30 648 C 70.6857 2.77755 2.11313 0
M  V30 649 C 72.0337 3.27371 2.70395 0
M  V30 650 O 73.0577 2.78894 2.21578 0
M  V30 651 O 71.9167 4.11808 3.59272 0
M  V30 652 H 69.0107 0.599228 0.56996 0
M  V30 653 H 71.5567 1.61798 0.511816 0
M  V30 654 H 70.3287 3.61713 1.49264 0
M  V30 655 H 69.9517 2.68515 2.93233 0
M  V30 656 N 70.9488 -0.749086 1.3866 0
M  V30 657 C 72.1948 -1.51056 1.35314 0
M  V30 658 C 72.5278 -1.94121 -0.0553751 0
M  V30 659 O 71.8028 -1.65763 -1.01749 0
M  V30 660 C 72.0858 -2.76003 2.31288 0
M  V30 661 C 71.9388 -2.39047 3.8102 0
M  V30 662 C 73.2578 -3.78046 2.2532 0
M  V30 663 H 70.3768 -0.547972 0.492844 0
M  V30 664 H 73.0188 -0.857628 1.69543 0
M  V30 665 H 71.1688 -3.31716 2.02229 0
M  V30 666 H 72.8408 -1.89074 4.20771 0
M  V30 667 H 71.0838 -1.71449 3.98482 0
M  V30 668 H 71.7548 -3.28462 4.4364 0
M  V30 669 H 74.2308 -3.31884 2.50983 0
M  V30 670 H 73.1068 -4.63159 2.94576 0
M  V30 671 H 73.3678 -4.23957 1.25352 0
M  V30 672 N 72.4269 -1.23603 -0.977757 0
M  V30 673 C 73.6549 -1.09646 -1.75458 0
M  V30 674 C 74.0699 0.351859 -1.85492 0
M  V30 675 O 73.4269 1.24327 -1.336 0
M  V30 676 C 73.4779 -1.71895 -3.18016 0
M  V30 677 O 73.1989 -3.11063 -3.08498 0
M  V30 678 C 74.6999 -1.63415 -4.12081 0
M  V30 679 H 71.9199 -0.38359 -0.550545 0
M  V30 680 H 74.4639 -1.63507 -1.22824 0
M  V30 681 H 72.6189 -1.22061 -3.67668 0
M  V30 682 H 73.0329 -3.41305 -3.9826 0
M  V30 683 H 74.5069 -2.11669 -5.09804 0
M  V30 684 H 74.9839 -0.593462 -4.35172 0
M  V30 685 H 75.5899 -2.12628 -3.68334 0
M  V30 686 N 73.905 1.17692 -1.04816 0
M  V30 687 C 74.852 2.21581 -0.645797 0
M  V30 688 C 75.822 1.62367 0.350159 0
M  V30 689 O 77.007 1.89254 0.242433 0
M  V30 690 C 74.147 3.45092 -0.0227568 0
M  V30 691 C 73.26 4.18613 -1.06709 0
M  V30 692 C 72.395 5.29602 -0.411767 0
M  V30 693 C 71.434 5.94904 -1.44067 0
M  V30 694 N 70.571 6.97414 -0.809781 0
M  V30 695 H 75.411 2.55353 -1.5362 0
M  V30 696 H 72.948 1.25438 -0.768364 0
M  V30 697 H 74.906 4.15679 0.35588 0
M  V30 698 H 73.536 3.11917 0.831122 0
M  V30 699 H 72.588 3.46779 -1.5636 0
M  V30 700 H 73.9 4.63293 -1.84827 0
M  V30 701 H 73.054 6.06696 0.0206623 0
M  V30 702 H 71.793 4.86045 0.401438 0
M  V30 703 H 70.798 5.16544 -1.88316 0
M  V30 704 H 72.023 6.40542 -2.25571 0
M  V30 705 H 69.969 6.55998 -0.0170186 0
M  V30 706 H 69.886 7.40386 -1.52856 0
M  V30 707 H 71.154 7.78463 -0.401999 0
M  V30 708 N 75.3831 0.828654 1.34056 0
M  V30 709 C 76.3331 0.226828 2.26869 0
M  V30 710 C 77.3171 -0.612243 1.48796 0
M  V30 711 O 78.5091 -0.465884 1.70759 0
M  V30 712 C 75.6381 -0.605654 3.37915 0
M  V30 713 C 74.7241 0.244361 4.23395 0
M  V30 714 N 75.1151 1.31815 4.88322 0
M  V30 715 C 73.4131 0.0296616 4.4599 0
M  V30 716 C 74.1141 1.83895 5.51867 0
M  V30 717 N 73.0901 1.14196 5.3147 0
M  V30 718 H 76.8921 1.04811 2.74576 0
M  V30 719 H 74.4061 0.67205 1.47842 0
M  V30 720 H 76.4031 -1.05302 4.03382 0
M  V30 721 H 75.0631 -1.42504 2.91758 0
M  V30 722 H 76.0741 1.70099 4.8917 0
M  V30 723 H 72.7511 -0.757097 4.10578 0
M  V30 724 H 74.1411 2.7376 6.136 0
M  V30 725 N 76.8612 -1.46375 0.584142 0
M  V30 726 C 78.0912 -2.06461 0.0758195 0
M  V30 727 C 78.4992 -1.43322 -1.23512 0
M  V30 728 O 77.8422 -0.533216 -1.75791 0
M  V30 729 C 77.9042 -3.59131 -0.162773 0
M  V30 730 C 77.5682 -4.4447 1.06279 0
M  V30 731 C 78.5652 -4.80918 1.97519 0
M  V30 732 C 76.2502 -4.85584 1.28504 0
M  V30 733 C 78.2442 -5.57309 3.09331 0
M  V30 734 C 75.9312 -5.61734 2.4062 0
M  V30 735 C 76.9292 -5.9751 3.30863 0
M  V30 736 O 76.6172 -6.72121 4.41032 0
M  V30 737 H 76.3492 -0.673745 0.0551725 0
M  V30 738 H 78.9032 -1.88969 0.804984 0
M  V30 739 H 77.1332 -3.74936 -0.946565 0
M  V30 740 H 78.8222 -4.0114 -0.619782 0
M  V30 741 H 79.5882 -4.49732 1.81565 0
M  V30 742 H 75.4672 -4.57187 0.591702 0
M  V30 743 H 79.0112 -5.85152 3.79793 0
M  V30 744 H 74.9082 -5.92334 2.56537 0
M  V30 745 H 75.6762 -6.90547 4.39417 0
M  V30 746 N 78.3393 -0.321999 -1.54275 0
M  V30 747 C 79.2493 0.553631 -2.27974 0
M  V30 748 C 80.2653 1.13054 -1.32268 0
M  V30 749 O 81.4413 1.15084 -1.6528 0
M  V30 750 C 78.5063 1.69927 -3.02201 0
M  V30 751 C 77.5673 1.15433 -4.1349 0
M  V30 752 C 76.8003 2.24537 -4.84168 0
M  V30 753 O 77.0233 3.44852 -4.5435 0
M  V30 754 O 75.9573 1.90044 -5.7111 0
M  V30 755 H 79.7833 -0.0448345 -3.03667 0
M  V30 756 H 77.3683 -0.0877418 -1.49142 0
M  V30 757 H 79.2503 2.3663 -3.48689 0
M  V30 758 H 77.9253 2.28395 -2.29385 0
M  V30 759 H 76.8323 0.452436 -3.71354 0
M  V30 760 H 78.1653 0.614805 -4.88345 0
M  V30 761 N 79.8174 1.5752 -0.0501392 0
M  V30 762 C 80.7474 2.14502 0.922566 0
M  V30 763 C 81.7284 1.06642 1.3252 0
M  V30 764 O 82.9134 1.34577 1.4001 0
M  V30 765 C 80.0434 2.68916 2.19776 0
M  V30 766 C 78.9974 3.8175 1.93523 0
M  V30 767 C 78.3234 4.22677 3.27487 0
M  V30 768 C 79.6234 5.06932 1.25765 0
M  V30 769 H 81.3174 2.9603 0.447952 0
M  V30 770 H 78.8634 1.42401 0.214024 0
M  V30 771 H 80.8164 3.07419 2.88222 0
M  V30 772 H 79.5404 1.84578 2.69441 0
M  V30 773 H 78.1994 3.43718 1.27489 0
M  V30 774 H 77.8474 3.35291 3.74952 0
M  V30 775 H 77.5474 4.98725 3.1072 0
M  V30 776 H 79.0714 4.63779 3.97166 0
M  V30 777 H 80.4854 5.42888 1.84244 0
M  V30 778 H 78.8824 5.88116 1.19328 0
M  V30 779 H 79.9524 4.84337 0.233536 0
M  V30 780 N 81.2955 -0.223234 1.56011 0
M  V30 781 C 82.5415 -0.949279 1.79211 0
M  V30 782 C 82.8745 -1.84054 0.619494 0
M  V30 783 O 82.1495 -1.90726 -0.381317 0
M  V30 784 C 82.4325 -1.78965 3.12479 0
M  V30 785 C 82.2855 -0.924997 4.40186 0
M  V30 786 C 83.6045 -2.76774 3.42175 0
M  V30 787 H 80.7235 -0.343676 0.651963 0
M  V30 788 H 83.3655 -0.218253 1.88742 0
M  V30 789 H 81.5155 -2.41291 3.04485 0
M  V30 790 H 83.1875 -0.318615 4.60198 0
M  V30 791 H 81.4305 -0.230344 4.33188 0
M  V30 792 H 82.1015 -1.54735 5.29869 0
M  V30 793 H 84.5775 -2.24584 3.50287 0
M  V30 794 H 83.4535 -3.32678 4.36597 0
M  V30 795 H 83.7145 -3.54429 2.64258 0
M  V30 796 N 82.7736 -1.49793 -0.48987 0
M  V30 797 C 84.1896 -1.36803 -0.822022 0
M  V30 798 C 84.3896 -0.409652 -1.97292 0
M  V30 799 O 83.4456 0.154614 -2.52026 0
M  V30 800 C 84.7586 -2.77768 -1.15175 0
M  V30 801 C 86.3066 -2.86549 -1.25931 0
M  V30 802 C 86.7816 -4.28306 -1.62228 0
M  V30 803 N 88.2726 -4.31169 -1.69256 0
M  V30 804 C 89.0076 -5.37832 -1.98807 0
M  V30 805 N 88.5036 -6.54726 -2.26507 0
M  V30 806 N 90.2966 -5.25258 -2.00152 0
M  V30 807 H 82.4476 -2.10691 0.268881 0
M  V30 808 H 84.7106 -0.946241 0.057728 0
M  V30 809 H 84.4166 -3.49648 -0.379335 0
M  V30 810 H 84.2906 -3.13836 -2.09253 0
M  V30 811 H 86.6776 -2.14899 -2.02243 0
M  V30 812 H 86.7586 -2.54049 -0.298776 0
M  V30 813 H 86.4026 -5.00486 -0.864622 0
M  V30 814 H 86.3326 -4.58279 -2.594 0
M  V30 815 H 88.8236 -3.4687 -1.49965 0
M  V30 816 H 89.1366 -7.31833 -2.48276 0
M  V30 817 H 87.4816 -6.57933 -2.23939 0
M  V30 818 H 90.6726 -4.32938 -1.77996 0
M  V30 819 H 90.8456 -6.08476 -2.22848 0
M  V30 820 N 84.2517 0.741722 -1.39055 0
M  V30 821 C 85.1617 1.88621 -1.39496 0
M  V30 822 C 86.1777 1.71557 -0.290578 0
M  V30 823 O 87.3537 1.94275 -0.530954 0
M  V30 824 C 84.4187 3.24134 -1.23037 0
M  V30 825 C 83.4797 3.5364 -2.43387 0
M  V30 826 C 82.7127 4.82687 -2.27703 0
M  V30 827 O 82.9357 5.55922 -1.27696 0
M  V30 828 O 81.8697 5.1194 -3.16545 0
M  V30 829 H 85.6957 1.91203 -2.35956 0
M  V30 830 H 83.2807 0.888625 -1.20099 0
M  V30 831 H 85.1627 4.0513 -1.15964 0
M  V30 832 H 83.8377 3.22337 -0.296691 0
M  V30 833 H 82.7447 2.72758 -2.56035 0
M  V30 834 H 84.0777 3.60209 -3.35425 0
M  V30 835 N 85.7298 1.2412 0.971189 0
M  V30 836 C 86.6598 1.05508 2.08304 0
M  V30 837 C 87.6408 -0.0308864 1.70072 0
M  V30 838 O 88.8258 0.135521 1.93727 0
M  V30 839 C 85.9558 0.655365 3.4106 0
M  V30 840 C 84.9098 1.68971 3.93234 0
M  V30 841 C 84.2358 1.14516 5.22293 0
M  V30 842 C 85.5358 3.08487 4.21465 0
M  V30 843 H 87.2298 1.98507 2.24132 0
M  V30 844 H 84.7758 0.955821 1.07704 0
M  V30 845 H 86.7288 0.51217 4.18276 0
M  V30 846 H 85.4528 -0.31032 3.25122 0
M  V30 847 H 84.1118 1.82106 3.18171 0
M  V30 848 H 83.7598 0.170189 5.02712 0
M  V30 849 H 83.4598 1.83635 5.58168 0
M  V30 850 H 84.9838 1.01401 6.02121 0
M  V30 851 H 86.3978 2.98601 4.89398 0
M  V30 852 H 84.7948 3.74926 4.68562 0
M  V30 853 H 85.8648 3.56787 3.28376 0
M  V30 854 N 87.2079 -1.17134 1.05439 0
M  V30 855 C 88.4559 -1.87085 0.764429 0
M  V30 856 C 88.7769 -1.81584 -0.710787 0
M  V30 857 O 88.0469 -1.24349 -1.51374 0
M  V30 858 H 86.6269 -0.692627 0.279779 0
M  V30 859 H 89.2889 -1.42087 1.33406 0
M  V30 860 H 88.3849 -2.92759 1.0816 0
M  V30 861 N 88.686 -0.835752 -1.33615 0
M  V30 862 C 89.633 -0.26473 -2.29277 0
M  V30 863 C 90.603 0.617712 -1.54187 0
M  V30 864 O 91.788 0.556641 -1.825 0
M  V30 865 C 88.928 0.556777 -3.40579 0
M  V30 866 C 88.041 -0.349339 -4.30585 0
M  V30 867 C 87.176 0.482969 -5.29 0
M  V30 868 C 86.215 -0.421732 -6.10645 0
M  V30 869 N 85.352 0.372262 -7.01112 0
M  V30 870 H 90.192 -1.08582 -2.77514 0
M  V30 871 H 87.729 -0.546927 -1.36554 0
M  V30 872 H 89.687 1.04852 -4.03809 0
M  V30 873 H 88.317 1.34286 -2.93542 0
M  V30 874 H 87.369 -0.959372 -3.68104 0
M  V30 875 H 88.681 -1.04445 -4.87742 0
M  V30 876 H 87.835 1.03866 -5.97743 0
M  V30 877 H 86.574 1.21153 -4.72412 0
M  V30 878 H 85.579 -0.989464 -5.40823 0
M  V30 879 H 86.804 -1.14861 -6.69316 0
M  V30 880 H 84.75 1.08426 -6.46977 0
M  V30 881 H 84.667 -0.264198 -7.55538 0
M  V30 882 H 85.935 0.910293 -7.74167 0
M  V30 883 N 90.1641 1.46063 -0.591896 0
M  V30 884 C 91.4121 2.01938 -0.0808391 0
M  V30 885 C 91.7331 1.46475 1.28725 0
M  V30 886 O 91.0031 0.652944 1.84698 0
M  V30 887 H 89.5831 0.746516 -0.0268938 0
M  V30 888 H 92.2451 1.79055 -0.769752 0
M  V30 889 H 91.3411 3.12094 -0.0187578 0
M  V30 890 N 91.6422 0.330177 1.54103 0
M  V30 891 C 92.8702 -0.272179 2.05102 0
M  V30 892 C 93.2852 -1.45267 1.20595 0
M  V30 893 O 92.6422 -1.8094 0.238144 0
M  V30 894 C 92.6932 -0.70023 3.54653 0
M  V30 895 O 92.4142 0.433301 4.35952 0
M  V30 896 C 93.9152 -1.3647 4.21771 0
M  V30 897 H 91.1352 -0.0549159 0.668749 0
M  V30 898 H 93.6792 0.478285 1.98828 0
M  V30 899 H 91.8342 -1.40066 3.61193 0
M  V30 900 H 92.2482 0.0947539 5.24414 0
M  V30 901 H 93.7222 -1.61509 5.27843 0
M  V30 902 H 94.1992 -2.31409 3.73292 0
M  V30 903 H 94.8052 -0.706675 4.19388 0
M  V30 904 N 93.1203 -1.57491 0.0584922 0
M  V30 905 C 94.3503 -1.9701 -0.622134 0
M  V30 906 C 94.7583 -0.935034 -1.6448 0
M  V30 907 O 94.1013 0.0882904 -1.83488 0
M  V30 908 C 94.1633 -3.32794 -1.35972 0
M  V30 909 C 93.8273 -4.54343 -0.492043 0
M  V30 910 C 94.8243 -5.19323 0.244901 0
M  V30 911 C 92.5093 -5.00534 -0.420821 0
M  V30 912 C 94.5033 -6.28835 1.04143 0
M  V30 913 C 92.1903 -6.09921 0.379389 0
M  V30 914 C 93.1883 -6.73933 1.10919 0
M  V30 915 O 92.8763 -7.81216 1.89623 0
M  V30 916 H 92.6083 -0.653127 -0.174359 0
M  V30 917 H 95.1623 -2.05029 0.123418 0
M  V30 918 H 93.3923 -3.21351 -2.15105 0
M  V30 919 H 95.0813 -3.5701 -1.93129 0
M  V30 920 H 95.8473 -4.8459 0.19939 0
M  V30 921 H 91.7263 -4.50496 -0.978474 0
M  V30 922 H 95.2703 -6.7873 1.61157 0
M  V30 923 H 91.1673 -6.44089 0.426512 0
M  V30 924 H 91.9353 -7.98029 1.81913 0
M  V30 925 N 94.5984 0.214957 -1.56127 0
M  V30 926 C 95.8464 0.936518 -1.79091 0
M  V30 927 C 96.1674 1.84606 -0.628148 0
M  V30 928 O 95.4374 1.92664 0.35462 0
M  V30 929 H 94.0174 0.3488 -0.660566 0
M  V30 930 H 96.6794 0.22523 -1.93594 0
M  V30 931 H 95.7754 1.53943 -2.71492 0
M  V30 932 N 96.0765 1.50051 0.48192 0
M  V30 933 C 97.0235 1.68122 1.58125 0
M  V30 934 C 97.9935 0.522545 1.57666 0
M  V30 935 O 99.1785 0.751844 1.75362 0
M  V30 936 C 96.3185 1.77142 2.96167 0
M  V30 937 C 95.4315 3.0444 3.06497 0
M  V30 938 C 94.5665 3.04321 4.35387 0
M  V30 939 C 93.6055 4.26118 4.3942 0
M  V30 940 N 92.7425 4.238 5.59766 0
M  V30 941 H 97.5825 2.6198 1.42022 0
M  V30 942 H 95.1195 1.29877 0.690687 0
M  V30 943 H 97.0775 1.80352 3.76203 0
M  V30 944 H 95.7075 0.867329 3.1093 0
M  V30 945 H 94.7595 3.10752 2.19402 0
M  V30 946 H 96.0715 3.94426 3.05336 0
M  V30 947 H 95.2255 3.062 5.23762 0
M  V30 948 H 93.9645 2.12147 4.39141 0
M  V30 949 H 92.9695 4.24463 3.49444 0
M  V30 950 H 94.1945 5.19507 4.37366 0
M  V30 951 H 92.1405 3.34474 5.64326 0
M  V30 952 H 92.0575 5.07542 5.60301 0
M  V30 953 H 93.3255 4.2981 6.50295 0
M  V30 954 N 97.5546 -0.734337 1.39446 0
M  V30 955 C 98.8006 -1.49613 1.36908 0
M  V30 956 C 99.1336 -1.94169 -0.0347829 0
M  V30 957 O 98.4086 -1.66833 -0.999847 0
M  V30 958 C 98.6916 -2.73534 2.34203 0
M  V30 959 C 98.5446 -2.34993 3.83534 0
M  V30 960 C 99.8636 -3.75635 2.29317 0
M  V30 961 H 96.9826 -0.542714 0.498629 0
M  V30 962 H 99.6246 -0.839597 1.70443 0
M  V30 963 H 97.7746 -3.29553 2.05736 0
M  V30 964 H 99.4466 -1.84601 4.22753 0
M  V30 965 H 97.6896 -1.67213 4.00278 0
M  V30 966 H 98.3606 -3.23738 4.47099 0
M  V30 967 H 100.837 -3.29203 2.54489 0
M  V30 968 H 99.7126 -4.60008 2.99472 0
M  V30 969 H 99.9736 -4.22603 1.29842 0
M  V30 970 N 99.0327 -1.24633 -0.964593 0
M  V30 971 C 100.31 -0.995809 -1.68354 0
M  V30 972 C 100.69 0.480964 -2.05548 0
M  V30 973 O 100.038 1.45599 -1.76105 0
M  V30 974 C 100.248 -1.92177 -2.91323 0
M  V30 975 C 101.596 -2.19446 -3.63495 0
M  V30 976 O 102.62 -1.89855 -3.01386 0
M  V30 977 O 101.479 -2.69714 -4.75307 0
M  V30 978 H 98.5727 -0.376854 -0.736146 0
M  V30 979 H 101.119 -1.35745 -1.0184 0
M  V30 980 H 99.8907 -2.91938 -2.60553 0
M  V30 981 H 99.5137 -1.56349 -3.65569 0
M  V30 982 N 100.511 1.16574 -1.06058 0
M  V30 983 C 101.441 2.23057 -0.690488 0
M  V30 984 C 102.422 1.67141 0.315901 0
M  V30 985 O 103.607 1.93253 0.191556 0
M  V30 986 C 100.737 3.47222 -0.073625 0
M  V30 987 C 99.6908 4.16016 -1.00573 0
M  V30 988 C 99.0168 5.34104 -0.252289 0
M  V30 989 C 100.317 4.67264 -2.33371 0
M  V30 990 H 102.011 2.54271 -1.58072 0
M  V30 991 H 99.5568 1.22218 -0.76149 0
M  V30 992 H 101.51 4.20939 0.19714 0
M  V30 993 H 100.234 3.15302 0.85161 0
M  V30 994 H 98.8928 3.44223 -1.2612 0
M  V30 995 H 98.5408 4.98437 0.675988 0
M  V30 996 H 98.2408 5.81072 -0.873455 0
M  V30 997 H 99.7648 6.10599 0.0109857 0
M  V30 998 H 101.179 5.32573 -2.12223 0
M  V30 999 H 99.5758 5.24843 -2.90963 0
M  V30 1000 H 100.646 3.83602 -2.96611 0
M  V30 1001 N 101.989 0.842826 1.3317 0
M  V30 1002 C 103.235 0.441099 1.97945 0
M  V30 1003 C 103.568 -0.998024 1.66593 0
M  V30 1004 O 102.843 -1.69839 0.947898 0
M  V30 1005 C 103.126 0.666841 3.53872 0
M  V30 1006 C 102.979 2.15352 3.94897 0
M  V30 1007 C 104.298 0.115544 4.39948 0
M  V30 1008 H 101.417 0.161739 0.719034 0
M  V30 1009 H 104.059 1.05907 1.57746 0
M  V30 1010 H 102.209 0.140828 3.88245 0
M  V30 1011 H 103.881 2.7447 3.70761 0
M  V30 1012 H 102.124 2.63653 3.44484 0
M  V30 1013 H 102.795 2.26221 5.03516 0
M  V30 1014 H 105.271 0.565213 4.12243 0
M  V30 1015 H 104.147 0.303152 5.48062 0
M  V30 1016 H 104.408 -0.980935 4.3108 0
M  V30 1017 N 103.467 -1.45747 0.599634 0
M  V30 1018 C 104.713 -2.02592 0.0918643 0
M  V30 1019 C 105.046 -1.46806 -1.27128 0
M  V30 1020 O 104.321 -0.639658 -1.83681 0
M  V30 1021 C 104.604 -3.60073 0.0443398 0
M  V30 1022 C 104.457 -4.26208 1.43759 0
M  V30 1023 C 105.776 -4.35309 -0.647608 0
M  V30 1024 H 102.895 -0.736175 0.034857 0
M  V30 1025 H 105.537 -1.73694 0.770081 0
M  V30 1026 H 103.687 -3.84823 -0.533224 0
M  V30 1027 H 105.359 -4.12668 2.06162 0
M  V30 1028 H 103.602 -3.84916 2.00056 0
M  V30 1029 H 104.273 -5.35069 1.35665 0
M  V30 1030 H 106.749 -4.15805 -0.156776 0
M  V30 1031 H 105.625 -5.45038 -0.649942 0
M  V30 1032 H 105.886 -4.07598 -1.71219 0
M  V30 1033 N 104.945 -0.338344 -1.53925 0
M  V30 1034 C 106.175 0.260919 -2.04946 0
M  V30 1035 C 106.583 1.45174 -1.2133 0
M  V30 1036 O 105.926 1.82122 -0.240262 0
M  V30 1037 C 105.988 0.744596 -3.51704 0
M  V30 1038 C 105.652 -0.325883 -4.55837 0
M  V30 1039 C 106.649 -1.16687 -5.06636 0
M  V30 1040 C 104.334 -0.478317 -5.00017 0
M  V30 1041 C 106.328 -2.14588 -6.00192 0
M  V30 1042 C 104.015 -1.46073 -5.93385 0
M  V30 1043 C 105.013 -2.29297 -6.4336 0
M  V30 1044 O 104.701 -3.25867 -7.34892 0
M  V30 1045 H 104.433 0.0551207 -0.673749 0
M  V30 1046 H 106.987 -0.486984 -1.99544 0
M  V30 1047 H 105.217 1.54366 -3.54553 0
M  V30 1048 H 106.906 1.26383 -3.85723 0
M  V30 1049 H 107.672 -1.06016 -4.73271 0
M  V30 1050 H 103.551 0.159613 -4.60724 0
M  V30 1051 H 107.095 -2.79585 -6.39123 0
M  V30 1052 H 102.992 -1.56802 -6.26166 0
M  V30 1053 H 103.76 -3.21278 -7.5281 0
M  V30 1054 N 106.423 1.57458 -0.0668435 0
M  V30 1055 C 107.37 2.12439 0.902122 0
M  V30 1056 C 108.34 1.03565 1.2986 0
M  V30 1057 O 109.525 1.312 1.38532 0
M  V30 1058 C 106.665 2.6865 2.16614 0
M  V30 1059 C 105.778 3.91663 1.82274 0
M  V30 1060 C 104.913 4.36134 3.0325 0
M  V30 1061 C 103.952 5.51808 2.64904 0
M  V30 1062 N 103.089 5.9126 3.78624 0
M  V30 1063 H 107.929 2.94934 0.426382 0
M  V30 1064 H 105.466 1.4575 0.198819 0
M  V30 1065 H 107.424 2.99346 2.90599 0
M  V30 1066 H 106.054 1.88928 2.61737 0
M  V30 1067 H 105.106 3.6746 0.983719 0
M  V30 1068 H 106.418 4.75693 1.50059 0
M  V30 1069 H 105.572 4.68465 3.85519 0
M  V30 1070 H 104.311 3.50948 3.38655 0
M  V30 1071 H 103.316 5.19133 1.81055 0
M  V30 1072 H 104.541 6.38722 2.30675 0
M  V30 1073 H 102.487 5.09024 4.138 0
M  V30 1074 H 102.404 6.70018 3.5016 0
M  V30 1075 H 103.672 6.28212 4.61486 0
M  V30 1076 N 107.901 -0.206675 1.56239 0
M  V30 1077 C 109.149 -0.927007 1.79586 0
M  V30 1078 C 109.47 -1.8427 0.637929 0
M  V30 1079 O 108.74 -1.92849 -0.344398 0
M  V30 1080 H 107.32 -0.345292 0.662407 0
M  V30 1081 H 109.982 -0.21496 1.93711 0
M  V30 1082 H 109.078 -1.52501 2.72305 0
M  V30 1083 N 109.379 -1.50304 -0.473955 0
M  V30 1084 C 110.607 -1.64902 -1.24959 0
M  V30 1085 C 111.022 -0.331198 -1.85872 0
M  V30 1086 O 110.379 0.68652 -1.69095 0
M  V30 1087 C 110.43 -2.73803 -2.36038 0
M  V30 1088 O 110.151 -4.00477 -1.77624 0
M  V30 1089 C 111.652 -2.99349 -3.26964 0
M  V30 1090 H 108.872 -0.554383 -0.378022 0
M  V30 1091 H 111.416 -1.9651 -0.566054 0
M  V30 1092 H 109.571 -2.44898 -3.00173 0
M  V30 1093 H 109.985 -4.60678 -2.5075 0
M  V30 1094 H 111.459 -3.79217 -4.01121 0
M  V30 1095 H 111.936 -2.10307 -3.85574 0
M  V30 1096 H 112.542 -3.29774 -2.68569 0
M  V30 1097 N 110.857 0.726932 -1.39834 0
M  V30 1098 C 112.105 1.4837 -1.37225 0
M  V30 1099 C 112.426 1.94979 0.0284857 0
M  V30 1100 O 111.696 1.69555 0.981213 0
M  V30 1101 H 110.276 0.55043 -0.505011 0
M  V30 1102 H 112.938 0.862468 -1.74778 0
M  V30 1103 H 112.034 2.36198 -2.04003 0
M  V30 1104 N 112.336 1.25143 0.95797 0
M  V30 1105 C 113.564 1.12424 1.73691 0
M  V30 1106 C 113.979 -0.322304 1.86029 0
M  V30 1107 O 113.336 -1.22186 1.35561 0
M  V30 1108 C 113.387 1.76933 3.15241 0
M  V30 1109 O 113.108 3.15932 3.03511 0
M  V30 1110 C 114.609 1.6995 4.09429 0
M  V30 1111 H 111.829 0.3923 0.544373 0
M  V30 1112 H 114.373 1.6544 1.20207 0
M  V30 1113 H 112.528 1.27895 3.6568 0
M  V30 1114 H 112.942 3.47598 3.9278 0
M  V30 1115 H 114.416 2.19753 5.06372 0
M  V30 1116 H 114.893 0.662619 4.34173 0
M  V30 1117 H 115.499 2.18461 3.64904 0
M  V30 1118 N 113.814 -1.1601 1.06675 0
M  V30 1119 C 114.761 -2.20525 0.680967 0
M  V30 1120 C 115.731 -1.62904 -0.324283 0
M  V30 1121 O 116.916 -1.89615 -0.212294 0
M  V30 1122 C 114.056 -3.45013 0.0776551 0
M  V30 1123 C 113.169 -4.16863 1.13355 0
M  V30 1124 C 112.304 -5.2888 0.49597 0
M  V30 1125 C 111.343 -5.92537 1.53513 0
M  V30 1126 N 110.48 -6.96038 0.920631 0
M  V30 1127 H 115.32 -2.52876 1.57663 0
M  V30 1128 H 112.857 -1.24199 0.788223 0
M  V30 1129 H 114.815 -4.16193 -0.289704 0
M  V30 1130 H 113.445 -3.132 -0.781393 0
M  V30 1131 H 112.497 -3.44248 1.61857 0
M  V30 1132 H 113.809 -4.60294 1.92174 0
M  V30 1133 H 112.963 -6.06653 0.0758604 0
M  V30 1134 H 111.702 -4.86622 -0.324062 0
M  V30 1135 H 110.707 -5.13482 1.9651 0
M  V30 1136 H 111.932 -6.36873 2.35733 0
M  V30 1137 H 109.878 -6.55888 0.12138 0
M  V30 1138 H 109.795 -7.3786 1.64616 0
M  V30 1139 H 111.063 -7.77725 0.525795 0
M  V30 1140 N 115.292 -0.849877 -1.32721 0
M  V30 1141 C 116.225 -0.235903 -2.26977 0
M  V30 1142 C 117.203 0.623355 -1.50177 0
M  V30 1143 O 118.387 0.581207 -1.79316 0
M  V30 1144 C 115.514 0.667712 -3.32053 0
M  V30 1145 C 114.56 -0.11753 -4.26338 0
M  V30 1146 S 115.393 -1.48277 -5.14562 0
M  V30 1147 C 116.549 -0.584741 -6.23163 0
M  V30 1148 H 116.782 -1.03495 -2.78704 0
M  V30 1149 H 114.315 -0.64724 -1.40179 0
M  V30 1150 H 116.273 1.18343 -3.93072 0
M  V30 1151 H 114.934 1.44052 -2.7912 0
M  V30 1152 H 114.127 0.57051 -5.00761 0
M  V30 1153 H 113.729 -0.564668 -3.69713 0
M  V30 1154 H 116.021 0.212968 -6.77165 0
M  V30 1155 H 116.964 -1.29947 -6.96074 0
M  V30 1156 H 117.372 -0.161202 -5.6427 0
M  V30 1157 N 116.77 1.45427 -0.607355 0
M  V30 1158 C 117.733 2.28974 0.101693 0
M  V30 1159 C 118.733 1.39754 0.795329 0
M  V30 1160 O 119.923 1.61878 0.643527 0
M  V30 1161 C 117.055 3.20768 1.15414 0
M  V30 1162 H 118.248 2.93147 -0.632844 0
M  V30 1163 H 115.801 1.51945 -0.366391 0
M  V30 1164 H 116.536 2.61395 1.91945 0
M  V30 1165 H 116.321 3.86489 0.66098 0
M  V30 1166 H 117.811 3.83589 1.65073 0
M  V30 1167 N 118.248 0.346503 1.53744 0
M  V30 1168 C 119.178 -0.501193 2.28058 0
M  V30 1169 C 120.159 -1.10014 1.29734 0
M  V30 1170 O 121.344 -1.12097 1.58581 0
M  V30 1171 C 118.474 -1.65078 3.05559 0
M  V30 1172 C 117.428 -1.18003 4.11411 0
M  V30 1173 C 116.754 -2.41837 4.76884 0
M  V30 1174 C 118.054 -0.278394 5.21558 0
M  V30 1175 H 119.748 0.11875 2.99164 0
M  V30 1176 H 117.294 0.0585531 1.43881 0
M  V30 1177 H 119.247 -2.25028 3.56287 0
M  V30 1178 H 117.971 -2.29767 2.32109 0
M  V30 1179 H 116.63 -0.603331 3.61601 0
M  V30 1180 H 116.278 -3.0494 4.00026 0
M  V30 1181 H 115.978 -2.1102 5.48402 0
M  V30 1182 H 117.502 -3.02508 5.30397 0
M  V30 1183 H 118.916 -0.784823 5.67903 0
M  V30 1184 H 117.313 -0.0619707 6.00068 0
M  V30 1185 H 118.383 0.684677 4.80042 0
M  V30 1186 N 119.726 -1.57421 0.075193 0
M  V30 1187 C 120.673 -2.12915 -0.890843 0
M  V30 1188 C 121.643 -1.04252 -1.29309 0
M  V30 1189 O 122.828 -1.31933 -1.37834 0
M  V30 1190 C 119.968 -2.69795 -2.15186 0
M  V30 1191 C 119.081 -3.92624 -1.80194 0
M  V30 1192 C 118.216 -4.37736 -3.00933 0
M  V30 1193 C 117.255 -5.53205 -2.61974 0
M  V30 1194 N 116.392 -5.9326 -3.75483 0
M  V30 1195 H 121.232 -2.95156 -0.410735 0
M  V30 1196 H 118.769 -1.45854 -0.191086 0
M  V30 1197 H 120.727 -3.00883 -2.89008 0
M  V30 1198 H 119.357 -1.90313 -2.60731 0
M  V30 1199 H 118.409 -3.67977 -0.964218 0
M  V30 1200 H 119.721 -4.76482 -1.47534 0
M  V30 1201 H 118.875 -4.70503 -3.8303 0
M  V30 1202 H 117.614 -3.52739 -3.36789 0
M  V30 1203 H 116.619 -5.20086 -1.783 0
M  V30 1204 H 117.844 -6.39936 -2.27284 0
M  V30 1205 H 115.79 -5.11212 -4.11094 0
M  V30 1206 H 115.707 -6.71865 -3.46602 0
M  V30 1207 H 116.975 -6.30651 -4.58148 0
M  V30 1208 N 121.204 0.198386 -1.56346 0
M  V30 1209 C 122.451 0.919286 -1.80431 0
M  V30 1210 C 122.779 1.83393 -0.647866 0
M  V30 1211 O 122.034 1.92236 0.366556 0
M  V30 1212 C 122.333 1.77031 -3.10475 0
M  V30 1213 C 121.999 1.00693 -4.39513 0
M  V30 1214 C 120.661 0.796145 -4.74568 0
M  V30 1215 C 123.013 0.469559 -5.19081 0
M  V30 1216 C 120.341 0.0364588 -5.86689 0
M  V30 1217 C 122.693 -0.2769 -6.31994 0
M  V30 1218 C 121.357 -0.49873 -6.65634 0
M  V30 1219 H 120.627 0.336391 -0.660244 0
M  V30 1220 H 123.274 0.185872 -1.90596 0
M  V30 1221 H 121.579 2.5723 -2.95533 0
M  V30 1222 H 123.276 2.33065 -3.26315 0
M  V30 1223 H 119.866 1.18122 -4.12001 0
M  V30 1224 H 124.05 0.619816 -4.92414 0
M  V30 1225 H 119.306 -0.145412 -6.11227 0
M  V30 1226 H 123.48 -0.700684 -6.92866 0
M  V30 1227 H 121.107 -1.0893 -7.52355 0
M  V30 1228 N 122.682 1.50554 0.465978 0
M  V30 1229 C 123.928 1.62038 1.21949 0
M  V30 1230 C 124.261 0.322116 1.9151 0
M  V30 1231 O 123.536 -0.676723 1.82348 0
M  V30 1232 C 123.819 2.80421 2.25912 0
M  V30 1233 C 123.672 4.20144 1.60622 0
M  V30 1234 C 124.991 2.94354 3.27176 0
M  V30 1235 H 122.11 0.589752 0.441998 0
M  V30 1236 H 124.752 1.82956 0.51257 0
M  V30 1237 H 122.902 2.62717 2.86203 0
M  V30 1238 H 124.574 4.49449 1.03889 0
M  V30 1239 H 122.817 4.24165 0.909211 0
M  V30 1240 H 123.488 4.98914 2.36196 0
M  V30 1241 H 125.964 3.10578 2.76913 0
M  V30 1242 H 124.84 3.788 3.97242 0
M  V30 1243 H 125.101 2.05186 3.916 0
M  V30 1244 N 124.16 -0.719506 1.40217 0
M  V30 1245 C 125.108 -1.85493 1.40339 0
M  V30 1246 C 126.102 -1.66995 0.284415 0
M  V30 1247 O 127.308 -1.74148 0.455252 0
M  V30 1248 H 123.683 -0.610857 0.438586 0
M  V30 1249 H 125.654 -1.82506 2.36081 0
M  V30 1250 C 124.403 -3.23321 1.27901 0
M  V30 1251 H 123.726 -3.38159 2.1328 0
M  V30 1252 H 125.166 -4.02914 1.32045 0
M  V30 1253 C 123.625 -3.36898 -0.0111355 0
M  V30 1254 O 124.155 -3.89674 -0.975538 0
M  V30 1255 N 122.361 -2.90492 -0.0793393 0
M  V30 1256 H 121.908 -2.47731 0.706183 0
M  V30 1257 H 121.866 -2.99955 -0.942038 0
M  V30 1258 N 125.638 -1.25649 -0.95132 0
M  V30 1259 C 126.585 -1.06323 -2.04851 0
M  V30 1260 C 127.555 0.0286491 -1.66075 0
M  V30 1261 O 128.74 -0.12917 -1.90362 0
M  V30 1262 C 125.88 -0.691529 -3.381 0
M  V30 1263 C 124.993 -1.85861 -3.89974 0
M  V30 1264 C 124.128 -1.43096 -5.11563 0
M  V30 1265 C 123.167 -2.56696 -5.55674 0
M  V30 1266 N 122.304 -2.14684 -6.68472 0
M  V30 1267 H 127.144 -2.00222 -2.20715 0
M  V30 1268 H 124.681 -0.997027 -1.08156 0
M  V30 1269 H 126.639 -0.456963 -4.1469 0
M  V30 1270 H 125.269 0.210474 -3.22113 0
M  V30 1271 H 124.321 -2.20639 -3.09875 0
M  V30 1272 H 125.633 -2.71161 -4.18657 0
M  V30 1273 H 124.787 -1.15624 -5.9558 0
M  V30 1274 H 123.526 -0.548722 -4.84603 0
M  V30 1275 H 122.531 -2.84909 -4.7022 0
M  V30 1276 H 123.756 -3.45503 -5.8464 0
M  V30 1277 H 121.702 -1.28881 -6.43215 0
M  V30 1278 H 121.619 -2.9353 -6.96689 0
M  V30 1279 H 122.887 -1.90397 -7.5589 0
M  V30 1280 N 127.117 1.15442 -1.07289 0
M  V30 1281 C 128.342 1.90638 -0.816828 0
M  V30 1282 C 128.767 1.77445 0.624083 0
M  V30 1283 O 128.125 1.10671 1.43602 0
M  V30 1284 C 128.173 3.39008 -1.22906 0
M  V30 1285 O 127.277 4.10701 -0.373975 0
M  V30 1286 H 126.618 0.593555 -0.297638 0
M  V30 1287 H 129.148 1.46198 -1.43134 0
M  V30 1288 H 129.158 3.89801 -1.20497 0
M  V30 1289 H 127.833 3.47929 -2.27856 0
M  V30 1290 H 126.41 3.70046 -0.460499 0
M  V30 1291 N 128.595 0.856903 1.32268 0
M  V30 1292 C 129.542 0.301172 2.28827 0
M  V30 1293 C 130.512 -0.593104 1.5515 0
M  V30 1294 O 131.697 -0.527537 1.83362 0
M  V30 1295 C 128.837 -0.502523 3.41422 0
M  V30 1296 C 127.95 0.417797 4.29975 0
M  V30 1297 C 127.085 -0.398749 5.29701 0
M  V30 1298 C 126.124 0.518827 6.09897 0
M  V30 1299 N 125.261 -0.260674 7.01616 0
M  V30 1300 H 130.101 1.12983 2.75751 0
M  V30 1301 H 127.638 0.568582 1.35667 0
M  V30 1302 H 129.596 -0.984141 4.05426 0
M  V30 1303 H 128.226 -1.29599 2.95642 0
M  V30 1304 H 127.278 1.01781 3.66531 0
M  V30 1305 H 128.59 1.12191 4.86019 0
M  V30 1306 H 127.744 -0.943435 5.9932 0
M  V30 1307 H 126.483 -1.13622 4.7428 0
M  V30 1308 H 125.488 1.07538 5.39181 0
M  V30 1309 H 126.713 1.25495 6.67404 0
M  V30 1310 H 124.659 -0.981198 6.4862 0
M  V30 1311 H 124.576 0.384364 7.55022 0
M  V30 1312 H 125.844 -0.787014 7.75517 0
M  V30 1313 N 130.073 -1.45103 0.615059 0
M  V30 1314 C 131.301 -2.06553 0.11977 0
M  V30 1315 C 131.716 -1.45842 -1.19898 0
M  V30 1316 O 131.073 -0.575325 -1.73194 0
M  V30 1317 C 131.124 -3.61495 -0.018364 0
M  V30 1318 O 130.845 -4.19942 1.24822 0
M  V30 1319 C 132.346 -4.39947 -0.544237 0
M  V30 1320 H 129.566 -0.667096 0.0722739 0
M  V30 1321 H 132.11 -1.8623 0.84491 0
M  V30 1322 H 130.265 -3.81135 -0.693865 0
M  V30 1323 H 130.679 -5.13204 1.0827 0
M  V30 1324 H 132.153 -5.48838 -0.589953 0
M  V30 1325 H 132.63 -4.10255 -1.56805 0
M  V30 1326 H 133.236 -4.25188 0.0974703 0
M  V30 1327 N 131.551 -0.354651 -1.53558 0
M  V30 1328 C 132.498 0.496968 -2.25386 0
M  V30 1329 C 133.468 1.0865 -1.25636 0
M  V30 1330 O 134.653 1.12104 -1.54394 0
M  V30 1331 C 131.793 1.63637 -3.03837 0
M  V30 1332 C 130.906 1.07307 -4.18461 0
M  V30 1333 C 130.041 2.18068 -4.84376 0
M  V30 1334 C 129.08 1.59147 -5.91049 0
M  V30 1335 N 128.217 2.63695 -6.50699 0
M  V30 1336 H 133.057 -0.122075 -2.9775 0
M  V30 1337 H 130.594 -0.0720154 -1.46924 0
M  V30 1338 H 132.552 2.30734 -3.47589 0
M  V30 1339 H 131.182 2.22623 -2.33749 0
M  V30 1340 H 130.234 0.292708 -3.79272 0
M  V30 1341 H 131.546 0.602193 -4.95152 0
M  V30 1342 H 130.7 2.93007 -5.31255 0
M  V30 1343 H 129.439 2.68504 -4.07133 0
M  V30 1344 H 128.444 0.827175 -5.43542 0
M  V30 1345 H 129.669 1.09549 -6.70206 0
M  V30 1346 H 127.615 3.13365 -5.76315 0
M  V30 1347 H 127.532 2.21263 -7.22896 0
M  V30 1348 H 128.8 3.3837 -7.02229 0
M  V30 1349 N 133.029 1.57378 -0.0835403 0
M  V30 1350 C 133.959 2.1641 0.87686 0
M  V30 1351 C 134.94 1.09429 1.30228 0
M  V30 1352 O 136.125 1.37516 1.37124 0
M  V30 1353 C 133.255 2.73517 2.14022 0
M  V30 1354 C 132.209 3.85769 1.85381 0
M  V30 1355 C 131.535 4.29529 3.18448 0
M  V30 1356 C 132.835 5.09486 1.14984 0
M  V30 1357 H 134.529 2.96914 0.385059 0
M  V30 1358 H 132.075 1.42823 0.18377 0
M  V30 1359 H 134.028 3.13463 2.81636 0
M  V30 1360 H 132.752 1.90252 2.65465 0
M  V30 1361 H 131.411 3.46345 1.20169 0
M  V30 1362 H 131.059 3.43169 3.67755 0
M  V30 1363 H 130.759 5.05204 3.00071 0
M  V30 1364 H 132.283 4.72099 3.8724 0
M  V30 1365 H 133.697 5.46674 1.72687 0
M  V30 1366 H 132.094 5.90515 1.06826 0
M  V30 1367 H 133.164 4.84724 0.130749 0
M  V30 1368 N 134.507 -0.190092 1.56449 0
M  V30 1369 C 135.454 -1.23557 1.94942 0
M  V30 1370 C 136.424 -1.44972 0.810696 0
M  V30 1371 O 137.609 -1.58023 1.06927 0
M  V30 1372 C 134.749 -2.57416 2.2985 0
M  V30 1373 C 133.862 -2.43537 3.5681 0
M  V30 1374 C 132.997 -3.70134 3.81017 0
M  V30 1375 C 132.036 -3.51109 5.01387 0
M  V30 1376 N 131.173 -4.6973 5.21822 0
M  V30 1377 H 136.013 -0.900304 2.84075 0
M  V30 1378 H 133.55 -0.43318 1.40577 0
M  V30 1379 H 135.508 -3.35409 2.48106 0
M  V30 1380 H 134.138 -2.88975 1.43852 0
M  V30 1381 H 133.19 -1.56816 3.46573 0
M  V30 1382 H 134.502 -2.25415 4.4496 0
M  V30 1383 H 133.656 -4.56566 3.9954 0
M  V30 1384 H 132.395 -3.91215 2.91207 0
M  V30 1385 H 131.4 -2.63063 4.82782 0
M  V30 1386 H 132.625 -3.31468 5.9271 0
M  V30 1387 H 130.571 -4.91065 4.34961 0
M  V30 1388 H 130.488 -4.54452 6.0416 0
M  V30 1389 H 131.756 -5.57499 5.44808 0
M  V30 1390 N 135.985 -1.50799 -0.457987 0
M  V30 1391 C 136.933 -1.71162 -1.575 0
M  V30 1392 C 137.927 -0.577592 -1.59249 0
M  V30 1393 O 139.133 -0.758443 -1.63241 0
M  V30 1394 H 135.508 -0.540468 -0.522875 0
M  V30 1395 H 137.479 -2.64837 -1.37492 0
M  V30 1396 C 136.228 -1.83496 -2.95338 0
M  V30 1397 H 135.551 -2.70153 -2.94716 0
M  V30 1398 H 136.991 -2.01765 -3.72917 0
M  V30 1399 C 135.45 -0.589694 -3.31699 0
M  V30 1400 O 135.98 0.265163 -4.00824 0
M  V30 1401 N 134.186 -0.439845 -2.87252 0
M  V30 1402 H 133.733 -1.13655 -2.31172 0
M  V30 1403 H 133.691 0.392159 -3.11945 0
M  V30 1404 N 137.463 0.71206 -1.40597 0
M  V30 1405 C 138.71 1.47197 -1.39065 0
M  V30 1406 C 139.038 1.94499 0.00583891 0
M  V30 1407 O 138.293 1.68752 0.99102 0
M  V30 1408 C 138.592 2.71039 -2.32965 0
M  V30 1409 C 138.258 2.42484 -3.80148 0
M  V30 1410 C 136.92 2.34406 -4.20247 0
M  V30 1411 C 139.272 2.18598 -4.73143 0
M  V30 1412 C 136.6 2.00516 -5.51371 0
M  V30 1413 C 138.952 1.8622 -6.0457 0
M  V30 1414 C 137.616 1.76626 -6.43708 0
M  V30 1415 H 136.886 0.538634 -0.508876 0
M  V30 1416 H 139.533 0.815325 -1.73276 0
M  V30 1417 H 137.838 3.41558 -1.91951 0
M  V30 1418 H 139.535 3.29138 -2.29061 0
M  V30 1419 H 136.125 2.49659 -3.4838 0
M  V30 1420 H 140.309 2.23793 -4.42979 0
M  V30 1421 H 135.565 1.91628 -5.80593 0
M  V30 1422 H 139.739 1.66752 -6.76141 0
M  V30 1423 H 137.366 1.50133 -7.45228 0
M  V30 1424 N 138.941 1.26152 0.944643 0
M  V30 1425 C 139.871 1.09902 2.06019 0
M  V30 1426 C 140.852 0.00519538 1.70099 0
M  V30 1427 O 142.037 0.176583 1.93396 0
M  V30 1428 C 139.167 0.727562 3.39594 0
M  V30 1429 C 138.121 1.77274 3.89561 0
M  V30 1430 C 137.447 1.25569 5.19747 0
M  V30 1431 C 138.747 3.17357 4.14827 0
M  V30 1432 H 140.441 2.03217 2.19871 0
M  V30 1433 H 137.987 0.978452 1.05652 0
M  V30 1434 H 139.94 0.600777 4.17095 0
M  V30 1435 H 138.664 -0.241287 3.25707 0
M  V30 1436 H 137.323 1.88814 3.14237 0
M  V30 1437 H 136.971 0.276783 5.02238 0
M  V30 1438 H 136.671 1.95433 5.54148 0
M  V30 1439 H 138.195 1.1415 5.99835 0
M  V30 1440 H 139.609 3.08914 4.82954 0
M  V30 1441 H 138.006 3.84781 4.60504 0
M  V30 1442 H 139.076 3.63673 3.20734 0
M  V30 1443 N 140.419 -1.14872 1.07899 0
M  V30 1444 C 141.835 -1.37776 0.805606 0
M  V30 1445 C 142.035 -1.92743 -0.587555 0
M  V30 1446 O 141.091 -2.13678 -1.34528 0
M  V30 1447 C 142.404 -2.34361 1.88402 0
M  V30 1448 C 143.952 -2.48012 1.90942 0
M  V30 1449 C 144.427 -3.47893 2.97883 0
M  V30 1450 N 145.918 -3.55433 2.97021 0
M  V30 1451 C 146.653 -4.32553 3.76412 0
M  V30 1452 N 146.149 -5.12959 4.65666 0
M  V30 1453 N 147.942 -4.27697 3.64735 0
M  V30 1454 H 140.093 -0.775365 1.97742 0
M  V30 1455 H 142.356 -0.403521 0.857831 0
M  V30 1456 H 142.062 -2.01098 2.88535 0
M  V30 1457 H 141.936 -3.34206 1.74889 0
M  V30 1458 H 144.323 -2.8057 0.914579 0
M  V30 1459 H 144.404 -1.48147 2.08534 0
M  V30 1460 H 144.048 -3.16069 3.97571 0
M  V30 1461 H 143.978 -4.47527 2.77538 0
M  V30 1462 H 146.469 -2.98048 2.32326 0
M  V30 1463 H 146.782 -5.69065 5.22862 0
M  V30 1464 H 145.127 -5.12245 4.69712 0
M  V30 1465 H 148.318 -3.63949 2.94378 0
M  V30 1466 H 148.491 -4.8755 4.26848 0
M  V30 1467 N 141.898 -0.863906 -1.31812 0
M  V30 1468 C 142.808 -0.318461 -2.32428 0
M  V30 1469 C 143.824 0.568496 -1.64451 0
M  V30 1470 O 145 0.46666 -1.95919 0
M  V30 1471 C 142.065 0.476355 -3.43412 0
M  V30 1472 C 141.126 -0.43784 -4.27061 0
M  V30 1473 C 140.359 0.319138 -5.32745 0
M  V30 1474 O 140.582 1.54799 -5.48993 0
M  V30 1475 O 139.516 -0.319861 -6.01049 0
M  V30 1476 H 143.342 -1.15229 -2.80991 0
M  V30 1477 H 140.927 -0.627103 -1.35602 0
M  V30 1478 H 142.809 0.927156 -4.11074 0
M  V30 1479 H 141.484 1.28683 -2.97022 0
M  V30 1480 H 140.391 -0.937013 -3.62175 0
M  V30 1481 H 141.724 -1.21375 -4.77 0
M  V30 1482 N 143.376 1.44774 -0.622745 0
M  V30 1483 C 144.622 2.0242 -0.124083 0
M  V30 1484 C 144.955 1.4881 1.24777 0
M  V30 1485 O 144.23 0.668799 1.8264 0
M  V30 1486 C 144.513 3.59957 -0.101619 0
M  V30 1487 C 144.366 4.23867 -1.50521 0
M  V30 1488 C 145.685 4.36284 0.578272 0
M  V30 1489 H 142.804 0.735528 -0.0465645 0
M  V30 1490 H 145.446 1.72447 -0.797617 0
M  V30 1491 H 143.596 3.85623 0.471934 0
M  V30 1492 H 145.268 4.09336 -2.12701 0
M  V30 1493 H 143.511 3.81684 -2.06154 0
M  V30 1494 H 144.182 5.32843 -1.4416 0
M  V30 1495 H 146.658 4.16001 0.0906057 0
M  V30 1496 H 145.534 5.46004 0.563149 0
M  V30 1497 H 145.795 4.10271 1.64713 0
M  V30 1498 N 144.854 0.36279 1.53368 0
M  V30 1499 C 146.079 -0.231226 2.06107 0
M  V30 1500 C 146.504 -1.419 1.23474 0
M  V30 1501 O 145.862 -1.79524 0.253128 0
M  V30 1502 C 145.91 -0.605523 3.5548 0
M  V30 1503 O 145.014 -1.70312 3.7559 0
M  V30 1504 H 144.355 -0.034327 0.663112 0
M  V30 1505 H 146.885 0.522584 1.97814 0
M  V30 1506 H 146.895 -0.877314 3.98456 0
M  V30 1507 H 145.57 0.263004 4.15068 0
M  V30 1508 H 144.147 -1.4271 3.44512 0
M  V30 1509 N 146.332 -1.57332 0.0918853 0
M  V30 1510 C 147.581 -1.93412 -0.572249 0
M  V30 1511 C 147.894 -0.975515 -1.69538 0
M  V30 1512 O 149.1 -1.22991 -2.42045 0
M  V30 1513 C 147.556 -3.43648 -1.0693 0
M  V30 1514 C 147.164 -4.47994 0.0239049 0
M  V30 1515 C 148.908 -3.88695 -1.70635 0
M  V30 1516 C 146.815 -5.89381 -0.488319 0
M  V30 1517 H 145.745 -0.721939 -0.217532 0
M  V30 1518 H 148.396 -1.82735 0.167369 0
M  V30 1519 H 146.778 -3.49466 -1.8625 0
M  V30 1520 H 147.952 -4.53815 0.799277 0
M  V30 1521 H 146.267 -4.12536 0.565946 0
M  V30 1522 H 148.864 -4.91725 -2.10025 0
M  V30 1523 H 149.207 -3.27166 -2.57426 0
M  V30 1524 H 149.74 -3.85564 -0.979023 0
M  V30 1525 H 146.479 -6.54602 0.342906 0
M  V30 1526 H 145.999 -5.87037 -1.23077 0
M  V30 1527 H 147.678 -6.39863 -0.958317 0
M  V30 1528 N 147.81 0.181792 -1.56548 0
M  V30 1529 C 149.038 0.915947 -1.85521 0
M  V30 1530 C 149.453 1.76282 -0.676016 0
M  V30 1531 O 148.81 1.79012 0.355077 0
M  V30 1532 C 148.861 1.80126 -3.13427 0
M  V30 1533 O 148.582 0.988562 -4.26801 0
M  V30 1534 C 150.083 2.64597 -3.55673 0
M  V30 1535 H 147.303 0.26661 -0.61576 0
M  V30 1536 H 149.847 0.185039 -2.03661 0
M  V30 1537 H 148.002 2.48563 -2.97145 0
M  V30 1538 H 148.416 1.59308 -4.99721 0
M  V30 1539 H 149.89 3.2235 -4.48101 0
M  V30 1540 H 150.367 3.38958 -2.79292 0
M  V30 1541 H 150.973 2.0151 -3.74532 0
M  V30 1542 N 149.288 1.51039 0.449983 0
M  V30 1543 C 150.236 1.71995 1.5659 0
M  V30 1544 C 151.23 0.586029 1.5894 0
M  V30 1545 O 152.436 0.76709 1.62837 0
M  V30 1546 H 148.811 0.543233 0.520001 0
M  V30 1547 H 150.782 2.65562 1.36085 0
M  V30 1548 C 149.531 1.8506 2.9436 0
M  V30 1549 H 148.854 2.71712 2.93279 0
M  V30 1550 H 150.294 2.0374 3.71842 0
M  V30 1551 C 148.753 0.607277 3.31382 0
M  V30 1552 O 149.283 -0.243903 4.00959 0
M  V30 1553 N 147.489 0.455073 2.87015 0
M  V30 1554 H 147.036 1.14879 2.30566 0
M  V30 1555 H 146.994 -0.375611 3.12148 0
M  V30 1556 N 150.766 -0.704594 1.40972 0
M  V30 1557 C 151.991 -1.49858 1.43378 0
M  V30 1558 C 152.416 -1.88061 0.038184 0
M  V30 1559 O 151.774 -1.5402 -0.956425 0
M  V30 1560 C 151.822 -2.74333 2.34038 0
M  V30 1561 O 150.926 -3.7147 1.7912 0
M  V30 1562 H 150.267 -0.45139 0.486974 0
M  V30 1563 H 152.797 -0.866832 1.8533 0
M  V30 1564 H 152.807 -3.22741 2.49604 0
M  V30 1565 H 151.482 -2.45863 3.35446 0
M  V30 1566 H 150.059 -3.30363 1.72958 0
M  V30 1567 N 152.244 -1.26651 -0.937939 0
M  V30 1568 C 153.174 -1.10993 -2.05433 0
M  V30 1569 C 154.155 -0.0142161 -1.70094 0
M  V30 1570 O 155.34 -0.186837 -1.93299 0
M  V30 1571 C 152.47 -0.745561 -3.39203 0
M  V30 1572 C 151.424 -1.79337 -3.88616 0
M  V30 1573 C 150.75 -1.28324 -5.19073 0
M  V30 1574 C 152.05 -3.19553 -4.13138 0
M  V30 1575 H 153.744 -2.0438 -2.1879 0
M  V30 1576 H 151.29 -0.984041 -1.05131 0
M  V30 1577 H 153.243 -0.622888 -4.16771 0
M  V30 1578 H 151.967 0.22401 -3.25831 0
M  V30 1579 H 150.626 -1.90477 -3.13231 0
M  V30 1580 H 150.274 -0.303414 -5.02084 0
M  V30 1581 H 149.974 -1.98369 -5.53103 0
M  V30 1582 H 151.498 -1.1733 -5.99221 0
M  V30 1583 H 152.912 -3.11471 -4.81309 0
M  V30 1584 H 151.309 -3.87218 -4.58457 0
M  V30 1585 H 152.379 -3.65368 -3.18801 0
M  V30 1586 N 153.722 1.14298 -1.08507 0
M  V30 1587 C 154.947 1.8976 -0.837001 0
M  V30 1588 C 155.372 1.78097 0.605228 0
M  V30 1589 O 154.73 1.12188 1.4242 0
M  V30 1590 C 154.778 3.37685 -1.26495 0
M  V30 1591 O 153.882 4.10281 -0.417514 0
M  V30 1592 H 153.223 0.590365 -0.303917 0
M  V30 1593 H 155.753 1.44672 -1.44676 0
M  V30 1594 H 155.763 3.88501 -1.24625 0
M  V30 1595 H 154.438 3.45492 -2.31534 0
M  V30 1596 H 153.015 3.69536 -0.499722 0
M  V30 1597 N 155.201 0.870884 1.31352 0
M  V30 1598 C 156.426 0.495957 2.01383 0
M  V30 1599 C 156.851 -0.904324 1.64935 0
M  V30 1600 O 156.209 -1.59687 0.858466 0
M  V30 1601 C 156.257 0.661433 3.54482 0
M  V30 1602 O 155.361 -0.298851 4.11316 0
M  V30 1603 H 154.702 0.197158 0.634054 0
M  V30 1604 H 157.232 1.17455 1.67527 0
M  V30 1605 H 157.242 0.555072 4.04207 0
M  V30 1606 H 155.917 1.68246 3.8035 0
M  V30 1607 H 154.494 -0.147368 3.72609 0
M  V30 1608 N 156.679 -1.44442 0.630414 0
M  V30 1609 C 157.904 -2.06927 0.139944 0
M  V30 1610 C 158.329 -1.46795 -1.17613 0
M  V30 1611 O 157.687 -0.569144 -1.72135 0
M  V30 1612 C 157.735 -3.6058 0.0379581 0
M  V30 1613 O 156.839 -3.99937 -1.0062 0
M  V30 1614 H 156.18 -0.658608 0.0844483 0
M  V30 1615 H 158.71 -1.85327 0.866891 0
M  V30 1616 H 158.72 -4.07714 -0.152856 0
M  V30 1617 H 157.395 -4.03728 0.998809 0
M  V30 1618 H 155.972 -3.64436 -0.79001 0
M  V30 1619 N 158.157 -0.370918 -1.53173 0
M  V30 1620 C 159.568 0.107139 -1.86392 0
M  V30 1621 C 159.919 1.47714 -1.29132 0
M  V30 1622 O 159.044 2.07464 -0.615439 0
M  V30 1623 C 159.639 0.201187 -3.38202 0
M  V30 1624 C 158.198 0.623507 -3.712 0
M  V30 1625 C 157.345 -0.225978 -2.76378 0
M  V30 1626 H 160.296 -0.58951 -1.47345 0
M  V30 1627 H 160.317 1.02377 -3.66468 0
M  V30 1628 H 159.829 -0.796058 -3.79848 0
M  V30 1629 H 157.93 1.62879 -3.35114 0
M  V30 1630 H 158.043 0.394414 -4.77474 0
M  V30 1631 H 156.407 0.305962 -2.52856 0
M  V30 1632 H 157.19 -1.22086 -3.20858 0
M  V30 1633 N 159.635 1.57281 -0.100228 0
M  V30 1634 C 160.882 1.94537 0.562268 0
M  V30 1635 C 161.21 0.982315 1.67871 0
M  V30 1636 O 160.465 0.00280936 1.957 0
M  V30 1637 C 160.764 3.38305 1.15259 0
M  V30 1638 C 160.43 4.50618 0.159409 0
M  V30 1639 C 159.092 4.81066 -0.113741 0
M  V30 1640 C 161.444 5.18615 -0.518461 0
M  V30 1641 C 158.772 5.76835 -1.07137 0
M  V30 1642 C 161.124 6.15412 -1.46459 0
M  V30 1643 C 159.788 6.44262 -1.74592 0
M  V30 1644 H 159.058 0.711863 0.205748 0
M  V30 1645 H 161.705 1.90679 -0.17715 0
M  V30 1646 H 160.01 3.38766 1.96836 0
M  V30 1647 H 161.707 3.64435 1.67297 0
M  V30 1648 H 158.297 4.2689 0.382491 0
M  V30 1649 H 162.481 4.95264 -0.320581 0
M  V30 1650 H 157.737 5.975 -1.29628 0
M  V30 1651 H 161.911 6.67194 -1.99564 0
M  V30 1652 H 159.538 7.1828 -2.48953 0
M  V30 1653 N 161.113 -0.173488 1.56642 0
M  V30 1654 C 162.362 -0.888758 1.81063 0
M  V30 1655 C 162.675 -1.83506 0.67712 0
M  V30 1656 O 163.881 -2.59254 0.806206 0
M  V30 1657 C 162.337 -1.63091 3.20826 0
M  V30 1658 C 161.945 -0.728357 4.4204 0
M  V30 1659 C 163.689 -2.33454 3.54541 0
M  V30 1660 C 161.596 -1.47062 5.72823 0
M  V30 1661 H 160.526 -0.335618 0.675186 0
M  V30 1662 H 163.177 -0.141712 1.82952 0
M  V30 1663 H 161.559 -2.42263 3.13248 0
M  V30 1664 H 162.733 0.0262449 4.60793 0
M  V30 1665 H 161.048 -0.134492 4.16183 0
M  V30 1666 H 163.645 -2.89578 4.49498 0
M  V30 1667 H 163.988 -3.08687 2.79317 0
M  V30 1668 H 164.521 -1.61227 3.63663 0
M  V30 1669 H 161.26 -0.760658 6.51072 0
M  V30 1670 H 160.78 -2.1986 5.58052 0
M  V30 1671 H 162.459 -2.01868 6.14702 0
M  V30 1672 N 162.591 -1.51276 -0.441967 0
M  V30 1673 C 163.84 -1.6295 -1.18871 0
M  V30 1674 C 164.153 -0.349312 -1.92456 0
M  V30 1675 O 165.359 -0.345355 -2.69295 0
M  V30 1676 C 163.815 -2.87759 -2.16155 0
M  V30 1677 C 163.423 -4.22764 -1.48239 0
M  V30 1678 C 165.167 -3.08788 -2.91291 0
M  V30 1679 C 163.074 -5.38728 -2.4398 0
M  V30 1680 H 162.004 -0.606913 -0.447406 0
M  V30 1681 H 164.655 -1.77739 -0.456205 0
M  V30 1682 H 163.037 -2.66593 -2.92821 0
M  V30 1683 H 164.211 -4.54293 -0.771635 0
M  V30 1684 H 162.526 -4.07575 -0.852741 0
M  V30 1685 H 165.123 -3.92599 -3.63002 0
M  V30 1686 H 165.466 -2.21679 -3.5237 0
M  V30 1687 H 165.999 -3.30272 -2.21733 0
M  V30 1688 H 162.738 -6.28082 -1.87598 0
M  V30 1689 H 162.258 -5.1158 -3.13123 0
M  V30 1690 H 163.937 -5.70489 -3.05207 0
M  V30 1691 N 164.069 0.697108 -1.41344 0
M  V30 1692 C 165.016 1.81106 -1.43071 0
M  V30 1693 C 165.986 1.63632 -0.285275 0
M  V30 1694 O 167.171 1.84504 -0.486091 0
M  V30 1695 C 164.311 3.18975 -1.31715 0
M  V30 1696 C 163.424 3.47892 -2.56115 0
M  V30 1697 C 162.559 4.75367 -2.37064 0
M  V30 1698 C 161.598 4.97247 -3.56948 0
M  V30 1699 N 160.735 6.15947 -3.36977 0
M  V30 1700 H 165.575 1.78965 -2.38276 0
M  V30 1701 H 163.112 0.873975 -1.18322 0
M  V30 1702 H 165.07 3.98615 -1.23133 0
M  V30 1703 H 163.7 3.20297 -0.401183 0
M  V30 1704 H 162.752 2.62669 -2.75153 0
M  V30 1705 H 164.064 3.59962 -3.45295 0
M  V30 1706 H 163.218 5.63059 -2.25941 0
M  V30 1707 H 161.957 4.65541 -1.45338 0
M  V30 1708 H 160.962 4.08004 -3.68527 0
M  V30 1709 H 162.187 5.08934 -4.49626 0
M  V30 1710 H 160.133 6.07336 -2.47949 0
M  V30 1711 H 160.05 6.28777 -4.19732 0
M  V30 1712 H 161.318 7.06377 -3.29623 0
M  V30 1713 N 165.547 1.27147 0.931209 0
M  V30 1714 C 166.793 1.13446 1.68101 0
M  V30 1715 C 167.126 -0.319628 1.91552 0
M  V30 1716 O 166.401 -1.23407 1.50336 0
M  V30 1717 C 166.684 1.91482 3.0497 0
M  V30 1718 C 166.537 3.44855 2.88782 0
M  V30 1719 C 167.856 1.71651 4.05246 0
M  V30 1720 H 164.975 0.413498 0.610072 0
M  V30 1721 H 167.617 1.56261 1.08086 0
M  V30 1722 H 165.767 1.55095 3.56199 0
M  V30 1723 H 167.439 3.9105 2.44698 0
M  V30 1724 H 165.682 3.71373 2.24198 0
M  V30 1725 H 166.353 3.94694 3.85902 0
M  V30 1726 H 168.829 2.0337 3.63015 0
M  V30 1727 H 167.705 2.28651 4.99009 0
M  V30 1728 H 167.966 0.663555 4.37092 0
M  V30 1729 N 167.025 -1.13721 1.09112 0
M  V30 1730 C 168.272 -1.84924 0.825192 0
M  V30 1731 C 168.6 -1.83347 -0.649151 0
M  V30 1732 O 167.855 -1.26449 -1.49362 0
M  V30 1733 C 168.154 -3.32861 1.30146 0
M  V30 1734 C 167.82 -3.54621 2.78486 0
M  V30 1735 C 166.482 -3.60268 3.18999 0
M  V30 1736 C 168.834 -3.62855 3.74146 0
M  V30 1737 C 166.162 -3.71679 4.53951 0
M  V30 1738 C 168.514 -3.75793 5.08883 0
M  V30 1739 C 167.178 -3.79692 5.4899 0
M  V30 1740 H 166.448 -0.676684 0.301959 0
M  V30 1741 H 169.095 -1.3428 1.36533 0
M  V30 1742 H 167.4 -3.85835 0.681064 0
M  V30 1743 H 169.097 -3.86395 1.07236 0
M  V30 1744 H 165.687 -3.50879 2.46134 0
M  V30 1745 H 169.871 -3.57775 3.43963 0
M  V30 1746 H 165.127 -3.72963 4.84467 0
M  V30 1747 H 169.301 -3.81107 5.82864 0
M  V30 1748 H 166.928 -3.88287 6.53558 0
M  V30 1749 N 168.503 -0.877838 -1.30888 0
M  V30 1750 C 169.78 -0.413052 -1.91189 0
M  V30 1751 C 170.16 1.1056 -1.79832 0
M  V30 1752 O 169.508 1.93771 -1.21099 0
M  V30 1753 C 169.718 -0.903191 -3.3711 0
M  V30 1754 C 171.066 -0.93395 -4.14201 0
M  V30 1755 O 172.09 -0.849373 -3.45925 0
M  V30 1756 O 170.949 -1.05772 -5.36167 0
M  V30 1757 H 168.043 -0.125035 -0.817493 0
M  V30 1758 H 170.589 -0.966269 -1.39504 0
M  V30 1759 H 169.361 -1.94692 -3.39427 0
M  V30 1760 H 168.984 -0.328732 -3.96239 0
M  V30 1761 N 169.982 1.44106 -0.638065 0
M  V30 1762 C 171.228 2.02277 -0.145546 0
M  V30 1763 C 171.561 1.50125 1.23191 0
M  V30 1764 O 170.836 0.688133 1.8192 0
M  V30 1765 C 171.119 3.59829 -0.139791 0
M  V30 1766 C 170.972 4.22247 -1.55008 0
M  V30 1767 C 172.291 4.36873 0.531966 0
M  V30 1768 H 169.41 0.734992 -0.0543632 0
M  V30 1769 H 172.052 1.71592 -0.815863 0
M  V30 1770 H 170.202 3.86102 0.431007 0
M  V30 1771 H 171.874 4.07057 -2.1703 0
M  V30 1772 H 170.117 3.79476 -2.10191 0
M  V30 1773 H 170.788 5.31284 -1.49804 0
M  V30 1774 H 173.264 4.16074 0.0464781 0
M  V30 1775 H 172.14 5.4657 0.505206 0
M  V30 1776 H 172.401 4.11995 1.60352 0
M  V30 1777 N 171.46 0.379036 1.52974 0
M  V30 1778 C 172.706 -0.206727 2.01744 0
M  V30 1779 C 173.039 -1.47314 1.26539 0
M  V30 1780 O 172.314 -1.91084 0.362903 0
M  V30 1781 C 172.597 -0.485066 3.56818 0
M  V30 1782 C 172.45 0.795919 4.42702 0
M  V30 1783 C 173.769 -1.28003 4.21074 0
M  V30 1784 H 170.888 -0.0736607 0.73331 0
M  V30 1785 H 173.53 0.506581 1.83122 0
M  V30 1786 H 171.68 -1.09272 3.72816 0
M  V30 1787 H 173.352 1.43307 4.38476 0
M  V30 1788 H 171.595 1.41344 4.10127 0
M  V30 1789 H 172.266 0.555947 5.49193 0
M  V30 1790 H 174.742 -0.765867 4.08991 0
M  V30 1791 H 173.618 -1.44352 5.29579 0
M  V30 1792 H 173.879 -2.29236 3.78026 0
M  V30 1793 N 172.938 -1.57226 0.108567 0
M  V30 1794 C 174.185 -1.94833 -0.551943 0
M  V30 1795 C 174.513 -0.991204 -1.67348 0
M  V30 1796 O 173.768 -0.0131878 -1.95696 0
M  V30 1797 C 174.067 -3.38911 -1.13463 0
M  V30 1798 C 173.733 -4.50696 -0.135509 0
M  V30 1799 C 172.395 -4.80998 0.139252 0
M  V30 1800 C 174.747 -5.18333 0.545957 0
M  V30 1801 C 172.075 -5.76259 1.10194 0
M  V30 1802 C 174.427 -6.14627 1.49721 0
M  V30 1803 C 173.091 -6.43327 1.78006 0
M  V30 1804 H 172.361 -0.712944 -0.20197 0
M  V30 1805 H 175.008 -1.90582 0.18726 0
M  V30 1806 H 173.313 -3.39805 -1.95037 0
M  V30 1807 H 175.01 -3.65317 -1.65362 0
M  V30 1808 H 171.6 -4.27087 -0.359846 0
M  V30 1809 H 175.784 -4.95087 0.346842 0
M  V30 1810 H 171.04 -5.96804 1.32795 0
M  V30 1811 H 175.214 -6.66126 2.03099 0
M  V30 1812 H 172.841 -7.1695 2.52759 0
M  V30 1813 N 174.416 0.165178 -1.56732 0
M  V30 1814 C 175.326 1.22423 -2.00125 0
M  V30 1815 C 176.342 1.48084 -0.913619 0
M  V30 1816 O 177.518 1.60112 -1.22172 0
M  V30 1817 C 174.583 2.54197 -2.35764 0
M  V30 1818 C 173.644 2.36343 -3.58386 0
M  V30 1819 C 172.877 3.61834 -3.92316 0
M  V30 1820 O 173.1 4.67267 -3.27135 0
M  V30 1821 O 172.034 3.55579 -4.85641 0
M  V30 1822 H 175.86 0.885886 -2.90492 0
M  V30 1823 H 173.445 0.372518 -1.44681 0
M  V30 1824 H 175.327 3.3192 -2.59629 0
M  V30 1825 H 174.002 2.87598 -1.48557 0
M  V30 1826 H 172.909 1.56632 -3.39731 0
M  V30 1827 H 174.242 2.07865 -4.46154 0
M  V30 1828 N 175.894 1.51508 0.433938 0
M  V30 1829 C 177.122 1.68157 1.20543 0
M  V30 1830 C 177.537 0.380362 1.84929 0
M  V30 1831 O 176.894 -0.641446 1.70856 0
M  V30 1832 C 176.945 2.79965 2.28696 0
M  V30 1833 O 176.666 4.05045 1.66943 0
M  V30 1834 C 178.167 3.07912 3.18912 0
M  V30 1835 H 175.387 0.56421 0.363191 0
M  V30 1836 H 177.931 1.97941 0.513754 0
M  V30 1837 H 176.086 2.5277 2.93574 0
M  V30 1838 H 176.5 4.67165 2.38448 0
M  V30 1839 H 177.974 3.89719 3.90926 0
M  V30 1840 H 178.451 2.20456 3.79863 0
M  V30 1841 H 179.057 3.36779 2.59731 0
M  V30 1842 N 177.372 -0.689602 1.41712 0
M  V30 1843 C 178.282 -1.83314 1.46401 0
M  V30 1844 C 179.298 -1.7036 0.35405 0
M  V30 1845 O 180.474 -1.92171 0.602692 0
M  V30 1846 C 177.539 -3.19344 1.34982 0
M  V30 1847 C 176.6 -3.44363 2.56344 0
M  V30 1848 C 175.833 -4.73904 2.45461 0
M  V30 1849 O 176.056 -5.508 1.48241 0
M  V30 1850 O 174.99 -4.99839 3.35328 0
M  V30 1851 H 178.816 -1.82314 2.42889 0
M  V30 1852 H 176.401 -0.843438 1.23315 0
M  V30 1853 H 178.283 -4.00547 1.3092 0
M  V30 1854 H 176.958 -3.21014 0.41612 0
M  V30 1855 H 175.865 -2.63067 2.65982 0
M  V30 1856 H 177.198 -3.47512 3.48563 0
M  V30 1857 N 178.85 -1.27639 -0.924453 0
M  V30 1858 C 180.127 -1.04887 -1.651 0
M  V30 1859 C 180.507 0.415327 -2.06974 0
M  V30 1860 O 179.855 1.39923 -1.80648 0
M  V30 1861 C 180.065 -2.01348 -2.85061 0
M  V30 1862 C 181.413 -2.30899 -3.56329 0
M  V30 1863 O 182.437 -1.99348 -2.95193 0
M  V30 1864 O 181.296 -2.84699 -4.66485 0
M  V30 1865 H 178.39 -0.400083 -0.723784 0
M  V30 1866 H 180.936 -1.38916 -0.974703 0
M  V30 1867 H 179.708 -3.0008 -2.51133 0
M  V30 1868 H 179.331 -1.679 -3.6041 0
M  V30 1869 N 180.328 1.1314 -1.09713 0
M  V30 1870 C 181.568 1.8613 -0.844683 0
M  V30 1871 C 181.932 1.81765 0.618491 0
M  V30 1872 O 183.133 2.50024 0.98699 0
M  V30 1873 C 181.404 3.30151 -1.36877 0
M  V30 1874 S 182.963 4.206 -1.25064 0
M  V30 1875 H 179.781 0.642056 -0.305427 0
M  V30 1876 H 182.383 1.36343 -1.4011 0
M  V30 1877 H 181.087 3.30883 -2.42786 0
M  V30 1878 H 180.618 3.85 -0.808614 0
M  V30 1879 H 182.633 4.95783 -0.203486 0
M  V30 1880 N 181.806 0.884767 1.30421 0
M  V30 1881 C 183.036 0.517293 2.00019 0
M  V30 1882 C 183.444 -0.898632 1.66497 0
M  V30 1883 O 182.787 -1.60245 0.898181 0
M  V30 1884 C 182.849 0.612025 3.54252 0
M  V30 1885 C 182.513 1.99222 4.1129 0
M  V30 1886 C 183.51 2.9616 4.273 0
M  V30 1887 C 181.195 2.29755 4.46674 0
M  V30 1888 C 183.189 4.21764 4.77906 0
M  V30 1889 C 180.876 3.55606 4.96979 0
M  V30 1890 C 181.874 4.51425 5.12547 0
M  V30 1891 O 181.562 5.75043 5.61766 0
M  V30 1892 H 181.294 0.198529 0.64619 0
M  V30 1893 H 183.848 1.1919 1.67281 0
M  V30 1894 H 182.078 -0.119561 3.86515 0
M  V30 1895 H 183.767 0.255859 4.05093 0
M  V30 1896 H 184.533 2.73882 4.00267 0
M  V30 1897 H 180.412 1.55942 4.33824 0
M  V30 1898 H 183.956 4.96561 4.89972 0
M  V30 1899 H 179.853 3.7772 5.23448 0
M  V30 1900 H 180.621 5.77422 5.80109 0
M  V30 1901 N 183.284 -1.43765 0.645699 0
M  V30 1902 C 184.53 -2.02197 0.156271 0
M  V30 1903 C 184.863 -1.50776 -1.22393 0
M  V30 1904 O 184.138 -0.697771 -1.81553 0
M  V30 1905 C 184.421 -3.59749 0.158872 0
M  V30 1906 C 184.274 -4.21419 1.57245 0
M  V30 1907 C 185.593 -4.37149 -0.50879 0
M  V30 1908 H 182.712 -0.734694 0.0582602 0
M  V30 1909 H 185.354 -1.71157 0.824951 0
M  V30 1910 H 183.504 -3.86325 -0.410525 0
M  V30 1911 H 185.176 -4.059 2.19186 0
M  V30 1912 H 183.419 -3.78356 2.122 0
M  V30 1913 H 184.09 -5.30482 1.52619 0
M  V30 1914 H 186.566 -4.16093 -0.024412 0
M  V30 1915 H 185.442 -5.4683 -0.476213 0
M  V30 1916 H 185.703 -4.12839 -1.58165 0
M  V30 1917 N 184.763 -0.387143 -1.52771 0
M  V30 1918 C 186.01 0.195735 -2.01552 0
M  V30 1919 C 186.338 1.46995 -1.27369 0
M  V30 1920 O 185.593 1.92325 -0.361879 0
M  V30 1921 C 185.892 0.512209 -3.53711 0
M  V30 1922 C 185.558 -0.670202 -4.45891 0
M  V30 1923 C 184.22 -0.994586 -4.70809 0
M  V30 1924 C 186.572 -1.46134 -5.00294 0
M  V30 1925 C 183.9 -2.11169 -5.4738 0
M  V30 1926 C 186.252 -2.56903 -5.78086 0
M  V30 1927 C 184.916 -2.89852 -6.01284 0
M  V30 1928 H 184.186 0.0716246 -0.73753 0
M  V30 1929 H 186.833 -0.524046 -1.8419 0
M  V30 1930 H 185.138 1.31329 -3.69134 0
M  V30 1931 H 186.835 0.975804 -3.88946 0
M  V30 1932 H 183.425 -0.407366 -4.2666 0
M  V30 1933 H 187.609 -1.22397 -4.80971 0
M  V30 1934 H 182.865 -2.3707 -5.63567 0
M  V30 1935 H 187.039 -3.18608 -6.19243 0
M  V30 1936 H 184.666 -3.76533 -6.60399 0
M  V30 1937 N 186.241 1.57166 -0.116904 0
M  V30 1938 C 187.204 2.14039 0.819742 0
M  V30 1939 C 188.204 1.07477 1.19605 0
M  V30 1940 O 189.394 1.33263 1.1219 0
M  V30 1941 C 186.526 2.67891 2.10826 0
M  V30 1942 H 187.719 2.98128 0.325511 0
M  V30 1943 H 185.272 1.55739 0.132312 0
M  V30 1944 H 186.007 1.87384 2.64685 0
M  V30 1945 H 185.792 3.45823 1.84793 0
M  V30 1946 H 187.282 3.11809 2.77785 0
M  V30 1947 N 187.719 -0.156864 1.56817 0
M  V30 1948 C 188.651 -1.21883 1.94106 0
M  V30 1949 C 189.664 -1.3971 0.835754 0
M  V30 1950 O 190.853 -1.39457 1.11418 0
M  V30 1951 C 187.953 -2.58527 2.19127 0
M  V30 1952 C 187.126 -2.61809 3.50393 0
M  V30 1953 C 186.185 -3.7992 3.64071 0
M  V30 1954 O 185.211 -3.65249 4.36557 0
M  V30 1955 N 186.413 -4.96973 2.99997 0
M  V30 1956 H 189.178 -0.901974 2.85805 0
M  V30 1957 H 186.739 -0.346513 1.58148 0
M  V30 1958 H 188.731 -3.36034 2.25529 0
M  V30 1959 H 187.301 -2.82545 1.33742 0
M  V30 1960 H 186.521 -1.7029 3.5552 0
M  V30 1961 H 187.809 -2.61024 4.36742 0
M  V30 1962 H 187.207 -5.11794 2.41004 0
M  V30 1963 H 185.764 -5.7229 3.11974 0
M  V30 1964 N 189.197 -1.51736 -0.425897 0
M  V30 1965 C 190.107 -1.76738 -1.54275 0
M  V30 1966 C 191.123 -0.65211 -1.61318 0
M  V30 1967 O 192.299 -0.935654 -1.78346 0
M  V30 1968 C 189.364 -1.89755 -2.90162 0
M  V30 1969 C 188.425 -3.13633 -2.93143 0
M  V30 1970 C 187.658 -3.2602 -4.22548 0
M  V30 1971 O 187.881 -2.44067 -5.15546 0
M  V30 1972 O 186.815 -4.19071 -4.32046 0
M  V30 1973 H 190.641 -2.71502 -1.36089 0
M  V30 1974 H 188.226 -1.36376 -0.610069 0
M  V30 1975 H 190.108 -2.00236 -3.70788 0
M  V30 1976 H 188.783 -0.981785 -3.08452 0
M  V30 1977 H 187.69 -3.08622 -2.11431 0
M  V30 1978 H 189.023 -4.04936 -2.798 0
M  V30 1979 N 190.675 0.682077 -1.42076 0
M  V30 1980 C 191.905 1.46844 -1.45329 0
M  V30 1981 C 192.313 1.89102 -0.0609328 0
M  V30 1982 O 191.656 1.58238 0.933082 0
M  V30 1983 C 191.718 2.75375 -2.31104 0
M  V30 1984 C 191.382 2.55238 -3.79081 0
M  V30 1985 C 192.379 2.20309 -4.70914 0
M  V30 1986 C 190.064 2.70459 -4.2327 0
M  V30 1987 C 192.058 2.00859 -6.04925 0
M  V30 1988 C 189.745 2.50624 -5.57343 0
M  V30 1989 C 190.743 2.15876 -6.47986 0
M  V30 1990 O 190.431 1.96227 -7.79583 0
M  V30 1991 H 190.163 0.4586 -0.496651 0
M  V30 1992 H 192.717 0.846131 -1.87162 0
M  V30 1993 H 190.947 3.40061 -1.84107 0
M  V30 1994 H 192.636 3.37231 -2.25898 0
M  V30 1995 H 193.402 2.08153 -4.38061 0
M  V30 1996 H 189.281 2.96485 -3.53012 0
M  V30 1997 H 192.825 1.7366 -6.75639 0
M  V30 1998 H 188.722 2.62375 -5.89771 0
M  V30 1999 H 189.49 2.10883 -7.90867 0
M  V30 2000 N 192.153 1.28127 0.917671 0
M  V30 2001 C 193.116 1.11744 2.00115 0
M  V30 2002 C 194.116 0.0583052 1.60694 0
M  V30 2003 O 195.306 0.303755 1.71531 0
M  V30 2004 C 192.438 0.704862 3.33533 0
M  V30 2005 H 193.631 2.07966 2.16079 0
M  V30 2006 H 191.184 1.11058 1.09981 0
M  V30 2007 H 191.919 -0.258299 3.2327 0
M  V30 2008 H 191.704 1.4699 3.63505 0
M  V30 2009 H 193.194 0.612768 4.1308 0
M  V30 2010 N 193.631 -1.12557 1.10312 0
M  V30 2011 C 195.042 -1.65574 0.862678 0
M  V30 2012 C 195.393 -1.86566 -0.607256 0
M  V30 2013 O 194.518 -1.59121 -1.46662 0
M  V30 2014 C 195.113 -3.00776 1.55947 0
M  V30 2015 C 193.672 -3.50748 1.36576 0
M  V30 2016 C 192.819 -2.25797 1.60968 0
M  V30 2017 H 195.77 -0.963552 1.26101 0
M  V30 2018 H 195.791 -3.67185 0.997753 0
M  V30 2019 H 195.303 -2.85465 2.62928 0
M  V30 2020 H 193.404 -3.71245 0.317531 0
M  V30 2021 H 193.517 -4.30289 2.10686 0
M  V30 2022 H 191.881 -2.32841 1.03234 0
M  V30 2023 H 192.664 -2.13043 2.69198 0
M  V30 2024 N 195.109 -0.891671 -1.2995 0
M  V30 2025 C 196.072 -0.36828 -2.26222 0
M  V30 2026 C 197.072 0.493014 -1.53056 0
M  V30 2027 O 198.262 0.299213 -1.71611 0
M  V30 2028 C 195.394 0.47442 -3.37583 0
M  V30 2029 H 196.587 -1.21844 -2.74033 0
M  V30 2030 H 194.14 -0.669107 -1.41254 0
M  V30 2031 H 194.875 1.34489 -2.95099 0
M  V30 2032 H 194.66 -0.142615 -3.91841 0
M  V30 2033 H 196.15 0.83218 -4.09224 0
M  V30 2034 N 196.587 1.43421 -0.653314 0
M  V30 2035 C 197.835 2.01414 -0.166415 0
M  V30 2036 C 198.156 1.51803 1.22397 0
M  V30 2037 O 197.426 0.730693 1.81763 0
M  V30 2038 H 196.006 0.744703 -0.0585319 0
M  V30 2039 H 198.668 1.75629 -0.845003 0
M  V30 2040 H 197.764 3.11734 -0.151111 0
M  V30 2041 N 198.065 0.39524 1.52563 0
M  V30 2042 C 199.342 -0.242908 1.94086 0
M  V30 2043 C 199.722 -1.63841 1.33114 0
M  V30 2044 O 199.07 -2.22928 0.501529 0
M  V30 2045 C 199.28 -0.26327 3.48006 0
M  V30 2046 C 200.628 -0.489354 4.21771 0
M  V30 2047 O 201.652 -0.343226 3.54543 0
M  V30 2048 O 200.511 -0.776169 5.4096 0
M  V30 2049 H 197.605 -0.152536 0.812811 0
M  V30 2050 H 200.151 0.450178 1.6362 0
M  V30 2051 H 198.923 0.713985 3.84731 0
M  V30 2052 H 198.546 -1.00103 3.84792 0
M  V30 2053 N 199.544 -1.57102 0.125237 0
M  V30 2054 C 200.474 -2.18659 -0.819174 0
M  V30 2055 C 201.455 -1.12843 -1.27281 0
M  V30 2056 O 202.64 -1.41104 -1.33429 0
M  V30 2057 C 199.77 -2.79096 -2.06695 0
M  V30 2058 C 198.724 -3.90548 -1.75088 0
M  V30 2059 C 198.05 -4.37821 -3.06948 0
M  V30 2060 C 199.35 -5.12356 -1.01435 0
M  V30 2061 H 201.044 -2.9783 -0.306202 0
M  V30 2062 H 198.59 -1.4326 -0.145839 0
M  V30 2063 H 200.543 -3.2082 -2.73226 0
M  V30 2064 H 199.267 -1.97223 -2.60328 0
M  V30 2065 H 197.926 -3.49409 -1.10944 0
M  V30 2066 H 197.574 -3.52799 -3.58527 0
M  V30 2067 H 197.274 -5.12982 -2.86571 0
M  V30 2068 H 198.798 -4.822 -3.74587 0
M  V30 2069 H 200.212 -5.5106 -1.58132 0
M  V30 2070 H 198.609 -5.9314 -0.911319 0
M  V30 2071 H 199.679 -4.849 -0.00218681 0
M  V30 2072 N 201.022 0.148545 -1.56898 0
M  V30 2073 C 202.269 0.861418 -1.83264 0
M  V30 2074 C 202.597 1.81239 -0.705883 0
M  V30 2075 O 201.852 1.93305 0.305212 0
M  V30 2076 C 202.151 1.67064 -3.1595 0
M  V30 2077 C 201.817 0.866591 -4.42494 0
M  V30 2078 C 200.479 0.644762 -4.76861 0
M  V30 2079 C 202.831 0.30418 -5.20312 0
M  V30 2080 C 200.159 -0.15021 -5.86508 0
M  V30 2081 C 202.511 -0.477824 -6.30793 0
M  V30 2082 C 201.175 -0.710244 -6.63711 0
M  V30 2083 H 200.445 0.315215 -0.670612 0
M  V30 2084 H 203.092 0.125142 -1.91091 0
M  V30 2085 H 201.397 2.47698 -3.03567 0
M  V30 2086 H 203.094 2.22566 -3.33565 0
M  V30 2087 H 199.684 1.04955 -4.15551 0
M  V30 2088 H 203.868 0.462844 -4.94137 0
M  V30 2089 H 199.124 -0.339796 -6.10455 0
M  V30 2090 H 203.298 -0.92076 -6.90286 0
M  V30 2091 H 200.925 -1.3281 -7.48509 0
M  V30 2092 N 202.5 1.5196 0.417844 0
M  V30 2093 C 203.777 1.56146 1.17803 0
M  V30 2094 C 204.157 0.337275 2.08388 0
M  V30 2095 O 203.505 -0.676447 2.18258 0
M  V30 2096 C 203.715 2.88566 1.96293 0
M  V30 2097 C 205.063 3.41244 2.52662 0
M  V30 2098 O 206.087 2.90247 2.06483 0
M  V30 2099 O 204.946 4.30273 3.36938 0
M  V30 2100 H 202.04 0.628598 0.537395 0
M  V30 2101 H 204.586 1.64283 0.425331 0
M  V30 2102 H 203.358 3.69116 1.2988 0
M  V30 2103 H 202.981 2.83681 2.78587 0
M  V30 2104 N 203.978 -0.674533 1.42435 0
M  V30 2105 C 205.227 -1.43034 1.42212 0
M  V30 2106 C 205.54 -1.95555 0.0420788 0
M  V30 2107 O 206.746 -2.71374 -0.0827558 0
M  V30 2108 C 205.202 -2.58748 2.50155 0
M  V30 2109 C 204.81 -2.12925 3.94166 0
M  V30 2110 C 206.554 -3.36257 2.59098 0
M  V30 2111 C 204.461 -3.25723 4.93618 0
M  V30 2112 H 203.391 -0.537345 0.528939 0
M  V30 2113 H 206.042 -0.73024 1.68344 0
M  V30 2114 H 204.424 -3.31128 2.17188 0
M  V30 2115 H 205.598 -1.47697 4.36488 0
M  V30 2116 H 203.913 -1.48354 3.89076 0
M  V30 2117 H 206.51 -4.20264 3.30578 0
M  V30 2118 H 206.853 -3.82866 1.63461 0
M  V30 2119 H 207.386 -2.70947 2.9126 0
M  V30 2120 H 204.125 -2.84105 5.90732 0
M  V30 2121 H 203.645 -3.89732 4.55926 0
M  V30 2122 H 205.324 -3.91186 5.15347 0
M  V30 2123 N 205.456 -1.28612 -0.910864 0
M  V30 2124 C 206.705 -1.15311 -1.65488 0
M  V30 2125 C 207.018 0.296999 -1.93332 0
M  V30 2126 O 208.224 0.551168 -2.65847 0
M  V30 2127 C 206.68 -2.01599 -2.98137 0
M  V30 2128 C 206.288 -3.51367 -2.7793 0
M  V30 2129 C 208.032 -1.96993 -3.76024 0
M  V30 2130 C 205.939 -4.29797 -4.06237 0
M  V30 2131 H 204.869 -0.42796 -0.620779 0
M  V30 2132 H 207.52 -1.53166 -1.01057 0
M  V30 2133 H 205.902 -1.56603 -3.63719 0
M  V30 2134 H 207.076 -4.0434 -2.21011 0
M  V30 2135 H 205.391 -3.57529 -2.13452 0
M  V30 2136 H 207.988 -2.52856 -4.71135 0
M  V30 2137 H 208.331 -0.94733 -4.05378 0
M  V30 2138 H 208.864 -2.39973 -3.17266 0
M  V30 2139 H 205.603 -5.32648 -3.82055 0
M  V30 2140 H 205.123 -3.81596 -4.62757 0
M  V30 2141 H 206.802 -4.39869 -4.74473 0
M  V30 2142 N 206.934 1.1197 -1.10907 0
M  V30 2143 C 208.345 1.65114 -0.871446 0
M  V30 2144 C 208.696 1.86885 0.597353 0
M  V30 2145 O 207.821 1.59896 1.45816 0
M  V30 2146 C 208.416 2.99944 -1.5754 0
M  V30 2147 C 206.975 3.50018 -1.38435 0
M  V30 2148 C 206.122 2.24941 -1.62164 0
M  V30 2149 H 209.073 0.956851 -1.2661 0
M  V30 2150 H 209.094 3.66651 -1.01721 0
M  V30 2151 H 208.606 2.84067 -2.64438 0
M  V30 2152 H 206.707 3.71071 -0.337214 0
M  V30 2153 H 206.82 4.29165 -2.12965 0
M  V30 2154 H 205.184 2.3229 -1.04467 0
M  V30 2155 H 205.967 2.11612 -2.70324 0
M  V30 2156 N 208.412 0.89855 1.29475 0
M  V30 2157 C 209.823 0.572537 1.77705 0
M  V30 2158 C 210.174 -0.911778 1.73727 0
M  V30 2159 O 209.299 -1.71288 1.32247 0
M  V30 2160 C 209.894 1.03252 3.22683 0
M  V30 2161 C 208.453 0.757687 3.68695 0
M  V30 2162 C 207.6 1.20787 2.49612 0
M  V30 2163 H 210.551 1.08139 1.16153 0
M  V30 2164 H 210.572 0.367307 3.78723 0
M  V30 2165 H 210.084 2.11285 3.25546 0
M  V30 2166 H 208.185 -0.310079 3.71308 0
M  V30 2167 H 208.298 1.35476 4.59547 0
M  V30 2168 H 206.662 0.626888 2.46865 0
M  V30 2169 H 207.445 2.29622 2.55203 0
M  V30 2170 N 209.89 -1.43072 0.660911 0
M  V30 2171 C 210.822 -2.29108 -0.0647641 0
M  V30 2172 C 211.835 -1.42928 -0.779448 0
M  V30 2173 O 213.024 -1.66788 -0.635921 0
M  V30 2174 C 210.124 -3.20032 -1.11503 0
M  V30 2175 C 209.297 -4.34792 -0.476955 0
M  V30 2176 C 208.356 -5.06534 -1.42513 0
M  V30 2177 O 207.382 -5.61538 -0.930771 0
M  V30 2178 N 208.584 -5.1075 -2.75889 0
M  V30 2179 H 211.349 -2.92029 0.673731 0
M  V30 2180 H 208.91 -1.53846 0.50427 0
M  V30 2181 H 210.902 -3.64892 -1.75032 0
M  V30 2182 H 209.472 -2.58658 -1.75541 0
M  V30 2183 H 208.692 -3.92752 0.337572 0
M  V30 2184 H 209.98 -5.0879 -0.0318525 0
M  V30 2185 H 209.378 -4.67447 -3.18606 0
M  V30 2186 H 207.935 -5.59302 -3.347 0
M  V30 2187 N 211.368 -0.403325 -1.52352 0
M  V30 2188 C 212.614 0.174605 -2.02047 0
M  V30 2189 C 212.947 1.45282 -1.28867 0
M  V30 2190 O 212.222 1.90483 -0.393257 0
M  V30 2191 C 212.505 0.428238 -3.57545 0
M  V30 2192 C 212.358 -0.866248 -4.4138 0
M  V30 2193 C 213.677 1.21287 -4.23057 0
M  V30 2194 H 210.796 0.0619851 -0.734389 0
M  V30 2195 H 213.438 -0.53565 -1.82293 0
M  V30 2196 H 211.588 1.03327 -3.74507 0
M  V30 2197 H 213.26 -1.50265 -4.3614 0
M  V30 2198 H 211.503 -1.47851 -4.07827 0
M  V30 2199 H 212.174 -0.643249 -5.48239 0
M  V30 2200 H 214.65 0.700703 -4.10158 0
M  V30 2201 H 213.526 1.35909 -5.31808 0
M  V30 2202 H 213.787 2.23193 -3.81625 0
M  V30 2203 N 212.846 1.57033 -0.133567 0
M  V30 2204 C 214.094 1.953 0.519848 0
M  V30 2205 C 214.415 1.01866 1.66278 0
M  V30 2206 O 213.685 0.0776513 1.95746 0
M  V30 2207 H 212.265 0.721091 0.195032 0
M  V30 2208 H 214.927 1.93809 -0.205921 0
M  V30 2209 H 214.023 2.98695 0.904854 0
M  V30 2210 N 214.325 -0.140222 1.56975 0
M  V30 2211 C 215.255 -1.17456 2.01808 0
M  V30 2212 C 216.236 -1.44415 0.898794 0
M  V30 2213 O 217.421 -1.5522 1.16707 0
M  V30 2214 C 214.551 -2.50607 2.40444 0
M  V30 2215 C 213.505 -2.38155 3.55621 0
M  V30 2216 C 212.831 -3.76078 3.80091 0
M  V30 2217 C 214.131 -1.85991 4.88062 0
M  V30 2218 H 215.825 -0.801743 2.88466 0
M  V30 2219 H 213.371 -0.38422 1.38779 0
M  V30 2220 H 215.324 -3.23197 2.7041 0
M  V30 2221 H 214.048 -2.89737 1.50732 0
M  V30 2222 H 212.707 -1.68016 3.25832 0
M  V30 2223 H 212.355 -4.12656 2.87618 0
M  V30 2224 H 212.055 -3.68606 4.57606 0
M  V30 2225 H 213.579 -4.50206 4.12488 0
M  V30 2226 H 214.993 -2.4838 5.16701 0
M  V30 2227 H 213.39 -1.89393 5.6943 0
M  V30 2228 H 214.46 -0.816023 4.77984 0
M  V30 2229 N 215.803 -1.52179 -0.40978 0
M  V30 2230 C 217.214 -1.58377 -0.988615 0
M  V30 2231 C 217.565 -0.423879 -1.91566 0
M  V30 2232 O 216.69 0.455844 -2.11544 0
M  V30 2233 C 217.285 -2.87044 -1.79976 0
M  V30 2234 C 215.844 -2.95722 -2.32863 0
M  V30 2235 C 214.991 -2.53309 -1.12828 0
M  V30 2236 H 217.942 -1.57558 -0.190039 0
M  V30 2237 H 217.963 -2.7236 -2.65707 0
M  V30 2238 H 217.475 -3.71444 -1.12478 0
M  V30 2239 H 215.576 -2.15814 -3.03735 0
M  V30 2240 H 215.689 -3.99951 -2.63773 0
M  V30 2241 H 214.053 -2.07142 -1.48204 0
M  V30 2242 H 214.836 -3.40082 -0.46897 0
M  V30 2243 N 217.281 0.66697 -1.42791 0
M  V30 2244 C 218.191 1.80962 -1.49299 0
M  V30 2245 C 219.207 1.69775 -0.381108 0
M  V30 2246 O 220.383 1.91188 -0.633188 0
M  V30 2247 C 217.448 3.17156 -1.40045 0
M  V30 2248 C 216.509 3.40242 -2.6179 0
M  V30 2249 C 215.742 4.69939 -2.52969 0
M  V30 2250 O 215.965 5.48372 -1.56985 0
M  V30 2251 O 214.899 4.94441 -3.43237 0
M  V30 2252 H 218.725 1.78427 -2.45759 0
M  V30 2253 H 216.31 0.823713 -1.24641 0
M  V30 2254 H 218.192 3.98413 -1.37276 0
M  V30 2255 H 216.867 3.20312 -0.467138 0
M  V30 2256 H 215.774 2.58802 -2.70134 0
M  V30 2257 H 217.107 3.41923 -3.54047 0
M  V30 2258 N 218.759 1.29093 0.90403 0
M  V30 2259 C 220.036 1.075 1.63411 0
M  V30 2260 C 220.416 -0.382346 2.07609 0
M  V30 2261 O 219.764 -1.37031 1.82851 0
M  V30 2262 C 219.974 2.05858 2.81822 0
M  V30 2263 C 221.322 2.36539 3.52611 0
M  V30 2264 O 222.346 2.04019 2.91984 0
M  V30 2265 O 221.205 2.92085 4.61897 0
M  V30 2266 H 218.299 0.411547 0.717327 0
M  V30 2267 H 220.845 1.40449 0.952479 0
M  V30 2268 H 219.617 3.04037 2.46327 0
M  V30 2269 H 219.24 1.73613 3.57693 0
M  V30 2270 N 220.237 -1.11381 1.11499 0
M  V30 2271 C 221.465 -1.86934 0.88675 0
M  V30 2272 C 221.88 -1.80195 -0.563476 0
M  V30 2273 O 221.237 -1.18367 -1.38908 0
M  V30 2274 C 221.288 -3.35722 1.34064 0
M  V30 2275 O 221.009 -3.4232 2.73401 0
M  V30 2276 C 222.51 -4.2818 1.14791 0
M  V30 2277 H 219.73 -0.591117 0.317523 0
M  V30 2278 H 222.274 -1.40865 1.48248 0
M  V30 2279 H 220.429 -3.79294 0.788355 0
M  V30 2280 H 220.843 -4.34971 2.93087 0
M  V30 2281 H 222.317 -5.30817 1.5145 0
M  V30 2282 H 222.794 -4.39113 0.0875279 0
M  V30 2283 H 223.4 -3.90402 1.68721 0
M  V30 2284 N 221.715 -0.905404 -1.28997 0
M  V30 2285 C 222.961 -0.535039 -1.95615 0
M  V30 2286 C 223.294 0.917404 -1.71165 0
M  V30 2287 O 222.569 1.65123 -1.02785 0
M  V30 2288 C 222.852 -0.834918 -3.50287 0
M  V30 2289 C 222.705 -2.33948 -3.84172 0
M  V30 2290 C 224.024 -0.325318 -4.38896 0
M  V30 2291 H 221.143 -0.195861 -0.710498 0
M  V30 2292 H 223.785 -1.13313 -1.52513 0
M  V30 2293 H 221.935 -0.325904 -3.87131 0
M  V30 2294 H 223.607 -2.91847 -3.57243 0
M  V30 2295 H 221.85 -2.79789 -3.31513 0
M  V30 2296 H 222.521 -2.49987 -4.92149 0
M  V30 2297 H 224.997 -0.761256 -4.09077 0
M  V30 2298 H 223.873 -0.564295 -5.45992 0
M  V30 2299 H 224.134 0.774144 -4.35269 0
M  V30 2300 N 223.193 1.4272 -0.668489 0
M  V30 2301 C 224.14 2.30796 0.0137489 0
M  V30 2302 C 225.11 1.4561 0.799177 0
M  V30 2303 O 226.295 1.74453 0.772702 0
M  V30 2304 C 223.435 3.31377 0.963507 0
M  V30 2305 C 222.548 4.31655 0.172569 0
M  V30 2306 C 221.683 5.19312 1.1175 0
M  V30 2307 C 220.722 6.11274 0.317886 0
M  V30 2308 N 219.859 6.91504 1.2152 0
M  V30 2309 H 224.699 2.88585 -0.743161 0
M  V30 2310 H 222.236 1.42154 -0.378226 0
M  V30 2311 H 224.194 3.88214 1.52792 0
M  V30 2312 H 222.824 2.75202 1.68712 0
M  V30 2313 H 221.876 3.76988 -0.508374 0
M  V30 2314 H 223.188 4.96779 -0.448527 0
M  V30 2315 H 222.342 5.80851 1.75206 0
M  V30 2316 H 221.081 4.5435 1.77249 0
M  V30 2317 H 220.086 5.48809 -0.329918 0
M  V30 2318 H 221.311 6.78283 -0.332917 0
M  V30 2319 H 219.257 6.29176 1.85671 0
M  V30 2320 H 219.174 7.53209 0.649036 0
M  V30 2321 H 220.442 7.57535 1.83742 0
M  V30 2322 N 224.671 0.411399 1.52136 0
M  V30 2323 C 226.087 0.0623865 1.59478 0
M  V30 2324 C 226.287 -1.42554 1.4241 0
M  V30 2325 O 225.343 -2.19263 1.2522 0
M  V30 2326 C 226.656 0.559331 2.95452 0
M  V30 2327 C 228.204 0.517503 3.08692 0
M  V30 2328 C 228.679 0.990994 4.4715 0
M  V30 2329 N 230.17 0.947908 4.53397 0
M  V30 2330 C 230.905 1.28544 5.58806 0
M  V30 2331 N 230.401 1.69454 6.71757 0
M  V30 2332 N 232.194 1.20526 5.49026 0
M  V30 2333 H 224.345 1.37982 1.61477 0
M  V30 2334 H 226.608 0.566977 0.759764 0
M  V30 2335 H 226.314 1.59938 3.1323 0
M  V30 2336 H 226.188 -0.0298014 3.77188 0
M  V30 2337 H 228.575 -0.513505 2.90598 0
M  V30 2338 H 228.656 1.14272 2.28857 0
M  V30 2339 H 228.3 2.02034 4.65988 0
M  V30 2340 H 228.23 0.34257 5.25485 0
M  V30 2341 H 230.721 0.647157 3.72317 0
M  V30 2342 H 231.034 1.93513 7.48179 0
M  V30 2343 H 229.379 1.73359 6.73032 0
M  V30 2344 H 232.57 0.884505 4.59667 0
M  V30 2345 H 232.743 1.47161 6.31069 0
M  V30 2346 N 226.149 -1.5696 0.141893 0
M  V30 2347 C 227.389 -1.9785 -0.513304 0
M  V30 2348 C 227.753 -1.02467 -1.62371 0
M  V30 2349 O 228.954 -1.32382 -2.33941 0
M  V30 2350 C 227.225 -3.42797 -1.01118 0
M  V30 2351 S 228.784 -4.05709 -1.67169 0
M  V30 2352 H 225.602 -0.691318 -0.166135 0
M  V30 2353 H 228.204 -1.94114 0.232398 0
M  V30 2354 H 226.908 -4.0995 -0.192179 0
M  V30 2355 H 226.439 -3.50235 -1.79162 0
M  V30 2356 H 228.454 -3.98342 -2.95868 0
M  V30 2357 N 227.627 0.131896 -1.57047 0
M  V30 2358 C 228.873 0.843179 -1.84441 0
M  V30 2359 C 229.206 1.80129 -0.725749 0
M  V30 2360 O 228.481 1.92624 0.269469 0
M  V30 2361 C 228.764 1.60442 -3.22382 0
M  V30 2362 C 228.617 0.666782 -4.4483 0
M  V30 2363 C 229.936 2.56354 -3.5773 0
M  V30 2364 H 227.055 0.305081 -0.670891 0
M  V30 2365 H 229.697 0.107839 -1.89694 0
M  V30 2366 H 227.847 2.23128 -3.18035 0
M  V30 2367 H 229.519 0.0497646 -4.61273 0
M  V30 2368 H 227.762 -0.022609 -4.33794 0
M  V30 2369 H 228.433 1.23579 -5.37989 0
M  V30 2370 H 230.909 2.0378 -3.62785 0
M  V30 2371 H 229.785 3.06657 -4.5525 0
M  V30 2372 H 230.046 3.38419 -2.84473 0
M  V30 2373 N 229.106 1.52395 0.401703 0
M  V30 2374 C 230.038 1.72505 1.50912 0
M  V30 2375 C 231.051 0.605468 1.51122 0
M  V30 2376 O 232.24 0.880828 1.55254 0
M  V30 2377 C 229.34 1.75711 2.89791 0
M  V30 2378 C 228.513 3.04824 3.1369 0
M  V30 2379 C 227.572 2.99743 4.32482 0
M  V30 2380 O 226.598 3.73635 4.29402 0
M  V30 2381 N 227.8 2.18047 5.37992 0
M  V30 2382 H 230.565 2.68049 1.34052 0
M  V30 2383 H 228.126 1.50724 0.591084 0
M  V30 2384 H 230.118 1.69834 3.6734 0
M  V30 2385 H 228.688 0.876092 3.00072 0
M  V30 2386 H 227.908 3.2429 2.24119 0
M  V30 2387 H 229.196 3.90221 3.26504 0
M  V30 2388 H 228.594 1.57456 5.43345 0
M  V30 2389 H 227.151 2.18021 6.14256 0
M  V30 2390 N 230.584 -0.659388 1.43143 0
M  V30 2391 C 231.516 -1.7849 1.43784 0
M  V30 2392 C 232.529 -1.5932 0.334787 0
M  V30 2393 O 233.718 -1.68155 0.598842 0
M  V30 2394 C 230.818 -3.15828 1.22906 0
M  V30 2395 C 229.991 -3.61711 2.45934 0
M  V30 2396 C 229.05 -4.77831 2.20371 0
M  V30 2397 O 228.076 -4.87586 2.93681 0
M  V30 2398 N 229.278 -5.67611 1.21647 0
M  V30 2399 H 232.043 -1.7842 2.40803 0
M  V30 2400 H 229.604 -0.84302 1.3822 0
M  V30 2401 H 231.596 -3.91189 1.03697 0
M  V30 2402 H 230.166 -3.10707 0.343542 0
M  V30 2403 H 229.386 -2.76861 2.80609 0
M  V30 2404 H 230.674 -3.89112 3.27825 0
M  V30 2405 H 230.072 -5.62397 0.610449 0
M  V30 2406 H 228.629 -6.42719 1.08423 0
M  V30 2407 N 232.062 -1.29571 -0.897171 0
M  V30 2408 C 232.992 -1.17473 -2.01798 0
M  V30 2409 C 233.973 -0.068323 -1.69963 0
M  V30 2410 O 235.158 -0.248239 -1.92607 0
M  V30 2411 C 232.288 -0.853099 -3.36659 0
M  V30 2412 C 231.242 -1.9161 -3.82713 0
M  V30 2413 C 230.568 -1.44773 -5.14728 0
M  V30 2414 C 231.868 -3.32535 -4.02763 0
M  V30 2415 H 233.562 -2.11237 -2.12177 0
M  V30 2416 H 231.108 -1.01699 -1.01948 0
M  V30 2417 H 233.061 -0.755165 -4.14578 0
M  V30 2418 H 231.785 0.120236 -3.26379 0
M  V30 2419 H 230.444 -2.00346 -3.07013 0
M  V30 2420 H 230.092 -0.462995 -5.00865 0
M  V30 2421 H 229.792 -2.15865 -5.46513 0
M  V30 2422 H 231.316 -1.36334 -5.95185 0
M  V30 2423 H 232.73 -3.26626 -4.71156 0
M  V30 2424 H 231.127 -4.01607 -4.45905 0
M  V30 2425 H 232.197 -3.75326 -3.07016 0
M  V30 2426 N 233.54 1.10788 -1.12088 0
M  V30 2427 C 234.788 1.8231 -0.872205 0
M  V30 2428 C 235.109 1.85419 0.603709 0
M  V30 2429 O 234.379 1.32963 1.43867 0
M  V30 2430 H 232.959 0.675137 -0.319686 0
M  V30 2431 H 235.621 1.34068 -1.41463 0
M  V30 2432 H 234.717 2.85955 -1.25045 0
M  V30 2433 N 235.018 0.912232 1.28515 0
M  V30 2434 C 235.948 0.416403 2.29757 0
M  V30 2435 C 236.929 -0.515194 1.6211 0
M  V30 2436 O 238.114 -0.423253 1.89532 0
M  V30 2437 C 235.244 -0.34572 3.45575 0
M  V30 2438 C 234.198 0.496599 4.25109 0
M  V30 2439 C 233.524 -0.393771 5.33248 0
M  V30 2440 C 234.824 1.75307 4.92001 0
M  V30 2441 H 236.518 1.26249 2.7148 0
M  V30 2442 H 234.064 0.608515 1.30511 0
M  V30 2443 H 236.017 -0.703422 4.15488 0
M  V30 2444 H 234.741 -1.2257 3.02728 0
M  V30 2445 H 233.4 0.8368 3.56922 0
M  V30 2446 H 233.048 -1.27225 4.86644 0
M  V30 2447 H 232.748 0.166209 5.87365 0
M  V30 2448 H 234.272 -0.747389 6.06009 0
M  V30 2449 H 235.686 1.46437 5.54283 0
M  V30 2450 H 234.083 2.25534 5.56106 0
M  V30 2451 H 235.153 2.48176 4.16577 0
M  V30 2452 N 236.496 -1.42363 0.676048 0
M  V30 2453 C 237.459 -2.29199 0.00766941 0
M  V30 2454 C 238.459 -1.43389 -0.727745 0
M  V30 2455 O 239.649 -1.64764 -0.56556 0
M  V30 2456 C 236.781 -3.2591 -0.999785 0
M  V30 2457 H 237.974 -2.89794 0.771988 0
M  V30 2458 H 235.527 -1.50024 0.438468 0
M  V30 2459 H 236.262 -2.70256 -1.79255 0
M  V30 2460 H 236.047 -3.89202 -0.475829 0
M  V30 2461 H 237.537 -3.91028 -1.46583 0
M  V30 2462 N 237.974 -0.419461 -1.51915 0
M  V30 2463 C 238.904 0.391813 -2.30189 0
M  V30 2464 C 239.885 1.03699 -1.34836 0
M  V30 2465 O 241.07 1.04403 -1.63748 0
M  V30 2466 C 238.2 1.50312 -3.13087 0
M  V30 2467 C 237.154 0.9824 -4.16573 0
M  V30 2468 C 236.48 2.18809 -4.8788 0
M  V30 2469 C 237.78 0.0292356 -5.22292 0
M  V30 2470 H 239.474 -0.26135 -2.98257 0
M  V30 2471 H 237.02 -0.127134 -1.43438 0
M  V30 2472 H 238.973 2.07773 -3.66617 0
M  V30 2473 H 237.697 2.18431 -2.42807 0
M  V30 2474 H 236.356 0.430119 -3.64068 0
M  V30 2475 H 236.004 2.85507 -4.14119 0
M  V30 2476 H 235.704 1.84615 -5.57845 0
M  V30 2477 H 237.228 2.76858 -5.44226 0
M  V30 2478 H 238.642 0.512976 -5.71 0
M  V30 2479 H 237.039 -0.2244 -5.9968 0
M  V30 2480 H 238.109 -0.912931 -4.76228 0
M  V30 2481 N 239.452 1.56882 -0.150215 0
M  V30 2482 C 240.729 1.87844 0.545327 0
M  V30 2483 C 241.109 1.0567 1.82749 0
M  V30 2484 O 240.457 0.144442 2.28043 0
M  V30 2485 C 240.667 3.39526 0.80767 0
M  V30 2486 C 242.015 4.08814 1.14703 0
M  V30 2487 O 243.039 3.44723 0.896917 0
M  V30 2488 O 241.898 5.22004 1.61784 0
M  V30 2489 H 238.992 0.778677 0.278553 0
M  V30 2490 H 241.538 1.68666 -0.187068 0
M  V30 2491 H 240.31 3.91173 -0.0996096 0
M  V30 2492 H 239.933 3.64243 1.59413 0
M  V30 2493 N 240.93 -0.123565 1.57115 0
M  V30 2494 C 242.177 -0.832153 1.84612 0
M  V30 2495 C 242.505 -1.80093 0.734627 0
M  V30 2496 O 241.76 -1.93766 -0.27442 0
M  V30 2497 C 242.059 -1.62016 3.18568 0
M  V30 2498 C 241.725 -0.796084 4.43817 0
M  V30 2499 C 240.387 -0.568816 4.77826 0
M  V30 2500 C 242.739 -0.221364 5.2073 0
M  V30 2501 C 240.067 0.243499 5.86194 0
M  V30 2502 C 242.419 0.578117 6.29953 0
M  V30 2503 C 241.083 0.815744 6.62497 0
M  V30 2504 H 240.353 -0.304507 0.675542 0
M  V30 2505 H 243 -0.0947248 1.91266 0
M  V30 2506 H 241.305 -2.42837 3.0747 0
M  V30 2507 H 243.002 -2.17231 3.37064 0
M  V30 2508 H 239.592 -0.983307 4.17168 0
M  V30 2509 H 243.776 -0.384173 4.94811 0
M  V30 2510 H 239.032 0.436871 6.09837 0
M  V30 2511 H 243.206 1.03046 6.88734 0
M  V30 2512 H 240.833 1.44701 7.46301 0
M  V30 2513 N 242.408 -1.52605 -0.393616 0
M  V30 2514 C 243.341 -1.71798 -1.50202 0
M  V30 2515 C 244.319 -0.565743 -1.52441 0
M  V30 2516 O 245.503 -0.794987 -1.70916 0
M  V30 2517 C 242.63 -1.7714 -2.88685 0
M  V30 2518 C 241.676 -2.98845 -3.04292 0
M  V30 2519 S 242.509 -4.58909 -2.75976 0
M  V30 2520 C 243.665 -4.6706 -4.1666 0
M  V30 2521 H 243.898 -2.65542 -1.33696 0
M  V30 2522 H 241.431 -1.42839 -0.586195 0
M  V30 2523 H 243.389 -1.80903 -3.68489 0
M  V30 2524 H 242.05 -0.844969 -3.02521 0
M  V30 2525 H 241.243 -2.99111 -4.05646 0
M  V30 2526 H 240.845 -2.9305 -2.32374 0
M  V30 2527 H 243.137 -4.45391 -5.10523 0
M  V30 2528 H 244.08 -5.6905 -4.21412 0
M  V30 2529 H 244.488 -3.95944 -4.02354 0
M  V30 2530 N 243.887 0.651787 -1.4349 0
M  V30 2531 C 244.837 1.75783 -1.45205 0
M  V30 2532 C 245.821 1.57679 -0.320328 0
M  V30 2533 O 247.013 1.67767 -0.564211 0
M  V30 2534 C 244.142 3.14377 -1.3792 0
M  V30 2535 C 243.228 3.38023 -2.56127 0
M  V30 2536 N 243.619 3.32135 -3.81471 0
M  V30 2537 C 241.917 3.68747 -2.50882 0
M  V30 2538 C 242.618 3.55902 -4.60118 0
M  V30 2539 N 241.594 3.77783 -3.90872 0
M  V30 2540 H 245.396 1.69657 -2.39987 0
M  V30 2541 H 242.91 0.853508 -1.38163 0
M  V30 2542 H 244.907 3.93666 -1.37231 0
M  V30 2543 H 243.567 3.21683 -0.441596 0
M  V30 2544 H 244.578 3.11515 -4.13738 0
M  V30 2545 H 241.255 3.8316 -1.65816 0
M  V30 2546 H 242.645 3.57116 -5.69138 0
M  V30 2547 N 245.365 1.30045 0.890287 0
M  V30 2548 C 246.613 1.18327 1.63839 0
M  V30 2549 C 246.934 -0.263455 1.93212 0
M  V30 2550 O 246.204 -1.17856 1.56482 0
M  V30 2551 H 244.784 0.434933 0.607324 0
M  V30 2552 H 247.446 1.631 1.06698 0
M  V30 2553 H 246.542 1.74024 2.59079 0
M  V30 2554 N 246.843 -1.10192 1.12674 0
M  V30 2555 C 248.259 -1.34235 0.863317 0
M  V30 2556 C 248.459 -1.95062 -0.505277 0
M  V30 2557 O 247.515 -2.19192 -1.25345 0
M  V30 2558 C 248.828 -2.2616 1.98172 0
M  V30 2559 C 250.376 -2.3969 2.0129 0
M  V30 2560 C 250.851 -3.34946 3.1237 0
M  V30 2561 N 252.342 -3.42515 3.11829 0
M  V30 2562 C 253.077 -4.16199 3.94419 0
M  V30 2563 N 252.573 -4.92747 4.87004 0
M  V30 2564 N 254.366 -4.11843 3.82547 0
M  V30 2565 H 246.517 -0.690798 2.00853 0
M  V30 2566 H 248.78 -0.366774 0.874174 0
M  V30 2567 H 248.486 -1.8868 2.96804 0
M  V30 2568 H 248.36 -3.26488 1.88906 0
M  V30 2569 H 250.747 -2.76438 1.03276 0
M  V30 2570 H 250.828 -1.39169 2.14629 0
M  V30 2571 H 250.472 -2.98923 4.10619 0
M  V30 2572 H 250.402 -4.35353 2.96269 0
M  V30 2573 H 252.893 -2.87926 2.44759 0
M  V30 2574 H 253.206 -5.46376 5.46528 0
M  V30 2575 H 251.551 -4.91862 4.91016 0
M  V30 2576 H 254.742 -3.51136 3.0955 0
M  V30 2577 H 254.915 -4.69007 4.47142 0
M  V30 2578 N 248.321 -0.919034 -1.28029 0
M  V30 2579 C 249.253 -0.368762 -2.26214 0
M  V30 2580 C 250.266 0.495716 -1.55069 0
M  V30 2581 O 251.455 0.30974 -1.75792 0
M  V30 2582 C 248.555 0.491049 -3.35324 0
M  V30 2583 C 247.728 -0.352133 -4.3598 0
M  V30 2584 C 246.787 0.443622 -5.24327 0
M  V30 2585 O 245.813 -0.14566 -5.69014 0
M  V30 2586 N 247.015 1.74545 -5.53637 0
M  V30 2587 H 249.78 -1.21273 -2.74068 0
M  V30 2588 H 247.341 -0.785541 -1.41566 0
M  V30 2589 H 249.333 1.03026 -3.91366 0
M  V30 2590 H 247.903 1.23574 -2.87138 0
M  V30 2591 H 247.123 -1.07269 -3.79324 0
M  V30 2592 H 248.411 -0.928883 -5.00249 0
M  V30 2593 H 247.809 2.24666 -5.19174 0
M  V30 2594 H 246.366 2.23138 -6.12416 0
M  V30 2595 N 249.799 1.42003 -0.683588 0
M  V30 2596 C 250.729 2.33487 -0.024866 0
M  V30 2597 C 251.71 1.51163 0.779975 0
M  V30 2598 O 252.895 1.79739 0.735362 0
M  V30 2599 C 250.025 3.3487 0.920836 0
M  V30 2600 C 248.979 4.27414 0.223958 0
M  V30 2601 C 248.305 5.19074 1.2832 0
M  V30 2602 C 249.605 5.14445 -0.90242 0
M  V30 2603 H 251.299 2.88819 -0.788921 0
M  V30 2604 H 248.845 1.38873 -0.38083 0
M  V30 2605 H 250.798 3.97787 1.39081 0
M  V30 2606 H 249.522 2.77861 1.71642 0
M  V30 2607 H 248.181 3.65904 -0.225864 0
M  V30 2608 H 247.829 4.58387 2.071 0
M  V30 2609 H 247.529 5.81822 0.821995 0
M  V30 2610 H 249.053 5.84867 1.75392 0
M  V30 2611 H 250.467 5.70998 -0.513272 0
M  V30 2612 H 248.864 5.86072 -1.28997 0
M  V30 2613 H 249.934 4.52322 -1.74737 0
M  V30 2614 N 251.277 0.427512 1.51691 0
M  V30 2615 C 252.523 -0.142439 2.02299 0
M  V30 2616 C 252.856 -1.43214 1.31162 0
M  V30 2617 O 252.131 -1.89833 0.423511 0
M  V30 2618 C 252.414 -0.371301 3.58181 0
M  V30 2619 C 252.267 0.936358 4.39946 0
M  V30 2620 C 253.586 -1.14542 4.24933 0
M  V30 2621 H 250.705 -0.0502937 0.735282 0
M  V30 2622 H 253.347 0.564584 1.81418 0
M  V30 2623 H 251.497 -0.973559 3.76104 0
M  V30 2624 H 253.169 1.57184 4.33694 0
M  V30 2625 H 251.412 1.5432 4.05423 0
M  V30 2626 H 252.083 0.730388 5.47147 0
M  V30 2627 H 254.559 -0.635362 4.11221 0
M  V30 2628 H 253.435 -1.27431 5.33903 0
M  V30 2629 H 253.696 -2.17093 3.85127 0
M  V30 2630 N 252.755 -1.56801 0.158532 0
M  V30 2631 C 253.705 -2.13923 -0.788738 0
M  V30 2632 C 254.689 -1.07006 -1.2016 0
M  V30 2633 O 255.881 -1.33159 -1.1661 0
M  V30 2634 C 253.01 -2.77348 -2.02319 0
M  V30 2635 C 252.096 -3.91404 -1.6329 0
M  V30 2636 N 252.487 -4.9677 -0.951463 0
M  V30 2637 C 250.785 -4.02326 -1.92482 0
M  V30 2638 C 251.486 -5.76698 -0.761221 0
M  V30 2639 N 250.462 -5.27859 -1.29869 0
M  V30 2640 H 254.264 -2.92757 -0.258995 0
M  V30 2641 H 251.778 -1.62344 -0.0426055 0
M  V30 2642 H 253.775 -3.16639 -2.71192 0
M  V30 2643 H 252.435 -1.99991 -2.558 0
M  V30 2644 H 253.446 -5.14284 -0.610928 0
M  V30 2645 H 250.123 -3.36059 -2.47732 0
M  V30 2646 H 251.513 -6.71529 -0.223284 0
M  V30 2647 N 254.233 0.115231 -1.57178 0
M  V30 2648 C 255.649 0.468877 -1.52557 0
M  V30 2649 C 255.849 1.81649 -0.872125 0
M  V30 2650 O 254.905 2.48347 -0.45606 0
M  V30 2651 C 256.218 0.4499 -2.97315 0
M  V30 2652 C 257.766 0.533185 -3.08425 0
M  V30 2653 C 258.241 0.54456 -4.54751 0
M  V30 2654 N 259.732 0.605892 -4.5922 0
M  V30 2655 C 260.467 0.636203 -5.6986 0
M  V30 2656 N 259.963 0.623931 -6.89985 0
M  V30 2657 N 261.756 0.679496 -5.57978 0
M  V30 2658 H 253.907 -0.767712 -1.9804 0
M  V30 2659 H 256.17 -0.283609 -0.904583 0
M  V30 2660 H 255.876 -0.472721 -3.48509 0
M  V30 2661 H 255.75 1.27632 -3.5495 0
M  V30 2662 H 258.137 1.44623 -2.57232 0
M  V30 2663 H 258.218 -0.320995 -2.53778 0
M  V30 2664 H 257.862 -0.364452 -5.06591 0
M  V30 2665 H 257.792 1.41568 -5.07214 0
M  V30 2666 H 260.283 0.621386 -3.72756 0
M  V30 2667 H 260.596 0.649787 -7.70063 0
M  V30 2668 H 258.941 0.591296 -6.9248 0
M  V30 2669 H 262.132 0.686472 -4.63039 0
M  V30 2670 H 262.305 0.69965 -6.44212 0
M  V30 2671 N 255.711 1.52812 0.385517 0
M  V30 2672 C 256.988 1.5861 1.14465 0
M  V30 2673 C 257.368 0.381402 2.07626 0
M  V30 2674 O 256.716 -0.629999 2.19643 0
M  V30 2675 C 256.926 2.92664 1.90128 0
M  V30 2676 C 258.274 3.46526 2.45367 0
M  V30 2677 O 259.298 2.94562 2.0028 0
M  V30 2678 O 258.157 4.37323 3.27736 0
M  V30 2679 H 255.251 0.639855 0.523941 0
M  V30 2680 H 257.797 1.65149 0.390389 0
M  V30 2681 H 256.569 3.71788 1.22022 0
M  V30 2682 H 256.192 2.89527 2.72507 0
M  V30 2683 N 257.189 -0.644168 1.43834 0
M  V30 2684 C 258.438 -1.39985 1.45214 0
M  V30 2685 C 258.751 -1.95421 0.0835494 0
M  V30 2686 O 259.957 -2.71488 -0.0251748 0
M  V30 2687 C 258.413 -2.53384 2.55587 0
M  V30 2688 C 258.021 -2.04517 3.98594 0
M  V30 2689 C 259.765 -3.30685 2.66172 0
M  V30 2690 C 257.672 -3.1518 5.00416 0
M  V30 2691 H 256.602 -0.526005 0.540218 0
M  V30 2692 H 259.253 -0.694367 1.69855 0
M  V30 2693 H 257.635 -3.26446 2.24163 0
M  V30 2694 H 258.809 -1.38405 4.39523 0
M  V30 2695 H 257.124 -1.40068 3.92135 0
M  V30 2696 H 259.721 -4.13158 3.39418 0
M  V30 2697 H 260.064 -3.79312 1.71546 0
M  V30 2698 H 260.597 -2.64708 2.96942 0
M  V30 2699 H 257.336 -2.71511 5.96625 0
M  V30 2700 H 256.856 -3.79974 4.64091 0
M  V30 2701 H 258.535 -3.80166 5.23529 0
M  V30 2702 N 258.668 -1.30515 -0.883378 0
M  V30 2703 C 259.615 -1.17032 -1.98927 0
M  V30 2704 C 260.585 -0.0594241 -1.65994 0
M  V30 2705 O 261.77 -0.229895 -1.8941 0
M  V30 2706 C 258.91 -0.869777 -3.33959 0
M  V30 2707 C 258.023 -2.06271 -3.79574 0
M  V30 2708 C 257.158 -1.70011 -5.03259 0
M  V30 2709 C 256.197 -2.8579 -5.41286 0
M  V30 2710 N 255.334 -2.49816 -6.56153 0
M  V30 2711 H 260.174 -2.1164 -2.09792 0
M  V30 2712 H 257.711 -1.05296 -1.02719 0
M  V30 2713 H 259.669 -0.676138 -4.11685 0
M  V30 2714 H 258.299 0.0394332 -3.22776 0
M  V30 2715 H 257.351 -2.36755 -2.97744 0
M  V30 2716 H 258.663 -2.92971 -4.03694 0
M  V30 2717 H 257.817 -1.47032 -5.88614 0
M  V30 2718 H 256.556 -0.804829 -4.81013 0
M  V30 2719 H 255.561 -3.09434 -4.54456 0
M  V30 2720 H 256.786 -3.76008 -5.65504 0
M  V30 2721 H 254.732 -1.62795 -6.35479 0
M  V30 2722 H 254.649 -3.30048 -6.8015 0
M  V30 2723 H 255.917 -2.30197 -7.44735 0
M  V30 2724 N 260.146 1.09593 -1.13257 0
M  V30 2725 C 261.557 1.63229 -0.906274 0
M  V30 2726 C 261.908 1.8811 0.557578 0
M  V30 2727 O 261.033 1.62953 1.42391 0
M  V30 2728 C 261.628 2.96535 -1.63867 0
M  V30 2729 C 260.187 3.47003 -1.45828 0
M  V30 2730 C 259.334 2.2145 -1.66898 0
M  V30 2731 H 262.285 0.92978 -1.28611 0
M  V30 2732 H 262.306 3.64411 -1.09476 0
M  V30 2733 H 261.818 2.78394 -2.70404 0
M  V30 2734 H 259.919 3.70272 -0.415848 0
M  V30 2735 H 260.032 4.24551 -2.2202 0
M  V30 2736 H 258.396 2.30022 -1.09371 0
M  V30 2737 H 259.179 2.0583 -2.74752 0
M  V30 2738 N 261.624 0.925811 1.2754 0
M  V30 2739 C 262.534 0.428993 2.30644 0
M  V30 2740 C 263.55 -0.489387 1.66976 0
M  V30 2741 O 264.726 -0.372653 1.97922 0
M  V30 2742 C 261.791 -0.311967 3.45294 0
M  V30 2743 C 260.852 0.641098 4.24486 0
M  V30 2744 C 260.085 -0.0645955 5.33661 0
M  V30 2745 O 260.308 -1.28429 5.55754 0
M  V30 2746 O 259.242 0.606265 5.98839 0
M  V30 2747 H 263.068 1.28504 2.75173 0
M  V30 2748 H 260.653 0.691086 1.32455 0
M  V30 2749 H 262.535 -0.729972 4.15029 0
M  V30 2750 H 261.21 -1.14365 3.02824 0
M  V30 2751 H 260.117 1.10874 3.57292 0
M  V30 2752 H 261.45 1.43995 4.70666 0
M  V30 2753 N 263.102 -1.41638 0.69111 0
M  V30 2754 C 264.05 -2.32597 0.0115199 0
M  V30 2755 C 265.044 -1.5072 -0.773296 0
M  V30 2756 O 266.25 -1.66685 -0.67942 0
M  V30 2757 H 262.625 -0.751849 -0.0150746 0
M  V30 2758 H 264.596 -2.87593 0.795791 0
M  V30 2759 C 263.345 -3.35467 -0.914172 0
M  V30 2760 H 262.668 -3.9852 -0.319687 0
M  V30 2761 H 264.108 -4.01662 -1.35808 0
M  V30 2762 C 262.567 -2.69004 -2.02826 0
M  V30 2763 O 263.097 -2.53444 -3.11655 0
M  V30 2764 N 261.303 -2.2777 -1.80469 0
M  V30 2765 H 260.85 -2.40626 -0.919615 0
M  V30 2766 H 260.808 -1.83635 -2.55197 0
M  V30 2767 N 264.58 -0.43555 -1.51462 0
M  V30 2768 C 265.826 0.131709 -2.02372 0
M  V30 2769 C 266.159 1.42516 -1.3192 0
M  V30 2770 O 265.434 1.89606 -0.433573 0
M  V30 2771 C 265.717 0.352301 -3.58373 0
M  V30 2772 C 265.57 -0.959676 -4.39443 0
M  V30 2773 C 266.889 1.12286 -4.25535 0
M  V30 2774 H 264.008 0.0463936 -0.735538 0
M  V30 2775 H 266.65 -0.574197 -1.81116 0
M  V30 2776 H 264.8 0.9536 -3.76615 0
M  V30 2777 H 266.472 -1.59482 -4.32855 0
M  V30 2778 H 264.715 -1.56468 -4.04599 0
M  V30 2779 H 265.386 -0.759394 -5.46752 0
M  V30 2780 H 267.862 0.613545 -4.11552 0
M  V30 2781 H 266.738 1.24598 -5.34571 0
M  V30 2782 H 266.999 2.15048 -3.86273 0
M  V30 2783 N 266.058 1.56714 -0.166846 0
M  V30 2784 C 266.988 2.20754 0.760913 0
M  V30 2785 C 267.969 1.16178 1.24244 0
M  V30 2786 O 269.154 1.44592 1.29641 0
M  V30 2787 C 266.284 2.84478 1.99223 0
M  V30 2788 C 265.238 3.95053 1.64672 0
M  V30 2789 C 264.564 4.45805 2.95232 0
M  V30 2790 C 265.864 5.14865 0.878155 0
M  V30 2791 H 267.558 2.98537 0.22713 0
M  V30 2792 H 265.104 1.43596 0.107805 0
M  V30 2793 H 267.057 3.27951 2.64624 0
M  V30 2794 H 265.781 2.04056 2.55007 0
M  V30 2795 H 264.44 3.52228 1.01641 0
M  V30 2796 H 264.088 3.62181 3.49047 0
M  V30 2797 H 263.788 5.204 2.7287 0
M  V30 2798 H 265.312 4.91962 3.6167 0
M  V30 2799 H 266.726 5.55059 1.43466 0
M  V30 2800 H 265.123 5.95348 0.753738 0
M  V30 2801 H 266.193 4.84735 -0.126377 0
M  V30 2802 N 267.536 -0.106894 1.57237 0
M  V30 2803 C 268.466 -1.13148 2.04254 0
M  V30 2804 C 269.447 -1.42476 0.929224 0
M  V30 2805 O 270.632 -1.52709 1.19973 0
M  V30 2806 C 267.762 -2.4545 2.45706 0
M  V30 2807 C 266.716 -2.30558 3.60592 0
M  V30 2808 C 266.042 -3.67931 3.87983 0
M  V30 2809 C 267.342 -1.75597 4.91897 0
M  V30 2810 H 269.036 -0.740374 2.90101 0
M  V30 2811 H 266.582 -0.354696 1.39563 0
M  V30 2812 H 268.535 -3.17389 2.77205 0
M  V30 2813 H 267.259 -2.86475 1.56843 0
M  V30 2814 H 265.918 -1.61067 3.29322 0
M  V30 2815 H 265.566 -4.06462 2.96306 0
M  V30 2816 H 265.266 -3.58817 4.65322 0
M  V30 2817 H 266.79 -4.41356 4.21945 0
M  V30 2818 H 268.204 -2.37364 5.21854 0
M  V30 2819 H 266.601 -1.77272 5.73319 0
M  V30 2820 H 267.671 -0.714451 4.79608 0
M  V30 2821 N 269.014 -1.53014 -0.377408 0
M  V30 2822 C 270.261 -1.68623 -1.12128 0
M  V30 2823 C 270.589 -0.431997 -1.89642 0
M  V30 2824 O 269.844 0.585855 -1.86725 0
M  V30 2825 C 270.143 -2.87982 -2.11663 0
M  V30 2826 C 269.809 -4.24964 -1.50719 0
M  V30 2827 C 268.471 -4.62217 -1.33825 0
M  V30 2828 C 270.823 -5.10199 -1.06519 0
M  V30 2829 C 268.151 -5.82352 -0.712963 0
M  V30 2830 C 270.503 -6.30969 -0.453955 0
M  V30 2831 C 269.167 -6.66944 -0.272411 0
M  V30 2832 H 268.437 -0.617034 -0.410305 0
M  V30 2833 H 271.084 -1.8718 -0.404484 0
M  V30 2834 H 269.389 -2.63889 -2.89603 0
M  V30 2835 H 271.086 -2.97253 -2.6915 0
M  V30 2836 H 267.676 -3.95626 -1.64858 0
M  V30 2837 H 271.86 -4.81978 -1.18368 0
M  V30 2838 H 267.116 -6.08824 -0.560611 0
M  V30 2839 H 271.29 -6.96324 -0.103217 0
M  V30 2840 H 268.917 -7.59898 0.214181 0
M  V30 2841 N 270.492 0.636531 -1.44174 0
M  V30 2842 C 271.769 1.39463 -1.37148 0
M  V30 2843 C 272.149 2.11082 -0.027507 0
M  V30 2844 O 271.497 2.05954 0.989716 0
M  V30 2845 C 271.707 2.36552 -2.56601 0
M  V30 2846 C 273.055 3.00048 -3.00427 0
M  V30 2847 O 274.079 2.46878 -2.56767 0
M  V30 2848 O 272.938 3.96488 -3.76111 0
M  V30 2849 H 270.032 0.623903 -0.542839 0
M  V30 2850 H 272.578 0.662039 -1.56253 0
M  V30 2851 H 271.35 1.82692 -3.46034 0
M  V30 2852 H 270.973 3.17236 -2.39681 0
M  V30 2853 N 271.97 1.30982 0.876444 0
M  V30 2854 C 273.386 1.09498 1.16113 0
M  V30 2855 C 273.586 -0.13875 2.01022 0
M  V30 2856 O 272.642 -0.829935 2.38471 0
M  V30 2857 C 273.955 2.36308 1.85954 0
M  V30 2858 C 275.503 2.41856 1.98683 0
M  V30 2859 C 275.978 3.6853 2.71937 0
M  V30 2860 N 277.469 3.69387 2.79477 0
M  V30 2861 C 278.204 4.64096 3.36753 0
M  V30 2862 N 277.7 5.69155 3.95012 0
M  V30 2863 N 279.493 4.51626 3.3465 0
M  V30 2864 H 271.644 2.10118 0.310494 0
M  V30 2865 H 273.907 0.926634 0.200131 0
M  V30 2866 H 273.613 3.26388 1.31011 0
M  V30 2867 H 273.487 2.4561 2.86278 0
M  V30 2868 H 275.874 1.52249 2.52793 0
M  V30 2869 H 275.955 2.36523 0.9742 0
M  V30 2870 H 275.599 4.58499 2.18496 0
M  V30 2871 H 275.529 3.71127 3.73593 0
M  V30 2872 H 278.02 2.93438 2.38123 0
M  V30 2873 H 278.333 6.3751 4.36808 0
M  V30 2874 H 276.678 5.72937 3.93406 0
M  V30 2875 H 279.869 3.68728 2.8837 0
M  V30 2876 H 280.042 5.25614 3.7899 0
M  V30 2877 N 273.449 -1.08991 1.13837 0
M  V30 2878 C 274.359 -2.19301 0.833333 0
M  V30 2879 C 275.375 -1.73026 -0.183847 0
M  V30 2880 O 276.551 -2.01395 -0.0138092 0
M  V30 2881 C 273.616 -3.45323 0.308651 0
M  V30 2882 C 272.677 -4.06255 1.38764 0
M  V30 2883 C 271.91 -5.26262 0.887896 0
M  V30 2884 O 272.133 -5.69747 -0.27287 0
M  V30 2885 O 271.067 -5.78435 1.66421 0
M  V30 2886 H 274.893 -2.47854 1.75506 0
M  V30 2887 H 272.478 -1.18012 0.916166 0
M  V30 2888 H 274.36 -4.21394 0.0216739 0
M  V30 2889 H 273.035 -3.18362 -0.585431 0
M  V30 2890 H 271.942 -3.318 1.72799 0
M  V30 2891 H 273.275 -4.37452 2.25602 0
M  V30 2892 N 274.927 -0.932562 -1.27047 0
M  V30 2893 C 276.167 -0.582919 -1.95912 0
M  V30 2894 C 276.531 0.860629 -1.71631 0
M  V30 2895 O 277.732 1.31878 -2.34225 0
M  V30 2896 C 276.003 -0.905673 -3.45734 0
M  V30 2897 S 277.562 -0.665277 -4.33727 0
M  V30 2898 H 274.38 -0.215 -0.677714 0
M  V30 2899 H 276.982 -1.20204 -1.54179 0
M  V30 2900 H 275.686 -1.95386 -3.60905 0
M  V30 2901 H 275.217 -0.275939 -3.92431 0
M  V30 2902 H 277.232 0.474635 -4.93925 0
M  V30 2903 N 276.405 1.4127 -0.698611 0
M  V30 2904 C 277.821 1.55241 -0.370462 0
M  V30 2905 C 278.021 1.67351 1.12231 0
M  V30 2906 O 277.077 1.65363 1.90818 0
M  V30 2907 C 278.39 2.78997 -1.12165 0
M  V30 2908 C 279.938 2.92797 -1.1063 0
M  V30 2909 C 280.413 4.19445 -1.8393 0
M  V30 2910 N 281.904 4.26409 -1.80914 0
M  V30 2911 C 282.639 5.23271 -2.34467 0
M  V30 2912 N 282.135 6.26145 -2.96504 0
M  V30 2913 N 283.928 5.15232 -2.24706 0
M  V30 2914 H 276.079 1.31654 -1.66676 0
M  V30 2915 H 278.342 0.635393 -0.703548 0
M  V30 2916 H 278.048 2.76268 -2.17644 0
M  V30 2917 H 277.922 3.70606 -0.702209 0
M  V30 2918 H 280.309 2.95039 -0.0597713 0
M  V30 2919 H 280.39 2.02353 -1.56483 0
M  V30 2920 H 280.034 4.17964 -2.88563 0
M  V30 2921 H 279.964 5.08866 -1.35509 0
M  V30 2922 H 282.455 3.527 -1.35687 0
M  V30 2923 H 282.768 6.96451 -3.34927 0
M  V30 2924 H 281.113 6.26638 -3.00583 0
M  V30 2925 H 284.304 4.33789 -1.7591 0
M  V30 2926 H 284.477 5.90552 -2.66745 0
M  V30 2927 N 277.883 0.443576 1.51229 0
M  V30 2928 C 279.299 0.0962001 1.5931 0
M  V30 2929 C 279.499 -1.39501 1.45402 0
M  V30 2930 O 278.555 -2.16557 1.29843 0
M  V30 2931 C 279.868 0.621875 2.94199 0
M  V30 2932 C 281.416 0.582865 3.07525 0
M  V30 2933 C 281.891 1.08562 4.44948 0
M  V30 2934 N 283.382 1.04387 4.51284 0
M  V30 2935 C 284.117 1.40368 5.55954 0
M  V30 2936 N 283.613 1.83664 6.68011 0
M  V30 2937 N 285.406 1.32145 5.46346 0
M  V30 2938 H 277.557 1.41376 1.58514 0
M  V30 2939 H 279.82 0.582965 0.747567 0
M  V30 2940 H 279.526 1.66546 3.09767 0
M  V30 2941 H 279.4 0.0502125 3.77167 0
M  V30 2942 H 281.787 -0.451749 2.91622 0
M  V30 2943 H 281.868 1.191 2.26382 0
M  V30 2944 H 281.512 2.11873 4.61598 0
M  V30 2945 H 281.442 0.453956 5.2464 0
M  V30 2946 H 283.933 0.725986 3.70861 0
M  V30 2947 H 284.246 2.0934 7.43906 0
M  V30 2948 H 282.591 1.87596 6.69203 0
M  V30 2949 H 285.782 0.981808 4.57688 0
M  V30 2950 H 285.955 1.60514 6.27805 0
M  V30 2951 N 279.361 -1.56624 0.175154 0
M  V30 2952 C 280.607 -1.9729 -0.469506 0
M  V30 2953 C 280.94 -1.06128 -1.62636 0
M  V30 2954 O 280.215 -0.109183 -1.94193 0
M  V30 2955 C 280.498 -3.47375 -0.948804 0
M  V30 2956 C 280.351 -4.49317 0.208491 0
M  V30 2957 C 281.67 -4.00652 -1.82116 0
M  V30 2958 H 278.789 -0.717317 -0.16919 0
M  V30 2959 H 281.431 -1.88184 0.262062 0
M  V30 2960 H 279.581 -3.55267 -1.57219 0
M  V30 2961 H 281.253 -4.53482 0.845682 0
M  V30 2962 H 279.496 -4.25121 0.863395 0
M  V30 2963 H 280.167 -5.51741 -0.169059 0
M  V30 2964 H 282.643 -3.95416 -1.2956 0
M  V30 2965 H 281.519 -5.06075 -2.12554 0
M  V30 2966 H 281.78 -3.44699 -2.7683 0
M  V30 2967 N 280.839 0.0985539 -1.57292 0
M  V30 2968 C 281.786 1.11981 -2.01814 0
M  V30 2969 C 282.756 1.39999 -0.89384 0
M  V30 2970 O 283.941 1.5152 -1.15958 0
M  V30 2971 C 281.081 2.43577 -2.44467 0
M  V30 2972 C 280.194 2.2232 -3.70402 0
M  V30 2973 C 279.329 3.4729 -4.01949 0
M  V30 2974 C 278.368 3.2128 -5.21005 0
M  V30 2975 N 277.505 4.38507 -5.48321 0
M  V30 2976 H 282.345 0.733149 -2.88841 0
M  V30 2977 H 279.882 0.350482 -1.42864 0
M  V30 2978 H 281.84 3.20373 -2.6724 0
M  V30 2979 H 280.47 2.80097 -1.60455 0
M  V30 2980 H 279.522 1.36343 -3.55126 0
M  V30 2981 H 280.834 1.99089 -4.57345 0
M  V30 2982 H 279.988 4.32495 -4.25479 0
M  V30 2983 H 278.727 3.73572 -3.13521 0
M  V30 2984 H 277.732 2.34468 -4.97298 0
M  V30 2985 H 278.957 2.96348 -6.11028 0
M  V30 2986 H 276.903 4.64871 -4.62851 0
M  V30 2987 H 276.82 4.18455 -6.29628 0
M  V30 2988 H 278.088 5.24787 -5.76385 0
M  V30 2989 N 282.317 1.53212 0.369288 0
M  V30 2990 C 283.247 1.82365 1.45826 0
M  V30 2991 C 284.228 0.676907 1.56051 0
M  V30 2992 O 285.413 0.926401 1.70679 0
M  V30 2993 C 282.543 2.01023 2.83208 0
M  V30 2994 C 281.497 3.1678 2.8781 0
M  V30 2995 C 280.823 3.20724 4.27832 0
M  V30 2996 C 282.123 4.55447 2.55667 0
M  V30 2997 H 283.817 2.73559 1.21678 0
M  V30 2998 H 281.363 1.3163 0.583911 0
M  V30 2999 H 283.316 2.20001 3.59413 0
M  V30 3000 H 282.04 1.06536 3.08736 0
M  V30 3001 H 280.699 2.97616 2.14056 0
M  V30 3002 H 280.347 2.23882 4.50429 0
M  V30 3003 H 280.047 3.98496 4.31827 0
M  V30 3004 H 281.571 3.41881 5.05915 0
M  V30 3005 H 282.985 4.74611 3.21586 0
M  V30 3006 H 281.382 5.35432 2.70984 0
M  V30 3007 H 282.452 4.60812 1.5093 0
M  V30 3008 N 283.795 -0.628877 1.44509 0
M  V30 3009 C 284.758 -1.72263 1.51188 0
M  V30 3010 C 285.758 -1.55907 0.39367 0
M  V30 3011 O 286.948 -1.61361 0.656377 0
M  V30 3012 C 284.08 -3.11365 1.38798 0
M  V30 3013 H 285.273 -1.67714 2.4862 0
M  V30 3014 H 282.826 -0.842737 1.31634 0
M  V30 3015 H 283.561 -3.21507 0.424693 0
M  V30 3016 H 283.346 -3.24644 2.19884 0
M  V30 3017 H 284.836 -3.91075 1.46458 0
M  V30 3018 N 285.273 -1.31445 -0.869486 0
M  V30 3019 C 286.55 -1.11795 -1.60503 0
M  V30 3020 C 286.93 0.327168 -2.08549 0
M  V30 3021 O 286.278 1.32135 -1.8642 0
M  V30 3022 C 286.488 -2.13258 -2.76265 0
M  V30 3023 C 287.836 -2.45805 -3.46215 0
M  V30 3024 O 288.86 -2.11688 -2.86473 0
M  V30 3025 O 287.719 -3.04228 -4.5399 0
M  V30 3026 H 284.813 -0.430421 -0.706163 0
M  V30 3027 H 287.359 -1.42925 -0.914907 0
M  V30 3028 H 286.131 -3.10461 -2.3818 0
M  V30 3029 H 285.754 -1.83035 -3.52964 0
M  V30 3030 N 286.751 1.08385 -1.14413 0
M  V30 3031 C 287.998 1.80776 -0.912482 0
M  V30 3032 C 288.326 1.86236 0.560934 0
M  V30 3033 O 287.581 1.33431 1.43159 0
M  V30 3034 C 287.88 3.26273 -1.45879 0
M  V30 3035 C 287.546 3.4093 -2.95089 0
M  V30 3036 C 286.208 3.44638 -3.35824 0
M  V30 3037 C 288.56 3.44591 -3.91033 0
M  V30 3038 C 285.888 3.49597 -4.71167 0
M  V30 3039 C 288.24 3.51086 -5.26233 0
M  V30 3040 C 286.904 3.53067 -5.6648 0
M  V30 3041 H 286.174 0.661507 -0.333901 0
M  V30 3042 H 288.821 1.27613 -1.42784 0
M  V30 3043 H 287.126 3.82146 -0.864376 0
M  V30 3044 H 288.823 3.80839 -1.2555 0
M  V30 3045 H 285.413 3.38736 -2.62594 0
M  V30 3046 H 289.597 3.40957 -3.60641 0
M  V30 3047 H 284.853 3.49424 -5.0171 0
M  V30 3048 H 289.027 3.52864 -6.00383 0
M  V30 3049 H 286.654 3.56662 -6.71339 0
M  V30 3050 N 288.23 0.939286 1.26551 0
M  V30 3051 C 289.478 0.58469 1.93457 0
M  V30 3052 C 289.799 -0.878774 1.74076 0
M  V30 3053 O 289.069 -1.62421 1.09528 0
M  V30 3054 H 287.649 0.21325 0.715914 0
M  V30 3055 H 290.311 1.1942 1.54029 0
M  V30 3056 H 289.407 0.800849 3.0165 0
M  V30 3057 N 289.708 -1.40897 0.706093 0
M  V30 3058 C 290.641 -2.282 -0.00328781 0
M  V30 3059 C 291.619 -1.42816 -0.77732 0
M  V30 3060 O 292.803 -1.72237 -0.765944 0
M  V30 3061 C 289.93 -3.23226 -1.01205 0
M  V30 3062 C 288.976 -4.25222 -0.329955 0
M  V30 3063 S 289.809 -5.27269 0.935298 0
M  V30 3064 C 290.965 -6.25859 -0.0716061 0
M  V30 3065 H 291.198 -2.88016 0.737143 0
M  V30 3066 H 288.731 -1.46191 0.496756 0
M  V30 3067 H 290.689 -3.78503 -1.58888 0
M  V30 3068 H 289.35 -2.62485 -1.72513 0
M  V30 3069 H 288.543 -4.92023 -1.09221 0
M  V30 3070 H 288.145 -3.73595 0.174069 0
M  V30 3071 H 290.437 -6.71204 -0.921521 0
M  V30 3072 H 291.38 -7.0586 0.562765 0
M  V30 3073 H 291.788 -5.62852 -0.431088 0
M  V30 3074 N 291.186 -0.45159 -1.50991 0
M  V30 3075 C 292.414 0.108334 -2.06616 0
M  V30 3076 C 292.829 1.35224 -1.31757 0
M  V30 3077 O 292.186 1.78475 -0.381174 0
M  V30 3078 C 292.237 0.41619 -3.59096 0
M  V30 3079 O 291.958 -0.778361 -4.3113 0
M  V30 3080 C 293.459 1.02523 -4.31282 0
M  V30 3081 H 290.679 0.00159995 -0.670998 0
M  V30 3082 H 293.223 -0.634771 -1.94399 0
M  V30 3083 H 291.378 1.10921 -3.71181 0
M  V30 3084 H 291.792 -0.511181 -5.22003 0
M  V30 3085 H 293.266 1.19053 -5.39009 0
M  V30 3086 H 293.743 2.01013 -3.905 0
M  V30 3087 H 294.349 0.371173 -4.23677 0
M  V30 3088 N 292.664 1.56529 -0.183458 0
M  V30 3089 C 294.08 1.58664 0.172554 0
M  V30 3090 C 294.28 1.19925 1.61926 0
M  V30 3091 O 293.336 0.916534 2.35278 0
M  V30 3092 C 294.649 3.00463 -0.119262 0
M  V30 3093 C 296.197 3.12945 -0.0584396 0
M  V30 3094 C 296.672 4.56857 -0.323408 0
M  V30 3095 N 298.163 4.62403 -0.271612 0
M  V30 3096 C 298.898 5.71626 -0.450639 0
M  V30 3097 N 298.394 6.89362 -0.689384 0
M  V30 3098 N 300.187 5.60775 -0.385701 0
M  V30 3099 H 292.338 1.79994 -1.12765 0
M  V30 3100 H 294.601 0.834808 -0.449222 0
M  V30 3101 H 294.307 3.33326 -1.12192 0
M  V30 3102 H 294.181 3.72659 0.583544 0
M  V30 3103 H 296.568 2.79902 0.934805 0
M  V30 3104 H 296.649 2.4316 -0.794144 0
M  V30 3105 H 296.293 4.9061 -1.31392 0
M  V30 3106 H 296.223 5.24816 0.43305 0
M  V30 3107 H 298.714 3.77785 -0.0932256 0
M  V30 3108 H 299.027 7.68489 -0.815113 0
M  V30 3109 H 297.372 6.91196 -0.726142 0
M  V30 3110 H 300.563 4.67674 -0.199687 0
M  V30 3111 H 300.736 6.4584 -0.528646 0
M  V30 3112 N 294.142 -0.090211 1.57342 0
M  V30 3113 C 295.558 -0.444547 1.53284 0
M  V30 3114 C 295.758 -1.80238 0.900914 0
M  V30 3115 O 294.814 -2.4759 0.495513 0
M  V30 3116 C 296.127 -0.402543 2.97993 0
M  V30 3117 C 297.675 -0.48405 3.09234 0
M  V30 3118 C 298.15 -0.472144 4.5556 0
M  V30 3119 N 299.641 -0.532757 4.60126 0
M  V30 3120 C 300.376 -0.545462 5.708 0
M  V30 3121 N 299.872 -0.514082 6.9089 0
M  V30 3122 N 301.665 -0.59064 5.58988 0
M  V30 3123 H 293.816 0.799121 1.96794 0
M  V30 3124 H 296.079 0.297965 0.899956 0
M  V30 3125 H 295.785 0.528106 3.47712 0
M  V30 3126 H 295.659 -1.21969 3.56936 0
M  V30 3127 H 298.046 -1.40512 2.595 0
M  V30 3128 H 298.127 0.361328 2.53235 0
M  V30 3129 H 297.771 0.445 5.05947 0
M  V30 3130 H 297.701 -1.3348 5.09402 0
M  V30 3131 H 300.192 -0.562006 3.73698 0
M  V30 3132 H 300.505 -0.527195 7.71 0
M  V30 3133 H 298.85 -0.481054 6.93333 0
M  V30 3134 H 302.041 -0.61272 4.64073 0
M  V30 3135 H 302.214 -0.597073 6.45243 0
M  V30 3136 N 295.62 -1.53406 -0.361157 0
M  V30 3137 C 296.866 -1.70054 -1.10496 0
M  V30 3138 C 297.199 -0.453278 -1.88836 0
M  V30 3139 O 296.474 0.5495 -1.86576 0
M  V30 3140 C 296.757 -2.95317 -2.06058 0
M  V30 3141 C 296.61 -4.3021 -1.31298 0
M  V30 3142 C 297.929 -3.16193 -3.06121 0
M  V30 3143 H 295.048 -0.618799 -0.400321 0
M  V30 3144 H 297.69 -1.86052 -0.385318 0
M  V30 3145 H 295.84 -2.81809 -2.67425 0
M  V30 3146 H 297.512 -4.55538 -0.726807 0
M  V30 3147 H 295.755 -4.29421 -0.614853 0
M  V30 3148 H 296.426 -5.14 -2.01265 0
M  V30 3149 H 298.902 -3.28916 -2.5486 0
M  V30 3150 H 297.778 -4.05266 -3.70204 0
M  V30 3151 H 298.039 -2.31676 -3.76535 0
M  V30 3152 N 297.098 0.621204 -1.44841 0
M  V30 3153 C 298.346 1.37783 -1.47852 0
M  V30 3154 C 298.667 1.94653 -0.116224 0
M  V30 3155 O 297.937 1.76367 0.852737 0
M  V30 3156 H 296.517 0.511453 -0.544449 0
M  V30 3157 H 299.179 0.730446 -1.80694 0
M  V30 3158 H 298.275 2.20414 -2.20961 0
M  V30 3159 N 298.576 1.31904 0.862503 0
M  V30 3160 C 299.816 1.23324 1.63004 0
M  V30 3161 C 300.18 -0.203724 1.90916 0
M  V30 3162 O 301.381 -0.413132 2.65606 0
M  V30 3163 C 299.652 2.06116 2.91978 0
M  V30 3164 S 301.211 2.14478 3.82812 0
M  V30 3165 H 298.029 0.439117 0.559193 0
M  V30 3166 H 300.631 1.66658 1.02202 0
M  V30 3167 H 299.335 3.09593 2.69407 0
M  V30 3168 H 298.866 1.6353 3.57801 0
M  V30 3169 H 300.881 1.28855 4.79177 0
M  V30 3170 N 300.054 -1.07777 1.14986 0
M  V30 3171 C 301.47 -1.32373 0.891596 0
M  V30 3172 C 301.67 -1.9609 -0.463788 0
M  V30 3173 O 300.726 -2.21801 -1.20667 0
M  V30 3174 C 302.039 -2.21905 2.02925 0
M  V30 3175 C 303.587 -2.35367 2.06329 0
M  V30 3176 C 304.062 -3.28245 3.19405 0
M  V30 3177 N 305.553 -3.35824 3.19024 0
M  V30 3178 C 306.288 -4.07739 4.03158 0
M  V30 3179 N 305.784 -4.82306 4.97346 0
M  V30 3180 N 307.577 -4.03635 3.91197 0
M  V30 3181 H 299.728 -0.648039 2.02273 0
M  V30 3182 H 301.991 -0.348149 0.881757 0
M  V30 3183 H 301.697 -1.82342 3.0074 0
M  V30 3184 H 301.571 -3.22407 1.95789 0
M  V30 3185 H 303.958 -2.74186 1.09116 0
M  V30 3186 H 304.039 -1.34585 2.17533 0
M  V30 3187 H 303.683 -2.90146 4.16867 0
M  V30 3188 H 303.613 -4.28971 3.05437 0
M  V30 3189 H 306.104 -2.8267 2.50811 0
M  V30 3190 H 306.417 -5.34661 5.57994 0
M  V30 3191 H 304.762 -4.81337 5.01338 0
M  V30 3192 H 307.953 -3.44491 3.16928 0
M  V30 3193 H 308.126 -4.59417 4.5699 0
M  V30 3194 N 301.532 -0.945985 -1.26051 0
M  V30 3195 C 302.778 -0.597002 -1.93814 0
M  V30 3196 C 303.111 0.862484 -1.73997 0
M  V30 3197 O 302.386 1.61769 -1.07986 0
M  V30 3198 C 302.669 -0.945937 -3.47454 0
M  V30 3199 C 302.522 -2.46052 -3.76535 0
M  V30 3200 C 303.841 -0.464785 -4.37639 0
M  V30 3201 H 300.96 -0.218366 -0.703907 0
M  V30 3202 H 303.602 -1.18107 -1.48831 0
M  V30 3203 H 301.752 -0.448902 -3.85898 0
M  V30 3204 H 303.424 -3.03065 -3.47778 0
M  V30 3205 H 301.667 -2.90194 -3.22444 0
M  V30 3206 H 302.338 -2.65517 -4.83947 0
M  V30 3207 H 304.814 -0.891016 -4.06448 0
M  V30 3208 H 303.69 -0.737712 -5.4392 0
M  V30 3209 H 303.951 0.635274 -4.37512 0
M  V30 3210 N 303.011 1.40521 -0.713556 0
M  V30 3211 C 303.958 2.30723 -0.059684 0
M  V30 3212 C 304.928 1.48079 0.752448 0
M  V30 3213 O 306.113 1.76823 0.71681 0
M  V30 3214 C 303.253 3.34274 0.857594 0
M  V30 3215 C 302.366 4.31986 0.0351536 0
M  V30 3216 C 301.501 5.22605 0.951724 0
M  V30 3217 C 300.54 6.11976 0.123253 0
M  V30 3218 N 299.677 6.9502 0.99459 0
M  V30 3219 H 304.517 2.86074 -0.834596 0
M  V30 3220 H 302.054 1.40879 -0.42326 0
M  V30 3221 H 304.012 3.92879 1.40364 0
M  V30 3222 H 302.642 2.8043 1.59871 0
M  V30 3223 H 301.694 3.7518 -0.628052 0
M  V30 3224 H 303.006 4.95101 -0.606347 0
M  V30 3225 H 302.16 5.86131 1.56638 0
M  V30 3226 H 300.899 4.59759 1.62705 0
M  V30 3227 H 299.904 5.47482 -0.50435 0
M  V30 3228 H 301.129 6.76881 -0.548539 0
M  V30 3229 H 299.075 6.34764 1.6556 0
M  V30 3230 H 298.992 7.54892 0.40908 0
M  V30 3231 H 300.26 7.62997 1.59549 0
M  V30 3232 N 304.489 0.459591 1.5075 0
M  V30 3233 C 305.905 0.113092 1.59199 0
M  V30 3234 C 306.105 -1.37951 1.46874 0
M  V30 3235 O 305.161 -2.15168 1.32132 0
M  V30 3236 C 306.474 0.653043 2.93523 0
M  V30 3237 C 308.022 0.615449 3.0689 0
M  V30 3238 C 308.497 1.13275 4.43771 0
M  V30 3239 N 309.988 1.09167 4.50152 0
M  V30 3240 C 310.723 1.46256 5.54434 0
M  V30 3241 N 310.219 1.90739 6.66026 0
M  V30 3242 N 312.012 1.37932 5.44914 0
M  V30 3243 H 304.163 1.43049 1.57005 0
M  V30 3244 H 306.426 0.590861 0.741341 0
M  V30 3245 H 306.132 1.69822 3.07983 0
M  V30 3246 H 306.006 0.0902132 3.77092 0
M  V30 3247 H 308.393 -0.420793 2.92084 0
M  V30 3248 H 308.474 1.21495 2.25106 0
M  V30 3249 H 308.118 2.16757 4.59324 0
M  V30 3250 H 308.048 0.509576 5.24129 0
M  V30 3251 H 310.539 0.76528 3.7007 0
M  V30 3252 H 310.852 2.17218 7.41644 0
M  V30 3253 H 309.197 1.94683 6.67176 0
M  V30 3254 H 312.388 1.0303 4.56621 0
M  V30 3255 H 312.561 1.67164 6.26067 0
M  V30 3256 N 305.967 -1.56429 0.191757 0
M  V30 3257 C 307.213 -1.97777 -0.448554 0
M  V30 3258 C 307.546 -1.07847 -1.61501 0
M  V30 3259 O 306.821 -0.129774 -1.94067 0
M  V30 3260 C 307.104 -3.48362 -0.911906 0
M  V30 3261 C 306.957 -4.4907 0.256136 0
M  V30 3262 C 308.276 -4.02561 -1.77857 0
M  V30 3263 H 305.395 -0.719071 -0.161572 0
M  V30 3264 H 308.037 -1.87896 0.282007 0
M  V30 3265 H 306.187 -3.56914 -1.53442 0
M  V30 3266 H 307.859 -4.5256 0.893733 0
M  V30 3267 H 306.102 -4.24181 0.908436 0
M  V30 3268 H 306.773 -5.51889 -0.11053 0
M  V30 3269 H 309.249 -3.96767 -1.25359 0
M  V30 3270 H 308.125 -5.08301 -2.07174 0
M  V30 3271 H 308.386 -3.47616 -2.73158 0
M  V30 3272 N 307.445 0.0818655 -1.57387 0
M  V30 3273 C 308.67 0.799946 -1.91352 0
M  V30 3274 C 309.095 1.70833 -0.787258 0
M  V30 3275 O 308.453 1.79419 0.26048 0
M  V30 3276 C 308.501 1.57812 -3.24234 0
M  V30 3277 O 307.605 2.68806 -3.12757 0
M  V30 3278 H 306.946 0.21891 -0.626877 0
M  V30 3279 H 309.476 0.0531256 -2.04531 0
M  V30 3280 H 309.486 1.95952 -3.57864 0
M  V30 3281 H 308.161 0.911548 -4.05788 0
M  V30 3282 H 306.738 2.33597 -2.90666 0
M  V30 3283 N 308.923 1.53595 0.353017 0
M  V30 3284 C 310.171 1.70049 1.09215 0
M  V30 3285 C 310.492 0.461406 1.89463 0
M  V30 3286 O 309.762 -0.524633 1.88744 0
M  V30 3287 H 308.342 0.626912 0.40619 0
M  V30 3288 H 311.004 1.90822 0.396585 0
M  V30 3289 H 310.1 2.56718 1.77488 0
M  V30 3290 N 310.401 -0.613514 1.45168 0
M  V30 3291 C 311.629 -1.39946 1.5239 0
M  V30 3292 C 312.044 -1.88167 0.154531 0
M  V30 3293 O 311.401 -1.61872 -0.842843 0
M  V30 3294 C 311.452 -2.60795 2.50337 0
M  V30 3295 O 311.173 -2.1458 3.81952 0
M  V30 3296 C 312.674 -3.53723 2.67198 0
M  V30 3297 H 309.894 -0.428593 0.516284 0
M  V30 3298 H 312.438 -0.748753 1.903 0
M  V30 3299 H 310.593 -3.21919 2.15515 0
M  V30 3300 H 311.007 -2.93055 4.34993 0
M  V30 3301 H 312.481 -4.35079 3.39721 0
M  V30 3302 H 312.958 -4.0368 1.73029 0
M  V30 3303 H 313.564 -2.98456 3.02992 0
M  V30 3304 N 311.879 -1.3236 -0.855495 0
M  V30 3305 C 313.128 -1.22226 -1.60448 0
M  V30 3306 C 313.441 0.214733 -1.94418 0
M  V30 3307 O 314.647 0.437917 -2.67945 0
M  V30 3308 C 313.103 -2.14063 -2.89318 0
M  V30 3309 C 312.711 -3.62839 -2.62777 0
M  V30 3310 C 314.455 -2.12764 -3.67331 0
M  V30 3311 C 312.362 -4.4664 -3.87643 0
M  V30 3312 H 311.292 -0.453904 -0.602069 0
M  V30 3313 H 313.943 -1.57314 -0.944698 0
M  V30 3314 H 312.325 -1.71889 -3.5675 0
M  V30 3315 H 313.499 -4.1335 -2.03662 0
M  V30 3316 H 311.814 -3.66261 -1.98096 0
M  V30 3317 H 314.411 -2.72611 -4.59987 0
M  V30 3318 H 314.754 -1.11841 -4.00995 0
M  V30 3319 H 315.287 -2.53214 -3.06802 0
M  V30 3320 H 312.026 -5.48373 -3.5912 0
M  V30 3321 H 311.546 -4.0088 -4.46156 0
M  V30 3322 H 313.225 -4.59597 -4.55389 0
M  V30 3323 N 313.357 1.07166 -1.15556 0
M  V30 3324 C 314.768 1.6127 -0.940693 0
M  V30 3325 C 315.119 1.89251 0.517551 0
M  V30 3326 O 314.244 1.65937 1.38903 0
M  V30 3327 C 314.839 2.92993 -1.7012 0
M  V30 3328 C 313.398 3.43832 -1.53156 0
M  V30 3329 C 312.545 2.1786 -1.71558 0
M  V30 3330 H 315.496 0.90229 -1.30554 0
M  V30 3331 H 315.517 3.62007 -1.17181 0
M  V30 3332 H 315.029 2.72596 -2.76248 0
M  V30 3333 H 313.13 3.69307 -0.494294 0
M  V30 3334 H 313.243 4.19747 -2.30975 0
M  V30 3335 H 311.607 2.2765 -1.14225 0
M  V30 3336 H 312.39 1.99956 -2.79056 0
M  V30 3337 N 314.835 0.952656 1.25548 0
M  V30 3338 C 316.065 0.622592 1.96996 0
M  V30 3339 C 316.473 -0.809112 1.71026 0
M  V30 3340 O 315.816 -1.55258 0.981861 0
M  V30 3341 C 315.878 0.798946 3.5051 0
M  V30 3342 C 315.542 2.20744 4.00151 0
M  V30 3343 C 316.539 3.18394 4.11001 0
M  V30 3344 C 314.224 2.5311 4.33867 0
M  V30 3345 C 316.218 4.46504 4.54877 0
M  V30 3346 C 313.905 3.8145 4.7743 0
M  V30 3347 C 314.903 4.77959 4.87897 0
M  V30 3348 O 314.591 6.04012 5.30494 0
M  V30 3349 H 314.323 0.232503 0.634758 0
M  V30 3350 H 316.877 1.2789 1.60728 0
M  V30 3351 H 315.107 0.0854903 3.86605 0
M  V30 3352 H 316.796 0.47023 4.03167 0
M  V30 3353 H 317.562 2.94715 3.85186 0
M  V30 3354 H 313.441 1.78719 4.24948 0
M  V30 3355 H 316.985 5.21835 4.62962 0
M  V30 3356 H 312.882 4.04936 5.0269 0
M  V30 3357 H 313.65 6.0736 5.48685 0
M  V30 3358 N 316.313 -1.40141 0.720998 0
M  V30 3359 C 317.541 -2.05096 0.272656 0
M  V30 3360 C 317.956 -1.54334 -1.0875 0
M  V30 3361 O 317.313 -0.702211 -1.6845 0
M  V30 3362 C 317.364 -3.60636 0.249835 0
M  V30 3363 O 317.085 -4.09526 1.55629 0
M  V30 3364 C 318.586 -4.42772 -0.216396 0
M  V30 3365 H 315.806 -0.659897 0.121558 0
M  V30 3366 H 318.35 -1.79449 0.980723 0
M  V30 3367 H 316.505 -3.85232 -0.409237 0
M  V30 3368 H 316.919 -5.03758 1.4604 0
M  V30 3369 H 318.393 -5.51702 -0.181212 0
M  V30 3370 H 318.87 -4.20756 -1.25941 0
M  V30 3371 H 319.476 -4.23294 0.412596 0
M  V30 3372 N 317.792 -0.46758 -1.50504 0
M  V30 3373 C 318.755 0.317059 -2.26996 0
M  V30 3374 C 319.755 0.923513 -1.31635 0
M  V30 3375 O 320.945 0.793239 -1.55091 0
M  V30 3376 C 318.077 1.45134 -3.08462 0
M  V30 3377 H 319.27 -0.353723 -2.97807 0
M  V30 3378 H 316.823 -0.221545 -1.54722 0
M  V30 3379 H 317.558 2.15728 -2.4214 0
M  V30 3380 H 317.343 1.02232 -3.78538 0
M  V30 3381 H 318.833 2.00493 -3.66323 0
M  V30 3382 N 319.27 1.56325 -0.20005 0
M  V30 3383 C 320.681 1.8408 0.31167 0
M  V30 3384 C 321.032 1.12087 1.61031 0
M  V30 3385 O 320.157 0.38332 2.12978 0
M  V30 3386 C 320.752 3.33932 0.57226 0
M  V30 3387 C 319.311 3.6208 1.02834 0
M  V30 3388 C 318.458 2.77186 0.079634 0
M  V30 3389 H 321.409 1.52939 -0.423729 0
M  V30 3390 H 321.43 3.52971 1.42096 0
M  V30 3391 H 320.942 3.86303 -0.37308 0
M  V30 3392 H 319.043 3.15147 1.98778 0
M  V30 3393 H 319.156 4.7023 0.917624 0
M  V30 3394 H 317.52 2.47951 0.582448 0
M  V30 3395 H 318.303 3.32347 -0.860238 0
M  V30 3396 N 320.748 -0.0735177 1.57428 0
M  V30 3397 C 321.658 -1.10547 2.06922 0
M  V30 3398 C 322.674 -1.42506 0.998402 0
M  V30 3399 O 323.85 -1.52717 1.31299 0
M  V30 3400 C 320.915 -2.40019 2.50184 0
M  V30 3401 C 319.976 -2.15046 3.71556 0
M  V30 3402 C 319.209 -3.38345 4.12745 0
M  V30 3403 O 319.432 -4.47399 3.53822 0
M  V30 3404 O 318.366 -3.2666 5.05546 0
M  V30 3405 H 322.192 -0.715013 2.95163 0
M  V30 3406 H 319.777 -0.287531 1.46607 0
M  V30 3407 H 321.659 -3.16218 2.78539 0
M  V30 3408 H 320.334 -2.78447 1.65072 0
M  V30 3409 H 319.241 -1.36558 3.48285 0
M  V30 3410 H 320.574 -1.81499 4.57514 0
M  V30 3411 N 322.226 -1.5378 -0.344866 0
M  V30 3412 C 323.472 -1.71216 -1.08687 0
M  V30 3413 C 323.805 -0.473281 -1.88345 0
M  V30 3414 O 323.08 0.52968 -1.87149 0
M  V30 3415 C 323.363 -2.97486 -2.02914 0
M  V30 3416 C 323.216 -4.31579 -1.26727 0
M  V30 3417 C 324.535 -3.19422 -3.0275 0
M  V30 3418 H 321.654 -0.62301 -0.393735 0
M  V30 3419 H 324.296 -1.8645 -0.365563 0
M  V30 3420 H 322.446 -2.84629 -2.64421 0
M  V30 3421 H 324.118 -4.56284 -0.67845 0
M  V30 3422 H 322.361 -4.30049 -0.569273 0
M  V30 3423 H 323.032 -5.16106 -1.95803 0
M  V30 3424 H 325.508 -3.316 -2.51357 0
M  V30 3425 H 324.384 -4.09169 -3.65885 0
M  V30 3426 H 324.645 -2.35656 -3.74057 0
M  V30 3427 N 323.704 0.605807 -1.45491 0
M  V30 3428 C 324.944 1.37606 -1.51142 0
M  V30 3429 C 325.308 1.91413 -0.150075 0
M  V30 3430 O 326.509 2.68677 -0.0812828 0
M  V30 3431 C 324.78 2.49197 -2.56195 0
M  V30 3432 S 326.339 3.36953 -2.81083 0
M  V30 3433 H 323.157 0.469118 -0.534275 0
M  V30 3434 H 325.759 0.698845 -1.82583 0
M  V30 3435 H 324.463 2.0802 -3.53773 0
M  V30 3436 H 323.994 3.21717 -2.26411 0
M  V30 3437 H 326.009 4.47395 -2.14598 0
M  V30 3438 N 325.182 1.32811 0.848464 0
M  V30 3439 C 326.114 1.18095 1.96433 0
M  V30 3440 C 327.127 0.114354 1.62398 0
M  V30 3441 O 328.316 0.363892 1.74751 0
M  V30 3442 C 325.416 0.786798 3.2964 0
M  V30 3443 C 324.589 1.943 3.91875 0
M  V30 3444 C 323.648 1.53138 5.03423 0
M  V30 3445 O 322.674 2.24432 5.23086 0
M  V30 3446 N 323.876 0.430915 5.78898 0
M  V30 3447 H 326.641 2.14218 2.09597 0
M  V30 3448 H 324.202 1.2543 1.02367 0
M  V30 3449 H 326.194 0.493715 4.01677 0
M  V30 3450 H 324.764 -0.0834541 3.12489 0
M  V30 3451 H 323.984 2.40224 3.12547 0
M  V30 3452 H 325.272 2.71689 4.30189 0
M  V30 3453 H 324.67 -0.162333 5.65467 0
M  V30 3454 H 323.227 0.197466 6.51501 0
M  V30 3455 N 326.66 -1.06551 1.16123 0
M  V30 3456 C 327.623 -2.12132 0.867906 0
M  V30 3457 C 328.623 -1.60224 -0.135944 0
M  V30 3458 O 329.813 -1.73943 0.0946422 0
M  V30 3459 C 326.945 -3.396 0.297419 0
M  V30 3460 H 328.138 -2.39586 1.80385 0
M  V30 3461 H 325.691 -1.22574 0.969812 0
M  V30 3462 H 326.426 -3.17794 -0.64633 0
M  V30 3463 H 326.211 -3.78581 1.02073 0
M  V30 3464 H 327.701 -4.17455 0.110052 0
M  V30 3465 N 328.138 -0.959301 -1.25041 0
M  V30 3466 C 329.386 -0.615393 -1.92503 0
M  V30 3467 C 329.707 0.850969 -1.75452 0
M  V30 3468 O 328.977 1.60658 -1.12098 0
M  V30 3469 H 327.557 -0.224613 -0.712431 0
M  V30 3470 H 330.219 -1.21855 -1.5211 0
M  V30 3471 H 329.315 -0.848738 -3.00338 0
M  V30 3472 N 329.616 1.39756 -0.72842 0
M  V30 3473 C 331.032 1.5442 -0.403308 0
M  V30 3474 C 331.232 1.69694 1.08656 0
M  V30 3475 O 330.288 1.69373 1.87267 0
M  V30 3476 C 331.601 2.76555 -1.18058 0
M  V30 3477 C 333.149 2.90384 -1.16815 0
M  V30 3478 C 333.624 4.15449 -1.92785 0
M  V30 3479 N 335.115 4.22475 -1.89918 0
M  V30 3480 C 335.85 5.1818 -2.45514 0
M  V30 3481 N 335.346 6.19714 -3.09719 0
M  V30 3482 N 337.139 5.1035 -2.35584 0
M  V30 3483 H 329.29 1.28089 -1.69431 0
M  V30 3484 H 331.553 0.620327 -0.716867 0
M  V30 3485 H 331.259 2.7159 -2.23455 0
M  V30 3486 H 331.133 3.69033 -0.780662 0
M  V30 3487 H 333.52 2.94846 -0.12234 0
M  V30 3488 H 333.601 1.98988 -1.6074 0
M  V30 3489 H 333.245 4.11749 -2.97364 0
M  V30 3490 H 333.175 5.05877 -1.46272 0
M  V30 3491 H 335.666 3.49743 -1.43138 0
M  V30 3492 H 335.979 6.8919 -3.49625 0
M  V30 3493 H 334.324 6.20121 -3.13807 0
M  V30 3494 H 337.515 4.2996 -1.85072 0
M  V30 3495 H 337.688 5.84761 -2.79211 0
M  V30 3496 N 331.094 0.475555 1.50254 0
M  V30 3497 C 332.057 -0.305016 2.27161 0
M  V30 3498 C 333.057 -0.916519 1.32123 0
M  V30 3499 O 334.247 -0.785003 1.5551 0
M  V30 3500 C 331.379 -1.43496 3.09227 0
M  V30 3501 H 332.572 0.369511 2.97615 0
M  V30 3502 H 330.125 0.229747 1.54602 0
M  V30 3503 H 330.86 -2.14441 2.43281 0
M  V30 3504 H 330.645 -1.00223 3.79075 0
M  V30 3505 H 332.135 -1.98548 3.67381 0
M  V30 3506 N 332.573 -1.56217 0.208337 0
M  V30 3507 C 333.85 -1.89739 -0.475234 0
M  V30 3508 C 334.23 -1.1238 -1.78701 0
M  V30 3509 O 333.578 -0.228979 -2.2735 0
M  V30 3510 C 333.788 -3.42289 -0.681101 0
M  V30 3511 C 335.136 -4.12789 -0.994507 0
M  V30 3512 O 336.16 -3.47814 -0.768357 0
M  V30 3513 O 335.019 -5.27649 -1.42299 0
M  V30 3514 H 332.113 -0.788478 -0.249461 0
M  V30 3515 H 334.659 -1.67855 0.249538 0
M  V30 3516 H 333.431 -3.90534 0.244722 0
M  V30 3517 H 333.054 -3.69909 -1.45785 0
M  V30 3518 N 334.051 0.0651679 -1.57465 0
M  V30 3519 C 335.299 0.761555 -1.87202 0
M  V30 3520 C 335.62 1.77778 -0.801243 0
M  V30 3521 O 334.89 1.95166 0.16937 0
M  V30 3522 H 333.47 0.284251 -0.690804 0
M  V30 3523 H 336.132 0.0396827 -1.9486 0
M  V30 3524 H 335.228 1.27365 -2.84929 0
M  V30 3525 N 335.529 1.53961 0.336706 0
M  V30 3526 C 336.459 1.85417 1.41925 0
M  V30 3527 C 337.44 0.709856 1.5458 0
M  V30 3528 O 338.625 0.962396 1.68676 0
M  V30 3529 C 335.755 2.06985 2.78881 0
M  V30 3530 C 334.709 3.22813 2.81026 0
M  V30 3531 C 334.035 3.29727 4.20932 0
M  V30 3532 C 335.335 4.60767 2.45949 0
M  V30 3533 H 337.029 2.76079 1.15848 0
M  V30 3534 H 334.575 1.32839 0.555859 0
M  V30 3535 H 336.528 2.27575 3.54665 0
M  V30 3536 H 335.252 1.13061 3.06406 0
M  V30 3537 H 333.911 3.0209 2.07695 0
M  V30 3538 H 333.559 2.33385 4.45579 0
M  V30 3539 H 333.259 4.07566 4.23277 0
M  V30 3540 H 334.783 3.52536 4.98549 0
M  V30 3541 H 336.197 4.81325 3.11446 0
M  V30 3542 H 334.594 5.4106 2.59566 0
M  V30 3543 H 335.664 4.6391 1.41122 0
M  V30 3544 N 337.007 -0.598083 1.45811 0
M  V30 3545 C 337.97 -1.69018 1.54808 0
M  V30 3546 C 338.97 -1.55037 0.426652 0
M  V30 3547 O 340.16 -1.59932 0.690456 0
M  V30 3548 C 337.292 -3.0835 1.45371 0
M  V30 3549 H 338.485 -1.62403 2.52121 0
M  V30 3550 H 336.038 -0.814626 1.33392 0
M  V30 3551 H 336.773 -3.20534 0.492793 0
M  V30 3552 H 336.558 -3.19907 2.26721 0
M  V30 3553 H 338.048 -3.8788 1.54721 0
M  V30 3554 N 338.485 -1.33259 -0.841409 0
M  V30 3555 C 339.731 -1.24757 -1.59886 0
M  V30 3556 C 340.064 0.186913 -1.93298 0
M  V30 3557 O 339.339 1.12757 -1.5848 0
M  V30 3558 C 339.622 -2.12036 -2.91055 0
M  V30 3559 C 339.475 -3.63929 -2.6434 0
M  V30 3560 C 340.794 -1.9916 -3.92458 0
M  V30 3561 H 337.913 -0.454542 -0.580138 0
M  V30 3562 H 340.555 -1.63335 -0.970647 0
M  V30 3563 H 338.705 -1.79265 -3.44669 0
M  V30 3564 H 340.377 -4.06978 -2.17178 0
M  V30 3565 H 338.62 -3.85935 -1.98082 0
M  V30 3566 H 339.291 -4.20341 -3.57796 0
M  V30 3567 H 341.767 -2.27895 -3.48143 0
M  V30 3568 H 340.643 -2.62484 -4.82072 0
M  V30 3569 H 340.904 -0.963082 -4.31482 0
M  V30 3570 N 339.963 1.05934 -1.16686 0
M  V30 3571 C 341.24 1.75643 -0.860747 0
M  V30 3572 C 341.62 2.01144 0.640641 0
M  V30 3573 O 340.968 1.64147 1.58959 0
M  V30 3574 C 341.178 3.05493 -1.68745 0
M  V30 3575 C 342.526 3.79581 -1.90271 0
M  V30 3576 O 343.55 3.15344 -1.65641 0
M  V30 3577 O 342.409 4.9499 -2.31618 0
M  V30 3578 H 339.503 0.763426 -0.317977 0
M  V30 3579 H 342.049 1.1217 -1.27342 0
M  V30 3580 H 340.821 2.8264 -2.70611 0
M  V30 3581 H 340.444 3.76702 -1.27206 0
M  V30 3582 N 341.441 0.965919 1.2453 0
M  V30 3583 C 342.669 0.644385 1.96609 0
M  V30 3584 C 343.084 -0.785823 1.71669 0
M  V30 3585 O 342.441 -1.52703 0.999399 0
M  V30 3586 C 342.492 0.907375 3.49927 0
M  V30 3587 O 342.213 2.28136 3.74013 0
M  V30 3588 C 343.714 0.599784 4.39224 0
M  V30 3589 H 340.934 0.240588 0.626385 0
M  V30 3590 H 343.478 1.29337 1.58405 0
M  V30 3591 H 341.633 0.304631 3.862 0
M  V30 3592 H 342.047 2.36002 4.68405 0
M  V30 3593 H 343.521 0.834263 5.45659 0
M  V30 3594 H 343.998 -0.465921 4.36722 0
M  V30 3595 H 344.604 1.18235 4.08535 0
M  V30 3596 N 342.919 -1.39368 0.735821 0
M  V30 3597 C 344.167 -2.00101 0.283562 0
M  V30 3598 C 344.488 -1.5868 -1.13338 0
M  V30 3599 O 343.758 -0.835423 -1.77193 0
M  V30 3600 H 342.338 -0.740024 0.101851 0
M  V30 3601 H 345 -1.70404 0.945962 0
M  V30 3602 H 344.096 -3.10323 0.332604 0
M  V30 3603 N 344.397 -0.483516 -1.5 0
M  V30 3604 C 345.643 0.0672592 -2.02688 0
M  V30 3605 C 345.976 1.38247 -1.36387 0
M  V30 3606 O 345.251 1.88131 -0.493675 0
M  V30 3607 C 345.534 0.238109 -3.59312 0
M  V30 3608 C 345.387 -1.099 -4.36168 0
M  V30 3609 C 346.706 0.986916 -4.28892 0
M  V30 3610 H 343.825 0.0229696 -0.736642 0
M  V30 3611 H 346.467 -0.631527 -1.79197 0
M  V30 3612 H 344.617 0.8333 -3.79458 0
M  V30 3613 H 346.289 -1.73172 -4.27562 0
M  V30 3614 H 344.532 -1.69261 -3.99416 0
M  V30 3615 H 345.203 -0.932954 -5.44059 0
M  V30 3616 H 347.679 0.482302 -4.13295 0
M  V30 3617 H 346.555 1.07527 -5.38265 0
M  V30 3618 H 346.816 2.0265 -3.92919 0
M  V30 3619 N 345.875 1.56104 -0.216619 0
M  V30 3620 C 347.152 1.89988 0.465165 0
M  V30 3621 C 347.532 1.13326 1.78102 0
M  V30 3622 O 346.88 0.241033 2.27225 0
M  V30 3623 C 347.09 3.42646 0.662939 0
M  V30 3624 C 348.438 4.13311 0.972602 0
M  V30 3625 O 349.462 3.48217 0.749901 0
M  V30 3626 O 348.321 5.28396 1.39499 0
M  V30 3627 H 345.415 0.78979 0.245276 0
M  V30 3628 H 347.961 1.67721 -0.258436 0
M  V30 3629 H 346.733 3.90399 -0.26543 0
M  V30 3630 H 346.356 3.70677 1.43821 0
M  V30 3631 N 347.353 -0.0568162 1.57498 0
M  V30 3632 C 348.599 -0.75422 1.88253 0
M  V30 3633 C 348.932 -1.76461 0.810865 0
M  V30 3634 O 348.207 -1.93691 -0.177259 0
M  V30 3635 C 348.49 -1.44878 3.2967 0
M  V30 3636 C 348.343 -0.453789 4.47505 0
M  V30 3637 C 349.662 -2.38994 3.69554 0
M  V30 3638 H 346.781 -0.272724 0.684683 0
M  V30 3639 H 349.423 -0.0172113 1.89992 0
M  V30 3640 H 347.573 -2.077 3.28318 0
M  V30 3641 H 349.245 0.170371 4.60985 0
M  V30 3642 H 347.488 0.229552 4.33192 0
M  V30 3643 H 348.159 -0.977699 5.43273 0
M  V30 3644 H 350.635 -1.86239 3.72095 0
M  V30 3645 H 349.511 -2.84587 4.69363 0
M  V30 3646 H 349.772 -3.24461 3.00296 0
M  V30 3647 N 348.832 -1.54138 -0.328536 0
M  V30 3648 C 350.078 -1.73297 -1.06488 0
M  V30 3649 C 350.433 -0.497958 -1.85844 0
M  V30 3650 O 349.726 0.509591 -1.84699 0
M  V30 3651 C 349.92 -2.9457 -2.02393 0
M  V30 3652 C 349.749 -4.29747 -1.32467 0
M  V30 3653 C 348.519 -4.93987 -1.06324 0
M  V30 3654 C 350.717 -5.08903 -0.743137 0
M  V30 3655 N 348.699 -6.13005 -0.331359 0
M  V30 3656 C 350.07 -6.19836 -0.142602 0
M  V30 3657 C 352.125 -4.93699 -0.64546 0
M  V30 3658 C 350.828 -7.17224 0.546125 0
M  V30 3659 C 352.854 -5.91393 0.0295558 0
M  V30 3660 C 352.216 -7.01674 0.619056 0
M  V30 3661 H 348.315 -0.687017 -0.373539 0
M  V30 3662 H 350.899 -1.91589 -0.346659 0
M  V30 3663 H 349.07 -2.77752 -2.71493 0
M  V30 3664 H 350.802 -3.0238 -2.68977 0
M  V30 3665 H 347.557 -4.53824 -1.35428 0
M  V30 3666 H 347.981 -6.76997 0.0202939 0
M  V30 3667 H 352.623 -4.08589 -1.08695 0
M  V30 3668 H 350.341 -8.01896 0.999459 0
M  V30 3669 H 353.927 -5.81706 0.104705 0
M  V30 3670 H 352.807 -7.75971 1.13309 0
M  V30 3671 N 350.31 0.590341 -1.46126 0
M  V30 3672 C 351.273 1.68194 -1.55703 0
M  V30 3673 C 352.273 1.54808 -0.434868 0
M  V30 3674 O 353.463 1.59564 -0.698928 0
M  V30 3675 C 350.595 3.07575 -1.47005 0
M  V30 3676 H 351.788 1.61064 -2.52979 0
M  V30 3677 H 349.341 0.807541 -1.33823 0
M  V30 3678 H 350.076 3.20268 -0.509785 0
M  V30 3679 H 349.861 3.187 -2.28414 0
M  V30 3680 H 351.351 3.87055 -1.56776 0
M  V30 3681 N 351.788 1.33704 0.83433 0
M  V30 3682 C 353.035 1.25417 1.58987 0
M  V30 3683 C 353.363 -0.178869 1.93676 0
M  V30 3684 O 352.618 -1.13723 1.59265 0
M  V30 3685 C 352.917 2.07926 2.90692 0
M  V30 3686 C 352.583 3.57066 2.75345 0
M  V30 3687 C 351.245 3.97724 2.70867 0
M  V30 3688 C 353.597 4.51817 2.59828 0
M  V30 3689 C 350.925 5.31344 2.48778 0
M  V30 3690 C 353.277 5.85604 2.39272 0
M  V30 3691 C 351.941 6.25439 2.33199 0
M  V30 3692 H 351.211 0.458934 0.581774 0
M  V30 3693 H 353.858 1.65335 0.966261 0
M  V30 3694 H 352.163 1.608 3.57282 0
M  V30 3695 H 353.86 1.98868 3.48213 0
M  V30 3696 H 350.45 3.24785 2.79665 0
M  V30 3697 H 354.634 4.21311 2.62319 0
M  V30 3698 H 349.89 5.61241 2.42526 0
M  V30 3699 H 354.064 6.58623 2.2625 0
M  V30 3700 H 351.691 7.28914 2.15843 0
M  V30 3701 N 353.266 -1.05314 1.17247 0
M  V30 3702 C 354.514 -1.77941 0.958194 0
M  V30 3703 C 354.835 -1.88089 -0.514556 0
M  V30 3704 O 354.105 -1.39676 -1.37359 0
M  V30 3705 H 352.685 -0.659116 0.351533 0
M  V30 3706 H 355.347 -1.27166 1.47699 0
M  V30 3707 H 354.443 -2.79663 1.38546 0
M  V30 3708 N 354.744 -0.972509 -1.24016 0
M  V30 3709 C 355.99 -0.637978 -1.92504 0
M  V30 3710 C 356.323 0.825383 -1.75787 0
M  V30 3711 O 355.598 1.59442 -1.11393 0
M  V30 3712 C 355.881 -1.01942 -3.45369 0
M  V30 3713 C 355.734 -2.53983 -3.71231 0
M  V30 3714 C 357.053 -0.55751 -4.36555 0
M  V30 3715 H 354.172 -0.233248 -0.699117 0
M  V30 3716 H 356.814 -1.21238 -1.46292 0
M  V30 3717 H 354.964 -0.530656 -3.84859 0
M  V30 3718 H 356.636 -3.10374 -3.41271 0
M  V30 3719 H 354.879 -2.96968 -3.16216 0
M  V30 3720 H 355.55 -2.75723 -4.78206 0
M  V30 3721 H 358.026 -0.977029 -4.04467 0
M  V30 3722 H 356.902 -0.85292 -5.42233 0
M  V30 3723 H 357.163 0.542328 -4.38761 0
M  V30 3724 N 356.222 1.38976 -0.743202 0
M  V30 3725 C 357.152 2.33171 -0.123873 0
M  V30 3726 C 358.133 1.54336 0.71516 0
M  V30 3727 O 359.318 1.82696 0.658467 0
M  V30 3728 C 356.448 3.38474 0.777978 0
M  V30 3729 C 355.402 4.27979 0.0424758 0
M  V30 3730 C 354.728 5.2405 1.06189 0
M  V30 3731 C 356.028 5.10155 -1.1198 0
M  V30 3732 H 357.722 2.85213 -0.910709 0
M  V30 3733 H 355.268 1.37133 -0.439388 0
M  V30 3734 H 357.221 4.03328 1.22084 0
M  V30 3735 H 355.945 2.84891 1.59702 0
M  V30 3736 H 354.604 3.64616 -0.380853 0
M  V30 3737 H 354.252 4.66758 1.87472 0
M  V30 3738 H 353.952 5.84785 0.574485 0
M  V30 3739 H 355.476 5.9178 1.50428 0
M  V30 3740 H 356.89 5.68307 -0.75499 0
M  V30 3741 H 355.287 5.80073 -1.53738 0
M  V30 3742 H 356.357 4.44504 -1.93764 0
M  V30 3743 N 357.7 0.491464 1.49741 0
M  V30 3744 C 358.949 -0.0582189 2.01616 0
M  V30 3745 C 359.262 -1.38927 1.3769 0
M  V30 3746 O 360.468 -2.02509 1.80838 0
M  V30 3747 C 358.924 -0.154235 3.59569 0
M  V30 3748 C 358.532 1.1696 4.32463 0
M  V30 3749 C 360.276 -0.65479 4.1942 0
M  V30 3750 C 358.183 1.03627 5.8225 0
M  V30 3751 H 357.113 -0.0255317 0.753568 0
M  V30 3752 H 359.764 0.629445 1.72367 0
M  V30 3753 H 358.146 -0.906138 3.85493 0
M  V30 3754 H 359.32 1.93405 4.18248 0
M  V30 3755 H 357.635 1.60285 3.84315 0
M  V30 3756 H 360.232 -0.771903 5.29099 0
M  V30 3757 H 360.575 -1.65127 3.8215 0
M  V30 3758 H 361.108 0.040304 3.9778 0
M  V30 3759 H 357.847 2.00672 6.24028 0
M  V30 3760 H 357.367 0.312546 5.98985 0
M  V30 3761 H 359.046 0.711114 6.4308 0
M  V30 3762 N 359.178 -1.55987 0.224894 0
M  V30 3763 C 360.425 -1.9839 -0.4059 0
M  V30 3764 C 360.753 -1.11261 -1.59535 0
M  V30 3765 O 360.008 -0.158314 -1.95059 0
M  V30 3766 C 360.307 -3.46394 -0.880106 0
M  V30 3767 C 359.973 -4.5046 0.19918 0
M  V30 3768 C 358.635 -4.7864 0.495661 0
M  V30 3769 C 360.987 -5.12855 0.928939 0
M  V30 3770 C 358.315 -5.66497 1.52636 0
M  V30 3771 C 360.667 -6.01828 1.949 0
M  V30 3772 C 359.331 -6.28351 2.25236 0
M  V30 3773 H 358.601 -0.725961 -0.148529 0
M  V30 3774 H 361.248 -1.88668 0.328113 0
M  V30 3775 H 359.553 -3.53337 -1.69294 0
M  V30 3776 H 361.25 -3.76577 -1.37808 0
M  V30 3777 H 357.84 -4.28579 -0.0420526 0
M  V30 3778 H 362.024 -4.9115 0.713129 0
M  V30 3779 H 357.28 -5.8531 1.76698 0
M  V30 3780 H 361.454 -6.49225 2.51951 0
M  V30 3781 H 359.081 -6.96226 3.05244 0
M  V30 3782 N 360.656 0.0484629 -1.57525 0
M  V30 3783 C 361.896 0.748196 -1.90214 0
M  V30 3784 C 362.26 1.73545 -0.821347 0
M  V30 3785 O 363.461 2.48201 -1.03198 0
M  V30 3786 C 361.732 1.41727 -3.28098 0
M  V30 3787 S 363.291 2.14884 -3.82584 0
M  V30 3788 H 360.109 0.248307 -0.666232 0
M  V30 3789 H 362.711 0.00343188 -1.955 0
M  V30 3790 H 361.415 0.685244 -4.04639 0
M  V30 3791 H 360.946 2.20099 -3.26068 0
M  V30 3792 H 362.961 3.41755 -3.59747 0
M  V30 3793 N 362.134 1.5431 0.320358 0
M  V30 3794 C 363.38 1.72924 1.05949 0
M  V30 3795 C 363.713 0.503185 1.87568 0
M  V30 3796 O 362.988 -0.499839 1.87968 0
M  V30 3797 C 363.271 3.00676 1.98156 0
M  V30 3798 C 363.124 4.3354 1.19845 0
M  V30 3799 C 364.443 3.24198 2.9763 0
M  V30 3800 H 361.562 0.629195 0.383774 0
M  V30 3801 H 364.204 1.87008 0.335854 0
M  V30 3802 H 362.354 2.888 2.59859 0
M  V30 3803 H 364.026 4.57305 0.605773 0
M  V30 3804 H 362.269 4.309 0.500784 0
M  V30 3805 H 362.94 5.19156 1.87567 0
M  V30 3806 H 365.416 3.35557 2.4605 0
M  V30 3807 H 364.292 4.14938 3.59329 0
M  V30 3808 H 364.553 2.41577 3.7026 0
M  V30 3809 N 363.613 -0.582584 1.46437 0
M  V30 3810 C 364.543 -1.70187 1.59871 0
M  V30 3811 C 365.524 -1.64066 0.449042 0
M  V30 3812 O 366.709 -1.82081 0.6753 0
M  V30 3813 C 363.839 -3.08827 1.58881 0
M  V30 3814 C 362.793 -3.29779 2.72819 0
M  V30 3815 C 362.119 -4.68947 2.5689 0
M  V30 3816 C 363.419 -3.17601 4.1464 0
M  V30 3817 H 365.113 -1.592 2.53566 0
M  V30 3818 H 362.659 -0.764472 1.22032 0
M  V30 3819 H 364.612 -3.86951 1.66873 0
M  V30 3820 H 363.336 -3.20713 0.617306 0
M  V30 3821 H 361.995 -2.54054 2.64296 0
M  V30 3822 H 361.643 -4.77599 1.57823 0
M  V30 3823 H 361.343 -4.83919 3.33312 0
M  V30 3824 H 362.867 -5.4924 2.66773 0
M  V30 3825 H 364.281 -3.8557 4.24274 0
M  V30 3826 H 362.678 -3.44094 4.9165 0
M  V30 3827 H 363.748 -2.14681 4.34788 0
M  V30 3828 N 365.091 -1.34144 -0.827227 0
M  V30 3829 C 366.319 -1.29325 -1.61501 0
M  V30 3830 C 366.734 0.13354 -1.88327 0
M  V30 3831 O 366.091 1.0793 -1.47164 0
M  V30 3832 C 366.142 -2.07746 -2.95844 0
M  V30 3833 O 365.863 -3.4486 -2.70191 0
M  V30 3834 C 367.364 -2.10273 -3.90256 0
M  V30 3835 H 364.584 -0.445069 -0.50215 0
M  V30 3836 H 367.128 -1.76693 -1.02955 0
M  V30 3837 H 365.283 -1.6403 -3.5096 0
M  V30 3838 H 365.697 -3.85345 -3.55822 0
M  V30 3839 H 367.171 -2.69575 -4.81698 0
M  V30 3840 H 367.648 -1.096 -4.25305 0
M  V30 3841 H 368.254 -2.54059 -3.41078 0
M  V30 3842 N 366.569 1.04691 -1.17803 0
M  V30 3843 C 367.817 1.7743 -0.967617 0
M  V30 3844 C 368.138 1.88359 0.504574 0
M  V30 3845 O 367.408 1.40402 1.36617 0
M  V30 3846 H 365.988 0.657242 -0.355024 0
M  V30 3847 H 368.65 1.2638 -1.48371 0
M  V30 3848 H 367.746 2.78924 -1.40027 0
M  V30 3849 N 368.047 0.979072 1.23499 0
M  V30 3850 C 368.995 0.510604 2.26926 0
M  V30 3851 C 369.989 -0.431691 1.63807 0
M  V30 3852 O 371.195 -0.30573 1.77385 0
M  V30 3853 H 367.57 0.146688 0.737554 0
M  V30 3854 H 369.541 1.39466 2.63803 0
M  V30 3855 C 368.29 -0.172658 3.47271 0
M  V30 3856 H 367.613 0.543331 3.96091 0
M  V30 3857 H 369.053 -0.464101 4.21452 0
M  V30 3858 C 367.512 -1.40345 3.06276 0
M  V30 3859 O 368.042 -2.49978 3.14442 0
M  V30 3860 N 366.248 -1.27362 2.61203 0
M  V30 3861 H 365.795 -0.381584 2.54758 0
M  V30 3862 H 365.753 -2.09822 2.34141 0
M  V30 3863 N 369.525 -1.3858 0.750561 0
M  V30 3864 C 370.772 -2.00184 0.305373 0
M  V30 3865 C 371.1 -1.59575 -1.11203 0
M  V30 3866 O 370.355 -0.823236 -1.77542 0
M  V30 3867 C 370.654 -3.55455 0.372373 0
M  V30 3868 C 370.32 -4.15765 1.745 0
M  V30 3869 C 368.982 -4.31951 2.12065 0
M  V30 3870 C 371.334 -4.49067 2.64553 0
M  V30 3871 C 368.662 -4.78734 3.39162 0
M  V30 3872 C 371.014 -4.97265 3.91038 0
M  V30 3873 C 369.678 -5.11658 4.28676 0
M  V30 3874 H 368.948 -0.732526 0.111744 0
M  V30 3875 H 371.595 -1.65673 0.960451 0
M  V30 3876 H 369.9 -3.90084 -0.366272 0
M  V30 3877 H 371.597 -4.00999 0.00953918 0
M  V30 3878 H 368.187 -4.03579 1.44297 0
M  V30 3879 H 372.371 -4.36166 2.36796 0
M  V30 3880 H 367.627 -4.88062 3.68246 0
M  V30 3881 H 371.801 -5.22003 4.60962 0
M  V30 3882 H 369.428 -5.47668 5.27222 0
M  V30 3883 N 371.003 -0.499398 -1.49478 0
M  V30 3884 C 372.414 -0.051215 -1.8663 0
M  V30 3885 C 372.765 1.36238 -1.41186 0
M  V30 3886 O 371.89 2.01502 -0.789051 0
M  V30 3887 C 372.485 -0.0861651 -3.3869 0
M  V30 3888 C 371.044 0.30667 -3.75149 0
M  V30 3889 C 370.191 -0.459397 -2.73468 0
M  V30 3890 H 373.142 -0.712264 -1.41818 0
M  V30 3891 H 373.163 0.709507 -3.73826 0
M  V30 3892 H 372.675 -1.11512 -3.71735 0
M  V30 3893 H 370.776 1.33892 -3.47712 0
M  V30 3894 H 370.889 -0.0116669 -4.79099 0
M  V30 3895 H 369.253 0.0905645 -2.54539 0
M  V30 3896 H 370.036 -1.4884 -3.09357 0
M  V30 3897 N 372.481 1.55866 -0.233164 0
M  V30 3898 C 373.727 1.99643 0.389148 0
M  V30 3899 C 374.082 1.11836 1.56558 0
M  V30 3900 O 373.375 0.170848 1.90837 0
M  V30 3901 C 373.569 3.46856 0.861724 0
M  V30 3902 C 373.398 4.48904 -0.267376 0
M  V30 3903 C 372.168 4.99888 -0.737577 0
M  V30 3904 C 374.366 5.02624 -1.08966 0
M  V30 3905 N 372.348 5.8566 -1.84052 0
M  V30 3906 C 373.719 5.85434 -2.04125 0
M  V30 3907 C 375.774 4.84959 -1.12779 0
M  V30 3908 C 374.477 6.52466 -3.02789 0
M  V30 3909 C 376.503 5.52759 -2.10266 0
M  V30 3910 C 375.865 6.35346 -3.04162 0
M  V30 3911 H 371.964 0.774402 0.108742 0
M  V30 3912 H 374.548 1.91572 -0.347596 0
M  V30 3913 H 372.719 3.55352 1.5678 0
M  V30 3914 H 374.451 3.77531 1.45783 0
M  V30 3915 H 371.206 4.7249 -0.324122 0
M  V30 3916 H 371.63 6.33246 -2.39434 0
M  V30 3917 H 376.272 4.20751 -0.415749 0
M  V30 3918 H 373.99 7.15849 -3.74948 0
M  V30 3919 H 377.576 5.41051 -2.13905 0
M  V30 3920 H 376.456 6.86883 -3.78366 0
M  V30 3921 N 373.959 -0.0401083 1.57549 0
M  V30 3922 C 374.869 -1.06133 2.0922 0
M  V30 3923 C 375.885 -1.40356 1.0284 0
M  V30 3924 O 377.061 -1.49897 1.34509 0
M  V30 3925 C 374.126 -2.34658 2.55218 0
M  V30 3926 C 373.187 -2.07117 3.76033 0
M  V30 3927 C 372.42 -3.29514 4.19829 0
M  V30 3928 O 372.643 -4.39794 3.63232 0
M  V30 3929 O 371.577 -3.15863 5.12362 0
M  V30 3930 H 375.403 -0.652244 2.96613 0
M  V30 3931 H 372.988 -0.256368 1.47184 0
M  V30 3932 H 374.87 -3.10239 2.85184 0
M  V30 3933 H 373.545 -2.74883 1.70941 0
M  V30 3934 H 372.452 -1.29139 3.51104 0
M  V30 3935 H 373.785 -1.71754 4.61261 0
M  V30 3936 N 375.437 -1.54477 -0.31217 0
M  V30 3937 C 376.4 -1.83923 -1.36766 0
M  V30 3938 C 377.4 -0.711563 -1.44199 0
M  V30 3939 O 378.59 -0.979866 -1.44029 0
M  V30 3940 C 375.722 -2.0095 -2.75376 0
M  V30 3941 H 376.915 -2.78239 -1.11906 0
M  V30 3942 H 374.468 -1.46369 -0.548257 0
M  V30 3943 H 375.203 -1.08883 -3.05475 0
M  V30 3944 H 374.988 -2.83018 -2.71373 0
M  V30 3945 H 376.478 -2.2514 -3.51713 0
M  V30 3946 N 376.915 0.57481 -1.46744 0
M  V30 3947 C 377.878 1.66533 -1.57478 0
M  V30 3948 C 378.878 1.54338 -0.451263 0
M  V30 3949 O 380.068 1.58814 -0.715813 0
M  V30 3950 C 377.2 3.05999 -1.50259 0
M  V30 3951 H 378.393 1.58372 -2.54673 0
M  V30 3952 H 375.946 0.793301 -1.34672 0
M  V30 3953 H 376.681 3.19709 -0.543725 0
M  V30 3954 H 376.466 3.16259 -2.31781 0
M  V30 3955 H 377.956 3.8537 -1.60872 0
M  V30 3956 N 378.394 1.34581 0.820102 0
M  V30 3957 C 379.619 1.30333 1.61332 0
M  V30 3958 C 380.044 -0.119339 1.87721 0
M  V30 3959 O 379.402 -1.08197 1.45475 0
M  V30 3960 C 379.45 2.10258 2.92957 0
M  V30 3961 O 378.554 1.47404 3.85157 0
M  V30 3962 H 377.895 0.447488 0.490561 0
M  V30 3963 H 380.425 1.77425 1.01889 0
M  V30 3964 H 380.435 2.21718 3.42498 0
M  V30 3965 H 379.11 3.13693 2.73074 0
M  V30 3966 H 377.687 1.44703 3.43679 0
M  V30 3967 N 379.872 -1.04064 1.18357 0
M  V30 3968 C 381.12 -1.76915 0.977013 0
M  V30 3969 C 381.441 -1.88624 -0.494577 0
M  V30 3970 O 380.711 -1.41125 -1.3587 0
M  V30 3971 H 379.291 -0.65535 0.358504 0
M  V30 3972 H 381.953 -1.25592 1.49039 0
M  V30 3973 H 381.049 -2.78178 1.41504 0
M  V30 3974 N 381.35 -0.985608 -1.22978 0
M  V30 3975 C 382.313 -0.535071 -2.22867 0
M  V30 3976 C 383.313 0.378123 -1.56291 0
M  V30 3977 O 384.503 0.171092 -1.73358 0
M  V30 3978 C 381.635 0.222702 -3.40172 0
M  V30 3979 H 382.828 -1.41835 -2.6424 0
M  V30 3980 H 380.381 -0.772042 -1.35901 0
M  V30 3981 H 381.116 1.12229 -3.04262 0
M  V30 3982 H 380.901 -0.43288 -3.89703 0
M  V30 3983 H 382.391 0.526335 -4.1427 0
M  V30 3984 N 382.828 1.3818 -0.7579 0
M  V30 3985 C 384.105 1.94106 -0.241306 0
M  V30 3986 C 384.485 1.69282 1.26122 0
M  V30 3987 O 383.833 1.03378 2.03777 0
M  V30 3988 C 384.043 3.43809 -0.59967 0
M  V30 3989 C 385.391 4.20868 -0.561717 0
M  V30 3990 O 386.415 3.5211 -0.538222 0
M  V30 3991 O 385.274 5.43451 -0.576478 0
M  V30 3992 H 382.368 0.825376 -0.0518042 0
M  V30 3993 H 384.914 1.47548 -0.838315 0
M  V30 3994 H 383.686 3.55403 -1.6372 0
M  V30 3995 H 383.309 3.97592 0.0251197 0
M  V30 3996 N 384.306 0.507319 1.49211 0
M  V30 3997 C 385.269 -0.256763 2.27757 0
M  V30 3998 C 386.269 -0.888287 1.34038 0
M  V30 3999 O 387.459 -0.751841 1.5714 0
M  V30 4000 C 384.591 -1.36905 3.12202 0
M  V30 4001 H 385.784 0.432557 2.96764 0
M  V30 4002 H 383.337 0.262488 1.5408 0
M  V30 4003 H 384.072 -2.09233 2.47775 0
M  V30 4004 H 383.857 -0.921599 3.81115 0
M  V30 4005 H 385.347 -1.9071 3.7151 0
M  V30 4006 N 385.784 -1.5574 0.241426 0
M  V30 4007 C 387.031 -1.9881 -0.384836 0
M  V30 4008 C 387.359 -1.12947 -1.58346 0
M  V30 4009 O 386.614 -0.178993 -1.9488 0
M  V30 4010 C 386.913 -3.47308 -0.843317 0
M  V30 4011 C 386.579 -4.50223 0.246946 0
M  V30 4012 C 385.241 -4.78088 0.546399 0
M  V30 4013 C 387.593 -5.11841 0.983282 0
M  V30 4014 C 384.921 -5.64846 1.58636 0
M  V30 4015 C 387.273 -5.99727 2.01272 0
M  V30 4016 C 385.937 -6.25927 2.31888 0
M  V30 4017 H 385.207 -0.727496 -0.140821 0
M  V30 4018 H 387.854 -1.8831 0.348106 0
M  V30 4019 H 386.159 -3.55112 -1.65537 0
M  V30 4020 H 387.856 -3.78017 -1.33806 0
M  V30 4021 H 384.446 -4.286 0.00340639 0
M  V30 4022 H 388.63 -4.90366 0.765182 0
M  V30 4023 H 383.886 -5.83403 1.82896 0
M  V30 4024 H 388.06 -6.46517 2.58823 0
M  V30 4025 H 385.687 -6.92949 3.12611 0
M  V30 4026 N 387.262 0.0317525 -1.57568 0
M  V30 4027 C 388.509 0.723104 -1.89149 0
M  V30 4028 C 388.837 1.75504 -0.838377 0
M  V30 4029 O 388.092 1.95037 0.160982 0
M  V30 4030 C 388.391 1.43167 -3.27472 0
M  V30 4031 C 388.057 0.535972 -4.47703 0
M  V30 4032 C 386.719 0.289262 -4.8033 0
M  V30 4033 C 389.071 -0.0826125 -5.21135 0
M  V30 4034 C 386.399 -0.584853 -5.83778 0
M  V30 4035 C 388.751 -0.944414 -6.25511 0
M  V30 4036 C 387.415 -1.20061 -6.56614 0
M  V30 4037 H 386.685 0.264602 -0.692146 0
M  V30 4038 H 389.332 -0.0169496 -1.91492 0
M  V30 4039 H 387.637 2.24497 -3.21105 0
M  V30 4040 H 389.334 1.97209 -3.49155 0
M  V30 4041 H 385.924 0.738414 -4.22191 0
M  V30 4042 H 390.108 0.0950302 -4.96209 0
M  V30 4043 H 385.364 -0.79168 -6.06253 0
M  V30 4044 H 389.538 -1.43026 -6.81554 0
M  V30 4045 H 387.165 -1.87967 -7.36595 0
M  V30 4046 N 388.74 1.54641 0.303973 0
M  V30 4047 C 389.65 1.88439 1.39743 0
M  V30 4048 C 390.666 0.778239 1.55626 0
M  V30 4049 O 391.842 1.07442 1.70347 0
M  V30 4050 C 388.907 2.12212 2.74166 0
M  V30 4051 C 387.968 3.35936 2.67293 0
M  V30 4052 C 387.201 3.58566 3.95305 0
M  V30 4053 O 387.424 2.84263 4.9452 0
M  V30 4054 O 386.358 4.52078 3.97378 0
M  V30 4055 H 390.184 2.81458 1.14083 0
M  V30 4056 H 387.769 1.40793 0.499768 0
M  V30 4057 H 389.651 2.29067 3.53704 0
M  V30 4058 H 388.326 1.22379 2.99675 0
M  V30 4059 H 387.233 3.24448 1.86237 0
M  V30 4060 H 388.566 4.2589 2.46736 0
M  V30 4061 N 390.218 -0.567019 1.47046 0
M  V30 4062 C 391.128 -1.70247 1.6141 0
M  V30 4063 C 392.144 -1.66746 0.497157 0
M  V30 4064 O 393.32 -1.86371 0.763389 0
M  V30 4065 C 390.385 -3.06756 1.61561 0
M  V30 4066 C 389.446 -3.21399 2.84607 0
M  V30 4067 C 388.679 -4.51396 2.84741 0
M  V30 4068 O 388.902 -5.36255 1.94388 0
M  V30 4069 O 387.836 -4.69621 3.76483 0
M  V30 4070 H 391.662 -1.61073 2.57467 0
M  V30 4071 H 389.247 -0.735894 1.30019 0
M  V30 4072 H 391.129 -3.8801 1.64396 0
M  V30 4073 H 389.804 -3.16333 0.686684 0
M  V30 4074 H 388.711 -2.39579 2.8732 0
M  V30 4075 H 390.044 -3.16721 3.76761 0
M  V30 4076 N 391.696 -1.35014 -0.812953 0
M  V30 4077 C 392.943 -1.27931 -1.56971 0
M  V30 4078 C 393.271 0.148034 -1.93936 0
M  V30 4079 O 392.526 1.11175 -1.61054 0
M  V30 4080 C 392.825 -2.12524 -2.87347 0
M  V30 4081 C 392.491 -3.61401 -2.6963 0
M  V30 4082 C 391.153 -4.01983 -2.64506 0
M  V30 4083 C 393.505 -4.55894 -2.52607 0
M  V30 4084 C 390.833 -5.35235 -2.40293 0
M  V30 4085 C 393.185 -5.89336 -2.29925 0
M  V30 4086 C 391.849 -6.2907 -2.23219 0
M  V30 4087 H 391.119 -0.468131 -0.574399 0
M  V30 4088 H 393.766 -1.66851 -0.939836 0
M  V30 4089 H 392.071 -1.66463 -3.54679 0
M  V30 4090 H 393.768 -2.04383 -3.45005 0
M  V30 4091 H 390.358 -3.29193 -2.74463 0
M  V30 4092 H 394.542 -4.25431 -2.55583 0
M  V30 4093 H 389.798 -5.65028 -2.33566 0
M  V30 4094 H 393.972 -6.62139 -2.15743 0
M  V30 4095 H 391.599 -7.32256 -2.04219 0
M  V30 4096 N 393.175 1.03435 -1.18907 0
M  V30 4097 C 394.421 1.77005 -0.989798 0
M  V30 4098 C 394.754 1.88205 0.478816 0
M  V30 4099 O 394.029 1.39481 1.35556 0
M  V30 4100 C 394.312 3.19925 -1.65287 0
M  V30 4101 C 394.165 3.1663 -3.19477 0
M  V30 4102 C 395.484 4.18189 -1.37134 0
M  V30 4103 H 392.603 0.642538 -0.360991 0
M  V30 4104 H 395.245 1.20784 -1.46667 0
M  V30 4105 H 393.395 3.67929 -1.24741 0
M  V30 4106 H 395.067 2.76567 -3.692 0
M  V30 4107 H 393.31 2.54491 -3.51307 0
M  V30 4108 H 393.981 4.1758 -3.61013 0
M  V30 4109 H 396.457 3.78761 -1.72276 0
M  V30 4110 H 395.333 5.16394 -1.86087 0
M  V30 4111 H 395.594 4.41112 -0.295424 0
M  V30 4112 N 394.653 0.992116 1.22453 0
M  V30 4113 C 396.069 0.702713 1.43297 0
M  V30 4114 C 396.269 -0.726909 1.87932 0
M  V30 4115 O 395.325 -1.49792 2.0327 0
M  V30 4116 C 396.638 1.70762 2.47509 0
M  V30 4117 C 398.186 1.72298 2.61309 0
M  V30 4118 C 398.661 2.71649 3.68742 0
M  V30 4119 N 400.152 2.70239 3.76199 0
M  V30 4120 C 400.887 3.43778 4.58917 0
M  V30 4121 N 400.383 4.26914 5.45633 0
M  V30 4122 N 402.176 3.32487 4.5322 0
M  V30 4123 H 394.327 1.91543 0.917871 0
M  V30 4124 H 396.59 0.826031 0.465162 0
M  V30 4125 H 396.296 2.73059 2.21657 0
M  V30 4126 H 396.17 1.49985 3.46099 0
M  V30 4127 H 398.557 0.706989 2.86506 0
M  V30 4128 H 398.638 1.97143 1.62997 0
M  V30 4129 H 398.282 3.73397 3.44292 0
M  V30 4130 H 398.212 2.44074 4.66622 0
M  V30 4131 H 400.703 2.09912 3.14237 0
M  V30 4132 H 401.016 4.79855 6.05771 0
M  V30 4133 H 399.361 4.31002 5.45218 0
M  V30 4134 H 402.552 2.6698 3.84499 0
M  V30 4135 H 402.725 3.90058 5.17454 0
M  V30 4136 N 396.131 -1.37776 0.765217 0
M  V30 4137 C 397.377 -2.00604 0.336066 0
M  V30 4138 C 397.732 -1.59657 -1.07366 0
M  V30 4139 O 397.025 -0.829565 -1.7271 0
M  V30 4140 C 397.219 -3.5504 0.410053 0
M  V30 4141 C 397.048 -4.10985 1.82542 0
M  V30 4142 C 395.818 -4.42229 2.44461 0
M  V30 4143 C 398.016 -4.32438 2.78392 0
M  V30 4144 N 395.998 -4.8385 3.77839 0
M  V30 4145 C 397.369 -4.76596 3.96556 0
M  V30 4146 C 399.424 -4.14559 2.75764 0
M  V30 4147 C 398.127 -5.04748 5.12466 0
M  V30 4148 C 400.153 -4.43843 3.90842 0
M  V30 4149 C 399.515 -4.88235 5.07746 0
M  V30 4150 H 395.614 -0.763325 0.169881 0
M  V30 4151 H 398.198 -1.67197 0.997656 0
M  V30 4152 H 396.369 -3.87769 -0.221325 0
M  V30 4153 H 398.101 -4.0468 -0.0405285 0
M  V30 4154 H 394.856 -4.31079 1.96131 0
M  V30 4155 H 395.28 -5.08979 4.46396 0
M  V30 4156 H 399.922 -3.79415 1.86558 0
M  V30 4157 H 397.64 -5.38783 6.02277 0
M  V30 4158 H 401.226 -4.31603 3.90141 0
M  V30 4159 H 400.106 -5.10461 5.95315 0
M  V30 4160 N 397.609 -0.515225 -1.4894 0
M  V30 4161 C 398.541 0.292481 -2.27326 0
M  V30 4162 C 399.554 0.917838 -1.3446 0
M  V30 4163 O 400.743 0.798772 -1.5963 0
M  V30 4164 C 397.843 1.42803 -3.07344 0
M  V30 4165 C 397.016 0.907347 -4.27885 0
M  V30 4166 C 396.075 1.92222 -4.89834 0
M  V30 4167 O 395.101 1.48506 -5.49486 0
M  V30 4168 N 396.303 3.25355 -4.80754 0
M  V30 4169 H 399.068 -0.379721 -2.97285 0
M  V30 4170 H 396.629 -0.348638 -1.58102 0
M  V30 4171 H 398.621 2.10481 -3.45658 0
M  V30 4172 H 397.191 2.00414 -2.39902 0
M  V30 4173 H 396.411 0.0550218 -3.94162 0
M  V30 4174 H 397.699 0.538108 -5.05946 0
M  V30 4175 H 397.097 3.6355 -4.33414 0
M  V30 4176 H 395.654 3.88707 -5.23211 0
M  V30 4177 N 399.087 1.5561 -0.249682 0
M  V30 4178 C 400.503 1.59254 0.105103 0
M  V30 4179 C 400.703 1.26685 1.56694 0
M  V30 4180 O 399.759 1.0155 2.31179 0
M  V30 4181 C 401.072 2.99687 -0.246592 0
M  V30 4182 C 402.62 3.12416 -0.191118 0
M  V30 4183 C 403.095 4.55074 -0.516885 0
M  V30 4184 N 404.586 4.60835 -0.467489 0
M  V30 4185 C 405.321 5.69201 -0.69268 0
M  V30 4186 N 404.817 6.85817 -0.981146 0
M  V30 4187 N 406.61 5.58635 -0.623198 0
M  V30 4188 H 398.761 1.75049 -1.20298 0
M  V30 4189 H 401.024 0.815003 -0.484225 0
M  V30 4190 H 400.73 3.28267 -1.26228 0
M  V30 4191 H 400.604 3.74798 0.424962 0
M  V30 4192 H 402.991 2.83615 0.815247 0
M  V30 4193 H 403.072 2.39573 -0.896563 0
M  V30 4194 H 402.716 4.84596 -1.52082 0
M  V30 4195 H 402.646 5.26181 0.210068 0
M  V30 4196 H 405.137 3.7705 -0.253373 0
M  V30 4197 H 405.45 7.64341 -1.14032 0
M  V30 4198 H 403.795 6.87494 -1.01865 0
M  V30 4199 H 406.986 4.66406 -0.397863 0
M  V30 4200 H 407.159 6.43017 -0.802093 0
M  V30 4201 N 400.565 -0.0233959 1.57583 0
M  V30 4202 C 401.813 -0.711654 1.89156 0
M  V30 4203 C 402.134 -1.75591 0.848096 0
M  V30 4204 O 401.404 -1.95547 -0.117566 0
M  V30 4205 H 399.984 -0.265835 0.698098 0
M  V30 4206 H 402.646 0.0119948 1.94896 0
M  V30 4207 H 401.742 -1.19766 2.88206 0
M  V30 4208 N 402.043 -1.548 -0.295768 0
M  V30 4209 C 403.459 -1.4613 -0.641722 0
M  V30 4210 C 403.659 -0.656771 -1.90496 0
M  V30 4211 O 402.715 -0.166547 -2.5195 0
M  V30 4212 C 404.028 -2.90141 -0.789852 0
M  V30 4213 C 405.576 -3.00216 -0.885396 0
M  V30 4214 C 406.051 -4.45434 -1.06548 0
M  V30 4215 N 407.542 -4.49166 -1.13156 0
M  V30 4216 C 408.277 -5.58717 -1.28929 0
M  V30 4217 N 407.773 -6.78182 -1.41567 0
M  V30 4218 N 409.566 -5.46415 -1.31859 0
M  V30 4219 H 401.717 -2.05574 0.534147 0
M  V30 4220 H 403.98 -0.931259 0.177372 0
M  V30 4221 H 403.686 -3.51635 0.0675598 0
M  V30 4222 H 403.56 -3.37859 -1.67724 0
M  V30 4223 H 405.947 -2.38833 -1.73329 0
M  V30 4224 H 406.028 -2.55787 0.0261185 0
M  V30 4225 H 405.672 -5.07413 -0.222335 0
M  V30 4226 H 405.602 -4.87499 -1.9913 0
M  V30 4227 H 408.093 -3.631 -1.04721 0
M  V30 4228 H 408.406 -7.57428 -1.53372 0
M  V30 4229 H 406.751 -6.81037 -1.38613 0
M  V30 4230 H 409.942 -4.5203 -1.21601 0
M  V30 4231 H 410.115 -6.31841 -1.43808 0
M  V30 4232 N 403.521 0.559213 -1.47345 0
M  V30 4233 C 404.451 1.67622 -1.62558 0
M  V30 4234 C 405.432 1.63331 -0.475087 0
M  V30 4235 O 406.617 1.80983 -0.704182 0
M  V30 4236 C 403.747 3.0626 -1.63774 0
M  V30 4237 C 402.701 3.25397 -2.7803 0
M  V30 4238 C 402.027 4.64801 -2.64318 0
M  V30 4239 C 403.327 3.10965 -4.19641 0
M  V30 4240 H 405.021 1.55146 -2.56067 0
M  V30 4241 H 402.567 0.744961 -1.23233 0
M  V30 4242 H 404.52 3.84247 -1.73008 0
M  V30 4243 H 403.244 3.1969 -0.66825 0
M  V30 4244 H 401.903 2.49817 -2.68304 0
M  V30 4245 H 401.551 4.75028 -1.65401 0
M  V30 4246 H 401.251 4.78555 -3.40968 0
M  V30 4247 H 402.775 5.44926 -2.75478 0
M  V30 4248 H 404.189 3.78772 -4.30354 0
M  V30 4249 H 402.586 3.36229 -4.97062 0
M  V30 4250 H 403.656 2.07736 -4.38148 0
M  V30 4251 N 404.999 1.35443 0.805782 0
M  V30 4252 C 406.41 1.25768 1.37983 0
M  V30 4253 C 406.761 -0.10958 1.95894 0
M  V30 4254 O 405.886 -1.01056 1.91355 0
M  V30 4255 C 406.481 2.27727 2.5085 0
M  V30 4256 C 405.04 2.2179 3.04115 0
M  V30 4257 C 404.187 2.13393 1.77084 0
M  V30 4258 H 407.138 1.4656 0.608752 0
M  V30 4259 H 407.159 1.90422 3.29424 0
M  V30 4260 H 406.671 3.27227 2.08671 0
M  V30 4261 H 404.772 1.25703 3.50756 0
M  V30 4262 H 404.885 3.13788 3.62042 0
M  V30 4263 H 403.249 1.59384 1.98668 0
M  V30 4264 H 404.032 3.14755 1.37056 0
M  V30 4265 N 406.477 -1.02803 1.19454 0
M  V30 4266 C 407.725 -1.75869 0.995722 0
M  V30 4267 C 408.046 -1.89138 -0.474543 0
M  V30 4268 O 407.316 -1.42558 -1.34366 0
M  V30 4269 H 405.896 -0.651511 0.365435 0
M  V30 4270 H 408.558 -1.24004 1.50363 0
M  V30 4271 H 407.654 -2.76661 1.44447 0
M  V30 4272 N 407.956 -0.998596 -1.21925 0
M  V30 4273 C 408.886 -0.573688 -2.26343 0
M  V30 4274 C 409.867 0.402296 -1.65274 0
M  V30 4275 O 411.052 0.291683 -1.91997 0
M  V30 4276 C 408.182 0.106839 -3.47136 0
M  V30 4277 C 407.136 -0.788269 -4.20678 0
M  V30 4278 C 406.462 0.0254927 -5.34694 0
M  V30 4279 C 407.762 -2.08784 -4.78755 0
M  V30 4280 H 409.456 -1.44651 -2.62138 0
M  V30 4281 H 407.002 -0.696975 -1.26009 0
M  V30 4282 H 408.955 0.415531 -4.19346 0
M  V30 4283 H 407.679 1.01424 -3.10452 0
M  V30 4284 H 406.338 -1.08069 -3.50309 0
M  V30 4285 H 405.986 0.933989 -4.94253 0
M  V30 4286 H 405.686 -0.570437 -5.84825 0
M  V30 4287 H 407.21 0.328147 -6.09718 0
M  V30 4288 H 408.624 -1.84272 -5.42878 0
M  V30 4289 H 407.021 -2.63307 -5.39249 0
M  V30 4290 H 408.091 -2.76284 -3.98491 0
M  V30 4291 N 409.434 1.37368 -0.772513 0
M  V30 4292 C 410.845 1.8231 -0.402493 0
M  V30 4293 C 411.196 1.6436 1.07146 0
M  V30 4294 O 410.321 1.15514 1.82991 0
M  V30 4295 C 410.916 3.30979 -0.723776 0
M  V30 4296 C 409.475 3.74195 -0.406802 0
M  V30 4297 C 408.622 2.59885 -0.967218 0
M  V30 4298 H 411.573 1.25829 -0.967099 0
M  V30 4299 H 411.594 3.80499 -0.00870832 0
M  V30 4300 H 411.106 3.44011 -1.7966 0
M  V30 4301 H 409.207 3.66732 0.658673 0
M  V30 4302 H 409.32 4.7027 -0.915588 0
M  V30 4303 H 407.684 2.51674 -0.391416 0
M  V30 4304 H 408.467 2.7571 -2.04546 0
M  V30 4305 N 410.912 0.523116 1.48665 0
M  V30 4306 C 412.137 -0.0117284 2.07397 0
M  V30 4307 C 412.562 -1.28031 1.37803 0
M  V30 4308 O 411.92 -1.75836 0.441762 0
M  V30 4309 C 411.968 -0.225786 3.59892 0
M  V30 4310 O 411.072 -1.29592 3.91509 0
M  V30 4311 H 410.413 0.0360673 0.66302 0
M  V30 4312 H 412.943 0.729066 1.9117 0
M  V30 4313 H 412.953 -0.450552 4.05505 0
M  V30 4314 H 411.628 0.700944 4.09951 0
M  V30 4315 H 410.205 -1.05436 3.57684 0
M  V30 4316 N 412.39 -1.55475 0.257931 0
M  V30 4317 C 413.322 -2.19192 -0.669881 0
M  V30 4318 C 414.335 -1.17148 -1.1305 0
M  V30 4319 O 415.524 -1.43959 -1.05537 0
M  V30 4320 C 412.624 -2.79016 -1.92363 0
M  V30 4321 C 411.797 -4.06586 -1.61265 0
M  V30 4322 C 410.856 -4.50622 -2.7171 0
M  V30 4323 O 409.882 -5.16765 -2.38627 0
M  V30 4324 N 411.084 -4.19325 -4.01431 0
M  V30 4325 H 413.849 -2.99441 -0.124635 0
M  V30 4326 H 411.41 -1.6171 0.0783311 0
M  V30 4327 H 413.402 -3.05427 -2.65511 0
M  V30 4328 H 411.972 -2.0286 -2.37837 0
M  V30 4329 H 411.192 -3.87646 -0.715811 0
M  V30 4330 H 412.48 -4.89737 -1.37967 0
M  V30 4331 H 411.878 -3.66247 -4.31138 0
M  V30 4332 H 410.435 -4.50547 -4.7101 0
M  V30 4333 N 413.868 0.0150385 -1.57593 0
M  V30 4334 C 415.114 0.69849 -1.91031 0
M  V30 4335 C 415.469 1.72208 -0.85804 0
M  V30 4336 O 414.762 1.91147 0.131614 0
M  V30 4337 C 414.956 1.39686 -3.28972 0
M  V30 4338 C 414.785 0.442428 -4.47518 0
M  V30 4339 C 413.555 0.0583223 -5.05266 0
M  V30 4340 C 415.753 -0.285072 -5.13509 0
M  V30 4341 N 413.735 -0.895893 -6.07328 0
M  V30 4342 C 415.106 -1.09447 -6.10263 0
M  V30 4343 C 417.161 -0.350518 -4.96665 0
M  V30 4344 C 415.864 -1.96333 -6.91987 0
M  V30 4345 C 417.89 -1.20655 -5.78962 0
M  V30 4346 C 417.252 -2.00383 -6.75297 0
M  V30 4347 H 413.351 0.22926 -0.747639 0
M  V30 4348 H 415.935 -0.0417748 -1.94655 0
M  V30 4349 H 414.106 2.1075 -3.2625 0
M  V30 4350 H 415.838 2.03381 -3.49883 0
M  V30 4351 H 412.593 0.423506 -4.71703 0
M  V30 4352 H 413.017 -1.36792 -6.63036 0
M  V30 4353 H 417.659 0.251596 -4.22051 0
M  V30 4354 H 415.377 -2.57618 -7.65936 0
M  V30 4355 H 418.963 -1.2609 -5.67972 0
M  V30 4356 H 417.843 -2.65552 -7.3787 0
M  V30 4357 N 415.346 1.54954 0.287554 0
M  V30 4358 C 416.762 1.46469 0.633964 0
M  V30 4359 C 416.962 0.666865 1.90145 0
M  V30 4360 O 416.018 0.179906 2.51858 0
M  V30 4361 C 417.331 2.90556 0.774454 0
M  V30 4362 C 418.879 3.00681 0.869462 0
M  V30 4363 C 419.354 4.45993 1.04184 0
M  V30 4364 N 420.845 4.4976 1.10772 0
M  V30 4365 C 421.58 5.59393 1.25964 0
M  V30 4366 N 421.076 6.78923 1.37968 0
M  V30 4367 N 422.869 5.47107 1.28959 0
M  V30 4368 H 415.02 2.05288 -0.545041 0
M  V30 4369 H 417.283 0.930305 -0.182308 0
M  V30 4370 H 416.989 3.51594 -0.086207 0
M  V30 4371 H 416.863 3.38743 1.6593 0
M  V30 4372 H 419.25 2.39749 1.7206 0
M  V30 4373 H 419.331 2.55769 -0.0396831 0
M  V30 4374 H 418.975 5.07524 0.195422 0
M  V30 4375 H 418.905 4.88548 1.96542 0
M  V30 4376 H 421.396 3.63651 1.02794 0
M  V30 4377 H 421.709 7.58231 1.49353 0
M  V30 4378 H 420.054 6.81763 1.34999 0
M  V30 4379 H 423.245 4.52668 1.19202 0
M  V30 4380 H 423.418 6.32595 1.40455 0
M  V30 4381 N 416.824 -0.551391 1.4764 0
M  V30 4382 C 418.24 -0.877887 1.33287 0
M  V30 4383 C 418.44 -1.98817 0.327721 0
M  V30 4384 O 417.496 -2.51171 -0.258695 0
M  V30 4385 C 418.809 -1.26563 2.72768 0
M  V30 4386 C 420.357 -1.37673 2.81097 0
M  V30 4387 C 420.832 -1.79799 4.21232 0
M  V30 4388 N 422.323 -1.8694 4.23802 0
M  V30 4389 C 423.058 -2.20876 5.29151 0
M  V30 4390 N 422.554 -2.53386 6.448 0
M  V30 4391 N 424.347 -2.217 5.16532 0
M  V30 4392 H 416.498 0.18153 2.11623 0
M  V30 4393 H 418.761 0.0185514 0.947818 0
M  V30 4394 H 418.467 -0.523591 3.47781 0
M  V30 4395 H 418.341 -2.22052 3.04915 0
M  V30 4396 H 420.728 -2.10956 2.06353 0
M  V30 4397 H 420.809 -0.40357 2.52596 0
M  V30 4398 H 420.453 -1.07083 4.96483 0
M  V30 4399 H 420.383 -2.78128 4.4716 0
M  V30 4400 H 422.874 -1.64179 3.40373 0
M  V30 4401 H 423.187 -2.78325 7.20941 0
M  V30 4402 H 421.532 -2.50953 6.48111 0
M  V30 4403 H 424.723 -1.95745 4.25207 0
M  V30 4404 H 424.896 -2.47818 5.98741 0
M  V30 4405 N 418.302 -1.35869 -0.798587 0
M  V30 4406 C 419.549 -1.29588 -1.55606 0
M  V30 4407 C 419.877 0.127456 -1.94082 0
M  V30 4408 O 419.132 1.09461 -1.62225 0
M  V30 4409 C 419.431 -2.1556 -2.85077 0
M  V30 4410 C 419.097 -3.6424 -2.65781 0
M  V30 4411 C 417.759 -4.04766 -2.60227 0
M  V30 4412 C 420.111 -4.58547 -2.47758 0
M  V30 4413 C 417.439 -5.37753 -2.34603 0
M  V30 4414 C 419.791 -5.91742 -2.23662 0
M  V30 4415 C 418.455 -6.31402 -2.16534 0
M  V30 4416 H 417.725 -0.474197 -0.569402 0
M  V30 4417 H 420.372 -1.67839 -0.922086 0
M  V30 4418 H 418.677 -1.70216 -3.52893 0
M  V30 4419 H 420.374 -2.08031 -3.42818 0
M  V30 4420 H 416.964 -3.32086 -2.70956 0
M  V30 4421 H 421.148 -4.28117 -2.51056 0
M  V30 4422 H 416.404 -5.67474 -2.2756 0
M  V30 4423 H 420.578 -6.6439 -2.08708 0
M  V30 4424 H 418.205 -7.34381 -1.96441 0
M  V30 4425 N 419.78 1.02168 -1.19998 0
M  V30 4426 C 421.008 1.79296 -1.03249 0
M  V30 4427 C 421.423 1.84103 0.418502 0
M  V30 4428 O 420.78 1.29031 1.29063 0
M  V30 4429 C 420.831 3.24007 -1.60319 0
M  V30 4430 O 420.552 3.19512 -2.99739 0
M  V30 4431 C 422.053 4.17704 -1.48453 0
M  V30 4432 H 419.273 0.564016 -0.363493 0
M  V30 4433 H 421.817 1.28639 -1.58973 0
M  V30 4434 H 419.972 3.7183 -1.08727 0
M  V30 4435 H 420.386 4.10306 -3.26725 0
M  V30 4436 H 421.86 5.17104 -1.93153 0
M  V30 4437 H 422.337 4.37029 -0.436193 0
M  V30 4438 H 422.943 3.7576 -1.99211 0
M  V30 4439 N 421.258 1.00505 1.21394 0
M  V30 4440 C 422.168 0.574806 2.27449 0
M  V30 4441 C 423.184 -0.382206 1.6975 0
M  V30 4442 O 424.36 -0.246027 1.99892 0
M  V30 4443 C 421.425 -0.0917414 3.46579 0
M  V30 4444 C 420.486 0.909758 4.1955 0
M  V30 4445 C 419.719 0.274924 5.32991 0
M  V30 4446 O 419.942 -0.928254 5.62796 0
M  V30 4447 O 418.876 0.985877 5.93771 0
M  V30 4448 H 422.702 1.45744 2.66444 0
M  V30 4449 H 420.287 0.773923 1.27792 0
M  V30 4450 H 422.169 -0.464551 4.18832 0
M  V30 4451 H 420.844 -0.948755 3.09484 0
M  V30 4452 H 419.751 1.33372 3.49518 0
M  V30 4453 H 421.084 1.73636 4.60555 0
M  V30 4454 N 422.737 -1.36956 0.779787 0
M  V30 4455 C 424.148 -1.82094 0.412156 0
M  V30 4456 C 424.499 -1.64926 -1.06273 0
M  V30 4457 O 423.624 -1.16483 -1.82375 0
M  V30 4458 C 424.219 -3.3059 0.741319 0
M  V30 4459 C 422.778 -3.73974 0.426641 0
M  V30 4460 C 421.925 -2.59368 0.980987 0
M  V30 4461 H 424.876 -1.25314 0.973758 0
M  V30 4462 H 424.897 -3.80489 0.028887 0
M  V30 4463 H 424.409 -3.43054 1.81482 0
M  V30 4464 H 422.51 -3.67076 -0.639215 0
M  V30 4465 H 422.623 -4.69778 0.940515 0
M  V30 4466 H 420.987 -2.51463 0.404757 0
M  V30 4467 H 421.77 -2.74621 2.06005 0
M  V30 4468 N 424.215 -0.530993 -1.48385 0
M  V30 4469 C 425.178 0.220497 -2.28137 0
M  V30 4470 C 426.178 0.866851 -1.35434 0
M  V30 4471 O 427.368 0.726746 -1.58316 0
M  V30 4472 C 424.5 1.31921 -3.1434 0
M  V30 4473 H 425.693 -0.479714 -2.96038 0
M  V30 4474 H 423.246 -0.286968 -1.53643 0
M  V30 4475 H 423.981 2.05264 -2.51072 0
M  V30 4476 H 423.766 0.86085 -3.82533 0
M  V30 4477 H 425.256 1.84776 -3.74497 0
M  V30 4478 N 425.693 1.55336 -0.266172 0
M  V30 4479 C 426.623 2.25146 0.618981 0
M  V30 4480 C 427.604 1.23845 1.16604 0
M  V30 4481 O 428.789 1.52544 1.20183 0
M  V30 4482 C 425.919 2.96572 1.80728 0
M  V30 4483 C 424.873 4.04726 1.39215 0
M  V30 4484 C 424.199 4.63678 2.66283 0
M  V30 4485 C 425.499 5.19407 0.548942 0
M  V30 4486 H 427.193 2.99377 0.0368116 0
M  V30 4487 H 424.739 1.43991 0.0162651 0
M  V30 4488 H 426.692 3.44116 2.43232 0
M  V30 4489 H 425.416 2.19861 2.41514 0
M  V30 4490 H 424.075 3.57979 0.790351 0
M  V30 4491 H 423.723 3.83646 3.25308 0
M  V30 4492 H 423.423 5.367 2.39222 0
M  V30 4493 H 424.947 5.13967 3.29651 0
M  V30 4494 H 426.361 5.63059 1.07876 0
M  V30 4495 H 424.758 5.98936 0.373593 0
M  V30 4496 H 425.828 4.8295 -0.434394 0
M  V30 4497 N 427.171 -0.0066808 1.57599 0
M  V30 4498 C 428.587 -0.36267 1.55425 0
M  V30 4499 C 428.787 -1.75209 0.995187 0
M  V30 4500 O 427.843 -2.44616 0.626058 0
M  V30 4501 C 429.156 -0.244017 2.99708 0
M  V30 4502 C 430.704 -0.319451 3.11366 0
M  V30 4503 C 431.179 -0.229998 4.57422 0
M  V30 4504 N 432.67 -0.288105 4.62303 0
M  V30 4505 C 433.405 -0.242127 5.72889 0
M  V30 4506 N 432.901 -0.147133 6.92644 0
M  V30 4507 N 434.694 -0.293502 5.61333 0
M  V30 4508 H 426.845 0.902314 1.92281 0
M  V30 4509 H 429.108 0.34525 0.882896 0
M  V30 4510 H 428.814 0.711678 3.44424 0
M  V30 4511 H 428.688 -1.02877 3.629 0
M  V30 4512 H 431.075 -1.26559 2.66584 0
M  V30 4513 H 431.156 0.495055 2.50964 0
M  V30 4514 H 430.8 0.712566 5.02877 0
M  V30 4515 H 430.73 -1.0629 5.15761 0
M  V30 4516 H 433.221 -0.363126 3.76151 0
M  V30 4517 H 433.534 -0.117763 7.7271 0
M  V30 4518 H 431.879 -0.112857 6.94908 0
M  V30 4519 H 435.07 -0.365864 4.66668 0
M  V30 4520 H 435.243 -0.254204 6.47501 0
M  V30 4521 N 428.649 -1.55105 -0.279332 0
M  V30 4522 C 429.582 -1.82467 -1.37044 0
M  V30 4523 C 430.56 -0.677261 -1.47824 0
M  V30 4524 O 431.744 -0.919578 -1.64548 0
M  V30 4525 C 428.871 -1.98066 -2.7475 0
M  V30 4526 C 427.917 -3.20594 -2.81286 0
M  V30 4527 S 428.75 -4.78116 -2.41175 0
M  V30 4528 C 429.906 -4.9668 -3.80867 0
M  V30 4529 H 430.139 -2.74728 -1.1363 0
M  V30 4530 H 427.672 -1.46794 -0.478625 0
M  V30 4531 H 429.63 -2.07739 -3.54055 0
M  V30 4532 H 428.291 -1.06704 -2.9542 0
M  V30 4533 H 427.484 -3.28376 -3.82341 0
M  V30 4534 H 427.086 -3.09479 -2.09996 0
M  V30 4535 H 429.378 -4.82033 -4.76078 0
M  V30 4536 H 430.321 -5.98741 -3.78041 0
M  V30 4537 H 430.729 -4.24698 -3.71876 0
M  V30 4538 N 430.127 0.543554 -1.4793 0
M  V30 4539 C 431.374 1.30008 -1.55255 0
M  V30 4540 C 431.702 1.93245 -0.220612 0
M  V30 4541 O 430.957 1.79141 0.787843 0
M  V30 4542 C 431.256 2.42078 -2.62932 0
M  V30 4543 C 430.922 1.96583 -4.0579 0
M  V30 4544 C 429.584 1.83893 -4.44676 0
M  V30 4545 C 431.936 1.62034 -4.95373 0
M  V30 4546 C 429.264 1.34969 -5.70964 0
M  V30 4547 C 431.616 1.14577 -6.22137 0
M  V30 4548 C 430.28 1.00493 -6.59892 0
M  V30 4549 H 429.55 0.475735 -0.568117 0
M  V30 4550 H 432.197 0.608075 -1.81589 0
M  V30 4551 H 430.502 3.16892 -2.30406 0
M  V30 4552 H 432.199 3.00236 -2.65818 0
M  V30 4553 H 428.789 2.07407 -3.75074 0
M  V30 4554 H 432.973 1.70705 -4.66019 0
M  V30 4555 H 428.229 1.2274 -5.98953 0
M  V30 4556 H 432.403 0.869109 -6.90955 0
M  V30 4557 H 430.03 0.623624 -7.57638 0
M  V30 4558 N 431.605 1.3629 0.791371 0
M  V30 4559 C 432.537 1.26321 1.91248 0
M  V30 4560 C 433.55 0.18313 1.61767 0
M  V30 4561 O 434.739 0.437682 1.73051 0
M  V30 4562 C 431.839 0.925901 3.26007 0
M  V30 4563 C 431.012 2.10746 3.83281 0
M  V30 4564 C 430.071 1.74352 4.96475 0
M  V30 4565 O 429.097 2.46416 5.13096 0
M  V30 4566 N 430.299 0.676058 5.7655 0
M  V30 4567 H 433.064 2.22915 2.00323 0
M  V30 4568 H 430.625 1.29659 0.969546 0
M  V30 4569 H 432.617 0.663636 3.99222 0
M  V30 4570 H 431.187 0.0491581 3.12561 0
M  V30 4571 H 430.407 2.53264 3.02077 0
M  V30 4572 H 431.695 2.8969 4.18279 0
M  V30 4573 H 431.093 0.0776467 5.65647 0
M  V30 4574 H 429.65 0.473612 6.50077 0
M  V30 4575 N 433.083 -1.0153 1.20538 0
M  V30 4576 C 434.499 -1.27461 0.96051 0
M  V30 4577 C 434.699 -1.98273 -0.359193 0
M  V30 4578 O 433.755 -2.27886 -1.0874 0
M  V30 4579 C 435.068 -2.10837 2.14402 0
M  V30 4580 C 436.616 -2.24099 2.18515 0
M  V30 4581 C 437.091 -3.10852 3.36355 0
M  V30 4582 N 438.582 -3.18441 3.36377 0
M  V30 4583 C 439.317 -3.85795 4.24205 0
M  V30 4584 N 438.813 -4.55264 5.22213 0
M  V30 4585 N 440.606 -3.82331 4.12043 0
M  V30 4586 H 432.757 -0.539907 2.05423 0
M  V30 4587 H 435.02 -0.30092 0.898972 0
M  V30 4588 H 434.726 -1.66144 3.09983 0
M  V30 4589 H 434.6 -3.11576 2.12604 0
M  V30 4590 H 436.987 -2.68016 1.23497 0
M  V30 4591 H 437.068 -1.22865 2.24361 0
M  V30 4592 H 436.712 -2.6764 4.31661 0
M  V30 4593 H 436.642 -4.12177 3.27746 0
M  V30 4594 H 439.133 -2.68978 2.65442 0
M  V30 4595 H 439.446 -5.04331 5.85551 0
M  V30 4596 H 437.791 -4.54085 5.26148 0
M  V30 4597 H 440.982 -3.27207 3.34743 0
M  V30 4598 H 441.155 -4.34547 4.807 0
M  V30 4599 N 434.561 -1.01147 -1.20859 0
M  V30 4600 C 435.491 -0.597663 -2.25722 0
M  V30 4601 C 436.472 0.384744 -1.65692 0
M  V30 4602 O 437.657 0.271303 -1.92296 0
M  V30 4603 C 434.787 0.0700149 -3.47229 0
M  V30 4604 C 433.741 -0.832843 -4.19819 0
M  V30 4605 C 433.067 -0.0312202 -5.34691 0
M  V30 4606 C 434.367 -2.1385 -4.76514 0
M  V30 4607 H 436.061 -1.47423 -2.60589 0
M  V30 4608 H 433.607 -0.710301 -1.25263 0
M  V30 4609 H 435.56 0.37103 -4.19763 0
M  V30 4610 H 434.284 0.981259 -3.11511 0
M  V30 4611 H 432.943 -1.11778 -3.49144 0
M  V30 4612 H 432.591 0.881515 -4.95215 0
M  V30 4613 H 432.291 -0.632434 -5.84187 0
M  V30 4614 H 433.815 0.26346 -6.10031 0
M  V30 4615 H 435.229 -1.9002 -5.40893 0
M  V30 4616 H 433.626 -2.69012 -5.36426 0
M  V30 4617 H 434.696 -2.80495 -3.95538 0
M  V30 4618 N 436.039 1.36541 -0.78704 0
M  V30 4619 C 436.969 2.32659 -0.197992 0
M  V30 4620 C 437.95 1.56533 0.665697 0
M  V30 4621 O 439.135 1.84698 0.60001 0
M  V30 4622 C 436.265 3.40778 0.669901 0
M  V30 4623 C 435.219 4.27897 -0.0937039 0
M  V30 4624 C 434.545 5.27163 0.894629 0
M  V30 4625 C 435.845 5.06334 -1.28154 0
M  V30 4626 H 437.539 2.82171 -1.00099 0
M  V30 4627 H 435.085 1.35665 -0.482793 0
M  V30 4628 H 437.038 4.07008 1.09191 0
M  V30 4629 H 435.762 2.89827 1.50558 0
M  V30 4630 H 434.421 3.6322 -0.49666 0
M  V30 4631 H 434.069 4.72486 1.72527 0
M  V30 4632 H 433.769 5.86317 0.388149 0
M  V30 4633 H 435.293 5.96266 1.31525 0
M  V30 4634 H 436.707 5.65617 -0.93541 0
M  V30 4635 H 435.104 5.74888 -1.72115 0
M  V30 4636 H 436.174 4.38114 -2.07807 0
M  V30 4637 N 437.518 0.538854 1.48102 0
M  V30 4638 C 438.481 -0.208395 2.28251 0
M  V30 4639 C 439.481 -0.859656 1.35892 0
M  V30 4640 O 440.671 -0.71834 1.58699 0
M  V30 4641 C 437.803 -1.30252 3.15035 0
M  V30 4642 H 438.996 0.495407 2.9578 0
M  V30 4643 H 436.549 0.295112 1.53489 0
M  V30 4644 H 437.284 -2.0393 2.52157 0
M  V30 4645 H 437.069 -0.840551 3.82985 0
M  V30 4646 H 438.559 -1.82787 3.75471 0
M  V30 4647 N 438.996 -1.55193 0.274407 0
M  V30 4648 C 439.926 -2.25471 -0.607032 0
M  V30 4649 C 440.907 -1.24461 -1.15946 0
M  V30 4650 O 442.092 -1.53179 -1.19373 0
M  V30 4651 C 439.222 -2.97526 -1.79153 0
M  V30 4652 C 438.176 -4.05459 -1.37067 0
M  V30 4653 C 437.502 -4.65084 -2.6382 0
M  V30 4654 C 438.802 -5.19691 -0.521389 0
M  V30 4655 H 440.496 -2.99393 -0.0209343 0
M  V30 4656 H 438.042 -1.43997 -0.00862866 0
M  V30 4657 H 439.995 -3.45402 -2.41404 0
M  V30 4658 H 438.719 -2.21138 -2.40344 0
M  V30 4659 H 437.378 -3.58393 -0.771355 0
M  V30 4660 H 437.026 -3.85365 -3.23268 0
M  V30 4661 H 436.726 -5.37961 -2.36372 0
M  V30 4662 H 438.25 -5.15708 -3.26921 0
M  V30 4663 H 439.664 -5.63623 -1.04889 0
M  V30 4664 H 438.061 -5.99126 -0.341825 0
M  V30 4665 H 439.131 -4.82713 0.46 0
M  V30 4666 N 440.474 -0.00167713 -1.576 0
M  V30 4667 C 441.384 1.00548 -2.1196 0
M  V30 4668 C 442.4 1.3758 -1.06526 0
M  V30 4669 O 443.576 1.46278 -1.38436 0
M  V30 4670 C 440.641 2.27809 -2.6135 0
M  V30 4671 C 439.702 1.97074 -3.81393 0
M  V30 4672 C 438.935 3.18267 -4.28417 0
M  V30 4673 O 439.158 4.30009 -3.74765 0
M  V30 4674 O 438.092 3.02167 -5.20556 0
M  V30 4675 H 441.918 0.573373 -2.98238 0
M  V30 4676 H 439.503 0.217255 -1.47812 0
M  V30 4677 H 441.385 3.02568 -2.93309 0
M  V30 4678 H 440.06 2.70254 -1.78169 0
M  V30 4679 H 438.967 1.19785 -3.54404 0
M  V30 4680 H 440.3 1.59464 -4.65652 0
M  V30 4681 N 441.952 1.55251 0.271103 0
M  V30 4682 C 443.363 1.66635 0.842007 0
M  V30 4683 C 443.714 0.594631 1.86972 0
M  V30 4684 O 442.839 -0.263532 2.14789 0
M  V30 4685 C 443.434 3.02082 1.53401 0
M  V30 4686 C 441.993 3.15487 2.05293 0
M  V30 4687 C 441.14 2.62438 0.895631 0
M  V30 4688 H 444.091 1.58629 0.0474117 0
M  V30 4689 H 444.112 2.95176 2.40107 0
M  V30 4690 H 443.624 3.80062 0.785786 0
M  V30 4691 H 441.725 2.42284 2.83071 0
M  V30 4692 H 441.838 4.22075 2.26693 0
M  V30 4693 H 440.202 2.19644 1.28953 0
M  V30 4694 H 440.985 3.42923 0.160878 0
M  V30 4695 N 443.43 -0.535701 1.48216 0
M  V30 4696 C 444.34 -1.66785 1.64985 0
M  V30 4697 C 445.356 -1.65654 0.532414 0
M  V30 4698 O 446.532 -1.8471 0.80275 0
M  V30 4699 C 443.597 -3.0326 1.68031 0
M  V30 4700 C 442.658 -3.1529 2.9136 0
M  V30 4701 C 441.891 -4.45255 2.94252 0
M  V30 4702 O 442.114 -5.32011 2.05719 0
M  V30 4703 O 441.048 -4.6153 3.86359 0
M  V30 4704 H 444.874 -1.55576 2.60825 0
M  V30 4705 H 442.459 -0.70815 1.31551 0
M  V30 4706 H 444.341 -3.84436 1.72589 0
M  V30 4707 H 443.016 -3.14805 0.753628 0
M  V30 4708 H 441.923 -2.3343 2.92337 0
M  V30 4709 H 443.256 -3.08658 3.83394 0
M  V30 4710 N 444.908 -1.36708 -0.784132 0
M  V30 4711 C 446.324 -1.17237 -1.08294 0
M  V30 4712 C 446.524 -5.93947e-05 -2.015 0
M  V30 4713 O 445.58 0.663686 -2.43622 0
M  V30 4714 C 446.893 -2.48557 -1.69233 0
M  V30 4715 C 448.441 -2.54968 -1.8155 0
M  V30 4716 C 448.916 -3.86388 -2.45904 0
M  V30 4717 N 450.407 -3.87762 -2.53367 0
M  V30 4718 C 451.142 -4.86191 -3.03983 0
M  V30 4719 N 450.638 -5.95015 -3.54866 0
M  V30 4720 N 452.431 -4.73606 -3.02743 0
M  V30 4721 H 444.582 -2.11758 -0.16501 0
M  V30 4722 H 446.845 -0.93822 -0.135822 0
M  V30 4723 H 446.551 -3.34638 -1.08215 0
M  V30 4724 H 446.425 -2.64748 -2.68679 0
M  V30 4725 H 448.812 -1.69302 -2.41704 0
M  V30 4726 H 448.893 -2.42672 -0.80895 0
M  V30 4727 H 448.537 -4.72462 -1.86392 0
M  V30 4728 H 448.467 -3.95982 -3.4714 0
M  V30 4729 H 450.958 -3.09145 -2.17343 0
M  V30 4730 H 451.271 -6.66086 -3.91854 0
M  V30 4731 H 449.616 -5.98676 -3.53003 0
M  V30 4732 H 452.807 -3.87717 -2.62284 0
M  V30 4733 H 452.98 -5.50473 -3.41881 0
M  V30 4734 N 446.386 1.0089 -1.21074 0
M  V30 4735 C 447.802 1.2695 -0.967257 0
M  V30 4736 C 448.002 1.9846 0.348673 0
M  V30 4737 O 447.058 2.28459 1.0753 0
M  V30 4738 C 448.371 2.09697 -2.15517 0
M  V30 4739 C 449.919 2.22937 -2.197 0
M  V30 4740 C 450.394 3.09064 -3.37999 0
M  V30 4741 N 451.885 3.16653 -3.38061 0
M  V30 4742 C 452.62 3.8354 -4.26245 0
M  V30 4743 N 452.116 4.52488 -5.2462 0
M  V30 4744 N 453.909 3.80141 -4.14064 0
M  V30 4745 H 446.06 0.529005 -2.05707 0
M  V30 4746 H 448.323 0.296148 -0.900556 0
M  V30 4747 H 448.029 1.64497 -3.10859 0
M  V30 4748 H 447.903 3.10444 -2.14253 0
M  V30 4749 H 450.29 2.67357 -1.24916 0
M  V30 4750 H 450.371 1.21673 -2.2501 0
M  V30 4751 H 450.015 2.65347 -4.33074 0
M  V30 4752 H 449.945 4.10433 -3.29928 0
M  V30 4753 H 452.436 2.67566 -2.66865 0
M  V30 4754 H 452.749 5.01219 -5.88217 0
M  V30 4755 H 451.094 4.51288 -5.28549 0
M  V30 4756 H 454.285 3.25427 -3.36474 0
M  V30 4757 H 454.458 4.31992 -4.82998 0
M  V30 4758 N 447.864 1.01787 1.20321 0
M  V30 4759 C 449.112 0.706538 1.89347 0
M  V30 4760 C 449.433 -0.766289 1.79313 0
M  V30 4761 O 448.703 -1.55126 1.19635 0
M  V30 4762 H 447.283 0.258348 0.700903 0
M  V30 4763 H 449.945 1.28974 1.46122 0
M  V30 4764 H 449.041 0.991066 2.95946 0
M  V30 4765 N 449.342 -1.36122 0.79427 0
M  V30 4766 C 450.753 -1.81646 0.431446 0
M  V30 4767 C 451.104 -1.66043 -1.04518 0
M  V30 4768 O 450.229 -1.1841 -1.8113 0
M  V30 4769 C 450.824 -3.29785 0.776341 0
M  V30 4770 C 449.383 -3.73501 0.466282 0
M  V30 4771 C 448.53 -2.58313 1.00844 0
M  V30 4772 H 451.481 -1.24274 0.986995 0
M  V30 4773 H 451.502 -3.80437 0.0692413 0
M  V30 4774 H 451.014 -3.4111 1.8511 0
M  V30 4775 H 449.115 -3.67733 -0.600245 0
M  V30 4776 H 449.228 -4.68754 0.990288 0
M  V30 4777 H 447.592 -2.5102 0.431406 0
M  V30 4778 H 448.375 -2.72421 2.08906 0
M  V30 4779 N 450.82 -0.546701 -1.47814 0
M  V30 4780 C 451.783 0.196287 -2.28358 0
M  V30 4781 C 452.783 0.852437 -1.36346 0
M  V30 4782 O 453.973 0.709913 -1.59078 0
M  V30 4783 C 451.105 1.28579 -3.15722 0
M  V30 4784 H 452.298 -0.511086 -2.95513 0
M  V30 4785 H 449.851 -0.303248 -1.5333 0
M  V30 4786 H 450.586 2.0259 -2.53235 0
M  V30 4787 H 450.371 0.820229 -3.83425 0
M  V30 4788 H 451.861 1.80793 -3.76435 0
M  V30 4789 N 452.299 1.55045 -0.282633 0
M  V30 4790 C 453.246 2.22822 0.601566 0
M  V30 4791 C 454.216 1.20431 1.14392 0
M  V30 4792 O 455.401 1.48996 1.19184 0
M  V30 4793 C 452.541 2.95873 1.77632 0
M  V30 4794 C 451.654 4.12999 1.26711 0
M  V30 4795 C 450.789 4.73676 2.40426 0
M  V30 4796 C 449.828 5.82981 1.86545 0
M  V30 4797 N 448.965 6.3769 2.93762 0
M  V30 4798 H 453.805 2.97995 0.0169528 0
M  V30 4799 H 451.342 1.471 -0.00339964 0
M  V30 4800 H 453.3 3.36447 2.46697 0
M  V30 4801 H 451.93 2.2311 2.33285 0
M  V30 4802 H 450.982 3.77494 0.469314 0
M  V30 4803 H 452.294 4.91803 0.832518 0
M  V30 4804 H 451.448 5.17008 3.17471 0
M  V30 4805 H 450.187 3.94164 2.87203 0
M  V30 4806 H 449.192 5.39092 1.07983 0
M  V30 4807 H 450.417 6.64366 1.40694 0
M  V30 4808 H 448.363 5.61069 3.39908 0
M  V30 4809 H 448.28 7.11788 2.54744 0
M  V30 4810 H 449.548 6.8568 3.7076 0
M  V30 4811 N 453.777 0.010035 1.57597 0
M  V30 4812 C 454.687 -0.994226 2.12491 0
M  V30 4813 C 455.703 -1.37013 1.07254 0
M  V30 4814 O 456.879 -1.45542 1.3921 0
M  V30 4815 C 453.944 -2.2642 2.62555 0
M  V30 4816 C 453.005 -1.95049 3.82432 0
M  V30 4817 C 452.238 -3.15991 4.30099 0
M  V30 4818 O 452.461 -4.28015 3.7704 0
M  V30 4819 O 451.395 -2.99403 5.22151 0
M  V30 4820 H 455.221 -0.557549 2.98538 0
M  V30 4821 H 452.806 -0.209413 1.47925 0
M  V30 4822 H 454.688 -3.01009 2.9491 0
M  V30 4823 H 453.363 -2.69306 1.796 0
M  V30 4824 H 452.27 -1.17904 3.55034 0
M  V30 4825 H 453.603 -1.56992 4.66491 0
M  V30 4826 N 455.255 -1.55392 -0.262866 0
M  V30 4827 C 456.501 -1.76737 -0.99458 0
M  V30 4828 C 456.834 -0.572453 -1.85571 0
M  V30 4829 O 456.109 0.429732 -1.89693 0
M  V30 4830 C 456.392 -3.07824 -1.8686 0
M  V30 4831 C 456.245 -4.3769 -1.03672 0
M  V30 4832 C 457.564 -3.35021 -2.85393 0
M  V30 4833 H 454.683 -0.643005 -0.360157 0
M  V30 4834 H 457.325 -1.88126 -0.266216 0
M  V30 4835 H 455.475 -2.98245 -2.48962 0
M  V30 4836 H 457.147 -4.59238 -0.43563 0
M  V30 4837 H 455.39 -4.32461 -0.340513 0
M  V30 4838 H 456.061 -5.25759 -1.6817 0
M  V30 4839 H 458.537 -3.44458 -2.33426 0
M  V30 4840 H 457.413 -4.27989 -3.43681 0
M  V30 4841 H 457.674 -2.55153 -3.61039 0
M  V30 4842 N 456.733 0.527833 -1.48498 0
M  V30 4843 C 457.98 1.28354 -1.56625 0
M  V30 4844 C 458.308 1.93 -0.241096 0
M  V30 4845 O 457.563 1.79967 0.768798 0
M  V30 4846 C 457.862 2.39275 -2.65485 0
M  V30 4847 C 457.528 1.92268 -4.07853 0
M  V30 4848 C 456.19 1.79166 -4.46602 0
M  V30 4849 C 458.542 1.56771 -4.97064 0
M  V30 4850 C 455.87 1.28905 -5.72364 0
M  V30 4851 C 458.222 1.07972 -6.23318 0
M  V30 4852 C 456.886 0.934887 -6.60921 0
M  V30 4853 H 456.156 0.469682 -0.573131 0
M  V30 4854 H 458.803 0.588781 -1.82224 0
M  V30 4855 H 457.108 3.1443 -2.33754 0
M  V30 4856 H 458.805 2.974 -2.68988 0
M  V30 4857 H 455.395 2.03417 -3.77252 0
M  V30 4858 H 459.579 1.65753 -4.67803 0
M  V30 4859 H 454.835 1.16381 -6.00221 0
M  V30 4860 H 459.009 0.795775 -6.91838 0
M  V30 4861 H 456.636 0.543231 -7.58257 0
M  V30 4862 N 458.211 1.37122 0.776871 0
M  V30 4863 C 459.627 1.1781 1.07671 0
M  V30 4864 C 459.827 0.0107454 2.01497 0
M  V30 4865 O 458.883 -0.650756 2.4397 0
M  V30 4866 C 460.196 2.49451 1.67913 0
M  V30 4867 C 461.744 2.55927 1.80195 0
M  V30 4868 C 462.219 3.87686 2.43851 0
M  V30 4869 N 463.71 3.891 2.51307 0
M  V30 4870 C 464.445 4.87797 3.014 0
M  V30 4871 N 463.941 5.96888 3.51705 0
M  V30 4872 N 465.734 4.75205 3.00227 0
M  V30 4873 H 457.885 2.11843 0.153778 0
M  V30 4874 H 460.148 0.938927 0.130844 0
M  V30 4875 H 459.854 3.35207 1.06439 0
M  V30 4876 H 459.728 2.66169 2.67271 0
M  V30 4877 H 462.115 1.70582 2.40803 0
M  V30 4878 H 462.196 2.43097 0.796069 0
M  V30 4879 H 461.84 4.73444 1.83884 0
M  V30 4880 H 461.77 3.97817 3.45035 0
M  V30 4881 H 464.261 3.10293 2.157 0
M  V30 4882 H 464.574 6.68155 3.88316 0
M  V30 4883 H 462.919 6.0054 3.49824 0
M  V30 4884 H 466.11 3.89103 2.60224 0
M  V30 4885 H 466.283 5.52279 3.38957 0
M  V30 4886 N 459.689 -1.00246 1.21608 0
M  V30 4887 C 460.936 -1.74061 1.03485 0
M  V30 4888 C 461.264 -1.89658 -0.431308 0
M  V30 4889 O 460.519 -1.42976 -1.33627 0
M  V30 4890 C 460.818 -3.15448 1.68009 0
M  V30 4891 C 460.484 -3.19792 3.17874 0
M  V30 4892 C 459.146 -3.20685 3.58768 0
M  V30 4893 C 461.498 -3.16835 4.13842 0
M  V30 4894 C 458.826 -3.16309 4.94131 0
M  V30 4895 C 461.178 -3.14001 5.49169 0
M  V30 4896 C 459.842 -3.13204 5.89457 0
M  V30 4897 H 459.112 -0.636934 0.378677 0
M  V30 4898 H 461.759 -1.17473 1.51236 0
M  V30 4899 H 460.064 -3.75284 1.12557 0
M  V30 4900 H 461.761 -3.71285 1.51487 0
M  V30 4901 H 458.351 -3.19842 2.85305 0
M  V30 4902 H 462.535 -3.15303 3.83272 0
M  V30 4903 H 457.791 -3.14032 5.24589 0
M  V30 4904 H 461.965 -3.10667 6.23265 0
M  V30 4905 H 459.592 -3.09568 6.94314 0
M  V30 4906 N 461.167 -1.02423 -1.1978 0
M  V30 4907 C 462.097 -0.62157 -2.25075 0
M  V30 4908 C 463.078 0.367148 -1.6609 0
M  V30 4909 O 464.263 0.250892 -1.92573 0
M  V30 4910 C 461.393 0.0331826 -3.47284 0
M  V30 4911 C 460.347 -0.877323 -4.18912 0
M  V30 4912 C 459.673 -0.0879296 -5.34628 0
M  V30 4913 C 460.973 -2.18892 -4.74219 0
M  V30 4914 H 462.667 -1.50179 -2.59011 0
M  V30 4915 H 460.213 -0.723547 -1.24502 0
M  V30 4916 H 462.166 0.326488 -4.20133 0
M  V30 4917 H 460.89 0.948164 -3.12534 0
M  V30 4918 H 459.549 -1.15475 -3.47938 0
M  V30 4919 H 459.197 0.828941 -4.96123 0
M  V30 4920 H 458.897 -0.694359 -5.83483 0
M  V30 4921 H 460.421 0.198743 -6.10276 0
M  V30 4922 H 461.835 -1.95746 -5.38847 0
M  V30 4923 H 460.232 -2.74686 -5.33542 0
M  V30 4924 H 461.302 -2.84674 -3.92541 0
M  V30 4925 N 462.645 1.35699 -0.801477 0
M  V30 4926 C 463.592 2.29876 -0.206294 0
M  V30 4927 C 464.562 1.52565 0.656752 0
M  V30 4928 O 465.747 1.81024 0.602906 0
M  V30 4929 C 462.887 3.39052 0.643272 0
M  V30 4930 C 462 4.31335 -0.239644 0
M  V30 4931 C 461.135 5.27599 0.61744 0
M  V30 4932 C 460.174 6.11521 -0.26619 0
M  V30 4933 N 459.311 6.99938 0.550571 0
M  V30 4934 H 464.151 2.80187 -1.01484 0
M  V30 4935 H 461.688 1.37902 -0.511997 0
M  V30 4936 H 463.646 4.0101 1.15094 0
M  V30 4937 H 462.276 2.9003 1.41713 0
M  V30 4938 H 461.328 3.70426 -0.865381 0
M  V30 4939 H 462.64 4.90243 -0.919985 0
M  V30 4940 H 461.794 5.94906 1.19045 0
M  V30 4941 H 460.533 4.69176 1.33137 0
M  V30 4942 H 459.538 5.43166 -0.851507 0
M  V30 4943 H 460.763 6.72022 -0.9779 0
M  V30 4944 H 458.709 6.44008 1.24856 0
M  V30 4945 H 458.626 7.55966 -0.071832 0
M  V30 4946 H 459.894 7.71599 1.10702 0
M  V30 4947 N 464.123 0.554532 1.47522 0
M  V30 4948 C 465.073 -0.215008 2.26984 0
M  V30 4949 C 466.057 -0.88774 1.34194 0
M  V30 4950 O 467.249 -0.786489 1.58567 0
M  V30 4951 C 464.378 -1.24604 3.19889 0
M  V30 4952 C 463.464 -0.576857 4.20159 0
M  V30 4953 N 463.855 0.351541 5.04577 0
M  V30 4954 C 462.153 -0.831104 4.38188 0
M  V30 4955 C 462.854 0.739995 5.76974 0
M  V30 4956 N 461.83 0.0954407 5.43516 0
M  V30 4957 H 465.632 0.498843 2.89636 0
M  V30 4958 H 463.146 0.374279 1.58028 0
M  V30 4959 H 465.143 -1.81128 3.75498 0
M  V30 4960 H 463.803 -1.96101 2.58794 0
M  V30 4961 H 464.814 0.725556 5.12792 0
M  V30 4962 H 461.491 -1.53479 3.88266 0
M  V30 4963 H 462.881 1.50271 6.5488 0
M  V30 4964 N 465.601 -1.54893 0.290851 0
M  V30 4965 C 466.511 -2.26812 -0.59945 0
M  V30 4966 C 467.527 -1.29963 -1.15696 0
M  V30 4967 O 468.703 -1.62928 -1.18391 0
M  V30 4968 C 465.768 -2.98716 -1.75982 0
M  V30 4969 C 464.829 -4.1108 -1.2374 0
M  V30 4970 C 464.062 -4.79546 -2.34246 0
M  V30 4971 O 464.285 -4.47309 -3.53936 0
M  V30 4972 O 463.219 -5.67165 -2.01512 0
M  V30 4973 H 467.045 -3.03696 -0.0163561 0
M  V30 4974 H 464.63 -1.49289 0.0576755 0
M  V30 4975 H 466.512 -3.43851 -2.43607 0
M  V30 4976 H 465.187 -2.24737 -2.3297 0
M  V30 4977 H 464.094 -3.70367 -0.527163 0
M  V30 4978 H 465.427 -4.87007 -0.71307 0
M  V30 4979 N 467.08 -0.0183926 -1.57589 0
M  V30 4980 C 468.01 0.965596 -2.12599 0
M  V30 4981 C 468.991 1.34641 -1.0395 0
M  V30 4982 O 470.176 1.42693 -1.31729 0
M  V30 4983 C 467.306 2.25149 -2.64434 0
M  V30 4984 C 466.26 2.01175 -3.77773 0
M  V30 4985 C 465.586 3.35937 -4.15994 0
M  V30 4986 C 466.886 1.35953 -5.04296 0
M  V30 4987 H 468.58 0.507504 -2.95067 0
M  V30 4988 H 466.126 0.242671 -1.41941 0
M  V30 4989 H 468.079 2.94357 -3.01549 0
M  V30 4990 H 466.803 2.73105 -1.79112 0
M  V30 4991 H 465.462 1.34388 -3.4108 0
M  V30 4992 H 465.11 3.81631 -3.27669 0
M  V30 4993 H 464.81 3.20705 -4.92364 0
M  V30 4994 H 466.334 4.0643 -4.55683 0
M  V30 4995 H 467.748 1.95144 -5.39065 0
M  V30 4996 H 466.145 1.31152 -5.85593 0
M  V30 4997 H 467.215 0.331071 -4.83768 0
M  V30 4998 N 468.558 1.5553 0.254621 0
M  V30 4999 C 469.786 1.81046 1.00149 0
M  V30 5000 C 470.201 0.593047 1.79244 0
M  V30 5001 O 469.558 -0.438196 1.77161 0
M  V30 5002 C 469.609 3.04684 1.94551 0
M  V30 5003 O 469.33 4.21725 1.18658 0
M  V30 5004 C 470.831 3.42943 2.80901 0
M  V30 5005 H 468.051 0.602653 0.295044 0
M  V30 5006 H 470.595 2.02576 0.279842 0
M  V30 5007 H 468.75 2.85226 2.62154 0
M  V30 5008 H 469.164 4.91746 1.82445 0
M  V30 5009 H 470.638 4.32576 3.42902 0
M  V30 5010 H 471.115 2.63176 3.51617 0
M  V30 5011 H 471.721 3.64724 2.18762 0
M  V30 5012 N 470.036 -0.519951 1.48776 0
M  V30 5013 C 471.261 -1.30447 1.6124 0
M  V30 5014 C 471.686 -1.86055 0.276591 0
M  V30 5015 O 471.044 -1.64915 -0.753183 0
M  V30 5016 C 471.092 -2.42406 2.66967 0
M  V30 5017 O 470.196 -3.45728 2.24824 0
M  V30 5018 H 469.537 -0.385924 0.540332 0
M  V30 5019 H 472.067 -0.624572 1.94834 0
M  V30 5020 H 472.077 -2.88447 2.88552 0
M  V30 5021 H 470.752 -2.01294 3.63941 0
M  V30 5022 H 469.329 -3.05737 2.13494 0
M  V30 5023 N 471.514 -1.37532 -0.769588 0
M  V30 5024 C 472.424 -1.35668 -1.91393 0
M  V30 5025 C 473.44 -0.255954 -1.72107 0
M  V30 5026 O 474.616 -0.491704 -1.95305 0
M  V30 5027 C 471.681 -1.16481 -3.26547 0
M  V30 5028 C 470.742 -2.36212 -3.58472 0
M  V30 5029 C 469.975 -2.17932 -4.87177 0
M  V30 5030 O 470.198 -1.1647 -5.58382 0
M  V30 5031 O 469.132 -3.06167 -5.18214 0
M  V30 5032 H 472.958 -2.32055 -1.95918 0
M  V30 5033 H 470.543 -1.18284 -0.912641 0
M  V30 5034 H 472.425 -1.07778 -4.07384 0
M  V30 5035 H 471.1 -0.231687 -3.2287 0
M  V30 5036 H 470.007 -2.50488 -2.77861 0
M  V30 5037 H 471.34 -3.281 -3.66894 0
M  V30 5038 N 472.992 0.995999 -1.22138 0
M  V30 5039 C 473.922 2.10387 -1.01289 0
M  V30 5040 C 474.903 1.69975 0.0651454 0
M  V30 5041 O 476.088 1.9396 -0.0964628 0
M  V30 5042 C 473.218 3.42312 -0.586517 0
M  V30 5043 C 472.172 3.96558 -1.61014 0
M  V30 5044 C 471.498 5.24494 -1.0397 0
M  V30 5045 C 472.798 4.27595 -2.99933 0
M  V30 5046 H 474.492 2.28086 -1.93951 0
M  V30 5047 H 472.038 1.09607 -0.933928 0
M  V30 5048 H 473.991 4.19223 -0.427793 0
M  V30 5049 H 472.715 3.24431 0.375761 0
M  V30 5050 H 471.374 3.21776 -1.75658 0
M  V30 5051 H 471.022 5.02953 -0.0688703 0
M  V30 5052 H 470.722 5.61755 -1.72352 0
M  V30 5053 H 472.246 6.04042 -0.892494 0
M  V30 5054 H 473.66 4.95315 -2.8868 0
M  V30 5055 H 472.057 4.76021 -3.6541 0
M  V30 5056 H 473.127 3.35498 -3.50099 0
M  V30 5057 N 474.47 1.03057 1.19235 0
M  V30 5058 C 475.886 0.747947 1.40989 0
M  V30 5059 C 476.086 -0.666752 1.90149 0
M  V30 5060 O 475.142 -1.43249 2.07933 0
M  V30 5061 C 476.455 1.7855 2.41951 0
M  V30 5062 C 478.003 1.80524 2.55695 0
M  V30 5063 C 478.478 2.83243 3.59913 0
M  V30 5064 N 479.969 2.8207 3.67411 0
M  V30 5065 C 480.704 3.58204 4.47747 0
M  V30 5066 N 480.2 4.44057 5.31775 0
M  V30 5067 N 481.993 3.46738 4.42413 0
M  V30 5068 H 474.144 1.94367 0.856468 0
M  V30 5069 H 476.407 0.840412 0.438647 0
M  V30 5070 H 476.113 2.79973 2.12857 0
M  V30 5071 H 475.987 1.6092 3.41152 0
M  V30 5072 H 478.374 0.79778 2.84112 0
M  V30 5073 H 478.455 2.02229 1.56643 0
M  V30 5074 H 478.099 3.84161 3.32239 0
M  V30 5075 H 478.029 2.58795 4.5862 0
M  V30 5076 H 480.52 2.19803 3.074 0
M  V30 5077 H 480.833 4.98884 5.90199 0
M  V30 5078 H 479.178 4.48129 5.3123 0
M  V30 5079 H 482.369 2.79077 3.75811 0
M  V30 5080 H 482.542 4.06322 5.04783 0
M  V30 5081 N 475.948 -1.35272 0.808662 0
M  V30 5082 C 477.364 -1.51806 0.492653 0
M  V30 5083 C 477.564 -1.7574 -0.985778 0
M  V30 5084 O 476.62 -1.80003 -1.77074 0
M  V30 5085 C 477.933 -2.69202 1.33981 0
M  V30 5086 C 479.481 -2.8308 1.33547 0
M  V30 5087 C 479.956 -4.03502 2.16679 0
M  V30 5088 N 481.447 -4.10684 2.14227 0
M  V30 5089 C 482.182 -5.02984 2.75308 0
M  V30 5090 N 481.678 -6.00603 3.45323 0
M  V30 5091 N 483.471 -4.95746 2.64938 0
M  V30 5092 H 475.622 -1.17993 1.76611 0
M  V30 5093 H 477.885 -0.577476 0.751814 0
M  V30 5094 H 477.591 -2.581 2.38909 0
M  V30 5095 H 477.465 -3.63854 0.994491 0
M  V30 5096 H 479.852 -2.93631 0.294036 0
M  V30 5097 H 479.933 -1.89278 1.72068 0
M  V30 5098 H 479.577 -3.93711 3.20864 0
M  V30 5099 H 479.507 -4.96489 1.75517 0
M  V30 5100 H 481.998 -3.40802 1.63285 0
M  V30 5101 H 482.311 -6.67633 3.89212 0
M  V30 5102 H 480.656 -6.0077 3.49428 0
M  V30 5103 H 483.847 -4.18439 2.09825 0
M  V30 5104 H 484.02 -5.67487 3.12829 0
M  V30 5105 N 477.426 -0.562348 -1.47226 0
M  V30 5106 C 478.842 -0.222492 -1.58042 0
M  V30 5107 C 479.042 1.27505 -1.56028 0
M  V30 5108 O 478.098 2.05555 -1.46641 0
M  V30 5109 C 479.411 -0.853694 -2.88327 0
M  V30 5110 C 480.959 -0.825397 -3.01921 0
M  V30 5111 C 481.434 -1.43576 -4.34914 0
M  V30 5112 N 482.925 -1.39918 -4.41562 0
M  V30 5113 C 483.66 -1.84103 -5.43041 0
M  V30 5114 N 483.156 -2.36167 -6.51304 0
M  V30 5115 N 484.949 -1.75142 -5.34118 0
M  V30 5116 H 477.1 -1.53525 -1.46778 0
M  V30 5117 H 479.363 -0.640527 -0.698877 0
M  V30 5118 H 479.069 -1.90635 -2.95552 0
M  V30 5119 H 478.943 -0.34977 -3.75575 0
M  V30 5120 H 481.33 0.218583 -2.94289 0
M  V30 5121 H 481.411 -1.36713 -2.16202 0
M  V30 5122 H 481.055 -2.47884 -4.43301 0
M  V30 5123 H 480.985 -0.869427 -5.19373 0
M  V30 5124 H 483.476 -1.0184 -3.63919 0
M  V30 5125 H 483.789 -2.67793 -7.24919 0
M  V30 5126 H 482.134 -2.40181 -6.52179 0
M  V30 5127 H 485.325 -1.34241 -4.48439 0
M  V30 5128 H 485.498 -2.09895 -6.13065 0
M  V30 5129 N 478.904 1.54736 -0.299062 0
M  V30 5130 C 480.315 1.8569 0.193971 0
M  V30 5131 C 480.666 1.22101 1.53577 0
M  V30 5132 O 479.791 0.51799 2.10109 0
M  V30 5133 C 480.386 3.36895 0.358733 0
M  V30 5134 C 478.945 3.67887 0.795986 0
M  V30 5135 C 478.092 2.77131 -0.096807 0
M  V30 5136 H 481.043 1.49934 -0.520134 0
M  V30 5137 H 481.064 3.61294 1.19361 0
M  V30 5138 H 480.576 3.83148 -0.617998 0
M  V30 5139 H 478.677 3.27151 1.78334 0
M  V30 5140 H 478.79 4.75114 0.616718 0
M  V30 5141 H 477.154 2.51153 0.423581 0
M  V30 5142 H 477.937 3.26204 -1.06986 0
M  V30 5143 N 480.382 0.0267497 1.57577 0
M  V30 5144 C 481.607 -0.666227 1.96408 0
M  V30 5145 C 482.032 -1.65004 0.903071 0
M  V30 5146 O 481.39 -1.80787 -0.136263 0
M  V30 5147 C 481.438 -1.35101 3.34335 0
M  V30 5148 O 480.542 -2.46623 3.30531 0
M  V30 5149 H 479.883 -0.175206 0.640468 0
M  V30 5150 H 482.413 0.0878977 2.04411 0
M  V30 5151 H 482.423 -1.70834 3.70513 0
M  V30 5152 H 481.098 -0.629844 4.11103 0
M  V30 5153 H 479.675 -2.13019 3.06068 0
M  V30 5154 N 481.861 -1.55662 -0.24637 0
M  V30 5155 C 482.811 -1.86753 -1.30795 0
M  V30 5156 C 483.795 -0.728445 -1.43466 0
M  V30 5157 O 484.987 -0.99038 -1.46699 0
M  V30 5158 C 482.116 -2.16618 -2.66329 0
M  V30 5159 C 481.202 -3.36855 -2.57661 0
M  V30 5160 N 481.593 -4.56111 -2.18624 0
M  V30 5161 C 479.891 -3.39976 -2.88673 0
M  V30 5162 C 480.592 -5.38247 -2.20601 0
M  V30 5163 N 479.568 -4.77322 -2.60124 0
M  V30 5164 H 483.37 -2.76486 -0.996642 0
M  V30 5165 H 480.884 -1.55896 -0.454994 0
M  V30 5166 H 482.881 -2.37057 -3.42942 0
M  V30 5167 H 481.541 -1.28185 -2.98327 0
M  V30 5168 H 482.552 -4.81726 -1.9016 0
M  V30 5169 H 479.229 -2.61815 -3.25206 0
M  V30 5170 H 480.619 -6.43657 -1.92756 0
M  V30 5171 N 483.339 0.512053 -1.4905 0
M  V30 5172 C 484.755 0.84224 -1.35567 0
M  V30 5173 C 484.955 1.97878 -0.380319 0
M  V30 5174 O 484.011 2.51769 0.19201 0
M  V30 5175 C 485.324 1.19286 -2.76028 0
M  V30 5176 C 486.872 1.30171 -2.84648 0
M  V30 5177 C 487.347 1.68568 -4.25851 0
M  V30 5178 N 488.838 1.75638 -4.28609 0
M  V30 5179 C 489.573 2.06769 -5.34821 0
M  V30 5180 N 489.069 2.36201 -6.51292 0
M  V30 5181 N 490.862 2.07927 -5.22229 0
M  V30 5182 H 483.013 -0.237574 -2.11067 0
M  V30 5183 H 485.276 -0.0436747 -0.946993 0
M  V30 5184 H 484.982 0.431199 -3.49047 0
M  V30 5185 H 484.856 2.13889 -3.10695 0
M  V30 5186 H 487.243 2.05411 -2.11873 0
M  V30 5187 H 487.324 0.336457 -2.53578 0
M  V30 5188 H 486.968 0.938824 -4.99148 0
M  V30 5189 H 486.898 2.66174 -4.54377 0
M  V30 5190 H 489.389 1.55097 -3.44606 0
M  V30 5191 H 489.702 2.59112 -7.28066 0
M  V30 5192 H 488.047 2.33681 -6.54536 0
M  V30 5193 H 491.238 1.84403 -4.30248 0
M  V30 5194 H 491.411 2.31856 -6.05101 0
M  V30 5195 N 484.817 1.37938 0.762283 0
M  V30 5196 C 485.78 1.34279 1.85747 0
M  V30 5197 C 486.78 0.244969 1.58923 0
M  V30 5198 O 487.97 0.501365 1.66829 0
M  V30 5199 C 485.102 1.08833 3.23061 0
M  V30 5200 H 486.295 2.31705 1.90401 0
M  V30 5201 H 483.848 1.23105 0.963057 0
M  V30 5202 H 484.583 0.119767 3.24079 0
M  V30 5203 H 484.368 1.88306 3.43923 0
M  V30 5204 H 485.858 1.08946 4.03138 0
M  V30 5205 N 486.295 -0.989507 1.22664 0
M  V30 5206 C 487.711 -1.25395 0.987331 0
M  V30 5207 C 487.911 -1.9899 -0.317056 0
M  V30 5208 O 486.967 -2.30141 -1.03882 0
M  V30 5209 C 488.28 -2.06242 2.18826 0
M  V30 5210 C 489.828 -2.19413 2.23219 0
M  V30 5211 C 490.303 -3.03648 3.42873 0
M  V30 5212 N 491.794 -3.11234 3.43056 0
M  V30 5213 C 492.529 -3.7671 4.32293 0
M  V30 5214 N 492.025 -4.44085 5.31752 0
M  V30 5215 N 493.818 -3.73505 4.2006 0
M  V30 5216 H 485.969 -0.496212 2.06522 0
M  V30 5217 H 488.232 -0.281784 0.905153 0
M  V30 5218 H 487.938 -1.59531 3.13437 0
M  V30 5219 H 487.812 -3.06996 2.19165 0
M  V30 5220 H 490.199 -2.65336 1.29154 0
M  V30 5221 H 490.28 -1.18078 2.26917 0
M  V30 5222 H 489.924 -2.58424 4.37241 0
M  V30 5223 H 489.854 -4.05132 3.36416 0
M  V30 5224 H 492.345 -2.63287 2.71088 0
M  V30 5225 H 492.658 -4.91797 5.96117 0
M  V30 5226 H 491.003 -4.42822 5.35662 0
M  V30 5227 H 494.194 -3.20033 3.41609 0
M  V30 5228 H 494.367 -4.24253 4.8981 0
M  V30 5229 N 487.773 -1.03688 -1.18687 0
M  V30 5230 C 488.72 -0.624624 -2.22187 0
M  V30 5231 C 489.69 0.365636 -1.62026 0
M  V30 5232 O 490.875 0.260481 -1.89014 0
M  V30 5233 C 488.015 0.0101738 -3.45099 0
M  V30 5234 C 487.128 -1.02709 -4.19613 0
M  V30 5235 C 486.263 -0.361213 -5.2997 0
M  V30 5236 C 485.302 -1.38384 -5.96252 0
M  V30 5237 N 484.439 -0.743196 -6.98155 0
M  V30 5238 H 489.279 -1.51176 -2.56807 0
M  V30 5239 H 486.816 -0.75636 -1.26165 0
M  V30 5240 H 488.774 0.395528 -4.15321 0
M  V30 5241 H 487.404 0.860848 -3.1111 0
M  V30 5242 H 486.456 -1.53043 -3.48256 0
M  V30 5243 H 487.768 -1.80398 -4.65036 0
M  V30 5244 H 486.922 0.0785537 -6.06649 0
M  V30 5245 H 485.661 0.447799 -4.8564 0
M  V30 5246 H 484.666 -1.83378 -5.18317 0
M  V30 5247 H 485.891 -2.19448 -6.42666 0
M  V30 5248 H 483.837 0.0455789 -6.55984 0
M  V30 5249 H 483.754 -1.45784 -7.41811 0
M  V30 5250 H 485.022 -0.327698 -7.78811 0
M  V30 5251 N 489.251 1.34841 -0.815825 0
M  V30 5252 C 490.662 1.80937 -0.46029 0
M  V30 5253 C 491.013 1.67685 1.01863 0
M  V30 5254 O 490.138 1.21277 1.79223 0
M  V30 5255 C 490.733 3.28509 -0.828708 0
M  V30 5256 C 489.292 3.72712 -0.525644 0
M  V30 5257 C 488.439 2.56676 -1.04941 0
M  V30 5258 H 491.39 1.22688 -1.00664 0
M  V30 5259 H 491.411 3.80279 -0.129757 0
M  V30 5260 H 490.923 3.38122 -1.90513 0
M  V30 5261 H 489.024 3.68642 0.541666 0
M  V30 5262 H 489.137 4.67119 -1.06474 0
M  V30 5263 H 487.501 2.50302 -0.471286 0
M  V30 5264 H 488.284 2.69063 -2.13214 0
M  V30 5265 N 490.729 0.570148 1.46925 0
M  V30 5266 C 492.14 0.1402 1.86173 0
M  V30 5267 C 492.491 -1.29347 1.47526 0
M  V30 5268 O 491.616 -1.97508 0.884292 0
M  V30 5269 C 492.211 0.247661 3.37894 0
M  V30 5270 C 490.77 -0.127332 3.76185 0
M  V30 5271 C 489.917 0.589349 2.70965 0
M  V30 5272 H 492.868 0.779117 1.38259 0
M  V30 5273 H 492.889 -0.530341 3.76786 0
M  V30 5274 H 492.401 1.29121 3.65991 0
M  V30 5275 H 490.502 -1.17149 3.53704 0
M  V30 5276 H 490.615 0.240238 4.78497 0
M  V30 5277 H 488.979 0.0309824 2.54681 0
M  V30 5278 H 489.762 1.6343 3.01903 0
M  V30 5279 N 492.207 -1.54576 0.307264 0
M  V30 5280 C 493.455 -1.99867 -0.299574 0
M  V30 5281 C 493.776 -1.19714 -1.53927 0
M  V30 5282 O 493.046 -0.29472 -1.9367 0
M  V30 5283 H 491.626 -0.738299 -0.113683 0
M  V30 5284 H 494.288 -1.9032 0.420042 0
M  V30 5285 H 493.384 -3.06901 -0.567283 0
M  V30 5286 N 493.685 -0.035106 -1.57561 0
M  V30 5287 C 494.962 0.681212 -1.83354 0
M  V30 5288 C 495.342 1.89986 -0.920252 0
M  V30 5289 O 494.69 2.28489 0.0226815 0
M  V30 5290 C 494.9 1.05376 -3.32712 0
M  V30 5291 C 496.248 1.44286 -3.99333 0
M  V30 5292 O 497.272 1.14656 -3.37242 0
M  V30 5293 O 496.131 1.99518 -5.08778 0
M  V30 5294 H 493.225 0.334741 -0.756226 0
M  V30 5295 H 495.771 -0.0632448 -1.69582 0
M  V30 5296 H 494.543 0.186668 -3.90854 0
M  V30 5297 H 494.166 1.85619 -3.51613 0
M  V30 5298 N 495.163 1.55791 0.238111 0
M  V30 5299 C 496.579 1.48411 0.587045 0
M  V30 5300 C 496.779 0.72702 1.87927 0
M  V30 5301 O 495.835 0.259942 2.51158 0
M  V30 5302 C 497.148 2.92873 0.681623 0
M  V30 5303 C 498.696 3.03295 0.773363 0
M  V30 5304 C 499.171 4.49082 0.899428 0
M  V30 5305 N 500.662 4.53056 0.964075 0
M  V30 5306 C 501.397 5.63117 1.08104 0
M  V30 5307 N 500.893 6.82969 1.16299 0
M  V30 5308 N 502.686 5.50933 1.11488 0
M  V30 5309 H 494.837 2.0345 -0.610076 0
M  V30 5310 H 497.1 0.924034 -0.211813 0
M  V30 5311 H 496.806 3.51142 -0.19802 0
M  V30 5312 H 496.68 3.43851 1.55069 0
M  V30 5313 H 499.067 2.45101 1.64346 0
M  V30 5314 H 499.148 2.55513 -0.121034 0
M  V30 5315 H 498.792 5.07889 0.0338586 0
M  V30 5316 H 498.722 4.94553 1.809 0
M  V30 5317 H 501.213 3.66737 0.91173 0
M  V30 5318 H 501.526 7.62598 1.25155 0
M  V30 5319 H 499.871 6.85712 1.13241 0
M  V30 5320 H 503.062 4.56231 1.0474 0
M  V30 5321 H 503.235 6.36743 1.20259 0
M  V30 5322 N 496.642 -0.504142 1.49319 0
M  V30 5323 C 498.053 -1.08572 1.51885 0
M  V30 5324 C 498.404 -1.93842 0.303255 0
M  V30 5325 O 497.529 -2.0828 -0.58724 0
M  V30 5326 C 498.124 -1.97574 2.75227 0
M  V30 5327 C 496.683 -2.509 2.80581 0
M  V30 5328 C 495.83 -1.28447 2.45757 0
M  V30 5329 H 498.781 -0.288194 1.56061 0
M  V30 5330 H 498.802 -2.82219 2.55211 0
M  V30 5331 H 498.314 -1.35486 3.63683 0
M  V30 5332 H 496.415 -3.16636 1.96398 0
M  V30 5333 H 496.528 -2.88268 3.82673 0
M  V30 5334 H 494.892 -1.60868 1.97468 0
M  V30 5335 H 495.675 -0.68072 3.36483 0
M  V30 5336 N 498.12 -1.38341 -0.754957 0
M  V30 5337 C 499.531 -1.30803 -1.3322 0
M  V30 5338 C 499.882 0.0368 -1.96165 0
M  V30 5339 O 499.007 0.938844 -1.94974 0
M  V30 5340 C 499.602 -2.3688 -2.42225 0
M  V30 5341 C 498.161 -2.32925 -2.95674 0
M  V30 5342 C 497.308 -2.19819 -1.69042 0
M  V30 5343 H 500.259 -1.48719 -0.553937 0
M  V30 5344 H 500.28 -2.02517 -3.22129 0
M  V30 5345 H 499.792 -3.34747 -1.96383 0
M  V30 5346 H 497.893 -1.38635 -3.45848 0
M  V30 5347 H 498.006 -3.27008 -3.50146 0
M  V30 5348 H 496.37 -1.66648 -1.92615 0
M  V30 5349 H 497.153 -3.19625 -1.25279 0
M  V30 5350 N 499.598 0.982988 -1.23187 0
M  V30 5351 C 500.561 2.05649 -1.01198 0
M  V30 5352 C 501.561 1.6078 0.0252464 0
M  V30 5353 O 502.751 1.72878 -0.214243 0
M  V30 5354 C 499.883 3.36744 -0.530656 0
M  V30 5355 H 501.076 2.2659 -1.96461 0
M  V30 5356 H 498.629 1.15602 -1.05195 0
M  V30 5357 H 499.364 3.21492 0.425873 0
M  V30 5358 H 499.149 3.7065 -1.2791 0
M  V30 5359 H 500.639 4.15705 -0.397366 0
M  V30 5360 N 501.076 1.04316 1.18135 0
M  V30 5361 C 502.039 0.640794 2.2006 0
M  V30 5362 C 503.039 -0.303124 1.57917 0
M  V30 5363 O 504.229 -0.0881855 1.73977 0
M  V30 5364 C 501.361 -0.060148 3.40847 0
M  V30 5365 H 502.554 1.54281 2.57172 0
M  V30 5366 H 500.107 0.836004 1.32063 0
M  V30 5367 H 500.842 -0.975845 3.0927 0
M  V30 5368 H 500.627 0.618319 3.87194 0
M  V30 5369 H 502.117 -0.328082 4.16309 0
M  V30 5370 N 502.554 -1.34406 0.822964 0
M  V30 5371 C 503.802 -1.97892 0.410245 0
M  V30 5372 C 504.123 -1.65567 -1.03017 0
M  V30 5373 O 503.393 -0.94642 -1.71522 0
M  V30 5374 H 501.973 -0.732049 0.148707 0
M  V30 5375 H 504.635 -1.64043 1.05242 0
M  V30 5376 H 503.731 -3.07579 0.529284 0
M  V30 5377 N 504.032 -0.577932 -1.46621 0
M  V30 5378 C 505.443 -0.150071 -1.86096 0
M  V30 5379 C 505.794 1.28563 -1.48209 0
M  V30 5380 O 504.919 1.97036 -0.894754 0
M  V30 5381 C 505.514 -0.265576 -3.37758 0
M  V30 5382 C 504.073 0.10738 -3.76247 0
M  V30 5383 C 503.22 -0.603711 -2.70649 0
M  V30 5384 H 506.171 -0.786438 -1.37844 0
M  V30 5385 H 506.192 0.510352 -3.77062 0
M  V30 5386 H 505.704 -1.3106 -3.65301 0
M  V30 5387 H 503.805 1.15272 -3.54321 0
M  V30 5388 H 503.918 -0.26561 -4.78363 0
M  V30 5389 H 502.282 -0.0444884 -2.54661 0
M  V30 5390 H 503.065 -1.65029 -3.01032 0
M  V30 5391 N 505.51 1.54411 -0.315457 0
M  V30 5392 C 506.44 2.27002 0.547039 0
M  V30 5393 C 507.421 1.27492 1.12605 0
M  V30 5394 O 508.606 1.5629 1.15269 0
M  V30 5395 C 505.736 3.02171 1.71201 0
M  V30 5396 C 504.69 4.0895 1.26268 0
M  V30 5397 C 504.016 4.71915 2.51396 0
M  V30 5398 C 505.316 5.20891 0.383419 0
M  V30 5399 H 507.01 2.99343 -0.0584517 0
M  V30 5400 H 504.556 1.4397 -0.0295527 0
M  V30 5401 H 506.509 3.51681 2.32161 0
M  V30 5402 H 505.233 2.27433 2.34397 0
M  V30 5403 H 503.892 3.60312 0.676062 0
M  V30 5404 H 503.54 3.93801 3.12937 0
M  V30 5405 H 503.24 5.44039 2.22026 0
M  V30 5406 H 504.764 5.24195 3.13133 0
M  V30 5407 H 506.178 5.66206 0.899082 0
M  V30 5408 H 504.575 5.99821 0.182857 0
M  V30 5409 H 505.645 4.81324 -0.587821 0
M  V30 5410 N 506.988 0.0434614 1.5754 0
M  V30 5411 C 508.404 -0.313039 1.565 0
M  V30 5412 C 508.604 -1.71954 1.05043 0
M  V30 5413 O 507.66 -2.425 0.703564 0
M  V30 5414 C 508.973 -0.148544 3.00333 0
M  V30 5415 C 510.521 -0.220231 3.12224 0
M  V30 5416 C 510.996 -0.0843565 4.57922 0
M  V30 5417 N 512.487 -0.140881 4.62986 0
M  V30 5418 C 513.222 -0.0597443 5.73369 0
M  V30 5419 N 512.718 0.0733004 6.92761 0
M  V30 5420 N 514.511 -0.11477 5.61983 0
M  V30 5421 H 506.662 0.96303 1.89313 0
M  V30 5422 H 508.925 0.373164 0.871466 0
M  V30 5423 H 508.631 0.820894 3.41986 0
M  V30 5424 H 508.505 -0.912798 3.65989 0
M  V30 5425 H 510.892 -1.18014 2.70475 0
M  V30 5426 H 510.973 0.574646 2.49262 0
M  V30 5427 H 510.617 0.872192 5.00355 0
M  V30 5428 H 510.547 -0.898281 5.18882 0
M  V30 5429 H 513.038 -0.243273 3.77116 0
M  V30 5430 H 513.351 0.128128 7.72694 0
M  V30 5431 H 511.696 0.10828 6.94916 0
M  V30 5432 H 514.887 -0.217212 4.67596 0
M  V30 5433 H 515.06 -0.0480779 6.47982 0
M  V30 5434 N 508.466 -1.55915 -0.229846 0
M  V30 5435 C 509.396 -1.94754 -1.28815 0
M  V30 5436 C 510.377 -0.814657 -1.49323 0
M  V30 5437 O 511.562 -1.07631 -1.61645 0
M  V30 5438 C 508.692 -2.25705 -2.63959 0
M  V30 5439 C 507.646 -3.41406 -2.5812 0
M  V30 5440 C 506.972 -3.57941 -3.97218 0
M  V30 5441 C 508.272 -4.76616 -2.13623 0
M  V30 5442 H 509.966 -2.83404 -0.965547 0
M  V30 5443 H 507.512 -1.36353 -0.463028 0
M  V30 5444 H 509.465 -2.51467 -3.38146 0
M  V30 5445 H 508.189 -1.339 -2.9789 0
M  V30 5446 H 506.848 -3.1568 -1.86391 0
M  V30 5447 H 506.496 -2.63526 -4.28443 0
M  V30 5448 H 506.196 -4.35757 -3.94195 0
M  V30 5449 H 507.72 -3.86042 -4.73079 0
M  V30 5450 H 509.134 -5.01637 -2.77549 0
M  V30 5451 H 507.531 -5.57655 -2.21677 0
M  V30 5452 H 508.601 -4.7253 -1.08829 0
M  V30 5453 N 509.944 0.496216 -1.49584 0
M  V30 5454 C 510.854 1.62352 -1.69349 0
M  V30 5455 C 511.87 1.64184 -0.576147 0
M  V30 5456 O 513.046 1.82517 -0.85144 0
M  V30 5457 C 510.111 2.98698 -1.76013 0
M  V30 5458 C 509.172 3.07454 -2.99617 0
M  V30 5459 C 508.405 4.37296 -3.05953 0
M  V30 5460 O 508.628 5.2637 -2.19752 0
M  V30 5461 O 507.562 4.51124 -3.9846 0
M  V30 5462 H 511.388 1.48606 -2.64859 0
M  V30 5463 H 508.973 0.673022 -1.33382 0
M  V30 5464 H 510.855 3.79725 -1.82721 0
M  V30 5465 H 509.53 3.12696 -0.836828 0
M  V30 5466 H 508.437 2.25597 -2.98424 0
M  V30 5467 H 509.77 2.98385 -3.91443 0
M  V30 5468 N 511.423 1.38739 0.74761 0
M  V30 5469 C 512.386 1.36241 1.84312 0
M  V30 5470 C 513.386 0.261811 1.58654 0
M  V30 5471 O 514.576 0.519031 1.66288 0
M  V30 5472 C 511.708 1.12253 3.21888 0
M  V30 5473 H 512.901 2.33712 1.87933 0
M  V30 5474 H 510.454 1.2412 0.949946 0
M  V30 5475 H 511.189 0.154133 3.23934 0
M  V30 5476 H 510.974 1.91943 3.41907 0
M  V30 5477 H 512.464 1.13215 4.0196 0
M  V30 5478 N 512.901 -0.976442 1.23707 0
M  V30 5479 C 514.312 -1.53284 1.06587 0
M  V30 5480 C 514.663 -1.92765 -0.365526 0
M  V30 5481 O 513.788 -1.7645 -1.25277 0
M  V30 5482 C 514.383 -2.78548 1.92864 0
M  V30 5483 C 512.942 -3.30574 1.79994 0
M  V30 5484 C 512.089 -2.03538 1.88328 0
M  V30 5485 H 515.04 -0.795692 1.37311 0
M  V30 5486 H 515.061 -3.5155 1.45577 0
M  V30 5487 H 514.573 -2.49782 2.97037 0
M  V30 5488 H 512.674 -3.64211 0.786202 0
M  V30 5489 H 512.787 -4.00065 2.636 0
M  V30 5490 H 511.151 -2.17853 1.31954 0
M  V30 5491 H 511.934 -1.77149 2.94063 0
M  V30 5492 N 514.379 -1.04941 -1.1758 0
M  V30 5493 C 515.627 -0.756492 -1.87408 0
M  V30 5494 C 515.948 0.718478 -1.81281 0
M  V30 5495 O 515.218 1.519 -1.23706 0
M  V30 5496 H 513.798 -0.276841 -0.693807 0
M  V30 5497 H 516.46 -1.32803 -1.42652 0
M  V30 5498 H 515.556 -1.06918 -2.93215 0
M  V30 5499 N 515.857 1.33968 -0.830081 0
M  V30 5500 C 517.268 1.80439 -0.479455 0
M  V30 5501 C 517.619 1.68756 1.00079 0
M  V30 5502 O 516.744 1.23171 1.77927 0
M  V30 5503 C 517.339 3.27611 -0.863505 0
M  V30 5504 C 515.898 3.72133 -0.565145 0
M  V30 5505 C 515.045 2.55549 -1.07657 0
M  V30 5506 H 517.996 1.21614 -1.0196 0
M  V30 5507 H 518.017 3.8012 -0.170083 0
M  V30 5508 H 517.529 3.36082 -1.94089 0
M  V30 5509 H 515.63 3.69196 0.502536 0
M  V30 5510 H 515.743 4.65963 -1.11422 0
M  V30 5511 H 514.107 2.49788 -0.497807 0
M  V30 5512 H 514.89 2.66786 -2.16055 0
M  V30 5513 N 517.335 0.585699 1.46312 0
M  V30 5514 C 518.265 -0.133556 2.33118 0
M  V30 5515 C 519.246 -0.880707 1.45525 0
M  V30 5516 O 520.431 -0.855579 1.74337 0
M  V30 5517 C 517.561 -1.14585 3.27853 0
M  V30 5518 C 516.515 -0.513341 4.2491 0
M  V30 5519 C 515.841 -1.63231 5.09175 0
M  V30 5520 C 517.141 0.551413 5.19381 0
M  V30 5521 H 518.835 0.59121 2.93505 0
M  V30 5522 H 516.381 0.285761 1.41136 0
M  V30 5523 H 518.334 -1.65741 3.87438 0
M  V30 5524 H 517.058 -1.90093 2.65579 0
M  V30 5525 H 515.717 -0.0228349 3.66593 0
M  V30 5526 H 515.365 -2.37713 4.43285 0
M  V30 5527 H 515.065 -1.21473 5.74907 0
M  V30 5528 H 516.589 -2.14658 5.71624 0
M  V30 5529 H 518.003 0.124804 5.73164 0
M  V30 5530 H 516.4 0.889486 5.93471 0
M  V30 5531 H 517.47 1.43655 4.63132 0
M  V30 5532 N 518.813 -1.54241 0.323641 0
M  V30 5533 C 519.76 -2.24339 -0.542277 0
M  V30 5534 C 520.73 -1.23421 -1.11159 0
M  V30 5535 O 521.915 -1.52104 -1.15192 0
M  V30 5536 C 519.055 -3.00479 -1.69725 0
M  V30 5537 C 518.168 -4.16214 -1.15716 0
M  V30 5538 C 517.303 -4.79884 -2.27783 0
M  V30 5539 C 516.342 -5.87722 -1.71023 0
M  V30 5540 N 515.479 -6.45254 -2.76752 0
M  V30 5541 H 520.319 -2.97935 0.0620613 0
M  V30 5542 H 517.856 -1.47039 0.0423993 0
M  V30 5543 H 519.814 -3.42869 -2.3769 0
M  V30 5544 H 518.444 -2.29217 -2.27288 0
M  V30 5545 H 517.496 -3.78605 -0.369063 0
M  V30 5546 H 518.808 -4.93838 -0.701832 0
M  V30 5547 H 517.962 -5.25243 -3.03651 0
M  V30 5548 H 516.701 -4.01641 -2.76652 0
M  V30 5549 H 515.706 -5.41765 -0.936518 0
M  V30 5550 H 516.931 -6.67863 -1.2303 0
M  V30 5551 H 514.877 -5.69884 -3.24912 0
M  V30 5552 H 514.794 -7.18292 -2.35782 0
M  V30 5553 H 516.062 -6.95269 -3.5245 0
M  V30 5554 N 520.291 -0.0518155 -1.57515 0
M  V30 5555 C 521.707 0.304735 -1.56664 0
M  V30 5556 C 521.907 1.71395 -1.05953 0
M  V30 5557 O 520.963 2.42123 -0.716414 0
M  V30 5558 C 522.276 0.132614 -3.00407 0
M  V30 5559 C 523.824 0.20367 -3.12337 0
M  V30 5560 C 524.299 0.0600706 -4.57961 0
M  V30 5561 N 525.79 0.116326 -4.63054 0
M  V30 5562 C 526.525 0.0293363 -5.73392 0
M  V30 5563 N 526.021 -0.110038 -6.92713 0
M  V30 5564 N 527.814 0.0849651 -5.62036 0
M  V30 5565 H 519.965 -0.973056 -1.888 0
M  V30 5566 H 522.228 -0.377781 -0.869474 0
M  V30 5567 H 521.934 -0.839019 -3.41546 0
M  V30 5568 H 521.808 0.893376 -3.66468 0
M  V30 5569 H 524.195 1.16578 -2.71097 0
M  V30 5570 H 524.276 -0.587857 -2.48954 0
M  V30 5571 H 523.92 -0.898715 -4.99886 0
M  V30 5572 H 523.85 0.87075 -5.19351 0
M  V30 5573 H 526.341 0.22327 -3.7724 0
M  V30 5574 H 526.654 -0.169104 -7.72615 0
M  V30 5575 H 524.999 -0.145132 -6.94848 0
M  V30 5576 H 528.19 0.192411 -4.67704 0
M  V30 5577 H 528.363 0.0137131 -6.47999 0
M  V30 5578 N 521.769 1.56035 0.221574 0
M  V30 5579 C 522.997 1.8313 0.962864 0
M  V30 5580 C 523.412 0.630934 1.77946 0
M  V30 5581 O 522.769 -0.400519 1.78051 0
M  V30 5582 C 522.82 3.08742 1.88045 0
M  V30 5583 O 522.541 4.24147 1.09686 0
M  V30 5584 C 524.042 3.48824 2.73563 0
M  V30 5585 H 521.262 0.608775 0.282194 0
M  V30 5586 H 523.806 2.03124 0.23681 0
M  V30 5587 H 521.961 2.90723 2.56045 0
M  V30 5588 H 522.375 4.95505 1.71974 0
M  V30 5589 H 523.849 4.39752 3.3365 0
M  V30 5590 H 524.326 2.70575 3.45956 0
M  V30 5591 H 524.932 3.69282 2.10976 0
M  V30 5592 N 523.247 -0.488276 1.49845 0
M  V30 5593 C 524.493 -1.24341 1.6021 0
M  V30 5594 C 524.826 -1.91967 0.293651 0
M  V30 5595 O 524.101 -1.81323 -0.703718 0
M  V30 5596 C 524.384 -2.3005 2.77036 0
M  V30 5597 C 524.237 -1.66842 4.17713 0
M  V30 5598 C 525.556 -3.31509 2.89464 0
M  V30 5599 H 522.675 -0.450704 0.583125 0
M  V30 5600 H 525.317 -0.539673 1.82174 0
M  V30 5601 H 523.467 -2.90071 2.58439 0
M  V30 5602 H 525.139 -1.1055 4.47858 0
M  V30 5603 H 523.382 -0.972079 4.22768 0
M  V30 5604 H 524.053 -2.43576 4.95353 0
M  V30 5605 H 526.529 -2.81493 3.06433 0
M  V30 5606 H 525.405 -4.02822 3.72861 0
M  V30 5607 H 525.666 -3.94603 1.99351 0
M  V30 5608 N 524.725 -1.39134 -0.740242 0
M  V30 5609 C 525.655 -1.40165 -1.86751 0
M  V30 5610 C 526.636 -0.265708 -1.68012 0
M  V30 5611 O 527.821 -0.47076 -1.88408 0
M  V30 5612 C 524.951 -1.2392 -3.2444 0
M  V30 5613 C 523.905 -2.34858 -3.57807 0
M  V30 5614 C 523.231 -2.03707 -4.94376 0
M  V30 5615 C 524.531 -3.77159 -3.61315 0
M  V30 5616 H 526.225 -2.345 -1.86145 0
M  V30 5617 H 523.771 -1.12875 -0.89416 0
M  V30 5618 H 525.724 -1.23263 -4.02969 0
M  V30 5619 H 524.448 -0.26051 -3.25559 0
M  V30 5620 H 523.107 -2.34723 -2.81604 0
M  V30 5621 H 522.755 -1.04289 -4.9207 0
M  V30 5622 H 522.455 -2.78016 -5.17669 0
M  V30 5623 H 523.979 -2.04691 -5.75268 0
M  V30 5624 H 525.393 -3.79252 -4.29931 0
M  V30 5625 H 523.79 -4.50784 -3.96124 0
M  V30 5626 H 524.86 -4.08513 -2.61238 0
M  V30 5627 N 526.204 0.969867 -1.24223 0
M  V30 5628 C 527.432 1.74756 -1.10761 0
M  V30 5629 C 527.847 1.85713 0.340041 0
M  V30 5630 O 527.204 1.34389 1.23474 0
M  V30 5631 C 527.255 3.16915 -1.73917 0
M  V30 5632 O 526.976 3.06511 -3.13021 0
M  V30 5633 C 528.477 4.11032 -1.66036 0
M  V30 5634 H 525.697 0.548092 -0.387087 0
M  V30 5635 H 528.241 1.2178 -1.64286 0
M  V30 5636 H 526.396 3.66884 -1.244 0
M  V30 5637 H 526.81 3.96079 -3.43834 0
M  V30 5638 H 528.284 5.08446 -2.14911 0
M  V30 5639 H 528.761 4.34785 -0.621159 0
M  V30 5640 H 529.367 3.66972 -2.14969 0
M  V30 5641 N 527.682 1.05563 1.17022 0
M  V30 5642 C 528.592 0.670758 2.24807 0
M  V30 5643 C 529.608 -0.309865 1.71219 0
M  V30 5644 O 530.784 -0.161025 2.00755 0
M  V30 5645 C 527.849 0.055337 3.46656 0
M  V30 5646 C 526.91 1.08688 4.15314 0
M  V30 5647 C 526.143 0.500736 5.31346 0
M  V30 5648 O 526.366 -0.688718 5.66227 0
M  V30 5649 O 525.3 1.23683 5.89055 0
M  V30 5650 H 529.126 1.56914 2.60023 0
M  V30 5651 H 526.711 0.827428 1.24395 0
M  V30 5652 H 528.593 -0.286492 4.20425 0
M  V30 5653 H 527.268 -0.816638 3.13229 0
M  V30 5654 H 526.175 1.48077 3.43546 0
M  V30 5655 H 527.508 1.93014 4.52777 0
M  V30 5656 N 529.16 -1.33526 0.837174 0
M  V30 5657 C 530.385 -2.0258 0.444545 0
M  V30 5658 C 530.81 -1.6258 -0.946006 0
M  V30 5659 O 530.168 -0.817548 -1.6182 0
M  V30 5660 C 530.216 -3.5605 0.571006 0
M  V30 5661 O 529.32 -4.10422 -0.403431 0
M  V30 5662 H 528.661 -0.638866 0.180958 0
M  V30 5663 H 531.191 -1.70462 1.13154 0
M  V30 5664 H 531.201 -4.05488 0.452024 0
M  V30 5665 H 529.876 -3.84509 1.58512 0
M  V30 5666 H 528.453 -3.72113 -0.242147 0
M  V30 5667 N 530.638 -0.59345 -1.46 0
M  V30 5668 C 531.886 -0.082988 -2.0193 0
M  V30 5669 C 532.207 1.28569 -1.46612 0
M  V30 5670 O 531.477 1.84629 -0.654909 0
M  V30 5671 H 530.057 -0.0276882 -0.746487 0
M  V30 5672 H 532.719 -0.771657 -1.78973 0
M  V30 5673 H 531.815 -0.022079 -3.12092 0
M  V30 5674 N 532.116 1.54067 -0.331816 0
M  V30 5675 C 533.341 2.05599 0.272705 0
M  V30 5676 C 533.766 1.2059 1.44359 0
M  V30 5677 O 533.124 0.216907 1.79998 0
M  V30 5678 C 533.172 3.54188 0.677021 0
M  V30 5679 O 532.276 3.72082 1.77844 0
M  V30 5680 H 531.617 0.662286 0.0476801 0
M  V30 5681 H 534.147 1.98826 -0.482624 0
M  V30 5682 H 534.157 3.96608 0.957415 0
M  V30 5683 H 532.832 4.15513 -0.179325 0
M  V30 5684 H 531.409 3.41566 1.49622 0
M  V30 5685 N 533.594 0.0601682 1.57485 0
M  V30 5686 C 534.842 -0.610386 1.92662 0
M  V30 5687 C 535.163 -1.70849 0.939981 0
M  V30 5688 O 534.433 -1.95895 -0.0137455 0
M  V30 5689 H 533.013 -0.228457 0.711208 0
M  V30 5690 H 535.675 0.115288 1.94559 0
M  V30 5691 H 534.771 -1.0432 2.94149 0
M  V30 5692 N 535.072 -1.5615 -0.213296 0
M  V30 5693 C 536.297 -1.83986 -0.957282 0
M  V30 5694 C 536.722 -0.641526 -1.76822 0
M  V30 5695 O 536.08 0.409722 -1.7661 0
M  V30 5696 C 536.128 -3.09889 -1.84393 0
M  V30 5697 O 535.232 -2.89163 -2.94038 0
M  V30 5698 H 534.573 -0.606357 -0.270605 0
M  V30 5699 H 537.103 -2.03369 -0.224111 0
M  V30 5700 H 537.113 -3.40209 -2.25215 0
M  V30 5701 H 535.788 -3.96735 -1.24795 0
M  V30 5702 H 534.365 -2.70097 -2.57103 0
M  V30 5703 N 536.55 0.480323 -1.50102 0
M  V30 5704 C 537.966 0.813295 -1.37323 0
M  V30 5705 C 538.166 1.97027 -0.422206 0
M  V30 5706 O 537.222 2.5212 0.138563 0
M  V30 5707 C 538.535 1.13404 -2.78496 0
M  V30 5708 C 540.083 1.24104 -2.87345 0
M  V30 5709 C 540.558 1.59497 -4.29331 0
M  V30 5710 N 542.049 1.66507 -4.32238 0
M  V30 5711 C 542.784 1.95378 -5.39087 0
M  V30 5712 N 542.28 2.22333 -6.56155 0
M  V30 5713 N 544.073 1.96803 -5.26522 0
M  V30 5714 H 536.224 -0.282291 -2.10516 0
M  V30 5715 H 538.487 -0.063752 -0.945854 0
M  V30 5716 H 538.193 0.357064 -3.49883 0
M  V30 5717 H 538.067 2.07251 -3.15162 0
M  V30 5718 H 540.454 2.00871 -2.16183 0
M  V30 5719 H 540.535 0.282593 -2.54234 0
M  V30 5720 H 540.179 0.832736 -5.01027 0
M  V30 5721 H 540.109 2.56477 -4.59921 0
M  V30 5722 H 542.6 1.47753 -3.47818 0
M  V30 5723 H 542.913 2.43611 -7.33399 0
M  V30 5724 H 541.258 2.19745 -6.59346 0
M  V30 5725 H 544.449 1.75235 -4.34062 0
M  V30 5726 H 544.622 2.18969 -6.09883 0
M  V30 5727 N 538.028 1.39524 0.732853 0
M  V30 5728 C 539.439 1.32905 1.31122 0
M  V30 5729 C 539.79 -0.00558708 1.96199 0
M  V30 5730 O 538.915 -0.907706 1.96443 0
M  V30 5731 C 539.51 2.40704 2.38426 0
M  V30 5732 C 538.069 2.37599 2.91931 0
M  V30 5733 C 537.216 2.2248 1.65523 0
M  V30 5734 H 540.167 1.49581 0.530207 0
M  V30 5735 H 540.188 2.07616 3.18867 0
M  V30 5736 H 539.7 3.37829 1.91033 0
M  V30 5737 H 537.801 1.44119 3.43599 0
M  V30 5738 H 537.914 3.32538 3.44899 0
M  V30 5739 H 536.278 1.69691 1.8994 0
M  V30 5740 H 537.061 3.21577 1.20178 0
M  V30 5741 N 539.506 -0.963266 1.24736 0
M  V30 5742 C 540.469 -2.04013 1.04457 0
M  V30 5743 C 541.469 -1.608 0.000335555 0
M  V30 5744 O 542.659 -1.72515 0.241719 0
M  V30 5745 C 539.791 -3.35858 0.584162 0
M  V30 5746 H 540.984 -2.23436 2.00041 0
M  V30 5747 H 538.537 -1.13914 1.07021 0
M  V30 5748 H 539.272 -3.22128 -0.374673 0
M  V30 5749 H 539.057 -3.68568 1.3379 0
M  V30 5750 H 540.547 -4.1502 0.463451 0
M  V30 5751 N 540.985 -1.06182 -1.16461 0
M  V30 5752 C 542.396 -0.802426 -1.68576 0
M  V30 5753 C 542.747 0.67412 -1.84255 0
M  V30 5754 O 541.872 1.52303 -1.5373 0
M  V30 5755 C 542.467 -1.45002 -3.06202 0
M  V30 5756 C 541.026 -1.23843 -3.55443 0
M  V30 5757 C 540.173 -1.52724 -2.31454 0
M  V30 5758 H 543.124 -1.22545 -1.00839 0
M  V30 5759 H 543.145 -0.864731 -3.70544 0
M  V30 5760 H 542.657 -2.52466 -2.94759 0
M  V30 5761 H 540.758 -0.183487 -3.72148 0
M  V30 5762 H 540.871 -1.95036 -4.37604 0
M  V30 5763 H 539.235 -0.947726 -2.36411 0
M  V30 5764 H 540.018 -2.61343 -2.22609 0
M  V30 5765 N 542.463 1.3308 -0.844243 0
M  V30 5766 C 543.874 1.7992 -0.498566 0
M  V30 5767 C 544.225 1.69808 0.982834 0
M  V30 5768 O 543.35 1.25051 1.7661 0
M  V30 5769 C 543.945 3.26677 -0.898204 0
M  V30 5770 C 542.504 3.71513 -0.604583 0
M  V30 5771 C 541.651 2.54393 -1.10362 0
M  V30 5772 H 544.602 1.20526 -1.03244 0
M  V30 5773 H 544.623 3.79918 -0.21039 0
M  V30 5774 H 544.135 3.34004 -1.97643 0
M  V30 5775 H 542.236 3.69708 0.46335 0
M  V30 5776 H 542.349 4.64755 -1.16358 0
M  V30 5777 H 540.713 2.49246 -0.524273 0
M  V30 5778 H 541.496 2.6448 -2.18873 0
M  V30 5779 N 543.941 0.601185 1.45683 0
M  V30 5780 C 544.904 -0.111398 2.28929 0
M  V30 5781 C 545.904 -0.801246 1.39416 0
M  V30 5782 O 547.094 -0.650383 1.61603 0
M  V30 5783 C 544.226 -1.16773 3.20276 0
M  V30 5784 H 545.419 0.620412 2.93413 0
M  V30 5785 H 542.972 0.359946 1.52099 0
M  V30 5786 H 543.707 -1.93051 2.60579 0
M  V30 5787 H 543.492 -0.677358 3.86205 0
M  V30 5788 H 544.982 -1.66698 3.82886 0
M  V30 5789 N 545.419 -1.53889 0.339982 0
M  V30 5790 C 546.665 -2.01152 -0.258003 0
M  V30 5791 C 546.998 -1.22749 -1.50487 0
M  V30 5792 O 546.273 -0.314156 -1.91946 0
M  V30 5793 C 546.556 -3.55468 -0.575717 0
M  V30 5794 C 546.409 -4.44584 0.682996 0
M  V30 5795 C 547.728 -4.1768 -1.38677 0
M  V30 5796 H 544.847 -0.731198 -0.0922992 0
M  V30 5797 H 547.489 -1.84352 0.459814 0
M  V30 5798 H 545.639 -3.69914 -1.18725 0
M  V30 5799 H 547.311 -4.41981 1.32102 0
M  V30 5800 H 545.554 -4.13592 1.3086 0
M  V30 5801 H 546.225 -5.5043 0.416001 0
M  V30 5802 H 548.701 -4.0691 -0.869705 0
M  V30 5803 H 547.577 -5.25734 -1.57783 0
M  V30 5804 H 547.838 -3.72069 -2.38782 0
M  V30 5805 N 546.897 -0.0685191 -1.57451 0
M  V30 5806 C 548.145 0.60016 -1.92983 0
M  V30 5807 C 548.466 1.70348 -0.949028 0
M  V30 5808 O 547.736 1.959 0.00335647 0
M  V30 5809 H 546.316 0.224682 -0.712409 0
M  V30 5810 H 548.978 -0.125605 -1.94495 0
M  V30 5811 H 548.074 1.02759 -2.94698 0
M  V30 5812 N 548.375 1.56261 0.205012 0
M  V30 5813 C 549.6 1.84491 0.947512 0
M  V30 5814 C 550.025 0.650894 1.76479 0
M  V30 5815 O 549.383 -0.40035 1.76824 0
M  V30 5816 C 549.431 3.10863 1.82747 0
M  V30 5817 O 548.535 2.90719 2.925 0
M  V30 5818 H 547.876 0.607783 0.267386 0
M  V30 5819 H 550.406 2.03485 0.213323 0
M  V30 5820 H 550.416 3.41399 2.23407 0
M  V30 5821 H 549.091 3.97392 1.2269 0
M  V30 5822 H 547.668 2.71457 2.55667 0
M  V30 5823 N 549.853 -0.472356 1.50355 0
M  V30 5824 C 551.099 -1.22634 1.6152 0
M  V30 5825 C 551.432 -1.91645 0.313995 0
M  V30 5826 O 550.707 -1.82059 -0.684446 0
M  V30 5827 C 550.99 -2.27099 2.7946 0
M  V30 5828 C 550.843 -1.62402 4.19459 0
M  V30 5829 C 552.162 -3.28421 2.92964 0
M  V30 5830 H 549.281 -0.444494 0.587873 0
M  V30 5831 H 551.923 -0.520321 1.82737 0
M  V30 5832 H 550.073 -2.87314 2.61501 0
M  V30 5833 H 551.745 -1.05793 4.49005 0
M  V30 5834 H 549.988 -0.927184 4.23776 0
M  V30 5835 H 550.659 -2.38309 4.97909 0
M  V30 5836 H 553.135 -2.78227 3.09401 0
M  V30 5837 H 552.011 -3.98845 3.77113 0
M  V30 5838 H 552.272 -3.92467 2.03525 0
M  V30 5839 N 551.331 -1.39911 -0.725443 0
M  V30 5840 C 552.742 -1.33599 -1.30415 0
M  V30 5841 C 553.093 -0.00481792 -1.96199 0
M  V30 5842 O 552.218 0.897275 -1.96921 0
M  V30 5843 C 552.813 -2.41965 -2.37146 0
M  V30 5844 C 551.372 -2.39144 -2.90667 0
M  V30 5845 C 550.519 -2.23355 -1.64341 0
M  V30 5846 H 553.47 -1.4986 -0.522267 0
M  V30 5847 H 553.491 -2.09304 -3.17761 0
M  V30 5848 H 553.003 -3.38837 -1.89238 0
M  V30 5849 H 551.104 -1.4594 -3.4283 0
M  V30 5850 H 551.217 -3.34362 -3.43131 0
M  V30 5851 H 549.581 -1.70696 -1.89037 0
M  V30 5852 H 550.364 -3.2221 -1.18471 0
M  V30 5853 N 552.809 0.956637 -1.25245 0
M  V30 5854 C 553.739 2.07058 -1.07931 0
M  V30 5855 C 554.72 1.70096 0.0110361 0
M  V30 5856 O 555.905 1.93555 -0.158121 0
M  V30 5857 C 553.035 3.40272 -0.695124 0
M  V30 5858 C 551.989 3.91235 -1.73549 0
M  V30 5859 C 551.315 5.20921 -1.20604 0
M  V30 5860 C 552.615 4.17837 -3.13385 0
M  V30 5861 H 554.309 2.218 -2.01109 0
M  V30 5862 H 551.855 1.06581 -0.968326 0
M  V30 5863 H 553.808 4.1765 -0.560949 0
M  V30 5864 H 552.532 3.25462 0.272355 0
M  V30 5865 H 551.191 3.16025 -1.85807 0
M  V30 5866 H 550.839 5.02479 -0.228846 0
M  V30 5867 H 550.539 5.55987 -1.90136 0
M  V30 5868 H 552.063 6.00897 -1.08421 0
M  V30 5869 H 553.477 4.8588 -3.04292 0
M  V30 5870 H 551.874 4.64154 -3.80369 0
M  V30 5871 H 552.944 3.2419 -3.60595 0
M  V30 5872 N 554.287 1.06798 1.15896 0
M  V30 5873 C 555.698 0.811355 1.68149 0
M  V30 5874 C 556.049 -0.664339 1.8461 0
M  V30 5875 O 555.174 -1.51485 1.54535 0
M  V30 5876 C 555.769 1.46624 3.05429 0
M  V30 5877 C 554.328 1.25726 3.54781 0
M  V30 5878 C 553.475 1.53949 2.3064 0
M  V30 5879 H 556.426 1.23078 1.00187 0
M  V30 5880 H 556.447 0.88437 3.7008 0
M  V30 5881 H 555.959 2.54025 2.93416 0
M  V30 5882 H 554.06 0.20322 3.72045 0
M  V30 5883 H 554.173 1.97354 4.36564 0
M  V30 5884 H 552.537 0.96025 2.35905 0
M  V30 5885 H 553.32 2.6252 2.2122 0
M  V30 5886 N 555.766 -1.3263 0.851289 0
M  V30 5887 C 557.012 -1.9766 0.453694 0
M  V30 5888 C 557.345 -1.67225 -0.987396 0
M  V30 5889 O 556.62 -0.958693 -1.69232 0
M  V30 5890 C 556.903 -3.5344 0.68936 0
M  V30 5891 C 556.756 -3.93517 2.17862 0
M  V30 5892 C 558.075 -4.39866 0.143555 0
M  V30 5893 H 555.194 -0.717989 0.166314 0
M  V30 5894 H 557.836 -1.57068 1.06909 0
M  V30 5895 H 555.986 -3.88147 0.165546 0
M  V30 5896 H 557.658 -3.69006 2.76826 0
M  V30 5897 H 555.901 -3.42798 2.65841 0
M  V30 5898 H 556.572 -5.02065 2.29422 0
M  V30 5899 H 559.048 -4.11875 0.591451 0
M  V30 5900 H 557.924 -5.47858 0.338043 0
M  V30 5901 H 558.185 -4.31696 -0.953466 0
M  V30 5902 N 557.244 -0.608902 -1.45362 0
M  V30 5903 C 558.655 -0.189511 -1.85736 0
M  V30 5904 C 559.006 1.2539 -1.50903 0
M  V30 5905 O 558.131 1.95094 -0.936347 0
M  V30 5906 C 558.726 -0.33716 -3.37118 0
M  V30 5907 C 557.285 0.0275487 -3.7639 0
M  V30 5908 C 556.432 -0.660983 -2.69307 0
M  V30 5909 H 559.383 -0.815499 -1.36144 0
M  V30 5910 H 559.404 0.430257 -3.7806 0
M  V30 5911 H 558.916 -1.38779 -3.62439 0
M  V30 5912 H 557.017 1.0773 -3.56686 0
M  V30 5913 H 557.13 -0.367018 -4.77692 0
M  V30 5914 H 555.494 -0.0984958 -2.54509 0
M  V30 5915 H 556.277 -1.71377 -2.97464 0
M  V30 5916 N 558.722 1.53707 -0.348139 0
M  V30 5917 C 559.968 2.01286 0.247332 0
M  V30 5918 C 560.301 1.23546 1.49834 0
M  V30 5919 O 559.576 0.324331 1.91777 0
M  V30 5920 C 559.859 3.55768 0.556858 0
M  V30 5921 C 559.712 4.44216 -0.706564 0
M  V30 5922 C 561.031 4.1841 1.3646 0
M  V30 5923 H 558.15 0.731677 0.0884201 0
M  V30 5924 H 560.792 1.84106 -0.469584 0
M  V30 5925 H 558.942 3.70539 1.16761 0
M  V30 5926 H 560.614 4.41274 -1.34444 0
M  V30 5927 H 558.857 4.12892 -1.33052 0
M  V30 5928 H 559.528 5.50202 -0.445186 0
M  V30 5929 H 562.004 4.07365 0.848113 0
M  V30 5930 H 560.88 5.26563 1.54992 0
M  V30 5931 H 561.141 3.7333 2.36805 0
M  V30 5932 N 560.2 0.0768682 1.57412 0
M  V30 5933 C 561.611 -0.455037 1.8107 0
M  V30 5934 C 561.962 -1.69323 0.991162 0
M  V30 5935 O 561.087 -2.15328 0.215156 0
M  V30 5936 C 561.682 -0.832316 3.28417 0
M  V30 5937 C 560.241 -1.30906 3.52903 0
M  V30 5938 C 559.388 -0.296714 2.75708 0
M  V30 5939 H 562.339 0.302514 1.5579 0
M  V30 5940 H 562.36 -1.69333 3.40744 0
M  V30 5941 H 561.872 0.0690532 3.88039 0
M  V30 5942 H 559.973 -2.22875 2.98592 0
M  V30 5943 H 560.086 -1.28348 4.61588 0
M  V30 5944 H 558.45 -0.775059 2.42621 0
M  V30 5945 H 559.233 0.597015 3.38069 0
M  V30 5946 N 561.678 -1.56367 -0.196722 0
M  V30 5947 C 562.924 -1.80796 -0.918725 0
M  V30 5948 C 563.257 -0.650645 -1.82976 0
M  V30 5949 O 562.532 0.348889 -1.91345 0
M  V30 5950 C 562.815 -3.15472 -1.73636 0
M  V30 5951 C 562.668 -4.41693 -0.85015 0
M  V30 5952 C 563.987 -3.46824 -2.70927 0
M  V30 5953 H 561.106 -0.657702 -0.332561 0
M  V30 5954 H 563.748 -1.89086 -0.186186 0
M  V30 5955 H 561.898 -3.08536 -2.36088 0
M  V30 5956 H 563.57 -4.60673 -0.240459 0
M  V30 5957 H 561.813 -4.33517 -0.156785 0
M  V30 5958 H 562.484 -5.32419 -1.45719 0
M  V30 5959 H 564.96 -3.54049 -2.18607 0
M  V30 5960 H 563.836 -4.4218 -3.25219 0
M  V30 5961 H 564.097 -2.70236 -3.49893 0
M  V30 5962 N 563.156 0.464375 -1.50603 0
M  V30 5963 C 564.567 1.04507 -1.5471 0
M  V30 5964 C 564.918 1.9297 -0.354542 0
M  V30 5965 O 564.043 2.09763 0.531812 0
M  V30 5966 C 564.638 1.90207 -2.80369 0
M  V30 5967 C 563.197 2.43373 -2.87135 0
M  V30 5968 C 562.344 1.21886 -2.49076 0
M  V30 5969 H 565.295 0.246716 -1.56771 0
M  V30 5970 H 565.316 2.75353 -2.62604 0
M  V30 5971 H 564.828 1.25796 -3.67147 0
M  V30 5972 H 562.929 3.11318 -2.04724 0
M  V30 5973 H 563.042 2.7802 -3.90181 0
M  V30 5974 H 561.406 1.55575 -2.01664 0
M  V30 5975 H 562.189 0.591268 -3.3817 0
M  V30 5976 N 564.634 1.40294 0.718013 0
M  V30 5977 C 565.88 1.38645 1.48005 0
M  V30 5978 C 566.213 -0.0121202 1.94196 0
M  V30 5979 O 565.488 -0.980309 1.67989 0
M  V30 5980 C 565.771 2.37379 2.70782 0
M  V30 5981 C 565.624 3.8625 2.30501 0
M  V30 5982 C 566.943 2.33685 3.72933 0
M  V30 5983 H 564.062 0.504928 0.536858 0
M  V30 5984 H 566.704 1.71411 0.819649 0
M  V30 5985 H 564.854 2.09568 3.27129 0
M  V30 5986 H 566.526 4.24879 1.79655 0
M  V30 5987 H 564.769 4.02202 1.6253 0
M  V30 5988 H 565.44 4.50847 3.18498 0
M  V30 5989 H 567.916 2.58314 3.2621 0
M  V30 5990 H 566.792 3.0482 4.56482 0
M  V30 5991 H 567.053 1.34765 4.21059 0
M  V30 5992 N 566.112 -0.949982 1.2575 0
M  V30 5993 C 567.523 -1.50989 1.09815 0
M  V30 5994 C 567.874 -1.93497 -0.324556 0
M  V30 5995 O 566.999 -1.79068 -1.21506 0
M  V30 5996 C 567.594 -2.74394 1.98729 0
M  V30 5997 C 566.153 -3.26682 1.86965 0
M  V30 5998 C 565.3 -1.99498 1.92603 0
M  V30 5999 H 568.251 -0.766387 1.38968 0
M  V30 6000 H 568.272 -3.48383 1.53001 0
M  V30 6001 H 567.784 -2.43425 3.02268 0
M  V30 6002 H 565.885 -3.62461 0.863279 0
M  V30 6003 H 565.998 -3.94383 2.72027 0
M  V30 6004 H 564.362 -2.15005 1.36546 0
M  V30 6005 H 565.145 -1.70871 2.97755 0
M  V30 6006 N 567.59 -1.07411 -1.15328 0
M  V30 6007 C 568.836 -0.798831 -1.86404 0
M  V30 6008 C 569.169 0.673433 -1.8215 0
M  V30 6009 O 568.444 1.49428 -1.24505 0
M  V30 6010 C 568.727 -1.30846 -3.35487 0
M  V30 6011 C 568.58 -2.84532 -3.4837 0
M  V30 6012 C 569.899 -0.925486 -4.30259 0
M  V30 6013 H 567.018 -0.291659 -0.676834 0
M  V30 6014 H 569.66 -1.332 -1.35491 0
M  V30 6015 H 567.81 -0.854916 -3.78977 0
M  V30 6016 H 569.482 -3.3818 -3.13739 0
M  V30 6017 H 567.725 -3.22699 -2.8991 0
M  V30 6018 H 568.396 -3.15259 -4.53118 0
M  V30 6019 H 570.872 -1.3163 -3.94731 0
M  V30 6020 H 569.748 -1.3094 -5.33053 0
M  V30 6021 H 570.009 0.168525 -4.41779 0
M  V30 6022 N 569.068 1.32177 -0.85831 0
M  V30 6023 C 570.479 1.79381 -0.517621 0
M  V30 6024 C 570.83 1.70841 0.964769 0
M  V30 6025 O 569.955 1.26917 1.75274 0
M  V30 6026 C 570.55 3.25706 -0.932801 0
M  V30 6027 C 569.109 3.70851 -0.643953 0
M  V30 6028 C 568.256 2.53208 -1.13054 0
M  V30 6029 H 571.207 1.19424 -1.04516 0
M  V30 6030 H 571.228 3.79673 -0.250674 0
M  V30 6031 H 570.74 3.31889 -2.01174 0
M  V30 6032 H 568.841 3.70178 0.424112 0
M  V30 6033 H 568.954 4.63495 -1.21281 0
M  V30 6034 H 567.318 2.48676 -0.550679 0
M  V30 6035 H 568.101 2.62143 -2.21666 0
M  V30 6036 N 570.547 0.616602 1.45037 0
M  V30 6037 C 571.793 0.115501 2.02471 0
M  V30 6038 C 572.126 -1.25406 1.4828 0
M  V30 6039 O 571.401 -1.82922 0.661051 0
M  V30 6040 C 571.684 0.0863588 3.59996 0
M  V30 6041 C 571.537 1.48723 4.24501 0
M  V30 6042 C 572.856 -0.596762 4.36035 0
M  V30 6043 H 569.975 0.0434461 0.735718 0
M  V30 6044 H 572.617 0.7903 1.72784 0
M  V30 6045 H 570.767 -0.488277 3.85419 0
M  V30 6046 H 572.439 2.10964 4.10234 0
M  V30 6047 H 570.682 2.04534 3.82555 0
M  V30 6048 H 571.353 1.419 5.3345 0
M  V30 6049 H 573.829 -0.10824 4.15959 0
M  V30 6050 H 572.705 -0.586289 5.4576 0
M  V30 6051 H 572.966 -1.66451 4.09569 0
M  V30 6052 N 572.025 -1.5352 0.356285 0
M  V30 6053 C 573.436 -1.86282 -0.12492 0
M  V30 6054 C 573.787 -1.27717 -1.48939 0
M  V30 6055 O 572.912 -0.595614 -2.08042 0
M  V30 6056 C 573.507 -3.37995 -0.23345 0
M  V30 6057 C 572.066 -3.70588 -0.658899 0
M  V30 6058 C 571.213 -2.76581 0.199596 0
M  V30 6059 H 574.164 -1.47901 0.575423 0
M  V30 6060 H 574.185 -3.65475 -1.0587 0
M  V30 6061 H 573.697 -3.8059 0.759776 0
M  V30 6062 H 571.798 -3.33544 -1.66069 0
M  V30 6063 H 571.911 -4.77076 -0.439957 0
M  V30 6064 H 570.275 -2.52552 -0.330076 0
M  V30 6065 H 571.058 -3.22008 1.19019 0
M  V30 6066 N 573.503 -0.0852151 -1.57369 0
M  V30 6067 C 574.749 0.581666 -1.94279 0
M  V30 6068 C 575.082 1.68444 -0.966446 0
M  V30 6069 O 574.357 1.945 0.00215277 0
M  V30 6070 C 574.64 1.14609 -3.41375 0
M  V30 6071 C 574.493 0.0490414 -4.49773 0
M  V30 6072 C 575.812 2.04751 -3.8957 0
M  V30 6073 H 572.931 0.209972 -0.706456 0
M  V30 6074 H 575.573 -0.153915 -1.89376 0
M  V30 6075 H 573.723 1.77297 -3.45685 0
M  V30 6076 H 575.395 -0.584721 -4.57579 0
M  V30 6077 H 573.638 -0.618638 -4.29366 0
M  V30 6078 H 574.309 0.484601 -5.49869 0
M  V30 6079 H 576.785 1.51981 -3.87351 0
M  V30 6080 H 575.661 2.41173 -4.93079 0
M  V30 6081 H 575.922 2.96107 -3.28288 0
M  V30 6082 N 574.981 1.5647 0.188427 0
M  V30 6083 C 576.392 1.70864 0.752494 0
M  V30 6084 C 576.743 0.692905 1.83557 0
M  V30 6085 O 575.868 -0.149307 2.15884 0
M  V30 6086 C 576.463 3.09789 1.37173 0
M  V30 6087 C 575.022 3.25925 1.88281 0
M  V30 6088 C 574.169 2.66817 0.755259 0
M  V30 6089 H 577.12 1.58657 -0.0367408 0
M  V30 6090 H 577.141 3.07489 2.24122 0
M  V30 6091 H 576.653 3.83693 0.583219 0
M  V30 6092 H 574.754 2.56948 2.6983 0
M  V30 6093 H 574.867 4.33498 2.04001 0
M  V30 6094 H 573.231 2.2617 1.17128 0
M  V30 6095 H 574.014 3.43294 -0.0211237 0
M  V30 6096 N 576.459 -0.456382 1.50847 0
M  V30 6097 C 577.369 -1.57805 1.73594 0
M  V30 6098 C 578.385 -1.62599 0.619476 0
M  V30 6099 O 579.561 -1.80195 0.899532 0
M  V30 6100 C 576.626 -2.93926 1.8387 0
M  V30 6101 C 575.687 -2.99402 3.07663 0
M  V30 6102 C 574.92 -4.29031 3.1744 0
M  V30 6103 O 575.143 -5.20358 2.33631 0
M  V30 6104 O 574.077 -4.40401 4.10281 0
M  V30 6105 H 577.903 -1.41531 2.68705 0
M  V30 6106 H 575.488 -0.637422 1.3512 0
M  V30 6107 H 577.37 -3.74747 1.92725 0
M  V30 6108 H 576.045 -3.10368 0.91944 0
M  V30 6109 H 574.952 -2.17606 3.043 0
M  V30 6110 H 576.285 -2.87901 3.99216 0
M  V30 6111 N 577.937 -1.40673 -0.710563 0
M  V30 6112 C 579.348 -1.34975 -1.28991 0
M  V30 6113 C 579.699 -0.0256272 -1.96183 0
M  V30 6114 O 578.824 0.876339 -1.97862 0
M  V30 6115 C 579.419 -2.44467 -2.34567 0
M  V30 6116 C 577.978 -2.42213 -2.88114 0
M  V30 6117 C 577.125 -2.25085 -1.61963 0
M  V30 6118 H 580.076 -1.50406 -0.506343 0
M  V30 6119 H 580.097 -2.12663 -3.15523 0
M  V30 6120 H 579.609 -3.40825 -1.85634 0
M  V30 6121 H 577.71 -1.49568 -3.41263 0
M  V30 6122 H 577.823 -3.37983 -3.39565 0
M  V30 6123 H 576.187 -1.72691 -1.87216 0
M  V30 6124 H 576.97 -3.23449 -1.15047 0
M  V30 6125 N 579.415 0.9433 -1.26252 0
M  V30 6126 C 580.663 1.68592 -1.11451 0
M  V30 6127 C 580.984 1.91957 0.343123 0
M  V30 6128 O 580.254 1.51475 1.24226 0
M  V30 6129 H 578.834 0.624789 -0.409448 0
M  V30 6130 H 581.496 1.13351 -1.58548 0
M  V30 6131 H 580.592 2.66054 -1.63162 0
M  V30 6132 N 580.893 1.08022 1.14757 0
M  V30 6133 C 581.823 0.728248 2.21853 0
M  V30 6134 C 582.804 -0.287486 1.67653 0
M  V30 6135 O 583.989 -0.158727 1.9355 0
M  V30 6136 C 581.119 0.132549 3.47047 0
M  V30 6137 C 580.073 1.07619 4.14249 0
M  V30 6138 C 579.399 0.342907 5.33599 0
M  V30 6139 C 580.699 2.41268 4.63235 0
M  V30 6140 H 582.393 1.62365 2.51551 0
M  V30 6141 H 579.939 0.782125 1.20908 0
M  V30 6142 H 581.892 -0.125665 4.21213 0
M  V30 6143 H 580.616 -0.797971 3.16702 0
M  V30 6144 H 579.275 1.31944 3.42033 0
M  V30 6145 H 578.923 -0.59129 4.99513 0
M  V30 6146 H 578.623 0.971955 5.79506 0
M  V30 6147 H 580.147 0.0926538 6.1053 0
M  V30 6148 H 581.561 2.21232 5.28894 0
M  V30 6149 H 579.958 2.9983 5.19829 0
M  V30 6150 H 581.028 3.03079 3.78512 0
M  V30 6151 N 582.371 -1.3172 0.865308 0
M  V30 6152 C 583.334 -2.26918 0.322627 0
M  V30 6153 C 584.334 -1.52031 -0.523751 0
M  V30 6154 O 585.524 -1.70973 -0.333727 0
M  V30 6155 C 582.656 -3.36558 -0.542338 0
M  V30 6156 H 583.849 -2.76432 1.16298 0
M  V30 6157 H 581.402 -1.42573 0.640512 0
M  V30 6158 H 582.137 -2.92329 -1.40407 0
M  V30 6159 H 581.922 -3.92048 0.0636395 0
M  V30 6160 H 583.412 -4.07465 -0.91446 0
M  V30 6161 N 583.85 -0.624285 -1.44708 0
M  V30 6162 C 585.26 -0.2092 -1.85524 0
M  V30 6163 C 585.611 1.23783 -1.52225 0
M  V30 6164 O 584.736 1.94089 -0.956986 0
M  V30 6165 C 585.332 -0.372897 -3.36742 0
M  V30 6166 C 583.891 -0.012374 -3.76398 0
M  V30 6167 C 583.038 -0.68951 -2.68591 0
M  V30 6168 H 585.989 -0.829894 -1.35272 0
M  V30 6169 H 586.01 0.390134 -3.78495 0
M  V30 6170 H 585.522 -1.42615 -3.60947 0
M  V30 6171 H 583.623 1.03941 -3.57809 0
M  V30 6172 H 583.736 -0.417663 -4.77276 0
M  V30 6173 H 582.1 -0.125484 -2.54391 0
M  V30 6174 H 582.883 -1.74522 -2.9563 0
M  V30 6175 N 585.328 1.53329 -0.364422 0
M  V30 6176 C 586.26 2.23286 0.517293 0
M  V30 6177 C 587.273 1.24657 1.04711 0
M  V30 6178 O 588.462 1.50887 0.95369 0
M  V30 6179 C 585.562 2.91604 1.72685 0
M  V30 6180 C 584.735 4.1673 1.32873 0
M  V30 6181 C 583.794 4.68269 2.40022 0
M  V30 6182 O 582.82 5.31976 2.02461 0
M  V30 6183 N 584.022 4.45983 3.7159 0
M  V30 6184 H 586.787 2.99588 -0.0819391 0
M  V30 6185 H 584.348 1.60787 -0.189544 0
M  V30 6186 H 586.34 3.22992 2.4384 0
M  V30 6187 H 584.91 2.18763 2.23297 0
M  V30 6188 H 584.13 3.91657 0.447069 0
M  V30 6189 H 585.418 4.98078 1.03902 0
M  V30 6190 H 584.816 3.95077 4.04883 0
M  V30 6191 H 583.373 4.81924 4.38854 0
M  V30 6192 N 586.806 0.0935595 1.57322 0
M  V30 6193 C 588.054 -0.569383 1.93913 0
M  V30 6194 C 588.375 -1.68817 0.976009 0
M  V30 6195 O 587.645 -1.9588 0.0278099 0
M  V30 6196 H 586.225 -0.21332 0.715894 0
M  V30 6197 H 588.887 0.156531 1.9427 0
M  V30 6198 H 587.983 -0.980577 2.96296 0
M  V30 6199 N 588.284 -1.56567 -0.180126 0
M  V30 6200 C 589.695 -1.7126 -0.743422 0
M  V30 6201 C 590.046 -0.70263 -1.83187 0
M  V30 6202 O 589.171 0.137856 -2.1596 0
M  V30 6203 C 589.766 -3.10512 -1.35528 0
M  V30 6204 C 588.325 -3.26919 -1.8655 0
M  V30 6205 C 587.472 -2.67213 -0.741099 0
M  V30 6206 H 590.423 -1.58636 0.0451543 0
M  V30 6207 H 590.444 -3.08673 -2.22489 0
M  V30 6208 H 589.956 -3.83997 -0.562862 0
M  V30 6209 H 588.057 -2.58376 -2.68464 0
M  V30 6210 H 588.17 -4.34574 -2.01699 0
M  V30 6211 H 586.534 -2.26788 -1.15927 0
M  V30 6212 H 587.317 -3.43277 0.0393291 0
M  V30 6213 N 589.762 0.448376 -1.51087 0
M  V30 6214 C 591.173 1.0286 -1.5581 0
M  V30 6215 C 591.524 1.92583 -0.374989 0
M  V30 6216 O 590.649 2.10316 0.509533 0
M  V30 6217 C 591.244 1.87223 -2.8237 0
M  V30 6218 C 589.803 2.40314 -2.897 0
M  V30 6219 C 588.95 1.19238 -2.50355 0
M  V30 6220 H 591.901 0.230075 -1.57023 0
M  V30 6221 H 591.922 2.72553 -2.6551 0
M  V30 6222 H 591.434 1.21894 -3.68461 0
M  V30 6223 H 589.535 3.09129 -2.08014 0
M  V30 6224 H 589.648 2.73866 -3.93108 0
M  V30 6225 H 588.012 1.53428 -2.03303 0
M  V30 6226 H 588.795 0.555367 -3.38778 0
M  V30 6227 N 591.24 1.41047 0.703093 0
M  V30 6228 C 592.488 1.39723 1.4602 0
M  V30 6229 C 592.809 0.00461257 1.94999 0
M  V30 6230 O 592.079 -0.952292 1.71196 0
M  V30 6231 H 590.659 0.514281 0.541779 0
M  V30 6232 H 593.321 1.76217 0.832678 0
M  V30 6233 H 592.417 2.07982 2.32701 0
M  V30 6234 N 592.718 -0.936591 1.26751 0
M  V30 6235 C 594.134 -1.21095 1.03963 0
M  V30 6236 C 594.334 -2.00156 -0.232372 0
M  V30 6237 O 593.39 -2.3434 -0.940274 0
M  V30 6238 C 594.703 -1.96775 2.27377 0
M  V30 6239 C 596.251 -2.09749 2.32324 0
M  V30 6240 C 596.726 -2.88832 3.55443 0
M  V30 6241 N 598.217 -2.96404 3.55948 0
M  V30 6242 C 598.952 -3.58036 4.47881 0
M  V30 6243 N 598.448 -4.21132 5.50109 0
M  V30 6244 N 600.241 -3.55353 4.35523 0
M  V30 6245 H 592.392 -0.408173 2.08441 0
M  V30 6246 H 594.655 -0.243139 0.91629 0
M  V30 6247 H 594.361 -1.46094 3.19921 0
M  V30 6248 H 594.235 -2.97424 2.31989 0
M  V30 6249 H 596.622 -2.5962 1.40291 0
M  V30 6250 H 596.703 -1.08347 2.31721 0
M  V30 6251 H 596.347 -2.39647 4.47808 0
M  V30 6252 H 596.277 -3.90499 3.53296 0
M  V30 6253 H 598.768 -2.51552 2.82011 0
M  V30 6254 H 599.081 -4.66071 6.16439 0
M  V30 6255 H 597.426 -4.19705 5.53961 0
M  V30 6256 H 600.617 -3.05256 3.54875 0
M  V30 6257 H 600.79 -4.03097 5.07363 0
M  V30 6258 N 594.196 -1.08629 -1.14182 0
M  V30 6259 C 595.424 -0.838889 -1.8913 0
M  V30 6260 C 595.839 0.609153 -1.78703 0
M  V30 6261 O 595.196 1.41876 -1.14794 0
M  V30 6262 C 595.247 -1.25477 -3.39025 0
M  V30 6263 O 594.968 -2.64601 -3.49167 0
M  V30 6264 C 596.469 -1.03856 -4.30963 0
M  V30 6265 H 593.689 -0.302377 -0.599007 0
M  V30 6266 H 596.233 -1.44615 -1.44592 0
M  V30 6267 H 594.388 -0.691571 -3.81177 0
M  V30 6268 H 594.802 -2.81922 -4.42289 0
M  V30 6269 H 596.276 -1.37892 -5.345 0
M  V30 6270 H 596.753 0.0242522 -4.39193 0
M  V30 6271 H 597.359 -1.58731 -3.94569 0
M  V30 6272 N 595.674 1.31259 -0.872281 0
M  V30 6273 C 596.951 1.91362 -0.404943 0
M  V30 6274 C 597.331 1.79362 1.11321 0
M  V30 6275 O 596.679 1.20277 1.94283 0
M  V30 6276 C 596.889 3.3749 -0.888893 0
M  V30 6277 C 598.237 4.14593 -0.916384 0
M  V30 6278 O 599.261 3.46282 -0.834701 0
M  V30 6279 O 598.12 5.3661 -1.03498 0
M  V30 6280 H 595.214 0.818016 -0.121569 0
M  V30 6281 H 597.76 1.39912 -0.960346 0
M  V30 6282 H 596.532 3.40249 -1.93251 0
M  V30 6283 H 596.155 3.96375 -0.311932 0
M  V30 6284 N 597.152 0.631951 1.44375 0
M  V30 6285 C 598.4 0.136497 2.01639 0
M  V30 6286 C 598.721 -1.24637 1.49969 0
M  V30 6287 O 597.991 -1.82827 0.70363 0
M  V30 6288 H 596.571 0.0474703 0.74549 0
M  V30 6289 H 599.233 0.818837 1.76865 0
M  V30 6290 H 598.329 0.104817 3.11924 0
M  V30 6291 N 598.631 -1.53133 0.372548 0
M  V30 6292 C 600.047 -1.59585 0.02178 0
M  V30 6293 C 600.247 -1.38736 -1.46132 0
M  V30 6294 O 599.303 -1.19599 -2.22379 0
M  V30 6295 C 600.616 -2.9678 0.483959 0
M  V30 6296 C 602.164 -3.09909 0.438775 0
M  V30 6297 C 602.639 -4.49527 0.876876 0
M  V30 6298 N 604.13 -4.55663 0.832214 0
M  V30 6299 C 604.865 -5.61896 1.14281 0
M  V30 6300 N 604.361 -6.75852 1.52303 0
M  V30 6301 N 606.154 -5.51916 1.06515 0
M  V30 6302 H 598.305 -1.64936 1.33827 0
M  V30 6303 H 600.568 -0.773947 0.547458 0
M  V30 6304 H 600.274 -3.17198 1.51915 0
M  V30 6305 H 600.148 -3.7699 -0.125784 0
M  V30 6306 H 602.535 -2.89197 -0.587294 0
M  V30 6307 H 602.616 -2.31691 1.0841 0
M  V30 6308 H 602.26 -4.70979 1.90109 0
M  V30 6309 H 602.19 -5.26186 0.208727 0
M  V30 6310 H 604.681 -3.73844 0.552195 0
M  V30 6311 H 604.994 -7.52862 1.7441 0
M  V30 6312 H 603.339 -6.77226 1.56175 0
M  V30 6313 H 606.53 -4.6177 0.767235 0
M  V30 6314 H 606.703 -6.34609 1.31053 0
M  V30 6315 N 600.109 -0.101901 -1.5727 0
M  V30 6316 C 601.072 0.840129 -2.13247 0
M  V30 6317 C 602.072 1.20625 -1.06331 0
M  V30 6318 O 603.262 1.13456 -1.32186 0
M  V30 6319 C 600.394 2.13372 -2.65867 0
M  V30 6320 H 601.587 0.353945 -2.97804 0
M  V30 6321 H 599.14 0.147167 -1.55606 0
M  V30 6322 H 599.875 2.66461 -1.84849 0
M  V30 6323 H 599.66 1.88085 -3.44044 0
M  V30 6324 H 601.15 2.80748 -3.09145 0
M  V30 6325 N 601.587 1.56661 0.17182 0
M  V30 6326 C 602.864 1.72838 0.915778 0
M  V30 6327 C 603.244 0.66316 2.00413 0
M  V30 6328 O 602.592 -0.322123 2.26218 0
M  V30 6329 C 602.802 3.16019 1.48097 0
M  V30 6330 C 604.15 3.76962 1.95408 0
M  V30 6331 O 605.174 3.19294 1.57892 0
M  V30 6332 O 604.033 4.78219 2.64516 0
M  V30 6333 H 601.127 0.705797 0.431021 0
M  V30 6334 H 603.673 1.68947 0.159689 0
M  V30 6335 H 602.445 3.85031 0.697618 0
M  V30 6336 H 602.068 3.24234 2.30126 0
M  V30 6337 N 603.065 -0.440357 1.51323 0
M  V30 6338 C 604.012 -1.53429 1.72419 0
M  V30 6339 C 604.982 -1.56165 0.565826 0
M  V30 6340 O 606.167 -1.73222 0.799917 0
M  V30 6341 C 603.307 -2.91169 1.85242 0
M  V30 6342 C 602.42 -2.97985 3.12777 0
M  V30 6343 C 601.555 -4.26829 3.16212 0
M  V30 6344 C 600.594 -4.27501 4.38074 0
M  V30 6345 N 599.731 -5.47866 4.39076 0
M  V30 6346 H 604.571 -1.34743 2.65797 0
M  V30 6347 H 602.108 -0.654608 1.31732 0
M  V30 6348 H 604.066 -3.71087 1.90658 0
M  V30 6349 H 602.696 -3.0842 0.952744 0
M  V30 6350 H 601.748 -2.10749 3.16685 0
M  V30 6351 H 603.06 -2.94342 4.02696 0
M  V30 6352 H 602.214 -5.15118 3.20527 0
M  V30 6353 H 600.953 -4.33124 2.24176 0
M  V30 6354 H 599.958 -3.37606 4.33938 0
M  V30 6355 H 601.183 -4.22873 5.31371 0
M  V30 6356 H 599.129 -5.54887 3.49909 0
M  V30 6357 H 599.046 -5.46091 5.22801 0
M  V30 6358 H 600.314 -6.38195 4.4758 0
M  V30 6359 N 604.543 -1.41418 -0.695603 0
M  V30 6360 C 605.768 -1.44329 -1.48942 0
M  V30 6361 C 606.193 -0.0501579 -1.88033 0
M  V30 6362 O 605.551 0.946598 -1.54626 0
M  V30 6363 C 605.599 -2.3578 -2.72837 0
M  V30 6364 O 604.703 -1.81482 -3.70322 0
M  V30 6365 H 604.044 -0.489838 -0.44828 0
M  V30 6366 H 606.574 -1.85878 -0.855014 0
M  V30 6367 H 606.584 -2.51654 -3.21145 0
M  V30 6368 H 605.259 -3.37005 -2.43722 0
M  V30 6369 H 603.836 -1.75058 -3.29255 0
M  V30 6370 N 606.021 0.929856 -1.27246 0
M  V30 6371 C 606.968 2.03017 -1.09785 0
M  V30 6372 C 607.938 1.661 0.000456744 0
M  V30 6373 O 609.123 1.90116 -0.161462 0
M  V30 6374 C 606.263 3.36878 -0.748816 0
M  V30 6375 C 605.376 3.86763 -1.92453 0
M  V30 6376 C 604.511 5.09061 -1.51758 0
M  V30 6377 C 603.55 5.51237 -2.66091 0
M  V30 6378 N 602.687 6.64732 -2.25999 0
M  V30 6379 H 607.527 2.17285 -2.03939 0
M  V30 6380 H 605.064 1.06448 -1.01524 0
M  V30 6381 H 607.022 4.13855 -0.527283 0
M  V30 6382 H 605.652 3.22424 0.155771 0
M  V30 6383 H 604.704 3.06086 -2.25867 0
M  V30 6384 H 606.016 4.13994 -2.78227 0
M  V30 6385 H 605.17 5.93532 -1.25716 0
M  V30 6386 H 603.909 4.83602 -0.630896 0
M  V30 6387 H 602.914 4.65316 -2.92849 0
M  V30 6388 H 604.139 5.78692 -3.55377 0
M  V30 6389 H 602.085 6.40935 -1.3978 0
M  V30 6390 H 602.002 6.91607 -3.05313 0
M  V30 6391 H 603.27 7.52549 -2.03199 0
M  V30 6392 N 607.499 1.09233 1.13605 0
M  V30 6393 C 608.747 0.825525 1.84471 0
M  V30 6394 C 609.068 -0.650702 1.83823 0
M  V30 6395 O 608.338 -1.47204 1.29259 0
M  V30 6396 H 606.918 0.3024 0.683054 0
M  V30 6397 H 609.58 1.38006 1.37624 0
M  V30 6398 H 608.676 1.17727 2.89045 0
M  V30 6399 N 608.977 -1.30795 0.87923 0
M  V30 6400 C 609.909 -2.27241 0.299025 0
M  V30 6401 C 610.922 -1.53472 -0.543166 0
M  V30 6402 O 612.111 -1.74756 -0.363651 0
M  V30 6403 C 609.211 -3.33655 -0.593931 0
M  V30 6404 C 608.384 -4.36857 0.2179 0
M  V30 6405 C 607.443 -5.22715 -0.604646 0
M  V30 6406 O 606.469 -5.69192 -0.0293838 0
M  V30 6407 N 607.671 -5.48008 -1.91488 0
M  V30 6408 H 610.436 -2.77667 1.12788 0
M  V30 6409 H 607.997 -1.43914 0.741637 0
M  V30 6410 H 609.989 -3.88013 -1.15012 0
M  V30 6411 H 608.559 -2.83202 -1.32346 0
M  V30 6412 H 607.779 -3.82444 0.955536 0
M  V30 6413 H 609.067 -5.02869 0.774614 0
M  V30 6414 H 608.465 -5.1202 -2.40525 0
M  V30 6415 H 607.022 -6.05264 -2.41864 0
M  V30 6416 N 610.455 -0.639598 -1.44038 0
M  V30 6417 C 611.701 -0.147698 -2.02261 0
M  V30 6418 C 612.034 1.23031 -1.50256 0
M  V30 6419 O 611.309 1.81847 -0.690068 0
M  V30 6420 C 611.592 -0.14362 -3.59813 0
M  V30 6421 C 611.445 -1.55458 -4.22082 0
M  V30 6422 C 612.764 0.527317 -4.36929 0
M  V30 6423 H 609.883 -0.0551453 -0.734934 0
M  V30 6424 H 612.525 -0.817688 -1.71505 0
M  V30 6425 H 610.675 0.426898 -3.86147 0
M  V30 6426 H 612.347 -2.17464 -4.06826 0
M  V30 6427 H 610.59 -2.10594 -3.79253 0
M  V30 6428 H 611.261 -1.50369 -5.31124 0
M  V30 6429 H 613.737 0.0420504 -4.16079 0
M  V30 6430 H 612.613 0.499389 -5.46624 0
M  V30 6431 H 612.874 1.59914 -4.12165 0
M  V30 6432 N 611.933 1.52934 -0.380664 0
M  V30 6433 C 613.179 2.01765 0.20458 0
M  V30 6434 C 613.512 1.26696 1.47179 0
M  V30 6435 O 612.787 0.364936 1.91046 0
M  V30 6436 C 613.07 3.56869 0.481269 0
M  V30 6437 C 612.923 4.42617 -0.800629 0
M  V30 6438 C 614.242 4.2121 1.27554 0
M  V30 6439 H 611.361 0.733388 0.0728803 0
M  V30 6440 H 614.003 1.83068 -0.50853 0
M  V30 6441 H 612.153 3.72932 1.08875 0
M  V30 6442 H 613.825 4.38323 -1.43773 0
M  V30 6443 H 612.068 4.09977 -1.4178 0
M  V30 6444 H 612.739 5.49134 -0.561791 0
M  V30 6445 H 615.215 4.09072 0.761514 0
M  V30 6446 H 614.091 5.29732 1.43788 0
M  V30 6447 H 614.352 3.78269 2.28833 0
M  V30 6448 N 613.412 0.11024 1.57214 0
M  V30 6449 C 614.342 -0.840002 2.17867 0
M  V30 6450 C 615.323 -1.28352 1.11624 0
M  V30 6451 O 616.508 -1.3477 1.39824 0
M  V30 6452 C 613.638 -2.09349 2.77111 0
M  V30 6453 C 612.592 -1.78807 3.8886 0
M  V30 6454 C 611.918 -3.11112 4.34872 0
M  V30 6455 C 613.218 -1.0632 5.11364 0
M  V30 6456 H 614.912 -0.334608 2.97524 0
M  V30 6457 H 612.458 -0.159502 1.43114 0
M  V30 6458 H 614.411 -2.76275 3.18198 0
M  V30 6459 H 613.135 -2.62198 1.9473 0
M  V30 6460 H 611.794 -1.14273 3.48335 0
M  V30 6461 H 611.442 -3.61877 3.49362 0
M  V30 6462 H 611.142 -2.91453 5.10224 0
M  V30 6463 H 612.666 -3.79171 4.78604 0
M  V30 6464 H 614.08 -1.63383 5.49526 0
M  V30 6465 H 612.477 -0.967876 5.92243 0
M  V30 6466 H 613.547 -0.0484569 4.84876 0
M  V30 6467 N 614.89 -1.56749 -0.16351 0
M  V30 6468 C 615.853 -1.96121 -1.18613 0
M  V30 6469 C 616.853 -0.845765 -1.36761 0
M  V30 6470 O 618.043 -1.11268 -1.34033 0
M  V30 6471 C 615.175 -2.26282 -2.54969 0
M  V30 6472 H 616.368 -2.87639 -0.848764 0
M  V30 6473 H 613.921 -1.50928 -0.406251 0
M  V30 6474 H 614.656 -1.37504 -2.93706 0
M  V30 6475 H 614.441 -3.07595 -2.43162 0
M  V30 6476 H 615.931 -2.57638 -3.28653 0
M  V30 6477 N 616.368 0.432326 -1.51554 0
M  V30 6478 C 617.596 1.20364 -1.68286 0
M  V30 6479 C 618.011 1.84888 -0.38233 0
M  V30 6480 O 617.368 1.70924 0.639627 0
M  V30 6481 C 617.419 2.28398 -2.80208 0
M  V30 6482 O 617.14 1.66512 -4.05223 0
M  V30 6483 C 618.641 3.18584 -3.08251 0
M  V30 6484 H 615.861 0.36259 -0.564596 0
M  V30 6485 H 618.405 0.511647 -1.97996 0
M  V30 6486 H 616.56 2.93305 -2.53083 0
M  V30 6487 H 616.974 2.37951 -4.67418 0
M  V30 6488 H 618.448 3.90511 -3.90135 0
M  V30 6489 H 618.925 3.79628 -2.2086 0
M  V30 6490 H 619.531 2.59372 -3.37055 0
M  V30 6491 N 617.846 1.41785 0.688094 0
M  V30 6492 C 618.809 1.43936 1.78368 0
M  V30 6493 C 619.809 0.328866 1.57401 0
M  V30 6494 O 620.999 0.589093 1.63937 0
M  V30 6495 C 618.131 1.25804 3.16838 0
M  V30 6496 H 619.324 2.41472 1.77852 0
M  V30 6497 H 616.877 1.28037 0.896448 0
M  V30 6498 H 617.612 0.291386 3.22988 0
M  V30 6499 H 617.397 2.06272 3.33458 0
M  V30 6500 H 618.887 1.30162 3.96797 0
M  V30 6501 N 619.324 -0.923095 1.27737 0
M  V30 6502 C 620.573 -1.66581 1.13727 0
M  V30 6503 C 620.886 -1.9304 -0.315433 0
M  V30 6504 O 622.092 -2.65309 -0.57651 0
M  V30 6505 C 620.548 -3.00047 1.98745 0
M  V30 6506 C 620.156 -2.8127 3.48699 0
M  V30 6507 C 621.9 -3.77887 1.93395 0
M  V30 6508 C 619.807 -4.1032 4.25901 0
M  V30 6509 H 618.737 -0.624834 0.422017 0
M  V30 6510 H 621.388 -1.02514 1.52194 0
M  V30 6511 H 619.77 -3.65197 1.53125 0
M  V30 6512 H 620.944 -2.24859 4.02213 0
M  V30 6513 H 619.259 -2.16854 3.55476 0
M  V30 6514 H 621.856 -4.73526 2.48348 0
M  V30 6515 H 622.199 -4.06264 0.908605 0
M  V30 6516 H 622.732 -3.19541 2.36935 0
M  V30 6517 H 619.471 -3.8712 5.28978 0
M  V30 6518 H 618.991 -4.66377 3.77163 0
M  V30 6519 H 620.67 -4.78648 4.35321 0
M  V30 6520 N 620.802 -1.09834 -1.13024 0
M  V30 6521 C 621.712 -0.753731 -2.22162 0
M  V30 6522 C 622.728 0.246105 -1.72251 0
M  V30 6523 O 623.904 0.0864051 -2.01215 0
M  V30 6524 C 620.969 -0.183958 -3.46212 0
M  V30 6525 C 620.03 -1.24028 -4.10993 0
M  V30 6526 C 619.263 -0.697597 -5.29121 0
M  V30 6527 O 619.486 0.478092 -5.68393 0
M  V30 6528 O 618.42 -1.4546 -5.84059 0
M  V30 6529 H 622.246 -1.66456 -2.5402 0
M  V30 6530 H 619.831 -0.873026 -1.21238 0
M  V30 6531 H 621.713 0.130257 -4.21199 0
M  V30 6532 H 620.388 0.699823 -3.16045 0
M  V30 6533 H 619.295 -1.60725 -3.37814 0
M  V30 6534 H 620.628 -2.09685 -4.45301 0
M  V30 6535 N 622.28 1.30327 -0.886154 0
M  V30 6536 C 623.529 1.95373 -0.501243 0
M  V30 6537 C 623.842 1.70722 0.954634 0
M  V30 6538 O 625.048 2.29761 1.44644 0
M  V30 6539 C 623.504 3.49828 -0.845493 0
M  V30 6540 C 623.112 3.83296 -2.31922 0
M  V30 6541 C 624.856 4.2118 -0.529838 0
M  V30 6542 C 622.763 5.30935 -2.60504 0
M  V30 6543 H 621.693 0.731274 -0.183722 0
M  V30 6544 H 624.344 1.48258 -1.08129 0
M  V30 6545 H 622.726 3.95522 -0.19452 0
M  V30 6546 H 623.9 3.48508 -3.01461 0
M  V30 6547 H 622.215 3.2505 -2.60253 0
M  V30 6548 H 624.812 5.29825 -0.720401 0
M  V30 6549 H 625.155 4.12902 0.530828 0
M  V30 6550 H 625.688 3.81173 -1.13806 0
M  V30 6551 H 622.427 5.44265 -3.65316 0
M  V30 6552 H 621.947 5.67019 -1.95575 0
M  V30 6553 H 623.626 5.98381 -2.46066 0
M  V30 6554 N 623.758 0.647228 1.43697 0
M  V30 6555 C 624.998 0.16171 2.03759 0
M  V30 6556 C 625.362 -1.19951 1.49919 0
M  V30 6557 O 626.563 -1.77808 2.01588 0
M  V30 6558 C 624.834 0.16505 3.57019 0
M  V30 6559 S 626.393 -0.253497 4.38067 0
M  V30 6560 H 623.211 0.0689985 0.707644 0
M  V30 6561 H 625.813 0.854224 1.7585 0
M  V30 6562 H 624.517 1.15858 3.93707 0
M  V30 6563 H 624.048 -0.548194 3.89562 0
M  V30 6564 H 626.063 -1.49385 4.73179 0
M  V30 6565 N 625.236 -1.5273 0.388769 0
M  V30 6566 C 626.482 -2.01871 -0.193877 0
M  V30 6567 C 626.815 -1.27475 -1.46505 0
M  V30 6568 O 626.09 -0.375063 -1.90849 0
M  V30 6569 C 626.373 -3.5712 -0.462336 0
M  V30 6570 C 626.226 -4.42186 0.824091 0
M  V30 6571 C 627.545 -4.21881 -1.25319 0
M  V30 6572 H 624.664 -0.733764 -0.0689899 0
M  V30 6573 H 627.306 -1.82796 0.518231 0
M  V30 6574 H 625.456 -3.73504 -1.06896 0
M  V30 6575 H 627.128 -4.37554 1.46096 0
M  V30 6576 H 625.371 -4.09219 1.43952 0
M  V30 6577 H 626.042 -5.48828 0.590905 0
M  V30 6578 H 628.518 -4.0947 -0.73981 0
M  V30 6579 H 627.394 -5.30487 -1.40977 0
M  V30 6580 H 627.655 -3.79478 -2.26824 0
M  V30 6581 O 626.753 -0.258973 -1.5941 0
M  V30 6582 H 627.444 0.314239 -1.91134 0
M  V30 END ATOM
M  V30 BEGIN BOND
M  V30 END BOND
M  V30 END CTAB
M  END
$$$$
