drugbank_target|Q53119 AppA protein (DB07631)
 OpenBabel12092120453D

  0  0  0     0  0            999 V3000
M  V30 BEGIN CTAB
M  V30 COUNTS 6881 6935 0 0 0
M  V30 BEGIN ATOM
M  V30 1 H -0.908 1.98254 -0.117106 0
M  V30 2 N 0 1.576 0 0
M  V30 3 C 0.933 2.03868 1.02534 0
M  V30 4 C 1.911 0.928543 1.3348 0
M  V30 5 O 3.095 1.19667 1.45644 0
M  V30 6 C 0.222 2.43627 2.35294 0
M  V30 7 C -0.732 3.65373 2.2001 0
M  V30 8 S 0.101 5.13292 1.52614 0
M  V30 9 C 1.257 5.56322 2.86805 0
M  V30 10 H 1.49 2.90518 0.631377 0
M  V30 11 H -0.977 1.52953 0.210867 0
M  V30 12 H 0.981 2.67203 3.11629 0
M  V30 13 H -0.358 1.57376 2.7183 0
M  V30 14 H -1.165 3.90944 3.18086 0
M  V30 15 H -1.563 3.418 1.51819 0
M  V30 16 H 0.729 5.58782 3.83104 0
M  V30 17 H 1.672 6.56266 2.65933 0
M  V30 18 H 2.08 4.83886 2.90714 0
M  V30 19 N 1.4781 -0.272755 1.55222 0
M  V30 20 C 2.4101 -1.35946 1.8453 0
M  V30 21 C 3.4231 -1.45525 0.729818 0
M  V30 22 O 4.6121 -1.47337 1.00767 0
M  V30 23 C 1.7121 -2.74069 1.99347 0
M  V30 24 C 0.8851 -2.87079 3.30007 0
M  V30 25 C -0.0559 -4.05879 3.34886 0
M  V30 26 O -1.0299 -3.96626 4.08261 0
M  V30 27 N 0.1721 -5.17857 2.62307 0
M  V30 28 H 2.9371 -1.11149 2.78327 0
M  V30 29 H 0.4981 -0.462869 1.55142 0
M  V30 30 H 2.4901 -3.51838 1.99981 0
M  V30 31 H 1.0601 -2.91688 1.12415 0
M  V30 32 H 0.2801 -1.96193 3.41909 0
M  V30 33 H 1.5681 -2.92701 4.16177 0
M  V30 34 H 0.9661 -5.28261 2.02377 0
M  V30 35 H -0.4769 -5.93855 2.68663 0
M  V30 36 N 2.9562 -1.48159 -0.537278 0
M  V30 37 C 3.9062 -1.5854 -1.63857 0
M  V30 38 C 4.8902 -0.442969 -1.54682 0
M  V30 39 O 6.0822 -0.69401 -1.62827 0
M  V30 40 C 3.2112 -1.62144 -3.02596 0
M  V30 41 C 2.2972 -2.81841 -3.16901 0
M  V30 42 N 2.6882 -4.06337 -3.01204 0
M  V30 43 C 0.9862 -2.79021 -3.47942 0
M  V30 44 C 1.6872 -4.86606 -3.18731 0
M  V30 45 N 0.6632 -4.19288 -3.45974 0
M  V30 46 H 4.4652 -2.5255 -1.50319 0
M  V30 47 H 1.9792 -1.4443 -0.742555 0
M  V30 48 H 3.9762 -1.67674 -3.81695 0
M  V30 49 H 2.6362 -0.69245 -3.17231 0
M  V30 50 H 3.6472 -4.36888 -2.78117 0
M  V30 51 H 0.3242 -1.95347 -3.6898 0
M  V30 52 H 1.7142 -5.95385 -3.11394 0
M  V30 53 N 4.4343 0.785586 -1.36625 0
M  V30 54 C 5.7113 1.53198 -1.21613 0
M  V30 55 C 6.0913 2.10187 0.196113 0
M  V30 56 O 5.4393 1.94318 1.20219 0
M  V30 57 C 5.6493 2.62388 -2.30116 0
M  V30 58 C 6.9973 3.30167 -2.66974 0
M  V30 59 O 8.0213 2.72674 -2.29188 0
M  V30 60 O 6.8803 4.34077 -3.32023 0
M  V30 61 H 3.9743 0.677865 -0.473738 0
M  V30 62 H 6.5203 0.823739 -1.48367 0
M  V30 63 H 5.2923 2.18299 -3.24748 0
M  V30 64 H 4.9153 3.40827 -2.0475 0
M  V30 65 N 5.9124 1.20967 1.01018 0
M  V30 66 C 6.8424 0.988272 2.11555 0
M  V30 67 C 7.8234 -0.0849778 1.69888 0
M  V30 68 O 9.0084 0.0738202 1.9406 0
M  V30 69 C 6.1384 0.546528 3.42973 0
M  V30 70 C 5.0924 1.56375 3.9841 0
M  V30 71 C 4.4184 0.97842 5.25672 0
M  V30 72 C 5.7184 2.94922 4.31066 0
M  V30 73 H 7.4124 1.91276 2.30334 0
M  V30 74 H 4.9584 0.921073 1.1069 0
M  V30 75 H 6.9114 0.378839 4.19694 0
M  V30 76 H 5.6354 -0.413598 3.23971 0
M  V30 77 H 4.2944 1.71891 3.23804 0
M  V30 78 H 3.9424 0.0101688 5.02999 0
M  V30 79 H 3.6424 1.65784 5.63728 0
M  V30 80 H 5.1664 0.821939 6.05043 0
M  V30 81 H 6.5804 2.8288 4.9865 0
M  V30 82 H 4.9774 3.5983 4.80253 0
M  V30 83 H 6.0474 3.4616 3.39561 0
M  V30 84 N 7.3905 -1.2043 1.01659 0
M  V30 85 C 8.3005 -2.2689 0.596484 0
M  V30 86 C 9.3165 -1.70107 -0.36599 0
M  V30 87 O 10.4925 -2.00117 -0.226942 0
M  V30 88 C 7.5575 -3.4665 -0.0586659 0
M  V30 89 C 6.6185 -4.18662 0.949751 0
M  V30 90 C 5.8515 -5.32705 0.32577 0
M  V30 91 O 6.0745 -5.63656 -0.874509 0
M  V30 92 O 5.0085 -5.92803 1.04249 0
M  V30 93 H 8.8345 -2.65041 1.4828 0
M  V30 94 H 6.4195 -1.27048 0.786082 0
M  V30 95 H 8.3015 -4.19256 -0.424564 0
M  V30 96 H 6.9765 -3.10375 -0.91918 0
M  V30 97 H 5.8835 -3.48229 1.36702 0
M  V30 98 H 7.2165 -4.58878 1.78023 0
M  V30 99 N 8.8686 -0.792821 -1.36206 0
M  V30 100 C 9.8316 -0.199459 -2.2833 0
M  V30 101 C 10.8316 0.605189 -1.48977 0
M  V30 102 O 12.0216 0.425685 -1.68919 0
M  V30 103 C 9.1536 0.723523 -3.33134 0
M  V30 104 H 10.3466 -1.01181 -2.82316 0
M  V30 105 H 7.8996 -0.562485 -1.45828 0
M  V30 106 H 8.6346 1.56008 -2.84309 0
M  V30 107 H 8.4196 0.148436 -3.91819 0
M  V30 108 H 9.9096 1.13344 -4.01924 0
M  V30 109 N 10.3467 1.47872 -0.545128 0
M  V30 110 C 11.6237 1.9554 0.0485222 0
M  V30 111 C 12.0037 1.4876 1.49779 0
M  V30 112 O 11.3517 0.720925 2.16829 0
M  V30 113 C 11.5617 3.48898 -0.084417 0
M  V30 114 C 12.9097 4.24547 0.0671239 0
M  V30 115 O 13.9337 3.56198 -0.0113649 0
M  V30 116 O 12.7927 5.45999 0.233882 0
M  V30 117 H 9.8867 0.823957 0.0708773 0
M  V30 118 H 12.4327 1.58327 -0.610798 0
M  V30 119 H 11.2047 3.75714 -1.09337 0
M  V30 120 H 10.8277 3.92845 0.613066 0
M  V30 121 N 11.8248 0.280983 1.55075 0
M  V30 122 C 13.0708 -0.33461 2.00021 0
M  V30 123 C 13.4038 -1.55063 1.16915 0
M  V30 124 O 12.6788 -1.93006 0.240646 0
M  V30 125 C 12.9618 -0.711007 3.53011 0
M  V30 126 C 12.8148 0.512766 4.46868 0
M  V30 127 C 14.1338 -1.54522 4.12081 0
M  V30 128 H 11.2528 -0.120147 0.727141 0
M  V30 129 H 13.8948 0.389097 1.85973 0
M  V30 130 H 12.0448 -1.32761 3.65112 0
M  V30 131 H 13.7168 1.15131 4.46702 0
M  V30 132 H 11.9598 1.14975 4.18286 0
M  V30 133 H 12.6308 0.205556 5.51617 0
M  V30 134 H 15.1068 -1.02442 4.03293 0
M  V30 135 H 13.9828 -1.77739 5.19327 0
M  V30 136 H 14.2438 -2.52813 3.62682 0
M  V30 137 N 13.3029 -1.57598 0.00835791 0
M  V30 138 C 14.5309 -1.95214 -0.68549 0
M  V30 139 C 14.9459 -0.883706 -1.66841 0
M  V30 140 O 14.3029 0.136565 -1.81988 0
M  V30 141 C 14.3539 -3.32865 -1.41007 0
M  V30 142 O 14.0749 -4.35609 -0.466552 0
M  V30 143 C 15.5759 -3.84991 -2.19765 0
M  V30 144 H 12.7959 -0.643422 -0.190392 0
M  V30 145 H 15.3399 -2.04406 0.0619607 0
M  V30 146 H 13.4949 -3.24956 -2.10908 0
M  V30 147 H 13.9089 -5.15288 -0.978699 0
M  V30 148 H 15.3829 -4.8371 -2.65948 0
M  V30 149 H 15.8599 -3.18137 -3.02796 0
M  V30 150 H 16.4659 -3.96103 -1.54864 0
M  V30 151 N 14.781 0.264519 -1.55364 0
M  V30 152 C 15.714 1.35297 -1.83766 0
M  V30 153 C 16.692 1.47171 -0.691336 0
M  V30 154 O 17.876 1.63663 -0.935238 0
M  V30 155 C 15.003 2.72847 -2.00679 0
M  V30 156 C 14.049 2.78214 -3.23263 0
M  V30 157 S 14.882 2.36601 -4.80396 0
M  V30 158 C 16.038 3.7611 -5.00292 0
M  V30 159 H 16.271 1.11003 -2.758 0
M  V30 160 H 13.804 0.464596 -1.47244 0
M  V30 161 H 15.762 3.52057 -2.11108 0
M  V30 162 H 14.423 2.94388 -1.09518 0
M  V30 163 H 13.616 3.7919 -3.3201 0
M  V30 164 H 13.218 2.07034 -3.11469 0
M  V30 165 H 15.51 4.71457 -4.86554 0
M  V30 166 H 16.453 3.7231 -6.02321 0
M  V30 167 H 16.861 3.67806 -4.28228 0
M  V30 168 N 16.2591 1.48442 0.529413 0
M  V30 169 C 17.4871 1.60151 1.30994 0
M  V30 170 C 17.9021 0.261985 1.86973 0
M  V30 171 O 17.2591 -0.748805 1.66431 0
M  V30 172 C 17.3101 2.64854 2.46038 0
M  V30 173 O 17.0311 3.93608 1.92365 0
M  V30 174 C 18.5321 2.87007 3.37849 0
M  V30 175 H 15.7521 0.539971 0.398338 0
M  V30 176 H 18.2961 1.94273 0.638597 0
M  V30 177 H 16.4511 2.33589 3.09055 0
M  V30 178 H 16.8651 4.51055 2.67675 0
M  V30 179 H 18.3391 3.64068 4.14919 0
M  V30 180 H 18.8161 1.95852 3.93114 0
M  V30 181 H 19.4221 3.19579 2.80623 0
M  V30 182 N 17.7372 -0.778329 1.37039 0
M  V30 183 C 18.9852 -1.53361 1.31623 0
M  V30 184 C 19.3062 -1.94739 -0.100831 0
M  V30 185 O 18.5762 -1.65797 -1.04347 0
M  V30 186 H 17.1562 -0.568794 0.484234 0
M  V30 187 H 19.8182 -0.926742 1.71457 0
M  V30 188 H 18.9142 -2.43606 1.95096 0
M  V30 189 N 19.2153 -1.21501 -1.00376 0
M  V30 190 C 20.4403 -1.05977 -1.78279 0
M  V30 191 C 20.8653 0.385994 -1.84097 0
M  V30 192 O 20.2233 1.27849 -1.28547 0
M  V30 193 C 20.2713 -1.66302 -3.19963 0
M  V30 194 O 19.3753 -0.909333 -4.0225 0
M  V30 195 H 18.7163 -0.372906 -0.549397 0
M  V30 196 H 21.2463 -1.6107 -1.26165 0
M  V30 197 H 21.2563 -1.70574 -3.70632 0
M  V30 198 H 19.9313 -2.71515 -3.15043 0
M  V30 199 H 18.5083 -0.941795 -3.60811 0
M  V30 200 N 20.6934 1.19889 -1.02296 0
M  V30 201 C 21.9704 1.85148 -0.630832 0
M  V30 202 C 22.3504 1.91385 0.890782 0
M  V30 203 O 21.6984 1.42642 1.78509 0
M  V30 204 C 21.9084 3.24442 -1.28602 0
M  V30 205 C 23.2564 4.00663 -1.4055 0
M  V30 206 O 24.2804 3.33818 -1.24273 0
M  V30 207 O 23.1394 5.20387 -1.66913 0
M  V30 208 H 20.2334 0.797613 -0.218499 0
M  V30 209 H 22.7794 1.27427 -1.12074 0
M  V30 210 H 21.5514 3.14704 -2.32545 0
M  V30 211 H 21.1744 3.89802 -0.7836 0
M  V30 212 N 22.1715 0.800033 1.35784 0
M  V30 213 C 23.1015 0.220184 2.3246 0
M  V30 214 C 24.0825 -0.65073 1.57161 0
M  V30 215 O 25.2675 -0.582359 1.85263 0
M  V30 216 C 22.3975 -0.637353 3.41402 0
M  V30 217 C 21.3515 0.134531 4.27789 0
M  V30 218 C 20.6775 -0.844285 5.27992 0
M  V30 219 C 21.9775 1.32979 5.05088 0
M  V30 220 H 23.6715 1.02787 2.81203 0
M  V30 221 H 21.2175 0.495717 1.35199 0
M  V30 222 H 23.1705 -1.05302 4.08031 0
M  V30 223 H 21.8945 -1.47785 2.91251 0
M  V30 224 H 20.5535 0.531296 3.6273 0
M  V30 225 H 20.2015 -1.68011 4.74111 0
M  V30 226 H 19.9015 -0.332184 5.8666 0
M  V30 227 H 21.4255 -1.2583 5.97494 0
M  V30 228 H 22.8395 0.98934 5.64699 0
M  V30 229 H 21.2365 1.77593 5.7322 0
M  V30 230 H 22.3065 2.11978 4.36111 0
M  V30 231 N 23.6496 -1.47581 0.552962 0
M  V30 232 C 24.8956 -2.02782 0.0273648 0
M  V30 233 C 25.2286 -1.42687 -1.31734 0
M  V30 234 O 24.5036 -0.580897 -1.85623 0
M  V30 235 C 24.7866 -3.60031 -0.0702371 0
M  V30 236 C 24.6396 -4.30566 1.30126 0
M  V30 237 C 25.9586 -4.33028 -0.785771 0
M  V30 238 H 23.0776 -0.736912 0.0114185 0
M  V30 239 H 25.7196 -1.76056 0.714432 0
M  V30 240 H 23.8696 -3.82932 -0.655382 0
M  V30 241 H 25.5416 -4.19018 1.92929 0
M  V30 242 H 23.7846 -3.91086 1.87709 0
M  V30 243 H 24.4556 -5.39114 1.18573 0
M  V30 244 H 26.9316 -4.15095 -0.288982 0
M  V30 245 H 25.8076 -5.42695 -0.823013 0
M  V30 246 H 26.0686 -4.01945 -1.841 0
M  V30 247 N 25.1277 -0.289203 -1.54924 0
M  V30 248 C 26.3527 0.329299 -2.04769 0
M  V30 249 C 26.7777 1.4763 -1.16564 0
M  V30 250 O 26.1357 1.80527 -0.167186 0
M  V30 251 C 26.1837 0.774438 -3.52186 0
M  V30 252 O 25.2877 1.88038 -3.67036 0
M  V30 253 H 24.6287 0.0659259 -0.660719 0
M  V30 254 H 27.1587 -0.42761 -2.00082 0
M  V30 255 H 27.1687 1.06642 -3.93816 0
M  V30 256 H 25.8437 -0.0646707 -4.1585 0
M  V30 257 H 24.4207 1.58985 -3.3731 0
M  V30 258 N 26.6058 1.57591 -0.0167156 0
M  V30 259 C 27.8458 1.93145 0.668902 0
M  V30 260 C 28.2098 0.892406 1.7 0
M  V30 261 O 29.4108 1.13373 2.43721 0
M  V30 262 C 27.6818 3.33678 1.28039 0
M  V30 263 S 29.2408 3.91142 1.9888 0
M  V30 264 H 26.0588 0.67593 0.220545 0
M  V30 265 H 28.6608 1.95347 -0.0774105 0
M  V30 266 H 27.3648 4.07126 0.517339 0
M  V30 267 H 26.8958 3.3489 2.06427 0
M  V30 268 H 28.9108 3.73571 3.26587 0
M  V30 269 N 28.0839 -0.256276 1.55502 0
M  V30 270 C 29.3239 -0.993081 1.78654 0
M  V30 271 C 29.6879 -1.8288 0.584724 0
M  V30 272 O 30.8889 -2.59665 0.694822 0
M  V30 273 C 29.1599 -1.83856 3.06483 0
M  V30 274 S 30.7189 -2.63573 3.5082 0
M  V30 275 H 27.5369 -0.334199 0.62756 0
M  V30 276 H 30.1389 -0.26184 1.93739 0
M  V30 277 H 28.8429 -1.21414 3.92029 0
M  V30 278 H 28.3739 -2.61271 2.94111 0
M  V30 279 H 30.3889 -3.86312 3.11412 0
M  V30 280 N 29.562 -1.4872 -0.521534 0
M  V30 281 C 30.792 -1.6061 -1.29954 0
M  V30 282 C 31.2 -0.268728 -1.87282 0
M  V30 283 O 30.543 0.753221 -1.67548 0
M  V30 284 C 30.605 -2.60013 -2.48261 0
M  V30 285 C 30.269 -4.04874 -2.11957 0
M  V30 286 C 31.266 -4.92304 -1.67132 0
M  V30 287 C 28.951 -4.5047 -2.22221 0
M  V30 288 C 30.945 -6.2336 -1.33047 0
M  V30 289 C 28.632 -5.81544 -1.87748 0
M  V30 290 C 29.63 -6.67812 -1.43234 0
M  V30 291 O 29.318 -7.96446 -1.09217 0
M  V30 292 H 29.05 -0.544116 -0.401141 0
M  V30 293 H 31.604 -1.95339 -0.634958 0
M  V30 294 H 29.834 -2.20422 -3.17728 0
M  V30 295 H 31.523 -2.61648 -3.10315 0
M  V30 296 H 32.289 -4.58312 -1.58665 0
M  V30 297 H 28.168 -3.83504 -2.55823 0
M  V30 298 H 31.712 -6.90649 -0.982299 0
M  V30 299 H 27.609 -6.15069 -1.95858 0
M  V30 300 H 28.377 -8.09275 -1.22542 0
M  V30 301 N 31.0401 0.771051 -1.3745 0
M  V30 302 C 32.4561 1.07171 -1.18265 0
M  V30 303 C 32.6561 2.01491 -0.019287 0
M  V30 304 O 31.7121 2.44244 0.640408 0
M  V30 305 C 33.0251 1.66854 -2.50161 0
M  V30 306 C 34.5731 1.79109 -2.56689 0
M  V30 307 C 35.0481 2.42205 -3.88717 0
M  V30 308 N 36.5391 2.49655 -3.90162 0
M  V30 309 C 37.2741 2.9933 -4.8907 0
M  V30 310 N 36.7701 3.49172 -5.98374 0
M  V30 311 N 38.5631 2.9821 -4.76474 0
M  V30 312 H 30.7141 0.144796 -2.11906 0
M  V30 313 H 32.9771 0.126863 -0.939473 0
M  V30 314 H 32.6831 1.05017 -3.35655 0
M  V30 315 H 32.5571 2.6614 -2.673 0
M  V30 316 H 34.9441 2.40077 -1.71601 0
M  V30 317 H 35.0251 0.785757 -2.43433 0
M  V30 318 H 34.6691 1.81875 -4.74219 0
M  V30 319 H 34.5991 3.43345 -3.99276 0
M  V30 320 H 37.0901 2.14383 -3.11205 0
M  V30 321 H 37.4031 3.8548 -6.69795 0
M  V30 322 H 35.7481 3.47275 -6.02018 0
M  V30 323 H 38.9391 2.58572 -3.90203 0
M  V30 324 H 39.1121 3.36613 -5.53711 0
M  V30 325 N 32.5182 1.22032 0.997298 0
M  V30 326 C 33.7432 1.06921 1.77715 0
M  V30 327 C 34.1682 -0.376226 1.84299 0
M  V30 328 O 33.5262 -1.27165 1.29223 0
M  V30 329 C 33.5742 1.67996 3.19076 0
M  V30 330 O 32.6782 0.930653 4.01762 0
M  V30 331 H 32.0192 0.375814 0.547412 0
M  V30 332 H 34.5492 1.61737 1.25309 0
M  V30 333 H 34.5592 1.72538 3.69723 0
M  V30 334 H 33.2342 2.73182 3.13599 0
M  V30 335 H 31.8112 0.960917 3.60307 0
M  V30 336 N 33.9963 -1.19345 1.0293 0
M  V30 337 C 34.9263 -2.2481 0.631105 0
M  V30 338 C 35.9073 -1.66245 -0.360104 0
M  V30 339 O 37.0923 -1.92677 -0.242726 0
M  V30 340 C 34.2223 -3.47295 -0.0184607 0
M  V30 341 C 33.1763 -4.18536 0.895073 0
M  V30 342 C 32.5023 -5.34586 0.110592 0
M  V30 343 C 33.8023 -4.73287 2.209 0
M  V30 344 H 35.4963 -2.58372 1.51275 0
M  V30 345 H 33.0423 -1.24194 0.728818 0
M  V30 346 H 34.9953 -4.20268 -0.308675 0
M  V30 347 H 33.7193 -3.12933 -0.934907 0
M  V30 348 H 32.3783 -3.47446 1.16949 0
M  V30 349 H 32.0263 -4.96469 -0.807902 0
M  V30 350 H 31.7263 -5.83183 0.719087 0
M  V30 351 H 33.2503 -6.10355 -0.172871 0
M  V30 352 H 34.6643 -5.38013 1.98028 0
M  V30 353 H 33.0613 -5.32373 2.76946 0
M  V30 354 H 34.1313 -3.91331 2.86336 0
M  V30 355 N 35.4744 -0.807222 -1.35358 0
M  V30 356 C 36.4374 -0.223665 -2.28106 0
M  V30 357 C 37.4374 0.589354 -1.4961 0
M  V30 358 O 38.6274 0.407745 -1.69361 0
M  V30 359 C 35.7594 0.688149 -3.33882 0
M  V30 360 H 36.9524 -1.04169 -2.81227 0
M  V30 361 H 34.5054 -0.577921 -1.45223 0
M  V30 362 H 35.2404 1.52984 -2.85948 0
M  V30 363 H 35.0254 0.10687 -3.91954 0
M  V30 364 H 36.5154 1.09075 -4.03104 0
M  V30 365 N 36.9525 1.47285 -0.560781 0
M  V30 366 C 37.9155 2.28535 0.174488 0
M  V30 367 C 38.9155 1.37153 0.839388 0
M  V30 368 O 40.1055 1.59748 0.694702 0
M  V30 369 C 37.2375 3.16934 1.25561 0
M  V30 370 H 38.4305 2.95012 -0.539262 0
M  V30 371 H 35.9835 1.53034 -0.317865 0
M  V30 372 H 36.7185 2.55157 2.00164 0
M  V30 373 H 36.5035 3.8419 0.783604 0
M  V30 374 H 37.9935 3.78143 1.77193 0
M  V30 375 N 38.4306 0.297415 1.54768 0
M  V30 376 C 39.8416 -0.195947 1.85669 0
M  V30 377 C 40.1926 -1.53707 1.21937 0
M  V30 378 O 39.3176 -2.10164 0.515754 0
M  V30 379 C 39.9126 -0.362318 3.36857 0
M  V30 380 C 38.4716 -0.799901 3.67802 0
M  V30 381 C 37.6186 0.0938578 2.77141 0
M  V30 382 H 40.5696 0.518538 1.4999 0
M  V30 383 H 40.5906 -1.19745 3.61167 0
M  V30 384 H 40.1026 0.613921 3.83214 0
M  V30 385 H 38.2036 -1.78682 3.26961 0
M  V30 386 H 38.3166 -0.621773 4.75048 0
M  V30 387 H 36.6806 -0.426254 2.51108 0
M  V30 388 H 37.4636 1.06639 3.26318 0
M  V30 389 N 39.9087 -1.5758 0.0250728 0
M  V30 390 C 41.1857 -1.82917 -0.692873 0
M  V30 391 C 41.5657 -0.908137 -1.90568 0
M  V30 392 O 40.9137 0.0372298 -2.2847 0
M  V30 393 C 41.1237 -3.32034 -1.07492 0
M  V30 394 C 42.4717 -3.98406 -1.46826 0
M  V30 395 O 43.4957 -3.36505 -1.16801 0
M  V30 396 O 42.3547 -5.07497 -2.02754 0
M  V30 397 H 39.4487 -0.754079 -0.33955 0
M  V30 398 H 41.9947 -1.69619 0.0524456 0
M  V30 399 H 40.7667 -3.90728 -0.211552 0
M  V30 400 H 40.3897 -3.50424 -1.87854 0
M  V30 401 N 41.3868 0.248026 -1.55636 0
M  V30 402 C 42.3168 1.31079 -1.93237 0
M  V30 403 C 43.2978 1.50264 -0.797174 0
M  V30 404 O 44.4828 1.62891 -1.05737 0
M  V30 405 C 41.6128 2.66575 -2.22609 0
M  V30 406 C 40.5668 2.62087 -3.3837 0
M  V30 407 C 39.8928 4.01369 -3.53281 0
M  V30 408 C 41.1928 2.19171 -4.7409 0
M  V30 409 H 42.8868 0.998556 -2.82257 0
M  V30 410 H 40.4328 0.47891 -1.35803 0
M  V30 411 H 42.3858 3.41057 -2.47503 0
M  V30 412 H 41.1098 2.99432 -1.30414 0
M  V30 413 H 39.7688 1.90063 -3.13483 0
M  V30 414 H 39.4168 4.31489 -2.58508 0
M  V30 415 H 39.1168 3.99254 -4.31127 0
M  V30 416 H 40.6408 4.77552 -3.80495 0
M  V30 417 H 42.0548 2.83384 -4.98363 0
M  V30 418 H 40.4518 2.2817 -5.5503 0
M  V30 419 H 41.5218 1.14336 -4.71227 0
M  V30 420 N 42.8649 1.48995 0.513639 0
M  V30 421 C 44.0929 1.61531 1.29288 0
M  V30 422 C 44.5079 0.281801 1.86685 0
M  V30 423 O 43.8649 -0.731111 1.67215 0
M  V30 424 C 43.9159 2.67449 2.43215 0
M  V30 425 O 43.6369 3.95626 1.88179 0
M  V30 426 C 45.1379 2.90575 3.34785 0
M  V30 427 H 42.3579 0.544165 0.392588 0
M  V30 428 H 44.9019 1.9494 0.617956 0
M  V30 429 H 43.0569 2.36853 3.0656 0
M  V30 430 H 43.4709 4.53868 2.62876 0
M  V30 431 H 44.9449 3.68449 4.11035 0
M  V30 432 H 45.4219 2.00011 3.91015 0
M  V30 433 H 46.0279 3.22538 2.77218 0
M  V30 434 N 44.343 -0.763751 1.37857 0
M  V30 435 C 45.273 -1.89103 1.36975 0
M  V30 436 C 46.254 -1.68439 0.237152 0
M  V30 437 O 47.439 -1.8918 0.438713 0
M  V30 438 C 44.569 -3.26496 1.18395 0
M  V30 439 C 43.523 -3.61741 2.28751 0
M  V30 440 C 42.849 -4.97762 1.95286 0
M  V30 441 C 44.149 -3.67665 3.70972 0
M  V30 442 H 45.843 -1.90099 2.31307 0
M  V30 443 H 43.389 -0.91319 1.11341 0
M  V30 444 H 45.342 -4.05003 1.16406 0
M  V30 445 H 44.066 -3.25955 0.205215 0
M  V30 446 H 42.725 -2.85547 2.29909 0
M  V30 447 H 42.373 -4.93769 0.959221 0
M  V30 448 H 42.073 -5.22313 2.69189 0
M  V30 449 H 43.597 -5.7866 1.94898 0
M  V30 450 H 45.011 -4.36307 3.719 0
M  V30 451 H 43.408 -4.03718 4.43995 0
M  V30 452 H 44.478 -2.68134 4.0402 0
M  V30 453 N 45.8211 -1.22559 -0.990812 0
M  V30 454 C 47.2371 -0.985996 -1.255 0
M  V30 455 C 47.4371 0.319173 -1.98956 0
M  V30 456 O 46.4931 1.04127 -2.3003 0
M  V30 457 C 47.8061 -2.18607 -2.06474 0
M  V30 458 C 49.3541 -2.22985 -2.19651 0
M  V30 459 C 49.8291 -3.4255 -3.04012 0
M  V30 460 N 51.3201 -3.42725 -3.11599 0
M  V30 461 C 52.0551 -4.31892 -3.7717 0
M  V30 462 N 51.5511 -5.31279 -4.44651 0
M  V30 463 N 53.3441 -4.19662 -3.73952 0
M  V30 464 H 45.4951 -2.06469 -0.49841 0
M  V30 465 H 47.7581 -0.904853 -0.282747 0
M  V30 466 H 47.4641 -3.13267 -1.59865 0
M  V30 467 H 47.3381 -2.18838 -3.07229 0
M  V30 468 H 49.7251 -1.28871 -2.65474 0
M  V30 469 H 49.8061 -2.26791 -1.18319 0
M  V30 470 H 49.4501 -4.36965 -2.58889 0
M  V30 471 H 49.3801 -3.35984 -4.0549 0
M  V30 472 H 51.8711 -2.70807 -2.63575 0
M  V30 473 H 52.1841 -5.95593 -4.92431 0
M  V30 474 H 50.5291 -5.3519 -4.43392 0
M  V30 475 H 53.7201 -3.41268 -3.20396 0
M  V30 476 H 53.8931 -4.89358 -4.24774 0
M  V30 477 N 47.2992 1.18797 -1.03562 0
M  V30 478 C 48.5762 1.84469 -0.650434 0
M  V30 479 C 48.9562 1.92319 0.870433 0
M  V30 480 O 48.3042 1.44528 1.76986 0
M  V30 481 C 48.5142 3.2306 -1.32036 0
M  V30 482 C 49.8622 3.9915 -1.44792 0
M  V30 483 O 50.8862 3.32481 -1.27806 0
M  V30 484 O 49.7452 5.18587 -1.72423 0
M  V30 485 H 46.8392 0.795251 -0.226946 0
M  V30 486 H 49.3852 1.26231 -1.13419 0
M  V30 487 H 48.1572 3.1222 -2.3587 0
M  V30 488 H 47.7802 3.88949 -0.8249 0
M  V30 489 N 48.7773 0.814389 1.34928 0
M  V30 490 C 49.7073 0.244827 2.32213 0
M  V30 491 C 50.6883 -0.634024 1.57842 0
M  V30 492 O 51.8733 -0.562676 1.8587 0
M  V30 493 C 49.0033 -0.601106 3.42058 0
M  V30 494 C 47.9573 0.179896 4.27622 0
M  V30 495 C 47.2833 -0.788237 5.28858 0
M  V30 496 C 48.5833 1.38329 5.03649 0
M  V30 497 H 50.2773 1.05763 2.80097 0
M  V30 498 H 47.8233 0.510029 1.34665 0
M  V30 499 H 49.7763 -1.00968 4.09125 0
M  V30 500 H 48.5003 -1.44688 2.92802 0
M  V30 501 H 47.1593 0.569739 3.62146 0
M  V30 502 H 46.8073 -1.62973 4.75866 0
M  V30 503 H 46.5073 -0.269942 5.8698 0
M  V30 504 H 48.0313 -1.19485 5.98795 0
M  V30 505 H 49.4453 1.04918 5.63618 0
M  V30 506 H 47.8423 1.83662 5.71304 0
M  V30 507 H 48.9123 2.16592 4.33839 0
M  V30 508 N 50.2554 -1.46986 0.568584 0
M  V30 509 C 51.1854 -2.32946 -0.160753 0
M  V30 510 C 52.1664 -1.44487 -0.897631 0
M  V30 511 O 53.3514 -1.73327 -0.875867 0
M  V30 512 C 50.4814 -3.26494 -1.18403 0
M  V30 513 C 49.4354 -4.24282 -0.562895 0
M  V30 514 C 48.7614 -5.07236 -1.69163 0
M  V30 515 C 50.0614 -5.19989 0.490761 0
M  V30 516 H 51.7554 -2.94175 0.556916 0
M  V30 517 H 49.3014 -1.4146 0.26927 0
M  V30 518 H 51.2544 -3.85477 -1.70251 0
M  V30 519 H 49.9784 -2.63343 -1.93179 0
M  V30 520 H 48.6374 -3.66541 -0.0656164 0
M  V30 521 H 48.2854 -4.4048 -2.42871 0
M  V30 522 H 47.9854 -5.7345 -1.28174 0
M  V30 523 H 49.5094 -5.6908 -2.21314 0
M  V30 524 H 50.9234 -5.73271 0.0579047 0
M  V30 525 H 49.3204 -5.94469 0.820165 0
M  V30 526 H 50.3904 -4.64777 1.3824 0
M  V30 527 N 51.7335 -0.305618 -1.54608 0
M  V30 528 C 53.0105 0.355652 -1.92339 0
M  V30 529 C 53.3905 1.71324 -1.23335 0
M  V30 530 O 52.7385 2.25473 -0.370702 0
M  V30 531 C 52.9485 0.46572 -3.45879 0
M  V30 532 C 54.2965 0.734426 -4.182 0
M  V30 533 O 55.3205 0.54935 -3.51938 0
M  V30 534 O 54.1795 1.09024 -5.35515 0
M  V30 535 H 51.2735 0.199666 -0.802535 0
M  V30 536 H 53.8195 -0.354017 -1.65966 0
M  V30 537 H 52.5915 -0.488461 -3.88239 0
M  V30 538 H 52.2145 1.22367 -3.78301 0
M  V30 539 N 53.2116 1.57565 -0.0334293 0
M  V30 540 C 54.4606 1.91155 0.643639 0
M  V30 541 C 54.7736 0.91192 1.73042 0
M  V30 542 O 55.9796 1.13923 2.46442 0
M  V30 543 C 54.4356 3.39443 1.1961 0
M  V30 544 C 54.0436 4.47774 0.142381 0
M  V30 545 C 55.7876 3.82094 1.84944 0
M  V30 546 C 53.6946 5.87162 0.706727 0
M  V30 547 H 52.6246 0.713368 0.244176 0
M  V30 548 H 55.2756 1.8323 -0.0994323 0
M  V30 549 H 53.6576 3.42313 1.99092 0
M  V30 550 H 54.8316 4.56469 -0.630296 0
M  V30 551 H 53.1466 4.14352 -0.412446 0
M  V30 552 H 55.7436 4.83591 2.2813 0
M  V30 553 H 56.0866 3.17386 2.69392 0
M  V30 554 H 56.6196 3.81665 1.12145 0
M  V30 555 H 53.3586 6.55424 -0.0997178 0
M  V30 556 H 52.8786 5.82064 1.44779 0
M  V30 557 H 54.5576 6.35866 1.19514 0
M  V30 558 N 54.6897 -0.239769 1.55765 0
M  V30 559 C 55.9357 -0.968234 1.78194 0
M  V30 560 C 56.2687 -1.84701 0.599938 0
M  V30 561 O 55.5437 -1.9031 -0.401524 0
M  V30 562 C 55.8267 -1.8227 3.10564 0
M  V30 563 C 55.6797 -0.971633 4.3918 0
M  V30 564 C 56.9987 -2.80388 3.39221 0
M  V30 565 H 54.1177 -0.350572 0.648281 0
M  V30 566 H 56.7597 -0.238259 1.885 0
M  V30 567 H 54.9097 -2.44507 3.01908 0
M  V30 568 H 56.5817 -0.367408 4.59835 0
M  V30 569 H 54.8247 -0.276276 4.32919 0
M  V30 570 H 55.4957 -1.60346 5.28198 0
M  V30 571 H 57.9717 -2.28287 3.47885 0
M  V30 572 H 56.8477 -3.3729 4.33044 0
M  V30 573 H 57.1087 -3.57212 2.60484 0
M  V30 574 N 56.1678 -1.49265 -0.50573 0
M  V30 575 C 57.0778 -1.68312 -1.63427 0
M  V30 576 C 58.0938 -0.565682 -1.64548 0
M  V30 577 O 59.2698 -0.839801 -1.83055 0
M  V30 578 C 56.3348 -1.74107 -2.99813 0
M  V30 579 C 55.3958 -2.97653 -3.09356 0
M  V30 580 C 54.6288 -3.03163 -4.39236 0
M  V30 581 O 54.8518 -2.16396 -5.27758 0
M  V30 582 O 53.7858 -3.9558 -4.53652 0
M  V30 583 H 57.6118 -2.63907 -1.50289 0
M  V30 584 H 55.1968 -1.32951 -0.681502 0
M  V30 585 H 57.0788 -1.803 -3.80881 0
M  V30 586 H 55.7538 -0.816901 -3.13223 0
M  V30 587 H 54.6608 -2.96981 -2.27493 0
M  V30 588 H 55.9938 -3.89535 -3.00871 0
M  V30 589 N 57.6459 0.756429 -1.3826 0
M  V30 590 C 58.8739 1.54565 -1.3754 0
M  V30 591 C 59.2889 1.88767 0.0355331 0
M  V30 592 O 58.6459 1.52572 1.0014 0
M  V30 593 C 58.6969 2.84654 -2.22833 0
M  V30 594 O 58.4179 2.51912 -3.5843 0
M  V30 595 C 59.9189 3.78807 -2.30261 0
M  V30 596 H 57.1389 0.478353 -0.470553 0
M  V30 597 H 59.6829 0.936381 -1.81803 0
M  V30 598 H 57.8379 3.41965 -1.8204 0
M  V30 599 H 58.2519 3.35325 -4.03308 0
M  V30 600 H 59.7259 4.67045 -2.94233 0
M  V30 601 H 60.2029 4.19038 -1.31545 0
M  V30 602 H 60.8089 3.2742 -2.71433 0
M  V30 603 N 59.124 1.23083 0.984299 0
M  V30 604 C 60.349 1.088 1.76571 0
M  V30 605 C 60.774 -0.356657 1.84688 0
M  V30 606 O 60.132 -1.25788 1.30565 0
M  V30 607 C 60.18 1.71371 3.17277 0
M  V30 608 O 59.284 0.973213 4.00752 0
M  V30 609 H 58.625 0.381599 0.543395 0
M  V30 610 H 61.155 1.63057 1.23587 0
M  V30 611 H 61.165 1.76449 3.67872 0
M  V30 612 H 59.84 2.76493 3.10684 0
M  V30 613 H 58.417 0.999078 3.59267 0
M  V30 614 N 60.6021 -1.18246 1.0419 0
M  V30 615 C 61.5341 -2.2142 0.592088 0
M  V30 616 C 62.5471 -1.59233 -0.338909 0
M  V30 617 O 63.7361 -1.78002 -0.133231 0
M  V30 618 C 60.8361 -3.38546 -0.154854 0
M  V30 619 C 60.0091 -4.3031 0.784328 0
M  V30 620 C 59.0681 -5.26138 0.0804583 0
M  V30 621 O 58.0941 -5.64738 0.711292 0
M  V30 622 N 59.2961 -5.68261 -1.18574 0
M  V30 623 H 62.0611 -2.60636 1.47949 0
M  V30 624 H 59.6221 -1.33044 0.922544 0
M  V30 625 H 61.6141 -3.99678 -0.635606 0
M  V30 626 H 60.1841 -2.98012 -0.943811 0
M  V30 627 H 59.4041 -3.66764 1.44491 0
M  V30 628 H 60.6921 -4.8852 1.42218 0
M  V30 629 H 60.0901 -5.38957 -1.71876 0
M  V30 630 H 58.6471 -6.31584 -1.61074 0
M  V30 631 N 62.0802 -0.821533 -1.34494 0
M  V30 632 C 63.0432 -0.247847 -2.27856 0
M  V30 633 C 64.0432 0.573453 -1.50227 0
M  V30 634 O 65.2332 0.389759 -1.69784 0
M  V30 635 C 62.3652 0.652698 -3.34593 0
M  V30 636 H 63.5582 -1.07146 -2.80107 0
M  V30 637 H 61.1112 -0.593291 -1.44602 0
M  V30 638 H 61.8462 1.49943 -2.87555 0
M  V30 639 H 61.6312 0.065292 -3.92046 0
M  V30 640 H 63.1212 1.04793 -4.04238 0
M  V30 641 N 63.5583 1.46682 -0.576371 0
M  V30 642 C 64.5083 2.27278 0.181288 0
M  V30 643 C 65.4923 1.35497 0.867721 0
M  V30 644 O 66.6843 1.59717 0.762863 0
M  V30 645 C 63.8133 3.21703 1.19841 0
M  V30 646 C 62.8993 4.20969 0.51442 0
M  V30 647 N 63.2903 5.03999 -0.426407 0
M  V30 648 C 61.5883 4.39373 0.765963 0
M  V30 649 C 62.2893 5.75812 -0.825565 0
M  V30 650 N 61.2653 5.43315 -0.176116 0
M  V30 651 H 65.0673 2.88863 -0.541785 0
M  V30 652 H 62.5813 1.57455 -0.397697 0
M  V30 653 H 64.5783 3.78145 1.75533 0
M  V30 654 H 63.2383 2.61677 1.92238 0
M  V30 655 H 64.2493 5.11659 -0.8016 0
M  V30 656 H 60.9263 3.90502 1.47698 0
M  V30 657 H 62.3163 6.52577 -1.59976 0
M  V30 658 N 65.0364 0.313813 1.54444 0
M  V30 659 C 65.9844 -0.572171 2.25453 0
M  V30 660 C 66.9784 -1.12657 1.2651 0
M  V30 661 O 68.1844 -1.07573 1.44319 0
M  V30 662 H 64.5594 -0.203146 0.724041 0
M  V30 663 H 66.5304 0.0491145 2.9836 0
M  V30 664 C 65.2794 -1.72626 3.0182 0
M  V30 665 H 64.6024 -1.30891 3.77767 0
M  V30 666 H 66.0424 -2.32199 3.54767 0
M  V30 667 C 64.5014 -2.63806 2.09542 0
M  V30 668 O 65.0314 -3.65256 1.67185 0
M  V30 669 N 63.2374 -2.31824 1.75232 0
M  V30 670 H 62.7844 -1.49368 2.09873 0
M  V30 671 H 62.7424 -2.93095 1.13767 0
M  V30 672 N 66.5145 -1.57545 0.0417849 0
M  V30 673 C 67.4775 -2.09885 -0.92093 0
M  V30 674 C 68.4775 -1.01648 -1.24596 0
M  V30 675 O 69.6675 -1.27759 -1.1842 0
M  V30 676 C 66.7995 -2.57527 -2.23367 0
M  V30 677 H 67.9925 -2.96236 -0.467382 0
M  V30 678 H 65.5455 -1.5493 -0.206467 0
M  V30 679 H 66.2805 -1.74542 -2.73323 0
M  V30 680 H 66.0655 -3.36613 -2.01083 0
M  V30 681 H 67.5555 -2.98201 -2.92346 0
M  V30 682 N 67.9926 0.231505 -1.5589 0
M  V30 683 C 69.4086 0.580748 -1.48659 0
M  V30 684 C 69.6086 1.87617 -0.73498 0
M  V30 685 O 68.6646 2.51046 -0.270586 0
M  V30 686 C 69.9776 0.669202 -2.93159 0
M  V30 687 C 71.5256 0.760499 -3.03621 0
M  V30 688 C 72.0006 0.880383 -4.49459 0
M  V30 689 N 73.4916 0.944861 -4.53461 0
M  V30 690 C 74.2266 1.05716 -5.63571 0
M  V30 691 N 73.7226 1.13403 -6.83456 0
M  V30 692 N 75.5156 1.09152 -5.514 0
M  V30 693 H 67.6666 -0.618695 -2.03189 0
M  V30 694 H 69.9296 -0.215728 -0.923128 0
M  V30 695 H 69.6356 -0.212904 -3.51055 0
M  V30 696 H 69.5096 1.5361 -3.44505 0
M  V30 697 H 71.8966 1.63305 -2.45796 0
M  V30 698 H 71.9776 -0.131864 -2.5546 0
M  V30 699 H 71.6216 0.0123284 -5.07899 0
M  V30 700 H 71.5516 1.78802 -4.95316 0
M  V30 701 H 74.0426 0.896176 -3.6712 0
M  V30 702 H 74.3556 1.21921 -7.63122 0
M  V30 703 H 72.7006 1.10333 -6.86186 0
M  V30 704 H 75.8916 1.02805 -4.56671 0
M  V30 705 H 76.0646 1.17558 -6.37247 0
M  V30 706 N 69.4707 1.49531 0.497807 0
M  V30 707 C 70.4337 1.65916 1.58128 0
M  V30 708 C 71.4337 0.530825 1.51786 0
M  V30 709 O 72.6237 0.797342 1.54881 0
M  V30 710 C 69.7557 1.65951 2.9778 0
M  V30 711 H 70.9487 2.62556 1.44929 0
M  V30 712 H 68.5017 1.38611 0.722275 0
M  V30 713 H 69.2367 0.709065 3.16453 0
M  V30 714 H 69.0217 2.47897 3.03792 0
M  V30 715 H 70.5117 1.80673 3.76493 0
M  V30 716 N 70.9488 -0.749086 1.3866 0
M  V30 717 C 71.8808 -1.87273 1.32142 0
M  V30 718 C 72.8938 -1.61127 0.232787 0
M  V30 719 O 74.0828 -1.71623 0.49069 0
M  V30 720 C 71.1828 -3.23005 1.02571 0
M  V30 721 C 70.3558 -3.7662 2.22433 0
M  V30 722 C 69.4148 -4.90879 1.89537 0
M  V30 723 O 68.4408 -5.05276 2.62078 0
M  V30 724 N 69.6428 -5.74198 0.853031 0
M  V30 725 H 72.4078 -1.93373 2.28969 0
M  V30 726 H 69.9688 -0.929216 1.32579 0
M  V30 727 H 71.9608 -3.96992 0.786085 0
M  V30 728 H 70.5308 -3.12262 0.145249 0
M  V30 729 H 69.7508 -2.94147 2.62434 0
M  V30 730 H 71.0388 -4.09173 3.02415 0
M  V30 731 H 70.4368 -5.6514 0.25155 0
M  V30 732 H 68.9938 -6.48313 0.67329 0
M  V30 733 N 72.4269 -1.23603 -0.977757 0
M  V30 734 C 73.3569 -1.04401 -2.0886 0
M  V30 735 C 74.3379 0.0399052 -1.70053 0
M  V30 736 O 75.5229 -0.125246 -1.93796 0
M  V30 737 C 72.6529 -0.637269 -3.41403 0
M  V30 738 C 71.6069 -1.66883 -3.94124 0
M  V30 739 C 70.9329 -1.11745 -5.22893 0
M  V30 740 C 72.2329 -3.06247 -4.23096 0
M  V30 741 H 73.9269 -1.97316 -2.25182 0
M  V30 742 H 71.4729 -0.950096 -1.08209 0
M  V30 743 H 73.4259 -0.48998 -4.18542 0
M  V30 744 H 72.1499 0.327557 -3.24953 0
M  V30 745 H 70.8089 -1.80416 -3.19133 0
M  V30 746 H 70.4569 -0.143527 -5.02795 0
M  V30 747 H 70.1569 -1.80672 -5.59134 0
M  V30 748 H 71.6809 -0.982067 -6.02651 0
M  V30 749 H 73.0949 -2.96001 -4.90975 0
M  V30 750 H 71.4919 -3.72436 -4.70544 0
M  V30 751 H 72.5619 -3.55041 -3.30263 0
M  V30 752 N 73.905 1.17692 -1.04816 0
M  V30 753 C 75.133 1.91786 -0.776254 0
M  V30 754 C 75.548 1.76604 0.667577 0
M  V30 755 O 74.905 1.10067 1.45573 0
M  V30 756 C 74.956 3.42967 -1.14263 0
M  V30 757 O 74.677 3.57678 -2.52978 0
M  V30 758 C 76.178 4.34144 -0.896311 0
M  V30 759 H 73.398 0.608624 -0.282519 0
M  V30 760 H 75.942 1.49268 -1.39783 0
M  V30 761 H 74.097 3.83245 -0.565874 0
M  V30 762 H 74.511 4.51319 -2.67229 0
M  V30 763 H 75.985 5.38744 -1.20244 0
M  V30 764 H 76.462 4.38876 0.168636 0
M  V30 765 H 77.068 3.99574 -1.45672 0
M  V30 766 N 75.3831 0.828654 1.34056 0
M  V30 767 C 76.6311 0.41863 1.97717 0
M  V30 768 C 76.9521 -1.02314 1.66002 0
M  V30 769 O 76.2221 -1.71119 0.953683 0
M  V30 770 H 74.8021 0.151809 0.731412 0
M  V30 771 H 77.4641 1.05936 1.63596 0
M  V30 772 H 76.5601 0.542318 3.07352 0
M  V30 773 N 76.8612 -1.46375 0.584142 0
M  V30 774 C 77.8242 -2.28784 -0.138108 0
M  V30 775 C 78.8242 -1.38471 -0.817462 0
M  V30 776 O 80.0142 -1.60833 -0.669199 0
M  V30 777 C 77.1462 -3.18892 -1.20503 0
M  V30 778 H 78.3392 -2.94117 0.586127 0
M  V30 779 H 75.8922 -1.52509 0.342171 0
M  V30 780 H 76.6272 -2.58309 -1.96079 0
M  V30 781 H 76.4122 -3.85388 -0.722384 0
M  V30 782 H 77.9022 -3.80914 -1.71155 0
M  V30 783 N 78.3393 -0.321999 -1.54275 0
M  V30 784 C 79.2693 0.537411 -2.27231 0
M  V30 785 C 80.2503 1.12064 -1.27968 0
M  V30 786 O 81.4353 1.14606 -1.56777 0
M  V30 787 C 78.5653 1.69919 -3.02894 0
M  V30 788 C 77.5193 1.24534 -4.09482 0
M  V30 789 C 76.8453 2.49394 -4.72977 0
M  V30 790 C 78.1453 0.361335 -5.21049 0
M  V30 791 H 79.8393 -0.0711406 -2.99315 0
M  V30 792 H 77.3853 -0.0356555 -1.43956 0
M  V30 793 H 79.3383 2.30668 -3.52662 0
M  V30 794 H 78.0623 2.33431 -2.28424 0
M  V30 795 H 76.7213 0.660782 -3.60596 0
M  V30 796 H 76.3693 3.11265 -3.95124 0
M  V30 797 H 76.0693 2.19718 -5.44975 0
M  V30 798 H 77.5933 3.10908 -5.25517 0
M  V30 799 H 79.0073 0.875072 -5.66582 0
M  V30 800 H 77.4043 0.157428 -5.99893 0
M  V30 801 H 78.4743 -0.60822 -4.8107 0
M  V30 802 N 79.8174 1.5752 -0.0501392 0
M  V30 803 C 81.0644 1.9265 0.623874 0
M  V30 804 C 81.3924 0.928411 1.70912 0
M  V30 805 O 80.6474 -0.0594525 1.9561 0
M  V30 806 C 80.9464 3.34467 1.25963 0
M  V30 807 C 80.6124 4.49883 0.302689 0
M  V30 808 C 79.2744 4.81184 0.0393636 0
M  V30 809 C 81.6264 5.20002 -0.353205 0
M  V30 810 C 78.9544 5.79951 -0.887308 0
M  V30 811 C 81.3064 6.1976 -1.26806 0
M  V30 812 C 79.9704 6.49491 -1.54007 0
M  V30 813 H 79.2404 0.704957 0.228292 0
M  V30 814 H 81.8874 1.91146 -0.116398 0
M  V30 815 H 80.1924 3.32333 2.07514 0
M  V30 816 H 81.8894 3.58928 1.78806 0
M  V30 817 H 78.4794 4.25457 0.518109 0
M  V30 818 H 82.6634 4.96033 -0.162854 0
M  V30 819 H 77.9194 6.01322 -1.10553 0
M  V30 820 H 82.0934 6.73205 -1.78236 0
M  V30 821 H 79.7204 7.25837 -2.25976 0
M  V30 822 N 81.2955 -0.223234 1.56011 0
M  V30 823 C 82.5255 -0.963413 1.82762 0
M  V30 824 C 82.9335 -1.78516 0.626804 0
M  V30 825 O 82.2765 -1.78974 -0.414014 0
M  V30 826 C 82.3385 -1.93126 3.0322 0
M  V30 827 C 82.0025 -1.2942 4.38291 0
M  V30 828 C 82.9995 -0.684916 5.15369 0
M  V30 829 C 80.6845 -1.30647 4.85012 0
M  V30 830 C 82.6785 -0.0963971 6.37327 0
M  V30 831 C 80.3655 -0.71411 6.06913 0
M  V30 832 C 81.3635 -0.110123 6.82911 0
M  V30 833 O 81.0515 0.47303 8.02507 0
M  V30 834 H 80.7835 -0.288011 0.611576 0
M  V30 835 H 83.3375 -0.244103 2.03944 0
M  V30 836 H 81.5675 -2.68952 2.77852 0
M  V30 837 H 83.2565 -2.53685 3.16857 0
M  V30 838 H 84.0225 -0.667774 4.80381 0
M  V30 839 H 79.9015 -1.76598 4.25833 0
M  V30 840 H 83.4455 0.375657 6.96588 0
M  V30 841 H 79.3425 -0.728659 6.41374 0
M  V30 842 H 80.1105 0.367186 8.17676 0
M  V30 843 N 82.7736 -1.49793 -0.48987 0
M  V30 844 C 83.9986 -1.63836 -1.27172 0
M  V30 845 C 84.4236 -0.31402 -1.8546 0
M  V30 846 O 83.7816 0.719803 -1.66399 0
M  V30 847 C 83.8296 -2.71797 -2.36978 0
M  V30 848 O 82.9336 -2.31744 -3.41128 0
M  V30 849 H 82.2746 -0.547997 -0.37496 0
M  V30 850 H 84.8046 -1.96053 -0.585191 0
M  V30 851 H 84.8146 -2.94305 -2.82575 0
M  V30 852 H 83.4896 -3.67923 -1.93921 0
M  V30 853 H 82.0666 -2.1961 -3.01373 0
M  V30 854 N 84.2517 0.741722 -1.39055 0
M  V30 855 C 85.1837 1.8657 -1.33133 0
M  V30 856 C 86.1967 1.61001 -0.241329 0
M  V30 857 O 87.3857 1.7136 -0.499784 0
M  V30 858 C 84.4857 3.22457 -1.04283 0
M  V30 859 C 83.6587 3.75435 -2.24427 0
M  V30 860 C 82.7177 4.89867 -1.92138 0
M  V30 861 O 81.7437 5.03879 -2.64754 0
M  V30 862 N 82.9457 5.73738 -0.88347 0
M  V30 863 H 85.7107 1.92156 -2.29991 0
M  V30 864 H 83.2717 0.922172 -1.3307 0
M  V30 865 H 85.2637 3.9657 -0.807128 0
M  V30 866 H 83.8337 3.12181 -0.161807 0
M  V30 867 H 83.0537 2.92751 -2.6399 0
M  V30 868 H 84.3417 4.07563 -3.04581 0
M  V30 869 H 83.7397 5.64999 -0.281517 0
M  V30 870 H 82.2967 6.47947 -0.707662 0
M  V30 871 N 85.7298 1.2412 0.971189 0
M  V30 872 C 86.9778 1.07668 1.71032 0
M  V30 873 C 87.2988 -0.385797 1.91146 0
M  V30 874 O 86.5688 -1.27569 1.4867 0
M  V30 875 H 85.1488 0.395429 0.633755 0
M  V30 876 H 87.8108 1.55984 1.16855 0
M  V30 877 H 86.9068 1.57195 2.69622 0
M  V30 878 N 87.2079 -1.17134 1.05439 0
M  V30 879 C 88.4539 -1.87733 0.767077 0
M  V30 880 C 88.7869 -1.8098 -0.704253 0
M  V30 881 O 88.0619 -1.21951 -1.5152 0
M  V30 882 C 88.3449 -3.37659 1.25133 0
M  V30 883 C 88.1979 -3.53149 2.78578 0
M  V30 884 C 89.5169 -4.31768 0.852324 0
M  V30 885 H 86.6359 -0.681687 0.280129 0
M  V30 886 H 89.2779 -1.37732 1.30881 0
M  V30 887 H 87.4279 -3.80373 0.790469 0
M  V30 888 H 89.0999 -3.19434 3.32806 0
M  V30 889 H 87.3429 -2.95345 3.17732 0
M  V30 890 H 88.0139 -4.58403 3.07523 0
M  V30 891 H 90.4899 -3.96909 1.24911 0
M  V30 892 H 89.3659 -5.35199 1.21873 0
M  V30 893 H 89.6269 -4.41429 -0.243485 0
M  V30 894 N 88.686 -0.835752 -1.33615 0
M  V30 895 C 89.933 -0.429959 -1.97883 0
M  V30 896 C 90.261 1.01006 -1.66217 0
M  V30 897 O 89.516 1.72047 -0.93265 0
M  V30 898 C 89.815 -0.593925 -3.52431 0
M  V30 899 C 89.481 -2.00158 -4.04039 0
M  V30 900 C 88.143 -2.38662 -4.17844 0
M  V30 901 C 90.495 -2.92117 -4.31644 0
M  V30 902 C 87.823 -3.68435 -4.56588 0
M  V30 903 C 90.175 -4.21368 -4.71838 0
M  V30 904 C 88.839 -4.59833 -4.83849 0
M  V30 905 H 88.109 -0.157333 -0.724104 0
M  V30 906 H 90.756 -1.06217 -1.59343 0
M  V30 907 H 89.061 0.121619 -3.91611 0
M  V30 908 H 90.758 -0.260282 -4.00154 0
M  V30 909 H 87.348 -1.69252 -3.93766 0
M  V30 910 H 91.532 -2.63608 -4.20505 0
M  V30 911 H 86.788 -3.98046 -4.64079 0
M  V30 912 H 90.962 -4.92703 -4.92155 0
M  V30 913 H 88.589 -5.60438 -5.13627 0
M  V30 914 N 90.1641 1.46063 -0.591896 0
M  V30 915 C 91.4111 2.02338 -0.0809991 0
M  V30 916 C 91.7391 1.46228 1.28249 0
M  V30 917 O 90.9941 0.620818 1.85592 0
M  V30 918 C 91.2931 3.57391 0.0249813 0
M  V30 919 C 90.9591 4.32583 -1.27211 0
M  V30 920 C 89.6211 4.52844 -1.62745 0
M  V30 921 C 91.9731 4.75687 -2.13005 0
M  V30 922 C 89.3011 5.13462 -2.83855 0
M  V30 923 C 91.6531 5.37644 -3.3335 0
M  V30 924 C 90.3171 5.5613 -3.69155 0
M  V30 925 H 89.5871 0.740407 -0.0296397 0
M  V30 926 H 92.2341 1.75321 -0.770374 0
M  V30 927 H 90.5391 3.83597 0.797537 0
M  V30 928 H 92.2361 3.98621 0.436184 0
M  V30 929 H 88.8261 4.17116 -0.985499 0
M  V30 930 H 93.0101 4.59782 -1.86855 0
M  V30 931 H 88.2661 5.25965 -3.11722 0
M  V30 932 H 92.4401 5.7 -4.00092 0
M  V30 933 H 90.0671 6.0287 -4.63089 0
M  V30 934 N 91.6422 0.330177 1.54103 0
M  V30 935 C 92.5742 -0.566902 2.22079 0
M  V30 936 C 93.5872 -1.07462 1.22294 0
M  V30 937 O 94.7762 -0.987065 1.48726 0
M  V30 938 C 91.8762 -1.79138 2.87685 0
M  V30 939 C 91.0492 -1.42123 4.13666 0
M  V30 940 C 90.1082 -2.50394 4.62806 0
M  V30 941 O 89.1342 -2.14261 5.27334 0
M  V30 942 N 90.3362 -3.81433 4.37595 0
M  V30 943 H 93.1012 0.0151844 2.99696 0
M  V30 944 H 90.6622 0.153681 1.61169 0
M  V30 945 H 92.6542 -2.50975 3.1748 0
M  V30 946 H 91.2242 -2.28115 2.13734 0
M  V30 947 H 90.4442 -0.534201 3.90564 0
M  V30 948 H 91.7322 -1.14971 4.9564 0
M  V30 949 H 91.1302 -4.13584 3.8596 0
M  V30 950 H 89.6872 -4.4948 4.72029 0
M  V30 951 N 93.1203 -1.57491 0.0584922 0
M  V30 952 C 94.3663 -1.94081 -0.608617 0
M  V30 953 C 94.7213 -0.937438 -1.68017 0
M  V30 954 O 94.0143 0.0423034 -1.91553 0
M  V30 955 C 94.2083 -3.3513 -1.24188 0
M  V30 956 C 94.0373 -4.49095 -0.233187 0
M  V30 957 C 92.8073 -5.04988 0.177439 0
M  V30 958 C 95.0053 -5.1162 0.524306 0
M  V30 959 N 92.9873 -6.02487 1.17823 0
M  V30 960 C 94.3583 -6.04493 1.37796 0
M  V30 961 C 96.4133 -4.94489 0.581822 0
M  V30 962 C 95.1163 -6.82075 2.28399 0
M  V30 963 C 97.1423 -5.72703 1.47531 0
M  V30 964 C 96.5043 -6.65214 2.31667 0
M  V30 965 H 92.6033 -0.75752 -0.194134 0
M  V30 966 H 95.1873 -1.94248 0.132533 0
M  V30 967 H 93.3583 -3.35726 -1.95302 0
M  V30 968 H 95.0903 -3.5899 -1.86838 0
M  V30 969 H 91.8453 -4.73165 -0.203004 0
M  V30 970 H 92.2693 -6.55933 1.67573 0
M  V30 971 H 96.9113 -4.22765 -0.054443 0
M  V30 972 H 94.6293 -7.53085 2.93067 0
M  V30 973 H 98.2153 -5.61472 1.52448 0
M  V30 974 H 97.0953 -7.24679 2.99683 0
M  V30 975 N 94.5984 0.214957 -1.56127 0
M  V30 976 C 95.5284 1.2695 -1.95974 0
M  V30 977 C 96.5094 1.48539 -0.828868 0
M  V30 978 O 97.6944 1.60611 -1.09168 0
M  V30 979 C 94.8244 2.61794 -2.28214 0
M  V30 980 C 93.7784 2.54851 -3.43853 0
M  V30 981 C 93.1044 3.93785 -3.61715 0
M  V30 982 C 94.4044 2.09065 -4.78632 0
M  V30 983 H 96.0984 0.93846 -2.84312 0
M  V30 984 H 93.6444 0.449996 -1.36788 0
M  V30 985 H 95.5974 3.35731 -2.54682 0
M  V30 986 H 94.3214 2.96599 -1.36736 0
M  V30 987 H 92.9804 1.8337 -3.17444 0
M  V30 988 H 92.6284 4.25908 -2.67602 0
M  V30 989 H 92.3284 3.90019 -4.39498 0
M  V30 990 H 93.8524 4.69374 -3.90539 0
M  V30 991 H 95.2664 2.7275 -5.04262 0
M  V30 992 H 93.6634 2.16346 -5.59745 0
M  V30 993 H 94.7334 1.04315 -4.73547 0
M  V30 994 N 96.0765 1.50051 0.48192 0
M  V30 995 C 96.9865 1.7089 1.60728 0
M  V30 996 C 98.0025 0.591788 1.63627 0
M  V30 997 O 99.1785 0.868817 1.81696 0
M  V30 998 C 96.2435 1.78855 2.97005 0
M  V30 999 C 95.3045 3.02537 3.04581 0
M  V30 1000 C 94.5375 3.10112 4.34357 0
M  V30 1001 O 94.7605 2.24765 5.24249 0
M  V30 1002 O 93.6945 4.02747 4.47301 0
M  V30 1003 H 97.5205 2.66264 1.46072 0
M  V30 1004 H 95.1055 1.34018 0.660264 0
M  V30 1005 H 96.9875 1.86336 3.77964 0
M  V30 1006 H 95.6625 0.866628 3.11883 0
M  V30 1007 H 94.5695 3.00563 2.22739 0
M  V30 1008 H 95.9025 3.94272 2.94636 0
M  V30 1009 N 97.5546 -0.734337 1.39446 0
M  V30 1010 C 98.8026 -1.49096 1.36436 0
M  V30 1011 C 99.1236 -1.94961 -0.0388255 0
M  V30 1012 O 98.3936 -1.69033 -0.990191 0
M  V30 1013 H 96.9736 -0.5531 0.502085 0
M  V30 1014 H 99.6356 -0.871725 1.74319 0
M  V30 1015 H 98.7316 -2.37276 2.02747 0
M  V30 1016 N 99.0327 -1.24633 -0.964593 0
M  V30 1017 C 100.449 -1.01239 -1.2338 0
M  V30 1018 C 100.649 0.2769 -1.99588 0
M  V30 1019 O 99.7047 0.992241 -2.32187 0
M  V30 1020 C 101.018 -2.22937 -2.01791 0
M  V30 1021 C 102.566 -2.27594 -2.14872 0
M  V30 1022 C 103.041 -3.48921 -2.96678 0
M  V30 1023 N 104.532 -3.49257 -3.04259 0
M  V30 1024 C 105.267 -4.39795 -3.67924 0
M  V30 1025 N 104.763 -5.40591 -4.33281 0
M  V30 1026 N 106.556 -4.275 -3.64966 0
M  V30 1027 H 98.7067 -2.0748 -0.454502 0
M  V30 1028 H 100.97 -0.910647 -0.26349 0
M  V30 1029 H 100.676 -3.16587 -1.53184 0
M  V30 1030 H 100.55 -2.25306 -3.02518 0
M  V30 1031 H 102.937 -1.34473 -2.6268 0
M  V30 1032 H 103.018 -2.2925 -1.13482 0
M  V30 1033 H 102.662 -4.42359 -2.49562 0
M  V30 1034 H 102.592 -3.4451 -3.98272 0
M  V30 1035 H 105.083 -2.76337 -2.57771 0
M  V30 1036 H 105.396 -6.05904 -4.79687 0
M  V30 1037 H 103.741 -5.44475 -4.3194 0
M  V30 1038 H 106.932 -3.47987 -3.13086 0
M  V30 1039 H 107.105 -4.98258 -4.14298 0
M  V30 1040 N 100.511 1.16574 -1.06058 0
M  V30 1041 C 101.922 1.68662 -0.800632 0
M  V30 1042 C 102.273 1.84184 0.67608 0
M  V30 1043 O 101.398 1.53568 1.52466 0
M  V30 1044 C 101.993 3.06356 -1.44676 0
M  V30 1045 C 100.552 3.55575 -1.23465 0
M  V30 1046 C 99.6988 2.31616 -1.52477 0
M  V30 1047 H 102.65 1.00969 -1.22438 0
M  V30 1048 H 102.671 3.70636 -0.860788 0
M  V30 1049 H 102.183 2.95027 -2.52152 0
M  V30 1050 H 100.284 3.72167 -0.179527 0
M  V30 1051 H 100.397 4.37812 -1.94571 0
M  V30 1052 H 98.7608 2.36512 -0.945209 0
M  V30 1053 H 99.5438 2.22887 -2.61106 0
M  V30 1054 N 101.989 0.842826 1.3317 0
M  V30 1055 C 102.952 0.284065 2.27433 0
M  V30 1056 C 103.952 -0.54948 1.5112 0
M  V30 1057 O 105.142 -0.362699 1.70382 0
M  V30 1058 C 102.274 -0.599384 3.35589 0
M  V30 1059 H 103.467 1.11589 2.78366 0
M  V30 1060 H 101.02 0.616221 1.4364 0
M  V30 1061 H 101.755 -1.45349 2.89904 0
M  V30 1062 H 101.54 -0.00291266 3.921 0
M  V30 1063 H 103.03 -0.983488 4.05854 0
M  V30 1064 N 103.467 -1.45747 0.599634 0
M  V30 1065 C 104.43 -2.28917 -0.113835 0
M  V30 1066 C 105.43 -1.3933 -0.802729 0
M  V30 1067 O 106.62 -1.61534 -0.652103 0
M  V30 1068 C 103.752 -3.20152 -1.17114 0
M  V30 1069 H 104.945 -2.93478 0.617289 0
M  V30 1070 H 102.498 -1.52137 0.358327 0
M  V30 1071 H 103.233 -2.60374 -1.93329 0
M  V30 1072 H 103.018 -3.86133 -0.681468 0
M  V30 1073 H 104.508 -3.82708 -1.67105 0
M  V30 1074 N 104.945 -0.338344 -1.53925 0
M  V30 1075 C 106.191 0.260143 -2.01125 0
M  V30 1076 C 106.524 1.50617 -1.22589 0
M  V30 1077 O 105.799 1.91979 -0.312113 0
M  V30 1078 C 106.082 0.579499 -3.55407 0
M  V30 1079 C 105.935 -0.678264 -4.44657 0
M  V30 1080 C 107.254 1.39122 -4.17532 0
M  V30 1081 H 104.373 0.0930772 -0.731099 0
M  V30 1082 H 107.015 -0.457852 -1.84401 0
M  V30 1083 H 105.165 1.19118 -3.69788 0
M  V30 1084 H 106.837 -1.31631 -4.42121 0
M  V30 1085 H 105.08 -1.3042 -4.13731 0
M  V30 1086 H 105.751 -0.410143 -5.50474 0
M  V30 1087 H 108.227 0.874035 -4.06817 0
M  V30 1088 H 107.103 1.58342 -5.25565 0
M  V30 1089 H 107.364 2.39178 -3.71815 0
M  V30 1090 N 106.423 1.57458 -0.0668435 0
M  V30 1091 C 107.386 2.11323 0.887422 0
M  V30 1092 C 108.386 1.03618 1.22964 0
M  V30 1093 O 109.576 1.29626 1.16373 0
M  V30 1094 C 106.708 2.61048 2.19242 0
M  V30 1095 H 107.901 2.96942 0.420194 0
M  V30 1096 H 105.454 1.55239 0.181793 0
M  V30 1097 H 106.189 1.78868 2.70512 0
M  V30 1098 H 105.974 3.39769 1.95702 0
M  V30 1099 H 107.464 3.02814 2.87565 0
M  V30 1100 N 107.901 -0.206675 1.56239 0
M  V30 1101 C 108.811 -1.27686 1.96808 0
M  V30 1102 C 109.827 -1.50455 0.874035 0
M  V30 1103 O 111.003 -1.63295 1.17884 0
M  V30 1104 C 108.068 -2.60358 2.28942 0
M  V30 1105 C 107.129 -2.45762 3.51994 0
M  V30 1106 C 106.362 -3.72108 3.82585 0
M  V30 1107 O 106.585 -4.75776 3.14631 0
M  V30 1108 O 105.519 -3.6833 4.76043 0
M  V30 1109 H 109.345 -0.962593 2.88041 0
M  V30 1110 H 106.93 -0.410746 1.43643 0
M  V30 1111 H 108.812 -3.38687 2.50737 0
M  V30 1112 H 107.487 -2.91435 1.4088 0
M  V30 1113 H 106.394 -1.65584 3.35459 0
M  V30 1114 H 107.727 -2.19621 4.40486 0
M  V30 1115 N 109.379 -1.50304 -0.473955 0
M  V30 1116 C 110.625 -1.61389 -1.22806 0
M  V30 1117 C 110.958 -0.311955 -1.91678 0
M  V30 1118 O 110.233 0.686384 -1.81986 0
M  V30 1119 C 110.516 -2.79219 -2.27396 0
M  V30 1120 C 110.369 -4.19286 -1.62848 0
M  V30 1121 C 111.688 -2.92614 -3.28732 0
M  V30 1122 H 108.807 -0.587399 -0.445119 0
M  V30 1123 H 111.449 -1.82681 -0.522265 0
M  V30 1124 H 109.599 -2.61195 -2.87592 0
M  V30 1125 H 111.271 -4.48892 -1.06271 0
M  V30 1126 H 109.514 -4.23677 -0.931693 0
M  V30 1127 H 110.185 -4.97655 -2.38838 0
M  V30 1128 H 112.661 -3.09105 -2.78556 0
M  V30 1129 H 111.537 -3.76688 -3.99246 0
M  V30 1130 H 111.798 -2.03107 -3.92683 0
M  V30 1131 N 110.857 0.726932 -1.39834 0
M  V30 1132 C 111.79 1.8501 -1.33592 0
M  V30 1133 C 112.768 1.61262 -0.208191 0
M  V30 1134 O 113.952 1.84422 -0.389981 0
M  V30 1135 C 111.079 3.21143 -1.07633 0
M  V30 1136 C 110.125 3.63737 -2.22705 0
M  V30 1137 S 110.958 3.72167 -3.85035 0
M  V30 1138 C 112.114 5.11077 -3.61318 0
M  V30 1139 H 112.347 1.90022 -2.28646 0
M  V30 1140 H 109.88 0.892595 -1.25985 0
M  V30 1141 H 111.838 3.99747 -0.933415 0
M  V30 1142 H 110.499 3.13776 -0.142526 0
M  V30 1143 H 109.692 4.62551 -2.00155 0
M  V30 1144 H 109.294 2.9236 -2.33242 0
M  V30 1145 H 111.586 5.97656 -3.19083 0
M  V30 1146 H 112.529 5.38658 -4.59623 0
M  V30 1147 H 112.937 4.81135 -2.95245 0
M  V30 1148 N 112.336 1.25143 0.95797 0
M  V30 1149 C 113.564 1.12424 1.73691 0
M  V30 1150 C 113.979 -0.322304 1.86029 0
M  V30 1151 O 113.336 -1.22186 1.35561 0
M  V30 1152 C 113.387 1.76933 3.15241 0
M  V30 1153 O 113.108 3.15932 3.03511 0
M  V30 1154 C 114.609 1.6995 4.09429 0
M  V30 1155 H 111.829 0.3923 0.544373 0
M  V30 1156 H 114.373 1.6544 1.20207 0
M  V30 1157 H 112.528 1.27895 3.6568 0
M  V30 1158 H 112.942 3.47598 3.9278 0
M  V30 1159 H 114.416 2.19753 5.06372 0
M  V30 1160 H 114.893 0.662619 4.34173 0
M  V30 1161 H 115.499 2.18461 3.64904 0
M  V30 1162 N 113.814 -1.1601 1.06675 0
M  V30 1163 C 114.764 -2.18512 0.650888 0
M  V30 1164 C 115.748 -1.57677 -0.320441 0
M  V30 1165 O 116.94 -1.76482 -0.135266 0
M  V30 1166 C 114.069 -3.43273 0.0429255 0
M  V30 1167 C 113.155 -4.11176 1.03898 0
M  V30 1168 N 113.546 -4.54672 2.216 0
M  V30 1169 C 111.844 -4.37417 0.870779 0
M  V30 1170 C 112.545 -5.07248 2.84736 0
M  V30 1171 N 111.521 -5.0037 2.12441 0
M  V30 1172 H 115.323 -2.49863 1.54745 0
M  V30 1173 H 112.837 -1.32503 0.938975 0
M  V30 1174 H 114.834 -4.16006 -0.272857 0
M  V30 1175 H 113.494 -3.13408 -0.84884 0
M  V30 1176 H 114.505 -4.4828 2.59356 0
M  V30 1177 H 111.182 -4.17488 0.0313293 0
M  V30 1178 H 112.572 -5.50912 3.84636 0
M  V30 1179 N 115.292 -0.849877 -1.32721 0
M  V30 1180 C 116.541 -0.447175 -1.96681 0
M  V30 1181 C 116.854 1.00135 -1.68025 0
M  V30 1182 O 118.06 1.50926 -2.25685 0
M  V30 1183 C 116.516 -0.7487 -3.52026 0
M  V30 1184 C 116.124 -2.21264 -3.89546 0
M  V30 1185 C 117.868 -0.413487 -4.22481 0
M  V30 1186 C 115.775 -2.45763 -5.37917 0
M  V30 1187 H 114.705 -0.163486 -0.736063 0
M  V30 1188 H 117.356 -1.03999 -1.51183 0
M  V30 1189 H 115.738 -0.0853727 -3.95908 0
M  V30 1190 H 116.912 -2.91736 -3.56689 0
M  V30 1191 H 115.227 -2.5119 -3.32103 0
M  V30 1192 H 117.824 -0.574017 -5.3161 0
M  V30 1193 H 118.167 0.644492 -4.11281 0
M  V30 1194 H 118.7 -1.03251 -3.84167 0
M  V30 1195 H 115.439 -3.50168 -5.54132 0
M  V30 1196 H 114.959 -1.79864 -5.72197 0
M  V30 1197 H 116.638 -2.29471 -6.0494 0
M  V30 1198 N 116.77 1.45427 -0.607355 0
M  V30 1199 C 117.702 2.2871 0.149752 0
M  V30 1200 C 118.715 1.39937 0.831958 0
M  V30 1201 O 119.904 1.64313 0.697385 0
M  V30 1202 C 117.004 3.15673 1.23304 0
M  V30 1203 C 116.177 4.32722 0.637996 0
M  V30 1204 C 115.236 5.00895 1.61215 0
M  V30 1205 O 114.262 5.57697 1.13854 0
M  V30 1206 N 115.464 5.00159 2.94655 0
M  V30 1207 H 118.229 2.94328 -0.564882 0
M  V30 1208 H 115.79 1.55612 -0.446823 0
M  V30 1209 H 117.782 3.58144 1.88454 0
M  V30 1210 H 116.352 2.51965 1.8502 0
M  V30 1211 H 115.572 3.93734 -0.191572 0
M  V30 1212 H 116.86 5.08321 0.220665 0
M  V30 1213 H 116.258 4.553 3.35735 0
M  V30 1214 H 114.815 5.46495 3.55228 0
M  V30 1215 N 118.248 0.346503 1.53744 0
M  V30 1216 C 119.664 -0.00530975 1.59599 0
M  V30 1217 C 119.864 -1.48465 1.36236 0
M  V30 1218 O 118.92 -2.24376 1.15808 0
M  V30 1219 C 120.233 0.433516 2.97559 0
M  V30 1220 C 121.781 0.386111 3.10609 0
M  V30 1221 C 122.256 0.800451 4.50951 0
M  V30 1222 N 123.747 0.754753 4.5701 0
M  V30 1223 C 124.482 1.04727 5.63755 0
M  V30 1224 N 123.978 1.4081 6.7834 0
M  V30 1225 N 125.771 0.971316 5.53644 0
M  V30 1226 H 117.922 1.31009 1.67184 0
M  V30 1227 H 120.185 0.534242 0.783128 0
M  V30 1228 H 119.891 1.46509 3.19731 0
M  V30 1229 H 119.765 -0.189753 3.76722 0
M  V30 1230 H 122.152 -0.636295 2.88158 0
M  V30 1231 H 122.233 1.04462 2.33498 0
M  V30 1232 H 121.877 1.82088 4.74137 0
M  V30 1233 H 121.807 0.119386 5.26465 0
M  V30 1234 H 124.298 0.488662 3.74727 0
M  V30 1235 H 124.611 1.61607 7.55714 0
M  V30 1236 H 122.956 1.44657 6.79779 0
M  V30 1237 H 126.147 0.688748 4.63005 0
M  V30 1238 H 126.32 1.20263 6.36742 0
M  V30 1239 N 119.726 -1.57421 0.075193 0
M  V30 1240 C 121.003 -1.85029 -0.634329 0
M  V30 1241 C 121.383 -0.968305 -1.87582 0
M  V30 1242 O 120.731 -0.0354749 -2.28472 0
M  V30 1243 C 120.941 -3.35286 -0.968742 0
M  V30 1244 C 122.289 -4.02875 -1.34077 0
M  V30 1245 O 123.313 -3.40051 -1.06037 0
M  V30 1246 O 122.172 -5.13691 -1.86506 0
M  V30 1247 H 119.266 -0.7645 -0.315387 0
M  V30 1248 H 121.812 -1.69366 0.106382 0
M  V30 1249 H 120.584 -3.91203 -0.0871376 0
M  V30 1250 H 120.207 -3.56223 -1.7661 0
M  V30 1251 N 121.204 0.198386 -1.56346 0
M  V30 1252 C 122.62 0.549085 -1.49857 0
M  V30 1253 C 122.82 1.86016 -0.774611 0
M  V30 1254 O 121.876 2.50416 -0.323776 0
M  V30 1255 C 123.189 0.606868 -2.94512 0
M  V30 1256 C 124.737 0.695925 -3.05165 0
M  V30 1257 C 125.212 0.784848 -4.51225 0
M  V30 1258 N 126.703 0.848463 -4.55363 0
M  V30 1259 C 127.438 0.937378 -5.65686 0
M  V30 1260 N 126.934 0.9888 -6.85707 0
M  V30 1261 N 128.727 0.974312 -5.53592 0
M  V30 1262 H 120.878 -0.661655 -2.01831 0
M  V30 1263 H 123.141 -0.235261 -0.918344 0
M  V30 1264 H 122.847 -0.28732 -3.50524 0
M  V30 1265 H 122.721 1.46268 -3.47686 0
M  V30 1266 H 125.108 1.58055 -2.49204 0
M  V30 1267 H 125.189 -0.186022 -2.55123 0
M  V30 1268 H 124.833 -0.0954072 -5.0781 0
M  V30 1269 H 124.763 1.68255 -4.98997 0
M  V30 1270 H 127.254 0.818103 -3.68938 0
M  V30 1271 H 127.567 1.05707 -7.65536 0
M  V30 1272 H 125.912 0.957534 -6.88372 0
M  V30 1273 H 129.103 0.930954 -4.58749 0
M  V30 1274 H 129.276 1.04015 -6.39597 0
M  V30 1275 N 122.682 1.50554 0.465978 0
M  V30 1276 C 124.098 1.38093 0.800154 0
M  V30 1277 C 124.298 0.440988 1.96615 0
M  V30 1278 O 123.354 -0.114499 2.5224 0
M  V30 1279 C 124.667 2.79565 1.10742 0
M  V30 1280 C 126.215 2.88516 1.21357 0
M  V30 1281 C 126.69 4.30833 1.55393 0
M  V30 1282 N 128.181 4.33807 1.62375 0
M  V30 1283 C 128.916 5.40927 1.90225 0
M  V30 1284 N 128.412 6.58247 2.16062 0
M  V30 1285 N 130.205 5.28376 1.9177 0
M  V30 1286 H 122.356 2.10237 -0.302366 0
M  V30 1287 H 124.619 0.945203 -0.0727746 0
M  V30 1288 H 124.325 3.50208 0.323661 0
M  V30 1289 H 124.199 3.17125 2.04234 0
M  V30 1290 H 126.586 2.1809 1.98799 0
M  V30 1291 H 126.667 2.54492 0.258321 0
M  V30 1292 H 126.311 5.01799 0.784889 0
M  V30 1293 H 126.241 4.62347 2.52076 0
M  V30 1294 H 128.732 3.49212 1.44427 0
M  V30 1295 H 129.045 7.3569 2.36601 0
M  V30 1296 H 127.39 6.61413 2.13444 0
M  V30 1297 H 130.581 4.35715 1.71085 0
M  V30 1298 H 130.754 6.11944 2.13139 0
M  V30 1299 N 124.16 -0.719506 1.40217 0
M  V30 1300 C 125.11 -1.8251 1.36653 0
M  V30 1301 C 126.094 -1.59028 0.244732 0
M  V30 1302 O 127.286 -1.70268 0.483524 0
M  V30 1303 C 124.415 -3.20599 1.22763 0
M  V30 1304 C 123.501 -3.49858 2.39708 0
M  V30 1305 N 123.892 -3.49957 3.6519 0
M  V30 1306 C 122.19 -3.80297 2.33002 0
M  V30 1307 C 122.891 -3.77449 4.42614 0
M  V30 1308 N 121.867 -3.96002 3.72402 0
M  V30 1309 H 125.669 -1.80914 2.31619 0
M  V30 1310 H 123.183 -0.918455 1.33933 0
M  V30 1311 H 125.18 -3.99766 1.18292 0
M  V30 1312 H 123.84 -3.23424 0.287614 0
M  V30 1313 H 124.851 -3.309 3.98404 0
M  V30 1314 H 121.528 -3.90635 1.47346 0
M  V30 1315 H 122.918 -3.83863 5.51451 0
M  V30 1316 N 125.638 -1.25649 -0.95132 0
M  V30 1317 C 126.863 -1.13443 -1.73624 0
M  V30 1318 C 127.288 0.307565 -1.85568 0
M  V30 1319 O 126.646 1.22282 -1.33854 0
M  V30 1320 C 126.694 -1.79723 -3.12621 0
M  V30 1321 O 125.798 -1.07912 -3.98031 0
M  V30 1322 H 125.139 -0.395872 -0.533086 0
M  V30 1323 H 127.669 -1.66276 -1.1922 0
M  V30 1324 H 127.679 -1.86141 -3.63064 0
M  V30 1325 H 126.354 -2.84633 -3.03244 0
M  V30 1326 H 124.931 -1.09398 -3.56492 0
M  V30 1327 N 127.117 1.15442 -1.07289 0
M  V30 1328 C 128.065 2.22225 -0.686952 0
M  V30 1329 C 129.059 1.66688 0.30193 0
M  V30 1330 O 130.265 1.79236 0.165712 0
M  V30 1331 H 126.64 0.723783 -0.204064 0
M  V30 1332 H 128.611 2.52056 -1.5972 0
M  V30 1333 C 127.36 3.47556 -0.100149 0
M  V30 1334 H 126.683 3.90612 -0.852211 0
M  V30 1335 H 128.123 4.23794 0.132235 0
M  V30 1336 C 126.582 3.16337 1.159 0
M  V30 1337 O 127.112 3.33074 2.24555 0
M  V30 1338 N 125.318 2.70385 1.06491 0
M  V30 1339 H 124.865 2.56966 0.180668 0
M  V30 1340 H 124.823 2.49871 1.90819 0
M  V30 1341 N 128.595 0.856903 1.32268 0
M  V30 1342 C 129.841 0.462069 1.97466 0
M  V30 1343 C 130.174 -0.980298 1.67642 0
M  V30 1344 O 129.449 -1.68824 0.965858 0
M  V30 1345 C 129.732 0.704336 3.53145 0
M  V30 1346 C 129.585 2.19529 3.9259 0
M  V30 1347 C 130.904 0.1622 4.39801 0
M  V30 1348 H 128.023 0.169357 0.717278 0
M  V30 1349 H 130.665 1.07574 1.56614 0
M  V30 1350 H 128.815 0.181999 3.88073 0
M  V30 1351 H 130.487 2.78387 3.67829 0
M  V30 1352 H 128.73 2.67292 3.41668 0
M  V30 1353 H 129.401 2.31549 5.01088 0
M  V30 1354 H 131.877 0.608905 4.11621 0
M  V30 1355 H 130.753 0.361265 5.4771 0
M  V30 1356 H 131.014 -0.935158 4.32096 0
M  V30 1357 N 130.073 -1.45103 0.615059 0
M  V30 1358 C 130.983 -2.34382 -0.101034 0
M  V30 1359 C 131.999 -1.51681 -0.852585 0
M  V30 1360 O 133.175 -1.8446 -0.808484 0
M  V30 1361 C 130.24 -3.29417 -1.08099 0
M  V30 1362 C 129.301 -4.28025 -0.330577 0
M  V30 1363 C 128.534 -5.1852 -1.26385 0
M  V30 1364 O 128.757 -5.12598 -2.50198 0
M  V30 1365 O 127.691 -5.97122 -0.756866 0
M  V30 1366 H 131.517 -2.97033 0.632855 0
M  V30 1367 H 129.102 -1.4461 0.375293 0
M  V30 1368 H 130.984 -3.87958 -1.6452 0
M  V30 1369 H 129.659 -2.69321 -1.79577 0
M  V30 1370 H 128.566 -3.73078 0.276283 0
M  V30 1371 H 129.899 -4.90997 0.343866 0
M  V30 1372 N 131.551 -0.354651 -1.53558 0
M  V30 1373 C 132.8 0.239504 -2.00273 0
M  V30 1374 C 133.113 1.50759 -1.24623 0
M  V30 1375 O 134.319 2.17968 -1.61871 0
M  V30 1376 C 132.775 0.477341 -3.5672 0
M  V30 1377 C 132.383 -0.775488 -4.41237 0
M  V30 1378 C 134.127 1.02975 -4.11821 0
M  V30 1379 C 132.034 -0.507838 -5.89216 0
M  V30 1380 H 130.964 0.0932743 -0.748208 0
M  V30 1381 H 133.615 -0.471701 -1.77334 0
M  V30 1382 H 131.997 1.24953 -3.7577 0
M  V30 1383 H 133.171 -1.54963 -4.33962 0
M  V30 1384 H 131.486 -1.25033 -3.97185 0
M  V30 1385 H 134.083 1.24513 -5.2 0
M  V30 1386 H 134.426 1.98862 -3.65731 0
M  V30 1387 H 134.959 0.317994 -3.96527 0
M  V30 1388 H 131.698 -1.43674 -6.39561 0
M  V30 1389 H 131.218 0.228011 -5.99366 0
M  V30 1390 H 132.897 -0.129238 -6.46871 0
M  V30 1391 N 133.029 1.57378 -0.0835403 0
M  V30 1392 C 133.959 2.1641 0.87686 0
M  V30 1393 C 134.94 1.09429 1.30228 0
M  V30 1394 O 136.125 1.37516 1.37124 0
M  V30 1395 C 133.255 2.73517 2.14022 0
M  V30 1396 C 132.209 3.85769 1.85381 0
M  V30 1397 C 131.535 4.29529 3.18448 0
M  V30 1398 C 132.835 5.09486 1.14984 0
M  V30 1399 H 134.529 2.96914 0.385059 0
M  V30 1400 H 132.075 1.42823 0.18377 0
M  V30 1401 H 134.028 3.13463 2.81636 0
M  V30 1402 H 132.752 1.90252 2.65465 0
M  V30 1403 H 131.411 3.46345 1.20169 0
M  V30 1404 H 131.059 3.43169 3.67755 0
M  V30 1405 H 130.759 5.05204 3.00071 0
M  V30 1406 H 132.283 4.72099 3.8724 0
M  V30 1407 H 133.697 5.46674 1.72687 0
M  V30 1408 H 132.094 5.90515 1.06826 0
M  V30 1409 H 133.164 4.84724 0.130749 0
M  V30 1410 N 134.507 -0.190092 1.56449 0
M  V30 1411 C 135.47 -1.21925 1.9408 0
M  V30 1412 C 136.47 -1.38176 0.822431 0
M  V30 1413 O 137.66 -1.35903 1.08977 0
M  V30 1414 C 134.792 -2.58773 2.21922 0
M  V30 1415 H 135.985 -0.897464 2.86157 0
M  V30 1416 H 133.538 -0.43181 1.50217 0
M  V30 1417 H 134.273 -2.95998 1.32499 0
M  V30 1418 H 134.058 -2.48348 3.03424 0
M  V30 1419 H 135.548 -3.32978 2.52022 0
M  V30 1420 N 135.985 -1.50799 -0.457987 0
M  V30 1421 C 136.895 -1.73426 -1.57989 0
M  V30 1422 C 137.911 -0.617745 -1.62665 0
M  V30 1423 O 139.087 -0.897614 -1.80291 0
M  V30 1424 C 136.152 -1.83557 -2.94122 0
M  V30 1425 C 135.213 -3.07345 -2.99729 0
M  V30 1426 C 134.446 -3.16983 -4.29368 0
M  V30 1427 O 134.669 -2.33077 -5.20607 0
M  V30 1428 O 133.603 -4.09812 -4.40837 0
M  V30 1429 H 137.429 -2.68555 -1.41817 0
M  V30 1430 H 135.014 -1.35052 -0.638859 0
M  V30 1431 H 136.896 -1.92326 -3.74952 0
M  V30 1432 H 135.571 -0.916137 -3.10465 0
M  V30 1433 H 134.478 -3.04068 -2.1793 0
M  V30 1434 H 135.811 -3.9891 -2.88326 0
M  V30 1435 N 137.463 0.71206 -1.40597 0
M  V30 1436 C 138.373 1.8562 -1.43466 0
M  V30 1437 C 139.389 1.70902 -0.326902 0
M  V30 1438 O 140.565 1.93105 -0.572043 0
M  V30 1439 C 137.63 3.21451 -1.29884 0
M  V30 1440 C 136.691 3.48398 -2.50833 0
M  V30 1441 C 135.924 4.77749 -2.3789 0
M  V30 1442 O 136.147 5.53089 -1.39459 0
M  V30 1443 O 135.081 5.05111 -3.27333 0
M  V30 1444 H 138.907 1.86155 -2.39958 0
M  V30 1445 H 136.492 0.86295 -1.21957 0
M  V30 1446 H 138.374 4.02579 -1.24531 0
M  V30 1447 H 137.049 3.21636 -0.364997 0
M  V30 1448 H 135.956 2.67265 -2.61763 0
M  V30 1449 H 137.289 3.53014 -3.4299 0
M  V30 1450 N 138.941 1.26152 0.944643 0
M  V30 1451 C 140.352 1.10454 1.50522 0
M  V30 1452 C 140.703 -0.31635 1.93633 0
M  V30 1453 O 139.828 -1.20746 1.79581 0
M  V30 1454 C 140.423 1.99891 2.73549 0
M  V30 1455 C 138.982 1.88348 3.25886 0
M  V30 1456 C 138.129 1.93447 1.9868 0
M  V30 1457 H 141.08 1.39292 0.760489 0
M  V30 1458 H 141.101 1.54477 3.47732 0
M  V30 1459 H 140.613 3.03297 2.42141 0
M  V30 1460 H 138.714 0.878636 3.62092 0
M  V30 1461 H 138.827 2.73696 3.93227 0
M  V30 1462 H 137.191 1.37456 2.14425 0
M  V30 1463 H 137.974 2.98476 1.69607 0
M  V30 1464 N 140.419 -1.14872 1.07899 0
M  V30 1465 C 141.668 -1.85135 0.800499 0
M  V30 1466 C 141.981 -1.83547 -0.676014 0
M  V30 1467 O 143.187 -2.49548 -1.06948 0
M  V30 1468 C 141.643 -3.3231 1.38197 0
M  V30 1469 C 141.251 -3.42329 2.8899 0
M  V30 1470 C 142.995 -4.0772 1.18174 0
M  V30 1471 C 140.902 -4.83684 3.403 0
M  V30 1472 H 139.832 -0.693563 0.29578 0
M  V30 1473 H 142.483 -1.29532 1.29976 0
M  V30 1474 H 140.865 -3.87618 0.810431 0
M  V30 1475 H 142.039 -2.97097 3.52236 0
M  V30 1476 H 140.354 -2.80369 3.07867 0
M  V30 1477 H 142.951 -5.12049 1.5398 0
M  V30 1478 H 143.294 -4.16124 0.12117 0
M  V30 1479 H 143.827 -3.58696 1.71994 0
M  V30 1480 H 140.566 -4.80465 4.45907 0
M  V30 1481 H 140.086 -5.29474 2.81811 0
M  V30 1482 H 141.765 -5.52558 3.36584 0
M  V30 1483 N 141.898 -0.863906 -1.31812 0
M  V30 1484 C 142.861 -0.320212 -2.26952 0
M  V30 1485 C 143.861 0.525369 -1.51975 0
M  V30 1486 O 145.051 0.335547 -1.70938 0
M  V30 1487 C 142.183 0.545919 -3.365 0
M  V30 1488 H 143.376 -1.16004 -2.76556 0
M  V30 1489 H 140.929 -0.638995 -1.42641 0
M  V30 1490 H 141.664 1.40718 -2.92179 0
M  V30 1491 H 141.449 -0.0594674 -3.92055 0
M  V30 1492 H 142.939 0.918796 -4.07367 0
M  V30 1493 N 143.376 1.44774 -0.622745 0
M  V30 1494 C 144.323 2.30635 0.0871679 0
M  V30 1495 C 145.293 1.42994 0.845097 0
M  V30 1496 O 146.478 1.71907 0.827812 0
M  V30 1497 C 143.618 3.28144 1.06844 0
M  V30 1498 C 142.731 4.30888 0.309809 0
M  V30 1499 C 141.866 5.15494 1.28215 0
M  V30 1500 C 140.905 6.09953 0.512198 0
M  V30 1501 N 140.042 6.87287 1.43458 0
M  V30 1502 H 144.882 2.90803 -0.650974 0
M  V30 1503 H 142.419 1.43286 -0.33281 0
M  V30 1504 H 144.377 3.83157 1.65066 0
M  V30 1505 H 143.007 2.69695 1.77382 0
M  V30 1506 H 142.059 3.78414 -0.388181 0
M  V30 1507 H 143.371 4.97955 -0.290254 0
M  V30 1508 H 142.525 5.74983 1.93596 0
M  V30 1509 H 141.264 4.48481 1.91614 0
M  V30 1510 H 140.269 5.49581 -0.155151 0
M  V30 1511 H 141.494 6.78999 -0.116958 0
M  V30 1512 H 139.44 6.2295 2.05594 0
M  V30 1513 H 139.357 7.50763 0.888335 0
M  V30 1514 H 140.625 7.51306 2.07749 0
M  V30 1515 N 144.854 0.36279 1.53368 0
M  V30 1516 C 146.27 0.0116182 1.59596 0
M  V30 1517 C 146.47 -1.47012 1.37803 0
M  V30 1518 O 145.526 -2.23136 1.18181 0
M  V30 1519 C 146.839 0.465052 2.97082 0
M  V30 1520 C 148.387 0.419033 3.10182 0
M  V30 1521 C 148.862 0.848235 4.50077 0
M  V30 1522 N 150.353 0.803183 4.56183 0
M  V30 1523 C 151.088 1.107 5.62613 0
M  V30 1524 N 150.584 1.47996 6.76808 0
M  V30 1525 N 152.377 1.02998 5.52583 0
M  V30 1526 H 144.528 1.32775 1.65785 0
M  V30 1527 H 146.791 0.542518 0.777417 0
M  V30 1528 H 146.497 1.49892 3.18159 0
M  V30 1529 H 146.371 -0.149786 3.76902 0
M  V30 1530 H 148.758 -0.605696 2.88817 0
M  V30 1531 H 148.839 1.06933 2.32377 0
M  V30 1532 H 148.483 1.87107 4.7218 0
M  V30 1533 H 148.413 0.175218 5.26308 0
M  V30 1534 H 150.904 0.52838 3.74188 0
M  V30 1535 H 151.217 1.69613 7.53957 0
M  V30 1536 H 149.562 1.51859 6.78206 0
M  V30 1537 H 152.753 0.737817 4.62249 0
M  V30 1538 H 152.926 1.2701 6.35431 0
M  V30 1539 N 146.332 -1.57332 0.0918853 0
M  V30 1540 C 147.748 -1.57389 -0.264766 0
M  V30 1541 C 147.948 -1.10281 -1.68643 0
M  V30 1542 O 147.004 -0.777801 -2.40222 0
M  V30 1543 C 148.317 -3.00648 -0.0561195 0
M  V30 1544 C 149.865 -3.12754 -0.124116 0
M  V30 1545 C 150.34 -4.57965 0.0564972 0
M  V30 1546 N 151.831 -4.632 0.00155611 0
M  V30 1547 C 152.566 -5.73281 0.116598 0
M  V30 1548 N 152.062 -6.92208 0.286294 0
M  V30 1549 N 153.855 -5.6207 0.0580973 0
M  V30 1550 H 146.006 -1.86262 1.02079 0
M  V30 1551 H 148.269 -0.859579 0.399786 0
M  V30 1552 H 147.975 -3.393 0.925669 0
M  V30 1553 H 147.849 -3.68623 -0.799823 0
M  V30 1554 H 150.236 -2.73976 -1.09641 0
M  V30 1555 H 150.317 -2.47377 0.651024 0
M  V30 1556 H 149.961 -4.97436 1.02564 0
M  V30 1557 H 149.891 -5.21399 -0.738297 0
M  V30 1558 H 152.382 -3.77686 -0.127192 0
M  V30 1559 H 152.695 -7.71934 0.365676 0
M  V30 1560 H 151.04 -6.94254 0.32192 0
M  V30 1561 H 154.231 -4.68043 -0.0733204 0
M  V30 1562 H 154.404 -6.47824 0.151203 0
M  V30 1563 N 147.81 0.181792 -1.56548 0
M  V30 1564 C 149.057 0.900097 -1.81396 0
M  V30 1565 C 149.385 1.82695 -0.667281 0
M  V30 1566 O 148.64 1.92614 0.346146 0
M  V30 1567 C 148.939 1.73728 -3.12335 0
M  V30 1568 C 148.605 0.960255 -4.40556 0
M  V30 1569 C 147.267 0.745766 -4.75386 0
M  V30 1570 C 149.619 0.414477 -5.19549 0
M  V30 1571 C 146.947 -0.0257694 -5.86694 0
M  V30 1572 C 149.299 -0.343916 -6.31664 0
M  V30 1573 C 147.963 -0.569301 -6.65068 0
M  V30 1574 H 147.233 0.329369 -0.663775 0
M  V30 1575 H 149.88 0.165647 -1.90782 0
M  V30 1576 H 148.185 2.54081 -2.98245 0
M  V30 1577 H 149.882 2.29591 -3.28769 0
M  V30 1578 H 146.472 1.13746 -4.13231 0
M  V30 1579 H 150.656 0.567554 -4.93044 0
M  V30 1580 H 145.912 -0.210233 -6.11038 0
M  V30 1581 H 150.086 -0.774133 -6.92084 0
M  V30 1582 H 147.713 -1.16903 -7.51158 0
M  V30 1583 N 149.288 1.51039 0.449983 0
M  V30 1584 C 150.251 1.70863 1.5277 0
M  V30 1585 C 151.251 0.578846 1.5002 0
M  V30 1586 O 152.441 0.846213 1.52266 0
M  V30 1587 C 149.573 1.75341 2.9235 0
M  V30 1588 H 150.766 2.67034 1.36502 0
M  V30 1589 H 148.319 1.40838 0.677812 0
M  V30 1590 H 149.054 0.809383 3.14037 0
M  V30 1591 H 148.839 2.57436 2.95752 0
M  V30 1592 H 150.329 1.92559 3.70555 0
M  V30 1593 N 150.766 -0.704594 1.40972 0
M  V30 1594 C 152.014 -1.46169 1.39568 0
M  V30 1595 C 152.335 -1.95 0.00253745 0
M  V30 1596 O 151.605 -1.71095 -0.954114 0
M  V30 1597 H 150.185 -0.542326 0.513704 0
M  V30 1598 H 152.847 -0.834553 1.76128 0
M  V30 1599 H 151.943 -2.32922 2.07735 0
M  V30 1600 N 152.244 -1.26651 -0.937939 0
M  V30 1601 C 153.49 -1.13562 -1.68746 0
M  V30 1602 C 153.845 0.317241 -1.89767 0
M  V30 1603 O 153.138 1.22939 -1.46957 0
M  V30 1604 C 153.332 -1.84168 -3.06295 0
M  V30 1605 C 153.161 -3.36171 -2.98696 0
M  V30 1606 C 151.931 -4.05468 -3.01535 0
M  V30 1607 C 154.129 -4.32312 -2.78588 0
M  V30 1608 N 152.111 -5.44118 -2.84269 0
M  V30 1609 C 153.482 -5.58159 -2.69924 0
M  V30 1610 C 155.537 -4.22524 -2.63396 0
M  V30 1611 C 154.24 -6.75335 -2.47618 0
M  V30 1612 C 156.266 -5.39411 -2.42466 0
M  V30 1613 C 155.628 -6.64208 -2.34536 0
M  V30 1614 H 151.727 -0.470361 -0.624728 0
M  V30 1615 H 154.311 -1.59982 -1.10968 0
M  V30 1616 H 152.482 -1.40219 -3.62206 0
M  V30 1617 H 154.214 -1.63674 -3.70126 0
M  V30 1618 H 150.969 -3.56854 -3.11372 0
M  V30 1619 H 151.393 -6.1693 -2.78795 0
M  V30 1620 H 156.035 -3.26771 -2.68292 0
M  V30 1621 H 153.753 -7.71182 -2.41463 0
M  V30 1622 H 157.339 -5.33711 -2.31611 0
M  V30 1623 H 156.219 -7.53129 -2.18555 0
M  V30 1624 N 153.722 1.14298 -1.08507 0
M  V30 1625 C 154.672 2.17449 -0.685569 0
M  V30 1626 C 155.656 1.58167 0.295315 0
M  V30 1627 O 156.848 1.76675 0.107172 0
M  V30 1628 C 153.977 3.43161 -0.0975318 0
M  V30 1629 C 153.063 4.09471 -1.10426 0
M  V30 1630 N 153.454 4.51089 -2.28806 0
M  V30 1631 C 151.752 4.35976 -0.940258 0
M  V30 1632 C 152.453 5.02654 -2.9277 0
M  V30 1633 N 151.429 4.96927 -2.20374 0
M  V30 1634 H 155.231 2.47369 -1.587 0
M  V30 1635 H 152.745 1.30992 -0.959936 0
M  V30 1636 H 154.742 4.16388 0.20664 0
M  V30 1637 H 153.402 3.14719 0.798872 0
M  V30 1638 H 154.413 4.44097 -2.66455 0
M  V30 1639 H 151.09 4.17386 -0.0977441 0
M  V30 1640 H 152.48 5.44723 -3.93352 0
M  V30 1641 N 155.201 0.870884 1.31352 0
M  V30 1642 C 156.134 0.271983 2.26573 0
M  V30 1643 C 157.112 -0.599385 1.51149 0
M  V30 1644 O 158.296 -0.552605 1.80218 0
M  V30 1645 C 155.423 -0.614801 3.33073 0
M  V30 1646 C 154.469 0.185342 4.26097 0
M  V30 1647 S 155.302 1.56444 5.12138 0
M  V30 1648 C 156.458 0.683807 6.22153 0
M  V30 1649 H 156.691 1.07916 2.77023 0
M  V30 1650 H 154.224 0.669459 1.39132 0
M  V30 1651 H 156.182 -1.12074 3.94905 0
M  V30 1652 H 154.843 -1.39593 2.81376 0
M  V30 1653 H 154.036 -0.490771 5.01605 0
M  V30 1654 H 153.638 0.623415 3.68768 0
M  V30 1655 H 155.93 -0.10521 6.77418 0
M  V30 1656 H 156.873 1.41004 6.93919 0
M  V30 1657 H 157.281 0.250952 5.63942 0
M  V30 1658 N 156.679 -1.44442 0.630414 0
M  V30 1659 C 157.611 -2.2892 -0.113347 0
M  V30 1660 C 158.624 -1.41243 -0.80959 0
M  V30 1661 O 159.813 -1.65402 -0.671156 0
M  V30 1662 C 156.913 -3.17594 -1.18266 0
M  V30 1663 C 156.086 -4.33682 -0.569073 0
M  V30 1664 C 155.145 -5.03397 -1.53226 0
M  V30 1665 O 154.171 -5.59438 -1.04967 0
M  V30 1666 N 155.373 -5.04783 -2.86661 0
M  V30 1667 H 158.138 -2.93392 0.611636 0
M  V30 1668 H 155.699 -1.54881 0.471523 0
M  V30 1669 H 157.691 -3.61097 -1.82732 0
M  V30 1670 H 156.261 -2.54876 -1.80988 0
M  V30 1671 H 155.481 -3.9338 0.254187 0
M  V30 1672 H 156.769 -5.08608 -0.139767 0
M  V30 1673 H 156.167 -4.60584 -3.28449 0
M  V30 1674 H 154.724 -5.52077 -3.46489 0
M  V30 1675 N 158.157 -0.370918 -1.53173 0
M  V30 1676 C 159.087 0.464847 -2.28826 0
M  V30 1677 C 160.068 1.07936 -1.31468 0
M  V30 1678 O 161.253 1.0956 -1.60344 0
M  V30 1679 C 158.383 1.60196 -3.08147 0
M  V30 1680 C 157.337 1.11443 -4.13237 0
M  V30 1681 C 156.663 2.3422 -4.80672 0
M  V30 1682 C 157.963 0.195384 -5.21934 0
M  V30 1683 H 159.657 -0.166329 -2.98938 0
M  V30 1684 H 157.203 -0.0814359 -1.4377 0
M  V30 1685 H 159.156 2.19332 -3.59822 0
M  V30 1686 H 157.88 2.26045 -2.35735 0
M  V30 1687 H 156.539 0.545727 -3.62515 0
M  V30 1688 H 156.187 2.98537 -4.04827 0
M  V30 1689 H 155.887 2.02269 -5.51689 0
M  V30 1690 H 157.411 2.94032 -5.35143 0
M  V30 1691 H 158.825 0.694375 -5.69079 0
M  V30 1692 H 157.222 -0.0335027 -6.00091 0
M  V30 1693 H 158.292 -0.760961 -4.78892 0
M  V30 1694 N 159.635 1.57281 -0.100228 0
M  V30 1695 C 160.86 1.99302 0.573881 0
M  V30 1696 C 161.285 0.979059 1.60611 0
M  V30 1697 O 160.643 -0.0517803 1.81226 0
M  V30 1698 C 160.691 3.40274 1.19358 0
M  V30 1699 O 159.795 3.41676 2.30935 0
M  V30 1700 H 159.136 0.647944 0.145138 0
M  V30 1701 H 161.666 2.03779 -0.183156 0
M  V30 1702 H 161.676 3.78078 1.53365 0
M  V30 1703 H 160.351 4.13594 0.437385 0
M  V30 1704 H 158.928 3.15672 1.98509 0
M  V30 1705 N 161.113 -0.173488 1.56642 0
M  V30 1706 C 162.353 -0.896984 1.83667 0
M  V30 1707 C 162.717 -1.79523 0.680842 0
M  V30 1708 O 163.918 -2.55616 0.831488 0
M  V30 1709 C 162.189 -1.67351 3.15798 0
M  V30 1710 S 163.748 -2.44607 3.64298 0
M  V30 1711 H 160.566 -0.300464 0.644393 0
M  V30 1712 H 163.168 -0.158775 1.94854 0
M  V30 1713 H 161.872 -1.00462 3.97914 0
M  V30 1714 H 161.403 -2.45313 3.07546 0
M  V30 1715 H 163.418 -3.69261 3.31452 0
M  V30 1716 N 162.591 -1.51276 -0.441967 0
M  V30 1717 C 163.816 -1.67799 -1.21895 0
M  V30 1718 C 164.241 -0.372864 -1.84367 0
M  V30 1719 O 163.599 0.666501 -1.68604 0
M  V30 1720 C 163.647 -2.79199 -2.28211 0
M  V30 1721 O 162.751 -2.42479 -3.33583 0
M  V30 1722 H 162.092 -0.559649 -0.357336 0
M  V30 1723 H 164.622 -1.97815 -0.522522 0
M  V30 1724 H 164.632 -3.03146 -2.73069 0
M  V30 1725 H 163.307 -3.73906 -1.82118 0
M  V30 1726 H 161.884 -2.29087 -2.94234 0
M  V30 1727 N 164.069 0.697108 -1.41344 0
M  V30 1728 C 164.979 1.84088 -1.45427 0
M  V30 1729 C 165.995 1.70545 -0.34501 0
M  V30 1730 O 167.171 1.92488 -0.592492 0
M  V30 1731 C 164.236 3.20056 -1.33286 0
M  V30 1732 C 163.297 3.45718 -2.54514 0
M  V30 1733 C 162.53 4.75199 -2.42944 0
M  V30 1734 O 162.753 5.51579 -1.45318 0
M  V30 1735 O 161.687 5.0161 -3.32672 0
M  V30 1736 H 165.513 1.836 -2.41919 0
M  V30 1737 H 163.098 0.849966 -1.22866 0
M  V30 1738 H 164.98 4.01236 -1.28794 0
M  V30 1739 H 163.655 3.2123 -0.39909 0
M  V30 1740 H 162.562 2.64474 -2.64583 0
M  V30 1741 H 163.895 3.49356 -3.46715 0
M  V30 1742 N 165.547 1.27147 0.931209 0
M  V30 1743 C 166.51 1.09615 2.01289 0
M  V30 1744 C 167.51 0.0412581 1.60747 0
M  V30 1745 O 168.7 0.285545 1.71844 0
M  V30 1746 C 165.832 0.669447 3.34262 0
M  V30 1747 H 167.025 2.05662 2.18273 0
M  V30 1748 H 164.578 1.09885 1.11153 0
M  V30 1749 H 165.313 -0.292572 3.22978 0
M  V30 1750 H 165.098 1.43127 3.65044 0
M  V30 1751 H 166.588 0.568921 4.13706 0
M  V30 1752 N 167.025 -1.13721 1.09112 0
M  V30 1753 C 168.302 -1.81155 0.737706 0
M  V30 1754 C 168.682 -1.96253 -0.777683 0
M  V30 1755 O 168.03 -1.52807 -1.69889 0
M  V30 1756 C 168.24 -3.16392 1.47299 0
M  V30 1757 C 169.588 -3.91787 1.63671 0
M  V30 1758 O 170.612 -3.26005 1.43524 0
M  V30 1759 O 169.471 -5.0977 1.96969 0
M  V30 1760 H 166.565 -0.783518 0.26463 0
M  V30 1761 H 169.111 -1.20676 1.19312 0
M  V30 1762 H 167.883 -3.0061 2.50498 0
M  V30 1763 H 167.506 -3.8457 1.00953 0
M  V30 1764 N 168.503 -0.877838 -1.30888 0
M  V30 1765 C 169.436 -0.283995 -2.26426 0
M  V30 1766 C 170.414 0.591361 -1.51465 0
M  V30 1767 O 171.598 0.54304 -1.80509 0
M  V30 1768 C 168.725 0.597129 -3.33395 0
M  V30 1769 C 167.771 -0.207937 -4.25993 0
M  V30 1770 S 168.604 -1.59158 -5.11301 0
M  V30 1771 C 169.76 -0.716791 -6.21782 0
M  V30 1772 H 169.993 -1.09383 -2.76446 0
M  V30 1773 H 167.526 -0.676828 -1.38775 0
M  V30 1774 H 169.484 1.09978 -3.95493 0
M  V30 1775 H 168.145 1.38099 -2.82113 0
M  V30 1776 H 167.338 0.464163 -5.01858 0
M  V30 1777 H 166.94 -0.642963 -3.68432 0
M  V30 1778 H 169.232 0.0692833 -6.77465 0
M  V30 1779 H 170.175 -1.44682 -6.93161 0
M  V30 1780 H 170.583 -0.280855 -5.63801 0
M  V30 1781 N 169.982 1.44106 -0.638065 0
M  V30 1782 C 171.398 1.56672 -0.304286 0
M  V30 1783 C 171.598 1.6244 1.19228 0
M  V30 1784 O 170.654 1.57121 1.9766 0
M  V30 1785 C 171.967 2.83503 -1.00231 0
M  V30 1786 C 173.515 2.97226 -0.981116 0
M  V30 1787 C 173.99 4.26868 -1.65974 0
M  V30 1788 N 175.481 4.33698 -1.62666 0
M  V30 1789 C 176.216 5.32745 -2.12063 0
M  V30 1790 N 175.712 6.38157 -2.6968 0
M  V30 1791 N 177.505 5.24299 -2.02651 0
M  V30 1792 H 169.656 1.38605 -1.60942 0
M  V30 1793 H 171.919 0.664661 -0.675965 0
M  V30 1794 H 171.625 2.85251 -2.0573 0
M  V30 1795 H 171.499 3.73251 -0.54439 0
M  V30 1796 H 173.886 2.95027 0.0654188 0
M  V30 1797 H 173.967 2.08808 -1.47759 0
M  V30 1798 H 173.611 4.29826 -2.70576 0
M  V30 1799 H 173.541 5.14156 -1.13804 0
M  V30 1800 H 176.032 3.58138 -1.20606 0
M  V30 1801 H 176.345 7.10029 -3.05087 0
M  V30 1802 H 174.69 6.38823 -2.73734 0
M  V30 1803 H 177.881 4.4086 -1.57353 0
M  V30 1804 H 178.054 6.01334 -2.41457 0
M  V30 1805 N 171.46 0.379036 1.52974 0
M  V30 1806 C 172.685 -0.209353 2.06341 0
M  V30 1807 C 173.11 -1.40583 1.24972 0
M  V30 1808 O 172.468 -1.79246 0.272155 0
M  V30 1809 C 172.516 -0.567786 3.56102 0
M  V30 1810 O 171.62 -1.66318 3.77375 0
M  V30 1811 H 170.961 -0.0272919 0.663439 0
M  V30 1812 H 173.491 0.543536 1.97248 0
M  V30 1813 H 173.501 -0.835003 3.99364 0
M  V30 1814 H 172.176 0.307013 4.14765 0
M  V30 1815 H 170.753 -1.39048 3.46006 0
M  V30 1816 N 172.938 -1.57226 0.108567 0
M  V30 1817 C 173.868 -2.17778 -0.84232 0
M  V30 1818 C 174.849 -1.11487 -1.2847 0
M  V30 1819 O 176.034 -1.39681 -1.34918 0
M  V30 1820 C 173.164 -2.76888 -2.09644 0
M  V30 1821 C 172.118 -3.88669 -1.79221 0
M  V30 1822 C 171.444 -4.34541 -3.11574 0
M  V30 1823 C 172.744 -5.11251 -1.06864 0
M  V30 1824 H 174.438 -2.97489 -0.337774 0
M  V30 1825 H 171.984 -1.43097 -0.161025 0
M  V30 1826 H 173.937 -3.17904 -2.76614 0
M  V30 1827 H 172.661 -1.94451 -2.62405 0
M  V30 1828 H 171.32 -3.48213 -1.14644 0
M  V30 1829 H 170.968 -3.48977 -3.62249 0
M  V30 1830 H 170.668 -5.09914 -2.91996 0
M  V30 1831 H 172.192 -4.782 -3.7968 0
M  V30 1832 H 173.606 -5.49352 -1.63968 0
M  V30 1833 H 172.003 -5.9214 -0.974178 0
M  V30 1834 H 173.073 -4.8487 -0.0536168 0
M  V30 1835 N 174.416 0.165178 -1.56732 0
M  V30 1836 C 175.664 0.879068 -1.8198 0
M  V30 1837 C 175.985 1.82514 -0.686561 0
M  V30 1838 O 175.255 1.93694 0.293146 0
M  V30 1839 H 173.835 0.327608 -0.671329 0
M  V30 1840 H 176.497 0.163526 -1.94213 0
M  V30 1841 H 175.593 1.45228 -2.76252 0
M  V30 1842 N 175.894 1.51508 0.433938 0
M  V30 1843 C 176.824 1.76016 1.53429 0
M  V30 1844 C 177.805 0.610112 1.58782 0
M  V30 1845 O 178.99 0.853177 1.74455 0
M  V30 1846 C 176.12 1.88831 2.9148 0
M  V30 1847 C 175.074 3.04288 3.00987 0
M  V30 1848 C 174.4 3.0229 4.4105 0
M  V30 1849 C 175.7 4.44193 2.74754 0
M  V30 1850 H 177.394 2.68152 1.33171 0
M  V30 1851 H 174.94 1.29035 0.639214 0
M  V30 1852 H 176.893 2.04559 3.6842 0
M  V30 1853 H 175.617 0.933455 3.12976 0
M  V30 1854 H 174.276 2.8827 2.26486 0
M  V30 1855 H 173.924 2.04576 4.59519 0
M  V30 1856 H 173.624 3.79822 4.4834 0
M  V30 1857 H 175.148 3.20116 5.1996 0
M  V30 1858 H 176.562 4.60544 3.41426 0
M  V30 1859 H 174.959 5.23457 2.9345 0
M  V30 1860 H 176.029 4.53996 1.70339 0
M  V30 1861 N 177.372 -0.689602 1.41712 0
M  V30 1862 C 178.335 -1.78521 1.43746 0
M  V30 1863 C 179.335 -1.57436 0.327191 0
M  V30 1864 O 180.525 -1.64 0.587348 0
M  V30 1865 C 177.657 -3.16971 1.25467 0
M  V30 1866 H 178.85 -1.78108 2.41283 0
M  V30 1867 H 176.403 -0.89781 1.27942 0
M  V30 1868 H 177.138 -3.23019 0.287948 0
M  V30 1869 H 176.923 -3.33678 2.05917 0
M  V30 1870 H 178.413 -3.96935 1.2974 0
M  V30 1871 N 178.85 -1.27639 -0.924453 0
M  V30 1872 C 179.76 -1.12466 -2.05885 0
M  V30 1873 C 180.776 -0.053869 -1.73917 0
M  V30 1874 O 181.952 -0.261012 -1.99702 0
M  V30 1875 C 179.017 -0.776768 -3.37886 0
M  V30 1876 C 178.078 -1.92878 -3.83532 0
M  V30 1877 C 177.311 -1.59739 -5.09234 0
M  V30 1878 O 177.534 -0.506782 -5.68144 0
M  V30 1879 O 176.468 -2.43761 -5.50331 0
M  V30 1880 H 180.294 -2.07671 -2.21599 0
M  V30 1881 H 177.879 -1.06857 -1.04413 0
M  V30 1882 H 179.761 -0.596229 -4.17161 0
M  V30 1883 H 178.436 0.145732 -3.23372 0
M  V30 1884 H 177.343 -2.1644 -3.0513 0
M  V30 1885 H 178.676 -2.8316 -4.02593 0
M  V30 1886 N 180.328 1.1314 -1.09713 0
M  V30 1887 C 181.553 1.88862 -0.857081 0
M  V30 1888 C 181.978 1.78729 0.586304 0
M  V30 1889 O 181.336 1.13692 1.41222 0
M  V30 1890 C 181.384 3.36325 -1.30069 0
M  V30 1891 O 180.488 4.09815 -0.461007 0
M  V30 1892 H 179.829 0.587108 -0.310162 0
M  V30 1893 H 182.359 1.43129 -1.46203 0
M  V30 1894 H 182.369 3.87157 -1.28738 0
M  V30 1895 H 181.044 3.43017 -2.35185 0
M  V30 1896 H 179.621 3.68986 -0.538888 0
M  V30 1897 N 181.806 0.884767 1.30421 0
M  V30 1898 C 183.222 0.57874 1.48737 0
M  V30 1899 C 183.422 -0.883567 1.81095 0
M  V30 1900 O 182.478 -1.6648 1.89844 0
M  V30 1901 C 183.791 1.49171 2.61091 0
M  V30 1902 C 185.339 1.49532 2.74971 0
M  V30 1903 C 185.814 2.39421 3.90438 0
M  V30 1904 N 187.305 2.37383 3.97748 0
M  V30 1905 C 188.04 3.03647 4.86401 0
M  V30 1906 N 187.536 3.79136 5.79852 0
M  V30 1907 N 189.329 2.9288 4.79768 0
M  V30 1908 H 181.48 1.83075 1.0769 0
M  V30 1909 H 183.743 0.783637 0.533495 0
M  V30 1910 H 183.449 2.53291 2.44001 0
M  V30 1911 H 183.323 1.20113 3.57565 0
M  V30 1912 H 185.71 0.46163 2.91467 0
M  V30 1913 H 185.791 1.8262 1.79119 0
M  V30 1914 H 185.435 3.42874 3.74699 0
M  V30 1915 H 185.365 2.03649 4.85628 0
M  V30 1916 H 187.856 1.82525 3.30897 0
M  V30 1917 H 188.169 4.26789 6.4426 0
M  V30 1918 H 186.514 3.83243 5.79784 0
M  V30 1919 H 189.705 2.33433 4.05742 0
M  V30 1920 H 189.878 3.448 5.4865 0
M  V30 1921 N 183.284 -1.43765 0.645699 0
M  V30 1922 C 184.216 -2.29027 -0.0890605 0
M  V30 1923 C 185.229 -1.42093 -0.794563 0
M  V30 1924 O 186.418 -1.66104 -0.653575 0
M  V30 1925 C 183.518 -3.18831 -1.14891 0
M  V30 1926 C 182.691 -4.34261 -0.523043 0
M  V30 1927 C 181.75 -5.04994 -1.47878 0
M  V30 1928 O 180.776 -5.6052 -0.990277 0
M  V30 1929 N 181.978 -5.07795 -2.81291 0
M  V30 1930 H 184.743 -2.92727 0.64272 0
M  V30 1931 H 182.304 -1.54373 0.487924 0
M  V30 1932 H 184.296 -3.63015 -1.78892 0
M  V30 1933 H 182.866 -2.56782 -1.78275 0
M  V30 1934 H 182.086 -3.93088 0.295896 0
M  V30 1935 H 183.374 -5.08728 -0.0858147 0
M  V30 1936 H 182.772 -4.64042 -3.23546 0
M  V30 1937 H 181.329 -5.55721 -3.40614 0
M  V30 1938 N 184.763 -0.387143 -1.52771 0
M  V30 1939 C 186.012 0.19697 -2.00736 0
M  V30 1940 C 186.325 1.48082 -1.27793 0
M  V30 1941 O 187.531 2.14485 -1.66458 0
M  V30 1942 C 185.987 0.401568 -3.57653 0
M  V30 1943 C 185.595 -0.868907 -4.39493 0
M  V30 1944 C 187.339 0.942164 -4.13912 0
M  V30 1945 C 185.246 -0.632705 -5.88006 0
M  V30 1946 H 184.176 0.0773827 -0.750019 0
M  V30 1947 H 186.827 -0.50921 -1.76293 0
M  V30 1948 H 185.209 1.16954 -3.78335 0
M  V30 1949 H 186.383 -1.64133 -4.30577 0
M  V30 1950 H 184.698 -1.33429 -3.94443 0
M  V30 1951 H 187.295 1.13455 -5.22525 0
M  V30 1952 H 187.638 1.9106 -3.69867 0
M  V30 1953 H 188.171 0.233814 -3.97112 0
M  V30 1954 H 184.91 -1.57208 -6.36369 0
M  V30 1955 H 184.43 0.100825 -5.99715 0
M  V30 1956 H 186.109 -0.26642 -6.46451 0
M  V30 1957 N 186.241 1.57166 -0.116904 0
M  V30 1958 C 187.487 1.95412 0.542405 0
M  V30 1959 C 187.82 1.00019 1.66463 0
M  V30 1960 O 187.095 0.0370346 1.94465 0
M  V30 1961 C 187.378 3.43615 1.07708 0
M  V30 1962 C 187.231 4.49781 -0.0415868 0
M  V30 1963 C 188.55 3.93616 1.96861 0
M  V30 1964 H 185.669 0.710543 0.195696 0
M  V30 1965 H 188.311 1.89027 -0.192038 0
M  V30 1966 H 186.461 3.49187 1.70296 0
M  V30 1967 H 188.133 4.56308 -0.676793 0
M  V30 1968 H 186.376 4.28033 -0.705019 0
M  V30 1969 H 187.047 5.50733 0.373717 0
M  V30 1970 H 189.523 3.90335 1.44146 0
M  V30 1971 H 188.399 4.97838 2.3119 0
M  V30 1972 H 188.66 3.34188 2.89432 0
M  V30 1973 N 187.719 -0.156864 1.56817 0
M  V30 1974 C 188.947 -0.886316 1.86955 0
M  V30 1975 C 189.362 -1.75185 0.703975 0
M  V30 1976 O 188.719 -1.79555 -0.326552 0
M  V30 1977 C 188.77 -1.75117 3.16253 0
M  V30 1978 O 188.491 -0.920537 4.2832 0
M  V30 1979 C 189.992 -2.58905 3.59837 0
M  V30 1980 H 187.212 -0.25678 0.619923 0
M  V30 1981 H 189.756 -0.152615 2.0393 0
M  V30 1982 H 187.911 -2.43805 3.01062 0
M  V30 1983 H 188.325 -1.51337 5.02192 0
M  V30 1984 H 189.799 -3.1518 4.53172 0
M  V30 1985 H 190.276 -3.34472 2.84649 0
M  V30 1986 H 190.882 -1.95526 3.7769 0
M  V30 1987 N 189.197 -1.51736 -0.425897 0
M  V30 1988 C 190.443 -1.65214 -1.1761 0
M  V30 1989 C 190.776 -0.372778 -1.90589 0
M  V30 1990 O 190.051 0.628139 -1.84078 0
M  V30 1991 C 190.334 -2.86312 -2.18398 0
M  V30 1992 C 190.187 -4.24254 -1.49426 0
M  V30 1993 C 191.506 -3.02925 -3.19256 0
M  V30 1994 H 188.625 -0.601263 -0.426206 0
M  V30 1995 H 191.267 -1.8425 -0.463882 0
M  V30 1996 H 189.417 -2.70213 -2.79137 0
M  V30 1997 H 191.089 -4.52046 -0.919362 0
M  V30 1998 H 189.332 -4.26426 -0.796432 0
M  V30 1999 H 190.003 -5.05001 -2.22885 0
M  V30 2000 H 192.479 -3.1781 -2.68581 0
M  V30 2001 H 191.355 -3.89199 -3.8706 0
M  V30 2002 H 191.616 -2.15497 -3.86023 0
M  V30 2003 N 190.675 0.682077 -1.42076 0
M  V30 2004 C 191.923 1.4393 -1.41876 0
M  V30 2005 C 192.244 1.94971 -0.0335599 0
M  V30 2006 O 191.514 1.72591 0.926773 0
M  V30 2007 H 190.094 0.534085 -0.522267 0
M  V30 2008 H 192.756 0.806427 -1.77434 0
M  V30 2009 H 191.852 2.29588 -2.11414 0
M  V30 2010 N 192.153 1.28127 0.917671 0
M  V30 2011 C 193.569 1.05749 1.19538 0
M  V30 2012 C 193.769 -0.202633 2.00479 0
M  V30 2013 O 192.825 -0.905382 2.3571 0
M  V30 2014 C 194.138 2.30273 1.93378 0
M  V30 2015 C 195.686 2.35412 2.06277 0
M  V30 2016 C 196.161 3.59692 2.83524 0
M  V30 2017 N 197.652 3.60309 2.91087 0
M  V30 2018 C 198.387 4.53147 3.51348 0
M  V30 2019 N 197.883 5.563 4.12919 0
M  V30 2020 N 199.676 4.40751 3.48849 0
M  V30 2021 H 191.827 2.09024 0.377184 0
M  V30 2022 H 194.09 0.919798 0.22951 0
M  V30 2023 H 193.796 3.22055 1.41328 0
M  V30 2024 H 193.67 2.36378 2.93947 0
M  V30 2025 H 196.057 1.4413 2.57508 0
M  V30 2026 H 196.138 2.33304 1.04895 0
M  V30 2027 H 195.782 4.51316 2.32973 0
M  V30 2028 H 195.712 3.59054 3.85211 0
M  V30 2029 H 198.203 2.85714 2.47338 0
M  V30 2030 H 198.516 6.2329 4.56869 0
M  V30 2031 H 196.861 5.60131 4.11435 0
M  V30 2032 H 200.052 3.59367 2.99955 0
M  V30 2033 H 200.225 5.13291 3.9552 0
M  V30 2034 N 193.631 -1.12557 1.10312 0
M  V30 2035 C 194.856 -1.88405 0.867085 0
M  V30 2036 C 195.281 -1.79038 -0.576817 0
M  V30 2037 O 194.639 -1.14439 -1.40618 0
M  V30 2038 C 194.687 -3.3563 1.31851 0
M  V30 2039 O 193.791 -4.09565 0.482734 0
M  V30 2040 H 193.132 -0.585455 0.313271 0
M  V30 2041 H 195.662 -1.42352 1.4696 0
M  V30 2042 H 195.672 -3.86469 1.3079 0
M  V30 2043 H 194.347 -3.41765 2.37001 0
M  V30 2044 H 192.924 -3.68695 0.558448 0
M  V30 2045 N 195.109 -0.891671 -1.2995 0
M  V30 2046 C 196.039 -0.379797 -2.30391 0
M  V30 2047 C 197.02 0.540919 -1.6127 0
M  V30 2048 O 198.205 0.453352 -1.88834 0
M  V30 2049 C 195.335 0.400654 -3.44981 0
M  V30 2050 C 194.289 -0.428905 -4.25846 0
M  V30 2051 C 193.615 0.478557 -5.32554 0
M  V30 2052 C 194.915 -1.67458 -4.94727 0
M  V30 2053 H 196.609 -1.21914 -2.73454 0
M  V30 2054 H 194.155 -0.587675 -1.31462 0
M  V30 2055 H 196.108 0.769434 -4.14316 0
M  V30 2056 H 194.832 1.27371 -3.0074 0
M  V30 2057 H 193.491 -0.779911 -3.58208 0
M  V30 2058 H 193.139 1.34951 -4.84559 0
M  V30 2059 H 192.839 -0.0727433 -5.87555 0
M  V30 2060 H 194.363 0.843705 -6.04743 0
M  V30 2061 H 195.777 -1.376 -5.56542 0
M  V30 2062 H 194.174 -2.16659 -5.59624 0
M  V30 2063 H 195.244 -2.41518 -4.20473 0
M  V30 2064 N 196.587 1.43421 -0.653314 0
M  V30 2065 C 197.833 2.02111 -0.166992 0
M  V30 2066 C 198.166 1.51423 1.21592 0
M  V30 2067 O 197.441 0.707389 1.8118 0
M  V30 2068 C 197.724 3.5966 -0.177948 0
M  V30 2069 C 197.577 4.20579 -1.59478 0
M  V30 2070 C 198.896 4.37413 0.4856 0
M  V30 2071 H 196.015 0.734374 -0.0621557 0
M  V30 2072 H 198.657 1.70717 -0.834016 0
M  V30 2073 H 196.807 3.86537 0.390032 0
M  V30 2074 H 198.479 4.04732 -2.21336 0
M  V30 2075 H 196.722 3.77226 -2.14204 0
M  V30 2076 H 197.393 5.29665 -1.5543 0
M  V30 2077 H 199.869 4.161 0.00234528 0
M  V30 2078 H 198.745 5.47075 0.447207 0
M  V30 2079 H 199.006 4.13672 1.55974 0
M  V30 2080 N 198.065 0.39524 1.52563 0
M  V30 2081 C 199.028 -0.425001 2.25225 0
M  V30 2082 C 200.028 -0.985266 1.27079 0
M  V30 2083 O 201.218 -0.866332 1.5113 0
M  V30 2084 C 198.35 -1.59686 3.01186 0
M  V30 2085 H 199.543 0.211233 2.99155 0
M  V30 2086 H 197.096 0.147472 1.55603 0
M  V30 2087 H 197.831 -2.27035 2.31572 0
M  V30 2088 H 197.616 -1.20176 3.73229 0
M  V30 2089 H 199.106 -2.17743 3.5634 0
M  V30 2090 N 199.544 -1.57102 0.125237 0
M  V30 2091 C 200.821 -1.86953 -0.575142 0
M  V30 2092 C 201.201 -1.02749 -1.84407 0
M  V30 2093 O 200.549 -0.108144 -2.28244 0
M  V30 2094 C 200.759 -3.38198 -0.861583 0
M  V30 2095 C 202.107 -4.06937 -1.21192 0
M  V30 2096 O 203.131 -3.43252 -0.951645 0
M  V30 2097 O 201.99 -5.19364 -1.70068 0
M  V30 2098 H 199.084 -0.774147 -0.290906 0
M  V30 2099 H 201.63 -1.68942 0.160211 0
M  V30 2100 H 200.402 -3.91282 0.0373647 0
M  V30 2101 H 200.025 -3.61661 -1.65188 0
M  V30 2102 N 201.022 0.148545 -1.56898 0
M  V30 2103 C 201.97 1.20265 -1.99096 0
M  V30 2104 C 202.964 1.44559 -0.883123 0
M  V30 2105 O 204.17 1.4487 -1.0683 0
M  V30 2106 H 200.545 0.404786 -0.63376 0
M  V30 2107 H 202.516 0.82004 -2.86911 0
M  V30 2108 C 201.265 2.52886 -2.3863 0
M  V30 2109 H 200.588 2.35021 -3.23427 0
M  V30 2110 H 202.028 3.25274 -2.7198 0
M  V30 2111 C 200.487 3.13315 -1.23837 0
M  V30 2112 O 201.017 3.98077 -0.538268 0
M  V30 2113 N 199.223 2.72742 -1.00301 0
M  V30 2114 H 198.77 2.03912 -1.5741 0
M  V30 2115 H 198.728 3.13507 -0.236838 0
M  V30 2116 N 202.5 1.5196 0.417844 0
M  V30 2117 C 203.728 1.69426 1.18753 0
M  V30 2118 C 204.143 0.399955 1.84515 0
M  V30 2119 O 203.5 -0.623288 1.71527 0
M  V30 2120 C 203.551 2.82375 2.25714 0
M  V30 2121 O 203.272 4.06793 1.62638 0
M  V30 2122 C 204.773 3.11277 3.15628 0
M  V30 2123 H 201.993 0.568031 0.357186 0
M  V30 2124 H 204.537 1.98475 0.49273 0
M  V30 2125 H 202.692 2.5587 2.90877 0
M  V30 2126 H 203.106 4.69667 2.3348 0
M  V30 2127 H 204.58 3.93843 3.86771 0
M  V30 2128 H 205.057 2.24473 3.77503 0
M  V30 2129 H 205.663 3.39515 2.56144 0
M  V30 2130 N 203.978 -0.674533 1.42435 0
M  V30 2131 C 204.926 -1.80934 1.46169 0
M  V30 2132 C 205.92 -1.66006 0.3374 0
M  V30 2133 O 207.126 -1.72611 0.510425 0
M  V30 2134 H 203.501 -0.596594 0.457798 0
M  V30 2135 H 205.472 -1.74903 2.41767 0
M  V30 2136 C 204.221 -3.19088 1.38123 0
M  V30 2137 H 203.544 -3.31203 2.23931 0
M  V30 2138 H 204.984 -3.9851 1.44797 0
M  V30 2139 C 203.443 -3.36763 0.0960517 0
M  V30 2140 O 203.973 -3.92581 -0.851073 0
M  V30 2141 N 202.179 -2.90597 0.0131186 0
M  V30 2142 H 201.726 -2.45359 0.784639 0
M  V30 2143 H 201.684 -3.028 -0.846133 0
M  V30 2144 N 205.456 -1.28612 -0.910864 0
M  V30 2145 C 206.705 -1.15311 -1.65488 0
M  V30 2146 C 207.018 0.296999 -1.93332 0
M  V30 2147 O 208.224 0.551168 -2.65847 0
M  V30 2148 C 206.68 -2.01599 -2.98137 0
M  V30 2149 C 206.288 -3.51367 -2.7793 0
M  V30 2150 C 208.032 -1.96993 -3.76024 0
M  V30 2151 C 205.939 -4.29797 -4.06237 0
M  V30 2152 H 204.869 -0.42796 -0.620779 0
M  V30 2153 H 207.52 -1.53166 -1.01057 0
M  V30 2154 H 205.902 -1.56603 -3.63719 0
M  V30 2155 H 207.076 -4.0434 -2.21011 0
M  V30 2156 H 205.391 -3.57529 -2.13452 0
M  V30 2157 H 207.988 -2.52856 -4.71135 0
M  V30 2158 H 208.331 -0.94733 -4.05378 0
M  V30 2159 H 208.864 -2.39973 -3.17266 0
M  V30 2160 H 205.603 -5.32648 -3.82055 0
M  V30 2161 H 205.123 -3.81596 -4.62757 0
M  V30 2162 H 206.802 -4.39869 -4.74473 0
M  V30 2163 N 206.934 1.1197 -1.10907 0
M  V30 2164 C 208.181 1.83588 -0.854507 0
M  V30 2165 C 208.509 1.84357 0.6199 0
M  V30 2166 O 207.764 1.28809 1.47332 0
M  V30 2167 C 208.063 3.30749 -1.35425 0
M  V30 2168 C 207.729 3.50146 -2.84093 0
M  V30 2169 C 206.391 3.55148 -3.2469 0
M  V30 2170 C 208.743 3.56857 -3.79872 0
M  V30 2171 C 206.071 3.6441 -4.59806 0
M  V30 2172 C 208.423 3.6765 -5.14797 0
M  V30 2173 C 207.087 3.7091 -5.54961 0
M  V30 2174 H 206.357 0.671795 -0.312686 0
M  V30 2175 H 209.004 1.32091 -1.38652 0
M  V30 2176 H 207.309 3.84703 -0.742361 0
M  V30 2177 H 209.006 3.8464 -1.1337 0
M  V30 2178 H 205.596 3.46919 -2.51685 0
M  V30 2179 H 209.78 3.52258 -3.49611 0
M  V30 2180 H 205.036 3.65208 -4.9034 0
M  V30 2181 H 209.21 3.71786 -5.88853 0
M  V30 2182 H 206.837 3.7784 -6.59652 0
M  V30 2183 N 208.412 0.89855 1.29475 0
M  V30 2184 C 209.637 0.538561 2.00285 0
M  V30 2185 C 210.062 -0.869135 1.66816 0
M  V30 2186 O 209.42 -1.57831 0.892145 0
M  V30 2187 C 209.468 0.736475 3.52999 0
M  V30 2188 O 208.572 -0.211537 4.11857 0
M  V30 2189 H 207.913 0.210563 0.62973 0
M  V30 2190 H 210.443 1.20982 1.64998 0
M  V30 2191 H 210.453 0.640685 4.02938 0
M  V30 2192 H 209.128 1.76276 3.76696 0
M  V30 2193 H 207.705 -0.0682991 3.72837 0
M  V30 2194 N 209.89 -1.43072 0.660911 0
M  V30 2195 C 211.137 -2.01721 0.177445 0
M  V30 2196 C 211.465 -1.5218 -1.21126 0
M  V30 2197 O 210.72 -0.708659 -1.82419 0
M  V30 2198 C 211.019 -3.57103 0.145563 0
M  V30 2199 C 210.685 -4.26021 1.47705 0
M  V30 2200 C 209.347 -4.44563 1.84165 0
M  V30 2201 C 211.699 -4.64983 2.35458 0
M  V30 2202 C 209.027 -4.99334 3.0803 0
M  V30 2203 C 211.379 -5.21127 3.58622 0
M  V30 2204 C 210.043 -5.37884 3.95268 0
M  V30 2205 H 209.313 -0.73815 0.0649317 0
M  V30 2206 H 211.96 -1.71446 0.853144 0
M  V30 2207 H 210.265 -3.86965 -0.61361 0
M  V30 2208 H 211.962 -4.00248 -0.2455 0
M  V30 2209 H 208.552 -4.11939 1.18339 0
M  V30 2210 H 212.736 -4.50343 2.08579 0
M  V30 2211 H 207.992 -5.10493 3.36462 0
M  V30 2212 H 212.166 -5.50262 4.26831 0
M  V30 2213 H 209.793 -5.80089 4.91325 0
M  V30 2214 N 211.368 -0.403325 -1.52352 0
M  V30 2215 C 212.645 0.232611 -1.94212 0
M  V30 2216 C 213.025 1.63133 -1.33981 0
M  V30 2217 O 212.373 2.22659 -0.513344 0
M  V30 2218 C 212.583 0.244811 -3.4814 0
M  V30 2219 C 213.931 0.46698 -4.22024 0
M  V30 2220 O 214.955 0.324419 -3.5472 0
M  V30 2221 O 213.814 0.74747 -5.41364 0
M  V30 2222 H 210.908 0.148223 -0.813609 0
M  V30 2223 H 213.454 -0.458848 -1.63379 0
M  V30 2224 H 212.226 -0.734378 -3.84347 0
M  V30 2225 H 211.849 0.980611 -3.85318 0
M  V30 2226 N 212.846 1.57033 -0.133567 0
M  V30 2227 C 214.262 1.58035 0.222944 0
M  V30 2228 C 214.462 1.14713 1.6566 0
M  V30 2229 O 213.518 0.841218 2.38075 0
M  V30 2230 C 214.831 3.00691 -0.0236116 0
M  V30 2231 C 216.379 3.12973 0.0411512 0
M  V30 2232 C 216.854 4.57654 -0.177899 0
M  V30 2233 N 218.345 4.63033 -0.124365 0
M  V30 2234 C 219.08 5.72771 -0.268553 0
M  V30 2235 N 218.576 6.91206 -0.46972 0
M  V30 2236 N 220.369 5.61718 -0.2071 0
M  V30 2237 H 212.52 1.8349 -1.06981 0
M  V30 2238 H 214.783 0.848677 -0.422436 0
M  V30 2239 H 214.489 3.36726 -1.0153 0
M  V30 2240 H 214.363 3.70614 0.701808 0
M  V30 2241 H 216.75 2.76787 1.02338 0
M  V30 2242 H 216.831 2.45564 -0.716383 0
M  V30 2243 H 216.475 4.94542 -1.15717 0
M  V30 2244 H 216.405 5.23173 0.599797 0
M  V30 2245 H 218.896 3.7789 0.027011 0
M  V30 2246 H 219.209 7.70693 -0.570212 0
M  V30 2247 H 217.554 6.93156 -0.505876 0
M  V30 2248 H 220.745 4.68072 -0.0507986 0
M  V30 2249 H 220.918 6.47195 -0.322909 0
M  V30 2250 N 214.325 -0.140222 1.56975 0
M  V30 2251 C 215.574 -0.850152 1.82908 0
M  V30 2252 C 215.887 -1.82028 0.715892 0
M  V30 2253 O 217.093 -2.57485 0.861016 0
M  V30 2254 C 215.549 -1.5625 3.24213 0
M  V30 2255 C 215.157 -0.63443 4.43485 0
M  V30 2256 C 216.901 -2.25881 3.59413 0
M  V30 2257 C 214.808 -1.34879 5.75814 0
M  V30 2258 H 213.738 -0.321221 0.682153 0
M  V30 2259 H 216.389 -0.102874 1.83211 0
M  V30 2260 H 214.771 -2.35565 3.18316 0
M  V30 2261 H 215.945 0.12398 4.60633 0
M  V30 2262 H 214.26 -0.0461836 4.16374 0
M  V30 2263 H 216.857 -2.79978 4.5554 0
M  V30 2264 H 217.2 -3.02693 2.85802 0
M  V30 2265 H 217.733 -1.53477 3.67001 0
M  V30 2266 H 214.472 -0.622385 6.52539 0
M  V30 2267 H 213.992 -2.07974 5.6259 0
M  V30 2268 H 215.671 -1.88784 6.18845 0
M  V30 2269 N 215.803 -1.52179 -0.40978 0
M  V30 2270 C 216.766 -1.74853 -1.48186 0
M  V30 2271 C 217.766 -0.618417 -1.48433 0
M  V30 2272 O 218.956 -0.886286 -1.49969 0
M  V30 2273 C 216.088 -1.8303 -2.87598 0
M  V30 2274 H 217.281 -2.70559 -1.29374 0
M  V30 2275 H 214.834 -1.42586 -0.640233 0
M  V30 2276 H 215.569 -0.89236 -3.11781 0
M  V30 2277 H 215.354 -2.65187 -2.88822 0
M  V30 2278 H 216.844 -2.02316 -3.65319 0
M  V30 2279 N 217.281 0.66697 -1.42791 0
M  V30 2280 C 218.244 1.76211 -1.46568 0
M  V30 2281 C 219.244 1.56896 -0.352196 0
M  V30 2282 O 220.434 1.63044 -0.613364 0
M  V30 2283 C 217.566 3.14935 -1.30494 0
M  V30 2284 H 218.759 1.74247 -2.44086 0
M  V30 2285 H 216.312 0.877342 -1.29354 0
M  V30 2286 H 217.047 3.2252 -0.339301 0
M  V30 2287 H 216.832 3.30359 -2.11199 0
M  V30 2288 H 218.322 3.94821 -1.36038 0
M  V30 2289 N 218.759 1.29093 0.90403 0
M  V30 2290 C 220.005 1.16986 1.65656 0
M  V30 2291 C 220.338 -0.278925 1.92186 0
M  V30 2292 O 219.613 -1.2019 1.5292 0
M  V30 2293 C 219.896 1.97908 3.0084 0
M  V30 2294 C 219.749 3.50903 2.81403 0
M  V30 2295 C 221.068 1.80208 4.01513 0
M  V30 2296 H 218.187 0.426346 0.601164 0
M  V30 2297 H 220.829 1.58518 1.04747 0
M  V30 2298 H 218.979 1.62616 3.52829 0
M  V30 2299 H 220.651 3.96153 2.36348 0
M  V30 2300 H 218.894 3.76045 2.1627 0
M  V30 2301 H 219.565 4.02791 3.77443 0
M  V30 2302 H 222.041 2.11025 3.58619 0
M  V30 2303 H 220.917 2.39184 4.94047 0
M  V30 2304 H 221.178 0.756119 4.35586 0
M  V30 2305 N 220.237 -1.11381 1.11499 0
M  V30 2306 C 221.653 -1.35143 0.849031 0
M  V30 2307 C 221.853 -1.94515 -0.525938 0
M  V30 2308 O 220.909 -2.1785 -1.27662 0
M  V30 2309 C 222.222 -2.28249 1.95762 0
M  V30 2310 C 223.77 -2.41812 1.98736 0
M  V30 2311 C 224.245 -3.3824 3.088 0
M  V30 2312 N 225.736 -3.45803 3.08179 0
M  V30 2313 C 226.471 -4.20358 3.89982 0
M  V30 2314 N 225.967 -4.97884 4.8175 0
M  V30 2315 N 227.76 -4.15877 3.78157 0
M  V30 2316 H 219.911 -0.712062 2.00109 0
M  V30 2317 H 222.174 -0.376025 0.870235 0
M  V30 2318 H 221.88 -1.91817 2.94787 0
M  V30 2319 H 221.754 -3.28473 1.85433 0
M  V30 2320 H 224.141 -2.77518 1.00338 0
M  V30 2321 H 224.222 -1.41437 2.13141 0
M  V30 2322 H 223.866 -3.03261 4.07425 0
M  V30 2323 H 223.796 -4.38471 2.91635 0
M  V30 2324 H 226.287 -2.90506 2.41691 0
M  V30 2325 H 226.6 -5.52142 5.40702 0
M  V30 2326 H 224.945 -4.97043 4.85771 0
M  V30 2327 H 228.136 -3.544 3.05808 0
M  V30 2328 H 228.309 -4.73723 4.42143 0
M  V30 2329 N 221.715 -0.905404 -1.28997 0
M  V30 2330 C 223.131 -0.60233 -1.47798 0
M  V30 2331 C 223.331 0.854645 -1.82478 0
M  V30 2332 O 222.387 1.63439 -1.92468 0
M  V30 2333 C 223.7 -1.53306 -2.58685 0
M  V30 2334 C 225.248 -1.53887 -2.72558 0
M  V30 2335 C 225.723 -2.45602 -3.86579 0
M  V30 2336 N 227.214 -2.43681 -3.93921 0
M  V30 2337 C 227.949 -3.11347 -4.81509 0
M  V30 2338 N 227.445 -3.88313 -5.73746 0
M  V30 2339 N 229.238 -3.00476 -4.75048 0
M  V30 2340 H 221.389 -1.84765 -1.04764 0
M  V30 2341 H 223.652 -0.792025 -0.520961 0
M  V30 2342 H 223.358 -2.57141 -2.39941 0
M  V30 2343 H 223.232 -1.25787 -3.55609 0
M  V30 2344 H 225.619 -0.507941 -2.90696 0
M  V30 2345 H 225.7 -1.85447 -1.76191 0
M  V30 2346 H 225.344 -3.48792 -3.69197 0
M  V30 2347 H 225.274 -2.11349 -4.82327 0
M  V30 2348 H 227.765 -1.87767 -3.27951 0
M  V30 2349 H 228.078 -4.36985 -6.37389 0
M  V30 2350 H 226.423 -3.92419 -5.73614 0
M  V30 2351 H 229.614 -2.39858 -4.01977 0
M  V30 2352 H 229.787 -3.53485 -5.43095 0
M  V30 2353 N 223.193 1.4272 -0.668489 0
M  V30 2354 C 224.44 2.01624 -0.18814 0
M  V30 2355 C 224.768 1.5282 1.20317 0
M  V30 2356 O 224.023 0.718323 1.8204 0
M  V30 2357 C 224.322 3.57021 -0.164499 0
M  V30 2358 C 223.988 4.25232 -1.49962 0
M  V30 2359 C 222.65 4.4358 -1.8652 0
M  V30 2360 C 225.002 4.63727 -2.37921 0
M  V30 2361 C 222.33 4.97694 -3.10674 0
M  V30 2362 C 224.682 5.19218 -3.6138 0
M  V30 2363 C 223.346 5.3578 -3.98115 0
M  V30 2364 H 222.616 0.737795 -0.0688454 0
M  V30 2365 H 225.263 1.70991 -0.862225 0
M  V30 2366 H 223.568 3.87285 0.593079 0
M  V30 2367 H 225.265 4.00372 0.224271 0
M  V30 2368 H 221.855 4.11306 -1.20522 0
M  V30 2369 H 226.039 4.4923 -2.10964 0
M  V30 2370 H 221.295 5.08702 -3.39164 0
M  V30 2371 H 225.469 5.4799 -4.29743 0
M  V30 2372 H 223.096 5.77475 -4.94395 0
M  V30 2373 N 224.671 0.411399 1.52136 0
M  V30 2374 C 225.601 -0.404015 2.29978 0
M  V30 2375 C 226.582 -1.04412 1.34284 0
M  V30 2376 O 227.767 -1.0527 1.63192 0
M  V30 2377 C 224.897 -1.5197 3.12286 0
M  V30 2378 C 223.851 -1.00448 4.16046 0
M  V30 2379 C 223.177 -2.21393 4.86712 0
M  V30 2380 C 224.477 -0.0569336 5.22269 0
M  V30 2381 H 226.171 0.245529 2.98392 0
M  V30 2382 H 223.717 0.119525 1.43503 0
M  V30 2383 H 225.67 -2.09715 3.6551 0
M  V30 2384 H 224.394 -2.19716 2.41646 0
M  V30 2385 H 223.053 -0.449421 3.63835 0
M  V30 2386 H 222.701 -2.87699 4.12599 0
M  V30 2387 H 222.401 -1.87571 5.56858 0
M  V30 2388 H 223.925 -2.7974 5.4275 0
M  V30 2389 H 225.339 -0.54325 5.7072 0
M  V30 2390 H 223.736 0.192594 5.99791 0
M  V30 2391 H 224.806 0.887663 4.76706 0
M  V30 2392 N 226.149 -1.5696 0.141893 0
M  V30 2393 C 227.374 -2.00754 -0.520838 0
M  V30 2394 C 227.799 -1.0213 -1.57959 0
M  V30 2395 O 227.157 0.00371324 -1.813 0
M  V30 2396 C 227.205 -3.43318 -1.10294 0
M  V30 2397 O 226.309 -3.47679 -2.21795 0
M  V30 2398 H 225.65 -0.651564 -0.127908 0
M  V30 2399 H 228.18 -2.03221 0.23712 0
M  V30 2400 H 228.19 -3.82012 -1.43287 0
M  V30 2401 H 226.865 -4.14608 -0.327574 0
M  V30 2402 H 225.442 -3.20824 -1.9007 0
M  V30 2403 N 227.627 0.131896 -1.57047 0
M  V30 2404 C 228.904 0.871495 -1.75112 0
M  V30 2405 C 229.284 1.9866 -0.713949 0
M  V30 2406 O 228.632 2.26965 0.264447 0
M  V30 2407 C 228.842 1.40007 -3.19686 0
M  V30 2408 C 230.19 1.85752 -3.81813 0
M  V30 2409 O 231.214 1.49715 -3.23209 0
M  V30 2410 O 230.073 2.5226 -4.84796 0
M  V30 2411 H 227.167 0.412919 -0.716538 0
M  V30 2412 H 229.713 0.116641 -1.69299 0
M  V30 2413 H 228.485 0.599404 -3.86682 0
M  V30 2414 H 228.108 2.218 -3.29986 0
M  V30 2415 N 229.106 1.52395 0.401703 0
M  V30 2416 C 230.352 1.67065 1.14966 0
M  V30 2417 C 230.685 0.403052 1.89971 0
M  V30 2418 O 229.96 -0.598774 1.85054 0
M  V30 2419 C 230.243 2.8975 2.13815 0
M  V30 2420 C 230.096 4.26578 1.42658 0
M  V30 2421 C 231.415 3.07965 3.14397 0
M  V30 2422 H 228.534 0.607968 0.416587 0
M  V30 2423 H 231.176 1.84965 0.434511 0
M  V30 2424 H 229.326 2.74619 2.74803 0
M  V30 2425 H 230.998 4.53451 0.847329 0
M  V30 2426 H 229.241 4.27639 0.72849 0
M  V30 2427 H 229.912 5.08483 2.14823 0
M  V30 2428 H 232.388 3.22043 2.63491 0
M  V30 2429 H 231.264 3.95308 3.80819 0
M  V30 2430 H 231.525 2.21611 3.82545 0
M  V30 2431 N 230.584 -0.659388 1.43143 0
M  V30 2432 C 231.824 -1.43121 1.45931 0
M  V30 2433 C 232.188 -1.91838 0.0789298 0
M  V30 2434 O 233.389 -2.68794 -0.018491 0
M  V30 2435 C 231.66 -2.58534 2.46769 0
M  V30 2436 S 233.219 -3.47154 2.68384 0
M  V30 2437 H 230.037 -0.488624 0.516496 0
M  V30 2438 H 232.639 -0.766128 1.79863 0
M  V30 2439 H 231.343 -2.21007 3.45809 0
M  V30 2440 H 230.874 -3.29898 2.14315 0
M  V30 2441 H 232.889 -4.55051 1.97845 0
M  V30 2442 N 232.062 -1.29571 -0.897171 0
M  V30 2443 C 233.025 -1.14913 -1.98312 0
M  V30 2444 C 234.025 -0.0838629 -1.60581 0
M  V30 2445 O 235.215 -0.331006 -1.71026 0
M  V30 2446 C 232.347 -0.757835 -3.3237 0
M  V30 2447 H 233.54 -2.11377 -2.12743 0
M  V30 2448 H 231.093 -1.12793 -1.08201 0
M  V30 2449 H 231.828 0.206837 -3.2364 0
M  V30 2450 H 231.613 -1.52755 -3.61121 0
M  V30 2451 H 233.103 -0.678408 -4.12053 0
M  V30 2452 N 233.54 1.10788 -1.12088 0
M  V30 2453 C 234.503 2.15207 -0.788577 0
M  V30 2454 C 235.503 1.59609 0.195317 0
M  V30 2455 O 236.693 1.74174 -0.0300193 0
M  V30 2456 C 233.825 3.4047 -0.171174 0
M  V30 2457 H 235.018 2.46116 -1.71368 0
M  V30 2458 H 232.571 1.26089 -0.923652 0
M  V30 2459 H 233.306 3.15176 0.763832 0
M  V30 2460 H 233.091 3.82109 -0.879514 0
M  V30 2461 H 234.581 4.17576 0.04496 0
M  V30 2462 N 235.018 0.912232 1.28515 0
M  V30 2463 C 236.434 0.610159 1.47476 0
M  V30 2464 C 236.634 -0.844955 1.82928 0
M  V30 2465 O 235.69 -1.62416 1.93332 0
M  V30 2466 C 237.003 1.54675 2.57868 0
M  V30 2467 C 238.551 1.55331 2.71738 0
M  V30 2468 C 239.026 2.47649 3.85272 0
M  V30 2469 N 240.517 2.45767 3.92623 0
M  V30 2470 C 241.252 3.13896 4.79851 0
M  V30 2471 N 240.748 3.9135 5.71679 0
M  V30 2472 N 242.541 3.02991 4.73448 0
M  V30 2473 H 234.692 1.85318 1.03783 0
M  V30 2474 H 236.955 0.794777 0.516753 0
M  V30 2475 H 236.661 2.5841 2.38574 0
M  V30 2476 H 236.535 1.27671 3.54937 0
M  V30 2477 H 238.922 0.52335 2.90422 0
M  V30 2478 H 239.003 1.86378 1.75205 0
M  V30 2479 H 238.647 3.50745 3.67342 0
M  V30 2480 H 238.577 2.13904 4.81199 0
M  V30 2481 H 241.068 1.89503 3.26951 0
M  V30 2482 H 241.381 4.40359 6.35062 0
M  V30 2483 H 239.726 3.95455 5.71524 0
M  V30 2484 H 242.917 2.41987 4.007 0
M  V30 2485 H 243.09 3.5636 5.41213 0
M  V30 2486 N 236.496 -1.42363 0.676048 0
M  V30 2487 C 237.724 -2.05859 0.207268 0
M  V30 2488 C 238.139 -1.50796 -1.13605 0
M  V30 2489 O 237.496 -0.648265 -1.70598 0
M  V30 2490 C 237.547 -3.61248 0.134975 0
M  V30 2491 O 237.268 -4.1427 1.42521 0
M  V30 2492 C 238.769 -4.41859 -0.357151 0
M  V30 2493 H 235.989 -0.663431 0.100503 0
M  V30 2494 H 238.533 -1.82479 0.923136 0
M  V30 2495 H 236.688 -3.83735 -0.531588 0
M  V30 2496 H 237.102 -5.0815 1.29939 0
M  V30 2497 H 238.576 -5.50847 -0.356641 0
M  V30 2498 H 239.053 -4.16536 -1.39264 0
M  V30 2499 H 239.659 -4.24392 0.27772 0
M  V30 2500 N 237.974 -0.419461 -1.51915 0
M  V30 2501 C 238.904 0.391813 -2.30189 0
M  V30 2502 C 239.885 1.03699 -1.34836 0
M  V30 2503 O 241.07 1.04403 -1.63748 0
M  V30 2504 C 238.2 1.50312 -3.13087 0
M  V30 2505 C 237.154 0.9824 -4.16573 0
M  V30 2506 C 236.48 2.18809 -4.8788 0
M  V30 2507 C 237.78 0.0292356 -5.22292 0
M  V30 2508 H 239.474 -0.26135 -2.98257 0
M  V30 2509 H 237.02 -0.127134 -1.43438 0
M  V30 2510 H 238.973 2.07773 -3.66617 0
M  V30 2511 H 237.697 2.18431 -2.42807 0
M  V30 2512 H 236.356 0.430119 -3.64068 0
M  V30 2513 H 236.004 2.85507 -4.14119 0
M  V30 2514 H 235.704 1.84615 -5.57845 0
M  V30 2515 H 237.228 2.76858 -5.44226 0
M  V30 2516 H 238.642 0.512976 -5.71 0
M  V30 2517 H 237.039 -0.2244 -5.9968 0
M  V30 2518 H 238.109 -0.912931 -4.76228 0
M  V30 2519 N 239.452 1.56882 -0.150215 0
M  V30 2520 C 240.415 2.1573 0.774157 0
M  V30 2521 C 241.415 1.0999 1.17298 0
M  V30 2522 O 242.605 1.35613 1.09338 0
M  V30 2523 C 239.737 2.72302 2.05096 0
M  V30 2524 H 240.93 2.98752 0.262201 0
M  V30 2525 H 238.483 1.55985 0.099248 0
M  V30 2526 H 239.218 1.92956 2.6065 0
M  V30 2527 H 239.003 3.49665 1.77416 0
M  V30 2528 H 240.493 3.17632 2.71109 0
M  V30 2529 N 240.93 -0.123565 1.57115 0
M  V30 2530 C 242.341 -0.681198 1.73829 0
M  V30 2531 C 242.692 -1.80535 0.768214 0
M  V30 2532 O 241.817 -2.16317 -0.0599103 0
M  V30 2533 C 242.412 -1.24246 3.15196 0
M  V30 2534 C 240.971 -1.74643 3.33432 0
M  V30 2535 C 240.118 -0.644284 2.69711 0
M  V30 2536 H 243.069 0.102315 1.5837 0
M  V30 2537 H 243.09 -2.11216 3.16493 0
M  V30 2538 H 242.602 -0.424062 3.85776 0
M  V30 2539 H 240.703 -2.58974 2.67886 0
M  V30 2540 H 240.816 -1.85902 4.41562 0
M  V30 2541 H 239.18 -1.07676 2.3082 0
M  V30 2542 H 239.963 0.163058 3.42913 0
M  V30 2543 N 242.408 -1.52605 -0.393616 0
M  V30 2544 C 243.685 -1.58001 -1.15304 0
M  V30 2545 C 244.065 -0.370385 -2.07825 0
M  V30 2546 O 243.413 0.641638 -2.19306 0
M  V30 2547 C 243.623 -2.91652 -1.91677 0
M  V30 2548 C 244.971 -3.4522 -2.47201 0
M  V30 2549 O 245.995 -2.93495 -2.01839 0
M  V30 2550 O 244.854 -4.35579 -3.3005 0
M  V30 2551 H 241.948 -0.637068 -0.527327 0
M  V30 2552 H 244.494 -1.64939 -0.399141 0
M  V30 2553 H 243.266 -3.71136 -1.23992 0
M  V30 2554 H 242.889 -2.88077 -2.74039 0
M  V30 2555 N 243.887 0.651787 -1.4349 0
M  V30 2556 C 245.115 1.43937 -1.48626 0
M  V30 2557 C 245.53 1.8851 -0.104587 0
M  V30 2558 O 244.887 1.5958 0.885464 0
M  V30 2559 C 244.938 2.6734 -2.43334 0
M  V30 2560 O 244.659 2.24631 -3.76128 0
M  V30 2561 C 246.16 3.60683 -2.57726 0
M  V30 2562 H 243.38 0.44213 -0.504739 0
M  V30 2563 H 245.924 0.798944 -1.88248 0
M  V30 2564 H 244.079 3.2752 -2.06904 0
M  V30 2565 H 244.493 3.04485 -4.2707 0
M  V30 2566 H 245.967 4.43933 -3.28067 0
M  V30 2567 H 246.444 4.08126 -1.62265 0
M  V30 2568 H 247.05 3.06384 -2.94973 0
M  V30 2569 N 245.365 1.30045 0.890287 0
M  V30 2570 C 246.776 1.16738 1.45702 0
M  V30 2571 C 247.127 -0.233939 1.948 0
M  V30 2572 O 246.252 -1.13021 1.84541 0
M  V30 2573 C 246.847 2.11313 2.64825 0
M  V30 2574 C 245.406 2.02001 3.17604 0
M  V30 2575 C 244.553 2.01699 1.90296 0
M  V30 2576 H 247.504 1.42392 0.700726 0
M  V30 2577 H 247.525 1.69086 3.40867 0
M  V30 2578 H 247.037 3.13294 2.2906 0
M  V30 2579 H 245.138 1.03142 3.5804 0
M  V30 2580 H 245.251 2.90128 3.81264 0
M  V30 2581 H 243.615 1.46427 2.08402 0
M  V30 2582 H 244.398 3.05402 1.56795 0
M  V30 2583 N 246.843 -1.10192 1.12674 0
M  V30 2584 C 248.089 -1.82475 0.884915 0
M  V30 2585 C 248.422 -1.85093 -0.58773 0
M  V30 2586 O 247.697 -1.3134 -1.43457 0
M  V30 2587 C 247.98 -3.29018 1.46353 0
M  V30 2588 C 247.833 -3.34718 3.00473 0
M  V30 2589 C 249.152 -4.25473 1.12519 0
M  V30 2590 H 246.271 -0.662492 0.322915 0
M  V30 2591 H 248.913 -1.2913 1.39375 0
M  V30 2592 H 247.063 -3.74576 1.03077 0
M  V30 2593 H 248.735 -2.97622 3.52447 0
M  V30 2594 H 246.978 -2.74541 3.35872 0
M  V30 2595 H 247.649 -4.37918 3.36053 0
M  V30 2596 H 250.125 -3.88161 1.499 0
M  V30 2597 H 249.001 -5.26365 1.55663 0
M  V30 2598 H 249.262 -4.42084 0.0377407 0
M  V30 2599 N 248.321 -0.919034 -1.28029 0
M  V30 2600 C 249.231 -0.416756 -2.30869 0
M  V30 2601 C 250.247 0.498235 -1.66714 0
M  V30 2602 O 251.423 0.383144 -1.97722 0
M  V30 2603 C 248.488 0.330274 -3.45123 0
M  V30 2604 C 247.549 -0.618578 -4.2482 0
M  V30 2605 C 246.782 0.0928959 -5.33619 0
M  V30 2606 O 247.005 1.31375 -5.55065 0
M  V30 2607 O 245.939 -0.574499 -5.99152 0
M  V30 2608 H 249.765 -1.27043 -2.75851 0
M  V30 2609 H 247.35 -0.684052 -1.3282 0
M  V30 2610 H 249.232 0.751972 -4.14636 0
M  V30 2611 H 247.907 1.1597 -3.02213 0
M  V30 2612 H 246.814 -1.08978 -3.57875 0
M  V30 2613 H 248.147 -1.41497 -4.71423 0
M  V30 2614 N 249.799 1.42003 -0.683588 0
M  V30 2615 C 250.762 2.29191 -0.0198243 0
M  V30 2616 C 251.762 1.43773 0.72013 0
M  V30 2617 O 252.952 1.65061 0.556815 0
M  V30 2618 C 250.084 3.26435 0.982487 0
M  V30 2619 H 251.277 2.8938 -0.787345 0
M  V30 2620 H 248.83 1.49789 -0.446418 0
M  V30 2621 H 249.565 2.71203 1.77819 0
M  V30 2622 H 249.35 3.89449 0.455182 0
M  V30 2623 H 250.84 3.918 1.44508 0
M  V30 2624 N 251.277 0.427512 1.51691 0
M  V30 2625 C 252.554 -0.201684 1.94557 0
M  V30 2626 C 252.934 -1.60981 1.36559 0
M  V30 2627 O 252.282 -2.21814 0.548702 0
M  V30 2628 C 252.492 -0.189394 3.48486 0
M  V30 2629 C 253.84 -0.39978 4.22714 0
M  V30 2630 O 254.864 -0.267945 3.55191 0
M  V30 2631 O 253.723 -0.661249 5.42485 0
M  V30 2632 H 250.817 -0.135261 0.815864 0
M  V30 2633 H 253.363 0.484782 1.62628 0
M  V30 2634 H 252.135 0.795431 3.8313 0
M  V30 2635 H 251.758 -0.919187 3.86829 0
M  V30 2636 N 252.755 -1.56801 0.158532 0
M  V30 2637 C 253.983 -2.00859 -0.496303 0
M  V30 2638 C 254.398 -1.03871 -1.57659 0
M  V30 2639 O 253.755 -0.0375165 -1.82461 0
M  V30 2640 C 253.806 -3.4479 -1.08638 0
M  V30 2641 O 253.527 -4.38072 -0.0492322 0
M  V30 2642 C 255.028 -4.04185 -1.8207 0
M  V30 2643 H 252.248 -0.65864 -0.128199 0
M  V30 2644 H 254.792 -2.02885 0.256506 0
M  V30 2645 H 252.947 -3.43579 -1.78975 0
M  V30 2646 H 253.361 -5.2227 -0.483102 0
M  V30 2647 H 254.835 -5.06857 -2.18633 0
M  V30 2648 H 255.312 -3.45549 -2.71095 0
M  V30 2649 H 255.918 -4.0906 -1.16405 0
M  V30 2650 N 254.233 0.115231 -1.57178 0
M  V30 2651 C 255.48 0.822351 -1.8505 0
M  V30 2652 C 255.808 1.79701 -0.744168 0
M  V30 2653 O 255.063 1.93909 0.26414 0
M  V30 2654 C 255.362 1.60324 -3.19423 0
M  V30 2655 C 255.028 0.772536 -4.44233 0
M  V30 2656 C 253.69 0.543468 -4.78121 0
M  V30 2657 C 256.042 0.193746 -5.2084 0
M  V30 2658 C 253.37 -0.274583 -5.86057 0
M  V30 2659 C 255.722 -0.611517 -6.29637 0
M  V30 2660 C 254.386 -0.850867 -6.62055 0
M  V30 2661 H 253.656 0.30092 -0.677147 0
M  V30 2662 H 256.303 0.0845802 -1.91313 0
M  V30 2663 H 254.608 2.41203 -3.08753 0
M  V30 2664 H 256.305 2.1544 -3.38211 0
M  V30 2665 H 252.895 0.96117 -4.17683 0
M  V30 2666 H 257.079 0.357926 -4.95008 0
M  V30 2667 H 252.335 -0.469206 -6.09597 0
M  V30 2668 H 256.509 -1.06697 -6.88178 0
M  V30 2669 H 254.136 -1.48657 -7.45523 0
M  V30 2670 N 255.711 1.52812 0.385517 0
M  V30 2671 C 256.674 1.77188 1.45386 0
M  V30 2672 C 257.674 0.641953 1.4743 0
M  V30 2673 O 258.864 0.910033 1.4854 0
M  V30 2674 C 255.996 1.87582 2.8465 0
M  V30 2675 H 257.189 2.72583 1.25054 0
M  V30 2676 H 254.742 1.43586 0.617467 0
M  V30 2677 H 255.477 0.941849 3.10322 0
M  V30 2678 H 255.262 2.69748 2.84567 0
M  V30 2679 H 256.752 2.08102 3.62054 0
M  V30 2680 N 257.189 -0.644168 1.43834 0
M  V30 2681 C 258.119 -1.76814 1.52509 0
M  V30 2682 C 259.1 -1.65823 0.379052 0
M  V30 2683 O 260.285 -1.84781 0.597466 0
M  V30 2684 C 257.415 -3.15288 1.4564 0
M  V30 2685 C 256.369 -3.41053 2.58586 0
M  V30 2686 C 255.695 -4.79421 2.36769 0
M  V30 2687 C 256.995 -3.34902 4.00797 0
M  V30 2688 H 258.689 -1.69812 2.46586 0
M  V30 2689 H 256.235 -0.815542 1.1868 0
M  V30 2690 H 258.188 -3.93681 1.50311 0
M  V30 2691 H 256.912 -3.23043 0.480725 0
M  V30 2692 H 255.571 -2.65035 2.53282 0
M  V30 2693 H 255.219 -4.83863 1.37424 0
M  V30 2694 H 254.919 -4.9762 3.12487 0
M  V30 2695 H 256.443 -5.6006 2.43238 0
M  V30 2696 H 257.857 -4.03218 4.07539 0
M  V30 2697 H 256.254 -3.64637 4.76613 0
M  V30 2698 H 257.324 -2.32928 4.25291 0
M  V30 2699 N 258.668 -1.30515 -0.883378 0
M  V30 2700 C 259.898 -1.22182 -1.66599 0
M  V30 2701 C 260.306 0.217507 -1.87946 0
M  V30 2702 O 259.649 1.1554 -1.42815 0
M  V30 2703 C 259.711 -1.88146 -3.06335 0
M  V30 2704 C 259.375 -3.37476 -3.08154 0
M  V30 2705 C 260.372 -4.33443 -2.87094 0
M  V30 2706 C 258.057 -3.7895 -3.29701 0
M  V30 2707 C 260.051 -5.68858 -2.8754 0
M  V30 2708 C 257.738 -5.14482 -3.29776 0
M  V30 2709 C 258.736 -6.09246 -3.0872 0
M  V30 2710 O 258.424 -7.42302 -3.08615 0
M  V30 2711 H 258.156 -0.423898 -0.52658 0
M  V30 2712 H 260.71 -1.72703 -1.11188 0
M  V30 2713 H 258.94 -1.32157 -3.63416 0
M  V30 2714 H 260.629 -1.7391 -3.66756 0
M  V30 2715 H 261.395 -4.02733 -2.70243 0
M  V30 2716 H 257.274 -3.05631 -3.45124 0
M  V30 2717 H 260.818 -6.428 -2.71024 0
M  V30 2718 H 256.715 -5.44832 -3.46163 0
M  V30 2719 H 257.483 -7.5131 -3.24769 0
M  V30 2720 N 260.146 1.09593 -1.13257 0
M  V30 2721 C 261.109 2.14359 -0.811358 0
M  V30 2722 C 262.109 1.59808 0.178377 0
M  V30 2723 O 263.299 1.74132 -0.0484911 0
M  V30 2724 C 260.431 3.40269 -0.207276 0
M  V30 2725 H 261.624 2.44284 -1.73969 0
M  V30 2726 H 259.177 1.25102 -0.936973 0
M  V30 2727 H 259.912 3.15969 0.73036 0
M  V30 2728 H 259.697 3.81154 -0.919992 0
M  V30 2729 H 261.187 4.176 0.000667944 0
M  V30 2730 N 261.624 0.925811 1.2754 0
M  V30 2731 C 262.554 0.440748 2.29303 0
M  V30 2732 C 263.535 -0.497971 1.62648 0
M  V30 2733 O 264.72 -0.403126 1.8997 0
M  V30 2734 C 261.85 -0.309048 3.45922 0
M  V30 2735 C 260.804 0.54166 4.24559 0
M  V30 2736 C 260.13 -0.337191 5.33636 0
M  V30 2737 C 261.43 1.80516 4.90114 0
M  V30 2738 H 263.124 1.29121 2.70126 0
M  V30 2739 H 260.67 0.622323 1.29858 0
M  V30 2740 H 262.623 -0.659315 4.1621 0
M  V30 2741 H 261.347 -1.19352 3.04011 0
M  V30 2742 H 260.006 0.874609 3.56014 0
M  V30 2743 H 259.654 -1.22056 4.87966 0
M  V30 2744 H 259.354 0.228497 5.87156 0
M  V30 2745 H 260.878 -0.683072 6.06767 0
M  V30 2746 H 262.292 1.52307 5.52698 0
M  V30 2747 H 260.689 2.3142 5.53683 0
M  V30 2748 H 261.759 2.52581 4.13921 0
M  V30 2749 N 263.102 -1.41638 0.69111 0
M  V30 2750 C 264.33 -2.05628 0.22909 0
M  V30 2751 C 264.745 -1.51992 -1.11999 0
M  V30 2752 O 264.102 -0.666322 -1.69901 0
M  V30 2753 C 264.153 -3.61084 0.173283 0
M  V30 2754 O 263.874 -4.12735 1.46907 0
M  V30 2755 C 265.375 -4.42213 -0.310266 0
M  V30 2756 H 262.595 -0.662327 0.107534 0
M  V30 2757 H 265.139 -1.81489 0.942438 0
M  V30 2758 H 263.294 -3.84278 -0.490858 0
M  V30 2759 H 263.708 -5.06743 1.35322 0
M  V30 2760 H 265.182 -5.51194 -0.298196 0
M  V30 2761 H 265.659 -4.1799 -1.34838 0
M  V30 2762 H 266.265 -4.24074 0.322716 0
M  V30 2763 N 264.58 -0.43555 -1.51462 0
M  V30 2764 C 265.49 0.383001 -2.31453 0
M  V30 2765 C 266.506 1.02931 -1.4029 0
M  V30 2766 O 267.682 1.02507 -1.73362 0
M  V30 2767 C 264.747 1.47043 -3.13973 0
M  V30 2768 C 263.808 0.844433 -4.20913 0
M  V30 2769 C 263.041 1.88004 -4.9949 0
M  V30 2770 O 263.264 3.10199 -4.78678 0
M  V30 2771 O 262.198 1.47157 -5.83634 0
M  V30 2772 H 266.024 -0.269964 -3.02498 0
M  V30 2773 H 263.609 -0.19813 -1.4808 0
M  V30 2774 H 265.491 2.10113 -3.65281 0
M  V30 2775 H 264.166 2.10751 -2.45695 0
M  V30 2776 H 263.073 0.175729 -3.73687 0
M  V30 2777 H 264.406 0.250869 -4.9156 0
M  V30 2778 N 266.058 1.56714 -0.166846 0
M  V30 2779 C 267.021 2.16539 0.751232 0
M  V30 2780 C 268.021 1.11228 1.16125 0
M  V30 2781 O 269.211 1.36765 1.07894 0
M  V30 2782 C 266.343 2.74462 2.02196 0
M  V30 2783 H 267.536 2.99013 0.230499 0
M  V30 2784 H 265.089 1.56081 0.0826982 0
M  V30 2785 H 265.824 1.95709 2.58589 0
M  V30 2786 H 265.609 3.51527 1.73698 0
M  V30 2787 H 267.099 3.20489 2.67725 0
M  V30 2788 N 267.536 -0.106894 1.57237 0
M  V30 2789 C 268.468 -1.15646 1.97885 0
M  V30 2790 C 269.481 -1.36981 0.879779 0
M  V30 2791 O 270.67 -1.35841 1.15799 0
M  V30 2792 C 267.77 -2.51425 2.27241 0
M  V30 2793 C 266.943 -2.50529 3.58545 0
M  V30 2794 C 266.002 -3.68145 3.75973 0
M  V30 2795 O 265.028 -3.51176 4.47956 0
M  V30 2796 N 266.23 -4.87177 3.15656 0
M  V30 2797 H 268.995 -0.81059 2.8853 0
M  V30 2798 H 266.556 -0.296024 1.59171 0
M  V30 2799 H 268.548 -3.28689 2.36105 0
M  V30 2800 H 267.118 -2.78147 1.42663 0
M  V30 2801 H 266.338 -1.58894 3.60758 0
M  V30 2802 H 267.626 -2.46997 4.44826 0
M  V30 2803 H 267.024 -5.03868 2.57165 0
M  V30 2804 H 265.581 -5.62075 3.30023 0
M  V30 2805 N 269.014 -1.53014 -0.377408 0
M  V30 2806 C 269.977 -1.77957 -1.44444 0
M  V30 2807 C 270.977 -0.649763 -1.47087 0
M  V30 2808 O 272.167 -0.917897 -1.48055 0
M  V30 2809 C 269.299 -1.89089 -2.83651 0
M  V30 2810 H 270.492 -2.73243 -1.23606 0
M  V30 2811 H 268.045 -1.43912 -0.609844 0
M  V30 2812 H 268.78 -0.958293 -3.09818 0
M  V30 2813 H 268.565 -2.71254 -2.83132 0
M  V30 2814 H 270.055 -2.1002 -3.60945 0
M  V30 2815 N 270.492 0.636531 -1.44174 0
M  V30 2816 C 271.74 1.39343 -1.46383 0
M  V30 2817 C 272.061 1.94766 -0.0955715 0
M  V30 2818 O 271.331 1.75452 0.871395 0
M  V30 2819 H 269.911 0.517199 -0.538994 0
M  V30 2820 H 272.573 0.74957 -1.7991 0
M  V30 2821 H 271.669 2.22746 -2.18611 0
M  V30 2822 N 271.97 1.30982 0.876444 0
M  V30 2823 C 273.386 1.09498 1.16113 0
M  V30 2824 C 273.586 -0.13875 2.01022 0
M  V30 2825 O 272.642 -0.829935 2.38471 0
M  V30 2826 C 273.955 2.36308 1.85954 0
M  V30 2827 C 275.503 2.41856 1.98683 0
M  V30 2828 C 275.978 3.6853 2.71937 0
M  V30 2829 N 277.469 3.69387 2.79477 0
M  V30 2830 C 278.204 4.64096 3.36753 0
M  V30 2831 N 277.7 5.69155 3.95012 0
M  V30 2832 N 279.493 4.51626 3.3465 0
M  V30 2833 H 271.644 2.10118 0.310494 0
M  V30 2834 H 273.907 0.926634 0.200131 0
M  V30 2835 H 273.613 3.26388 1.31011 0
M  V30 2836 H 273.487 2.4561 2.86278 0
M  V30 2837 H 275.874 1.52249 2.52793 0
M  V30 2838 H 275.955 2.36523 0.9742 0
M  V30 2839 H 275.599 4.58499 2.18496 0
M  V30 2840 H 275.529 3.71127 3.73593 0
M  V30 2841 H 278.02 2.93438 2.38123 0
M  V30 2842 H 278.333 6.3751 4.36808 0
M  V30 2843 H 276.678 5.72937 3.93406 0
M  V30 2844 H 279.869 3.68728 2.8837 0
M  V30 2845 H 280.042 5.25614 3.7899 0
M  V30 2846 N 273.449 -1.08991 1.13837 0
M  V30 2847 C 274.674 -1.85551 0.926585 0
M  V30 2848 C 275.099 -1.80782 -0.519566 0
M  V30 2849 O 274.457 -1.18855 -1.36906 0
M  V30 2850 C 274.505 -3.31266 1.42462 0
M  V30 2851 O 273.609 -4.07822 0.612789 0
M  V30 2852 H 272.95 -0.575192 0.331738 0
M  V30 2853 H 275.48 -1.37604 1.51414 0
M  V30 2854 H 275.49 -3.82112 1.43019 0
M  V30 2855 H 274.165 -3.34052 2.47754 0
M  V30 2856 H 272.742 -3.66731 0.675463 0
M  V30 2857 N 274.927 -0.932562 -1.27047 0
M  V30 2858 C 276.175 -0.574422 -1.93765 0
M  V30 2859 C 276.496 0.887993 -1.73608 0
M  V30 2860 O 275.766 1.62999 -1.08665 0
M  V30 2861 H 274.346 -0.209451 -0.717035 0
M  V30 2862 H 277.008 -1.18601 -1.5466 0
M  V30 2863 H 276.104 -0.784841 -3.02071 0
M  V30 2864 N 276.405 1.4127 -0.698611 0
M  V30 2865 C 277.821 1.55241 -0.370462 0
M  V30 2866 C 278.021 1.67351 1.12231 0
M  V30 2867 O 277.077 1.65363 1.90818 0
M  V30 2868 C 278.39 2.78997 -1.12165 0
M  V30 2869 C 279.938 2.92797 -1.1063 0
M  V30 2870 C 280.413 4.19445 -1.8393 0
M  V30 2871 N 281.904 4.26409 -1.80914 0
M  V30 2872 C 282.639 5.23271 -2.34467 0
M  V30 2873 N 282.135 6.26145 -2.96504 0
M  V30 2874 N 283.928 5.15232 -2.24706 0
M  V30 2875 H 276.079 1.31654 -1.66676 0
M  V30 2876 H 278.342 0.635393 -0.703548 0
M  V30 2877 H 278.048 2.76268 -2.17644 0
M  V30 2878 H 277.922 3.70606 -0.702209 0
M  V30 2879 H 280.309 2.95039 -0.0597713 0
M  V30 2880 H 280.39 2.02353 -1.56483 0
M  V30 2881 H 280.034 4.17964 -2.88563 0
M  V30 2882 H 279.964 5.08866 -1.35509 0
M  V30 2883 H 282.455 3.527 -1.35687 0
M  V30 2884 H 282.768 6.96451 -3.34927 0
M  V30 2885 H 281.113 6.26638 -3.00583 0
M  V30 2886 H 284.304 4.33789 -1.7591 0
M  V30 2887 H 284.477 5.90552 -2.66745 0
M  V30 2888 N 277.883 0.443576 1.51229 0
M  V30 2889 C 278.846 -0.353132 2.26463 0
M  V30 2890 C 279.846 -0.944338 1.3015 0
M  V30 2891 O 281.036 -0.817813 1.5381 0
M  V30 2892 C 278.168 -1.50023 3.06114 0
M  V30 2893 H 279.361 0.3063 2.98332 0
M  V30 2894 H 276.914 0.196902 1.55055 0
M  V30 2895 H 277.649 -2.19553 2.38677 0
M  V30 2896 H 277.434 -1.08241 3.76864 0
M  V30 2897 H 278.924 -2.06296 3.63087 0
M  V30 2898 N 279.361 -1.56624 0.175154 0
M  V30 2899 C 280.308 -2.18149 -0.753634 0
M  V30 2900 C 281.278 -1.12265 -1.22417 0
M  V30 2901 O 282.463 -1.40432 -1.29165 0
M  V30 2902 C 279.603 -2.82933 -1.97592 0
M  V30 2903 C 278.716 -4.03289 -1.5486 0
M  V30 2904 C 277.851 -4.55988 -2.72485 0
M  V30 2905 C 276.89 -5.68746 -2.26262 0
M  V30 2906 N 276.027 -6.15938 -3.36994 0
M  V30 2907 H 280.867 -2.9717 -0.222195 0
M  V30 2908 H 278.404 -1.46774 -0.0979422 0
M  V30 2909 H 280.362 -3.18653 -2.69288 0
M  V30 2910 H 278.992 -2.06509 -2.481 0
M  V30 2911 H 278.044 -3.73364 -0.728246 0
M  V30 2912 H 279.356 -4.849 -1.16933 0
M  V30 2913 H 278.51 -4.9391 -3.52332 0
M  V30 2914 H 277.249 -3.73443 -3.13674 0
M  V30 2915 H 276.254 -5.30372 -1.44863 0
M  V30 2916 H 277.479 -6.53095 -1.86127 0
M  V30 2917 H 275.425 -5.36321 -3.77751 0
M  V30 2918 H 275.342 -6.92548 -3.03172 0
M  V30 2919 H 276.61 -6.58511 -4.17114 0
M  V30 2920 N 280.839 0.0985539 -1.57292 0
M  V30 2921 C 281.802 1.10402 -2.00858 0
M  V30 2922 C 282.802 1.33146 -0.901593 0
M  V30 2923 O 283.992 1.29318 -1.16716 0
M  V30 2924 C 281.124 2.45394 -2.36632 0
M  V30 2925 H 282.317 0.729099 -2.90902 0
M  V30 2926 H 279.87 0.343495 -1.52479 0
M  V30 2927 H 280.605 2.87769 -1.49531 0
M  V30 2928 H 280.39 2.30235 -3.17387 0
M  V30 2929 H 281.88 3.17718 -2.71007 0
M  V30 2930 N 282.317 1.53212 0.369288 0
M  V30 2931 C 283.563 1.69466 1.11397 0
M  V30 2932 C 283.896 0.443257 1.89074 0
M  V30 2933 O 283.171 -0.559386 1.86282 0
M  V30 2934 C 283.454 2.9422 2.07621 0
M  V30 2935 C 283.307 4.29508 1.33577 0
M  V30 2936 C 284.626 3.14565 3.07794 0
M  V30 2937 H 281.745 0.616667 0.403597 0
M  V30 2938 H 284.387 1.85845 0.395179 0
M  V30 2939 H 282.537 2.80387 2.68916 0
M  V30 2940 H 284.209 4.55147 0.750955 0
M  V30 2941 H 282.452 4.29088 0.637618 0
M  V30 2942 H 283.123 5.12926 2.03989 0
M  V30 2943 H 285.599 3.2756 2.56601 0
M  V30 2944 H 284.475 4.03297 3.72348 0
M  V30 2945 H 284.736 2.29675 3.77759 0
M  V30 2946 N 283.795 -0.628877 1.44509 0
M  V30 2947 C 284.758 -1.72263 1.51188 0
M  V30 2948 C 285.758 -1.55907 0.39367 0
M  V30 2949 O 286.948 -1.61361 0.656377 0
M  V30 2950 C 284.08 -3.11365 1.38798 0
M  V30 2951 H 285.273 -1.67714 2.4862 0
M  V30 2952 H 282.826 -0.842737 1.31634 0
M  V30 2953 H 283.561 -3.21507 0.424693 0
M  V30 2954 H 283.346 -3.24644 2.19884 0
M  V30 2955 H 284.836 -3.91075 1.46458 0
M  V30 2956 N 285.273 -1.31445 -0.869486 0
M  V30 2957 C 286.689 -1.10113 -1.15531 0
M  V30 2958 C 286.889 0.128087 -2.01092 0
M  V30 2959 O 285.945 0.817276 -2.38908 0
M  V30 2960 C 287.258 -2.37291 -1.84698 0
M  V30 2961 C 288.806 -2.42906 -1.97397 0
M  V30 2962 C 289.281 -3.69967 -2.69979 0
M  V30 2963 N 290.772 -3.70864 -2.77514 0
M  V30 2964 C 291.507 -4.65875 -3.34287 0
M  V30 2965 N 291.003 -5.71242 -3.91988 0
M  V30 2966 N 292.796 -4.53394 -3.3225 0
M  V30 2967 H 284.947 -2.1028 -0.299347 0
M  V30 2968 H 287.21 -0.927683 -0.195214 0
M  V30 2969 H 286.916 -3.27078 -1.29278 0
M  V30 2970 H 286.79 -2.47125 -2.84972 0
M  V30 2971 H 289.177 -1.53588 -2.51982 0
M  V30 2972 H 289.258 -2.37036 -0.961643 0
M  V30 2973 H 288.902 -4.59652 -2.16062 0
M  V30 2974 H 288.832 -3.73103 -3.7162 0
M  V30 2975 H 291.323 -2.94697 -2.36563 0
M  V30 2976 H 291.636 -6.39817 -4.33421 0
M  V30 2977 H 289.981 -5.75015 -3.90362 0
M  V30 2978 H 293.172 -3.70252 -2.8641 0
M  V30 2979 H 293.345 -5.27617 -3.76197 0
M  V30 2980 N 286.751 1.08385 -1.14413 0
M  V30 2981 C 287.681 2.17321 -0.854044 0
M  V30 2982 C 288.662 1.69024 0.191049 0
M  V30 2983 O 289.847 1.94141 0.0476779 0
M  V30 2984 C 286.977 3.45719 -0.330983 0
M  V30 2985 C 285.931 4.07409 -1.31155 0
M  V30 2986 C 285.257 5.30762 -0.64778 0
M  V30 2987 C 286.557 4.48665 -2.67388 0
M  V30 2988 H 288.251 2.41845 -1.76498 0
M  V30 2989 H 285.797 1.16233 -0.850051 0
M  V30 2990 H 287.75 4.21241 -0.115645 0
M  V30 2991 H 286.474 3.2075 0.615381 0
M  V30 2992 H 285.133 3.33919 -1.51306 0
M  V30 2993 H 284.781 5.02078 0.304398 0
M  V30 2994 H 284.481 5.72992 -1.30207 0
M  V30 2995 H 286.005 6.08998 -0.441972 0
M  V30 2996 H 287.419 5.15364 -2.51143 0
M  V30 2997 H 285.816 5.01814 -3.29093 0
M  V30 2998 H 286.886 3.60543 -3.24248 0
M  V30 2999 N 288.23 0.939286 1.26551 0
M  V30 3000 C 289.455 0.602008 1.98471 0
M  V30 3001 C 289.88 -0.815624 1.69497 0
M  V30 3002 O 289.238 -1.54912 0.941905 0
M  V30 3003 C 289.286 0.848407 3.50477 0
M  V30 3004 O 288.39 -0.0804009 4.12322 0
M  V30 3005 H 287.731 0.23049 0.622712 0
M  V30 3006 H 290.261 1.2617 1.61066 0
M  V30 3007 H 290.271 0.768553 4.00696 0
M  V30 3008 H 288.946 1.88171 3.70897 0
M  V30 3009 H 287.523 0.0503508 3.72866 0
M  V30 3010 N 289.708 -1.40897 0.706093 0
M  V30 3011 C 290.985 -1.94868 0.169099 0
M  V30 3012 C 291.365 -1.64485 -1.32318 0
M  V30 3013 O 290.713 -0.95744 -2.07474 0
M  V30 3014 C 290.923 -3.45798 0.471654 0
M  V30 3015 C 292.271 -4.22663 0.405127 0
M  V30 3016 O 293.295 -3.53865 0.407168 0
M  V30 3017 O 292.154 -5.45216 0.374383 0
M  V30 3018 H 289.248 -0.82673 0.0211352 0
M  V30 3019 H 291.794 -1.50558 0.782976 0
M  V30 3020 H 290.566 -3.61235 1.50416 0
M  V30 3021 H 290.189 -3.97225 -0.172666 0
M  V30 3022 N 291.186 -0.45159 -1.50991 0
M  V30 3023 C 292.116 0.342898 -2.30969 0
M  V30 3024 C 293.097 1.00815 -1.37005 0
M  V30 3025 O 294.282 1.00907 -1.65926 0
M  V30 3026 C 291.412 1.43637 -3.16205 0
M  V30 3027 C 290.366 0.893818 -4.18563 0
M  V30 3028 C 289.692 2.08411 -4.92411 0
M  V30 3029 C 290.992 -0.0815568 -5.22236 0
M  V30 3030 H 292.686 -0.324556 -2.97636 0
M  V30 3031 H 290.232 -0.157531 -1.43136 0
M  V30 3032 H 292.185 1.9995 -3.70942 0
M  V30 3033 H 290.909 2.13232 -2.47386 0
M  V30 3034 H 289.568 0.352798 -3.64898 0
M  V30 3035 H 289.216 2.76658 -4.20082 0
M  V30 3036 H 288.916 1.72741 -5.61636 0
M  V30 3037 H 290.44 2.65251 -5.49976 0
M  V30 3038 H 291.854 0.391742 -5.7196 0
M  V30 3039 H 290.251 -0.351551 -5.99069 0
M  V30 3040 H 291.321 -1.01374 -4.74185 0
M  V30 3041 N 292.664 1.56529 -0.183458 0
M  V30 3042 C 293.594 2.21549 0.737456 0
M  V30 3043 C 294.575 1.17489 1.23005 0
M  V30 3044 O 295.76 1.45959 1.281 0
M  V30 3045 C 292.89 2.86575 1.96194 0
M  V30 3046 C 291.844 3.96778 1.60473 0
M  V30 3047 C 291.17 4.48911 2.90487 0
M  V30 3048 C 292.47 5.15767 0.823497 0
M  V30 3049 H 294.164 2.98761 0.195453 0
M  V30 3050 H 291.71 1.43702 0.0925686 0
M  V30 3051 H 293.663 3.30739 2.61131 0
M  V30 3052 H 292.387 2.06749 2.52828 0
M  V30 3053 H 291.046 3.53286 0.978997 0
M  V30 3054 H 290.694 3.65862 3.45186 0
M  V30 3055 H 290.394 5.23265 2.67335 0
M  V30 3056 H 291.918 4.95771 3.56432 0
M  V30 3057 H 293.332 5.56549 1.37571 0
M  V30 3058 H 291.729 5.96114 0.690551 0
M  V30 3059 H 292.799 4.84574 -0.177782 0
M  V30 3060 N 294.142 -0.090211 1.57342 0
M  V30 3061 C 295.367 -0.810082 1.90925 0
M  V30 3062 C 295.792 -1.71248 0.778187 0
M  V30 3063 O 295.15 -1.79278 -0.269991 0
M  V30 3064 C 295.198 -1.59529 3.23393 0
M  V30 3065 O 294.302 -2.70461 3.11327 0
M  V30 3066 H 293.643 -0.222231 0.625707 0
M  V30 3067 H 296.173 -0.0639716 2.045 0
M  V30 3068 H 296.183 -1.97847 3.5682 0
M  V30 3069 H 294.858 -0.933055 4.05299 0
M  V30 3070 H 293.435 -2.35135 2.89423 0
M  V30 3071 N 295.62 -1.53406 -0.361157 0
M  V30 3072 C 296.848 -1.73717 -1.12383 0
M  V30 3073 C 297.263 -0.468161 -1.82904 0
M  V30 3074 O 296.62 0.559198 -1.73722 0
M  V30 3075 C 296.671 -2.90558 -2.15078 0
M  V30 3076 O 296.392 -4.12549 -1.47428 0
M  V30 3077 C 297.893 -3.22777 -3.03858 0
M  V30 3078 H 295.113 -0.580896 -0.335858 0
M  V30 3079 H 297.657 -2.00167 -0.418728 0
M  V30 3080 H 295.812 -2.66489 -2.8118 0
M  V30 3081 H 296.226 -4.78009 -2.15887 0
M  V30 3082 H 297.7 -4.07927 -3.71887 0
M  V30 3083 H 298.177 -2.38329 -3.68912 0
M  V30 3084 H 298.783 -3.48787 -2.43367 0
M  V30 3085 N 297.098 0.621204 -1.44841 0
M  V30 3086 C 298.375 1.38 -1.38619 0
M  V30 3087 C 298.755 2.11041 -0.0498935 0
M  V30 3088 O 298.103 2.06992 0.967816 0
M  V30 3089 C 298.313 2.33817 -2.59096 0
M  V30 3090 C 299.661 2.96844 -3.03593 0
M  V30 3091 O 300.685 2.44141 -2.59371 0
M  V30 3092 O 299.544 3.92476 -3.80296 0
M  V30 3093 H 296.638 0.61811 -0.549426 0
M  V30 3094 H 299.184 0.645429 -1.56947 0
M  V30 3095 H 297.956 1.79012 -3.47952 0
M  V30 3096 H 297.579 3.14676 -2.43032 0
M  V30 3097 N 298.576 1.31904 0.862503 0
M  V30 3098 C 299.987 1.19803 1.43193 0
M  V30 3099 C 300.338 -0.192567 1.95253 0
M  V30 3100 O 299.463 -1.09081 1.86896 0
M  V30 3101 C 300.058 2.16883 2.60283 0
M  V30 3102 C 298.617 2.08692 3.13248 0
M  V30 3103 C 297.764 2.05691 1.85975 0
M  V30 3104 H 300.715 1.43846 0.670365 0
M  V30 3105 H 300.736 1.76278 3.37204 0
M  V30 3106 H 300.248 3.18083 2.22363 0
M  V30 3107 H 298.349 1.10713 3.55771 0
M  V30 3108 H 298.462 2.9815 3.75025 0
M  V30 3109 H 296.826 1.50814 2.05249 0
M  V30 3110 H 297.609 3.08659 1.50282 0
M  V30 3111 N 300.054 -1.07777 1.14986 0
M  V30 3112 C 300.984 -2.16865 0.865557 0
M  V30 3113 C 301.965 -1.69123 -0.182083 0
M  V30 3114 O 303.15 -1.94164 -0.0373815 0
M  V30 3115 C 300.28 -3.45539 0.349313 0
M  V30 3116 C 299.234 -4.06708 1.33313 0
M  V30 3117 C 298.56 -5.30411 0.675918 0
M  V30 3118 C 299.86 -4.47241 2.69764 0
M  V30 3119 H 301.554 -2.40905 1.77778 0
M  V30 3120 H 299.1 -1.15781 0.856203 0
M  V30 3121 H 301.053 -4.21174 0.137983 0
M  V30 3122 H 299.777 -3.21072 -0.598362 0
M  V30 3123 H 298.436 -3.33112 1.53075 0
M  V30 3124 H 298.084 -5.02232 -0.277767 0
M  V30 3125 H 297.784 -5.72293 1.33244 0
M  V30 3126 H 299.308 -6.08755 0.474262 0
M  V30 3127 H 300.722 -5.14025 2.53873 0
M  V30 3128 H 299.119 -5.00062 3.3175 0
M  V30 3129 H 300.189 -3.58818 3.26156 0
M  V30 3130 N 301.532 -0.945985 -1.26051 0
M  V30 3131 C 302.78 -0.594941 -1.93145 0
M  V30 3132 C 303.101 0.86953 -1.7454 0
M  V30 3133 O 302.371 1.61838 -1.10387 0
M  V30 3134 H 300.951 -0.217044 -0.714773 0
M  V30 3135 H 303.613 -1.20235 -1.53393 0
M  V30 3136 H 302.709 -0.816835 -3.01221 0
M  V30 3137 N 303.011 1.40521 -0.713556 0
M  V30 3138 C 304.427 1.54839 -0.386907 0
M  V30 3139 C 304.627 1.68532 1.1045 0
M  V30 3140 O 303.683 1.67377 1.89053 0
M  V30 3141 C 304.996 2.77792 -1.15118 0
M  V30 3142 C 306.544 2.91607 -1.13729 0
M  V30 3143 C 307.019 4.1747 -1.88368 0
M  V30 3144 N 308.51 4.24466 -1.85427 0
M  V30 3145 C 309.245 5.20755 -2.40004 0
M  V30 3146 N 308.741 6.22965 -3.03129 0
M  V30 3147 N 310.534 5.1282 -2.30158 0
M  V30 3148 H 302.685 1.29879 -1.68063 0
M  V30 3149 H 304.948 0.627896 -0.710247 0
M  V30 3150 H 304.654 2.73944 -2.20561 0
M  V30 3151 H 304.528 3.6984 -0.741477 0
M  V30 3152 H 306.915 2.94959 -0.0910608 0
M  V30 3153 H 306.996 2.00682 -1.5862 0
M  V30 3154 H 306.64 4.1488 -2.9298 0
M  V30 3155 H 306.57 5.074 -1.40898 0
M  V30 3156 H 309.061 3.51241 -1.3942 0
M  V30 3157 H 309.374 6.92859 -3.42295 0
M  V30 3158 H 307.719 6.23415 -3.07212 0
M  V30 3159 H 310.91 4.31899 -1.80501 0
M  V30 3160 H 311.083 5.87689 -2.72993 0
M  V30 3161 N 304.489 0.459591 1.5075 0
M  V30 3162 C 305.419 -0.330644 2.31147 0
M  V30 3163 C 306.4 -1.00087 1.37538 0
M  V30 3164 O 307.585 -1.00025 1.66459 0
M  V30 3165 C 304.715 -1.41958 3.16962 0
M  V30 3166 C 303.669 -0.871608 4.19031 0
M  V30 3167 C 302.995 -2.05797 4.9351 0
M  V30 3168 C 304.295 0.109251 5.22186 0
M  V30 3169 H 305.989 0.340336 2.97459 0
M  V30 3170 H 303.535 0.165119 1.4305 0
M  V30 3171 H 305.488 -1.9798 3.71997 0
M  V30 3172 H 304.212 -2.11917 2.48513 0
M  V30 3173 H 302.871 -0.333442 3.6508 0
M  V30 3174 H 302.519 -2.74427 4.21544 0
M  V30 3175 H 302.219 -1.6976 5.62544 0
M  V30 3176 H 303.743 -2.62331 5.51375 0
M  V30 3177 H 305.157 -0.361405 5.7216 0
M  V30 3178 H 303.554 0.383316 5.98875 0
M  V30 3179 H 304.624 1.03887 4.73641 0
M  V30 3180 N 305.967 -1.56429 0.191757 0
M  V30 3181 C 307.195 -2.01867 -0.453586 0
M  V30 3182 C 307.61 -1.07191 -1.5542 0
M  V30 3183 O 306.967 -0.0762108 -1.82341 0
M  V30 3184 C 307.018 -3.47017 -1.013 0
M  V30 3185 O 306.739 -4.38078 0.0437005 0
M  V30 3186 C 308.24 -4.07956 -1.73456 0
M  V30 3187 H 305.46 -0.661211 -0.114199 0
M  V30 3188 H 308.004 -2.02295 0.299483 0
M  V30 3189 H 306.159 -3.47298 -1.71647 0
M  V30 3190 H 306.573 -5.23178 -0.372212 0
M  V30 3191 H 308.047 -5.1138 -2.07833 0
M  V30 3192 H 308.524 -3.51222 -2.63704 0
M  V30 3193 H 309.13 -4.11437 -1.07702 0
M  V30 3194 N 307.445 0.0818655 -1.57387 0
M  V30 3195 C 308.355 1.11642 -2.06333 0
M  V30 3196 C 309.371 1.43033 -0.99083 0
M  V30 3197 O 310.547 1.53411 -1.30488 0
M  V30 3198 C 307.612 2.41342 -2.48907 0
M  V30 3199 C 306.673 2.17014 -3.7041 0
M  V30 3200 C 305.906 3.4053 -4.10944 0
M  V30 3201 O 306.129 4.4927 -3.51444 0
M  V30 3202 O 305.063 3.29336 -5.03807 0
M  V30 3203 H 308.889 0.730657 -2.9478 0
M  V30 3204 H 306.474 0.295301 -1.46452 0
M  V30 3205 H 308.356 3.17691 -2.76858 0
M  V30 3206 H 307.031 2.79319 -1.63593 0
M  V30 3207 H 305.938 1.38403 -3.47556 0
M  V30 3208 H 307.271 1.83923 -4.56545 0
M  V30 3209 N 308.923 1.53595 0.353017 0
M  V30 3210 C 310.169 1.70638 1.09593 0
M  V30 3211 C 310.502 0.463286 1.88593 0
M  V30 3212 O 309.777 -0.539597 1.86865 0
M  V30 3213 C 310.06 2.96406 2.04489 0
M  V30 3214 C 309.913 4.30901 1.29014 0
M  V30 3215 C 311.232 3.17812 3.0444 0
M  V30 3216 H 308.351 0.620913 0.397034 0
M  V30 3217 H 310.993 1.86254 0.375446 0
M  V30 3218 H 309.143 2.83223 2.65927 0
M  V30 3219 H 310.815 4.55917 0.702638 0
M  V30 3220 H 309.058 4.29741 0.592071 0
M  V30 3221 H 309.729 5.1506 1.98537 0
M  V30 3222 H 312.205 3.30263 2.53112 0
M  V30 3223 H 311.081 4.07223 3.6805 0
M  V30 3224 H 311.342 2.33669 3.75301 0
M  V30 3225 N 310.401 -0.613514 1.45168 0
M  V30 3226 C 311.311 -1.75296 1.55912 0
M  V30 3227 C 312.327 -1.68244 0.443856 0
M  V30 3228 O 313.503 -1.88706 0.70371 0
M  V30 3229 C 310.568 -3.1174 1.5172 0
M  V30 3230 C 309.629 -3.30291 2.74238 0
M  V30 3231 C 308.862 -4.60226 2.70236 0
M  V30 3232 O 309.085 -5.42168 1.77229 0
M  V30 3233 O 308.019 -4.81361 3.61352 0
M  V30 3234 H 311.845 -1.69183 2.52212 0
M  V30 3235 H 309.43 -0.776886 1.27612 0
M  V30 3236 H 311.312 -3.93044 1.51968 0
M  V30 3237 H 309.987 -3.18357 0.585697 0
M  V30 3238 H 308.894 -2.48598 2.79553 0
M  V30 3239 H 310.227 -3.28547 3.66494 0
M  V30 3240 N 311.879 -1.3236 -0.855495 0
M  V30 3241 C 312.789 -1.23221 -1.99634 0
M  V30 3242 C 313.805 -0.145983 -1.73387 0
M  V30 3243 O 314.981 -0.366502 -1.98037 0
M  V30 3244 C 312.046 -0.954782 -3.33294 0
M  V30 3245 C 311.107 -2.12937 -3.72769 0
M  V30 3246 C 310.34 -1.86508 -5.00051 0
M  V30 3247 O 310.563 -0.807231 -5.64659 0
M  V30 3248 O 309.497 -2.72591 -5.36636 0
M  V30 3249 H 313.323 -2.19126 -2.1028 0
M  V30 3250 H 310.908 -1.12241 -0.986018 0
M  V30 3251 H 312.79 -0.816519 -4.13414 0
M  V30 3252 H 311.465 -0.0258854 -3.2369 0
M  V30 3253 H 310.372 -2.3231 -2.93228 0
M  V30 3254 H 311.705 -3.04102 -3.87018 0
M  V30 3255 N 313.357 1.07166 -1.15556 0
M  V30 3256 C 314.287 2.16403 -0.877046 0
M  V30 3257 C 315.268 1.69217 0.173111 0
M  V30 3258 O 316.453 1.94181 0.027084 0
M  V30 3259 C 313.583 3.45349 -0.367632 0
M  V30 3260 C 312.537 4.05995 -1.35468 0
M  V30 3261 C 311.863 5.30045 -0.704038 0
M  V30 3262 C 313.163 4.45804 -2.72132 0
M  V30 3263 H 314.857 2.39959 -1.79053 0
M  V30 3264 H 312.403 1.15325 -0.862331 0
M  V30 3265 H 314.356 4.21095 -0.160317 0
M  V30 3266 H 313.08 3.21385 0.581326 0
M  V30 3267 H 311.739 3.32296 -1.54839 0
M  V30 3268 H 311.387 5.02373 0.251128 0
M  V30 3269 H 311.087 5.71579 -1.36277 0
M  V30 3270 H 312.611 6.08495 -0.50654 0
M  V30 3271 H 314.025 5.12671 -2.56595 0
M  V30 3272 H 312.422 4.98296 -3.34397 0
M  V30 3273 H 313.492 3.57083 -3.28054 0
M  V30 3274 N 314.835 0.952656 1.25548 0
M  V30 3275 C 315.765 0.489287 2.28316 0
M  V30 3276 C 316.746 -0.463359 1.63667 0
M  V30 3277 O 317.931 -0.36274 1.90782 0
M  V30 3278 C 315.061 -0.235603 3.465 0
M  V30 3279 C 314.015 0.631593 4.23314 0
M  V30 3280 C 313.341 -0.223923 5.34231 0
M  V30 3281 C 314.641 1.90871 4.86174 0
M  V30 3282 H 316.335 1.34822 2.67326 0
M  V30 3283 H 313.881 0.649728 1.28509 0
M  V30 3284 H 315.834 -0.570882 4.17515 0
M  V30 3285 H 314.558 -1.12877 3.06474 0
M  V30 3286 H 313.217 0.949929 3.54079 0
M  V30 3287 H 312.865 -1.11678 4.90446 0
M  V30 3288 H 312.565 0.35299 5.86539 0
M  V30 3289 H 314.089 -0.554214 6.0808 0
M  V30 3290 H 315.503 1.63997 5.49343 0
M  V30 3291 H 313.9 2.43112 5.4865 0
M  V30 3292 H 314.97 2.61304 4.08471 0
M  V30 3293 N 316.313 -1.40141 0.720998 0
M  V30 3294 C 317.729 -1.54632 0.395113 0
M  V30 3295 C 317.929 -1.69115 -1.09555 0
M  V30 3296 O 316.985 -1.68377 -1.88163 0
M  V30 3297 C 318.298 -2.77177 1.1659 0
M  V30 3298 C 319.846 -2.91 1.15274 0
M  V30 3299 C 320.321 -4.16465 1.90579 0
M  V30 3300 N 321.812 -4.23476 1.87675 0
M  V30 3301 C 322.547 -5.19475 2.42762 0
M  V30 3302 N 322.043 -6.21348 3.06428 0
M  V30 3303 N 323.836 -5.11592 2.32874 0
M  V30 3304 H 315.987 -1.28986 1.68749 0
M  V30 3305 H 318.25 -0.62412 0.713567 0
M  V30 3306 H 317.956 -2.72771 2.22011 0
M  V30 3307 H 317.83 -3.69442 0.76108 0
M  V30 3308 H 320.217 -2.94907 0.106702 0
M  V30 3309 H 320.298 -1.99838 1.59682 0
M  V30 3310 H 319.942 -4.1332 2.95176 0
M  V30 3311 H 319.872 -5.06646 1.43587 0
M  V30 3312 H 322.363 -3.50497 1.41281 0
M  V30 3313 H 322.676 -6.91034 3.45965 0
M  V30 3314 H 321.021 -6.21777 3.10514 0
M  V30 3315 H 324.212 -4.30936 1.82789 0
M  V30 3316 H 324.385 -5.86233 2.76106 0
M  V30 3317 N 317.792 -0.46758 -1.50504 0
M  V30 3318 C 318.755 0.317059 -2.26996 0
M  V30 3319 C 319.755 0.923513 -1.31635 0
M  V30 3320 O 320.945 0.793239 -1.55091 0
M  V30 3321 C 318.077 1.45134 -3.08462 0
M  V30 3322 H 319.27 -0.353723 -2.97807 0
M  V30 3323 H 316.823 -0.221545 -1.54722 0
M  V30 3324 H 317.558 2.15728 -2.4214 0
M  V30 3325 H 317.343 1.02232 -3.78538 0
M  V30 3326 H 318.833 2.00493 -3.66323 0
M  V30 3327 N 319.27 1.56325 -0.20005 0
M  V30 3328 C 320.22 2.15939 0.731743 0
M  V30 3329 C 321.204 1.10154 1.17281 0
M  V30 3330 O 322.396 1.36203 1.13038 0
M  V30 3331 C 319.525 2.82614 1.94895 0
M  V30 3332 C 318.611 3.95596 1.52855 0
M  V30 3333 N 319.002 4.99118 0.819418 0
M  V30 3334 C 317.3 4.07288 1.81748 0
M  V30 3335 C 318.001 5.78513 0.608053 0
M  V30 3336 N 316.977 5.31117 1.15828 0
M  V30 3337 H 320.779 2.9334 0.181285 0
M  V30 3338 H 318.293 1.624 -0.000452172 0
M  V30 3339 H 320.29 3.23718 2.62702 0
M  V30 3340 H 318.95 2.06702 2.50408 0
M  V30 3341 H 319.961 5.15723 0.47436 0
M  V30 3342 H 316.638 3.42509 2.38734 0
M  V30 3343 H 318.028 6.71885 0.0451619 0
M  V30 3344 N 320.748 -0.0735177 1.57428 0
M  V30 3345 C 321.711 -1.07192 2.02589 0
M  V30 3346 C 322.711 -1.31695 0.922661 0
M  V30 3347 O 323.901 -1.27445 1.18758 0
M  V30 3348 C 321.033 -2.41599 2.40506 0
M  V30 3349 H 322.226 -0.682727 2.92025 0
M  V30 3350 H 319.779 -0.319193 1.53006 0
M  V30 3351 H 320.514 -2.85354 1.5409 0
M  V30 3352 H 320.299 -2.25156 3.21009 0
M  V30 3353 H 321.789 -3.13367 2.76027 0
M  V30 3354 N 322.226 -1.5378 -0.344866 0
M  V30 3355 C 323.637 -1.62428 -0.920552 0
M  V30 3356 C 323.988 -0.504747 -1.89596 0
M  V30 3357 O 323.113 0.365711 -2.13287 0
M  V30 3358 C 323.708 -2.94419 -1.67639 0
M  V30 3359 C 322.267 -3.05333 -2.20111 0
M  V30 3360 C 321.414 -2.57866 -1.01982 0
M  V30 3361 H 324.365 -1.58222 -0.123042 0
M  V30 3362 H 324.386 -2.83384 -2.53917 0
M  V30 3363 H 323.898 -3.7588 -0.966224 0
M  V30 3364 H 321.999 -2.28502 -2.94308 0
M  V30 3365 H 322.112 -4.10778 -2.46573 0
M  V30 3366 H 320.476 -2.13241 -1.39285 0
M  V30 3367 H 321.259 -3.41765 -0.324308 0
M  V30 3368 N 323.704 0.605807 -1.45491 0
M  V30 3369 C 324.932 1.39136 -1.5313 0
M  V30 3370 C 325.347 1.88082 -0.164507 0
M  V30 3371 O 324.704 1.62316 0.834247 0
M  V30 3372 C 324.755 2.59463 -2.51716 0
M  V30 3373 O 324.476 2.12551 -3.83084 0
M  V30 3374 C 325.977 3.52301 -2.6907 0
M  V30 3375 H 323.197 0.425849 -0.51855 0
M  V30 3376 H 325.741 0.73865 -1.90694 0
M  V30 3377 H 323.896 3.20772 -2.17219 0
M  V30 3378 H 324.31 2.90744 -4.36541 0
M  V30 3379 H 325.784 4.33271 -3.42024 0
M  V30 3380 H 326.261 4.02757 -1.75167 0
M  V30 3381 H 326.867 2.96845 -3.04571 0
M  V30 3382 N 325.182 1.32811 0.848464 0
M  V30 3383 C 326.145 1.22194 1.9391 0
M  V30 3384 C 327.145 0.143404 1.60159 0
M  V30 3385 O 328.335 0.394253 1.6968 0
M  V30 3386 C 325.467 0.88067 3.29328 0
M  V30 3387 H 326.66 2.19127 2.04752 0
M  V30 3388 H 324.213 1.16731 1.0394 0
M  V30 3389 H 324.948 -0.0865776 3.24184 0
M  V30 3390 H 324.733 1.66052 3.55203 0
M  V30 3391 H 326.223 0.830871 4.09251 0
M  V30 3392 N 326.66 -1.06551 1.16123 0
M  V30 3393 C 327.623 -2.12132 0.867906 0
M  V30 3394 C 328.623 -1.60224 -0.135944 0
M  V30 3395 O 329.813 -1.73943 0.0946422 0
M  V30 3396 C 326.945 -3.396 0.297419 0
M  V30 3397 H 328.138 -2.39586 1.80385 0
M  V30 3398 H 325.691 -1.22574 0.969812 0
M  V30 3399 H 326.426 -3.17794 -0.64633 0
M  V30 3400 H 326.211 -3.78581 1.02073 0
M  V30 3401 H 327.701 -4.17455 0.110052 0
M  V30 3402 N 328.138 -0.959301 -1.25041 0
M  V30 3403 C 329.415 -0.533805 -1.88175 0
M  V30 3404 C 329.795 0.988994 -1.865 0
M  V30 3405 O 329.143 1.85677 -1.33177 0
M  V30 3406 C 329.353 -1.11575 -3.30684 0
M  V30 3407 C 330.701 -1.19548 -4.07423 0
M  V30 3408 O 331.725 -1.06765 -3.39823 0
M  V30 3409 O 330.584 -1.39656 -5.28354 0
M  V30 3410 H 327.678 -0.176772 -0.807887 0
M  V30 3411 H 330.224 -1.05303 -1.33076 0
M  V30 3412 H 328.996 -2.15884 -3.26358 0
M  V30 3413 H 328.619 -0.580059 -3.93346 0
M  V30 3414 N 329.616 1.39756 -0.72842 0
M  V30 3415 C 330.863 2.00645 -0.273487 0
M  V30 3416 C 331.191 1.57786 1.13727 0
M  V30 3417 O 330.446 0.794886 1.7883 0
M  V30 3418 C 330.745 3.56002 -0.315776 0
M  V30 3419 C 330.411 4.18489 -1.67863 0
M  V30 3420 C 329.073 4.3527 -2.05166 0
M  V30 3421 C 331.425 4.53219 -2.57375 0
M  V30 3422 C 328.753 4.84069 -3.31503 0
M  V30 3423 C 331.105 5.03423 -3.83077 0
M  V30 3424 C 329.769 5.18413 -4.20481 0
M  V30 3425 H 329.039 0.734211 -0.100076 0
M  V30 3426 H 331.686 1.6718 -0.933972 0
M  V30 3427 H 329.991 3.89452 0.428285 0
M  V30 3428 H 331.688 4.00963 0.0542575 0
M  V30 3429 H 328.278 4.05824 -1.37858 0
M  V30 3430 H 332.462 4.39878 -2.29827 0
M  V30 3431 H 327.718 4.93859 -3.60435 0
M  V30 3432 H 331.892 5.2927 -4.52599 0
M  V30 3433 H 329.519 5.55987 -5.18443 0
M  V30 3434 N 331.094 0.475555 1.50254 0
M  V30 3435 C 332.057 -0.305016 2.27161 0
M  V30 3436 C 333.057 -0.916519 1.32123 0
M  V30 3437 O 334.247 -0.785003 1.5551 0
M  V30 3438 C 331.379 -1.43496 3.09227 0
M  V30 3439 H 332.572 0.369511 2.97615 0
M  V30 3440 H 330.125 0.229747 1.54602 0
M  V30 3441 H 330.86 -2.14441 2.43281 0
M  V30 3442 H 330.645 -1.00223 3.79075 0
M  V30 3443 H 332.135 -1.98548 3.67381 0
M  V30 3444 N 332.573 -1.56217 0.208337 0
M  V30 3445 C 333.989 -1.58919 -0.14729 0
M  V30 3446 C 334.189 -1.22486 -1.59998 0
M  V30 3447 O 333.245 -0.953849 -2.3379 0
M  V30 3448 C 334.558 -3.00236 0.167048 0
M  V30 3449 C 336.106 -3.12813 0.108219 0
M  V30 3450 C 336.581 -4.56284 0.396049 0
M  V30 3451 N 338.072 -4.61912 0.345142 0
M  V30 3452 C 338.807 -5.70837 0.541523 0
M  V30 3453 N 338.303 -6.88178 0.798968 0
M  V30 3454 N 340.096 -5.60091 0.474867 0
M  V30 3455 H 332.247 -1.78177 1.15614 0
M  V30 3456 H 334.51 -0.827555 0.462446 0
M  V30 3457 H 334.216 -3.31499 1.1748 0
M  V30 3458 H 334.09 -3.7354 -0.524184 0
M  V30 3459 H 336.477 -2.81354 -0.890157 0
M  V30 3460 H 336.558 -2.41866 0.832729 0
M  V30 3461 H 336.202 -4.88458 1.3918 0
M  V30 3462 H 336.132 -5.25439 -0.349502 0
M  V30 3463 H 338.623 -3.77589 0.153316 0
M  V30 3464 H 338.936 -7.67095 0.93727 0
M  V30 3465 H 337.281 -6.89953 0.836013 0
M  V30 3466 H 340.472 -4.67297 0.274064 0
M  V30 3467 H 340.645 -6.44917 0.631326 0
M  V30 3468 N 334.051 0.0651679 -1.57465 0
M  V30 3469 C 334.981 1.07693 -2.07182 0
M  V30 3470 C 335.962 1.39962 -0.966673 0
M  V30 3471 O 337.147 1.49475 -1.2398 0
M  V30 3472 C 334.277 2.3885 -2.52127 0
M  V30 3473 C 333.231 2.20917 -3.66579 0
M  V30 3474 C 332.557 3.57515 -3.97601 0
M  V30 3475 C 333.857 1.62493 -4.9638 0
M  V30 3476 H 335.551 0.663199 -2.91962 0
M  V30 3477 H 333.097 0.317569 -1.40455 0
M  V30 3478 H 335.05 3.09928 -2.85522 0
M  V30 3479 H 333.774 2.82215 -1.64384 0
M  V30 3480 H 332.433 1.52279 -3.33477 0
M  V30 3481 H 332.081 3.98463 -3.06979 0
M  V30 3482 H 331.781 3.46353 -4.74672 0
M  V30 3483 H 333.305 4.30013 -4.33499 0
M  V30 3484 H 334.719 2.23445 -5.27963 0
M  V30 3485 H 333.116 1.62009 -5.77818 0
M  V30 3486 H 334.186 0.587041 -4.81333 0
M  V30 3487 N 335.529 1.53961 0.336706 0
M  V30 3488 C 336.776 1.71536 1.07618 0
M  V30 3489 C 337.104 0.482125 1.8843 0
M  V30 3490 O 336.359 -0.536142 1.88213 0
M  V30 3491 C 336.658 2.93493 2.03953 0
M  V30 3492 C 336.324 4.28811 1.39399 0
M  V30 3493 C 334.986 4.65602 1.21523 0
M  V30 3494 C 337.338 5.12844 0.929541 0
M  V30 3495 C 334.666 5.84037 0.558312 0
M  V30 3496 C 337.018 6.31951 0.286505 0
M  V30 3497 C 335.682 6.67432 0.0954869 0
M  V30 3498 H 334.952 0.627696 0.393801 0
M  V30 3499 H 337.599 1.88186 0.354715 0
M  V30 3500 H 335.904 2.71475 2.82504 0
M  V30 3501 H 337.601 3.04285 2.61174 0
M  V30 3502 H 334.191 3.99858 1.54311 0
M  V30 3503 H 338.375 4.84947 1.05548 0
M  V30 3504 H 333.631 6.10097 0.398995 0
M  V30 3505 H 337.805 6.96352 -0.0814376 0
M  V30 3506 H 335.432 7.59063 -0.415579 0
M  V30 3507 N 337.007 -0.598083 1.45811 0
M  V30 3508 C 337.917 -1.73632 1.57763 0
M  V30 3509 C 338.933 -1.67763 0.461676 0
M  V30 3510 O 340.109 -1.87949 0.723685 0
M  V30 3511 C 337.174 -3.10114 1.55018 0
M  V30 3512 C 336.235 -3.27364 2.77726 0
M  V30 3513 C 335.468 -4.57334 2.75102 0
M  V30 3514 O 335.691 -5.40258 1.8297 0
M  V30 3515 O 334.625 -4.77502 3.66437 0
M  V30 3516 H 338.451 -1.66498 2.53992 0
M  V30 3517 H 336.036 -0.763308 1.28429 0
M  V30 3518 H 337.918 -3.9141 1.56129 0
M  V30 3519 H 336.593 -3.17718 0.619431 0
M  V30 3520 H 335.5 -2.45619 2.82174 0
M  V30 3521 H 336.833 -3.24641 3.69958 0
M  V30 3522 N 338.485 -1.33259 -0.841409 0
M  V30 3523 C 339.448 -1.23221 -1.9326 0
M  V30 3524 C 340.448 -0.151895 -1.60081 0
M  V30 3525 O 341.638 -0.403246 -1.69468 0
M  V30 3526 C 338.77 -0.898123 -3.28856 0
M  V30 3527 H 339.963 -2.2021 -2.03587 0
M  V30 3528 H 337.516 -1.17281 -1.03319 0
M  V30 3529 H 338.251 0.0693841 -3.24226 0
M  V30 3530 H 338.036 -1.67934 -3.54317 0
M  V30 3531 H 339.526 -0.852563 -4.08805 0
M  V30 3532 N 339.963 1.05934 -1.16686 0
M  V30 3533 C 341.203 1.80382 -0.961345 0
M  V30 3534 C 341.567 1.85331 0.501643 0
M  V30 3535 O 342.768 2.55795 0.825986 0
M  V30 3536 C 341.039 3.20777 -1.57596 0
M  V30 3537 S 342.598 4.11795 -1.51559 0
M  V30 3538 H 339.416 0.621332 -0.345641 0
M  V30 3539 H 342.018 1.27157 -1.48497 0
M  V30 3540 H 340.722 3.14773 -2.63337 0
M  V30 3541 H 340.253 3.79078 -1.05182 0
M  V30 3542 H 342.268 4.93485 -0.518374 0
M  V30 3543 N 341.441 0.965919 1.2453 0
M  V30 3544 C 342.404 0.499547 2.2369 0
M  V30 3545 C 343.404 -0.40294 1.5567 0
M  V30 3546 O 344.594 -0.19865 1.73064 0
M  V30 3547 C 341.726 -0.276792 3.39774 0
M  V30 3548 H 342.919 1.37613 2.66463 0
M  V30 3549 H 340.472 0.750324 1.37112 0
M  V30 3550 H 341.207 -1.17055 3.02438 0
M  V30 3551 H 340.992 0.370826 3.90343 0
M  V30 3552 H 342.482 -0.592175 4.1338 0
M  V30 3553 N 342.919 -1.39368 0.735821 0
M  V30 3554 C 343.829 -2.34395 0.0979693 0
M  V30 3555 C 344.845 -1.58361 -0.720968 0
M  V30 3556 O 346.021 -1.90648 -0.649245 0
M  V30 3557 C 343.086 -3.37393 -0.797916 0
M  V30 3558 C 342.147 -4.29287 0.0333662 0
M  V30 3559 C 341.38 -5.27365 -0.819854 0
M  V30 3560 O 341.603 -5.31959 -2.05855 0
M  V30 3561 O 340.537 -6.01389 -0.248079 0
M  V30 3562 H 344.363 -2.90601 0.882315 0
M  V30 3563 H 341.948 -1.40909 0.4965 0
M  V30 3564 H 343.83 -4.00505 -1.31048 0
M  V30 3565 H 342.505 -2.83571 -1.56106 0
M  V30 3566 H 341.412 -3.69395 0.591475 0
M  V30 3567 H 342.745 -4.86317 0.758752 0
M  V30 3568 N 344.397 -0.483516 -1.5 0
M  V30 3569 C 345.813 -0.138404 -1.58999 0
M  V30 3570 C 346.013 1.35597 -1.4905 0
M  V30 3571 O 345.069 2.13039 -1.35539 0
M  V30 3572 C 346.382 -0.699658 -2.92447 0
M  V30 3573 C 347.93 -0.664195 -3.05872 0
M  V30 3574 C 348.405 -1.20321 -4.41913 0
M  V30 3575 N 349.896 -1.16315 -4.48358 0
M  V30 3576 C 350.631 -1.55058 -5.52037 0
M  V30 3577 N 350.127 -2.01311 -6.62907 0
M  V30 3578 N 351.92 -1.46584 -5.42651 0
M  V30 3579 H 344.071 -1.45529 -1.5471 0
M  V30 3580 H 346.334 -0.60258 -0.731848 0
M  V30 3581 H 346.04 -1.747 -3.05242 0
M  V30 3582 H 345.914 -0.150194 -3.76901 0
M  V30 3583 H 348.301 0.374272 -2.92717 0
M  V30 3584 H 348.382 -1.25061 -2.23144 0
M  V30 3585 H 348.026 -2.24037 -4.55818 0
M  V30 3586 H 347.956 -0.592896 -5.23252 0
M  V30 3587 H 350.447 -0.824058 -3.68806 0
M  V30 3588 H 350.76 -2.2899 -7.38095 0
M  V30 3589 H 349.105 -2.05273 -6.63994 0
M  V30 3590 H 352.296 -1.10281 -4.54924 0
M  V30 3591 H 352.469 -1.77103 -6.23329 0
M  V30 3592 N 345.875 1.56104 -0.216619 0
M  V30 3593 C 346.805 2.23063 0.690296 0
M  V30 3594 C 347.786 1.20072 1.20485 0
M  V30 3595 O 348.971 1.48643 1.24976 0
M  V30 3596 C 346.101 2.90672 1.90072 0
M  V30 3597 C 345.055 4.00092 1.5202 0
M  V30 3598 C 344.381 4.54972 2.80899 0
M  V30 3599 C 345.681 5.17398 0.71391 0
M  V30 3600 H 347.375 2.99109 0.132038 0
M  V30 3601 H 344.921 1.43866 0.0620664 0
M  V30 3602 H 346.874 3.36204 2.54057 0
M  V30 3603 H 345.598 2.12066 2.48386 0
M  V30 3604 H 344.257 3.55283 0.903839 0
M  V30 3605 H 343.905 3.73102 3.37348 0
M  V30 3606 H 343.605 5.28817 2.56176 0
M  V30 3607 H 345.129 5.0322 3.45836 0
M  V30 3608 H 346.543 5.59342 1.25735 0
M  V30 3609 H 344.94 5.97444 0.563951 0
M  V30 3610 H 346.01 4.84088 -0.280527 0
M  V30 3611 N 347.353 -0.0568162 1.57498 0
M  V30 3612 C 348.581 -0.765626 1.92213 0
M  V30 3613 C 348.996 -1.70353 0.813961 0
M  V30 3614 O 348.353 -1.81268 -0.211701 0
M  V30 3615 C 348.404 -1.5465 3.2675 0
M  V30 3616 O 348.125 -0.646278 4.33307 0
M  V30 3617 C 349.626 -2.35497 3.75574 0
M  V30 3618 H 346.846 -0.216835 0.634999 0
M  V30 3619 H 349.39 -0.0226146 2.04487 0
M  V30 3620 H 347.545 -2.24165 3.15957 0
M  V30 3621 H 347.959 -1.19093 5.108 0
M  V30 3622 H 349.433 -2.85722 4.72299 0
M  V30 3623 H 349.91 -3.15692 3.05344 0
M  V30 3624 H 350.516 -1.7111 3.8936 0
M  V30 3625 N 348.832 -1.54138 -0.328536 0
M  V30 3626 C 350.248 -1.44736 -0.672574 0
M  V30 3627 C 350.448 -0.616217 -1.91846 0
M  V30 3628 O 349.504 -0.113067 -2.52247 0
M  V30 3629 C 350.817 -2.884 -0.851217 0
M  V30 3630 C 352.365 -2.98271 -0.948877 0
M  V30 3631 C 352.84 -4.43074 -1.15973 0
M  V30 3632 N 354.331 -4.46665 -1.22658 0
M  V30 3633 C 355.066 -5.55857 -1.40751 0
M  V30 3634 N 354.562 -6.75026 -1.5592 0
M  V30 3635 N 356.355 -5.43495 -1.4342 0
M  V30 3636 H 348.506 -2.06661 0.490421 0
M  V30 3637 H 350.769 -0.934812 0.157579 0
M  V30 3638 H 350.475 -3.51699 -0.00704236 0
M  V30 3639 H 350.349 -3.34225 -1.74853 0
M  V30 3640 H 352.736 -2.35102 -1.78356 0
M  V30 3641 H 352.817 -2.55785 -0.0281435 0
M  V30 3642 H 352.461 -5.06827 -0.329915 0
M  V30 3643 H 352.391 -4.83165 -2.09426 0
M  V30 3644 H 354.882 -3.60797 -1.124 0
M  V30 3645 H 355.195 -7.54004 -1.69404 0
M  V30 3646 H 353.54 -6.77944 -1.53027 0
M  V30 3647 H 356.731 -4.49349 -1.31162 0
M  V30 3648 H 356.904 -6.28649 -1.57178 0
M  V30 3649 N 350.31 0.590341 -1.46126 0
M  V30 3650 C 351.273 1.68194 -1.55703 0
M  V30 3651 C 352.273 1.54808 -0.434868 0
M  V30 3652 O 353.463 1.59564 -0.698928 0
M  V30 3653 C 350.595 3.07575 -1.47005 0
M  V30 3654 H 351.788 1.61064 -2.52979 0
M  V30 3655 H 349.341 0.807541 -1.33823 0
M  V30 3656 H 350.076 3.20268 -0.509785 0
M  V30 3657 H 349.861 3.187 -2.28414 0
M  V30 3658 H 351.351 3.87055 -1.56776 0
M  V30 3659 N 351.788 1.33704 0.83433 0
M  V30 3660 C 352.718 1.26967 1.95963 0
M  V30 3661 C 353.699 0.149337 1.69443 0
M  V30 3662 O 354.884 0.339852 1.91203 0
M  V30 3663 C 352.014 1.01275 3.32206 0
M  V30 3664 C 350.968 2.09652 3.73136 0
M  V30 3665 C 350.294 1.69166 5.07235 0
M  V30 3666 C 351.594 3.51372 3.86439 0
M  V30 3667 H 353.288 2.2112 2.01857 0
M  V30 3668 H 350.834 1.06447 0.969793 0
M  V30 3669 H 352.787 0.952106 4.10503 0
M  V30 3670 H 351.511 0.0356203 3.26581 0
M  V30 3671 H 350.17 2.14766 2.97104 0
M  V30 3672 H 349.818 0.701437 4.98085 0
M  V30 3673 H 349.518 2.41694 5.35591 0
M  V30 3674 H 351.042 1.64576 5.88003 0
M  V30 3675 H 352.456 3.48734 4.55036 0
M  V30 3676 H 350.853 4.22425 4.26236 0
M  V30 3677 H 351.923 3.89546 2.88759 0
M  V30 3678 N 353.266 -1.05314 1.17247 0
M  V30 3679 C 354.229 -2.112 0.890357 0
M  V30 3680 C 355.229 -1.60359 -0.118943 0
M  V30 3681 O 356.419 -1.73833 0.113086 0
M  V30 3682 C 353.551 -3.39266 0.333422 0
M  V30 3683 H 354.744 -2.37659 1.82916 0
M  V30 3684 H 352.297 -1.21538 0.982758 0
M  V30 3685 H 353.032 -3.18462 -0.612587 0
M  V30 3686 H 352.817 -3.77477 1.06082 0
M  V30 3687 H 354.307 -4.17315 0.154322 0
M  V30 3688 N 354.744 -0.972509 -1.24016 0
M  V30 3689 C 355.654 -0.5143 -2.28893 0
M  V30 3690 C 356.67 0.427078 -1.68677 0
M  V30 3691 O 357.846 0.298939 -1.99169 0
M  V30 3692 C 354.911 0.183598 -3.46214 0
M  V30 3693 C 353.972 -0.798202 -4.21814 0
M  V30 3694 C 353.205 -0.133514 -5.33533 0
M  V30 3695 O 353.428 1.07714 -5.60137 0
M  V30 3696 O 352.362 -0.828103 -5.96176 0
M  V30 3697 H 356.188 -1.38629 -2.70214 0
M  V30 3698 H 353.773 -0.739769 -1.29799 0
M  V30 3699 H 355.655 0.575433 -4.17453 0
M  V30 3700 H 354.33 1.03048 -3.0686 0
M  V30 3701 H 353.237 -1.24059 -3.52931 0
M  V30 3702 H 354.57 -1.61364 -4.64997 0
M  V30 3703 N 356.222 1.38976 -0.743202 0
M  V30 3704 C 357.499 1.94351 -0.220705 0
M  V30 3705 C 357.879 1.67935 1.2791 0
M  V30 3706 O 357.227 1.01211 2.04862 0
M  V30 3707 C 357.437 3.44426 -0.563171 0
M  V30 3708 C 358.785 4.2144 -0.517046 0
M  V30 3709 O 359.809 3.52661 -0.500846 0
M  V30 3710 O 358.668 5.44032 -0.518806 0
M  V30 3711 H 355.762 0.825879 -0.043047 0
M  V30 3712 H 358.308 1.48429 -0.822618 0
M  V30 3713 H 357.08 3.5712 -1.59941 0
M  V30 3714 H 356.703 3.97543 0.0672883 0
M  V30 3715 N 357.7 0.491464 1.49741 0
M  V30 3716 C 359.116 0.146835 1.58923 0
M  V30 3717 C 359.316 -1.34804 1.49767 0
M  V30 3718 O 358.372 -2.12317 1.36667 0
M  V30 3719 C 359.685 0.715157 2.92072 0
M  V30 3720 C 361.233 0.680407 3.05515 0
M  V30 3721 C 361.708 1.22663 4.41269 0
M  V30 3722 N 363.199 1.18691 4.47735 0
M  V30 3723 C 363.934 1.57984 5.51207 0
M  V30 3724 N 363.43 2.04824 6.6183 0
M  V30 3725 N 365.223 1.49459 5.41866 0
M  V30 3726 H 357.374 1.46347 1.53936 0
M  V30 3727 H 359.637 0.606453 0.728642 0
M  V30 3728 H 359.343 1.76317 3.04311 0
M  V30 3729 H 359.217 0.17018 3.76816 0
M  V30 3730 H 361.604 -0.358743 2.92911 0
M  V30 3731 H 361.685 1.26242 2.22478 0
M  V30 3732 H 361.329 2.26451 4.54623 0
M  V30 3733 H 361.259 0.620637 5.2293 0
M  V30 3734 H 363.75 0.843605 3.68364 0
M  V30 3735 H 364.063 2.32901 7.3687 0
M  V30 3736 H 362.408 2.08791 6.62896 0
M  V30 3737 H 365.599 1.12692 4.54333 0
M  V30 3738 H 365.772 1.80406 6.22381 0
M  V30 3739 N 359.178 -1.55987 0.224894 0
M  V30 3740 C 360.427 -1.97566 -0.406273 0
M  V30 3741 C 360.74 -1.11569 -1.6066 0
M  V30 3742 O 361.946 -1.43062 -2.3075 0
M  V30 3743 C 360.402 -3.51474 -0.774207 0
M  V30 3744 C 360.01 -4.46179 0.403496 0
M  V30 3745 C 361.754 -4.01758 -1.37079 0
M  V30 3746 C 359.661 -5.91399 0.0129412 0
M  V30 3747 H 358.591 -0.737777 -0.155565 0
M  V30 3748 H 361.242 -1.80659 0.321635 0
M  V30 3749 H 359.624 -3.63994 -1.55963 0
M  V30 3750 H 360.798 -4.45409 1.18101 0
M  V30 3751 H 359.113 -4.06255 0.913536 0
M  V30 3752 H 361.71 -5.07756 -1.67596 0
M  V30 3753 H 362.053 -3.47805 -2.28773 0
M  V30 3754 H 362.586 -3.92475 -0.648733 0
M  V30 3755 H 359.325 -6.49341 0.896451 0
M  V30 3756 H 358.845 -5.95356 -0.728821 0
M  V30 3757 H 360.524 -6.45683 -0.412582 0
M  V30 3758 N 360.656 0.0484629 -1.57525 0
M  V30 3759 C 361.881 0.759177 -1.93006 0
M  V30 3760 C 362.306 1.69125 -0.823317 0
M  V30 3761 O 361.664 1.79931 0.222364 0
M  V30 3762 C 361.712 1.50899 -3.27509 0
M  V30 3763 O 360.816 2.62112 -3.18388 0
M  V30 3764 H 360.157 0.205564 -0.631379 0
M  V30 3765 H 362.687 0.00972959 -2.04598 0
M  V30 3766 H 362.697 1.88317 -3.6194 0
M  V30 3767 H 361.372 0.825269 -4.0763 0
M  V30 3768 H 359.949 2.27379 -2.95556 0
M  V30 3769 N 362.134 1.5431 0.320358 0
M  V30 3770 C 363.55 1.45091 0.664889 0
M  V30 3771 C 363.75 0.626382 1.91517 0
M  V30 3772 O 362.806 0.126443 2.52183 0
M  V30 3773 C 364.119 2.88848 0.83591 0
M  V30 3774 C 365.667 2.9877 0.933046 0
M  V30 3775 C 366.142 4.43683 1.13621 0
M  V30 3776 N 367.633 4.47309 1.20287 0
M  V30 3777 C 368.368 5.56595 1.37801 0
M  V30 3778 N 367.864 6.75844 1.52338 0
M  V30 3779 N 369.657 5.44248 1.40535 0
M  V30 3780 H 361.808 2.06398 -0.501374 0
M  V30 3781 H 364.071 0.933963 -0.162534 0
M  V30 3782 H 363.777 3.51698 -0.0116092 0
M  V30 3783 H 363.651 3.35148 1.73078 0
M  V30 3784 H 366.038 2.36045 1.77107 0
M  V30 3785 H 366.119 2.55796 0.0145782 0
M  V30 3786 H 365.763 5.06995 0.303032 0
M  V30 3787 H 365.693 4.84269 2.0686 0
M  V30 3788 H 368.184 3.61388 1.10485 0
M  V30 3789 H 368.497 7.54892 1.65403 0
M  V30 3790 H 366.842 6.78746 1.4943 0
M  V30 3791 H 370.033 4.50038 1.28777 0
M  V30 3792 H 370.206 6.29473 1.53842 0
M  V30 3793 N 363.613 -0.582584 1.46437 0
M  V30 3794 C 364.546 -1.70633 1.51524 0
M  V30 3795 C 365.524 -1.58349 0.369351 0
M  V30 3796 O 366.708 -1.79563 0.573516 0
M  V30 3797 C 363.835 -3.08687 1.39392 0
M  V30 3798 C 362.881 -3.3949 2.58164 0
M  V30 3799 S 363.714 -3.31548 4.20519 0
M  V30 3800 C 364.87 -4.72139 4.10896 0
M  V30 3801 H 365.103 -1.66058 2.46601 0
M  V30 3802 H 362.636 -0.761337 1.34324 0
M  V30 3803 H 364.594 -3.8833 1.33079 0
M  V30 3804 H 363.255 -3.10751 0.457436 0
M  V30 3805 H 362.448 -4.40071 2.45669 0
M  V30 3806 H 362.05 -2.67415 2.61468 0
M  V30 3807 H 364.342 -5.62527 3.77584 0
M  V30 3808 H 365.285 -4.89692 5.11476 0
M  V30 3809 H 365.693 -4.48995 3.42146 0
M  V30 3810 N 365.091 -1.34144 -0.827227 0
M  V30 3811 C 366.023 -1.21206 -1.9453 0
M  V30 3812 C 367.036 -0.140176 -1.62195 0
M  V30 3813 O 368.225 -0.391647 -1.7415 0
M  V30 3814 C 365.325 -0.839141 -3.28347 0
M  V30 3815 C 364.498 -2.0051 -3.88734 0
M  V30 3816 C 363.557 -1.61128 -5.00923 0
M  V30 3817 O 362.583 -2.32726 -5.19449 0
M  V30 3818 N 363.785 -0.522958 -5.7814 0
M  V30 3819 H 366.55 -2.17525 -2.06162 0
M  V30 3820 H 364.111 -1.27043 -1.00358 0
M  V30 3821 H 366.103 -0.557556 -4.00841 0
M  V30 3822 H 364.673 0.0337293 -3.12582 0
M  V30 3823 H 363.893 -2.45166 -3.08686 0
M  V30 3824 H 365.181 -2.78498 -4.25812 0
M  V30 3825 H 364.579 0.0723518 -5.65654 0
M  V30 3826 H 363.136 -0.301089 -6.51104 0
M  V30 3827 N 366.569 1.04691 -1.17803 0
M  V30 3828 C 367.815 1.78045 -0.970969 0
M  V30 3829 C 368.148 1.87686 0.498751 0
M  V30 3830 O 367.423 1.38035 1.37027 0
M  V30 3831 C 367.706 3.2166 -1.61884 0
M  V30 3832 C 367.559 3.20001 -3.161 0
M  V30 3833 C 368.878 4.1962 -1.3269 0
M  V30 3834 H 365.997 0.64633 -0.354155 0
M  V30 3835 H 368.639 1.22333 -1.45378 0
M  V30 3836 H 366.789 3.69232 -1.20831 0
M  V30 3837 H 368.461 2.80467 -3.66246 0
M  V30 3838 H 366.704 2.58203 -3.48588 0
M  V30 3839 H 367.375 4.21386 -3.56564 0
M  V30 3840 H 369.851 3.80567 -1.68249 0
M  V30 3841 H 368.727 5.18339 -1.80599 0
M  V30 3842 H 368.988 4.414 -0.248622 0
M  V30 3843 N 368.047 0.979072 1.23499 0
M  V30 3844 C 369.275 0.665202 1.95915 0
M  V30 3845 C 369.69 -0.767571 1.72493 0
M  V30 3846 O 369.047 -1.51635 1.01554 0
M  V30 3847 C 369.098 0.944438 3.48945 0
M  V30 3848 O 368.819 2.3209 3.71572 0
M  V30 3849 C 370.32 0.646336 4.38563 0
M  V30 3850 H 367.54 0.247218 0.623798 0
M  V30 3851 H 370.084 1.31009 1.57025 0
M  V30 3852 H 368.239 0.345575 3.85856 0
M  V30 3853 H 368.653 2.40957 4.65876 0
M  V30 3854 H 370.127 0.892091 5.44744 0
M  V30 3855 H 370.604 -0.419575 4.37191 0
M  V30 3856 H 371.21 1.22562 4.07258 0
M  V30 3857 N 369.525 -1.3858 0.750561 0
M  V30 3858 C 370.455 -2.33102 0.136237 0
M  V30 3859 C 371.436 -1.54713 -0.706965 0
M  V30 3860 O 372.621 -1.83043 -0.648769 0
M  V30 3861 C 369.751 -3.38882 -0.760017 0
M  V30 3862 C 368.705 -4.27995 -0.0197785 0
M  V30 3863 C 368.031 -5.24605 -1.03408 0
M  V30 3864 C 369.331 -5.09554 1.14684 0
M  V30 3865 H 371.025 -2.84726 0.925822 0
M  V30 3866 H 368.571 -1.36898 0.446654 0
M  V30 3867 H 370.524 -4.0397 -1.19943 0
M  V30 3868 H 369.248 -2.85734 -1.58189 0
M  V30 3869 H 367.907 -3.64409 0.400184 0
M  V30 3870 H 367.555 -4.67746 -1.84994 0
M  V30 3871 H 367.255 -5.85081 -0.543464 0
M  V30 3872 H 368.779 -5.9257 -1.47288 0
M  V30 3873 H 370.193 -5.67899 0.785118 0
M  V30 3874 H 368.59 -5.7925 1.56812 0
M  V30 3875 H 369.66 -4.4347 1.96118 0
M  V30 3876 N 371.003 -0.499398 -1.49478 0
M  V30 3877 C 371.966 0.268838 -2.27618 0
M  V30 3878 C 372.966 0.895383 -1.33565 0
M  V30 3879 O 374.156 0.760164 -1.56739 0
M  V30 3880 C 371.288 1.38559 -3.11471 0
M  V30 3881 H 372.481 -0.416812 -2.96989 0
M  V30 3882 H 370.034 -0.254313 -1.54217 0
M  V30 3883 H 370.769 2.10544 -2.46661 0
M  V30 3884 H 370.554 0.941797 -3.80621 0
M  V30 3885 H 372.044 1.92678 -3.70493 0
M  V30 3886 N 372.481 1.55866 -0.233164 0
M  V30 3887 C 373.711 2.02704 0.399325 0
M  V30 3888 C 374.119 1.11204 1.53069 0
M  V30 3889 O 373.462 0.116182 1.83332 0
M  V30 3890 C 373.524 3.45844 0.981429 0
M  V30 3891 C 373.188 4.56997 -0.0159561 0
M  V30 3892 C 374.185 5.13384 -0.820552 0
M  V30 3893 C 371.87 5.0211 -0.138072 0
M  V30 3894 C 373.864 6.13365 -1.73386 0
M  V30 3895 C 371.551 6.01926 -1.0549 0
M  V30 3896 C 372.549 6.57431 -1.85132 0
M  V30 3897 O 372.237 7.55302 -2.75272 0
M  V30 3898 H 371.969 0.668459 0.100692 0
M  V30 3899 H 374.523 2.02387 -0.35052 0
M  V30 3900 H 372.753 3.43267 1.78058 0
M  V30 3901 H 374.442 3.76262 1.52255 0
M  V30 3902 H 375.208 4.79372 -0.736721 0
M  V30 3903 H 371.087 4.5858 0.471737 0
M  V30 3904 H 374.631 6.56614 -2.35592 0
M  V30 3905 H 370.528 6.35359 -1.1397 0
M  V30 3906 H 371.296 7.72867 -2.69477 0
M  V30 3907 N 373.959 -0.0401083 1.57549 0
M  V30 3908 C 375.184 -0.748931 1.93406 0
M  V30 3909 C 375.609 -1.68686 0.832274 0
M  V30 3910 O 374.967 -1.80047 -0.212818 0
M  V30 3911 C 375.015 -1.4916 3.28304 0
M  V30 3912 O 374.119 -2.6042 3.19774 0
M  V30 3913 H 373.46 -0.202212 0.63246 0
M  V30 3914 H 375.99 0.00112086 2.046 0
M  V30 3915 H 376 -1.86395 3.62934 0
M  V30 3916 H 374.675 -0.80364 4.08062 0
M  V30 3917 H 373.252 -2.25808 2.96758 0
M  V30 3918 N 375.437 -1.54477 -0.31217 0
M  V30 3919 C 376.4 -1.83923 -1.36766 0
M  V30 3920 C 377.4 -0.711563 -1.44199 0
M  V30 3921 O 378.59 -0.979866 -1.44029 0
M  V30 3922 C 375.722 -2.0095 -2.75376 0
M  V30 3923 H 376.915 -2.78239 -1.11906 0
M  V30 3924 H 374.468 -1.46369 -0.548257 0
M  V30 3925 H 375.203 -1.08883 -3.05475 0
M  V30 3926 H 374.988 -2.83018 -2.71373 0
M  V30 3927 H 376.478 -2.2514 -3.51713 0
M  V30 3928 N 376.915 0.57481 -1.46744 0
M  V30 3929 C 377.845 1.69337 -1.60771 0
M  V30 3930 C 378.826 1.63825 -0.457736 0
M  V30 3931 O 380.011 1.8172 -0.684947 0
M  V30 3932 C 377.141 3.0798 -1.60517 0
M  V30 3933 C 376.095 3.28327 -2.74564 0
M  V30 3934 C 375.421 4.67578 -2.59373 0
M  V30 3935 C 376.721 3.15398 -4.16319 0
M  V30 3936 H 378.415 1.57853 -2.54407 0
M  V30 3937 H 375.961 0.75799 -1.22436 0
M  V30 3938 H 377.914 3.86061 -1.68923 0
M  V30 3939 H 376.638 3.20381 -0.634305 0
M  V30 3940 H 375.297 2.52649 -2.65639 0
M  V30 3941 H 374.945 4.76755 -1.60353 0
M  V30 3942 H 374.645 4.82144 -3.35873 0
M  V30 3943 H 376.169 5.47817 -2.69682 0
M  V30 3944 H 377.583 3.83315 -4.26313 0
M  V30 3945 H 375.98 3.41482 -4.93468 0
M  V30 3946 H 377.05 2.12372 -4.3592 0
M  V30 3947 N 378.394 1.34581 0.820102 0
M  V30 3948 C 379.326 1.22236 1.93884 0
M  V30 3949 C 380.339 0.148776 1.62119 0
M  V30 3950 O 381.528 0.400877 1.7394 0
M  V30 3951 C 378.628 0.856542 3.27897 0
M  V30 3952 C 377.801 2.02569 3.87666 0
M  V30 3953 C 376.86 1.63782 5.00062 0
M  V30 3954 O 375.886 2.35477 5.18208 0
M  V30 3955 N 377.088 0.553611 5.77854 0
M  V30 3956 H 379.853 2.18615 2.05006 0
M  V30 3957 H 377.414 1.27573 0.99683 0
M  V30 3958 H 379.406 0.578806 4.0054 0
M  V30 3959 H 377.976 -0.0171518 3.12595 0
M  V30 3960 H 377.196 2.468 3.07382 0
M  V30 3961 H 378.484 2.80752 4.24329 0
M  V30 3962 H 377.882 -0.0423528 5.65684 0
M  V30 3963 H 376.439 0.335614 6.50935 0
M  V30 3964 N 379.872 -1.04064 1.18357 0
M  V30 3965 C 380.805 -2.11618 0.854 0
M  V30 3966 C 381.783 -1.61555 -0.184043 0
M  V30 3967 O 382.967 -1.88395 -0.0630048 0
M  V30 3968 C 380.094 -3.37574 0.27597 0
M  V30 3969 C 379.14 -4.06485 1.2912 0
M  V30 3970 S 379.973 -4.53543 2.84709 0
M  V30 3971 C 381.129 -5.82732 2.28417 0
M  V30 3972 H 381.362 -2.39247 1.76488 0
M  V30 3973 H 378.895 -1.16832 1.00944 0
M  V30 3974 H 380.853 -4.10468 -0.051026 0
M  V30 3975 H 379.514 -3.0806 -0.613028 0
M  V30 3976 H 378.707 -4.97024 0.835633 0
M  V30 3977 H 378.309 -3.39708 1.56443 0
M  V30 3978 H 380.601 -6.56677 1.66677 0
M  V30 3979 H 381.544 -6.33052 3.17256 0
M  V30 3980 H 381.952 -5.37838 1.71436 0
M  V30 3981 N 381.35 -0.985608 -1.22978 0
M  V30 3982 C 382.313 -0.535071 -2.22867 0
M  V30 3983 C 383.313 0.378123 -1.56291 0
M  V30 3984 O 384.503 0.171092 -1.73358 0
M  V30 3985 C 381.635 0.222702 -3.40172 0
M  V30 3986 H 382.828 -1.41835 -2.6424 0
M  V30 3987 H 380.381 -0.772042 -1.35901 0
M  V30 3988 H 381.116 1.12229 -3.04262 0
M  V30 3989 H 380.901 -0.43288 -3.89703 0
M  V30 3990 H 382.391 0.526335 -4.1427 0
M  V30 3991 N 382.828 1.3818 -0.7579 0
M  V30 3992 C 383.758 2.33027 -0.148597 0
M  V30 3993 C 384.739 1.55085 0.69875 0
M  V30 3994 O 385.924 1.83384 0.639053 0
M  V30 3995 C 383.054 3.3928 0.742034 0
M  V30 3996 C 382.008 4.28 -0.00291946 0
M  V30 3997 C 381.334 5.25146 1.00625 0
M  V30 3998 C 382.634 5.08938 -1.17385 0
M  V30 3999 H 384.328 2.84231 -0.940909 0
M  V30 4000 H 381.874 1.36659 -0.453908 0
M  V30 4001 H 383.827 4.046 1.17799 0
M  V30 4002 H 382.551 2.86569 1.56671 0
M  V30 4003 H 381.21 3.64192 -0.419504 0
M  V30 4004 H 380.858 4.68721 1.8251 0
M  V30 4005 H 380.558 5.85361 0.512428 0
M  V30 4006 H 382.082 5.93342 1.44143 0
M  V30 4007 H 383.496 5.67474 -0.815224 0
M  V30 4008 H 381.893 5.7841 -1.59882 0
M  V30 4009 H 382.963 4.42424 -1.98468 0
M  V30 4010 N 384.306 0.507319 1.49211 0
M  V30 4011 C 385.722 0.163682 1.58758 0
M  V30 4012 C 385.922 -1.33208 1.51188 0
M  V30 4013 O 384.978 -2.10855 1.38911 0
M  V30 4014 C 386.291 0.746095 2.91297 0
M  V30 4015 C 387.839 0.712773 3.04776 0
M  V30 4016 C 388.314 1.27336 4.39943 0
M  V30 4017 N 389.805 1.23433 4.46451 0
M  V30 4018 C 390.54 1.63821 5.495 0
M  V30 4019 N 390.036 2.11832 6.5962 0
M  V30 4020 N 391.829 1.55198 5.4025 0
M  V30 4021 H 383.98 1.47972 1.52375 0
M  V30 4022 H 386.243 0.614147 0.722168 0
M  V30 4023 H 385.949 1.79534 3.02424 0
M  V30 4024 H 385.823 0.210137 3.76614 0
M  V30 4025 H 388.21 -0.327656 2.93275 0
M  V30 4026 H 388.291 1.28595 2.21127 0
M  V30 4027 H 387.935 2.3126 4.52196 0
M  V30 4028 H 387.865 0.676066 5.22242 0
M  V30 4029 H 390.356 0.882627 3.67448 0
M  V30 4030 H 390.669 2.40703 7.34358 0
M  V30 4031 H 389.014 2.1581 6.60644 0
M  V30 4032 H 392.205 1.17505 4.53112 0
M  V30 4033 H 392.378 1.86997 6.20432 0
M  V30 4034 N 385.784 -1.5574 0.241426 0
M  V30 4035 C 387.2 -1.59196 -0.113548 0
M  V30 4036 C 387.4 -1.25852 -1.57364 0
M  V30 4037 O 386.456 -1.00322 -2.31715 0
M  V30 4038 C 387.769 -2.99814 0.230695 0
M  V30 4039 C 389.317 -3.12513 0.174547 0
M  V30 4040 C 389.792 -4.55342 0.492744 0
M  V30 4041 N 391.283 -4.61076 0.443043 0
M  V30 4042 C 392.018 -5.6956 0.662484 0
M  V30 4043 N 391.514 -6.86328 0.944761 0
M  V30 4044 N 393.307 -5.58957 0.593564 0
M  V30 4045 H 385.458 -1.75685 1.19368 0
M  V30 4046 H 387.721 -0.81756 0.479896 0
M  V30 4047 H 387.427 -3.28932 1.24485 0
M  V30 4048 H 387.301 -3.74568 -0.444833 0
M  V30 4049 H 389.688 -2.83179 -0.830277 0
M  V30 4050 H 389.769 -2.40045 0.883845 0
M  V30 4051 H 389.413 -4.85396 1.4951 0
M  V30 4052 H 389.343 -5.26062 -0.23797 0
M  V30 4053 H 391.834 -3.77179 0.233374 0
M  V30 4054 H 392.147 -7.64935 1.09977 0
M  V30 4055 H 390.492 -6.88025 0.982175 0
M  V30 4056 H 393.683 -4.66611 0.373123 0
M  V30 4057 H 393.856 -6.43433 0.767981 0
M  V30 4058 N 387.262 0.0317525 -1.57568 0
M  V30 4059 C 388.511 0.722131 -1.8833 0
M  V30 4060 C 388.824 1.76664 -0.839587 0
M  V30 4061 O 390.03 2.50942 -1.03635 0
M  V30 4062 C 388.486 1.33544 -3.34207 0
M  V30 4063 C 388.094 0.327415 -4.46802 0
M  V30 4064 C 389.838 2.00585 -3.7412 0
M  V30 4065 C 387.745 0.948915 -5.83738 0
M  V30 4066 H 386.675 0.273466 -0.702661 0
M  V30 4067 H 389.326 -0.0235811 -1.83485 0
M  V30 4068 H 387.708 2.13077 -3.33788 0
M  V30 4069 H 388.882 -0.441006 -4.58685 0
M  V30 4070 H 387.197 -0.240758 -4.15703 0
M  V30 4071 H 389.794 2.47932 -4.73744 0
M  V30 4072 H 390.137 2.82285 -3.05975 0
M  V30 4073 H 390.67 1.27831 -3.76702 0
M  V30 4074 H 387.409 0.171387 -6.55276 0
M  V30 4075 H 386.929 1.68724 -5.7558 0
M  V30 4076 H 388.608 1.45705 -6.3038 0
M  V30 4077 N 388.74 1.54641 0.303973 0
M  V30 4078 C 389.69 1.8177 1.37636 0
M  V30 4079 C 390.674 0.674697 1.46071 0
M  V30 4080 O 391.866 0.935251 1.50273 0
M  V30 4081 C 388.995 2.06584 2.74186 0
M  V30 4082 C 388.081 3.2706 2.69986 0
M  V30 4083 N 388.472 4.47682 2.35402 0
M  V30 4084 C 386.77 3.29028 3.01092 0
M  V30 4085 C 387.471 5.29689 2.40426 0
M  V30 4086 N 386.447 4.67339 2.7766 0
M  V30 4087 H 390.249 2.72596 1.09857 0
M  V30 4088 H 387.763 1.541 0.51254 0
M  V30 4089 H 389.76 2.24166 3.51504 0
M  V30 4090 H 388.42 1.17024 3.02879 0
M  V30 4091 H 389.431 4.74336 2.07908 0
M  V30 4092 H 386.108 2.49565 3.34699 0
M  V30 4093 H 387.498 6.3606 2.16512 0
M  V30 4094 N 390.218 -0.567019 1.47046 0
M  V30 4095 C 391.168 -1.67018 1.55207 0
M  V30 4096 C 392.152 -1.55543 0.411714 0
M  V30 4097 O 393.344 -1.64192 0.661064 0
M  V30 4098 C 390.473 -3.05801 1.56014 0
M  V30 4099 C 389.559 -3.22515 2.75399 0
M  V30 4100 N 389.95 -3.09329 4.00186 0
M  V30 4101 C 388.248 -3.53493 2.71954 0
M  V30 4102 C 388.949 -3.2847 4.80086 0
M  V30 4103 N 387.925 -3.54352 4.12233 0
M  V30 4104 H 391.727 -1.55377 2.4947 0
M  V30 4105 H 389.241 -0.771503 1.42904 0
M  V30 4106 H 391.238 -3.84996 1.59949 0
M  V30 4107 H 389.898 -3.18561 0.628396 0
M  V30 4108 H 390.909 -2.86863 4.31196 0
M  V30 4109 H 387.586 -3.7284 1.87873 0
M  V30 4110 H 388.976 -3.23326 5.88991 0
M  V30 4111 N 391.696 -1.35014 -0.812953 0
M  V30 4112 C 392.626 -1.30069 -1.93919 0
M  V30 4113 C 393.607 -0.176275 -1.69184 0
M  V30 4114 O 394.792 -0.370227 -1.90638 0
M  V30 4115 C 391.922 -1.06547 -3.30552 0
M  V30 4116 C 390.876 -2.15561 -3.69753 0
M  V30 4117 C 390.202 -1.77214 -5.04479 0
M  V30 4118 C 391.502 -3.57476 -3.808 0
M  V30 4119 H 393.196 -2.24303 -1.98314 0
M  V30 4120 H 390.742 -1.07977 -0.952736 0
M  V30 4121 H 392.695 -1.01729 -4.08937 0
M  V30 4122 H 391.419 -0.0875719 -3.26483 0
M  V30 4123 H 390.078 -2.19466 -2.9365 0
M  V30 4124 H 389.726 -0.780589 -4.96906 0
M  V30 4125 H 389.426 -2.50184 -5.31678 0
M  V30 4126 H 390.95 -1.7391 -5.8531 0
M  V30 4127 H 392.364 -3.55929 -4.4943 0
M  V30 4128 H 390.761 -4.29152 -4.19462 0
M  V30 4129 H 391.831 -3.94091 -2.82525 0
M  V30 4130 N 393.175 1.03435 -1.18907 0
M  V30 4131 C 394.586 1.58195 -0.991523 0
M  V30 4132 C 394.937 1.90801 0.457081 0
M  V30 4133 O 394.062 1.70272 1.33553 0
M  V30 4134 C 394.657 2.87432 -1.79355 0
M  V30 4135 C 393.216 3.38785 -1.64017 0
M  V30 4136 C 392.363 2.12292 -1.78402 0
M  V30 4137 H 395.314 0.860299 -1.33359 0
M  V30 4138 H 395.335 3.58096 -1.28638 0
M  V30 4139 H 394.847 2.63669 -2.84781 0
M  V30 4140 H 392.948 3.67547 -0.611536 0
M  V30 4141 H 393.061 4.12186 -2.44212 0
M  V30 4142 H 391.425 2.23901 -1.2141 0
M  V30 4143 H 392.208 1.90977 -2.85277 0
M  V30 4144 N 394.653 0.992116 1.22453 0
M  V30 4145 C 395.93 0.583508 1.86694 0
M  V30 4146 C 396.31 -0.9392 1.89056 0
M  V30 4147 O 395.658 -1.82081 1.38053 0
M  V30 4148 C 395.868 1.20304 3.2761 0
M  V30 4149 C 397.216 1.30308 4.0411 0
M  V30 4150 O 398.24 1.15737 3.36873 0
M  V30 4151 O 397.099 1.53615 5.24466 0
M  V30 4152 H 394.193 0.198129 0.802916 0
M  V30 4153 H 396.739 1.08794 1.30238 0
M  V30 4154 H 395.511 2.24461 3.2052 0
M  V30 4155 H 395.134 0.684144 3.9167 0
M  V30 4156 N 396.131 -1.37776 0.765217 0
M  V30 4157 C 397.542 -1.82521 0.392819 0
M  V30 4158 C 397.893 -1.63789 -1.08017 0
M  V30 4159 O 397.018 -1.14542 -1.83601 0
M  V30 4160 C 397.613 -3.31358 0.706214 0
M  V30 4161 C 396.172 -3.74406 0.386952 0
M  V30 4162 C 395.319 -2.60394 0.953422 0
M  V30 4163 H 398.27 -1.2634 0.960412 0
M  V30 4164 H 398.291 -3.80498 -0.0114706 0
M  V30 4165 H 397.803 -3.44959 1.77833 0
M  V30 4166 H 395.904 -3.66377 -0.678112 0
M  V30 4167 H 396.017 -4.70749 0.890636 0
M  V30 4168 H 394.381 -2.51878 0.378064 0
M  V30 4169 H 395.164 -2.76791 2.03081 0
M  V30 4170 N 397.609 -0.515225 -1.4894 0
M  V30 4171 C 398.541 0.292481 -2.27326 0
M  V30 4172 C 399.554 0.917838 -1.3446 0
M  V30 4173 O 400.743 0.798772 -1.5963 0
M  V30 4174 C 397.843 1.42803 -3.07344 0
M  V30 4175 C 397.016 0.907347 -4.27885 0
M  V30 4176 C 396.075 1.92222 -4.89834 0
M  V30 4177 O 395.101 1.48506 -5.49486 0
M  V30 4178 N 396.303 3.25355 -4.80754 0
M  V30 4179 H 399.068 -0.379721 -2.97285 0
M  V30 4180 H 396.629 -0.348638 -1.58102 0
M  V30 4181 H 398.621 2.10481 -3.45658 0
M  V30 4182 H 397.191 2.00414 -2.39902 0
M  V30 4183 H 396.411 0.0550218 -3.94162 0
M  V30 4184 H 397.699 0.538108 -5.05946 0
M  V30 4185 H 397.097 3.6355 -4.33414 0
M  V30 4186 H 395.654 3.88707 -5.23211 0
M  V30 4187 N 399.087 1.5561 -0.249682 0
M  V30 4188 C 400.034 2.21496 0.648694 0
M  V30 4189 C 401.004 1.17977 1.16921 0
M  V30 4190 O 402.189 1.46434 1.22318 0
M  V30 4191 C 399.329 2.92039 1.83868 0
M  V30 4192 C 398.442 4.10219 1.35442 0
M  V30 4193 C 397.577 4.6847 2.50419 0
M  V30 4194 C 396.616 5.78893 1.98869 0
M  V30 4195 N 395.753 6.31315 3.07223 0
M  V30 4196 H 400.593 2.97892 0.0801582 0
M  V30 4197 H 398.13 1.47074 0.0278031 0
M  V30 4198 H 400.088 3.31138 2.53778 0
M  V30 4199 H 398.718 2.18111 2.37965 0
M  V30 4200 H 397.77 3.76413 0.54928 0
M  V30 4201 H 399.082 4.89927 0.936649 0
M  V30 4202 H 398.236 5.10158 3.28366 0
M  V30 4203 H 396.975 3.87984 2.95499 0
M  V30 4204 H 395.98 5.3668 1.19393 0
M  V30 4205 H 397.205 6.61232 1.54755 0
M  V30 4206 H 395.151 5.53733 3.51732 0
M  V30 4207 H 395.068 7.06224 2.69784 0
M  V30 4208 H 396.336 6.77662 3.8522 0
M  V30 4209 N 400.565 -0.0233959 1.57583 0
M  V30 4210 C 401.79 -0.728376 1.94189 0
M  V30 4211 C 402.215 -1.67793 0.850119 0
M  V30 4212 O 401.573 -1.80262 -0.19371 0
M  V30 4213 C 401.621 -1.45669 3.29868 0
M  V30 4214 O 400.725 -2.57013 3.22518 0
M  V30 4215 H 400.066 -0.195493 0.63457 0
M  V30 4216 H 402.596 0.0228214 2.04587 0
M  V30 4217 H 402.606 -1.82535 3.6489 0
M  V30 4218 H 401.281 -0.760314 4.08891 0
M  V30 4219 H 399.858 -2.22648 2.99136 0
M  V30 4220 N 402.043 -1.548 -0.295768 0
M  V30 4221 C 403.289 -1.74588 -1.03184 0
M  V30 4222 C 403.622 -0.532962 -1.86744 0
M  V30 4223 O 402.897 0.469872 -1.88739 0
M  V30 4224 C 403.18 -3.03791 -1.93347 0
M  V30 4225 C 403.033 -4.35392 -1.12933 0
M  V30 4226 C 404.352 -3.28892 -2.92435 0
M  V30 4227 H 401.471 -0.635221 -0.373715 0
M  V30 4228 H 404.113 -1.87519 -0.30606 0
M  V30 4229 H 402.263 -2.92898 -2.55232 0
M  V30 4230 H 403.935 -4.58211 -0.532943 0
M  V30 4231 H 402.178 -4.31642 -0.432168 0
M  V30 4232 H 402.849 -5.22074 -1.79284 0
M  V30 4233 H 405.325 -3.39429 -2.4068 0
M  V30 4234 H 404.201 -4.20603 -3.52682 0
M  V30 4235 H 404.462 -2.47437 -3.6637 0
M  V30 4236 N 403.521 0.559213 -1.47345 0
M  V30 4237 C 404.769 1.31388 -1.53563 0
M  V30 4238 C 405.09 1.93985 -0.198678 0
M  V30 4239 O 404.36 1.79825 0.777167 0
M  V30 4240 H 402.94 0.487901 -0.565652 0
M  V30 4241 H 405.602 0.65315 -1.8363 0
M  V30 4242 H 404.698 2.10844 -2.30111 0
M  V30 4243 N 404.999 1.35443 0.805782 0
M  V30 4244 C 405.962 1.28301 1.89925 0
M  V30 4245 C 406.962 0.194285 1.59622 0
M  V30 4246 O 408.152 0.448036 1.6834 0
M  V30 4247 C 405.284 0.984997 3.2636 0
M  V30 4248 H 406.477 2.2553 1.97677 0
M  V30 4249 H 404.03 1.19979 1.00173 0
M  V30 4250 H 404.765 0.016603 3.24296 0
M  V30 4251 H 404.55 1.77269 3.4974 0
M  V30 4252 H 406.04 0.960651 4.064 0
M  V30 4253 N 406.477 -1.02803 1.19454 0
M  V30 4254 C 407.723 -1.76478 0.999171 0
M  V30 4255 C 408.056 -1.88456 -0.468828 0
M  V30 4256 O 407.331 -1.40198 -1.34814 0
M  V30 4257 C 407.614 -3.19044 1.66981 0
M  V30 4258 C 407.467 -3.14932 3.21151 0
M  V30 4259 C 408.786 -4.17456 1.39349 0
M  V30 4260 H 405.905 -0.640614 0.364393 0
M  V30 4261 H 408.547 -1.20005 1.47305 0
M  V30 4262 H 406.697 -3.67263 1.2669 0
M  V30 4263 H 408.369 -2.74605 3.70661 0
M  V30 4264 H 406.612 -2.52625 3.52652 0
M  V30 4265 H 407.283 -4.1566 3.63223 0
M  V30 4266 H 409.759 -3.77842 1.74283 0
M  V30 4267 H 408.635 -5.154 1.88823 0
M  V30 4268 H 408.896 -4.40949 0.318813 0
M  V30 4269 N 407.956 -0.998596 -1.21925 0
M  V30 4270 C 408.886 -0.573688 -2.26343 0
M  V30 4271 C 409.867 0.402296 -1.65274 0
M  V30 4272 O 411.052 0.291683 -1.91997 0
M  V30 4273 C 408.182 0.106839 -3.47136 0
M  V30 4274 C 407.136 -0.788269 -4.20678 0
M  V30 4275 C 406.462 0.0254927 -5.34694 0
M  V30 4276 C 407.762 -2.08784 -4.78755 0
M  V30 4277 H 409.456 -1.44651 -2.62138 0
M  V30 4278 H 407.002 -0.696975 -1.26009 0
M  V30 4279 H 408.955 0.415531 -4.19346 0
M  V30 4280 H 407.679 1.01424 -3.10452 0
M  V30 4281 H 406.338 -1.08069 -3.50309 0
M  V30 4282 H 405.986 0.933989 -4.94253 0
M  V30 4283 H 405.686 -0.570437 -5.84825 0
M  V30 4284 H 407.21 0.328147 -6.09718 0
M  V30 4285 H 408.624 -1.84272 -5.42878 0
M  V30 4286 H 407.021 -2.63307 -5.39249 0
M  V30 4287 H 408.091 -2.76284 -3.98491 0
M  V30 4288 N 409.434 1.37368 -0.772513 0
M  V30 4289 C 410.68 1.99969 -0.337681 0
M  V30 4290 C 411.013 1.61184 1.08321 0
M  V30 4291 O 410.288 0.858395 1.74533 0
M  V30 4292 C 410.571 3.56858 -0.482121 0
M  V30 4293 C 410.424 4.0555 -1.94549 0
M  V30 4294 C 411.743 4.39955 0.113143 0
M  V30 4295 H 408.862 0.726464 -0.124171 0
M  V30 4296 H 411.504 1.63034 -0.975699 0
M  V30 4297 H 409.654 3.88452 0.0610361 0
M  V30 4298 H 411.326 3.84518 -2.54841 0
M  V30 4299 H 409.569 3.57715 -2.45403 0
M  V30 4300 H 410.24 5.14587 -1.9976 0
M  V30 4301 H 412.716 4.14623 -0.35031 0
M  V30 4302 H 411.592 5.48897 -0.0180514 0
M  V30 4303 H 411.853 4.25403 1.20354 0
M  V30 4304 N 410.912 0.523116 1.48665 0
M  V30 4305 C 411.875 -0.232592 2.28017 0
M  V30 4306 C 412.875 -0.874021 1.34972 0
M  V30 4307 O 414.065 -0.735132 1.57929 0
M  V30 4308 C 411.197 -1.33586 3.13636 0
M  V30 4309 H 412.39 0.464008 2.96289 0
M  V30 4310 H 409.943 0.278816 1.53793 0
M  V30 4311 H 410.678 -2.06593 2.4998 0
M  V30 4312 H 410.463 -0.881125 3.82071 0
M  V30 4313 H 411.953 -1.86759 3.73511 0
M  V30 4314 N 412.39 -1.55475 0.257931 0
M  V30 4315 C 413.638 -1.98813 -0.363009 0
M  V30 4316 C 413.959 -1.14757 -1.57657 0
M  V30 4317 O 413.229 -0.232956 -1.9451 0
M  V30 4318 H 411.809 -0.734308 -0.137113 0
M  V30 4319 H 414.471 -1.9156 0.359281 0
M  V30 4320 H 413.567 -3.04941 -0.664634 0
M  V30 4321 N 413.868 0.0150385 -1.57593 0
M  V30 4322 C 415.114 0.704043 -1.90187 0
M  V30 4323 C 415.447 1.74249 -0.857366 0
M  V30 4324 O 414.722 1.94092 0.125843 0
M  V30 4325 C 415.005 1.36087 -3.33395 0
M  V30 4326 C 414.858 0.334981 -4.48551 0
M  V30 4327 C 416.177 2.29112 -3.7576 0
M  V30 4328 H 413.296 0.254475 -0.691673 0
M  V30 4329 H 415.938 -0.0331678 -1.89971 0
M  V30 4330 H 414.088 1.98922 -3.3371 0
M  V30 4331 H 415.76 -0.292534 -4.60372 0
M  V30 4332 H 414.003 -0.344325 -4.32431 0
M  V30 4333 H 414.674 0.833316 -5.45674 0
M  V30 4334 H 417.15 1.76308 -3.76902 0
M  V30 4335 H 416.026 2.72043 -4.76743 0
M  V30 4336 H 416.287 3.16385 -3.08793 0
M  V30 4337 N 415.346 1.54954 0.287554 0
M  V30 4338 C 416.757 1.65732 0.859634 0
M  V30 4339 C 417.108 0.574767 1.87592 0
M  V30 4340 O 416.233 -0.286299 2.14498 0
M  V30 4341 C 416.828 3.00438 1.56597 0
M  V30 4342 C 415.387 3.13292 2.08627 0
M  V30 4343 C 414.534 2.61473 0.923416 0
M  V30 4344 H 417.485 1.5857 0.0642338 0
M  V30 4345 H 417.506 2.92613 2.43224 0
M  V30 4346 H 417.018 3.79207 0.826053 0
M  V30 4347 H 415.119 2.39268 2.85625 0
M  V30 4348 H 415.232 4.19647 2.31157 0
M  V30 4349 H 413.596 2.18264 1.31275 0
M  V30 4350 H 414.379 3.42733 0.197241 0
M  V30 4351 N 416.824 -0.551391 1.4764 0
M  V30 4352 C 418.072 -1.30572 1.54258 0
M  V30 4353 C 418.393 -1.93877 0.208963 0
M  V30 4354 O 417.663 -1.80234 -0.767619 0
M  V30 4355 H 416.243 -0.484894 0.568231 0
M  V30 4356 H 418.905 -0.643402 1.83974 0
M  V30 4357 H 418.001 -2.09621 2.31226 0
M  V30 4358 N 418.302 -1.35869 -0.798587 0
M  V30 4359 C 419.252 -1.25982 -1.90033 0
M  V30 4360 C 420.236 -0.153303 -1.60168 0
M  V30 4361 O 421.428 -0.38527 -1.72756 0
M  V30 4362 C 418.557 -1.04211 -3.27101 0
M  V30 4363 C 417.643 -2.19289 -3.63006 0
M  V30 4364 N 418.034 -3.44559 -3.70287 0
M  V30 4365 C 416.332 -2.10852 -3.93011 0
M  V30 4366 C 417.033 -4.20283 -4.02166 0
M  V30 4367 N 416.009 -3.49124 -4.16669 0
M  V30 4368 H 419.811 -2.20883 -1.93876 0
M  V30 4369 H 417.325 -1.28457 -0.993614 0
M  V30 4370 H 419.322 -0.952155 -4.05881 0
M  V30 4371 H 417.982 -0.102013 -3.2454 0
M  V30 4372 H 418.993 -3.7881 -3.53162 0
M  V30 4373 H 415.67 -1.24744 -3.98428 0
M  V30 4374 H 417.06 -5.28575 -4.14799 0
M  V30 4375 N 419.78 1.02168 -1.19998 0
M  V30 4376 C 420.727 2.10601 -0.944228 0
M  V30 4377 C 421.697 1.65639 0.123664 0
M  V30 4378 O 422.882 1.9079 -0.0199941 0
M  V30 4379 C 420.022 3.41504 -0.496865 0
M  V30 4380 C 419.135 3.99973 -1.63234 0
M  V30 4381 C 418.27 5.18915 -1.13579 0
M  V30 4382 C 417.309 5.69456 -2.24468 0
M  V30 4383 N 416.446 6.79665 -1.76068 0
M  V30 4384 H 421.286 2.31814 -1.8726 0
M  V30 4385 H 418.823 1.13686 -0.933483 0
M  V30 4386 H 420.781 4.16626 -0.218843 0
M  V30 4387 H 419.411 3.2038 0.394508 0
M  V30 4388 H 418.463 3.21997 -2.0254 0
M  V30 4389 H 419.775 4.33492 -2.46752 0
M  V30 4390 H 418.929 6.01222 -0.813429 0
M  V30 4391 H 417.668 4.8695 -0.270434 0
M  V30 4392 H 416.673 4.85757 -2.57526 0
M  V30 4393 H 417.898 6.03459 -3.11472 0
M  V30 4394 H 415.844 6.49538 -0.918516 0
M  V30 4395 H 415.761 7.12349 -2.5317 0
M  V30 4396 H 417.029 7.65549 -1.46817 0
M  V30 4397 N 421.258 1.00505 1.21394 0
M  V30 4398 C 422.669 0.721082 1.72213 0
M  V30 4399 C 423.02 -0.761263 1.80829 0
M  V30 4400 O 422.145 -1.59464 1.46288 0
M  V30 4401 C 422.74 1.30228 3.12772 0
M  V30 4402 C 421.299 1.06743 3.60947 0
M  V30 4403 C 420.446 1.41507 2.38477 0
M  V30 4404 H 423.397 1.17594 1.06571 0
M  V30 4405 H 423.418 0.686955 3.74247 0
M  V30 4406 H 422.93 2.38115 3.06468 0
M  V30 4407 H 421.031 0.00572162 3.726 0
M  V30 4408 H 421.144 1.73936 4.46411 0
M  V30 4409 H 419.508 0.833852 2.40664 0
M  V30 4410 H 420.291 2.50424 2.34824 0
M  V30 4411 N 422.737 -1.36956 0.779787 0
M  V30 4412 C 423.986 -1.98738 0.344405 0
M  V30 4413 C 424.299 -1.62596 -1.08728 0
M  V30 4414 O 425.505 -2.1754 -1.62445 0
M  V30 4415 C 423.961 -3.5544 0.564829 0
M  V30 4416 C 423.569 -4.00514 2.0073 0
M  V30 4417 C 425.313 -4.24059 0.193471 0
M  V30 4418 C 423.22 -5.49957 2.17489 0
M  V30 4419 H 422.15 -0.743561 0.12503 0
M  V30 4420 H 424.801 -1.56381 0.960057 0
M  V30 4421 H 423.183 -3.95817 -0.120397 0
M  V30 4422 H 424.357 -3.71362 2.72814 0
M  V30 4423 H 422.672 -3.44703 2.336 0
M  V30 4424 H 425.269 -5.33874 0.297097 0
M  V30 4425 H 425.612 -4.07378 -0.857263 0
M  V30 4426 H 426.145 -3.89012 0.831556 0
M  V30 4427 H 422.884 -5.71574 3.2091 0
M  V30 4428 H 422.404 -5.80767 1.49899 0
M  V30 4429 H 424.083 -6.16043 1.97738 0
M  V30 4430 N 424.215 -0.530993 -1.48385 0
M  V30 4431 C 425.145 0.219985 -2.32461 0
M  V30 4432 C 426.126 0.934111 -1.42156 0
M  V30 4433 O 427.311 0.919694 -1.71042 0
M  V30 4434 C 424.441 1.26674 -3.23375 0
M  V30 4435 C 423.395 0.67069 -4.22712 0
M  V30 4436 C 422.721 1.82017 -5.02766 0
M  V30 4437 C 424.021 -0.358268 -5.2107 0
M  V30 4438 H 425.715 -0.48187 -2.95497 0
M  V30 4439 H 423.261 -0.233182 -1.42099 0
M  V30 4440 H 425.214 1.80006 -3.81019 0
M  V30 4441 H 423.938 1.99818 -2.58341 0
M  V30 4442 H 422.597 0.158878 -3.66256 0
M  V30 4443 H 422.245 2.54002 -4.34157 0
M  V30 4444 H 421.945 1.42727 -5.70003 0
M  V30 4445 H 423.469 2.35725 -5.63264 0
M  V30 4446 H 424.883 0.0880081 -5.73232 0
M  V30 4447 H 423.28 -0.66861 -5.96364 0
M  V30 4448 H 424.35 -1.26367 -4.68145 0
M  V30 4449 N 425.693 1.55336 -0.266172 0
M  V30 4450 C 426.603 2.2583 0.635458 0
M  V30 4451 C 427.619 1.28106 1.17749 0
M  V30 4452 O 428.795 1.61024 1.20968 0
M  V30 4453 C 425.86 2.95879 1.80712 0
M  V30 4454 C 424.921 4.09059 1.30265 0
M  V30 4455 C 424.154 4.75759 2.41846 0
M  V30 4456 O 424.377 4.41622 3.61007 0
M  V30 4457 O 423.311 5.63888 2.1051 0
M  V30 4458 H 427.137 3.03631 0.0646693 0
M  V30 4459 H 424.722 1.49361 -0.0339177 0
M  V30 4460 H 426.604 3.39932 2.49047 0
M  V30 4461 H 425.279 2.21002 2.36516 0
M  V30 4462 H 424.186 3.69482 0.586019 0
M  V30 4463 H 425.519 4.85811 0.790458 0
M  V30 4464 N 427.171 -0.0066808 1.57599 0
M  V30 4465 C 428.134 -0.985035 2.06953 0
M  V30 4466 C 429.134 -1.27663 0.977687 0
M  V30 4467 O 430.324 -1.22293 1.24057 0
M  V30 4468 C 427.456 -2.3118 2.50536 0
M  V30 4469 H 428.649 -0.558255 2.94658 0
M  V30 4470 H 426.202 -0.254011 1.54222 0
M  V30 4471 H 426.937 -2.78561 1.66054 0
M  V30 4472 H 426.722 -2.11338 3.3027 0
M  V30 4473 H 428.212 -3.01377 2.8907 0
M  V30 4474 N 428.649 -1.55105 -0.279332 0
M  V30 4475 C 429.612 -1.86783 -1.32834 0
M  V30 4476 C 430.612 -0.74199 -1.42657 0
M  V30 4477 O 431.802 -1.0102 -1.41918 0
M  V30 4478 C 428.934 -2.06746 -2.71052 0
M  V30 4479 H 430.127 -2.8055 -1.05979 0
M  V30 4480 H 427.68 -1.47499 -0.517087 0
M  V30 4481 H 428.415 -1.15339 -3.03097 0
M  V30 4482 H 428.2 -2.88711 -2.65309 0
M  V30 4483 H 429.69 -2.32549 -3.46858 0
M  V30 4484 N 430.127 0.543554 -1.4793 0
M  V30 4485 C 431.057 1.65888 -1.64327 0
M  V30 4486 C 432.038 1.62818 -0.492383 0
M  V30 4487 O 433.223 1.80226 -0.723338 0
M  V30 4488 C 430.353 3.04506 -1.67013 0
M  V30 4489 C 429.307 3.2243 -2.81466 0
M  V30 4490 C 428.633 4.61972 -2.69233 0
M  V30 4491 C 429.933 3.06496 -4.22915 0
M  V30 4492 H 431.627 1.52421 -2.57698 0
M  V30 4493 H 429.173 0.731849 -1.24016 0
M  V30 4494 H 431.126 3.82391 -1.77074 0
M  V30 4495 H 429.85 3.18964 -0.70212 0
M  V30 4496 H 428.509 2.46957 -2.70938 0
M  V30 4497 H 428.157 4.73247 -1.7043 0
M  V30 4498 H 427.857 4.74911 -3.46025 0
M  V30 4499 H 429.381 5.41974 -2.81242 0
M  V30 4500 H 430.795 3.74186 -4.34348 0
M  V30 4501 H 429.192 3.30938 -5.006 0
M  V30 4502 H 430.262 2.03077 -4.40327 0
M  V30 4503 N 431.605 1.3629 0.791371 0
M  V30 4504 C 432.568 1.30309 1.88553 0
M  V30 4505 C 433.568 0.211204 1.59407 0
M  V30 4506 O 434.758 0.465865 1.67855 0
M  V30 4507 C 431.89 1.01956 3.25297 0
M  V30 4508 H 433.083 2.27614 1.95273 0
M  V30 4509 H 430.636 1.21035 0.988953 0
M  V30 4510 H 431.371 0.050998 3.2426 0
M  V30 4511 H 431.156 1.80968 3.4784 0
M  V30 4512 H 432.646 1.0037 4.05359 0
M  V30 4513 N 433.083 -1.0153 1.20538 0
M  V30 4514 C 434.046 -2.0826 0.957098 0
M  V30 4515 C 435.046 -1.60657 -0.0678655 0
M  V30 4516 O 436.236 -1.73385 0.168332 0
M  V30 4517 C 433.368 -3.38033 0.441188 0
M  V30 4518 H 434.561 -2.31719 1.90384 0
M  V30 4519 H 432.114 -1.1835 1.02093 0
M  V30 4520 H 432.849 -3.20249 -0.510961 0
M  V30 4521 H 432.634 -3.73911 1.18038 0
M  V30 4522 H 434.124 -4.16613 0.287009 0
M  V30 4523 N 434.561 -1.01147 -1.20859 0
M  V30 4524 C 435.471 -0.58686 -2.27141 0
M  V30 4525 C 436.487 0.373198 -1.69951 0
M  V30 4526 O 437.663 0.235423 -2.00019 0
M  V30 4527 C 434.728 0.0733602 -3.46622 0
M  V30 4528 C 433.789 -0.931995 -4.19061 0
M  V30 4529 C 433.022 -0.303186 -5.32838 0
M  V30 4530 O 433.245 0.898395 -5.63281 0
M  V30 4531 O 432.179 -1.01735 -5.9324 0
M  V30 4532 H 436.005 -1.47155 -2.65667 0
M  V30 4533 H 433.59 -0.780689 -1.2738 0
M  V30 4534 H 435.472 0.442333 -4.19072 0
M  V30 4535 H 434.147 0.932329 -3.09983 0
M  V30 4536 H 433.054 -1.35224 -3.48805 0
M  V30 4537 H 434.387 -1.76076 -4.59628 0
M  V30 4538 N 436.039 1.36541 -0.78704 0
M  V30 4539 C 436.972 2.27831 -0.129765 0
M  V30 4540 C 437.95 1.47105 0.692732 0
M  V30 4541 O 439.134 1.7641 0.664222 0
M  V30 4542 C 436.261 3.28577 0.821883 0
M  V30 4543 C 435.307 4.26422 0.0814771 0
M  V30 4544 S 436.14 5.20919 -1.24112 0
M  V30 4545 C 437.296 6.25212 -0.293409 0
M  V30 4546 H 437.529 2.83229 -0.903811 0
M  V30 4547 H 435.062 1.43046 -0.581144 0
M  V30 4548 H 437.02 3.87123 1.3655 0
M  V30 4549 H 435.681 2.72096 1.56916 0
M  V30 4550 H 434.874 4.97554 0.803485 0
M  V30 4551 H 434.476 3.71944 -0.391589 0
M  V30 4552 H 436.768 6.75435 0.528622 0
M  V30 4553 H 437.711 7.01378 -0.973344 0
M  V30 4554 H 438.119 5.64407 0.102196 0
M  V30 4555 N 437.518 0.538854 1.48102 0
M  V30 4556 C 438.448 -0.207654 2.32575 0
M  V30 4557 C 439.429 -0.926559 1.4265 0
M  V30 4558 O 440.614 -0.91061 1.71527 0
M  V30 4559 C 437.744 -1.24957 3.24042 0
M  V30 4560 C 436.698 -0.648263 4.23062 0
M  V30 4561 C 436.024 -1.79348 5.03725 0
M  V30 4562 C 437.324 0.385897 5.20872 0
M  V30 4563 H 439.018 0.497534 2.95237 0
M  V30 4564 H 436.564 0.240715 1.41974 0
M  V30 4565 H 438.517 -1.77983 3.81969 0
M  V30 4566 H 437.241 -1.98446 2.59397 0
M  V30 4567 H 435.9 -0.139452 3.66335 0
M  V30 4568 H 435.548 -2.51696 4.35498 0
M  V30 4569 H 435.248 -1.39702 5.70751 0
M  V30 4570 H 436.772 -2.32735 5.64506 0
M  V30 4571 H 438.186 -0.057607 5.73271 0
M  V30 4572 H 436.583 0.700227 5.96001 0
M  V30 4573 H 437.653 1.28848 4.67468 0
M  V30 4574 N 438.996 -1.55193 0.274407 0
M  V30 4575 C 440.412 -1.59401 -0.0797543 0
M  V30 4576 C 440.612 -1.29162 -1.54659 0
M  V30 4577 O 439.668 -1.05215 -2.29534 0
M  V30 4578 C 440.981 -2.99257 0.294238 0
M  V30 4579 C 442.529 -3.12072 0.240796 0
M  V30 4580 C 443.004 -4.54194 0.589218 0
M  V30 4581 N 444.495 -4.60033 0.540744 0
M  V30 4582 C 445.23 -5.68027 0.783147 0
M  V30 4583 N 444.726 -6.8417 1.09013 0
M  V30 4584 N 446.519 -5.57572 0.711993 0
M  V30 4585 H 438.67 -1.73113 1.23067 0
M  V30 4586 H 440.933 -0.807197 0.497129 0
M  V30 4587 H 440.639 -3.26217 1.31435 0
M  V30 4588 H 440.513 -3.75427 -0.365281 0
M  V30 4589 H 442.9 -2.84877 -0.770024 0
M  V30 4590 H 442.981 -2.38117 0.934563 0
M  V30 4591 H 442.625 -4.82115 1.59772 0
M  V30 4592 H 442.555 -5.26448 -0.126331 0
M  V30 4593 H 445.046 -3.76599 0.313327 0
M  V30 4594 H 445.359 -7.6243 1.26178 0
M  V30 4595 H 443.704 -6.85787 1.12789 0
M  V30 4596 H 446.895 -4.65714 0.472014 0
M  V30 4597 H 447.068 -6.41659 0.90429 0
M  V30 4598 N 440.474 -0.00167713 -1.576 0
M  V30 4599 C 441.437 0.974046 -2.07473 0
M  V30 4600 C 442.437 1.27143 -0.984444 0
M  V30 4601 O 443.627 1.21633 -1.24703 0
M  V30 4602 C 440.759 2.29849 -2.51759 0
M  V30 4603 H 441.952 0.54262 -2.9495 0
M  V30 4604 H 439.505 0.245829 -1.54355 0
M  V30 4605 H 440.24 2.77677 -1.67529 0
M  V30 4606 H 440.025 2.09584 -3.31386 0
M  V30 4607 H 441.515 2.9984 -2.90664 0
M  V30 4608 N 441.952 1.55251 0.271103 0
M  V30 4609 C 443.198 1.76207 1.00394 0
M  V30 4610 C 443.531 0.562604 1.85872 0
M  V30 4611 O 442.806 -0.439785 1.89463 0
M  V30 4612 C 443.089 3.06828 1.8849 0
M  V30 4613 C 442.942 4.37134 1.05992 0
M  V30 4614 C 444.261 3.33503 2.87165 0
M  V30 4615 H 441.38 0.641086 0.363562 0
M  V30 4616 H 444.022 1.87982 0.276189 0
M  V30 4617 H 442.172 2.96921 2.5054 0
M  V30 4618 H 443.844 4.59001 0.459978 0
M  V30 4619 H 442.087 4.32275 0.363443 0
M  V30 4620 H 442.758 5.2486 1.70955 0
M  V30 4621 H 445.234 3.43215 2.3525 0
M  V30 4622 H 444.11 4.2616 3.45946 0
M  V30 4623 H 444.371 2.53235 3.62387 0
M  V30 4624 N 443.43 -0.535701 1.48216 0
M  V30 4625 C 444.678 -1.28928 1.55634 0
M  V30 4626 C 444.999 -1.93645 0.229514 0
M  V30 4627 O 444.269 -1.81038 -0.74846 0
M  V30 4628 H 442.849 -0.47884 0.573342 0
M  V30 4629 H 445.511 -0.623853 1.84646 0
M  V30 4630 H 444.607 -2.07157 2.33436 0
M  V30 4631 N 444.908 -1.36708 -0.784132 0
M  V30 4632 C 446.154 -1.32433 -1.54379 0
M  V30 4633 C 446.509 0.0941816 -1.92169 0
M  V30 4634 O 445.802 1.04997 -1.60269 0
M  V30 4635 C 445.996 -2.18571 -2.82774 0
M  V30 4636 C 445.825 -3.68656 -2.57533 0
M  V30 4637 C 444.595 -4.37813 -2.52286 0
M  V30 4638 C 446.793 -4.61802 -2.2637 0
M  V30 4639 N 444.775 -5.7351 -2.18997 0
M  V30 4640 C 446.146 -5.85785 -2.03115 0
M  V30 4641 C 448.201 -4.50313 -2.12421 0
M  V30 4642 C 446.904 -6.99569 -1.67321 0
M  V30 4643 C 448.93 -5.63969 -1.78026 0
M  V30 4644 C 448.292 -6.86994 -1.55622 0
M  V30 4645 H 444.391 -0.539886 -0.565727 0
M  V30 4646 H 446.975 -1.71812 -0.915908 0
M  V30 4647 H 445.146 -1.81429 -3.43421 0
M  V30 4648 H 446.878 -2.05646 -3.48557 0
M  V30 4649 H 443.633 -3.90674 -2.67714 0
M  V30 4650 H 444.057 -6.45189 -2.05084 0
M  V30 4651 H 448.699 -3.55781 -2.28429 0
M  V30 4652 H 446.417 -7.94047 -1.5005 0
M  V30 4653 H 450.003 -5.57044 -1.67909 0
M  V30 4654 H 448.883 -7.7345 -1.294 0
M  V30 4655 N 446.386 1.0089 -1.21074 0
M  V30 4656 C 447.611 1.78727 -1.05221 0
M  V30 4657 C 448.036 1.83932 0.393795 0
M  V30 4658 O 447.394 1.28004 1.28393 0
M  V30 4659 C 447.442 3.20665 -1.64944 0
M  V30 4660 O 446.546 4.02632 -0.892273 0
M  V30 4661 H 445.887 0.550973 -0.370574 0
M  V30 4662 H 448.417 1.26847 -1.60534 0
M  V30 4663 H 448.427 3.71352 -1.69002 0
M  V30 4664 H 447.102 3.16191 -2.70177 0
M  V30 4665 H 445.679 3.61207 -0.926492 0
M  V30 4666 N 447.864 1.01787 1.20321 0
M  V30 4667 C 449.092 0.727194 1.937 0
M  V30 4668 C 449.507 -0.712305 1.74848 0
M  V30 4669 O 448.864 -1.48327 1.06327 0
M  V30 4670 C 448.915 1.05497 3.45764 0
M  V30 4671 O 448.636 2.43794 3.64 0
M  V30 4672 C 450.137 0.785534 4.36285 0
M  V30 4673 H 447.357 0.266939 0.615617 0
M  V30 4674 H 449.901 1.35939 1.52777 0
M  V30 4675 H 448.056 0.468158 3.84561 0
M  V30 4676 H 448.47 2.55656 4.57974 0
M  V30 4677 H 449.944 1.06495 5.4163 0
M  V30 4678 H 450.421 -0.280273 4.38305 0
M  V30 4679 H 451.027 1.35456 4.03152 0
M  V30 4680 N 449.342 -1.36122 0.79427 0
M  V30 4681 C 450.567 -2.03891 0.379871 0
M  V30 4682 C 450.992 -1.59488 -0.997251 0
M  V30 4683 O 450.35 -0.765652 -1.64339 0
M  V30 4684 C 450.398 -3.57687 0.457442 0
M  V30 4685 O 449.502 -4.08931 -0.5338 0
M  V30 4686 H 448.843 -0.6443 0.160541 0
M  V30 4687 H 451.373 -1.73976 1.07673 0
M  V30 4688 H 451.383 -4.06721 0.322792 0
M  V30 4689 H 450.058 -3.89357 1.46199 0
M  V30 4690 H 448.635 -3.71154 -0.360409 0
M  V30 4691 N 450.82 -0.546701 -1.47814 0
M  V30 4692 C 452.066 -0.0187684 -2.02791 0
M  V30 4693 C 452.399 1.32338 -1.42128 0
M  V30 4694 O 451.674 1.85867 -0.573023 0
M  V30 4695 C 451.957 0.0854985 -3.59998 0
M  V30 4696 C 451.81 -1.283 -4.31114 0
M  V30 4697 C 453.129 0.80412 -4.32691 0
M  V30 4698 H 450.248 -0.0082946 -0.736953 0
M  V30 4699 H 452.89 -0.706962 -1.76358 0
M  V30 4700 H 451.04 0.671609 -3.82651 0
M  V30 4701 H 452.712 -1.91151 -4.19832 0
M  V30 4702 H 450.955 -1.86049 -3.91878 0
M  V30 4703 H 451.626 -1.16287 -5.39612 0
M  V30 4704 H 454.102 0.306576 -4.14969 0
M  V30 4705 H 452.978 0.846011 -5.42341 0
M  V30 4706 H 453.239 1.85802 -4.01161 0
M  V30 4707 N 452.299 1.55045 -0.282633 0
M  V30 4708 C 453.545 2.00056 0.332481 0
M  V30 4709 C 453.878 1.1708 1.54939 0
M  V30 4710 O 453.153 0.2427 1.9298 0
M  V30 4711 C 453.436 3.53086 0.70725 0
M  V30 4712 C 453.289 4.46813 -0.517521 0
M  V30 4713 C 454.608 4.12245 1.54084 0
M  V30 4714 H 451.727 0.727268 0.119373 0
M  V30 4715 H 454.369 1.85932 -0.391076 0
M  V30 4716 H 452.519 3.65253 1.32372 0
M  V30 4717 H 454.191 4.46579 -1.15607 0
M  V30 4718 H 452.434 4.18163 -1.1542 0
M  V30 4719 H 453.105 5.51595 -0.211426 0
M  V30 4720 H 455.581 4.03401 1.02013 0
M  V30 4721 H 454.457 5.19515 1.77186 0
M  V30 4722 H 454.718 3.62951 2.52427 0
M  V30 4723 N 453.777 0.010035 1.57597 0
M  V30 4724 C 454.727 -0.986858 2.05536 0
M  V30 4725 C 455.711 -1.29711 0.952042 0
M  V30 4726 O 456.903 -1.28641 1.21575 0
M  V30 4727 C 454.032 -2.2756 2.57043 0
M  V30 4728 C 453.118 -1.99455 3.74271 0
M  V30 4729 N 453.509 -1.41546 4.85591 0
M  V30 4730 C 451.807 -2.29547 3.82393 0
M  V30 4731 C 452.508 -1.3014 5.66956 0
M  V30 4732 N 451.484 -1.79044 5.13268 0
M  V30 4733 H 455.286 -0.533778 2.89012 0
M  V30 4734 H 452.8 -0.195432 1.6122 0
M  V30 4735 H 454.797 -2.99829 2.89669 0
M  V30 4736 H 453.457 -2.73512 1.7499 0
M  V30 4737 H 454.468 -1.09294 5.06236 0
M  V30 4738 H 451.145 -2.78304 3.11213 0
M  V30 4739 H 452.535 -0.855237 6.66435 0
M  V30 4740 N 455.255 -1.55392 -0.262866 0
M  V30 4741 C 456.666 -1.67079 -0.833158 0
M  V30 4742 C 457.017 -0.604539 -1.86654 0
M  V30 4743 O 456.142 0.252138 -2.14926 0
M  V30 4744 C 456.737 -3.02891 -1.51797 0
M  V30 4745 C 455.296 -3.16571 -2.03617 0
M  V30 4746 C 454.443 -2.62909 -0.881701 0
M  V30 4747 H 457.394 -1.58652 -0.0389986 0
M  V30 4748 H 457.415 -2.96445 -2.38538 0
M  V30 4749 H 456.927 -3.80473 -0.765619 0
M  V30 4750 H 455.028 -2.43782 -2.81782 0
M  V30 4751 H 455.141 -4.23271 -2.24452 0
M  V30 4752 H 453.505 -2.20324 -1.27786 0
M  V30 4753 H 454.288 -3.43003 -0.14269 0
M  V30 4754 N 456.733 0.527833 -1.48498 0
M  V30 4755 C 457.643 1.65907 -1.65867 0
M  V30 4756 C 458.659 1.6537 -0.541192 0
M  V30 4757 O 459.835 1.84282 -0.812534 0
M  V30 4758 C 456.9 3.02364 -1.69637 0
M  V30 4759 C 455.961 3.1374 -2.93028 0
M  V30 4760 C 455.194 4.43688 -2.96609 0
M  V30 4761 O 455.417 5.30913 -2.08538 0
M  V30 4762 O 454.351 4.59475 -3.88802 0
M  V30 4763 H 458.177 1.5419 -2.61647 0
M  V30 4764 H 455.762 0.701163 -1.31924 0
M  V30 4765 H 457.644 3.83515 -1.74625 0
M  V30 4766 H 456.319 3.14401 -0.770312 0
M  V30 4767 H 455.226 2.31877 -2.93571 0
M  V30 4768 H 456.559 3.06621 -3.85026 0
M  V30 4769 N 458.211 1.37122 0.776871 0
M  V30 4770 C 459.436 1.354 1.57104 0
M  V30 4771 C 459.861 -0.0595562 1.88006 0
M  V30 4772 O 459.219 -1.03514 1.48844 0
M  V30 4773 C 459.267 2.19472 2.8612 0
M  V30 4774 O 458.371 1.59582 3.80273 0
M  V30 4775 H 457.712 0.462869 0.476076 0
M  V30 4776 H 460.242 1.80577 0.961932 0
M  V30 4777 H 460.252 2.32502 3.35271 0
M  V30 4778 H 458.927 3.22222 2.62956 0
M  V30 4779 H 457.504 1.55564 3.38902 0
M  V30 4780 N 459.689 -1.00246 1.21608 0
M  V30 4781 C 460.935 -1.74319 1.03638 0
M  V30 4782 C 461.268 -1.89408 -0.428749 0
M  V30 4783 O 460.543 -1.43026 -1.3181 0
M  V30 4784 C 460.826 -3.15431 1.73711 0
M  V30 4785 C 460.679 -3.08049 3.27759 0
M  V30 4786 C 461.998 -4.14407 1.48173 0
M  V30 4787 H 459.117 -0.632741 0.377899 0
M  V30 4788 H 461.759 -1.16853 1.49818 0
M  V30 4789 H 459.909 -3.64493 1.34452 0
M  V30 4790 H 461.581 -2.66681 3.76403 0
M  V30 4791 H 459.824 -2.45088 3.57931 0
M  V30 4792 H 460.495 -4.07862 3.71958 0
M  V30 4793 H 462.971 -3.74061 1.82258 0
M  V30 4794 H 461.847 -5.11279 1.99713 0
M  V30 4795 H 462.108 -4.40174 0.412273 0
M  V30 4796 N 461.167 -1.02423 -1.1978 0
M  V30 4797 C 462.13 -0.605703 -2.21052 0
M  V30 4798 C 463.13 0.328209 -1.57415 0
M  V30 4799 O 464.32 0.115853 -1.73814 0
M  V30 4800 C 461.452 0.114366 -3.40708 0
M  V30 4801 H 462.645 -1.5017 -2.59594 0
M  V30 4802 H 460.198 -0.814888 -1.33376 0
M  V30 4803 H 460.933 1.02492 -3.07678 0
M  V30 4804 H 460.718 -0.556641 -3.88129 0
M  V30 4805 H 462.208 0.394272 -4.15735 0
M  V30 4806 N 462.645 1.35699 -0.801477 0
M  V30 4807 C 463.608 2.28199 -0.213994 0
M  V30 4808 C 464.608 1.49359 0.595691 0
M  V30 4809 O 465.798 1.69186 0.414921 0
M  V30 4810 C 462.93 3.33587 0.702297 0
M  V30 4811 H 464.123 2.81666 -1.02976 0
M  V30 4812 H 461.676 1.45467 -0.571759 0
M  V30 4813 H 462.411 2.85297 1.54195 0
M  V30 4814 H 462.196 3.91906 0.123484 0
M  V30 4815 H 463.686 4.02638 1.10783 0
M  V30 4816 N 464.123 0.554532 1.47522 0
M  V30 4817 C 465.053 -0.182974 2.32782 0
M  V30 4818 C 466.034 -0.911377 1.43624 0
M  V30 4819 O 467.219 -0.892366 1.72483 0
M  V30 4820 C 464.349 -1.21513 3.25349 0
M  V30 4821 C 463.303 -0.603355 4.23726 0
M  V30 4822 C 462.629 -1.73995 5.05598 0
M  V30 4823 C 463.929 0.441121 5.20434 0
M  V30 4824 H 465.623 0.52882 2.94693 0
M  V30 4825 H 463.169 0.255759 1.41711 0
M  V30 4826 H 465.122 -1.73922 3.83835 0
M  V30 4827 H 463.846 -1.95683 2.61487 0
M  V30 4828 H 462.505 -0.10059 3.66462 0
M  V30 4829 H 462.153 -2.47063 4.38143 0
M  V30 4830 H 461.853 -1.3364 5.72201 0
M  V30 4831 H 463.377 -2.26735 5.66942 0
M  V30 4832 H 464.791 0.00319931 5.733 0
M  V30 4833 H 463.188 0.763402 5.95224 0
M  V30 4834 H 464.258 1.33799 4.66075 0
M  V30 4835 N 465.601 -1.54893 0.290851 0
M  V30 4836 C 466.564 -2.21824 -0.576784 0
M  V30 4837 C 467.564 -1.20104 -1.06919 0
M  V30 4838 O 468.754 -1.44906 -0.966843 0
M  V30 4839 C 465.886 -2.89662 -1.79747 0
M  V30 4840 H 467.079 -2.99899 0.00784051 0
M  V30 4841 H 464.632 -1.56245 0.0415934 0
M  V30 4842 H 465.367 -2.15639 -2.42219 0
M  V30 4843 H 465.152 -3.64219 -1.45214 0
M  V30 4844 H 466.642 -3.4075 -2.4141 0
M  V30 4845 N 467.08 -0.0183926 -1.57589 0
M  V30 4846 C 468.043 0.951986 -2.08494 0
M  V30 4847 C 469.043 1.26092 -0.997874 0
M  V30 4848 O 470.233 1.20304 -1.25987 0
M  V30 4849 C 467.365 2.27165 -2.54182 0
M  V30 4850 H 468.558 0.511307 -2.95509 0
M  V30 4851 H 466.111 0.229444 -1.54607 0
M  V30 4852 H 466.846 2.75884 -1.70465 0
M  V30 4853 H 466.631 2.06057 -3.33591 0
M  V30 4854 H 468.121 2.9674 -2.93828 0
M  V30 4855 N 468.558 1.5553 0.254621 0
M  V30 4856 C 469.974 1.4778 0.602753 0
M  V30 4857 C 470.174 0.707047 1.88688 0
M  V30 4858 O 469.23 0.233288 2.5142 0
M  V30 4859 C 470.543 2.92133 0.712648 0
M  V30 4860 C 472.091 3.02458 0.805488 0
M  V30 4861 C 472.566 4.48102 0.947009 0
M  V30 4862 N 474.057 4.52008 1.01207 0
M  V30 4863 C 474.792 5.61939 1.1407 0
M  V30 4864 N 474.288 6.81697 1.23536 0
M  V30 4865 N 476.081 5.49719 1.17325 0
M  V30 4866 H 468.232 2.04085 -0.588463 0
M  V30 4867 H 470.495 0.926229 -0.202001 0
M  V30 4868 H 470.201 3.51332 -0.160766 0
M  V30 4869 H 470.075 3.42187 1.58707 0
M  V30 4870 H 472.462 2.43344 1.66936 0
M  V30 4871 H 472.543 2.55627 -0.0939266 0
M  V30 4872 H 472.187 5.07824 0.087725 0
M  V30 4873 H 472.117 4.92607 1.86135 0
M  V30 4874 H 474.608 3.65749 0.950577 0
M  V30 4875 H 474.921 7.61228 1.33236 0
M  V30 4876 H 473.266 6.84473 1.20508 0
M  V30 4877 H 476.457 4.55095 1.09573 0
M  V30 4878 H 476.63 6.35432 1.27005 0
M  V30 4879 N 470.036 -0.519951 1.48776 0
M  V30 4880 C 470.966 -1.63253 1.66945 0
M  V30 4881 C 471.947 -1.62014 0.518224 0
M  V30 4882 O 473.132 -1.79053 0.751919 0
M  V30 4883 C 470.262 -3.0181 1.71836 0
M  V30 4884 C 469.216 -3.17911 2.8656 0
M  V30 4885 C 468.542 -4.5763 2.76548 0
M  V30 4886 C 469.842 -2.99729 4.27738 0
M  V30 4887 H 471.536 -1.48302 2.6009 0
M  V30 4888 H 469.082 -0.712026 1.25165 0
M  V30 4889 H 471.035 -3.79525 1.83135 0
M  V30 4890 H 469.759 -3.17806 0.752775 0
M  V30 4891 H 468.418 -2.42616 2.74833 0
M  V30 4892 H 468.066 -4.70476 1.77937 0
M  V30 4893 H 467.766 -4.69346 3.53536 0
M  V30 4894 H 469.29 -5.37431 2.89828 0
M  V30 4895 H 470.704 -3.67228 4.40246 0
M  V30 4896 H 469.101 -3.22932 5.05801 0
M  V30 4897 H 470.171 -1.96047 4.43502 0
M  V30 4898 N 471.514 -1.37532 -0.769588 0
M  V30 4899 C 472.461 -1.3347 -1.88293 0
M  V30 4900 C 473.431 -0.199891 -1.64893 0
M  V30 4901 O 474.616 -0.389594 -1.8678 0
M  V30 4902 C 471.756 -1.14968 -3.25387 0
M  V30 4903 C 470.869 -2.37698 -3.60727 0
M  V30 4904 C 470.004 -2.12051 -4.8704 0
M  V30 4905 C 469.043 -3.30636 -5.15117 0
M  V30 4906 N 468.18 -3.04527 -6.3262 0
M  V30 4907 H 473.02 -2.28658 -1.911 0
M  V30 4908 H 470.557 -1.13622 -0.934257 0
M  V30 4909 H 472.515 -1.02261 -4.04473 0
M  V30 4910 H 471.145 -0.234263 -3.21949 0
M  V30 4911 H 470.197 -2.61137 -2.76608 0
M  V30 4912 H 471.509 -3.26131 -3.77413 0
M  V30 4913 H 470.663 -1.96388 -5.74035 0
M  V30 4914 H 469.402 -1.20959 -4.72462 0
M  V30 4915 H 468.407 -3.46836 -4.26597 0
M  V30 4916 H 469.632 -4.22582 -5.31603 0
M  V30 4917 H 467.578 -2.16067 -6.19396 0
M  V30 4918 H 467.495 -3.86503 -6.49732 0
M  V30 4919 H 468.763 -2.92485 -7.22546 0
M  V30 4920 N 472.992 0.995999 -1.22138 0
M  V30 4921 C 474.22 1.77066 -1.07029 0
M  V30 4922 C 474.635 1.8495 0.379357 0
M  V30 4923 O 473.992 1.3174 1.26297 0
M  V30 4924 C 474.043 3.20533 -1.67155 0
M  V30 4925 O 473.764 3.13082 -3.06449 0
M  V30 4926 C 475.265 4.14461 -1.5728 0
M  V30 4927 H 472.485 0.556179 -0.375374 0
M  V30 4928 H 475.029 1.25238 -1.61666 0
M  V30 4929 H 473.184 3.6944 -1.16589 0
M  V30 4930 H 473.598 4.03283 -3.35355 0
M  V30 4931 H 475.072 5.1289 -2.04078 0
M  V30 4932 H 475.549 4.36005 -0.528795 0
M  V30 4933 H 476.155 3.71449 -2.07136 0
M  V30 4934 N 474.47 1.03057 1.19235 0
M  V30 4935 C 475.695 0.74757 1.93458 0
M  V30 4936 C 476.12 -0.687648 1.7508 0
M  V30 4937 O 475.478 -1.47499 1.05422 0
M  V30 4938 C 475.526 1.10604 3.43219 0
M  V30 4939 O 474.63 0.225671 4.11782 0
M  V30 4940 H 473.971 0.276047 0.603899 0
M  V30 4941 H 476.501 1.3777 1.51263 0
M  V30 4942 H 476.511 1.06366 3.93891 0
M  V30 4943 H 475.186 2.15165 3.55917 0
M  V30 4944 H 473.763 0.326795 3.71465 0
M  V30 4945 N 475.948 -1.35272 0.808662 0
M  V30 4946 C 477.364 -1.51806 0.492653 0
M  V30 4947 C 477.564 -1.7574 -0.985778 0
M  V30 4948 O 476.62 -1.80003 -1.77074 0
M  V30 4949 C 477.933 -2.69202 1.33981 0
M  V30 4950 C 479.481 -2.8308 1.33547 0
M  V30 4951 C 479.956 -4.03502 2.16679 0
M  V30 4952 N 481.447 -4.10684 2.14227 0
M  V30 4953 C 482.182 -5.02984 2.75308 0
M  V30 4954 N 481.678 -6.00603 3.45323 0
M  V30 4955 N 483.471 -4.95746 2.64938 0
M  V30 4956 H 475.622 -1.17993 1.76611 0
M  V30 4957 H 477.885 -0.577476 0.751814 0
M  V30 4958 H 477.591 -2.581 2.38909 0
M  V30 4959 H 477.465 -3.63854 0.994491 0
M  V30 4960 H 479.852 -2.93631 0.294036 0
M  V30 4961 H 479.933 -1.89278 1.72068 0
M  V30 4962 H 479.577 -3.93711 3.20864 0
M  V30 4963 H 479.507 -4.96489 1.75517 0
M  V30 4964 H 481.998 -3.40802 1.63285 0
M  V30 4965 H 482.311 -6.67633 3.89212 0
M  V30 4966 H 480.656 -6.0077 3.49428 0
M  V30 4967 H 483.847 -4.18439 2.09825 0
M  V30 4968 H 484.02 -5.67487 3.12829 0
M  V30 4969 N 477.426 -0.562348 -1.47226 0
M  V30 4970 C 478.654 -0.0452275 -2.06851 0
M  V30 4971 C 479.069 1.25078 -1.41424 0
M  V30 4972 O 478.426 1.75156 -0.512513 0
M  V30 4973 C 478.477 0.148674 -3.61194 0
M  V30 4974 O 478.198 -1.09602 -4.24169 0
M  V30 4975 C 479.699 0.702488 -4.37699 0
M  V30 4976 H 476.919 -0.0481775 -0.669268 0
M  V30 4977 H 479.463 -0.777223 -1.89155 0
M  V30 4978 H 477.618 0.830817 -3.78386 0
M  V30 4979 H 478.032 -0.896982 -5.16773 0
M  V30 4980 H 479.506 0.78743 -5.46355 0
M  V30 4981 H 479.983 1.71493 -4.04335 0
M  V30 4982 H 480.589 0.0558772 -4.25263 0
M  V30 4983 N 478.904 1.54736 -0.299062 0
M  V30 4984 C 480.129 2.04975 0.316254 0
M  V30 4985 C 480.554 1.17501 1.46885 0
M  V30 4986 O 479.912 0.178678 1.80417 0
M  V30 4987 C 479.96 3.52672 0.751997 0
M  V30 4988 O 479.064 3.68226 1.85697 0
M  V30 4989 H 478.405 0.661126 0.0617175 0
M  V30 4990 H 480.935 1.99805 -0.440341 0
M  V30 4991 H 480.945 3.94488 1.04133 0
M  V30 4992 H 479.62 4.158 -0.0911482 0
M  V30 4993 H 478.197 3.38316 1.56834 0
M  V30 4994 N 480.382 0.0267497 1.57577 0
M  V30 4995 C 481.61 -0.662661 1.96001 0
M  V30 4996 C 482.025 -1.65799 0.903117 0
M  V30 4997 O 481.382 -1.82135 -0.115317 0
M  V30 4998 C 481.433 -1.37112 3.34488 0
M  V30 4999 O 481.154 -0.415683 4.36123 0
M  V30 5000 C 482.655 -2.15257 3.8753 0
M  V30 5001 H 479.875 -0.18287 0.6456 0
M  V30 5002 H 482.419 0.0858116 2.0432 0
M  V30 5003 H 480.574 -2.07101 3.27395 0
M  V30 5004 H 480.988 -0.918496 5.16395 0
M  V30 5005 H 482.462 -2.60285 4.86781 0
M  V30 5006 H 482.939 -2.99063 3.21649 0
M  V30 5007 H 483.545 -1.50231 3.97883 0
M  V30 5008 N 481.861 -1.55662 -0.24637 0
M  V30 5009 C 482.791 -1.93377 -1.30873 0
M  V30 5010 C 483.772 -0.798773 -1.50179 0
M  V30 5011 O 484.957 -1.0591 -1.62778 0
M  V30 5012 C 482.087 -2.22893 -2.66338 0
M  V30 5013 C 481.041 -3.38649 -2.61727 0
M  V30 5014 C 480.367 -3.53708 -4.00992 0
M  V30 5015 C 481.667 -4.74323 -2.18666 0
M  V30 5016 H 483.361 -2.82363 -0.995552 0
M  V30 5017 H 480.907 -1.35854 -0.477464 0
M  V30 5018 H 482.86 -2.47866 -3.40794 0
M  V30 5019 H 481.584 -1.30733 -2.99293 0
M  V30 5020 H 480.243 -3.13685 -1.89729 0
M  V30 5021 H 479.891 -2.58967 -4.31214 0
M  V30 5022 H 479.591 -4.31551 -3.98795 0
M  V30 5023 H 481.115 -3.81003 -4.77147 0
M  V30 5024 H 482.529 -4.98665 -2.82854 0
M  V30 5025 H 480.926 -5.55273 -2.27579 0
M  V30 5026 H 481.996 -4.71349 -1.13834 0
M  V30 5027 N 483.339 0.512053 -1.4905 0
M  V30 5028 C 484.585 1.26874 -1.58212 0
M  V30 5029 C 484.918 1.9241 -0.263073 0
M  V30 5030 O 484.193 1.80181 0.732476 0
M  V30 5031 C 484.476 2.34428 -2.73341 0
M  V30 5032 C 484.329 1.73466 -4.15006 0
M  V30 5033 C 485.648 3.36073 -2.84154 0
M  V30 5034 H 482.767 0.459924 -0.575881 0
M  V30 5035 H 485.409 0.568587 -1.81293 0
M  V30 5036 H 483.559 2.94146 -2.53792 0
M  V30 5037 H 485.231 1.17661 -4.46042 0
M  V30 5038 H 483.474 1.03921 -4.21168 0
M  V30 5039 H 484.145 2.51426 -4.91415 0
M  V30 5040 H 486.621 2.86332 -3.01916 0
M  V30 5041 H 485.497 4.08703 -3.66406 0
M  V30 5042 H 485.758 3.97725 -1.93048 0
M  V30 5043 N 484.817 1.37938 0.762283 0
M  V30 5044 C 486.063 1.33866 1.52341 0
M  V30 5045 C 486.396 -0.0738961 1.94059 0
M  V30 5046 O 485.671 -1.03326 1.64785 0
M  V30 5047 C 485.954 2.28644 2.78197 0
M  V30 5048 C 485.807 3.78722 2.42672 0
M  V30 5049 C 487.126 2.21702 3.80179 0
M  V30 5050 H 484.245 0.487593 0.55265 0
M  V30 5051 H 486.887 1.68717 0.873767 0
M  V30 5052 H 485.037 1.99055 3.33631 0
M  V30 5053 H 486.709 4.18948 1.93081 0
M  V30 5054 H 484.952 3.96827 1.75244 0
M  V30 5055 H 485.623 4.40486 3.3268 0
M  V30 5056 H 488.099 2.47805 3.34263 0
M  V30 5057 H 486.975 2.90143 4.65949 0
M  V30 5058 H 487.236 1.21301 4.25133 0
M  V30 5059 N 486.295 -0.989507 1.22664 0
M  V30 5060 C 487.258 -2.06183 1.00106 0
M  V30 5061 C 488.258 -1.60765 -0.0337726 0
M  V30 5062 O 489.448 -1.72989 0.205072 0
M  V30 5063 C 486.58 -3.37021 0.51279 0
M  V30 5064 H 487.773 -2.27629 1.95256 0
M  V30 5065 H 485.326 -1.16158 1.0458 0
M  V30 5066 H 486.061 -3.21261 -0.442917 0
M  V30 5067 H 485.846 -3.71323 1.25942 0
M  V30 5068 H 487.336 -4.1591 0.375315 0
M  V30 5069 N 487.773 -1.03688 -1.18687 0
M  V30 5070 C 489.184 -0.766488 -1.70241 0
M  V30 5071 C 489.535 0.713052 -1.82784 0
M  V30 5072 O 488.66 1.55529 -1.50465 0
M  V30 5073 C 489.255 -1.38475 -3.09209 0
M  V30 5074 C 487.814 -1.16276 -3.5799 0
M  V30 5075 C 486.961 -1.4778 -2.34641 0
M  V30 5076 H 489.912 -1.20378 -1.03415 0
M  V30 5077 H 489.933 -0.785939 -3.72295 0
M  V30 5078 H 489.445 -2.46157 -3.00048 0
M  V30 5079 H 487.546 -0.104508 -3.72453 0
M  V30 5080 H 487.659 -1.8571 -4.41643 0
M  V30 5081 H 486.023 -0.897366 -2.38368 0
M  V30 5082 H 486.806 -2.56562 -2.28102 0
M  V30 5083 N 489.251 1.34841 -0.815825 0
M  V30 5084 C 490.476 2.03261 -0.41226 0
M  V30 5085 C 490.901 1.61055 0.971751 0
M  V30 5086 O 490.259 0.7917 1.63101 0
M  V30 5087 C 490.307 3.56914 -0.514289 0
M  V30 5088 O 489.411 4.09728 0.468675 0
M  V30 5089 H 488.752 0.641664 -0.170771 0
M  V30 5090 H 491.282 1.72241 -1.10427 0
M  V30 5091 H 491.292 4.06156 -0.387457 0
M  V30 5092 H 489.967 3.86982 -1.52375 0
M  V30 5093 H 488.544 3.71681 0.301316 0
M  V30 5094 N 490.729 0.570148 1.46925 0
M  V30 5095 C 491.659 -0.158274 2.32963 0
M  V30 5096 C 492.64 -0.896093 1.44583 0
M  V30 5097 O 493.825 -0.874022 1.7342 0
M  V30 5098 C 490.955 -1.18055 3.26619 0
M  V30 5099 C 489.909 -0.558379 4.24342 0
M  V30 5100 C 489.235 -1.68623 5.07415 0
M  V30 5101 C 490.535 0.496295 5.19937 0
M  V30 5102 H 492.229 0.560046 2.94115 0
M  V30 5103 H 489.775 0.270775 1.41431 0
M  V30 5104 H 491.728 -1.69841 3.85658 0
M  V30 5105 H 490.452 -1.92899 2.63548 0
M  V30 5106 H 489.111 -0.0617157 3.66548 0
M  V30 5107 H 488.759 -2.42402 4.40738 0
M  V30 5108 H 488.459 -1.27564 5.73586 0
M  V30 5109 H 489.983 -2.20709 5.69315 0
M  V30 5110 H 491.397 0.0640052 5.73264 0
M  V30 5111 H 489.794 0.82649 5.94381 0
M  V30 5112 H 490.864 1.38735 4.6463 0
M  V30 5113 N 492.207 -1.54576 0.307264 0
M  V30 5114 C 493.137 -2.26708 -0.55907 0
M  V30 5115 C 494.118 -1.26893 -1.1328 0
M  V30 5116 O 495.303 -1.55677 -1.16097 0
M  V30 5117 C 492.433 -3.01259 -1.72801 0
M  V30 5118 C 491.387 -4.08275 -1.28435 0
M  V30 5119 C 490.713 -4.70575 -2.53895 0
M  V30 5120 C 492.013 -5.2068 -0.411038 0
M  V30 5121 H 493.707 -2.9937 0.042576 0
M  V30 5122 H 491.253 -1.43983 0.0219173 0
M  V30 5123 H 493.206 -3.50444 -2.34023 0
M  V30 5124 H 491.93 -2.26187 -2.356 0
M  V30 5125 H 490.589 -3.59949 -0.695161 0
M  V30 5126 H 490.237 -3.92136 -3.15021 0
M  V30 5127 H 489.937 -5.42854 -2.24908 0
M  V30 5128 H 491.461 -5.22527 -3.15908 0
M  V30 5129 H 492.875 -5.65721 -0.929097 0
M  V30 5130 H 491.272 -5.99716 -0.214664 0
M  V30 5131 H 492.342 -4.81629 0.562287 0
M  V30 5132 N 493.685 -0.035106 -1.57561 0
M  V30 5133 C 494.595 0.960295 -2.14046 0
M  V30 5134 C 495.611 1.3529 -1.0942 0
M  V30 5135 O 496.787 1.43309 -1.41508 0
M  V30 5136 C 493.852 2.22214 -2.66124 0
M  V30 5137 C 492.913 1.8894 -3.85487 0
M  V30 5138 C 492.146 3.09109 -4.35072 0
M  V30 5139 O 492.369 4.21963 -3.83802 0
M  V30 5140 O 491.303 2.91058 -5.26848 0
M  V30 5141 H 495.129 0.509983 -2.99387 0
M  V30 5142 H 492.714 0.185853 -1.48239 0
M  V30 5143 H 494.596 2.96279 -2.99661 0
M  V30 5144 H 493.271 2.66414 -1.83862 0
M  V30 5145 H 492.178 1.12241 -3.56865 0
M  V30 5146 H 493.511 1.49551 -4.6893 0
M  V30 5147 N 495.163 1.55791 0.238111 0
M  V30 5148 C 496.411 1.77681 0.963001 0
M  V30 5149 C 496.732 0.600674 1.85518 0
M  V30 5150 O 496.002 -0.383182 1.92116 0
M  V30 5151 H 494.582 0.655315 0.358568 0
M  V30 5152 H 497.244 1.93239 0.253945 0
M  V30 5153 H 496.34 2.69177 1.57956 0
M  V30 5154 N 496.642 -0.504142 1.49319 0
M  V30 5155 C 497.87 -1.28256 1.62351 0
M  V30 5156 C 498.285 -1.86502 0.293682 0
M  V30 5157 O 497.642 -1.67678 -0.720449 0
M  V30 5158 C 497.693 -2.41507 2.68992 0
M  V30 5159 O 497.414 -1.85656 3.96817 0
M  V30 5160 C 498.915 -3.32929 2.927 0
M  V30 5161 H 496.135 -0.389115 0.546654 0
M  V30 5162 H 498.679 -0.605531 1.95329 0
M  V30 5163 H 496.834 -3.05046 2.38801 0
M  V30 5164 H 497.248 -2.59981 4.55533 0
M  V30 5165 H 498.722 -4.0868 3.71058 0
M  V30 5166 H 499.199 -3.89733 2.02496 0
M  V30 5167 H 499.805 -2.75158 3.24296 0
M  V30 5168 N 498.12 -1.38341 -0.754957 0
M  V30 5169 C 499.03 -1.3769 -1.89944 0
M  V30 5170 C 500.046 -0.274194 -1.71826 0
M  V30 5171 O 501.222 -0.512391 -1.94773 0
M  V30 5172 C 498.287 -1.19938 -3.25293 0
M  V30 5173 C 497.348 -2.40001 -3.55946 0
M  V30 5174 C 496.581 -2.23087 -4.84838 0
M  V30 5175 O 496.804 -1.22386 -5.57116 0
M  V30 5176 O 495.738 -3.11646 -5.14937 0
M  V30 5177 H 499.564 -2.3412 -1.93446 0
M  V30 5178 H 497.149 -1.19246 -0.900044 0
M  V30 5179 H 499.031 -1.12093 -4.06218 0
M  V30 5180 H 497.706 -0.265919 -3.22606 0
M  V30 5181 H 496.613 -2.53421 -2.75188 0
M  V30 5182 H 497.946 -3.31973 -3.63394 0
M  V30 5183 N 499.598 0.982988 -1.23187 0
M  V30 5184 C 500.53 2.07729 -0.968572 0
M  V30 5185 C 501.543 1.62702 0.0564821 0
M  V30 5186 O 502.732 1.77603 -0.178733 0
M  V30 5187 C 499.832 3.36071 -0.436974 0
M  V30 5188 C 499.005 4.10081 -1.52159 0
M  V30 5189 C 498.064 5.16701 -0.99532 0
M  V30 5190 O 497.09 5.43727 -1.68373 0
M  V30 5191 N 498.292 5.80226 0.178192 0
M  V30 5192 H 501.057 2.30894 -1.9107 0
M  V30 5193 H 498.618 1.14949 -1.1401 0
M  V30 5194 H 500.61 4.04639 -0.0700051 0
M  V30 5195 H 499.18 3.09893 0.410509 0
M  V30 5196 H 498.4 3.36004 -2.06144 0
M  V30 5197 H 499.688 4.56295 -2.25105 0
M  V30 5198 H 499.086 5.60651 0.754096 0
M  V30 5199 H 497.643 6.49982 0.486449 0
M  V30 5200 N 501.076 1.04316 1.18135 0
M  V30 5201 C 501.986 0.646876 2.25505 0
M  V30 5202 C 503.002 -0.328008 1.7088 0
M  V30 5203 O 504.178 -0.182309 2.00573 0
M  V30 5204 C 501.243 0.0185664 3.46695 0
M  V30 5205 C 500.304 1.04277 4.16443 0
M  V30 5206 C 499.537 0.444352 5.31847 0
M  V30 5207 O 499.76 -0.748735 5.65465 0
M  V30 5208 O 498.694 1.17428 5.90334 0
M  V30 5209 H 502.52 1.54147 2.61672 0
M  V30 5210 H 500.105 0.814188 1.25265 0
M  V30 5211 H 501.987 -0.331068 4.20097 0
M  V30 5212 H 500.662 -0.849814 3.12346 0
M  V30 5213 H 499.569 1.44425 3.45098 0
M  V30 5214 H 500.902 1.882 4.54798 0
M  V30 5215 N 502.554 -1.34406 0.822964 0
M  V30 5216 C 503.517 -2.2783 0.250271 0
M  V30 5217 C 504.517 -1.50288 -0.571854 0
M  V30 5218 O 505.707 -1.69825 -0.387952 0
M  V30 5219 C 502.839 -3.34663 -0.649137 0
M  V30 5220 H 504.032 -2.79992 1.07444 0
M  V30 5221 H 501.585 -1.44539 0.594829 0
M  V30 5222 H 502.32 -2.87714 -1.49637 0
M  V30 5223 H 502.105 -3.92052 -0.0611199 0
M  V30 5224 H 503.595 -4.04349 -1.04363 0
M  V30 5225 N 504.032 -0.577932 -1.46621 0
M  V30 5226 C 505.309 0.00495287 -1.95599 0
M  V30 5227 C 505.689 1.46428 -1.5206 0
M  V30 5228 O 505.037 2.1517 -0.769046 0
M  V30 5229 C 505.247 -0.162114 -3.48623 0
M  V30 5230 C 506.595 -0.0274623 -4.24591 0
M  V30 5231 O 507.619 -0.0907067 -3.56084 0
M  V30 5232 O 506.478 0.1122 -5.46385 0
M  V30 5233 H 503.572 0.0525057 -0.825332 0
M  V30 5234 H 506.118 -0.645914 -1.56927 0
M  V30 5235 H 504.89 -1.17679 -3.73185 0
M  V30 5236 H 504.513 0.525407 -3.94113 0
M  V30 5237 N 505.51 1.54411 -0.315457 0
M  V30 5238 C 506.738 2.04833 0.291738 0
M  V30 5239 C 507.153 1.19203 1.46411 0
M  V30 5240 O 506.51 0.220867 1.81159 0
M  V30 5241 C 506.561 3.53969 0.73404 0
M  V30 5242 O 506.282 4.36346 -0.391682 0
M  V30 5243 C 507.783 4.2045 1.40489 0
M  V30 5244 H 505.003 0.668195 0.0612947 0
M  V30 5245 H 507.547 1.99276 -0.45929 0
M  V30 5246 H 505.702 3.5984 1.43506 0
M  V30 5247 H 506.116 5.24481 -0.0447088 0
M  V30 5248 H 507.59 5.26278 1.66539 0
M  V30 5249 H 508.067 3.71067 2.3496 0
M  V30 5250 H 508.673 4.18694 0.746662 0
M  V30 5251 N 506.988 0.0434614 1.5754 0
M  V30 5252 C 507.918 -0.931651 2.14109 0
M  V30 5253 C 508.899 -1.32971 1.06079 0
M  V30 5254 O 510.084 -1.40579 1.33982 0
M  V30 5255 C 507.214 -2.20914 2.67982 0
M  V30 5256 C 506.168 -1.95139 3.80926 0
M  V30 5257 C 505.494 -3.29276 4.21285 0
M  V30 5258 C 506.794 -1.27913 5.06395 0
M  V30 5259 H 508.488 -0.460497 2.95837 0
M  V30 5260 H 506.034 -0.220058 1.42309 0
M  V30 5261 H 507.987 -2.89522 3.06194 0
M  V30 5262 H 506.711 -2.70221 1.83434 0
M  V30 5263 H 505.37 -1.28945 3.43175 0
M  V30 5264 H 505.018 -3.76369 3.33699 0
M  V30 5265 H 504.718 -3.12831 4.97404 0
M  V30 5266 H 506.242 -3.99129 4.62091 0
M  V30 5267 H 507.656 -1.86544 5.42102 0
M  V30 5268 H 506.053 -1.2182 5.87605 0
M  V30 5269 H 507.123 -0.254066 4.84234 0
M  V30 5270 N 508.466 -1.55915 -0.229846 0
M  V30 5271 C 509.882 -1.48721 -0.579166 0
M  V30 5272 C 510.082 -0.736976 -1.87539 0
M  V30 5273 O 509.138 -0.273258 -2.51017 0
M  V30 5274 C 510.451 -2.9323 -0.666082 0
M  V30 5275 C 511.999 -3.03701 -0.757267 0
M  V30 5276 C 512.474 -4.49552 -0.8756 0
M  V30 5277 N 513.965 -4.53561 -0.940035 0
M  V30 5278 C 514.7 -5.63683 -1.05116 0
M  V30 5279 N 514.196 -6.83576 -1.12675 0
M  V30 5280 N 515.989 -5.51516 -1.08565 0
M  V30 5281 H 508.14 -2.03123 0.620857 0
M  V30 5282 H 510.403 -0.922898 0.21671 0
M  V30 5283 H 510.109 -3.51032 0.21664 0
M  V30 5284 H 509.983 -3.44668 -1.53243 0
M  V30 5285 H 512.37 -2.45969 -1.63043 0
M  V30 5286 H 512.451 -2.55446 0.134583 0
M  V30 5287 H 512.095 -5.079 -0.00692351 0
M  V30 5288 H 512.025 -4.95506 -1.78274 0
M  V30 5289 H 514.516 -3.67215 -0.892269 0
M  V30 5290 H 514.829 -7.63251 -1.21109 0
M  V30 5291 H 513.174 -6.86303 -1.09603 0
M  V30 5292 H 516.365 -4.5678 -1.02319 0
M  V30 5293 H 516.538 -6.37372 -1.1688 0
M  V30 5294 N 509.944 0.496216 -1.49584 0
M  V30 5295 C 511.191 1.25003 -1.59312 0
M  V30 5296 C 511.519 1.92445 -0.28198 0
M  V30 5297 O 510.774 1.81557 0.730452 0
M  V30 5298 C 511.073 2.3359 -2.705 0
M  V30 5299 C 510.739 1.83574 -4.11839 0
M  V30 5300 C 509.401 1.69653 -4.50302 0
M  V30 5301 C 511.753 1.46193 -5.00277 0
M  V30 5302 C 509.081 1.16736 -5.74969 0
M  V30 5303 C 511.433 0.947265 -6.25468 0
M  V30 5304 C 510.097 0.794485 -6.62755 0
M  V30 5305 H 509.367 0.45742 -0.582965 0
M  V30 5306 H 512.014 0.549996 -1.83432 0
M  V30 5307 H 510.319 3.09401 -2.40371 0
M  V30 5308 H 512.016 2.91627 -2.75235 0
M  V30 5309 H 508.606 1.9537 -3.81482 0
M  V30 5310 H 512.79 1.55793 -4.71214 0
M  V30 5311 H 508.046 1.03623 -6.02555 0
M  V30 5312 H 512.22 0.648846 -6.93371 0
M  V30 5313 H 509.847 0.382271 -7.59238 0
M  V30 5314 N 511.423 1.38739 0.74761 0
M  V30 5315 C 512.669 1.35475 1.50912 0
M  V30 5316 C 513.002 -0.0533093 1.94127 0
M  V30 5317 O 512.277 -1.01572 1.65871 0
M  V30 5318 C 512.56 2.31582 2.75757 0
M  V30 5319 C 512.413 3.81274 2.38642 0
M  V30 5320 C 513.732 2.25722 3.77806 0
M  V30 5321 H 510.851 0.493427 0.547447 0
M  V30 5322 H 513.493 1.69634 0.855823 0
M  V30 5323 H 511.643 2.02582 3.31501 0
M  V30 5324 H 513.315 4.20972 1.88626 0
M  V30 5325 H 511.558 3.98664 1.71025 0
M  V30 5326 H 512.229 4.4399 3.27989 0
M  V30 5327 H 514.705 2.51336 3.31616 0
M  V30 5328 H 513.581 2.95069 4.62845 0
M  V30 5329 H 513.842 1.25803 4.23823 0
M  V30 5330 N 512.901 -0.976442 1.23707 0
M  V30 5331 C 514.126 -1.75875 1.09922 0
M  V30 5332 C 514.551 -1.84911 -0.34489 0
M  V30 5333 O 513.909 -1.31363 -1.24954 0
M  V30 5334 C 513.957 -3.16179 1.73388 0
M  V30 5335 O 513.061 -4.00124 0.99871 0
M  V30 5336 H 512.402 -0.540954 0.385052 0
M  V30 5337 H 514.932 -1.22546 1.6384 0
M  V30 5338 H 514.942 -3.66741 1.78788 0
M  V30 5339 H 513.617 -3.08917 2.78466 0
M  V30 5340 H 512.194 -3.58624 1.02193 0
M  V30 5341 N 514.379 -1.04941 -1.1758 0
M  V30 5342 C 515.342 -0.652456 -2.19717 0
M  V30 5343 C 516.342 0.294745 -1.58076 0
M  V30 5344 O 517.532 0.0789579 -1.74021 0
M  V30 5345 C 514.664 0.0420712 -3.40874 0
M  V30 5346 H 515.857 -1.55642 -2.5635 0
M  V30 5347 H 513.41 -0.842995 -1.31618 0
M  V30 5348 H 514.145 0.95943 -3.09783 0
M  V30 5349 H 513.93 -0.638844 -3.86861 0
M  V30 5350 H 515.42 0.306 -4.16477 0
M  V30 5351 N 515.857 1.33968 -0.830081 0
M  V30 5352 C 516.787 2.31911 -0.271911 0
M  V30 5353 C 517.768 1.58571 0.61556 0
M  V30 5354 O 518.953 1.86514 0.540946 0
M  V30 5355 C 516.083 3.42737 0.561146 0
M  V30 5356 C 515.037 4.27383 -0.229789 0
M  V30 5357 C 514.363 5.29742 0.726463 0
M  V30 5358 C 515.663 5.02 -1.44197 0
M  V30 5359 H 517.357 2.78844 -1.09025 0
M  V30 5360 H 514.903 1.34061 -0.52571 0
M  V30 5361 H 516.856 4.10276 0.961867 0
M  V30 5362 H 515.58 2.94471 1.41261 0
M  V30 5363 H 514.239 3.61456 -0.611964 0
M  V30 5364 H 513.887 4.77736 1.57408 0
M  V30 5365 H 513.587 5.87255 0.20142 0
M  V30 5366 H 515.111 6.00149 1.12489 0
M  V30 5367 H 516.525 5.62355 -1.11488 0
M  V30 5368 H 514.922 5.69122 -1.90317 0
M  V30 5369 H 515.992 4.31281 -2.2164 0
M  V30 5370 N 517.335 0.585699 1.46312 0
M  V30 5371 C 518.751 0.247607 1.57668 0
M  V30 5372 C 518.951 -1.25007 1.58037 0
M  V30 5373 O 518.007 -2.03196 1.49893 0
M  V30 5374 C 519.32 0.899456 2.86933 0
M  V30 5375 C 520.868 0.873326 3.00569 0
M  V30 5376 C 521.343 1.50477 4.32574 0
M  V30 5377 N 522.834 1.46925 4.3928 0
M  V30 5378 C 523.569 1.92719 5.40044 0
M  V30 5379 N 523.065 2.46499 6.47464 0
M  V30 5380 N 524.858 1.83617 5.31264 0
M  V30 5381 H 517.009 1.55841 1.44317 0
M  V30 5382 H 519.272 0.651564 0.688599 0
M  V30 5383 H 518.978 1.95313 2.92482 0
M  V30 5384 H 518.852 0.409476 3.74971 0
M  V30 5385 H 521.239 -0.171736 2.946 0
M  V30 5386 H 521.32 1.40136 2.13999 0
M  V30 5387 H 520.964 2.54905 4.39302 0
M  V30 5388 H 520.894 0.951944 5.17924 0
M  V30 5389 H 523.385 1.07616 3.62253 0
M  V30 5390 H 523.698 2.79291 7.20567 0
M  V30 5391 H 522.043 2.50526 6.48276 0
M  V30 5392 H 525.234 1.41358 4.46246 0
M  V30 5393 H 525.407 2.19622 6.09648 0
M  V30 5394 N 518.813 -1.54241 0.323641 0
M  V30 5395 C 519.776 -2.22997 -0.529602 0
M  V30 5396 C 520.776 -1.22345 -1.04347 0
M  V30 5397 O 521.966 -1.46924 -0.935889 0
M  V30 5398 C 519.098 -2.93409 -1.73562 0
M  V30 5399 H 520.291 -2.99815 0.0714518 0
M  V30 5400 H 517.844 -1.56121 0.0747258 0
M  V30 5401 H 518.579 -2.20729 -2.37591 0
M  V30 5402 H 518.364 -3.67217 -1.37456 0
M  V30 5403 H 519.854 -3.45794 -2.34128 0
M  V30 5404 N 520.291 -0.0518155 -1.57515 0
M  V30 5405 C 521.707 0.304735 -1.56664 0
M  V30 5406 C 521.907 1.71395 -1.05953 0
M  V30 5407 O 520.963 2.42123 -0.716414 0
M  V30 5408 C 522.276 0.132614 -3.00407 0
M  V30 5409 C 523.824 0.20367 -3.12337 0
M  V30 5410 C 524.299 0.0600706 -4.57961 0
M  V30 5411 N 525.79 0.116326 -4.63054 0
M  V30 5412 C 526.525 0.0293363 -5.73392 0
M  V30 5413 N 526.021 -0.110038 -6.92713 0
M  V30 5414 N 527.814 0.0849651 -5.62036 0
M  V30 5415 H 519.965 -0.973056 -1.888 0
M  V30 5416 H 522.228 -0.377781 -0.869474 0
M  V30 5417 H 521.934 -0.839019 -3.41546 0
M  V30 5418 H 521.808 0.893376 -3.66468 0
M  V30 5419 H 524.195 1.16578 -2.71097 0
M  V30 5420 H 524.276 -0.587857 -2.48954 0
M  V30 5421 H 523.92 -0.898715 -4.99886 0
M  V30 5422 H 523.85 0.87075 -5.19351 0
M  V30 5423 H 526.341 0.22327 -3.7724 0
M  V30 5424 H 526.654 -0.169104 -7.72615 0
M  V30 5425 H 524.999 -0.145132 -6.94848 0
M  V30 5426 H 528.19 0.192411 -4.67704 0
M  V30 5427 H 528.363 0.0137131 -6.47999 0
M  V30 5428 N 521.769 1.56035 0.221574 0
M  V30 5429 C 522.997 1.8313 0.962864 0
M  V30 5430 C 523.412 0.630934 1.77946 0
M  V30 5431 O 522.769 -0.400519 1.78051 0
M  V30 5432 C 522.82 3.08742 1.88045 0
M  V30 5433 O 522.541 4.24147 1.09686 0
M  V30 5434 C 524.042 3.48824 2.73563 0
M  V30 5435 H 521.262 0.608775 0.282194 0
M  V30 5436 H 523.806 2.03124 0.23681 0
M  V30 5437 H 521.961 2.90723 2.56045 0
M  V30 5438 H 522.375 4.95505 1.71974 0
M  V30 5439 H 523.849 4.39752 3.3365 0
M  V30 5440 H 524.326 2.70575 3.45956 0
M  V30 5441 H 524.932 3.69282 2.10976 0
M  V30 5442 N 523.247 -0.488276 1.49845 0
M  V30 5443 C 524.524 -1.24959 1.50481 0
M  V30 5444 C 524.904 -2.09735 0.239698 0
M  V30 5445 O 524.252 -2.14865 -0.777524 0
M  V30 5446 C 524.462 -2.0954 2.79095 0
M  V30 5447 C 525.81 -2.68305 3.29086 0
M  V30 5448 O 526.834 -2.19797 2.80299 0
M  V30 5449 O 525.693 -3.56643 4.14087 0
M  V30 5450 H 522.787 -0.566133 0.602845 0
M  V30 5451 H 525.333 -0.501504 1.6212 0
M  V30 5452 H 524.105 -1.46958 3.62656 0
M  V30 5453 H 523.728 -2.91517 2.70377 0
M  V30 5454 N 524.725 -1.39134 -0.740242 0
M  V30 5455 C 525.655 -1.40165 -1.86751 0
M  V30 5456 C 526.636 -0.265708 -1.68012 0
M  V30 5457 O 527.821 -0.47076 -1.88408 0
M  V30 5458 C 524.951 -1.2392 -3.2444 0
M  V30 5459 C 523.905 -2.34858 -3.57807 0
M  V30 5460 C 523.231 -2.03707 -4.94376 0
M  V30 5461 C 524.531 -3.77159 -3.61315 0
M  V30 5462 H 526.225 -2.345 -1.86145 0
M  V30 5463 H 523.771 -1.12875 -0.89416 0
M  V30 5464 H 525.724 -1.23263 -4.02969 0
M  V30 5465 H 524.448 -0.26051 -3.25559 0
M  V30 5466 H 523.107 -2.34723 -2.81604 0
M  V30 5467 H 522.755 -1.04289 -4.9207 0
M  V30 5468 H 522.455 -2.78016 -5.17669 0
M  V30 5469 H 523.979 -2.04691 -5.75268 0
M  V30 5470 H 525.393 -3.79252 -4.29931 0
M  V30 5471 H 523.79 -4.50784 -3.96124 0
M  V30 5472 H 524.86 -4.08513 -2.61238 0
M  V30 5473 N 526.204 0.969867 -1.24223 0
M  V30 5474 C 527.615 1.52717 -1.07399 0
M  V30 5475 C 527.966 1.92956 0.355298 0
M  V30 5476 O 527.091 1.77112 1.2434 0
M  V30 5477 C 527.686 2.77521 -1.94339 0
M  V30 5478 C 526.245 3.29615 -1.81744 0
M  V30 5479 C 525.392 2.02537 -1.89405 0
M  V30 5480 H 528.343 0.788399 -1.37732 0
M  V30 5481 H 528.364 3.50773 -1.47439 0
M  V30 5482 H 527.876 2.48203 -2.98357 0
M  V30 5483 H 525.977 3.63789 -0.805505 0
M  V30 5484 H 526.09 3.98661 -2.65718 0
M  V30 5485 H 524.454 2.17151 -1.33108 0
M  V30 5486 H 525.237 1.75587 -2.94999 0
M  V30 5487 N 527.682 1.05563 1.17022 0
M  V30 5488 C 528.93 0.76642 1.87004 0
M  V30 5489 C 529.251 -0.708854 1.8166 0
M  V30 5490 O 528.521 -1.51242 1.2451 0
M  V30 5491 H 527.101 0.280516 0.692329 0
M  V30 5492 H 529.763 1.33557 1.41945 0
M  V30 5493 H 528.859 1.08472 2.92644 0
M  V30 5494 N 529.16 -1.33526 0.837174 0
M  V30 5495 C 530.09 -2.31764 0.284206 0
M  V30 5496 C 531.071 -1.58896 -0.607142 0
M  V30 5497 O 532.256 -1.86798 -0.531047 0
M  V30 5498 C 529.386 -3.43029 -0.542962 0
M  V30 5499 C 528.34 -4.27255 0.252451 0
M  V30 5500 C 527.666 -5.3012 -0.69836 0
M  V30 5501 C 528.966 -5.01229 1.46858 0
M  V30 5502 H 530.66 -2.78262 1.10502 0
M  V30 5503 H 528.206 -1.3378 0.532812 0
M  V30 5504 H 530.159 -4.1078 -0.940096 0
M  V30 5505 H 528.883 -2.95216 -1.39697 0
M  V30 5506 H 527.542 -3.61127 0.631124 0
M  V30 5507 H 527.19 -4.78564 -1.54872 0
M  V30 5508 H 526.89 -5.87353 -0.170274 0
M  V30 5509 H 528.414 -6.00737 -1.09305 0
M  V30 5510 H 529.828 -5.61756 1.14469 0
M  V30 5511 H 528.225 -5.68104 1.93333 0
M  V30 5512 H 529.295 -4.301 2.23924 0
M  V30 5513 N 530.638 -0.59345 -1.46 0
M  V30 5514 C 531.863 -0.0872365 -2.07216 0
M  V30 5515 C 532.288 1.2131 -1.43755 0
M  V30 5516 O 531.646 1.73528 -0.525152 0
M  V30 5517 C 531.694 0.0538197 -3.6056 0
M  V30 5518 O 530.798 1.10765 -3.97247 0
M  V30 5519 H 530.139 -0.0676598 -0.660544 0
M  V30 5520 H 532.669 -0.819445 -1.87473 0
M  V30 5521 H 532.679 0.256567 -4.07193 0
M  V30 5522 H 531.354 -0.895739 -4.0614 0
M  V30 5523 H 529.931 0.882501 -3.62307 0
M  V30 5524 N 532.116 1.54067 -0.331816 0
M  V30 5525 C 533.365 1.99895 0.269209 0
M  V30 5526 C 533.678 1.22371 1.52593 0
M  V30 5527 O 534.884 1.58618 2.20347 0
M  V30 5528 C 533.34 3.55972 0.530244 0
M  V30 5529 C 532.948 4.4234 -0.709901 0
M  V30 5530 C 534.692 4.10247 1.09077 0
M  V30 5531 C 532.599 5.89905 -0.420312 0
M  V30 5532 H 531.529 0.746741 0.104371 0
M  V30 5533 H 534.18 1.78014 -0.445324 0
M  V30 5534 H 532.562 3.73873 1.30518 0
M  V30 5535 H 533.736 4.36215 -1.48504 0
M  V30 5536 H 532.051 3.98997 -1.19123 0
M  V30 5537 H 534.648 5.18095 1.32219 0
M  V30 5538 H 534.991 3.62739 2.0427 0
M  V30 5539 H 535.524 3.96011 0.376824 0
M  V30 5540 H 532.263 6.41623 -1.34164 0
M  V30 5541 H 531.783 5.98962 0.316962 0
M  V30 5542 H 533.462 6.46991 -0.0331956 0
M  V30 5543 N 533.594 0.0601682 1.57485 0
M  V30 5544 C 534.524 -0.90889 2.15085 0
M  V30 5545 C 535.505 -1.31838 1.07484 0
M  V30 5546 O 536.69 -1.3915 1.35466 0
M  V30 5547 C 533.82 -2.18059 2.7031 0
M  V30 5548 C 532.774 -1.91088 3.82974 0
M  V30 5549 C 532.1 -3.24789 4.24754 0
M  V30 5550 C 533.4 -1.22535 5.07723 0
M  V30 5551 H 535.094 -0.429093 2.96309 0
M  V30 5552 H 532.64 -0.204952 1.42534 0
M  V30 5553 H 534.593 -2.86258 3.09248 0
M  V30 5554 H 533.317 -2.6826 1.8629 0
M  V30 5555 H 531.976 -1.25297 3.44523 0
M  V30 5556 H 531.624 -3.72809 3.37672 0
M  V30 5557 H 531.324 -3.07538 5.00694 0
M  V30 5558 H 532.848 -3.94205 4.66299 0
M  V30 5559 H 534.262 -1.80783 5.4405 0
M  V30 5560 H 532.659 -1.1558 5.88864 0
M  V30 5561 H 533.729 -0.202692 4.84476 0
M  V30 5562 N 535.072 -1.5615 -0.213296 0
M  V30 5563 C 536.318 -1.79812 -0.937849 0
M  V30 5564 C 536.651 -0.631201 -1.83656 0
M  V30 5565 O 535.926 0.369165 -1.90964 0
M  V30 5566 C 536.209 -3.13613 -1.76972 0
M  V30 5567 C 536.062 -4.40766 -0.89695 0
M  V30 5568 C 537.381 -3.43931 -2.7459 0
M  V30 5569 H 534.5 -0.654138 -0.339518 0
M  V30 5570 H 537.142 -1.88877 -0.20623 0
M  V30 5571 H 535.292 -3.06015 -2.39347 0
M  V30 5572 H 536.964 -4.60392 -0.289306 0
M  V30 5573 H 535.207 -4.33326 -0.202756 0
M  V30 5574 H 535.878 -5.30843 -1.51358 0
M  V30 5575 H 538.354 -3.5171 -2.22349 0
M  V30 5576 H 537.23 -4.38706 -3.29891 0
M  V30 5577 H 537.491 -2.6651 -3.52739 0
M  V30 5578 N 536.55 0.480323 -1.50102 0
M  V30 5579 C 537.798 1.23063 -1.60312 0
M  V30 5580 C 538.119 1.92659 -0.301226 0
M  V30 5581 O 537.389 1.83691 0.680753 0
M  V30 5582 H 535.969 0.457231 -0.590719 0
M  V30 5583 H 538.631 0.554893 -1.86834 0
M  V30 5584 H 537.727 1.9835 -2.40964 0
M  V30 5585 N 538.028 1.39524 0.732853 0
M  V30 5586 C 539.276 1.36594 1.48951 0
M  V30 5587 C 539.597 -0.0367507 1.94965 0
M  V30 5588 O 538.867 -0.988391 1.69138 0
M  V30 5589 H 537.447 0.502673 0.552566 0
M  V30 5590 H 540.109 1.74411 0.869869 0
M  V30 5591 H 539.205 2.03 2.3706 0
M  V30 5592 N 539.506 -0.963266 1.24736 0
M  V30 5593 C 540.922 -1.23273 1.01371 0
M  V30 5594 C 541.122 -1.99618 -0.274776 0
M  V30 5595 O 540.178 -2.32293 -0.989769 0
M  V30 5596 C 541.491 -2.01554 2.23152 0
M  V30 5597 C 543.039 -2.14629 2.27823 0
M  V30 5598 C 543.514 -2.96307 3.49237 0
M  V30 5599 N 545.005 -3.03887 3.49581 0
M  V30 5600 C 545.74 -3.67456 4.40186 0
M  V30 5601 N 545.236 -4.32706 5.41052 0
M  V30 5602 N 547.029 -3.64511 4.27888 0
M  V30 5603 H 539.18 -0.452294 2.07528 0
M  V30 5604 H 541.443 -0.262521 0.910926 0
M  V30 5605 H 541.149 -1.52847 3.1675 0
M  V30 5606 H 541.023 -3.02278 2.25628 0
M  V30 5607 H 543.41 -2.62537 1.34753 0
M  V30 5608 H 543.491 -1.13238 2.2937 0
M  V30 5609 H 543.135 -2.49091 4.42624 0
M  V30 5610 H 543.065 -3.97905 3.44933 0
M  V30 5611 H 545.556 -2.57477 2.76611 0
M  V30 5612 H 545.869 -4.79042 6.06415 0
M  V30 5613 H 544.214 -4.31361 5.44934 0
M  V30 5614 H 547.405 -3.12715 3.4832 0
M  V30 5615 H 547.578 -4.13768 4.98698 0
M  V30 5616 N 540.985 -1.06182 -1.16461 0
M  V30 5617 C 541.915 -0.692861 -2.22984 0
M  V30 5618 C 542.896 0.314122 -1.67174 0
M  V30 5619 O 544.081 0.189499 -1.93273 0
M  V30 5620 C 541.211 -0.07732 -3.47214 0
M  V30 5621 C 540.165 -1.01015 -4.15909 0
M  V30 5622 C 539.491 -0.257973 -5.34077 0
M  V30 5623 C 540.791 -2.33868 -4.67015 0
M  V30 5624 H 542.485 -1.58343 -2.54102 0
M  V30 5625 H 540.031 -0.76279 -1.22137 0
M  V30 5626 H 541.984 0.19266 -4.20959 0
M  V30 5627 H 540.708 0.848254 -3.15392 0
M  V30 5628 H 539.367 -1.26486 -3.44088 0
M  V30 5629 H 539.015 0.670684 -4.98509 0
M  V30 5630 H 538.715 -0.879638 -5.80979 0
M  V30 5631 H 540.239 0.00448788 -6.106 0
M  V30 5632 H 541.653 -2.1279 -5.32347 0
M  V30 5633 H 540.05 -2.91522 -5.24533 0
M  V30 5634 H 541.12 -2.97019 -3.83286 0
M  V30 5635 N 542.463 1.3308 -0.844243 0
M  V30 5636 C 543.426 2.27403 -0.286485 0
M  V30 5637 C 544.426 1.51179 0.547872 0
M  V30 5638 O 545.616 1.70421 0.360886 0
M  V30 5639 C 542.748 3.35653 0.595813 0
M  V30 5640 H 543.941 2.78248 -1.11885 0
M  V30 5641 H 541.494 1.43574 -0.617749 0
M  V30 5642 H 542.229 2.90058 1.4504 0
M  V30 5643 H 542.014 3.921 -0.00125994 0
M  V30 5644 H 543.504 4.05958 0.979168 0
M  V30 5645 N 543.941 0.601185 1.45683 0
M  V30 5646 C 544.873 -0.159446 2.28645 0
M  V30 5647 C 545.886 -0.837882 1.39583 0
M  V30 5648 O 547.075 -0.704344 1.64016 0
M  V30 5649 C 544.175 -1.24641 3.15147 0
M  V30 5650 C 543.348 -0.656334 4.32448 0
M  V30 5651 C 542.407 -1.63337 5.00208 0
M  V30 5652 O 541.433 -1.16217 5.57209 0
M  V30 5653 N 542.635 -2.96773 4.98905 0
M  V30 5654 H 545.4 0.5524 2.94565 0
M  V30 5655 H 542.961 0.440223 1.558 0
M  V30 5656 H 544.953 -1.8997 3.57342 0
M  V30 5657 H 543.523 -1.86087 2.51178 0
M  V30 5658 H 542.743 0.174879 3.93812 0
M  V30 5659 H 544.031 -0.242211 5.08223 0
M  V30 5660 H 543.429 -3.37662 4.53873 0
M  V30 5661 H 541.986 -3.57541 5.44984 0
M  V30 5662 N 545.419 -1.53889 0.339982 0
M  V30 5663 C 546.349 -2.27843 -0.510856 0
M  V30 5664 C 547.33 -1.29267 -1.10563 0
M  V30 5665 O 548.515 -1.58104 -1.12768 0
M  V30 5666 C 545.645 -3.04857 -1.66372 0
M  V30 5667 C 544.599 -4.10907 -1.19746 0
M  V30 5668 C 543.925 -4.75855 -2.43857 0
M  V30 5669 C 545.225 -5.21435 -0.300501 0
M  V30 5670 H 546.919 -2.99212 0.106067 0
M  V30 5671 H 544.465 -1.43904 0.0524533 0
M  V30 5672 H 546.418 -3.5533 -2.26537 0
M  V30 5673 H 545.142 -2.31133 -2.30749 0
M  V30 5674 H 543.801 -3.61342 -0.618654 0
M  V30 5675 H 543.449 -3.9873 -3.06633 0
M  V30 5676 H 543.149 -5.47502 -2.13343 0
M  V30 5677 H 544.673 -5.2911 -3.04754 0
M  V30 5678 H 546.087 -5.67565 -0.80889 0
M  V30 5679 H 544.484 -6.00036 -0.0874076 0
M  V30 5680 H 545.554 -4.80328 0.664321 0
M  V30 5681 N 546.897 -0.0685191 -1.57451 0
M  V30 5682 C 548.308 0.464634 -1.80826 0
M  V30 5683 C 548.659 1.69847 -0.982169 0
M  V30 5684 O 547.784 2.15439 -0.203734 0
M  V30 5685 C 548.379 0.849721 -3.27971 0
M  V30 5686 C 546.938 1.32776 -3.52204 0
M  V30 5687 C 546.085 0.311332 -2.75547 0
M  V30 5688 H 549.036 -0.294248 -1.55948 0
M  V30 5689 H 549.057 1.71138 -3.39841 0
M  V30 5690 H 548.569 -0.0484736 -3.8807 0
M  V30 5691 H 546.67 2.24456 -2.97406 0
M  V30 5692 H 546.783 1.30794 -4.60901 0
M  V30 5693 H 545.147 0.787915 -2.42206 0
M  V30 5694 H 545.93 -0.579078 -3.38381 0
M  V30 5695 N 548.375 1.56261 0.205012 0
M  V30 5696 C 549.786 1.70056 0.770574 0
M  V30 5697 C 550.137 0.673398 1.84282 0
M  V30 5698 O 549.262 -0.172196 2.15714 0
M  V30 5699 C 549.857 3.08316 1.40451 0
M  V30 5700 C 548.416 3.2391 1.91727 0
M  V30 5701 C 547.563 2.66001 0.783516 0
M  V30 5702 H 550.514 1.58688 -0.019911 0
M  V30 5703 H 550.535 3.05094 2.27371 0
M  V30 5704 H 550.047 3.83053 0.623882 0
M  V30 5705 H 548.148 2.54072 2.7254 0
M  V30 5706 H 548.261 4.3131 2.08588 0
M  V30 5707 H 546.625 2.24915 1.19521 0
M  V30 5708 H 547.408 3.43297 0.0152883 0
M  V30 5709 N 549.853 -0.472356 1.50355 0
M  V30 5710 C 551.078 -1.25251 1.65309 0
M  V30 5711 C 551.503 -1.85081 0.335643 0
M  V30 5712 O 550.861 -1.67227 -0.700335 0
M  V30 5713 C 550.909 -2.3379 2.74544 0
M  V30 5714 O 550.013 -3.38401 2.35709 0
M  V30 5715 H 549.354 -0.368539 0.552336 0
M  V30 5716 H 551.884 -0.562271 1.96722 0
M  V30 5717 H 551.894 -2.79121 2.97583 0
M  V30 5718 H 550.569 -1.89614 3.70161 0
M  V30 5719 H 549.146 -2.9879 2.23112 0
M  V30 5720 N 551.331 -1.39911 -0.725443 0
M  V30 5721 C 552.278 -1.39393 -1.83952 0
M  V30 5722 C 553.248 -0.252249 -1.64173 0
M  V30 5723 O 554.433 -0.44882 -1.85446 0
M  V30 5724 C 551.573 -1.25262 -3.21564 0
M  V30 5725 C 550.686 -2.49054 -3.52982 0
M  V30 5726 C 549.821 -2.27439 -4.80047 0
M  V30 5727 C 548.86 -3.46857 -5.04338 0
M  V30 5728 N 547.997 -3.24499 -6.22611 0
M  V30 5729 H 552.837 -2.34622 -1.83729 0
M  V30 5730 H 550.374 -1.16537 -0.897636 0
M  V30 5731 H 552.332 -1.15077 -4.01015 0
M  V30 5732 H 550.962 -0.33657 -3.21041 0
M  V30 5733 H 550.014 -2.69805 -2.6816 0
M  V30 5734 H 551.326 -3.37973 -3.66846 0
M  V30 5735 H 550.48 -2.14551 -5.67497 0
M  V30 5736 H 549.219 -1.35929 -4.68374 0
M  V30 5737 H 548.224 -3.60232 -4.15346 0
M  V30 5738 H 549.449 -4.3928 -5.17889 0
M  V30 5739 H 547.395 -2.35663 -6.12208 0
M  V30 5740 H 547.312 -4.06978 -6.37106 0
M  V30 5741 H 548.58 -3.15325 -7.12875 0
M  V30 5742 N 552.809 0.956637 -1.25245 0
M  V30 5743 C 553.739 2.07058 -1.07931 0
M  V30 5744 C 554.72 1.70096 0.0110361 0
M  V30 5745 O 555.905 1.93555 -0.158121 0
M  V30 5746 C 553.035 3.40272 -0.695124 0
M  V30 5747 C 551.989 3.91235 -1.73549 0
M  V30 5748 C 551.315 5.20921 -1.20604 0
M  V30 5749 C 552.615 4.17837 -3.13385 0
M  V30 5750 H 554.309 2.218 -2.01109 0
M  V30 5751 H 551.855 1.06581 -0.968326 0
M  V30 5752 H 553.808 4.1765 -0.560949 0
M  V30 5753 H 552.532 3.25462 0.272355 0
M  V30 5754 H 551.191 3.16025 -1.85807 0
M  V30 5755 H 550.839 5.02479 -0.228846 0
M  V30 5756 H 550.539 5.55987 -1.90136 0
M  V30 5757 H 552.063 6.00897 -1.08421 0
M  V30 5758 H 553.477 4.8588 -3.04292 0
M  V30 5759 H 551.874 4.64154 -3.80369 0
M  V30 5760 H 552.944 3.2419 -3.60595 0
M  V30 5761 N 554.287 1.06798 1.15896 0
M  V30 5762 C 555.234 0.683314 2.20453 0
M  V30 5763 C 556.204 -0.32255 1.62938 0
M  V30 5764 O 557.389 -0.210276 1.89638 0
M  V30 5765 C 554.529 0.0813266 3.45004 0
M  V30 5766 C 553.642 1.13799 4.16742 0
M  V30 5767 C 552.777 0.501598 5.28826 0
M  V30 5768 C 551.816 1.54144 5.92373 0
M  V30 5769 N 550.953 0.928038 6.9594 0
M  V30 5770 H 555.793 1.57932 2.52708 0
M  V30 5771 H 553.33 0.789544 1.24115 0
M  V30 5772 H 555.288 -0.285274 4.16224 0
M  V30 5773 H 553.918 -0.77806 3.13283 0
M  V30 5774 H 552.97 1.62223 3.44075 0
M  V30 5775 H 554.282 1.92664 4.60089 0
M  V30 5776 H 553.436 0.0823162 6.06644 0
M  V30 5777 H 552.175 -0.318883 4.86656 0
M  V30 5778 H 551.18 1.97056 5.13273 0
M  V30 5779 H 552.405 2.3641 6.36621 0
M  V30 5780 H 550.351 0.12836 6.55874 0
M  V30 5781 H 550.268 1.65401 7.37685 0
M  V30 5782 H 551.536 0.534071 7.77668 0
M  V30 5783 N 555.766 -1.3263 0.851289 0
M  V30 5784 C 557.043 -1.91982 0.374448 0
M  V30 5785 C 557.423 -1.77568 -1.14161 0
M  V30 5786 O 556.771 -1.1717 -1.96172 0
M  V30 5787 C 556.981 -3.38862 0.835088 0
M  V30 5788 C 558.329 -4.15999 0.850309 0
M  V30 5789 O 559.353 -3.47566 0.779505 0
M  V30 5790 O 558.212 -5.38189 0.949481 0
M  V30 5791 H 555.306 -0.819846 0.10854 0
M  V30 5792 H 557.852 -1.41422 0.937966 0
M  V30 5793 H 556.624 -3.43281 1.87814 0
M  V30 5794 H 556.247 -3.96821 0.248833 0
M  V30 5795 N 557.244 -0.608902 -1.45362 0
M  V30 5796 C 558.469 -0.10921 -2.07112 0
M  V30 5797 C 558.894 1.19779 -1.45033 0
M  V30 5798 O 558.252 1.72961 -0.543527 0
M  V30 5799 C 558.3 0.0155745 -3.60597 0
M  V30 5800 O 557.404 1.06546 -3.98399 0
M  V30 5801 H 556.745 -0.0746619 -0.659789 0
M  V30 5802 H 559.275 -0.839283 -1.86594 0
M  V30 5803 H 559.285 0.213364 -4.07442 0
M  V30 5804 H 557.96 -0.938765 -4.05167 0
M  V30 5805 H 556.537 0.844024 -3.63223 0
M  V30 5806 N 558.722 1.53707 -0.348139 0
M  V30 5807 C 559.97 2.00591 0.246478 0
M  V30 5808 C 560.291 1.23753 1.50699 0
M  V30 5809 O 559.561 0.345964 1.92821 0
M  V30 5810 H 558.141 0.741053 0.0940679 0
M  V30 5811 H 560.803 1.89139 -0.470354 0
M  V30 5812 H 559.899 3.08297 0.485714 0
M  V30 5813 N 560.2 0.0768682 1.57412 0
M  V30 5814 C 561.163 -0.873949 2.11884 0
M  V30 5815 C 562.163 -1.22301 1.04398 0
M  V30 5816 O 563.353 -1.15545 1.30365 0
M  V30 5817 C 560.485 -2.17575 2.62438 0
M  V30 5818 H 561.678 -0.401278 2.97203 0
M  V30 5819 H 559.231 -0.171904 1.55352 0
M  V30 5820 H 559.966 -2.69368 1.80587 0
M  V30 5821 H 559.751 -1.93534 3.41009 0
M  V30 5822 H 561.241 -2.85631 3.04639 0
M  V30 5823 N 561.678 -1.56367 -0.196722 0
M  V30 5824 C 562.955 -1.71359 -0.943159 0
M  V30 5825 C 563.335 -0.631192 -2.01443 0
M  V30 5826 O 562.683 0.358071 -2.25677 0
M  V30 5827 C 562.893 -3.13623 -1.53106 0
M  V30 5828 C 564.241 -3.73806 -2.01381 0
M  V30 5829 O 565.265 -3.16742 -1.62951 0
M  V30 5830 O 564.124 -4.73951 -2.7209 0
M  V30 5831 H 561.218 -0.698851 -0.442195 0
M  V30 5832 H 563.764 -1.68672 -0.186547 0
M  V30 5833 H 562.536 -3.83873 -0.758785 0
M  V30 5834 H 562.159 -3.20532 -2.35255 0
M  V30 5835 N 563.156 0.464375 -1.50603 0
M  V30 5836 C 564.119 1.54393 -1.69397 0
M  V30 5837 C 565.119 1.50566 -0.564504 0
M  V30 5838 O 566.309 1.53066 -0.831645 0
M  V30 5839 C 563.441 2.9401 -1.72543 0
M  V30 5840 H 564.634 1.39044 -2.65719 0
M  V30 5841 H 562.187 0.69122 -1.40185 0
M  V30 5842 H 562.922 3.14795 -0.77938 0
M  V30 5843 H 562.707 2.98195 -2.54602 0
M  V30 5844 H 564.197 3.72375 -1.89015 0
M  V30 5845 N 564.634 1.40294 0.718013 0
M  V30 5846 C 565.882 1.38167 1.47494 0
M  V30 5847 C 566.203 -0.01607 1.94993 0
M  V30 5848 O 565.473 -0.970396 1.70177 0
M  V30 5849 H 564.053 0.508505 0.547203 0
M  V30 5850 H 566.715 1.75324 0.851322 0
M  V30 5851 H 565.811 2.05503 2.34894 0
M  V30 5852 N 566.112 -0.949982 1.2575 0
M  V30 5853 C 567.359 -1.69515 1.10774 0
M  V30 5854 C 567.687 -1.91316 -0.350479 0
M  V30 5855 O 566.942 -1.48515 -1.27443 0
M  V30 5856 C 567.241 -3.08039 1.81237 0
M  V30 5857 C 566.907 -3.06023 3.31151 0
M  V30 5858 C 565.569 -3.0518 3.72047 0
M  V30 5859 C 567.921 -2.98998 4.26907 0
M  V30 5860 C 565.249 -2.95067 5.07102 0
M  V30 5861 C 567.601 -2.90426 5.61992 0
M  V30 5862 C 566.265 -2.87922 6.0221 0
M  V30 5863 H 565.535 -0.6203 0.405351 0
M  V30 5864 H 568.182 -1.10953 1.56082 0
M  V30 5865 H 566.487 -3.70172 1.28373 0
M  V30 5866 H 568.184 -3.64526 1.67098 0
M  V30 5867 H 564.774 -3.07453 2.98614 0
M  V30 5868 H 568.958 -2.98764 3.963 0
M  V30 5869 H 564.214 -2.915 5.37436 0
M  V30 5870 H 568.388 -2.83952 6.35881 0
M  V30 5871 H 566.015 -2.79841 7.06819 0
M  V30 5872 N 567.59 -1.07411 -1.15328 0
M  V30 5873 C 568.553 -0.698914 -2.18284 0
M  V30 5874 C 569.553 0.261149 -1.58665 0
M  V30 5875 O 570.743 0.0420277 -1.74149 0
M  V30 5876 C 567.875 -0.0302427 -3.40887 0
M  V30 5877 H 569.068 -1.61045 -2.52991 0
M  V30 5878 H 566.621 -0.870724 -1.298 0
M  V30 5879 H 567.356 0.893505 -3.11748 0
M  V30 5880 H 567.141 -0.720759 -3.85419 0
M  V30 5881 H 568.631 0.21759 -4.17033 0
M  V30 5882 N 569.068 1.32177 -0.85831 0
M  V30 5883 C 570.018 2.26307 -0.277307 0
M  V30 5884 C 571.002 1.50123 0.578946 0
M  V30 5885 O 572.194 1.71754 0.427731 0
M  V30 5886 C 569.323 3.39181 0.530232 0
M  V30 5887 C 568.409 4.22746 -0.338613 0
M  V30 5888 N 568.8 4.85265 -1.4266 0
M  V30 5889 C 567.098 4.45813 -0.129 0
M  V30 5890 C 567.799 5.47634 -1.96142 0
M  V30 5891 N 566.775 5.28794 -1.26007 0
M  V30 5892 H 570.577 2.72173 -1.10902 0
M  V30 5893 H 568.091 1.46308 -0.704816 0
M  V30 5894 H 570.088 4.05628 0.962904 0
M  V30 5895 H 568.748 2.9486 1.35969 0
M  V30 5896 H 569.759 4.85259 -1.80953 0
M  V30 5897 H 566.436 4.12163 0.665451 0
M  V30 5898 H 567.826 6.0735 -2.8736 0
M  V30 5899 N 570.547 0.616602 1.45037 0
M  V30 5900 C 571.477 -0.0840787 2.33349 0
M  V30 5901 C 572.458 -0.849641 1.4736 0
M  V30 5902 O 573.643 -0.818407 1.76113 0
M  V30 5903 C 570.773 -1.07604 3.3021 0
M  V30 5904 C 569.727 -0.423096 4.25904 0
M  V30 5905 C 569.053 -1.52394 5.12523 0
M  V30 5906 C 570.353 0.661457 5.18095 0
M  V30 5907 H 572.047 0.653333 2.92185 0
M  V30 5908 H 569.593 0.315634 1.40498 0
M  V30 5909 H 571.546 -1.57485 3.90866 0
M  V30 5910 H 570.27 -1.84416 2.69552 0
M  V30 5911 H 568.929 0.05493 3.66559 0
M  V30 5912 H 568.577 -2.28257 4.48227 0
M  V30 5913 H 568.277 -1.09251 5.77354 0
M  V30 5914 H 569.801 -2.02485 5.76049 0
M  V30 5915 H 571.215 0.246353 5.7277 0
M  V30 5916 H 569.612 1.01517 5.91451 0
M  V30 5917 H 570.682 1.53446 4.59981 0
M  V30 5918 N 572.025 -1.5352 0.356285 0
M  V30 5919 C 572.988 -2.24071 -0.482182 0
M  V30 5920 C 573.988 -1.24531 -1.01729 0
M  V30 5921 O 575.178 -1.48876 -0.904513 0
M  V30 5922 C 572.31 -2.97025 -1.67299 0
M  V30 5923 H 573.503 -2.99596 0.135031 0
M  V30 5924 H 571.056 -1.55928 0.107825 0
M  V30 5925 H 571.791 -2.25719 -2.32855 0
M  V30 5926 H 571.576 -3.7005 -1.29636 0
M  V30 5927 H 573.066 -3.50683 -2.26741 0
M  V30 5928 N 573.503 -0.0852151 -1.57369 0
M  V30 5929 C 574.433 0.874556 -2.16503 0
M  V30 5930 C 575.414 1.30111 -1.09568 0
M  V30 5931 O 576.599 1.36977 -1.37662 0
M  V30 5932 C 573.729 2.13731 -2.73745 0
M  V30 5933 C 572.683 1.84971 -3.85966 0
M  V30 5934 C 572.009 3.17991 -4.29867 0
M  V30 5935 C 573.309 1.14442 -5.09608 0
M  V30 5936 H 575.003 0.381899 -2.96954 0
M  V30 5937 H 572.549 0.18225 -1.42842 0
M  V30 5938 H 574.502 2.81302 -3.13763 0
M  V30 5939 H 573.226 2.65263 -1.90534 0
M  V30 5940 H 571.885 1.19801 -3.46473 0
M  V30 5941 H 571.533 3.6739 -3.4356 0
M  V30 5942 H 571.233 2.99534 -5.05523 0
M  V30 5943 H 572.757 3.86737 -4.72511 0
M  V30 5944 H 574.171 1.72105 -5.46857 0
M  V30 5945 H 572.568 1.06197 -5.90629 0
M  V30 5946 H 573.638 0.12559 -4.84737 0
M  V30 5947 N 574.981 1.5647 0.188427 0
M  V30 5948 C 575.911 1.98101 1.23606 0
M  V30 5949 C 576.892 0.853961 1.47111 0
M  V30 5950 O 578.077 1.11879 1.58735 0
M  V30 5951 C 575.207 2.32624 2.57882 0
M  V30 5952 C 574.161 3.48129 2.48978 0
M  V30 5953 C 573.487 3.68347 3.87588 0
M  V30 5954 C 574.787 4.82112 2.00911 0
M  V30 5955 H 576.481 2.85864 0.890068 0
M  V30 5956 H 574.027 1.37532 0.426714 0
M  V30 5957 H 575.98 2.60343 3.3136 0
M  V30 5958 H 574.704 1.41751 2.94235 0
M  V30 5959 H 573.363 3.20511 1.77956 0
M  V30 5960 H 573.011 2.74793 4.21305 0
M  V30 5961 H 572.711 4.46055 3.82503 0
M  V30 5962 H 574.235 3.98449 4.62678 0
M  V30 5963 H 575.649 5.08819 2.64151 0
M  V30 5964 H 574.046 5.63337 2.06814 0
M  V30 5965 H 575.116 4.75249 0.96262 0
M  V30 5966 N 576.459 -0.456382 1.50847 0
M  V30 5967 C 577.87 -1.03685 1.55262 0
M  V30 5968 C 578.221 -1.92779 0.364771 0
M  V30 5969 O 577.346 -2.10043 -0.52068 0
M  V30 5970 C 577.941 -1.88718 2.81374 0
M  V30 5971 C 576.5 -2.41847 2.88422 0
M  V30 5972 C 575.647 -1.20564 2.49719 0
M  V30 5973 H 578.598 -0.238399 1.56899 0
M  V30 5974 H 578.619 -2.73957 2.6406 0
M  V30 5975 H 578.131 -1.23847 3.67809 0
M  V30 5976 H 576.232 -3.10228 2.06372 0
M  V30 5977 H 576.345 -2.75947 3.9165 0
M  V30 5978 H 574.709 -1.54504 2.02486 0
M  V30 5979 H 575.492 -0.573326 3.38479 0
M  V30 5980 N 577.937 -1.40673 -0.710563 0
M  V30 5981 C 578.9 -1.4108 -1.80635 0
M  V30 5982 C 579.9 -0.303783 -1.57904 0
M  V30 5983 O 581.09 -0.562937 -1.64853 0
M  V30 5984 C 578.222 -1.20748 -3.18799 0
M  V30 5985 H 579.415 -2.38612 -1.81671 0
M  V30 5986 H 576.968 -1.26595 -0.916704 0
M  V30 5987 H 577.703 -0.239964 -3.23411 0
M  V30 5988 H 577.488 -2.00941 -3.36698 0
M  V30 5989 H 578.978 -1.23833 -3.98817 0
M  V30 5990 N 579.415 0.9433 -1.26252 0
M  V30 5991 C 580.378 2.02326 -1.07689 0
M  V30 5992 C 581.378 1.60779 -0.0259174 0
M  V30 5993 O 582.568 1.72108 -0.269134 0
M  V30 5994 C 579.7 3.34886 -0.63752 0
M  V30 5995 H 580.893 2.20225 -2.0357 0
M  V30 5996 H 578.446 1.12197 -1.08819 0
M  V30 5997 H 579.181 3.22684 0.323377 0
M  V30 5998 H 578.966 3.66393 -1.39637 0
M  V30 5999 H 580.456 4.14231 -0.529418 0
M  V30 6000 N 580.893 1.08022 1.14757 0
M  V30 6001 C 581.823 0.728248 2.21853 0
M  V30 6002 C 582.804 -0.287486 1.67653 0
M  V30 6003 O 583.989 -0.158727 1.9355 0
M  V30 6004 C 581.119 0.132549 3.47047 0
M  V30 6005 C 580.073 1.07619 4.14249 0
M  V30 6006 C 579.399 0.342907 5.33599 0
M  V30 6007 C 580.699 2.41268 4.63235 0
M  V30 6008 H 582.393 1.62365 2.51551 0
M  V30 6009 H 579.939 0.782125 1.20908 0
M  V30 6010 H 581.892 -0.125665 4.21213 0
M  V30 6011 H 580.616 -0.797971 3.16702 0
M  V30 6012 H 579.275 1.31944 3.42033 0
M  V30 6013 H 578.923 -0.59129 4.99513 0
M  V30 6014 H 578.623 0.971955 5.79506 0
M  V30 6015 H 580.147 0.0926538 6.1053 0
M  V30 6016 H 581.561 2.21232 5.28894 0
M  V30 6017 H 579.958 2.9983 5.19829 0
M  V30 6018 H 581.028 3.03079 3.78512 0
M  V30 6019 N 582.371 -1.3172 0.865308 0
M  V30 6020 C 583.334 -2.26918 0.322627 0
M  V30 6021 C 584.334 -1.52031 -0.523751 0
M  V30 6022 O 585.524 -1.70973 -0.333727 0
M  V30 6023 C 582.656 -3.36558 -0.542338 0
M  V30 6024 H 583.849 -2.76432 1.16298 0
M  V30 6025 H 581.402 -1.42573 0.640512 0
M  V30 6026 H 582.137 -2.92329 -1.40407 0
M  V30 6027 H 581.922 -3.92048 0.0636395 0
M  V30 6028 H 583.412 -4.07465 -0.91446 0
M  V30 6029 N 583.85 -0.624285 -1.44708 0
M  V30 6030 C 585.266 -0.289322 -1.56956 0
M  V30 6031 C 585.466 1.20773 -1.61295 0
M  V30 6032 O 584.522 1.9915 -1.55227 0
M  V30 6033 C 585.835 -0.975215 -2.84447 0
M  V30 6034 C 587.383 -0.952709 -2.98148 0
M  V30 6035 C 587.858 -1.61893 -4.28433 0
M  V30 6036 N 589.349 -1.5852 -4.35231 0
M  V30 6037 C 590.084 -2.06969 -5.34744 0
M  V30 6038 N 589.58 -2.63579 -6.40701 0
M  V30 6039 N 591.373 -1.97638 -5.26209 0
M  V30 6040 H 583.524 -1.59612 -1.40135 0
M  V30 6041 H 585.787 -0.669592 -0.671081 0
M  V30 6042 H 585.493 -2.02999 -2.87201 0
M  V30 6043 H 585.367 -0.508749 -3.73753 0
M  V30 6044 H 587.754 0.093568 -2.94952 0
M  V30 6045 H 587.835 -1.4576 -2.10209 0
M  V30 6046 H 587.479 -2.66463 -4.32389 0
M  V30 6047 H 587.409 -1.08893 -5.15218 0
M  V30 6048 H 589.899 -1.17183 -3.59272 0
M  V30 6049 H 590.213 -2.98298 -7.12908 0
M  V30 6050 H 588.558 -2.67626 -6.41406 0
M  V30 6051 H 591.749 -1.5314 -4.42341 0
M  V30 6052 H 591.922 -2.35708 -6.03611 0
M  V30 6053 N 585.328 1.53329 -0.364422 0
M  V30 6054 C 586.574 2.01537 0.225969 0
M  V30 6055 C 586.907 1.25128 1.48515 0
M  V30 6056 O 586.182 0.344653 1.91422 0
M  V30 6057 C 586.465 3.56339 0.519092 0
M  V30 6058 C 586.318 4.43441 -0.753639 0
M  V30 6059 C 587.637 4.19833 1.32015 0
M  V30 6060 H 584.756 0.732573 0.0806548 0
M  V30 6061 H 587.398 1.83597 -0.489084 0
M  V30 6062 H 585.548 3.71756 1.12825 0
M  V30 6063 H 587.22 4.39823 -1.39116 0
M  V30 6064 H 585.463 4.11457 -1.37424 0
M  V30 6065 H 586.134 5.49699 -0.503517 0
M  V30 6066 H 588.61 4.08242 0.804859 0
M  V30 6067 H 587.486 5.28177 1.49399 0
M  V30 6068 H 587.747 3.75821 2.32832 0
M  V30 6069 N 586.806 0.0935595 1.57322 0
M  V30 6070 C 587.769 -0.851426 2.12799 0
M  V30 6071 C 588.769 -1.21187 1.0569 0
M  V30 6072 O 589.959 -1.14156 1.31583 0
M  V30 6073 C 587.091 -2.14779 2.64731 0
M  V30 6074 H 588.284 -0.369733 2.97612 0
M  V30 6075 H 585.837 -0.155417 1.55525 0
M  V30 6076 H 586.572 -2.67437 1.83434 0
M  V30 6077 H 586.357 -1.89907 3.43042 0
M  V30 6078 H 587.847 -2.82383 3.07651 0
M  V30 6079 N 588.284 -1.56567 -0.180126 0
M  V30 6080 C 589.524 -1.83285 -0.904761 0
M  V30 6081 C 589.888 -0.673226 -1.7981 0
M  V30 6082 O 591.089 -0.820645 -2.55967 0
M  V30 6083 C 589.36 -3.15086 -1.68688 0
M  V30 6084 S 590.919 -3.63258 -2.46149 0
M  V30 6085 H 587.737 -0.643114 -0.303193 0
M  V30 6086 H 590.339 -1.94785 -0.167034 0
M  V30 6087 H 589.043 -3.97484 -1.02148 0
M  V30 6088 H 588.574 -3.06504 -2.46615 0
M  V30 6089 H 590.589 -3.29884 -3.70663 0
M  V30 6090 N 589.762 0.448376 -1.51087 0
M  V30 6091 C 591.173 1.0286 -1.5581 0
M  V30 6092 C 591.524 1.92583 -0.374989 0
M  V30 6093 O 590.649 2.10316 0.509533 0
M  V30 6094 C 591.244 1.87223 -2.8237 0
M  V30 6095 C 589.803 2.40314 -2.897 0
M  V30 6096 C 588.95 1.19238 -2.50355 0
M  V30 6097 H 591.901 0.230075 -1.57023 0
M  V30 6098 H 591.922 2.72553 -2.6551 0
M  V30 6099 H 591.434 1.21894 -3.68461 0
M  V30 6100 H 589.535 3.09129 -2.08014 0
M  V30 6101 H 589.648 2.73866 -3.93108 0
M  V30 6102 H 588.012 1.53428 -2.03303 0
M  V30 6103 H 588.795 0.555367 -3.38778 0
M  V30 6104 N 591.24 1.41047 0.703093 0
M  V30 6105 C 592.203 1.42036 1.79884 0
M  V30 6106 C 593.203 0.312153 1.57741 0
M  V30 6107 O 594.393 0.571672 1.64553 0
M  V30 6108 C 591.525 1.22437 3.18154 0
M  V30 6109 H 592.718 2.39572 1.80403 0
M  V30 6110 H 590.271 1.27079 0.909977 0
M  V30 6111 H 591.006 0.257112 3.23279 0
M  V30 6112 H 590.791 2.02723 3.35627 0
M  V30 6113 H 592.281 1.25946 3.98155 0
M  V30 6114 N 592.718 -0.936591 1.26751 0
M  V30 6115 C 593.666 -2.0573 1.08527 0
M  V30 6116 C 594.66 -1.69397 0.0108784 0
M  V30 6117 O 595.866 -1.79215 0.167915 0
M  V30 6118 H 592.241 -0.673691 0.334133 0
M  V30 6119 H 594.212 -2.1825 2.03493 0
M  V30 6120 C 592.961 -3.39738 0.739845 0
M  V30 6121 H 592.284 -3.68174 1.55845 0
M  V30 6122 H 593.724 -4.18955 0.652149 0
M  V30 6123 C 592.183 -3.32292 -0.555288 0
M  V30 6124 O 592.713 -3.68794 -1.59229 0
M  V30 6125 N 590.919 -2.85394 -0.54762 0
M  V30 6126 H 590.466 -2.55886 0.296667 0
M  V30 6127 H 590.424 -2.80795 -1.41427 0
M  V30 6128 N 594.196 -1.08629 -1.14182 0
M  V30 6129 C 595.159 -0.722027 -2.1753 0
M  V30 6130 C 596.159 0.244305 -1.58933 0
M  V30 6131 O 597.349 0.0235545 -1.74184 0
M  V30 6132 C 594.481 -0.0663966 -3.40835 0
M  V30 6133 H 595.674 -1.63719 -2.51269 0
M  V30 6134 H 593.227 -0.884442 -1.28869 0
M  V30 6135 H 593.962 0.860389 -3.12678 0
M  V30 6136 H 593.747 -0.761598 -3.84632 0
M  V30 6137 H 595.237 0.173346 -4.1724 0
M  V30 6138 N 595.674 1.31259 -0.872281 0
M  V30 6139 C 596.951 1.91362 -0.404943 0
M  V30 6140 C 597.331 1.79362 1.11321 0
M  V30 6141 O 596.679 1.20277 1.94283 0
M  V30 6142 C 596.889 3.3749 -0.888893 0
M  V30 6143 C 598.237 4.14593 -0.916384 0
M  V30 6144 O 599.261 3.46282 -0.834701 0
M  V30 6145 O 598.12 5.3661 -1.03498 0
M  V30 6146 H 595.214 0.818016 -0.121569 0
M  V30 6147 H 597.76 1.39912 -0.960346 0
M  V30 6148 H 596.532 3.40249 -1.93251 0
M  V30 6149 H 596.155 3.96375 -0.311932 0
M  V30 6150 N 597.152 0.631951 1.44375 0
M  V30 6151 C 598.392 0.14009 2.03919 0
M  V30 6152 C 598.756 -1.21534 1.48639 0
M  V30 6153 O 599.957 -1.79936 1.99691 0
M  V30 6154 C 598.228 0.127174 3.57174 0
M  V30 6155 S 599.787 -0.299946 4.37774 0
M  V30 6156 H 596.605 0.0614891 0.708336 0
M  V30 6157 H 599.207 0.835524 1.76746 0
M  V30 6158 H 597.911 1.11676 3.94913 0
M  V30 6159 H 597.442 -0.589482 3.88958 0
M  V30 6160 H 599.457 -1.54396 4.71568 0
M  V30 6161 N 598.631 -1.53133 0.372548 0
M  V30 6162 C 599.871 -2.03267 -0.214943 0
M  V30 6163 C 600.235 -1.25362 -1.45425 0
M  V30 6164 O 601.436 -1.65536 -2.11781 0
M  V30 6165 C 599.707 -3.53985 -0.492897 0
M  V30 6166 S 601.266 -4.25977 -1.05307 0
M  V30 6167 H 598.084 -0.708289 -0.062029 0
M  V30 6168 H 600.686 -1.88539 0.517025 0
M  V30 6169 H 599.39 -4.08282 0.416442 0
M  V30 6170 H 598.921 -3.72887 -1.25375 0
M  V30 6171 H 600.936 -4.37731 -2.33679 0
M  V30 6172 N 600.109 -0.101901 -1.5727 0
M  V30 6173 C 601.334 0.571759 -1.99363 0
M  V30 6174 C 601.759 1.60507 -0.980768 0
M  V30 6175 O 601.117 1.81231 0.0498517 0
M  V30 6176 C 601.165 1.18996 -3.404 0
M  V30 6177 O 600.269 2.30572 -3.41922 0
M  V30 6178 H 599.61 0.144449 -0.648098 0
M  V30 6179 H 602.14 -0.185325 -2.03759 0
M  V30 6180 H 602.15 1.52962 -3.78241 0
M  V30 6181 H 600.825 0.432984 -4.1364 0
M  V30 6182 H 599.402 1.98173 -3.15883 0
M  V30 6183 N 601.587 1.56661 0.17182 0
M  V30 6184 C 602.52 1.91474 1.24149 0
M  V30 6185 C 603.498 0.777485 1.42807 0
M  V30 6186 O 604.682 1.03075 1.57822 0
M  V30 6187 C 601.809 2.16523 2.60453 0
M  V30 6188 C 600.855 3.39209 2.58533 0
M  V30 6189 S 601.688 4.93594 2.07665 0
M  V30 6190 C 602.844 5.21737 3.45747 0
M  V30 6191 H 603.077 2.81903 0.944346 0
M  V30 6192 H 600.61 1.49743 0.376364 0
M  V30 6193 H 602.568 2.31635 3.38903 0
M  V30 6194 H 601.229 1.26802 2.87368 0
M  V30 6195 H 600.422 3.53935 3.58812 0
M  V30 6196 H 600.024 3.2321 1.88178 0
M  V30 6197 H 602.316 5.13684 4.41741 0
M  V30 6198 H 603.259 6.23361 3.35896 0
M  V30 6199 H 603.667 4.49307 3.41736 0
M  V30 6200 N 603.065 -0.440357 1.51323 0
M  V30 6201 C 604.481 -0.7766 1.39431 0
M  V30 6202 C 604.681 -1.95838 0.474296 0
M  V30 6203 O 603.737 -2.52398 -0.0716692 0
M  V30 6204 C 605.05 -1.05981 2.81405 0
M  V30 6205 C 606.598 -1.16442 2.90534 0
M  V30 6206 C 607.073 -1.48058 4.33408 0
M  V30 6207 N 608.564 -1.54988 4.36501 0
M  V30 6208 C 609.299 -1.81017 5.44078 0
M  V30 6209 N 608.795 -2.04858 6.61819 0
M  V30 6210 N 610.588 -1.82774 5.31554 0
M  V30 6211 H 602.739 0.338006 2.09693 0
M  V30 6212 H 605.002 0.0888072 0.943831 0
M  V30 6213 H 604.708 -0.264173 3.50706 0
M  V30 6214 H 604.582 -1.98822 3.20546 0
M  V30 6215 H 606.969 -1.95068 2.21432 0
M  V30 6216 H 607.05 -0.215088 2.54894 0
M  V30 6217 H 606.694 -0.699605 5.03059 0
M  V30 6218 H 606.624 -2.44192 4.66559 0
M  V30 6219 H 609.115 -1.38479 3.51613 0
M  V30 6220 H 609.428 -2.2408 7.396 0
M  V30 6221 H 607.773 -2.02187 6.6494 0
M  V30 6222 H 610.964 -1.63665 4.38556 0
M  V30 6223 H 611.137 -2.02722 6.15474 0
M  V30 6224 N 604.543 -1.41418 -0.695603 0
M  V30 6225 C 605.506 -1.42988 -1.79129 0
M  V30 6226 C 606.506 -0.320514 -1.57573 0
M  V30 6227 O 607.696 -0.58039 -1.64247 0
M  V30 6228 C 604.828 -1.24122 -3.175 0
M  V30 6229 H 606.021 -2.40526 -1.7913 0
M  V30 6230 H 603.574 -1.2756 -0.903225 0
M  V30 6231 H 604.309 -0.274253 -3.23138 0
M  V30 6232 H 604.094 -2.045 -3.34547 0
M  V30 6233 H 605.584 -1.28056 -3.97481 0
M  V30 6234 N 606.021 0.929856 -1.27246 0
M  V30 6235 C 607.261 1.6919 -1.14691 0
M  V30 6236 C 607.625 1.896 0.302621 0
M  V30 6237 O 608.826 2.63102 0.550543 0
M  V30 6238 C 607.097 3.02291 -1.9067 0
M  V30 6239 S 608.656 3.93436 -1.94303 0
M  V30 6240 H 605.474 0.581248 -0.409477 0
M  V30 6241 H 608.076 1.10722 -1.61124 0
M  V30 6242 H 606.78 2.85125 -2.95181 0
M  V30 6243 H 606.311 3.65813 -1.44723 0
M  V30 6244 H 608.326 4.85224 -1.0379 0
M  V30 6245 N 607.499 1.09233 1.13605 0
M  V30 6246 C 608.915 0.82163 1.36826 0
M  V30 6247 C 609.115 -0.565021 1.93416 0
M  V30 6248 O 608.171 -1.32026 2.15234 0
M  V30 6249 C 609.484 1.91124 2.32147 0
M  V30 6250 C 611.032 1.93824 2.45767 0
M  V30 6251 C 611.507 3.01923 3.44393 0
M  V30 6252 N 612.998 3.01149 3.51942 0
M  V30 6253 C 613.733 3.81434 4.2813 0
M  V30 6254 N 613.229 4.71621 5.07489 0
M  V30 6255 N 615.022 3.69702 4.23411 0
M  V30 6256 H 607.173 1.98633 0.752234 0
M  V30 6257 H 609.436 0.862482 0.393482 0
M  V30 6258 H 609.142 2.90862 1.97717 0
M  V30 6259 H 609.016 1.78777 3.32142 0
M  V30 6260 H 611.403 0.94726 2.79483 0
M  V30 6261 H 611.484 2.10248 1.45703 0
M  V30 6262 H 611.128 4.01232 3.11408 0
M  V30 6263 H 611.058 2.82742 4.44257 0
M  V30 6264 H 613.549 2.35789 2.95317 0
M  V30 6265 H 613.862 5.29468 5.62924 0
M  V30 6266 H 612.207 4.75658 5.06729 0
M  V30 6267 H 615.398 2.98606 3.60489 0
M  V30 6268 H 615.571 4.32509 4.82535 0
M  V30 6269 N 608.977 -1.30795 0.87923 0
M  V30 6270 C 609.91 -2.26396 0.286404 0
M  V30 6271 C 610.888 -1.51528 -0.589748 0
M  V30 6272 O 612.072 -1.80566 -0.541119 0
M  V30 6273 C 609.199 -3.33458 -0.593581 0
M  V30 6274 C 608.245 -4.2597 0.21247 0
M  V30 6275 S 609.078 -5.11132 1.59702 0
M  V30 6276 C 610.234 -6.21705 0.723408 0
M  V30 6277 H 610.467 -2.7633 1.09677 0
M  V30 6278 H 608 -1.38703 0.678305 0
M  V30 6279 H 609.958 -3.9561 -1.09557 0
M  V30 6280 H 608.619 -2.82259 -1.37799 0
M  V30 6281 H 607.812 -5.01907 -0.458822 0
M  V30 6282 H 607.414 -3.68363 0.646883 0
M  V30 6283 H 609.706 -6.77472 -0.0620739 0
M  V30 6284 H 610.649 -6.93007 1.4542 0
M  V30 6285 H 611.057 -5.63771 0.286855 0
M  V30 6286 N 610.455 -0.639598 -1.44038 0
M  V30 6287 C 611.866 -0.228866 -1.85292 0
M  V30 6288 C 612.217 1.22161 -1.53529 0
M  V30 6289 O 611.342 1.93064 -0.977518 0
M  V30 6290 C 611.937 -0.408592 -3.36327 0
M  V30 6291 C 610.496 -0.0522953 -3.76364 0
M  V30 6292 C 609.643 -0.717959 -2.67844 0
M  V30 6293 H 612.594 -0.844194 -1.34384 0
M  V30 6294 H 612.615 0.349968 -3.78887 0
M  V30 6295 H 612.127 -1.46435 -3.59414 0
M  V30 6296 H 610.228 1.0014 -3.58891 0
M  V30 6297 H 610.341 -0.468261 -4.76806 0
M  V30 6298 H 608.705 -0.152459 -2.54243 0
M  V30 6299 H 609.488 -1.77648 -2.93762 0
M  V30 6300 N 611.933 1.52934 -0.380664 0
M  V30 6301 C 612.896 2.24809 0.446473 0
M  V30 6302 C 613.896 1.26133 0.997347 0
M  V30 6303 O 615.086 1.50297 0.880714 0
M  V30 6304 C 612.218 2.99649 1.62553 0
M  V30 6305 H 613.411 2.99343 -0.182677 0
M  V30 6306 H 610.964 1.55736 -0.132618 0
M  V30 6307 H 611.699 2.29395 2.29235 0
M  V30 6308 H 611.484 3.72066 1.23732 0
M  V30 6309 H 612.974 3.54246 2.21133 0
M  V30 6310 N 613.412 0.11024 1.57214 0
M  V30 6311 C 614.637 -0.561179 1.99664 0
M  V30 6312 C 615.062 -1.59985 0.989266 0
M  V30 6313 O 614.42 -1.81255 -0.0402399 0
M  V30 6314 C 614.468 -1.17189 3.41027 0
M  V30 6315 O 613.572 -2.28755 3.4314 0
M  V30 6316 H 612.913 -0.14101 0.648855 0
M  V30 6317 H 615.443 0.196128 2.03658 0
M  V30 6318 H 615.453 -1.50954 3.79047 0
M  V30 6319 H 614.128 -0.411041 4.13864 0
M  V30 6320 H 612.705 -1.96495 3.16929 0
M  V30 6321 N 614.89 -1.56749 -0.16351 0
M  V30 6322 C 615.822 -1.93587 -1.22705 0
M  V30 6323 C 616.835 -0.829824 -1.40063 0
M  V30 6324 O 618.024 -1.10826 -1.39928 0
M  V30 6325 C 615.124 -2.1803 -2.59454 0
M  V30 6326 C 614.297 -3.4928 -2.63292 0
M  V30 6327 C 613.356 -3.62457 -3.8146 0
M  V30 6328 O 612.382 -4.35004 -3.67096 0
M  V30 6329 N 613.584 -2.97888 -4.9824 0
M  V30 6330 H 616.349 -2.8542 -0.914081 0
M  V30 6331 H 613.91 -1.58 -0.353214 0
M  V30 6332 H 615.902 -2.24102 -3.36987 0
M  V30 6333 H 614.472 -1.32543 -2.8311 0
M  V30 6334 H 613.692 -3.54795 -1.71796 0
M  V30 6335 H 614.98 -4.35632 -2.62873 0
M  V30 6336 H 614.378 -2.38833 -5.12811 0
M  V30 6337 H 612.935 -3.09545 -5.73607 0
M  V30 6338 N 616.368 0.432326 -1.51554 0
M  V30 6339 C 617.608 1.19076 -1.66133 0
M  V30 6340 C 617.972 1.88364 -0.371873 0
M  V30 6341 O 619.173 2.65904 -0.39349 0
M  V30 6342 C 617.444 2.1768 -2.83461 0
M  V30 6343 S 619.003 3.01943 -3.18396 0
M  V30 6344 H 615.821 0.403735 -0.585251 0
M  V30 6345 H 618.423 0.481554 -1.89476 0
M  V30 6346 H 617.127 1.65424 -3.75583 0
M  V30 6347 H 616.658 2.93174 -2.62322 0
M  V30 6348 H 618.673 4.19373 -2.65219 0
M  V30 6349 N 617.846 1.41785 0.688094 0
M  V30 6350 C 619.086 1.43018 1.46032 0
M  V30 6351 C 619.45 0.0402632 1.91958 0
M  V30 6352 O 620.651 -0.0726425 2.68702 0
M  V30 6353 C 618.922 2.4151 2.63453 0
M  V30 6354 S 620.481 2.61335 3.5249 0
M  V30 6355 H 617.299 0.506546 0.498931 0
M  V30 6356 H 619.901 1.78283 0.80221 0
M  V30 6357 H 618.605 3.41286 2.27929 0
M  V30 6358 H 618.136 2.07624 3.34149 0
M  V30 6359 H 620.151 1.88637 4.58945 0
M  V30 6360 N 619.324 -0.923095 1.27737 0
M  V30 6361 C 620.601 -1.64989 1.05062 0
M  V30 6362 C 620.981 -2.07018 -0.413124 0
M  V30 6363 O 620.329 -1.80797 -1.39731 0
M  V30 6364 C 620.539 -2.84847 2.01652 0
M  V30 6365 C 621.887 -3.56083 2.31279 0
M  V30 6366 O 622.911 -2.94981 1.99662 0
M  V30 6367 O 621.77 -4.66182 2.85196 0
M  V30 6368 H 618.864 -0.723357 0.400853 0
M  V30 6369 H 621.41 -0.973224 1.3902 0
M  V30 6370 H 620.182 -2.50814 3.00347 0
M  V30 6371 H 619.805 -3.60231 1.68284 0
M  V30 6372 N 620.802 -1.09834 -1.13024 0
M  V30 6373 C 621.749 -0.741522 -2.18564 0
M  V30 6374 C 622.719 0.279236 -1.63736 0
M  V30 6375 O 623.904 0.159923 -1.90129 0
M  V30 6376 C 621.044 -0.17277 -3.44667 0
M  V30 6377 C 620.157 -1.24808 -4.13578 0
M  V30 6378 C 619.292 -0.641631 -5.27311 0
M  V30 6379 C 618.331 -1.69795 -5.88078 0
M  V30 6380 N 617.468 -1.11223 -6.93234 0
M  V30 6381 H 622.308 -1.64576 -2.48432 0
M  V30 6382 H 619.845 -0.822174 -1.21978 0
M  V30 6383 H 621.803 0.17482 -4.16834 0
M  V30 6384 H 620.433 0.694725 -3.15235 0
M  V30 6385 H 619.485 -1.71288 -3.39653 0
M  V30 6386 H 620.797 -2.04795 -4.54819 0
M  V30 6387 H 619.951 -0.243128 -6.06213 0
M  V30 6388 H 618.69 0.189742 -4.87331 0
M  V30 6389 H 617.695 -2.10595 -5.07868 0
M  V30 6390 H 618.92 -2.53206 -6.3013 0
M  V30 6391 H 616.866 -0.302208 -6.55304 0
M  V30 6392 H 616.783 -1.84901 -7.3304 0
M  V30 6393 H 618.051 -0.740068 -7.75979 0
M  V30 6394 N 622.28 1.30327 -0.886154 0
M  V30 6395 C 623.696 1.48676 -0.580323 0
M  V30 6396 C 623.896 1.81189 0.881639 0
M  V30 6397 O 622.952 1.90021 1.66278 0
M  V30 6398 C 624.265 2.60932 -1.49449 0
M  V30 6399 C 625.813 2.74812 -1.49824 0
M  V30 6400 C 626.288 3.90183 -2.39836 0
M  V30 6401 N 627.779 3.97495 -2.37806 0
M  V30 6402 C 628.514 4.86078 -3.04165 0
M  V30 6403 N 628.01 5.79448 -3.79753 0
M  V30 6404 N 629.803 4.79456 -2.93391 0
M  V30 6405 H 621.954 1.07495 -1.8319 0
M  V30 6406 H 624.217 0.532661 -0.784204 0
M  V30 6407 H 623.923 2.43731 -2.5355 0
M  V30 6408 H 623.797 3.57437 -1.20494 0
M  V30 6409 H 626.184 2.91418 -0.464731 0
M  V30 6410 H 626.265 1.78924 -1.82811 0
M  V30 6411 H 625.909 3.74334 -3.43273 0
M  V30 6412 H 625.839 4.85411 -2.04166 0
M  V30 6413 H 628.33 3.30703 -1.82877 0
M  V30 6414 H 628.643 6.43805 -4.27475 0
M  V30 6415 H 626.988 5.79376 -3.8386 0
M  V30 6416 H 630.179 4.05494 -2.33864 0
M  V30 6417 H 630.352 5.48283 -3.45383 0
M  V30 6418 N 623.758 0.647228 1.43697 0
M  V30 6419 C 625.007 0.155552 2.01099 0
M  V30 6420 C 625.32 -1.23569 1.51624 0
M  V30 6421 O 626.526 -1.82226 2.01261 0
M  V30 6422 C 624.982 0.227296 3.59182 0
M  V30 6423 C 624.59 1.62086 4.17651 0
M  V30 6424 C 626.334 -0.207085 4.23995 0
M  V30 6425 C 624.241 1.64685 5.68008 0
M  V30 6426 H 623.171 0.0543895 0.752036 0
M  V30 6427 H 625.822 0.808386 1.64734 0
M  V30 6428 H 624.204 -0.492937 3.9292 0
M  V30 6429 H 625.378 2.36597 3.95422 0
M  V30 6430 H 623.693 2.0007 3.65186 0
M  V30 6431 H 626.29 -0.207426 5.34298 0
M  V30 6432 H 626.633 -1.23742 3.97484 0
M  V30 6433 H 627.166 0.461193 3.95118 0
M  V30 6434 H 623.905 2.65608 5.99277 0
M  V30 6435 H 623.425 0.944914 5.9231 0
M  V30 6436 H 625.104 1.38792 6.31938 0
M  V30 6437 N 625.236 -1.5273 0.388769 0
M  V30 6438 C 626.184 -2.27975 -0.461527 0
M  V30 6439 C 627.178 -1.31854 -1.06352 0
M  V30 6440 O 628.384 -1.49394 -1.00406 0
M  V30 6441 H 624.759 -0.733088 -0.16759 0
M  V30 6442 H 626.73 -2.97765 0.194579 0
M  V30 6443 C 625.479 -3.09881 -1.577 0
M  V30 6444 H 624.802 -3.83701 -1.12309 0
M  V30 6445 H 626.242 -3.6567 -2.14619 0
M  V30 6446 C 624.701 -2.22159 -2.53272 0
M  V30 6447 O 625.231 -1.84802 -3.56667 0
M  V30 6448 N 623.437 -1.8633 -2.23001 0
M  V30 6449 H 622.984 -2.16909 -1.38954 0
M  V30 6450 H 622.942 -1.27927 -2.87197 0
M  V30 6451 N 626.714 -0.118576 -1.57153 0
M  V30 6452 C 628.125 0.40687 -1.82213 0
M  V30 6453 C 628.476 1.66636 -1.03571 0
M  V30 6454 O 627.601 2.14682 -0.272171 0
M  V30 6455 C 628.196 0.744949 -3.30509 0
M  V30 6456 C 626.755 1.21503 -3.5625 0
M  V30 6457 C 625.902 0.223511 -2.76398 0
M  V30 6458 H 628.853 -0.343712 -1.54933 0
M  V30 6459 H 628.874 1.6024 -3.45114 0
M  V30 6460 H 628.386 -0.171911 -3.87719 0
M  V30 6461 H 626.487 2.1488 -3.04396 0
M  V30 6462 H 626.6 1.16065 -4.64829 0
M  V30 6463 H 624.964 0.71046 -2.44591 0
M  V30 6464 H 625.747 -0.686439 -3.36367 0
M  V30 6465 N 628.193 1.56834 0.155195 0
M  V30 6466 C 629.103 2.009 1.21146 0
M  V30 6467 C 630.119 0.923029 1.475 0
M  V30 6468 O 631.295 1.23189 1.59331 0
M  V30 6469 C 628.36 2.37378 2.52691 0
M  V30 6470 C 627.421 3.59883 2.34057 0
M  V30 6471 C 626.654 3.94612 3.59329 0
M  V30 6472 O 626.877 3.30104 4.65175 0
M  V30 6473 O 625.811 4.87895 3.52479 0
M  V30 6474 H 629.637 2.9105 0.867371 0
M  V30 6475 H 627.222 1.44916 0.363298 0
M  V30 6476 H 629.104 2.61737 3.3026 0
M  V30 6477 H 627.779 1.50385 2.86646 0
M  V30 6478 H 626.686 3.40722 1.54465 0
M  V30 6479 H 628.019 4.47468 2.0502 0
M  V30 6480 N 629.671 -0.424282 1.51781 0
M  V30 6481 C 630.918 -1.1726 1.65095 0
M  V30 6482 C 631.246 -1.90881 0.373477 0
M  V30 6483 O 630.501 -1.84835 -0.642997 0
M  V30 6484 C 630.8 -2.20418 2.81337 0
M  V30 6485 C 630.466 -1.63715 4.20129 0
M  V30 6486 C 629.128 -1.47975 4.57883 0
M  V30 6487 C 631.48 -1.22157 5.06682 0
M  V30 6488 C 628.808 -0.891703 5.79884 0
M  V30 6489 C 631.16 -0.647767 6.29275 0
M  V30 6490 C 629.824 -0.477371 6.65791 0
M  V30 6491 H 629.094 -0.429085 0.604125 0
M  V30 6492 H 631.741 -0.461852 1.85847 0
M  V30 6493 H 630.046 -2.97581 2.54859 0
M  V30 6494 H 631.743 -2.78163 2.88836 0
M  V30 6495 H 628.333 -1.76946 3.90369 0
M  V30 6496 H 632.517 -1.33133 4.7811 0
M  V30 6497 H 627.773 -0.747563 6.06813 0
M  V30 6498 H 631.947 -0.317291 6.95677 0
M  V30 6499 H 629.574 -0.0195936 7.60197 0
M  V30 6500 N 631.149 -1.42148 -0.680565 0
M  V30 6501 C 632.079 -1.4796 -1.80638 0
M  V30 6502 C 633.06 -0.336728 -1.66734 0
M  V30 6503 O 634.245 -0.550247 -1.86242 0
M  V30 6504 C 631.375 -1.37569 -3.18892 0
M  V30 6505 C 630.329 -2.49823 -3.47524 0
M  V30 6506 C 629.655 -2.24491 -4.85291 0
M  V30 6507 C 630.955 -3.92144 -3.44994 0
M  V30 6508 H 632.649 -2.42184 -1.76032 0
M  V30 6509 H 630.195 -1.16566 -0.845481 0
M  V30 6510 H 632.148 -1.40243 -3.97379 0
M  V30 6511 H 630.872 -0.398357 -3.24162 0
M  V30 6512 H 629.531 -2.46455 -2.71395 0
M  V30 6513 H 629.179 -1.25066 -4.87204 0
M  V30 6514 H 628.879 -2.99722 -5.05411 0
M  V30 6515 H 630.403 -2.28906 -5.66069 0
M  V30 6516 H 631.817 -3.97145 -4.13459 0
M  V30 6517 H 630.214 -4.67179 -3.76648 0
M  V30 6518 H 631.284 -4.19225 -2.43676 0
M  V30 6519 N 632.627 0.916307 -1.28225 0
M  V30 6520 C 633.557 2.0352 -1.14464 0
M  V30 6521 C 634.538 1.70045 -0.0430844 0
M  V30 6522 O 635.723 1.92954 -0.219619 0
M  V30 6523 C 632.853 3.37889 -0.803027 0
M  V30 6524 C 631.807 3.85516 -1.85908 0
M  V30 6525 C 631.133 5.1682 -1.37116 0
M  V30 6526 C 632.433 4.07655 -3.26519 0
M  V30 6527 H 634.127 2.1529 -2.08064 0
M  V30 6528 H 631.673 1.03446 -1.00174 0
M  V30 6529 H 633.626 4.15654 -0.693537 0
M  V30 6530 H 632.35 3.26164 0.168674 0
M  V30 6531 H 631.009 3.09953 -1.95767 0
M  V30 6532 H 630.657 5.01497 -0.38859 0
M  V30 6533 H 630.357 5.49657 -2.07728 0
M  V30 6534 H 631.881 5.97143 -1.27484 0
M  V30 6535 H 633.295 4.75953 -3.19596 0
M  V30 6536 H 631.692 4.51818 -3.94943 0
M  V30 6537 H 632.762 3.12553 -3.70727 0
M  V30 6538 N 634.105 1.10431 1.1244 0
M  V30 6539 C 635.068 0.756542 2.16354 0
M  V30 6540 C 636.068 -0.21899 1.59302 0
M  V30 6541 O 637.258 0.00415969 1.742 0
M  V30 6542 C 634.39 0.120612 3.40687 0
M  V30 6543 H 635.583 1.67696 2.48632 0
M  V30 6544 H 633.136 0.904832 1.27446 0
M  V30 6545 H 633.871 -0.810536 3.14008 0
M  V30 6546 H 633.656 0.822693 3.83372 0
M  V30 6547 H 635.146 -0.106945 4.17463 0
M  V30 6548 N 635.583 -1.29855 0.893053 0
M  V30 6549 C 636.531 -2.29867 0.355512 0
M  V30 6550 C 637.525 -1.60502 -0.541801 0
M  V30 6551 O 638.731 -1.74902 -0.425339 0
M  V30 6552 H 635.106 -0.745805 0.0963247 0
M  V30 6553 H 637.077 -2.72655 1.21252 0
M  V30 6554 C 635.826 -3.453 -0.407801 0
M  V30 6555 H 635.149 -3.98864 0.273426 0
M  V30 6556 H 636.589 -4.17334 -0.748887 0
M  V30 6557 C 635.048 -2.96051 -1.60795 0
M  V30 6558 O 635.578 -2.96763 -2.7073 0
M  V30 6559 N 633.784 -2.51963 -1.44786 0
M  V30 6560 H 633.331 -2.51583 -0.553498 0
M  V30 6561 H 633.289 -2.1937 -2.2522 0
M  V30 6562 N 637.061 -0.65484 -1.43351 0
M  V30 6563 C 638.307 -0.169142 -2.02093 0
M  V30 6564 C 638.64 1.21431 -1.51553 0
M  V30 6565 O 637.915 1.81105 -0.709317 0
M  V30 6566 C 638.198 -0.181775 -3.59641 0
M  V30 6567 C 638.051 -1.59926 -4.20409 0
M  V30 6568 C 639.37 0.480945 -4.37464 0
M  V30 6569 H 636.489 -0.0629371 -0.734308 0
M  V30 6570 H 639.131 -0.835833 -1.70628 0
M  V30 6571 H 637.281 0.385918 -3.86578 0
M  V30 6572 H 638.953 -2.21766 -4.04497 0
M  V30 6573 H 637.196 -2.14605 -3.76998 0
M  V30 6574 H 637.867 -1.55994 -5.295 0
M  V30 6575 H 640.343 -0.00208273 -4.161 0
M  V30 6576 H 639.219 0.441384 -5.47122 0
M  V30 6577 H 639.48 1.55533 -4.13838 0
M  V30 6578 N 638.539 1.52521 -0.396863 0
M  V30 6579 C 639.472 2.23118 0.478926 0
M  V30 6580 C 640.45 1.23475 1.05796 0
M  V30 6581 O 641.634 1.52486 1.10817 0
M  V30 6582 C 638.761 2.95028 1.66362 0
M  V30 6583 C 637.807 4.09002 1.20913 0
M  V30 6584 S 638.64 5.35182 0.184407 0
M  V30 6585 C 639.796 6.10616 1.37471 0
M  V30 6586 H 640.029 2.97056 -0.120542 0
M  V30 6587 H 637.562 1.53334 -0.18109 0
M  V30 6588 H 639.52 3.37066 2.34301 0
M  V30 6589 H 638.181 2.20756 2.23441 0
M  V30 6590 H 637.374 4.58445 2.09389 0
M  V30 6591 H 636.976 3.69016 0.608559 0
M  V30 6592 H 639.268 6.37247 2.30048 0
M  V30 6593 H 640.211 7.02084 0.921051 0
M  V30 6594 H 640.619 5.41499 1.59495 0
M  V30 6595 N 640.017 0.126909 1.57088 0
M  V30 6596 C 641.428 -0.397201 1.82426 0
M  V30 6597 C 641.779 -1.66084 1.04453 0
M  V30 6598 O 640.904 -2.14534 0.283552 0
M  V30 6599 C 641.499 -0.727411 3.30899 0
M  V30 6600 C 640.058 -1.19612 3.56889 0
M  V30 6601 C 639.205 -0.20885 2.76512 0
M  V30 6602 H 642.156 0.351924 1.54749 0
M  V30 6603 H 642.177 -1.58407 3.45959 0
M  V30 6604 H 641.689 0.19247 3.87622 0
M  V30 6605 H 639.79 -2.13263 3.05532 0
M  V30 6606 H 639.903 -1.13598 4.65438 0
M  V30 6607 H 638.267 -0.697479 2.44964 0
M  V30 6608 H 639.05 0.704267 3.35998 0
M  V30 6609 N 641.495 -1.56914 -0.146875 0
M  V30 6610 C 642.72 -1.87881 -0.878386 0
M  V30 6611 C 643.145 -0.715945 -1.73942 0
M  V30 6612 O 642.503 0.334447 -1.78189 0
M  V30 6613 C 642.551 -3.17431 -1.71084 0
M  V30 6614 O 641.655 -3.01374 -2.81509 0
M  V30 6615 H 640.996 -0.617289 -0.244644 0
M  V30 6616 H 643.526 -2.04136 -0.137654 0
M  V30 6617 H 643.536 -3.49455 -2.10582 0
M  V30 6618 H 642.211 -4.01671 -1.07856 0
M  V30 6619 H 640.788 -2.80758 -2.45416 0
M  V30 6620 N 642.974 0.416227 -1.52004 0
M  V30 6621 C 644.22 1.16555 -1.6596 0
M  V30 6622 C 644.553 1.90347 -0.384906 0
M  V30 6623 O 643.828 1.84474 0.616405 0
M  V30 6624 C 644.111 2.1657 -2.87696 0
M  V30 6625 C 643.964 1.46722 -4.25197 0
M  V30 6626 C 645.283 3.17321 -3.04951 0
M  V30 6627 H 642.402 0.422369 -0.603965 0
M  V30 6628 H 645.044 0.452141 -1.84542 0
M  V30 6629 H 643.194 2.77411 -2.71985 0
M  V30 6630 H 644.866 0.89056 -4.52622 0
M  V30 6631 H 643.109 0.769263 -4.26925 0
M  V30 6632 H 643.78 2.19665 -5.0641 0
M  V30 6633 H 646.256 2.66552 -3.19514 0
M  V30 6634 H 645.132 3.84573 -3.91656 0
M  V30 6635 H 645.393 3.84643 -2.17951 0
M  V30 6636 N 644.452 1.42507 0.673017 0
M  V30 6637 C 645.382 1.48916 1.79851 0
M  V30 6638 C 646.363 0.345566 1.66553 0
M  V30 6639 O 647.548 0.560116 1.85947 0
M  V30 6640 C 644.678 1.39258 3.18158 0
M  V30 6641 C 643.632 2.51662 3.46194 0
M  V30 6642 C 642.958 2.27062 4.84094 0
M  V30 6643 C 644.258 3.93968 3.42909 0
M  V30 6644 H 645.952 2.43114 1.74745 0
M  V30 6645 H 643.498 1.17013 0.839288 0
M  V30 6646 H 645.451 1.42349 3.96629 0
M  V30 6647 H 644.175 0.415542 3.23946 0
M  V30 6648 H 642.834 2.47891 2.70084 0
M  V30 6649 H 642.482 1.27648 4.86534 0
M  V30 6650 H 642.182 3.02398 5.03815 0
M  V30 6651 H 643.706 2.31905 5.64847 0
M  V30 6652 H 645.12 3.99332 4.11347 0
M  V30 6653 H 643.517 4.6917 3.74165 0
M  V30 6654 H 644.587 4.20512 2.41449 0
M  V30 6655 N 645.93 -0.909495 1.28709 0
M  V30 6656 C 647.158 -1.69272 1.18973 0
M  V30 6657 C 647.573 -1.87123 -0.251048 0
M  V30 6658 O 646.93 -1.40127 -1.16922 0
M  V30 6659 C 646.981 -3.08257 1.88839 0
M  V30 6660 O 646.702 -2.91228 3.27289 0
M  V30 6661 C 648.203 -4.02642 1.85457 0
M  V30 6662 H 645.423 -0.528999 0.412797 0
M  V30 6663 H 647.967 -1.13803 1.69909 0
M  V30 6664 H 646.122 -3.6053 1.41762 0
M  V30 6665 H 646.536 -3.79223 3.6234 0
M  V30 6666 H 648.01 -4.97613 2.38925 0
M  V30 6667 H 648.487 -4.31327 0.827893 0
M  V30 6668 H 649.093 -3.56298 2.32233 0
M  V30 6669 N 647.408 -1.11026 -1.11852 0
M  V30 6670 C 648.824 -0.843294 -1.35502 0
M  V30 6671 C 649.024 0.534179 -1.9429 0
M  V30 6672 O 648.08 1.28585 -2.17307 0
M  V30 6673 C 649.393 -1.94793 -2.29077 0
M  V30 6674 C 650.941 -1.97709 -2.42652 0
M  V30 6675 C 651.416 -3.07364 -3.39546 0
M  V30 6676 N 652.907 -3.0671 -3.47107 0
M  V30 6677 C 653.642 -3.88197 -4.22008 0
M  V30 6678 N 653.138 -4.79635 -4.99922 0
M  V30 6679 N 654.931 -3.76391 -4.17476 0
M  V30 6680 H 647.082 -1.99805 -0.720538 0
M  V30 6681 H 649.345 -0.868633 -0.379711 0
M  V30 6682 H 649.051 -2.93971 -1.93065 0
M  V30 6683 H 648.925 -1.84039 -3.29256 0
M  V30 6684 H 651.312 -0.991604 -2.77941 0
M  V30 6685 H 651.393 -2.1254 -1.4234 0
M  V30 6686 H 651.037 -4.06136 -3.04985 0
M  V30 6687 H 650.967 -2.89774 -4.39703 0
M  V30 6688 H 653.458 -2.40457 -2.91528 0
M  V30 6689 H 653.771 -5.38357 -5.54429 0
M  V30 6690 H 652.116 -4.8366 -4.99097 0
M  V30 6691 H 655.307 -3.04303 -3.55693 0
M  V30 6692 H 655.48 -4.40131 -4.75593 0
M  V30 6693 N 648.886 1.2938 -0.899927 0
M  V30 6694 C 650.135 1.9483 -0.521937 0
M  V30 6695 C 650.448 1.71725 0.936473 0
M  V30 6696 O 651.654 2.31282 1.42199 0
M  V30 6697 C 650.11 3.48911 -0.88255 0
M  V30 6698 C 649.718 3.80815 -2.35974 0
M  V30 6699 C 651.462 4.20595 -0.57448 0
M  V30 6700 C 649.369 5.28142 -2.66121 0
M  V30 6701 H 648.299 0.729285 -0.191468 0
M  V30 6702 H 650.95 1.47103 -1.09695 0
M  V30 6703 H 649.332 3.95293 -0.236459 0
M  V30 6704 H 650.506 3.45291 -3.05141 0
M  V30 6705 H 648.821 3.22271 -2.63686 0
M  V30 6706 H 651.418 5.29031 -0.776556 0
M  V30 6707 H 651.761 4.13442 0.487005 0
M  V30 6708 H 652.294 3.79945 -1.17842 0
M  V30 6709 H 649.033 5.4036 -3.71068 0
M  V30 6710 H 648.553 5.64913 -2.01578 0
M  V30 6711 H 650.232 5.95738 -2.52399 0
M  V30 6712 N 650.364 0.662433 1.43002 0
M  V30 6713 C 651.589 0.186003 2.06564 0
M  V30 6714 C 652.014 -1.14314 1.49379 0
M  V30 6715 O 651.372 -1.70824 0.607346 0
M  V30 6716 C 651.42 0.118269 3.60406 0
M  V30 6717 O 650.524 -0.916859 4.02079 0
M  V30 6718 H 649.865 0.0990981 0.656563 0
M  V30 6719 H 652.395 0.907958 1.8335 0
M  V30 6720 H 652.405 -0.0619981 4.07953 0
M  V30 6721 H 651.08 1.08849 4.01403 0
M  V30 6722 H 649.657 -0.708635 3.66105 0
M  V30 6723 N 651.842 -1.52309 0.404946 0
M  V30 6724 C 653.067 -2.06666 -0.1743 0
M  V30 6725 C 653.492 -1.27341 -1.38441 0
M  V30 6726 O 652.85 -0.302539 -1.78758 0
M  V30 6727 C 652.898 -3.57014 -0.507262 0
M  V30 6728 O 652.002 -3.80144 -1.59889 0
M  V30 6729 H 651.343 -0.663807 -0.0160273 0
M  V30 6730 H 653.873 -1.96297 0.576937 0
M  V30 6731 H 653.883 -4.00724 -0.767098 0
M  V30 6732 H 652.558 -4.14184 0.377368 0
M  V30 6733 H 651.135 -3.48316 -1.33155 0
M  V30 6734 N 653.32 -0.135238 -1.57019 0
M  V30 6735 C 654.736 0.221262 -1.58059 0
M  V30 6736 C 654.936 1.65538 -1.14889 0
M  V30 6737 O 653.992 2.37985 -0.843751 0
M  V30 6738 C 655.305 -0.0268114 -3.00688 0
M  V30 6739 C 656.853 0.0378206 -3.12977 0
M  V30 6740 C 657.328 -0.182769 -4.57635 0
M  V30 6741 N 658.819 -0.129292 -4.6302 0
M  V30 6742 C 659.554 -0.274648 -5.72742 0
M  V30 6743 N 659.05 -0.477075 -6.91155 0
M  V30 6744 N 660.843 -0.213077 -5.61696 0
M  V30 6745 H 652.994 -1.07177 -1.83376 0
M  V30 6746 H 655.257 -0.423338 -0.848227 0
M  V30 6747 H 654.963 -1.01889 -3.36618 0
M  V30 6748 H 654.837 0.697863 -3.70688 0
M  V30 6749 H 657.224 1.02043 -2.76896 0
M  V30 6750 H 657.305 -0.718996 -2.45487 0
M  V30 6751 H 656.949 -1.16243 -4.94419 0
M  V30 6752 H 656.879 0.59423 -5.23237 0
M  V30 6753 H 659.37 0.0229896 -3.77893 0
M  V30 6754 H 659.683 -0.578413 -7.70632 0
M  V30 6755 H 658.028 -0.513252 -6.93102 0
M  V30 6756 H 661.219 -0.0557796 -4.68067 0
M  V30 6757 H 661.392 -0.329796 -6.4716 0
M  V30 6758 N 654.798 1.5699 0.138552 0
M  V30 6759 C 655.73 1.95515 1.1961 0
M  V30 6760 C 656.743 0.852002 1.38726 0
M  V30 6761 O 657.932 1.13038 1.38147 0
M  V30 6762 C 655.032 2.2213 2.55952 0
M  V30 6763 C 654.205 3.53424 2.57702 0
M  V30 6764 C 653.264 3.6848 3.75645 0
M  V30 6765 O 652.29 4.4079 3.60129 0
M  V30 6766 N 653.492 3.05777 4.93438 0
M  V30 6767 H 656.257 2.86838 0.868557 0
M  V30 6768 H 653.818 1.58542 0.328033 0
M  V30 6769 H 655.81 2.29435 3.33379 0
M  V30 6770 H 654.38 1.3703 2.80965 0
M  V30 6771 H 653.6 3.57484 1.6613 0
M  V30 6772 H 654.888 4.39759 2.55909 0
M  V30 6773 H 654.286 2.46961 5.08947 0
M  V30 6774 H 652.843 3.18631 5.6861 0
M  V30 6775 N 656.276 -0.40816 1.52223 0
M  V30 6776 C 657.553 -1.16807 1.56893 0
M  V30 6777 C 657.933 -2.08169 0.350537 0
M  V30 6778 O 657.281 -2.18684 -0.662536 0
M  V30 6779 C 657.491 -1.94451 2.8981 0
M  V30 6780 C 658.839 -2.50484 3.42845 0
M  V30 6781 O 659.863 -2.0463 2.91556 0
M  V30 6782 O 658.722 -3.34192 4.3241 0
M  V30 6783 H 655.816 -0.533382 0.632007 0
M  V30 6784 H 658.362 -0.414862 1.64551 0
M  V30 6785 H 657.134 -1.27527 3.69936 0
M  V30 6786 H 656.757 -2.76775 2.85449 0
M  V30 6787 N 657.755 -1.42862 -0.66545 0
M  V30 6788 C 659.171 -1.25993 -0.979687 0
M  V30 6789 C 659.371 -0.170831 -2.00775 0
M  V30 6790 O 658.427 0.454827 -2.4837 0
M  V30 6791 C 659.74 -2.62005 -1.47559 0
M  V30 6792 C 661.288 -2.69437 -1.59288 0
M  V30 6793 C 661.763 -4.05838 -2.12272 0
M  V30 6794 N 663.254 -4.0784 -2.19592 0
M  V30 6795 C 663.989 -5.10205 -2.61684 0
M  V30 6796 N 663.485 -6.22949 -3.03161 0
M  V30 6797 N 665.278 -4.9756 -2.61516 0
M  V30 6798 H 657.429 -2.12395 0.0150493 0
M  V30 6799 H 659.692 -0.946355 -0.0558187 0
M  V30 6800 H 659.398 -3.42605 -0.794654 0
M  V30 6801 H 659.272 -2.86566 -2.45275 0
M  V30 6802 H 661.659 -1.89178 -2.26486 0
M  V30 6803 H 661.74 -2.48655 -0.600374 0
M  V30 6804 H 661.384 -4.86559 -1.4568 0
M  V30 6805 H 661.314 -4.23977 -3.12331 0
M  V30 6806 H 663.805 -3.26452 -1.90361 0
M  V30 6807 H 664.118 -6.96899 -3.33993 0
M  V30 6808 H 662.463 -6.2644 -3.00995 0
M  V30 6809 H 665.654 -4.08551 -2.28481 0
M  V30 6810 H 665.827 -5.77468 -2.93999 0
M  V30 6811 N 659.233 0.902656 -1.29189 0
M  V30 6812 C 660.649 1.18296 -1.07137 0
M  V30 6813 C 660.849 2.00701 0.179223 0
M  V30 6814 O 659.905 2.3675 0.877812 0
M  V30 6815 C 661.218 1.90677 -2.32514 0
M  V30 6816 C 662.766 2.03515 -2.37804 0
M  V30 6817 C 663.241 2.79307 -3.62976 0
M  V30 6818 N 664.732 2.86862 -3.63681 0
M  V30 6819 C 665.467 3.46035 -4.57217 0
M  V30 6820 N 664.963 4.06399 -5.61081 0
M  V30 6821 N 666.756 3.43681 -4.44792 0
M  V30 6822 H 658.907 0.352765 -2.0945 0
M  V30 6823 H 661.17 0.21876 -0.922414 0
M  V30 6824 H 660.876 1.3756 -3.23682 0
M  V30 6825 H 660.75 2.91169 -2.39793 0
M  V30 6826 H 663.137 2.55809 -1.47125 0
M  V30 6827 H 663.218 1.02166 -2.34512 0
M  V30 6828 H 662.862 2.2769 -4.54004 0
M  V30 6829 H 662.792 3.80995 -3.63525 0
M  V30 6830 H 665.283 2.43987 -2.88581 0
M  V30 6831 H 665.596 4.49564 -6.2858 0
M  V30 6832 H 663.941 4.0487 -5.64894 0
M  V30 6833 H 667.132 2.9574 -3.62843 0
M  V30 6834 H 667.305 3.89503 -5.17872 0
M  V30 6835 N 660.711 1.11618 1.11262 0
M  V30 6836 C 662.127 0.850468 1.35053 0
M  V30 6837 C 662.327 -0.523868 1.94571 0
M  V30 6838 O 661.383 -1.2743 2.17986 0
M  V30 6839 C 662.696 1.96005 2.28041 0
M  V30 6840 C 664.244 1.98993 2.416 0
M  V30 6841 C 664.719 3.0916 3.37911 0
M  V30 6842 N 666.21 3.08547 3.45475 0
M  V30 6843 C 666.945 3.9043 4.19943 0
M  V30 6844 N 666.441 4.8228 4.97371 0
M  V30 6845 N 668.234 3.786 4.15474 0
M  V30 6846 H 660.385 2.00184 0.709932 0
M  V30 6847 H 662.648 0.870635 0.375099 0
M  V30 6848 H 662.354 2.9499 1.91503 0
M  V30 6849 H 662.228 1.85782 3.28275 0
M  V30 6850 H 664.615 1.00633 2.77411 0
M  V30 6851 H 664.696 2.13292 1.4121 0
M  V30 6852 H 664.34 4.07748 3.02827 0
M  V30 6853 H 664.27 2.92102 4.3816 0
M  V30 6854 H 666.761 2.42 2.90249 0
M  V30 6855 H 667.074 5.41289 5.51567 0
M  V30 6856 H 665.419 4.863 4.96525 0
M  V30 6857 H 668.61 3.06185 3.54074 0
M  V30 6858 H 668.783 4.42647 4.73253 0
M  V30 6859 N 662.189 -1.289 0.906776 0
M  V30 6860 C 663.414 -1.99939 0.551303 0
M  V30 6861 C 663.839 -1.67366 -0.858496 0
M  V30 6862 O 663.197 -0.902176 -1.57259 0
M  V30 6863 C 663.245 -3.52523 0.758937 0
M  V30 6864 O 662.349 -4.11983 -0.185308 0
M  V30 6865 H 661.69 -0.628376 0.214568 0
M  V30 6866 H 664.22 -1.64225 1.2203 0
M  V30 6867 H 664.23 -4.02522 0.666329 0
M  V30 6868 H 662.905 -3.75566 1.78671 0
M  V30 6869 H 661.482 -3.72873 -0.0445577 0
M  V30 6870 N 663.667 -0.670007 -1.42649 0
M  V30 6871 C 664.63 0.00204659 -2.292 0
M  V30 6872 C 665.63 0.733817 -1.4308 0
M  V30 6873 O 666.82 0.57254 -1.64522 0
M  V30 6874 C 663.952 1.01359 -3.25483 0
M  V30 6875 H 665.145 -0.759696 -2.90118 0
M  V30 6876 H 662.698 -0.432105 -1.50208 0
M  V30 6877 H 663.433 1.80399 -2.69493 0
M  V30 6878 H 663.218 0.492323 -3.88997 0
M  V30 6879 H 664.708 1.4824 -3.90403 0
M  V30 6880 O 665.184 1.51659 -0.55515 0
M  V30 6881 H 665.875 1.9363 -0.0521056 0
M  V30 END ATOM
M  V30 BEGIN BOND
M  V30 END BOND
M  V30 END CTAB
M  END
$$$$
