drugbank_target|Q53464 (S)-2-haloacid dehalogenase (DB03066; DB03568)
 OpenBabel12092119573D

  0  0  0     0  0            999 V3000
M  V30 BEGIN CTAB
M  V30 COUNTS 3652 3693 0 0 0
M  V30 BEGIN ATOM
M  V30 1 H -0.908 1.98254 -0.117106 0
M  V30 2 N 0 1.576 0 0
M  V30 3 C 0.933 2.03868 1.02534 0
M  V30 4 C 1.911 0.928543 1.3348 0
M  V30 5 O 3.095 1.19667 1.45644 0
M  V30 6 C 0.222 2.43627 2.35294 0
M  V30 7 C -0.732 3.65373 2.2001 0
M  V30 8 S 0.101 5.13292 1.52614 0
M  V30 9 C 1.257 5.56322 2.86805 0
M  V30 10 H 1.49 2.90518 0.631377 0
M  V30 11 H -0.977 1.52953 0.210867 0
M  V30 12 H 0.981 2.67203 3.11629 0
M  V30 13 H -0.358 1.57376 2.7183 0
M  V30 14 H -1.165 3.90944 3.18086 0
M  V30 15 H -1.563 3.418 1.51819 0
M  V30 16 H 0.729 5.58782 3.83104 0
M  V30 17 H 1.672 6.56266 2.65933 0
M  V30 18 H 2.08 4.83886 2.90714 0
M  V30 19 N 1.4781 -0.272755 1.55222 0
M  V30 20 C 2.7551 -1.02562 1.66555 0
M  V30 21 C 3.1351 -2.04282 0.532189 0
M  V30 22 O 2.4831 -2.23662 -0.467717 0
M  V30 23 C 2.6931 -1.6822 3.05782 0
M  V30 24 C 4.0411 -2.19373 3.63539 0
M  V30 25 O 5.0651 -1.78206 3.08417 0
M  V30 26 O 3.9241 -2.94883 4.60115 0
M  V30 27 H 1.0181 -0.475755 0.676451 0
M  V30 28 H 3.5641 -0.268593 1.67561 0
M  V30 29 H 2.3361 -0.945112 3.79715 0
M  V30 30 H 1.9591 -2.50609 3.08676 0
M  V30 31 N 2.9562 -1.48159 -0.537278 0
M  V30 32 C 4.1862 -1.59223 -1.3165 0
M  V30 33 C 4.5942 -0.248849 -1.87556 0
M  V30 34 O 3.9372 0.770949 -1.6674 0
M  V30 35 C 3.9992 -2.57365 -2.51005 0
M  V30 36 C 3.6632 -4.02603 -2.16239 0
M  V30 37 C 4.6602 -4.90503 -1.72344 0
M  V30 38 C 2.3452 -4.48088 -2.26986 0
M  V30 39 C 4.3392 -6.21913 -1.39651 0
M  V30 40 C 2.0262 -5.7952 -1.93906 0
M  V30 41 C 3.0242 -6.66255 -1.50309 0
M  V30 42 O 2.7122 -7.95243 -1.17659 0
M  V30 43 H 2.4442 -0.539831 -0.406889 0
M  V30 44 H 4.9982 -1.94655 -0.655641 0
M  V30 45 H 3.2282 -2.1704 -3.20048 0
M  V30 46 H 4.9172 -2.58342 -3.13072 0
M  V30 47 H 5.6832 -4.56604 -1.63517 0
M  V30 48 H 1.5622 -3.80769 -2.59877 0
M  V30 49 H 5.1062 -6.89569 -1.0555 0
M  V30 50 H 1.0032 -6.12957 -2.02371 0
M  V30 51 H 1.7712 -8.0793 -1.31119 0
M  V30 52 N 4.4343 0.785586 -1.36625 0
M  V30 53 C 5.6833 1.53883 -1.30396 0
M  V30 54 C 5.9963 1.95271 0.113452 0
M  V30 55 O 7.2023 2.69858 0.298142 0
M  V30 56 C 5.6583 2.77808 -2.28802 0
M  V30 57 C 5.2663 2.43574 -3.75999 0
M  V30 58 C 7.0103 3.55783 -2.31558 0
M  V30 59 C 4.9173 3.63919 -4.66173 0
M  V30 60 H 3.8473 0.577678 -0.484566 0
M  V30 61 H 6.4983 0.861705 -1.62009 0
M  V30 62 H 4.8803 3.47339 -1.90188 0
M  V30 63 H 6.0543 1.81916 -4.23371 0
M  V30 64 H 4.3693 1.78803 -3.76056 0
M  V30 65 H 6.9663 4.45205 -2.96137 0
M  V30 66 H 7.3093 3.94644 -1.3252 0
M  V30 67 H 7.8423 2.93235 -2.68809 0
M  V30 68 H 4.5813 3.3015 -5.66287 0
M  V30 69 H 4.1013 4.2473 -4.23515 0
M  V30 70 H 5.7803 4.30901 -4.82632 0
M  V30 71 N 5.9124 1.20967 1.01018 0
M  V30 72 C 6.8594 0.964281 2.09691 0
M  V30 73 C 7.8294 -0.107853 1.65749 0
M  V30 74 O 9.0144 0.0381987 1.90762 0
M  V30 75 C 6.1544 0.52943 3.41015 0
M  V30 76 C 5.2674 1.67043 3.98398 0
M  V30 77 C 4.4024 1.18525 5.17808 0
M  V30 78 C 3.4414 2.29892 5.67288 0
M  V30 79 N 2.5784 1.82546 6.77954 0
M  V30 80 H 7.4184 1.89463 2.30017 0
M  V30 81 H 4.9554 0.944289 1.1279 0
M  V30 82 H 6.9134 0.258588 4.16398 0
M  V30 83 H 5.5434 -0.363919 3.20742 0
M  V30 84 H 4.5954 2.05603 3.20049 0
M  V30 85 H 5.9074 2.50877 4.31117 0
M  V30 86 H 5.0614 0.870762 6.00419 0
M  V30 87 H 3.8004 0.316887 4.86669 0
M  V30 88 H 2.8054 2.6215 4.83278 0
M  V30 89 H 4.0304 3.17216 6.00459 0
M  V30 90 H 1.9764 0.980454 6.48632 0
M  V30 91 H 1.8934 2.59956 7.09901 0
M  V30 92 H 3.1614 1.54115 7.64113 0
M  V30 93 N 7.3905 -1.2043 1.01659 0
M  V30 94 C 8.6385 -1.89423 0.704522 0
M  V30 95 C 8.9595 -1.79231 -0.768197 0
M  V30 96 O 8.2295 -1.1947 -1.55254 0
M  V30 97 H 6.8095 -0.701178 0.257602 0
M  V30 98 H 9.4715 -1.4626 1.28818 0
M  V30 99 H 8.5675 -2.96052 0.987916 0
M  V30 100 N 8.8686 -0.792821 -1.36206 0
M  V30 101 C 10.1176 -0.363353 -1.984 0
M  V30 102 C 10.4306 1.07172 -1.63626 0
M  V30 103 O 11.6366 1.60362 -2.19081 0
M  V30 104 C 10.0926 -0.59872 -3.54885 0
M  V30 105 C 9.7006 -2.04543 -3.9858 0
M  V30 106 C 11.4446 -0.233926 -4.23855 0
M  V30 107 C 9.3516 -2.22727 -5.47856 0
M  V30 108 H 8.2816 -0.13212 -0.742334 0
M  V30 109 H 10.9326 -0.974935 -1.55458 0
M  V30 110 H 9.3146 0.0826222 -3.95914 0
M  V30 111 H 10.4886 -2.76345 -3.68741 0
M  V30 112 H 8.8036 -2.36879 -3.42458 0
M  V30 113 H 11.4006 -0.348027 -5.33566 0
M  V30 114 H 11.7436 0.818351 -4.08177 0
M  V30 115 H 12.2766 -0.868639 -3.882 0
M  V30 116 H 9.0156 -3.2635 -5.68486 0
M  V30 117 H 8.5356 -1.55434 -5.7931 0
M  V30 118 H 10.2146 -2.03607 -6.14128 0
M  V30 119 N 10.3467 1.47872 -0.545128 0
M  V30 120 C 11.3097 2.28337 0.198717 0
M  V30 121 C 12.3097 1.36255 0.853888 0
M  V30 122 O 13.4997 1.59003 0.711606 0
M  V30 123 C 10.6317 3.15585 1.28915 0
M  V30 124 H 11.8247 2.95567 -0.507941 0
M  V30 125 H 9.3777 1.53362 -0.301616 0
M  V30 126 H 10.1127 2.53019 2.02859 0
M  V30 127 H 9.8977 3.83337 0.824309 0
M  V30 128 H 11.3877 3.76243 1.81194 0
M  V30 129 N 11.8248 0.280983 1.55075 0
M  V30 130 C 13.0718 -0.334115 1.99725 0
M  V30 131 C 13.3998 -1.5542 1.1694 0
M  V30 132 O 12.6548 -1.94361 0.228531 0
M  V30 133 C 12.9538 -0.754656 3.49342 0
M  V30 134 C 12.6198 0.361445 4.49449 0
M  V30 135 C 11.2818 0.667893 4.76542 0
M  V30 136 C 13.6338 1.11322 5.09173 0
M  V30 137 C 10.9618 1.7296 5.60626 0
M  V30 138 C 13.3138 2.1647 5.9441 0
M  V30 139 C 11.9778 2.47742 6.19822 0
M  V30 140 H 11.2478 -0.122261 0.730844 0
M  V30 141 H 13.8948 0.395917 1.87363 0
M  V30 142 H 12.1998 -1.56446 3.5921 0
M  V30 143 H 13.8968 -1.24142 3.813 0
M  V30 144 H 10.4868 0.112481 4.28452 0
M  V30 145 H 14.6708 0.88973 4.8826 0
M  V30 146 H 9.9268 1.97684 5.78559 0
M  V30 147 H 14.1008 2.75193 6.3972 0
M  V30 148 H 11.7278 3.30145 6.84769 0
M  V30 149 N 13.3029 -1.57598 0.00835791 0
M  V30 150 C 14.5799 -1.82172 -0.712235 0
M  V30 151 C 14.9599 -0.887873 -1.9152 0
M  V30 152 O 14.3079 0.06146 -2.28417 0
M  V30 153 C 14.5179 -3.30875 -1.11008 0
M  V30 154 C 15.8659 -3.96826 -1.51044 0
M  V30 155 O 16.8899 -3.35248 -1.20364 0
M  V30 156 O 15.7489 -5.05318 -2.08125 0
M  V30 157 H 12.8429 -0.750435 -0.347529 0
M  V30 158 H 15.3889 -1.69665 0.0344523 0
M  V30 159 H 14.1609 -3.90481 -0.252982 0
M  V30 160 H 13.7839 -3.48412 -1.9156 0
M  V30 161 N 14.781 0.264519 -1.55364 0
M  V30 162 C 15.711 1.33121 -1.91836 0
M  V30 163 C 16.692 1.51101 -0.781192 0
M  V30 164 O 17.877 1.64003 -1.04003 0
M  V30 165 C 15.007 2.68921 -2.19769 0
M  V30 166 C 13.961 2.65661 -3.35571 0
M  V30 167 C 13.287 4.05093 -3.49004 0
M  V30 168 C 14.587 2.24187 -4.71739 0
M  V30 169 H 16.281 1.02844 -2.81182 0
M  V30 170 H 13.827 0.493286 -1.35287 0
M  V30 171 H 15.78 3.43663 -2.43872 0
M  V30 172 H 14.504 3.00799 -1.27231 0
M  V30 173 H 13.163 1.93377 -3.1145 0
M  V30 174 H 12.811 4.34206 -2.53917 0
M  V30 175 H 12.511 4.03804 -4.26868 0
M  V30 176 H 14.035 4.81561 -3.75408 0
M  V30 177 H 15.449 2.88654 -4.9533 0
M  V30 178 H 13.846 2.34044 -5.52579 0
M  V30 179 H 14.916 1.19327 -4.69988 0
M  V30 180 N 16.2591 1.48442 0.529413 0
M  V30 181 C 17.4891 1.59919 1.30804 0
M  V30 182 C 17.8971 0.258792 1.87422 0
M  V30 183 O 17.2401 -0.762096 1.67146 0
M  V30 184 C 17.3021 2.58693 2.49636 0
M  V30 185 C 16.9661 4.03745 2.14101 0
M  V30 186 C 17.9631 4.9141 1.6974 0
M  V30 187 C 15.6481 4.49285 2.24607 0
M  V30 188 C 17.6421 6.22645 1.36351 0
M  V30 189 C 15.3291 5.8054 1.9083 0
M  V30 190 C 16.3271 6.67043 1.46773 0
M  V30 191 O 16.0151 7.95856 1.1344 0
M  V30 192 H 15.7471 0.541981 0.404021 0
M  V30 193 H 18.3011 1.95 0.645309 0
M  V30 194 H 16.5311 2.18734 3.18892 0
M  V30 195 H 18.2201 2.59999 3.11698 0
M  V30 196 H 18.9861 4.57465 1.61094 0
M  V30 197 H 14.8651 3.82142 2.57854 0
M  V30 198 H 18.4091 6.90119 1.01891 0
M  V30 199 H 14.3061 6.14022 1.99117 0
M  V30 200 H 15.0741 8.08613 1.26832 0
M  V30 201 N 17.7372 -0.778329 1.37039 0
M  V30 202 C 18.9852 -1.53361 1.31623 0
M  V30 203 C 19.3062 -1.94739 -0.100831 0
M  V30 204 O 18.5762 -1.65797 -1.04347 0
M  V30 205 H 17.1562 -0.568794 0.484234 0
M  V30 206 H 19.8182 -0.926742 1.71457 0
M  V30 207 H 18.9142 -2.43606 1.95096 0
M  V30 208 N 19.2153 -1.21501 -1.00376 0
M  V30 209 C 20.4433 -1.059 -1.77744 0
M  V30 210 C 20.8583 0.391125 -1.84704 0
M  V30 211 O 20.2153 1.27133 -1.30933 0
M  V30 212 C 20.2663 -1.65111 -3.21591 0
M  V30 213 O 19.9873 -3.0445 -3.15027 0
M  V30 214 C 21.4883 -1.54637 -4.15454 0
M  V30 215 H 18.7083 -0.371825 -0.558558 0
M  V30 216 H 21.2523 -1.60865 -1.26264 0
M  V30 217 H 19.4073 -1.14235 -3.70175 0
M  V30 218 H 19.8213 -3.3278 -4.0541 0
M  V30 219 H 21.2953 -2.00808 -5.14179 0
M  V30 220 H 21.7723 -0.501022 -4.36333 0
M  V30 221 H 22.3783 -2.04767 -3.72761 0
M  V30 222 N 20.6934 1.19889 -1.02296 0
M  V30 223 C 21.6234 2.25141 -0.619174 0
M  V30 224 C 22.6044 1.66051 0.368915 0
M  V30 225 O 23.7894 1.92546 0.252941 0
M  V30 226 C 20.9194 3.4728 0.0368783 0
M  V30 227 C 19.8734 4.19005 -0.872865 0
M  V30 228 C 19.1994 5.34637 -0.0822402 0
M  V30 229 C 20.4994 4.74452 -2.18387 0
M  V30 230 H 22.1934 2.59171 -1.49903 0
M  V30 231 H 19.7394 1.24579 -0.722222 0
M  V30 232 H 21.6924 4.20098 0.330958 0
M  V30 233 H 20.4164 3.12433 0.95149 0
M  V30 234 H 19.0754 3.48061 -1.15105 0
M  V30 235 H 18.7234 4.96034 0.83422 0
M  V30 236 H 18.4234 5.83557 -0.688149 0
M  V30 237 H 19.9474 6.10255 0.205238 0
M  V30 238 H 21.3614 5.39055 -1.95172 0
M  V30 239 H 19.7584 5.33834 -2.74119 0
M  V30 240 H 20.8284 3.92844 -2.84257 0
M  V30 241 N 22.1715 0.800033 1.35784 0
M  V30 242 C 23.4185 0.377342 1.98953 0
M  V30 243 C 23.7465 -1.05378 1.6348 0
M  V30 244 O 23.0015 -1.74459 0.886707 0
M  V30 245 C 23.3005 0.500276 3.53881 0
M  V30 246 C 22.9665 1.89375 4.09204 0
M  V30 247 C 21.6285 2.27499 4.24025 0
M  V30 248 C 23.9805 2.8057 4.39238 0
M  V30 249 C 21.3085 3.562 4.66195 0
M  V30 250 C 23.6605 4.0871 4.82844 0
M  V30 251 C 22.3245 4.46843 4.95871 0
M  V30 252 H 21.5945 0.138079 0.728021 0
M  V30 253 H 24.2415 1.01955 1.62103 0
M  V30 254 H 22.5465 -0.225405 3.91151 0
M  V30 255 H 24.2435 0.154097 4.00704 0
M  V30 256 H 20.8335 1.58753 3.98115 0
M  V30 257 H 25.0175 2.52367 4.27346 0
M  V30 258 H 20.2735 3.85602 4.74469 0
M  V30 259 H 24.4475 4.79481 5.05046 0
M  V30 260 H 22.0745 5.46623 5.28306 0
M  V30 261 N 23.6496 -1.47581 0.552962 0
M  V30 262 C 24.9266 -1.95563 -0.0381515 0
M  V30 263 C 25.3066 -1.49552 -1.48988 0
M  V30 264 O 24.6546 -0.732414 -2.16444 0
M  V30 265 C 24.8646 -3.48848 0.102919 0
M  V30 266 C 26.2126 -4.24577 -0.0446082 0
M  V30 267 O 27.2366 -3.56187 0.0302548 0
M  V30 268 O 26.0956 -5.46116 -0.204923 0
M  V30 269 H 23.1896 -0.824321 -0.0665067 0
M  V30 270 H 25.7356 -1.58001 0.619186 0
M  V30 271 H 24.5076 -3.75129 1.11328 0
M  V30 272 H 24.1306 -3.93165 -0.592224 0
M  V30 273 N 25.1277 -0.289203 -1.54924 0
M  V30 274 C 26.3737 0.323998 -2.00195 0
M  V30 275 C 26.7067 1.54441 -1.17735 0
M  V30 276 O 25.9817 1.92875 -0.250878 0
M  V30 277 C 26.2647 0.692276 -3.53383 0
M  V30 278 C 26.1177 -0.536457 -4.46589 0
M  V30 279 C 27.4367 1.52335 -4.12895 0
M  V30 280 H 24.5557 0.116289 -0.727768 0
M  V30 281 H 27.1977 -0.398954 -1.85764 0
M  V30 282 H 25.3477 1.30822 -3.65811 0
M  V30 283 H 27.0197 -1.17499 -4.46085 0
M  V30 284 H 25.2627 -1.17192 -4.1767 0
M  V30 285 H 25.9337 -0.234806 -5.515 0
M  V30 286 H 28.4097 1.00302 -4.0383 0
M  V30 287 H 27.2857 1.74982 -5.20262 0
M  V30 288 H 27.5467 2.50886 -3.64018 0
M  V30 289 N 26.6058 1.57591 -0.0167156 0
M  V30 290 C 27.5558 2.05953 0.978137 0
M  V30 291 C 28.5398 0.957532 1.29306 0
M  V30 292 O 29.7318 1.22119 1.28125 0
M  V30 293 C 26.8608 2.58006 2.26468 0
M  V30 294 C 25.9468 3.75113 1.97867 0
M  V30 295 N 26.3378 4.86187 1.39486 0
M  V30 296 C 24.6358 3.83363 2.27924 0
M  V30 297 C 25.3368 5.67502 1.27735 0
M  V30 298 N 24.3128 5.14023 1.76866 0
M  V30 299 H 28.1148 2.89236 0.521522 0
M  V30 300 H 25.6288 1.61301 0.188596 0
M  V30 301 H 27.6258 2.90937 2.98599 0
M  V30 302 H 26.2858 1.76148 2.72767 0
M  V30 303 H 27.2968 5.06695 1.07147 0
M  V30 304 H 23.9738 3.1239 2.76982 0
M  V30 305 H 25.3638 6.66791 0.826978 0
M  V30 306 N 28.0839 -0.256276 1.55502 0
M  V30 307 C 29.3089 -1.00766 1.81276 0
M  V30 308 C 29.7339 -1.78524 0.59252 0
M  V30 309 O 29.0919 -1.75413 -0.45827 0
M  V30 310 C 29.1399 -1.92869 3.04687 0
M  V30 311 O 28.2439 -3.019 2.80945 0
M  V30 312 H 27.5849 -0.287224 0.598664 0
M  V30 313 H 30.1149 -0.280109 2.02674 0
M  V30 314 H 30.1249 -2.34511 3.33869 0
M  V30 315 H 28.7999 -1.35689 3.93143 0
M  V30 316 H 27.3769 -2.64454 2.62904 0
M  V30 317 N 29.562 -1.4872 -0.521534 0
M  V30 318 C 30.808 -1.574 -1.27879 0
M  V30 319 C 31.141 -0.250817 -1.92573 0
M  V30 320 O 30.416 0.743934 -1.79711 0
M  V30 321 C 30.699 -2.71843 -2.36164 0
M  V30 322 C 30.552 -4.13893 -1.76105 0
M  V30 323 C 31.871 -2.82008 -3.37875 0
M  V30 324 H 28.99 -0.572941 -0.463581 0
M  V30 325 H 31.632 -1.80927 -0.580119 0
M  V30 326 H 29.782 -2.51914 -2.95756 0
M  V30 327 H 31.454 -4.45284 -1.20499 0
M  V30 328 H 29.697 -4.20498 -1.06601 0
M  V30 329 H 30.368 -4.89804 -2.5455 0
M  V30 330 H 32.844 -3.00086 -2.88249 0
M  V30 331 H 31.72 -3.63796 -4.11028 0
M  V30 332 H 31.981 -1.90511 -3.98946 0
M  V30 333 N 31.0401 0.771051 -1.3745 0
M  V30 334 C 32.2861 1.5319 -1.32894 0
M  V30 335 C 32.6191 1.94008 0.0862511 0
M  V30 336 O 31.8941 1.64124 1.04373 0
M  V30 337 C 32.1771 2.79648 -2.26868 0
M  V30 338 C 32.0301 2.45079 -3.77169 0
M  V30 339 C 33.3491 3.81583 -2.19277 0
M  V30 340 H 30.4681 0.555744 -0.484064 0
M  V30 341 H 33.1101 0.884492 -1.68157 0
M  V30 342 H 31.2601 3.34891 -1.96926 0
M  V30 343 H 32.9321 1.95745 -4.1771 0
M  V30 344 H 31.1751 1.77767 -3.95704 0
M  V30 345 H 31.8461 3.35478 -4.38359 0
M  V30 346 H 34.3221 3.35835 -2.45671 0
M  V30 347 H 33.1981 4.67787 -2.87171 0
M  V30 348 H 33.4591 4.25897 -1.18592 0
M  V30 349 N 32.5182 1.22032 0.997298 0
M  V30 350 C 33.7662 1.04016 1.73278 0
M  V30 351 C 34.0872 -0.426255 1.90284 0
M  V30 352 O 33.3572 -1.30694 1.45931 0
M  V30 353 H 31.9372 0.381897 0.642 0
M  V30 354 H 34.5992 1.5347 1.20137 0
M  V30 355 H 33.6952 1.51441 2.72896 0
M  V30 356 N 33.9963 -1.19345 1.0293 0
M  V30 357 C 35.4123 -1.41069 0.746446 0
M  V30 358 C 35.6123 -1.90078 -0.668776 0
M  V30 359 O 34.6683 -2.0778 -1.4347 0
M  V30 360 C 35.9813 -2.42141 1.78292 0
M  V30 361 C 37.5293 -2.55887 1.80252 0
M  V30 362 C 38.0043 -3.60214 2.8286 0
M  V30 363 N 39.4953 -3.67711 2.81679 0
M  V30 364 C 40.2303 -4.48128 3.57727 0
M  V30 365 N 39.7263 -5.32248 4.43491 0
M  V30 366 N 41.5193 -4.42782 3.46267 0
M  V30 367 H 33.6703 -0.858536 1.94275 0
M  V30 368 H 35.9333 -0.439541 0.839945 0
M  V30 369 H 35.6393 -2.13155 2.79746 0
M  V30 370 H 35.5133 -3.41323 1.60557 0
M  V30 371 H 37.9003 -2.84196 0.794757 0
M  V30 372 H 37.9813 -1.56858 2.02062 0
M  V30 373 H 37.6253 -3.32647 3.83807 0
M  V30 374 H 37.5553 -4.58895 2.58307 0
M  V30 375 H 40.0463 -3.07634 2.19476 0
M  V30 376 H 40.3593 -5.90729 4.98256 0
M  V30 377 H 38.7043 -5.31707 4.47564 0
M  V30 378 H 41.8953 -3.76107 2.78677 0
M  V30 379 H 42.0683 -5.05215 4.05785 0
M  V30 380 N 35.4744 -0.807222 -1.35358 0
M  V30 381 C 36.7144 -0.393534 -2.00576 0
M  V30 382 C 37.0784 1.0203 -1.62647 0
M  V30 383 O 38.2794 1.53603 -2.20589 0
M  V30 384 C 36.5504 -0.572017 -3.52793 0
M  V30 385 S 38.1094 -0.248845 -4.38094 0
M  V30 386 H 34.9274 -0.149425 -0.695121 0
M  V30 387 H 37.5294 -1.04961 -1.64935 0
M  V30 388 H 36.2334 -1.60097 -3.77885 0
M  V30 389 H 35.7644 0.099359 -3.93275 0
M  V30 390 H 37.7794 0.943253 -4.87152 0
M  V30 391 N 36.9525 1.47285 -0.560781 0
M  V30 392 C 38.2295 1.9558 0.0277798 0
M  V30 393 C 38.6095 1.5034 1.48192 0
M  V30 394 O 37.9575 0.743882 2.16052 0
M  V30 395 C 38.1675 3.48789 -0.121418 0
M  V30 396 C 39.5155 4.24594 0.0220912 0
M  V30 397 O 40.5395 3.56166 -0.0491439 0
M  V30 398 O 39.3985 5.46217 0.175958 0
M  V30 399 H 36.4925 0.824663 0.0621342 0
M  V30 400 H 39.0385 1.5767 -0.627556 0
M  V30 401 H 37.8105 3.74533 -1.13316 0
M  V30 402 H 37.4335 3.93473 0.571366 0
M  V30 403 N 38.4306 0.297415 1.54768 0
M  V30 404 C 39.3406 -0.58983 2.27064 0
M  V30 405 C 40.3566 -1.15144 1.30453 0
M  V30 406 O 41.5326 -1.17699 1.63428 0
M  V30 407 C 38.5976 -1.74714 2.9946 0
M  V30 408 C 37.6586 -1.21997 4.11601 0
M  V30 409 C 36.8916 -2.32212 4.80535 0
M  V30 410 O 37.1146 -3.52036 4.48806 0
M  V30 411 O 36.0486 -1.99106 5.68014 0
M  V30 412 H 39.8746 -0.00348199 3.037 0
M  V30 413 H 37.4596 0.0640035 1.49263 0
M  V30 414 H 39.3416 -2.42147 3.44881 0
M  V30 415 H 38.0166 -2.32016 2.25722 0
M  V30 416 H 36.9236 -0.511458 3.70587 0
M  V30 417 H 38.2566 -0.692419 4.87305 0
M  V30 418 N 39.9087 -1.5758 0.0250728 0
M  V30 419 C 40.8717 -2.08896 -0.943139 0
M  V30 420 C 41.8717 -1.00321 -1.25668 0
M  V30 421 O 43.0617 -1.26495 -1.19769 0
M  V30 422 C 40.1937 -2.55143 -2.26086 0
M  V30 423 H 41.3867 -2.95723 -0.498775 0
M  V30 424 H 38.9397 -1.54703 -0.222888 0
M  V30 425 H 39.6747 -1.71633 -2.75159 0
M  V30 426 H 39.4597 -3.34461 -2.04641 0
M  V30 427 H 40.9497 -2.95083 -2.95492 0
M  V30 428 N 41.3868 0.248026 -1.55636 0
M  V30 429 C 42.6338 0.976224 -1.77415 0
M  V30 430 C 42.9618 1.85361 -0.589193 0
M  V30 431 O 42.2168 1.90973 0.427529 0
M  V30 432 C 42.5158 1.86819 -3.04686 0
M  V30 433 C 42.1818 1.14625 -4.36087 0
M  V30 434 C 40.8438 0.946723 -4.71795 0
M  V30 435 C 43.1958 0.634463 -5.17324 0
M  V30 436 C 40.5238 0.223091 -5.86276 0
M  V30 437 C 42.8758 -0.0756959 -6.32555 0
M  V30 438 C 41.5398 -0.286711 -6.66884 0
M  V30 439 H 40.8098 0.357226 -0.649208 0
M  V30 440 H 43.4568 0.246415 -1.89908 0
M  V30 441 H 41.7618 2.66502 -2.872 0
M  V30 442 H 43.4588 2.43329 -3.18735 0
M  V30 443 H 40.0488 1.3117 -4.08035 0
M  V30 444 H 44.2328 0.77616 -4.90193 0
M  V30 445 H 39.4888 0.0491185 -6.1138 0
M  V30 446 H 43.6628 -0.479899 -6.94745 0
M  V30 447 H 41.2898 -0.849389 -7.5544 0
M  V30 448 N 42.8649 1.48995 0.513639 0
M  V30 449 C 44.2759 1.5119 1.09537 0
M  V30 450 C 44.6269 0.290906 1.94031 0
M  V30 451 O 43.7519 -0.60049 2.07902 0
M  V30 452 C 44.3469 2.73964 1.99322 0
M  V30 453 C 42.9059 2.78978 2.52682 0
M  V30 454 C 42.0529 2.44934 1.30009 0
M  V30 455 H 45.0039 1.55875 0.298125 0
M  V30 456 H 45.0249 2.53409 2.83838 0
M  V30 457 H 44.5369 3.62813 1.37799 0
M  V30 458 H 42.6379 1.94378 3.1788 0
M  V30 459 H 42.7509 3.8083 2.90698 0
M  V30 460 H 41.1149 1.9644 1.62122 0
M  V30 461 H 41.8979 3.36043 0.702131 0
M  V30 462 N 44.343 -0.763751 1.37857 0
M  V30 463 C 45.591 -1.51957 1.33243 0
M  V30 464 C 45.912 -1.94835 -0.0801709 0
M  V30 465 O 45.182 -1.66894 -1.02582 0
M  V30 466 H 43.762 -0.563626 0.49024 0
M  V30 467 H 46.424 -0.908504 1.7243 0
M  V30 468 H 45.52 -2.41523 1.97669 0
M  V30 469 N 45.8211 -1.22559 -0.990812 0
M  V30 470 C 47.2371 -0.985996 -1.255 0
M  V30 471 C 47.4371 0.319173 -1.98956 0
M  V30 472 O 46.4931 1.04127 -2.3003 0
M  V30 473 C 47.8061 -2.18607 -2.06474 0
M  V30 474 C 49.3541 -2.22985 -2.19651 0
M  V30 475 C 49.8291 -3.4255 -3.04012 0
M  V30 476 N 51.3201 -3.42725 -3.11599 0
M  V30 477 C 52.0551 -4.31892 -3.7717 0
M  V30 478 N 51.5511 -5.31279 -4.44651 0
M  V30 479 N 53.3441 -4.19662 -3.73952 0
M  V30 480 H 45.4951 -2.06469 -0.49841 0
M  V30 481 H 47.7581 -0.904853 -0.282747 0
M  V30 482 H 47.4641 -3.13267 -1.59865 0
M  V30 483 H 47.3381 -2.18838 -3.07229 0
M  V30 484 H 49.7251 -1.28871 -2.65474 0
M  V30 485 H 49.8061 -2.26791 -1.18319 0
M  V30 486 H 49.4501 -4.36965 -2.58889 0
M  V30 487 H 49.3801 -3.35984 -4.0549 0
M  V30 488 H 51.8711 -2.70807 -2.63575 0
M  V30 489 H 52.1841 -5.95593 -4.92431 0
M  V30 490 H 50.5291 -5.3519 -4.43392 0
M  V30 491 H 53.7201 -3.41268 -3.20396 0
M  V30 492 H 53.8931 -4.89358 -4.24774 0
M  V30 493 N 47.2992 1.18797 -1.03562 0
M  V30 494 C 48.5472 1.88278 -0.734569 0
M  V30 495 C 48.8682 1.8043 0.739586 0
M  V30 496 O 48.1382 1.21925 1.53333 0
M  V30 497 H 46.7182 0.696991 -0.268725 0
M  V30 498 H 49.3802 1.44192 -1.31129 0
M  V30 499 H 48.4762 2.94443 -1.03489 0
M  V30 500 N 48.7773 0.814389 1.34928 0
M  V30 501 C 50.1933 0.499084 1.51596 0
M  V30 502 C 50.3933 -0.978319 1.76157 0
M  V30 503 O 49.4493 -1.76309 1.80752 0
M  V30 504 C 50.7623 1.35121 2.68631 0
M  V30 505 C 52.3103 1.34746 2.82511 0
M  V30 506 C 52.7853 2.18388 4.0258 0
M  V30 507 N 54.2763 2.15966 4.09772 0
M  V30 508 C 55.0113 2.77437 5.01813 0
M  V30 509 N 54.5073 3.47866 5.99134 0
M  V30 510 N 56.3003 2.67037 4.94619 0
M  V30 511 H 48.4513 1.7711 1.17243 0
M  V30 512 H 50.7143 0.754256 0.574284 0
M  V30 513 H 50.4203 2.40001 2.57085 0
M  V30 514 H 50.2943 1.00991 3.63429 0
M  V30 515 H 52.6813 0.30648 2.93504 0
M  V30 516 H 52.7623 1.72869 1.88547 0
M  V30 517 H 52.4063 3.2253 3.92347 0
M  V30 518 H 52.3363 1.77621 4.9574 0
M  V30 519 H 54.8273 1.64729 3.40107 0
M  V30 520 H 55.1403 3.92038 6.65977 0
M  V30 521 H 53.4853 3.51972 5.99284 0
M  V30 522 H 56.6763 2.11597 4.17546 0
M  V30 523 H 56.8493 3.15232 5.66156 0
M  V30 524 N 50.2554 -1.46986 0.568584 0
M  V30 525 C 51.1654 -2.33942 -0.17555 0
M  V30 526 C 52.1814 -1.48891 -0.90041 0
M  V30 527 O 53.3574 -1.81794 -0.86676 0
M  V30 528 C 50.4224 -3.25811 -1.18524 0
M  V30 529 C 49.4834 -4.26757 -0.466582 0
M  V30 530 C 48.7164 -5.14236 -1.42817 0
M  V30 531 O 48.9394 -5.04379 -2.66379 0
M  V30 532 O 47.8734 -5.94412 -0.946453 0
M  V30 533 H 51.6994 -2.98896 0.538036 0
M  V30 534 H 49.2844 -1.4573 0.329097 0
M  V30 535 H 51.1664 -3.82527 -1.76779 0
M  V30 536 H 49.8414 -2.63471 -1.88055 0
M  V30 537 H 48.7484 -3.73769 0.157451 0
M  V30 538 H 50.0814 -4.91843 0.187485 0
M  V30 539 N 51.7335 -0.305618 -1.54608 0
M  V30 540 C 52.9825 0.303098 -1.9941 0
M  V30 541 C 53.2955 1.54648 -1.19764 0
M  V30 542 O 54.5015 2.23007 -1.54855 0
M  V30 543 C 52.9575 0.590588 -3.55021 0
M  V30 544 C 52.5655 -0.634719 -4.43481 0
M  V30 545 C 54.3095 1.16025 -4.08336 0
M  V30 546 C 52.2165 -0.320126 -5.90533 0
M  V30 547 H 51.1465 0.117031 -0.744862 0
M  V30 548 H 53.7975 -0.415045 -1.78745 0
M  V30 549 H 52.1795 1.36845 -3.71604 0
M  V30 550 H 53.3535 -1.41079 -4.38672 0
M  V30 551 H 51.6685 -1.12333 -4.00962 0
M  V30 552 H 54.2655 1.40994 -5.15776 0
M  V30 553 H 54.6085 2.10397 -3.5922 0
M  V30 554 H 55.1415 0.443985 -3.95315 0
M  V30 555 H 51.8805 -1.23254 -6.43808 0
M  V30 556 H 51.4005 0.418579 -5.98338 0
M  V30 557 H 53.0795 0.0766241 -6.46955 0
M  V30 558 N 53.2116 1.57565 -0.0334293 0
M  V30 559 C 54.4366 1.96689 0.657895 0
M  V30 560 C 54.8616 0.910057 1.64619 0
M  V30 561 O 54.2196 -0.128598 1.80843 0
M  V30 562 C 54.2676 3.34905 1.33683 0
M  V30 563 O 53.3716 3.31574 2.45219 0
M  V30 564 H 52.7126 0.641205 0.172489 0
M  V30 565 H 55.2426 2.04372 -0.0965621 0
M  V30 566 H 55.2526 3.71234 1.69262 0
M  V30 567 H 53.9276 4.11366 0.612411 0
M  V30 568 H 52.5046 3.06968 2.11719 0
M  V30 569 N 54.6897 -0.239769 1.55765 0
M  V30 570 C 55.6527 -1.28038 1.90103 0
M  V30 571 C 56.6527 -1.40723 0.778055 0
M  V30 572 O 57.8427 -1.39301 1.04599 0
M  V30 573 C 54.9747 -2.65702 2.13577 0
M  V30 574 H 56.1677 -0.988048 2.83157 0
M  V30 575 H 53.7207 -0.479382 1.48767 0
M  V30 576 H 54.4557 -3.00063 1.23015 0
M  V30 577 H 54.2407 -2.57875 2.95369 0
M  V30 578 H 55.7307 -3.40828 2.41301 0
M  V30 579 N 56.1678 -1.49265 -0.50573 0
M  V30 580 C 57.0978 -1.68495 -1.61653 0
M  V30 581 C 58.0788 -0.53366 -1.61512 0
M  V30 582 O 59.2638 -0.76897 -1.78327 0
M  V30 583 C 56.3938 -1.74709 -3.00157 0
M  V30 584 C 55.3478 -2.89581 -3.15162 0
M  V30 585 C 54.6738 -2.80903 -4.5497 0
M  V30 586 C 55.9738 -4.30578 -2.95634 0
M  V30 587 H 57.6678 -2.61493 -1.45814 0
M  V30 588 H 55.2138 -1.25838 -0.70005 0
M  V30 589 H 57.1668 -1.86748 -3.77761 0
M  V30 590 H 55.8908 -0.783067 -3.17074 0
M  V30 591 H 54.5498 -2.77136 -2.39982 0
M  V30 592 H 54.1978 -1.82419 -4.68756 0
M  V30 593 H 53.8978 -3.57999 -4.65951 0
M  V30 594 H 55.4218 -2.94944 -5.34641 0
M  V30 595 H 56.8358 -4.4373 -3.63011 0
M  V30 596 H 55.2328 -5.0886 -3.18091 0
M  V30 597 H 56.3028 -4.45352 -1.91806 0
M  V30 598 N 57.6459 0.756429 -1.3826 0
M  V30 599 C 58.8919 1.5168 -1.35517 0
M  V30 600 C 59.2469 1.9232 0.0554451 0
M  V30 601 O 58.5399 1.62352 1.01746 0
M  V30 602 C 58.7339 2.78313 -2.24224 0
M  V30 603 C 58.5629 2.50053 -3.7377 0
M  V30 604 C 57.3329 2.43414 -4.42807 0
M  V30 605 C 59.5309 2.1702 -4.66269 0
M  V30 606 N 57.5129 2.07398 -5.77805 0
M  V30 607 C 58.8839 1.91271 -5.89759 0
M  V30 608 C 60.9389 2.03305 -4.54501 0
M  V30 609 C 59.6419 1.53192 -7.02798 0
M  V30 610 C 61.6679 1.66627 -5.67441 0
M  V30 611 C 61.0299 1.4175 -6.8999 0
M  V30 612 H 57.1289 0.554735 -0.551174 0
M  V30 613 H 59.7129 0.881106 -1.73622 0
M  V30 614 H 57.8839 3.39696 -1.88311 0
M  V30 615 H 59.6159 3.44343 -2.12627 0
M  V30 616 H 56.3709 2.59789 -3.95988 0
M  V30 617 H 56.7949 1.92044 -6.4919 0
M  V30 618 H 61.4369 2.21215 -3.60311 0
M  V30 619 H 59.1549 1.34022 -7.96909 0
M  V30 620 H 62.7409 1.56652 -5.60314 0
M  V30 621 H 61.6209 1.1379 -7.759 0
M  V30 622 N 59.124 1.23083 0.984299 0
M  V30 623 C 60.54 0.992637 1.24975 0
M  V30 624 C 60.74 -0.308618 1.99123 0
M  V30 625 O 59.796 -1.02905 2.30579 0
M  V30 626 C 61.109 2.19698 2.05312 0
M  V30 627 C 62.657 2.24147 2.18465 0
M  V30 628 C 63.132 3.44157 3.02192 0
M  V30 629 N 64.623 3.44372 3.09777 0
M  V30 630 C 65.358 4.33886 3.74874 0
M  V30 631 N 64.854 5.3363 4.41827 0
M  V30 632 N 66.647 4.21639 3.71721 0
M  V30 633 H 58.798 2.06731 0.487453 0
M  V30 634 H 61.061 0.906339 0.277944 0
M  V30 635 H 60.767 3.1411 1.58201 0
M  V30 636 H 60.641 2.20465 3.06064 0
M  V30 637 H 63.028 1.30277 2.64786 0
M  V30 638 H 63.109 2.27415 1.17115 0
M  V30 639 H 62.753 4.38332 2.56568 0
M  V30 640 H 62.683 3.3813 4.03702 0
M  V30 641 H 65.174 2.72201 2.62135 0
M  V30 642 H 65.487 5.98196 4.89266 0
M  V30 643 H 63.832 5.37534 4.40548 0
M  V30 644 H 67.023 3.42962 3.18582 0
M  V30 645 H 67.196 4.91604 4.22173 0
M  V30 646 N 60.6021 -1.18246 1.0419 0
M  V30 647 C 61.5341 -2.2142 0.592088 0
M  V30 648 C 62.5471 -1.59233 -0.338909 0
M  V30 649 O 63.7361 -1.78002 -0.133231 0
M  V30 650 C 60.8361 -3.38546 -0.154854 0
M  V30 651 C 60.0091 -4.3031 0.784328 0
M  V30 652 C 59.0681 -5.26138 0.0804583 0
M  V30 653 O 58.0941 -5.64738 0.711292 0
M  V30 654 N 59.2961 -5.68261 -1.18574 0
M  V30 655 H 62.0611 -2.60636 1.47949 0
M  V30 656 H 59.6221 -1.33044 0.922544 0
M  V30 657 H 61.6141 -3.99678 -0.635606 0
M  V30 658 H 60.1841 -2.98012 -0.943811 0
M  V30 659 H 59.4041 -3.66764 1.44491 0
M  V30 660 H 60.6921 -4.8852 1.42218 0
M  V30 661 H 60.0901 -5.38957 -1.71876 0
M  V30 662 H 58.6471 -6.31584 -1.61074 0
M  V30 663 N 62.0802 -0.821533 -1.34494 0
M  V30 664 C 63.0272 -0.240397 -2.29545 0
M  V30 665 C 63.9972 0.634031 -1.53523 0
M  V30 666 O 65.1822 0.575966 -1.81899 0
M  V30 667 C 62.3222 0.592869 -3.39969 0
M  V30 668 C 61.4352 -0.30365 -4.30932 0
M  V30 669 C 60.5702 0.539049 -5.28458 0
M  V30 670 C 59.6092 -0.356942 -6.11058 0
M  V30 671 N 58.7462 0.446603 -7.00678 0
M  V30 672 H 63.5862 -1.05632 -2.7865 0
M  V30 673 H 61.1232 -0.532413 -1.37127 0
M  V30 674 H 63.0812 1.09129 -4.02675 0
M  V30 675 H 61.7112 1.37392 -2.92102 0
M  V30 676 H 60.7632 -0.920276 -3.691 0
M  V30 677 H 62.0752 -0.992661 -4.88823 0
M  V30 678 H 61.2292 1.102 -5.96608 0
M  V30 679 H 59.9682 1.26157 -4.71101 0
M  V30 680 H 58.9732 -0.932047 -5.41842 0
M  V30 681 H 60.1982 -1.07755 -6.70497 0
M  V30 682 H 58.1442 1.15282 -6.45791 0
M  V30 683 H 58.0612 -0.184048 -7.55776 0
M  V30 684 H 59.3292 0.992352 -7.73158 0
M  V30 685 N 63.5583 1.46682 -0.576371 0
M  V30 686 C 64.4903 2.28341 0.198231 0
M  V30 687 C 65.5033 1.38141 0.861453 0
M  V30 688 O 66.6923 1.62797 0.732082 0
M  V30 689 C 63.7923 3.12986 1.29972 0
M  V30 690 C 62.9653 4.31271 0.729639 0
M  V30 691 C 62.0243 4.97363 1.71803 0
M  V30 692 O 61.0503 5.55156 1.25658 0
M  V30 693 N 62.2523 4.93796 3.05198 0
M  V30 694 H 65.0173 2.9546 -0.502324 0
M  V30 695 H 62.5783 1.56525 -0.413715 0
M  V30 696 H 64.5703 3.54066 1.96008 0
M  V30 697 H 63.1403 2.47984 1.90323 0
M  V30 698 H 62.3603 3.94052 -0.108012 0
M  V30 699 H 63.6483 5.07739 0.328438 0
M  V30 700 H 63.0463 4.48077 3.45317 0
M  V30 701 H 61.6033 5.38837 3.6674 0
M  V30 702 N 65.0364 0.313813 1.54444 0
M  V30 703 C 65.9664 -0.549454 2.26943 0
M  V30 704 C 66.9474 -1.12741 1.27372 0
M  V30 705 O 68.1324 -1.15436 1.56167 0
M  V30 706 C 65.2624 -1.71523 3.01989 0
M  V30 707 C 64.2164 -1.26703 4.08816 0
M  V30 708 C 63.5424 -2.51898 4.71647 0
M  V30 709 C 64.8424 -0.388962 5.2085 0
M  V30 710 H 66.5364 0.0552661 2.99349 0
M  V30 711 H 64.0824 0.0280207 1.43973 0
M  V30 712 H 66.0354 -2.32535 3.51433 0
M  V30 713 H 64.7594 -2.34639 2.27183 0
M  V30 714 H 63.4184 -0.679896 3.6024 0
M  V30 715 H 63.0664 -3.13356 3.93468 0
M  V30 716 H 62.7664 -2.22605 5.43802 0
M  V30 717 H 64.2904 -3.1369 5.23861 0
M  V30 718 H 65.7044 -0.905107 5.6611 0
M  V30 719 H 64.1014 -0.18924 5.99802 0
M  V30 720 H 65.1714 0.582699 4.81386 0
M  V30 721 N 66.5145 -1.57545 0.0417849 0
M  V30 722 C 67.4245 -2.14451 -0.951213 0
M  V30 723 C 68.4405 -1.09992 -1.34825 0
M  V30 724 O 69.6165 -1.42114 -1.42708 0
M  V30 725 C 66.6815 -2.67063 -2.21084 0
M  V30 726 C 65.7425 -3.86284 -1.87304 0
M  V30 727 C 64.9755 -4.36378 -3.07261 0
M  V30 728 O 65.1985 -3.85587 -4.20332 0
M  V30 729 O 64.1325 -5.28077 -2.88822 0
M  V30 730 H 67.9585 -2.99601 -0.497287 0
M  V30 731 H 65.5435 -1.48317 -0.179567 0
M  V30 732 H 67.4255 -3.00914 -2.95006 0
M  V30 733 H 66.1005 -1.84989 -2.65633 0
M  V30 734 H 65.0075 -3.57338 -1.10727 0
M  V30 735 H 66.3405 -4.6956 -1.47562 0
M  V30 736 N 67.9926 0.231505 -1.5589 0
M  V30 737 C 69.2226 0.973092 -1.82248 0
M  V30 738 C 69.6306 1.78845 -0.617328 0
M  V30 739 O 68.9736 1.78752 0.423499 0
M  V30 740 C 69.0356 1.94732 -3.02192 0
M  V30 741 C 68.6996 1.31743 -4.37599 0
M  V30 742 C 69.6966 0.712238 -5.14998 0
M  V30 743 C 67.3816 1.33218 -4.84312 0
M  V30 744 C 69.3756 0.130195 -6.37267 0
M  V30 745 C 67.0626 0.746286 -6.06526 0
M  V30 746 C 68.0606 0.146337 -6.82843 0
M  V30 747 O 67.7486 -0.430465 -8.02747 0
M  V30 748 H 67.4806 0.29125 -0.61004 0
M  V30 749 H 70.0346 0.254915 -2.03812 0
M  V30 750 H 68.2646 2.70422 -2.76422 0
M  V30 751 H 69.9536 2.55362 -3.15508 0
M  V30 752 H 70.7196 0.69324 -4.8002 0
M  V30 753 H 66.5986 1.78854 -4.24891 0
M  V30 754 H 70.1426 -0.33871 -6.96777 0
M  V30 755 H 66.0396 0.762663 -6.40979 0
M  V30 756 H 66.8076 -0.323818 -8.17859 0
M  V30 757 N 69.4707 1.49531 0.497807 0
M  V30 758 C 70.6987 1.62893 1.27567 0
M  V30 759 C 71.1137 0.301585 1.86376 0
M  V30 760 O 70.4707 -0.713335 1.67982 0
M  V30 761 C 70.5217 2.70013 2.40364 0
M  V30 762 O 70.2427 3.976 1.83972 0
M  V30 763 C 71.7437 2.94109 3.31685 0
M  V30 764 H 68.9637 0.548298 0.386794 0
M  V30 765 H 71.5077 1.95584 0.597245 0
M  V30 766 H 69.6627 2.40092 3.04031 0
M  V30 767 H 70.0767 4.56631 2.58047 0
M  V30 768 H 71.5507 3.72788 4.07104 0
M  V30 769 H 72.0277 2.04147 3.88871 0
M  V30 770 H 72.6337 3.2546 2.73781 0
M  V30 771 N 70.9488 -0.749086 1.3866 0
M  V30 772 C 72.1948 -1.50959 1.36319 0
M  V30 773 C 72.5498 -1.92347 -0.0452451 0
M  V30 774 O 71.8428 -1.6289 -1.00884 0
M  V30 775 C 72.0368 -2.7712 2.25697 0
M  V30 776 C 71.8658 -2.48067 3.7509 0
M  V30 777 C 70.6358 -2.41062 4.44091 0
M  V30 778 C 72.8338 -2.14544 4.67414 0
M  V30 779 N 70.8158 -2.04331 5.78897 0
M  V30 780 C 72.1868 -1.88141 5.90765 0
M  V30 781 C 74.2418 -2.00892 4.55573 0
M  V30 782 C 72.9448 -1.49463 7.036 0
M  V30 783 C 74.9708 -1.63616 5.68317 0
M  V30 784 C 74.3328 -1.38088 6.90732 0
M  V30 785 H 70.4318 -0.551804 0.554108 0
M  V30 786 H 73.0158 -0.871886 1.74087 0
M  V30 787 H 71.1868 -3.38693 1.9011 0
M  V30 788 H 72.9188 -3.4321 2.1445 0
M  V30 789 H 69.6738 -2.57685 3.9736 0
M  V30 790 H 70.0978 -1.88598 6.502 0
M  V30 791 H 74.7398 -2.19301 3.61479 0
M  V30 792 H 72.4578 -1.29794 7.97608 0
M  V30 793 H 76.0438 -1.53678 5.61137 0
M  V30 794 H 74.9238 -1.09674 7.76493 0
M  V30 795 N 72.4269 -1.23603 -0.977757 0
M  V30 796 C 73.3569 -1.04401 -2.0886 0
M  V30 797 C 74.3379 0.0399052 -1.70053 0
M  V30 798 O 75.5229 -0.125246 -1.93796 0
M  V30 799 C 72.6529 -0.637269 -3.41403 0
M  V30 800 C 71.6069 -1.66883 -3.94124 0
M  V30 801 C 70.9329 -1.11745 -5.22893 0
M  V30 802 C 72.2329 -3.06247 -4.23096 0
M  V30 803 H 73.9269 -1.97316 -2.25182 0
M  V30 804 H 71.4729 -0.950096 -1.08209 0
M  V30 805 H 73.4259 -0.48998 -4.18542 0
M  V30 806 H 72.1499 0.327557 -3.24953 0
M  V30 807 H 70.8089 -1.80416 -3.19133 0
M  V30 808 H 70.4569 -0.143527 -5.02795 0
M  V30 809 H 70.1569 -1.80672 -5.59134 0
M  V30 810 H 71.6809 -0.982067 -6.02651 0
M  V30 811 H 73.0949 -2.96001 -4.90975 0
M  V30 812 H 71.4919 -3.72436 -4.70544 0
M  V30 813 H 72.5619 -3.55041 -3.30263 0
M  V30 814 N 73.905 1.17692 -1.04816 0
M  V30 815 C 75.321 1.39863 -0.768794 0
M  V30 816 C 75.521 1.91118 0.638451 0
M  V30 817 O 74.577 2.10036 1.40146 0
M  V30 818 C 75.89 2.39274 -1.82122 0
M  V30 819 C 77.438 2.52987 -1.843 0
M  V30 820 C 77.913 3.55669 -2.88555 0
M  V30 821 N 79.404 3.63183 -2.87493 0
M  V30 822 C 80.139 4.42381 -3.64811 0
M  V30 823 N 79.635 5.25125 -4.51903 0
M  V30 824 N 81.428 4.37217 -3.53267 0
M  V30 825 H 73.579 0.82752 -1.95617 0
M  V30 826 H 75.842 0.426123 -0.846831 0
M  V30 827 H 75.548 2.08678 -2.83102 0
M  V30 828 H 75.422 3.38725 -1.65967 0
M  V30 829 H 77.809 2.82896 -0.839869 0
M  V30 830 H 77.89 1.53623 -2.04532 0
M  V30 831 H 77.534 3.26499 -3.89051 0
M  V30 832 H 77.464 4.54728 -2.65575 0
M  V30 833 H 79.955 3.04103 -2.24343 0
M  V30 834 H 80.268 5.82728 -5.07591 0
M  V30 835 H 78.613 5.24519 -4.55966 0
M  V30 836 H 81.804 3.71626 -2.84625 0
M  V30 837 H 81.977 4.98696 -4.13771 0
M  V30 838 N 75.3831 0.828654 1.34056 0
M  V30 839 C 76.6081 0.431637 2.02859 0
M  V30 840 C 77.0331 -0.956339 1.61975 0
M  V30 841 O 76.3911 -1.62338 0.807228 0
M  V30 842 C 76.4391 0.548323 3.56407 0
M  V30 843 O 75.5431 -0.429556 4.10157 0
M  V30 844 H 74.8841 0.176886 0.640006 0
M  V30 845 H 77.4141 1.12066 1.71179 0
M  V30 846 H 77.4241 0.426196 4.05768 0
M  V30 847 H 76.0991 1.5606 3.8551 0
M  V30 848 H 74.6761 -0.265836 3.71951 0
M  V30 849 N 76.8612 -1.46375 0.584142 0
M  V30 850 C 77.7912 -2.33103 -0.136037 0
M  V30 851 C 78.7722 -1.45431 -0.882255 0
M  V30 852 O 79.9572 -1.74246 -0.857434 0
M  V30 853 C 77.0872 -3.27731 -1.14933 0
M  V30 854 C 76.0412 -4.24855 -0.517862 0
M  V30 855 C 75.3672 -5.09001 -1.63773 0
M  V30 856 C 76.6672 -5.19439 0.545886 0
M  V30 857 H 78.3612 -2.93568 0.588086 0
M  V30 858 H 75.9072 -1.41166 0.284259 0
M  V30 859 H 77.8602 -3.87261 -1.66153 0
M  V30 860 H 76.5842 -2.65377 -1.90375 0
M  V30 861 H 75.2432 -3.6659 -0.0267361 0
M  V30 862 H 74.8912 -4.43031 -2.38185 0
M  V30 863 H 74.5912 -5.74777 -1.22085 0
M  V30 864 H 76.1152 -5.71396 -2.15266 0
M  V30 865 H 77.5292 -5.73177 0.118704 0
M  V30 866 H 75.9262 -5.93566 0.88317 0
M  V30 867 H 76.9962 -4.63285 1.43162 0
M  V30 868 N 78.3393 -0.321999 -1.54275 0
M  V30 869 C 79.2723 0.58718 -2.20516 0
M  V30 870 C 80.2503 1.11693 -1.18167 0
M  V30 871 O 81.4343 1.18122 -1.46899 0
M  V30 872 C 78.5613 1.80554 -2.86562 0
M  V30 873 C 77.6073 1.40718 -4.02617 0
M  V30 874 S 78.4403 0.445218 -5.33646 0
M  V30 875 C 79.5963 1.6709 -6.03185 0
M  V30 876 H 79.8293 0.0244875 -2.9729 0
M  V30 877 H 77.3623 -0.106087 -1.54035 0
M  V30 878 H 79.3203 2.50462 -3.25237 0
M  V30 879 H 77.9813 2.33942 -2.09595 0
M  V30 880 H 77.1743 2.31501 -4.47687 0
M  V30 881 H 76.7763 0.78782 -3.65608 0
M  V30 882 H 79.0683 2.60856 -6.25268 0
M  V30 883 H 80.0113 1.26239 -6.96756 0
M  V30 884 H 80.4193 1.85716 -5.33076 0
M  V30 885 N 79.8174 1.5752 -0.0501392 0
M  V30 886 C 80.7654 2.12651 0.942459 0
M  V30 887 C 81.7594 1.05807 1.32292 0
M  V30 888 O 82.9654 1.24217 1.3027 0
M  V30 889 H 79.3404 0.679673 0.321789 0
M  V30 890 H 81.3114 2.94951 0.452356 0
M  V30 891 C 80.0604 2.68565 2.20836 0
M  V30 892 H 79.3834 3.50439 1.92439 0
M  V30 893 H 80.8234 3.10761 2.8845 0
M  V30 894 C 79.2824 1.62291 2.95234 0
M  V30 895 O 79.8124 1.03508 3.88135 0
M  V30 896 N 78.0184 1.33836 2.57946 0
M  V30 897 H 77.5654 1.81826 1.82475 0
M  V30 898 H 77.5234 0.629595 3.08032 0
M  V30 899 N 81.2955 -0.223234 1.56011 0
M  V30 900 C 82.7115 -0.572856 1.48965 0
M  V30 901 C 82.9115 -1.87225 0.74492 0
M  V30 902 O 81.9675 -2.50899 0.283896 0
M  V30 903 C 83.2805 -0.653646 2.9351 0
M  V30 904 C 84.8285 -0.744386 3.0402 0
M  V30 905 C 85.3035 -0.856535 4.49919 0
M  V30 906 N 86.7945 -0.9208 4.53955 0
M  V30 907 C 87.5295 -1.02726 5.64123 0
M  V30 908 N 87.0255 -1.09777 6.84047 0
M  V30 909 N 88.8185 -1.06226 5.51971 0
M  V30 910 H 80.9695 0.629462 2.02858 0
M  V30 911 H 83.2325 0.220621 0.921971 0
M  V30 912 H 82.9385 0.231518 3.50937 0
M  V30 913 H 82.8125 -1.51781 3.45315 0
M  V30 914 H 85.1995 -1.61999 2.46658 0
M  V30 915 H 85.2805 0.14541 2.55386 0
M  V30 916 H 84.9245 0.0146069 5.07898 0
M  V30 917 H 84.8545 -1.76172 4.96257 0
M  V30 918 H 87.3455 -0.876694 3.6759 0
M  V30 919 H 87.6585 -1.17872 7.63758 0
M  V30 920 H 86.0035 -1.06693 6.86762 0
M  V30 921 H 89.1945 -1.00382 4.5721 0
M  V30 922 H 89.3675 -1.14177 6.37862 0
M  V30 923 N 82.7736 -1.49793 -0.48987 0
M  V30 924 C 84.0036 -1.6333 -1.26518 0
M  V30 925 C 84.4116 -0.308392 -1.8667 0
M  V30 926 O 83.7546 0.717512 -1.69108 0
M  V30 927 C 83.8166 -2.6522 -2.4269 0
M  V30 928 C 83.4806 -4.09279 -2.03321 0
M  V30 929 C 84.4776 -4.95738 -1.56652 0
M  V30 930 C 82.1626 -4.55082 -2.12616 0
M  V30 931 C 84.1566 -6.26041 -1.19795 0
M  V30 932 C 81.8436 -5.85396 -1.75371 0
M  V30 933 C 82.8416 -6.707 -1.29036 0
M  V30 934 O 82.5296 -7.98584 -0.92299 0
M  V30 935 H 82.2616 -0.552502 -0.389509 0
M  V30 936 H 84.8156 -1.96642 -0.593381 0
M  V30 937 H 83.0456 -2.27112 -3.12981 0
M  V30 938 H 84.7346 -2.68171 -3.04695 0
M  V30 939 H 85.5006 -4.61575 -1.48908 0
M  V30 940 H 81.3796 -3.88844 -2.47631 0
M  V30 941 H 84.9236 -6.92578 -0.835582 0
M  V30 942 H 80.8206 -6.19085 -1.82768 0
M  V30 943 H 81.5886 -8.11692 -1.05349 0
M  V30 944 N 84.2517 0.741722 -1.39055 0
M  V30 945 C 85.4977 1.50336 -1.36113 0
M  V30 946 C 85.8307 1.94148 0.0450796 0
M  V30 947 O 85.1057 1.66301 1.00868 0
M  V30 948 C 85.3887 2.74773 -2.32749 0
M  V30 949 C 85.2417 2.37023 -3.82283 0
M  V30 950 C 86.5607 3.76846 -2.27322 0
M  V30 951 H 83.6797 0.545351 -0.495743 0
M  V30 952 H 86.3217 0.848624 -1.69995 0
M  V30 953 H 84.4717 3.30639 -2.03986 0
M  V30 954 H 86.1437 1.8684 -4.21768 0
M  V30 955 H 84.3867 1.69334 -3.99385 0
M  V30 956 H 85.0577 3.26104 -4.45376 0
M  V30 957 H 87.5337 3.30548 -2.5274 0
M  V30 958 H 86.4097 4.6159 -2.97028 0
M  V30 959 H 86.6707 4.23286 -1.27599 0
M  V30 960 N 85.7298 1.2412 0.971189 0
M  V30 961 C 86.6778 1.02812 2.08644 0
M  V30 962 C 87.6718 -0.0358403 1.69362 0
M  V30 963 O 88.8778 0.118429 1.7961 0
M  V30 964 H 85.2528 0.315428 0.682649 0
M  V30 965 H 87.2238 1.97397 2.23779 0
M  V30 966 C 85.9728 0.645874 3.41649 0
M  V30 967 H 85.2958 1.45632 3.72332 0
M  V30 968 H 86.7358 0.536366 4.20594 0
M  V30 969 C 85.1948 -0.646713 3.30635 0
M  V30 970 O 85.7248 -1.69338 3.64263 0
M  V30 971 N 83.9308 -0.626115 2.83775 0
M  V30 972 H 83.4778 0.225988 2.56607 0
M  V30 973 H 83.4358 -1.49117 2.76788 0
M  V30 974 N 87.2079 -1.17134 1.05439 0
M  V30 975 C 88.4549 -1.87456 0.765942 0
M  V30 976 C 88.7829 -1.81189 -0.707153 0
M  V30 977 O 88.0379 -1.21633 -1.5331 0
M  V30 978 C 88.3369 -3.36833 1.19491 0
M  V30 979 C 88.0029 -3.63301 2.67063 0
M  V30 980 C 86.6649 -3.70234 3.07376 0
M  V30 981 C 89.0169 -3.74575 3.62413 0
M  V30 982 C 86.3449 -3.85933 4.41896 0
M  V30 983 C 88.6969 -3.91793 4.9667 0
M  V30 984 C 87.3609 -3.96966 5.36633 0
M  V30 985 H 86.6309 -0.685948 0.280278 0
M  V30 986 H 89.2779 -1.38556 1.32192 0
M  V30 987 H 87.5829 -3.87807 0.557969 0
M  V30 988 H 89.2799 -3.89611 0.948893 0
M  V30 989 H 85.8699 -3.58532 2.34846 0
M  V30 990 H 90.0539 -3.68537 3.32406 0
M  V30 991 H 85.3099 -3.88187 4.72357 0
M  V30 992 H 89.4839 -3.99458 5.70444 0
M  V30 993 H 87.1109 -4.08883 6.40874 0
M  V30 994 N 88.686 -0.835752 -1.33615 0
M  V30 995 C 89.618 -0.224151 -2.28101 0
M  V30 996 C 90.631 0.593331 -1.51603 0
M  V30 997 O 91.82 0.420911 -1.73466 0
M  V30 998 C 88.92 0.703309 -3.31522 0
M  V30 999 C 88.093 -0.0741528 -4.37337 0
M  V30 1000 C 87.152 0.776176 -5.20444 0
M  V30 1001 O 86.178 0.216506 -5.68788 0
M  V30 1002 N 87.38 2.09401 -5.41416 0
M  V30 1003 H 90.145 -1.03598 -2.81225 0
M  V30 1004 H 87.706 -0.69392 -1.46275 0
M  V30 1005 H 89.698 1.27707 -3.84022 0
M  V30 1006 H 88.268 1.41585 -2.78698 0
M  V30 1007 H 87.488 -0.82928 -3.85378 0
M  V30 1008 H 88.776 -0.608863 -5.05144 0
M  V30 1009 H 88.174 2.57229 -5.03835 0
M  V30 1010 H 86.731 2.61633 -5.96985 0
M  V30 1011 N 90.1641 1.46063 -0.591896 0
M  V30 1012 C 91.0961 2.28539 0.174001 0
M  V30 1013 C 92.1091 1.39047 0.846753 0
M  V30 1014 O 93.2981 1.63564 0.714774 0
M  V30 1015 C 90.3981 3.14347 1.26645 0
M  V30 1016 C 89.5711 4.32021 0.683856 0
M  V30 1017 C 88.6301 4.99157 1.66518 0
M  V30 1018 O 87.6561 5.56458 1.19763 0
M  V30 1019 N 88.8581 4.97005 2.99943 0
M  V30 1020 H 91.6231 2.94911 -0.533633 0
M  V30 1021 H 89.1841 1.56077 -0.430294 0
M  V30 1022 H 91.1761 3.56125 1.92242 0
M  V30 1023 H 89.7461 2.49988 1.87682 0
M  V30 1024 H 88.9661 3.93915 -0.1498 0
M  V30 1025 H 90.2541 5.08059 0.274567 0
M  V30 1026 H 89.6521 4.51714 3.40545 0
M  V30 1027 H 88.2091 5.42696 3.61004 0
M  V30 1028 N 91.6422 0.330177 1.54103 0
M  V30 1029 C 92.6052 -0.520144 2.2322 0
M  V30 1030 C 93.6052 -1.03828 1.22786 0
M  V30 1031 O 94.7952 -0.929652 1.4732 0
M  V30 1032 C 91.9272 -1.72317 2.94142 0
M  V30 1033 H 93.1202 0.0841605 2.99782 0
M  V30 1034 H 90.6732 0.0813433 1.56088 0
M  V30 1035 H 91.4082 -2.36653 2.21734 0
M  V30 1036 H 91.1932 -1.35898 3.67796 0
M  V30 1037 H 92.6832 -2.3266 3.46784 0
M  V30 1038 N 93.1203 -1.57491 0.0584922 0
M  V30 1039 C 94.3483 -1.97296 -0.623037 0
M  V30 1040 C 94.7633 -0.936338 -1.63946 0
M  V30 1041 O 94.1203 0.0785981 -1.82331 0
M  V30 1042 C 94.1713 -3.37183 -1.30345 0
M  V30 1043 O 93.8923 -4.36872 -0.32773 0
M  V30 1044 C 95.3933 -3.91788 -2.07406 0
M  V30 1045 H 92.6133 -0.649153 -0.169826 0
M  V30 1046 H 95.1573 -2.04106 0.12696 0
M  V30 1047 H 93.3123 -3.31502 -2.00463 0
M  V30 1048 H 93.7263 -5.18141 -0.814269 0
M  V30 1049 H 95.2003 -4.91926 -2.50425 0
M  V30 1050 H 95.6773 -3.27609 -2.92521 0
M  V30 1051 H 96.2833 -4.00829 -1.42184 0
M  V30 1052 N 94.5984 0.214957 -1.56127 0
M  V30 1053 C 95.5084 1.28727 -1.96129 0
M  V30 1054 C 96.5244 1.50916 -0.866044 0
M  V30 1055 O 97.7004 1.63918 -1.17016 0
M  V30 1056 C 94.7654 2.61569 -2.27558 0
M  V30 1057 C 93.8264 2.47625 -3.50685 0
M  V30 1058 C 93.0594 3.74132 -3.80606 0
M  V30 1059 O 93.2824 4.77438 -3.12104 0
M  V30 1060 O 92.2164 3.70849 -4.74083 0
M  V30 1061 H 96.0424 0.977855 -2.87527 0
M  V30 1062 H 93.6274 0.418358 -1.43423 0
M  V30 1063 H 95.5094 3.40012 -2.48938 0
M  V30 1064 H 94.1844 2.92178 -1.39332 0
M  V30 1065 H 93.0914 1.67361 -3.34576 0
M  V30 1066 H 94.4244 2.21954 -4.39315 0
M  V30 1067 N 96.0765 1.50051 0.48192 0
M  V30 1068 C 97.3535 1.51009 1.2432 0
M  V30 1069 C 97.7335 0.248587 2.09631 0
M  V30 1070 O 97.0815 -0.768409 2.15192 0
M  V30 1071 C 97.2915 2.79981 2.08355 0
M  V30 1072 C 98.6395 3.3022 2.66908 0
M  V30 1073 O 99.6635 2.81228 2.18607 0
M  V30 1074 O 98.5225 4.15595 3.54884 0
M  V30 1075 H 95.6165 0.605239 0.563573 0
M  V30 1076 H 98.1625 1.62332 0.494627 0
M  V30 1077 H 96.9345 3.63275 1.45419 0
M  V30 1078 H 96.5575 2.7161 2.90368 0
M  V30 1079 N 97.5546 -0.734337 1.39446 0
M  V30 1080 C 98.5176 -1.83004 1.37994 0
M  V30 1081 C 99.5176 -1.58397 0.276938 0
M  V30 1082 O 100.708 -1.65785 0.534875 0
M  V30 1083 C 97.8396 -3.20802 1.1532 0
M  V30 1084 H 99.0326 -1.85694 2.35494 0
M  V30 1085 H 96.5856 -0.938059 1.25021 0
M  V30 1086 H 97.3206 -3.23772 0.185036 0
M  V30 1087 H 97.1056 -3.4006 1.95197 0
M  V30 1088 H 98.5956 -4.00862 1.17046 0
M  V30 1089 N 99.0327 -1.24633 -0.964593 0
M  V30 1090 C 99.9627 -1.06611 -2.07741 0
M  V30 1091 C 100.944 0.0218666 -1.70086 0
M  V30 1092 O 102.129 -0.145793 -1.93652 0
M  V30 1093 C 99.2587 -0.673444 -3.40708 0
M  V30 1094 C 98.2127 -1.71054 -3.92332 0
M  V30 1095 C 97.5387 -1.17285 -5.21678 0
M  V30 1096 C 98.8387 -3.10718 -4.19824 0
M  V30 1097 H 100.533 -1.99693 -2.23076 0
M  V30 1098 H 98.0787 -0.96152 -1.07195 0
M  V30 1099 H 100.032 -0.534345 -4.17998 0
M  V30 1100 H 98.7557 0.293073 -3.25282 0
M  V30 1101 H 97.4147 -1.83791 -3.17201 0
M  V30 1102 H 97.0627 -0.196847 -5.02615 0
M  V30 1103 H 96.7627 -1.86592 -5.57187 0
M  V30 1104 H 98.2867 -1.04593 -6.01575 0
M  V30 1105 H 99.7007 -3.01192 -4.87808 0
M  V30 1106 H 98.0977 -3.77406 -4.66567 0
M  V30 1107 H 99.1677 -3.58524 -3.26479 0
M  V30 1108 N 100.511 1.16574 -1.06058 0
M  V30 1109 C 101.927 1.3904 -0.783585 0
M  V30 1110 C 102.127 1.91784 0.618145 0
M  V30 1111 O 101.183 2.11511 1.37911 0
M  V30 1112 C 102.496 2.37329 -1.84649 0
M  V30 1113 C 104.044 2.51018 -1.86973 0
M  V30 1114 C 104.519 3.52588 -2.92311 0
M  V30 1115 N 106.01 3.60113 -2.91329 0
M  V30 1116 C 106.745 4.38486 -3.69482 0
M  V30 1117 N 106.241 5.20302 -4.57447 0
M  V30 1118 N 108.034 4.33446 -3.57885 0
M  V30 1119 H 100.185 0.806725 -1.96483 0
M  V30 1120 H 102.448 0.417117 -0.851303 0
M  V30 1121 H 102.154 2.05663 -2.85299 0
M  V30 1122 H 102.028 3.36946 -1.6955 0
M  V30 1123 H 104.415 2.81989 -0.869827 0
M  V30 1124 H 104.496 1.51445 -2.0615 0
M  V30 1125 H 104.14 3.22354 -3.92492 0
M  V30 1126 H 104.07 4.51886 -2.70383 0
M  V30 1127 H 106.561 3.01707 -2.27555 0
M  V30 1128 H 106.874 5.77311 -5.13743 0
M  V30 1129 H 105.219 5.19653 -4.61503 0
M  V30 1130 H 108.41 3.68586 -2.88551 0
M  V30 1131 H 108.583 4.94279 -4.19037 0
M  V30 1132 N 101.989 0.842826 1.3317 0
M  V30 1133 C 103.236 0.440447 1.97652 0
M  V30 1134 C 103.564 -1.00123 1.6675 0
M  V30 1135 O 102.819 -1.7155 0.941761 0
M  V30 1136 C 103.118 0.612607 3.52111 0
M  V30 1137 C 102.784 2.02297 4.02972 0
M  V30 1138 C 101.446 2.40874 4.16573 0
M  V30 1139 C 103.798 2.94402 4.30089 0
M  V30 1140 C 101.126 3.70852 4.54627 0
M  V30 1141 C 103.478 4.23865 4.69597 0
M  V30 1142 C 102.142 4.62392 4.81404 0
M  V30 1143 H 101.412 0.161171 0.72326 0
M  V30 1144 H 104.059 1.07061 1.58777 0
M  V30 1145 H 102.364 -0.100849 3.9167 0
M  V30 1146 H 104.061 0.2815 4.00011 0
M  V30 1147 H 100.651 1.71338 3.92863 0
M  V30 1148 H 104.835 2.65835 4.19101 0
M  V30 1149 H 100.091 4.00501 4.61962 0
M  V30 1150 H 104.265 4.95306 4.89536 0
M  V30 1151 H 101.892 5.63154 5.10648 0
M  V30 1152 N 103.467 -1.45747 0.599634 0
M  V30 1153 C 104.695 -2.06668 0.0978551 0
M  V30 1154 C 105.11 -1.44562 -1.21439 0
M  V30 1155 O 104.467 -0.556923 -1.73795 0
M  V30 1156 C 104.518 -3.61456 -0.0567044 0
M  V30 1157 O 104.239 -4.21242 1.20361 0
M  V30 1158 C 105.74 -4.39345 -0.590869 0
M  V30 1159 H 102.96 -0.667825 0.0651943 0
M  V30 1160 H 105.504 -1.87115 0.82511 0
M  V30 1161 H 103.659 -3.80378 -0.734251 0
M  V30 1162 H 104.073 -5.14323 1.02821 0
M  V30 1163 H 105.547 -5.48182 -0.648131 0
M  V30 1164 H 106.024 -4.08568 -1.61147 0
M  V30 1165 H 106.63 -4.25268 0.0523679 0
M  V30 1166 N 104.945 -0.338344 -1.53925 0
M  V30 1167 C 106.185 0.260168 -2.02737 0
M  V30 1168 C 106.549 1.48181 -1.22092 0
M  V30 1169 O 107.75 2.15416 -1.60777 0
M  V30 1170 C 106.021 0.571627 -3.52799 0
M  V30 1171 S 107.58 1.14769 -4.23525 0
M  V30 1172 H 104.398 0.077791 -0.706732 0
M  V30 1173 H 107 -0.474899 -1.89644 0
M  V30 1174 H 105.704 -0.325392 -4.09108 0
M  V30 1175 H 105.235 1.3365 -3.70002 0
M  V30 1176 H 107.25 2.43372 -4.32417 0
M  V30 1177 N 106.423 1.57458 -0.0668435 0
M  V30 1178 C 107.839 1.56947 0.289772 0
M  V30 1179 C 108.039 1.07584 1.70376 0
M  V30 1180 O 107.095 0.739486 2.41429 0
M  V30 1181 C 108.408 3.0052 0.103943 0
M  V30 1182 C 109.956 3.12517 0.173857 0
M  V30 1183 C 110.431 4.57997 0.0163682 0
M  V30 1184 N 111.922 4.63144 0.0721352 0
M  V30 1185 C 112.657 5.73394 -0.0253794 0
M  V30 1186 N 112.153 6.92576 -0.176133 0
M  V30 1187 N 113.946 5.62091 0.0313305 0
M  V30 1188 H 106.097 1.87863 -0.991027 0
M  V30 1189 H 108.36 0.86583 -0.38606 0
M  V30 1190 H 108.066 3.40729 -0.871572 0
M  V30 1191 H 107.94 3.67304 0.858366 0
M  V30 1192 H 110.327 2.72197 1.13985 0
M  V30 1193 H 110.408 2.48381 -0.611586 0
M  V30 1194 H 110.052 4.99005 -0.946374 0
M  V30 1195 H 109.982 5.20158 0.821153 0
M  V30 1196 H 112.473 3.77436 0.187263 0
M  V30 1197 H 112.786 7.72418 -0.242821 0
M  V30 1198 H 111.131 6.94678 -0.211429 0
M  V30 1199 H 114.322 4.67867 0.147773 0
M  V30 1200 H 114.495 6.47982 -0.048121 0
M  V30 1201 N 107.901 -0.206675 1.56239 0
M  V30 1202 C 108.851 -1.26 1.90021 0
M  V30 1203 C 109.835 -1.41566 0.764721 0
M  V30 1204 O 111.027 -1.44131 1.02739 0
M  V30 1205 C 108.156 -2.6073 2.23326 0
M  V30 1206 C 107.242 -2.49005 3.43304 0
M  V30 1207 N 107.633 -2.06946 4.61527 0
M  V30 1208 C 105.931 -2.79927 3.47213 0
M  V30 1209 C 106.632 -2.06832 5.43687 0
M  V30 1210 N 105.608 -2.47892 4.83788 0
M  V30 1211 H 109.41 -0.925955 2.78932 0
M  V30 1212 H 106.924 -0.415172 1.57003 0
M  V30 1213 H 108.921 -3.36798 2.45708 0
M  V30 1214 H 107.581 -2.94968 1.35735 0
M  V30 1215 H 108.592 -1.77839 4.86409 0
M  V30 1216 H 105.269 -3.18438 2.70006 0
M  V30 1217 H 106.659 -1.76312 6.48354 0
M  V30 1218 N 109.379 -1.50304 -0.473955 0
M  V30 1219 C 110.309 -1.71886 -1.58042 0
M  V30 1220 C 111.29 -0.567799 -1.60344 0
M  V30 1221 O 112.475 -0.806623 -1.76656 0
M  V30 1222 C 109.605 -1.81036 -2.96384 0
M  V30 1223 C 108.559 -2.962 -3.08949 0
M  V30 1224 C 107.885 -2.9049 -4.48909 0
M  V30 1225 C 109.185 -4.36752 -2.86434 0
M  V30 1226 H 110.879 -2.64527 -1.40234 0
M  V30 1227 H 108.425 -1.27295 -0.673201 0
M  V30 1228 H 110.378 -1.94719 -3.73714 0
M  V30 1229 H 109.102 -0.850147 -3.15341 0
M  V30 1230 H 107.761 -2.82164 -2.3405 0
M  V30 1231 H 107.409 -1.92321 -4.64781 0
M  V30 1232 H 107.109 -3.67802 -4.58253 0
M  V30 1233 H 108.633 -3.06218 -5.28264 0
M  V30 1234 H 110.047 -4.5133 -3.53517 0
M  V30 1235 H 108.444 -5.15493 -3.07225 0
M  V30 1236 H 109.514 -4.49321 -1.82316 0
M  V30 1237 N 110.857 0.726932 -1.39834 0
M  V30 1238 C 112.105 1.4837 -1.37225 0
M  V30 1239 C 112.426 1.94979 0.0284857 0
M  V30 1240 O 111.696 1.69555 0.981213 0
M  V30 1241 H 110.276 0.55043 -0.505011 0
M  V30 1242 H 112.938 0.862468 -1.74778 0
M  V30 1243 H 112.034 2.36198 -2.04003 0
M  V30 1244 N 112.336 1.25143 0.95797 0
M  V30 1245 C 113.266 1.07711 2.07173 0
M  V30 1246 C 114.247 -0.0128462 1.70095 0
M  V30 1247 O 115.432 0.156061 1.93572 0
M  V30 1248 C 112.562 0.691503 3.40346 0
M  V30 1249 C 111.516 1.73132 3.9142 0
M  V30 1250 C 110.842 1.20049 5.21049 0
M  V30 1251 C 112.142 3.1294 4.1817 0
M  V30 1252 H 113.836 2.00873 2.22014 0
M  V30 1253 H 111.382 0.967191 1.06684 0
M  V30 1254 H 113.335 0.556505 4.17709 0
M  V30 1255 H 112.059 -0.275819 3.25433 0
M  V30 1256 H 110.718 1.8547 3.16222 0
M  V30 1257 H 110.366 0.223499 5.02503 0
M  V30 1258 H 110.066 1.89545 5.56189 0
M  V30 1259 H 111.59 1.07782 6.01012 0
M  V30 1260 H 113.004 3.03775 4.86203 0
M  V30 1261 H 111.401 3.79875 4.64559 0
M  V30 1262 H 112.471 3.6025 3.24573 0
M  V30 1263 N 113.814 -1.1601 1.06675 0
M  V30 1264 C 115.091 -1.82679 0.699114 0
M  V30 1265 C 115.471 -1.94559 -0.819137 0
M  V30 1266 O 114.819 -1.49169 -1.73092 0
M  V30 1267 C 115.029 -3.19445 1.40555 0
M  V30 1268 C 116.377 -3.95171 1.55323 0
M  V30 1269 O 117.401 -3.28976 1.36577 0
M  V30 1270 O 116.26 -5.13833 1.86112 0
M  V30 1271 H 113.354 -0.788954 0.247951 0
M  V30 1272 H 115.9 -1.23179 1.16726 0
M  V30 1273 H 114.672 -3.05856 2.44065 0
M  V30 1274 H 114.295 -3.86625 0.927733 0
M  V30 1275 N 115.292 -0.849877 -1.32721 0
M  V30 1276 C 116.222 -0.306308 -2.31482 0
M  V30 1277 C 117.203 0.591952 -1.59468 0
M  V30 1278 O 118.388 0.513199 -1.87296 0
M  V30 1279 C 115.518 0.510204 -3.43532 0
M  V30 1280 C 114.472 -0.293209 -4.26994 0
M  V30 1281 C 113.798 0.647743 -5.30762 0
M  V30 1282 C 115.098 -1.51634 -4.99804 0
M  V30 1283 H 116.792 -1.13153 -2.77195 0
M  V30 1284 H 114.338 -0.545553 -1.33266 0
M  V30 1285 H 116.291 0.900856 -4.11658 0
M  V30 1286 H 115.015 1.36874 -2.96535 0
M  V30 1287 H 113.674 -0.665555 -3.60508 0
M  V30 1288 H 113.322 1.50299 -4.8002 0
M  V30 1289 H 113.022 0.11422 -5.87489 0
M  V30 1290 H 114.546 1.03567 -6.01753 0
M  V30 1291 H 115.96 -1.19824 -5.60638 0
M  V30 1292 H 114.357 -1.98745 -5.66234 0
M  V30 1293 H 115.427 -2.28018 -4.27943 0
M  V30 1294 N 116.77 1.45427 -0.607355 0
M  V30 1295 C 118.047 1.9557 -0.0344566 0
M  V30 1296 C 118.427 1.54979 1.43334 0
M  V30 1297 O 117.775 0.812241 2.13576 0
M  V30 1298 C 117.985 3.48226 -0.232321 0
M  V30 1299 C 119.333 4.2445 -0.113001 0
M  V30 1300 O 120.357 3.55829 -0.162431 0
M  V30 1301 O 119.216 5.465 0.00209442 0
M  V30 1302 H 116.31 0.826222 0.0358667 0
M  V30 1303 H 118.856 1.55594 -0.6774 0
M  V30 1304 H 117.628 3.70739 -1.25174 0
M  V30 1305 H 117.251 3.95092 0.445896 0
M  V30 1306 N 118.248 0.346503 1.53744 0
M  V30 1307 C 119.211 -0.496439 2.23759 0
M  V30 1308 C 120.211 -1.0252 1.2388 0
M  V30 1309 O 121.401 -0.913974 1.48297 0
M  V30 1310 C 118.533 -1.69187 2.95954 0
M  V30 1311 H 119.726 0.115952 2.99676 0
M  V30 1312 H 117.279 0.0978939 1.55993 0
M  V30 1313 H 118.014 -2.34288 2.24231 0
M  V30 1314 H 117.799 -1.31989 3.69217 0
M  V30 1315 H 119.289 -2.28969 3.49232 0
M  V30 1316 N 119.726 -1.57421 0.075193 0
M  V30 1317 C 121.142 -1.57099 -0.281444 0
M  V30 1318 C 121.342 -1.08486 -1.69803 0
M  V30 1319 O 120.398 -0.752279 -2.41033 0
M  V30 1320 C 121.711 -3.00571 -0.0880041 0
M  V30 1321 C 123.259 -3.12605 -0.157281 0
M  V30 1322 C 123.734 -4.57999 0.0079207 0
M  V30 1323 N 125.225 -4.63176 -0.0475725 0
M  V30 1324 C 125.96 -5.73373 0.0557876 0
M  V30 1325 N 125.456 -6.92473 0.21286 0
M  V30 1326 N 127.249 -5.621 -0.00152098 0
M  V30 1327 H 119.4 -1.87335 1.00098 0
M  V30 1328 H 121.663 -0.86377 0.390646 0
M  V30 1329 H 121.369 -3.40262 0.889629 0
M  V30 1330 H 121.243 -3.67754 -0.838875 0
M  V30 1331 H 123.63 -2.72798 -1.1254 0
M  V30 1332 H 123.711 -2.48053 0.62475 0
M  V30 1333 H 123.355 -4.98496 0.972824 0
M  V30 1334 H 123.285 -5.20586 -0.793556 0
M  V30 1335 H 125.776 -3.7753 -0.167244 0
M  V30 1336 H 126.089 -7.72279 0.283781 0
M  V30 1337 H 124.434 -6.94556 0.248267 0
M  V30 1338 H 127.625 -4.67938 -0.122958 0
M  V30 1339 H 127.798 -6.47948 0.0824844 0
M  V30 1340 N 121.204 0.198386 -1.56346 0
M  V30 1341 C 122.432 0.935572 -1.84539 0
M  V30 1342 C 122.847 1.76989 -0.657281 0
M  V30 1343 O 122.204 1.78626 0.374043 0
M  V30 1344 C 122.255 1.8344 -3.11499 0
M  V30 1345 O 121.976 1.03377 -4.25728 0
M  V30 1346 C 123.477 2.68355 -3.52846 0
M  V30 1347 H 120.697 0.273126 -0.612897 0
M  V30 1348 H 123.241 0.20663 -2.03453 0
M  V30 1349 H 121.396 2.51701 -2.94492 0
M  V30 1350 H 121.81 1.64599 -4.98003 0
M  V30 1351 H 123.284 3.27085 -4.44657 0
M  V30 1352 H 123.761 3.41901 -2.75681 0
M  V30 1353 H 124.367 2.05471 -3.72373 0
M  V30 1354 N 122.682 1.50554 0.465978 0
M  V30 1355 C 124.098 1.38093 0.800154 0
M  V30 1356 C 124.298 0.440988 1.96615 0
M  V30 1357 O 123.354 -0.114499 2.5224 0
M  V30 1358 C 124.667 2.79565 1.10742 0
M  V30 1359 C 126.215 2.88516 1.21357 0
M  V30 1360 C 126.69 4.30833 1.55393 0
M  V30 1361 N 128.181 4.33807 1.62375 0
M  V30 1362 C 128.916 5.40927 1.90225 0
M  V30 1363 N 128.412 6.58247 2.16062 0
M  V30 1364 N 130.205 5.28376 1.9177 0
M  V30 1365 H 122.356 2.10237 -0.302366 0
M  V30 1366 H 124.619 0.945203 -0.0727746 0
M  V30 1367 H 124.325 3.50208 0.323661 0
M  V30 1368 H 124.199 3.17125 2.04234 0
M  V30 1369 H 126.586 2.1809 1.98799 0
M  V30 1370 H 126.667 2.54492 0.258321 0
M  V30 1371 H 126.311 5.01799 0.784889 0
M  V30 1372 H 126.241 4.62347 2.52076 0
M  V30 1373 H 128.732 3.49212 1.44427 0
M  V30 1374 H 129.045 7.3569 2.36601 0
M  V30 1375 H 127.39 6.61413 2.13444 0
M  V30 1376 H 130.581 4.35715 1.71085 0
M  V30 1377 H 130.754 6.11944 2.13139 0
M  V30 1378 N 124.16 -0.719506 1.40217 0
M  V30 1379 C 125.385 -1.51371 1.4178 0
M  V30 1380 C 125.81 -1.88091 0.0182355 0
M  V30 1381 O 125.168 -1.52997 -0.972707 0
M  V30 1382 C 125.216 -2.768 2.31115 0
M  V30 1383 O 124.32 -3.73349 1.7517 0
M  V30 1384 H 123.661 -0.456529 0.482159 0
M  V30 1385 H 126.191 -0.88644 1.844 0
M  V30 1386 H 126.201 -3.25371 2.46167 0
M  V30 1387 H 124.876 -2.49407 3.3282 0
M  V30 1388 H 123.453 -3.32179 1.69444 0
M  V30 1389 N 125.638 -1.25649 -0.95132 0
M  V30 1390 C 126.866 -1.13343 -1.73092 0
M  V30 1391 C 127.281 0.312434 -1.86197 0
M  V30 1392 O 126.638 1.21465 -1.36207 0
M  V30 1393 C 126.689 -1.78602 -3.14299 0
M  V30 1394 O 126.41 -3.17537 -3.01831 0
M  V30 1395 C 127.911 -1.72119 -4.08522 0
M  V30 1396 H 125.131 -0.395181 -0.542285 0
M  V30 1397 H 127.675 -1.66076 -1.19328 0
M  V30 1398 H 125.83 -1.29832 -3.64996 0
M  V30 1399 H 126.244 -3.49676 -3.90931 0
M  V30 1400 H 127.718 -2.22435 -5.052 0
M  V30 1401 H 128.195 -0.685635 -4.33815 0
M  V30 1402 H 128.801 -2.20393 -3.63741 0
M  V30 1403 N 127.117 1.15442 -1.07289 0
M  V30 1404 C 128.047 2.22312 -0.714107 0
M  V30 1405 C 129.028 1.67467 0.298155 0
M  V30 1406 O 130.213 1.93445 0.171048 0
M  V30 1407 C 127.343 3.47124 -0.110448 0
M  V30 1408 C 126.297 4.14926 -1.04979 0
M  V30 1409 C 125.623 5.33807 -0.308924 0
M  V30 1410 C 126.923 4.64762 -2.38314 0
M  V30 1411 H 128.617 2.5258 -1.6076 0
M  V30 1412 H 126.163 1.21404 -0.77441 0
M  V30 1413 H 128.116 4.21124 0.152482 0
M  V30 1414 H 126.84 3.16187 0.81812 0
M  V30 1415 H 125.499 3.42866 -1.29764 0
M  V30 1416 H 125.147 4.99126 0.623084 0
M  V30 1417 H 124.847 5.80113 -0.935036 0
M  V30 1418 H 126.371 6.10576 -0.0537771 0
M  V30 1419 H 127.785 5.30292 -2.1786 0
M  V30 1420 H 126.182 5.21728 -2.96514 0
M  V30 1421 H 127.252 3.80434 -3.00663 0
M  V30 1422 N 128.595 0.856903 1.32268 0
M  V30 1423 C 129.835 0.467705 1.98977 0
M  V30 1424 C 130.199 -0.959231 1.66321 0
M  V30 1425 O 131.4 -1.4531 2.26138 0
M  V30 1426 C 129.671 0.70256 3.50427 0
M  V30 1427 S 131.23 0.411269 4.36868 0
M  V30 1428 H 128.048 0.175121 0.689096 0
M  V30 1429 H 130.65 1.1101 1.60925 0
M  V30 1430 H 129.354 1.74012 3.71683 0
M  V30 1431 H 128.885 0.0466707 3.93372 0
M  V30 1432 H 130.9 -0.761799 4.90317 0
M  V30 1433 N 130.073 -1.45103 0.615059 0
M  V30 1434 C 131.35 -1.95549 0.0448276 0
M  V30 1435 C 131.73 -1.55737 -1.4251 0
M  V30 1436 O 131.078 -0.823556 -2.13143 0
M  V30 1437 C 131.288 -3.48098 0.250785 0
M  V30 1438 C 132.636 -4.24384 0.135509 0
M  V30 1439 O 133.66 -3.55738 0.181299 0
M  V30 1440 O 132.519 -5.46493 0.0268878 0
M  V30 1441 H 129.613 -0.8264 -0.0314845 0
M  V30 1442 H 132.159 -1.55232 0.685642 0
M  V30 1443 H 130.931 -3.7007 1.27139 0
M  V30 1444 H 130.554 -3.95323 -0.424937 0
M  V30 1445 N 131.551 -0.354651 -1.53558 0
M  V30 1446 C 132.514 0.484566 -2.24019 0
M  V30 1447 C 133.514 1.01861 -1.24422 0
M  V30 1448 O 134.704 0.906097 -1.4878 0
M  V30 1449 C 131.836 1.67615 -2.96847 0
M  V30 1450 H 133.029 -0.131843 -2.9961 0
M  V30 1451 H 130.582 -0.106165 -1.55939 0
M  V30 1452 H 131.317 2.33095 -2.25471 0
M  V30 1453 H 131.102 1.30029 -3.69912 0
M  V30 1454 H 132.592 2.27114 -3.50441 0
M  V30 1455 N 133.029 1.57378 -0.0835403 0
M  V30 1456 C 134.259 1.97975 0.590713 0
M  V30 1457 C 134.667 0.961083 1.62972 0
M  V30 1458 O 134.01 -0.0590879 1.83605 0
M  V30 1459 C 134.072 3.34915 1.3066 0
M  V30 1460 C 133.736 4.55069 0.419698 0
M  V30 1461 C 134.733 5.18868 -0.32749 0
M  V30 1462 C 132.418 5.0114 0.341137 0
M  V30 1463 C 134.412 6.27098 -1.14134 0
M  V30 1464 C 132.099 6.0924 -0.476374 0
M  V30 1465 C 133.097 6.72083 -1.21627 0
M  V30 1466 O 132.785 7.781 -2.02028 0
M  V30 1467 H 132.517 0.655818 0.163947 0
M  V30 1468 H 135.071 2.04807 -0.156021 0
M  V30 1469 H 133.301 3.24733 2.09966 0
M  V30 1470 H 134.99 3.60037 1.87424 0
M  V30 1471 H 135.756 4.84211 -0.276459 0
M  V30 1472 H 131.635 4.51996 0.90668 0
M  V30 1473 H 135.179 6.7608 -1.71935 0
M  V30 1474 H 131.076 6.43329 -0.528927 0
M  V30 1475 H 131.844 7.95034 -1.94586 0
M  V30 1476 N 134.507 -0.190092 1.56449 0
M  V30 1477 C 135.437 -1.23816 1.97969 0
M  V30 1478 C 136.418 -1.47201 0.852395 0
M  V30 1479 O 137.603 -1.58854 1.1171 0
M  V30 1480 C 134.733 -2.5813 2.3235 0
M  V30 1481 C 133.687 -2.49348 3.47864 0
M  V30 1482 C 133.013 -3.8798 3.67934 0
M  V30 1483 C 134.313 -2.01424 4.81898 0
M  V30 1484 H 136.007 -0.89311 2.85769 0
M  V30 1485 H 133.553 -0.428177 1.37487 0
M  V30 1486 H 135.506 -3.31637 2.59991 0
M  V30 1487 H 134.23 -2.94386 1.41438 0
M  V30 1488 H 132.889 -1.78297 3.20321 0
M  V30 1489 H 132.537 -4.21597 2.74344 0
M  V30 1490 H 132.237 -3.82978 4.45648 0
M  V30 1491 H 133.761 -4.63101 3.97957 0
M  V30 1492 H 135.175 -2.64693 5.08538 0
M  V30 1493 H 133.572 -2.07413 5.63116 0
M  V30 1494 H 134.642 -0.967677 4.75146 0
M  V30 1495 N 135.985 -1.50799 -0.457987 0
M  V30 1496 C 137.401 -1.38515 -0.792819 0
M  V30 1497 C 137.601 -0.451409 -1.96379 0
M  V30 1498 O 136.657 0.10112 -2.52297 0
M  V30 1499 C 137.97 -2.80149 -1.09258 0
M  V30 1500 C 139.518 -2.89156 -1.19825 0
M  V30 1501 C 139.993 -4.31651 -1.53106 0
M  V30 1502 N 141.484 -4.34662 -1.60072 0
M  V30 1503 C 142.219 -5.41928 -1.87354 0
M  V30 1504 N 141.715 -6.59384 -2.12568 0
M  V30 1505 N 143.508 -5.29385 -1.88965 0
M  V30 1506 H 135.659 -2.10073 0.313511 0
M  V30 1507 H 137.922 -0.944803 0.0777862 0
M  V30 1508 H 137.628 -3.50374 -0.305084 0
M  V30 1509 H 137.502 -3.18204 -2.02549 0
M  V30 1510 H 139.889 -2.19141 -1.97639 0
M  V30 1511 H 139.97 -2.54626 -0.244821 0
M  V30 1512 H 139.614 -5.02208 -0.758266 0
M  V30 1513 H 139.544 -4.63678 -2.49621 0
M  V30 1514 H 142.035 -3.49973 -1.42573 0
M  V30 1515 H 142.348 -7.36934 -2.32696 0
M  V30 1516 H 140.693 -6.62535 -2.09933 0
M  V30 1517 H 143.884 -4.36616 -1.68772 0
M  V30 1518 H 144.057 -6.13066 -2.09891 0
M  V30 1519 N 137.463 0.71206 -1.40597 0
M  V30 1520 C 138.393 1.83889 -1.43899 0
M  V30 1521 C 139.374 1.67442 -0.299504 0
M  V30 1522 O 140.559 1.87421 -0.508624 0
M  V30 1523 C 137.689 3.21877 -1.30431 0
M  V30 1524 C 136.643 3.53002 -2.42019 0
M  V30 1525 C 135.969 4.90172 -2.13626 0
M  V30 1526 C 137.269 3.53643 -3.84362 0
M  V30 1527 H 138.963 1.81383 -2.38203 0
M  V30 1528 H 136.509 0.871237 -1.14654 0
M  V30 1529 H 138.462 4.00404 -1.31357 0
M  V30 1530 H 137.186 3.24968 -0.326049 0
M  V30 1531 H 135.845 2.76818 -2.40349 0
M  V30 1532 H 135.493 4.89869 -1.14182 0
M  V30 1533 H 135.193 5.11962 -2.88389 0
M  V30 1534 H 136.717 5.71028 -2.1624 0
M  V30 1535 H 138.131 4.22203 -3.87837 0
M  V30 1536 H 136.528 3.86961 -4.58673 0
M  V30 1537 H 137.598 2.52954 -4.13693 0
M  V30 1538 N 138.941 1.26152 0.944643 0
M  V30 1539 C 139.904 1.07474 2.0244 0
M  V30 1540 C 140.904 0.0242064 1.60782 0
M  V30 1541 O 142.094 0.267302 1.72137 0
M  V30 1542 C 139.226 0.633956 3.34953 0
M  V30 1543 H 140.419 2.03336 2.20442 0
M  V30 1544 H 137.972 1.087 1.12312 0
M  V30 1545 H 138.707 -0.326811 3.22649 0
M  V30 1546 H 138.492 1.39247 3.66542 0
M  V30 1547 H 139.982 0.52501 4.14287 0
M  V30 1548 N 140.419 -1.14872 1.07899 0
M  V30 1549 C 141.83 -1.67367 0.827363 0
M  V30 1550 C 142.181 -1.85236 -0.646693 0
M  V30 1551 O 141.306 -1.55974 -1.50004 0
M  V30 1552 C 141.901 -3.04016 1.49532 0
M  V30 1553 C 140.46 -3.53566 1.29106 0
M  V30 1554 C 139.607 -2.29161 1.56143 0
M  V30 1555 H 142.558 -0.990083 1.24028 0
M  V30 1556 H 142.579 -3.69219 0.919643 0
M  V30 1557 H 142.091 -2.90978 2.56814 0
M  V30 1558 H 140.192 -3.71835 0.238713 0
M  V30 1559 H 140.305 -4.34661 2.01511 0
M  V30 1560 H 138.669 -2.34978 0.982717 0
M  V30 1561 H 139.452 -2.18705 2.64619 0
M  V30 1562 N 141.898 -0.863906 -1.31812 0
M  V30 1563 C 143.145 -0.471836 -1.96926 0
M  V30 1564 C 143.473 0.974578 -1.68322 0
M  V30 1565 O 142.728 1.7003 -0.968933 0
M  V30 1566 C 143.027 -0.668547 -3.51091 0
M  V30 1567 C 142.693 -2.08683 -3.99703 0
M  V30 1568 C 141.355 -2.47471 -4.12688 0
M  V30 1569 C 143.707 -3.01207 -4.25351 0
M  V30 1570 C 141.035 -3.78037 -4.4867 0
M  V30 1571 C 143.387 -4.31282 -4.62794 0
M  V30 1572 C 142.051 -4.69992 -4.73987 0
M  V30 1573 H 141.321 -0.172657 -0.720604 0
M  V30 1574 H 143.968 -1.09573 -1.57054 0
M  V30 1575 H 142.273 0.0385252 -3.91781 0
M  V30 1576 H 143.97 -0.345102 -3.99512 0
M  V30 1577 H 140.56 -1.77566 -3.90087 0
M  V30 1578 H 144.744 -2.72469 -4.14819 0
M  V30 1579 H 140 -4.078 -4.55532 0
M  V30 1580 H 144.174 -5.03031 -4.81594 0
M  V30 1581 H 141.801 -5.71207 -5.01624 0
M  V30 1582 N 143.376 1.44774 -0.622745 0
M  V30 1583 C 144.601 2.06999 -0.128968 0
M  V30 1584 C 145.026 1.4617 1.1839 0
M  V30 1585 O 144.384 0.560007 1.72434 0
M  V30 1586 C 144.432 3.60595 -0.0188351 0
M  V30 1587 O 143.536 3.99398 1.02739 0
M  V30 1588 H 142.877 0.659047 -0.0809544 0
M  V30 1589 H 145.407 1.85784 -0.85705 0
M  V30 1590 H 145.417 4.07627 0.174476 0
M  V30 1591 H 144.092 4.04252 -0.977384 0
M  V30 1592 H 142.669 3.64011 0.809326 0
M  V30 1593 N 144.854 0.36279 1.53368 0
M  V30 1594 C 145.764 -0.492994 2.29362 0
M  V30 1595 C 146.78 -1.09507 1.35219 0
M  V30 1596 O 147.956 -1.10662 1.68273 0
M  V30 1597 C 145.021 -1.61855 3.066 0
M  V30 1598 C 144.082 -1.04429 4.16405 0
M  V30 1599 C 143.315 -2.11621 4.89951 0
M  V30 1600 O 143.538 -3.32684 4.63333 0
M  V30 1601 O 142.472 -1.74835 5.75948 0
M  V30 1602 H 146.298 0.125331 3.03441 0
M  V30 1603 H 143.883 0.127253 1.48857 0
M  V30 1604 H 145.765 -2.27302 3.54841 0
M  V30 1605 H 144.44 -2.22233 2.3536 0
M  V30 1606 H 143.347 -0.353819 3.72423 0
M  V30 1607 H 144.68 -0.485113 4.89804 0
M  V30 1608 N 146.332 -1.57332 0.0918853 0
M  V30 1609 C 147.578 -1.94524 -0.573425 0
M  V30 1610 C 147.911 -0.973578 -1.68033 0
M  V30 1611 O 147.186 -0.00609226 -1.94499 0
M  V30 1612 C 147.469 -3.41858 -1.13161 0
M  V30 1613 C 147.322 -4.4979 -0.0299747 0
M  V30 1614 C 148.641 -3.90435 -2.03098 0
M  V30 1615 H 145.76 -0.70734 -0.206975 0
M  V30 1616 H 148.402 -1.89309 0.161942 0
M  V30 1617 H 146.552 -3.46433 -1.7583 0
M  V30 1618 H 148.224 -4.57327 0.604112 0
M  V30 1619 H 146.467 -4.291 0.636833 0
M  V30 1620 H 147.138 -5.50069 -0.461287 0
M  V30 1621 H 149.614 -3.87992 -1.50338 0
M  V30 1622 H 148.49 -4.94097 -2.39081 0
M  V30 1623 H 148.751 -3.29541 -2.94712 0
M  V30 1624 N 147.81 0.181792 -1.56548 0
M  V30 1625 C 149.221 0.745244 -1.71181 0
M  V30 1626 C 149.572 1.83262 -0.70068 0
M  V30 1627 O 148.697 2.15946 0.140154 0
M  V30 1628 C 149.292 1.35859 -3.10367 0
M  V30 1629 C 147.851 1.86898 -3.2672 0
M  V30 1630 C 146.998 0.743942 -2.67134 0
M  V30 1631 H 149.949 -0.0434661 -1.5864 0
M  V30 1632 H 149.97 2.22817 -3.08436 0
M  V30 1633 H 149.482 0.566948 -3.83937 0
M  V30 1634 H 147.583 2.68738 -2.5809 0
M  V30 1635 H 147.696 2.02162 -4.34359 0
M  V30 1636 H 146.06 1.16169 -2.26665 0
M  V30 1637 H 146.843 -0.035676 -3.43281 0
M  V30 1638 N 149.288 1.51039 0.449983 0
M  V30 1639 C 150.565 1.53612 1.21089 0
M  V30 1640 C 150.945 0.292997 2.09057 0
M  V30 1641 O 150.293 -0.72259 2.16774 0
M  V30 1642 C 150.503 2.84337 2.0237 0
M  V30 1643 C 151.851 3.35807 2.59843 0
M  V30 1644 O 152.875 2.85802 2.12593 0
M  V30 1645 O 151.734 4.23029 3.45989 0
M  V30 1646 H 148.828 0.617057 0.550608 0
M  V30 1647 H 151.374 1.63344 0.460082 0
M  V30 1648 H 150.146 3.66278 1.37681 0
M  V30 1649 H 149.769 2.77708 2.84542 0
M  V30 1650 N 150.766 -0.704594 1.40972 0
M  V30 1651 C 151.991 -1.49858 1.43378 0
M  V30 1652 C 152.416 -1.88061 0.038184 0
M  V30 1653 O 151.774 -1.5402 -0.956425 0
M  V30 1654 C 151.822 -2.74333 2.34038 0
M  V30 1655 O 150.926 -3.7147 1.7912 0
M  V30 1656 H 150.267 -0.45139 0.486974 0
M  V30 1657 H 152.797 -0.866832 1.8533 0
M  V30 1658 H 152.807 -3.22741 2.49604 0
M  V30 1659 H 151.482 -2.45863 3.35446 0
M  V30 1660 H 150.059 -3.30363 1.72958 0
M  V30 1661 N 152.244 -1.26651 -0.937939 0
M  V30 1662 C 153.174 -1.10993 -2.05433 0
M  V30 1663 C 154.155 -0.0142161 -1.70094 0
M  V30 1664 O 155.34 -0.186837 -1.93299 0
M  V30 1665 C 152.47 -0.745561 -3.39203 0
M  V30 1666 C 151.424 -1.79337 -3.88616 0
M  V30 1667 C 150.75 -1.28324 -5.19073 0
M  V30 1668 C 152.05 -3.19553 -4.13138 0
M  V30 1669 H 153.744 -2.0438 -2.1879 0
M  V30 1670 H 151.29 -0.984041 -1.05131 0
M  V30 1671 H 153.243 -0.622888 -4.16771 0
M  V30 1672 H 151.967 0.22401 -3.25831 0
M  V30 1673 H 150.626 -1.90477 -3.13231 0
M  V30 1674 H 150.274 -0.303414 -5.02084 0
M  V30 1675 H 149.974 -1.98369 -5.53103 0
M  V30 1676 H 151.498 -1.1733 -5.99221 0
M  V30 1677 H 152.912 -3.11471 -4.81309 0
M  V30 1678 H 151.309 -3.87218 -4.58457 0
M  V30 1679 H 152.379 -3.65368 -3.18801 0
M  V30 1680 N 153.722 1.14298 -1.08507 0
M  V30 1681 C 155.138 1.37347 -0.812901 0
M  V30 1682 C 155.338 1.93052 0.577325 0
M  V30 1683 O 154.394 2.14389 1.33393 0
M  V30 1684 C 155.707 2.33359 -1.89642 0
M  V30 1685 C 157.255 2.46996 -1.92255 0
M  V30 1686 C 157.73 3.46309 -2.99724 0
M  V30 1687 N 159.221 3.53853 -2.98902 0
M  V30 1688 C 159.956 4.3055 -3.787 0
M  V30 1689 N 159.452 5.10482 -4.6838 0
M  V30 1690 N 161.245 4.25757 -3.66998 0
M  V30 1691 H 153.396 0.764867 -1.9815 0
M  V30 1692 H 155.659 0.398966 -0.859959 0
M  V30 1693 H 155.365 1.99565 -2.89597 0
M  V30 1694 H 155.239 3.33274 -1.76659 0
M  V30 1695 H 157.626 2.80081 -0.929445 0
M  V30 1696 H 157.707 1.47039 -2.09316 0
M  V30 1697 H 157.351 3.13957 -3.99241 0
M  V30 1698 H 157.281 4.46049 -2.79907 0
M  V30 1699 H 159.772 2.96812 -2.33904 0
M  V30 1700 H 160.085 5.66284 -5.25873 0
M  V30 1701 H 158.43 5.09747 -4.72422 0
M  V30 1702 H 161.621 3.62383 -2.96304 0
M  V30 1703 H 161.794 4.85279 -4.29427 0
M  V30 1704 N 155.201 0.870884 1.31352 0
M  V30 1705 C 156.111 0.330783 2.32256 0
M  V30 1706 C 157.127 -0.559767 1.6475 0
M  V30 1707 O 158.303 -0.456263 1.96164 0
M  V30 1708 C 155.368 -0.458137 3.4366 0
M  V30 1709 C 154.429 0.460482 4.26823 0
M  V30 1710 C 153.662 -0.290881 5.32907 0
M  V30 1711 O 153.885 -1.51885 5.49806 0
M  V30 1712 O 152.819 0.351732 6.00871 0
M  V30 1713 H 156.645 1.16718 2.80376 0
M  V30 1714 H 154.23 0.634285 1.35267 0
M  V30 1715 H 156.112 -0.905343 4.1156 0
M  V30 1716 H 154.787 -1.27106 2.97701 0
M  V30 1717 H 153.694 0.956207 3.61673 0
M  V30 1718 H 155.027 1.23903 4.7635 0
M  V30 1719 N 156.679 -1.44442 0.630414 0
M  V30 1720 C 157.609 -2.33418 -0.0618083 0
M  V30 1721 C 158.59 -1.48165 -0.835541 0
M  V30 1722 O 159.775 -1.76886 -0.801564 0
M  V30 1723 C 156.905 -3.31222 -1.04449 0
M  V30 1724 C 155.859 -4.26288 -0.382436 0
M  V30 1725 C 155.185 -5.13954 -1.47497 0
M  V30 1726 C 156.485 -5.1744 0.710865 0
M  V30 1727 H 158.179 -2.91548 0.681184 0
M  V30 1728 H 155.725 -1.40191 0.329026 0
M  V30 1729 H 157.678 -3.92351 -1.53748 0
M  V30 1730 H 156.402 -2.71299 -1.81836 0
M  V30 1731 H 155.061 -3.6649 0.0899054 0
M  V30 1732 H 154.709 -4.50385 -2.2397 0
M  V30 1733 H 154.409 -5.7837 -1.03737 0
M  V30 1734 H 155.933 -5.77955 -1.96979 0
M  V30 1735 H 157.347 -5.72509 0.300996 0
M  V30 1736 H 155.744 -5.90455 1.07156 0
M  V30 1737 H 156.814 -4.58496 1.57829 0
M  V30 1738 N 158.157 -0.370918 -1.53173 0
M  V30 1739 C 159.104 0.473035 -2.259 0
M  V30 1740 C 160.074 1.07311 -1.26781 0
M  V30 1741 O 161.259 1.1046 -1.55574 0
M  V30 1742 C 158.399 1.60405 -3.05556 0
M  V30 1743 C 157.512 1.02863 -4.19575 0
M  V30 1744 C 156.647 2.12918 -4.86661 0
M  V30 1745 C 155.686 1.52869 -5.92704 0
M  V30 1746 N 154.823 2.56779 -6.53459 0
M  V30 1747 H 159.663 -0.153649 -2.97604 0
M  V30 1748 H 157.2 -0.0875946 -1.46839 0
M  V30 1749 H 159.158 2.27034 -3.50016 0
M  V30 1750 H 157.788 2.20131 -2.36097 0
M  V30 1751 H 156.84 0.252465 -3.79561 0
M  V30 1752 H 158.152 0.549642 -4.95762 0
M  V30 1753 H 157.306 2.87356 -5.34333 0
M  V30 1754 H 156.045 2.6417 -4.09958 0
M  V30 1755 H 155.05 0.769479 -5.44389 0
M  V30 1756 H 156.275 1.02435 -6.7133 0
M  V30 1757 H 154.221 3.07235 -5.79606 0
M  V30 1758 H 154.138 2.13583 -7.25202 0
M  V30 1759 H 155.406 3.30903 -7.05779 0
M  V30 1760 N 159.635 1.57281 -0.100228 0
M  V30 1761 C 161.051 1.57527 0.256416 0
M  V30 1762 C 161.251 1.11173 1.68056 0
M  V30 1763 O 160.307 0.79053 2.39806 0
M  V30 1764 C 161.62 3.00673 0.0401747 0
M  V30 1765 C 163.168 3.12815 0.107528 0
M  V30 1766 C 163.643 4.57929 -0.0807834 0
M  V30 1767 N 165.134 4.63193 -0.0261207 0
M  V30 1768 C 165.869 5.73212 -0.146999 0
M  V30 1769 N 165.365 6.92047 -0.322999 0
M  V30 1770 N 167.158 5.62031 -0.0879044 0
M  V30 1771 H 159.309 1.85718 -1.03065 0
M  V30 1772 H 161.572 0.857446 -0.404339 0
M  V30 1773 H 161.278 3.38804 -0.943649 0
M  V30 1774 H 161.152 3.69042 0.780262 0
M  V30 1775 H 163.539 2.74554 1.08186 0
M  V30 1776 H 163.62 2.47028 -0.664134 0
M  V30 1777 H 163.264 4.96886 -1.05201 0
M  V30 1778 H 163.194 5.21783 0.710635 0
M  V30 1779 H 165.685 3.77748 0.107161 0
M  V30 1780 H 165.998 7.7173 -0.406608 0
M  V30 1781 H 164.343 6.94074 -0.358733 0
M  V30 1782 H 167.534 4.68075 0.048498 0
M  V30 1783 H 167.707 6.47734 -0.185557 0
M  V30 1784 N 161.113 -0.173488 1.56642 0
M  V30 1785 C 162.529 -0.525174 1.50712 0
M  V30 1786 C 162.729 -1.8476 0.804107 0
M  V30 1787 O 161.785 -2.49869 0.363574 0
M  V30 1788 C 163.098 -0.559937 2.95441 0
M  V30 1789 C 164.646 -0.647288 3.06234 0
M  V30 1790 C 165.121 -0.712963 4.52417 0
M  V30 1791 N 166.612 -0.775911 4.56655 0
M  V30 1792 C 167.347 -0.847264 5.67106 0
M  V30 1793 N 166.843 -0.879585 6.87194 0
M  V30 1794 N 168.636 -0.886117 5.55071 0
M  V30 1795 H 160.787 0.693681 2.00753 0
M  V30 1796 H 163.05 0.249841 0.914485 0
M  V30 1797 H 162.756 0.343049 3.50023 0
M  V30 1798 H 162.63 -1.40718 3.49969 0
M  V30 1799 H 165.017 -1.5407 2.51687 0
M  V30 1800 H 165.098 0.226586 2.54794 0
M  V30 1801 H 164.742 0.176183 5.07594 0
M  V30 1802 H 164.672 -1.60295 5.0161 0
M  V30 1803 H 167.163 -0.759304 3.70193 0
M  V30 1804 H 167.476 -0.935144 7.67121 0
M  V30 1805 H 165.821 -0.847898 6.89808 0
M  V30 1806 H 169.012 -0.857853 4.60172 0
M  V30 1807 H 169.185 -0.938263 6.41171 0
M  V30 1808 N 162.591 -1.51276 -0.441967 0
M  V30 1809 C 163.839 -1.63392 -1.18943 0
M  V30 1810 C 164.16 -0.350159 -1.9183 0
M  V30 1811 O 163.43 0.633784 -1.85364 0
M  V30 1812 H 162.01 -0.602164 -0.442049 0
M  V30 1813 H 164.672 -1.88186 -0.507165 0
M  V30 1814 H 163.768 -2.45934 -1.92154 0
M  V30 1815 N 164.069 0.697108 -1.41344 0
M  V30 1816 C 164.999 1.82353 -1.45841 0
M  V30 1817 C 165.98 1.67115 -0.317247 0
M  V30 1818 O 167.165 1.86871 -0.528474 0
M  V30 1819 C 164.295 3.20476 -1.33838 0
M  V30 1820 C 163.249 3.50415 -2.4575 0
M  V30 1821 C 162.575 4.87878 -2.18813 0
M  V30 1822 C 163.875 3.49546 -3.88091 0
M  V30 1823 H 165.569 1.78846 -2.40113 0
M  V30 1824 H 163.115 0.859028 -1.15571 0
M  V30 1825 H 165.068 3.98988 -1.35596 0
M  V30 1826 H 163.792 3.24604 -0.360498 0
M  V30 1827 H 162.451 2.74253 -2.43271 0
M  V30 1828 H 162.099 4.8863 -1.19371 0
M  V30 1829 H 161.799 5.08875 -2.93803 0
M  V30 1830 H 163.323 5.68702 -2.22284 0
M  V30 1831 H 164.737 4.18066 -3.92293 0
M  V30 1832 H 163.134 3.82075 -4.62751 0
M  V30 1833 H 164.204 2.48552 -4.16353 0
M  V30 1834 N 165.547 1.27147 0.931209 0
M  V30 1835 C 166.494 1.09568 2.03134 0
M  V30 1836 C 167.464 -0.00222433 1.661 0
M  V30 1837 O 168.649 0.159439 1.90133 0
M  V30 1838 C 165.789 0.745231 3.36957 0
M  V30 1839 C 164.902 1.92041 3.86968 0
M  V30 1840 C 164.037 1.51216 5.09222 0
M  V30 1841 C 163.076 2.65504 5.5152 0
M  V30 1842 N 162.213 2.25291 6.64972 0
M  V30 1843 H 167.053 2.03708 2.17502 0
M  V30 1844 H 164.59 1.01411 1.06556 0
M  V30 1845 H 166.548 0.522878 4.1391 0
M  V30 1846 H 165.178 -0.159202 3.22407 0
M  V30 1847 H 164.23 2.25541 3.06326 0
M  V30 1848 H 165.542 2.77787 4.1429 0
M  V30 1849 H 164.696 1.25084 5.93666 0
M  V30 1850 H 163.435 0.625749 4.83669 0
M  V30 1851 H 162.44 2.92354 4.65628 0
M  V30 1852 H 163.665 3.54761 5.7907 0
M  V30 1853 H 161.611 1.39098 6.41083 0
M  V30 1854 H 161.528 3.04577 6.91931 0
M  V30 1855 H 162.796 2.02398 7.52765 0
M  V30 1856 N 167.025 -1.13721 1.09112 0
M  V30 1857 C 167.955 -2.21148 0.749385 0
M  V30 1858 C 168.936 -1.6792 -0.271475 0
M  V30 1859 O 170.121 -1.93693 -0.140251 0
M  V30 1860 C 167.251 -3.46905 0.165659 0
M  V30 1861 C 166.205 -4.13203 1.11567 0
M  V30 1862 C 165.531 -5.33248 0.393809 0
M  V30 1863 C 166.831 -4.60912 2.45678 0
M  V30 1864 H 168.525 -2.4999 1.64758 0
M  V30 1865 H 166.071 -1.20156 0.793626 0
M  V30 1866 H 168.024 -4.21313 -0.085466 0
M  V30 1867 H 166.748 -3.17449 -0.767714 0
M  V30 1868 H 165.407 -3.40758 1.35202 0
M  V30 1869 H 165.055 -5.00054 -0.543599 0
M  V30 1870 H 164.755 -5.78552 1.02721 0
M  V30 1871 H 166.279 -6.10413 0.150908 0
M  V30 1872 H 167.693 -5.26759 2.26269 0
M  V30 1873 H 166.09 -5.16944 3.04776 0
M  V30 1874 H 167.16 -3.75603 3.06677 0
M  V30 1875 N 168.503 -0.877838 -1.30888 0
M  V30 1876 C 169.466 -0.344265 -2.266 0
M  V30 1877 C 170.466 0.50922 -1.52524 0
M  V30 1878 O 171.656 0.317398 -1.71284 0
M  V30 1879 C 168.788 0.510198 -3.37061 0
M  V30 1880 H 169.981 -1.1893 -2.7531 0
M  V30 1881 H 167.534 -0.654088 -1.41956 0
M  V30 1882 H 168.269 1.37612 -2.93655 0
M  V30 1883 H 168.054 -0.101047 -3.9197 0
M  V30 1884 H 169.544 0.875537 -4.08319 0
M  V30 1885 N 169.982 1.44106 -0.638065 0
M  V30 1886 C 171.231 2.01194 -0.142744 0
M  V30 1887 C 171.544 1.50835 1.24532 0
M  V30 1888 O 172.75 2.00096 1.83504 0
M  V30 1889 C 171.206 3.59319 -0.20442 0
M  V30 1890 C 170.814 4.18674 -1.59423 0
M  V30 1891 C 172.558 4.23854 0.234079 0
M  V30 1892 C 170.465 5.69045 -1.61065 0
M  V30 1893 H 169.395 0.752367 -0.0495998 0
M  V30 1894 H 172.046 1.65246 -0.797881 0
M  V30 1895 H 170.428 3.92598 0.517946 0
M  V30 1896 H 171.602 3.96921 -2.34074 0
M  V30 1897 H 169.917 3.66453 -1.97741 0
M  V30 1898 H 172.514 5.34155 0.241443 0
M  V30 1899 H 172.857 3.96688 1.2627 0
M  V30 1900 H 173.39 3.95403 -0.436025 0
M  V30 1901 H 170.129 6.00956 -2.61787 0
M  V30 1902 H 169.649 5.929 -0.90718 0
M  V30 1903 H 171.328 6.32809 -1.34766 0
M  V30 1904 N 171.46 0.379036 1.52974 0
M  V30 1905 C 172.39 -0.452706 2.29069 0
M  V30 1906 C 173.371 -1.07237 1.32039 0
M  V30 1907 O 174.556 -1.08708 1.60923 0
M  V30 1908 C 171.686 -1.5856 3.08992 0
M  V30 1909 C 170.64 -1.0925 4.13822 0
M  V30 1910 C 169.966 -2.31668 4.81907 0
M  V30 1911 C 171.266 -0.167702 5.22031 0
M  V30 1912 H 172.96 0.182181 2.98845 0
M  V30 1913 H 170.506 0.0890592 1.43724 0
M  V30 1914 H 172.459 -2.1742 3.6098 0
M  V30 1915 H 171.183 -2.24792 2.36931 0
M  V30 1916 H 169.842 -0.526494 3.628 0
M  V30 1917 H 169.49 -2.96386 4.06404 0
M  V30 1918 H 169.19 -1.9934 5.52754 0
M  V30 1919 H 170.714 -2.91189 5.36695 0
M  V30 1920 H 172.128 -0.664186 5.6944 0
M  V30 1921 H 170.525 0.0653265 6.00064 0
M  V30 1922 H 171.595 0.786347 4.78482 0
M  V30 1923 N 172.938 -1.57226 0.108567 0
M  V30 1924 C 174.163 -1.99604 -0.563303 0
M  V30 1925 C 174.588 -0.987563 -1.6009 0
M  V30 1926 O 173.946 0.0421687 -1.81251 0
M  V30 1927 C 173.994 -3.40902 -1.17552 0
M  V30 1928 O 173.098 -3.42896 -2.2912 0
M  V30 1929 H 172.439 -0.648704 -0.1417 0
M  V30 1930 H 174.969 -2.03679 0.193961 0
M  V30 1931 H 174.979 -3.78886 -1.51357 0
M  V30 1932 H 173.654 -4.1382 -0.415445 0
M  V30 1933 H 172.231 -3.1672 -1.96832 0
M  V30 1934 N 174.416 0.165178 -1.56732 0
M  V30 1935 C 175.364 1.22369 -1.97809 0
M  V30 1936 C 176.358 1.45488 -0.867741 0
M  V30 1937 O 177.564 1.45995 -1.05288 0
M  V30 1938 H 173.939 0.411486 -0.629431 0
M  V30 1939 H 175.91 0.850425 -2.86025 0
M  V30 1940 C 174.659 2.55403 -2.35934 0
M  V30 1941 H 173.982 2.38438 -3.20916 0
M  V30 1942 H 175.422 3.2814 -2.68514 0
M  V30 1943 C 173.881 3.14611 -1.20506 0
M  V30 1944 O 174.411 3.98626 -0.496016 0
M  V30 1945 N 172.617 2.7379 -0.97403 0
M  V30 1946 H 172.164 2.0557 -1.55238 0
M  V30 1947 H 172.122 3.1374 -0.203573 0
M  V30 1948 N 175.894 1.51508 0.433938 0
M  V30 1949 C 177.142 1.6402 1.18075 0
M  V30 1950 C 177.463 0.360328 1.91642 0
M  V30 1951 O 176.733 -0.623945 1.85698 0
M  V30 1952 H 175.313 0.6045 0.43885 0
M  V30 1953 H 177.975 1.88452 0.497178 0
M  V30 1954 H 177.071 2.46949 1.90847 0
M  V30 1955 N 177.372 -0.689602 1.41712 0
M  V30 1956 C 178.597 -1.48329 1.44959 0
M  V30 1957 C 179.022 -1.8801 0.0581283 0
M  V30 1958 O 178.38 -1.55026 -0.940035 0
M  V30 1959 C 178.428 -2.71835 2.36935 0
M  V30 1960 O 177.532 -3.69549 1.8305 0
M  V30 1961 H 176.873 -0.446199 0.491734 0
M  V30 1962 H 179.403 -0.847127 1.86239 0
M  V30 1963 H 179.413 -3.20076 2.53013 0
M  V30 1964 H 178.088 -2.42291 3.38035 0
M  V30 1965 H 176.665 -3.2851 1.76452 0
M  V30 1966 N 178.85 -1.27639 -0.924453 0
M  V30 1967 C 180.261 -1.12834 -1.48746 0
M  V30 1968 C 180.612 0.285505 -1.94112 0
M  V30 1969 O 179.737 1.17874 -1.81479 0
M  V30 1970 C 180.332 -2.04217 -2.70334 0
M  V30 1971 C 178.891 -1.93509 -3.22848 0
M  V30 1972 C 178.038 -1.96583 -1.95577 0
M  V30 1973 H 180.989 -1.40484 -0.738233 0
M  V30 1974 H 181.01 -1.59989 -3.4523 0
M  V30 1975 H 180.522 -3.07111 -2.37285 0
M  V30 1976 H 178.623 -0.936131 -3.60649 0
M  V30 1977 H 178.736 -2.79917 -3.88823 0
M  V30 1978 H 177.1 -1.4085 -2.12211 0
M  V30 1979 H 177.883 -3.01137 -1.64837 0
M  V30 1980 N 180.328 1.1314 -1.09713 0
M  V30 1981 C 181.26 2.18343 -0.697056 0
M  V30 1982 C 182.273 1.60669 0.262551 0
M  V30 1983 O 183.462 1.78435 0.0481527 0
M  V30 1984 C 180.562 3.38899 -0.00684728 0
M  V30 1985 C 179.735 4.26078 -0.988741 0
M  V30 1986 C 178.794 5.25155 -0.331394 0
M  V30 1987 O 177.82 5.60701 -0.979926 0
M  V30 1988 N 179.022 5.73271 0.913261 0
M  V30 1989 H 181.787 2.5328 -1.60216 0
M  V30 1990 H 179.348 1.28491 -0.984971 0
M  V30 1991 H 181.34 4.02255 0.444191 0
M  V30 1992 H 179.91 3.02175 0.800551 0
M  V30 1993 H 179.13 3.59453 -1.61826 0
M  V30 1994 H 180.418 4.81178 -1.65364 0
M  V30 1995 H 179.816 5.46544 1.45966 0
M  V30 1996 H 178.373 6.3855 1.30757 0
M  V30 1997 N 181.806 0.884767 1.30421 0
M  V30 1998 C 183.031 0.517288 2.00845 0
M  V30 1999 C 183.456 -0.886779 1.65885 0
M  V30 2000 O 182.814 -1.58768 0.875354 0
M  V30 2001 C 182.862 0.698994 3.5376 0
M  V30 2002 O 181.966 -0.255208 4.1161 0
M  V30 2003 H 181.307 0.203872 0.631927 0
M  V30 2004 H 183.837 1.19225 1.66272 0
M  V30 2005 H 183.847 0.597912 4.03595 0
M  V30 2006 H 182.522 1.72271 3.78544 0
M  V30 2007 H 181.099 -0.10784 3.72744 0
M  V30 2008 N 183.284 -1.43765 0.645699 0
M  V30 2009 C 184.533 -2.01116 0.153412 0
M  V30 2010 C 184.846 -1.51493 -1.23731 0
M  V30 2011 O 186.052 -2.01067 -1.8244 0
M  V30 2012 C 184.508 -3.59206 0.223473 0
M  V30 2013 C 184.116 -4.17823 1.61642 0
M  V30 2014 C 185.86 -4.23972 -0.211597 0
M  V30 2015 C 183.767 -5.68183 1.64081 0
M  V30 2016 H 182.697 -0.752093 0.0535891 0
M  V30 2017 H 185.348 -1.6482 0.806633 0
M  V30 2018 H 183.73 -3.92867 -0.497118 0
M  V30 2019 H 184.904 -3.95674 2.36176 0
M  V30 2020 H 183.219 -3.65399 1.99681 0
M  V30 2021 H 185.816 -5.34275 -0.213112 0
M  V30 2022 H 186.159 -3.97352 -1.24165 0
M  V30 2023 H 186.692 -3.95166 0.456988 0
M  V30 2024 H 183.431 -5.99559 2.64971 0
M  V30 2025 H 182.951 -5.9241 0.938611 0
M  V30 2026 H 184.63 -6.32085 1.3812 0
M  V30 2027 N 184.763 -0.387143 -1.52771 0
M  V30 2028 C 186.04 0.253197 -1.93954 0
M  V30 2029 C 186.42 1.64545 -1.32243 0
M  V30 2030 O 185.768 2.23191 -0.489699 0
M  V30 2031 C 185.978 0.281722 -3.47861 0
M  V30 2032 C 187.326 0.511715 -4.21505 0
M  V30 2033 O 188.35 0.362023 -3.54356 0
M  V30 2034 O 187.209 0.804847 -5.40541 0
M  V30 2035 H 184.303 0.156845 -0.811991 0
M  V30 2036 H 186.849 -0.441494 -1.63856 0
M  V30 2037 H 185.621 -0.693571 -3.85104 0
M  V30 2038 H 185.244 1.02142 -3.84256 0
M  V30 2039 N 186.241 1.57166 -0.116904 0
M  V30 2040 C 187.204 2.14039 0.819742 0
M  V30 2041 C 188.204 1.07477 1.19605 0
M  V30 2042 O 189.394 1.33263 1.1219 0
M  V30 2043 C 186.526 2.67891 2.10826 0
M  V30 2044 H 187.719 2.98128 0.325511 0
M  V30 2045 H 185.272 1.55739 0.132312 0
M  V30 2046 H 186.007 1.87384 2.64685 0
M  V30 2047 H 185.792 3.45823 1.84793 0
M  V30 2048 H 187.282 3.11809 2.77785 0
M  V30 2049 N 187.719 -0.156864 1.56817 0
M  V30 2050 C 188.965 -0.872416 1.83076 0
M  V30 2051 C 189.298 -1.81261 0.697001 0
M  V30 2052 O 188.573 -1.92171 -0.30008 0
M  V30 2053 C 188.856 -1.65551 3.19789 0
M  V30 2054 C 188.709 -0.737467 4.43713 0
M  V30 2055 C 190.028 -2.62012 3.53606 0
M  V30 2056 H 187.147 -0.315715 0.665953 0
M  V30 2057 H 189.789 -0.138004 1.89498 0
M  V30 2058 H 187.939 -2.28159 3.14445 0
M  V30 2059 H 189.611 -0.123143 4.61136 0
M  V30 2060 H 187.854 -0.0464067 4.33775 0
M  V30 2061 H 188.525 -1.32122 5.35955 0
M  V30 2062 H 191.001 -2.09525 3.59497 0
M  V30 2063 H 189.877 -3.13861 4.50314 0
M  V30 2064 H 190.138 -3.42902 2.79053 0
M  V30 2065 N 189.197 -1.51736 -0.425897 0
M  V30 2066 C 190.443 -1.65214 -1.1761 0
M  V30 2067 C 190.776 -0.372778 -1.90589 0
M  V30 2068 O 190.051 0.628139 -1.84078 0
M  V30 2069 C 190.334 -2.86312 -2.18398 0
M  V30 2070 C 190.187 -4.24254 -1.49426 0
M  V30 2071 C 191.506 -3.02925 -3.19256 0
M  V30 2072 H 188.625 -0.601263 -0.426206 0
M  V30 2073 H 191.267 -1.8425 -0.463882 0
M  V30 2074 H 189.417 -2.70213 -2.79137 0
M  V30 2075 H 191.089 -4.52046 -0.919362 0
M  V30 2076 H 189.332 -4.26426 -0.796432 0
M  V30 2077 H 190.003 -5.05001 -2.22885 0
M  V30 2078 H 192.479 -3.1781 -2.68581 0
M  V30 2079 H 191.355 -3.89199 -3.8706 0
M  V30 2080 H 191.616 -2.15497 -3.86023 0
M  V30 2081 N 190.675 0.682077 -1.42076 0
M  V30 2082 C 191.9 1.47558 -1.45744 0
M  V30 2083 C 192.325 1.87977 -0.0680981 0
M  V30 2084 O 191.683 1.55522 0.9318 0
M  V30 2085 C 191.731 2.70575 -2.38373 0
M  V30 2086 O 190.835 3.68573 -1.85007 0
M  V30 2087 H 190.176 0.443585 -0.494093 0
M  V30 2088 H 192.706 0.837238 -1.86686 0
M  V30 2089 H 192.716 3.18729 -2.54707 0
M  V30 2090 H 191.391 2.40495 -3.39315 0
M  V30 2091 H 189.968 3.2757 -1.78192 0
M  V30 2092 N 192.153 1.28127 0.917671 0
M  V30 2093 C 193.103 1.08361 2.00604 0
M  V30 2094 C 194.087 0.00847518 1.60898 0
M  V30 2095 O 195.279 0.228167 1.75523 0
M  V30 2096 C 192.408 0.743376 3.35155 0
M  V30 2097 C 191.494 1.85716 3.81275 0
M  V30 2098 N 191.885 3.09822 3.99805 0
M  V30 2099 C 190.183 1.74612 4.10398 0
M  V30 2100 C 190.884 3.82368 4.38372 0
M  V30 2101 N 189.86 3.10192 4.4641 0
M  V30 2102 H 193.662 2.02531 2.12975 0
M  V30 2103 H 191.176 1.18989 1.10523 0
M  V30 2104 H 193.173 0.582859 4.12805 0
M  V30 2105 H 191.833 -0.190595 3.2414 0
M  V30 2106 H 192.844 3.45475 3.85833 0
M  V30 2107 H 189.521 0.883657 4.08041 0
M  V30 2108 H 190.911 4.89082 4.60704 0
M  V30 2109 N 193.631 -1.12557 1.10312 0
M  V30 2110 C 194.594 -2.16434 0.75424 0
M  V30 2111 C 195.594 -1.59278 -0.220685 0
M  V30 2112 O 196.784 -1.742 0.00230591 0
M  V30 2113 C 193.916 -3.40699 0.116987 0
M  V30 2114 H 195.109 -2.48811 1.67431 0
M  V30 2115 H 192.662 -1.27542 0.903475 0
M  V30 2116 H 193.397 -3.13921 -0.813877 0
M  V30 2117 H 193.182 -3.83459 0.818613 0
M  V30 2118 H 194.672 -4.17451 -0.111387 0
M  V30 2119 N 195.109 -0.891671 -1.2995 0
M  V30 2120 C 196.357 -0.512486 -1.95494 0
M  V30 2121 C 196.678 0.942776 -1.70695 0
M  V30 2122 O 195.948 1.66374 -1.03424 0
M  V30 2123 H 194.528 -0.186533 -0.723336 0
M  V30 2124 H 197.19 -1.13621 -1.58355 0
M  V30 2125 H 196.286 -0.688342 -3.04415 0
M  V30 2126 N 196.587 1.43421 -0.653314 0
M  V30 2127 C 197.517 2.33487 0.0246656 0
M  V30 2128 C 198.498 1.49475 0.811863 0
M  V30 2129 O 199.683 1.78139 0.773322 0
M  V30 2130 C 196.813 3.32841 0.99166 0
M  V30 2131 C 195.767 4.26842 0.314568 0
M  V30 2132 C 195.093 5.16236 1.39302 0
M  V30 2133 C 196.393 5.16243 -0.793095 0
M  V30 2134 H 198.087 2.90427 -0.727481 0
M  V30 2135 H 195.633 1.39649 -0.351287 0
M  V30 2136 H 197.586 3.94747 1.47487 0
M  V30 2137 H 196.31 2.74158 1.77497 0
M  V30 2138 H 194.969 3.663 -0.148199 0
M  V30 2139 H 194.617 4.53891 2.16776 0
M  V30 2140 H 194.317 5.79948 0.945223 0
M  V30 2141 H 195.841 5.81015 1.87759 0
M  V30 2142 H 197.255 5.71958 -0.392039 0
M  V30 2143 H 195.652 5.88676 -1.16536 0
M  V30 2144 H 196.722 4.55927 -1.65103 0
M  V30 2145 N 198.065 0.39524 1.52563 0
M  V30 2146 C 199.481 0.0454682 1.59535 0
M  V30 2147 C 199.681 -1.44056 1.4089 0
M  V30 2148 O 198.737 -2.20579 1.22888 0
M  V30 2149 C 200.05 0.527963 2.96029 0
M  V30 2150 C 201.598 0.484733 3.09224 0
M  V30 2151 C 202.073 0.943512 4.48176 0
M  V30 2152 N 203.564 0.899765 4.54377 0
M  V30 2153 C 204.299 1.22609 5.60138 0
M  V30 2154 N 203.795 1.62319 6.73516 0
M  V30 2155 N 205.588 1.14696 5.50274 0
M  V30 2156 H 197.739 1.36261 1.62931 0
M  V30 2157 H 200.002 0.558887 0.765735 0
M  V30 2158 H 199.708 1.56607 3.14908 0
M  V30 2159 H 199.582 -0.0698056 3.77135 0
M  V30 2160 H 201.969 -0.544298 2.90037 0
M  V30 2161 H 202.05 1.11838 2.30056 0
M  V30 2162 H 201.694 1.9708 4.68104 0
M  V30 2163 H 201.624 0.286817 5.25818 0
M  V30 2164 H 204.115 0.607632 3.72983 0
M  V30 2165 H 204.428 1.85567 7.5019 0
M  V30 2166 H 202.773 1.66211 6.74833 0
M  V30 2167 H 205.964 0.835701 4.6058 0
M  V30 2168 H 206.137 1.40459 6.32594 0
M  V30 2169 N 199.544 -1.57102 0.125237 0
M  V30 2170 C 200.821 -1.86953 -0.575142 0
M  V30 2171 C 201.201 -1.02749 -1.84407 0
M  V30 2172 O 200.549 -0.108144 -2.28244 0
M  V30 2173 C 200.759 -3.38198 -0.861583 0
M  V30 2174 C 202.107 -4.06937 -1.21192 0
M  V30 2175 O 203.131 -3.43252 -0.951645 0
M  V30 2176 O 201.99 -5.19364 -1.70068 0
M  V30 2177 H 199.084 -0.774147 -0.290906 0
M  V30 2178 H 201.63 -1.68942 0.160211 0
M  V30 2179 H 200.402 -3.91282 0.0373647 0
M  V30 2180 H 200.025 -3.61661 -1.65188 0
M  V30 2181 N 201.022 0.148545 -1.56898 0
M  V30 2182 C 202.27 0.859717 -1.82902 0
M  V30 2183 C 202.591 1.81775 -0.70588 0
M  V30 2184 O 201.861 1.93994 0.272586 0
M  V30 2185 H 200.441 0.320469 -0.674766 0
M  V30 2186 H 203.103 0.142918 -1.94375 0
M  V30 2187 H 202.199 1.4229 -2.77777 0
M  V30 2188 N 202.5 1.5196 0.417844 0
M  V30 2189 C 203.747 1.65591 1.16559 0
M  V30 2190 C 204.075 0.381565 1.90721 0
M  V30 2191 O 203.33 -0.635156 1.85106 0
M  V30 2192 C 203.629 2.82269 2.19223 0
M  V30 2193 C 203.295 4.20819 1.61933 0
M  V30 2194 C 201.957 4.58506 1.46033 0
M  V30 2195 C 204.309 5.07196 1.20008 0
M  V30 2196 C 201.637 5.80257 0.867113 0
M  V30 2197 C 203.989 6.29544 0.621086 0
M  V30 2198 C 202.653 6.65987 0.449144 0
M  V30 2199 H 201.923 0.605939 0.42652 0
M  V30 2200 H 204.57 1.86041 0.45397 0
M  V30 2201 H 202.875 2.56118 2.96498 0
M  V30 2202 H 204.572 2.90012 2.76936 0
M  V30 2203 H 201.162 3.91116 1.7529 0
M  V30 2204 H 205.346 4.7867 1.31105 0
M  V30 2205 H 200.602 6.07124 0.721833 0
M  V30 2206 H 204.776 6.95805 0.287798 0
M  V30 2207 H 202.403 7.60199 -0.012632 0
M  V30 2208 N 203.978 -0.674533 1.42435 0
M  V30 2209 C 205.255 -1.4305 1.33402 0
M  V30 2210 C 205.635 -2.11081 -0.0284674 0
M  V30 2211 O 204.983 -2.03257 -1.04397 0
M  V30 2212 C 205.193 -2.43272 2.50239 0
M  V30 2213 C 206.541 -3.07907 2.92367 0
M  V30 2214 O 207.565 -2.53599 2.50132 0
M  V30 2215 O 206.424 -4.0632 3.65467 0
M  V30 2216 H 203.518 -0.638076 0.526106 0
M  V30 2217 H 206.064 -0.703235 1.54443 0
M  V30 2218 H 204.836 -1.91803 3.41068 0
M  V30 2219 H 204.459 -3.23479 2.31186 0
M  V30 2220 N 205.456 -1.28612 -0.910864 0
M  V30 2221 C 206.406 -1.09423 -2.00026 0
M  V30 2222 C 207.39 -0.0170079 -1.60891 0
M  V30 2223 O 208.582 -0.237472 -1.754 0
M  V30 2224 C 205.711 -0.76114 -3.34756 0
M  V30 2225 C 204.797 -1.87735 -3.80285 0
M  V30 2226 N 205.188 -3.11938 -3.98156 0
M  V30 2227 C 203.486 -1.76786 -4.09467 0
M  V30 2228 C 204.187 -3.84687 -4.36338 0
M  V30 2229 N 203.163 -3.12555 -4.44759 0
M  V30 2230 H 206.965 -2.03658 -2.11898 0
M  V30 2231 H 204.479 -1.19573 -1.09891 0
M  V30 2232 H 206.476 -0.604743 -4.12491 0
M  V30 2233 H 205.136 0.173403 -3.24237 0
M  V30 2234 H 206.147 -3.47516 -3.83996 0
M  V30 2235 H 202.824 -0.905284 -4.07567 0
M  V30 2236 H 204.214 -4.91518 -4.58104 0
M  V30 2237 N 206.934 1.1197 -1.10907 0
M  V30 2238 C 207.864 2.19928 -0.784473 0
M  V30 2239 C 208.845 1.6833 0.244726 0
M  V30 2240 O 210.03 1.93892 0.109418 0
M  V30 2241 C 207.16 3.46597 -0.220827 0
M  V30 2242 C 206.114 4.11376 -1.18127 0
M  V30 2243 C 205.44 5.32554 -0.478594 0
M  V30 2244 C 206.74 4.56945 -2.52979 0
M  V30 2245 H 208.434 2.47337 -1.68715 0
M  V30 2246 H 205.98 1.18879 -0.812642 0
M  V30 2247 H 207.933 4.21396 0.0184278 0
M  V30 2248 H 206.657 3.1863 0.717113 0
M  V30 2249 H 205.316 3.38564 -1.40606 0
M  V30 2250 H 204.964 5.00856 0.463976 0
M  V30 2251 H 204.664 5.76844 -1.11912 0
M  V30 2252 H 206.188 6.10096 -0.248 0
M  V30 2253 H 207.602 5.23093 -2.3462 0
M  V30 2254 H 205.999 5.1203 -3.12962 0
M  V30 2255 H 207.069 3.70676 -3.12614 0
M  V30 2256 N 208.412 0.89855 1.29475 0
M  V30 2257 C 209.342 0.39201 2.30186 0
M  V30 2258 C 210.323 -0.532359 1.61555 0
M  V30 2259 O 211.508 -0.443331 1.89072 0
M  V30 2260 C 208.638 -0.382353 3.45189 0
M  V30 2261 C 207.592 0.451483 4.25612 0
M  V30 2262 C 206.918 -0.450307 5.328 0
M  V30 2263 C 208.218 1.70079 4.93832 0
M  V30 2264 H 209.912 1.23362 2.72804 0
M  V30 2265 H 207.458 0.594638 1.31149 0
M  V30 2266 H 209.411 -0.747451 4.14718 0
M  V30 2267 H 208.135 -1.25774 3.01411 0
M  V30 2268 H 206.794 0.798897 3.57789 0
M  V30 2269 H 206.442 -1.32379 4.85268 0
M  V30 2270 H 206.142 0.103902 5.87508 0
M  V30 2271 H 207.666 -0.811623 6.05182 0
M  V30 2272 H 209.08 1.40549 5.55805 0
M  V30 2273 H 207.477 2.19623 5.58467 0
M  V30 2274 H 208.547 2.43744 4.19186 0
M  V30 2275 N 209.89 -1.43072 0.660911 0
M  V30 2276 C 211.115 -2.06584 0.183805 0
M  V30 2277 C 211.54 -1.49257 -1.14472 0
M  V30 2278 O 210.898 -0.605528 -1.70889 0
M  V30 2279 C 210.946 -3.60418 0.114434 0
M  V30 2280 O 210.05 -4.01981 -0.921137 0
M  V30 2281 H 209.391 -0.656669 0.0983994 0
M  V30 2282 H 211.921 -1.83447 0.906006 0
M  V30 2283 H 211.931 -4.07946 -0.0663394 0
M  V30 2284 H 210.606 -4.01519 1.08422 0
M  V30 2285 H 209.183 -3.66029 -0.71253 0
M  V30 2286 N 211.368 -0.403325 -1.52352 0
M  V30 2287 C 212.614 0.174605 -2.02047 0
M  V30 2288 C 212.947 1.45282 -1.28867 0
M  V30 2289 O 212.222 1.90483 -0.393257 0
M  V30 2290 C 212.505 0.428238 -3.57545 0
M  V30 2291 C 212.358 -0.866248 -4.4138 0
M  V30 2292 C 213.677 1.21287 -4.23057 0
M  V30 2293 H 210.796 0.0619851 -0.734389 0
M  V30 2294 H 213.438 -0.53565 -1.82293 0
M  V30 2295 H 211.588 1.03327 -3.74507 0
M  V30 2296 H 213.26 -1.50265 -4.3614 0
M  V30 2297 H 211.503 -1.47851 -4.07827 0
M  V30 2298 H 212.174 -0.643249 -5.48239 0
M  V30 2299 H 214.65 0.700703 -4.10158 0
M  V30 2300 H 213.526 1.35909 -5.31808 0
M  V30 2301 H 213.787 2.23193 -3.81625 0
M  V30 2302 N 212.846 1.57033 -0.133567 0
M  V30 2303 C 214.123 1.87256 0.56522 0
M  V30 2304 C 214.503 1.03726 1.83859 0
M  V30 2305 O 213.851 0.120247 2.28183 0
M  V30 2306 C 214.061 3.3865 0.843636 0
M  V30 2307 C 215.409 4.07574 1.19032 0
M  V30 2308 O 216.433 3.43752 0.933429 0
M  V30 2309 O 215.292 5.20259 1.67312 0
M  V30 2310 H 212.386 0.775678 0.286796 0
M  V30 2311 H 214.932 1.68855 -0.169168 0
M  V30 2312 H 213.704 3.91257 -0.0581149 0
M  V30 2313 H 213.327 3.62532 1.63268 0
M  V30 2314 N 214.325 -0.140222 1.56975 0
M  V30 2315 C 215.736 -0.699596 1.73097 0
M  V30 2316 C 216.087 -1.8134 0.749022 0
M  V30 2317 O 215.212 -2.16241 -0.0828503 0
M  V30 2318 C 215.807 -1.27582 3.1386 0
M  V30 2319 C 214.366 -1.78169 3.31561 0
M  V30 2320 C 213.513 -0.672855 2.69013 0
M  V30 2321 H 216.464 0.0855115 1.58469 0
M  V30 2322 H 216.485 -2.14561 3.14235 0
M  V30 2323 H 215.997 -0.464955 3.85305 0
M  V30 2324 H 214.098 -2.61801 2.65124 0
M  V30 2325 H 214.211 -1.90574 4.39566 0
M  V30 2326 H 212.575 -1.10118 2.29665 0
M  V30 2327 H 213.358 0.126679 3.43066 0
M  V30 2328 N 215.803 -1.52179 -0.40978 0
M  V30 2329 C 217.049 -1.66453 -1.15851 0
M  V30 2330 C 217.382 -0.392972 -1.90182 0
M  V30 2331 O 216.657 0.608579 -1.84734 0
M  V30 2332 C 216.94 -2.88612 -2.15349 0
M  V30 2333 C 216.793 -4.25815 -1.44918 0
M  V30 2334 C 218.112 -3.06294 -3.16026 0
M  V30 2335 H 215.231 -0.60575 -0.419805 0
M  V30 2336 H 217.873 -1.84732 -0.444314 0
M  V30 2337 H 216.023 -2.73158 -2.76255 0
M  V30 2338 H 217.695 -4.52995 -0.871365 0
M  V30 2339 H 215.938 -4.27247 -0.751159 0
M  V30 2340 H 216.609 -5.07337 -2.17516 0
M  V30 2341 H 219.085 -3.20641 -2.65195 0
M  V30 2342 H 217.961 -3.93283 -3.8291 0
M  V30 2343 H 218.222 -2.19579 -3.83715 0
M  V30 2344 N 217.281 0.66697 -1.42791 0
M  V30 2345 C 218.213 1.7925 -1.42836 0
M  V30 2346 C 219.226 1.59496 -0.326333 0
M  V30 2347 O 220.415 1.6847 -0.589916 0
M  V30 2348 C 217.515 3.16476 -1.21229 0
M  V30 2349 C 216.688 3.63011 -2.44013 0
M  V30 2350 C 215.747 4.78993 -2.17834 0
M  V30 2351 O 214.773 4.89137 -2.91091 0
M  V30 2352 N 215.975 5.68248 -1.18635 0
M  V30 2353 H 218.74 1.79695 -2.39854 0
M  V30 2354 H 216.301 0.850338 -1.37771 0
M  V30 2355 H 218.293 3.91734 -1.01621 0
M  V30 2356 H 216.863 3.10884 -0.32706 0
M  V30 2357 H 216.083 2.78346 -2.79137 0
M  V30 2358 H 217.371 3.90845 -3.25757 0
M  V30 2359 H 216.769 5.62712 -0.580615 0
M  V30 2360 H 215.326 6.43285 -1.05013 0
M  V30 2361 N 218.759 1.29093 0.90403 0
M  V30 2362 C 220.005 1.16986 1.65656 0
M  V30 2363 C 220.338 -0.278925 1.92186 0
M  V30 2364 O 219.613 -1.2019 1.5292 0
M  V30 2365 C 219.896 1.97908 3.0084 0
M  V30 2366 C 219.749 3.50903 2.81403 0
M  V30 2367 C 221.068 1.80208 4.01513 0
M  V30 2368 H 218.187 0.426346 0.601164 0
M  V30 2369 H 220.829 1.58518 1.04747 0
M  V30 2370 H 218.979 1.62616 3.52829 0
M  V30 2371 H 220.651 3.96153 2.36348 0
M  V30 2372 H 218.894 3.76045 2.1627 0
M  V30 2373 H 219.565 4.02791 3.77443 0
M  V30 2374 H 222.041 2.11025 3.58619 0
M  V30 2375 H 220.917 2.39184 4.94047 0
M  V30 2376 H 221.178 0.756119 4.35586 0
M  V30 2377 N 220.237 -1.11381 1.11499 0
M  V30 2378 C 221.467 -1.86663 0.885464 0
M  V30 2379 C 221.875 -1.80464 -0.568281 0
M  V30 2380 O 221.218 -1.18445 -1.40415 0
M  V30 2381 C 221.28 -3.36337 1.26956 0
M  V30 2382 C 220.944 -3.66304 2.73259 0
M  V30 2383 C 221.941 -3.63733 3.71476 0
M  V30 2384 C 219.626 -3.9529 3.09921 0
M  V30 2385 C 221.62 -3.89725 5.04374 0
M  V30 2386 C 219.307 -4.20941 4.43004 0
M  V30 2387 C 220.305 -4.18147 5.40039 0
M  V30 2388 O 219.993 -4.43153 6.70724 0
M  V30 2389 H 219.725 -0.597114 0.316908 0
M  V30 2390 H 222.279 -1.41782 1.48617 0
M  V30 2391 H 220.509 -3.81826 0.611999 0
M  V30 2392 H 222.198 -3.92986 1.01573 0
M  V30 2393 H 222.964 -3.41389 3.44498 0
M  V30 2394 H 218.843 -3.966 2.35009 0
M  V30 2395 H 222.387 -3.8746 5.80104 0
M  V30 2396 H 218.284 -4.42761 4.69716 0
M  V30 2397 H 219.052 -4.60717 6.76522 0
M  V30 2398 N 221.715 -0.905404 -1.28997 0
M  V30 2399 C 222.662 -0.385892 -2.27551 0
M  V30 2400 C 223.632 0.535113 -1.57244 0
M  V30 2401 O 224.817 0.459119 -1.85194 0
M  V30 2402 C 221.957 0.375461 -3.43051 0
M  V30 2403 C 221.07 -0.577092 -4.28128 0
M  V30 2404 C 220.205 0.201879 -5.30816 0
M  V30 2405 C 219.244 -0.744829 -6.07551 0
M  V30 2406 N 218.381 9.42587e-05 -7.021 0
M  V30 2407 H 223.221 -1.23139 -2.71368 0
M  V30 2408 H 220.758 -0.618542 -1.33463 0
M  V30 2409 H 222.716 0.832992 -4.088 0
M  V30 2410 H 221.346 1.18537 -3.00248 0
M  V30 2411 H 220.398 -1.15315 -3.62501 0
M  V30 2412 H 221.71 -1.30152 -4.8152 0
M  V30 2413 H 220.864 0.720351 -6.02408 0
M  V30 2414 H 219.603 0.959413 -4.7817 0
M  V30 2415 H 218.608 -1.27475 -5.34818 0
M  V30 2416 H 219.833 -1.50178 -6.62286 0
M  V30 2417 H 217.779 0.739791 -6.51815 0
M  V30 2418 H 217.696 -0.664321 -7.53076 0
M  V30 2419 H 218.964 0.498644 -7.77903 0
M  V30 2420 N 223.193 1.4272 -0.668489 0
M  V30 2421 C 224.604 1.84793 -0.266151 0
M  V30 2422 C 224.955 1.55959 1.19043 0
M  V30 2423 O 224.08 1.01622 1.91055 0
M  V30 2424 C 224.675 3.35436 -0.476271 0
M  V30 2425 C 223.234 3.76182 -0.128113 0
M  V30 2426 C 222.381 2.66344 -0.771777 0
M  V30 2427 H 225.332 1.32656 -0.871098 0
M  V30 2428 H 225.353 3.79515 0.273561 0
M  V30 2429 H 224.865 3.5639 -1.53647 0
M  V30 2430 H 222.966 3.60836 0.928891 0
M  V30 2431 H 223.079 4.75766 -0.564231 0
M  V30 2432 H 221.443 2.53885 -0.203652 0
M  V30 2433 H 222.226 2.90123 -1.83531 0
M  V30 2434 N 224.671 0.411399 1.52136 0
M  V30 2435 C 225.948 -0.222308 1.94333 0
M  V30 2436 C 226.328 -1.6242 1.34844 0
M  V30 2437 O 225.676 -2.22384 0.525145 0
M  V30 2438 C 225.886 -0.226345 3.48265 0
M  V30 2439 C 227.234 -0.444592 4.22266 0
M  V30 2440 O 228.258 -0.305602 3.54887 0
M  V30 2441 O 227.117 -0.718749 5.41753 0
M  V30 2442 H 224.211 -0.143907 0.814383 0
M  V30 2443 H 226.757 0.467506 1.63133 0
M  V30 2444 H 225.529 0.75475 3.83952 0
M  V30 2445 H 225.152 -0.960163 3.85832 0
M  V30 2446 N 226.149 -1.5696 0.141893 0
M  V30 2447 C 227.097 -2.17784 -0.816874 0
M  V30 2448 C 228.091 -1.1334 -1.25899 0
M  V30 2449 O 229.297 -1.316 -1.22806 0
M  V30 2450 H 225.672 -0.697278 -0.281615 0
M  V30 2451 H 227.643 -2.97087 -0.279621 0
M  V30 2452 C 226.392 -2.80983 -2.04802 0
M  V30 2453 H 225.715 -3.61062 -1.7168 0
M  V30 2454 H 227.155 -3.2705 -2.69841 0
M  V30 2455 C 225.614 -1.79228 -2.8527 0
M  V30 2456 O 226.144 -1.25962 -3.8144 0
M  V30 2457 N 224.35 -1.48647 -2.49704 0
M  V30 2458 H 223.897 -1.92155 -1.71564 0
M  V30 2459 H 223.855 -0.808115 -3.03837 0
M  V30 2460 N 227.627 0.131896 -1.57047 0
M  V30 2461 C 229.043 0.485031 -1.52051 0
M  V30 2462 C 229.243 1.82563 -0.85281 0
M  V30 2463 O 228.299 2.48817 -0.429694 0
M  V30 2464 C 229.612 0.481409 -2.96821 0
M  V30 2465 C 231.16 0.565868 -3.07842 0
M  V30 2466 C 231.635 0.592762 -4.54148 0
M  V30 2467 N 233.126 0.654564 -4.58552 0
M  V30 2468 C 233.861 0.696608 -5.69153 0
M  V30 2469 N 233.357 0.697078 -6.89284 0
M  V30 2470 N 235.15 0.738639 -5.57226 0
M  V30 2471 H 227.301 -0.746664 -1.98843 0
M  V30 2472 H 229.564 -0.273999 -0.90754 0
M  V30 2473 H 229.27 -0.435731 -3.4899 0
M  V30 2474 H 229.144 1.3139 -3.53577 0
M  V30 2475 H 231.531 1.47343 -2.55684 0
M  V30 2476 H 231.612 -0.29406 -2.54104 0
M  V30 2477 H 231.256 -0.310701 -5.06949 0
M  V30 2478 H 231.186 1.46939 -5.05684 0
M  V30 2479 H 233.677 0.660887 -3.72076 0
M  V30 2480 H 233.99 0.731426 -7.69331 0
M  V30 2481 H 232.335 0.66471 -6.91814 0
M  V30 2482 H 235.526 0.735545 -4.62285 0
M  V30 2483 H 235.699 0.767938 -6.43434 0
M  V30 2484 N 229.106 1.52395 0.401703 0
M  V30 2485 C 230.352 1.67065 1.14966 0
M  V30 2486 C 230.685 0.403052 1.89971 0
M  V30 2487 O 229.96 -0.598774 1.85054 0
M  V30 2488 C 230.243 2.8975 2.13815 0
M  V30 2489 C 230.096 4.26578 1.42658 0
M  V30 2490 C 231.415 3.07965 3.14397 0
M  V30 2491 H 228.534 0.607968 0.416587 0
M  V30 2492 H 231.176 1.84965 0.434511 0
M  V30 2493 H 229.326 2.74619 2.74803 0
M  V30 2494 H 230.998 4.53451 0.847329 0
M  V30 2495 H 229.241 4.27639 0.72849 0
M  V30 2496 H 229.912 5.08483 2.14823 0
M  V30 2497 H 232.388 3.22043 2.63491 0
M  V30 2498 H 231.264 3.95308 3.80819 0
M  V30 2499 H 231.525 2.21611 3.82545 0
M  V30 2500 N 230.584 -0.659388 1.43143 0
M  V30 2501 C 231.814 -1.44513 1.47646 0
M  V30 2502 C 232.222 -1.88981 0.0910095 0
M  V30 2503 O 231.565 -1.59702 -0.907789 0
M  V30 2504 C 231.627 -2.71663 2.35456 0
M  V30 2505 C 231.291 -2.49175 3.83094 0
M  V30 2506 C 232.288 -2.1279 4.74359 0
M  V30 2507 C 229.973 -2.63691 4.27519 0
M  V30 2508 C 231.967 -1.9121 6.08044 0
M  V30 2509 C 229.654 -2.41726 5.61259 0
M  V30 2510 C 230.652 -2.0554 6.51339 0
M  V30 2511 O 230.34 -1.838 7.82606 0
M  V30 2512 H 230.072 -0.45064 0.503884 0
M  V30 2513 H 232.626 -0.816248 1.88485 0
M  V30 2514 H 230.856 -3.37089 1.89493 0
M  V30 2515 H 232.545 -3.33595 2.31235 0
M  V30 2516 H 233.311 -2.01157 4.41317 0
M  V30 2517 H 229.19 -2.90832 3.57684 0
M  V30 2518 H 232.734 -1.62889 6.78316 0
M  V30 2519 H 228.631 -2.52959 5.9387 0
M  V30 2520 H 229.399 -1.98275 7.94122 0
M  V30 2521 N 232.062 -1.29571 -0.897171 0
M  V30 2522 C 232.972 -1.16808 -2.03453 0
M  V30 2523 C 233.988 -0.0907471 -1.73763 0
M  V30 2524 O 235.164 -0.303312 -1.99103 0
M  V30 2525 C 232.229 -0.848264 -3.36163 0
M  V30 2526 C 231.29 -2.0097 -3.79354 0
M  V30 2527 C 230.523 -1.70505 -5.05731 0
M  V30 2528 O 230.746 -0.62718 -5.66941 0
M  V30 2529 O 229.68 -2.5538 -5.45036 0
M  V30 2530 H 233.506 -2.12325 -2.17144 0
M  V30 2531 H 231.091 -1.09047 -1.02123 0
M  V30 2532 H 232.973 -0.684581 -4.15802 0
M  V30 2533 H 231.648 0.0771071 -3.23608 0
M  V30 2534 H 230.555 -2.22863 -3.00471 0
M  V30 2535 H 231.888 -2.91636 -3.96496 0
M  V30 2536 N 233.54 1.10788 -1.12088 0
M  V30 2537 C 234.47 2.19083 -0.807755 0
M  V30 2538 C 235.451 1.6858 0.226859 0
M  V30 2539 O 236.636 1.93997 0.0888475 0
M  V30 2540 C 233.766 3.46344 -0.257576 0
M  V30 2541 C 232.72 4.101 -1.22483 0
M  V30 2542 C 232.046 5.32016 -0.535052 0
M  V30 2543 C 233.346 4.54236 -2.57811 0
M  V30 2544 H 235.04 2.45534 -1.71328 0
M  V30 2545 H 232.586 1.1801 -0.825205 0
M  V30 2546 H 234.539 4.21392 -0.0262679 0
M  V30 2547 H 233.263 3.19373 0.683278 0
M  V30 2548 H 231.922 3.37054 -1.44189 0
M  V30 2549 H 231.57 5.01319 0.410827 0
M  V30 2550 H 231.27 5.75625 -1.18024 0
M  V30 2551 H 232.794 6.09799 -0.312695 0
M  V30 2552 H 234.208 5.20575 -2.40155 0
M  V30 2553 H 232.605 5.08682 -3.18375 0
M  V30 2554 H 233.675 3.6734 -3.16528 0
M  V30 2555 N 235.018 0.912232 1.28515 0
M  V30 2556 C 235.981 0.404223 2.25607 0
M  V30 2557 C 236.981 -0.468602 1.53821 0
M  V30 2558 O 238.171 -0.271873 1.72065 0
M  V30 2559 C 235.303 -0.420653 3.38295 0
M  V30 2560 H 236.496 1.26188 2.7206 0
M  V30 2561 H 234.049 0.691495 1.40171 0
M  V30 2562 H 234.784 -1.29777 2.97201 0
M  V30 2563 H 234.569 0.204935 3.91564 0
M  V30 2564 H 236.059 -0.766971 4.10496 0
M  V30 2565 N 236.496 -1.42363 0.676048 0
M  V30 2566 C 237.406 -2.346 -0.00153389 0
M  V30 2567 C 238.422 -1.5516 -0.787485 0
M  V30 2568 O 239.598 -1.87723 -0.729521 0
M  V30 2569 C 236.663 -3.33705 -0.940298 0
M  V30 2570 C 235.724 -4.29042 -0.148739 0
M  V30 2571 C 234.957 -5.23413 -1.04279 0
M  V30 2572 O 235.18 -5.22749 -2.28232 0
M  V30 2573 O 234.114 -5.99795 -0.502925 0
M  V30 2574 H 237.94 -2.94082 0.758268 0
M  V30 2575 H 235.525 -1.42888 0.436289 0
M  V30 2576 H 237.407 -3.94586 -1.47917 0
M  V30 2577 H 236.082 -2.76695 -1.67993 0
M  V30 2578 H 234.989 -3.71571 0.43427 0
M  V30 2579 H 236.322 -4.89097 0.551805 0
M  V30 2580 N 237.974 -0.419461 -1.51915 0
M  V30 2581 C 238.906 0.43646 -2.25006 0
M  V30 2582 C 239.919 1.00149 -1.28351 0
M  V30 2583 O 241.108 0.898674 -1.54227 0
M  V30 2584 C 238.208 1.6206 -2.9764 0
M  V30 2585 C 237.381 1.17763 -4.21249 0
M  V30 2586 C 236.44 2.22985 -4.76617 0
M  V30 2587 O 235.466 1.83151 -5.38929 0
M  V30 2588 N 236.668 3.55271 -4.59089 0
M  V30 2589 H 239.433 -0.18989 -2.99098 0
M  V30 2590 H 236.994 -0.247386 -1.59999 0
M  V30 2591 H 238.986 2.32038 -3.31573 0
M  V30 2592 H 237.556 2.15266 -2.2667 0
M  V30 2593 H 236.776 0.305582 -3.93014 0
M  V30 2594 H 238.064 0.858781 -5.015 0
M  V30 2595 H 237.462 3.90377 -4.09417 0
M  V30 2596 H 236.019 4.21195 -4.97432 0
M  V30 2597 N 239.452 1.56882 -0.150215 0
M  V30 2598 C 240.415 2.1573 0.774157 0
M  V30 2599 C 241.415 1.0999 1.17298 0
M  V30 2600 O 242.605 1.35613 1.09338 0
M  V30 2601 C 239.737 2.72302 2.05096 0
M  V30 2602 H 240.93 2.98752 0.262201 0
M  V30 2603 H 238.483 1.55985 0.099248 0
M  V30 2604 H 239.218 1.92956 2.6065 0
M  V30 2605 H 239.003 3.49665 1.77416 0
M  V30 2606 H 240.493 3.17632 2.71109 0
M  V30 2607 N 240.93 -0.123565 1.57115 0
M  V30 2608 C 241.86 -1.15309 2.03042 0
M  V30 2609 C 242.841 -1.43454 0.914061 0
M  V30 2610 O 244.026 -1.53973 1.18347 0
M  V30 2611 C 241.156 -2.48043 2.43089 0
M  V30 2612 C 240.11 -2.3437 3.58127 0
M  V30 2613 C 239.436 -3.72026 3.84059 0
M  V30 2614 C 240.736 -1.80804 4.90007 0
M  V30 2615 H 242.43 -0.771102 2.893 0
M  V30 2616 H 239.976 -0.369479 1.39179 0
M  V30 2617 H 241.929 -3.20311 2.73823 0
M  V30 2618 H 240.653 -2.88122 1.53796 0
M  V30 2619 H 239.312 -1.64551 3.27595 0
M  V30 2620 H 238.96 -4.09582 2.91979 0
M  V30 2621 H 238.66 -3.63732 4.6149 0
M  V30 2622 H 240.184 -4.45806 4.1724 0
M  V30 2623 H 241.598 -2.42886 5.19307 0
M  V30 2624 H 239.995 -1.83343 5.71407 0
M  V30 2625 H 241.065 -0.76528 4.78823 0
M  V30 2626 N 242.408 -1.52605 -0.393616 0
M  V30 2627 C 243.656 -1.67093 -1.13685 0
M  V30 2628 C 243.977 -0.411011 -1.90619 0
M  V30 2629 O 243.247 0.574491 -1.87287 0
M  V30 2630 H 241.827 -0.615923 -0.422668 0
M  V30 2631 H 244.489 -1.89704 -0.447039 0
M  V30 2632 H 243.585 -2.51922 -1.84232 0
M  V30 2633 N 243.887 0.651787 -1.4349 0
M  V30 2634 C 244.817 1.77621 -1.51569 0
M  V30 2635 C 245.798 1.66022 -0.370253 0
M  V30 2636 O 246.983 1.85095 -0.587658 0
M  V30 2637 C 244.113 3.16056 -1.43966 0
M  V30 2638 C 243.067 3.4242 -2.56774 0
M  V30 2639 C 242.393 4.8067 -2.34223 0
M  V30 2640 C 243.693 3.37023 -3.99015 0
M  V30 2641 H 245.387 1.71117 -2.45681 0
M  V30 2642 H 242.933 0.821825 -1.18246 0
M  V30 2643 H 244.886 3.94472 -1.48221 0
M  V30 2644 H 243.61 3.23293 -0.463586 0
M  V30 2645 H 242.269 2.66375 -2.51873 0
M  V30 2646 H 241.917 4.84585 -1.34856 0
M  V30 2647 H 241.617 4.9927 -3.09844 0
M  V30 2648 H 243.141 5.61342 -2.40265 0
M  V30 2649 H 244.555 4.05374 -4.05395 0
M  V30 2650 H 242.952 3.67159 -4.74673 0
M  V30 2651 H 244.022 2.3518 -4.2405 0
M  V30 2652 N 245.365 1.30045 0.890287 0
M  V30 2653 C 246.642 1.09227 1.62262 0
M  V30 2654 C 247.022 -0.360305 2.08002 0
M  V30 2655 O 246.37 -1.35084 1.84295 0
M  V30 2656 C 246.58 2.08835 2.79623 0
M  V30 2657 C 247.928 2.40266 3.50082 0
M  V30 2658 O 248.952 2.07104 2.89804 0
M  V30 2659 O 247.811 2.96967 4.58773 0
M  V30 2660 H 244.905 0.419132 0.712922 0
M  V30 2661 H 247.451 1.41451 0.937529 0
M  V30 2662 H 246.223 3.06633 2.43089 0
M  V30 2663 H 245.846 1.77397 3.55832 0
M  V30 2664 N 246.843 -1.10192 1.12674 0
M  V30 2665 C 248.259 -1.34235 0.863317 0
M  V30 2666 C 248.459 -1.95062 -0.505277 0
M  V30 2667 O 247.515 -2.19192 -1.25345 0
M  V30 2668 C 248.828 -2.2616 1.98172 0
M  V30 2669 C 250.376 -2.3969 2.0129 0
M  V30 2670 C 250.851 -3.34946 3.1237 0
M  V30 2671 N 252.342 -3.42515 3.11829 0
M  V30 2672 C 253.077 -4.16199 3.94419 0
M  V30 2673 N 252.573 -4.92747 4.87004 0
M  V30 2674 N 254.366 -4.11843 3.82547 0
M  V30 2675 H 246.517 -0.690798 2.00853 0
M  V30 2676 H 248.78 -0.366774 0.874174 0
M  V30 2677 H 248.486 -1.8868 2.96804 0
M  V30 2678 H 248.36 -3.26488 1.88906 0
M  V30 2679 H 250.747 -2.76438 1.03276 0
M  V30 2680 H 250.828 -1.39169 2.14629 0
M  V30 2681 H 250.472 -2.98923 4.10619 0
M  V30 2682 H 250.402 -4.35353 2.96269 0
M  V30 2683 H 252.893 -2.87926 2.44759 0
M  V30 2684 H 253.206 -5.46376 5.46528 0
M  V30 2685 H 251.551 -4.91862 4.91016 0
M  V30 2686 H 254.742 -3.51136 3.0955 0
M  V30 2687 H 254.915 -4.69007 4.47142 0
M  V30 2688 N 248.321 -0.919034 -1.28029 0
M  V30 2689 C 249.546 -0.570357 -1.99403 0
M  V30 2690 C 249.971 0.842486 -1.68178 0
M  V30 2691 O 249.329 1.56391 -0.917141 0
M  V30 2692 C 249.377 -0.792541 -3.51783 0
M  V30 2693 O 248.481 0.145988 -4.12142 0
M  V30 2694 H 247.822 -0.220555 -0.6263 0
M  V30 2695 H 250.352 -1.23592 -1.63053 0
M  V30 2696 H 250.362 -0.704708 -4.01868 0
M  V30 2697 H 249.037 -1.82247 -3.73844 0
M  V30 2698 H 247.614 0.00897528 -3.72899 0
M  V30 2699 N 249.799 1.42003 -0.683588 0
M  V30 2700 C 250.762 2.29191 -0.0198243 0
M  V30 2701 C 251.762 1.43773 0.72013 0
M  V30 2702 O 252.952 1.65061 0.556815 0
M  V30 2703 C 250.084 3.26435 0.982487 0
M  V30 2704 H 251.277 2.8938 -0.787345 0
M  V30 2705 H 248.83 1.49789 -0.446418 0
M  V30 2706 H 249.565 2.71203 1.77819 0
M  V30 2707 H 249.35 3.89449 0.455182 0
M  V30 2708 H 250.84 3.918 1.44508 0
M  V30 2709 N 251.277 0.427512 1.51691 0
M  V30 2710 C 252.526 -0.143679 2.01188 0
M  V30 2711 C 252.839 -1.44642 1.31674 0
M  V30 2712 O 254.045 -2.09997 1.72086 0
M  V30 2713 C 252.501 -0.306602 3.58592 0
M  V30 2714 C 252.109 0.985125 4.37035 0
M  V30 2715 C 253.853 -0.832091 4.16265 0
M  V30 2716 C 251.76 0.788382 5.86122 0
M  V30 2717 H 250.69 -0.0574701 0.751807 0
M  V30 2718 H 253.341 0.555772 1.74881 0
M  V30 2719 H 251.723 -1.06882 3.81303 0
M  V30 2720 H 252.897 1.75492 4.26074 0
M  V30 2721 H 251.212 1.4384 3.90767 0
M  V30 2722 H 253.809 -0.995617 5.25349 0
M  V30 2723 H 254.152 -1.81186 3.74803 0
M  V30 2724 H 254.685 -0.128444 3.97593 0
M  V30 2725 H 251.424 1.74025 6.31978 0
M  V30 2726 H 250.944 0.0582143 5.99772 0
M  V30 2727 H 252.623 0.437722 6.45518 0
M  V30 2728 N 252.755 -1.56801 0.158532 0
M  V30 2729 C 253.685 -2.20347 -0.772609 0
M  V30 2730 C 254.666 -1.15518 -1.24859 0
M  V30 2731 O 255.851 -1.43902 -1.30406 0
M  V30 2732 C 252.981 -2.83417 -2.00729 0
M  V30 2733 C 251.935 -3.94174 -1.66765 0
M  V30 2734 C 251.261 -4.44233 -2.97592 0
M  V30 2735 C 252.561 -5.14392 -0.905447 0
M  V30 2736 H 254.255 -2.98413 -0.242959 0
M  V30 2737 H 251.801 -1.43537 -0.115419 0
M  V30 2738 H 253.754 -3.26543 -2.6636 0
M  V30 2739 H 252.478 -2.02701 -2.56086 0
M  V30 2740 H 251.137 -3.51684 -1.03508 0
M  V30 2741 H 250.785 -3.60325 -3.50963 0
M  V30 2742 H 250.485 -5.18945 -2.75626 0
M  V30 2743 H 252.009 -4.90037 -3.64274 0
M  V30 2744 H 253.423 -5.5429 -1.46408 0
M  V30 2745 H 251.82 -5.9494 -0.7853 0
M  V30 2746 H 252.89 -4.84795 0.100668 0
M  V30 2747 N 254.233 0.115231 -1.57178 0
M  V30 2748 C 255.48 0.822351 -1.8505 0
M  V30 2749 C 255.808 1.79701 -0.744168 0
M  V30 2750 O 255.063 1.93909 0.26414 0
M  V30 2751 C 255.362 1.60324 -3.19423 0
M  V30 2752 C 255.028 0.772536 -4.44233 0
M  V30 2753 C 253.69 0.543468 -4.78121 0
M  V30 2754 C 256.042 0.193746 -5.2084 0
M  V30 2755 C 253.37 -0.274583 -5.86057 0
M  V30 2756 C 255.722 -0.611517 -6.29637 0
M  V30 2757 C 254.386 -0.850867 -6.62055 0
M  V30 2758 H 253.656 0.30092 -0.677147 0
M  V30 2759 H 256.303 0.0845802 -1.91313 0
M  V30 2760 H 254.608 2.41203 -3.08753 0
M  V30 2761 H 256.305 2.1544 -3.38211 0
M  V30 2762 H 252.895 0.96117 -4.17683 0
M  V30 2763 H 257.079 0.357926 -4.95008 0
M  V30 2764 H 252.335 -0.469206 -6.09597 0
M  V30 2765 H 256.509 -1.06697 -6.88178 0
M  V30 2766 H 254.136 -1.48657 -7.45523 0
M  V30 2767 N 255.711 1.52812 0.385517 0
M  V30 2768 C 256.957 1.68275 1.13188 0
M  V30 2769 C 257.29 0.423179 1.89533 0
M  V30 2770 O 256.565 -0.579113 1.85679 0
M  V30 2771 C 256.848 2.92001 2.1073 0
M  V30 2772 C 256.701 4.28067 1.38125 0
M  V30 2773 C 258.02 3.11283 3.11113 0
M  V30 2774 H 255.139 0.612352 0.410115 0
M  V30 2775 H 257.781 1.85415 0.414869 0
M  V30 2776 H 255.931 2.77519 2.71874 0
M  V30 2777 H 257.603 4.54324 0.799187 0
M  V30 2778 H 255.846 4.28388 0.683092 0
M  V30 2779 H 256.517 5.10733 2.09417 0
M  V30 2780 H 258.993 3.2482 2.6006 0
M  V30 2781 H 257.869 3.99325 3.76605 0
M  V30 2782 H 258.13 2.25656 3.80173 0
M  V30 2783 N 257.189 -0.644168 1.43834 0
M  V30 2784 C 258.414 -1.43642 1.49605 0
M  V30 2785 C 258.839 -1.8773 0.117913 0
M  V30 2786 O 258.197 -1.57938 -0.890239 0
M  V30 2787 C 258.245 -2.6416 2.45463 0
M  V30 2788 O 257.349 -3.63538 1.94714 0
M  V30 2789 H 256.69 -0.430329 0.50568 0
M  V30 2790 H 259.22 -0.787448 1.8884 0
M  V30 2791 H 259.23 -3.11864 2.63068 0
M  V30 2792 H 257.905 -2.31414 3.45572 0
M  V30 2793 H 256.482 -3.2273 1.86814 0
M  V30 2794 N 258.668 -1.30515 -0.883378 0
M  V30 2795 C 259.893 -1.22487 -1.67367 0
M  V30 2796 C 260.318 0.208767 -1.86938 0
M  V30 2797 O 259.676 1.15015 -1.40148 0
M  V30 2798 C 259.724 -1.96041 -3.02655 0
M  V30 2799 O 258.828 -1.28859 -3.91751 0
M  V30 2800 H 258.169 -0.423573 -0.511353 0
M  V30 2801 H 260.699 -1.72362 -1.10239 0
M  V30 2802 H 260.709 -2.05124 -3.52687 0
M  V30 2803 H 259.384 -3.00307 -2.8773 0
M  V30 2804 H 257.961 -1.28141 -3.50192 0
M  V30 2805 N 260.146 1.09593 -1.13257 0
M  V30 2806 C 261.094 2.18271 -0.803783 0
M  V30 2807 C 262.088 1.68054 0.213148 0
M  V30 2808 O 263.294 1.79862 0.0704699 0
M  V30 2809 H 259.669 0.711949 -0.242143 0
M  V30 2810 H 261.64 2.43235 -1.72856 0
M  V30 2811 C 260.389 3.46536 -0.28424 0
M  V30 2812 H 259.712 3.85545 -1.05807 0
M  V30 2813 H 261.152 4.23899 -0.0925945 0
M  V30 2814 C 259.611 3.22036 0.989684 0
M  V30 2815 O 260.141 3.44509 2.06584 0
M  V30 2816 N 258.347 2.7565 0.920086 0
M  V30 2817 H 257.894 2.57562 0.0442019 0
M  V30 2818 H 257.852 2.59635 1.77306 0
M  V30 2819 N 261.624 0.925811 1.2754 0
M  V30 2820 C 262.587 0.428129 2.25166 0
M  V30 2821 C 263.587 -0.452261 1.54309 0
M  V30 2822 O 264.777 -0.253608 1.72344 0
M  V30 2823 C 261.909 -0.384749 3.38722 0
M  V30 2824 H 263.102 1.29066 2.70706 0
M  V30 2825 H 260.655 0.706323 1.3943 0
M  V30 2826 H 261.39 -1.26618 2.98561 0
M  V30 2827 H 261.175 0.246454 3.91325 0
M  V30 2828 H 262.665 -0.723389 4.11287 0
M  V30 2829 N 263.102 -1.41638 0.69111 0
M  V30 2830 C 264.348 -2.02104 0.229258 0
M  V30 2831 C 264.703 -1.53741 -1.15678 0
M  V30 2832 O 263.996 -0.736849 -1.76865 0
M  V30 2833 C 264.19 -3.56714 0.221277 0
M  V30 2834 C 264.019 -4.20083 1.605 0
M  V30 2835 C 262.789 -4.54566 2.20676 0
M  V30 2836 C 264.987 -4.46587 2.55078 0
M  V30 2837 N 262.969 -5.03199 3.5166 0
M  V30 2838 C 264.34 -4.96946 3.70735 0
M  V30 2839 C 266.395 -4.28593 2.53401 0
M  V30 2840 C 265.098 -5.31203 4.8499 0
M  V30 2841 C 267.124 -4.63936 3.66765 0
M  V30 2842 C 266.486 -5.14463 4.81152 0
M  V30 2843 H 262.585 -0.771256 0.12918 0
M  V30 2844 H 265.169 -1.72251 0.907626 0
M  V30 2845 H 263.34 -3.86051 -0.426562 0
M  V30 2846 H 265.072 -4.03896 -0.254983 0
M  V30 2847 H 261.827 -4.4087 1.73005 0
M  V30 2848 H 262.251 -5.31926 4.18789 0
M  V30 2849 H 266.893 -3.88771 1.66184 0
M  V30 2850 H 264.611 -5.69951 5.72871 0
M  V30 2851 H 268.197 -4.51677 3.66714 0
M  V30 2852 H 267.077 -5.41299 5.67419 0
M  V30 2853 N 264.58 -0.43555 -1.51462 0
M  V30 2854 C 265.857 0.191364 -1.94662 0
M  V30 2855 C 266.237 1.60254 -1.37411 0
M  V30 2856 O 265.585 2.2152 -0.560458 0
M  V30 2857 C 265.795 0.17091 -3.48581 0
M  V30 2858 C 267.143 0.377357 -4.2292 0
M  V30 2859 O 268.167 0.249104 -3.55328 0
M  V30 2860 O 267.026 0.63247 -5.42828 0
M  V30 2861 H 264.12 0.130932 -0.816569 0
M  V30 2862 H 266.666 -0.4934 -1.62369 0
M  V30 2863 H 265.438 -0.815738 -3.82703 0
M  V30 2864 H 265.061 0.898659 -3.87311 0
M  V30 2865 N 266.058 1.56714 -0.166846 0
M  V30 2866 C 267.021 2.16539 0.751232 0
M  V30 2867 C 268.021 1.11228 1.16125 0
M  V30 2868 O 269.211 1.36765 1.07894 0
M  V30 2869 C 266.343 2.74462 2.02196 0
M  V30 2870 H 267.536 2.99013 0.230499 0
M  V30 2871 H 265.089 1.56081 0.0826982 0
M  V30 2872 H 265.824 1.95709 2.58589 0
M  V30 2873 H 265.609 3.51527 1.73698 0
M  V30 2874 H 267.099 3.20489 2.67725 0
M  V30 2875 N 267.536 -0.106894 1.57237 0
M  V30 2876 C 268.764 -0.826389 1.8968 0
M  V30 2877 C 269.179 -1.72856 0.759353 0
M  V30 2878 O 268.536 -1.80503 -0.269263 0
M  V30 2879 C 268.587 -1.64967 3.21665 0
M  V30 2880 O 268.308 -0.783804 4.31031 0
M  V30 2881 C 269.809 -2.47326 3.67892 0
M  V30 2882 H 267.029 -0.236927 0.627779 0
M  V30 2883 H 269.573 -0.0876593 2.04312 0
M  V30 2884 H 267.728 -2.34103 3.08666 0
M  V30 2885 H 268.142 -1.35284 5.06753 0
M  V30 2886 H 269.616 -3.00604 4.6297 0
M  V30 2887 H 270.093 -3.25247 2.95146 0
M  V30 2888 H 270.699 -1.83411 3.83719 0
M  V30 2889 N 269.014 -1.53014 -0.377408 0
M  V30 2890 C 270.262 -1.6829 -1.11906 0
M  V30 2891 C 270.583 -0.431206 -1.90173 0
M  V30 2892 O 269.853 0.554595 -1.87886 0
M  V30 2893 H 268.433 -0.620371 -0.416112 0
M  V30 2894 H 271.095 -1.90167 -0.426893 0
M  V30 2895 H 270.191 -2.53862 -1.8155 0
M  V30 2896 N 270.492 0.636531 -1.44174 0
M  V30 2897 C 271.455 1.73063 -1.50273 0
M  V30 2898 C 272.455 1.56113 -0.385397 0
M  V30 2899 O 273.645 1.61707 -0.64781 0
M  V30 2900 C 270.777 3.12096 -1.37145 0
M  V30 2901 H 271.97 1.69031 -2.47727 0
M  V30 2902 H 269.523 0.849706 -1.31186 0
M  V30 2903 H 270.258 3.21728 -0.407636 0
M  V30 2904 H 270.043 3.25805 -2.18159 0
M  V30 2905 H 271.533 3.91846 -1.44382 0
M  V30 2906 N 271.97 1.30982 0.876444 0
M  V30 2907 C 273.386 1.09498 1.16113 0
M  V30 2908 C 273.586 -0.13875 2.01022 0
M  V30 2909 O 272.642 -0.829935 2.38471 0
M  V30 2910 C 273.955 2.36308 1.85954 0
M  V30 2911 C 275.503 2.41856 1.98683 0
M  V30 2912 C 275.978 3.6853 2.71937 0
M  V30 2913 N 277.469 3.69387 2.79477 0
M  V30 2914 C 278.204 4.64096 3.36753 0
M  V30 2915 N 277.7 5.69155 3.95012 0
M  V30 2916 N 279.493 4.51626 3.3465 0
M  V30 2917 H 271.644 2.10118 0.310494 0
M  V30 2918 H 273.907 0.926634 0.200131 0
M  V30 2919 H 273.613 3.26388 1.31011 0
M  V30 2920 H 273.487 2.4561 2.86278 0
M  V30 2921 H 275.874 1.52249 2.52793 0
M  V30 2922 H 275.955 2.36523 0.9742 0
M  V30 2923 H 275.599 4.58499 2.18496 0
M  V30 2924 H 275.529 3.71127 3.73593 0
M  V30 2925 H 278.02 2.93438 2.38123 0
M  V30 2926 H 278.333 6.3751 4.36808 0
M  V30 2927 H 276.678 5.72937 3.93406 0
M  V30 2928 H 279.869 3.68728 2.8837 0
M  V30 2929 H 280.042 5.25614 3.7899 0
M  V30 2930 N 273.449 -1.08991 1.13837 0
M  V30 2931 C 274.679 -1.84743 0.924859 0
M  V30 2932 C 275.087 -1.81629 -0.529874 0
M  V30 2933 O 274.43 -1.21397 -1.37872 0
M  V30 2934 C 274.492 -3.33568 1.34061 0
M  V30 2935 C 274.156 -3.60425 2.80968 0
M  V30 2936 C 275.153 -3.55771 3.79108 0
M  V30 2937 C 272.838 -3.88627 3.18236 0
M  V30 2938 C 274.832 -3.78939 5.12527 0
M  V30 2939 C 272.519 -4.11449 4.51833 0
M  V30 2940 C 273.517 -4.06598 5.48787 0
M  V30 2941 O 273.205 -4.28826 6.79973 0
M  V30 2942 H 272.937 -0.590258 0.329502 0
M  V30 2943 H 275.491 -1.38598 1.51591 0
M  V30 2944 H 273.721 -3.80442 0.692853 0
M  V30 2945 H 275.41 -3.90743 1.09886 0
M  V30 2946 H 276.176 -3.34005 3.51661 0
M  V30 2947 H 272.055 -3.91526 2.43369 0
M  V30 2948 H 275.599 -3.75068 5.88192 0
M  V30 2949 H 271.496 -4.32698 4.79002 0
M  V30 2950 H 272.264 -4.46264 6.86142 0
M  V30 2951 N 274.927 -0.932562 -1.27047 0
M  V30 2952 C 276.174 -0.575559 -1.94148 0
M  V30 2953 C 276.502 0.883984 -1.73251 0
M  V30 2954 O 275.757 1.64655 -1.0577 0
M  V30 2955 C 276.056 -0.853713 -3.47054 0
M  V30 2956 C 275.722 -2.29577 -3.88079 0
M  V30 2957 C 274.384 -2.68999 -3.9899 0
M  V30 2958 C 276.736 -3.23331 -4.08787 0
M  V30 2959 C 274.064 -4.01289 -4.28 0
M  V30 2960 C 276.416 -4.55207 -4.39282 0
M  V30 2961 C 275.08 -4.94457 -4.48407 0
M  V30 2962 H 274.35 -0.210612 -0.710439 0
M  V30 2963 H 276.997 -1.17744 -1.51025 0
M  V30 2964 H 275.302 -0.169204 -3.91434 0
M  V30 2965 H 276.999 -0.55639 -3.97121 0
M  V30 2966 H 273.589 -1.97994 -3.80127 0
M  V30 2967 H 277.773 -2.94074 -3.99793 0
M  V30 2968 H 273.029 -4.31374 -4.33275 0
M  V30 2969 H 277.203 -5.27852 -4.54252 0
M  V30 2970 H 274.83 -5.96994 -4.7064 0
M  V30 2971 N 276.405 1.4127 -0.698611 0
M  V30 2972 C 277.653 2.00782 -0.230409 0
M  V30 2973 C 277.974 1.5562 1.17505 0
M  V30 2974 O 277.244 0.78815 1.79346 0
M  V30 2975 H 275.824 0.742464 -0.0821944 0
M  V30 2976 H 278.486 1.72852 -0.90045 0
M  V30 2977 H 277.582 3.11095 -0.25021 0
M  V30 2978 N 277.883 0.443576 1.51229 0
M  V30 2979 C 279.13 -0.120796 2.02139 0
M  V30 2980 C 279.458 -1.42166 1.32736 0
M  V30 2981 O 278.713 -1.90849 0.43301 0
M  V30 2982 C 279.012 -0.380579 3.55368 0
M  V30 2983 C 278.678 0.83523 4.43097 0
M  V30 2984 C 277.34 1.16864 4.66794 0
M  V30 2985 C 279.692 1.64601 4.94526 0
M  V30 2986 C 277.02 2.31339 5.39165 0
M  V30 2987 C 279.372 2.78181 5.68153 0
M  V30 2988 C 278.036 3.11969 5.90112 0
M  V30 2989 H 277.306 -0.0442023 0.73968 0
M  V30 2990 H 279.953 0.592046 1.82118 0
M  V30 2991 H 278.258 -1.17538 3.73754 0
M  V30 2992 H 279.955 -0.830777 3.923 0
M  V30 2993 H 276.545 0.565437 4.24854 0
M  V30 2994 H 280.729 1.40163 4.76097 0
M  V30 2995 H 275.985 2.57823 5.5438 0
M  V30 2996 H 280.159 3.41371 6.06992 0
M  V30 2997 H 277.786 4.00784 6.45969 0
M  V30 2998 N 279.361 -1.56624 0.175154 0
M  V30 2999 C 280.772 -1.83561 -0.340916 0
M  V30 3000 C 281.123 -1.09511 -1.62794 0
M  V30 3001 O 280.248 -0.349389 -2.13561 0
M  V30 3002 C 280.843 -3.32979 -0.625313 0
M  V30 3003 C 279.402 -3.60399 -1.08581 0
M  V30 3004 C 278.549 -2.77024 -0.123722 0
M  V30 3005 H 281.5 -1.53593 0.399344 0
M  V30 3006 H 281.521 -3.50666 -1.47694 0
M  V30 3007 H 281.033 -3.86847 0.311575 0
M  V30 3008 H 279.134 -3.11945 -2.03767 0
M  V30 3009 H 279.247 -4.68711 -0.992317 0
M  V30 3010 H 277.611 -2.46993 -0.621821 0
M  V30 3011 H 278.394 -3.33674 0.807256 0
M  V30 3012 N 280.839 0.0985539 -1.57292 0
M  V30 3013 C 282.067 0.816318 -1.90115 0
M  V30 3014 C 282.482 1.72451 -0.768509 0
M  V30 3015 O 281.839 1.80643 0.259687 0
M  V30 3016 C 281.89 1.63259 -3.22535 0
M  V30 3017 O 281.611 0.760934 -4.31441 0
M  V30 3018 C 283.112 2.45372 -3.69199 0
M  V30 3019 H 280.332 0.233595 -0.629027 0
M  V30 3020 H 282.876 0.0768229 -2.04356 0
M  V30 3021 H 281.031 2.32463 -3.09903 0
M  V30 3022 H 281.445 1.32595 -5.07463 0
M  V30 3023 H 282.919 2.98144 -4.64558 0
M  V30 3024 H 283.396 3.23677 -2.96867 0
M  V30 3025 H 284.002 1.81373 -3.84687 0
M  V30 3026 N 282.317 1.53212 0.369288 0
M  V30 3027 C 283.557 1.70915 1.12105 0
M  V30 3028 C 283.921 0.449444 1.86665 0
M  V30 3029 O 285.122 0.503105 2.6405 0
M  V30 3030 C 283.393 2.9222 2.05772 0
M  V30 3031 S 284.952 3.30609 2.88519 0
M  V30 3032 H 281.77 0.601445 0.379189 0
M  V30 3033 H 284.372 1.91306 0.402794 0
M  V30 3034 H 283.076 3.82103 1.49752 0
M  V30 3035 H 282.607 2.7422 2.82076 0
M  V30 3036 H 284.622 2.82333 4.08047 0
M  V30 3037 N 283.795 -0.628877 1.44509 0
M  V30 3038 C 285.041 -1.38863 1.48623 0
M  V30 3039 C 285.396 -1.92038 0.117933 0
M  V30 3040 O 284.689 -1.70853 -0.86716 0
M  V30 3041 C 284.883 -2.56995 2.48371 0
M  V30 3042 C 284.712 -2.15385 3.94765 0
M  V30 3043 C 283.482 -2.02558 4.62924 0
M  V30 3044 C 285.68 -1.74158 4.83915 0
M  V30 3045 N 283.662 -1.54534 5.94132 0
M  V30 3046 C 285.033 -1.37396 6.04584 0
M  V30 3047 C 287.088 -1.61559 4.7096 0
M  V30 3048 C 285.791 -0.892948 7.13736 0
M  V30 3049 C 287.817 -1.14862 5.80139 0
M  V30 3050 C 287.179 -0.790516 6.9995 0
M  V30 3051 H 283.278 -0.502858 0.59888 0
M  V30 3052 H 285.862 -0.72121 1.8085 0
M  V30 3053 H 284.033 -3.21362 2.1813 0
M  V30 3054 H 285.765 -3.23801 2.42766 0
M  V30 3055 H 282.52 -2.23082 4.1777 0
M  V30 3056 H 282.944 -1.32815 6.63844 0
M  V30 3057 H 287.586 -1.87876 3.78764 0
M  V30 3058 H 285.304 -0.617291 8.05739 0
M  V30 3059 H 288.89 -1.05569 5.72142 0
M  V30 3060 H 287.77 -0.434713 7.82994 0
M  V30 3061 N 285.273 -1.31445 -0.869486 0
M  V30 3062 C 286.522 -1.20517 -1.61736 0
M  V30 3063 C 286.835 0.235341 -1.94179 0
M  V30 3064 O 288.041 0.466312 -2.67465 0
M  V30 3065 C 286.497 -2.10982 -2.91573 0
M  V30 3066 C 286.105 -3.60032 -2.66611 0
M  V30 3067 C 287.849 -2.08856 -3.69567 0
M  V30 3068 C 285.756 -4.42503 -3.92358 0
M  V30 3069 H 284.686 -0.447493 -0.606849 0
M  V30 3070 H 287.337 -1.56303 -0.96133 0
M  V30 3071 H 285.719 -1.68095 -3.58553 0
M  V30 3072 H 286.893 -4.11167 -2.08035 0
M  V30 3073 H 285.208 -3.64139 -2.0197 0
M  V30 3074 H 287.805 -2.67716 -4.62852 0
M  V30 3075 H 288.148 -1.07582 -4.02159 0
M  V30 3076 H 288.681 -2.49945 -3.09471 0
M  V30 3077 H 285.42 -5.44533 -3.64916 0
M  V30 3078 H 284.94 -3.96125 -4.50383 0
M  V30 3079 H 286.619 -4.54741 -4.60238 0
M  V30 3080 N 286.751 1.08385 -1.14413 0
M  V30 3081 C 287.699 2.17406 -0.826888 0
M  V30 3082 C 288.693 1.6827 0.195312 0
M  V30 3083 O 289.899 1.79927 0.0513892 0
M  V30 3084 H 286.274 0.70934 -0.249681 0
M  V30 3085 H 288.245 2.41388 -1.75426 0
M  V30 3086 C 286.994 3.46215 -0.320979 0
M  V30 3087 H 286.317 3.84401 -1.0989 0
M  V30 3088 H 287.757 4.23777 -0.137549 0
M  V30 3089 C 286.216 3.23067 0.955472 0
M  V30 3090 O 286.746 3.4668 2.02918 0
M  V30 3091 N 284.952 2.7661 0.890798 0
M  V30 3092 H 284.499 2.57594 0.0168815 0
M  V30 3093 H 284.457 2.61501 1.74542 0
M  V30 3094 N 288.23 0.939286 1.26551 0
M  V30 3095 C 289.646 0.641304 1.46149 0
M  V30 3096 C 289.846 -0.805964 1.84679 0
M  V30 3097 O 288.902 -1.58278 1.96734 0
M  V30 3098 C 290.215 1.6011 2.54529 0
M  V30 3099 C 291.763 1.6106 2.68382 0
M  V30 3100 C 292.238 2.55765 3.79932 0
M  V30 3101 N 293.729 2.5404 3.87322 0
M  V30 3102 C 294.464 3.24004 4.73085 0
M  V30 3103 N 293.96 4.03388 5.63249 0
M  V30 3104 N 295.753 3.12965 4.66914 0
M  V30 3105 H 287.904 1.87478 0.998285 0
M  V30 3106 H 290.167 0.805559 0.499779 0
M  V30 3107 H 289.873 2.63412 2.33039 0
M  V30 3108 H 289.747 1.35171 3.52149 0
M  V30 3109 H 292.134 0.584835 2.89247 0
M  V30 3110 H 292.215 1.90053 1.71212 0
M  V30 3111 H 291.859 3.58458 3.5982 0
M  V30 3112 H 291.789 2.24063 4.76554 0
M  V30 3113 H 294.28 1.96396 3.22858 0
M  V30 3114 H 294.593 4.5373 6.25579 0
M  V30 3115 H 292.938 4.07489 5.63008 0
M  V30 3116 H 296.129 2.50432 3.95476 0
M  V30 3117 H 296.302 3.67759 5.33533 0
M  V30 3118 N 289.708 -1.40897 0.706093 0
M  V30 3119 C 290.936 -2.05373 0.250887 0
M  V30 3120 C 291.351 -1.53172 -1.10381 0
M  V30 3121 O 290.708 -0.684305 -1.69185 0
M  V30 3122 C 290.759 -3.6088 0.211571 0
M  V30 3123 O 290.48 -4.11153 1.51276 0
M  V30 3124 C 291.981 -4.42517 -0.263346 0
M  V30 3125 H 289.201 -0.66115 0.114552 0
M  V30 3126 H 291.745 -1.80479 0.961635 0
M  V30 3127 H 289.9 -3.84777 -0.450073 0
M  V30 3128 H 290.314 -5.05279 1.40689 0
M  V30 3129 H 291.788 -5.51479 -0.239718 0
M  V30 3130 H 292.265 -4.19396 -1.30397 0
M  V30 3131 H 292.871 -4.23708 0.367677 0
M  V30 3132 N 291.186 -0.45159 -1.50991 0
M  V30 3133 C 292.434 0.109857 -2.01801 0
M  V30 3134 C 292.755 1.41958 -1.3369 0
M  V30 3135 O 292.025 1.9003 -0.475951 0
M  V30 3136 H 290.605 0.0435884 -0.745727 0
M  V30 3137 H 293.267 -0.597557 -1.85514 0
M  V30 3138 H 292.363 0.275489 -3.10882 0
M  V30 3139 N 292.664 1.56529 -0.183458 0
M  V30 3140 C 293.612 2.19873 0.758845 0
M  V30 3141 C 294.606 1.16638 1.22849 0
M  V30 3142 O 295.812 1.3481 1.19274 0
M  V30 3143 H 292.187 0.7045 0.263029 0
M  V30 3144 H 294.158 2.97724 0.200755 0
M  V30 3145 C 292.907 2.86314 1.9728 0
M  V30 3146 H 292.23 3.65487 1.62047 0
M  V30 3147 H 293.67 3.3409 2.61075 0
M  V30 3148 C 292.129 1.86729 2.80418 0
M  V30 3149 O 292.659 1.36031 3.77966 0
M  V30 3150 N 290.865 1.55216 2.45675 0
M  V30 3151 H 290.412 1.96636 1.66409 0
M  V30 3152 H 290.37 0.888388 3.01588 0
M  V30 3153 N 294.142 -0.090211 1.57342 0
M  V30 3154 C 295.388 -0.793982 1.86611 0
M  V30 3155 C 295.721 -1.78142 0.773252 0
M  V30 3156 O 294.996 -1.93271 -0.218304 0
M  V30 3157 C 295.279 -1.51839 3.26523 0
M  V30 3158 C 295.132 -0.548609 4.46442 0
M  V30 3159 C 296.451 -2.46779 3.64401 0
M  V30 3160 H 293.57 -0.287186 0.678744 0
M  V30 3161 H 296.212 -0.0575076 1.89913 0
M  V30 3162 H 294.362 -2.14617 3.23839 0
M  V30 3163 H 296.034 0.0725513 4.61243 0
M  V30 3164 H 294.277 0.137614 4.33582 0
M  V30 3165 H 294.948 -1.09271 5.41076 0
M  V30 3166 H 297.424 -1.94089 3.68061 0
M  V30 3167 H 296.3 -2.94479 4.63221 0
M  V30 3168 H 296.561 -3.30758 2.93346 0
M  V30 3169 N 295.62 -1.53406 -0.361157 0
M  V30 3170 C 296.867 -1.69802 -1.10333 0
M  V30 3171 C 297.195 -0.452087 -1.89173 0
M  V30 3172 O 296.45 0.566017 -1.87336 0
M  V30 3173 C 296.749 -2.90211 -2.08596 0
M  V30 3174 C 296.415 -4.26539 -1.46203 0
M  V30 3175 C 295.077 -4.6361 -1.28915 0
M  V30 3176 C 297.429 -5.113 -1.01101 0
M  V30 3177 C 294.757 -5.83075 -0.651157 0
M  V30 3178 C 297.109 -6.31415 -0.387007 0
M  V30 3179 C 295.773 -6.67195 -0.201657 0
M  V30 3180 H 295.043 -0.621351 -0.403737 0
M  V30 3181 H 297.69 -1.87598 -0.384609 0
M  V30 3182 H 295.995 -2.66946 -2.86788 0
M  V30 3183 H 297.692 -3.00091 -2.65982 0
M  V30 3184 H 294.282 -3.97352 -1.60653 0
M  V30 3185 H 298.466 -4.83206 -1.13249 0
M  V30 3186 H 293.722 -6.09385 -0.496006 0
M  V30 3187 H 297.896 -6.96394 -0.0293563 0
M  V30 3188 H 295.523 -7.59628 0.294766 0
M  V30 3189 N 297.098 0.621204 -1.44841 0
M  V30 3190 C 298.008 1.7612 -1.5498 0
M  V30 3191 C 299.024 1.68477 -0.434927 0
M  V30 3192 O 300.2 1.89076 -0.693693 0
M  V30 3193 C 297.265 3.1254 -1.50065 0
M  V30 3194 C 296.326 3.31741 -2.72482 0
M  V30 3195 C 295.559 4.61653 -2.67792 0
M  V30 3196 O 295.782 5.431 -1.74352 0
M  V30 3197 O 294.716 4.83271 -3.58794 0
M  V30 3198 H 298.542 1.70518 -2.51311 0
M  V30 3199 H 296.127 0.783643 -1.27198 0
M  V30 3200 H 298.009 3.93844 -1.49882 0
M  V30 3201 H 296.684 3.18663 -0.568806 0
M  V30 3202 H 295.591 2.50077 -2.7823 0
M  V30 3203 H 296.924 3.30486 -3.64746 0
M  V30 3204 N 298.576 1.31904 0.862503 0
M  V30 3205 C 299.486 1.22161 2.00285 0
M  V30 3206 C 300.502 0.136785 1.73462 0
M  V30 3207 O 301.678 0.355994 1.98229 0
M  V30 3208 C 298.743 0.937093 3.33796 0
M  V30 3209 C 297.804 2.10957 3.73893 0
M  V30 3210 C 297.037 1.83853 5.01033 0
M  V30 3211 O 297.26 0.777274 5.65079 0
M  V30 3212 O 296.194 2.69741 5.38074 0
M  V30 3213 H 300.02 2.18008 2.11439 0
M  V30 3214 H 297.605 1.11716 0.991957 0
M  V30 3215 H 299.487 0.794583 4.13841 0
M  V30 3216 H 298.162 0.00871894 3.23699 0
M  V30 3217 H 297.069 2.30752 2.94456 0
M  V30 3218 H 298.402 3.02046 3.88625 0
M  V30 3219 N 300.054 -1.07777 1.14986 0
M  V30 3220 C 300.987 -2.14228 0.786243 0
M  V30 3221 C 301.965 -1.60888 -0.235347 0
M  V30 3222 O 303.149 -1.88099 -0.122909 0
M  V30 3223 C 300.276 -3.38281 0.168433 0
M  V30 3224 C 299.322 -4.10387 1.16123 0
M  V30 3225 S 300.155 -4.62371 2.70135 0
M  V30 3226 C 301.311 -5.89704 2.09762 0
M  V30 3227 H 301.544 -2.44741 1.68787 0
M  V30 3228 H 299.077 -1.19984 0.971756 0
M  V30 3229 H 301.035 -4.10098 -0.181588 0
M  V30 3230 H 299.696 -3.05953 -0.710725 0
M  V30 3231 H 298.889 -4.99431 0.677086 0
M  V30 3232 H 298.491 -3.44513 1.45556 0
M  V30 3233 H 300.783 -6.61648 1.45701 0
M  V30 3234 H 301.726 -6.42824 2.96955 0
M  V30 3235 H 302.134 -5.4302 1.54239 0
M  V30 3236 N 301.532 -0.945985 -1.26051 0
M  V30 3237 C 302.78 -0.594941 -1.93145 0
M  V30 3238 C 303.101 0.86953 -1.7454 0
M  V30 3239 O 302.371 1.61838 -1.10387 0
M  V30 3240 H 300.951 -0.217044 -0.714773 0
M  V30 3241 H 303.613 -1.20235 -1.53393 0
M  V30 3242 H 302.709 -0.816835 -3.01221 0
M  V30 3243 N 303.011 1.40521 -0.713556 0
M  V30 3244 C 303.943 2.29191 -0.0203126 0
M  V30 3245 C 304.956 1.45723 0.725864 0
M  V30 3246 O 306.145 1.69033 0.573581 0
M  V30 3247 C 303.245 3.2395 0.995486 0
M  V30 3248 C 302.418 4.36262 0.315256 0
M  V30 3249 C 301.477 5.11474 1.23616 0
M  V30 3250 O 300.503 5.64606 0.721719 0
M  V30 3251 N 301.705 5.20638 2.56743 0
M  V30 3252 H 304.47 2.89327 -0.781652 0
M  V30 3253 H 302.031 1.51869 -0.561022 0
M  V30 3254 H 304.023 3.71137 1.61368 0
M  V30 3255 H 302.593 2.64995 1.6582 0
M  V30 3256 H 301.813 3.91228 -0.483106 0
M  V30 3257 H 303.101 5.08558 -0.157004 0
M  V30 3258 H 302.499 4.7895 3.01037 0
M  V30 3259 H 301.056 5.71339 3.13712 0
M  V30 3260 N 304.489 0.459591 1.5075 0
M  V30 3261 C 305.717 -0.0973749 2.06671 0
M  V30 3262 C 306.132 -1.34524 1.32472 0
M  V30 3263 O 305.489 -1.7827 0.390634 0
M  V30 3264 C 305.54 -0.39714 3.59312 0
M  V30 3265 O 305.261 0.801214 4.30711 0
M  V30 3266 C 306.762 -1.00234 4.31819 0
M  V30 3267 H 303.982 0.00195854 0.670997 0
M  V30 3268 H 306.526 0.645072 1.94059 0
M  V30 3269 H 304.681 -1.08951 3.71764 0
M  V30 3270 H 305.095 0.538857 5.21725 0
M  V30 3271 H 306.569 -1.16193 5.39632 0
M  V30 3272 H 307.046 -1.98939 3.91561 0
M  V30 3273 H 307.652 -0.348699 4.23868 0
M  V30 3274 N 305.967 -1.56429 0.191757 0
M  V30 3275 C 307.378 -1.83912 -0.321428 0
M  V30 3276 C 307.729 -1.11231 -1.61623 0
M  V30 3277 O 306.854 -0.37202 -2.13178 0
M  V30 3278 C 307.449 -3.33624 -0.589961 0
M  V30 3279 C 306.008 -3.6153 -1.04753 0
M  V30 3280 C 305.155 -2.7714 -0.0943327 0
M  V30 3281 H 308.106 -1.53161 0.415612 0
M  V30 3282 H 308.127 -3.52213 -1.43966 0
M  V30 3283 H 307.639 -3.86495 0.352588 0
M  V30 3284 H 305.74 -3.14089 -2.00447 0
M  V30 3285 H 305.853 -4.69737 -0.942549 0
M  V30 3286 H 304.217 -2.47638 -0.595589 0
M  V30 3287 H 305 -3.32799 0.842601 0
M  V30 3288 N 307.445 0.0818655 -1.57387 0
M  V30 3289 C 308.722 0.815343 -1.77796 0
M  V30 3290 C 309.102 1.96289 -0.77679 0
M  V30 3291 O 308.45 2.27691 0.192106 0
M  V30 3292 C 308.66 1.29765 -3.23978 0
M  V30 3293 C 310.008 1.7351 -3.8753 0
M  V30 3294 O 311.032 1.39356 -3.27808 0
M  V30 3295 O 309.891 2.36708 -4.92576 0
M  V30 3296 H 306.985 0.389914 -0.729312 0
M  V30 3297 H 309.531 0.0627213 -1.69584 0
M  V30 3298 H 308.303 0.47608 -3.88393 0
M  V30 3299 H 307.926 2.11189 -3.36875 0
M  V30 3300 N 308.923 1.53595 0.353017 0
M  V30 3301 C 310.169 1.71581 1.09232 0
M  V30 3302 C 310.524 0.468328 1.86613 0
M  V30 3303 O 309.817 -0.538911 1.83865 0
M  V30 3304 C 310.011 2.91313 2.07054 0
M  V30 3305 C 309.84 4.27585 1.39287 0
M  V30 3306 C 308.61 4.92233 1.1417 0
M  V30 3307 C 310.808 5.07656 0.824005 0
M  V30 3308 N 308.79 6.124 0.428841 0
M  V30 3309 C 310.161 6.19531 0.241195 0
M  V30 3310 C 312.216 4.92609 0.723922 0
M  V30 3311 C 310.919 7.18002 -0.431952 0
M  V30 3312 C 312.945 5.91365 0.0645334 0
M  V30 3313 C 312.307 7.02571 -0.507347 0
M  V30 3314 H 308.406 0.680987 0.384422 0
M  V30 3315 H 310.99 1.91013 0.377096 0
M  V30 3316 H 309.161 2.73398 2.75877 0
M  V30 3317 H 310.893 2.98062 2.73753 0
M  V30 3318 H 307.648 4.51612 1.42631 0
M  V30 3319 H 308.072 6.76944 0.0874131 0
M  V30 3320 H 312.714 4.06808 1.15181 0
M  V30 3321 H 310.432 8.03384 -0.871758 0
M  V30 3322 H 314.018 5.81799 -0.0121469 0
M  V30 3323 H 312.898 7.77675 -1.0095 0
M  V30 3324 N 310.401 -0.613514 1.45168 0
M  V30 3325 C 311.311 -1.75296 1.55912 0
M  V30 3326 C 312.327 -1.68244 0.443856 0
M  V30 3327 O 313.503 -1.88706 0.70371 0
M  V30 3328 C 310.568 -3.1174 1.5172 0
M  V30 3329 C 309.629 -3.30291 2.74238 0
M  V30 3330 C 308.862 -4.60226 2.70236 0
M  V30 3331 O 309.085 -5.42168 1.77229 0
M  V30 3332 O 308.019 -4.81361 3.61352 0
M  V30 3333 H 311.845 -1.69183 2.52212 0
M  V30 3334 H 309.43 -0.776886 1.27612 0
M  V30 3335 H 311.312 -3.93044 1.51968 0
M  V30 3336 H 309.987 -3.18357 0.585697 0
M  V30 3337 H 308.894 -2.48598 2.79553 0
M  V30 3338 H 310.227 -3.28547 3.66494 0
M  V30 3339 N 311.879 -1.3236 -0.855495 0
M  V30 3340 C 313.125 -1.23054 -1.612 0
M  V30 3341 C 313.458 0.207404 -1.93089 0
M  V30 3342 O 312.733 1.14432 -1.57275 0
M  V30 3343 C 313.016 -2.08937 -2.93287 0
M  V30 3344 C 312.869 -3.61105 -2.68185 0
M  V30 3345 C 314.188 -1.94986 -3.94549 0
M  V30 3346 H 311.307 -0.448364 -0.584926 0
M  V30 3347 H 313.949 -1.62297 -0.987917 0
M  V30 3348 H 312.099 -1.75599 -3.46551 0
M  V30 3349 H 313.771 -4.04652 -2.21483 0
M  V30 3350 H 312.014 -3.83813 -2.02164 0
M  V30 3351 H 312.685 -4.16522 -3.62234 0
M  V30 3352 H 315.161 -2.24189 -3.5054 0
M  V30 3353 H 314.037 -2.57356 -4.84829 0
M  V30 3354 H 314.298 -0.917263 -4.3248 0
M  V30 3355 N 313.357 1.07166 -1.15556 0
M  V30 3356 C 314.585 1.83514 -0.955519 0
M  V30 3357 C 315 1.82163 0.49621 0
M  V30 3358 O 314.357 1.23441 1.34419 0
M  V30 3359 C 314.408 3.30515 -1.46432 0
M  V30 3360 O 314.129 3.31937 -2.85918 0
M  V30 3361 C 315.63 4.23625 -1.30603 0
M  V30 3362 H 312.85 0.578926 -0.339244 0
M  V30 3363 H 315.394 1.35265 -1.53374 0
M  V30 3364 H 313.549 3.76106 -0.928584 0
M  V30 3365 H 313.963 4.23794 -3.09029 0
M  V30 3366 H 315.437 5.24831 -1.71047 0
M  V30 3367 H 315.914 4.38485 -0.250441 0
M  V30 3368 H 316.52 3.83871 -1.83094 0
M  V30 3369 N 314.835 0.952656 1.25548 0
M  V30 3370 C 316.06 0.623025 1.97821 0
M  V30 3371 C 316.485 -0.7976 1.70352 0
M  V30 3372 O 315.843 -1.53905 0.958283 0
M  V30 3373 C 315.891 0.885532 3.49558 0
M  V30 3374 O 314.995 -0.0366641 4.12384 0
M  V30 3375 H 314.336 0.237082 0.620232 0
M  V30 3376 H 316.866 1.27871 1.59719 0
M  V30 3377 H 316.876 0.811009 3.99858 0
M  V30 3378 H 315.551 1.92094 3.6888 0
M  V30 3379 H 314.128 0.0898954 3.72792 0
M  V30 3380 N 316.313 -1.40141 0.720998 0
M  V30 3381 C 317.243 -2.33339 0.0867621 0
M  V30 3382 C 318.224 -1.53178 -0.739622 0
M  V30 3383 O 319.409 -1.81625 -0.687449 0
M  V30 3384 C 316.539 -3.37194 -0.831728 0
M  V30 3385 C 315.493 -4.27857 -0.110558 0
M  V30 3386 C 314.819 -5.22294 -1.14513 0
M  V30 3387 C 316.119 -5.11872 1.0385 0
M  V30 3388 H 317.813 -2.86626 0.865219 0
M  V30 3389 H 315.359 -1.37814 0.417516 0
M  V30 3390 H 317.312 -4.01335 -1.28485 0
M  V30 3391 H 316.036 -2.82314 -1.64214 0
M  V30 3392 H 314.695 -3.65176 0.322797 0
M  V30 3393 H 314.343 -4.63717 -1.94874 0
M  V30 3394 H 314.043 -5.83797 -0.667446 0
M  V30 3395 H 315.567 -5.89312 -1.59824 0
M  V30 3396 H 316.981 -5.69436 0.664482 0
M  V30 3397 H 315.378 -5.82445 1.4449 0
M  V30 3398 H 316.448 -4.4753 1.86668 0
M  V30 3399 N 317.792 -0.46758 -1.50504 0
M  V30 3400 C 319.208 -0.121533 -1.59137 0
M  V30 3401 C 319.408 1.3717 -1.47603 0
M  V30 3402 O 318.464 2.14464 -1.33272 0
M  V30 3403 C 319.777 -0.6686 -2.93173 0
M  V30 3404 C 321.325 -0.631716 -3.06559 0
M  V30 3405 C 321.8 -1.15627 -4.43164 0
M  V30 3406 N 323.291 -1.11553 -4.49567 0
M  V30 3407 C 324.026 -1.49195 -5.5365 0
M  V30 3408 N 323.522 -1.94269 -6.65005 0
M  V30 3409 N 325.315 -1.4082 -5.44175 0
M  V30 3410 H 317.466 -1.4388 -1.56245 0
M  V30 3411 H 319.729 -0.594784 -0.738198 0
M  V30 3412 H 319.435 -1.71453 -3.07078 0
M  V30 3413 H 319.309 -0.11021 -3.77039 0
M  V30 3414 H 321.696 0.405297 -2.92304 0
M  V30 3415 H 321.777 -1.22687 -2.24458 0
M  V30 3416 H 321.421 -2.1919 -4.58168 0
M  V30 3417 H 321.351 -0.537365 -5.23851 0
M  V30 3418 H 323.842 -0.784895 -3.69659 0
M  V30 3419 H 324.155 -2.21148 -7.40482 0
M  V30 3420 H 322.5 -1.98219 -6.66134 0
M  V30 3421 H 325.691 -1.0545 -4.56068 0
M  V30 3422 H 325.864 -1.70481 -6.25172 0
M  V30 3423 N 319.27 1.56325 -0.20005 0
M  V30 3424 C 320.233 2.18084 0.705132 0
M  V30 3425 C 321.233 1.13666 1.1374 0
M  V30 3426 O 322.423 1.39023 1.04968 0
M  V30 3427 C 319.555 2.78689 1.96329 0
M  V30 3428 H 320.748 2.99435 0.167023 0
M  V30 3429 H 318.301 1.56221 0.0495725 0
M  V30 3430 H 319.036 2.0115 2.5438 0
M  V30 3431 H 318.821 3.55133 1.66202 0
M  V30 3432 H 320.311 3.26096 2.60866 0
M  V30 3433 N 320.748 -0.0735177 1.57428 0
M  V30 3434 C 321.994 -0.774145 1.87443 0
M  V30 3435 C 322.327 -1.77311 0.792103 0
M  V30 3436 O 321.602 -1.93492 -0.197793 0
M  V30 3437 C 321.885 -1.48367 3.28115 0
M  V30 3438 C 321.738 -0.501227 4.46999 0
M  V30 3439 C 323.057 -2.429 3.66998 0
M  V30 3440 H 320.176 -0.279971 0.681752 0
M  V30 3441 H 322.818 -0.0373616 1.89963 0
M  V30 3442 H 320.968 -2.11171 3.26097 0
M  V30 3443 H 322.64 0.121468 4.6114 0
M  V30 3444 H 320.883 0.183593 4.33411 0
M  V30 3445 H 321.554 -1.03526 5.42205 0
M  V30 3446 H 324.03 -1.90175 3.70098 0
M  V30 3447 H 322.906 -2.89549 4.66318 0
M  V30 3448 H 323.167 -3.27628 2.96837 0
M  V30 3449 N 322.226 -1.5378 -0.344866 0
M  V30 3450 C 323.472 -1.71216 -1.08687 0
M  V30 3451 C 323.805 -0.473281 -1.88345 0
M  V30 3452 O 323.08 0.52968 -1.87149 0
M  V30 3453 C 323.363 -2.97486 -2.02914 0
M  V30 3454 C 323.216 -4.31579 -1.26727 0
M  V30 3455 C 324.535 -3.19422 -3.0275 0
M  V30 3456 H 321.654 -0.62301 -0.393735 0
M  V30 3457 H 324.296 -1.8645 -0.365563 0
M  V30 3458 H 322.446 -2.84629 -2.64421 0
M  V30 3459 H 324.118 -4.56284 -0.67845 0
M  V30 3460 H 322.361 -4.30049 -0.569273 0
M  V30 3461 H 323.032 -5.16106 -1.95803 0
M  V30 3462 H 325.508 -3.316 -2.51357 0
M  V30 3463 H 324.384 -4.09169 -3.65885 0
M  V30 3464 H 324.645 -2.35656 -3.74057 0
M  V30 3465 N 323.704 0.605807 -1.45491 0
M  V30 3466 C 324.614 1.74466 -1.56839 0
M  V30 3467 C 325.63 1.68006 -0.452772 0
M  V30 3468 O 326.806 1.8833 -0.713708 0
M  V30 3469 C 323.871 3.10931 -1.53371 0
M  V30 3470 C 322.932 3.28832 -2.75986 0
M  V30 3471 C 322.165 4.58787 -2.72673 0
M  V30 3472 O 322.388 5.4122 -1.80102 0
M  V30 3473 O 321.322 4.79438 -3.63899 0
M  V30 3474 H 325.148 1.67843 -2.53106 0
M  V30 3475 H 322.733 0.770108 -1.28022 0
M  V30 3476 H 324.615 3.92233 -1.54051 0
M  V30 3477 H 323.29 3.18042 -0.602572 0
M  V30 3478 H 322.197 2.47112 -2.80867 0
M  V30 3479 H 323.53 3.26599 -3.68231 0
M  V30 3480 N 325.182 1.32811 0.848464 0
M  V30 3481 C 326.112 1.24882 1.97299 0
M  V30 3482 C 327.093 0.131357 1.69592 0
M  V30 3483 O 328.278 0.319553 1.91553 0
M  V30 3484 C 325.408 0.97746 3.33261 0
M  V30 3485 C 324.362 2.05682 3.75338 0
M  V30 3486 C 323.688 1.63777 5.09 0
M  V30 3487 C 324.988 3.47254 3.90144 0
M  V30 3488 H 326.682 2.18966 2.04191 0
M  V30 3489 H 324.228 1.05413 0.981029 0
M  V30 3490 H 326.181 0.908513 4.1149 0
M  V30 3491 H 324.905 0.000980011 3.266 0
M  V30 3492 H 323.564 2.11603 2.99366 0
M  V30 3493 H 323.212 0.648569 4.98801 0
M  V30 3494 H 322.912 2.36 5.38124 0
M  V30 3495 H 324.436 1.5833 5.89715 0
M  V30 3496 H 325.85 3.43888 4.58709 0
M  V30 3497 H 324.247 4.1788 4.30693 0
M  V30 3498 H 325.317 3.86462 2.92874 0
M  V30 3499 N 326.66 -1.06551 1.16123 0
M  V30 3500 C 327.907 -1.79302 0.941126 0
M  V30 3501 C 328.235 -1.87105 -0.531235 0
M  V30 3502 O 327.49 -1.35692 -1.41018 0
M  V30 3503 C 327.789 -3.23911 1.51052 0
M  V30 3504 C 327.455 -3.36193 3.00475 0
M  V30 3505 C 326.117 -3.39252 3.41265 0
M  V30 3506 C 328.469 -3.38326 3.96465 0
M  V30 3507 C 325.797 -3.42057 4.76669 0
M  V30 3508 C 328.149 -3.4267 5.31752 0
M  V30 3509 C 326.813 -3.4401 5.72026 0
M  V30 3510 H 326.083 -0.656111 0.344382 0
M  V30 3511 H 328.73 -1.25325 1.44796 0
M  V30 3512 H 327.035 -3.80723 0.925063 0
M  V30 3513 H 328.732 -3.78793 1.31593 0
M  V30 3514 H 325.322 -3.34516 2.6795 0
M  V30 3515 H 329.506 -3.35176 3.6602 0
M  V30 3516 H 324.762 -3.41398 5.07206 0
M  V30 3517 H 328.936 -3.43268 6.05921 0
M  V30 3518 H 326.563 -3.45937 6.76928 0
M  V30 3519 N 328.138 -0.959301 -1.25041 0
M  V30 3520 C 329.048 -0.489994 -2.29426 0
M  V30 3521 C 330.064 0.444944 -1.68215 0
M  V30 3522 O 331.24 0.320046 -1.98841 0
M  V30 3523 C 328.305 0.220309 -3.45999 0
M  V30 3524 C 327.366 -0.753418 -4.22637 0
M  V30 3525 C 326.599 -0.076918 -5.33645 0
M  V30 3526 O 326.822 1.13649 -5.58963 0
M  V30 3527 O 325.756 -0.764824 -5.97021 0
M  V30 3528 H 329.582 -1.35755 -2.71669 0
M  V30 3529 H 327.167 -0.725961 -1.30576 0
M  V30 3530 H 329.049 0.619677 -4.16819 0
M  V30 3531 H 327.724 1.06296 -3.0575 0
M  V30 3532 H 326.631 -1.20308 -3.54227 0
M  V30 3533 H 327.964 -1.56423 -4.66683 0
M  V30 3534 N 329.616 1.39756 -0.72842 0
M  V30 3535 C 330.844 2.04948 -0.283528 0
M  V30 3536 C 331.259 1.54908 1.0793 0
M  V30 3537 O 330.616 0.711135 1.68075 0
M  V30 3538 C 330.667 3.60498 -0.268957 0
M  V30 3539 O 330.388 4.08695 -1.57798 0
M  V30 3540 C 331.889 4.4288 0.192912 0
M  V30 3541 H 329.109 0.659243 -0.125056 0
M  V30 3542 H 331.653 1.78927 -0.990226 0
M  V30 3543 H 329.808 3.85444 0.388801 0
M  V30 3544 H 330.222 5.02977 -1.48709 0
M  V30 3545 H 331.696 5.51791 0.151952 0
M  V30 3546 H 332.173 4.21418 1.23708 0
M  V30 3547 H 332.779 4.23069 -0.435039 0
M  V30 3548 N 331.094 0.475555 1.50254 0
M  V30 3549 C 332.057 -0.305016 2.27161 0
M  V30 3550 C 333.057 -0.916519 1.32123 0
M  V30 3551 O 334.247 -0.785003 1.5551 0
M  V30 3552 C 331.379 -1.43496 3.09227 0
M  V30 3553 H 332.572 0.369511 2.97615 0
M  V30 3554 H 330.125 0.229747 1.54602 0
M  V30 3555 H 330.86 -2.14441 2.43281 0
M  V30 3556 H 330.645 -1.00223 3.79075 0
M  V30 3557 H 332.135 -1.98548 3.67381 0
M  V30 3558 N 332.573 -1.56217 0.208337 0
M  V30 3559 C 333.536 -2.18455 -0.693557 0
M  V30 3560 C 334.536 -1.14268 -1.13135 0
M  V30 3561 O 335.726 -1.39577 -1.0423 0
M  V30 3562 C 332.858 -2.79727 -1.94848 0
M  V30 3563 H 334.051 -2.99519 -0.15114 0
M  V30 3564 H 331.604 -1.56245 -0.041287 0
M  V30 3565 H 332.339 -2.02497 -2.53309 0
M  V30 3566 H 332.124 -3.56009 -1.64316 0
M  V30 3567 H 333.614 -3.27475 -2.59133 0
M  V30 3568 N 334.051 0.0651679 -1.57465 0
M  V30 3569 C 335.299 0.761555 -1.87202 0
M  V30 3570 C 335.62 1.77778 -0.801243 0
M  V30 3571 O 334.89 1.95166 0.16937 0
M  V30 3572 H 333.47 0.284251 -0.690804 0
M  V30 3573 H 336.132 0.0396827 -1.9486 0
M  V30 3574 H 335.228 1.27365 -2.84929 0
M  V30 3575 N 335.529 1.53961 0.336706 0
M  V30 3576 C 336.476 1.82428 1.41381 0
M  V30 3577 C 337.446 0.670444 1.51968 0
M  V30 3578 O 338.631 0.915565 1.67398 0
M  V30 3579 C 335.771 2.04564 2.77934 0
M  V30 3580 C 334.884 3.32267 2.76084 0
M  V30 3581 C 334.019 3.44434 4.04399 0
M  V30 3582 C 333.058 4.66061 3.96804 0
M  V30 3583 N 332.195 4.75224 5.16823 0
M  V30 3584 H 337.035 2.74324 1.16405 0
M  V30 3585 H 334.572 1.35869 0.563752 0
M  V30 3586 H 336.53 2.15388 3.57301 0
M  V30 3587 H 335.16 1.15974 3.01247 0
M  V30 3588 H 334.212 3.3025 1.88784 0
M  V30 3589 H 335.524 4.21733 2.66351 0
M  V30 3590 H 334.678 3.54728 4.92192 0
M  V30 3591 H 333.417 2.53037 4.16921 0
M  V30 3592 H 332.422 4.55838 3.07396 0
M  V30 3593 H 333.647 5.58829 3.85858 0
M  V30 3594 H 331.593 3.86739 5.29876 0
M  V30 3595 H 331.51 5.58636 5.09374 0
M  V30 3596 H 332.778 4.89835 6.06367 0
M  V30 3597 N 337.007 -0.598083 1.45811 0
M  V30 3598 C 337.97 -1.69018 1.54808 0
M  V30 3599 C 338.97 -1.55037 0.426652 0
M  V30 3600 O 340.16 -1.59932 0.690456 0
M  V30 3601 C 337.292 -3.0835 1.45371 0
M  V30 3602 H 338.485 -1.62403 2.52121 0
M  V30 3603 H 336.038 -0.814626 1.33392 0
M  V30 3604 H 336.773 -3.20534 0.492793 0
M  V30 3605 H 336.558 -3.19907 2.26721 0
M  V30 3606 H 338.048 -3.8788 1.54721 0
M  V30 3607 N 338.485 -1.33259 -0.841409 0
M  V30 3608 C 339.395 -1.25332 -1.98316 0
M  V30 3609 C 340.411 -0.164364 -1.73222 0
M  V30 3610 O 341.587 -0.387486 -1.97637 0
M  V30 3611 C 338.652 -0.990078 -3.32262 0
M  V30 3612 C 337.713 -2.16879 -3.70489 0
M  V30 3613 C 336.946 -1.91801 -4.98044 0
M  V30 3614 O 337.169 -0.867075 -5.63771 0
M  V30 3615 O 336.103 -2.78267 -5.33714 0
M  V30 3616 H 339.929 -2.21344 -2.07944 0
M  V30 3617 H 337.514 -1.1328 -0.974058 0
M  V30 3618 H 339.396 -0.860321 -4.12524 0
M  V30 3619 H 338.071 -0.0602155 -3.23644 0
M  V30 3620 H 336.978 -2.35407 -2.90748 0
M  V30 3621 H 338.311 -3.0819 -3.8377 0
M  V30 3622 N 339.963 1.05934 -1.16686 0
M  V30 3623 C 340.91 2.13499 -0.876748 0
M  V30 3624 C 341.88 1.65162 0.176299 0
M  V30 3625 O 343.065 1.90757 0.0407143 0
M  V30 3626 C 340.205 3.42912 -0.387967 0
M  V30 3627 C 339.318 4.04964 -1.50426 0
M  V30 3628 C 338.453 5.22266 -0.970125 0
M  V30 3629 C 337.492 5.76309 -2.06238 0
M  V30 3630 N 336.629 6.84922 -1.54356 0
M  V30 3631 H 341.469 2.37654 -1.7979 0
M  V30 3632 H 339.006 1.16598 -0.896843 0
M  V30 3633 H 340.964 4.17111 -0.086186 0
M  V30 3634 H 339.594 3.18963 0.496235 0
M  V30 3635 H 338.646 3.28277 -1.92193 0
M  V30 3636 H 339.958 4.41122 -2.32836 0
M  V30 3637 H 339.112 6.03506 -0.621743 0
M  V30 3638 H 337.851 4.87564 -0.115377 0
M  V30 3639 H 336.856 4.93704 -2.41942 0
M  V30 3640 H 338.081 6.13062 -2.92115 0
M  V30 3641 H 336.027 6.52131 -0.711406 0
M  V30 3642 H 335.944 7.20043 -2.30379 0
M  V30 3643 H 337.212 7.69832 -1.22387 0
M  V30 3644 N 341.441 0.965919 1.2453 0
M  V30 3645 C 342.689 0.625593 1.92174 0
M  V30 3646 C 343.01 -0.841652 1.75901 0
M  V30 3647 O 342.28 -1.60061 1.12948 0
M  V30 3648 H 340.86 0.228388 0.71123 0
M  V30 3649 H 343.522 1.2266 1.51461 0
M  V30 3650 H 342.618 0.864653 2.99884 0
M  V30 3651 O 342.958 -1.35835 0.873561 0
M  V30 3652 H 343.649 -1.87797 0.474551 0
M  V30 END ATOM
M  V30 BEGIN BOND
M  V30 END BOND
M  V30 END CTAB
M  END
$$$$
