drugbank_target|Q53547 Carboxylesterase 2 (DB03297)
 OpenBabel12092120273D

  0  0  0     0  0            999 V3000
M  V30 BEGIN CTAB
M  V30 COUNTS 3340 3383 0 0 0
M  V30 BEGIN ATOM
M  V30 1 H -0.908 1.98254 -0.117106 0
M  V30 2 N 0 1.576 0 0
M  V30 3 C 0.933 2.03868 1.02534 0
M  V30 4 C 1.911 0.928543 1.3348 0
M  V30 5 O 3.095 1.19667 1.45644 0
M  V30 6 C 0.222 2.43627 2.35294 0
M  V30 7 C -0.732 3.65373 2.2001 0
M  V30 8 S 0.101 5.13292 1.52614 0
M  V30 9 C 1.257 5.56322 2.86805 0
M  V30 10 H 1.49 2.90518 0.631377 0
M  V30 11 H -0.977 1.52953 0.210867 0
M  V30 12 H 0.981 2.67203 3.11629 0
M  V30 13 H -0.358 1.57376 2.7183 0
M  V30 14 H -1.165 3.90944 3.18086 0
M  V30 15 H -1.563 3.418 1.51819 0
M  V30 16 H 0.729 5.58782 3.83104 0
M  V30 17 H 1.672 6.56266 2.65933 0
M  V30 18 H 2.08 4.83886 2.90714 0
M  V30 19 N 1.4781 -0.272755 1.55222 0
M  V30 20 C 2.7061 -1.02255 1.79865 0
M  V30 21 C 3.1211 -1.79924 0.572088 0
M  V30 22 O 2.4781 -1.76638 -0.458842 0
M  V30 23 C 2.5291 -1.98094 3.02392 0
M  V30 24 O 2.2501 -1.23572 4.20311 0
M  V30 25 C 3.7511 -2.84884 3.39641 0
M  V30 26 H 0.9711 -0.302057 0.599168 0
M  V30 27 H 3.5151 -0.303465 2.02236 0
M  V30 28 H 1.6701 -2.65465 2.82147 0
M  V30 29 H 2.0841 -1.88172 4.89583 0
M  V30 30 H 3.5581 -3.47927 4.28545 0
M  V30 31 H 4.0351 -3.54665 2.59055 0
M  V30 32 H 4.6411 -2.23003 3.62146 0
M  V30 33 N 2.9562 -1.48159 -0.537278 0
M  V30 34 C 3.8662 -1.64807 -1.6696 0
M  V30 35 C 4.8822 -0.530651 -1.65711 0
M  V30 36 O 6.0582 -0.800784 -1.84796 0
M  V30 37 C 3.1232 -1.67708 -3.03438 0
M  V30 38 C 2.1842 -2.91025 -3.156 0
M  V30 39 C 1.4172 -2.93778 -4.45567 0
M  V30 40 O 1.6402 -2.05153 -5.3223 0
M  V30 41 O 0.5742 -3.85868 -4.61941 0
M  V30 42 H 4.4002 -2.6066 -1.55853 0
M  V30 43 H 1.9852 -1.31475 -0.709549 0
M  V30 44 H 3.8672 -1.7218 -3.84619 0
M  V30 45 H 2.5422 -0.750278 -3.14885 0
M  V30 46 H 1.4492 -2.92089 -2.33741 0
M  V30 47 H 2.7822 -3.83065 -3.09066 0
M  V30 48 N 4.4343 0.785586 -1.36625 0
M  V30 49 C 5.8453 1.36101 -1.27803 0
M  V30 50 C 6.1963 1.96035 0.0804875 0
M  V30 51 O 5.3213 1.92834 0.982042 0
M  V30 52 C 5.9163 2.47442 -2.31426 0
M  V30 53 C 4.4753 3.00789 -2.26281 0
M  V30 54 C 3.6223 1.73896 -2.15999 0
M  V30 55 H 6.5733 0.586928 -1.47448 0
M  V30 56 H 6.5943 3.2656 -1.95291 0
M  V30 57 H 6.1063 2.03791 -3.30289 0
M  V30 58 H 4.2073 3.48851 -1.30896 0
M  V30 59 H 4.3203 3.57343 -3.19128 0
M  V30 60 H 2.6843 1.9628 -1.62316 0
M  V30 61 H 3.4673 1.32368 -3.16755 0
M  V30 62 N 5.9124 1.20967 1.01018 0
M  V30 63 C 6.8424 0.988272 2.11555 0
M  V30 64 C 7.8234 -0.0849778 1.69888 0
M  V30 65 O 9.0084 0.0738202 1.9406 0
M  V30 66 C 6.1384 0.546528 3.42973 0
M  V30 67 C 5.0924 1.56375 3.9841 0
M  V30 68 C 4.4184 0.97842 5.25672 0
M  V30 69 C 5.7184 2.94922 4.31066 0
M  V30 70 H 7.4124 1.91276 2.30334 0
M  V30 71 H 4.9584 0.921073 1.1069 0
M  V30 72 H 6.9114 0.378839 4.19694 0
M  V30 73 H 5.6354 -0.413598 3.23971 0
M  V30 74 H 4.2944 1.71891 3.23804 0
M  V30 75 H 3.9424 0.0101688 5.02999 0
M  V30 76 H 3.6424 1.65784 5.63728 0
M  V30 77 H 5.1664 0.821939 6.05043 0
M  V30 78 H 6.5804 2.8288 4.9865 0
M  V30 79 H 4.9774 3.5983 4.80253 0
M  V30 80 H 6.0474 3.4616 3.39561 0
M  V30 81 N 7.3905 -1.2043 1.01659 0
M  V30 82 C 8.6395 -1.89118 0.701237 0
M  V30 83 C 8.9525 -1.79705 -0.772358 0
M  V30 84 O 10.1585 -2.43528 -1.20026 0
M  V30 85 C 8.6145 -3.39168 1.20388 0
M  V30 86 C 8.2225 -3.57166 2.70438 0
M  V30 87 C 9.9665 -4.1341 0.963953 0
M  V30 88 C 7.8735 -5.01042 3.14183 0
M  V30 89 H 6.8035 -0.708267 0.2586 0
M  V30 90 H 9.4545 -1.36239 1.22927 0
M  V30 91 H 7.8365 -3.91369 0.603824 0
M  V30 92 H 9.0105 -3.15351 3.35992 0
M  V30 93 H 7.3255 -2.96294 2.92572 0
M  V30 94 H 9.9225 -5.19491 1.26621 0
M  V30 95 H 10.2655 -4.16181 -0.099578 0
M  V30 96 H 10.7985 -3.67309 1.52738 0
M  V30 97 H 7.5375 -5.03426 4.19812 0
M  V30 98 H 7.0575 -5.43668 2.53348 0
M  V30 99 H 8.7365 -5.69623 3.0682 0
M  V30 100 N 8.8686 -0.792821 -1.36206 0
M  V30 101 C 9.7986 -0.207853 -2.32573 0
M  V30 102 C 10.7796 0.659055 -1.56813 0
M  V30 103 O 11.9646 0.592176 -1.84951 0
M  V30 104 C 9.0946 0.655449 -3.41059 0
M  V30 105 C 8.0486 -0.111842 -4.27854 0
M  V30 106 C 7.3746 0.872274 -5.27537 0
M  V30 107 C 8.6746 -1.30299 -5.05786 0
M  V30 108 H 10.3686 -1.01294 -2.81744 0
M  V30 109 H 7.9146 -0.48854 -1.3546 0
M  V30 110 H 9.8676 1.07464 -4.07467 0
M  V30 111 H 8.5916 1.49328 -2.90463 0
M  V30 112 H 7.2506 -0.512053 -3.63006 0
M  V30 113 H 6.8986 1.70523 -4.73214 0
M  V30 114 H 6.5986 0.363291 -5.86476 0
M  V30 115 H 8.1226 1.28996 -5.96818 0
M  V30 116 H 9.5366 -0.959379 -5.65216 0
M  V30 117 H 7.9336 -1.7455 -5.74154 0
M  V30 118 H 9.0036 -2.09663 -4.37229 0
M  V30 119 N 10.3467 1.47872 -0.545128 0
M  V30 120 C 11.2787 2.27869 0.246621 0
M  V30 121 C 12.2917 1.36282 0.890561 0
M  V30 122 O 13.4807 1.61207 0.766449 0
M  V30 123 C 10.5807 3.10159 1.36582 0
M  V30 124 C 9.7537 4.29627 0.820954 0
M  V30 125 C 8.8127 4.93607 1.82314 0
M  V30 126 O 7.8387 5.52366 1.37406 0
M  V30 127 N 9.0407 4.87211 3.15603 0
M  V30 128 H 11.8057 2.96459 -0.439539 0
M  V30 129 H 9.3667 1.57367 -0.380421 0
M  V30 130 H 11.3587 3.49829 2.03474 0
M  V30 131 H 9.9287 2.43891 1.9554 0
M  V30 132 H 9.1487 3.94192 -0.0244032 0
M  V30 133 H 10.4367 5.06928 0.436063 0
M  V30 134 H 9.8347 4.40651 3.54744 0
M  V30 135 H 8.3917 5.30937 3.78087 0
M  V30 136 N 11.8248 0.280983 1.55075 0
M  V30 137 C 13.2358 -0.215629 1.85451 0
M  V30 138 C 13.5868 -1.54991 1.203 0
M  V30 139 O 12.7118 -2.10699 0.493435 0
M  V30 140 C 13.3068 -0.398026 3.36454 0
M  V30 141 C 11.8658 -0.838866 3.66933 0
M  V30 142 C 11.0128 0.064458 2.77225 0
M  V30 143 H 13.9638 0.502601 1.50531 0
M  V30 144 H 13.9848 -1.23569 3.59876 0
M  V30 145 H 13.4968 0.573241 3.83843 0
M  V30 146 H 11.5978 -1.8214 3.25048 0
M  V30 147 H 11.7108 -0.672123 4.74362 0
M  V30 148 H 10.0748 -0.452863 2.50642 0
M  V30 149 H 10.8578 1.03172 3.2743 0
M  V30 150 N 13.3029 -1.57598 0.00835791 0
M  V30 151 C 14.2659 -2.07884 -0.965242 0
M  V30 152 C 15.2659 -0.989825 -1.26725 0
M  V30 153 O 16.4559 -1.25218 -1.21104 0
M  V30 154 C 13.5879 -2.52731 -2.28779 0
M  V30 155 H 14.7809 -2.95178 -0.530112 0
M  V30 156 H 12.3339 -1.54458 -0.239283 0
M  V30 157 H 13.0689 -1.68705 -2.76964 0
M  V30 158 H 12.8539 -3.32272 -2.08177 0
M  V30 159 H 14.3439 -2.91933 -2.98605 0
M  V30 160 N 14.781 0.264519 -1.55364 0
M  V30 161 C 15.728 1.32717 -1.88825 0
M  V30 162 C 16.698 1.48675 -0.740605 0
M  V30 163 O 17.883 1.62945 -0.992657 0
M  V30 164 C 15.023 2.68089 -2.17307 0
M  V30 165 C 14.136 2.60284 -3.44785 0
M  V30 166 C 13.271 3.87892 -3.62924 0
M  V30 167 C 12.31 3.74631 -4.84064 0
M  V30 168 N 11.447 4.94092 -4.98816 0
M  V30 169 H 16.287 1.03481 -2.79456 0
M  V30 170 H 13.824 0.499757 -1.3835 0
M  V30 171 H 15.782 3.46864 -2.31821 0
M  V30 172 H 14.412 2.95509 -1.299 0
M  V30 173 H 13.464 1.73173 -3.38697 0
M  V30 174 H 14.776 2.46388 -4.33698 0
M  V30 175 H 13.93 4.75109 -3.77302 0
M  V30 176 H 12.669 4.04664 -2.7221 0
M  V30 177 H 11.674 2.85797 -4.69681 0
M  V30 178 H 12.899 3.5937 -5.76221 0
M  V30 179 H 10.845 5.11259 -4.11036 0
M  V30 180 H 10.762 4.8276 -5.81789 0
M  V30 181 H 12.03 5.82857 -5.17588 0
M  V30 182 N 16.2591 1.48442 0.529413 0
M  V30 183 C 17.6701 1.5002 1.11134 0
M  V30 184 C 18.0211 0.27031 1.94329 0
M  V30 185 O 17.1461 -0.622507 2.07253 0
M  V30 186 C 17.7411 2.71834 2.02217 0
M  V30 187 C 16.3001 2.76283 2.55627 0
M  V30 188 C 15.4471 2.43542 1.326 0
M  V30 189 H 18.3981 1.5555 0.314641 0
M  V30 190 H 18.4191 2.50384 2.8651 0
M  V30 191 H 17.9311 3.61331 1.41639 0
M  V30 192 H 16.0321 1.90995 3.19924 0
M  V30 193 H 16.1451 3.77725 2.94721 0
M  V30 194 H 14.5091 1.94709 1.64196 0
M  V30 195 H 15.2921 3.3528 0.737734 0
M  V30 196 N 17.7372 -0.778329 1.37039 0
M  V30 197 C 18.7002 -1.87301 1.32102 0
M  V30 198 C 19.7002 -1.59198 0.226405 0
M  V30 199 O 20.8902 -1.67403 0.481861 0
M  V30 200 C 18.0222 -3.24309 1.05055 0
M  V30 201 H 19.2152 -1.93093 2.29467 0
M  V30 202 H 16.7682 -0.977358 1.21973 0
M  V30 203 H 17.5032 -3.24196 0.0819373 0
M  V30 204 H 17.2882 -3.46098 1.84279 0
M  V30 205 H 18.7782 -4.04382 1.04234 0
M  V30 206 N 19.2153 -1.21501 -1.00376 0
M  V30 207 C 20.4923 -0.941745 -1.71437 0
M  V30 208 C 20.8723 0.546114 -2.03914 0
M  V30 209 O 20.2203 1.51128 -1.71384 0
M  V30 210 C 20.4303 -1.82812 -2.97289 0
M  V30 211 C 21.7783 -2.07771 -3.70292 0
M  V30 212 O 22.8023 -1.80171 -3.07273 0
M  V30 213 O 21.6613 -2.54456 -4.83647 0
M  V30 214 H 18.7553 -0.353243 -0.747762 0
M  V30 215 H 21.3013 -1.32436 -1.06108 0
M  V30 216 H 20.0733 -2.83501 -2.69709 0
M  V30 217 H 19.6963 -1.4464 -3.70358 0
M  V30 218 N 20.6934 1.19889 -1.02296 0
M  V30 219 C 21.6564 2.21116 -0.603351 0
M  V30 220 C 22.6564 1.5738 0.329884 0
M  V30 221 O 23.8464 1.73802 0.117702 0
M  V30 222 C 20.9784 3.40696 0.117992 0
M  V30 223 H 22.1714 2.59754 -1.49893 0
M  V30 224 H 19.7244 1.33463 -0.813468 0
M  V30 225 H 20.4594 3.07569 1.0282 0
M  V30 226 H 20.2444 3.88188 -0.552511 0
M  V30 227 H 21.7344 4.15692 0.398696 0
M  V30 228 N 22.1715 0.800033 1.35784 0
M  V30 229 C 23.4115 0.382891 2.00782 0
M  V30 230 C 23.7755 -1.02891 1.62103 0
M  V30 231 O 24.9765 -1.54771 2.19771 0
M  V30 232 C 23.2475 0.553299 3.53091 0
M  V30 233 S 24.8065 0.225608 4.3822 0
M  V30 234 H 21.6245 0.145737 0.695904 0
M  V30 235 H 24.2265 1.04085 1.65489 0
M  V30 236 H 22.9305 1.58091 3.78729 0
M  V30 237 H 22.4615 -0.120214 3.93216 0
M  V30 238 H 24.4765 -0.969074 4.86645 0
M  V30 239 N 23.6496 -1.47581 0.552962 0
M  V30 240 C 24.8956 -2.02782 0.0273648 0
M  V30 241 C 25.2286 -1.42687 -1.31734 0
M  V30 242 O 24.5036 -0.580897 -1.85623 0
M  V30 243 C 24.7866 -3.60031 -0.0702371 0
M  V30 244 C 24.6396 -4.30566 1.30126 0
M  V30 245 C 25.9586 -4.33028 -0.785771 0
M  V30 246 H 23.0776 -0.736912 0.0114185 0
M  V30 247 H 25.7196 -1.76056 0.714432 0
M  V30 248 H 23.8696 -3.82932 -0.655382 0
M  V30 249 H 25.5416 -4.19018 1.92929 0
M  V30 250 H 23.7846 -3.91086 1.87709 0
M  V30 251 H 24.4556 -5.39114 1.18573 0
M  V30 252 H 26.9316 -4.15095 -0.288982 0
M  V30 253 H 25.8076 -5.42695 -0.823013 0
M  V30 254 H 26.0686 -4.01945 -1.841 0
M  V30 255 N 25.1277 -0.289203 -1.54924 0
M  V30 256 C 26.3767 0.324231 -1.99077 0
M  V30 257 C 26.6897 1.5591 -1.18117 0
M  V30 258 O 27.8957 2.24637 -1.52481 0
M  V30 259 C 26.3517 0.628209 -3.54375 0
M  V30 260 C 25.9597 -0.587647 -4.44129 0
M  V30 261 C 27.7037 1.20349 -4.07083 0
M  V30 262 C 25.6107 -0.257475 -5.90839 0
M  V30 263 H 24.5407 0.124924 -0.743579 0
M  V30 264 H 27.1917 -0.396063 -1.79175 0
M  V30 265 H 25.5737 1.40778 -3.70132 0
M  V30 266 H 26.7477 -1.36418 -4.40144 0
M  V30 267 H 25.0627 -1.08074 -4.0213 0
M  V30 268 H 27.6597 1.46456 -5.14252 0
M  V30 269 H 28.0027 2.14195 -3.56968 0
M  V30 270 H 28.5357 0.485889 -3.94821 0
M  V30 271 H 25.2747 -1.16419 -6.45079 0
M  V30 272 H 24.7947 0.482018 -5.9786 0
M  V30 273 H 26.4737 0.145238 -6.46837 0
M  V30 274 N 26.6058 1.57591 -0.0167156 0
M  V30 275 C 27.8518 1.92399 0.659861 0
M  V30 276 C 28.2068 0.892561 1.70444 0
M  V30 277 O 27.4998 -0.0930755 1.91374 0
M  V30 278 C 27.6938 3.3172 1.33029 0
M  V30 279 C 27.5228 4.48319 0.352174 0
M  V30 280 C 26.2928 5.05281 -0.0434883 0
M  V30 281 C 28.4908 5.12831 -0.388474 0
M  V30 282 N 26.4728 6.05399 -1.01807 0
M  V30 283 C 27.8438 6.07934 -1.2172 0
M  V30 284 C 29.8988 4.95858 -0.450513 0
M  V30 285 C 28.6018 6.87891 -2.10235 0
M  V30 286 C 30.6278 5.76413 -1.32295 0
M  V30 287 C 29.9898 6.71123 -2.13948 0
M  V30 288 H 26.0888 0.752106 0.21415 0
M  V30 289 H 28.6728 1.94532 -0.0809846 0
M  V30 290 H 26.8438 3.3043 2.04134 0
M  V30 291 H 28.5758 3.5391 1.9629 0
M  V30 292 H 25.3308 4.7246 0.328384 0
M  V30 293 H 25.7548 6.60145 -1.50123 0
M  V30 294 H 30.3968 4.22472 0.166512 0
M  V30 295 H 28.1148 7.60591 -2.72997 0
M  V30 296 H 31.7008 5.65317 -1.37508 0
M  V30 297 H 30.5808 7.3237 -2.80364 0
M  V30 298 N 28.0839 -0.256276 1.55502 0
M  V30 299 C 29.0139 -1.32102 1.92539 0
M  V30 300 C 29.9949 -1.50684 0.789194 0
M  V30 301 O 31.1799 -1.63449 1.04872 0
M  V30 302 C 28.3099 -2.67752 2.21192 0
M  V30 303 C 27.2639 -2.63878 3.36975 0
M  V30 304 C 26.5899 -4.03236 3.51147 0
M  V30 305 C 27.8899 -2.21682 4.72921 0
M  V30 306 H 29.5839 -1.01351 2.81724 0
M  V30 307 H 27.1299 -0.486105 1.35547 0
M  V30 308 H 29.0829 -3.42365 2.45691 0
M  V30 309 H 27.8069 -3.0012 1.28824 0
M  V30 310 H 26.4659 -1.91722 3.12471 0
M  V30 311 H 26.1139 -4.32854 2.56216 0
M  V30 312 H 25.8139 -4.01535 4.29003 0
M  V30 313 H 27.3379 -4.79563 3.77957 0
M  V30 314 H 28.7519 -2.86023 4.96854 0
M  V30 315 H 27.1489 -2.3111 5.53812 0
M  V30 316 H 28.2189 -1.16833 4.70615 0
M  V30 317 N 29.562 -1.4872 -0.521534 0
M  V30 318 C 30.512 -1.60269 -1.62166 0
M  V30 319 C 31.496 -0.45935 -1.54204 0
M  V30 320 O 32.688 -0.711241 -1.62081 0
M  V30 321 C 29.817 -1.65344 -3.00859 0
M  V30 322 C 28.903 -2.85187 -3.13894 0
M  V30 323 N 29.294 -4.09509 -2.96877 0
M  V30 324 C 27.592 -2.82695 -3.44963 0
M  V30 325 C 28.293 -4.89959 -3.13552 0
M  V30 326 N 27.269 -4.22934 -3.41508 0
M  V30 327 H 31.071 -2.5413 -1.47632 0
M  V30 328 H 28.585 -1.45209 -0.727194 0
M  V30 329 H 30.582 -1.71713 -3.79895 0
M  V30 330 H 29.242 -0.726058 -3.16478 0
M  V30 331 H 30.253 -4.39814 -2.73467 0
M  V30 332 H 26.93 -1.99249 -3.66887 0
M  V30 333 H 28.32 -5.98654 -3.05061 0
M  V30 334 N 31.0401 0.771051 -1.3745 0
M  V30 335 C 32.2881 1.52661 -1.32435 0
M  V30 336 C 32.6091 1.9479 0.0905024 0
M  V30 337 O 31.8791 1.66348 1.03466 0
M  V30 338 H 30.4591 0.566218 -0.487244 0
M  V30 339 H 33.1211 0.917636 -1.71946 0
M  V30 340 H 32.2171 2.42568 -1.96385 0
M  V30 341 N 32.5182 1.22032 0.997298 0
M  V30 342 C 33.4482 1.01065 2.10495 0
M  V30 343 C 34.4292 -0.0669542 1.69968 0
M  V30 344 O 35.6142 0.0943987 1.9397 0
M  V30 345 C 32.7442 0.582874 3.42374 0
M  V30 346 C 31.6982 1.60592 3.96729 0
M  V30 347 C 31.0242 1.03412 5.24605 0
M  V30 348 C 32.3242 2.99478 4.27914 0
M  V30 349 H 34.0182 1.93708 2.28292 0
M  V30 350 H 31.5642 0.932761 1.09707 0
M  V30 351 H 33.5172 0.423332 4.19268 0
M  V30 352 H 32.2412 -0.379213 3.24391 0
M  V30 353 H 30.9002 1.75316 3.21963 0
M  V30 354 H 30.5482 0.063518 5.0296 0
M  V30 355 H 30.2482 1.71754 5.61938 0
M  V30 356 H 31.7722 0.886066 6.04137 0
M  V30 357 H 33.1862 2.88153 4.95622 0
M  V30 358 H 31.5832 3.64903 4.76409 0
M  V30 359 H 32.6532 3.49742 3.3587 0
M  V30 360 N 33.9963 -1.19345 1.0293 0
M  V30 361 C 35.2443 -1.88665 0.724574 0
M  V30 362 C 35.5653 -1.80036 -0.749144 0
M  V30 363 O 34.8353 -1.2111 -1.53978 0
M  V30 364 H 33.4153 -0.698406 0.265025 0
M  V30 365 H 36.0773 -1.44885 1.30362 0
M  V30 366 H 35.1733 -2.94987 1.01926 0
M  V30 367 N 35.4744 -0.807222 -1.35358 0
M  V30 368 C 36.4374 -0.223665 -2.28106 0
M  V30 369 C 37.4374 0.589354 -1.4961 0
M  V30 370 O 38.6274 0.407745 -1.69361 0
M  V30 371 C 35.7594 0.688149 -3.33882 0
M  V30 372 H 36.9524 -1.04169 -2.81227 0
M  V30 373 H 34.5054 -0.577921 -1.45223 0
M  V30 374 H 35.2404 1.52984 -2.85948 0
M  V30 375 H 35.0254 0.10687 -3.91954 0
M  V30 376 H 36.5154 1.09075 -4.03104 0
M  V30 377 N 36.9525 1.47285 -0.560781 0
M  V30 378 C 38.2295 1.9558 0.0277798 0
M  V30 379 C 38.6095 1.5034 1.48192 0
M  V30 380 O 37.9575 0.743882 2.16052 0
M  V30 381 C 38.1675 3.48789 -0.121418 0
M  V30 382 C 39.5155 4.24594 0.0220912 0
M  V30 383 O 40.5395 3.56166 -0.0491439 0
M  V30 384 O 39.3985 5.46217 0.175958 0
M  V30 385 H 36.4925 0.824663 0.0621342 0
M  V30 386 H 39.0385 1.5767 -0.627556 0
M  V30 387 H 37.8105 3.74533 -1.13316 0
M  V30 388 H 37.4335 3.93473 0.571366 0
M  V30 389 N 38.4306 0.297415 1.54768 0
M  V30 390 C 39.8466 -0.0560823 1.59501 0
M  V30 391 C 40.0466 -1.52725 1.31444 0
M  V30 392 O 39.1026 -2.27947 1.08611 0
M  V30 393 C 40.4156 0.338631 2.98787 0
M  V30 394 C 41.9636 0.287097 3.11681 0
M  V30 395 C 42.4386 0.656579 4.53269 0
M  V30 396 N 43.9296 0.608977 4.59179 0
M  V30 397 C 44.6646 0.867385 5.66802 0
M  V30 398 N 44.1606 1.19157 6.82476 0
M  V30 399 N 45.9536 0.794687 5.56454 0
M  V30 400 H 38.1046 1.25624 1.71267 0
M  V30 401 H 40.3676 0.509057 0.799728 0
M  V30 402 H 40.0736 1.36263 3.2423 0
M  V30 403 H 39.9476 -0.309508 3.75928 0
M  V30 404 H 42.3346 -0.727649 2.85988 0
M  V30 405 H 42.4156 0.969809 2.36703 0
M  V30 406 H 42.0596 1.66912 4.7969 0
M  V30 407 H 41.9896 -0.0481649 5.26578 0
M  V30 408 H 44.4806 0.369198 3.76092 0
M  V30 409 H 44.7936 1.37482 7.60473 0
M  V30 410 H 43.1386 1.22958 6.84037 0
M  V30 411 H 46.3296 0.541098 4.64962 0
M  V30 412 H 46.5026 0.999445 6.40246 0
M  V30 413 N 39.9087 -1.5758 0.0250728 0
M  V30 414 C 41.1387 -1.95646 -0.663783 0
M  V30 415 C 41.5467 -0.899935 -1.66427 0
M  V30 416 O 40.8897 0.127191 -1.83259 0
M  V30 417 C 40.9517 -3.29835 -1.43 0
M  V30 418 C 40.6157 -4.53197 -0.588305 0
M  V30 419 C 41.6127 -5.19726 0.13469 0
M  V30 420 C 39.2977 -4.99529 -0.526897 0
M  V30 421 C 41.2917 -6.30902 0.90781 0
M  V30 422 C 38.9787 -6.10589 0.24993 0
M  V30 423 C 39.9767 -6.76134 0.965994 0
M  V30 424 O 39.6647 -7.85062 1.7301 0
M  V30 425 H 39.3967 -0.649282 -0.188174 0
M  V30 426 H 41.9507 -2.05245 0.0799006 0
M  V30 427 H 40.1807 -3.16716 -2.21873 0
M  V30 428 H 41.8697 -3.52833 -2.00658 0
M  V30 429 H 42.6357 -4.84904 0.0965562 0
M  V30 430 H 38.5147 -4.48319 -1.07381 0
M  V30 431 H 42.0587 -6.81995 1.46724 0
M  V30 432 H 37.9557 -6.44849 0.289795 0
M  V30 433 H 38.7237 -8.01708 1.64944 0
M  V30 434 N 41.3868 0.248026 -1.55636 0
M  V30 435 C 42.6638 0.998988 -1.68165 0
M  V30 436 C 43.0438 2.03409 -0.564621 0
M  V30 437 O 42.3918 2.24378 0.432076 0
M  V30 438 C 42.6018 1.63334 -3.0842 0
M  V30 439 C 43.9498 2.13562 -3.66983 0
M  V30 440 O 44.9738 1.73277 -3.11213 0
M  V30 441 O 43.8328 2.87526 -4.64749 0
M  V30 442 H 40.9268 0.464933 -0.683935 0
M  V30 443 H 43.4728 0.241902 -1.67967 0
M  V30 444 H 42.2448 0.884583 -3.8117 0
M  V30 445 H 41.8678 2.45666 -3.12624 0
M  V30 446 N 42.8649 1.48995 0.513639 0
M  V30 447 C 44.1119 1.57843 1.26854 0
M  V30 448 C 44.4399 0.259501 1.92761 0
M  V30 449 O 43.6949 -0.75159 1.80692 0
M  V30 450 C 43.9939 2.67756 2.36731 0
M  V30 451 C 43.6599 4.09669 1.88368 0
M  V30 452 C 42.3219 4.48291 1.74896 0
M  V30 453 C 44.6739 4.98537 1.52021 0
M  V30 454 C 42.0019 5.73568 1.23438 0
M  V30 455 C 44.3539 6.24319 1.0202 0
M  V30 456 C 43.0179 6.61783 0.871778 0
M  V30 457 H 42.2879 0.577587 0.464192 0
M  V30 458 H 44.9349 1.82778 0.571366 0
M  V30 459 H 43.2399 2.36743 3.12185 0
M  V30 460 H 44.9369 2.71813 2.9482 0
M  V30 461 H 41.5269 3.79176 1.99808 0
M  V30 462 H 45.7109 4.69363 1.61281 0
M  V30 463 H 40.9669 6.01304 1.10648 0
M  V30 464 H 45.1409 6.92566 0.729722 0
M  V30 465 H 42.7679 7.5874 0.470852 0
M  V30 466 N 44.343 -0.763751 1.37857 0
M  V30 467 C 45.276 -1.88486 1.28639 0
M  V30 468 C 46.254 -1.61757 0.165363 0
M  V30 469 O 47.438 -1.85391 0.340948 0
M  V30 470 C 44.565 -3.23884 0.990811 0
M  V30 471 C 43.611 -3.69514 2.12983 0
M  V30 472 S 44.444 -3.82244 3.75033 0
M  V30 473 C 45.6 -5.20477 3.47641 0
M  V30 474 H 45.833 -1.96017 2.23527 0
M  V30 475 H 43.366 -0.925684 1.23574 0
M  V30 476 H 45.324 -4.02081 0.827101 0
M  V30 477 H 43.985 -3.14044 0.0592832 0
M  V30 478 H 43.178 -4.67696 1.87821 0
M  V30 479 H 42.78 -2.98441 2.25408 0
M  V30 480 H 45.072 -6.05905 3.03125 0
M  V30 481 H 46.015 -5.50655 4.4518 0
M  V30 482 H 46.423 -4.88793 2.82385 0
M  V30 483 N 45.8211 -1.22559 -0.990812 0
M  V30 484 C 47.2321 -1.04791 -1.54518 0
M  V30 485 C 47.5831 0.387998 -1.92325 0
M  V30 486 O 46.7081 1.27328 -1.74976 0
M  V30 487 C 47.3031 -1.896 -2.80779 0
M  V30 488 C 45.8621 -1.76124 -3.32652 0
M  V30 489 C 45.0091 -1.8594 -2.05722 0
M  V30 490 H 47.9601 -1.36374 -0.811662 0
M  V30 491 H 47.9811 -1.41464 -3.53225 0
M  V30 492 H 47.4931 -2.94101 -2.53231 0
M  V30 493 H 45.5941 -0.743643 -3.65104 0
M  V30 494 H 45.7071 -2.58913 -4.03114 0
M  V30 495 H 44.0711 -1.29403 -2.19379 0
M  V30 496 H 44.8541 -2.91976 -1.80568 0
M  V30 497 N 47.2992 1.18797 -1.03562 0
M  V30 498 C 48.5452 1.8893 -0.737113 0
M  V30 499 C 48.8782 1.79837 0.732956 0
M  V30 500 O 48.1532 1.19525 1.5344 0
M  V30 501 C 48.4362 3.39607 -1.19745 0
M  V30 502 C 48.2892 3.57537 -2.72924 0
M  V30 503 C 49.6082 4.33069 -0.783526 0
M  V30 504 H 46.7272 0.686057 -0.269249 0
M  V30 505 H 49.3692 1.39797 -1.28673 0
M  V30 506 H 47.5192 3.81583 -0.729855 0
M  V30 507 H 49.1912 3.24688 -3.27682 0
M  V30 508 H 47.4342 3.00363 -3.12993 0
M  V30 509 H 48.1052 4.63238 -3.00191 0
M  V30 510 H 50.5812 3.98846 -1.18581 0
M  V30 511 H 49.4572 5.3707 -1.13343 0
M  V30 512 H 49.7182 4.40986 0.313681 0
M  V30 513 N 48.7773 0.814389 1.34928 0
M  V30 514 C 49.7403 0.235759 2.27984 0
M  V30 515 C 50.7403 -0.581412 1.49921 0
M  V30 516 O 51.9303 -0.398758 1.69575 0
M  V30 517 C 49.0623 -0.670433 3.34242 0
M  V30 518 H 50.2553 1.05659 2.80671 0
M  V30 519 H 47.8083 0.585614 1.44915 0
M  V30 520 H 48.5433 -1.51466 2.86755 0
M  V30 521 H 48.3283 -0.0860822 3.92005 0
M  V30 522 H 49.8183 -1.06935 4.03676 0
M  V30 523 N 50.2554 -1.46986 0.568584 0
M  V30 524 C 51.1654 -2.33942 -0.17555 0
M  V30 525 C 52.1814 -1.48891 -0.90041 0
M  V30 526 O 53.3574 -1.81794 -0.86676 0
M  V30 527 C 50.4224 -3.25811 -1.18524 0
M  V30 528 C 49.4834 -4.26757 -0.466582 0
M  V30 529 C 48.7164 -5.14236 -1.42817 0
M  V30 530 O 48.9394 -5.04379 -2.66379 0
M  V30 531 O 47.8734 -5.94412 -0.946453 0
M  V30 532 H 51.6994 -2.98896 0.538036 0
M  V30 533 H 49.2844 -1.4573 0.329097 0
M  V30 534 H 51.1664 -3.82527 -1.76779 0
M  V30 535 H 49.8414 -2.63471 -1.88055 0
M  V30 536 H 48.7484 -3.73769 0.157451 0
M  V30 537 H 50.0814 -4.91843 0.187485 0
M  V30 538 N 51.7335 -0.305618 -1.54608 0
M  V30 539 C 52.6965 0.555591 -2.22364 0
M  V30 540 C 53.6965 1.05768 -1.21119 0
M  V30 541 O 54.8865 0.952972 -1.45822 0
M  V30 542 C 52.0185 1.76974 -2.91364 0
M  V30 543 H 53.2115 -0.0364572 -2.99878 0
M  V30 544 H 50.7645 -0.0565007 -1.56198 0
M  V30 545 H 51.4995 2.40151 -2.17941 0
M  V30 546 H 51.2845 1.41732 -3.65588 0
M  V30 547 H 52.7745 2.38148 -3.43038 0
M  V30 548 N 53.2116 1.57565 -0.0334293 0
M  V30 549 C 54.1416 2.13511 0.945265 0
M  V30 550 C 55.1226 1.05231 1.33643 0
M  V30 551 O 56.3076 1.33084 1.41429 0
M  V30 552 C 53.4376 2.6657 2.22616 0
M  V30 553 C 52.3916 3.79676 1.97561 0
M  V30 554 C 51.7176 4.1918 3.31952 0
M  V30 555 C 53.0176 5.0557 1.31135 0
M  V30 556 H 54.7116 2.95538 0.479325 0
M  V30 557 H 52.2576 1.42166 0.229115 0
M  V30 558 H 54.2106 3.04344 2.91466 0
M  V30 559 H 52.9346 1.8171 2.71384 0
M  V30 560 H 51.5936 3.42347 1.31127 0
M  V30 561 H 51.2416 3.31296 3.78487 0
M  V30 562 H 50.9416 4.95402 3.15992 0
M  V30 563 H 52.4656 4.59541 4.02063 0
M  V30 564 H 53.8796 5.40903 1.89992 0
M  V30 565 H 52.2766 5.86818 1.25559 0
M  V30 566 H 53.3466 4.84062 0.284894 0
M  V30 567 N 54.6897 -0.239769 1.55765 0
M  V30 568 C 55.6217 -1.32001 1.87372 0
M  V30 569 C 56.6347 -1.43944 0.760522 0
M  V30 570 O 57.8237 -1.45167 1.0387 0
M  V30 571 C 54.9237 -2.69779 2.05115 0
M  V30 572 C 54.0967 -2.80014 3.36022 0
M  V30 573 C 53.1557 -3.98684 3.4342 0
M  V30 574 O 52.1817 -3.87877 4.16582 0
M  V30 575 N 53.3837 -5.12176 2.73232 0
M  V30 576 H 56.1487 -1.0522 2.80622 0
M  V30 577 H 53.7097 -0.429857 1.56089 0
M  V30 578 H 55.7017 -3.47517 2.07399 0
M  V30 579 H 54.2717 -2.89237 1.18577 0
M  V30 580 H 53.4917 -1.88896 3.45994 0
M  V30 581 H 54.7797 -2.83808 4.22292 0
M  V30 582 H 54.1777 -5.2385 2.13536 0
M  V30 583 H 52.7347 -5.88022 2.81199 0
M  V30 584 N 56.1678 -1.49265 -0.50573 0
M  V30 585 C 57.0778 -1.68312 -1.63427 0
M  V30 586 C 58.0938 -0.565682 -1.64548 0
M  V30 587 O 59.2698 -0.839801 -1.83055 0
M  V30 588 C 56.3348 -1.74107 -2.99813 0
M  V30 589 C 55.3958 -2.97653 -3.09356 0
M  V30 590 C 54.6288 -3.03163 -4.39236 0
M  V30 591 O 54.8518 -2.16396 -5.27758 0
M  V30 592 O 53.7858 -3.9558 -4.53652 0
M  V30 593 H 57.6118 -2.63907 -1.50289 0
M  V30 594 H 55.1968 -1.32951 -0.681502 0
M  V30 595 H 57.0788 -1.803 -3.80881 0
M  V30 596 H 55.7538 -0.816901 -3.13223 0
M  V30 597 H 54.6608 -2.96981 -2.27493 0
M  V30 598 H 55.9938 -3.89535 -3.00871 0
M  V30 599 N 57.6459 0.756429 -1.3826 0
M  V30 600 C 58.8709 1.55077 -1.37717 0
M  V30 601 C 59.2959 1.88073 0.03164 0
M  V30 602 O 58.6539 1.50364 1.01293 0
M  V30 603 C 58.7019 2.8283 -2.23695 0
M  V30 604 O 57.8059 3.77862 -1.6521 0
M  V30 605 H 57.1469 0.469152 -0.469885 0
M  V30 606 H 59.6769 0.935019 -1.81985 0
M  V30 607 H 59.6869 3.31783 -2.37453 0
M  V30 608 H 58.3619 2.58144 -3.2609 0
M  V30 609 H 56.9389 3.36555 -1.60578 0
M  V30 610 N 59.124 1.23083 0.984299 0
M  V30 611 C 60.054 1.03292 2.09411 0
M  V30 612 C 61.035 -0.048923 1.7003 0
M  V30 613 O 62.22 0.114967 1.93859 0
M  V30 614 C 59.35 0.619155 3.41736 0
M  V30 615 C 58.304 1.64791 3.95004 0
M  V30 616 C 57.63 1.0897 5.23478 0
M  V30 617 C 58.93 3.03999 4.24714 0
M  V30 618 H 60.624 1.96119 2.26225 0
M  V30 619 H 58.17 0.944344 1.08711 0
M  V30 620 H 60.123 0.467777 4.18796 0
M  V30 621 H 58.847 -0.344786 3.24775 0
M  V30 622 H 57.506 1.78721 3.20085 0
M  V30 623 H 57.154 0.11686 5.02864 0
M  V30 624 H 56.854 1.77704 5.60085 0
M  V30 625 H 58.378 0.950093 6.03163 0
M  V30 626 H 59.792 2.93393 4.92538 0
M  V30 627 H 58.189 3.69936 4.72512 0
M  V30 628 H 59.259 3.53285 3.32142 0
M  V30 629 N 60.6021 -1.18246 1.0419 0
M  V30 630 C 61.5321 -2.24127 0.654914 0
M  V30 631 C 62.5131 -1.66617 -0.342451 0
M  V30 632 O 63.6981 -1.92924 -0.222277 0
M  V30 633 C 60.8281 -3.47295 0.0183757 0
M  V30 634 C 59.7821 -4.17563 0.939414 0
M  V30 635 C 59.1081 -5.34438 0.167286 0
M  V30 636 C 60.4081 -4.70917 2.25908 0
M  V30 637 H 62.1021 -2.56753 1.54007 0
M  V30 638 H 59.6481 -1.23414 0.74195 0
M  V30 639 H 61.6011 -4.20572 -0.264082 0
M  V30 640 H 60.3251 -3.13907 -0.901664 0
M  V30 641 H 58.9841 -3.46186 1.20628 0
M  V30 642 H 58.6321 -4.97298 -0.7552 0
M  V30 643 H 58.3321 -5.82388 0.780901 0
M  V30 644 H 59.8561 -6.10504 -0.108125 0
M  V30 645 H 61.2701 -5.35882 2.03724 0
M  V30 646 H 59.6671 -5.29406 2.82577 0
M  V30 647 H 60.7371 -3.88272 2.9047 0
M  V30 648 N 62.0802 -0.821533 -1.34494 0
M  V30 649 C 63.3082 -0.421884 -2.02553 0
M  V30 650 C 63.7232 0.971745 -1.61872 0
M  V30 651 O 63.0802 1.62864 -0.823496 0
M  V30 652 C 63.1312 -0.51285 -3.57844 0
M  V30 653 O 62.8522 -1.85155 -3.97051 0
M  V30 654 C 64.3532 -0.107921 -4.43169 0
M  V30 655 H 61.5732 -0.169482 -0.649243 0
M  V30 656 H 64.1172 -1.1093 -1.71798 0
M  V30 657 H 62.2722 0.126474 -3.87193 0
M  V30 658 H 62.6862 -1.82482 -4.91732 0
M  V30 659 H 64.1602 -0.222657 -5.51551 0
M  V30 660 H 64.6372 0.948401 -4.28838 0
M  V30 661 H 65.2432 -0.720989 -4.19144 0
M  V30 662 N 63.5583 1.46682 -0.576371 0
M  V30 663 C 64.7863 2.06798 -0.0649635 0
M  V30 664 C 65.2013 1.42612 1.23723 0
M  V30 665 O 64.5583 0.529203 1.74659 0
M  V30 666 C 64.6093 3.6132 0.114202 0
M  V30 667 O 64.3303 4.23104 -1.13644 0
M  V30 668 C 65.8313 4.38349 0.66069 0
M  V30 669 H 63.0513 0.668778 -0.0545616 0
M  V30 670 H 65.5953 1.88404 -0.795237 0
M  V30 671 H 63.7503 3.79162 0.794673 0
M  V30 672 H 64.1643 5.15894 -0.946253 0
M  V30 673 H 65.6383 5.47081 0.73526 0
M  V30 674 H 66.1153 4.05953 1.67627 0
M  V30 675 H 66.7213 4.25297 0.0152951 0
M  V30 676 N 65.0364 0.313813 1.54444 0
M  V30 677 C 66.4524 -0.0391619 1.59552 0
M  V30 678 C 66.6524 -1.51322 1.33056 0
M  V30 679 O 65.7084 -2.26782 1.11022 0
M  V30 680 C 67.0214 0.370302 2.98411 0
M  V30 681 C 68.5694 0.320139 3.11358 0
M  V30 682 C 69.0444 0.704617 4.52547 0
M  V30 683 N 70.5354 0.657645 4.58508 0
M  V30 684 C 71.2704 0.927453 5.6585 0
M  V30 685 N 70.7664 1.26389 6.81174 0
M  V30 686 N 72.5594 0.853662 5.5558 0
M  V30 687 H 64.7104 1.27433 1.69925 0
M  V30 688 H 66.9734 0.517511 0.794284 0
M  V30 689 H 66.6794 1.39694 3.22767 0
M  V30 690 H 66.5534 -0.269619 3.76235 0
M  V30 691 H 68.9404 -0.697275 2.86744 0
M  V30 692 H 69.0214 0.99486 2.35661 0
M  V30 693 H 68.6654 1.7199 4.77893 0
M  V30 694 H 68.5954 0.00768843 5.26599 0
M  V30 695 H 71.0864 0.409067 3.75679 0
M  V30 696 H 71.3994 1.4554 7.58972 0
M  V30 697 H 69.7444 1.30206 6.82694 0
M  V30 698 H 72.9354 0.590383 4.64362 0
M  V30 699 H 73.1084 1.0673 6.3915 0
M  V30 700 N 66.5145 -1.57545 0.0417849 0
M  V30 701 C 67.7615 -1.92317 -0.634082 0
M  V30 702 C 68.0895 -0.919334 -1.71402 0
M  V30 703 O 67.3445 0.0698253 -1.95575 0
M  V30 704 C 67.6435 -3.33794 -1.27735 0
M  V30 705 C 67.3095 -4.49716 -0.326543 0
M  V30 706 C 65.9715 -4.81156 -0.0648814 0
M  V30 707 C 68.3235 -5.20182 0.325623 0
M  V30 708 C 65.6515 -5.80414 0.856539 0
M  V30 709 C 68.0035 -6.20424 1.23518 0
M  V30 710 C 66.6675 -6.50298 1.5056 0
M  V30 711 H 65.9375 -0.703736 -0.232027 0
M  V30 712 H 68.5845 -1.91205 0.106259 0
M  V30 713 H 66.8895 -3.31228 -2.09274 0
M  V30 714 H 68.5865 -3.57975 -1.80707 0
M  V30 715 H 65.1765 -4.25176 -0.540665 0
M  V30 716 H 69.3605 -4.96112 0.136546 0
M  V30 717 H 64.6165 -6.019 1.07363 0
M  V30 718 H 68.7905 -6.74141 1.74664 0
M  V30 719 H 66.4175 -7.27025 2.22123 0
M  V30 720 N 67.9926 0.231505 -1.5589 0
M  V30 721 C 69.2386 0.95877 -1.78705 0
M  V30 722 C 69.5716 1.8438 -0.609725 0
M  V30 723 O 68.8466 1.90521 0.391426 0
M  V30 724 C 69.1296 1.8062 -3.11526 0
M  V30 725 C 68.9826 0.948328 -4.39689 0
M  V30 726 C 70.3016 2.78585 -3.40703 0
M  V30 727 H 67.4206 0.347129 -0.650131 0
M  V30 728 H 70.0626 0.228259 -1.88624 0
M  V30 729 H 68.2126 2.42902 -3.03201 0
M  V30 730 H 69.8846 0.343016 -4.60023 0
M  V30 731 H 68.1276 0.253314 -4.3306 0
M  V30 732 H 68.7986 1.57543 -5.29041 0
M  V30 733 H 71.2746 2.26439 -3.49091 0
M  V30 734 H 70.1506 3.34988 -4.34826 0
M  V30 735 H 70.4116 3.55825 -2.62375 0
M  V30 736 N 69.4707 1.49531 0.497807 0
M  V30 737 C 70.4007 1.6935 1.60757 0
M  V30 738 C 71.3817 0.542218 1.61227 0
M  V30 739 O 72.5667 0.778417 1.77917 0
M  V30 740 C 69.6967 1.76298 2.99226 0
M  V30 741 C 68.6507 2.91248 3.13622 0
M  V30 742 C 67.9767 2.83312 4.53474 0
M  V30 743 C 69.2767 4.3214 2.93346 0
M  V30 744 H 70.9707 2.62263 1.44425 0
M  V30 745 H 68.5167 1.26208 0.693367 0
M  V30 746 H 70.4697 1.88749 3.76765 0
M  V30 747 H 69.1937 0.799871 3.16654 0
M  V30 748 H 67.8527 2.78404 2.38509 0
M  V30 749 H 67.5007 1.84902 4.67782 0
M  V30 750 H 67.2007 3.60465 4.64046 0
M  V30 751 H 68.7247 2.97775 5.33069 0
M  V30 752 H 70.1387 4.45649 3.60652 0
M  V30 753 H 68.5357 5.1054 3.15387 0
M  V30 754 H 69.6057 4.46363 1.89441 0
M  V30 755 N 70.9488 -0.749086 1.3866 0
M  V30 756 C 72.3598 -1.32664 1.31366 0
M  V30 757 C 72.7108 -1.96179 -0.028484 0
M  V30 758 O 71.8358 -1.9537 -0.93057 0
M  V30 759 C 72.4308 -2.41219 2.37905 0
M  V30 760 C 70.9898 -2.94684 2.34176 0
M  V30 761 C 70.1368 -1.68108 2.20533 0
M  V30 762 H 73.0878 -0.547628 1.48952 0
M  V30 763 H 73.1088 -3.21268 2.0388 0
M  V30 764 H 72.6208 -1.94962 3.35576 0
M  V30 765 H 70.7218 -3.45258 1.401 0
M  V30 766 H 70.8348 -3.48757 3.2849 0
M  V30 767 H 69.1988 -1.91907 1.67463 0
M  V30 768 H 69.9818 -1.23923 3.20153 0
M  V30 769 N 72.4269 -1.23603 -0.977757 0
M  V30 770 C 73.3589 -0.977369 -2.07317 0
M  V30 771 C 74.3719 0.0495845 -1.62724 0
M  V30 772 O 75.5609 -0.186261 -1.77526 0
M  V30 773 C 72.6609 -0.451216 -3.35883 0
M  V30 774 C 71.8339 -1.53896 -4.09432 0
M  V30 775 C 70.8929 -1.01721 -5.16274 0
M  V30 776 O 69.9189 -1.70676 -5.43009 0
M  V30 777 N 71.1209 0.153594 -5.80297 0
M  V30 778 H 73.8859 -1.92047 -2.30082 0
M  V30 779 H 71.4469 -1.14497 -1.14465 0
M  V30 780 H 73.4389 -0.0871574 -4.04606 0
M  V30 781 H 72.0089 0.397368 -3.10064 0
M  V30 782 H 71.2289 -2.07566 -3.35127 0
M  V30 783 H 72.5169 -2.27037 -4.55337 0
M  V30 784 H 71.9149 0.730323 -5.60966 0
M  V30 785 H 70.4719 0.458892 -6.50183 0
M  V30 786 N 73.905 1.17692 -1.04816 0
M  V30 787 C 74.868 2.19787 -0.650117 0
M  V30 788 C 75.868 1.58044 0.296427 0
M  V30 789 O 77.058 1.74012 0.0808097 0
M  V30 790 C 74.19 3.40869 0.0456987 0
M  V30 791 H 75.383 2.56516 -1.5537 0
M  V30 792 H 72.936 1.31708 -0.841594 0
M  V30 793 H 73.671 3.09681 0.962726 0
M  V30 794 H 73.456 3.86928 -0.634727 0
M  V30 795 H 74.946 4.16445 0.310432 0
M  V30 796 N 75.3831 0.828654 1.34056 0
M  V30 797 C 76.7941 0.477534 1.8049 0
M  V30 798 C 77.1451 -1.00258 1.6865 0
M  V30 799 O 76.2701 -1.78057 1.22982 0
M  V30 800 C 76.8651 0.860018 3.27703 0
M  V30 801 C 75.4241 0.561185 3.72193 0
M  V30 802 C 74.5711 1.07385 2.55663 0
M  V30 803 H 77.5221 1.0183 1.21722 0
M  V30 804 H 77.5431 0.166038 3.80138 0
M  V30 805 H 77.0551 1.93731 3.36288 0
M  V30 806 H 75.1561 -0.506465 3.69142 0
M  V30 807 H 75.2691 1.10926 4.66082 0
M  V30 808 H 73.6331 0.495149 2.49841 0
M  V30 809 H 74.4161 2.15771 2.67016 0
M  V30 810 N 76.8612 -1.46375 0.584142 0
M  V30 811 C 78.0892 -2.06761 0.0759296 0
M  V30 812 C 78.5042 -1.43266 -1.22965 0
M  V30 813 O 77.8612 -0.538458 -1.74376 0
M  V30 814 C 77.9122 -3.61375 -0.0950384 0
M  V30 815 O 77.6332 -4.22495 1.15887 0
M  V30 816 C 79.1342 -4.38693 -0.637434 0
M  V30 817 H 76.3542 -0.668479 0.0581075 0
M  V30 818 H 78.8982 -1.8798 0.805218 0
M  V30 819 H 77.0532 -3.79578 -0.774554 0
M  V30 820 H 77.4672 -5.15385 0.973598 0
M  V30 821 H 78.9412 -5.47464 -0.706237 0
M  V30 822 H 79.4182 -4.06836 -1.65472 0
M  V30 823 H 80.0242 -4.25299 0.00725967 0
M  V30 824 N 78.3393 -0.321999 -1.54275 0
M  V30 825 C 79.7553 0.0306999 -1.5957 0
M  V30 826 C 79.9553 1.50614 -1.33857 0
M  V30 827 O 79.0113 2.2619 -1.12223 0
M  V30 828 C 80.3243 -0.386122 -2.98211 0
M  V30 829 C 81.8723 -0.336647 -3.11184 0
M  V30 830 C 82.3473 -0.728607 -4.52167 0
M  V30 831 N 83.8383 -0.681952 -4.58152 0
M  V30 832 C 84.5733 -0.957449 -5.6535 0
M  V30 833 N 84.0693 -1.3 -6.80494 0
M  V30 834 N 85.8623 -0.883113 -5.55119 0
M  V30 835 H 78.0133 -1.28332 -1.69247 0
M  V30 836 H 80.2763 -0.521716 -0.791528 0
M  V30 837 H 79.9823 -1.41404 -3.22022 0
M  V30 838 H 79.8563 0.249662 -3.76373 0
M  V30 839 H 82.2433 0.682058 -2.8711 0
M  V30 840 H 82.3243 -1.00734 -2.3513 0
M  V30 841 H 81.9683 -1.74522 -4.76974 0
M  V30 842 H 81.8983 -0.0356152 -5.26588 0
M  V30 843 H 84.3893 -0.428985 -3.75457 0
M  V30 844 H 84.7023 -1.49563 -7.58189 0
M  V30 845 H 83.0473 -1.33824 -6.81994 0
M  V30 846 H 86.2383 -0.615001 -4.64042 0
M  V30 847 H 86.4113 -1.10118 -6.38575 0
M  V30 848 N 79.8174 1.5752 -0.0501392 0
M  V30 849 C 81.2284 1.80271 0.485705 0
M  V30 850 C 81.5794 0.96228 1.70981 0
M  V30 851 O 80.7044 0.178578 2.15662 0
M  V30 852 C 81.2994 3.26957 0.887938 0
M  V30 853 C 79.8584 3.5063 1.36877 0
M  V30 854 C 79.0054 2.75165 0.343468 0
M  V30 855 H 81.9564 1.56281 -0.276028 0
M  V30 856 H 81.9774 3.37821 1.75093 0
M  V30 857 H 81.4894 3.881 -0.0031809 0
M  V30 858 H 79.5904 2.94766 2.27911 0
M  V30 859 H 79.7034 4.59343 1.36164 0
M  V30 860 H 78.0674 2.4127 0.816128 0
M  V30 861 H 78.8504 3.39034 -0.539548 0
M  V30 862 N 81.2955 -0.223234 1.56011 0
M  V30 863 C 82.5415 -0.949279 1.79211 0
M  V30 864 C 82.8745 -1.84054 0.619494 0
M  V30 865 O 82.1495 -1.90726 -0.381317 0
M  V30 866 C 82.4325 -1.78965 3.12479 0
M  V30 867 C 82.2855 -0.924997 4.40186 0
M  V30 868 C 83.6045 -2.76774 3.42175 0
M  V30 869 H 80.7235 -0.343676 0.651963 0
M  V30 870 H 83.3655 -0.218253 1.88742 0
M  V30 871 H 81.5155 -2.41291 3.04485 0
M  V30 872 H 83.1875 -0.318615 4.60198 0
M  V30 873 H 81.4305 -0.230344 4.33188 0
M  V30 874 H 82.1015 -1.54735 5.29869 0
M  V30 875 H 84.5775 -2.24584 3.50287 0
M  V30 876 H 83.4535 -3.32678 4.36597 0
M  V30 877 H 83.7145 -3.54429 2.64258 0
M  V30 878 N 82.7736 -1.49793 -0.48987 0
M  V30 879 C 84.0016 -1.63568 -1.26701 0
M  V30 880 C 84.4166 -0.311465 -1.86213 0
M  V30 881 O 83.7736 0.704416 -1.68357 0
M  V30 882 C 83.8246 -2.71284 -2.38929 0
M  V30 883 O 83.5456 -3.9857 -1.81861 0
M  V30 884 C 85.0466 -2.95864 -3.3012 0
M  V30 885 H 82.2666 -0.550342 -0.383881 0
M  V30 886 H 84.8106 -1.95898 -0.586864 0
M  V30 887 H 82.9656 -2.417 -3.02753 0
M  V30 888 H 83.3796 -4.57993 -2.55622 0
M  V30 889 H 84.8536 -3.74941 -4.05121 0
M  V30 890 H 85.3306 -2.06206 -3.87783 0
M  V30 891 H 85.9366 -3.26907 -2.72051 0
M  V30 892 N 84.2517 0.741722 -1.39055 0
M  V30 893 C 85.5007 1.49656 -1.35225 0
M  V30 894 C 85.8137 1.95533 0.0512708 0
M  V30 895 O 87.0197 2.7067 0.212138 0
M  V30 896 C 85.4757 2.70389 -2.37525 0
M  V30 897 C 85.0837 2.31489 -3.83558 0
M  V30 898 C 86.8277 3.48236 -2.42759 0
M  V30 899 C 84.7347 3.48903 -4.77515 0
M  V30 900 H 83.6647 0.56197 -0.502699 0
M  V30 901 H 86.3157 0.809727 -1.64668 0
M  V30 902 H 84.6977 3.41113 -2.01142 0
M  V30 903 H 85.8717 1.68354 -4.28945 0
M  V30 904 H 84.1867 1.66749 -3.81554 0
M  V30 905 H 86.7837 4.35558 -3.1015 0
M  V30 906 H 87.1267 3.90229 -1.45008 0
M  V30 907 H 87.6597 2.84535 -2.78002 0
M  V30 908 H 84.3987 3.11966 -5.76504 0
M  V30 909 H 83.9187 4.11041 -4.36813 0
M  V30 910 H 85.5977 4.15328 -4.96096 0
M  V30 911 N 85.7298 1.2412 0.971189 0
M  V30 912 C 86.6778 1.02812 2.08644 0
M  V30 913 C 87.6718 -0.0358403 1.69362 0
M  V30 914 O 88.8778 0.118429 1.7961 0
M  V30 915 H 85.2528 0.315428 0.682649 0
M  V30 916 H 87.2238 1.97397 2.23779 0
M  V30 917 C 85.9728 0.645874 3.41649 0
M  V30 918 H 85.2958 1.45632 3.72332 0
M  V30 919 H 86.7358 0.536366 4.20594 0
M  V30 920 C 85.1948 -0.646713 3.30635 0
M  V30 921 O 85.7248 -1.69338 3.64263 0
M  V30 922 N 83.9308 -0.626115 2.83775 0
M  V30 923 H 83.4778 0.225988 2.56607 0
M  V30 924 H 83.4358 -1.49117 2.76788 0
M  V30 925 N 87.2079 -1.17134 1.05439 0
M  V30 926 C 88.4559 -1.87085 0.764429 0
M  V30 927 C 88.7769 -1.81584 -0.710787 0
M  V30 928 O 88.0469 -1.24349 -1.51374 0
M  V30 929 H 86.6269 -0.692627 0.279779 0
M  V30 930 H 89.2889 -1.42087 1.33406 0
M  V30 931 H 88.3849 -2.92759 1.0816 0
M  V30 932 N 88.686 -0.835752 -1.33615 0
M  V30 933 C 89.934 -0.429109 -1.97492 0
M  V30 934 C 90.255 1.01433 -1.66543 0
M  V30 935 O 89.525 1.70611 -0.962744 0
M  V30 936 H 88.105 -0.155686 -0.730596 0
M  V30 937 H 90.767 -1.06802 -1.63031 0
M  V30 938 H 89.863 -0.55861 -3.0706 0
M  V30 939 N 90.1641 1.46063 -0.591896 0
M  V30 940 C 91.3941 2.06418 -0.0867676 0
M  V30 941 C 91.8021 1.43975 1.22751 0
M  V30 942 O 91.1451 0.542531 1.75506 0
M  V30 943 C 91.2071 3.59213 0.143725 0
M  V30 944 C 90.8711 4.439 -1.08635 0
M  V30 945 C 91.8681 4.79864 -2.00067 0
M  V30 946 C 89.5531 4.84896 -1.31077 0
M  V30 947 C 91.5471 5.55661 -3.12282 0
M  V30 948 C 89.2341 5.6045 -2.43596 0
M  V30 949 C 90.2321 5.95747 -3.34027 0
M  V30 950 O 89.9201 6.69772 -4.4459 0
M  V30 951 H 89.6521 0.673443 -0.0587447 0
M  V30 952 H 92.2061 1.88539 -0.814994 0
M  V30 953 H 90.4361 3.75433 0.926668 0
M  V30 954 H 92.1251 4.01463 0.5985 0
M  V30 955 H 92.8911 4.48763 -1.83947 0
M  V30 956 H 88.7701 4.56867 -0.61594 0
M  V30 957 H 92.3141 5.8313 -3.82891 0
M  V30 958 H 88.2111 5.90965 -2.59674 0
M  V30 959 H 88.9791 6.88207 -4.43073 0
M  V30 960 N 91.6422 0.330177 1.54103 0
M  V30 961 C 92.5522 -0.541534 2.28264 0
M  V30 962 C 93.5682 -1.12351 1.32866 0
M  V30 963 O 94.7442 -1.14206 1.65888 0
M  V30 964 C 91.8092 -1.68322 3.03098 0
M  V30 965 C 90.8702 -1.13238 4.14096 0
M  V30 966 C 90.1032 -2.21966 4.85352 0
M  V30 967 O 90.3262 -3.42437 4.56172 0
M  V30 968 O 89.2602 -1.87013 5.7211 0
M  V30 969 H 93.0862 0.060938 3.03639 0
M  V30 970 H 90.6712 0.09565 1.49093 0
M  V30 971 H 92.5532 -2.34777 3.49939 0
M  V30 972 H 91.2282 -2.27176 2.30593 0
M  V30 973 H 90.1352 -0.432736 3.71589 0
M  V30 974 H 91.4682 -0.588898 4.88664 0
M  V30 975 N 93.1203 -1.57491 0.0584922 0
M  V30 976 C 94.0533 -2.07533 -0.948969 0
M  V30 977 C 95.0313 -0.977444 -1.29942 0
M  V30 978 O 96.2153 -1.2499 -1.41102 0
M  V30 979 C 93.3423 -2.52192 -2.2609 0
M  V30 980 C 92.3883 -3.73287 -2.06298 0
M  V30 981 S 93.2213 -5.18603 -1.33459 0
M  V30 982 C 94.3773 -5.66583 -2.65959 0
M  V30 983 H 94.6103 -2.92662 -0.523118 0
M  V30 984 H 92.1433 -1.53631 -0.153954 0
M  V30 985 H 94.1013 -2.78585 -3.01498 0
M  V30 986 H 92.7623 -1.67356 -2.65802 0
M  V30 987 H 91.9553 -4.0248 -3.03357 0
M  V30 988 H 91.5573 -3.47199 -1.39029 0
M  V30 989 H 93.8493 -5.72616 -3.62101 0
M  V30 990 H 94.7923 -6.65684 -2.41393 0
M  V30 991 H 95.2003 -4.94342 -2.72554 0
M  V30 992 N 94.5984 0.214957 -1.56127 0
M  V30 993 C 96.0094 0.781386 -1.69562 0
M  V30 994 C 96.3604 1.84707 -0.66165 0
M  V30 995 O 95.4854 2.156 0.185927 0
M  V30 996 C 96.0804 1.42411 -3.07416 0
M  V30 997 C 94.6394 1.93786 -3.22683 0
M  V30 998 C 93.7864 0.800438 -2.65496 0
M  V30 999 H 96.7374 -0.00980633 -1.58697 0
M  V30 1000 H 96.7584 2.29309 -3.0364 0
M  V30 1001 H 96.2704 0.64826 -3.82648 0
M  V30 1002 H 94.3714 2.74152 -2.52332 0
M  V30 1003 H 94.4844 2.1133 -4.29973 0
M  V30 1004 H 92.8484 1.2095 -2.2415 0
M  V30 1005 H 93.6314 0.0371471 -3.4328 0
M  V30 1006 N 96.0765 1.50051 0.48192 0
M  V30 1007 C 97.3015 1.64508 1.26301 0
M  V30 1008 C 97.7265 0.323851 1.85291 0
M  V30 1009 O 97.0845 -0.710969 1.66778 0
M  V30 1010 C 97.1325 2.7305 2.35533 0
M  V30 1011 O 96.2365 2.3355 3.39895 0
M  V30 1012 H 95.5775 0.549978 0.372048 0
M  V30 1013 H 98.1075 1.9636 0.574786 0
M  V30 1014 H 98.1175 2.95799 2.8101 0
M  V30 1015 H 96.7925 3.68946 1.91967 0
M  V30 1016 H 95.3695 2.21205 3.00204 0
M  V30 1017 N 97.5546 -0.734337 1.39446 0
M  V30 1018 C 98.8006 -1.49505 1.37913 0
M  V30 1019 C 99.1556 -1.92384 -0.0248416 0
M  V30 1020 O 98.4486 -1.6395 -0.991506 0
M  V30 1021 C 98.6426 -2.74711 2.28623 0
M  V30 1022 C 98.4716 -2.44075 3.777 0
M  V30 1023 C 97.2416 -2.36338 4.46623 0
M  V30 1024 C 99.4396 -2.09574 4.69663 0
M  V30 1025 N 97.4216 -1.9818 5.81032 0
M  V30 1026 C 98.7926 -1.81865 5.92727 0
M  V30 1027 C 100.848 -1.96048 4.57678 0
M  V30 1028 C 99.5506 -1.41992 7.05146 0
M  V30 1029 C 101.577 -1.57579 5.7002 0
M  V30 1030 C 100.939 -1.30754 6.92158 0
M  V30 1031 H 97.0376 -0.545896 0.55993 0
M  V30 1032 H 99.6216 -0.853373 1.75002 0
M  V30 1033 H 97.7926 -3.36657 1.93692 0
M  V30 1034 H 99.5246 -3.40916 2.18078 0
M  V30 1035 H 96.2796 -2.53456 4.00071 0
M  V30 1036 H 96.7036 -1.81691 6.52163 0
M  V30 1037 H 101.346 -2.15455 3.63784 0
M  V30 1038 H 99.0636 -1.21327 7.9894 0
M  V30 1039 H 102.65 -1.47718 5.62735 0
M  V30 1040 H 101.53 -1.01432 7.77612 0
M  V30 1041 N 99.0327 -1.24633 -0.964593 0
M  V30 1042 C 100.263 -1.11339 -1.74032 0
M  V30 1043 C 100.671 0.336593 -1.86182 0
M  V30 1044 O 100.014 1.24389 -1.35178 0
M  V30 1045 C 100.076 -1.68284 -3.1768 0
M  V30 1046 C 99.7397 -3.17196 -3.28992 0
M  V30 1047 C 100.737 -4.14308 -3.14078 0
M  V30 1048 C 98.4217 -3.57215 -3.53133 0
M  V30 1049 C 100.416 -5.4942 -3.23135 0
M  V30 1050 C 98.1027 -4.92468 -3.61827 0
M  V30 1051 C 99.1007 -5.8838 -3.46841 0
M  V30 1052 O 98.7887 -7.21173 -3.55197 0
M  V30 1053 H 98.5207 -0.389551 -0.552472 0
M  V30 1054 H 101.075 -1.65282 -1.21946 0
M  V30 1055 H 99.3047 -1.08777 -3.71085 0
M  V30 1056 H 100.994 -1.50234 -3.77074 0
M  V30 1057 H 101.76 -3.84731 -2.95308 0
M  V30 1058 H 97.6387 -2.83063 -3.63863 0
M  V30 1059 H 101.183 -6.24263 -3.11355 0
M  V30 1060 H 97.0797 -5.21714 -3.80111 0
M  V30 1061 H 97.8477 -7.29135 -3.71892 0
M  V30 1062 N 100.511 1.16574 -1.06058 0
M  V30 1063 C 101.788 1.83048 -0.689416 0
M  V30 1064 C 102.168 1.94122 0.829443 0
M  V30 1065 O 101.516 1.48249 1.7388 0
M  V30 1066 C 101.726 3.20186 -1.38859 0
M  V30 1067 C 103.074 3.95989 -1.53226 0
M  V30 1068 O 104.098 3.29696 -1.3483 0
M  V30 1069 O 102.957 5.14813 -1.83384 0
M  V30 1070 H 100.051 0.790258 -0.243764 0
M  V30 1071 H 102.597 1.23797 -1.16071 0
M  V30 1072 H 101.369 3.07146 -2.4244 0
M  V30 1073 H 100.992 3.87112 -0.907216 0
M  V30 1074 N 101.989 0.842826 1.3317 0
M  V30 1075 C 103.238 0.436738 1.96915 0
M  V30 1076 C 103.551 -1.01025 1.67491 0
M  V30 1077 O 104.757 -1.5212 2.24881 0
M  V30 1078 C 103.213 0.730021 3.52418 0
M  V30 1079 C 102.821 2.19195 3.90714 0
M  V30 1080 C 104.565 0.391076 4.22695 0
M  V30 1081 C 102.472 2.42907 5.39212 0
M  V30 1082 H 101.402 0.15958 0.736919 0
M  V30 1083 H 104.053 1.03196 1.51733 0
M  V30 1084 H 102.435 0.0643755 3.95948 0
M  V30 1085 H 103.609 2.8984 3.58231 0
M  V30 1086 H 101.924 2.49425 3.33431 0
M  V30 1087 H 104.521 0.545817 5.31907 0
M  V30 1088 H 104.864 -0.666294 4.10933 0
M  V30 1089 H 105.397 1.01212 3.84709 0
M  V30 1090 H 102.136 3.47224 5.55982 0
M  V30 1091 H 101.656 1.76827 5.73142 0
M  V30 1092 H 103.335 2.2626 6.06148 0
M  V30 1093 N 103.467 -1.45747 0.599634 0
M  V30 1094 C 104.414 -2.30467 -0.123849 0
M  V30 1095 C 105.384 -1.41632 -0.86774 0
M  V30 1096 O 106.569 -1.70568 -0.855056 0
M  V30 1097 C 103.709 -3.26402 -1.12051 0
M  V30 1098 C 102.822 -4.3034 -0.37832 0
M  V30 1099 C 101.957 -5.13389 -1.364 0
M  V30 1100 C 100.996 -6.09061 -0.609171 0
M  V30 1101 N 100.133 -6.84918 -1.54374 0
M  V30 1102 H 104.973 -2.91802 0.604627 0
M  V30 1103 H 102.51 -1.43797 0.309972 0
M  V30 1104 H 104.468 -3.80482 -1.7114 0
M  V30 1105 H 103.098 -2.66839 -1.8165 0
M  V30 1106 H 102.15 -3.78984 0.327929 0
M  V30 1107 H 103.462 -4.98354 0.210997 0
M  V30 1108 H 102.616 -5.7183 -2.02719 0
M  V30 1109 H 101.355 -4.45376 -1.98725 0
M  V30 1110 H 100.36 -5.49758 0.0676979 0
M  V30 1111 H 101.585 -6.79099 0.00891991 0
M  V30 1112 H 99.531 -6.19601 -2.15478 0
M  V30 1113 H 99.448 -7.49254 -1.00766 0
M  V30 1114 H 100.716 -7.47906 -2.19676 0
M  V30 1115 N 104.945 -0.338344 -1.53925 0
M  V30 1116 C 105.908 0.508299 -2.23493 0
M  V30 1117 C 106.908 1.03175 -1.23335 0
M  V30 1118 O 108.098 0.921826 -1.47811 0
M  V30 1119 C 105.23 1.70754 -2.95052 0
M  V30 1120 H 106.423 -0.100058 -2.99733 0
M  V30 1121 H 103.976 -0.0896198 -1.56043 0
M  V30 1122 H 104.711 2.35474 -2.22986 0
M  V30 1123 H 104.496 1.33946 -3.68512 0
M  V30 1124 H 105.986 2.30818 -3.48013 0
M  V30 1125 N 106.423 1.57458 -0.0668435 0
M  V30 1126 C 107.356 2.08033 0.93795 0
M  V30 1127 C 108.334 0.984321 1.29421 0
M  V30 1128 O 109.518 1.25736 1.40437 0
M  V30 1129 C 106.645 2.53388 2.24749 0
M  V30 1130 C 105.691 3.74376 2.04315 0
M  V30 1131 S 106.524 5.19303 1.30706 0
M  V30 1132 C 107.68 5.67986 2.62951 0
M  V30 1133 H 107.913 2.92935 0.50759 0
M  V30 1134 H 105.446 1.5371 0.145804 0
M  V30 1135 H 107.404 2.8018 3.00016 0
M  V30 1136 H 106.065 1.68763 2.64911 0
M  V30 1137 H 105.258 4.04083 3.01218 0
M  V30 1138 H 104.86 3.47931 1.37186 0
M  V30 1139 H 107.152 5.74528 3.5906 0
M  V30 1140 H 108.095 6.66955 2.3786 0
M  V30 1141 H 108.503 4.95781 2.69929 0
M  V30 1142 N 107.901 -0.206675 1.56239 0
M  V30 1143 C 109.126 -0.949474 1.8439 0
M  V30 1144 C 109.551 -1.76549 0.649016 0
M  V30 1145 O 108.909 -1.76782 -0.402231 0
M  V30 1146 C 108.957 -1.83078 3.10668 0
M  V30 1147 O 108.061 -2.9281 2.90407 0
M  V30 1148 H 107.402 -0.268033 0.607499 0
M  V30 1149 H 109.932 -0.215488 2.03462 0
M  V30 1150 H 109.942 -2.2377 3.41161 0
M  V30 1151 H 108.617 -1.23112 3.97261 0
M  V30 1152 H 107.194 -2.55956 2.71184 0
M  V30 1153 N 109.379 -1.50304 -0.473955 0
M  V30 1154 C 110.79 -1.54042 -1.0549 0
M  V30 1155 C 111.141 -0.342248 -1.93192 0
M  V30 1156 O 110.266 0.545157 -2.09421 0
M  V30 1157 C 110.861 -2.79152 -1.91989 0
M  V30 1158 C 109.42 -2.8558 -2.45196 0
M  V30 1159 C 108.567 -2.48295 -1.2347 0
M  V30 1160 H 111.518 -1.5661 -0.256693 0
M  V30 1161 H 111.539 -2.60845 -2.7702 0
M  V30 1162 H 111.051 -3.66339 -1.28131 0
M  V30 1163 H 109.152 -2.02738 -3.12615 0
M  V30 1164 H 109.265 -3.88403 -2.80499 0
M  V30 1165 H 107.629 -2.00669 -1.56856 0
M  V30 1166 H 108.412 -3.37787 -0.612789 0
M  V30 1167 N 110.857 0.726932 -1.39834 0
M  V30 1168 C 111.82 1.82269 -1.38962 0
M  V30 1169 C 112.82 1.58248 -0.285334 0
M  V30 1170 O 114.01 1.65499 -0.54366 0
M  V30 1171 C 111.142 3.20186 -1.17019 0
M  V30 1172 H 112.335 1.84443 -2.36476 0
M  V30 1173 H 109.888 0.931416 -1.25516 0
M  V30 1174 H 110.623 3.23669 -0.202204 0
M  V30 1175 H 110.408 3.3902 -1.96998 0
M  V30 1176 H 111.898 4.00235 -1.1917 0
M  V30 1177 N 112.336 1.25143 0.95797 0
M  V30 1178 C 113.752 1.01892 1.22842 0
M  V30 1179 C 113.952 -0.266311 1.99732 0
M  V30 1180 O 113.008 -0.979913 2.3271 0
M  V30 1181 C 114.321 2.24004 2.00606 0
M  V30 1182 C 115.869 2.28731 2.13662 0
M  V30 1183 C 116.344 3.5049 2.94823 0
M  V30 1184 N 117.835 3.50866 3.02403 0
M  V30 1185 C 118.57 4.4174 3.65586 0
M  V30 1186 N 118.066 5.42882 4.30408 0
M  V30 1187 N 119.859 4.29429 3.62694 0
M  V30 1188 H 112.01 2.07718 0.443493 0
M  V30 1189 H 114.273 0.912031 0.258657 0
M  V30 1190 H 113.979 3.17395 1.51503 0
M  V30 1191 H 113.853 2.26907 3.01319 0
M  V30 1192 H 116.24 1.35865 2.61963 0
M  V30 1193 H 116.321 2.29848 1.12265 0
M  V30 1194 H 115.965 4.43676 2.47213 0
M  V30 1195 H 115.895 3.46617 3.96439 0
M  V30 1196 H 118.386 2.777 2.56302 0
M  V30 1197 H 118.699 6.0844 4.76467 0
M  V30 1198 H 117.044 5.46758 4.29047 0
M  V30 1199 H 120.235 3.49643 3.11236 0
M  V30 1200 H 120.408 5.00448 4.1165 0
M  V30 1201 N 113.814 -1.1601 1.06675 0
M  V30 1202 C 115.039 -1.91068 0.806706 0
M  V30 1203 C 115.464 -1.77112 -0.633485 0
M  V30 1204 O 114.822 -1.09908 -1.44187 0
M  V30 1205 C 114.87 -3.39655 1.21106 0
M  V30 1206 O 113.974 -4.10893 0.352189 0
M  V30 1207 H 113.315 -0.595125 0.294486 0
M  V30 1208 H 115.845 -1.46955 1.42356 0
M  V30 1209 H 115.855 -3.90434 1.18428 0
M  V30 1210 H 114.53 -3.49132 2.26008 0
M  V30 1211 H 113.107 -3.70285 0.440868 0
M  V30 1212 N 115.292 -0.849877 -1.32721 0
M  V30 1213 C 116.541 -0.447175 -1.96681 0
M  V30 1214 C 116.854 1.00135 -1.68025 0
M  V30 1215 O 118.06 1.50926 -2.25685 0
M  V30 1216 C 116.516 -0.7487 -3.52026 0
M  V30 1217 C 116.124 -2.21264 -3.89546 0
M  V30 1218 C 117.868 -0.413487 -4.22481 0
M  V30 1219 C 115.775 -2.45763 -5.37917 0
M  V30 1220 H 114.705 -0.163486 -0.736063 0
M  V30 1221 H 117.356 -1.03999 -1.51183 0
M  V30 1222 H 115.738 -0.0853727 -3.95908 0
M  V30 1223 H 116.912 -2.91736 -3.56689 0
M  V30 1224 H 115.227 -2.5119 -3.32103 0
M  V30 1225 H 117.824 -0.574017 -5.3161 0
M  V30 1226 H 118.167 0.644492 -4.11281 0
M  V30 1227 H 118.7 -1.03251 -3.84167 0
M  V30 1228 H 115.439 -3.50168 -5.54132 0
M  V30 1229 H 114.959 -1.79864 -5.72197 0
M  V30 1230 H 116.638 -2.29471 -6.0494 0
M  V30 1231 N 116.77 1.45427 -0.607355 0
M  V30 1232 C 117.995 2.07124 -0.107006 0
M  V30 1233 C 118.42 1.44906 1.19933 0
M  V30 1234 O 117.778 0.541687 1.73019 0
M  V30 1235 C 117.826 3.60595 0.0194119 0
M  V30 1236 O 116.93 3.98285 1.0697 0
M  V30 1237 H 116.271 0.659868 -0.0739597 0
M  V30 1238 H 118.801 1.86683 -0.837297 0
M  V30 1239 H 118.811 4.07419 0.2177 0
M  V30 1240 H 117.486 4.05266 -0.934453 0
M  V30 1241 H 116.063 3.63133 0.847889 0
M  V30 1242 N 118.248 0.346503 1.53744 0
M  V30 1243 C 119.178 -0.501193 2.28058 0
M  V30 1244 C 120.159 -1.10014 1.29734 0
M  V30 1245 O 121.344 -1.12097 1.58581 0
M  V30 1246 C 118.474 -1.65078 3.05559 0
M  V30 1247 C 117.428 -1.18003 4.11411 0
M  V30 1248 C 116.754 -2.41837 4.76884 0
M  V30 1249 C 118.054 -0.278394 5.21558 0
M  V30 1250 H 119.748 0.11875 2.99164 0
M  V30 1251 H 117.294 0.0585531 1.43881 0
M  V30 1252 H 119.247 -2.25028 3.56287 0
M  V30 1253 H 117.971 -2.29767 2.32109 0
M  V30 1254 H 116.63 -0.603331 3.61601 0
M  V30 1255 H 116.278 -3.0494 4.00026 0
M  V30 1256 H 115.978 -2.1102 5.48402 0
M  V30 1257 H 117.502 -3.02508 5.30397 0
M  V30 1258 H 118.916 -0.784823 5.67903 0
M  V30 1259 H 117.313 -0.0619707 6.00068 0
M  V30 1260 H 118.383 0.684677 4.80042 0
M  V30 1261 N 119.726 -1.57421 0.075193 0
M  V30 1262 C 120.636 -2.1642 -0.905511 0
M  V30 1263 C 121.652 -1.12828 -1.32461 0
M  V30 1264 O 122.828 -1.45109 -1.39661 0
M  V30 1265 C 119.893 -2.71693 -2.15369 0
M  V30 1266 C 118.954 -3.90171 -1.79068 0
M  V30 1267 C 118.187 -4.42798 -2.97936 0
M  V30 1268 O 118.41 -3.94416 -4.12058 0
M  V30 1269 O 117.344 -5.34085 -2.77555 0
M  V30 1270 H 121.17 -3.00588 -0.433626 0
M  V30 1271 H 118.755 -1.48664 -0.148067 0
M  V30 1272 H 120.637 -3.07104 -2.88557 0
M  V30 1273 H 119.312 -1.90582 -2.61649 0
M  V30 1274 H 118.219 -3.59606 -1.03122 0
M  V30 1275 H 119.552 -4.72584 -1.37569 0
M  V30 1276 N 121.204 0.198386 -1.56346 0
M  V30 1277 C 122.114 1.2664 -1.97483 0
M  V30 1278 C 123.13 1.49989 -0.882002 0
M  V30 1279 O 124.306 1.62668 -1.18748 0
M  V30 1280 C 121.371 2.59141 -2.30319 0
M  V30 1281 C 120.432 2.43892 -3.53292 0
M  V30 1282 C 119.665 3.70074 -3.84553 0
M  V30 1283 O 119.888 4.74101 -3.1715 0
M  V30 1284 O 118.822 3.658 -4.7799 0
M  V30 1285 H 122.648 0.947304 -2.88548 0
M  V30 1286 H 120.233 0.403123 -1.43859 0
M  V30 1287 H 122.115 3.37352 -2.5253 0
M  V30 1288 H 120.79 2.90684 -1.42423 0
M  V30 1289 H 119.697 1.63803 -3.36332 0
M  V30 1290 H 121.03 2.17282 -4.41644 0
M  V30 1291 N 122.682 1.50554 0.465978 0
M  V30 1292 C 123.612 1.72722 1.57128 0
M  V30 1293 C 124.593 0.576294 1.6004 0
M  V30 1294 O 125.778 0.81598 1.76225 0
M  V30 1295 C 122.908 1.82605 2.95419 0
M  V30 1296 C 121.862 2.97835 3.07373 0
M  V30 1297 C 121.188 2.92867 4.47363 0
M  V30 1298 C 122.488 4.38265 2.84114 0
M  V30 1299 H 124.182 2.65267 1.38829 0
M  V30 1300 H 121.728 1.2765 0.666441 0
M  V30 1301 H 123.681 1.96698 3.72677 0
M  V30 1302 H 122.405 0.866858 3.14886 0
M  V30 1303 H 121.064 2.83401 2.3255 0
M  V30 1304 H 120.712 1.94783 4.63755 0
M  V30 1305 H 120.412 3.70227 4.56296 0
M  V30 1306 H 121.936 3.09015 5.26633 0
M  V30 1307 H 123.35 4.53198 3.51118 0
M  V30 1308 H 121.747 5.17115 3.04487 0
M  V30 1309 H 122.817 4.50281 1.7993 0
M  V30 1310 N 124.16 -0.719506 1.40217 0
M  V30 1311 C 125.07 -1.86378 1.42479 0
M  V30 1312 C 126.086 -1.71073 0.317834 0
M  V30 1313 O 127.262 -1.93406 0.561794 0
M  V30 1314 C 124.327 -3.22136 1.28178 0
M  V30 1315 C 123.388 -3.49723 2.48982 0
M  V30 1316 C 122.621 -4.79004 2.35353 0
M  V30 1317 O 122.844 -5.53821 1.36524 0
M  V30 1318 O 121.778 -5.06839 3.2465 0
M  V30 1319 H 125.604 -1.87425 2.38968 0
M  V30 1320 H 123.189 -0.869405 1.21498 0
M  V30 1321 H 125.071 -4.03234 1.22395 0
M  V30 1322 H 123.746 -3.21825 0.347934 0
M  V30 1323 H 122.653 -2.6865 2.60342 0
M  V30 1324 H 123.986 -3.54828 3.41113 0
M  V30 1325 N 125.638 -1.25649 -0.95132 0
M  V30 1326 C 126.884 -1.10757 -1.69884 0
M  V30 1327 C 127.217 0.350061 -1.91019 0
M  V30 1328 O 126.492 1.25783 -1.48354 0
M  V30 1329 C 126.775 -1.86606 -3.07978 0
M  V30 1330 C 126.628 -3.40217 -2.94232 0
M  V30 1331 C 127.947 -1.65182 -4.07925 0
M  V30 1332 H 125.066 -0.40374 -0.616574 0
M  V30 1333 H 127.708 -1.54521 -1.10558 0
M  V30 1334 H 125.858 -1.49409 -3.58621 0
M  V30 1335 H 127.53 -3.87108 -2.50889 0
M  V30 1336 H 125.773 -3.67759 -2.30078 0
M  V30 1337 H 126.444 -3.88505 -3.92133 0
M  V30 1338 H 128.92 -1.9757 -3.66204 0
M  V30 1339 H 127.796 -2.20683 -5.02583 0
M  V30 1340 H 128.057 -0.593933 -4.38092 0
M  V30 1341 N 127.117 1.15442 -1.07289 0
M  V30 1342 C 128.342 1.90638 -0.816828 0
M  V30 1343 C 128.767 1.77445 0.624083 0
M  V30 1344 O 128.125 1.10671 1.43602 0
M  V30 1345 C 128.173 3.39008 -1.22906 0
M  V30 1346 O 127.277 4.10701 -0.373975 0
M  V30 1347 H 126.618 0.593555 -0.297638 0
M  V30 1348 H 129.148 1.46198 -1.43134 0
M  V30 1349 H 129.158 3.89801 -1.20497 0
M  V30 1350 H 127.833 3.47929 -2.27856 0
M  V30 1351 H 126.41 3.70046 -0.460499 0
M  V30 1352 N 128.595 0.856903 1.32268 0
M  V30 1353 C 129.558 0.308171 2.27119 0
M  V30 1354 C 130.558 -0.533421 1.51695 0
M  V30 1355 O 131.748 -0.344607 1.70757 0
M  V30 1356 C 128.88 -0.563757 3.36206 0
M  V30 1357 H 130.073 1.14535 2.77167 0
M  V30 1358 H 127.626 0.631421 1.42978 0
M  V30 1359 H 128.361 -1.42266 2.91429 0
M  V30 1360 H 128.146 0.0386749 3.92081 0
M  V30 1361 H 129.636 -0.940386 4.06874 0
M  V30 1362 N 130.073 -1.45103 0.615059 0
M  V30 1363 C 131.02 -2.30586 -0.0993978 0
M  V30 1364 C 131.99 -1.42544 -0.852669 0
M  V30 1365 O 133.175 -1.71465 -0.836917 0
M  V30 1366 C 130.315 -3.27572 -1.08583 0
M  V30 1367 C 129.428 -4.30717 -0.332656 0
M  V30 1368 C 128.563 -5.14807 -1.30947 0
M  V30 1369 C 127.602 -6.09673 -0.544538 0
M  V30 1370 N 126.739 -6.86517 -1.47101 0
M  V30 1371 H 131.579 -2.91144 0.635542 0
M  V30 1372 H 129.116 -1.4346 0.325206 0
M  V30 1373 H 131.074 -3.82276 -1.67095 0
M  V30 1374 H 129.704 -2.68751 -1.78809 0
M  V30 1375 H 128.756 -3.78615 0.368107 0
M  V30 1376 H 130.068 -4.98102 0.263842 0
M  V30 1377 H 129.222 -5.73948 -1.96643 0
M  V30 1378 H 127.961 -4.47458 -1.9399 0
M  V30 1379 H 126.966 -5.49656 0.126003 0
M  V30 1380 H 128.191 -6.79052 0.080947 0
M  V30 1381 H 126.137 -6.21851 -2.08895 0
M  V30 1382 H 126.054 -7.50281 -0.928137 0
M  V30 1383 H 127.322 -7.50194 -2.11731 0
M  V30 1384 N 131.551 -0.354651 -1.53558 0
M  V30 1385 C 132.484 0.540273 -2.21712 0
M  V30 1386 C 133.462 1.09161 -1.2051 0
M  V30 1387 O 134.646 1.14979 -1.49372 0
M  V30 1388 C 131.773 1.74435 -2.90328 0
M  V30 1389 C 130.819 1.32146 -4.05512 0
M  V30 1390 S 131.652 0.331924 -5.3447 0
M  V30 1391 C 132.808 1.54258 -6.06593 0
M  V30 1392 H 133.041 -0.0385776 -2.97275 0
M  V30 1393 H 130.574 -0.138736 -1.53775 0
M  V30 1394 H 132.532 2.43507 -3.30476 0
M  V30 1395 H 131.193 2.29444 -2.1451 0
M  V30 1396 H 130.386 2.21952 -4.52497 0
M  V30 1397 H 129.988 0.710091 -3.67197 0
M  V30 1398 H 132.28 2.47534 -6.30661 0
M  V30 1399 H 133.223 1.11431 -6.99277 0
M  V30 1400 H 133.631 1.74367 -5.36895 0
M  V30 1401 N 133.029 1.57378 -0.0835403 0
M  V30 1402 C 134.275 1.94217 0.583733 0
M  V30 1403 C 134.608 0.964653 1.68547 0
M  V30 1404 O 133.883 -0.00422258 1.945 0
M  V30 1405 C 134.166 3.41253 1.14972 0
M  V30 1406 C 134.019 4.49768 0.0538277 0
M  V30 1407 C 135.338 3.89352 2.05166 0
M  V30 1408 H 132.457 0.706233 0.210724 0
M  V30 1409 H 135.099 1.89392 -0.1519 0
M  V30 1410 H 133.249 3.45496 1.77665 0
M  V30 1411 H 134.921 4.57641 -0.579851 0
M  V30 1412 H 133.164 4.29432 -0.614068 0
M  V30 1413 H 133.835 5.49817 0.490452 0
M  V30 1414 H 136.311 3.87189 1.52393 0
M  V30 1415 H 135.187 4.92822 2.41698 0
M  V30 1416 H 135.448 3.27973 2.96456 0
M  V30 1417 N 134.507 -0.190092 1.56449 0
M  V30 1418 C 135.735 -0.925772 1.85033 0
M  V30 1419 C 136.15 -1.76638 0.666658 0
M  V30 1420 O 135.507 -1.78822 -0.364565 0
M  V30 1421 C 135.558 -1.81786 3.12468 0
M  V30 1422 O 135.279 -1.01118 4.26271 0
M  V30 1423 C 136.78 -2.6648 3.54265 0
M  V30 1424 H 134 -0.269872 0.614337 0
M  V30 1425 H 136.544 -0.195837 2.0356 0
M  V30 1426 H 134.699 -2.50136 2.95822 0
M  V30 1427 H 135.113 -1.61956 4.98869 0
M  V30 1428 H 136.587 -3.24722 4.46385 0
M  V30 1429 H 137.064 -3.40434 2.77491 0
M  V30 1430 H 137.67 -2.03493 3.73458 0
M  V30 1431 N 135.985 -1.50799 -0.457987 0
M  V30 1432 C 137.262 -1.52968 -1.21902 0
M  V30 1433 C 137.642 -0.281906 -2.09209 0
M  V30 1434 O 136.99 0.734076 -2.16388 0
M  V30 1435 C 137.2 -2.8326 -2.03875 0
M  V30 1436 C 138.548 -3.34425 -2.6162 0
M  V30 1437 O 139.572 -2.8467 -2.14106 0
M  V30 1438 O 138.431 -4.21188 -3.48228 0
M  V30 1439 H 135.525 -0.614129 -0.553873 0
M  V30 1440 H 138.071 -1.63098 -0.468739 0
M  V30 1441 H 136.843 -3.65543 -1.39621 0
M  V30 1442 H 136.466 -2.76195 -2.8601 0
M  V30 1443 N 137.463 0.71206 -1.40597 0
M  V30 1444 C 138.393 1.83889 -1.43899 0
M  V30 1445 C 139.374 1.67442 -0.299504 0
M  V30 1446 O 140.559 1.87421 -0.508624 0
M  V30 1447 C 137.689 3.21877 -1.30431 0
M  V30 1448 C 136.643 3.53002 -2.42019 0
M  V30 1449 C 135.969 4.90172 -2.13626 0
M  V30 1450 C 137.269 3.53643 -3.84362 0
M  V30 1451 H 138.963 1.81383 -2.38203 0
M  V30 1452 H 136.509 0.871237 -1.14654 0
M  V30 1453 H 138.462 4.00404 -1.31357 0
M  V30 1454 H 137.186 3.24968 -0.326049 0
M  V30 1455 H 135.845 2.76818 -2.40349 0
M  V30 1456 H 135.493 4.89869 -1.14182 0
M  V30 1457 H 135.193 5.11962 -2.88389 0
M  V30 1458 H 136.717 5.71028 -2.1624 0
M  V30 1459 H 138.131 4.22203 -3.87837 0
M  V30 1460 H 136.528 3.86961 -4.58673 0
M  V30 1461 H 137.598 2.52954 -4.13693 0
M  V30 1462 N 138.941 1.26152 0.944643 0
M  V30 1463 C 140.19 1.10883 1.68487 0
M  V30 1464 C 140.503 -0.348153 1.92477 0
M  V30 1465 O 141.709 -0.621459 2.64292 0
M  V30 1466 C 140.165 1.93624 3.03377 0
M  V30 1467 C 139.773 3.43875 2.87148 0
M  V30 1468 C 141.517 1.86954 3.81115 0
M  V30 1469 C 139.424 4.18875 4.1749 0
M  V30 1470 H 138.354 0.41135 0.631907 0
M  V30 1471 H 141.005 1.50433 1.05082 0
M  V30 1472 H 139.387 1.46904 3.67743 0
M  V30 1473 H 140.561 3.98338 2.31653 0
M  V30 1474 H 138.876 3.51744 2.22856 0
M  V30 1475 H 141.473 2.40275 4.77673 0
M  V30 1476 H 141.816 0.839518 4.07747 0
M  V30 1477 H 142.349 2.31477 3.23517 0
M  V30 1478 H 139.088 5.22332 3.96043 0
M  V30 1479 H 138.608 3.69193 4.72712 0
M  V30 1480 H 140.287 4.27134 4.85968 0
M  V30 1481 N 140.419 -1.14872 1.07899 0
M  V30 1482 C 141.329 -2.2341 0.715915 0
M  V30 1483 C 142.345 -1.71808 -0.275306 0
M  V30 1484 O 143.521 -2.01039 -0.120545 0
M  V30 1485 C 140.586 -3.46474 0.125168 0
M  V30 1486 C 139.647 -4.13039 1.17034 0
M  V30 1487 C 138.88 -5.30229 0.607688 0
M  V30 1488 O 139.103 -5.675 -0.574497 0
M  V30 1489 O 138.037 -5.86444 1.35526 0
M  V30 1490 H 141.863 -2.56808 1.62121 0
M  V30 1491 H 139.448 -1.22702 0.852322 0
M  V30 1492 H 141.33 -4.20917 -0.201729 0
M  V30 1493 H 140.005 -3.14811 -0.753364 0
M  V30 1494 H 138.912 -3.40493 1.54968 0
M  V30 1495 H 140.245 -4.48796 2.02097 0
M  V30 1496 N 141.898 -0.863906 -1.31812 0
M  V30 1497 C 142.861 -0.320212 -2.26952 0
M  V30 1498 C 143.861 0.525369 -1.51975 0
M  V30 1499 O 145.051 0.335547 -1.70938 0
M  V30 1500 C 142.183 0.545919 -3.365 0
M  V30 1501 H 143.376 -1.16004 -2.76556 0
M  V30 1502 H 140.929 -0.638995 -1.42641 0
M  V30 1503 H 141.664 1.40718 -2.92179 0
M  V30 1504 H 141.449 -0.0594674 -3.92055 0
M  V30 1505 H 142.939 0.918796 -4.07367 0
M  V30 1506 N 143.376 1.44774 -0.622745 0
M  V30 1507 C 144.308 2.28856 0.125485 0
M  V30 1508 C 145.321 1.40811 0.817069 0
M  V30 1509 O 146.51 1.65044 0.679918 0
M  V30 1510 C 143.61 3.16963 1.19949 0
M  V30 1511 C 142.783 4.33374 0.592064 0
M  V30 1512 C 141.842 5.02577 1.55893 0
M  V30 1513 O 140.868 5.58873 1.07933 0
M  V30 1514 N 142.07 5.03256 2.89334 0
M  V30 1515 H 144.835 2.93713 -0.596068 0
M  V30 1516 H 142.396 1.55129 -0.463303 0
M  V30 1517 H 144.388 3.60123 1.84644 0
M  V30 1518 H 142.958 2.53913 1.82337 0
M  V30 1519 H 142.178 3.93509 -0.233322 0
M  V30 1520 H 143.466 5.08527 0.166738 0
M  V30 1521 H 142.864 4.58836 3.30887 0
M  V30 1522 H 141.421 5.50232 3.49412 0
M  V30 1523 N 144.854 0.36279 1.53368 0
M  V30 1524 C 145.801 -0.485008 2.25646 0
M  V30 1525 C 146.771 -1.07982 1.2621 0
M  V30 1526 O 147.956 -1.11284 1.54986 0
M  V30 1527 C 145.096 -1.62023 3.04701 0
M  V30 1528 C 144.209 -1.05086 4.19024 0
M  V30 1529 C 143.344 -2.15496 4.85525 0
M  V30 1530 C 142.383 -1.5601 5.91884 0
M  V30 1531 N 141.52 -2.60241 6.52088 0
M  V30 1532 H 146.36 0.137864 2.97681 0
M  V30 1533 H 143.897 0.0798061 1.46883 0
M  V30 1534 H 145.855 -2.28887 3.48807 0
M  V30 1535 H 144.485 -2.2138 2.34927 0
M  V30 1536 H 143.537 -0.27259 3.79422 0
M  V30 1537 H 144.849 -0.575926 4.95464 0
M  V30 1538 H 144.003 -2.90186 5.32801 0
M  V30 1539 H 142.742 -2.66341 4.08551 0
M  V30 1540 H 141.747 -0.798338 5.43973 0
M  V30 1541 H 142.972 -1.05994 6.70777 0
M  V30 1542 H 140.918 -3.10304 5.77968 0
M  V30 1543 H 140.835 -2.17426 7.24059 0
M  V30 1544 H 142.103 -3.34641 7.04014 0
M  V30 1545 N 146.332 -1.57332 0.0918853 0
M  V30 1546 C 147.748 -1.57389 -0.264766 0
M  V30 1547 C 147.948 -1.10281 -1.68643 0
M  V30 1548 O 147.004 -0.777801 -2.40222 0
M  V30 1549 C 148.317 -3.00648 -0.0561195 0
M  V30 1550 C 149.865 -3.12754 -0.124116 0
M  V30 1551 C 150.34 -4.57965 0.0564972 0
M  V30 1552 N 151.831 -4.632 0.00155611 0
M  V30 1553 C 152.566 -5.73281 0.116598 0
M  V30 1554 N 152.062 -6.92208 0.286294 0
M  V30 1555 N 153.855 -5.6207 0.0580973 0
M  V30 1556 H 146.006 -1.86262 1.02079 0
M  V30 1557 H 148.269 -0.859579 0.399786 0
M  V30 1558 H 147.975 -3.393 0.925669 0
M  V30 1559 H 147.849 -3.68623 -0.799823 0
M  V30 1560 H 150.236 -2.73976 -1.09641 0
M  V30 1561 H 150.317 -2.47377 0.651024 0
M  V30 1562 H 149.961 -4.97436 1.02564 0
M  V30 1563 H 149.891 -5.21399 -0.738297 0
M  V30 1564 H 152.382 -3.77686 -0.127192 0
M  V30 1565 H 152.695 -7.71934 0.365676 0
M  V30 1566 H 151.04 -6.94254 0.32192 0
M  V30 1567 H 154.231 -4.68043 -0.0733204 0
M  V30 1568 H 154.404 -6.47824 0.151203 0
M  V30 1569 N 147.81 0.181792 -1.56548 0
M  V30 1570 C 149.038 0.915947 -1.85521 0
M  V30 1571 C 149.453 1.76282 -0.676016 0
M  V30 1572 O 148.81 1.79012 0.355077 0
M  V30 1573 C 148.861 1.80126 -3.13427 0
M  V30 1574 O 148.582 0.988562 -4.26801 0
M  V30 1575 C 150.083 2.64597 -3.55673 0
M  V30 1576 H 147.303 0.26661 -0.61576 0
M  V30 1577 H 149.847 0.185039 -2.03661 0
M  V30 1578 H 148.002 2.48563 -2.97145 0
M  V30 1579 H 148.416 1.59308 -4.99721 0
M  V30 1580 H 149.89 3.2235 -4.48101 0
M  V30 1581 H 150.367 3.38958 -2.79292 0
M  V30 1582 H 150.973 2.0151 -3.74532 0
M  V30 1583 N 149.288 1.51039 0.449983 0
M  V30 1584 C 150.536 1.62759 1.19808 0
M  V30 1585 C 150.857 0.339981 1.92013 0
M  V30 1586 O 150.127 -0.643606 1.85026 0
M  V30 1587 H 148.707 0.599811 0.445237 0
M  V30 1588 H 151.369 1.87914 0.517138 0
M  V30 1589 H 150.465 2.44911 1.93455 0
M  V30 1590 N 150.766 -0.704594 1.40972 0
M  V30 1591 C 152.015 -1.46018 1.39146 0
M  V30 1592 C 152.328 -1.956 0.000589254 0
M  V30 1593 O 153.534 -2.71137 -0.1403 0
M  V30 1594 C 151.99 -2.63996 2.4461 0
M  V30 1595 C 151.598 -2.21238 3.89561 0
M  V30 1596 C 153.342 -3.41677 2.51907 0
M  V30 1597 C 151.249 -3.3612 4.86598 0
M  V30 1598 H 150.179 -0.548444 0.517422 0
M  V30 1599 H 152.83 -0.765784 1.66757 0
M  V30 1600 H 151.212 -3.3566 2.10115 0
M  V30 1601 H 152.386 -1.56923 4.33257 0
M  V30 1602 H 150.701 -1.56574 3.85841 0
M  V30 1603 H 153.298 -4.27182 3.2159 0
M  V30 1604 H 153.641 -3.86247 1.55303 0
M  V30 1605 H 154.174 -2.77064 2.85448 0
M  V30 1606 H 150.913 -2.96572 5.84573 0
M  V30 1607 H 150.433 -3.99315 4.47557 0
M  V30 1608 H 152.112 -4.02029 5.06934 0
M  V30 1609 N 152.244 -1.26651 -0.937939 0
M  V30 1610 C 153.521 -1.0313 -1.66204 0
M  V30 1611 C 153.901 0.437256 -2.06522 0
M  V30 1612 O 153.249 1.41831 -1.79154 0
M  V30 1613 C 153.459 -1.98314 -2.87181 0
M  V30 1614 C 154.807 -2.27107 -3.58758 0
M  V30 1615 O 155.831 -1.96205 -2.97291 0
M  V30 1616 O 154.69 -2.79736 -4.69479 0
M  V30 1617 H 151.784 -0.392384 -0.727986 0
M  V30 1618 H 154.33 -1.37874 -0.989382 0
M  V30 1619 H 153.102 -2.97399 -2.54302 0
M  V30 1620 H 152.725 -1.64068 -3.6217 0
M  V30 1621 N 153.722 1.14298 -1.08507 0
M  V30 1622 C 154.685 2.17607 -0.719711 0
M  V30 1623 C 155.685 1.58907 0.245997 0
M  V30 1624 O 156.875 1.74181 0.0254081 0
M  V30 1625 C 154.007 3.40842 -0.0627695 0
M  V30 1626 H 155.2 2.51443 -1.63452 0
M  V30 1627 H 152.753 1.28963 -0.88307 0
M  V30 1628 H 153.488 3.12587 0.863716 0
M  V30 1629 H 153.273 3.84713 -0.757504 0
M  V30 1630 H 154.763 4.17221 0.177786 0
M  V30 1631 N 155.201 0.870884 1.31352 0
M  V30 1632 C 156.426 0.495957 2.01383 0
M  V30 1633 C 156.851 -0.904324 1.64935 0
M  V30 1634 O 156.209 -1.59687 0.858466 0
M  V30 1635 C 156.257 0.661433 3.54482 0
M  V30 1636 O 155.361 -0.298851 4.11316 0
M  V30 1637 H 154.702 0.197158 0.634054 0
M  V30 1638 H 157.232 1.17455 1.67527 0
M  V30 1639 H 157.242 0.555072 4.04207 0
M  V30 1640 H 155.917 1.68246 3.8035 0
M  V30 1641 H 154.494 -0.147368 3.72609 0
M  V30 1642 N 156.679 -1.44442 0.630414 0
M  V30 1643 C 158.095 -1.56832 0.295973 0
M  V30 1644 C 158.295 -1.61806 -1.20088 0
M  V30 1645 O 157.351 -1.5607 -1.9849 0
M  V30 1646 C 158.664 -2.84031 0.987264 0
M  V30 1647 C 160.212 -2.97742 0.96534 0
M  V30 1648 C 160.687 -4.27743 1.63708 0
M  V30 1649 N 162.178 -4.34555 1.60364 0
M  V30 1650 C 162.913 -5.33862 2.09234 0
M  V30 1651 N 162.409 -6.39578 2.66292 0
M  V30 1652 N 164.202 -5.25366 1.99867 0
M  V30 1653 H 156.353 -1.39457 1.60205 0
M  V30 1654 H 158.616 -0.668237 0.672431 0
M  V30 1655 H 158.322 -2.86338 2.04215 0
M  V30 1656 H 158.196 -3.73534 0.524588 0
M  V30 1657 H 160.583 -2.94989 -0.0810639 0
M  V30 1658 H 160.664 -2.09589 1.4665 0
M  V30 1659 H 160.308 -4.31255 2.68293 0
M  V30 1660 H 160.238 -5.14752 1.11076 0
M  V30 1661 H 162.729 -3.58772 1.18705 0
M  V30 1662 H 163.042 -7.11637 3.01317 0
M  V30 1663 H 161.387 -6.40265 2.70343 0
M  V30 1664 H 164.578 -4.41688 1.55013 0
M  V30 1665 H 164.751 -6.02606 2.38265 0
M  V30 1666 N 158.157 -0.370918 -1.53173 0
M  V30 1667 C 159.406 0.218249 -2.00516 0
M  V30 1668 C 159.719 1.49429 -1.26215 0
M  V30 1669 O 160.925 2.16239 -1.64174 0
M  V30 1670 C 159.381 0.43948 -3.57207 0
M  V30 1671 C 158.989 -0.822244 -4.4039 0
M  V30 1672 C 160.733 0.986012 -4.1289 0
M  V30 1673 C 158.64 -0.570304 -5.88644 0
M  V30 1674 H 157.57 0.0853333 -0.749156 0
M  V30 1675 H 160.221 -0.490483 -1.76823 0
M  V30 1676 H 158.603 1.20961 -3.77074 0
M  V30 1677 H 159.777 -1.59557 -4.32294 0
M  V30 1678 H 158.092 -1.29238 -3.95836 0
M  V30 1679 H 160.689 1.18991 -5.21292 0
M  V30 1680 H 161.032 1.94972 -3.6782 0
M  V30 1681 H 161.565 0.27592 -3.96842 0
M  V30 1682 H 158.304 -1.50449 -6.38001 0
M  V30 1683 H 157.824 0.164427 -5.99575 0
M  V30 1684 H 159.503 -0.19784 -6.46697 0
M  V30 1685 N 159.635 1.57281 -0.100228 0
M  V30 1686 C 160.882 1.94537 0.562268 0
M  V30 1687 C 161.21 0.982315 1.67871 0
M  V30 1688 O 160.465 0.00280936 1.957 0
M  V30 1689 C 160.764 3.38305 1.15259 0
M  V30 1690 C 160.43 4.50618 0.159409 0
M  V30 1691 C 159.092 4.81066 -0.113741 0
M  V30 1692 C 161.444 5.18615 -0.518461 0
M  V30 1693 C 158.772 5.76835 -1.07137 0
M  V30 1694 C 161.124 6.15412 -1.46459 0
M  V30 1695 C 159.788 6.44262 -1.74592 0
M  V30 1696 H 159.058 0.711863 0.205748 0
M  V30 1697 H 161.705 1.90679 -0.17715 0
M  V30 1698 H 160.01 3.38766 1.96836 0
M  V30 1699 H 161.707 3.64435 1.67297 0
M  V30 1700 H 158.297 4.2689 0.382491 0
M  V30 1701 H 162.481 4.95264 -0.320581 0
M  V30 1702 H 157.737 5.975 -1.29628 0
M  V30 1703 H 161.911 6.67194 -1.99564 0
M  V30 1704 H 159.538 7.1828 -2.48953 0
M  V30 1705 N 161.113 -0.173488 1.56642 0
M  V30 1706 C 162.043 -1.2171 1.99271 0
M  V30 1707 C 163.024 -1.46289 0.867959 0
M  V30 1708 O 164.209 -1.5766 1.13388 0
M  V30 1709 C 161.339 -2.55651 2.35074 0
M  V30 1710 C 160.293 -2.45645 3.50489 0
M  V30 1711 C 159.619 -3.84056 3.72028 0
M  V30 1712 C 160.919 -1.96302 4.84007 0
M  V30 1713 H 162.613 -0.86275 2.867 0
M  V30 1714 H 160.159 -0.413571 1.37933 0
M  V30 1715 H 162.112 -3.2886 2.63494 0
M  V30 1716 H 160.836 -2.92869 1.44552 0
M  V30 1717 H 159.495 -1.7489 3.22194 0
M  V30 1718 H 159.143 -4.18664 2.788 0
M  V30 1719 H 158.843 -3.7823 4.49684 0
M  V30 1720 H 160.367 -4.58854 4.02846 0
M  V30 1721 H 161.781 -2.59284 5.11317 0
M  V30 1722 H 160.178 -2.01429 5.65284 0
M  V30 1723 H 161.248 -0.917226 4.76146 0
M  V30 1724 N 162.591 -1.51276 -0.441967 0
M  V30 1725 C 163.554 -1.7167 -1.51862 0
M  V30 1726 C 164.554 -0.586793 -1.49711 0
M  V30 1727 O 165.744 -0.854276 -1.51815 0
M  V30 1728 C 162.876 -1.76889 -2.91416 0
M  V30 1729 H 164.069 -2.67754 -1.35084 0
M  V30 1730 H 161.622 -1.41196 -0.670333 0
M  V30 1731 H 162.357 -0.826026 -3.13604 0
M  V30 1732 H 162.142 -2.59001 -2.94382 0
M  V30 1733 H 163.632 -1.94522 -3.69528 0
M  V30 1734 N 164.069 0.697108 -1.41344 0
M  V30 1735 C 165.317 1.45426 -1.40341 0
M  V30 1736 C 165.638 1.94996 -0.0128787 0
M  V30 1737 O 164.908 1.71599 0.945027 0
M  V30 1738 H 163.488 0.539594 -0.516573 0
M  V30 1739 H 166.15 0.825201 -1.76569 0
M  V30 1740 H 165.246 2.31817 -2.08967 0
M  V30 1741 N 165.547 1.27147 0.931209 0
M  V30 1742 C 166.794 1.13278 1.67852 0
M  V30 1743 C 167.122 -0.32204 1.91815 0
M  V30 1744 O 166.377 -1.25224 1.50391 0
M  V30 1745 C 166.676 1.8579 3.05314 0
M  V30 1746 C 166.342 3.35657 3.01073 0
M  V30 1747 C 165.004 3.76536 2.99623 0
M  V30 1748 C 167.356 4.31299 2.92627 0
M  V30 1749 C 164.684 5.11426 2.87506 0
M  V30 1750 C 167.036 5.66242 2.82051 0
M  V30 1751 C 165.7 6.06418 2.7895 0
M  V30 1752 H 164.97 0.414515 0.614214 0
M  V30 1753 H 167.617 1.57712 1.08624 0
M  V30 1754 H 165.922 1.33854 3.68226 0
M  V30 1755 H 167.619 1.72491 3.62005 0
M  V30 1756 H 164.209 3.03146 3.02986 0
M  V30 1757 H 168.393 4.00692 2.92848 0
M  V30 1758 H 163.649 5.41705 2.83489 0
M  V30 1759 H 167.823 6.40026 2.74481 0
M  V30 1760 H 165.45 7.10895 2.69318 0
M  V30 1761 N 167.025 -1.13721 1.09112 0
M  V30 1762 C 168.25 -1.89314 0.847053 0
M  V30 1763 C 168.675 -1.78416 -0.595774 0
M  V30 1764 O 168.033 -1.12942 -1.41823 0
M  V30 1765 C 168.081 -3.3701 1.28284 0
M  V30 1766 O 167.185 -4.10054 0.439267 0
M  V30 1767 H 166.526 -0.588745 0.307044 0
M  V30 1768 H 169.056 -1.43902 1.45442 0
M  V30 1769 H 169.066 -3.87834 1.26683 0
M  V30 1770 H 167.741 -3.4426 2.33363 0
M  V30 1771 H 166.318 -3.69266 0.519312 0
M  V30 1772 N 168.503 -0.877838 -1.30888 0
M  V30 1773 C 169.435 -0.296607 -2.27273 0
M  V30 1774 C 170.448 0.544799 -1.53414 0
M  V30 1775 O 171.637 0.365511 -1.74718 0
M  V30 1776 C 168.737 0.597481 -3.33592 0
M  V30 1777 C 167.91 -0.213251 -4.3688 0
M  V30 1778 C 166.969 0.610208 -5.2265 0
M  V30 1779 O 165.995 0.035441 -5.69189 0
M  V30 1780 N 167.197 1.92071 -5.47804 0
M  V30 1781 H 169.962 -1.12492 -2.77787 0
M  V30 1782 H 167.523 -0.740105 -1.43993 0
M  V30 1783 H 169.515 1.15425 -3.87891 0
M  V30 1784 H 168.085 1.32647 -2.83061 0
M  V30 1785 H 167.305 -0.951466 -3.82545 0
M  V30 1786 H 168.593 -0.769262 -5.02951 0
M  V30 1787 H 167.991 2.4107 -5.11763 0
M  V30 1788 H 166.548 2.42508 -6.05007 0
M  V30 1789 N 169.982 1.44106 -0.638065 0
M  V30 1790 C 171.23 2.01579 -0.145043 0
M  V30 1791 C 171.551 1.50496 1.24 0
M  V30 1792 O 170.821 0.711374 1.82527 0
M  V30 1793 H 169.401 0.745282 -0.05063 0
M  V30 1794 H 172.063 1.76516 -0.826327 0
M  V30 1795 H 171.159 3.11877 -0.118039 0
M  V30 1796 N 171.46 0.379036 1.52974 0
M  V30 1797 C 172.708 -0.206014 2.01047 0
M  V30 1798 C 173.029 -1.48175 1.26765 0
M  V30 1799 O 172.299 -1.92085 0.384743 0
M  V30 1800 H 170.879 -0.0791184 0.742798 0
M  V30 1801 H 173.541 0.508366 1.88153 0
M  V30 1802 H 172.637 -0.423501 3.09213 0
M  V30 1803 N 172.938 -1.57226 0.108567 0
M  V30 1804 C 173.901 -2.13602 -0.831082 0
M  V30 1805 C 174.901 -1.06841 -1.20173 0
M  V30 1806 O 176.091 -1.32666 -1.12895 0
M  V30 1807 C 173.223 -2.66769 -2.12243 0
M  V30 1808 H 174.416 -2.97951 -0.341317 0
M  V30 1809 H 171.969 -1.55667 -0.14057 0
M  V30 1810 H 172.704 -1.85977 -2.65675 0
M  V30 1811 H 172.489 -3.44839 -1.86625 0
M  V30 1812 H 173.979 -3.10332 -2.79435 0
M  V30 1813 N 174.416 0.165178 -1.56732 0
M  V30 1814 C 175.662 0.882112 -1.82611 0
M  V30 1815 C 175.995 1.81628 -0.687378 0
M  V30 1816 O 175.27 1.92009 0.310267 0
M  V30 1817 C 175.553 1.67245 -3.18906 0
M  V30 1818 C 175.406 0.760987 -4.43316 0
M  V30 1819 C 176.725 2.63884 -3.52212 0
M  V30 1820 H 173.844 0.319242 -0.664269 0
M  V30 1821 H 176.486 0.148052 -1.89422 0
M  V30 1822 H 174.636 2.29824 -3.1323 0
M  V30 1823 H 176.308 0.147596 -4.61064 0
M  V30 1824 H 174.551 0.0694102 -4.33744 0
M  V30 1825 H 175.222 1.34962 -5.35247 0
M  V30 1826 H 177.698 2.11429 -3.58381 0
M  V30 1827 H 176.574 3.16245 -4.48643 0
M  V30 1828 H 176.835 3.44377 -2.77231 0
M  V30 1829 N 175.894 1.51508 0.433938 0
M  V30 1830 C 177.14 1.64588 1.18484 0
M  V30 1831 C 177.473 0.362666 1.90784 0
M  V30 1832 O 176.748 -0.637892 1.83742 0
M  V30 1833 C 177.031 2.85149 2.19913 0
M  V30 1834 C 176.884 4.23456 1.51674 0
M  V30 1835 C 178.203 3.01227 3.20858 0
M  V30 1836 H 175.322 0.598994 0.429389 0
M  V30 1837 H 177.964 1.84002 0.473647 0
M  V30 1838 H 176.114 2.68729 2.80566 0
M  V30 1839 H 177.786 4.51552 0.943322 0
M  V30 1840 H 176.029 4.25998 0.819035 0
M  V30 1841 H 176.7 5.03812 2.2556 0
M  V30 1842 H 179.176 3.16382 2.70263 0
M  V30 1843 H 178.052 3.87141 3.89118 0
M  V30 1844 H 178.313 2.13447 3.8716 0
M  V30 1845 N 177.372 -0.689602 1.41712 0
M  V30 1846 C 178.619 -1.44966 1.4139 0
M  V30 1847 C 178.947 -1.94484 0.025105 0
M  V30 1848 O 178.202 -1.70307 -0.964048 0
M  V30 1849 C 178.501 -2.67298 2.37247 0
M  V30 1850 C 178.167 -2.36405 3.83958 0
M  V30 1851 C 176.829 -2.27691 4.23923 0
M  V30 1852 C 179.181 -2.11043 4.76561 0
M  V30 1853 C 176.509 -1.91719 5.54492 0
M  V30 1854 C 178.861 -1.76578 6.07456 0
M  V30 1855 C 177.525 -1.66363 6.46436 0
M  V30 1856 H 176.795 -0.53047 0.517381 0
M  V30 1857 H 179.442 -0.787655 1.74552 0
M  V30 1858 H 177.747 -3.38461 1.9736 0
M  V30 1859 H 179.444 -3.25452 2.34269 0
M  V30 1860 H 176.034 -2.44085 3.52308 0
M  V30 1861 H 180.218 -2.16717 4.46483 0
M  V30 1862 H 175.474 -1.82367 5.83568 0
M  V30 1863 H 179.648 -1.55974 6.78708 0
M  V30 1864 H 177.275 -1.38258 7.47522 0
M  V30 1865 N 178.85 -1.27639 -0.924453 0
M  V30 1866 C 179.8 -1.07295 -2.01176 0
M  V30 1867 C 180.784 5.77352e-05 -1.609 0
M  V30 1868 O 181.976 -0.218855 -1.75642 0
M  V30 1869 C 179.105 -0.725592 -3.35544 0
M  V30 1870 C 178.191 -1.83691 -3.82254 0
M  V30 1871 N 178.582 -3.07697 -4.01443 0
M  V30 1872 C 176.88 -1.72433 -4.11319 0
M  V30 1873 C 177.581 -3.80037 -4.40394 0
M  V30 1874 N 176.557 -3.0782 -4.48049 0
M  V30 1875 H 180.359 -2.01399 -2.14046 0
M  V30 1876 H 177.873 -1.18401 -1.11153 0
M  V30 1877 H 179.87 -0.560959 -4.13109 0
M  V30 1878 H 178.53 0.207782 -3.24034 0
M  V30 1879 H 179.541 -3.43424 -3.8766 0
M  V30 1880 H 176.218 -0.862005 -4.08504 0
M  V30 1881 H 177.608 -4.86632 -4.63291 0
M  V30 1882 N 180.328 1.1314 -1.09713 0
M  V30 1883 C 181.556 1.88321 -0.856898 0
M  V30 1884 C 181.971 1.79276 0.592073 0
M  V30 1885 O 181.328 1.16142 1.40774 0
M  V30 1886 C 181.379 3.37812 -1.28706 0
M  V30 1887 O 181.1 3.46627 -2.67921 0
M  V30 1888 C 182.601 4.29952 -1.07964 0
M  V30 1889 H 179.821 0.596094 -0.308079 0
M  V30 1890 H 182.365 1.43205 -1.45988 0
M  V30 1891 H 180.52 3.805 -0.727912 0
M  V30 1892 H 180.934 4.39579 -2.8613 0
M  V30 1893 H 182.408 5.33159 -1.42986 0
M  V30 1894 H 182.885 4.39196 -0.0176577 0
M  V30 1895 H 183.491 3.93036 -1.62489 0
M  V30 1896 N 181.806 0.884767 1.30421 0
M  V30 1897 C 182.769 0.356277 2.26414 0
M  V30 1898 C 183.769 -0.501124 1.52792 0
M  V30 1899 O 184.959 -0.30831 1.7145 0
M  V30 1900 C 182.091 -0.492316 3.37326 0
M  V30 1901 H 183.284 1.20389 2.74675 0
M  V30 1902 H 180.837 0.661607 1.41607 0
M  V30 1903 H 181.572 -1.36052 2.94381 0
M  V30 1904 H 181.357 0.121832 3.91911 0
M  V30 1905 H 182.847 -0.853871 4.08777 0
M  V30 1906 N 183.284 -1.43765 0.645699 0
M  V30 1907 C 184.531 -2.01898 0.15604 0
M  V30 1908 C 184.859 -1.50887 -1.22733 0
M  V30 1909 O 184.114 -0.689271 -1.8316 0
M  V30 1910 C 184.413 -3.57238 0.107679 0
M  V30 1911 C 184.079 -4.27564 1.43178 0
M  V30 1912 C 182.741 -4.46492 1.7944 0
M  V30 1913 C 185.093 -4.67454 2.30513 0
M  V30 1914 C 182.421 -5.02573 3.02716 0
M  V30 1915 C 184.773 -5.24901 3.53074 0
M  V30 1916 C 183.437 -5.42046 3.89541 0
M  V30 1917 H 182.707 -0.738797 0.057099 0
M  V30 1918 H 185.354 -1.72341 0.834912 0
M  V30 1919 H 183.659 -3.86293 -0.654618 0
M  V30 1920 H 185.356 -3.99965 -0.287938 0
M  V30 1921 H 181.946 -4.13171 1.13963 0
M  V30 1922 H 186.13 -4.5253 2.0379 0
M  V30 1923 H 181.386 -5.14033 3.31028 0
M  V30 1924 H 185.56 -5.54758 4.20971 0
M  V30 1925 H 183.187 -5.85268 4.85145 0
M  V30 1926 N 184.763 -0.387143 -1.52771 0
M  V30 1927 C 186.012 0.19697 -2.00736 0
M  V30 1928 C 186.325 1.48082 -1.27793 0
M  V30 1929 O 187.531 2.14485 -1.66458 0
M  V30 1930 C 185.987 0.401568 -3.57653 0
M  V30 1931 C 185.595 -0.868907 -4.39493 0
M  V30 1932 C 187.339 0.942164 -4.13912 0
M  V30 1933 C 185.246 -0.632705 -5.88006 0
M  V30 1934 H 184.176 0.0773827 -0.750019 0
M  V30 1935 H 186.827 -0.50921 -1.76293 0
M  V30 1936 H 185.209 1.16954 -3.78335 0
M  V30 1937 H 186.383 -1.64133 -4.30577 0
M  V30 1938 H 184.698 -1.33429 -3.94443 0
M  V30 1939 H 187.295 1.13455 -5.22525 0
M  V30 1940 H 187.638 1.9106 -3.69867 0
M  V30 1941 H 188.171 0.233814 -3.97112 0
M  V30 1942 H 184.91 -1.57208 -6.36369 0
M  V30 1943 H 184.43 0.100825 -5.99715 0
M  V30 1944 H 186.109 -0.26642 -6.46451 0
M  V30 1945 N 186.241 1.57166 -0.116904 0
M  V30 1946 C 187.189 2.16457 0.851418 0
M  V30 1947 C 188.183 1.11323 1.27686 0
M  V30 1948 O 189.389 1.2963 1.24884 0
M  V30 1949 H 185.764 0.69271 0.292672 0
M  V30 1950 H 187.735 2.96605 0.32685 0
M  V30 1951 C 186.484 2.77689 2.09246 0
M  V30 1952 H 185.807 3.58285 1.77402 0
M  V30 1953 H 187.247 3.22716 2.7501 0
M  V30 1954 C 185.706 1.74667 2.88085 0
M  V30 1955 O 186.236 1.19877 3.83396 0
M  V30 1956 N 184.442 1.44656 2.52038 0
M  V30 1957 H 183.989 1.89402 1.74599 0
M  V30 1958 H 183.947 0.759675 3.05084 0
M  V30 1959 N 187.719 -0.156864 1.56817 0
M  V30 1960 C 188.965 -0.867645 1.83966 0
M  V30 1961 C 189.32 -1.79233 0.699511 0
M  V30 1962 O 188.613 -1.89186 -0.303176 0
M  V30 1963 C 188.807 -1.68737 3.1506 0
M  V30 1964 C 188.636 -0.843548 4.41718 0
M  V30 1965 C 187.406 -0.512994 5.02689 0
M  V30 1966 C 189.604 -0.178416 5.1399 0
M  V30 1967 N 187.586 0.345456 6.12927 0
M  V30 1968 C 188.957 0.540586 6.17639 0
M  V30 1969 C 191.012 -0.0980696 4.97803 0
M  V30 1970 C 189.715 1.33233 7.06853 0
M  V30 1971 C 191.741 0.680387 5.87473 0
M  V30 1972 C 191.103 1.3877 6.90596 0
M  V30 1973 H 187.202 -0.295642 0.723961 0
M  V30 1974 H 189.786 -0.13365 1.94241 0
M  V30 1975 H 187.957 -2.39268 3.0595 0
M  V30 1976 H 189.689 -2.34056 3.30151 0
M  V30 1977 H 186.444 -0.846476 4.65974 0
M  V30 1978 H 186.868 0.765415 6.72659 0
M  V30 1979 H 191.51 -0.630562 4.18071 0
M  V30 1980 H 189.228 1.87612 7.8602 0
M  V30 1981 H 192.814 0.744415 5.77018 0
M  V30 1982 H 191.694 1.9804 7.58782 0
M  V30 1983 N 189.197 -1.51736 -0.425897 0
M  V30 1984 C 190.129 -1.70083 -1.53638 0
M  V30 1985 C 191.142 -0.581349 -1.52066 0
M  V30 1986 O 192.331 -0.856017 -1.56635 0
M  V30 1987 C 189.431 -1.71078 -2.9255 0
M  V30 1988 C 188.604 -2.99795 -3.185 0
M  V30 1989 C 187.663 -2.92825 -4.37196 0
M  V30 1990 O 186.689 -3.66756 -4.35291 0
M  V30 1991 N 187.891 -2.0946 -5.41393 0
M  V30 1992 H 190.656 -2.65882 -1.383 0
M  V30 1993 H 188.217 -1.49765 -0.614988 0
M  V30 1994 H 190.209 -1.63969 -3.69995 0
M  V30 1995 H 188.779 -0.828242 -3.01428 0
M  V30 1996 H 187.999 -3.20684 -2.2925 0
M  V30 1997 H 189.287 -3.84977 -3.32671 0
M  V30 1998 H 188.685 -1.48792 -5.45781 0
M  V30 1999 H 187.242 -2.08221 -6.17647 0
M  V30 2000 N 190.675 0.682077 -1.42076 0
M  V30 2001 C 191.923 1.4393 -1.41876 0
M  V30 2002 C 192.244 1.94971 -0.0335599 0
M  V30 2003 O 191.514 1.72591 0.926773 0
M  V30 2004 H 190.094 0.534085 -0.522267 0
M  V30 2005 H 192.756 0.806427 -1.77434 0
M  V30 2006 H 191.852 2.29588 -2.11414 0
M  V30 2007 N 192.153 1.28127 0.917671 0
M  V30 2008 C 193.564 1.13622 1.48145 0
M  V30 2009 C 193.915 -0.275207 1.9426 0
M  V30 2010 O 193.04 -1.1691 1.82102 0
M  V30 2011 C 193.635 2.05648 2.69248 0
M  V30 2012 C 192.194 1.95219 3.21818 0
M  V30 2013 C 191.341 1.97618 1.94532 0
M  V30 2014 H 194.292 1.40874 0.730772 0
M  V30 2015 H 194.313 1.61818 3.44377 0
M  V30 2016 H 193.825 3.08365 2.35653 0
M  V30 2017 H 191.926 0.955244 3.60147 0
M  V30 2018 H 192.039 2.81976 3.87333 0
M  V30 2019 H 190.403 1.41973 2.11461 0
M  V30 2020 H 191.186 3.02007 1.63238 0
M  V30 2021 N 193.631 -1.12557 1.10312 0
M  V30 2022 C 194.561 -2.20341 0.772798 0
M  V30 2023 C 195.542 -1.68198 -0.25365 0
M  V30 2024 O 196.727 -1.93831 -0.119699 0
M  V30 2025 C 193.857 -3.46709 0.202443 0
M  V30 2026 C 192.811 -4.11996 1.15943 0
M  V30 2027 C 192.137 -5.328 0.450345 0
M  V30 2028 C 193.437 -4.5828 2.50552 0
M  V30 2029 H 195.131 -2.48229 1.674 0
M  V30 2030 H 192.677 -1.19308 0.806326 0
M  V30 2031 H 194.63 -4.2138 -0.0407752 0
M  V30 2032 H 193.354 -3.18245 -0.734001 0
M  V30 2033 H 192.013 -3.39305 1.38808 0
M  V30 2034 H 191.661 -5.00602 -0.490531 0
M  V30 2035 H 191.361 -5.7743 1.08851 0
M  V30 2036 H 192.885 -6.10219 0.215642 0
M  V30 2037 H 194.299 -5.2433 2.31843 0
M  V30 2038 H 192.696 -5.13683 3.10242 0
M  V30 2039 H 193.766 -3.72329 3.10643 0
M  V30 2040 N 195.109 -0.891671 -1.2995 0
M  V30 2041 C 196.357 -0.512486 -1.95494 0
M  V30 2042 C 196.678 0.942776 -1.70695 0
M  V30 2043 O 195.948 1.66374 -1.03424 0
M  V30 2044 H 194.528 -0.186533 -0.723336 0
M  V30 2045 H 197.19 -1.13621 -1.58355 0
M  V30 2046 H 196.286 -0.688342 -3.04415 0
M  V30 2047 N 196.587 1.43421 -0.653314 0
M  V30 2048 C 197.835 2.01414 -0.166415 0
M  V30 2049 C 198.156 1.51803 1.22397 0
M  V30 2050 O 197.426 0.730693 1.81763 0
M  V30 2051 H 196.006 0.744703 -0.0585319 0
M  V30 2052 H 198.668 1.75629 -0.845003 0
M  V30 2053 H 197.764 3.11734 -0.151111 0
M  V30 2054 N 198.065 0.39524 1.52563 0
M  V30 2055 C 199.311 -0.185318 2.01952 0
M  V30 2056 C 199.644 -1.45964 1.28095 0
M  V30 2057 O 198.919 -1.90689 0.38315 0
M  V30 2058 C 199.202 -0.447193 3.57312 0
M  V30 2059 C 199.055 0.842828 4.41833 0
M  V30 2060 C 200.374 -1.23529 4.22408 0
M  V30 2061 H 197.493 -0.0658788 0.73405 0
M  V30 2062 H 200.135 0.525975 1.82575 0
M  V30 2063 H 198.285 -1.05312 3.73954 0
M  V30 2064 H 199.957 1.4795 4.36931 0
M  V30 2065 H 198.2 1.45686 4.08605 0
M  V30 2066 H 198.871 0.614165 5.48573 0
M  V30 2067 H 201.347 -0.722445 4.0978 0
M  V30 2068 H 200.223 -1.38727 5.3108 0
M  V30 2069 H 200.484 -2.25213 3.80436 0
M  V30 2070 N 199.544 -1.57102 0.125237 0
M  V30 2071 C 200.793 -1.94582 -0.531095 0
M  V30 2072 C 201.106 -1.01126 -1.6743 0
M  V30 2073 O 202.312 -1.28097 -2.39381 0
M  V30 2074 C 200.768 -3.45839 -0.996164 0
M  V30 2075 C 200.376 -4.47842 0.118926 0
M  V30 2076 C 202.12 -3.92227 -1.62352 0
M  V30 2077 C 200.027 -5.90284 -0.363192 0
M  V30 2078 H 198.957 -0.726391 -0.20217 0
M  V30 2079 H 201.608 -1.82339 0.206092 0
M  V30 2080 H 199.99 -3.53338 -1.78796 0
M  V30 2081 H 201.164 -4.52018 0.895358 0
M  V30 2082 H 199.479 -4.11243 0.653324 0
M  V30 2083 H 202.076 -4.96069 -1.99548 0
M  V30 2084 H 202.419 -3.32552 -2.50429 0
M  V30 2085 H 202.952 -3.87554 -0.897019 0
M  V30 2086 H 199.691 -6.53728 0.481679 0
M  V30 2087 H 199.211 -5.89515 -1.10597 0
M  V30 2088 H 200.89 -6.41752 -0.822377 0
M  V30 2089 N 201.022 0.148545 -1.56898 0
M  V30 2090 C 201.985 1.16736 -1.97244 0
M  V30 2091 C 202.985 1.35947 -0.858777 0
M  V30 2092 O 204.175 1.32966 -1.12542 0
M  V30 2093 C 201.307 2.52798 -2.28705 0
M  V30 2094 H 202.5 0.821279 -2.88435 0
M  V30 2095 H 200.053 0.391831 -1.51309 0
M  V30 2096 H 200.788 2.92381 -1.403 0
M  V30 2097 H 200.573 2.40216 -3.09901 0
M  V30 2098 H 202.063 3.26179 -2.60762 0
M  V30 2099 N 202.5 1.5196 0.417844 0
M  V30 2100 C 203.43 1.77634 1.51554 0
M  V30 2101 C 204.411 0.626918 1.58126 0
M  V30 2102 O 205.596 0.871632 1.7354 0
M  V30 2103 C 202.726 1.91911 2.8946 0
M  V30 2104 C 201.68 3.07463 2.97743 0
M  V30 2105 C 201.006 3.06951 4.37819 0
M  V30 2106 C 202.306 4.47082 2.70027 0
M  V30 2107 H 204 2.6955 1.3032 0
M  V30 2108 H 201.546 1.29706 0.625492 0
M  V30 2109 H 203.499 2.08455 3.6623 0
M  V30 2110 H 202.223 0.966598 3.11969 0
M  V30 2111 H 200.882 2.90656 2.23416 0
M  V30 2112 H 200.53 2.09438 4.57323 0
M  V30 2113 H 200.23 3.84556 4.44286 0
M  V30 2114 H 201.754 3.25613 5.16535 0
M  V30 2115 H 203.168 4.6414 3.36522 0
M  V30 2116 H 201.565 5.2654 2.87881 0
M  V30 2117 H 202.635 4.55777 1.65514 0
M  V30 2118 N 203.978 -0.674533 1.42435 0
M  V30 2119 C 205.203 -1.46784 1.46524 0
M  V30 2120 C 205.628 -1.87938 0.078066 0
M  V30 2121 O 204.986 -1.56014 -0.92354 0
M  V30 2122 C 205.034 -2.69307 2.39805 0
M  V30 2123 O 204.138 -3.67587 1.86959 0
M  V30 2124 H 203.479 -0.440959 0.496439 0
M  V30 2125 H 206.009 -0.827326 1.87127 0
M  V30 2126 H 206.019 -3.17374 2.56393 0
M  V30 2127 H 204.694 -2.38692 3.40586 0
M  V30 2128 H 203.271 -3.2662 1.79927 0
M  V30 2129 N 205.456 -1.28612 -0.910864 0
M  V30 2130 C 206.684 -1.18792 -1.69399 0
M  V30 2131 C 207.099 0.253039 -1.87097 0
M  V30 2132 O 206.456 1.17071 -1.40003 0
M  V30 2133 C 206.507 -1.88511 -3.08457 0
M  V30 2134 O 206.228 -3.26979 -2.91576 0
M  V30 2135 C 207.729 -1.85029 -4.02839 0
M  V30 2136 H 204.949 -0.412233 -0.529438 0
M  V30 2137 H 207.493 -1.69788 -1.13984 0
M  V30 2138 H 205.648 -1.41379 -3.60681 0
M  V30 2139 H 206.062 -3.61936 -3.79608 0
M  V30 2140 H 207.536 -2.38395 -4.97867 0
M  V30 2141 H 208.013 -0.823303 -4.31414 0
M  V30 2142 H 208.619 -2.31853 -3.56545 0
M  V30 2143 N 206.934 1.1197 -1.10907 0
M  V30 2144 C 208.164 1.8713 -0.875553 0
M  V30 2145 C 208.572 1.8016 0.577843 0
M  V30 2146 O 207.915 1.17699 1.41042 0
M  V30 2147 C 207.977 3.37005 -1.2517 0
M  V30 2148 C 207.641 3.67748 -2.71313 0
M  V30 2149 C 208.638 3.65698 -3.69542 0
M  V30 2150 C 206.323 3.96928 -3.07821 0
M  V30 2151 C 208.317 3.92395 -5.023 0
M  V30 2152 C 206.004 4.23284 -4.40765 0
M  V30 2153 C 207.002 4.21005 -5.37814 0
M  V30 2154 O 206.69 4.46704 -6.68364 0
M  V30 2155 H 206.422 0.598786 -0.313737 0
M  V30 2156 H 208.976 1.42568 -1.47863 0
M  V30 2157 H 207.206 3.82146 -0.591741 0
M  V30 2158 H 208.895 3.93519 -0.994877 0
M  V30 2159 H 209.661 3.43211 -3.42682 0
M  V30 2160 H 205.54 3.97841 -2.32902 0
M  V30 2161 H 209.084 3.90531 -5.78041 0
M  V30 2162 H 204.981 4.45246 -4.67361 0
M  V30 2163 H 205.749 4.64299 -6.74069 0
M  V30 2164 N 208.412 0.89855 1.29475 0
M  V30 2165 C 209.375 0.380272 2.26023 0
M  V30 2166 C 210.375 -0.484891 1.53315 0
M  V30 2167 O 211.565 -0.290108 1.71767 0
M  V30 2168 C 208.697 -0.45651 3.3783 0
M  V30 2169 H 209.89 1.23295 2.73383 0
M  V30 2170 H 207.443 0.676589 1.40897 0
M  V30 2171 H 208.178 -1.32922 2.95808 0
M  V30 2172 H 207.963 0.163393 3.91759 0
M  V30 2173 H 209.453 -0.810466 4.0966 0
M  V30 2174 N 209.89 -1.43072 0.660911 0
M  V30 2175 C 211.301 -1.84932 0.256348 0
M  V30 2176 C 211.652 -1.55325 -1.19868 0
M  V30 2177 O 210.777 -1.00607 -1.91591 0
M  V30 2178 C 211.372 -3.35684 0.458475 0
M  V30 2179 C 209.931 -3.76245 0.108161 0
M  V30 2180 C 209.078 -2.66749 0.757641 0
M  V30 2181 H 212.029 -1.33116 0.864051 0
M  V30 2182 H 212.05 -3.79365 -0.293683 0
M  V30 2183 H 211.562 -3.572 1.51755 0
M  V30 2184 H 209.663 -3.60338 -0.948014 0
M  V30 2185 H 209.776 -4.76058 0.538992 0
M  V30 2186 H 208.14 -2.53989 0.190185 0
M  V30 2187 H 208.923 -2.91092 1.81989 0
M  V30 2188 N 211.368 -0.403325 -1.52352 0
M  V30 2189 C 212.596 0.174012 -2.06167 0
M  V30 2190 C 213.011 1.39347 -1.27388 0
M  V30 2191 O 212.368 1.79597 -0.324201 0
M  V30 2192 C 212.419 0.530223 -3.5759 0
M  V30 2193 O 212.14 -0.640806 -4.33388 0
M  V30 2194 C 213.641 1.16192 -4.27802 0
M  V30 2195 H 210.861 0.0229464 -0.670608 0
M  V30 2196 H 213.405 -0.572604 -1.9632 0
M  V30 2197 H 211.56 1.22673 -3.67464 0
M  V30 2198 H 211.974 -0.344851 -5.23365 0
M  V30 2199 H 213.448 1.36141 -5.34948 0
M  V30 2200 H 213.925 2.13335 -3.83907 0
M  V30 2201 H 214.531 0.505775 -4.22282 0
M  V30 2202 N 212.846 1.57033 -0.133567 0
M  V30 2203 C 214.093 1.95686 0.520877 0
M  V30 2204 C 214.421 1.0177 1.6575 0
M  V30 2205 O 213.676 0.0443195 1.9565 0
M  V30 2206 C 213.975 3.40674 1.08057 0
M  V30 2207 C 213.641 4.50855 0.0637899 0
M  V30 2208 C 212.303 4.80716 -0.215757 0
M  V30 2209 C 214.655 5.17398 -0.62835 0
M  V30 2210 C 211.983 5.74433 -1.19348 0
M  V30 2211 C 214.335 6.12167 -1.5948 0
M  V30 2212 C 212.999 6.40414 -1.88218 0
M  V30 2213 H 212.269 0.716067 0.190602 0
M  V30 2214 H 214.916 1.9026 -0.217556 0
M  V30 2215 H 213.221 3.42865 1.89606 0
M  V30 2216 H 214.918 3.67902 1.59529 0
M  V30 2217 H 211.508 4.27605 0.291855 0
M  V30 2218 H 215.692 4.94472 -0.425562 0
M  V30 2219 H 210.948 5.94616 -1.42272 0
M  V30 2220 H 215.122 6.6281 -2.13671 0
M  V30 2221 H 212.749 7.12838 -2.64133 0
M  V30 2222 N 214.325 -0.140222 1.56975 0
M  V30 2223 C 215.573 -0.850005 1.83356 0
M  V30 2224 C 215.894 -1.81399 0.71551 0
M  V30 2225 O 215.164 -1.94136 -0.262294 0
M  V30 2226 H 213.744 -0.316886 0.676456 0
M  V30 2227 H 216.406 -0.132608 1.94448 0
M  V30 2228 H 215.502 -1.40814 2.78528 0
M  V30 2229 N 215.803 -1.52179 -0.40978 0
M  V30 2230 C 217.08 -1.56769 -1.16974 0
M  V30 2231 C 217.46 -0.348322 -2.08206 0
M  V30 2232 O 216.808 0.664862 -2.18613 0
M  V30 2233 C 217.018 -2.89603 -1.9476 0
M  V30 2234 C 218.366 -3.42579 -2.50849 0
M  V30 2235 O 219.39 -2.91338 -2.04941 0
M  V30 2236 O 218.249 -4.32054 -3.34652 0
M  V30 2237 H 215.343 -0.631439 -0.534054 0
M  V30 2238 H 217.889 -1.64507 -0.416613 0
M  V30 2239 H 216.661 -3.698 -1.27921 0
M  V30 2240 H 216.284 -2.85155 -2.77079 0
M  V30 2241 N 217.281 0.66697 -1.42791 0
M  V30 2242 C 218.191 1.80962 -1.49299 0
M  V30 2243 C 219.207 1.69775 -0.381108 0
M  V30 2244 O 220.383 1.91188 -0.633188 0
M  V30 2245 C 217.448 3.17156 -1.40045 0
M  V30 2246 C 216.509 3.40242 -2.6179 0
M  V30 2247 C 215.742 4.69939 -2.52969 0
M  V30 2248 O 215.965 5.48372 -1.56985 0
M  V30 2249 O 214.899 4.94441 -3.43237 0
M  V30 2250 H 218.725 1.78427 -2.45759 0
M  V30 2251 H 216.31 0.823713 -1.24641 0
M  V30 2252 H 218.192 3.98413 -1.37276 0
M  V30 2253 H 216.867 3.20312 -0.467138 0
M  V30 2254 H 215.774 2.58802 -2.70134 0
M  V30 2255 H 217.107 3.41923 -3.54047 0
M  V30 2256 N 218.759 1.29093 0.90403 0
M  V30 2257 C 219.689 1.16401 2.02418 0
M  V30 2258 C 220.67 0.0593085 1.69997 0
M  V30 2259 O 221.855 0.238021 1.92736 0
M  V30 2260 C 218.985 0.835233 3.37107 0
M  V30 2261 C 217.939 1.89578 3.83724 0
M  V30 2262 C 217.265 1.42041 5.15489 0
M  V30 2263 C 218.565 3.30394 4.04521 0
M  V30 2264 H 220.259 2.10109 2.13295 0
M  V30 2265 H 217.805 1.01157 1.02486 0
M  V30 2266 H 219.758 0.733169 4.14973 0
M  V30 2267 H 218.482 -0.137543 3.2631 0
M  V30 2268 H 217.141 1.98715 3.08071 0
M  V30 2269 H 216.789 0.436426 5.01103 0
M  V30 2270 H 216.489 2.12964 5.4765 0
M  V30 2271 H 218.013 1.33176 5.959 0
M  V30 2272 H 219.427 3.24123 4.72882 0
M  V30 2273 H 217.824 3.99237 4.48029 0
M  V30 2274 H 218.894 3.73692 3.09002 0
M  V30 2275 N 220.237 -1.11381 1.11499 0
M  V30 2276 C 221.147 -2.21019 0.786628 0
M  V30 2277 C 222.163 -1.72597 -0.220507 0
M  V30 2278 O 223.339 -2.01321 -0.0565251 0
M  V30 2279 C 220.404 -3.459 0.235333 0
M  V30 2280 C 219.465 -4.09107 1.30115 0
M  V30 2281 C 218.698 -5.28027 0.776068 0
M  V30 2282 O 218.921 -5.6904 -0.393661 0
M  V30 2283 O 217.855 -5.81835 1.54114 0
M  V30 2284 H 221.681 -2.51521 1.70209 0
M  V30 2285 H 219.266 -1.19928 0.890928 0
M  V30 2286 H 221.148 -4.21346 -0.067715 0
M  V30 2287 H 219.823 -3.17049 -0.652828 0
M  V30 2288 H 218.73 -3.35391 1.65722 0
M  V30 2289 H 220.063 -4.42139 2.16273 0
M  V30 2290 N 221.715 -0.905404 -1.28997 0
M  V30 2291 C 222.645 -0.404212 -2.29975 0
M  V30 2292 C 223.626 0.523784 -1.61835 0
M  V30 2293 O 224.811 0.433298 -1.89304 0
M  V30 2294 C 221.941 0.364042 -3.45387 0
M  V30 2295 C 220.895 -0.474048 -4.25367 0
M  V30 2296 C 220.221 0.422045 -5.33032 0
M  V30 2297 C 221.521 -1.72696 -4.92923 0
M  V30 2298 H 223.215 -1.24807 -2.72146 0
M  V30 2299 H 220.761 -0.601585 -1.30832 0
M  V30 2300 H 222.714 0.725447 -4.15109 0
M  V30 2301 H 221.438 1.24174 -3.02074 0
M  V30 2302 H 220.097 -0.81786 -3.57361 0
M  V30 2303 H 219.745 1.29804 -4.85963 0
M  V30 2304 H 219.445 -0.135057 -5.87445 0
M  V30 2305 H 220.969 0.779517 -6.05604 0
M  V30 2306 H 222.383 -1.43495 -5.55051 0
M  V30 2307 H 220.78 -2.22582 -5.57295 0
M  V30 2308 H 221.85 -2.45964 -4.17887 0
M  V30 2309 N 223.193 1.4272 -0.668489 0
M  V30 2310 C 224.418 2.06484 -0.194758 0
M  V30 2311 C 224.843 1.49862 1.13679 0
M  V30 2312 O 224.201 0.614582 1.70565 0
M  V30 2313 C 224.249 3.60353 -0.133546 0
M  V30 2314 O 223.353 4.02464 0.899806 0
M  V30 2315 H 222.694 0.656137 -0.10188 0
M  V30 2316 H 225.224 1.82964 -0.915722 0
M  V30 2317 H 225.234 4.07976 0.0447041 0
M  V30 2318 H 223.909 4.00938 -1.1055 0
M  V30 2319 H 222.486 3.66402 0.693109 0
M  V30 2320 N 224.671 0.411399 1.52136 0
M  V30 2321 C 225.634 -0.401089 2.25663 0
M  V30 2322 C 226.634 -0.971732 1.28117 0
M  V30 2323 O 227.824 -0.850254 1.52041 0
M  V30 2324 C 224.956 -1.56483 3.02863 0
M  V30 2325 H 226.149 0.24295 2.98914 0
M  V30 2326 H 223.702 0.163968 1.55438 0
M  V30 2327 H 224.437 -2.24567 2.33967 0
M  V30 2328 H 224.222 -1.16211 3.74483 0
M  V30 2329 H 225.712 -2.13951 3.58629 0
M  V30 2330 N 226.149 -1.5696 0.141893 0
M  V30 2331 C 227.374 -2.00754 -0.520838 0
M  V30 2332 C 227.799 -1.0213 -1.57959 0
M  V30 2333 O 227.157 0.00371324 -1.813 0
M  V30 2334 C 227.205 -3.43318 -1.10294 0
M  V30 2335 O 226.309 -3.47679 -2.21795 0
M  V30 2336 H 225.65 -0.651564 -0.127908 0
M  V30 2337 H 228.18 -2.03221 0.23712 0
M  V30 2338 H 228.19 -3.82012 -1.43287 0
M  V30 2339 H 226.865 -4.14608 -0.327574 0
M  V30 2340 H 225.442 -3.20824 -1.9007 0
M  V30 2341 N 227.627 0.131896 -1.57047 0
M  V30 2342 C 228.559 1.1878 -1.9602 0
M  V30 2343 C 229.572 1.38363 -0.857875 0
M  V30 2344 O 230.761 1.37666 -1.13623 0
M  V30 2345 C 227.861 2.55008 -2.23213 0
M  V30 2346 C 227.034 2.56201 -3.54513 0
M  V30 2347 C 226.093 3.7408 -3.70069 0
M  V30 2348 O 225.119 3.58258 -4.42312 0
M  V30 2349 N 226.321 4.92137 -3.07866 0
M  V30 2350 H 229.086 0.85639 -2.87204 0
M  V30 2351 H 226.647 0.321309 -1.5868 0
M  V30 2352 H 228.639 3.32404 -2.30846 0
M  V30 2353 H 227.209 2.80382 -1.3822 0
M  V30 2354 H 226.429 1.64613 -3.58185 0
M  V30 2355 H 227.717 2.54043 -4.4084 0
M  V30 2356 H 227.115 5.07895 -2.49116 0
M  V30 2357 H 225.672 5.67254 -3.21039 0
M  V30 2358 N 229.106 1.52395 0.401703 0
M  V30 2359 C 230.038 1.72505 1.50912 0
M  V30 2360 C 231.051 0.605468 1.51122 0
M  V30 2361 O 232.24 0.880828 1.55254 0
M  V30 2362 C 229.34 1.75711 2.89791 0
M  V30 2363 C 228.513 3.04824 3.1369 0
M  V30 2364 C 227.572 2.99743 4.32482 0
M  V30 2365 O 226.598 3.73635 4.29402 0
M  V30 2366 N 227.8 2.18047 5.37992 0
M  V30 2367 H 230.565 2.68049 1.34052 0
M  V30 2368 H 228.126 1.50724 0.591084 0
M  V30 2369 H 230.118 1.69834 3.6734 0
M  V30 2370 H 228.688 0.876092 3.00072 0
M  V30 2371 H 227.908 3.2429 2.24119 0
M  V30 2372 H 229.196 3.90221 3.26504 0
M  V30 2373 H 228.594 1.57456 5.43345 0
M  V30 2374 H 227.151 2.18021 6.14256 0
M  V30 2375 N 230.584 -0.659388 1.43143 0
M  V30 2376 C 232 -0.974337 1.26407 0
M  V30 2377 C 232.2 -2.007 0.179341 0
M  V30 2378 O 231.256 -2.4856 -0.444295 0
M  V30 2379 C 232.569 -1.46447 2.62628 0
M  V30 2380 C 234.117 -1.58144 2.7011 0
M  V30 2381 C 234.592 -2.1055 4.06734 0
M  V30 2382 N 236.083 -2.17861 4.08767 0
M  V30 2383 C 236.818 -2.59519 5.1131 0
M  V30 2384 N 236.314 -3.00518 6.24228 0
M  V30 2385 N 238.107 -2.59404 4.98664 0
M  V30 2386 H 230.258 0.0240528 2.12386 0
M  V30 2387 H 232.521 -0.0518065 0.946583 0
M  V30 2388 H 232.227 -0.780123 3.42939 0
M  V30 2389 H 232.101 -2.44058 2.87603 0
M  V30 2390 H 234.488 -2.25682 1.90136 0
M  V30 2391 H 234.569 -0.589828 2.48907 0
M  V30 2392 H 234.213 -1.43616 4.87172 0
M  V30 2393 H 234.143 -3.10531 4.25298 0
M  V30 2394 H 236.634 -1.88975 3.27257 0
M  V30 2395 H 236.947 -3.31036 6.98309 0
M  V30 2396 H 235.292 -2.98337 6.2771 0
M  V30 2397 H 238.483 -2.26747 4.09516 0
M  V30 2398 H 238.656 -2.91548 5.78709 0
M  V30 2399 N 232.062 -1.29571 -0.897171 0
M  V30 2400 C 233.311 -1.1706 -1.64256 0
M  V30 2401 C 233.624 0.276476 -1.93636 0
M  V30 2402 O 234.83 0.52294 -2.66416 0
M  V30 2403 C 233.286 -2.0475 -2.95982 0
M  V30 2404 C 232.894 -3.54295 -2.74187 0
M  V30 2405 C 234.638 -2.0097 -3.73914 0
M  V30 2406 C 232.545 -4.34081 -4.01656 0
M  V30 2407 H 231.475 -0.43452 -0.616205 0
M  V30 2408 H 234.126 -1.54229 -0.994268 0
M  V30 2409 H 232.508 -1.60452 -3.62038 0
M  V30 2410 H 233.682 -4.06662 -2.1671 0
M  V30 2411 H 231.997 -3.59773 -2.09648 0
M  V30 2412 H 234.594 -2.57838 -4.68427 0
M  V30 2413 H 234.937 -0.990273 -4.0435 0
M  V30 2414 H 235.47 -2.43325 -3.14703 0
M  V30 2415 H 232.209 -5.36671 -3.76384 0
M  V30 2416 H 231.729 -3.86483 -4.58684 0
M  V30 2417 H 233.408 -4.44877 -4.69781 0
M  V30 2418 N 233.54 1.10788 -1.12088 0
M  V30 2419 C 234.951 1.64181 -0.88891 0
M  V30 2420 C 235.302 1.87508 0.577498 0
M  V30 2421 O 234.427 1.61434 1.44112 0
M  V30 2422 C 235.022 2.98257 -1.60712 0
M  V30 2423 C 233.581 3.4853 -1.42139 0
M  V30 2424 C 232.728 2.23208 -1.6454 0
M  V30 2425 H 235.679 0.943368 -1.27618 0
M  V30 2426 H 235.7 3.65552 -1.05604 0
M  V30 2427 H 235.212 2.81246 -2.67436 0
M  V30 2428 H 233.313 3.70692 -0.376552 0
M  V30 2429 H 233.426 4.26882 -2.17505 0
M  V30 2430 H 231.79 2.31169 -1.06925 0
M  V30 2431 H 232.573 2.08733 -2.72554 0
M  V30 2432 N 235.018 0.912232 1.28515 0
M  V30 2433 C 235.981 0.404223 2.25607 0
M  V30 2434 C 236.981 -0.468602 1.53821 0
M  V30 2435 O 238.171 -0.271873 1.72065 0
M  V30 2436 C 235.303 -0.420653 3.38295 0
M  V30 2437 H 236.496 1.26188 2.7206 0
M  V30 2438 H 234.049 0.691495 1.40171 0
M  V30 2439 H 234.784 -1.29777 2.97201 0
M  V30 2440 H 234.569 0.204935 3.91564 0
M  V30 2441 H 236.059 -0.766971 4.10496 0
M  V30 2442 N 236.496 -1.42363 0.676048 0
M  V30 2443 C 237.426 -2.33497 0.0124832 0
M  V30 2444 C 238.407 -1.50748 -0.787981 0
M  V30 2445 O 239.592 -1.79346 -0.744884 0
M  V30 2446 C 236.722 -3.34377 -0.938582 0
M  V30 2447 C 235.676 -4.27289 -0.246622 0
M  V30 2448 C 235.002 -5.18386 -1.31071 0
M  V30 2449 C 236.302 -5.14916 0.875125 0
M  V30 2450 H 237.996 -2.89233 0.773593 0
M  V30 2451 H 235.542 -1.39073 0.37346 0
M  V30 2452 H 237.495 -3.97044 -1.41188 0
M  V30 2453 H 236.219 -2.76947 -1.73113 0
M  V30 2454 H 234.878 -3.66018 0.206456 0
M  V30 2455 H 234.526 -4.57282 -2.09528 0
M  V30 2456 H 234.226 -5.81378 -0.852839 0
M  V30 2457 H 235.75 -5.83929 -1.78492 0
M  V30 2458 H 237.164 -5.71262 0.482983 0
M  V30 2459 H 235.561 -5.86747 1.25887 0
M  V30 2460 H 236.631 -4.53242 1.72335 0
M  V30 2461 N 237.974 -0.419461 -1.51915 0
M  V30 2462 C 239.214 0.152336 -2.03832 0
M  V30 2463 C 239.578 1.41501 -1.29775 0
M  V30 2464 O 240.779 2.06591 -1.7197 0
M  V30 2465 C 239.05 0.383812 -3.55333 0
M  V30 2466 S 240.609 0.921577 -4.29013 0
M  V30 2467 H 237.427 0.0402193 -0.709862 0
M  V30 2468 H 240.029 -0.574758 -1.8686 0
M  V30 2469 H 238.733 -0.541794 -4.06808 0
M  V30 2470 H 238.264 1.13849 -3.76566 0
M  V30 2471 H 240.279 2.20108 -4.4471 0
M  V30 2472 N 239.452 1.56882 -0.150215 0
M  V30 2473 C 240.382 2.19935 0.784284 0
M  V30 2474 C 241.363 1.14854 1.25469 0
M  V30 2475 O 242.548 1.43209 1.31168 0
M  V30 2476 C 239.678 2.82349 2.02229 0
M  V30 2477 C 238.632 3.93285 1.68853 0
M  V30 2478 C 237.958 4.42649 2.99944 0
M  V30 2479 C 239.258 5.13904 0.932714 0
M  V30 2480 H 240.952 2.9828 0.258781 0
M  V30 2481 H 238.498 1.43473 0.123029 0
M  V30 2482 H 240.451 3.25126 2.68088 0
M  V30 2483 H 239.175 2.0134 2.57157 0
M  V30 2484 H 237.834 3.5113 1.05371 0
M  V30 2485 H 237.482 3.58458 3.52869 0
M  V30 2486 H 237.182 5.17476 2.78374 0
M  V30 2487 H 238.706 4.88099 3.66868 0
M  V30 2488 H 240.12 5.53506 1.49345 0
M  V30 2489 H 238.517 5.94515 0.81684 0
M  V30 2490 H 239.587 4.84842 -0.0749568 0
M  V30 2491 N 240.93 -0.123565 1.57115 0
M  V30 2492 C 241.88 -1.1575 1.96433 0
M  V30 2493 C 242.864 -1.37313 0.838686 0
M  V30 2494 O 244.056 -1.38482 1.10235 0
M  V30 2495 C 241.185 -2.48526 2.36833 0
M  V30 2496 C 240.271 -2.30457 3.5602 0
M  V30 2497 N 240.662 -1.8219 4.71848 0
M  V30 2498 C 238.96 -2.61129 3.61563 0
M  V30 2499 C 239.661 -1.77721 5.53886 0
M  V30 2500 N 238.637 -2.21899 4.96248 0
M  V30 2501 H 242.439 -0.776797 2.83449 0
M  V30 2502 H 239.953 -0.331364 1.58983 0
M  V30 2503 H 241.95 -3.233 2.63216 0
M  V30 2504 H 240.61 -2.87358 1.5118 0
M  V30 2505 H 241.621 -1.51805 4.95152 0
M  V30 2506 H 238.298 -3.03678 2.86507 0
M  V30 2507 H 239.688 -1.41697 6.56789 0
M  V30 2508 N 242.408 -1.52605 -0.393616 0
M  V30 2509 C 243.656 -1.67093 -1.13685 0
M  V30 2510 C 243.977 -0.411011 -1.90619 0
M  V30 2511 O 243.247 0.574491 -1.87287 0
M  V30 2512 H 241.827 -0.615923 -0.422668 0
M  V30 2513 H 244.489 -1.89704 -0.447039 0
M  V30 2514 H 243.585 -2.51922 -1.84232 0
M  V30 2515 N 243.887 0.651787 -1.4349 0
M  V30 2516 C 244.819 1.77725 -1.44729 0
M  V30 2517 C 245.832 1.59141 -0.343231 0
M  V30 2518 O 247.021 1.67835 -0.607751 0
M  V30 2519 C 244.121 3.15172 -1.24579 0
M  V30 2520 C 243.294 3.60402 -2.47849 0
M  V30 2521 C 242.353 4.76656 -2.22902 0
M  V30 2522 O 241.379 4.86022 -2.96263 0
M  V30 2523 N 242.581 5.66958 -1.24656 0
M  V30 2524 H 245.346 1.77141 -2.41746 0
M  V30 2525 H 242.907 0.835678 -1.38665 0
M  V30 2526 H 244.899 3.90634 -1.0577 0
M  V30 2527 H 243.469 3.1052 -0.360015 0
M  V30 2528 H 242.689 2.75369 -2.82073 0
M  V30 2529 H 243.977 3.87368 -3.29884 0
M  V30 2530 H 243.375 5.62065 -0.640265 0
M  V30 2531 H 241.932 6.42135 -1.1183 0
M  V30 2532 N 245.365 1.30045 0.890287 0
M  V30 2533 C 246.595 1.21296 1.67245 0
M  V30 2534 C 247.003 -0.227471 1.87828 0
M  V30 2535 O 246.346 -1.16296 1.422 0
M  V30 2536 C 246.408 1.86519 3.07329 0
M  V30 2537 C 246.072 3.35837 3.09939 0
M  V30 2538 C 247.069 4.31915 2.89389 0
M  V30 2539 C 244.754 3.77196 3.31706 0
M  V30 2540 C 246.748 5.67325 2.90552 0
M  V30 2541 C 244.435 5.12725 3.32499 0
M  V30 2542 C 245.433 6.076 3.11947 0
M  V30 2543 O 245.121 7.40655 3.12547 0
M  V30 2544 H 244.853 0.4211 0.528821 0
M  V30 2545 H 247.407 1.72111 1.12103 0
M  V30 2546 H 245.637 1.30228 3.64112 0
M  V30 2547 H 247.326 1.71963 3.67673 0
M  V30 2548 H 248.092 4.01294 2.72375 0
M  V30 2549 H 243.971 3.03796 3.4674 0
M  V30 2550 H 247.515 6.41354 2.74429 0
M  V30 2551 H 243.412 5.42988 3.49047 0
M  V30 2552 H 244.18 7.49577 3.28749 0
M  V30 2553 N 246.843 -1.10192 1.12674 0
M  V30 2554 C 248.12 -1.78717 0.794965 0
M  V30 2555 C 248.5 -1.98628 -0.714853 0
M  V30 2556 O 247.848 -1.58135 -1.64941 0
M  V30 2557 C 248.058 -3.11546 1.5729 0
M  V30 2558 C 249.406 -3.86382 1.76052 0
M  V30 2559 O 250.43 -3.21274 1.53823 0
M  V30 2560 O 249.289 -5.03246 2.13087 0
M  V30 2561 H 246.383 -0.774702 0.289423 0
M  V30 2562 H 248.929 -1.16819 1.23091 0
M  V30 2563 H 247.701 -2.92489 2.59935 0
M  V30 2564 H 247.324 -3.81164 1.13137 0
M  V30 2565 N 248.321 -0.919034 -1.28029 0
M  V30 2566 C 249.598 -0.473668 -1.89778 0
M  V30 2567 C 249.978 1.04783 -1.83259 0
M  V30 2568 O 249.326 1.8982 -1.27202 0
M  V30 2569 C 249.536 -1.00998 -3.34066 0
M  V30 2570 C 250.884 -1.06525 -4.1102 0
M  V30 2571 O 251.908 -0.958996 -3.43048 0
M  V30 2572 O 250.767 -1.22776 -5.3253 0
M  V30 2573 H 247.861 -0.15098 -0.813101 0
M  V30 2574 H 250.407 -1.01016 -1.36359 0
M  V30 2575 H 249.179 -2.05392 -3.33061 0
M  V30 2576 H 248.802 -0.454626 -3.94992 0
M  V30 2577 N 249.799 1.42003 -0.683588 0
M  V30 2578 C 251.045 2.01712 -0.209825 0
M  V30 2579 C 251.378 1.53968 1.18353 0
M  V30 2580 O 250.653 0.745661 1.79639 0
M  V30 2581 C 250.936 3.59202 -0.254197 0
M  V30 2582 C 250.789 4.17102 -1.68363 0
M  V30 2583 C 252.108 4.38344 0.392709 0
M  V30 2584 H 249.227 0.732891 -0.0777189 0
M  V30 2585 H 251.869 1.68909 -0.87004 0
M  V30 2586 H 250.019 3.87278 0.307954 0
M  V30 2587 H 251.691 3.99946 -2.29871 0
M  V30 2588 H 249.934 3.72597 -2.22157 0
M  V30 2589 H 250.605 5.26249 -1.6663 0
M  V30 2590 H 253.081 4.16011 -0.0859162 0
M  V30 2591 H 251.957 5.47901 0.331063 0
M  V30 2592 H 252.218 4.16887 1.47164 0
M  V30 2593 N 251.277 0.427512 1.51691 0
M  V30 2594 C 252.523 -0.142439 2.02299 0
M  V30 2595 C 252.856 -1.43214 1.31162 0
M  V30 2596 O 252.131 -1.89833 0.423511 0
M  V30 2597 C 252.414 -0.371301 3.58181 0
M  V30 2598 C 252.267 0.936358 4.39946 0
M  V30 2599 C 253.586 -1.14542 4.24933 0
M  V30 2600 H 250.705 -0.0502937 0.735282 0
M  V30 2601 H 253.347 0.564584 1.81418 0
M  V30 2602 H 251.497 -0.973559 3.76104 0
M  V30 2603 H 253.169 1.57184 4.33694 0
M  V30 2604 H 251.412 1.5432 4.05423 0
M  V30 2605 H 252.083 0.730388 5.47147 0
M  V30 2606 H 254.559 -0.635362 4.11221 0
M  V30 2607 H 253.435 -1.27431 5.33903 0
M  V30 2608 H 253.696 -2.17093 3.85127 0
M  V30 2609 N 252.755 -1.56801 0.158532 0
M  V30 2610 C 253.687 -2.14488 -0.807923 0
M  V30 2611 C 254.7 -1.09721 -1.20271 0
M  V30 2612 O 255.889 -1.36956 -1.14478 0
M  V30 2613 C 252.989 -2.66217 -2.09718 0
M  V30 2614 C 252.162 -3.95507 -1.86796 0
M  V30 2615 C 251.221 -4.3243 -2.99818 0
M  V30 2616 O 250.247 -5.00543 -2.71008 0
M  V30 2617 N 251.449 -3.92947 -4.27285 0
M  V30 2618 H 254.214 -2.98042 -0.314816 0
M  V30 2619 H 251.775 -1.61881 -0.0246692 0
M  V30 2620 H 253.767 -2.87924 -2.84398 0
M  V30 2621 H 252.337 -1.87324 -2.50257 0
M  V30 2622 H 251.557 -3.82309 -0.96089 0
M  V30 2623 H 252.845 -4.79972 -1.68833 0
M  V30 2624 H 252.243 -3.38087 -4.53557 0
M  V30 2625 H 250.8 -4.19681 -4.9871 0
M  V30 2626 N 254.233 0.115231 -1.57178 0
M  V30 2627 C 255.181 1.16014 -2.01602 0
M  V30 2628 C 256.175 1.42653 -0.913587 0
M  V30 2629 O 257.381 1.42571 -1.09879 0
M  V30 2630 H 253.756 0.391252 -0.642204 0
M  V30 2631 H 255.727 0.758998 -2.88586 0
M  V30 2632 C 254.476 2.47767 -2.4394 0
M  V30 2633 H 253.799 2.28108 -3.28339 0
M  V30 2634 H 255.239 3.19432 -2.78818 0
M  V30 2635 C 253.698 3.10617 -1.30455 0
M  V30 2636 O 254.228 3.96846 -0.622585 0
M  V30 2637 N 252.434 2.70553 -1.06064 0
M  V30 2638 H 251.981 2.00527 -1.61699 0
M  V30 2639 H 251.939 3.12934 -0.303284 0
M  V30 2640 N 255.711 1.52812 0.385517 0
M  V30 2641 C 256.674 1.77188 1.45386 0
M  V30 2642 C 257.674 0.641953 1.4743 0
M  V30 2643 O 258.864 0.910033 1.4854 0
M  V30 2644 C 255.996 1.87582 2.8465 0
M  V30 2645 H 257.189 2.72583 1.25054 0
M  V30 2646 H 254.742 1.43586 0.617467 0
M  V30 2647 H 255.477 0.941849 3.10322 0
M  V30 2648 H 255.262 2.69748 2.84567 0
M  V30 2649 H 256.752 2.08102 3.62054 0
M  V30 2650 N 257.189 -0.644168 1.43834 0
M  V30 2651 C 258.122 -1.76906 1.44151 0
M  V30 2652 C 259.1 -1.59774 0.301857 0
M  V30 2653 O 260.284 -1.81834 0.496841 0
M  V30 2654 C 257.411 -3.14321 1.26174 0
M  V30 2655 C 256.457 -3.50134 2.43533 0
M  V30 2656 S 257.29 -3.49085 4.06079 0
M  V30 2657 C 258.446 -4.89142 3.90501 0
M  V30 2658 H 258.679 -1.76368 2.39336 0
M  V30 2659 H 256.212 -0.817624 1.30974 0
M  V30 2660 H 258.17 -3.93625 1.16489 0
M  V30 2661 H 256.831 -3.12412 0.325224 0
M  V30 2662 H 256.024 -4.50095 2.26783 0
M  V30 2663 H 255.626 -2.78264 2.4989 0
M  V30 2664 H 257.918 -5.78036 3.53385 0
M  V30 2665 H 258.861 -5.10945 4.90246 0
M  V30 2666 H 259.269 -4.63102 3.22795 0
M  V30 2667 N 258.668 -1.30515 -0.883378 0
M  V30 2668 C 259.916 -1.19194 -1.63209 0
M  V30 2669 C 260.237 0.253205 -1.93349 0
M  V30 2670 O 259.507 1.17025 -1.57105 0
M  V30 2671 H 258.087 -0.438148 -0.605009 0
M  V30 2672 H 260.749 -1.63663 -1.05832 0
M  V30 2673 H 259.845 -1.75396 -2.58153 0
M  V30 2674 N 260.146 1.09593 -1.13257 0
M  V30 2675 C 261.562 1.33775 -0.870423 0
M  V30 2676 C 261.762 1.95327 0.494926 0
M  V30 2677 O 260.818 2.19853 1.2418 0
M  V30 2678 C 262.131 2.25106 -1.99369 0
M  V30 2679 C 263.679 2.3862 -2.02558 0
M  V30 2680 C 264.154 3.33285 -3.14142 0
M  V30 2681 N 265.645 3.40857 -3.13641 0
M  V30 2682 C 266.38 4.14101 -3.96621 0
M  V30 2683 N 265.876 4.90157 -4.8961 0
M  V30 2684 N 267.669 4.09808 -3.84726 0
M  V30 2685 H 259.82 0.680136 -2.01216 0
M  V30 2686 H 262.083 0.362133 -0.876107 0
M  V30 2687 H 261.789 1.87103 -2.97801 0
M  V30 2688 H 261.663 3.25481 -1.90635 0
M  V30 2689 H 264.05 2.75887 -1.0474 0
M  V30 2690 H 264.131 1.38028 -2.15364 0
M  V30 2691 H 263.775 2.96741 -4.12198 0
M  V30 2692 H 263.705 4.33776 -2.98574 0
M  V30 2693 H 266.196 2.86624 -2.46282 0
M  V30 2694 H 266.509 5.4347 -5.49418 0
M  V30 2695 H 264.854 4.89251 -4.93617 0
M  V30 2696 H 268.045 3.4949 -3.11408 0
M  V30 2697 H 268.218 4.66629 -4.49623 0
M  V30 2698 N 261.624 0.925811 1.2754 0
M  V30 2699 C 262.849 0.580924 1.99098 0
M  V30 2700 C 263.274 -0.833555 1.68622 0
M  V30 2701 O 262.632 -1.55903 0.925422 0
M  V30 2702 C 262.68 0.811186 3.51358 0
M  V30 2703 O 261.784 -0.124129 4.12213 0
M  V30 2704 H 261.125 0.223873 0.625122 0
M  V30 2705 H 263.655 1.24455 1.62395 0
M  V30 2706 H 263.665 0.72601 4.01489 0
M  V30 2707 H 262.34 1.84227 3.72872 0
M  V30 2708 H 260.917 0.0108006 3.72898 0
M  V30 2709 N 263.102 -1.41638 0.69111 0
M  V30 2710 C 264.065 -2.29178 0.0319786 0
M  V30 2711 C 265.065 -1.44153 -0.712496 0
M  V30 2712 O 266.255 -1.65354 -0.548053 0
M  V30 2713 C 263.387 -3.26952 -0.965161 0
M  V30 2714 H 264.58 -2.88959 0.802681 0
M  V30 2715 H 262.133 -1.4955 0.454356 0
M  V30 2716 H 262.868 -2.72142 -1.76378 0
M  V30 2717 H 262.653 -3.89685 -0.434522 0
M  V30 2718 H 264.143 -3.92561 -1.42428 0
M  V30 2719 N 264.58 -0.43555 -1.51462 0
M  V30 2720 C 265.827 0.131514 -2.02072 0
M  V30 2721 C 266.155 1.42868 -1.31981 0
M  V30 2722 O 265.41 1.91076 -0.422883 0
M  V30 2723 C 265.709 0.39942 -3.55161 0
M  V30 2724 C 265.375 -0.81172 -4.43533 0
M  V30 2725 C 264.037 -1.14387 -4.67407 0
M  V30 2726 C 266.389 -1.61976 -4.95392 0
M  V30 2727 C 263.717 -2.28477 -5.40384 0
M  V30 2728 C 266.069 -2.75164 -5.6962 0
M  V30 2729 C 264.733 -3.08835 -5.91758 0
M  V30 2730 H 264.003 0.0481244 -0.739436 0
M  V30 2731 H 266.65 -0.58238 -1.8243 0
M  V30 2732 H 264.955 1.19519 -3.73125 0
M  V30 2733 H 266.652 0.85157 -3.91854 0
M  V30 2734 H 263.242 -0.542898 -4.25148 0
M  V30 2735 H 267.426 -1.37637 -4.76833 0
M  V30 2736 H 262.682 -2.5488 -5.55739 0
M  V30 2737 H 266.856 -3.38147 -6.08793 0
M  V30 2738 H 264.483 -3.97353 -6.48086 0
M  V30 2739 N 266.058 1.56714 -0.166846 0
M  V30 2740 C 266.968 2.21331 0.777791 0
M  V30 2741 C 267.984 1.20358 1.25658 0
M  V30 2742 O 269.16 1.53005 1.30964 0
M  V30 2743 C 266.225 2.83787 1.99163 0
M  V30 2744 C 265.286 3.99947 1.56016 0
M  V30 2745 C 264.519 4.59415 2.71613 0
M  V30 2746 O 264.742 4.17769 3.88362 0
M  V30 2747 O 263.676 5.49359 2.45945 0
M  V30 2748 H 267.502 3.02605 0.257636 0
M  V30 2749 H 265.087 1.49275 0.0611393 0
M  V30 2750 H 266.969 3.23405 2.70161 0
M  V30 2751 H 265.644 2.05513 2.50092 0
M  V30 2752 H 264.551 3.65007 0.819809 0
M  V30 2753 H 265.884 4.79801 1.09782 0
M  V30 2754 N 267.536 -0.106894 1.57237 0
M  V30 2755 C 268.486 -1.1366 1.9765 0
M  V30 2756 C 269.47 -1.36416 0.853203 0
M  V30 2757 O 270.662 -1.37305 1.11697 0
M  V30 2758 C 267.791 -2.46 2.39455 0
M  V30 2759 C 266.877 -2.26668 3.58445 0
M  V30 2760 N 267.268 -1.77176 4.73754 0
M  V30 2761 C 265.566 -2.57279 3.64312 0
M  V30 2762 C 266.267 -1.71836 5.5574 0
M  V30 2763 N 265.243 -2.16623 4.98573 0
M  V30 2764 H 269.045 -0.74669 2.84256 0
M  V30 2765 H 266.559 -0.314483 1.59326 0
M  V30 2766 H 268.556 -3.2049 2.6663 0
M  V30 2767 H 267.216 -2.85738 1.54219 0
M  V30 2768 H 268.227 -1.46545 4.96734 0
M  V30 2769 H 264.904 -3.00622 2.89711 0
M  V30 2770 H 266.294 -1.34723 6.58255 0
M  V30 2771 N 269.014 -1.53014 -0.377408 0
M  V30 2772 C 269.944 -1.81589 -1.46791 0
M  V30 2773 C 270.925 -0.668622 -1.56408 0
M  V30 2774 O 272.11 -0.917337 -1.71168 0
M  V30 2775 C 269.24 -1.99519 -2.8427 0
M  V30 2776 C 268.194 -3.15249 -2.89486 0
M  V30 2777 C 267.52 -3.18451 -4.29527 0
M  V30 2778 C 268.82 -4.54084 -2.58079 0
M  V30 2779 H 270.514 -2.7291 -1.23127 0
M  V30 2780 H 268.06 -1.31319 -0.590883 0
M  V30 2781 H 270.013 -2.18092 -3.60575 0
M  V30 2782 H 268.737 -1.04897 -3.09296 0
M  V30 2783 H 267.396 -2.96477 -2.15631 0
M  V30 2784 H 267.044 -2.2149 -4.5161 0
M  V30 2785 H 266.744 -3.962 -4.33934 0
M  V30 2786 H 268.268 -3.39193 -5.07721 0
M  V30 2787 H 269.682 -4.72899 -3.24098 0
M  V30 2788 H 268.079 -5.33987 -2.7382 0
M  V30 2789 H 269.149 -4.60006 -1.53372 0
M  V30 2790 N 270.492 0.636531 -1.44174 0
M  V30 2791 C 271.439 1.74875 -1.50624 0
M  V30 2792 C 272.409 1.62275 -0.35442 0
M  V30 2793 O 273.594 1.82276 -0.563908 0
M  V30 2794 C 270.734 3.13102 -1.45125 0
M  V30 2795 C 269.847 3.36717 -2.7064 0
M  V30 2796 C 268.982 4.64885 -2.57013 0
M  V30 2797 C 268.021 4.8166 -3.77717 0
M  V30 2798 N 267.158 6.01101 -3.62798 0
M  V30 2799 H 271.998 1.68697 -2.45653 0
M  V30 2800 H 269.535 0.823004 -1.21922 0
M  V30 2801 H 271.493 3.93034 -1.39929 0
M  V30 2802 H 270.123 3.18308 -0.536671 0
M  V30 2803 H 269.175 2.50763 -2.86046 0
M  V30 2804 H 270.487 3.44993 -3.60252 0
M  V30 2805 H 269.641 5.52969 -2.49619 0
M  V30 2806 H 268.38 4.58957 -1.64953 0
M  V30 2807 H 267.385 3.92007 -3.85501 0
M  V30 2808 H 268.61 4.89406 -4.70807 0
M  V30 2809 H 266.556 5.96273 -2.73486 0
M  V30 2810 H 266.473 6.10409 -4.46023 0
M  V30 2811 H 267.741 6.91761 -3.59286 0
M  V30 2812 N 271.97 1.30982 0.876444 0
M  V30 2813 C 273.195 1.23373 1.66715 0
M  V30 2814 C 273.62 -0.19885 1.87046 0
M  V30 2815 O 272.978 -1.1427 1.40756 0
M  V30 2816 C 273.026 1.97644 3.01611 0
M  V30 2817 O 272.13 1.30935 3.91062 0
M  V30 2818 H 271.471 0.426279 0.509099 0
M  V30 2819 H 274.001 1.72944 1.09323 0
M  V30 2820 H 274.011 2.06992 3.51594 0
M  V30 2821 H 272.686 3.01829 2.86133 0
M  V30 2822 H 271.263 1.29996 3.49507 0
M  V30 2823 N 273.449 -1.08991 1.13837 0
M  V30 2824 C 274.865 -1.33312 0.877506 0
M  V30 2825 C 275.065 -1.95587 -0.48456 0
M  V30 2826 O 274.121 -2.20509 -1.23013 0
M  V30 2827 C 275.434 -2.24045 2.0056 0
M  V30 2828 C 276.982 -2.37542 2.03821 0
M  V30 2829 C 277.457 -3.31614 3.15905 0
M  V30 2830 N 278.948 -3.39189 3.15445 0
M  V30 2831 C 279.683 -4.11992 3.98811 0
M  V30 2832 N 279.179 -4.87553 4.92203 0
M  V30 2833 N 280.972 -4.07762 3.86894 0
M  V30 2834 H 273.123 -0.669456 2.01574 0
M  V30 2835 H 275.386 -0.357482 0.878015 0
M  V30 2836 H 275.092 -1.85521 2.98789 0
M  V30 2837 H 274.966 -3.24466 1.92359 0
M  V30 2838 H 277.353 -2.75327 1.06202 0
M  V30 2839 H 277.434 -1.36884 2.16093 0
M  V30 2840 H 277.078 -2.94551 4.13766 0
M  V30 2841 H 277.008 -4.32186 3.0087 0
M  V30 2842 H 279.499 -2.85314 2.47799 0
M  V30 2843 H 279.812 -5.40549 5.52292 0
M  V30 2844 H 278.157 -4.86627 4.96205 0
M  V30 2845 H 281.348 -3.47833 3.13257 0
M  V30 2846 H 281.521 -4.64238 4.52092 0
M  V30 2847 N 274.927 -0.932562 -1.27047 0
M  V30 2848 C 276.175 -0.574422 -1.93765 0
M  V30 2849 C 276.496 0.887993 -1.73608 0
M  V30 2850 O 275.766 1.62999 -1.08665 0
M  V30 2851 H 274.346 -0.209451 -0.717035 0
M  V30 2852 H 277.008 -1.18601 -1.5466 0
M  V30 2853 H 276.104 -0.784841 -3.02071 0
M  V30 2854 N 276.405 1.4127 -0.698611 0
M  V30 2855 C 277.651 2.01478 -0.231207 0
M  V30 2856 C 277.984 1.55215 1.16713 0
M  V30 2857 O 277.259 0.764672 1.78838 0
M  V30 2858 C 277.542 3.58912 -0.292281 0
M  V30 2859 C 277.395 4.15293 -1.72778 0
M  V30 2860 C 278.714 4.38736 0.346194 0
M  V30 2861 H 275.833 0.732025 -0.0854878 0
M  V30 2862 H 278.475 1.67977 -0.887906 0
M  V30 2863 H 276.625 3.87582 0.26686 0
M  V30 2864 H 278.297 3.97486 -2.341 0
M  V30 2865 H 276.54 3.7022 -2.26096 0
M  V30 2866 H 277.211 5.24452 -1.72202 0
M  V30 2867 H 279.687 4.15897 -0.130035 0
M  V30 2868 H 278.563 5.48221 0.272932 0
M  V30 2869 H 278.824 4.18425 1.42734 0
M  V30 2870 N 277.883 0.443576 1.51229 0
M  V30 2871 C 279.111 -0.11929 2.06556 0
M  V30 2872 C 279.526 -1.35921 1.31038 0
M  V30 2873 O 278.883 -1.78675 0.371704 0
M  V30 2874 C 278.934 -0.435228 3.5887 0
M  V30 2875 O 278.655 0.755486 4.31537 0
M  V30 2876 C 280.156 -1.04808 4.30732 0
M  V30 2877 H 277.376 -0.0051584 0.67098 0
M  V30 2878 H 279.92 0.624453 1.94733 0
M  V30 2879 H 278.075 -1.12887 3.70588 0
M  V30 2880 H 278.489 0.483491 5.22267 0
M  V30 2881 H 279.963 -1.2191 5.3837 0
M  V30 2882 H 280.44 -2.03081 3.89429 0
M  V30 2883 H 281.046 -0.393637 4.23474 0
M  V30 2884 N 279.361 -1.56624 0.175154 0
M  V30 2885 C 280.607 -1.9729 -0.469506 0
M  V30 2886 C 280.94 -1.06128 -1.62636 0
M  V30 2887 O 280.215 -0.109183 -1.94193 0
M  V30 2888 C 280.498 -3.47375 -0.948804 0
M  V30 2889 C 280.351 -4.49317 0.208491 0
M  V30 2890 C 281.67 -4.00652 -1.82116 0
M  V30 2891 H 278.789 -0.717317 -0.16919 0
M  V30 2892 H 281.431 -1.88184 0.262062 0
M  V30 2893 H 279.581 -3.55267 -1.57219 0
M  V30 2894 H 281.253 -4.53482 0.845682 0
M  V30 2895 H 279.496 -4.25121 0.863395 0
M  V30 2896 H 280.167 -5.51741 -0.169059 0
M  V30 2897 H 282.643 -3.95416 -1.2956 0
M  V30 2898 H 281.519 -5.06075 -2.12554 0
M  V30 2899 H 281.78 -3.44699 -2.7683 0
M  V30 2900 N 280.839 0.0985539 -1.57292 0
M  V30 2901 C 282.067 0.816318 -1.90115 0
M  V30 2902 C 282.482 1.72451 -0.768509 0
M  V30 2903 O 281.839 1.80643 0.259687 0
M  V30 2904 C 281.89 1.63259 -3.22535 0
M  V30 2905 O 281.611 0.760934 -4.31441 0
M  V30 2906 C 283.112 2.45372 -3.69199 0
M  V30 2907 H 280.332 0.233595 -0.629027 0
M  V30 2908 H 282.876 0.0768229 -2.04356 0
M  V30 2909 H 281.031 2.32463 -3.09903 0
M  V30 2910 H 281.445 1.32595 -5.07463 0
M  V30 2911 H 282.919 2.98144 -4.64558 0
M  V30 2912 H 283.396 3.23677 -2.96867 0
M  V30 2913 H 284.002 1.81373 -3.84687 0
M  V30 2914 N 282.317 1.53212 0.369288 0
M  V30 2915 C 283.563 1.70413 1.11046 0
M  V30 2916 C 283.918 0.448509 1.87099 0
M  V30 2917 O 283.211 -0.558382 1.83283 0
M  V30 2918 C 283.405 2.89101 2.10132 0
M  V30 2919 C 283.234 4.26084 1.43814 0
M  V30 2920 C 282.004 4.90994 1.19384 0
M  V30 2921 C 284.202 5.06754 0.877802 0
M  V30 2922 N 282.184 6.11911 0.49377 0
M  V30 2923 C 283.555 6.1924 0.306891 0
M  V30 2924 C 285.61 4.91814 0.776129 0
M  V30 2925 C 284.313 7.1842 -0.355774 0
M  V30 2926 C 286.339 5.91263 0.127252 0
M  V30 2927 C 285.701 7.03069 -0.432801 0
M  V30 2928 H 281.8 0.676872 0.391623 0
M  V30 2929 H 284.384 1.90603 0.397334 0
M  V30 2930 H 282.555 2.70456 2.78761 0
M  V30 2931 H 284.287 2.95142 2.76899 0
M  V30 2932 H 281.042 4.50074 1.47413 0
M  V30 2933 H 281.466 6.76813 0.159207 0
M  V30 2934 H 286.108 4.05564 1.19489 0
M  V30 2935 H 283.826 8.04264 -0.786499 0
M  V30 2936 H 287.412 5.81779 0.0495613 0
M  V30 2937 H 286.292 7.78702 -0.926958 0
M  V30 2938 N 283.795 -0.628877 1.44509 0
M  V30 2939 C 284.727 -1.754 1.47538 0
M  V30 2940 C 285.74 -1.58575 0.368506 0
M  V30 2941 O 286.929 -1.66847 0.634376 0
M  V30 2942 C 284.029 -3.1315 1.29577 0
M  V30 2943 C 283.202 -3.56413 2.53551 0
M  V30 2944 C 282.261 -4.7305 2.30457 0
M  V30 2945 O 281.287 -4.81247 3.03957 0
M  V30 2946 N 282.489 -5.64903 1.3366 0
M  V30 2947 H 285.254 -1.73272 2.44534 0
M  V30 2948 H 282.815 -0.813512 1.39977 0
M  V30 2949 H 284.807 -3.88902 1.11971 0
M  V30 2950 H 283.377 -3.09908 0.409371 0
M  V30 2951 H 282.597 -2.70847 2.86419 0
M  V30 2952 H 283.885 -3.82071 3.36005 0
M  V30 2953 H 283.283 -5.60975 0.729604 0
M  V30 2954 H 281.84 -6.40275 1.22032 0
M  V30 2955 N 285.273 -1.31445 -0.869486 0
M  V30 2956 C 286.183 -1.21097 -2.0093 0
M  V30 2957 C 287.199 -0.127584 -1.73532 0
M  V30 2958 O 288.375 -0.345477 -1.98415 0
M  V30 2959 C 285.44 -0.919378 -3.34288 0
M  V30 2960 C 284.501 -2.08971 -3.75006 0
M  V30 2961 C 283.734 -1.81194 -5.02001 0
M  V30 2962 O 283.957 -0.747296 -5.65484 0
M  V30 2963 O 282.891 -2.66883 -5.39497 0
M  V30 2964 H 286.717 -2.16883 -2.12592 0
M  V30 2965 H 284.302 -1.11189 -0.997868 0
M  V30 2966 H 286.184 -0.772625 -4.14257 0
M  V30 2967 H 284.859 0.00844772 -3.23699 0
M  V30 2968 H 283.766 -2.29187 -2.95676 0
M  V30 2969 H 285.099 -2.9998 -3.90221 0
M  V30 2970 N 286.751 1.08385 -1.14413 0
M  V30 2971 C 287.981 1.8425 -0.934644 0
M  V30 2972 C 288.389 1.81907 0.520234 0
M  V30 2973 O 287.732 1.22126 1.37226 0
M  V30 2974 C 287.794 3.32853 -1.35828 0
M  V30 2975 C 287.458 3.5893 -2.82875 0
M  V30 2976 C 288.455 3.53756 -3.80989 0
M  V30 2977 C 286.14 3.86934 -3.20293 0
M  V30 2978 C 288.134 3.76216 -5.14529 0
M  V30 2979 C 285.821 4.09047 -4.54008 0
M  V30 2980 C 286.819 4.03682 -5.50936 0
M  V30 2981 O 286.507 4.25214 -6.82238 0
M  V30 2982 H 286.239 0.588502 -0.332628 0
M  V30 2983 H 288.793 1.37792 -1.52324 0
M  V30 2984 H 287.023 3.8007 -0.713019 0
M  V30 2985 H 288.712 3.90154 -1.11957 0
M  V30 2986 H 289.478 3.32135 -3.53428 0
M  V30 2987 H 285.357 3.9023 -2.45442 0
M  V30 2988 H 288.901 3.71943 -5.90173 0
M  V30 2989 H 284.798 4.30151 -4.8129 0
M  V30 2990 H 285.566 4.42619 -6.88499 0
M  V30 2991 N 288.23 0.939286 1.26551 0
M  V30 2992 C 289.641 0.628782 1.75793 0
M  V30 2993 C 289.992 -0.856046 1.7654 0
M  V30 2994 O 289.117 -1.66994 1.3763 0
M  V30 2995 C 289.712 1.13465 3.19235 0
M  V30 2996 C 288.271 0.874601 3.66098 0
M  V30 2997 C 287.418 1.28667 2.45642 0
M  V30 2998 H 290.369 1.1178 1.12654 0
M  V30 2999 H 290.39 0.487609 3.77363 0
M  V30 3000 H 289.902 2.21535 3.1866 0
M  V30 3001 H 288.003 -0.191793 3.72106 0
M  V30 3002 H 288.116 1.50028 4.55004 0
M  V30 3003 H 286.48 0.705109 2.44745 0
M  V30 3004 H 287.263 2.37625 2.47769 0
M  V30 3005 N 289.708 -1.40897 0.706093 0
M  V30 3006 C 290.641 -2.282 -0.00328781 0
M  V30 3007 C 291.619 -1.42816 -0.77732 0
M  V30 3008 O 292.803 -1.72237 -0.765944 0
M  V30 3009 C 289.93 -3.23226 -1.01205 0
M  V30 3010 C 288.976 -4.25222 -0.329955 0
M  V30 3011 S 289.809 -5.27269 0.935298 0
M  V30 3012 C 290.965 -6.25859 -0.0716061 0
M  V30 3013 H 291.198 -2.88016 0.737143 0
M  V30 3014 H 288.731 -1.46191 0.496756 0
M  V30 3015 H 290.689 -3.78503 -1.58888 0
M  V30 3016 H 289.35 -2.62485 -1.72513 0
M  V30 3017 H 288.543 -4.92023 -1.09221 0
M  V30 3018 H 288.145 -3.73595 0.174069 0
M  V30 3019 H 290.437 -6.71204 -0.921521 0
M  V30 3020 H 291.38 -7.0586 0.562765 0
M  V30 3021 H 291.788 -5.62852 -0.431088 0
M  V30 3022 N 291.186 -0.45159 -1.50991 0
M  V30 3023 C 292.434 0.109857 -2.01801 0
M  V30 3024 C 292.755 1.41958 -1.3369 0
M  V30 3025 O 292.025 1.9003 -0.475951 0
M  V30 3026 H 290.605 0.0435884 -0.745727 0
M  V30 3027 H 293.267 -0.597557 -1.85514 0
M  V30 3028 H 292.363 0.275489 -3.10882 0
M  V30 3029 N 292.664 1.56529 -0.183458 0
M  V30 3030 C 293.614 2.1515 0.754605 0
M  V30 3031 C 294.598 1.08904 1.18443 0
M  V30 3032 O 295.79 1.34997 1.14476 0
M  V30 3033 C 292.919 2.80531 1.97881 0
M  V30 3034 C 292.005 3.93952 1.57043 0
M  V30 3035 N 292.396 4.98221 0.87231 0
M  V30 3036 C 290.694 4.05338 1.86057 0
M  V30 3037 C 291.395 5.77836 0.669377 0
M  V30 3038 N 290.371 5.29858 1.21454 0
M  V30 3039 H 294.173 2.93132 0.212387 0
M  V30 3040 H 291.687 1.62391 0.0167725 0
M  V30 3041 H 293.684 3.20914 2.6612 0
M  V30 3042 H 292.344 2.04035 2.52586 0
M  V30 3043 H 293.355 5.15191 0.529033 0
M  V30 3044 H 290.032 3.39957 2.42354 0
M  V30 3045 H 291.422 6.71799 0.116422 0
M  V30 3046 N 294.142 -0.090211 1.57342 0
M  V30 3047 C 295.052 -1.12735 2.05738 0
M  V30 3048 C 296.068 -1.43557 0.983231 0
M  V30 3049 O 297.244 -1.54101 1.29672 0
M  V30 3050 C 294.309 -2.42659 2.47624 0
M  V30 3051 C 293.37 -2.18975 3.69254 0
M  V30 3052 C 292.603 -3.42704 4.09133 0
M  V30 3053 O 292.826 -4.51127 3.49057 0
M  V30 3054 O 291.76 -3.32003 5.02053 0
M  V30 3055 H 295.586 -0.746279 2.94388 0
M  V30 3056 H 293.171 -0.303064 1.46294 0
M  V30 3057 H 295.053 -3.19155 2.7517 0
M  V30 3058 H 293.728 -2.80182 1.62109 0
M  V30 3059 H 292.635 -1.40244 3.46818 0
M  V30 3060 H 293.968 -1.86342 4.55563 0
M  V30 3061 N 295.62 -1.53406 -0.361157 0
M  V30 3062 C 296.866 -1.70054 -1.10496 0
M  V30 3063 C 297.199 -0.453278 -1.88836 0
M  V30 3064 O 296.474 0.5495 -1.86576 0
M  V30 3065 C 296.757 -2.95317 -2.06058 0
M  V30 3066 C 296.61 -4.3021 -1.31298 0
M  V30 3067 C 297.929 -3.16193 -3.06121 0
M  V30 3068 H 295.048 -0.618799 -0.400321 0
M  V30 3069 H 297.69 -1.86052 -0.385318 0
M  V30 3070 H 295.84 -2.81809 -2.67425 0
M  V30 3071 H 297.512 -4.55538 -0.726807 0
M  V30 3072 H 295.755 -4.29421 -0.614853 0
M  V30 3073 H 296.426 -5.14 -2.01265 0
M  V30 3074 H 298.902 -3.28916 -2.5486 0
M  V30 3075 H 297.778 -4.05266 -3.70204 0
M  V30 3076 H 298.039 -2.31676 -3.76535 0
M  V30 3077 N 297.098 0.621204 -1.44841 0
M  V30 3078 C 298.028 1.74366 -1.55303 0
M  V30 3079 C 299.009 1.65199 -0.405385 0
M  V30 3080 O 300.194 1.83807 -0.626787 0
M  V30 3081 C 297.324 3.12931 -1.50637 0
M  V30 3082 C 296.278 3.36896 -2.63979 0
M  V30 3083 C 295.604 4.75594 -2.44366 0
M  V30 3084 C 296.904 3.28483 -4.06074 0
M  V30 3085 H 298.598 1.65867 -2.49256 0
M  V30 3086 H 296.144 0.796558 -1.19962 0
M  V30 3087 H 298.097 3.9124 -1.56555 0
M  V30 3088 H 296.821 3.22237 -0.532057 0
M  V30 3089 H 295.48 2.60972 -2.57467 0
M  V30 3090 H 295.128 4.81616 -1.45105 0
M  V30 3091 H 294.828 4.92586 -3.20364 0
M  V30 3092 H 296.352 5.5612 -2.52117 0
M  V30 3093 H 297.766 3.96684 -4.13902 0
M  V30 3094 H 296.163 3.57008 -4.82354 0
M  V30 3095 H 297.233 2.26133 -4.28943 0
M  V30 3096 N 298.576 1.31904 0.862503 0
M  V30 3097 C 299.987 1.19803 1.43193 0
M  V30 3098 C 300.338 -0.192567 1.95253 0
M  V30 3099 O 299.463 -1.09081 1.86896 0
M  V30 3100 C 300.058 2.16883 2.60283 0
M  V30 3101 C 298.617 2.08692 3.13248 0
M  V30 3102 C 297.764 2.05691 1.85975 0
M  V30 3103 H 300.715 1.43846 0.670365 0
M  V30 3104 H 300.736 1.76278 3.37204 0
M  V30 3105 H 300.248 3.18083 2.22363 0
M  V30 3106 H 298.349 1.10713 3.55771 0
M  V30 3107 H 298.462 2.9815 3.75025 0
M  V30 3108 H 296.826 1.50814 2.05249 0
M  V30 3109 H 297.609 3.08659 1.50282 0
M  V30 3110 N 300.054 -1.07777 1.14986 0
M  V30 3111 C 300.986 -2.14769 0.800436 0
M  V30 3112 C 301.999 -1.61739 -0.185595 0
M  V30 3113 O 303.188 -1.78462 0.0370358 0
M  V30 3114 C 300.288 -3.38481 0.168533 0
M  V30 3115 C 299.461 -4.20876 1.1909 0
M  V30 3116 C 298.52 -5.22976 0.581575 0
M  V30 3117 O 297.546 -5.55388 1.24633 0
M  V30 3118 N 298.748 -5.76976 -0.638706 0
M  V30 3119 H 301.513 -2.45348 1.72118 0
M  V30 3120 H 299.074 -1.23645 1.04515 0
M  V30 3121 H 301.066 -4.03916 -0.251764 0
M  V30 3122 H 299.636 -3.05651 -0.655467 0
M  V30 3123 H 298.856 -3.51322 1.78791 0
M  V30 3124 H 300.144 -4.7274 1.88133 0
M  V30 3125 H 299.542 -5.52886 -1.19723 0
M  V30 3126 H 298.099 -6.44061 -1.00142 0
M  V30 3127 N 301.532 -0.945985 -1.26051 0
M  V30 3128 C 302.442 -0.465633 -2.29933 0
M  V30 3129 C 303.458 0.462761 -1.67733 0
M  V30 3130 O 304.634 0.341118 -1.9849 0
M  V30 3131 C 301.699 0.256994 -3.45746 0
M  V30 3132 C 300.76 -0.708549 -4.23412 0
M  V30 3133 C 299.993 -0.0203135 -5.33696 0
M  V30 3134 O 300.216 1.19571 -5.57726 0
M  V30 3135 O 299.15 -0.701459 -5.97799 0
M  V30 3136 H 302.976 -1.32866 -2.73094 0
M  V30 3137 H 300.561 -0.712071 -1.31339 0
M  V30 3138 H 302.443 0.663852 -4.16138 0
M  V30 3139 H 301.118 1.09533 -3.04605 0
M  V30 3140 H 300.025 -1.16545 -3.55483 0
M  V30 3141 H 301.358 -1.51465 -4.68315 0
M  V30 3142 N 303.011 1.40521 -0.713556 0
M  V30 3143 C 304.26 2.00155 -0.249192 0
M  V30 3144 C 304.573 1.57224 1.16362 0
M  V30 3145 O 305.779 2.09542 1.72639 0
M  V30 3146 C 304.235 3.5773 -0.3946 0
M  V30 3147 C 303.843 4.09635 -1.81392 0
M  V30 3148 C 305.587 4.24499 0.00907364 0
M  V30 3149 C 303.494 5.59707 -1.91003 0
M  V30 3150 H 302.424 0.74868 -0.0894114 0
M  V30 3151 H 305.075 1.60784 -0.884352 0
M  V30 3152 H 303.457 3.94792 0.30911 0
M  V30 3153 H 304.631 3.83955 -2.54785 0
M  V30 3154 H 302.946 3.55456 -2.16888 0
M  V30 3155 H 305.543 5.34683 -0.0420404 0
M  V30 3156 H 305.886 4.02824 1.05065 0
M  V30 3157 H 306.419 3.92536 -0.645007 0
M  V30 3158 H 303.158 5.86234 -2.93275 0
M  V30 3159 H 302.678 5.87258 -1.22019 0
M  V30 3160 H 304.357 6.24776 -1.6812 0
M  V30 3161 N 304.489 0.459591 1.5075 0
M  V30 3162 C 305.439 -0.358926 2.25157 0
M  V30 3163 C 306.423 -0.971285 1.28276 0
M  V30 3164 O 307.615 -0.885739 1.53244 0
M  V30 3165 C 304.744 -1.44695 3.11317 0
M  V30 3166 C 303.83 -0.842894 4.15639 0
M  V30 3167 N 304.221 0.0299373 5.05791 0
M  V30 3168 C 302.519 -1.10809 4.32015 0
M  V30 3169 C 303.22 0.371563 5.80512 0
M  V30 3170 N 302.196 -0.250409 5.43023 0
M  V30 3171 H 305.998 0.313636 2.92222 0
M  V30 3172 H 303.512 0.273021 1.60089 0
M  V30 3173 H 305.509 -2.04641 3.63218 0
M  V30 3174 H 304.169 -2.12162 2.45799 0
M  V30 3175 H 305.18 0.39797 5.16369 0
M  V30 3176 H 301.857 -1.7786 3.77719 0
M  V30 3177 H 303.247 1.08319 6.63111 0
M  V30 3178 N 305.967 -1.56429 0.191757 0
M  V30 3179 C 307.244 -1.89224 -0.495332 0
M  V30 3180 C 307.624 -1.10478 -1.79883 0
M  V30 3181 O 306.972 -0.204852 -2.2758 0
M  V30 3182 C 307.182 -3.41548 -0.717367 0
M  V30 3183 C 308.53 -4.11711 -1.03823 0
M  V30 3184 O 309.554 -3.4698 -0.805204 0
M  V30 3185 O 308.413 -5.2611 -1.47887 0
M  V30 3186 H 305.507 -0.785788 -0.25781 0
M  V30 3187 H 308.053 -1.68111 0.231721 0
M  V30 3188 H 306.825 -3.90772 0.203287 0
M  V30 3189 H 306.448 -3.68342 -1.497 0
M  V30 3190 N 307.445 0.0818655 -1.57387 0
M  V30 3191 C 308.694 0.781681 -1.85937 0
M  V30 3192 C 309.007 1.79246 -0.782957 0
M  V30 3193 O 310.213 2.54112 -0.955987 0
M  V30 3194 C 308.669 1.44109 -3.29789 0
M  V30 3195 C 308.277 0.469396 -4.45534 0
M  V30 3196 C 310.021 2.12386 -3.67549 0
M  V30 3197 C 307.928 1.13415 -5.80423 0
M  V30 3198 H 306.858 0.295682 -0.693605 0
M  V30 3199 H 309.509 0.0348051 -1.83467 0
M  V30 3200 H 307.891 2.23588 -3.2684 0
M  V30 3201 H 309.065 -0.294856 -4.59856 0
M  V30 3202 H 307.38 -0.108383 -4.16259 0
M  V30 3203 H 309.977 2.62878 -4.65617 0
M  V30 3204 H 310.32 2.91877 -2.96839 0
M  V30 3205 H 310.853 1.39751 -3.72444 0
M  V30 3206 H 307.592 0.379771 -6.54399 0
M  V30 3207 H 307.112 1.8695 -5.69921 0
M  V30 3208 H 308.791 1.65686 -6.25426 0
M  V30 3209 N 308.923 1.53595 0.353017 0
M  V30 3210 C 310.171 1.70049 1.09215 0
M  V30 3211 C 310.492 0.461406 1.89463 0
M  V30 3212 O 309.762 -0.524633 1.88744 0
M  V30 3213 H 308.342 0.626912 0.40619 0
M  V30 3214 H 311.004 1.90822 0.396585 0
M  V30 3215 H 310.1 2.56718 1.77488 0
M  V30 3216 N 310.401 -0.613514 1.45168 0
M  V30 3217 C 311.364 -1.7065 1.53007 0
M  V30 3218 C 312.364 -1.5548 0.410184 0
M  V30 3219 O 313.554 -1.60656 0.673455 0
M  V30 3220 C 310.686 -3.09875 1.42093 0
M  V30 3221 H 311.879 -1.65068 2.50385 0
M  V30 3222 H 309.432 -0.828728 1.32521 0
M  V30 3223 H 310.167 -3.21039 0.458769 0
M  V30 3224 H 309.952 -3.22293 2.23315 0
M  V30 3225 H 311.442 -3.895 1.50598 0
M  V30 3226 N 311.879 -1.3236 -0.855495 0
M  V30 3227 C 313.125 -1.24064 -1.61182 0
M  V30 3228 C 313.48 0.195914 -1.914 0
M  V30 3229 O 312.773 1.13345 -1.54478 0
M  V30 3230 C 312.967 -2.03275 -2.93963 0
M  V30 3231 C 312.796 -3.54486 -2.76712 0
M  V30 3232 C 311.566 -4.23824 -2.75139 0
M  V30 3233 C 313.764 -4.49154 -2.50531 0
M  V30 3234 N 311.746 -5.61095 -2.4909 0
M  V30 3235 C 313.117 -5.74195 -2.3388 0
M  V30 3236 C 315.172 -4.3842 -2.35992 0
M  V30 3237 C 313.875 -6.89716 -2.04168 0
M  V30 3238 C 315.901 -5.53739 -2.0767 0
M  V30 3239 C 315.263 -6.77779 -1.9182 0
M  V30 3240 H 311.362 -0.509139 -0.59355 0
M  V30 3241 H 313.946 -1.66715 -1.00569 0
M  V30 3242 H 312.117 -1.6297 -3.52555 0
M  V30 3243 H 313.849 -1.86881 -3.58967 0
M  V30 3244 H 310.604 -3.75934 -2.88047 0
M  V30 3245 H 311.028 -6.33411 -2.38996 0
M  V30 3246 H 315.67 -3.43172 -2.46967 0
M  V30 3247 H 313.388 -7.84977 -1.9193 0
M  V30 3248 H 316.974 -5.4736 -1.97201 0
M  V30 3249 H 315.854 -7.65504 -1.70217 0
M  V30 3250 N 313.357 1.07166 -1.15556 0
M  V30 3251 C 314.287 2.16403 -0.877046 0
M  V30 3252 C 315.268 1.69217 0.173111 0
M  V30 3253 O 316.453 1.94181 0.027084 0
M  V30 3254 C 313.583 3.45349 -0.367632 0
M  V30 3255 C 312.537 4.05995 -1.35468 0
M  V30 3256 C 311.863 5.30045 -0.704038 0
M  V30 3257 C 313.163 4.45804 -2.72132 0
M  V30 3258 H 314.857 2.39959 -1.79053 0
M  V30 3259 H 312.403 1.15325 -0.862331 0
M  V30 3260 H 314.356 4.21095 -0.160317 0
M  V30 3261 H 313.08 3.21385 0.581326 0
M  V30 3262 H 311.739 3.32296 -1.54839 0
M  V30 3263 H 311.387 5.02373 0.251128 0
M  V30 3264 H 311.087 5.71579 -1.36277 0
M  V30 3265 H 312.611 6.08495 -0.50654 0
M  V30 3266 H 314.025 5.12671 -2.56595 0
M  V30 3267 H 312.422 4.98296 -3.34397 0
M  V30 3268 H 313.492 3.57083 -3.28054 0
M  V30 3269 N 314.835 0.952656 1.25548 0
M  V30 3270 C 315.798 0.475794 2.24207 0
M  V30 3271 C 316.798 -0.419428 1.55234 0
M  V30 3272 O 317.988 -0.216994 1.72843 0
M  V30 3273 C 315.12 -0.312814 3.39462 0
M  V30 3274 H 316.313 1.34779 2.67908 0
M  V30 3275 H 313.866 0.735739 1.37901 0
M  V30 3276 H 314.601 -1.20257 3.01179 0
M  V30 3277 H 314.386 0.329404 3.90714 0
M  V30 3278 H 315.876 -0.635986 4.12729 0
M  V30 3279 N 316.313 -1.40141 0.720998 0
M  V30 3280 C 317.276 -2.29058 0.0805834 0
M  V30 3281 C 318.276 -1.45632 -0.681758 0
M  V30 3282 O 319.466 -1.6648 -0.512856 0
M  V30 3283 C 316.598 -3.28925 -0.895593 0
M  V30 3284 H 317.791 -2.87191 0.863793 0
M  V30 3285 H 315.344 -1.48553 0.485975 0
M  V30 3286 H 316.079 -2.75822 -1.70566 0
M  V30 3287 H 315.864 -3.90519 -0.351766 0
M  V30 3288 H 317.354 -3.95494 -1.34069 0
M  V30 3289 N 317.792 -0.46758 -1.50504 0
M  V30 3290 C 319.208 -0.121533 -1.59137 0
M  V30 3291 C 319.408 1.3717 -1.47603 0
M  V30 3292 O 318.464 2.14464 -1.33272 0
M  V30 3293 C 319.777 -0.6686 -2.93173 0
M  V30 3294 C 321.325 -0.631716 -3.06559 0
M  V30 3295 C 321.8 -1.15627 -4.43164 0
M  V30 3296 N 323.291 -1.11553 -4.49567 0
M  V30 3297 C 324.026 -1.49195 -5.5365 0
M  V30 3298 N 323.522 -1.94269 -6.65005 0
M  V30 3299 N 325.315 -1.4082 -5.44175 0
M  V30 3300 H 317.466 -1.4388 -1.56245 0
M  V30 3301 H 319.729 -0.594784 -0.738198 0
M  V30 3302 H 319.435 -1.71453 -3.07078 0
M  V30 3303 H 319.309 -0.11021 -3.77039 0
M  V30 3304 H 321.696 0.405297 -2.92304 0
M  V30 3305 H 321.777 -1.22687 -2.24458 0
M  V30 3306 H 321.421 -2.1919 -4.58168 0
M  V30 3307 H 321.351 -0.537365 -5.23851 0
M  V30 3308 H 323.842 -0.784895 -3.69659 0
M  V30 3309 H 324.155 -2.21148 -7.40482 0
M  V30 3310 H 322.5 -1.98219 -6.66134 0
M  V30 3311 H 325.691 -1.0545 -4.56068 0
M  V30 3312 H 325.864 -1.70481 -6.25172 0
M  V30 3313 N 319.27 1.56325 -0.20005 0
M  V30 3314 C 320.2 2.22318 0.713916 0
M  V30 3315 C 321.181 1.18788 1.21752 0
M  V30 3316 O 322.366 1.47309 1.26545 0
M  V30 3317 C 319.496 2.88639 1.93144 0
M  V30 3318 C 318.45 3.98457 1.56255 0
M  V30 3319 C 317.776 4.51967 2.85709 0
M  V30 3320 C 319.076 5.16612 0.768747 0
M  V30 3321 H 320.77 2.98952 0.163755 0
M  V30 3322 H 318.316 1.43792 0.0773219 0
M  V30 3323 H 320.269 3.33491 2.57608 0
M  V30 3324 H 318.993 2.09419 2.50621 0
M  V30 3325 H 317.652 3.54305 0.941471 0
M  V30 3326 H 317.3 3.69503 3.41287 0
M  V30 3327 H 317 5.26071 2.6177 0
M  V30 3328 H 318.524 4.99523 3.51154 0
M  V30 3329 H 319.938 5.57977 1.3166 0
M  V30 3330 H 318.335 5.96812 0.627286 0
M  V30 3331 H 319.405 4.84358 -0.229168 0
M  V30 3332 N 320.748 -0.0735177 1.57428 0
M  V30 3333 C 321.996 -0.771472 1.86796 0
M  V30 3334 C 322.317 -1.78201 0.791804 0
M  V30 3335 O 321.587 -1.95074 -0.179718 0
M  V30 3336 H 320.167 -0.28791 0.689287 0
M  V30 3337 H 322.829 -0.0500161 1.94836 0
M  V30 3338 H 321.925 -1.28874 2.8425 0
M  V30 3339 O 322.265 -1.60033 -0.217154 0
M  V30 3340 H 322.956 -1.73663 -0.857964 0
M  V30 END ATOM
M  V30 BEGIN BOND
M  V30 END BOND
M  V30 END CTAB
M  END
$$$$
