drugbank_target|Q53591 Hyaluronate lyase (DB04548)
 OpenBabel12092119593D

  0  0  0     0  0            999 V3000
M  V30 BEGIN CTAB
M  V30 COUNTS 15591 15743 0 0 0
M  V30 BEGIN ATOM
M  V30 1 H -0.908 1.98254 -0.117106 0
M  V30 2 N 0 1.576 0 0
M  V30 3 C 0.933 2.03868 1.02534 0
M  V30 4 C 1.911 0.928543 1.3348 0
M  V30 5 O 3.095 1.19667 1.45644 0
M  V30 6 C 0.222 2.43627 2.35294 0
M  V30 7 C -0.732 3.65373 2.2001 0
M  V30 8 S 0.101 5.13292 1.52614 0
M  V30 9 C 1.257 5.56322 2.86805 0
M  V30 10 H 1.49 2.90518 0.631377 0
M  V30 11 H -0.977 1.52953 0.210867 0
M  V30 12 H 0.981 2.67203 3.11629 0
M  V30 13 H -0.358 1.57376 2.7183 0
M  V30 14 H -1.165 3.90944 3.18086 0
M  V30 15 H -1.563 3.418 1.51819 0
M  V30 16 H 0.729 5.58782 3.83104 0
M  V30 17 H 1.672 6.56266 2.65933 0
M  V30 18 H 2.08 4.83886 2.90714 0
M  V30 19 N 1.4781 -0.272755 1.55222 0
M  V30 20 C 2.4251 -1.33716 1.88119 0
M  V30 21 C 3.3951 -1.49066 0.73271 0
M  V30 22 O 4.5801 -1.63469 0.984002 0
M  V30 23 C 1.7201 -2.69238 2.15882 0
M  V30 24 C 0.8331 -2.62108 3.43399 0
M  V30 25 C -0.0319 -3.89811 3.60861 0
M  V30 26 C -0.9929 -3.77193 4.8207 0
M  V30 27 N -1.8559 -4.9673 4.96189 0
M  V30 28 H 2.9841 -1.04962 2.78903 0
M  V30 29 H 0.5211 -0.507088 1.38083 0
M  V30 30 H 2.4791 -3.48089 2.29978 0
M  V30 31 H 1.1091 -2.96194 1.28331 0
M  V30 32 H 0.1611 -1.74967 3.37773 0
M  V30 33 H 1.4731 -2.48685 4.32386 0
M  V30 34 H 0.6271 -4.77103 3.74777 0
M  V30 35 H -0.6339 -4.06102 2.7006 0
M  V30 36 H -1.6289 -2.88284 4.68159 0
M  V30 37 H -0.4039 -3.62421 5.74307 0
M  V30 38 H -2.4579 -5.13431 4.08319 0
M  V30 39 H -2.5409 -4.85839 5.79221 0
M  V30 40 H -1.2729 -5.85594 5.1449 0
M  V30 41 N 2.9562 -1.48159 -0.537278 0
M  V30 42 C 3.8882 -1.58218 -1.65831 0
M  V30 43 C 4.9012 -0.466948 -1.5596 0
M  V30 44 O 6.0902 -0.73747 -1.62553 0
M  V30 45 C 3.1902 -1.48906 -3.04434 0
M  V30 46 C 2.3632 -2.75343 -3.3986 0
M  V30 47 C 1.4222 -2.59588 -4.57712 0
M  V30 48 O 0.4482 -3.33457 -4.61297 0
M  V30 49 N 1.6502 -1.68724 -5.55439 0
M  V30 50 H 4.4152 -2.54891 -1.57641 0
M  V30 51 H 1.9762 -1.4479 -0.724386 0
M  V30 52 H 3.9682 -1.36072 -3.81139 0
M  V30 53 H 2.5382 -0.602368 -3.06741 0
M  V30 54 H 1.7582 -3.02795 -2.52406 0
M  V30 55 H 3.0462 -3.5924 -3.60311 0
M  V30 56 H 2.4442 -1.07898 -5.55315 0
M  V30 57 H 1.0012 -1.61832 -6.3139 0
M  V30 58 N 4.4343 0.785586 -1.36625 0
M  V30 59 C 5.6803 1.54591 -1.31261 0
M  V30 60 C 6.0133 1.93906 0.106823 0
M  V30 61 O 5.2883 1.63007 1.06108 0
M  V30 62 C 5.5713 2.82038 -2.23889 0
M  V30 63 C 5.4243 2.49066 -3.74548 0
M  V30 64 C 6.7433 3.83887 -2.15217 0
M  V30 65 H 3.8623 0.560846 -0.478143 0
M  V30 66 H 6.5043 0.902278 -1.67209 0
M  V30 67 H 4.6543 3.36961 -1.93363 0
M  V30 68 H 6.3263 2.00164 -4.15611 0
M  V30 69 H 4.5693 1.81954 -3.93796 0
M  V30 70 H 5.2403 3.40109 -4.34776 0
M  V30 71 H 7.7163 3.38421 -2.42096 0
M  V30 72 H 6.5923 4.70806 -2.82193 0
M  V30 73 H 6.8533 4.27131 -1.14068 0
M  V30 74 N 5.9124 1.20967 1.01018 0
M  V30 75 C 7.1584 1.02526 1.74975 0
M  V30 76 C 7.4914 -0.4408 1.89131 0
M  V30 77 O 6.7664 -1.32718 1.42184 0
M  V30 78 C 7.0494 1.71699 3.1653 0
M  V30 79 C 6.9024 3.25791 3.10129 0
M  V30 80 C 8.2214 1.45531 4.15342 0
M  V30 81 H 5.3404 0.373863 0.635134 0
M  V30 82 H 7.9824 1.49071 1.17805 0
M  V30 83 H 6.1324 1.32128 3.65341 0
M  V30 84 H 7.8044 3.74697 2.69072 0
M  V30 85 H 6.0474 3.56363 2.47362 0
M  V30 86 H 6.7184 3.69353 4.10222 0
M  V30 87 H 9.1944 1.79872 3.75213 0
M  V30 88 H 8.0704 1.96453 5.1254 0
M  V30 89 H 8.3314 0.384237 4.40427 0
M  V30 90 N 7.3905 -1.2043 1.01659 0
M  V30 91 C 8.6675 -1.8548 0.621004 0
M  V30 92 C 9.0475 -1.9091 -0.900919 0
M  V30 93 O 8.3955 -1.41694 -1.79263 0
M  V30 94 C 8.6055 -3.25119 1.2688 0
M  V30 95 C 9.9535 -4.01403 1.38423 0
M  V30 96 O 10.9775 -3.34473 1.22501 0
M  V30 97 O 9.8365 -5.21265 1.64151 0
M  V30 98 H 6.9305 -0.798761 0.214266 0
M  V30 99 H 9.4765 -1.28019 1.11396 0
M  V30 100 H 8.2485 -3.15932 2.30873 0
M  V30 101 H 7.8715 -3.90212 0.762917 0
M  V30 102 N 8.8686 -0.792821 -1.36206 0
M  V30 103 C 9.8166 -0.181555 -2.3189 0
M  V30 104 C 10.8106 0.661025 -1.55971 0
M  V30 105 O 12.0166 0.555728 -1.71206 0
M  V30 106 H 8.3916 -0.0399382 -0.750939 0
M  V30 107 H 10.3626 -1.00394 -2.81005 0
M  V30 108 C 9.1116 0.666444 -3.41253 0
M  V30 109 H 8.4346 0.0274489 -3.99791 0
M  V30 110 H 9.8746 1.06076 -4.10517 0
M  V30 111 C 8.3336 1.82614 -2.83114 0
M  V30 112 O 8.8636 2.9229 -2.75553 0
M  V30 113 N 7.0696 1.63333 -2.40356 0
M  V30 114 H 6.6166 0.741217 -2.46706 0
M  V30 115 H 6.5746 2.41087 -2.01803 0
M  V30 116 N 10.3467 1.47872 -0.545128 0
M  V30 117 C 11.2787 2.27869 0.246621 0
M  V30 118 C 12.2917 1.36282 0.890561 0
M  V30 119 O 13.4807 1.61207 0.766449 0
M  V30 120 C 10.5807 3.10159 1.36582 0
M  V30 121 C 9.7537 4.29627 0.820954 0
M  V30 122 C 8.8127 4.93607 1.82314 0
M  V30 123 O 7.8387 5.52366 1.37406 0
M  V30 124 N 9.0407 4.87211 3.15603 0
M  V30 125 H 11.8057 2.96459 -0.439539 0
M  V30 126 H 9.3667 1.57367 -0.380421 0
M  V30 127 H 11.3587 3.49829 2.03474 0
M  V30 128 H 9.9287 2.43891 1.9554 0
M  V30 129 H 9.1487 3.94192 -0.0244032 0
M  V30 130 H 10.4367 5.06928 0.436063 0
M  V30 131 H 9.8347 4.40651 3.54744 0
M  V30 132 H 8.3917 5.30937 3.78087 0
M  V30 133 N 11.8248 0.280983 1.55075 0
M  V30 134 C 13.0528 -0.337293 2.04132 0
M  V30 135 C 13.4678 -1.4903 1.15912 0
M  V30 136 O 12.8248 -1.81606 0.180459 0
M  V30 137 C 12.8758 -0.812706 3.52246 0
M  V30 138 O 12.5968 0.294387 4.3711 0
M  V30 139 C 14.0978 -1.4982 4.17216 0
M  V30 140 H 11.3178 -0.0761638 0.666663 0
M  V30 141 H 13.8618 0.414787 2.00249 0
M  V30 142 H 12.0168 -1.51486 3.56554 0
M  V30 143 H 12.4308 -0.0721325 5.2445 0
M  V30 144 H 13.9048 -1.7822 5.22438 0
M  V30 145 H 14.3818 -2.43168 3.65741 0
M  V30 146 H 14.9878 -0.839742 4.16927 0
M  V30 147 N 13.3029 -1.57598 0.00835791 0
M  V30 148 C 14.2349 -2.05811 -1.00868 0
M  V30 149 C 15.2479 -0.977579 -1.30182 0
M  V30 150 O 16.4369 -1.25421 -1.27011 0
M  V30 151 C 13.5369 -2.45016 -2.34137 0
M  V30 152 C 12.7099 -3.75903 -2.23643 0
M  V30 153 C 11.7689 -4.01884 -3.3967 0
M  V30 154 O 10.7949 -4.72433 -3.17483 0
M  V30 155 N 11.9969 -3.50432 -4.62793 0
M  V30 156 H 14.7619 -2.93684 -0.597458 0
M  V30 157 H 12.3229 -1.60909 -0.178852 0
M  V30 158 H 14.3149 -2.59506 -3.10546 0
M  V30 159 H 12.8849 -1.62618 -2.66972 0
M  V30 160 H 12.1049 -3.7141 -1.32091 0
M  V30 161 H 13.3929 -4.61695 -2.13812 0
M  V30 162 H 12.7909 -2.93317 -4.83716 0
M  V30 163 H 11.3479 -3.70236 -5.3644 0
M  V30 164 N 14.781 0.264519 -1.55364 0
M  V30 165 C 15.729 1.34702 -1.89626 0
M  V30 166 C 16.723 1.50712 -0.773459 0
M  V30 167 O 17.929 1.52395 -0.957897 0
M  V30 168 H 14.304 0.450682 -0.601988 0
M  V30 169 H 16.275 1.0306 -2.80038 0
M  V30 170 C 15.024 2.6989 -2.19214 0
M  V30 171 H 14.347 2.58365 -3.05103 0
M  V30 172 H 15.787 3.44553 -2.47102 0
M  V30 173 C 14.246 3.21637 -1.00254 0
M  V30 174 O 14.776 4.00973 -0.241501 0
M  V30 175 N 12.982 2.7943 -0.797938 0
M  V30 176 H 12.529 2.15026 -1.4185 0
M  V30 177 H 12.487 3.144 -0.00363422 0
M  V30 178 N 16.2591 1.48442 0.529413 0
M  V30 179 C 17.2061 1.63007 1.63394 0
M  V30 180 C 18.1761 0.47212 1.59249 0
M  V30 181 O 19.3611 0.695673 1.77666 0
M  V30 182 C 16.5011 1.6763 3.01653 0
M  V30 183 C 15.6141 2.94535 3.16027 0
M  V30 184 C 14.7491 2.90316 4.44849 0
M  V30 185 C 13.7881 4.11923 4.52754 0
M  V30 186 N 12.9251 4.05777 5.72965 0
M  V30 187 H 17.7651 2.5733 1.50285 0
M  V30 188 H 15.3021 1.27613 0.731656 0
M  V30 189 H 17.2601 1.68292 3.81751 0
M  V30 190 H 15.8901 0.76797 3.13532 0
M  V30 191 H 14.9421 3.03615 2.29177 0
M  V30 192 H 16.2541 3.84512 3.17729 0
M  V30 193 H 15.4081 2.89382 5.33238 0
M  V30 194 H 14.1471 1.98068 4.45668 0
M  V30 195 H 13.1521 4.13131 3.62771 0
M  V30 196 H 14.3771 5.0533 4.53672 0
M  V30 197 H 12.3231 3.16351 5.74681 0
M  V30 198 H 12.2401 4.8946 5.76164 0
M  V30 199 H 13.5081 4.08904 6.6364 0
M  V30 200 N 17.7372 -0.778329 1.37039 0
M  V30 201 C 18.6472 -1.92253 1.34446 0
M  V30 202 C 19.6632 -1.72267 0.244991 0
M  V30 203 O 20.8392 -1.95615 0.479258 0
M  V30 204 C 17.9042 -3.27282 1.144 0
M  V30 205 C 16.9652 -3.59969 2.33925 0
M  V30 206 C 16.1982 -4.88555 2.14825 0
M  V30 207 O 16.4212 -5.59113 1.12912 0
M  V30 208 O 15.3552 -5.20153 3.02861 0
M  V30 209 H 19.1812 -1.97392 2.30803 0
M  V30 210 H 16.7662 -0.920154 1.17701 0
M  V30 211 H 18.6482 -4.08062 1.05182 0
M  V30 212 H 17.3232 -3.23011 0.211124 0
M  V30 213 H 16.2302 -2.7945 2.48714 0
M  V30 214 H 17.5632 -3.68976 3.25757 0
M  V30 215 N 19.2153 -1.21501 -1.00376 0
M  V30 216 C 20.1453 -0.999478 -2.11028 0
M  V30 217 C 21.1263 0.0759671 -1.6993 0
M  V30 218 O 22.3113 -0.0841106 -1.94018 0
M  V30 219 C 19.4413 -0.564709 -3.42678 0
M  V30 220 C 18.3953 -1.58486 -3.97576 0
M  V30 221 C 17.7213 -1.00628 -5.25146 0
M  V30 222 C 19.0213 -2.97204 -4.29496 0
M  V30 223 H 20.7153 -1.92495 -2.29317 0
M  V30 224 H 18.2613 -0.92693 -1.102 0
M  V30 225 H 20.2143 -0.401091 -4.19487 0
M  V30 226 H 18.9383 0.396411 -3.24185 0
M  V30 227 H 17.5973 -1.73606 -3.22888 0
M  V30 228 H 17.2453 -0.0368439 -5.02987 0
M  V30 229 H 16.9453 -1.68771 -5.62841 0
M  V30 230 H 18.4693 -0.854015 -6.04598 0
M  V30 231 H 19.8833 -2.8552 -4.97143 0
M  V30 232 H 18.2803 -3.62372 -4.78338 0
M  V30 233 H 19.3503 -3.47956 -3.3772 0
M  V30 234 N 20.6934 1.19889 -1.02296 0
M  V30 235 C 21.9394 1.89701 -0.717033 0
M  V30 236 C 22.2724 1.7905 0.751989 0
M  V30 237 O 21.5474 1.17891 1.547 0
M  V30 238 C 21.8304 3.40858 -1.16136 0
M  V30 239 C 21.6834 3.60411 -2.69117 0
M  V30 240 C 23.0024 4.33876 -0.737549 0
M  V30 241 H 20.1214 0.688874 -0.261957 0
M  V30 242 H 22.7634 1.41154 -1.27183 0
M  V30 243 H 20.9134 3.82335 -0.689342 0
M  V30 244 H 22.5854 3.28145 -3.2422 0
M  V30 245 H 20.8284 3.03665 -3.0979 0
M  V30 246 H 21.4994 4.66396 -2.95261 0
M  V30 247 H 23.9754 4.00081 -1.14344 0
M  V30 248 H 22.8514 5.38242 -1.0764 0
M  V30 249 H 23.1124 4.40628 0.360436 0
M  V30 250 N 22.1715 0.800033 1.35784 0
M  V30 251 C 23.1185 0.203848 2.29898 0
M  V30 252 C 24.0885 -0.658375 1.52495 0
M  V30 253 O 25.2735 -0.604832 1.8096 0
M  V30 254 C 22.4135 -0.64688 3.38983 0
M  V30 255 C 21.5265 0.235054 4.3136 0
M  V30 256 C 20.6615 -0.623054 5.27533 0
M  V30 257 C 19.7005 0.259682 6.11549 0
M  V30 258 N 18.8375 -0.558019 6.99879 0
M  V30 259 H 23.6775 1.01186 2.80295 0
M  V30 260 H 21.2145 0.51053 1.37957 0
M  V30 261 H 23.1725 -1.15521 4.00887 0
M  V30 262 H 21.8025 -1.42021 2.89879 0
M  V30 263 H 20.8545 0.861438 3.70518 0
M  V30 264 H 22.1665 0.914768 4.9034 0
M  V30 265 H 21.3205 -1.19678 5.94779 0
M  V30 266 H 20.0595 -1.33636 4.69034 0
M  V30 267 H 19.0645 0.845726 5.43256 0
M  V30 268 H 20.2895 0.970748 6.72126 0
M  V30 269 H 18.2355 -1.25542 6.43875 0
M  V30 270 H 18.1525 0.0637872 7.55973 0
M  V30 271 H 19.4205 -1.11523 7.71481 0
M  V30 272 N 23.6496 -1.47581 0.552962 0
M  V30 273 C 24.5976 -2.31648 -0.21023 0
M  V30 274 C 25.5916 -1.42663 -0.913432 0
M  V30 275 O 26.7976 -1.5945 -0.835201 0
M  V30 276 H 23.1726 -0.746989 -0.0866676 0
M  V30 277 H 25.1436 -2.93869 0.518051 0
M  V30 278 C 23.8926 -3.25226 -1.22976 0
M  V30 279 H 23.2156 -3.93658 -0.698077 0
M  V30 280 H 24.6556 -3.86889 -1.73473 0
M  V30 281 C 23.1146 -2.48448 -2.27542 0
M  V30 282 O 23.6446 -2.22585 -3.34393 0
M  V30 283 N 21.8506 -2.09532 -2.01357 0
M  V30 284 H 21.3976 -2.30765 -1.14478 0
M  V30 285 H 21.3556 -1.58476 -2.71538 0
M  V30 286 N 25.1277 -0.289203 -1.54924 0
M  V30 287 C 26.3757 0.322879 -1.99504 0
M  V30 288 C 26.6967 1.55313 -1.1791 0
M  V30 289 O 25.9667 1.94001 -0.272097 0
M  V30 290 H 24.5467 0.122291 -0.736922 0
M  V30 291 H 27.2087 -0.397802 -1.90797 0
M  V30 292 H 26.3047 0.603061 -3.06218 0
M  V30 293 N 26.6058 1.57591 -0.0167156 0
M  V30 294 C 27.8828 1.82547 0.702564 0
M  V30 295 C 28.2628 0.898018 1.91047 0
M  V30 296 O 27.6108 -0.0493456 2.28447 0
M  V30 297 C 27.8208 3.31459 1.09251 0
M  V30 298 C 29.1688 3.97622 1.48937 0
M  V30 299 O 30.1928 3.35881 1.18584 0
M  V30 300 O 29.0518 5.06415 2.05442 0
M  V30 301 H 26.1458 0.752268 0.343544 0
M  V30 302 H 28.6918 1.69644 -0.0434495 0
M  V30 303 H 27.4638 3.9061 0.23227 0
M  V30 304 H 27.0868 3.49422 1.89709 0
M  V30 305 N 28.0839 -0.256276 1.55502 0
M  V30 306 C 29.3309 -0.985619 1.76895 0
M  V30 307 C 29.6589 -1.85671 0.579355 0
M  V30 308 O 28.9139 -1.90744 -0.437651 0
M  V30 309 C 29.2129 -1.88432 3.03691 0
M  V30 310 C 28.8789 -1.16936 4.35473 0
M  V30 311 C 27.5409 -0.97173 4.71286 0
M  V30 312 C 29.8929 -0.661889 5.1698 0
M  V30 313 C 27.2209 -0.254179 5.86149 0
M  V30 314 C 29.5729 0.042149 6.32586 0
M  V30 315 C 28.2369 0.25134 6.67027 0
M  V30 316 H 27.5069 -0.360663 0.647304 0
M  V30 317 H 30.1539 -0.256483 1.89775 0
M  V30 318 H 28.4589 -2.68021 2.85783 0
M  V30 319 H 30.1559 -2.45015 3.1744 0
M  V30 320 H 26.7459 -1.33332 4.07333 0
M  V30 321 H 30.9299 -0.802145 4.89775 0
M  V30 322 H 26.1859 -0.0815408 6.11346 0
M  V30 323 H 30.3599 0.443049 6.94989 0
M  V30 324 H 27.9869 0.809314 7.5588 0
M  V30 325 N 29.562 -1.4872 -0.521534 0
M  V30 326 C 30.51 -1.64328 -1.64618 0
M  V30 327 C 31.504 -0.50953 -1.61555 0
M  V30 328 O 32.71 -0.688525 -1.66311 0
M  V30 329 H 29.085 -0.517805 -0.545328 0
M  V30 330 H 31.056 -2.58767 -1.48601 0
M  V30 331 C 29.805 -1.70805 -3.02855 0
M  V30 332 H 29.128 -2.5741 -3.05909 0
M  V30 333 H 30.568 -1.85766 -3.81139 0
M  V30 334 C 29.027 -0.448479 -3.33902 0
M  V30 335 O 29.557 0.434928 -3.99339 0
M  V30 336 N 27.763 -0.317616 -2.88859 0
M  V30 337 H 27.31 -1.03748 -2.35784 0
M  V30 338 H 27.268 0.524113 -3.10001 0
M  V30 339 N 31.0401 0.771051 -1.3745 0
M  V30 340 C 31.9721 1.89352 -1.29146 0
M  V30 341 C 32.9851 1.61477 -0.207124 0
M  V30 342 O 34.1741 1.72382 -0.463324 0
M  V30 343 C 31.2741 3.24596 -0.974195 0
M  V30 344 C 30.4471 3.80111 -2.16413 0
M  V30 345 C 29.5061 4.93832 -1.81703 0
M  V30 346 O 28.5321 5.09382 -2.54006 0
M  V30 347 N 29.7341 5.75483 -0.761573 0
M  V30 348 H 32.4991 1.96991 -2.25864 0
M  V30 349 H 30.0601 0.950191 -1.31084 0
M  V30 350 H 32.0521 3.98193 -0.722828 0
M  V30 351 H 30.6221 3.12454 -0.0955527 0
M  V30 352 H 29.8421 2.98284 -2.57721 0
M  V30 353 H 31.1301 4.13932 -2.95867 0
M  V30 354 H 30.5281 5.65469 -0.161609 0
M  V30 355 H 29.0851 6.49302 -0.570064 0
M  V30 356 N 32.5182 1.22032 0.997298 0
M  V30 357 C 33.7462 1.06841 1.7718 0
M  V30 358 C 34.1612 -0.381325 1.84909 0
M  V30 359 O 33.5182 -1.26437 1.31605 0
M  V30 360 C 33.5692 1.66814 3.20711 0
M  V30 361 O 33.2902 3.06116 3.13408 0
M  V30 362 C 34.7912 1.56838 4.14628 0
M  V30 363 H 32.0112 0.374782 0.556578 0
M  V30 364 H 34.5552 1.61532 1.2541 0
M  V30 365 H 32.7102 1.16196 3.69564 0
M  V30 366 H 33.1242 3.34926 4.0364 0
M  V30 367 H 34.5982 2.03532 5.13107 0
M  V30 368 H 35.0752 0.524155 4.36061 0
M  V30 369 H 35.6812 2.06741 3.7167 0
M  V30 370 N 33.9963 -1.19345 1.0293 0
M  V30 371 C 34.9443 -2.24621 0.604001 0
M  V30 372 C 35.9383 -1.65452 -0.363587 0
M  V30 373 O 37.1443 -1.78497 -0.23212 0
M  V30 374 H 33.5193 -0.730858 0.177061 0
M  V30 375 H 35.4903 -2.5781 1.50255 0
M  V30 376 C 34.2393 -3.47688 -0.0289127 0
M  V30 377 H 33.5623 -3.93505 0.706651 0
M  V30 378 H 35.0023 -4.23011 -0.289432 0
M  V30 379 C 33.4613 -3.11817 -1.2756 0
M  V30 380 O 33.9913 -3.2451 -2.36762 0
M  V30 381 N 32.1973 -2.66246 -1.16453 0
M  V30 382 H 31.7443 -2.56118 -0.275914 0
M  V30 383 H 31.7023 -2.42617 -1.99961 0
M  V30 384 N 35.4744 -0.807222 -1.35358 0
M  V30 385 C 36.8854 -0.44876 -1.81226 0
M  V30 386 C 37.2364 1.02929 -1.67033 0
M  V30 387 O 36.3614 1.79991 -1.20133 0
M  V30 388 C 36.9564 -0.807774 -3.2903 0
M  V30 389 C 35.5154 -0.501901 -3.73039 0
M  V30 390 C 34.6624 -1.03304 -2.57339 0
M  V30 391 H 37.6134 -0.998808 -1.23327 0
M  V30 392 H 37.6344 -0.10554 -3.80354 0
M  V30 393 H 37.1464 -1.88357 -3.39328 0
M  V30 394 H 35.2474 0.565128 -3.68289 0
M  V30 395 H 35.3604 -1.03497 -4.67787 0
M  V30 396 H 33.7244 -0.455339 -2.50597 0
M  V30 397 H 34.5074 -2.11496 -2.70415 0
M  V30 398 N 36.9525 1.47285 -0.560781 0
M  V30 399 C 38.1985 2.02764 -0.0381184 0
M  V30 400 C 38.5315 1.43384 1.30976 0
M  V30 401 O 37.8065 0.590733 1.85312 0
M  V30 402 C 38.0895 3.60064 0.0511427 0
M  V30 403 C 37.9425 4.2987 -1.32408 0
M  V30 404 C 39.2615 4.33439 0.762795 0
M  V30 405 H 36.3805 0.736841 -0.0153264 0
M  V30 406 H 39.0225 1.75675 -0.723759 0
M  V30 407 H 37.1725 3.83274 0.635065 0
M  V30 408 H 38.8445 4.17989 -1.95148 0
M  V30 409 H 37.0875 3.90085 -1.8978 0
M  V30 410 H 37.7585 5.38478 -1.21431 0
M  V30 411 H 40.2345 4.15243 0.266965 0
M  V30 412 H 39.1105 5.43124 0.794221 0
M  V30 413 H 39.3715 4.02915 1.81966 0
M  V30 414 N 38.4306 0.297415 1.54768 0
M  V30 415 C 39.6556 -0.318435 2.04941 0
M  V30 416 C 40.0806 -1.4701 1.17345 0
M  V30 417 O 39.4386 -1.80436 0.176758 0
M  V30 418 C 39.4866 -0.755749 3.52592 0
M  V30 419 O 38.5906 -1.86088 3.68028 0
M  V30 420 H 37.9316 -0.062421 0.661059 0
M  V30 421 H 40.4616 0.438215 1.99852 0
M  V30 422 H 40.4716 -1.04552 3.94376 0
M  V30 423 H 39.1466 0.0867233 4.1581 0
M  V30 424 H 37.7236 -1.57193 3.38149 0
M  V30 425 N 39.9087 -1.5758 0.0250728 0
M  V30 426 C 41.1567 -1.91255 -0.653151 0
M  V30 427 C 41.4777 -0.901691 -1.729 0
M  V30 428 O 40.7477 0.0573785 -1.95816 0
M  V30 429 H 39.3277 -0.705942 -0.244243 0
M  V30 430 H 41.9897 -1.94767 0.0719209 0
M  V30 431 H 41.0857 -2.91752 -1.10847 0
M  V30 432 N 41.3868 0.248026 -1.55636 0
M  V30 433 C 42.6118 0.998028 -1.81808 0
M  V30 434 C 43.0368 1.78207 -0.601979 0
M  V30 435 O 42.3948 1.75653 0.448961 0
M  V30 436 C 42.4428 1.9125 -3.05705 0
M  V30 437 O 41.5468 3.00406 -2.82542 0
M  V30 438 H 40.8878 0.284045 -0.600179 0
M  V30 439 H 43.4178 0.269357 -2.02819 0
M  V30 440 H 43.4278 2.32737 -3.35108 0
M  V30 441 H 42.1028 1.33602 -3.93857 0
M  V30 442 H 40.6798 2.63056 -2.64303 0
M  V30 443 N 42.8649 1.48995 0.513639 0
M  V30 444 C 44.1109 1.59053 1.26783 0
M  V30 445 C 44.4659 0.268136 1.90522 0
M  V30 446 O 43.7589 -0.730534 1.77126 0
M  V30 447 C 43.9529 2.67756 2.36731 0
M  V30 448 C 43.7819 4.10437 1.83771 0
M  V30 449 C 42.5519 4.7738 1.65639 0
M  V30 450 C 44.7499 4.9608 1.35681 0
M  V30 451 N 42.7319 6.04419 1.07476 0
M  V30 452 C 44.1029 6.13496 0.895715 0
M  V30 453 C 46.1579 4.82177 1.24136 0
M  V30 454 C 44.8609 7.1854 0.3306 0
M  V30 455 C 46.8869 5.87358 0.690229 0
M  V30 456 C 46.2489 7.03993 0.239292 0
M  V30 457 H 42.3479 0.636463 0.454355 0
M  V30 458 H 44.9319 1.85948 0.577196 0
M  V30 459 H 43.1029 2.42655 3.03271 0
M  V30 460 H 44.8349 2.67406 3.0377 0
M  V30 461 H 41.5899 4.33974 1.8964 0
M  V30 462 H 42.0139 6.72214 0.803579 0
M  V30 463 H 46.6559 3.92329 1.57601 0
M  V30 464 H 44.3739 8.08098 -0.0163435 0
M  V30 465 H 47.9599 5.78658 0.603852 0
M  V30 466 H 46.8399 7.83992 -0.180526 0
M  V30 467 N 44.343 -0.763751 1.37857 0
M  V30 468 C 45.568 -1.55805 1.36893 0
M  V30 469 C 45.993 -1.88054 -0.0416135 0
M  V30 470 O 45.351 -1.49825 -1.02089 0
M  V30 471 C 45.399 -2.84012 2.22192 0
M  V30 472 O 44.503 -3.78732 1.63204 0
M  V30 473 H 43.844 -0.471638 0.46739 0
M  V30 474 H 46.374 -0.944657 1.81487 0
M  V30 475 H 46.384 -3.33037 2.35691 0
M  V30 476 H 45.059 -2.59869 3.24716 0
M  V30 477 H 43.636 -3.37402 1.58791 0
M  V30 478 N 45.8211 -1.22559 -0.990812 0
M  V30 479 C 46.7711 -0.964807 -2.0658 0
M  V30 480 C 47.7551 0.0853472 -1.60673 0
M  V30 481 O 48.9471 -0.125443 -1.76555 0
M  V30 482 C 46.0761 -0.546707 -3.38919 0
M  V30 483 C 45.1621 -1.6317 -3.91454 0
M  V30 484 N 45.5531 -2.85985 -4.17189 0
M  V30 485 C 43.8511 -1.50387 -4.19881 0
M  V30 486 C 44.5521 -3.56159 -4.59919 0
M  V30 487 N 43.5281 -2.83637 -4.63736 0
M  V30 488 H 47.3301 -1.89769 -2.24421 0
M  V30 489 H 44.8441 -1.12343 -1.17273 0
M  V30 490 H 46.8411 -0.34119 -4.15502 0
M  V30 491 H 45.5011 0.379254 -3.22478 0
M  V30 492 H 46.5121 -3.22392 -4.05319 0
M  V30 493 H 43.1891 -0.644254 -4.12499 0
M  V30 494 H 44.5791 -4.6139 -4.88435 0
M  V30 495 N 47.2992 1.18797 -1.03562 0
M  V30 496 C 48.5272 1.92599 -0.755869 0
M  V30 497 C 48.9422 1.75886 0.686271 0
M  V30 498 O 48.2992 1.08517 1.46732 0
M  V30 499 C 48.3502 3.44159 -1.10619 0
M  V30 500 O 48.0712 3.60341 -2.4917 0
M  V30 501 C 49.5722 4.3507 -0.850214 0
M  V30 502 H 46.7922 0.611587 -0.276048 0
M  V30 503 H 49.3362 1.50742 -1.38192 0
M  V30 504 H 47.4912 3.83823 -0.525194 0
M  V30 505 H 47.9052 4.54128 -2.62427 0
M  V30 506 H 49.3792 5.39989 -1.14523 0
M  V30 507 H 49.8562 4.38673 0.215176 0
M  V30 508 H 50.4622 4.01097 -1.41426 0
M  V30 509 N 48.7773 0.814389 1.34928 0
M  V30 510 C 50.0023 0.410097 2.03305 0
M  V30 511 C 50.4273 -0.973464 1.60951 0
M  V30 512 O 49.7853 -1.63185 0.789964 0
M  V30 513 C 49.8333 0.51049 3.56968 0
M  V30 514 O 48.9373 -0.473035 4.09678 0
M  V30 515 H 48.2783 0.170088 0.641846 0
M  V30 516 H 50.8083 1.10244 1.72358 0
M  V30 517 H 50.8183 0.383135 4.06197 0
M  V30 518 H 49.4933 1.51963 3.87144 0
M  V30 519 H 48.0703 -0.305272 3.71648 0
M  V30 520 N 50.2554 -1.46986 0.568584 0
M  V30 521 C 51.2184 -2.28624 -0.162366 0
M  V30 522 C 52.2184 -1.37596 -0.832103 0
M  V30 523 O 53.4084 -1.60115 -0.68622 0
M  V30 524 C 50.5404 -3.17596 -1.23878 0
M  V30 525 H 51.7334 -2.94722 0.554899 0
M  V30 526 H 49.2864 -1.52863 0.325976 0
M  V30 527 H 50.0214 -2.56214 -1.98808 0
M  V30 528 H 49.8064 -3.846 -0.763219 0
M  V30 529 H 51.2964 -3.79078 -1.75185 0
M  V30 530 N 51.7335 -0.305618 -1.54608 0
M  V30 531 C 53.1495 0.0476228 -1.59529 0
M  V30 532 C 53.3495 1.52025 -1.32252 0
M  V30 533 O 52.4055 2.27368 -1.09818 0
M  V30 534 C 53.7185 -0.354471 -2.98603 0
M  V30 535 C 55.2665 -0.303622 -3.11524 0
M  V30 536 C 55.7415 -0.680608 -4.52915 0
M  V30 537 N 57.2325 -0.63332 -4.5885 0
M  V30 538 C 57.9675 -0.897432 -5.66334 0
M  V30 539 N 57.4635 -1.22775 -6.81834 0
M  V30 540 N 59.2565 -0.824186 -5.56025 0
M  V30 541 H 51.4075 -1.2653 -1.70599 0
M  V30 542 H 53.6705 -0.513291 -0.797017 0
M  V30 543 H 53.3765 -1.3798 -3.23503 0
M  V30 544 H 53.2505 0.289568 -3.76087 0
M  V30 545 H 55.6375 0.712472 -2.8637 0
M  V30 546 H 55.7185 -0.982348 -2.36185 0
M  V30 547 H 55.3625 -1.69453 -4.78799 0
M  V30 548 H 55.2925 0.0202385 -5.26596 0
M  V30 549 H 57.7835 -0.389138 -3.75891 0
M  V30 550 H 58.0965 -1.41513 -7.59733 0
M  V30 551 H 56.4415 -1.26583 -6.83375 0
M  V30 552 H 59.6325 -0.565748 -4.64669 0
M  V30 553 H 59.8055 -1.03338 -6.39707 0
M  V30 554 N 53.2116 1.57565 -0.0334293 0
M  V30 555 C 54.1216 2.13943 0.962572 0
M  V30 556 C 55.1376 1.09276 1.35406 0
M  V30 557 O 56.3136 1.41355 1.4346 0
M  V30 558 C 53.3786 2.65887 2.22497 0
M  V30 559 C 52.4396 3.85286 1.8935 0
M  V30 560 C 51.6726 4.34743 3.09571 0
M  V30 561 O 51.8956 3.83352 4.22371 0
M  V30 562 O 50.8296 5.26538 2.91618 0
M  V30 563 H 54.6556 2.99333 0.513169 0
M  V30 564 H 52.2406 1.4822 0.18743 0
M  V30 565 H 54.1226 2.99346 2.96598 0
M  V30 566 H 52.7976 1.83578 2.6661 0
M  V30 567 H 51.7046 3.56746 1.1262 0
M  V30 568 H 53.0376 4.68771 1.5005 0
M  V30 569 N 54.6897 -0.239769 1.55765 0
M  V30 570 C 55.9357 -0.963942 1.79108 0
M  V30 571 C 56.2907 -1.82689 0.60352 0
M  V30 572 O 55.5837 -1.87313 -0.403033 0
M  V30 573 C 55.7777 -1.852 3.05672 0
M  V30 574 C 55.6067 -1.07651 4.36625 0
M  V30 575 C 54.3767 -0.778738 4.99263 0
M  V30 576 C 56.5747 -0.45062 5.12322 0
M  V30 577 N 54.5567 0.0200708 6.13897 0
M  V30 578 C 55.9277 0.212429 6.19636 0
M  V30 579 C 57.9827 -0.361806 4.96584 0
M  V30 580 C 56.6857 0.955772 7.12922 0
M  V30 581 C 58.7117 0.368023 5.90254 0
M  V30 582 C 58.0737 1.01968 6.96981 0
M  V30 583 H 54.1727 -0.333601 0.707272 0
M  V30 584 H 56.7567 -0.236425 1.93259 0
M  V30 585 H 54.9277 -2.55149 2.92837 0
M  V30 586 H 56.6597 -2.51228 3.1728 0
M  V30 587 H 53.4147 -1.09229 4.60832 0
M  V30 588 H 53.8387 0.407777 6.75771 0
M  V30 589 H 58.4807 -0.851286 4.14141 0
M  V30 590 H 56.1987 1.45683 7.9486 0
M  V30 591 H 59.7847 0.437504 5.80153 0
M  V30 592 H 58.6647 1.5754 7.68213 0
M  V30 593 N 56.1678 -1.49265 -0.50573 0
M  V30 594 C 57.3928 -1.62478 -1.28902 0
M  V30 595 C 57.8178 -0.294332 -1.85783 0
M  V30 596 O 57.1758 0.737412 -1.65626 0
M  V30 597 C 57.2238 -2.69268 -2.39848 0
M  V30 598 O 56.3278 -2.28113 -3.43567 0
M  V30 599 H 55.6688 -0.54399 -0.380751 0
M  V30 600 H 58.1988 -1.95421 -0.605952 0
M  V30 601 H 58.2088 -2.91291 -2.85681 0
M  V30 602 H 56.8838 -3.65846 -1.97812 0
M  V30 603 H 55.4608 -2.16401 -3.03685 0
M  V30 604 N 57.6459 0.756429 -1.3826 0
M  V30 605 C 58.6089 1.85176 -1.35065 0
M  V30 606 C 59.6089 1.58818 -0.251703 0
M  V30 607 O 60.7989 1.66615 -0.508433 0
M  V30 608 C 57.9309 3.22596 -1.10201 0
M  V30 609 H 59.1239 1.89417 -2.3251 0
M  V30 610 H 56.6769 0.95783 -1.23512 0
M  V30 611 H 57.4119 3.24025 -0.133504 0
M  V30 612 H 57.1969 3.43122 -1.89762 0
M  V30 613 H 58.6869 4.02673 -1.10654 0
M  V30 614 N 59.124 1.23083 0.984299 0
M  V30 615 C 60.37 1.07221 1.72845 0
M  V30 616 C 60.725 -0.387453 1.88458 0
M  V30 617 O 60.018 -1.28309 1.42293 0
M  V30 618 C 60.212 1.72673 3.1292 0
M  V30 619 C 60.041 3.24853 3.10967 0
M  V30 620 C 58.811 3.93998 3.16376 0
M  V30 621 C 61.009 4.21674 2.94441 0
M  V30 622 N 58.991 5.33192 3.04268 0
M  V30 623 C 60.362 5.47756 2.90453 0
M  V30 624 C 62.417 4.12457 2.78897 0
M  V30 625 C 61.12 6.6568 2.72512 0
M  V30 626 C 63.146 5.3004 2.62319 0
M  V30 627 C 62.508 6.55046 2.59026 0
M  V30 628 H 58.607 0.44685 0.641755 0
M  V30 629 H 61.191 1.55753 1.16829 0
M  V30 630 H 59.362 1.26679 3.67161 0
M  V30 631 H 61.094 1.49824 3.75945 0
M  V30 632 H 57.849 3.45052 3.24401 0
M  V30 633 H 58.273 6.06157 3.015 0
M  V30 634 H 62.915 3.16588 2.80235 0
M  V30 635 H 60.633 7.61689 2.69919 0
M  V30 636 H 64.219 5.24747 2.5126 0
M  V30 637 H 63.099 7.44498 2.46357 0
M  V30 638 N 60.6021 -1.18246 1.0419 0
M  V30 639 C 61.8511 -1.87588 0.741194 0
M  V30 640 C 62.1641 -1.81303 -0.734066 0
M  V30 641 O 63.3701 -2.46019 -1.14834 0
M  V30 642 C 61.8261 -3.36538 1.27555 0
M  V30 643 C 61.4341 -3.51349 2.77953 0
M  V30 644 C 63.1781 -4.11273 1.05143 0
M  V30 645 C 61.0851 -4.94265 3.2474 0
M  V30 646 H 60.0151 -0.702622 0.273565 0
M  V30 647 H 62.6661 -1.33601 1.25789 0
M  V30 648 H 61.0481 -3.9 0.686703 0
M  V30 649 H 62.2221 -3.08153 3.42605 0
M  V30 650 H 60.5371 -2.90022 2.98791 0
M  V30 651 H 63.1341 -5.16689 1.37611 0
M  V30 652 H 63.4771 -4.16298 -0.0112774 0
M  V30 653 H 64.0101 -3.63987 1.60495 0
M  V30 654 H 60.7491 -4.94408 4.30396 0
M  V30 655 H 60.2691 -5.38172 2.64823 0
M  V30 656 H 61.9481 -5.62987 3.18834 0
M  V30 657 N 62.0802 -0.821533 -1.34494 0
M  V30 658 C 63.3572 -0.33159 -1.92769 0
M  V30 659 C 63.7372 1.18088 -1.74981 0
M  V30 660 O 63.0852 1.98733 -1.12772 0
M  V30 661 C 63.2952 -0.759398 -3.40638 0
M  V30 662 C 64.6432 -0.757433 -4.1779 0
M  V30 663 O 65.6672 -0.70189 -3.49216 0
M  V30 664 O 64.5262 -0.829361 -5.4017 0
M  V30 665 H 61.6202 -0.0902502 -0.822061 0
M  V30 666 H 64.1662 -0.906231 -1.43477 0
M  V30 667 H 62.9382 -1.8012 -3.47379 0
M  V30 668 H 62.5612 -0.160378 -3.97276 0
M  V30 669 N 63.5583 1.46682 -0.576371 0
M  V30 670 C 64.5053 2.30241 0.160499 0
M  V30 671 C 65.4753 1.40233 0.890162 0
M  V30 672 O 66.6603 1.69186 0.882084 0
M  V30 673 C 63.8003 3.24578 1.1723 0
M  V30 674 C 62.9133 4.29684 0.446736 0
M  V30 675 C 62.0483 5.11154 1.44551 0
M  V30 676 C 61.0873 6.08015 0.70599 0
M  V30 677 N 60.2243 6.82376 1.65251 0
M  V30 678 H 65.0643 2.92727 -0.558127 0
M  V30 679 H 62.6013 1.44272 -0.287056 0
M  V30 680 H 64.5593 3.77711 1.77172 0
M  V30 681 H 63.1893 2.63916 1.85872 0
M  V30 682 H 62.2413 3.79458 -0.267594 0
M  V30 683 H 63.5533 4.98626 -0.131686 0
M  V30 684 H 62.7073 5.68533 2.11791 0
M  V30 685 H 61.4463 4.42158 2.05786 0
M  V30 686 H 60.4513 5.49796 0.0197725 0
M  V30 687 H 61.6763 6.79028 0.09912 0
M  V30 688 H 59.6223 6.16094 2.25308 0
M  V30 689 H 59.5393 7.47556 1.12673 0
M  V30 690 H 60.8073 7.44316 2.31546 0
M  V30 691 N 65.0364 0.313813 1.54444 0
M  V30 692 C 65.9464 -0.565714 2.27677 0
M  V30 693 C 66.9624 -1.13754 1.31666 0
M  V30 694 O 68.1384 -1.15959 1.64668 0
M  V30 695 C 65.2034 -1.71528 3.01296 0
M  V30 696 C 64.2644 -1.17624 4.12872 0
M  V30 697 C 63.4974 -2.27102 4.8297 0
M  V30 698 O 63.7204 -3.47256 4.52514 0
M  V30 699 O 62.6544 -1.9307 5.70094 0
M  V30 700 H 66.4804 0.0287296 3.03686 0
M  V30 701 H 64.0654 0.0798312 1.49187 0
M  V30 702 H 65.9474 -2.38476 3.4743 0
M  V30 703 H 64.6224 -2.29608 2.2817 0
M  V30 704 H 63.5294 -0.472124 3.71109 0
M  V30 705 H 64.8624 -0.640695 4.88012 0
M  V30 706 N 66.5145 -1.57545 0.0417849 0
M  V30 707 C 67.4625 -2.12148 -0.953723 0
M  V30 708 C 68.4565 -1.05104 -1.32852 0
M  V30 709 O 69.6625 -1.23524 -1.30927 0
M  V30 710 H 66.0375 -0.677957 -0.325389 0
M  V30 711 H 68.0085 -2.94707 -0.467991 0
M  V30 712 C 66.7575 -2.6739 -2.22257 0
M  V30 713 H 66.0805 -3.49413 -1.94295 0
M  V30 714 H 67.5205 -3.09227 -2.90094 0
M  V30 715 C 65.9795 -1.60723 -2.96091 0
M  V30 716 O 66.5095 -1.01449 -3.88679 0
M  V30 717 N 64.7155 -1.32466 -2.58652 0
M  V30 718 H 64.2625 -1.80856 -1.83437 0
M  V30 719 H 64.2205 -0.61325 -3.08361 0
M  V30 720 N 67.9926 0.231505 -1.5589 0
M  V30 721 C 69.2206 0.974505 -1.82513 0
M  V30 722 C 69.6356 1.78344 -0.619591 0
M  V30 723 O 68.9926 1.77792 0.411848 0
M  V30 724 C 69.0436 1.90007 -3.07538 0
M  V30 725 O 68.7646 1.12385 -4.2344 0
M  V30 726 C 70.2656 2.75779 -3.47075 0
M  V30 727 H 67.4856 0.286065 -0.606966 0
M  V30 728 H 70.0296 0.249739 -2.02969 0
M  V30 729 H 68.1846 2.57891 -2.89086 0
M  V30 730 H 68.5986 1.75125 -4.944 0
M  V30 731 H 70.0726 3.36443 -4.37619 0
M  V30 732 H 70.5496 3.47672 -2.68367 0
M  V30 733 H 71.1556 2.13323 -3.67931 0
M  V30 734 N 69.4707 1.49531 0.497807 0
M  V30 735 C 70.4337 1.65916 1.58128 0
M  V30 736 C 71.4337 0.530825 1.51786 0
M  V30 737 O 72.6237 0.797342 1.54881 0
M  V30 738 C 69.7557 1.65951 2.9778 0
M  V30 739 H 70.9487 2.62556 1.44929 0
M  V30 740 H 68.5017 1.38611 0.722275 0
M  V30 741 H 69.2367 0.709065 3.16453 0
M  V30 742 H 69.0217 2.47897 3.03792 0
M  V30 743 H 70.5117 1.80673 3.76493 0
M  V30 744 N 70.9488 -0.749086 1.3866 0
M  V30 745 C 72.2258 -1.4992 1.25632 0
M  V30 746 C 72.6058 -2.10633 -0.140317 0
M  V30 747 O 71.9538 -1.97437 -1.15025 0
M  V30 748 C 72.1638 -2.56195 2.36992 0
M  V30 749 C 73.5118 -3.22972 2.75634 0
M  V30 750 O 74.5358 -2.66502 2.36337 0
M  V30 751 O 73.3948 -4.25122 3.43415 0
M  V30 752 H 70.4888 -0.665067 0.491544 0
M  V30 753 H 73.0348 -0.784113 1.50498 0
M  V30 754 H 71.8068 -2.09612 3.30422 0
M  V30 755 H 71.4298 -3.35279 2.13714 0
M  V30 756 N 72.4269 -1.23603 -0.977757 0
M  V30 757 C 73.3739 -1.01954 -2.07061 0
M  V30 758 C 74.3439 0.0638697 -1.65977 0
M  V30 759 O 75.5289 -0.0887624 -1.90593 0
M  V30 760 C 72.6689 -0.619658 -3.39491 0
M  V30 761 C 71.7819 -1.77547 -3.93829 0
M  V30 762 C 70.9169 -1.32212 -5.14484 0
M  V30 763 C 69.9559 -2.44852 -5.60994 0
M  V30 764 N 69.0929 -2.00456 -6.72876 0
M  V30 765 H 73.9329 -1.95495 -2.24913 0
M  V30 766 H 71.4699 -0.973861 -1.10247 0
M  V30 767 H 73.4279 -0.368898 -4.15566 0
M  V30 768 H 72.0579 0.278752 -3.21594 0
M  V30 769 H 71.1099 -2.14016 -3.14486 0
M  V30 770 H 72.4219 -2.62219 -4.24314 0
M  V30 771 H 71.5759 -1.02965 -5.97899 0
M  V30 772 H 70.3149 -0.445808 -4.85658 0
M  V30 773 H 69.3199 -2.74871 -4.76157 0
M  V30 774 H 70.5449 -3.33024 -5.91837 0
M  V30 775 H 68.4909 -1.15208 -6.45804 0
M  V30 776 H 68.4079 -2.78687 -7.02759 0
M  V30 777 H 69.6759 -1.7432 -7.59758 0
M  V30 778 N 73.905 1.17692 -1.04816 0
M  V30 779 C 75.13 1.92327 -0.776207 0
M  V30 780 C 75.555 1.76082 0.661581 0
M  V30 781 O 74.913 1.076 1.45917 0
M  V30 782 C 74.961 3.41539 -1.15687 0
M  V30 783 O 74.065 4.11402 -0.286775 0
M  V30 784 H 73.406 0.599735 -0.284981 0
M  V30 785 H 75.936 1.49201 -1.4 0
M  V30 786 H 75.946 3.92269 -1.12202 0
M  V30 787 H 74.621 3.52684 -2.20425 0
M  V30 788 H 73.198 3.70939 -0.381903 0
M  V30 789 N 75.3831 0.828654 1.34056 0
M  V30 790 C 76.7941 0.477534 1.8049 0
M  V30 791 C 77.1451 -1.00258 1.6865 0
M  V30 792 O 76.2701 -1.78057 1.22982 0
M  V30 793 C 76.8651 0.860018 3.27703 0
M  V30 794 C 75.4241 0.561185 3.72193 0
M  V30 795 C 74.5711 1.07385 2.55663 0
M  V30 796 H 77.5221 1.0183 1.21722 0
M  V30 797 H 77.5431 0.166038 3.80138 0
M  V30 798 H 77.0551 1.93731 3.36288 0
M  V30 799 H 75.1561 -0.506465 3.69142 0
M  V30 800 H 75.2691 1.10926 4.66082 0
M  V30 801 H 73.6331 0.495149 2.49841 0
M  V30 802 H 74.4161 2.15771 2.67016 0
M  V30 803 N 76.8612 -1.46375 0.584142 0
M  V30 804 C 78.1102 -2.01585 0.0679741 0
M  V30 805 C 78.4232 -1.46109 -1.30045 0
M  V30 806 O 79.6292 -1.93148 -1.90804 0
M  V30 807 C 78.0852 -3.5983 0.0709207 0
M  V30 808 C 77.6932 -4.24303 1.43775 0
M  V30 809 C 79.4372 -4.22693 -0.391228 0
M  V30 810 C 77.3442 -5.74631 1.39834 0
M  V30 811 H 76.2742 -0.753689 0.0216421 0
M  V30 812 H 78.9252 -1.68093 0.736001 0
M  V30 813 H 77.3072 -3.90405 -0.663299 0
M  V30 814 H 78.4812 -4.05335 2.19181 0
M  V30 815 H 76.7962 -3.73539 1.84004 0
M  V30 816 H 79.3932 -5.3289 -0.439524 0
M  V30 817 H 79.7362 -3.91728 -1.40906 0
M  V30 818 H 80.2692 -3.96749 0.288974 0
M  V30 819 H 77.0082 -6.10258 2.39303 0
M  V30 820 H 76.5282 -5.95858 0.686505 0
M  V30 821 H 78.2072 -6.37375 1.11187 0
M  V30 822 N 78.3393 -0.321999 -1.54275 0
M  V30 823 C 79.5883 0.281931 -1.9972 0
M  V30 824 C 79.9013 1.53369 -1.21397 0
M  V30 825 O 81.1073 2.21352 -1.57211 0
M  V30 826 C 79.5633 0.5529 -3.55628 0
M  V30 827 C 79.1713 -0.681721 -4.42783 0
M  V30 828 C 80.9153 1.11687 -4.09544 0
M  V30 829 C 78.8223 -0.382742 -5.9016 0
M  V30 830 H 77.7523 0.109124 -0.746062 0
M  V30 831 H 80.4033 -0.43398 -1.78294 0
M  V30 832 H 78.7853 1.32896 -3.73035 0
M  V30 833 H 79.9593 -1.45723 -4.37151 0
M  V30 834 H 78.2743 -1.1658 -3.99748 0
M  V30 835 H 80.8713 1.35515 -5.17242 0
M  V30 836 H 81.2143 2.06575 -3.61431 0
M  V30 837 H 81.7473 0.402032 -3.95763 0
M  V30 838 H 78.4863 -1.30076 -6.42464 0
M  V30 839 H 78.0063 0.355094 -5.98748 0
M  V30 840 H 79.6853 0.00800157 -6.47 0
M  V30 841 N 79.8174 1.5752 -0.0501392 0
M  V30 842 C 80.7494 2.08413 0.95376 0
M  V30 843 C 81.7624 1.01175 1.27544 0
M  V30 844 O 82.9514 1.28744 1.23641 0
M  V30 845 C 80.0514 2.51138 2.27559 0
M  V30 846 C 79.2244 3.817 2.13598 0
M  V30 847 C 78.2834 4.10749 3.28895 0
M  V30 848 O 77.3094 4.80685 3.04845 0
M  V30 849 N 78.5114 3.62579 4.5334 0
M  V30 850 H 81.2764 2.95165 0.519383 0
M  V30 851 H 78.8374 1.61327 0.136127 0
M  V30 852 H 80.8294 2.67648 3.03557 0
M  V30 853 H 79.3994 1.6964 2.62567 0
M  V30 854 H 78.6194 3.74782 1.22197 0
M  V30 855 H 79.9074 4.67201 2.01496 0
M  V30 856 H 79.3054 3.06039 4.75769 0
M  V30 857 H 77.8624 3.84329 5.26436 0
M  V30 858 N 81.2955 -0.223234 1.56011 0
M  V30 859 C 82.7115 -0.572856 1.48965 0
M  V30 860 C 82.9115 -1.87225 0.74492 0
M  V30 861 O 81.9675 -2.50899 0.283896 0
M  V30 862 C 83.2805 -0.653646 2.9351 0
M  V30 863 C 84.8285 -0.744386 3.0402 0
M  V30 864 C 85.3035 -0.856535 4.49919 0
M  V30 865 N 86.7945 -0.9208 4.53955 0
M  V30 866 C 87.5295 -1.02726 5.64123 0
M  V30 867 N 87.0255 -1.09777 6.84047 0
M  V30 868 N 88.8185 -1.06226 5.51971 0
M  V30 869 H 80.9695 0.629462 2.02858 0
M  V30 870 H 83.2325 0.220621 0.921971 0
M  V30 871 H 82.9385 0.231518 3.50937 0
M  V30 872 H 82.8125 -1.51781 3.45315 0
M  V30 873 H 85.1995 -1.61999 2.46658 0
M  V30 874 H 85.2805 0.14541 2.55386 0
M  V30 875 H 84.9245 0.0146069 5.07898 0
M  V30 876 H 84.8545 -1.76172 4.96257 0
M  V30 877 H 87.3455 -0.876694 3.6759 0
M  V30 878 H 87.6585 -1.17872 7.63758 0
M  V30 879 H 86.0035 -1.06693 6.86762 0
M  V30 880 H 89.1945 -1.00382 4.5721 0
M  V30 881 H 89.3675 -1.14177 6.37862 0
M  V30 882 N 82.7736 -1.49793 -0.48987 0
M  V30 883 C 84.0016 -1.63568 -1.26701 0
M  V30 884 C 84.4166 -0.311465 -1.86213 0
M  V30 885 O 83.7736 0.704416 -1.68357 0
M  V30 886 C 83.8246 -2.71284 -2.38929 0
M  V30 887 O 83.5456 -3.9857 -1.81861 0
M  V30 888 C 85.0466 -2.95864 -3.3012 0
M  V30 889 H 82.2666 -0.550342 -0.383881 0
M  V30 890 H 84.8106 -1.95898 -0.586864 0
M  V30 891 H 82.9656 -2.417 -3.02753 0
M  V30 892 H 83.3796 -4.57993 -2.55622 0
M  V30 893 H 84.8536 -3.74941 -4.05121 0
M  V30 894 H 85.3306 -2.06206 -3.87783 0
M  V30 895 H 85.9366 -3.26907 -2.72051 0
M  V30 896 N 84.2517 0.741722 -1.39055 0
M  V30 897 C 85.1617 1.88621 -1.39496 0
M  V30 898 C 86.1777 1.71557 -0.290578 0
M  V30 899 O 87.3537 1.94275 -0.530954 0
M  V30 900 C 84.4187 3.24134 -1.23037 0
M  V30 901 C 83.4797 3.5364 -2.43387 0
M  V30 902 C 82.7127 4.82687 -2.27703 0
M  V30 903 O 82.9357 5.55922 -1.27696 0
M  V30 904 O 81.8697 5.1194 -3.16545 0
M  V30 905 H 85.6957 1.91203 -2.35956 0
M  V30 906 H 83.2807 0.888625 -1.20099 0
M  V30 907 H 85.1627 4.0513 -1.15964 0
M  V30 908 H 83.8377 3.22337 -0.296691 0
M  V30 909 H 82.7447 2.72758 -2.56035 0
M  V30 910 H 84.0777 3.60209 -3.35425 0
M  V30 911 N 85.7298 1.2412 0.971189 0
M  V30 912 C 86.6618 0.988349 2.06795 0
M  V30 913 C 87.6748 -0.0409541 1.62748 0
M  V30 914 O 88.8638 0.195673 1.77424 0
M  V30 915 C 85.9638 0.469023 3.35639 0
M  V30 916 C 85.1368 1.56065 4.08611 0
M  V30 917 C 84.1958 1.04458 5.15728 0
M  V30 918 O 83.2218 1.73553 5.42096 0
M  V30 919 N 84.4238 -0.122817 5.8037 0
M  V30 920 H 87.1888 1.93265 2.29061 0
M  V30 921 H 84.7498 1.15102 1.13856 0
M  V30 922 H 86.7418 0.108613 4.04554 0
M  V30 923 H 85.3118 -0.380919 3.1027 0
M  V30 924 H 84.5318 2.09341 3.34021 0
M  V30 925 H 85.8198 2.29449 4.54126 0
M  V30 926 H 85.2178 -0.700563 5.61345 0
M  V30 927 H 83.7748 -0.424404 6.50417 0
M  V30 928 N 87.2079 -1.17134 1.05439 0
M  V30 929 C 88.4559 -1.87085 0.764429 0
M  V30 930 C 88.7769 -1.81584 -0.710787 0
M  V30 931 O 88.0469 -1.24349 -1.51374 0
M  V30 932 H 86.6269 -0.692627 0.279779 0
M  V30 933 H 89.2889 -1.42087 1.33406 0
M  V30 934 H 88.3849 -2.92759 1.0816 0
M  V30 935 N 88.686 -0.835752 -1.33615 0
M  V30 936 C 89.618 -0.224151 -2.28101 0
M  V30 937 C 90.631 0.593331 -1.51603 0
M  V30 938 O 91.82 0.420911 -1.73466 0
M  V30 939 C 88.92 0.703309 -3.31522 0
M  V30 940 C 88.093 -0.0741528 -4.37337 0
M  V30 941 C 87.152 0.776176 -5.20444 0
M  V30 942 O 86.178 0.216506 -5.68788 0
M  V30 943 N 87.38 2.09401 -5.41416 0
M  V30 944 H 90.145 -1.03598 -2.81225 0
M  V30 945 H 87.706 -0.69392 -1.46275 0
M  V30 946 H 89.698 1.27707 -3.84022 0
M  V30 947 H 88.268 1.41585 -2.78698 0
M  V30 948 H 87.488 -0.82928 -3.85378 0
M  V30 949 H 88.776 -0.608863 -5.05144 0
M  V30 950 H 88.174 2.57229 -5.03835 0
M  V30 951 H 86.731 2.61633 -5.96985 0
M  V30 952 N 90.1641 1.46063 -0.591896 0
M  V30 953 C 91.4101 2.02638 -0.0811191 0
M  V30 954 C 91.7431 1.4613 1.27905 0
M  V30 955 O 91.0181 0.629908 1.84017 0
M  V30 956 C 91.3011 3.60091 -0.0252436 0
M  V30 957 C 91.1541 4.26965 -1.41496 0
M  V30 958 C 92.4731 4.3496 0.670685 0
M  V30 959 H 89.5921 0.73635 -0.0309524 0
M  V30 960 H 92.2341 1.741 -0.760859 0
M  V30 961 H 90.3841 3.84535 0.553624 0
M  V30 962 H 92.0561 4.13756 -2.0397 0
M  V30 963 H 90.2991 3.85971 -1.98011 0
M  V30 964 H 90.9701 5.35781 -1.32825 0
M  V30 965 H 93.4461 4.15716 0.178825 0
M  V30 966 H 92.3221 5.44686 0.678837 0
M  V30 967 H 92.5831 4.06685 1.73379 0
M  V30 968 N 91.6422 0.330177 1.54103 0
M  V30 969 C 92.8672 -0.274893 2.0557 0
M  V30 970 C 93.2922 -1.44487 1.20437 0
M  V30 971 O 92.6502 -1.80021 0.214991 0
M  V30 972 C 92.6982 -0.68079 3.54115 0
M  V30 973 O 91.8022 -1.7824 3.71893 0
M  V30 974 H 91.1432 -0.0483849 0.662235 0
M  V30 975 H 93.6732 0.480508 1.98878 0
M  V30 976 H 93.6832 -0.961635 3.96505 0
M  V30 977 H 92.3582 0.174903 4.15532 0
M  V30 978 H 90.9352 -1.49985 3.41407 0
M  V30 979 N 93.1203 -1.57491 0.0584922 0
M  V30 980 C 94.0503 -2.14988 -0.911178 0
M  V30 981 C 95.0313 -1.07343 -1.31952 0
M  V30 982 O 96.2163 -1.35318 -1.39294 0
M  V30 983 C 93.3463 -2.70078 -2.18347 0
M  V30 984 C 92.3003 -3.82771 -1.91495 0
M  V30 985 C 91.6263 -4.24408 -3.25241 0
M  V30 986 C 92.9263 -5.07592 -1.23075 0
M  V30 987 H 94.6203 -2.96263 -0.432246 0
M  V30 988 H 92.1663 -1.42512 -0.206469 0
M  V30 989 H 94.1193 -3.08943 -2.86587 0
M  V30 990 H 92.8433 -1.86005 -2.68458 0
M  V30 991 H 91.5023 -3.44389 -1.25664 0
M  V30 992 H 91.1503 -3.37275 -3.73168 0
M  V30 993 H 90.8503 -5.00366 -3.08071 0
M  V30 994 H 92.3743 -4.65879 -3.94701 0
M  V30 995 H 93.7883 -5.43857 -1.81362 0
M  V30 996 H 92.1853 -5.88741 -1.16207 0
M  V30 997 H 93.2553 -4.84454 -0.207847 0
M  V30 998 N 94.5984 0.214957 -1.56127 0
M  V30 999 C 95.8234 0.95924 -1.83884 0
M  V30 1000 C 96.2484 1.7689 -0.639644 0
M  V30 1001 O 95.6064 1.76566 0.411601 0
M  V30 1002 C 95.6544 1.84723 -3.09693 0
M  V30 1003 O 94.7584 2.94346 -2.8885 0
M  V30 1004 H 94.0994 0.27125 -0.606069 0
M  V30 1005 H 96.6294 0.226276 -2.03345 0
M  V30 1006 H 96.6394 2.25576 -3.39969 0
M  V30 1007 H 95.3144 1.25218 -3.96602 0
M  V30 1008 H 93.8914 2.57391 -2.69823 0
M  V30 1009 N 96.0765 1.50051 0.48192 0
M  V30 1010 C 97.3015 1.64508 1.26301 0
M  V30 1011 C 97.7265 0.323851 1.85291 0
M  V30 1012 O 97.0845 -0.710969 1.66778 0
M  V30 1013 C 97.1325 2.7305 2.35533 0
M  V30 1014 O 96.2365 2.3355 3.39895 0
M  V30 1015 H 95.5775 0.549978 0.372048 0
M  V30 1016 H 98.1075 1.9636 0.574786 0
M  V30 1017 H 98.1175 2.95799 2.8101 0
M  V30 1018 H 96.7925 3.68946 1.91967 0
M  V30 1019 H 95.3695 2.21205 3.00204 0
M  V30 1020 N 97.5546 -0.734337 1.39446 0
M  V30 1021 C 98.8316 -1.48579 1.27215 0
M  V30 1022 C 99.2116 -2.1077 -0.117968 0
M  V30 1023 O 98.5596 -1.98646 -1.12924 0
M  V30 1024 C 98.7696 -2.53667 2.39696 0
M  V30 1025 C 100.118 -3.20031 2.79044 0
M  V30 1026 O 101.142 -2.6398 2.39151 0
M  V30 1027 O 100.001 -4.21455 3.47905 0
M  V30 1028 H 97.0946 -0.659816 0.49857 0
M  V30 1029 H 99.6406 -0.768106 1.51322 0
M  V30 1030 H 98.4126 -2.06096 3.32626 0
M  V30 1031 H 98.0356 -3.32994 2.17258 0
M  V30 1032 N 99.0327 -1.24633 -0.964593 0
M  V30 1033 C 99.9797 -1.04144 -2.05968 0
M  V30 1034 C 100.95 0.046262 -1.66036 0
M  V30 1035 O 102.135 -0.108972 -1.90489 0
M  V30 1036 C 99.2747 -0.65563 -3.38815 0
M  V30 1037 C 98.3877 -1.81714 -3.91923 0
M  V30 1038 C 97.5227 -1.37662 -5.13052 0
M  V30 1039 C 96.5617 -2.50788 -5.58365 0
M  V30 1040 N 95.6987 -2.07582 -6.70712 0
M  V30 1041 H 100.539 -1.9787 -2.22827 0
M  V30 1042 H 98.0757 -0.9855 -1.09208 0
M  V30 1043 H 100.034 -0.412954 -4.15151 0
M  V30 1044 H 98.6637 0.244627 -3.21872 0
M  V30 1045 H 97.7157 -2.1734 -3.12198 0
M  V30 1046 H 99.0277 -2.66705 -4.21509 0
M  V30 1047 H 98.1817 -1.093 -5.96773 0
M  V30 1048 H 96.9207 -0.497293 -4.85158 0
M  V30 1049 H 95.9257 -2.79906 -4.73215 0
M  V30 1050 H 97.1507 -3.39283 -5.88272 0
M  V30 1051 H 95.0967 -1.22051 -6.44546 0
M  V30 1052 H 95.0137 -2.86125 -6.99763 0
M  V30 1053 H 96.2817 -1.82369 -7.57867 0
M  V30 1054 N 100.511 1.16574 -1.06058 0
M  V30 1055 C 101.759 1.86677 -0.77434 0
M  V30 1056 C 102.08 1.81959 0.701147 0
M  V30 1057 O 101.35 1.2515 1.50713 0
M  V30 1058 H 99.9298 0.691134 -0.283449 0
M  V30 1059 H 102.592 1.41378 -1.34158 0
M  V30 1060 H 101.688 2.92181 -1.09711 0
M  V30 1061 N 101.989 0.842826 1.3317 0
M  V30 1062 C 103.236 0.440447 1.97652 0
M  V30 1063 C 103.564 -1.00123 1.6675 0
M  V30 1064 O 102.819 -1.7155 0.941761 0
M  V30 1065 C 103.118 0.612607 3.52111 0
M  V30 1066 C 102.784 2.02297 4.02972 0
M  V30 1067 C 101.446 2.40874 4.16573 0
M  V30 1068 C 103.798 2.94402 4.30089 0
M  V30 1069 C 101.126 3.70852 4.54627 0
M  V30 1070 C 103.478 4.23865 4.69597 0
M  V30 1071 C 102.142 4.62392 4.81404 0
M  V30 1072 H 101.412 0.161171 0.72326 0
M  V30 1073 H 104.059 1.07061 1.58777 0
M  V30 1074 H 102.364 -0.100849 3.9167 0
M  V30 1075 H 104.061 0.2815 4.00011 0
M  V30 1076 H 100.651 1.71338 3.92863 0
M  V30 1077 H 104.835 2.65835 4.19101 0
M  V30 1078 H 100.091 4.00501 4.61962 0
M  V30 1079 H 104.265 4.95306 4.89536 0
M  V30 1080 H 101.892 5.63154 5.10648 0
M  V30 1081 N 103.467 -1.45747 0.599634 0
M  V30 1082 C 104.883 -1.57424 0.26264 0
M  V30 1083 C 105.083 -1.59222 -1.23493 0
M  V30 1084 O 104.139 -1.51825 -2.01756 0
M  V30 1085 C 105.452 -2.86061 0.926795 0
M  V30 1086 C 107 -2.99722 0.901967 0
M  V30 1087 C 107.475 -4.31119 1.54598 0
M  V30 1088 N 108.966 -4.37858 1.5111 0
M  V30 1089 C 109.701 -5.3818 1.97863 0
M  V30 1090 N 109.197 -6.45083 2.52666 0
M  V30 1091 N 110.99 -5.29487 1.88679 0
M  V30 1092 H 103.141 -1.42823 1.57211 0
M  V30 1093 H 105.404 -0.68235 0.658105 0
M  V30 1094 H 105.11 -2.90605 1.98095 0
M  V30 1095 H 104.984 -3.74563 0.445238 0
M  V30 1096 H 107.371 -2.9475 -0.143617 0
M  V30 1097 H 107.452 -2.12652 1.42171 0
M  V30 1098 H 107.096 -4.36849 2.59085 0
M  V30 1099 H 107.026 -5.16992 1.00132 0
M  V30 1100 H 109.517 -3.61209 1.11068 0
M  V30 1101 H 109.83 -7.17869 2.86155 0
M  V30 1102 H 108.175 -6.45856 2.56701 0
M  V30 1103 H 111.366 -4.44877 1.4561 0
M  V30 1104 H 111.539 -6.07524 2.25429 0
M  V30 1105 N 104.945 -0.338344 -1.53925 0
M  V30 1106 C 106.193 0.259245 -2.0043 0
M  V30 1107 C 106.514 1.51484 -1.22791 0
M  V30 1108 O 105.784 1.93037 -0.33368 0
M  V30 1109 H 104.364 0.0987845 -0.740439 0
M  V30 1110 H 107.026 -0.458302 -1.89435 0
M  V30 1111 H 106.122 0.505334 -3.07982 0
M  V30 1112 N 106.423 1.57458 -0.0668435 0
M  V30 1113 C 107.386 2.11323 0.887422 0
M  V30 1114 C 108.386 1.03618 1.22964 0
M  V30 1115 O 109.576 1.29626 1.16373 0
M  V30 1116 C 106.708 2.61048 2.19242 0
M  V30 1117 H 107.901 2.96942 0.420194 0
M  V30 1118 H 105.454 1.55239 0.181793 0
M  V30 1119 H 106.189 1.78868 2.70512 0
M  V30 1120 H 105.974 3.39769 1.95702 0
M  V30 1121 H 107.464 3.02814 2.87565 0
M  V30 1122 N 107.901 -0.206675 1.56239 0
M  V30 1123 C 109.147 -0.930218 1.80208 0
M  V30 1124 C 109.48 -1.83387 0.638981 0
M  V30 1125 O 108.755 -1.91119 -0.361066 0
M  V30 1126 C 109.038 -1.75641 3.1436 0
M  V30 1127 C 108.891 -0.878257 4.41142 0
M  V30 1128 C 110.21 -2.73129 3.45092 0
M  V30 1129 H 107.329 -0.336742 0.655571 0
M  V30 1130 H 109.971 -0.198222 1.88963 0
M  V30 1131 H 108.121 -2.38048 3.07027 0
M  V30 1132 H 109.793 -0.269787 4.6051 0
M  V30 1133 H 108.036 -0.184385 4.33408 0
M  V30 1134 H 108.707 -1.49106 5.3148 0
M  V30 1135 H 111.183 -2.20856 3.52649 0
M  V30 1136 H 110.059 -3.28028 4.40101 0
M  V30 1137 H 110.32 -3.51606 2.68003 0
M  V30 1138 N 109.379 -1.50304 -0.473955 0
M  V30 1139 C 110.607 -1.64902 -1.24959 0
M  V30 1140 C 111.022 -0.331198 -1.85872 0
M  V30 1141 O 110.379 0.68652 -1.69095 0
M  V30 1142 C 110.43 -2.73803 -2.36038 0
M  V30 1143 O 110.151 -4.00477 -1.77624 0
M  V30 1144 C 111.652 -2.99349 -3.26964 0
M  V30 1145 H 108.872 -0.554383 -0.378022 0
M  V30 1146 H 111.416 -1.9651 -0.566054 0
M  V30 1147 H 109.571 -2.44898 -3.00173 0
M  V30 1148 H 109.985 -4.60678 -2.5075 0
M  V30 1149 H 111.459 -3.79217 -4.01121 0
M  V30 1150 H 111.936 -2.10307 -3.85574 0
M  V30 1151 H 112.542 -3.29774 -2.68569 0
M  V30 1152 N 110.857 0.726932 -1.39834 0
M  V30 1153 C 111.789 1.85147 -1.35104 0
M  V30 1154 C 112.802 1.60736 -0.258392 0
M  V30 1155 O 113.991 1.70821 -0.517931 0
M  V30 1156 C 111.091 3.21332 -1.07697 0
M  V30 1157 C 110.264 3.73033 -2.28396 0
M  V30 1158 C 109.323 4.87802 -1.97322 0
M  V30 1159 O 108.349 5.01043 -2.70083 0
M  V30 1160 N 109.551 5.72768 -0.944273 0
M  V30 1161 H 112.316 1.89706 -2.32017 0
M  V30 1162 H 109.877 0.908006 -1.3404 0
M  V30 1163 H 111.869 3.95691 -0.849144 0
M  V30 1164 H 110.439 3.11992 -0.194909 0
M  V30 1165 H 109.659 2.89934 -2.6708 0
M  V30 1166 H 110.947 4.0431 -3.08887 0
M  V30 1167 H 110.345 5.64669 -0.341427 0
M  V30 1168 H 108.902 6.4716 -0.776346 0
M  V30 1169 N 112.336 1.25143 0.95797 0
M  V30 1170 C 113.283 1.05235 2.05412 0
M  V30 1171 C 114.253 -0.0374561 1.66058 0
M  V30 1172 O 115.438 0.119073 1.90428 0
M  V30 1173 C 112.578 0.673589 3.38462 0
M  V30 1174 C 111.691 1.8379 3.90954 0
M  V30 1175 C 110.826 1.40381 5.12315 0
M  V30 1176 C 109.865 2.53746 5.57027 0
M  V30 1177 N 109.002 2.11136 6.69601 0
M  V30 1178 H 113.842 1.99048 2.21774 0
M  V30 1179 H 111.379 0.991277 1.08683 0
M  V30 1180 H 113.337 0.434964 4.14926 0
M  V30 1181 H 111.967 -0.227554 3.21997 0
M  V30 1182 H 111.019 2.18992 3.11041 0
M  V30 1183 H 112.331 2.68937 4.20089 0
M  V30 1184 H 111.485 1.12464 5.96185 0
M  V30 1185 H 110.224 0.523015 4.84887 0
M  V30 1186 H 109.229 2.82412 4.71724 0
M  V30 1187 H 110.454 3.42398 5.86464 0
M  V30 1188 H 108.4 1.25468 6.4389 0
M  V30 1189 H 108.317 2.89832 6.98236 0
M  V30 1190 H 109.585 1.86385 7.56889 0
M  V30 1191 N 113.814 -1.1601 1.06675 0
M  V30 1192 C 115.06 -1.86909 0.786945 0
M  V30 1193 C 115.393 -1.81717 -0.685018 0
M  V30 1194 O 114.668 -1.23551 -1.50218 0
M  V30 1195 C 114.951 -3.36313 1.28707 0
M  V30 1196 C 114.804 -3.50175 2.82308 0
M  V30 1197 C 116.123 -4.3084 0.898071 0
M  V30 1198 H 113.242 -0.678677 0.287343 0
M  V30 1199 H 115.884 -1.36336 1.32334 0
M  V30 1200 H 114.034 -3.79513 0.830768 0
M  V30 1201 H 115.706 -3.15886 3.36175 0
M  V30 1202 H 113.949 -2.91959 3.20847 0
M  V30 1203 H 114.62 -4.55116 3.12368 0
M  V30 1204 H 117.096 -3.95561 1.29114 0
M  V30 1205 H 115.972 -5.33876 1.27543 0
M  V30 1206 H 116.233 -4.41662 -0.196651 0
M  V30 1207 N 115.292 -0.849877 -1.32721 0
M  V30 1208 C 116.24 -0.279745 -2.30912 0
M  V30 1209 C 117.234 0.594278 -1.58634 0
M  V30 1210 O 118.44 0.482613 -1.73409 0
M  V30 1211 H 114.815 -0.0717521 -0.748569 0
M  V30 1212 H 116.786 -1.12222 -2.76494 0
M  V30 1213 C 115.535 0.521108 -3.43773 0
M  V30 1214 H 114.858 -0.142141 -3.99547 0
M  V30 1215 H 116.298 0.885693 -4.14646 0
M  V30 1216 C 114.757 1.70442 -2.90605 0
M  V30 1217 O 115.287 2.8034 -2.87702 0
M  V30 1218 N 113.493 1.52991 -2.47067 0
M  V30 1219 H 113.04 0.635914 -2.49628 0
M  V30 1220 H 112.998 2.32311 -2.11847 0
M  V30 1221 N 116.77 1.45427 -0.607355 0
M  V30 1222 C 118.019 2.01452 -0.100036 0
M  V30 1223 C 118.332 1.48159 1.27704 0
M  V30 1224 O 119.538 1.96159 1.87707 0
M  V30 1225 C 117.994 3.59672 -0.128158 0
M  V30 1226 C 117.602 4.21962 -1.50507 0
M  V30 1227 C 119.346 4.23262 0.323932 0
M  V30 1228 C 117.253 5.72333 -1.48959 0
M  V30 1229 H 116.183 0.75325 -0.0336299 0
M  V30 1230 H 118.834 1.66901 -0.76265 0
M  V30 1231 H 117.216 3.91411 0.601105 0
M  V30 1232 H 118.39 4.01796 -2.25602 0
M  V30 1233 H 116.705 3.70565 -1.89923 0
M  V30 1234 H 119.302 5.33522 0.354691 0
M  V30 1235 H 119.645 3.93921 1.34656 0
M  V30 1236 H 120.178 3.96239 -0.352056 0
M  V30 1237 H 116.917 6.06373 -2.48981 0
M  V30 1238 H 116.437 5.94691 -0.781214 0
M  V30 1239 H 118.116 6.35525 -1.21313 0
M  V30 1240 N 118.248 0.346503 1.53744 0
M  V30 1241 C 119.525 -0.304532 1.93215 0
M  V30 1242 C 119.905 -1.67993 1.27834 0
M  V30 1243 O 119.253 -2.24411 0.430352 0
M  V30 1244 C 119.463 -0.373852 3.46992 0
M  V30 1245 C 120.811 -0.62329 4.2 0
M  V30 1246 O 121.835 -0.455847 3.53271 0
M  V30 1247 O 120.694 -0.947879 5.38217 0
M  V30 1248 H 117.788 -0.178318 0.807547 0
M  V30 1249 H 120.334 0.397895 1.64969 0
M  V30 1250 H 119.106 0.591224 3.86808 0
M  V30 1251 H 118.729 -1.12294 3.81413 0
M  V30 1252 N 119.726 -1.57421 0.075193 0
M  V30 1253 C 121.137 -1.81021 -0.456964 0
M  V30 1254 C 121.488 -0.98936 -1.69429 0
M  V30 1255 O 120.613 -0.212865 -2.15351 0
M  V30 1256 C 121.208 -3.28329 -0.83581 0
M  V30 1257 C 119.767 -3.52764 -1.31281 0
M  V30 1258 C 118.914 -2.75676 -0.299648 0
M  V30 1259 H 121.865 -1.55822 0.300856 0
M  V30 1260 H 121.886 -3.40564 -1.69696 0
M  V30 1261 H 121.398 -3.88046 0.0649238 0
M  V30 1262 H 119.499 -2.98355 -2.23193 0
M  V30 1263 H 119.612 -4.61451 -1.28839 0
M  V30 1264 H 117.976 -2.42538 -0.777641 0
M  V30 1265 H 118.759 -3.38132 0.593417 0
M  V30 1266 N 121.204 0.198386 -1.56346 0
M  V30 1267 C 122.432 0.935572 -1.84539 0
M  V30 1268 C 122.847 1.76989 -0.657281 0
M  V30 1269 O 122.204 1.78626 0.374043 0
M  V30 1270 C 122.255 1.8344 -3.11499 0
M  V30 1271 O 121.976 1.03377 -4.25728 0
M  V30 1272 C 123.477 2.68355 -3.52846 0
M  V30 1273 H 120.697 0.273126 -0.612897 0
M  V30 1274 H 123.241 0.20663 -2.03453 0
M  V30 1275 H 121.396 2.51701 -2.94492 0
M  V30 1276 H 121.81 1.64599 -4.98003 0
M  V30 1277 H 123.284 3.27085 -4.44657 0
M  V30 1278 H 123.761 3.41901 -2.75681 0
M  V30 1279 H 124.367 2.05471 -3.72373 0
M  V30 1280 N 122.682 1.50554 0.465978 0
M  V30 1281 C 123.629 1.6979 1.56333 0
M  V30 1282 C 124.599 0.539239 1.57103 0
M  V30 1283 O 125.784 0.770401 1.74555 0
M  V30 1284 C 122.924 1.80273 2.94271 0
M  V30 1285 C 122.037 3.07674 3.0325 0
M  V30 1286 C 121.172 3.08922 4.32135 0
M  V30 1287 C 120.211 4.30755 4.34875 0
M  V30 1288 N 119.348 4.29714 5.55239 0
M  V30 1289 H 124.188 2.63472 1.39235 0
M  V30 1290 H 121.725 1.30602 0.676873 0
M  V30 1291 H 123.683 1.84332 3.74269 0
M  V30 1292 H 122.313 0.900258 3.09992 0
M  V30 1293 H 121.365 3.13062 2.16094 0
M  V30 1294 H 122.677 3.97642 3.01135 0
M  V30 1295 H 121.831 3.11738 5.20485 0
M  V30 1296 H 120.57 2.16792 4.36866 0
M  V30 1297 H 119.575 4.28146 3.44922 0
M  V30 1298 H 120.8 5.24117 4.31831 0
M  V30 1299 H 118.746 3.4044 5.60746 0
M  V30 1300 H 118.663 5.13456 5.54886 0
M  V30 1301 H 119.931 4.36683 6.457 0
M  V30 1302 N 124.16 -0.719506 1.40217 0
M  V30 1303 C 125.107 -1.83359 1.40172 0
M  V30 1304 C 126.077 -1.64065 0.259206 0
M  V30 1305 O 127.262 -1.85254 0.456677 0
M  V30 1306 C 124.402 -3.2103 1.26624 0
M  V30 1307 C 123.515 -3.51923 2.50548 0
M  V30 1308 C 122.65 -4.79079 2.29471 0
M  V30 1309 C 121.689 -5.02863 3.48992 0
M  V30 1310 N 120.826 -6.2123 3.27135 0
M  V30 1311 H 125.666 -1.82733 2.35399 0
M  V30 1312 H 123.203 -0.892688 1.16917 0
M  V30 1313 H 125.161 -4.00524 1.16776 0
M  V30 1314 H 123.791 -3.20895 0.350176 0
M  V30 1315 H 122.843 -2.67014 2.70939 0
M  V30 1316 H 124.155 -3.6541 3.39525 0
M  V30 1317 H 123.309 -5.66582 2.16955 0
M  V30 1318 H 122.048 -4.67794 1.37913 0
M  V30 1319 H 121.053 -4.13816 3.6199 0
M  V30 1320 H 122.278 -5.16023 4.41472 0
M  V30 1321 H 120.224 -6.11204 2.38256 0
M  V30 1322 H 120.141 -6.35375 4.09675 0
M  V30 1323 H 121.409 -7.11532 3.18344 0
M  V30 1324 N 125.638 -1.25649 -0.95132 0
M  V30 1325 C 126.868 -1.13179 -1.72841 0
M  V30 1326 C 127.276 0.316827 -1.86528 0
M  V30 1327 O 126.619 1.22948 -1.3649 0
M  V30 1328 C 126.681 -1.71644 -3.15878 0
M  V30 1329 C 126.345 -3.20667 -3.25609 0
M  V30 1330 C 127.342 -4.17616 -3.09666 0
M  V30 1331 C 125.027 -3.6094 -3.49324 0
M  V30 1332 C 127.021 -5.52817 -3.17289 0
M  V30 1333 C 124.708 -4.96278 -3.56584 0
M  V30 1334 C 125.706 -5.92025 -3.40581 0
M  V30 1335 O 125.394 -7.24899 -3.47528 0
M  V30 1336 H 125.126 -0.395389 -0.54831 0
M  V30 1337 H 127.68 -1.66566 -1.20187 0
M  V30 1338 H 125.91 -1.12707 -3.69911 0
M  V30 1339 H 127.599 -1.54225 -3.75459 0
M  V30 1340 H 128.365 -3.87842 -2.91211 0
M  V30 1341 H 124.244 -2.86907 -3.6084 0
M  V30 1342 H 127.788 -6.2753 -3.04716 0
M  V30 1343 H 123.685 -5.25716 -3.74556 0
M  V30 1344 H 124.453 -7.33039 -3.64138 0
M  V30 1345 N 127.117 1.15442 -1.07289 0
M  V30 1346 C 128.027 2.23786 -0.704057 0
M  V30 1347 C 129.043 1.7166 0.284413 0
M  V30 1348 O 130.219 2.00972 0.131205 0
M  V30 1349 C 127.284 3.46535 -0.106792 0
M  V30 1350 C 126.345 4.13654 -1.14842 0
M  V30 1351 C 125.578 5.30544 -0.57956 0
M  V30 1352 O 125.801 5.67187 0.604585 0
M  V30 1353 O 124.735 5.87154 -1.32414 0
M  V30 1354 H 128.561 2.57664 -1.60757 0
M  V30 1355 H 126.146 1.23152 -0.845803 0
M  V30 1356 H 128.028 4.20804 0.224048 0
M  V30 1357 H 126.703 3.14407 0.770049 0
M  V30 1358 H 125.61 3.4131 -1.5316 0
M  V30 1359 H 126.943 4.49861 -1.99714 0
M  V30 1360 N 128.595 0.856903 1.32268 0
M  V30 1361 C 129.841 0.462069 1.97466 0
M  V30 1362 C 130.174 -0.980298 1.67642 0
M  V30 1363 O 129.449 -1.68824 0.965858 0
M  V30 1364 C 129.732 0.704336 3.53145 0
M  V30 1365 C 129.585 2.19529 3.9259 0
M  V30 1366 C 130.904 0.1622 4.39801 0
M  V30 1367 H 128.023 0.169357 0.717278 0
M  V30 1368 H 130.665 1.07574 1.56614 0
M  V30 1369 H 128.815 0.181999 3.88073 0
M  V30 1370 H 130.487 2.78387 3.67829 0
M  V30 1371 H 128.73 2.67292 3.41668 0
M  V30 1372 H 129.401 2.31549 5.01088 0
M  V30 1373 H 131.877 0.608905 4.11621 0
M  V30 1374 H 130.753 0.361265 5.4771 0
M  V30 1375 H 131.014 -0.935158 4.32096 0
M  V30 1376 N 130.073 -1.45103 0.615059 0
M  V30 1377 C 131.02 -2.30586 -0.0993978 0
M  V30 1378 C 131.99 -1.42544 -0.852669 0
M  V30 1379 O 133.175 -1.71465 -0.836917 0
M  V30 1380 C 130.315 -3.27572 -1.08583 0
M  V30 1381 C 129.428 -4.30717 -0.332656 0
M  V30 1382 C 128.563 -5.14807 -1.30947 0
M  V30 1383 C 127.602 -6.09673 -0.544538 0
M  V30 1384 N 126.739 -6.86517 -1.47101 0
M  V30 1385 H 131.579 -2.91144 0.635542 0
M  V30 1386 H 129.116 -1.4346 0.325206 0
M  V30 1387 H 131.074 -3.82276 -1.67095 0
M  V30 1388 H 129.704 -2.68751 -1.78809 0
M  V30 1389 H 128.756 -3.78615 0.368107 0
M  V30 1390 H 130.068 -4.98102 0.263842 0
M  V30 1391 H 129.222 -5.73948 -1.96643 0
M  V30 1392 H 127.961 -4.47458 -1.9399 0
M  V30 1393 H 126.966 -5.49656 0.126003 0
M  V30 1394 H 128.191 -6.79052 0.080947 0
M  V30 1395 H 126.137 -6.21851 -2.08895 0
M  V30 1396 H 126.054 -7.50281 -0.928137 0
M  V30 1397 H 127.322 -7.50194 -2.11731 0
M  V30 1398 N 131.551 -0.354651 -1.53558 0
M  V30 1399 C 132.798 0.238443 -2.01091 0
M  V30 1400 C 133.126 1.49663 -1.24222 0
M  V30 1401 O 132.381 1.93049 -0.321003 0
M  V30 1402 C 132.68 0.587121 -3.52545 0
M  V30 1403 C 132.346 -0.575472 -4.47213 0
M  V30 1404 C 131.008 -0.894497 -4.72813 0
M  V30 1405 C 133.36 -1.35489 -5.03281 0
M  V30 1406 C 130.688 -1.99511 -5.51736 0
M  V30 1407 C 133.04 -2.44583 -5.83405 0
M  V30 1408 C 131.704 -2.77033 -6.07296 0
M  V30 1409 H 130.974 0.0872526 -0.735845 0
M  V30 1410 H 133.621 -0.484859 -1.8526 0
M  V30 1411 H 131.926 1.39129 -3.66265 0
M  V30 1412 H 133.623 1.05809 -3.86789 0
M  V30 1413 H 130.213 -0.316774 -4.27428 0
M  V30 1414 H 134.397 -1.12167 -4.83459 0
M  V30 1415 H 129.653 -2.25063 -5.68469 0
M  V30 1416 H 133.827 -3.05401 -6.25862 0
M  V30 1417 H 131.454 -3.6244 -6.68237 0
M  V30 1418 N 133.029 1.57378 -0.0835403 0
M  V30 1419 C 134.306 1.85363 0.624507 0
M  V30 1420 C 134.686 0.978239 1.87066 0
M  V30 1421 O 134.034 0.0475908 2.2845 0
M  V30 1422 C 134.244 3.35795 0.950947 0
M  V30 1423 C 135.592 4.03581 1.31939 0
M  V30 1424 O 136.616 3.40609 1.04232 0
M  V30 1425 O 135.475 5.14672 1.83779 0
M  V30 1426 H 132.569 0.766162 0.311329 0
M  V30 1427 H 135.115 1.69307 -0.115362 0
M  V30 1428 H 133.887 3.91244 0.0663899 0
M  V30 1429 H 133.51 3.57154 1.74719 0
M  V30 1430 N 134.507 -0.190092 1.56449 0
M  V30 1431 C 135.756 -0.907912 1.80111 0
M  V30 1432 C 136.069 -1.84214 0.657619 0
M  V30 1433 O 137.275 -2.60094 0.778663 0
M  V30 1434 C 135.731 -1.66485 3.19078 0
M  V30 1435 C 135.339 -0.7752 4.41242 0
M  V30 1436 C 137.083 -2.37201 3.52045 0
M  V30 1437 C 134.99 -1.53129 5.71231 0
M  V30 1438 H 133.92 -0.34276 0.671589 0
M  V30 1439 H 136.571 -0.161109 1.82791 0
M  V30 1440 H 134.953 -2.45572 3.10661 0
M  V30 1441 H 136.127 -0.0226298 4.60794 0
M  V30 1442 H 134.442 -0.178627 4.16017 0
M  V30 1443 H 137.039 -2.94329 4.46402 0
M  V30 1444 H 137.382 -3.11632 2.76028 0
M  V30 1445 H 137.915 -1.65075 3.61932 0
M  V30 1446 H 134.654 -0.82967 6.50228 0
M  V30 1447 H 134.174 -2.25767 5.55688 0
M  V30 1448 H 135.853 -2.08377 6.12526 0
M  V30 1449 N 135.985 -1.50799 -0.457987 0
M  V30 1450 C 136.895 -1.73426 -1.57989 0
M  V30 1451 C 137.911 -0.617745 -1.62665 0
M  V30 1452 O 139.087 -0.897614 -1.80291 0
M  V30 1453 C 136.152 -1.83557 -2.94122 0
M  V30 1454 C 135.213 -3.07345 -2.99729 0
M  V30 1455 C 134.446 -3.16983 -4.29368 0
M  V30 1456 O 134.669 -2.33077 -5.20607 0
M  V30 1457 O 133.603 -4.09812 -4.40837 0
M  V30 1458 H 137.429 -2.68555 -1.41817 0
M  V30 1459 H 135.014 -1.35052 -0.638859 0
M  V30 1460 H 136.896 -1.92326 -3.74952 0
M  V30 1461 H 135.571 -0.916137 -3.10465 0
M  V30 1462 H 134.478 -3.04068 -2.1793 0
M  V30 1463 H 135.811 -3.9891 -2.88326 0
M  V30 1464 N 137.463 0.71206 -1.40597 0
M  V30 1465 C 138.691 1.50111 -1.42388 0
M  V30 1466 C 139.106 1.88784 -0.0245395 0
M  V30 1467 O 138.463 1.55681 0.952351 0
M  V30 1468 C 138.514 2.7742 -2.31776 0
M  V30 1469 O 138.235 2.40382 -3.66262 0
M  V30 1470 C 139.736 3.7129 -2.42196 0
M  V30 1471 H 136.956 0.46314 -0.485533 0
M  V30 1472 H 139.5 0.878068 -1.8469 0
M  V30 1473 H 137.655 3.36001 -1.92827 0
M  V30 1474 H 138.069 3.22324 -4.13772 0
M  V30 1475 H 139.543 4.57448 -3.08943 0
M  V30 1476 H 140.02 4.14641 -1.44809 0
M  V30 1477 H 140.626 3.18619 -2.81712 0
M  V30 1478 N 138.941 1.26152 0.944643 0
M  V30 1479 C 140.166 1.14363 1.7302 0
M  V30 1480 C 140.591 -0.29772 1.85729 0
M  V30 1481 O 139.949 -1.2157 1.34501 0
M  V30 1482 C 139.997 1.81378 3.11664 0
M  V30 1483 O 139.101 1.10022 3.97453 0
M  V30 1484 H 138.442 0.398694 0.53098 0
M  V30 1485 H 140.972 1.66906 1.18337 0
M  V30 1486 H 140.982 1.88064 3.62072 0
M  V30 1487 H 139.657 2.86237 3.0173 0
M  V30 1488 H 138.234 1.11287 3.55907 0
M  V30 1489 N 140.419 -1.14872 1.07899 0
M  V30 1490 C 141.367 -2.21857 0.698727 0
M  V30 1491 C 142.361 -1.66845 -0.293086 0
M  V30 1492 O 143.567 -1.79321 -0.156204 0
M  V30 1493 H 139.942 -0.722691 0.207899 0
M  V30 1494 H 141.913 -2.51205 1.61054 0
M  V30 1495 C 140.662 -3.47498 0.11858 0
M  V30 1496 H 139.985 -3.90154 0.872914 0
M  V30 1497 H 141.425 -4.23858 -0.109759 0
M  V30 1498 C 139.884 -3.16947 -1.1422 0
M  V30 1499 O 140.414 -3.3426 -2.22785 0
M  V30 1500 N 138.62 -2.70946 -1.05055 0
M  V30 1501 H 138.167 -2.57058 -0.167038 0
M  V30 1502 H 138.125 -2.50879 -1.89491 0
M  V30 1503 N 141.898 -0.863906 -1.31812 0
M  V30 1504 C 142.845 -0.313303 -2.28664 0
M  V30 1505 C 143.815 0.584868 -1.55462 0
M  V30 1506 O 145 0.517805 -1.83639 0
M  V30 1507 C 142.14 0.48441 -3.41683 0
M  V30 1508 C 141.253 -0.440594 -4.29747 0
M  V30 1509 C 140.388 0.370652 -5.29905 0
M  V30 1510 C 139.427 -0.551164 -6.09613 0
M  V30 1511 N 138.564 0.223462 -7.01744 0
M  V30 1512 H 143.404 -1.14444 -2.75148 0
M  V30 1513 H 140.941 -0.575769 -1.35364 0
M  V30 1514 H 142.899 0.962627 -4.05943 0
M  V30 1515 H 141.529 1.28029 -2.96325 0
M  V30 1516 H 140.581 -1.03724 -3.65986 0
M  V30 1517 H 141.893 -1.14767 -4.85417 0
M  V30 1518 H 141.047 0.911638 -5.99812 0
M  V30 1519 H 139.786 1.11105 -4.74876 0
M  V30 1520 H 138.791 -1.10396 -5.38603 0
M  V30 1521 H 140.016 -1.29032 -6.66729 0
M  V30 1522 H 137.962 0.946787 -6.49132 0
M  V30 1523 H 137.879 -0.424399 -7.54808 0
M  V30 1524 H 139.147 0.745876 -7.75923 0
M  V30 1525 N 143.376 1.44774 -0.622745 0
M  V30 1526 C 144.339 2.29069 0.0774015 0
M  V30 1527 C 145.339 1.4059 0.780461 0
M  V30 1528 O 146.529 1.62551 0.626322 0
M  V30 1529 C 143.661 3.21974 1.12006 0
M  V30 1530 H 144.854 2.92459 -0.663901 0
M  V30 1531 H 142.407 1.51548 -0.382486 0
M  V30 1532 H 143.142 2.63417 1.89162 0
M  V30 1533 H 142.927 3.87168 0.619951 0
M  V30 1534 H 144.417 3.85318 1.60995 0
M  V30 1535 N 144.854 0.36279 1.53368 0
M  V30 1536 C 146.102 -0.227326 2.00817 0
M  V30 1537 C 146.423 -1.49511 1.25186 0
M  V30 1538 O 145.693 -1.92482 0.364348 0
M  V30 1539 H 144.273 -0.0869923 0.741917 0
M  V30 1540 H 146.935 0.488381 1.88682 0
M  V30 1541 H 146.031 -0.456273 3.08747 0
M  V30 1542 N 146.332 -1.57332 0.0918853 0
M  V30 1543 C 147.264 -2.10869 -0.898168 0
M  V30 1544 C 148.277 -1.04521 -1.24817 0
M  V30 1545 O 149.466 -1.31977 -1.20184 0
M  V30 1546 C 146.566 -2.57083 -2.2082 0
M  V30 1547 C 145.739 -3.87229 -2.03402 0
M  V30 1548 C 144.798 -4.19324 -3.17889 0
M  V30 1549 O 143.824 -4.88598 -2.91994 0
M  V30 1550 N 145.026 -3.74471 -4.43567 0
M  V30 1551 H 147.791 -2.96439 -0.440943 0
M  V30 1552 H 145.352 -1.61631 -0.0933064 0
M  V30 1553 H 147.344 -2.75602 -2.96354 0
M  V30 1554 H 145.914 -1.76541 -2.57977 0
M  V30 1555 H 145.134 -3.7789 -1.12218 0
M  V30 1556 H 146.422 -4.72379 -1.89038 0
M  V30 1557 H 145.82 -3.18546 -4.67488 0
M  V30 1558 H 144.377 -3.98151 -5.16061 0
M  V30 1559 N 147.81 0.181792 -1.56548 0
M  V30 1560 C 148.773 1.20894 -1.94724 0
M  V30 1561 C 149.773 1.37738 -0.829747 0
M  V30 1562 O 150.963 1.35323 -1.09697 0
M  V30 1563 C 148.095 2.57593 -2.23291 0
M  V30 1564 H 149.288 0.882275 -2.86629 0
M  V30 1565 H 146.841 0.423838 -1.50444 0
M  V30 1566 H 147.576 2.95291 -1.34067 0
M  V30 1567 H 147.361 2.46735 -3.04736 0
M  V30 1568 H 148.851 3.31637 -2.53785 0
M  V30 1569 N 149.288 1.51039 0.449983 0
M  V30 1570 C 150.535 1.63081 1.20045 0
M  V30 1571 C 150.863 0.341024 1.91487 0
M  V30 1572 O 150.118 -0.674276 1.83717 0
M  V30 1573 C 150.417 2.77556 2.25161 0
M  V30 1574 C 150.083 4.17289 1.70823 0
M  V30 1575 C 148.745 4.55305 1.55725 0
M  V30 1576 C 151.097 5.04536 1.3074 0
M  V30 1577 C 148.425 5.78287 0.989999 0
M  V30 1578 C 150.777 6.28085 0.754482 0
M  V30 1579 C 149.441 6.64885 0.590308 0
M  V30 1580 H 148.711 0.596755 0.439277 0
M  V30 1581 H 151.358 1.85037 0.49333 0
M  V30 1582 H 149.663 2.49771 3.01863 0
M  V30 1583 H 151.36 2.84073 2.83026 0
M  V30 1584 H 147.95 3.8731 1.83546 0
M  V30 1585 H 152.134 4.75782 1.41229 0
M  V30 1586 H 147.39 6.05456 0.850451 0
M  V30 1587 H 151.564 6.95038 0.435324 0
M  V30 1588 H 149.191 7.60055 0.14862 0
M  V30 1589 N 150.766 -0.704594 1.40972 0
M  V30 1590 C 151.696 -1.83124 1.44872 0
M  V30 1591 C 152.677 -1.67281 0.30838 0
M  V30 1592 O 153.862 -1.87149 0.518556 0
M  V30 1593 C 150.992 -3.21181 1.32136 0
M  V30 1594 C 149.946 -3.51714 2.43888 0
M  V30 1595 C 149.272 -4.89032 2.16222 0
M  V30 1596 C 150.572 -3.516 3.86232 0
M  V30 1597 H 152.266 -1.80117 2.39161 0
M  V30 1598 H 149.812 -0.865145 1.15114 0
M  V30 1599 H 151.765 -3.99702 1.33479 0
M  V30 1600 H 150.489 -3.24791 0.343279 0
M  V30 1601 H 149.148 -2.75539 2.41813 0
M  V30 1602 H 148.796 -4.89256 1.16778 0
M  V30 1603 H 148.496 -5.10426 2.911 0
M  V30 1604 H 150.02 -5.69873 2.19265 0
M  V30 1605 H 151.434 -4.2014 3.9007 0
M  V30 1606 H 149.831 -3.84523 4.60719 0
M  V30 1607 H 150.901 -2.50757 4.15029 0
M  V30 1608 N 152.244 -1.26651 -0.937939 0
M  V30 1609 C 153.66 -1.03834 -1.21205 0
M  V30 1610 C 153.86 0.234502 -2.00131 0
M  V30 1611 O 152.916 0.942767 -2.3424 0
M  V30 1612 C 154.229 -2.27167 -1.97017 0
M  V30 1613 C 155.777 -2.32101 -2.09996 0
M  V30 1614 C 156.252 -3.55136 -2.8921 0
M  V30 1615 N 157.743 -3.55632 -2.96783 0
M  V30 1616 C 158.478 -4.475 -3.58512 0
M  V30 1617 N 157.974 -5.4966 -4.21717 0
M  V30 1618 N 159.767 -4.35145 -3.55816 0
M  V30 1619 H 151.918 -2.08398 -0.410391 0
M  V30 1620 H 154.181 -0.916031 -0.244114 0
M  V30 1621 H 153.887 -3.19765 -1.46434 0
M  V30 1622 H 153.761 -2.31672 -2.97671 0
M  V30 1623 H 156.148 -1.40015 -2.59769 0
M  V30 1624 H 156.229 -2.31605 -1.08594 0
M  V30 1625 H 155.873 -4.47553 -2.40123 0
M  V30 1626 H 155.803 -3.5288 -3.90875 0
M  V30 1627 H 158.294 -2.81743 -2.51852 0
M  V30 1628 H 158.607 -6.15943 -4.66727 0
M  V30 1629 H 156.952 -5.53514 -4.20294 0
M  V30 1630 H 160.143 -3.5455 -3.05634 0
M  V30 1631 H 160.316 -5.06934 -4.03636 0
M  V30 1632 N 153.722 1.14298 -1.08507 0
M  V30 1633 C 154.971 1.84708 -0.810305 0
M  V30 1634 C 155.284 1.83903 0.666271 0
M  V30 1635 O 156.49 2.50112 1.05624 0
M  V30 1636 C 154.946 3.31572 -1.39957 0
M  V30 1637 C 154.554 3.40791 -2.90801 0
M  V30 1638 C 156.298 4.07087 -1.20334 0
M  V30 1639 C 154.205 4.81872 -3.4286 0
M  V30 1640 H 153.135 0.691985 -0.299454 0
M  V30 1641 H 155.786 1.28841 -1.30661 0
M  V30 1642 H 154.168 3.87183 -0.830976 0
M  V30 1643 H 155.342 2.95225 -3.53806 0
M  V30 1644 H 153.657 2.78732 -3.0935 0
M  V30 1645 H 156.254 5.11225 -1.56693 0
M  V30 1646 H 156.597 4.16054 -0.143237 0
M  V30 1647 H 157.13 3.57779 -1.73893 0
M  V30 1648 H 153.869 4.78094 -4.48449 0
M  V30 1649 H 153.389 5.27972 -2.84615 0
M  V30 1650 H 155.068 5.50765 -3.39509 0
M  V30 1651 N 155.201 0.870884 1.31352 0
M  V30 1652 C 156.134 0.271983 2.26573 0
M  V30 1653 C 157.112 -0.599385 1.51149 0
M  V30 1654 O 158.296 -0.552605 1.80218 0
M  V30 1655 C 155.423 -0.614801 3.33073 0
M  V30 1656 C 154.469 0.185342 4.26097 0
M  V30 1657 S 155.302 1.56444 5.12138 0
M  V30 1658 C 156.458 0.683807 6.22153 0
M  V30 1659 H 156.691 1.07916 2.77023 0
M  V30 1660 H 154.224 0.669459 1.39132 0
M  V30 1661 H 156.182 -1.12074 3.94905 0
M  V30 1662 H 154.843 -1.39593 2.81376 0
M  V30 1663 H 154.036 -0.490771 5.01605 0
M  V30 1664 H 153.638 0.623415 3.68768 0
M  V30 1665 H 155.93 -0.10521 6.77418 0
M  V30 1666 H 156.873 1.41004 6.93919 0
M  V30 1667 H 157.281 0.250952 5.63942 0
M  V30 1668 N 156.679 -1.44442 0.630414 0
M  V30 1669 C 157.589 -2.34476 -0.0761693 0
M  V30 1670 C 158.605 -1.52576 -0.836449 0
M  V30 1671 O 159.781 -1.85307 -0.788874 0
M  V30 1672 C 156.846 -3.30545 -1.04599 0
M  V30 1673 C 155.907 -4.28352 -0.28516 0
M  V30 1674 C 155.14 -5.19831 -1.20878 0
M  V30 1675 O 155.363 -5.15223 -2.44747 0
M  V30 1676 O 154.297 -5.97892 -0.693491 0
M  V30 1677 H 158.123 -2.96345 0.664324 0
M  V30 1678 H 155.708 -1.44203 0.39061 0
M  V30 1679 H 157.59 -3.89681 -1.60396 0
M  V30 1680 H 156.265 -2.7121 -1.76711 0
M  V30 1681 H 155.172 -3.72764 0.315837 0
M  V30 1682 H 156.505 -4.90605 0.395924 0
M  V30 1683 N 158.157 -0.370918 -1.53173 0
M  V30 1684 C 159.104 0.473035 -2.259 0
M  V30 1685 C 160.074 1.07311 -1.26781 0
M  V30 1686 O 161.259 1.1046 -1.55574 0
M  V30 1687 C 158.399 1.60405 -3.05556 0
M  V30 1688 C 157.512 1.02863 -4.19575 0
M  V30 1689 C 156.647 2.12918 -4.86661 0
M  V30 1690 C 155.686 1.52869 -5.92704 0
M  V30 1691 N 154.823 2.56779 -6.53459 0
M  V30 1692 H 159.663 -0.153649 -2.97604 0
M  V30 1693 H 157.2 -0.0875946 -1.46839 0
M  V30 1694 H 159.158 2.27034 -3.50016 0
M  V30 1695 H 157.788 2.20131 -2.36097 0
M  V30 1696 H 156.84 0.252465 -3.79561 0
M  V30 1697 H 158.152 0.549642 -4.95762 0
M  V30 1698 H 157.306 2.87356 -5.34333 0
M  V30 1699 H 156.045 2.6417 -4.09958 0
M  V30 1700 H 155.05 0.769479 -5.44389 0
M  V30 1701 H 156.275 1.02435 -6.7133 0
M  V30 1702 H 154.221 3.07235 -5.79606 0
M  V30 1703 H 154.138 2.13583 -7.25202 0
M  V30 1704 H 155.406 3.30903 -7.05779 0
M  V30 1705 N 159.635 1.57281 -0.100228 0
M  V30 1706 C 160.582 2.14305 0.856858 0
M  V30 1707 C 161.552 1.06296 1.27634 0
M  V30 1708 O 162.737 1.34109 1.35718 0
M  V30 1709 C 159.877 2.73184 2.10866 0
M  V30 1710 C 158.99 3.95442 1.73925 0
M  V30 1711 C 158.125 4.42468 2.93931 0
M  V30 1712 C 157.164 5.57303 2.5314 0
M  V30 1713 N 156.301 5.99158 3.65997 0
M  V30 1714 H 161.141 2.95772 0.363726 0
M  V30 1715 H 158.678 1.46139 0.167858 0
M  V30 1716 H 160.636 3.05442 2.84185 0
M  V30 1717 H 159.266 1.94437 2.57671 0
M  V30 1718 H 158.318 3.69464 0.905554 0
M  V30 1719 H 159.63 4.78769 1.39935 0
M  V30 1720 H 158.784 4.76537 3.75496 0
M  V30 1721 H 157.523 3.58052 3.31134 0
M  V30 1722 H 156.528 5.22857 1.70003 0
M  V30 1723 H 157.753 6.43471 2.17075 0
M  V30 1724 H 155.699 5.17687 4.02909 0
M  V30 1725 H 155.616 6.77295 3.35869 0
M  V30 1726 H 156.884 6.3786 4.48057 0
M  V30 1727 N 161.113 -0.173488 1.56642 0
M  V30 1728 C 162.39 -0.917617 1.7274 0
M  V30 1729 C 162.77 -2.00484 0.661027 0
M  V30 1730 O 162.118 -2.26184 -0.32453 0
M  V30 1731 C 162.328 -1.48433 3.15862 0
M  V30 1732 C 163.676 -1.95809 3.76754 0
M  V30 1733 O 164.7 -1.58231 3.19126 0
M  V30 1734 O 163.559 -2.65024 4.77938 0
M  V30 1735 H 160.653 -0.431772 0.705338 0
M  V30 1736 H 163.199 -0.161487 1.6893 0
M  V30 1737 H 161.971 -0.701715 3.84957 0
M  V30 1738 H 161.594 -2.30471 3.23989 0
M  V30 1739 N 162.591 -1.51276 -0.441967 0
M  V30 1740 C 163.539 -1.72823 -1.55676 0
M  V30 1741 C 164.533 -0.59445 -1.58627 0
M  V30 1742 O 165.739 -0.775715 -1.62427 0
M  V30 1743 H 162.114 -0.545983 -0.517113 0
M  V30 1744 H 164.085 -2.6628 -1.34675 0
M  V30 1745 C 162.834 -1.86619 -2.93375 0
M  V30 1746 H 162.157 -2.73264 -2.91834 0
M  V30 1747 H 163.597 -2.05709 -3.70756 0
M  V30 1748 C 162.056 -0.624842 -3.31055 0
M  V30 1749 O 162.586 0.222636 -4.01083 0
M  V30 1750 N 160.792 -0.470288 -2.86769 0
M  V30 1751 H 160.339 -1.161 -2.29953 0
M  V30 1752 H 160.297 0.359051 -3.12343 0
M  V30 1753 N 164.069 0.697108 -1.41344 0
M  V30 1754 C 165.017 1.83237 -1.43272 0
M  V30 1755 C 166.011 1.66522 -0.310947 0
M  V30 1756 O 167.217 1.73402 -0.482899 0
M  V30 1757 H 163.592 0.603802 -0.448249 0
M  V30 1758 H 165.563 1.78727 -2.38954 0
M  V30 1759 C 164.312 3.21245 -1.33029 0
M  V30 1760 H 163.635 3.34723 -2.18633 0
M  V30 1761 H 165.075 4.00763 -1.38439 0
M  V30 1762 C 163.534 3.36873 -0.0424635 0
M  V30 1763 O 164.064 3.91177 0.913421 0
M  V30 1764 N 162.27 2.90581 0.0331145 0
M  V30 1765 H 161.817 2.46577 -0.745506 0
M  V30 1766 H 161.775 3.01416 0.894199 0
M  V30 1767 N 165.547 1.27147 0.931209 0
M  V30 1768 C 166.775 1.16082 1.71267 0
M  V30 1769 C 167.19 -0.282772 1.8667 0
M  V30 1770 O 166.547 -1.19283 1.38122 0
M  V30 1771 C 166.598 1.8358 3.11417 0
M  V30 1772 O 166.319 3.22299 2.96741 0
M  V30 1773 C 167.82 1.78597 4.05732 0
M  V30 1774 H 165.04 0.403758 0.535929 0
M  V30 1775 H 167.584 1.67953 1.16671 0
M  V30 1776 H 165.739 1.35623 3.62885 0
M  V30 1777 H 166.153 3.55851 3.85319 0
M  V30 1778 H 167.627 2.30444 5.01597 0
M  V30 1779 H 168.104 0.754564 4.3267 0
M  V30 1780 H 168.71 2.26152 3.60188 0
M  V30 1781 N 167.025 -1.13721 1.09112 0
M  V30 1782 C 168.441 -1.36914 0.820174 0
M  V30 1783 C 168.641 -1.93356 -0.567079 0
M  V30 1784 O 167.697 -2.15093 -1.32255 0
M  V30 1785 C 169.01 -2.3235 1.90877 0
M  V30 1786 C 170.558 -2.45973 1.93562 0
M  V30 1787 C 171.033 -3.44714 3.01556 0
M  V30 1788 N 172.524 -3.52263 3.00775 0
M  V30 1789 C 173.259 -4.28536 3.80978 0
M  V30 1790 N 172.755 -5.07991 4.71081 0
M  V30 1791 N 174.548 -4.23804 3.69251 0
M  V30 1792 H 166.699 -0.754348 1.98553 0
M  V30 1793 H 168.962 -0.3944 0.862063 0
M  V30 1794 H 168.668 -1.98027 2.90651 0
M  V30 1795 H 168.542 -3.32332 1.78424 0
M  V30 1796 H 170.929 -2.79584 0.944286 0
M  V30 1797 H 171.01 -1.45926 2.10093 0
M  V30 1798 H 170.654 -3.11835 4.00901 0
M  V30 1799 H 170.584 -4.44558 2.82269 0
M  V30 1800 H 173.075 -2.95567 2.35475 0
M  V30 1801 H 173.388 -5.63487 5.28869 0
M  V30 1802 H 171.733 -5.07235 4.75119 0
M  V30 1803 H 174.924 -3.60806 2.98222 0
M  V30 1804 H 175.097 -4.82995 4.31995 0
M  V30 1805 N 168.503 -0.877838 -1.30888 0
M  V30 1806 C 169.433 -0.35534 -2.3078 0
M  V30 1807 C 170.414 0.557994 -1.60687 0
M  V30 1808 O 171.599 0.473355 -1.88343 0
M  V30 1809 C 168.729 0.437221 -3.44537 0
M  V30 1810 C 167.683 -0.383715 -4.26276 0
M  V30 1811 C 167.009 0.535014 -5.32017 0
M  V30 1812 C 168.309 -1.62201 -4.96476 0
M  V30 1813 H 170.003 -1.19007 -2.74732 0
M  V30 1814 H 167.549 -0.573698 -1.32078 0
M  V30 1815 H 169.502 0.813334 -4.13477 0
M  V30 1816 H 168.226 1.30553 -2.99372 0
M  V30 1817 H 166.885 -0.741874 -3.59015 0
M  V30 1818 H 166.533 1.40083 -4.831 0
M  V30 1819 H 166.233 -0.0104211 -5.87599 0
M  V30 1820 H 167.757 0.907799 -6.03814 0
M  V30 1821 H 169.171 -1.31689 -5.5797 0
M  V30 1822 H 167.568 -2.10711 -5.61891 0
M  V30 1823 H 168.638 -2.37044 -4.23011 0
M  V30 1824 N 169.982 1.44106 -0.638065 0
M  V30 1825 C 171.228 2.02815 -0.15409 0
M  V30 1826 C 171.583 1.49342 1.21304 0
M  V30 1827 O 170.876 0.670699 1.79478 0
M  V30 1828 C 171.07 3.5729 -0.0887327 0
M  V30 1829 C 170.899 4.2575 -1.44799 0
M  V30 1830 C 169.669 4.62443 -2.03653 0
M  V30 1831 C 171.867 4.55746 -2.38327 0
M  V30 1832 N 169.849 5.15903 -3.32741 0
M  V30 1833 C 171.22 5.10364 -3.52036 0
M  V30 1834 C 173.275 4.37703 -2.3732 0
M  V30 1835 C 171.978 5.48837 -4.64941 0
M  V30 1836 C 174.004 4.77229 -3.49294 0
M  V30 1837 C 173.366 5.31966 -4.61726 0
M  V30 1838 H 169.465 0.775519 -0.100466 0
M  V30 1839 H 172.049 1.755 -0.843071 0
M  V30 1840 H 170.22 3.84201 0.569548 0
M  V30 1841 H 171.952 4.02671 0.404711 0
M  V30 1842 H 168.707 4.46987 -1.56523 0
M  V30 1843 H 169.131 5.47102 -3.98758 0
M  V30 1844 H 173.773 3.94671 -1.51641 0
M  V30 1845 H 171.491 5.9082 -5.51323 0
M  V30 1846 H 175.077 4.64976 -3.49698 0
M  V30 1847 H 173.957 5.61986 -5.46939 0
M  V30 1848 N 171.46 0.379036 1.52974 0
M  V30 1849 C 172.39 -0.452706 2.29069 0
M  V30 1850 C 173.371 -1.07237 1.32039 0
M  V30 1851 O 174.556 -1.08708 1.60923 0
M  V30 1852 C 171.686 -1.5856 3.08992 0
M  V30 1853 C 170.64 -1.0925 4.13822 0
M  V30 1854 C 169.966 -2.31668 4.81907 0
M  V30 1855 C 171.266 -0.167702 5.22031 0
M  V30 1856 H 172.96 0.182181 2.98845 0
M  V30 1857 H 170.506 0.0890592 1.43724 0
M  V30 1858 H 172.459 -2.1742 3.6098 0
M  V30 1859 H 171.183 -2.24792 2.36931 0
M  V30 1860 H 169.842 -0.526494 3.628 0
M  V30 1861 H 169.49 -2.96386 4.06404 0
M  V30 1862 H 169.19 -1.9934 5.52754 0
M  V30 1863 H 170.714 -2.91189 5.36695 0
M  V30 1864 H 172.128 -0.664186 5.6944 0
M  V30 1865 H 170.525 0.0653265 6.00064 0
M  V30 1866 H 171.595 0.786347 4.78482 0
M  V30 1867 N 172.938 -1.57226 0.108567 0
M  V30 1868 C 174.163 -1.99604 -0.563303 0
M  V30 1869 C 174.588 -0.987563 -1.6009 0
M  V30 1870 O 173.946 0.0421687 -1.81251 0
M  V30 1871 C 173.994 -3.40902 -1.17552 0
M  V30 1872 O 173.098 -3.42896 -2.2912 0
M  V30 1873 H 172.439 -0.648704 -0.1417 0
M  V30 1874 H 174.969 -2.03679 0.193961 0
M  V30 1875 H 174.979 -3.78886 -1.51357 0
M  V30 1876 H 173.654 -4.1382 -0.415445 0
M  V30 1877 H 172.231 -3.1672 -1.96832 0
M  V30 1878 N 174.416 0.165178 -1.56732 0
M  V30 1879 C 175.326 1.22423 -2.00125 0
M  V30 1880 C 176.342 1.48084 -0.913619 0
M  V30 1881 O 177.518 1.60112 -1.22172 0
M  V30 1882 C 174.583 2.54197 -2.35764 0
M  V30 1883 C 173.644 2.36343 -3.58386 0
M  V30 1884 C 172.877 3.61834 -3.92316 0
M  V30 1885 O 173.1 4.67267 -3.27135 0
M  V30 1886 O 172.034 3.55579 -4.85641 0
M  V30 1887 H 175.86 0.885886 -2.90492 0
M  V30 1888 H 173.445 0.372518 -1.44681 0
M  V30 1889 H 175.327 3.3192 -2.59629 0
M  V30 1890 H 174.002 2.87598 -1.48557 0
M  V30 1891 H 172.909 1.56632 -3.39731 0
M  V30 1892 H 174.242 2.07865 -4.46154 0
M  V30 1893 N 175.894 1.51508 0.433938 0
M  V30 1894 C 176.827 1.67756 1.54704 0
M  V30 1895 C 177.805 0.525127 1.53887 0
M  V30 1896 O 178.989 0.749393 1.72963 0
M  V30 1897 C 176.116 1.69424 2.9328 0
M  V30 1898 C 175.162 2.90673 3.12108 0
M  V30 1899 S 175.995 4.51431 2.88046 0
M  V30 1900 C 177.151 4.55849 4.28897 0
M  V30 1901 H 177.384 2.61904 1.40689 0
M  V30 1902 H 174.917 1.41235 0.62386 0
M  V30 1903 H 176.875 1.7107 3.73156 0
M  V30 1904 H 175.536 0.764464 3.04655 0
M  V30 1905 H 174.729 2.88251 4.13434 0
M  V30 1906 H 174.331 2.86786 2.40062 0
M  V30 1907 H 176.623 4.31699 5.22152 0
M  V30 1908 H 177.566 5.57676 4.36351 0
M  V30 1909 H 177.974 3.85137 4.12711 0
M  V30 1910 N 177.372 -0.689602 1.41712 0
M  V30 1911 C 178.6 -1.47827 1.44758 0
M  V30 1912 C 179.015 -1.88721 0.0545703 0
M  V30 1913 O 178.372 -1.57176 -0.927463 0
M  V30 1914 C 178.423 -2.73698 2.3616 0
M  V30 1915 O 178.144 -2.34524 3.7004 0
M  V30 1916 C 179.645 -3.67389 2.48072 0
M  V30 1917 H 176.865 -0.455357 0.49284 0
M  V30 1918 H 179.409 -0.848574 1.86063 0
M  V30 1919 H 177.564 -3.32891 1.98148 0
M  V30 1920 H 177.978 -3.15701 4.18847 0
M  V30 1921 H 179.452 -4.52475 3.16181 0
M  V30 1922 H 179.929 -4.12284 1.51388 0
M  V30 1923 H 180.535 -3.14097 2.86746 0
M  V30 1924 N 178.85 -1.27639 -0.924453 0
M  V30 1925 C 180.075 -1.17101 -1.71179 0
M  V30 1926 C 180.5 0.268134 -1.86179 0
M  V30 1927 O 179.858 1.19415 -1.36418 0
M  V30 1928 C 179.906 -1.86313 -3.08739 0
M  V30 1929 O 179.01 -1.16331 -3.95652 0
M  V30 1930 H 178.351 -0.407091 -0.524569 0
M  V30 1931 H 180.881 -1.68767 -1.15666 0
M  V30 1932 H 180.891 -1.938 -3.59034 0
M  V30 1933 H 179.566 -2.91001 -2.97138 0
M  V30 1934 H 178.143 -1.16935 -3.54091 0
M  V30 1935 N 180.328 1.1314 -1.09713 0
M  V30 1936 C 181.576 1.84119 -0.833338 0
M  V30 1937 C 181.897 1.84097 0.642904 0
M  V30 1938 O 181.167 1.29881 1.46655 0
M  V30 1939 H 179.747 0.681766 -0.305293 0
M  V30 1940 H 182.409 1.37038 -1.38588 0
M  V30 1941 H 181.505 2.88543 -1.18951 0
M  V30 1942 N 181.806 0.884767 1.30421 0
M  V30 1943 C 183.034 0.518044 2.0031 0
M  V30 1944 C 183.449 -0.893408 1.66324 0
M  V30 1945 O 182.806 -1.5875 0.900262 0
M  V30 1946 C 182.857 0.682997 3.54989 0
M  V30 1947 O 182.578 2.03888 3.87764 0
M  V30 1948 C 184.079 0.31924 4.42149 0
M  V30 1949 H 181.299 0.200265 0.640418 0
M  V30 1950 H 183.843 1.19001 1.6631 0
M  V30 1951 H 181.998 0.0584052 3.87356 0
M  V30 1952 H 182.412 2.05735 4.82466 0
M  V30 1953 H 183.886 0.485555 5.4986 0
M  V30 1954 H 184.363 -0.742717 4.32875 0
M  V30 1955 H 184.969 0.920147 4.15227 0
M  V30 1956 N 183.284 -1.43765 0.645699 0
M  V30 1957 C 184.512 -2.06253 0.163556 0
M  V30 1958 C 184.927 -1.48352 -1.16778 0
M  V30 1959 O 184.284 -0.611932 -1.71935 0
M  V30 1960 C 184.335 -3.61453 0.0583186 0
M  V30 1961 O 184.056 -4.172 1.33702 0
M  V30 1962 C 185.557 -4.41002 -0.450795 0
M  V30 1963 H 182.777 -0.665413 0.0864077 0
M  V30 1964 H 185.321 -1.84396 0.884222 0
M  V30 1965 H 183.476 -3.82522 -0.612865 0
M  V30 1966 H 183.89 -5.10791 1.19131 0
M  V30 1967 H 185.364 -5.49966 -0.473403 0
M  V30 1968 H 185.841 -4.13488 -1.48068 0
M  V30 1969 H 186.447 -4.24886 0.187637 0
M  V30 1970 N 184.763 -0.387143 -1.52771 0
M  V30 1971 C 185.711 0.463953 -2.27926 0
M  V30 1972 C 186.705 1.06493 -1.31741 0
M  V30 1973 O 187.911 1.00565 -1.49287 0
M  V30 1974 H 184.286 0.16837 -0.732909 0
M  V30 1975 H 186.257 -0.19141 -2.97785 0
M  V30 1976 C 185.006 1.5803 -3.09713 0
M  V30 1977 H 184.329 1.12718 -3.83581 0
M  V30 1978 H 185.769 2.15008 -3.65442 0
M  V30 1979 C 184.228 2.53509 -2.2189 0
M  V30 1980 O 184.758 3.56863 -1.84422 0
M  V30 1981 N 182.964 2.23199 -1.86093 0
M  V30 1982 H 182.511 1.39185 -2.16761 0
M  V30 1983 H 182.469 2.87333 -1.27621 0
M  V30 1984 N 186.241 1.57166 -0.116904 0
M  V30 1985 C 187.188 2.15202 0.83408 0
M  V30 1986 C 188.158 1.07644 1.26499 0
M  V30 1987 O 189.343 1.35541 1.34288 0
M  V30 1988 C 186.483 2.75405 2.07957 0
M  V30 1989 C 185.596 3.97264 1.69721 0
M  V30 1990 C 184.731 4.45561 2.89221 0
M  V30 1991 C 183.77 5.59956 2.47215 0
M  V30 1992 N 182.907 6.03006 3.59622 0
M  V30 1993 H 187.747 2.96141 0.332335 0
M  V30 1994 H 185.284 1.46309 0.152349 0
M  V30 1995 H 187.242 3.08439 2.80929 0
M  V30 1996 H 185.872 1.97159 2.55594 0
M  V30 1997 H 184.924 3.70404 0.866316 0
M  V30 1998 H 186.236 4.80226 1.34849 0
M  V30 1999 H 185.39 4.80493 3.7042 0
M  V30 2000 H 184.129 3.61544 3.27318 0
M  V30 2001 H 183.134 5.2463 1.64448 0
M  V30 2002 H 184.359 6.45738 2.10238 0
M  V30 2003 H 182.305 5.21931 3.97396 0
M  V30 2004 H 182.222 6.80819 3.28667 0
M  V30 2005 H 183.49 6.42576 4.41267 0
M  V30 2006 N 187.719 -0.156864 1.56817 0
M  V30 2007 C 188.669 -1.19891 1.93934 0
M  V30 2008 C 189.653 -1.39061 0.809372 0
M  V30 2009 O 190.845 -1.40789 1.07273 0
M  V30 2010 C 187.974 -2.53493 2.31508 0
M  V30 2011 C 187.06 -2.37957 3.51052 0
M  V30 2012 N 187.451 -1.92158 4.67877 0
M  V30 2013 C 185.749 -2.68739 3.55943 0
M  V30 2014 C 186.45 -1.8943 5.49992 0
M  V30 2015 N 185.426 -2.32375 4.91429 0
M  V30 2016 H 189.228 -0.836746 2.81737 0
M  V30 2017 H 186.742 -0.365012 1.58245 0
M  V30 2018 H 188.739 -3.28811 2.56299 0
M  V30 2019 H 187.399 -2.905 1.45051 0
M  V30 2020 H 188.41 -1.62274 4.91821 0
M  V30 2021 H 185.087 -3.09687 2.80001 0
M  V30 2022 H 186.477 -1.55596 6.53636 0
M  V30 2023 N 189.197 -1.51736 -0.425897 0
M  V30 2024 C 190.425 -1.68794 -1.1965 0
M  V30 2025 C 190.84 -0.390164 -1.84725 0
M  V30 2026 O 190.197 0.632376 -1.71194 0
M  V30 2027 C 190.248 -2.81174 -2.27208 0
M  V30 2028 O 189.969 -4.05925 -1.64793 0
M  V30 2029 C 191.47 -3.09599 -3.17275 0
M  V30 2030 H 188.69 -0.566128 -0.360194 0
M  V30 2031 H 191.234 -1.98211 -0.503249 0
M  V30 2032 H 189.389 -2.54324 -2.9223 0
M  V30 2033 H 189.803 -4.68423 -2.35967 0
M  V30 2034 H 191.277 -3.91786 -3.88854 0
M  V30 2035 H 191.754 -2.22468 -3.78688 0
M  V30 2036 H 192.36 -3.38151 -2.57941 0
M  V30 2037 N 190.675 0.682077 -1.42076 0
M  V30 2038 C 191.605 1.80796 -1.47767 0
M  V30 2039 C 192.586 1.6677 -0.334954 0
M  V30 2040 O 193.771 1.863 -0.548264 0
M  V30 2041 C 190.901 3.19038 -1.37229 0
M  V30 2042 C 189.855 3.47789 -2.49453 0
M  V30 2043 C 189.181 4.8553 -2.23975 0
M  V30 2044 C 190.481 3.45411 -3.91776 0
M  V30 2045 H 192.175 1.7629 -2.41997 0
M  V30 2046 H 189.721 0.846721 -1.16476 0
M  V30 2047 H 191.674 3.97528 -1.39821 0
M  V30 2048 H 190.398 3.24204 -0.394907 0
M  V30 2049 H 189.057 2.71657 -2.46166 0
M  V30 2050 H 188.705 4.87337 -1.24547 0
M  V30 2051 H 188.405 5.0573 -2.99184 0
M  V30 2052 H 189.929 5.66312 -2.28304 0
M  V30 2053 H 191.343 4.13882 -3.96705 0
M  V30 2054 H 189.74 3.77145 -4.66778 0
M  V30 2055 H 190.81 2.44122 -4.18966 0
M  V30 2056 N 192.153 1.28127 0.917671 0
M  V30 2057 C 193.381 1.17892 1.70026 0
M  V30 2058 C 193.796 -0.262958 1.8696 0
M  V30 2059 O 193.153 -1.17811 1.3938 0
M  V30 2060 C 193.204 1.86872 3.09453 0
M  V30 2061 O 192.925 3.25428 2.93306 0
M  V30 2062 C 194.426 1.8289 4.03815 0
M  V30 2063 H 191.646 0.40942 0.531617 0
M  V30 2064 H 194.19 1.69181 1.14883 0
M  V30 2065 H 192.345 1.39464 3.61426 0
M  V30 2066 H 192.759 3.59918 3.81523 0
M  V30 2067 H 194.233 2.35751 4.99125 0
M  V30 2068 H 194.71 0.800412 4.31845 0
M  V30 2069 H 195.316 2.29959 3.57769 0
M  V30 2070 N 193.631 -1.12557 1.10312 0
M  V30 2071 C 194.578 -2.18247 0.750781 0
M  V30 2072 C 195.548 -1.63853 -0.272293 0
M  V30 2073 O 196.733 -1.90195 -0.151862 0
M  V30 2074 C 193.873 -3.44591 0.187379 0
M  V30 2075 C 192.986 -4.13046 1.2656 0
M  V30 2076 C 192.121 -5.27034 0.663978 0
M  V30 2077 C 191.16 -5.87353 1.72287 0
M  V30 2078 N 190.297 -6.92757 1.1416 0
M  V30 2079 H 195.137 -2.47732 1.65628 0
M  V30 2080 H 192.674 -1.21629 0.827337 0
M  V30 2081 H 194.632 -4.16904 -0.157148 0
M  V30 2082 H 193.262 -3.15527 -0.681355 0
M  V30 2083 H 192.314 -3.38924 1.72727 0
M  V30 2084 H 193.626 -4.53947 2.06721 0
M  V30 2085 H 192.78 -6.06104 0.268824 0
M  V30 2086 H 191.519 -4.87407 -0.169082 0
M  V30 2087 H 190.524 -5.06971 2.12746 0
M  V30 2088 H 191.749 -6.29051 2.55875 0
M  V30 2089 H 189.695 -6.5517 0.329984 0
M  V30 2090 H 189.612 -7.3225 1.88007 0
M  V30 2091 H 190.88 -7.75658 0.772956 0
M  V30 2092 N 195.109 -0.891671 -1.2995 0
M  V30 2093 C 196.358 -0.509521 -1.95158 0
M  V30 2094 C 196.671 0.947388 -1.71125 0
M  V30 2095 O 197.877 1.43669 -2.30372 0
M  V30 2096 C 196.333 -0.860315 -3.49466 0
M  V30 2097 C 195.941 -2.33545 -3.8231 0
M  V30 2098 C 197.685 -0.547687 -4.20952 0
M  V30 2099 C 195.592 -2.62752 -5.29826 0
M  V30 2100 H 194.522 -0.18682 -0.730489 0
M  V30 2101 H 197.173 -1.08756 -1.47798 0
M  V30 2102 H 195.555 -0.211285 -3.95436 0
M  V30 2103 H 196.729 -3.02936 -3.47227 0
M  V30 2104 H 195.044 -2.61629 -3.23944 0
M  V30 2105 H 197.641 -0.742854 -5.29515 0
M  V30 2106 H 197.984 0.51332 -4.13123 0
M  V30 2107 H 198.517 -1.1542 -3.80688 0
M  V30 2108 H 195.256 -3.6762 -5.42712 0
M  V30 2109 H 194.776 -1.97977 -5.66185 0
M  V30 2110 H 196.455 -2.48601 -5.97333 0
M  V30 2111 N 196.587 1.43421 -0.653314 0
M  V30 2112 C 197.817 2.05864 -0.174238 0
M  V30 2113 C 198.225 1.49052 1.16534 0
M  V30 2114 O 197.568 0.616481 1.73047 0
M  V30 2115 C 197.63 3.59499 -0.00875873 0
M  V30 2116 C 197.294 4.38893 -1.27364 0
M  V30 2117 C 198.291 4.70947 -2.20239 0
M  V30 2118 C 195.976 4.789 -1.51525 0
M  V30 2119 C 197.97 5.41916 -3.35568 0
M  V30 2120 C 195.657 5.49614 -2.67147 0
M  V30 2121 C 196.655 5.81044 -3.58994 0
M  V30 2122 O 196.343 6.50313 -4.72597 0
M  V30 2123 H 196.075 0.670345 -0.0872549 0
M  V30 2124 H 198.629 1.84913 -0.894226 0
M  V30 2125 H 196.859 3.79025 0.7666 0
M  V30 2126 H 198.548 4.0364 0.427687 0
M  V30 2127 H 199.314 4.40558 -2.02815 0
M  V30 2128 H 195.193 4.53843 -0.809158 0
M  V30 2129 H 198.737 5.66365 -4.07279 0
M  V30 2130 H 194.634 5.79419 -2.84505 0
M  V30 2131 H 195.402 6.68795 -4.71864 0
M  V30 2132 N 198.065 0.39524 1.52563 0
M  V30 2133 C 199.013 -0.451859 2.28169 0
M  V30 2134 C 200.007 -1.05792 1.32304 0
M  V30 2135 O 201.213 -0.997718 1.49818 0
M  V30 2136 H 197.588 -0.164481 0.733792 0
M  V30 2137 H 199.559 0.207199 2.9768 0
M  V30 2138 C 198.308 -1.56385 3.10546 0
M  V30 2139 H 197.631 -1.10682 3.84174 0
M  V30 2140 H 199.071 -2.13067 3.66577 0
M  V30 2141 C 197.53 -2.52328 2.23231 0
M  V30 2142 O 198.06 -3.5588 1.86312 0
M  V30 2143 N 196.266 -2.22209 1.87274 0
M  V30 2144 H 195.813 -1.38033 2.17496 0
M  V30 2145 H 195.771 -2.86652 1.29143 0
M  V30 2146 N 199.544 -1.57102 0.125237 0
M  V30 2147 C 200.955 -1.82384 -0.399142 0
M  V30 2148 C 201.306 -1.04276 -1.66195 0
M  V30 2149 O 200.431 -0.281269 -2.14564 0
M  V30 2150 C 201.026 -3.30821 -0.730932 0
M  V30 2151 C 199.585 -3.56762 -1.19992 0
M  V30 2152 C 198.732 -2.7649 -0.211792 0
M  V30 2153 H 201.683 -1.54786 0.350277 0
M  V30 2154 H 201.704 -3.4579 -1.58775 0
M  V30 2155 H 201.216 -3.87643 0.188345 0
M  V30 2156 H 199.317 -3.05305 -2.13588 0
M  V30 2157 H 199.43 -4.65317 -1.14093 0
M  V30 2158 H 197.794 -2.4489 -0.700085 0
M  V30 2159 H 198.577 -3.36073 0.700691 0
M  V30 2160 N 201.022 0.148545 -1.56898 0
M  V30 2161 C 201.969 1.18345 -1.98149 0
M  V30 2162 C 202.939 1.42772 -0.848848 0
M  V30 2163 O 204.124 1.55132 -1.11079 0
M  V30 2164 C 201.264 2.51231 -2.36594 0
M  V30 2165 C 200.377 2.33991 -3.63142 0
M  V30 2166 C 199.512 3.59902 -3.90697 0
M  V30 2167 C 198.551 3.37692 -5.1052 0
M  V30 2168 N 197.688 4.5573 -5.34092 0
M  V30 2169 H 202.528 0.82467 -2.86362 0
M  V30 2170 H 200.065 0.395756 -1.41676 0
M  V30 2171 H 202.023 3.28713 -2.56912 0
M  V30 2172 H 200.653 2.85059 -1.51463 0
M  V30 2173 H 199.705 1.47572 -3.50609 0
M  V30 2174 H 201.017 2.13539 -4.5078 0
M  V30 2175 H 200.171 4.45813 -4.11505 0
M  V30 2176 H 198.91 3.83357 -3.01477 0
M  V30 2177 H 197.915 2.5017 -4.89587 0
M  V30 2178 H 199.14 3.15637 -6.0129 0
M  V30 2179 H 197.086 4.79361 -4.47827 0
M  V30 2180 H 197.003 4.38274 -6.15996 0
M  V30 2181 H 198.271 5.42858 -5.59397 0
M  V30 2182 N 202.5 1.5196 0.417844 0
M  V30 2183 C 203.43 1.77634 1.51554 0
M  V30 2184 C 204.411 0.626918 1.58126 0
M  V30 2185 O 205.596 0.871632 1.7354 0
M  V30 2186 C 202.726 1.91911 2.8946 0
M  V30 2187 C 201.68 3.07463 2.97743 0
M  V30 2188 C 201.006 3.06951 4.37819 0
M  V30 2189 C 202.306 4.47082 2.70027 0
M  V30 2190 H 204 2.6955 1.3032 0
M  V30 2191 H 201.546 1.29706 0.625492 0
M  V30 2192 H 203.499 2.08455 3.6623 0
M  V30 2193 H 202.223 0.966598 3.11969 0
M  V30 2194 H 200.882 2.90656 2.23416 0
M  V30 2195 H 200.53 2.09438 4.57323 0
M  V30 2196 H 200.23 3.84556 4.44286 0
M  V30 2197 H 201.754 3.25613 5.16535 0
M  V30 2198 H 203.168 4.6414 3.36522 0
M  V30 2199 H 201.565 5.2654 2.87881 0
M  V30 2200 H 202.635 4.55777 1.65514 0
M  V30 2201 N 203.978 -0.674533 1.42435 0
M  V30 2202 C 204.926 -1.80934 1.46169 0
M  V30 2203 C 205.92 -1.66006 0.3374 0
M  V30 2204 O 207.126 -1.72611 0.510425 0
M  V30 2205 H 203.501 -0.596594 0.457798 0
M  V30 2206 H 205.472 -1.74903 2.41767 0
M  V30 2207 C 204.221 -3.19088 1.38123 0
M  V30 2208 H 203.544 -3.31203 2.23931 0
M  V30 2209 H 204.984 -3.9851 1.44797 0
M  V30 2210 C 203.443 -3.36763 0.0960517 0
M  V30 2211 O 203.973 -3.92581 -0.851073 0
M  V30 2212 N 202.179 -2.90597 0.0131186 0
M  V30 2213 H 201.726 -2.45359 0.784639 0
M  V30 2214 H 201.684 -3.028 -0.846133 0
M  V30 2215 N 205.456 -1.28612 -0.910864 0
M  V30 2216 C 206.702 -1.16106 -1.66274 0
M  V30 2217 C 207.035 0.289113 -1.92036 0
M  V30 2218 O 206.31 1.21 -1.52281 0
M  V30 2219 C 206.593 -1.96309 -3.01885 0
M  V30 2220 C 206.446 -3.49405 -2.8326 0
M  V30 2221 C 207.765 -1.78076 -4.02463 0
M  V30 2222 H 204.884 -0.423152 -0.603417 0
M  V30 2223 H 207.526 -1.57961 -1.05586 0
M  V30 2224 H 205.676 -1.60742 -3.53687 0
M  V30 2225 H 207.348 -3.94894 -2.38446 0
M  V30 2226 H 205.591 -3.74893 -2.18261 0
M  V30 2227 H 206.262 -4.00784 -3.79574 0
M  V30 2228 H 208.738 -2.0912 -3.59733 0
M  V30 2229 H 207.614 -2.36561 -4.95308 0
M  V30 2230 H 207.875 -0.733008 -4.35981 0
M  V30 2231 N 206.934 1.1197 -1.10907 0
M  V30 2232 C 208.159 1.87942 -0.877064 0
M  V30 2233 C 208.584 1.79341 0.567314 0
M  V30 2234 O 207.942 1.15184 1.40009 0
M  V30 2235 C 207.99 3.34926 -1.33629 0
M  V30 2236 O 207.094 4.09303 -0.504447 0
M  V30 2237 H 206.435 0.583785 -0.316371 0
M  V30 2238 H 208.965 1.4157 -1.47712 0
M  V30 2239 H 208.975 3.8577 -1.32837 0
M  V30 2240 H 207.65 3.40504 -2.3881 0
M  V30 2241 H 206.227 3.68393 -0.577993 0
M  V30 2242 N 208.412 0.89855 1.29475 0
M  V30 2243 C 209.322 0.379974 2.31502 0
M  V30 2244 C 210.338 -0.524695 1.659 0
M  V30 2245 O 211.514 -0.414551 1.97087 0
M  V30 2246 C 208.579 -0.385138 3.44554 0
M  V30 2247 C 207.64 0.550914 4.2575 0
M  V30 2248 C 206.873 -0.177778 5.33404 0
M  V30 2249 O 207.096 -1.40189 5.52904 0
M  V30 2250 O 206.03 0.479106 5.9999 0
M  V30 2251 H 209.856 1.22639 2.77837 0
M  V30 2252 H 207.441 0.662834 1.33891 0
M  V30 2253 H 209.323 -0.817841 4.13388 0
M  V30 2254 H 207.998 -1.20763 3.0033 0
M  V30 2255 H 206.905 1.03271 3.59564 0
M  V30 2256 H 208.238 1.33979 4.73614 0
M  V30 2257 N 209.89 -1.43072 0.660911 0
M  V30 2258 C 211.136 -2.0202 0.177708 0
M  V30 2259 C 211.469 -1.52066 -1.20787 0
M  V30 2260 O 210.744 -0.716987 -1.80802 0
M  V30 2261 C 211.027 -3.59561 0.197019 0
M  V30 2262 C 210.88 -4.19727 1.61706 0
M  V30 2263 C 212.199 -4.37664 -0.462396 0
M  V30 2264 H 209.318 -0.734034 0.0660494 0
M  V30 2265 H 211.96 -1.70272 0.843058 0
M  V30 2266 H 210.11 -3.86739 -0.369527 0
M  V30 2267 H 211.782 -4.03553 2.23479 0
M  V30 2268 H 210.025 -3.76084 2.16201 0
M  V30 2269 H 210.696 -5.28834 1.58237 0
M  V30 2270 H 213.172 -4.16095 0.0197215 0
M  V30 2271 H 212.048 -5.47305 -0.418188 0
M  V30 2272 H 212.309 -4.14493 -1.53778 0
M  V30 2273 N 211.368 -0.403325 -1.52352 0
M  V30 2274 C 212.596 0.174012 -2.06167 0
M  V30 2275 C 213.011 1.39347 -1.27388 0
M  V30 2276 O 212.368 1.79597 -0.324201 0
M  V30 2277 C 212.419 0.530223 -3.5759 0
M  V30 2278 O 212.14 -0.640806 -4.33388 0
M  V30 2279 C 213.641 1.16192 -4.27802 0
M  V30 2280 H 210.861 0.0229464 -0.670608 0
M  V30 2281 H 213.405 -0.572604 -1.9632 0
M  V30 2282 H 211.56 1.22673 -3.67464 0
M  V30 2283 H 211.974 -0.344851 -5.23365 0
M  V30 2284 H 213.448 1.36141 -5.34948 0
M  V30 2285 H 213.925 2.13335 -3.83907 0
M  V30 2286 H 214.531 0.505775 -4.22282 0
M  V30 2287 N 212.846 1.57033 -0.133567 0
M  V30 2288 C 213.776 2.1909 0.807567 0
M  V30 2289 C 214.757 1.13517 1.26681 0
M  V30 2290 O 215.942 1.41809 1.32679 0
M  V30 2291 C 213.072 2.80188 2.05212 0
M  V30 2292 C 212.026 3.91471 1.73015 0
M  V30 2293 C 211.352 4.39443 3.04622 0
M  V30 2294 C 212.652 5.12886 0.987168 0
M  V30 2295 H 214.346 2.97988 0.290403 0
M  V30 2296 H 211.892 1.43335 0.138239 0
M  V30 2297 H 213.845 3.22264 2.71521 0
M  V30 2298 H 212.569 1.98601 2.59278 0
M  V30 2299 H 211.228 3.49993 1.0909 0
M  V30 2300 H 210.876 3.54695 3.56651 0
M  V30 2301 H 210.576 5.14495 2.83847 0
M  V30 2302 H 212.1 4.8418 3.72024 0
M  V30 2303 H 213.514 5.51891 1.55208 0
M  V30 2304 H 211.911 5.93615 0.87985 0
M  V30 2305 H 212.981 4.84894 -0.0235286 0
M  V30 2306 N 214.325 -0.140222 1.56975 0
M  V30 2307 C 215.235 -1.19223 2.02047 0
M  V30 2308 C 216.251 -1.46612 0.937062 0
M  V30 2309 O 217.427 -1.58148 1.24704 0
M  V30 2310 C 214.492 -2.50414 2.39778 0
M  V30 2311 C 213.553 -2.30612 3.621 0
M  V30 2312 C 212.786 -3.55547 3.98023 0
M  V30 2313 O 213.009 -4.62004 3.34528 0
M  V30 2314 O 211.943 -3.47808 4.91237 0
M  V30 2315 H 215.769 -0.839559 2.91865 0
M  V30 2316 H 213.354 -0.349453 1.45256 0
M  V30 2317 H 215.236 -3.27747 2.64877 0
M  V30 2318 H 213.911 -2.85198 1.53114 0
M  V30 2319 H 212.818 -1.51207 3.4218 0
M  V30 2320 H 214.151 -2.00741 4.49404 0
M  V30 2321 N 215.803 -1.52179 -0.40978 0
M  V30 2322 C 216.733 -1.78435 -1.5061 0
M  V30 2323 C 217.714 -0.635295 -1.57791 0
M  V30 2324 O 218.899 -0.880823 -1.73076 0
M  V30 2325 C 216.029 -1.93444 -2.88439 0
M  V30 2326 C 214.983 -3.09038 -2.96108 0
M  V30 2327 C 214.309 -3.09268 -4.36185 0
M  V30 2328 C 215.609 -4.48508 -2.67652 0
M  V30 2329 H 217.303 -2.70237 -1.28889 0
M  V30 2330 H 214.849 -1.30036 -0.618605 0
M  V30 2331 H 216.802 -2.10394 -3.65119 0
M  V30 2332 H 215.526 -0.983129 -3.11452 0
M  V30 2333 H 214.185 -2.91837 -2.21872 0
M  V30 2334 H 213.833 -2.11861 -4.56206 0
M  V30 2335 H 213.533 -3.86907 -4.42241 0
M  V30 2336 H 215.057 -3.28348 -5.14801 0
M  V30 2337 H 216.471 -4.65918 -3.34056 0
M  V30 2338 H 214.868 -5.28059 -2.85085 0
M  V30 2339 H 215.938 -4.56649 -1.63095 0
M  V30 2340 N 217.281 0.66697 -1.42791 0
M  V30 2341 C 218.511 1.45294 -1.46878 0
M  V30 2342 C 218.919 1.89027 -0.0809861 0
M  V30 2343 O 218.262 1.59219 0.916246 0
M  V30 2344 C 218.324 2.72908 -2.34012 0
M  V30 2345 C 217.988 2.51203 -3.81767 0
M  V30 2346 C 218.985 2.15302 -4.73224 0
M  V30 2347 C 216.67 2.65954 -4.26115 0
M  V30 2348 C 218.664 1.94431 -6.07022 0
M  V30 2349 C 216.351 2.44699 -5.59969 0
M  V30 2350 C 217.349 2.08992 -6.5024 0
M  V30 2351 O 217.037 1.87948 -7.81621 0
M  V30 2352 H 216.769 0.453306 -0.501487 0
M  V30 2353 H 219.323 0.826232 -1.88049 0
M  V30 2354 H 217.553 3.38089 -1.87703 0
M  V30 2355 H 219.242 3.34816 -2.29462 0
M  V30 2356 H 220.008 2.03495 -4.40244 0
M  V30 2357 H 215.887 2.92724 -3.56137 0
M  V30 2358 H 219.431 1.66484 -6.77443 0
M  V30 2359 H 215.328 2.56105 -5.9252 0
M  V30 2360 H 216.096 2.02483 -7.93059 0
M  V30 2361 N 218.759 1.29093 0.90403 0
M  V30 2362 C 219.989 1.19516 1.68522 0
M  V30 2363 C 220.397 -0.24738 1.87576 0
M  V30 2364 O 219.74 -1.17798 1.40959 0
M  V30 2365 C 219.802 1.83249 3.0929 0
M  V30 2366 C 219.466 3.32531 3.13484 0
M  V30 2367 C 220.463 4.28821 2.93953 0
M  V30 2368 C 218.148 3.73656 3.35688 0
M  V30 2369 C 220.142 5.64212 2.96553 0
M  V30 2370 C 217.829 5.0917 3.37919 0
M  V30 2371 C 218.827 6.04258 3.18373 0
M  V30 2372 O 218.515 7.37298 3.20385 0
M  V30 2373 H 218.247 0.415467 0.533257 0
M  V30 2374 H 220.801 1.70912 1.13922 0
M  V30 2375 H 219.031 1.26358 3.65473 0
M  V30 2376 H 220.72 1.68054 3.69476 0
M  V30 2377 H 221.486 3.98382 2.76616 0
M  V30 2378 H 217.365 3.00101 3.49943 0
M  V30 2379 H 220.909 6.38407 2.81216 0
M  V30 2380 H 216.806 5.39256 3.54787 0
M  V30 2381 H 217.574 7.46048 3.36681 0
M  V30 2382 N 220.237 -1.11381 1.11499 0
M  V30 2383 C 221.147 -2.21019 0.786628 0
M  V30 2384 C 222.163 -1.72597 -0.220507 0
M  V30 2385 O 223.339 -2.01321 -0.0565251 0
M  V30 2386 C 220.404 -3.459 0.235333 0
M  V30 2387 C 219.465 -4.09107 1.30115 0
M  V30 2388 C 218.698 -5.28027 0.776068 0
M  V30 2389 O 218.921 -5.6904 -0.393661 0
M  V30 2390 O 217.855 -5.81835 1.54114 0
M  V30 2391 H 221.681 -2.51521 1.70209 0
M  V30 2392 H 219.266 -1.19928 0.890928 0
M  V30 2393 H 221.148 -4.21346 -0.067715 0
M  V30 2394 H 219.823 -3.17049 -0.652828 0
M  V30 2395 H 218.73 -3.35391 1.65722 0
M  V30 2396 H 220.063 -4.42139 2.16273 0
M  V30 2397 N 221.715 -0.905404 -1.28997 0
M  V30 2398 C 222.662 -0.385892 -2.27551 0
M  V30 2399 C 223.632 0.535113 -1.57244 0
M  V30 2400 O 224.817 0.459119 -1.85194 0
M  V30 2401 C 221.957 0.375461 -3.43051 0
M  V30 2402 C 221.07 -0.577092 -4.28128 0
M  V30 2403 C 220.205 0.201879 -5.30816 0
M  V30 2404 C 219.244 -0.744829 -6.07551 0
M  V30 2405 N 218.381 9.42587e-05 -7.021 0
M  V30 2406 H 223.221 -1.23139 -2.71368 0
M  V30 2407 H 220.758 -0.618542 -1.33463 0
M  V30 2408 H 222.716 0.832992 -4.088 0
M  V30 2409 H 221.346 1.18537 -3.00248 0
M  V30 2410 H 220.398 -1.15315 -3.62501 0
M  V30 2411 H 221.71 -1.30152 -4.8152 0
M  V30 2412 H 220.864 0.720351 -6.02408 0
M  V30 2413 H 219.603 0.959413 -4.7817 0
M  V30 2414 H 218.608 -1.27475 -5.34818 0
M  V30 2415 H 219.833 -1.50178 -6.62286 0
M  V30 2416 H 217.779 0.739791 -6.51815 0
M  V30 2417 H 217.696 -0.664321 -7.53076 0
M  V30 2418 H 218.964 0.498644 -7.77903 0
M  V30 2419 N 223.193 1.4272 -0.668489 0
M  V30 2420 C 224.441 2.01226 -0.187769 0
M  V30 2421 C 224.762 1.53092 1.2078 0
M  V30 2422 O 224.032 0.74993 1.80977 0
M  V30 2423 H 222.612 0.744041 -0.0664272 0
M  V30 2424 H 225.274 1.74723 -0.863583 0
M  V30 2425 H 224.37 3.11556 -0.184166 0
M  V30 2426 N 224.671 0.411399 1.52136 0
M  V30 2427 C 225.899 -0.163076 2.06256 0
M  V30 2428 C 226.314 -1.3867 1.28125 0
M  V30 2429 O 225.671 -1.79423 0.333721 0
M  V30 2430 C 225.722 -0.511252 3.57867 0
M  V30 2431 O 225.443 0.66378 4.33042 0
M  V30 2432 C 226.944 -1.13921 4.28412 0
M  V30 2433 H 224.164 -0.0193897 0.67072 0
M  V30 2434 H 226.708 0.583007 1.96013 0
M  V30 2435 H 224.863 -1.20723 3.6811 0
M  V30 2436 H 225.277 0.372601 5.23175 0
M  V30 2437 H 226.751 -1.33302 5.35663 0
M  V30 2438 H 227.228 -2.11296 3.85033 0
M  V30 2439 H 227.834 -0.483373 4.22544 0
M  V30 2440 N 226.149 -1.5696 0.141893 0
M  V30 2441 C 227.397 -1.95573 -0.509484 0
M  V30 2442 C 227.718 -1.02746 -1.65736 0
M  V30 2443 O 226.988 -0.0880311 -1.95702 0
M  V30 2444 H 225.568 -0.722115 -0.191205 0
M  V30 2445 H 228.23 -1.93697 0.216196 0
M  V30 2446 H 227.326 -2.99171 -0.889 0
M  V30 2447 N 227.627 0.131896 -1.57047 0
M  V30 2448 C 228.852 0.860418 -1.8871 0
M  V30 2449 C 229.277 1.73251 -0.73251 0
M  V30 2450 O 228.635 1.785 0.317429 0
M  V30 2451 C 228.683 1.68047 -3.19049 0
M  V30 2452 O 227.787 2.7862 -3.04047 0
M  V30 2453 H 227.128 0.238743 -0.619595 0
M  V30 2454 H 229.658 0.118169 -2.04258 0
M  V30 2455 H 229.668 2.07238 -3.51449 0
M  V30 2456 H 228.343 1.04018 -4.02682 0
M  V30 2457 H 226.92 2.42726 -2.83088 0
M  V30 2458 N 229.106 1.52395 0.401703 0
M  V30 2459 C 230.069 1.75636 1.47257 0
M  V30 2460 C 231.069 0.62628 1.48103 0
M  V30 2461 O 232.259 0.894227 1.49497 0
M  V30 2462 C 229.391 1.84553 2.86624 0
M  V30 2463 H 230.584 2.71241 1.27938 0
M  V30 2464 H 228.137 1.42923 0.632662 0
M  V30 2465 H 228.872 0.908882 3.11303 0
M  V30 2466 H 228.657 2.66715 2.87412 0
M  V30 2467 H 230.147 2.04251 3.64241 0
M  V30 2468 N 230.584 -0.659388 1.43143 0
M  V30 2469 C 231.812 -1.44723 1.47861 0
M  V30 2470 C 232.227 -1.88563 0.0945886 0
M  V30 2471 O 231.584 -1.59108 -0.893915 0
M  V30 2472 C 231.635 -2.68627 2.41913 0
M  V30 2473 O 231.356 -2.26623 3.74932 0
M  V30 2474 C 232.857 -3.62045 2.55809 0
M  V30 2475 H 230.077 -0.444801 0.502387 0
M  V30 2476 H 232.621 -0.808916 1.87821 0
M  V30 2477 H 230.776 -3.28613 2.05164 0
M  V30 2478 H 231.19 -3.06745 4.2545 0
M  V30 2479 H 232.664 -4.45666 3.25708 0
M  V30 2480 H 233.141 -4.08981 1.60099 0
M  V30 2481 H 233.747 -3.07944 2.93344 0
M  V30 2482 N 232.062 -1.29571 -0.897171 0
M  V30 2483 C 233.309 -1.17689 -1.6479 0
M  V30 2484 C 233.637 0.27107 -1.92602 0
M  V30 2485 O 232.892 1.21193 -1.53658 0
M  V30 2486 C 233.191 -1.9382 -3.00281 0
M  V30 2487 C 232.857 -3.43522 -2.92068 0
M  V30 2488 C 231.519 -3.84348 -2.89535 0
M  V30 2489 C 233.871 -4.38906 -2.81089 0
M  V30 2490 C 231.199 -5.18869 -2.73846 0
M  V30 2491 C 233.551 -5.73521 -2.66939 0
M  V30 2492 C 232.215 -6.13601 -2.62774 0
M  V30 2493 H 231.485 -0.430654 -0.603008 0
M  V30 2494 H 234.132 -1.60536 -1.04404 0
M  V30 2495 H 232.437 -1.4357 -3.64547 0
M  V30 2496 H 234.134 -1.82028 -3.57305 0
M  V30 2497 H 230.724 -3.11072 -2.94842 0
M  V30 2498 H 234.908 -4.08315 -2.82121 0
M  V30 2499 H 230.164 -5.4903 -2.69027 0
M  V30 2500 H 234.338 -6.47078 -2.57416 0
M  V30 2501 H 231.965 -7.17786 -2.50375 0
M  V30 2502 N 233.54 1.10788 -1.12088 0
M  V30 2503 C 234.817 1.79136 -0.785476 0
M  V30 2504 C 235.197 1.98246 0.725377 0
M  V30 2505 O 234.545 1.57258 1.65778 0
M  V30 2506 C 234.755 3.12375 -1.55636 0
M  V30 2507 C 236.103 3.8731 -1.74001 0
M  V30 2508 O 237.127 3.22085 -1.52117 0
M  V30 2509 O 235.986 5.04369 -2.10415 0
M  V30 2510 H 233.08 0.776226 -0.285311 0
M  V30 2511 H 235.626 1.1747 -1.2247 0
M  V30 2512 H 234.398 2.93863 -2.5838 0
M  V30 2513 H 234.021 3.81758 -1.11114 0
M  V30 2514 N 235.018 0.912232 1.28515 0
M  V30 2515 C 235.966 0.389597 2.29314 0
M  V30 2516 C 236.96 -0.517915 1.61289 0
M  V30 2517 O 238.166 -0.399328 1.75515 0
M  V30 2518 H 234.541 0.107386 0.744293 0
M  V30 2519 H 236.512 1.25286 2.70825 0
M  V30 2520 C 235.261 -0.356496 3.45868 0
M  V30 2521 H 234.584 0.332608 3.98414 0
M  V30 2522 H 236.024 -0.686851 4.184 0
M  V30 2523 C 234.483 -1.56383 2.98406 0
M  V30 2524 O 235.013 -2.66294 3.00749 0
M  V30 2525 N 233.219 -1.41029 2.54085 0
M  V30 2526 H 232.766 -0.516089 2.52377 0
M  V30 2527 H 232.724 -2.21939 2.22689 0
M  V30 2528 N 236.496 -1.42363 0.676048 0
M  V30 2529 C 237.745 -2.00745 0.196037 0
M  V30 2530 C 238.058 -1.54083 -1.20489 0
M  V30 2531 O 239.264 -2.04891 -1.78134 0
M  V30 2532 C 237.72 -3.58651 0.299616 0
M  V30 2533 C 237.328 -4.143 1.70468 0
M  V30 2534 C 239.072 -4.24326 -0.121619 0
M  V30 2535 C 236.979 -5.64574 1.76096 0
M  V30 2536 H 235.909 -0.750787 0.0695301 0
M  V30 2537 H 238.56 -1.63072 0.841412 0
M  V30 2538 H 236.942 -3.93833 -0.413673 0
M  V30 2539 H 238.116 -3.90575 2.44515 0
M  V30 2540 H 236.431 -3.61081 2.07387 0
M  V30 2541 H 239.028 -5.34607 -0.0997362 0
M  V30 2542 H 239.371 -3.99897 -1.15708 0
M  V30 2543 H 239.904 -3.94108 0.540706 0
M  V30 2544 H 236.643 -5.93804 2.77628 0
M  V30 2545 H 236.163 -5.90286 1.06406 0
M  V30 2546 H 237.842 -6.29013 1.51496 0
M  V30 2547 N 237.974 -0.419461 -1.51915 0
M  V30 2548 C 239.199 0.154572 -2.06823 0
M  V30 2549 C 239.624 1.3722 -1.28656 0
M  V30 2550 O 238.982 1.78461 -0.319583 0
M  V30 2551 C 239.03 0.473172 -3.57482 0
M  V30 2552 O 238.134 1.56255 -3.81652 0
M  V30 2553 H 237.475 0.0096924 -0.663929 0
M  V30 2554 H 240.005 -0.595642 -1.95738 0
M  V30 2555 H 240.015 0.728825 -4.01438 0
M  V30 2556 H 238.69 -0.416873 -4.13805 0
M  V30 2557 H 237.267 1.29825 -3.49571 0
M  V30 2558 N 239.452 1.56882 -0.150215 0
M  V30 2559 C 240.385 2.12712 0.826358 0
M  V30 2560 C 241.363 1.05154 1.24022 0
M  V30 2561 O 242.547 1.33004 1.33575 0
M  V30 2562 C 239.674 2.64945 2.11002 0
M  V30 2563 C 238.72 3.8468 1.84183 0
M  V30 2564 S 239.553 5.25502 1.02995 0
M  V30 2565 C 240.709 5.81125 2.32474 0
M  V30 2566 H 240.942 2.95214 0.351598 0
M  V30 2567 H 238.475 1.54267 0.0641211 0
M  V30 2568 H 240.433 2.95689 2.84742 0
M  V30 2569 H 239.094 1.82568 2.55593 0
M  V30 2570 H 238.287 4.19482 2.79375 0
M  V30 2571 H 237.889 3.54714 1.1855 0
M  V30 2572 H 240.181 5.92753 3.281 0
M  V30 2573 H 241.124 6.78625 2.02171 0
M  V30 2574 H 241.532 5.09392 2.43269 0
M  V30 2575 N 240.93 -0.123565 1.57115 0
M  V30 2576 C 241.877 -1.15177 2.00007 0
M  V30 2577 C 242.847 -1.41403 0.871454 0
M  V30 2578 O 244.032 -1.53346 1.13533 0
M  V30 2579 C 241.172 -2.47436 2.40561 0
M  V30 2580 C 240.285 -2.28184 3.66819 0
M  V30 2581 C 239.42 -3.53641 3.96373 0
M  V30 2582 C 238.459 -3.29528 5.15827 0
M  V30 2583 N 237.596 -4.47175 5.41275 0
M  V30 2584 H 242.436 -0.779008 2.87638 0
M  V30 2585 H 239.973 -0.373166 1.42288 0
M  V30 2586 H 241.931 -3.24584 2.62109 0
M  V30 2587 H 240.561 -2.82614 1.55978 0
M  V30 2588 H 239.613 -1.41976 3.52912 0
M  V30 2589 H 240.925 -2.0634 4.5412 0
M  V30 2590 H 240.079 -4.39209 4.18545 0
M  V30 2591 H 238.818 -3.78512 3.07538 0
M  V30 2592 H 237.823 -2.42349 4.93505 0
M  V30 2593 H 239.048 -3.06031 6.06236 0
M  V30 2594 H 236.994 -4.72175 4.55397 0
M  V30 2595 H 236.911 -4.28419 6.22891 0
M  V30 2596 H 238.179 -5.3389 5.67963 0
M  V30 2597 N 242.408 -1.52605 -0.393616 0
M  V30 2598 C 243.371 -1.76415 -1.46323 0
M  V30 2599 C 244.371 -0.634126 -1.47768 0
M  V30 2600 O 245.561 -0.902142 -1.4902 0
M  V30 2601 C 242.693 -1.8607 -2.85641 0
M  V30 2602 H 243.886 -2.71916 -1.26498 0
M  V30 2603 H 241.439 -1.43257 -0.625073 0
M  V30 2604 H 242.174 -0.925378 -3.10817 0
M  V30 2605 H 241.959 -2.68235 -2.85993 0
M  V30 2606 H 243.449 -2.06179 -3.63153 0
M  V30 2607 N 243.887 0.651787 -1.4349 0
M  V30 2608 C 244.834 1.76462 -1.4876 0
M  V30 2609 C 245.804 1.62641 -0.337189 0
M  V30 2610 O 246.989 1.82864 -0.544544 0
M  V30 2611 C 244.129 3.14623 -1.41796 0
M  V30 2612 C 243.242 3.39568 -2.67053 0
M  V30 2613 C 242.377 4.67585 -2.52068 0
M  V30 2614 C 241.416 4.85639 -3.72587 0
M  V30 2615 N 240.553 6.04915 -3.56402 0
M  V30 2616 H 245.393 1.71293 -2.43849 0
M  V30 2617 H 242.93 0.835889 -1.21043 0
M  V30 2618 H 244.888 3.94496 -1.35753 0
M  V30 2619 H 243.518 3.18859 -0.50288 0
M  V30 2620 H 242.57 2.53783 -2.8337 0
M  V30 2621 H 243.882 3.48795 -3.56572 0
M  V30 2622 H 243.036 5.55586 -2.4374 0
M  V30 2623 H 241.775 4.60681 -1.60075 0
M  V30 2624 H 240.78 3.96073 -3.81321 0
M  V30 2625 H 242.005 4.94372 -4.65589 0
M  V30 2626 H 239.951 5.9914 -2.67146 0
M  V30 2627 H 239.868 6.15106 -4.39524 0
M  V30 2628 H 241.136 6.95533 -3.51929 0
M  V30 2629 N 245.365 1.30045 0.890287 0
M  V30 2630 C 246.613 1.18327 1.63839 0
M  V30 2631 C 246.934 -0.263455 1.93212 0
M  V30 2632 O 246.204 -1.17856 1.56482 0
M  V30 2633 H 244.784 0.434933 0.607324 0
M  V30 2634 H 247.446 1.631 1.06698 0
M  V30 2635 H 246.542 1.74024 2.59079 0
M  V30 2636 N 246.843 -1.10192 1.12674 0
M  V30 2637 C 248.254 -1.63707 0.897604 0
M  V30 2638 C 248.605 -1.87812 -0.567546 0
M  V30 2639 O 247.73 -1.62196 -1.43253 0
M  V30 2640 C 248.325 -2.974 1.62292 0
M  V30 2641 C 246.884 -3.47772 1.43986 0
M  V30 2642 C 246.031 -2.22332 1.65722 0
M  V30 2643 H 248.982 -0.936587 1.28116 0
M  V30 2644 H 249.003 -3.64986 1.07541 0
M  V30 2645 H 248.515 -2.79824 2.68924 0
M  V30 2646 H 246.616 -3.70487 0.396206 0
M  V30 2647 H 246.729 -4.25723 2.19765 0
M  V30 2648 H 245.093 -2.30599 1.08149 0
M  V30 2649 H 245.876 -2.07285 2.73657 0
M  V30 2650 N 248.321 -0.919034 -1.28029 0
M  V30 2651 C 249.268 -0.410005 -2.27129 0
M  V30 2652 C 250.238 0.518405 -1.57803 0
M  V30 2653 O 251.423 0.439451 -1.8567 0
M  V30 2654 C 248.563 0.339054 -3.4343 0
M  V30 2655 C 247.676 -0.622468 -4.27492 0
M  V30 2656 C 246.811 0.145567 -5.31001 0
M  V30 2657 C 245.85 -0.809226 -6.06727 0
M  V30 2658 N 244.987 -0.0743728 -7.02061 0
M  V30 2659 H 249.827 -1.26011 -2.70047 0
M  V30 2660 H 247.364 -0.632663 -1.328 0
M  V30 2661 H 249.322 0.789586 -4.0966 0
M  V30 2662 H 247.952 1.15346 -3.01488 0
M  V30 2663 H 247.004 -1.19153 -3.61257 0
M  V30 2664 H 248.316 -1.35252 -4.80113 0
M  V30 2665 H 247.47 0.656417 -6.03139 0
M  V30 2666 H 246.209 0.908643 -4.79161 0
M  V30 2667 H 245.214 -1.3314 -5.33436 0
M  V30 2668 H 246.439 -1.57194 -6.60656 0
M  V30 2669 H 244.385 0.670616 -6.52563 0
M  V30 2670 H 244.302 -0.744157 -7.52329 0
M  V30 2671 H 245.57 0.416109 -7.78389 0
M  V30 2672 N 249.799 1.42003 -0.683588 0
M  V30 2673 C 251.076 1.95112 -0.138075 0
M  V30 2674 C 251.456 1.62359 1.34918 0
M  V30 2675 O 250.804 0.924311 2.08971 0
M  V30 2676 C 251.014 3.46505 -0.416581 0
M  V30 2677 C 252.362 4.23254 -0.337834 0
M  V30 2678 O 253.386 3.54468 -0.35082 0
M  V30 2679 O 252.245 5.45743 -0.287596 0
M  V30 2680 H 249.339 0.826961 -0.00797996 0
M  V30 2681 H 251.885 1.51784 -0.758924 0
M  V30 2682 H 250.657 3.63582 -1.4465 0
M  V30 2683 H 250.28 3.969 0.235839 0
M  V30 2684 N 251.277 0.427512 1.51691 0
M  V30 2685 C 252.502 -0.143601 2.06902 0
M  V30 2686 C 252.927 -1.36536 1.29382 0
M  V30 2687 O 252.285 -1.78289 0.329043 0
M  V30 2688 C 252.333 -0.454207 3.57728 0
M  V30 2689 O 251.437 -1.54228 3.82475 0
M  V30 2690 H 250.778 -0.00617128 0.663971 0
M  V30 2691 H 253.308 0.606014 1.95419 0
M  V30 2692 H 253.318 -0.707525 4.01818 0
M  V30 2693 H 251.993 0.438812 4.13579 0
M  V30 2694 H 250.57 -1.2797 3.50254 0
M  V30 2695 N 252.755 -1.56801 0.158532 0
M  V30 2696 C 253.665 -2.20916 -0.789518 0
M  V30 2697 C 254.681 -1.1969 -1.26294 0
M  V30 2698 O 255.857 -1.52308 -1.31773 0
M  V30 2699 C 252.922 -2.82727 -2.00665 0
M  V30 2700 C 251.983 -3.99114 -1.58134 0
M  V30 2701 C 251.216 -4.57968 -2.74045 0
M  V30 2702 O 251.439 -4.15704 -3.90572 0
M  V30 2703 O 250.373 -5.48047 -2.48855 0
M  V30 2704 H 254.199 -3.02464 -0.273681 0
M  V30 2705 H 251.784 -1.4924 -0.0690548 0
M  V30 2706 H 253.666 -3.21968 -2.71872 0
M  V30 2707 H 252.341 -2.04184 -2.51179 0
M  V30 2708 H 251.248 -3.64567 -0.839155 0
M  V30 2709 H 252.581 -4.79212 -1.12325 0
M  V30 2710 N 254.233 0.115231 -1.57178 0
M  V30 2711 C 255.183 1.14707 -1.97044 0
M  V30 2712 C 256.167 1.36866 -0.845957 0
M  V30 2713 O 257.359 1.37895 -1.10968 0
M  V30 2714 C 254.488 2.47266 -2.38148 0
M  V30 2715 C 253.574 2.28566 -3.57237 0
M  V30 2716 N 253.965 1.79685 -4.72807 0
M  V30 2717 C 252.263 2.59208 -3.62943 0
M  V30 2718 C 252.964 1.74781 -5.54821 0
M  V30 2719 N 251.94 2.19264 -4.97417 0
M  V30 2720 H 255.742 0.761754 -2.83857 0
M  V30 2721 H 253.256 0.322928 -1.59157 0
M  V30 2722 H 255.253 3.219 -2.64927 0
M  V30 2723 H 253.913 2.86552 -1.52702 0
M  V30 2724 H 254.924 1.49177 -4.9595 0
M  V30 2725 H 251.601 3.02154 -2.88113 0
M  V30 2726 H 252.991 1.38212 -6.57531 0
M  V30 2727 N 255.711 1.52812 0.385517 0
M  V30 2728 C 257.122 1.5993 0.963293 0
M  V30 2729 C 257.473 0.454302 1.90868 0
M  V30 2730 O 256.598 -0.422132 2.12243 0
M  V30 2731 C 257.193 2.89871 1.75387 0
M  V30 2732 C 255.752 2.99389 2.28129 0
M  V30 2733 C 254.899 2.55071 1.08783 0
M  V30 2734 H 257.85 1.5784 0.164948 0
M  V30 2735 H 257.871 2.76553 2.61341 0
M  V30 2736 H 257.383 3.73186 1.06554 0
M  V30 2737 H 255.484 2.20619 3.00263 0
M  V30 2738 H 255.597 4.04096 2.57377 0
M  V30 2739 H 253.961 2.09473 1.4489 0
M  V30 2740 H 254.744 3.40785 0.414807 0
M  V30 2741 N 257.189 -0.644168 1.43834 0
M  V30 2742 C 258.121 -1.76955 1.45669 0
M  V30 2743 C 259.134 -1.58956 0.351666 0
M  V30 2744 O 260.323 -1.6751 0.616644 0
M  V30 2745 C 257.423 -3.14507 1.26248 0
M  V30 2746 C 256.596 -3.59083 2.49757 0
M  V30 2747 C 255.655 -4.75467 2.25427 0
M  V30 2748 O 254.681 -4.84444 2.98836 0
M  V30 2749 N 255.883 -5.66289 1.27661 0
M  V30 2750 H 258.648 -1.75856 2.42682 0
M  V30 2751 H 256.209 -0.828312 1.39106 0
M  V30 2752 H 258.201 -3.90067 1.0784 0
M  V30 2753 H 256.771 -3.10325 0.376478 0
M  V30 2754 H 255.991 -2.7387 2.8353 0
M  V30 2755 H 257.279 -3.85613 3.31934 0
M  V30 2756 H 256.677 -5.61718 0.670064 0
M  V30 2757 H 255.234 -6.41533 1.15234 0
M  V30 2758 N 258.668 -1.30515 -0.883378 0
M  V30 2759 C 260.079 -1.17509 -1.45081 0
M  V30 2760 C 260.43 0.223605 -1.94922 0
M  V30 2761 O 259.555 1.12041 -1.85137 0
M  V30 2762 C 260.15 -2.12715 -2.63701 0
M  V30 2763 C 258.709 -2.03682 -3.16529 0
M  V30 2764 C 257.856 -2.02706 -1.89224 0
M  V30 2765 H 260.807 -1.42762 -0.693165 0
M  V30 2766 H 260.828 -1.70891 -3.39965 0
M  V30 2767 H 260.34 -3.14505 -2.27395 0
M  V30 2768 H 258.441 -1.05039 -3.57488 0
M  V30 2769 H 258.554 -2.92146 -3.7972 0
M  V30 2770 H 256.918 -1.4753 -2.07622 0
M  V30 2771 H 257.701 -3.06229 -1.55174 0
M  V30 2772 N 260.146 1.09593 -1.13257 0
M  V30 2773 C 261.392 1.82003 -0.89458 0
M  V30 2774 C 261.725 1.85402 0.577906 0
M  V30 2775 O 261 1.32099 1.42759 0
M  V30 2776 C 261.283 3.28237 -1.48096 0
M  V30 2777 C 261.136 3.3312 -3.02244 0
M  V30 2778 C 262.455 4.24871 -1.14774 0
M  V30 2779 H 259.574 0.66077 -0.326424 0
M  V30 2780 H 262.216 1.28389 -1.40058 0
M  V30 2781 H 260.366 3.74024 -1.05062 0
M  V30 2782 H 262.038 2.95748 -3.54021 0
M  V30 2783 H 260.281 2.72756 -3.37323 0
M  V30 2784 H 260.952 4.3613 -3.38371 0
M  V30 2785 H 263.428 3.87361 -1.51957 0
M  V30 2786 H 262.304 5.25532 -1.58452 0
M  V30 2787 H 262.565 4.42058 -0.0611849 0
M  V30 2788 N 261.624 0.925811 1.2754 0
M  V30 2789 C 262.852 0.581509 1.9856 0
M  V30 2790 C 263.267 -0.840041 1.69082 0
M  V30 2791 O 262.624 -1.55805 0.950312 0
M  V30 2792 C 262.675 0.795589 3.52637 0
M  V30 2793 O 262.396 2.16121 3.81082 0
M  V30 2794 C 263.897 0.459744 4.4091 0
M  V30 2795 H 261.117 0.220538 0.633722 0
M  V30 2796 H 263.661 1.24232 1.6244 0
M  V30 2797 H 261.816 0.18161 3.86974 0
M  V30 2798 H 262.23 2.2098 4.75676 0
M  V30 2799 H 263.704 0.660244 5.48037 0
M  V30 2800 H 264.181 -0.604625 4.35018 0
M  V30 2801 H 264.787 1.05178 4.12089 0
M  V30 2802 N 263.102 -1.41638 0.69111 0
M  V30 2803 C 264.33 -2.05628 0.22909 0
M  V30 2804 C 264.745 -1.51992 -1.11999 0
M  V30 2805 O 264.102 -0.666322 -1.69901 0
M  V30 2806 C 264.153 -3.61084 0.173283 0
M  V30 2807 O 263.874 -4.12735 1.46907 0
M  V30 2808 C 265.375 -4.42213 -0.310266 0
M  V30 2809 H 262.595 -0.662327 0.107534 0
M  V30 2810 H 265.139 -1.81489 0.942438 0
M  V30 2811 H 263.294 -3.84278 -0.490858 0
M  V30 2812 H 263.708 -5.06743 1.35322 0
M  V30 2813 H 265.182 -5.51194 -0.298196 0
M  V30 2814 H 265.659 -4.1799 -1.34838 0
M  V30 2815 H 266.265 -4.24074 0.322716 0
M  V30 2816 N 264.58 -0.43555 -1.51462 0
M  V30 2817 C 265.512 0.41257 -2.25456 0
M  V30 2818 C 266.525 0.987822 -1.29406 0
M  V30 2819 O 267.714 0.882266 -1.55172 0
M  V30 2820 C 264.814 1.58894 -2.99342 0
M  V30 2821 C 263.987 1.13288 -4.22474 0
M  V30 2822 C 263.046 2.17917 -4.78956 0
M  V30 2823 O 262.072 1.77425 -5.40841 0
M  V30 2824 N 263.274 3.50382 -4.62832 0
M  V30 2825 H 266.039 -0.221603 -2.9888 0
M  V30 2826 H 263.6 -0.264342 -1.59727 0
M  V30 2827 H 265.592 2.28508 -3.34015 0
M  V30 2828 H 264.162 2.12849 -2.28941 0
M  V30 2829 H 263.382 0.263881 -3.93316 0
M  V30 2830 H 264.67 0.805542 -5.02383 0
M  V30 2831 H 264.068 3.86013 -4.13534 0
M  V30 2832 H 262.625 4.15895 -5.01871 0
M  V30 2833 N 266.058 1.56714 -0.166846 0
M  V30 2834 C 267.307 1.95922 0.479318 0
M  V30 2835 C 267.62 1.05529 1.6469 0
M  V30 2836 O 268.826 1.34399 2.35901 0
M  V30 2837 C 267.282 3.48359 0.90412 0
M  V30 2838 C 266.89 4.47369 -0.237621 0
M  V30 2839 C 268.634 3.96394 1.51896 0
M  V30 2840 C 266.541 5.91039 0.206561 0
M  V30 2841 H 265.471 0.731495 0.18284 0
M  V30 2842 H 268.122 1.81728 -0.254363 0
M  V30 2843 H 266.504 3.57955 1.69365 0
M  V30 2844 H 267.678 4.49485 -1.01489 0
M  V30 2845 H 265.993 4.09366 -0.762128 0
M  V30 2846 H 268.59 5.01186 1.86325 0
M  V30 2847 H 268.933 3.39075 2.41524 0
M  V30 2848 H 269.466 3.89796 0.79395 0
M  V30 2849 H 266.205 6.52221 -0.654834 0
M  V30 2850 H 265.725 5.9224 0.949282 0
M  V30 2851 H 267.404 6.43707 0.651939 0
M  V30 2852 N 267.536 -0.106894 1.57237 0
M  V30 2853 C 268.446 -1.14911 2.0453 0
M  V30 2854 C 269.462 -1.44592 0.96795 0
M  V30 2855 O 270.638 -1.55468 1.2803 0
M  V30 2856 C 267.703 -2.45272 2.45036 0
M  V30 2857 C 266.764 -2.22879 3.66911 0
M  V30 2858 C 265.997 -3.47024 4.05475 0
M  V30 2859 O 266.22 -4.54804 3.44252 0
M  V30 2860 O 265.154 -3.3731 4.98504 0
M  V30 2861 H 268.98 -0.777461 2.9358 0
M  V30 2862 H 266.565 -0.318563 1.45964 0
M  V30 2863 H 268.447 -3.22055 2.71769 0
M  V30 2864 H 267.122 -2.81886 1.59129 0
M  V30 2865 H 266.029 -1.43915 3.45311 0
M  V30 2866 H 267.362 -1.91163 4.53561 0
M  V30 2867 N 269.014 -1.53014 -0.377408 0
M  V30 2868 C 269.924 -1.81557 -1.48574 0
M  V30 2869 C 270.94 -0.703102 -1.59162 0
M  V30 2870 O 272.116 -0.99192 -1.75279 0
M  V30 2871 C 269.181 -1.9889 -2.83978 0
M  V30 2872 C 268.242 -3.22801 -2.83016 0
M  V30 2873 C 267.475 -3.39298 -4.11962 0
M  V30 2874 O 267.698 -2.60345 -5.0752 0
M  V30 2875 O 266.632 -4.32604 -4.18494 0
M  V30 2876 H 270.458 -2.75695 -1.27382 0
M  V30 2877 H 268.043 -1.38248 -0.566373 0
M  V30 2878 H 269.925 -2.11931 -3.6423 0
M  V30 2879 H 268.6 -1.07942 -3.05172 0
M  V30 2880 H 267.507 -3.15193 -2.01505 0
M  V30 2881 H 268.84 -4.13632 -2.66775 0
M  V30 2882 N 270.492 0.636531 -1.44174 0
M  V30 2883 C 271.717 1.42847 -1.50364 0
M  V30 2884 C 272.142 1.87665 -0.127867 0
M  V30 2885 O 271.5 1.58408 0.88185 0
M  V30 2886 C 271.548 2.62854 -2.4686 0
M  V30 2887 O 270.652 3.62501 -1.9664 0
M  V30 2888 H 269.993 0.427642 -0.507955 0
M  V30 2889 H 272.523 0.777422 -1.89255 0
M  V30 2890 H 272.533 3.10465 -2.64718 0
M  V30 2891 H 271.208 2.29578 -3.46795 0
M  V30 2892 H 269.785 3.21735 -1.88523 0
M  V30 2893 N 271.97 1.30982 0.876444 0
M  V30 2894 C 273.216 1.20474 1.63138 0
M  V30 2895 C 273.549 -0.238096 1.92735 0
M  V30 2896 O 272.824 -1.1692 1.55435 0
M  V30 2897 C 273.107 2.04244 2.96574 0
M  V30 2898 C 272.96 3.56793 2.73896 0
M  V30 2899 C 274.279 1.88684 3.97601 0
M  V30 2900 H 271.398 0.439001 0.591985 0
M  V30 2901 H 274.04 1.60704 1.01361 0
M  V30 2902 H 272.19 1.70063 3.493 0
M  V30 2903 H 273.862 4.01077 2.27892 0
M  V30 2904 H 272.105 3.80548 2.08245 0
M  V30 2905 H 272.776 4.10706 3.68815 0
M  V30 2906 H 275.252 2.18584 3.54062 0
M  V30 2907 H 274.128 2.4961 4.88862 0
M  V30 2908 H 274.389 0.848343 4.33884 0
M  V30 2909 N 273.449 -1.08991 1.13837 0
M  V30 2910 C 274.397 -2.17841 0.815347 0
M  V30 2911 C 275.391 -1.68164 -0.204233 0
M  V30 2912 O 276.597 -1.79897 -0.0609304 0
M  V30 2913 H 272.972 -0.710654 0.245915 0
M  V30 2914 H 274.943 -2.42315 1.74143 0
M  V30 2915 C 273.692 -3.46381 0.302614 0
M  V30 2916 H 273.015 -3.84979 1.0785 0
M  V30 2917 H 274.455 -4.23844 0.115074 0
M  V30 2918 C 272.914 -3.22556 -0.972591 0
M  V30 2919 O 273.444 -3.45599 -2.04754 0
M  V30 2920 N 271.65 -2.76134 -0.905455 0
M  V30 2921 H 271.197 -2.57582 -0.0305421 0
M  V30 2922 H 271.155 -2.60571 -1.75926 0
M  V30 2923 N 274.927 -0.932562 -1.27047 0
M  V30 2924 C 276.155 -0.592031 -1.98249 0
M  V30 2925 C 276.57 0.831062 -1.69525 0
M  V30 2926 O 275.927 1.55299 -0.958561 0
M  V30 2927 C 275.978 -0.814279 -3.5221 0
M  V30 2928 O 275.699 -2.18139 -3.7993 0
M  V30 2929 C 277.2 -0.483121 -4.4066 0
M  V30 2930 H 274.42 -0.223896 -0.632544 0
M  V30 2931 H 276.964 -1.25091 -1.61779 0
M  V30 2932 H 275.119 -0.20213 -3.86872 0
M  V30 2933 H 275.533 -2.235 -4.74498 0
M  V30 2934 H 277.007 -0.689298 -5.47679 0
M  V30 2935 H 277.484 0.581546 -4.35333 0
M  V30 2936 H 278.09 -1.07362 -4.11526 0
M  V30 2937 N 276.405 1.4127 -0.698611 0
M  V30 2938 C 277.368 2.29158 -0.044132 0
M  V30 2939 C 278.368 1.44529 0.704841 0
M  V30 2940 O 279.558 1.65643 0.539276 0
M  V30 2941 C 276.69 3.27459 0.947809 0
M  V30 2942 H 277.883 2.88529 -0.817994 0
M  V30 2943 H 275.436 1.49307 -0.46228 0
M  V30 2944 H 276.171 2.73073 1.74933 0
M  V30 2945 H 275.956 3.8991 0.41385 0
M  V30 2946 H 277.446 3.93311 1.40344 0
M  V30 2947 N 277.883 0.443576 1.51229 0
M  V30 2948 C 278.813 -0.355142 2.30783 0
M  V30 2949 C 279.794 -1.0154 1.36468 0
M  V30 2950 O 280.979 -1.01785 1.65389 0
M  V30 2951 C 278.109 -1.45312 3.15439 0
M  V30 2952 C 277.063 -0.916002 4.18083 0
M  V30 2953 C 276.389 -2.1102 4.91299 0
M  V30 2954 C 277.689 0.0538602 5.22272 0
M  V30 2955 H 279.383 0.308767 2.97804 0
M  V30 2956 H 276.929 0.149937 1.43217 0
M  V30 2957 H 278.882 -2.01914 3.69876 0
M  V30 2958 H 277.606 -2.14541 2.46252 0
M  V30 2959 H 276.265 -0.372145 3.64706 0
M  V30 2960 H 275.913 -2.78882 4.18609 0
M  V30 2961 H 275.613 -1.75717 5.60712 0
M  V30 2962 H 277.137 -2.68164 5.48562 0
M  V30 2963 H 278.551 -0.422069 5.71744 0
M  V30 2964 H 276.948 0.319776 5.99247 0
M  V30 2965 H 278.018 0.98858 4.74716 0
M  V30 2966 N 279.361 -1.56624 0.175154 0
M  V30 2967 C 280.309 -2.19468 -0.770495 0
M  V30 2968 C 281.303 -1.15985 -1.23466 0
M  V30 2969 O 282.509 -1.34176 -1.19987 0
M  V30 2970 H 278.884 -0.703095 -0.266761 0
M  V30 2971 H 280.855 -2.97613 -0.216542 0
M  V30 2972 C 279.604 -2.85264 -1.98796 0
M  V30 2973 H 278.927 -3.64623 -1.63983 0
M  V30 2974 H 280.367 -3.327 -2.62843 0
M  V30 2975 C 278.826 -1.85239 -2.81404 0
M  V30 2976 O 279.356 -1.34024 -3.78682 0
M  V30 2977 N 277.562 -1.53911 -2.46495 0
M  V30 2978 H 277.109 -1.95751 -1.67449 0
M  V30 2979 H 277.067 -0.872382 -3.02054 0
M  V30 2980 N 280.839 0.0985539 -1.57292 0
M  V30 2981 C 281.786 1.11981 -2.01814 0
M  V30 2982 C 282.756 1.39999 -0.89384 0
M  V30 2983 O 283.941 1.5152 -1.15958 0
M  V30 2984 C 281.081 2.43577 -2.44467 0
M  V30 2985 C 280.194 2.2232 -3.70402 0
M  V30 2986 C 279.329 3.4729 -4.01949 0
M  V30 2987 C 278.368 3.2128 -5.21005 0
M  V30 2988 N 277.505 4.38507 -5.48321 0
M  V30 2989 H 282.345 0.733149 -2.88841 0
M  V30 2990 H 279.882 0.350482 -1.42864 0
M  V30 2991 H 281.84 3.20373 -2.6724 0
M  V30 2992 H 280.47 2.80097 -1.60455 0
M  V30 2993 H 279.522 1.36343 -3.55126 0
M  V30 2994 H 280.834 1.99089 -4.57345 0
M  V30 2995 H 279.988 4.32495 -4.25479 0
M  V30 2996 H 278.727 3.73572 -3.13521 0
M  V30 2997 H 277.732 2.34468 -4.97298 0
M  V30 2998 H 278.957 2.96348 -6.11028 0
M  V30 2999 H 276.903 4.64871 -4.62851 0
M  V30 3000 H 276.82 4.18455 -6.29628 0
M  V30 3001 H 278.088 5.24787 -5.76385 0
M  V30 3002 N 282.317 1.53212 0.369288 0
M  V30 3003 C 283.265 1.80054 1.47253 0
M  V30 3004 C 284.259 0.669456 1.55611 0
M  V30 3005 O 285.465 0.852328 1.58541 0
M  V30 3006 H 281.84 0.570034 0.490475 0
M  V30 3007 H 283.811 2.72403 1.21817 0
M  V30 3008 C 282.56 2.00403 2.84137 0
M  V30 3009 H 281.883 2.86876 2.78464 0
M  V30 3010 H 283.323 2.23164 3.60519 0
M  V30 3011 C 281.782 0.782081 3.27697 0
M  V30 3012 O 282.312 -0.0310205 4.01688 0
M  V30 3013 N 280.518 0.606573 2.84199 0
M  V30 3014 H 280.065 1.26939 2.24152 0
M  V30 3015 H 280.023 -0.20962 3.137 0
M  V30 3016 N 283.795 -0.628877 1.44509 0
M  V30 3017 C 285.025 -1.41349 1.50678 0
M  V30 3018 C 285.433 -1.88745 0.131075 0
M  V30 3019 O 284.776 -1.61592 -0.87371 0
M  V30 3020 C 284.838 -2.66608 2.41165 0
M  V30 3021 C 284.502 -2.40993 3.88293 0
M  V30 3022 C 285.499 -2.0268 4.78766 0
M  V30 3023 C 283.184 -2.54563 4.33016 0
M  V30 3024 C 285.178 -1.78269 6.11963 0
M  V30 3025 C 282.865 -2.29766 5.6626 0
M  V30 3026 C 283.863 -1.91678 6.55552 0
M  V30 3027 O 283.551 -1.67158 7.86329 0
M  V30 3028 H 283.283 -0.439851 0.51333 0
M  V30 3029 H 285.837 -0.776084 1.90174 0
M  V30 3030 H 284.067 -3.32994 1.96601 0
M  V30 3031 H 285.756 -3.28615 2.38259 0
M  V30 3032 H 286.522 -1.91751 4.45485 0
M  V30 3033 H 282.401 -2.83179 3.63773 0
M  V30 3034 H 285.945 -1.48465 6.81619 0
M  V30 3035 H 281.842 -2.40306 5.99102 0
M  V30 3036 H 282.61 -1.81386 7.98149 0
M  V30 3037 N 285.273 -1.31445 -0.869486 0
M  V30 3038 C 286.519 -1.21337 -1.62496 0
M  V30 3039 C 286.852 0.227872 -1.92858 0
M  V30 3040 O 286.127 1.16094 -1.56053 0
M  V30 3041 C 286.41 -2.05814 -2.95487 0
M  V30 3042 C 286.263 -3.5824 -2.72 0
M  V30 3043 C 287.582 -1.9079 -3.96594 0
M  V30 3044 H 284.701 -0.442135 -0.589649 0
M  V30 3045 H 287.343 -1.6124 -1.00507 0
M  V30 3046 H 285.493 -1.71913 -3.48394 0
M  V30 3047 H 287.165 -4.0228 -2.25762 0
M  V30 3048 H 285.408 -3.81647 -2.06224 0
M  V30 3049 H 286.079 -4.12657 -3.66631 0
M  V30 3050 H 288.555 -2.20459 -3.52898 0
M  V30 3051 H 287.431 -2.52199 -4.87531 0
M  V30 3052 H 287.692 -0.871341 -4.33428 0
M  V30 3053 N 286.751 1.08385 -1.14413 0
M  V30 3054 C 287.998 1.80776 -0.912482 0
M  V30 3055 C 288.326 1.86236 0.560934 0
M  V30 3056 O 287.581 1.33431 1.43159 0
M  V30 3057 C 287.88 3.26273 -1.45879 0
M  V30 3058 C 287.546 3.4093 -2.95089 0
M  V30 3059 C 286.208 3.44638 -3.35824 0
M  V30 3060 C 288.56 3.44591 -3.91033 0
M  V30 3061 C 285.888 3.49597 -4.71167 0
M  V30 3062 C 288.24 3.51086 -5.26233 0
M  V30 3063 C 286.904 3.53067 -5.6648 0
M  V30 3064 H 286.174 0.661507 -0.333901 0
M  V30 3065 H 288.821 1.27613 -1.42784 0
M  V30 3066 H 287.126 3.82146 -0.864376 0
M  V30 3067 H 288.823 3.80839 -1.2555 0
M  V30 3068 H 285.413 3.38736 -2.62594 0
M  V30 3069 H 289.597 3.40957 -3.60641 0
M  V30 3070 H 284.853 3.49424 -5.0171 0
M  V30 3071 H 289.027 3.52864 -6.00383 0
M  V30 3072 H 286.654 3.56662 -6.71339 0
M  V30 3073 N 288.23 0.939286 1.26551 0
M  V30 3074 C 289.178 0.43815 2.28436 0
M  V30 3075 C 290.172 -0.483587 1.62351 0
M  V30 3076 O 291.378 -0.362009 1.76322 0
M  V30 3077 H 287.753 0.123149 0.741848 0
M  V30 3078 H 289.724 1.31002 2.68106 0
M  V30 3079 C 288.473 -0.283052 3.46546 0
M  V30 3080 H 287.796 0.417043 3.97619 0
M  V30 3081 H 289.236 -0.597948 4.19763 0
M  V30 3082 C 287.695 -1.50018 3.01656 0
M  V30 3083 O 288.225 -2.59855 3.0633 0
M  V30 3084 N 286.431 -1.35608 2.57019 0
M  V30 3085 H 285.978 -0.46244 2.53415 0
M  V30 3086 H 285.936 -2.17165 2.27347 0
M  V30 3087 N 289.708 -1.40897 0.706093 0
M  V30 3088 C 290.655 -2.30751 0.0474474 0
M  V30 3089 C 291.625 -1.47678 -0.76029 0
M  V30 3090 O 292.81 -1.76441 -0.726177 0
M  V30 3091 C 289.95 -3.33815 -0.875309 0
M  V30 3092 C 289.063 -4.31961 -0.0580623 0
M  V30 3093 C 288.198 -5.22093 -0.979425 0
M  V30 3094 C 287.237 -6.11902 -0.155706 0
M  V30 3095 N 286.374 -6.94482 -1.03144 0
M  V30 3096 H 291.214 -2.86513 0.819413 0
M  V30 3097 H 288.751 -1.41102 0.415783 0
M  V30 3098 H 290.709 -3.92129 -1.42446 0
M  V30 3099 H 289.339 -2.79579 -1.61356 0
M  V30 3100 H 288.391 -3.75507 0.608147 0
M  V30 3101 H 289.703 -4.95415 0.580082 0
M  V30 3102 H 288.857 -5.85292 -1.59744 0
M  V30 3103 H 287.596 -4.5889 -1.65141 0
M  V30 3104 H 286.601 -5.47742 0.475309 0
M  V30 3105 H 287.826 -6.77162 0.512635 0
M  V30 3106 H 285.772 -6.33877 -1.68924 0
M  V30 3107 H 285.689 -7.54665 -0.449108 0
M  V30 3108 H 286.957 -7.6214 -1.63593 0
M  V30 3109 N 291.186 -0.45159 -1.50991 0
M  V30 3110 C 292.149 0.341117 -2.26647 0
M  V30 3111 C 293.149 0.937422 -1.30649 0
M  V30 3112 O 294.339 0.809644 -1.54241 0
M  V30 3113 C 291.471 1.48398 -3.06905 0
M  V30 3114 H 292.664 -0.322117 -2.98165 0
M  V30 3115 H 290.217 -0.205122 -1.54948 0
M  V30 3116 H 290.952 2.18284 -2.39838 0
M  V30 3117 H 290.737 1.06241 -3.77432 0
M  V30 3118 H 292.227 2.04367 -3.64176 0
M  V30 3119 N 292.664 1.56529 -0.183458 0
M  V30 3120 C 293.941 1.88959 0.50536 0
M  V30 3121 C 294.321 1.09523 1.80466 0
M  V30 3122 O 293.669 0.19278 2.27685 0
M  V30 3123 C 293.879 3.41162 0.73547 0
M  V30 3124 C 295.227 4.11155 1.06005 0
M  V30 3125 O 296.251 3.46548 0.823594 0
M  V30 3126 O 295.11 5.25318 1.50675 0
M  V30 3127 H 292.204 0.78441 0.261973 0
M  V30 3128 H 294.75 1.68231 -0.222802 0
M  V30 3129 H 293.522 3.90874 -0.182561 0
M  V30 3130 H 293.145 3.67543 1.51651 0
M  V30 3131 N 294.142 -0.090211 1.57342 0
M  V30 3132 C 295.372 -0.805055 1.90269 0
M  V30 3133 C 295.78 -1.72561 0.775842 0
M  V30 3134 O 295.123 -1.81839 -0.260843 0
M  V30 3135 C 295.185 -1.66734 3.18497 0
M  V30 3136 C 294.849 -0.918092 4.47683 0
M  V30 3137 C 295.846 -0.245674 5.19319 0
M  V30 3138 C 293.531 -0.890724 4.94339 0
M  V30 3139 C 295.525 0.444088 6.35851 0
M  V30 3140 C 293.212 -0.197179 6.10782 0
M  V30 3141 C 294.21 0.469044 6.81388 0
M  V30 3142 O 293.898 1.15146 7.95611 0
M  V30 3143 H 293.63 -0.235143 0.633785 0
M  V30 3144 H 296.184 -0.0703805 2.05279 0
M  V30 3145 H 294.414 -2.44437 2.99646 0
M  V30 3146 H 296.103 -2.25919 3.37217 0
M  V30 3147 H 296.869 -0.258246 4.84312 0
M  V30 3148 H 292.748 -1.39873 4.39268 0
M  V30 3149 H 296.292 0.964667 6.90898 0
M  V30 3150 H 292.189 -0.18247 6.45242 0
M  V30 3151 H 292.957 1.05885 8.11622 0
M  V30 3152 N 295.62 -1.53406 -0.361157 0
M  V30 3153 C 296.552 -1.76446 -1.46286 0
M  V30 3154 C 297.565 -0.645322 -1.49464 0
M  V30 3155 O 298.754 -0.921681 -1.52864 0
M  V30 3156 C 295.854 -1.83332 -2.85031 0
M  V30 3157 C 295.027 -3.13033 -3.05498 0
M  V30 3158 C 294.086 -3.11104 -4.24383 0
M  V30 3159 O 293.112 -3.84888 -4.19344 0
M  V30 3160 N 294.314 -2.32234 -5.32022 0
M  V30 3161 H 297.079 -2.71508 -1.26899 0
M  V30 3162 H 294.64 -1.52238 -0.550915 0
M  V30 3163 H 296.632 -1.79514 -3.62708 0
M  V30 3164 H 295.202 -0.955342 -2.97644 0
M  V30 3165 H 294.422 -3.30119 -2.15442 0
M  V30 3166 H 295.71 -3.9874 -3.16044 0
M  V30 3167 H 295.108 -1.71807 -5.38979 0
M  V30 3168 H 293.665 -2.3423 -6.08259 0
M  V30 3169 N 297.098 0.621204 -1.44841 0
M  V30 3170 C 298.328 1.40548 -1.51426 0
M  V30 3171 C 298.736 1.88673 -0.141083 0
M  V30 3172 O 298.079 1.62053 0.865128 0
M  V30 3173 C 298.141 2.65325 -2.42576 0
M  V30 3174 C 297.805 2.3893 -3.89566 0
M  V30 3175 C 298.802 2.00138 -4.79834 0
M  V30 3176 C 296.487 2.52263 -4.3436 0
M  V30 3177 C 298.481 1.75021 -6.129 0
M  V30 3178 C 296.168 2.2676 -5.67471 0
M  V30 3179 C 297.166 1.88199 -6.56559 0
M  V30 3180 O 296.854 1.62986 -7.87204 0
M  V30 3181 H 296.586 0.437122 -0.515655 0
M  V30 3182 H 299.14 0.765987 -1.90583 0
M  V30 3183 H 297.37 3.31947 -1.98364 0
M  V30 3184 H 299.059 3.27347 -2.39998 0
M  V30 3185 H 299.825 1.89386 -4.46495 0
M  V30 3186 H 295.704 2.81246 -3.65269 0
M  V30 3187 H 299.248 1.44848 -6.82396 0
M  V30 3188 H 295.145 2.37125 -6.00368 0
M  V30 3189 H 295.913 1.7715 -7.991 0
M  V30 3190 N 298.576 1.31904 0.862503 0
M  V30 3191 C 299.804 1.24998 1.64873 0
M  V30 3192 C 300.219 -0.183425 1.87907 0
M  V30 3193 O 299.576 -1.11794 1.44251 0
M  V30 3194 C 299.627 1.99829 3.01248 0
M  V30 3195 O 299.348 3.37575 2.79239 0
M  V30 3196 C 300.849 1.99852 3.95694 0
M  V30 3197 H 298.069 0.431599 0.513773 0
M  V30 3198 H 300.613 1.73901 1.07604 0
M  V30 3199 H 298.768 1.54668 3.55185 0
M  V30 3200 H 299.182 3.75776 3.65914 0
M  V30 3201 H 300.656 2.56709 4.88676 0
M  V30 3202 H 301.133 0.982852 4.28062 0
M  V30 3203 H 301.739 2.44926 3.47694 0
M  V30 3204 N 300.054 -1.07777 1.14986 0
M  V30 3205 C 300.984 -2.16865 0.865557 0
M  V30 3206 C 301.965 -1.69123 -0.182083 0
M  V30 3207 O 303.15 -1.94164 -0.0373815 0
M  V30 3208 C 300.28 -3.45539 0.349313 0
M  V30 3209 C 299.234 -4.06708 1.33313 0
M  V30 3210 C 298.56 -5.30411 0.675918 0
M  V30 3211 C 299.86 -4.47241 2.69764 0
M  V30 3212 H 301.554 -2.40905 1.77778 0
M  V30 3213 H 299.1 -1.15781 0.856203 0
M  V30 3214 H 301.053 -4.21174 0.137983 0
M  V30 3215 H 299.777 -3.21072 -0.598362 0
M  V30 3216 H 298.436 -3.33112 1.53075 0
M  V30 3217 H 298.084 -5.02232 -0.277767 0
M  V30 3218 H 297.784 -5.72293 1.33244 0
M  V30 3219 H 299.308 -6.08755 0.474262 0
M  V30 3220 H 300.722 -5.14025 2.53873 0
M  V30 3221 H 299.119 -5.00062 3.3175 0
M  V30 3222 H 300.189 -3.58818 3.26156 0
M  V30 3223 N 301.532 -0.945985 -1.26051 0
M  V30 3224 C 302.76 -0.613025 -1.9761 0
M  V30 3225 C 303.175 0.813035 -1.70397 0
M  V30 3226 O 302.532 1.54274 -0.974979 0
M  V30 3227 C 302.583 -0.85159 -3.51326 0
M  V30 3228 O 302.304 -2.22157 -3.77595 0
M  V30 3229 C 303.805 -0.529831 -4.40122 0
M  V30 3230 H 301.025 -0.230593 -0.630133 0
M  V30 3231 H 303.569 -1.268 -1.60443 0
M  V30 3232 H 301.724 -0.243151 -3.86636 0
M  V30 3233 H 302.138 -2.2852 -4.721 0
M  V30 3234 H 303.612 -0.747348 -5.46917 0
M  V30 3235 H 304.089 0.535341 -4.35925 0
M  V30 3236 H 304.695 -1.11721 -4.10364 0
M  V30 3237 N 303.011 1.40521 -0.713556 0
M  V30 3238 C 303.959 2.32549 -0.0485227 0
M  V30 3239 C 304.953 1.51931 0.74922 0
M  V30 3240 O 306.159 1.67745 0.652816 0
M  V30 3241 H 302.534 0.751994 0.00311138 0
M  V30 3242 H 304.505 2.86291 -0.841443 0
M  V30 3243 C 303.254 3.36879 0.860687 0
M  V30 3244 H 302.577 3.98978 0.256246 0
M  V30 3245 H 304.017 4.03772 1.294 0
M  V30 3246 C 302.476 2.72197 1.9852 0
M  V30 3247 O 303.006 2.5837 3.07584 0
M  V30 3248 N 301.212 2.30612 1.76823 0
M  V30 3249 H 300.759 2.42059 0.881217 0
M  V30 3250 H 300.717 1.87672 2.52243 0
M  V30 3251 N 304.489 0.459591 1.5075 0
M  V30 3252 C 305.9 0.00171547 1.867 0
M  V30 3253 C 306.251 -1.39934 1.37525 0
M  V30 3254 O 305.376 -2.03523 0.735349 0
M  V30 3255 C 305.971 -0.00366298 3.388 0
M  V30 3256 C 304.53 -0.406026 3.74204 0
M  V30 3257 C 303.677 0.38673 2.7459 0
M  V30 3258 H 306.628 0.674413 1.43657 0
M  V30 3259 H 306.649 -0.808371 3.71814 0
M  V30 3260 H 306.161 1.01617 3.74561 0
M  V30 3261 H 304.262 -1.43063 3.4404 0
M  V30 3262 H 304.375 -0.115362 4.78961 0
M  V30 3263 H 302.739 -0.158019 2.54209 0
M  V30 3264 H 303.522 1.40585 3.13194 0
M  V30 3265 N 305.967 -1.56429 0.191757 0
M  V30 3266 C 307.192 -2.02309 -0.456706 0
M  V30 3267 C 307.617 -1.07103 -1.5463 0
M  V30 3268 O 306.975 -0.0539677 -1.8122 0
M  V30 3269 C 307.023 -3.46654 -0.993159 0
M  V30 3270 O 306.127 -3.54559 -2.10622 0
M  V30 3271 H 305.468 -0.655303 -0.107114 0
M  V30 3272 H 307.998 -2.02364 0.301653 0
M  V30 3273 H 308.008 -3.86377 -1.31061 0
M  V30 3274 H 306.683 -4.1544 -0.195504 0
M  V30 3275 H 305.26 -3.26708 -1.79767 0
M  V30 3276 N 307.445 0.0818655 -1.57387 0
M  V30 3277 C 308.375 1.09885 -2.06028 0
M  V30 3278 C 309.356 1.4098 -0.951774 0
M  V30 3279 O 310.541 1.50781 -1.22387 0
M  V30 3280 C 307.671 2.4151 -2.4958 0
M  V30 3281 C 306.625 2.24792 -3.64215 0
M  V30 3282 C 305.951 3.61712 -3.93787 0
M  V30 3283 C 307.251 1.67749 -4.94629 0
M  V30 3284 H 308.945 0.694128 -2.91243 0
M  V30 3285 H 306.491 0.332448 -1.4011 0
M  V30 3286 H 308.444 3.12939 -2.82219 0
M  V30 3287 H 307.168 2.83943 -1.61381 0
M  V30 3288 H 305.827 1.55807 -3.31843 0
M  V30 3289 H 305.475 4.01697 -3.02735 0
M  V30 3290 H 305.175 3.51368 -4.70971 0
M  V30 3291 H 306.699 4.34587 -4.28913 0
M  V30 3292 H 308.113 2.29032 -5.25564 0
M  V30 3293 H 306.51 1.68128 -5.76067 0
M  V30 3294 H 307.58 0.638059 -4.80684 0
M  V30 3295 N 308.923 1.53595 0.353017 0
M  V30 3296 C 310.171 1.70049 1.09215 0
M  V30 3297 C 310.492 0.461406 1.89463 0
M  V30 3298 O 309.762 -0.524633 1.88744 0
M  V30 3299 H 308.342 0.626912 0.40619 0
M  V30 3300 H 311.004 1.90822 0.396585 0
M  V30 3301 H 310.1 2.56718 1.77488 0
M  V30 3302 N 310.401 -0.613514 1.45168 0
M  V30 3303 C 311.348 -1.72456 1.53387 0
M  V30 3304 C 312.318 -1.6169 0.380191 0
M  V30 3305 O 313.503 -1.81356 0.592836 0
M  V30 3306 C 310.643 -3.10753 1.50088 0
M  V30 3307 C 309.756 -3.32368 2.75963 0
M  V30 3308 C 308.891 -4.60737 2.64376 0
M  V30 3309 C 307.93 -4.7559 3.85332 0
M  V30 3310 N 307.067 -5.95253 3.72315 0
M  V30 3311 H 311.907 -1.64768 2.48305 0
M  V30 3312 H 309.444 -0.803503 1.23216 0
M  V30 3313 H 311.402 -3.90758 1.46164 0
M  V30 3314 H 310.032 -3.17413 0.587243 0
M  V30 3315 H 309.084 -2.4618 2.89999 0
M  V30 3316 H 310.396 -3.39218 3.65695 0
M  V30 3317 H 309.55 -5.48928 2.58385 0
M  V30 3318 H 308.289 -4.56275 1.72233 0
M  V30 3319 H 307.294 -3.85824 3.91688 0
M  V30 3320 H 308.519 -4.81854 4.78533 0
M  V30 3321 H 306.465 -5.91847 2.82937 0
M  V30 3322 H 306.382 -6.03236 4.55677 0
M  V30 3323 H 307.65 -6.85958 3.70246 0
M  V30 3324 N 311.879 -1.3236 -0.855495 0
M  V30 3325 C 313.128 -1.22226 -1.60448 0
M  V30 3326 C 313.441 0.214733 -1.94418 0
M  V30 3327 O 314.647 0.437917 -2.67945 0
M  V30 3328 C 313.103 -2.14063 -2.89318 0
M  V30 3329 C 312.711 -3.62839 -2.62777 0
M  V30 3330 C 314.455 -2.12764 -3.67331 0
M  V30 3331 C 312.362 -4.4664 -3.87643 0
M  V30 3332 H 311.292 -0.453904 -0.602069 0
M  V30 3333 H 313.943 -1.57314 -0.944698 0
M  V30 3334 H 312.325 -1.71889 -3.5675 0
M  V30 3335 H 313.499 -4.1335 -2.03662 0
M  V30 3336 H 311.814 -3.66261 -1.98096 0
M  V30 3337 H 314.411 -2.72611 -4.59987 0
M  V30 3338 H 314.754 -1.11841 -4.00995 0
M  V30 3339 H 315.287 -2.53214 -3.06802 0
M  V30 3340 H 312.026 -5.48373 -3.5912 0
M  V30 3341 H 311.546 -4.0088 -4.46156 0
M  V30 3342 H 313.225 -4.59597 -4.55389 0
M  V30 3343 N 313.357 1.07166 -1.15556 0
M  V30 3344 C 314.603 1.80065 -0.932984 0
M  V30 3345 C 314.936 1.86586 0.53845 0
M  V30 3346 O 314.211 1.35098 1.39924 0
M  V30 3347 C 314.494 3.25022 -1.55025 0
M  V30 3348 C 314.347 3.26634 -3.09242 0
M  V30 3349 C 315.666 4.22341 -1.2376 0
M  V30 3350 H 312.785 0.653697 -0.340366 0
M  V30 3351 H 315.427 1.25389 -1.4275 0
M  V30 3352 H 313.577 3.71712 -1.12972 0
M  V30 3353 H 315.249 2.88173 -3.60214 0
M  V30 3354 H 313.492 2.65539 -3.43033 0
M  V30 3355 H 314.163 4.28854 -3.47546 0
M  V30 3356 H 316.639 3.8405 -1.60139 0
M  V30 3357 H 315.515 5.22053 -1.69564 0
M  V30 3358 H 315.776 4.41828 -0.154938 0
M  V30 3359 N 314.835 0.952656 1.25548 0
M  V30 3360 C 316.083 0.605176 1.92826 0
M  V30 3361 C 316.404 -0.860261 1.74999 0
M  V30 3362 O 315.674 -1.6125 1.11244 0
M  V30 3363 H 314.254 0.220832 0.713612 0
M  V30 3364 H 316.916 1.21047 1.52754 0
M  V30 3365 H 316.012 0.832798 3.00784 0
M  V30 3366 N 316.313 -1.40141 0.720998 0
M  V30 3367 C 317.561 -2.0039 0.262323 0
M  V30 3368 C 317.882 -1.57469 -1.15015 0
M  V30 3369 O 317.152 -0.816582 -1.78069 0
M  V30 3370 H 315.732 -0.741063 0.093996 0
M  V30 3371 H 318.394 -1.71398 0.927835 0
M  V30 3372 H 317.49 -3.10658 0.299671 0
M  V30 3373 N 317.792 -0.46758 -1.50504 0
M  V30 3374 C 319.041 0.0902868 -2.01498 0
M  V30 3375 C 319.354 1.411 -1.35463 0
M  V30 3376 O 320.56 2.0536 -1.77594 0
M  V30 3377 C 319.016 0.21142 -3.59278 0
M  V30 3378 C 318.624 -1.10065 -4.34269 0
M  V30 3379 C 320.368 0.721433 -4.18325 0
M  V30 3380 C 318.275 -0.943505 -5.83825 0
M  V30 3381 H 317.205 0.037517 -0.753066 0
M  V30 3382 H 319.856 -0.601943 -1.73346 0
M  V30 3383 H 318.238 0.967352 -3.84003 0
M  V30 3384 H 319.412 -1.86726 -4.21272 0
M  V30 3385 H 317.727 -1.5415 -3.86816 0
M  V30 3386 H 320.324 0.85598 -5.27804 0
M  V30 3387 H 320.667 1.71186 -3.79475 0
M  V30 3388 H 321.2 0.0229843 -3.97793 0
M  V30 3389 H 317.939 -1.90719 -6.27141 0
M  V30 3390 H 317.459 -0.217213 -5.99407 0
M  V30 3391 H 319.138 -0.608715 -6.4413 0
M  V30 3392 N 319.27 1.56325 -0.20005 0
M  V30 3393 C 320.2 2.22318 0.713916 0
M  V30 3394 C 321.181 1.18788 1.21752 0
M  V30 3395 O 322.366 1.47309 1.26545 0
M  V30 3396 C 319.496 2.88639 1.93144 0
M  V30 3397 C 318.45 3.98457 1.56255 0
M  V30 3398 C 317.776 4.51967 2.85709 0
M  V30 3399 C 319.076 5.16612 0.768747 0
M  V30 3400 H 320.77 2.98952 0.163755 0
M  V30 3401 H 318.316 1.43792 0.0773219 0
M  V30 3402 H 320.269 3.33491 2.57608 0
M  V30 3403 H 318.993 2.09419 2.50621 0
M  V30 3404 H 317.652 3.54305 0.941471 0
M  V30 3405 H 317.3 3.69503 3.41287 0
M  V30 3406 H 317 5.26071 2.6177 0
M  V30 3407 H 318.524 4.99523 3.51154 0
M  V30 3408 H 319.938 5.57977 1.3166 0
M  V30 3409 H 318.335 5.96812 0.627286 0
M  V30 3410 H 319.405 4.84358 -0.229168 0
M  V30 3411 N 320.748 -0.0735177 1.57428 0
M  V30 3412 C 321.978 -0.78483 1.91112 0
M  V30 3413 C 322.386 -1.71729 0.7941 0
M  V30 3414 O 321.729 -1.82105 -0.241542 0
M  V30 3415 C 321.791 -1.63346 3.20247 0
M  V30 3416 C 321.455 -0.870557 4.48632 0
M  V30 3417 C 322.452 -0.19058 5.19551 0
M  V30 3418 C 320.137 -0.838242 4.95256 0
M  V30 3419 C 322.131 0.511503 6.35344 0
M  V30 3420 C 319.818 -0.132386 6.10957 0
M  V30 3421 C 320.816 0.541288 6.80852 0
M  V30 3422 O 320.504 1.23578 7.94345 0
M  V30 3423 H 320.236 -0.228408 0.636244 0
M  V30 3424 H 322.79 -0.0486039 2.05342 0
M  V30 3425 H 321.02 -2.41245 3.02222 0
M  V30 3426 H 322.709 -2.22329 3.39595 0
M  V30 3427 H 323.475 -0.206864 4.84559 0
M  V30 3428 H 319.354 -1.35206 4.40727 0
M  V30 3429 H 322.898 1.03789 6.89836 0
M  V30 3430 H 318.795 -0.114023 6.45399 0
M  V30 3431 H 319.563 1.14487 8.10454 0
M  V30 3432 N 322.226 -1.5378 -0.344866 0
M  V30 3433 C 323.637 -1.62428 -0.920552 0
M  V30 3434 C 323.988 -0.504747 -1.89596 0
M  V30 3435 O 323.113 0.365711 -2.13287 0
M  V30 3436 C 323.708 -2.94419 -1.67639 0
M  V30 3437 C 322.267 -3.05333 -2.20111 0
M  V30 3438 C 321.414 -2.57866 -1.01982 0
M  V30 3439 H 324.365 -1.58222 -0.123042 0
M  V30 3440 H 324.386 -2.83384 -2.53917 0
M  V30 3441 H 323.898 -3.7588 -0.966224 0
M  V30 3442 H 321.999 -2.28502 -2.94308 0
M  V30 3443 H 322.112 -4.10778 -2.46573 0
M  V30 3444 H 320.476 -2.13241 -1.39285 0
M  V30 3445 H 321.259 -3.41765 -0.324308 0
M  V30 3446 N 323.704 0.605807 -1.45491 0
M  V30 3447 C 324.652 1.73754 -1.54636 0
M  V30 3448 C 325.646 1.64207 -0.416219 0
M  V30 3449 O 326.852 1.69979 -0.592199 0
M  V30 3450 H 323.227 0.574073 -0.485741 0
M  V30 3451 H 325.198 1.63169 -2.49837 0
M  V30 3452 C 323.947 3.12135 -1.53189 0
M  V30 3453 H 323.27 3.20141 -2.39478 0
M  V30 3454 H 324.71 3.91147 -1.63645 0
M  V30 3455 C 323.169 3.35921 -0.256616 0
M  V30 3456 O 323.699 3.96194 0.662798 0
M  V30 3457 N 321.905 2.90204 -0.151751 0
M  V30 3458 H 321.452 2.41336 -0.90081 0
M  V30 3459 H 321.41 3.06492 0.700699 0
M  V30 3460 N 325.182 1.32811 0.848464 0
M  V30 3461 C 326.145 1.22194 1.9391 0
M  V30 3462 C 327.145 0.143404 1.60159 0
M  V30 3463 O 328.335 0.394253 1.6968 0
M  V30 3464 C 325.467 0.88067 3.29328 0
M  V30 3465 H 326.66 2.19127 2.04752 0
M  V30 3466 H 324.213 1.16731 1.0394 0
M  V30 3467 H 324.948 -0.0865776 3.24184 0
M  V30 3468 H 324.733 1.66052 3.55203 0
M  V30 3469 H 326.223 0.830871 4.09251 0
M  V30 3470 N 326.66 -1.06551 1.16123 0
M  V30 3471 C 327.888 -1.83005 0.965237 0
M  V30 3472 C 328.303 -1.82423 -0.486542 0
M  V30 3473 O 327.66 -1.24152 -1.33763 0
M  V30 3474 C 327.711 -3.29733 1.48183 0
M  V30 3475 O 327.432 -3.30416 2.87674 0
M  V30 3476 C 328.933 -4.22926 1.32848 0
M  V30 3477 H 326.153 -0.577118 0.342309 0
M  V30 3478 H 328.697 -1.3445 1.54089 0
M  V30 3479 H 326.852 -3.75609 0.948517 0
M  V30 3480 H 327.266 -4.22149 3.11272 0
M  V30 3481 H 328.74 -5.23916 1.73827 0
M  V30 3482 H 329.217 -4.38346 0.273692 0
M  V30 3483 H 329.823 -3.82894 1.85127 0
M  V30 3484 N 328.138 -0.959301 -1.25041 0
M  V30 3485 C 329.386 -0.615393 -1.92503 0
M  V30 3486 C 329.707 0.850969 -1.75452 0
M  V30 3487 O 328.977 1.60658 -1.12098 0
M  V30 3488 H 327.557 -0.224613 -0.712431 0
M  V30 3489 H 330.219 -1.21855 -1.5211 0
M  V30 3490 H 329.315 -0.848738 -3.00338 0
M  V30 3491 N 329.616 1.39756 -0.72842 0
M  V30 3492 C 330.841 2.05472 -0.282159 0
M  V30 3493 C 331.266 1.54549 1.07221 0
M  V30 3494 O 330.624 0.686372 1.67805 0
M  V30 3495 C 330.672 3.59462 -0.286264 0
M  V30 3496 O 329.776 4.05918 0.728298 0
M  V30 3497 H 329.117 0.651226 -0.129618 0
M  V30 3498 H 331.647 1.78915 -0.992499 0
M  V30 3499 H 331.657 4.07798 -0.128373 0
M  V30 3500 H 330.332 3.95889 -1.27456 0
M  V30 3501 H 328.909 3.69012 0.537081 0
M  V30 3502 N 331.094 0.475555 1.50254 0
M  V30 3503 C 332.322 -0.0754493 2.06762 0
M  V30 3504 C 332.737 -1.33111 1.33891 0
M  V30 3505 O 332.094 -1.77846 0.40952 0
M  V30 3506 C 332.145 -0.359008 3.59713 0
M  V30 3507 O 331.866 0.846851 4.29837 0
M  V30 3508 C 333.367 -0.956484 4.32858 0
M  V30 3509 H 330.587 0.00907525 0.670939 0
M  V30 3510 H 333.131 0.665618 1.93364 0
M  V30 3511 H 331.286 -1.05001 3.72899 0
M  V30 3512 H 331.7 0.594162 5.21124 0
M  V30 3513 H 333.174 -1.10463 5.40834 0
M  V30 3514 H 333.651 -1.94775 3.93649 0
M  V30 3515 H 334.257 -0.303723 4.24214 0
M  V30 3516 N 332.573 -1.56217 0.208337 0
M  V30 3517 C 333.801 -2.02337 -0.43215 0
M  V30 3518 C 334.216 -1.08834 -1.54275 0
M  V30 3519 O 333.573 -0.0955462 -1.8225 0
M  V30 3520 C 333.624 -3.48072 -0.976138 0
M  V30 3521 O 333.345 -4.38007 0.0901621 0
M  V30 3522 C 334.846 -4.09773 -1.69119 0
M  V30 3523 H 332.066 -0.662385 -0.10718 0
M  V30 3524 H 334.61 -2.01966 0.320923 0
M  V30 3525 H 332.765 -3.49099 -1.67954 0
M  V30 3526 H 333.179 -5.23543 -0.316701 0
M  V30 3527 H 334.653 -5.13556 -2.02397 0
M  V30 3528 H 335.13 -3.53999 -2.59964 0
M  V30 3529 H 335.736 -4.12556 -1.03332 0
M  V30 3530 N 334.051 0.0651679 -1.57465 0
M  V30 3531 C 335.297 0.764193 -1.87851 0
M  V30 3532 C 335.63 1.76889 -0.801495 0
M  V30 3533 O 334.905 1.93594 0.187528 0
M  V30 3534 C 335.188 1.46625 -3.28897 0
M  V30 3535 C 335.041 0.477515 -4.47258 0
M  V30 3536 C 336.36 2.4095 -3.68281 0
M  V30 3537 H 333.479 0.276351 -0.683227 0
M  V30 3538 H 336.121 0.0272868 -1.8998 0
M  V30 3539 H 334.271 2.09438 -3.27212 0
M  V30 3540 H 335.943 -0.145922 -4.61069 0
M  V30 3541 H 334.186 -0.206576 -4.33308 0
M  V30 3542 H 334.857 1.0065 -5.42746 0
M  V30 3543 H 337.333 1.88209 -3.71102 0
M  V30 3544 H 336.209 2.87072 -4.67847 0
M  V30 3545 H 336.47 3.26049 -2.98571 0
M  V30 3546 N 335.529 1.53961 0.336706 0
M  V30 3547 C 336.476 1.82428 1.41381 0
M  V30 3548 C 337.446 0.670444 1.51968 0
M  V30 3549 O 338.631 0.915565 1.67398 0
M  V30 3550 C 335.771 2.04564 2.77934 0
M  V30 3551 C 334.884 3.32267 2.76084 0
M  V30 3552 C 334.019 3.44434 4.04399 0
M  V30 3553 C 333.058 4.66061 3.96804 0
M  V30 3554 N 332.195 4.75224 5.16823 0
M  V30 3555 H 337.035 2.74324 1.16405 0
M  V30 3556 H 334.572 1.35869 0.563752 0
M  V30 3557 H 336.53 2.15388 3.57301 0
M  V30 3558 H 335.16 1.15974 3.01247 0
M  V30 3559 H 334.212 3.3025 1.88784 0
M  V30 3560 H 335.524 4.21733 2.66351 0
M  V30 3561 H 334.678 3.54728 4.92192 0
M  V30 3562 H 333.417 2.53037 4.16921 0
M  V30 3563 H 332.422 4.55838 3.07396 0
M  V30 3564 H 333.647 5.58829 3.85858 0
M  V30 3565 H 331.593 3.86739 5.29876 0
M  V30 3566 H 331.51 5.58636 5.09374 0
M  V30 3567 H 332.778 4.89835 6.06367 0
M  V30 3568 N 337.007 -0.598083 1.45811 0
M  V30 3569 C 338.256 -1.35295 1.49594 0
M  V30 3570 C 338.569 -1.95057 0.145679 0
M  V30 3571 O 339.775 -2.71431 0.0612099 0
M  V30 3572 C 338.231 -2.45124 2.63519 0
M  V30 3573 C 337.839 -1.91732 4.04899 0
M  V30 3574 C 339.583 -3.2205 2.76558 0
M  V30 3575 C 337.49 -2.991 5.1019 0
M  V30 3576 H 336.42 -0.508552 0.556679 0
M  V30 3577 H 339.071 -0.639977 1.71978 0
M  V30 3578 H 337.453 -3.19149 2.34435 0
M  V30 3579 H 338.627 -1.24352 4.43704 0
M  V30 3580 H 336.942 -1.27522 3.96393 0
M  V30 3581 H 339.539 -4.0215 3.52391 0
M  V30 3582 H 339.882 -3.73663 1.83526 0
M  V30 3583 H 340.415 -2.55127 3.05213 0
M  V30 3584 H 337.154 -2.52393 6.04961 0
M  V30 3585 H 336.674 -3.65017 4.75944 0
M  V30 3586 H 338.353 -3.63318 5.35359 0
M  V30 3587 N 338.485 -1.33259 -0.841409 0
M  V30 3588 C 339.71 -1.2775 -1.63385 0
M  V30 3589 C 340.135 0.149188 -1.87507 0
M  V30 3590 O 339.493 1.10498 -1.43736 0
M  V30 3591 C 339.541 -2.05571 -2.96265 0
M  V30 3592 O 338.645 -1.41257 -3.87453 0
M  V30 3593 H 337.986 -0.439627 -0.497618 0
M  V30 3594 H 340.516 -1.75782 -1.04699 0
M  V30 3595 H 340.526 -2.16241 -3.45982 0
M  V30 3596 H 339.201 -3.09309 -2.7803 0
M  V30 3597 H 337.778 -1.39217 -3.45938 0
M  V30 3598 N 339.963 1.05934 -1.16686 0
M  V30 3599 C 341.24 1.75643 -0.860747 0
M  V30 3600 C 341.62 2.01144 0.640641 0
M  V30 3601 O 340.968 1.64147 1.58959 0
M  V30 3602 C 341.178 3.05493 -1.68745 0
M  V30 3603 C 342.526 3.79581 -1.90271 0
M  V30 3604 O 343.55 3.15344 -1.65641 0
M  V30 3605 O 342.409 4.9499 -2.31618 0
M  V30 3606 H 339.503 0.763426 -0.317977 0
M  V30 3607 H 342.049 1.1217 -1.27342 0
M  V30 3608 H 340.821 2.8264 -2.70611 0
M  V30 3609 H 340.444 3.76702 -1.27206 0
M  V30 3610 N 341.441 0.965919 1.2453 0
M  V30 3611 C 342.388 0.49402 2.25451 0
M  V30 3612 C 343.358 -0.45948 1.59618 0
M  V30 3613 O 344.543 -0.370238 1.87173 0
M  V30 3614 C 341.683 -0.211359 3.44452 0
M  V30 3615 C 340.796 0.7807 4.24887 0
M  V30 3616 C 339.931 0.0516105 5.31175 0
M  V30 3617 C 338.97 1.03385 6.03306 0
M  V30 3618 N 338.107 0.334887 7.01301 0
M  V30 3619 H 342.947 1.35946 2.65184 0
M  V30 3620 H 340.484 0.681515 1.3036 0
M  V30 3621 H 342.442 -0.637 4.12308 0
M  V30 3622 H 341.072 -1.04077 3.05562 0
M  V30 3623 H 340.124 1.32479 3.56586 0
M  V30 3624 H 341.436 1.52978 4.74762 0
M  V30 3625 H 340.59 -0.432114 6.05159 0
M  V30 3626 H 339.329 -0.730179 4.82203 0
M  V30 3627 H 338.334 1.52847 5.28127 0
M  V30 3628 H 339.559 1.81606 6.54367 0
M  V30 3629 H 337.505 -0.427959 6.54603 0
M  V30 3630 H 337.422 1.02287 7.49048 0
M  V30 3631 H 338.69 -0.126928 7.79397 0
M  V30 3632 N 342.919 -1.39368 0.735821 0
M  V30 3633 C 344.144 -2.05319 0.293052 0
M  V30 3634 C 344.569 -1.55115 -1.064 0
M  V30 3635 O 343.927 -0.695261 -1.67439 0
M  V30 3636 C 343.975 -3.59305 0.305323 0
M  V30 3637 O 343.079 -4.06299 -0.706761 0
M  V30 3638 H 342.42 -0.650529 0.13307 0
M  V30 3639 H 344.95 -1.78386 1.00197 0
M  V30 3640 H 344.96 -4.07724 0.149997 0
M  V30 3641 H 343.635 -3.95207 1.29553 0
M  V30 3642 H 342.212 -3.69292 -0.517504 0
M  V30 3643 N 344.397 -0.483516 -1.5 0
M  V30 3644 C 345.645 0.067027 -2.01989 0
M  V30 3645 C 345.966 1.3909 -1.36671 0
M  V30 3646 O 345.236 1.88978 -0.516152 0
M  V30 3647 H 343.816 0.0277606 -0.746484 0
M  V30 3648 H 346.478 -0.636773 -1.84204 0
M  V30 3649 H 345.574 0.209484 -3.11396 0
M  V30 3650 N 345.875 1.56104 -0.216619 0
M  V30 3651 C 346.822 2.2007 0.695531 0
M  V30 3652 C 347.792 1.15471 1.19397 0
M  V30 3653 O 348.977 1.43807 1.25396 0
M  V30 3654 C 346.117 2.88073 1.90021 0
M  V30 3655 C 345.23 4.07253 1.44113 0
M  V30 3656 C 344.365 4.63052 2.603 0
M  V30 3657 C 343.404 5.74545 2.11103 0
M  V30 3658 N 342.541 6.24656 3.20545 0
M  V30 3659 H 347.381 2.97655 0.143327 0
M  V30 3660 H 344.918 1.46982 0.0589934 0
M  V30 3661 H 346.876 3.25681 2.60745 0
M  V30 3662 H 345.506 2.13015 2.42538 0
M  V30 3663 H 344.558 3.75164 0.628999 0
M  V30 3664 H 345.87 4.8783 1.04036 0
M  V30 3665 H 345.024 5.03078 3.39113 0
M  V30 3666 H 343.763 3.81628 3.03663 0
M  V30 3667 H 342.768 5.34027 1.3075 0
M  V30 3668 H 343.993 6.57801 1.68746 0
M  V30 3669 H 341.939 5.46148 3.63399 0
M  V30 3670 H 341.856 7.00343 2.84704 0
M  V30 3671 H 343.124 6.69338 3.99508 0
M  V30 3672 N 347.353 -0.0568162 1.57498 0
M  V30 3673 C 348.602 -0.752001 1.87157 0
M  V30 3674 C 348.915 -1.77978 0.811375 0
M  V30 3675 O 350.121 -2.52559 0.996293 0
M  V30 3676 C 348.577 -1.38844 3.3204 0
M  V30 3677 C 348.185 -0.398456 4.46225 0
M  V30 3678 C 349.929 -2.06512 3.70882 0
M  V30 3679 C 347.836 -1.04166 5.82154 0
M  V30 3680 H 346.766 -0.28461 0.698222 0
M  V30 3681 H 349.417 -0.00561272 1.83499 0
M  V30 3682 H 347.799 -2.1836 3.30356 0
M  V30 3683 H 348.973 0.367977 4.59328 0
M  V30 3684 H 347.288 0.174592 4.16034 0
M  V30 3685 H 349.885 -2.55437 4.6974 0
M  V30 3686 H 350.228 -2.87117 3.01445 0
M  V30 3687 H 350.761 -1.33808 3.7462 0
M  V30 3688 H 347.5 -0.275614 6.5492 0
M  V30 3689 H 347.02 -1.7786 5.72823 0
M  V30 3690 H 348.699 -1.55715 6.27982 0
M  V30 3691 N 348.832 -1.54138 -0.328536 0
M  V30 3692 C 350.081 -1.71318 -1.06456 0
M  V30 3693 C 350.394 -0.491109 -1.89334 0
M  V30 3694 O 351.6 -0.54416 -2.65991 0
M  V30 3695 C 350.056 -3.03 -1.94214 0
M  V30 3696 C 349.664 -4.32595 -1.16471 0
M  V30 3697 C 351.408 -3.29544 -2.67583 0
M  V30 3698 C 349.315 -5.55341 -2.03347 0
M  V30 3699 H 348.245 -0.638429 -0.401155 0
M  V30 3700 H 350.896 -1.80633 -0.323106 0
M  V30 3701 H 349.278 -2.87579 -2.72239 0
M  V30 3702 H 350.452 -4.58766 -0.432525 0
M  V30 3703 H 348.767 -4.12777 -0.548063 0
M  V30 3704 H 351.364 -4.18444 -3.3288 0
M  V30 3705 H 351.707 -2.47206 -3.34955 0
M  V30 3706 H 352.24 -3.45809 -1.96623 0
M  V30 3707 H 348.979 -6.40268 -1.40491 0
M  V30 3708 H 348.499 -5.33397 -2.74313 0
M  V30 3709 H 350.178 -5.91557 -2.62049 0
M  V30 3710 N 350.31 0.590341 -1.46126 0
M  V30 3711 C 351.257 1.69994 -1.56111 0
M  V30 3712 C 352.227 1.61065 -0.405867 0
M  V30 3713 O 353.412 1.8039 -0.621613 0
M  V30 3714 C 350.552 3.08326 -1.55013 0
M  V30 3715 C 349.665 3.27936 -2.81215 0
M  V30 3716 C 348.8 4.56473 -2.71673 0
M  V30 3717 C 347.839 4.694 -3.92849 0
M  V30 3718 N 346.976 5.89254 -3.81738 0
M  V30 3719 H 351.816 1.60797 -2.50895 0
M  V30 3720 H 349.353 0.783799 -1.24479 0
M  V30 3721 H 351.311 3.88383 -1.52362 0
M  V30 3722 H 349.941 3.16439 -0.637667 0
M  V30 3723 H 348.993 2.41536 -2.93879 0
M  V30 3724 H 350.305 3.33357 -3.71045 0
M  V30 3725 H 349.459 5.44748 -2.67085 0
M  V30 3726 H 348.198 4.53477 -1.7947 0
M  V30 3727 H 347.203 3.79544 -3.97777 0
M  V30 3728 H 348.428 4.7418 -4.86138 0
M  V30 3729 H 346.374 5.87271 -2.92317 0
M  V30 3730 H 346.291 5.95911 -4.65217 0
M  V30 3731 H 347.559 6.79981 -3.81112 0
M  V30 3732 N 351.788 1.33704 0.83433 0
M  V30 3733 C 352.698 1.26382 1.97648 0
M  V30 3734 C 353.714 0.173548 1.73132 0
M  V30 3735 O 354.89 0.397962 1.97429 0
M  V30 3736 C 351.955 1.00769 3.31733 0
M  V30 3737 C 351.016 2.1884 3.69334 0
M  V30 3738 C 350.249 1.9444 4.9702 0
M  V30 3739 O 350.472 0.896961 5.63303 0
M  V30 3740 O 349.406 2.81093 5.32231 0
M  V30 3741 H 353.232 2.22444 2.06767 0
M  V30 3742 H 350.817 1.13795 0.968037 0
M  V30 3743 H 352.699 0.882186 4.12062 0
M  V30 3744 H 351.374 0.0773783 3.23608 0
M  V30 3745 H 350.281 2.36946 2.89495 0
M  V30 3746 H 351.614 3.10221 3.82131 0
M  V30 3747 N 353.266 -1.05314 1.17247 0
M  V30 3748 C 354.512 -1.78557 0.961513 0
M  V30 3749 C 354.845 -1.87419 -0.508697 0
M  V30 3750 O 354.12 -1.37307 -1.37757 0
M  V30 3751 C 354.403 -3.22514 1.60176 0
M  V30 3752 C 354.256 -3.21673 3.14399 0
M  V30 3753 C 355.575 -4.20318 1.30463 0
M  V30 3754 H 352.694 -0.6482 0.350723 0
M  V30 3755 H 355.336 -1.23102 1.44727 0
M  V30 3756 H 353.486 -3.69867 1.18871 0
M  V30 3757 H 355.158 -2.82405 3.64753 0
M  V30 3758 H 353.401 -2.60048 3.47214 0
M  V30 3759 H 354.072 -4.23271 3.54324 0
M  V30 3760 H 356.548 -3.81454 1.66229 0
M  V30 3761 H 355.424 -5.19289 1.77848 0
M  V30 3762 H 355.685 -4.41526 0.22521 0
M  V30 3763 N 354.744 -0.972509 -1.24016 0
M  V30 3764 C 356.155 -0.67517 -1.74064 0
M  V30 3765 C 356.506 0.808939 -1.78747 0
M  V30 3766 O 355.631 1.63286 -1.42009 0
M  V30 3767 C 356.226 -1.21889 -3.16115 0
M  V30 3768 C 354.785 -0.971358 -3.6365 0
M  V30 3769 C 353.932 -1.35134 -2.42145 0
M  V30 3770 H 356.883 -1.14727 -1.09651 0
M  V30 3771 H 356.904 -0.587489 -3.75937 0
M  V30 3772 H 356.416 -2.29906 -3.12674 0
M  V30 3773 H 354.517 0.0930686 -3.72484 0
M  V30 3774 H 354.63 -1.62039 -4.50866 0
M  V30 3775 H 352.994 -0.769751 -2.4279 0
M  V30 3776 H 353.777 -2.4411 -2.41381 0
M  V30 3777 N 356.222 1.38976 -0.743202 0
M  V30 3778 C 357.152 2.33171 -0.123873 0
M  V30 3779 C 358.133 1.54336 0.71516 0
M  V30 3780 O 359.318 1.82696 0.658467 0
M  V30 3781 C 356.448 3.38474 0.777978 0
M  V30 3782 C 355.402 4.27979 0.0424758 0
M  V30 3783 C 354.728 5.2405 1.06189 0
M  V30 3784 C 356.028 5.10155 -1.1198 0
M  V30 3785 H 357.722 2.85213 -0.910709 0
M  V30 3786 H 355.268 1.37133 -0.439388 0
M  V30 3787 H 357.221 4.03328 1.22084 0
M  V30 3788 H 355.945 2.84891 1.59702 0
M  V30 3789 H 354.604 3.64616 -0.380853 0
M  V30 3790 H 354.252 4.66758 1.87472 0
M  V30 3791 H 353.952 5.84785 0.574485 0
M  V30 3792 H 355.476 5.9178 1.50428 0
M  V30 3793 H 356.89 5.68307 -0.75499 0
M  V30 3794 H 355.287 5.80073 -1.53738 0
M  V30 3795 H 356.357 4.44504 -1.93764 0
M  V30 3796 N 357.7 0.491464 1.49741 0
M  V30 3797 C 358.925 -0.0557177 2.07325 0
M  V30 3798 C 359.35 -1.30925 1.35056 0
M  V30 3799 O 358.708 -1.76733 0.404365 0
M  V30 3800 C 358.756 -0.302074 3.59333 0
M  V30 3801 O 357.86 -1.37868 3.88672 0
M  V30 3802 H 357.201 0.0219956 0.663636 0
M  V30 3803 H 359.731 0.688352 1.92673 0
M  V30 3804 H 359.741 -0.536464 4.04458 0
M  V30 3805 H 358.416 0.61383 4.11345 0
M  V30 3806 H 356.993 -1.12999 3.55367 0
M  V30 3807 N 359.178 -1.55987 0.224894 0
M  V30 3808 C 360.424 -1.98684 -0.406502 0
M  V30 3809 C 360.757 -1.11248 -1.59177 0
M  V30 3810 O 360.032 -0.170909 -1.93748 0
M  V30 3811 C 360.315 -3.50218 -0.837808 0
M  V30 3812 C 360.168 -4.48426 0.351332 0
M  V30 3813 C 361.487 -4.06243 -1.69278 0
M  V30 3814 H 358.606 -0.722337 -0.146283 0
M  V30 3815 H 361.248 -1.87255 0.321799 0
M  V30 3816 H 359.398 -3.60089 -1.45837 0
M  V30 3817 H 361.07 -4.50562 0.989526 0
M  V30 3818 H 359.313 -4.22159 0.998207 0
M  V30 3819 H 359.984 -5.52 0.00655905 0
M  V30 3820 H 362.46 -3.99337 -1.16914 0
M  V30 3821 H 361.336 -5.12581 -1.96346 0
M  V30 3822 H 361.597 -3.53332 -2.65723 0
M  V30 3823 N 360.656 0.0484629 -1.57525 0
M  V30 3824 C 361.884 0.755421 -1.92616 0
M  V30 3825 C 362.299 1.69919 -0.822984 0
M  V30 3826 O 361.656 1.81378 0.202085 0
M  V30 3827 C 361.707 1.52915 -3.27566 0
M  V30 3828 O 361.428 0.62329 -4.33644 0
M  V30 3829 C 362.929 2.33502 -3.76818 0
M  V30 3830 H 360.149 0.213465 -0.63614 0
M  V30 3831 H 362.693 0.0117698 -2.04497 0
M  V30 3832 H 360.848 2.22486 -3.17142 0
M  V30 3833 H 361.262 1.16383 -5.11425 0
M  V30 3834 H 362.736 2.83214 -4.73808 0
M  V30 3835 H 363.213 3.14068 -3.07014 0
M  V30 3836 H 363.819 1.69043 -3.90262 0
M  V30 3837 N 362.134 1.5431 0.320358 0
M  V30 3838 C 363.097 1.83195 1.3774 0
M  V30 3839 C 364.097 0.703906 1.44575 0
M  V30 3840 O 365.287 0.972214 1.44546 0
M  V30 3841 C 362.419 1.99487 2.76438 0
M  V30 3842 H 363.612 2.77642 1.1338 0
M  V30 3843 H 361.165 1.46076 0.556012 0
M  V30 3844 H 361.9 1.07262 3.06048 0
M  V30 3845 H 361.685 2.81575 2.7287 0
M  V30 3846 H 363.175 2.23271 3.52902 0
M  V30 3847 N 363.613 -0.582584 1.46437 0
M  V30 3848 C 364.838 -1.37168 1.55563 0
M  V30 3849 C 365.263 -1.87061 0.19743 0
M  V30 3850 O 364.621 -1.61572 -0.822451 0
M  V30 3851 C 364.669 -2.53511 2.56446 0
M  V30 3852 O 363.773 -3.54953 2.09958 0
M  V30 3853 H 363.114 -0.408494 0.523477 0
M  V30 3854 H 365.644 -0.706646 1.9201 0
M  V30 3855 H 365.654 -3.00426 2.76058 0
M  V30 3856 H 364.329 -2.16549 3.55076 0
M  V30 3857 H 362.906 -3.14516 2.00334 0
M  V30 3858 N 365.091 -1.34144 -0.827227 0
M  V30 3859 C 366.319 -1.29325 -1.61501 0
M  V30 3860 C 366.734 0.13354 -1.88327 0
M  V30 3861 O 366.091 1.0793 -1.47164 0
M  V30 3862 C 366.142 -2.07746 -2.95844 0
M  V30 3863 O 365.863 -3.4486 -2.70191 0
M  V30 3864 C 367.364 -2.10273 -3.90256 0
M  V30 3865 H 364.584 -0.445069 -0.50215 0
M  V30 3866 H 367.128 -1.76693 -1.02955 0
M  V30 3867 H 365.283 -1.6403 -3.5096 0
M  V30 3868 H 365.697 -3.85345 -3.55822 0
M  V30 3869 H 367.171 -2.69575 -4.81698 0
M  V30 3870 H 367.648 -1.096 -4.25305 0
M  V30 3871 H 368.254 -2.54059 -3.41078 0
M  V30 3872 N 366.569 1.04691 -1.17803 0
M  V30 3873 C 367.479 2.16057 -0.914151 0
M  V30 3874 C 368.495 1.73589 0.119503 0
M  V30 3875 O 369.671 2.01308 -0.0609468 0
M  V30 3876 C 366.736 3.4394 -0.436603 0
M  V30 3877 C 365.797 4.00825 -1.53746 0
M  V30 3878 C 365.03 5.22604 -1.0826 0
M  V30 3879 O 365.253 5.70367 0.0612244 0
M  V30 3880 O 364.187 5.7186 -1.87775 0
M  V30 3881 H 368.013 2.41169 -1.84584 0
M  V30 3882 H 365.598 1.1453 -0.959334 0
M  V30 3883 H 367.48 4.21024 -0.178057 0
M  V30 3884 H 366.155 3.20316 0.466869 0
M  V30 3885 H 365.062 3.25158 -1.84995 0
M  V30 3886 H 366.395 4.28778 -2.41683 0
M  V30 3887 N 368.047 0.979072 1.23499 0
M  V30 3888 C 369.324 0.563674 1.87302 0
M  V30 3889 C 369.704 -0.959199 1.88049 0
M  V30 3890 O 369.052 -1.83535 1.36114 0
M  V30 3891 C 369.262 1.16822 3.28867 0
M  V30 3892 C 370.61 1.26014 4.0547 0
M  V30 3893 O 371.634 1.12158 3.38082 0
M  V30 3894 O 370.493 1.48044 5.26066 0
M  V30 3895 H 367.587 0.189602 0.804972 0
M  V30 3896 H 370.133 1.07407 1.31384 0
M  V30 3897 H 368.905 2.21049 3.22883 0
M  V30 3898 H 368.528 0.642564 3.92373 0
M  V30 3899 N 369.525 -1.3858 0.750561 0
M  V30 3900 C 370.472 -2.30483 0.120835 0
M  V30 3901 C 371.442 -1.50022 -0.712923 0
M  V30 3902 O 372.627 -1.78662 -0.669676 0
M  V30 3903 C 369.767 -3.36431 -0.768666 0
M  V30 3904 C 368.88 -4.31927 0.0793922 0
M  V30 3905 C 368.015 -5.24944 -0.81283 0
M  V30 3906 C 367.054 -6.12088 0.0390447 0
M  V30 3907 N 366.191 -6.97412 -0.809969 0
M  V30 3908 H 371.031 -2.83761 0.91015 0
M  V30 3909 H 368.568 -1.39707 0.460463 0
M  V30 3910 H 370.526 -3.96462 -1.29898 0
M  V30 3911 H 369.156 -2.8457 -1.5238 0
M  V30 3912 H 368.208 -3.73382 0.727303 0
M  V30 3913 H 369.52 -4.93319 0.737401 0
M  V30 3914 H 368.674 -5.90078 -1.41042 0
M  V30 3915 H 367.413 -4.63911 -1.50458 0
M  V30 3916 H 366.418 -5.45952 0.649328 0
M  V30 3917 H 367.643 -6.75189 0.727809 0
M  V30 3918 H 365.589 -6.38931 -1.48672 0
M  V30 3919 H 365.506 -7.55712 -0.208789 0
M  V30 3920 H 366.774 -7.66959 -1.39263 0
M  V30 3921 N 371.003 -0.499398 -1.49478 0
M  V30 3922 C 372.25 0.0456899 -2.02448 0
M  V30 3923 C 372.578 1.37142 -1.37921 0
M  V30 3924 O 371.833 1.89111 -0.503544 0
M  V30 3925 C 372.132 0.248424 -3.56536 0
M  V30 3926 C 371.798 -0.999107 -4.39692 0
M  V30 3927 C 370.46 -1.34108 -4.62135 0
M  V30 3928 C 372.812 -1.82842 -4.88076 0
M  V30 3929 C 370.14 -2.51191 -5.30208 0
M  V30 3930 C 372.492 -2.99076 -5.57437 0
M  V30 3931 C 371.156 -3.33655 -5.78127 0
M  V30 3932 H 370.426 0.0167191 -0.740811 0
M  V30 3933 H 373.073 -0.65923 -1.79795 0
M  V30 3934 H 371.378 1.03586 -3.77859 0
M  V30 3935 H 373.075 0.684605 -3.95113 0
M  V30 3936 H 369.665 -0.722729 -4.22463 0
M  V30 3937 H 373.849 -1.57737 -4.70566 0
M  V30 3938 H 369.105 -2.78221 -5.44429 0
M  V30 3939 H 373.279 -3.63664 -5.93904 0
M  V30 3940 H 370.906 -4.24483 -6.30649 0
M  V30 3941 N 372.481 1.55866 -0.233164 0
M  V30 3942 C 373.709 2.02998 0.399905 0
M  V30 3943 C 374.124 1.11274 1.52524 0
M  V30 3944 O 373.481 0.124528 1.82075 0
M  V30 3945 C 373.532 3.4958 0.920639 0
M  V30 3946 O 373.253 4.37808 -0.159834 0
M  V30 3947 C 374.754 4.12411 1.62578 0
M  V30 3948 H 371.974 0.664006 0.0966281 0
M  V30 3949 H 374.518 2.0143 -0.353013 0
M  V30 3950 H 372.673 3.51727 1.62379 0
M  V30 3951 H 373.087 5.23981 0.23337 0
M  V30 3952 H 374.561 5.16711 1.94201 0
M  V30 3953 H 375.038 3.5809 2.54299 0
M  V30 3954 H 375.644 4.14148 0.967553 0
M  V30 3955 N 373.959 -0.0401083 1.57549 0
M  V30 3956 C 374.906 -1.04413 2.05831 0
M  V30 3957 C 375.876 -1.36585 0.945184 0
M  V30 3958 O 377.061 -1.47112 1.21502 0
M  V30 3959 C 374.201 -2.34336 2.53339 0
M  V30 3960 C 373.314 -2.08419 3.78398 0
M  V30 3961 C 372.449 -3.32133 4.14561 0
M  V30 3962 C 371.488 -3.01721 5.3257 0
M  V30 3963 N 370.625 -4.17855 5.64218 0
M  V30 3964 H 375.465 -0.625442 2.91363 0
M  V30 3965 H 373.002 -0.297218 1.44066 0
M  V30 3966 H 374.96 -3.10234 2.78946 0
M  V30 3967 H 373.59 -2.73948 1.7074 0
M  V30 3968 H 372.642 -1.23069 3.59942 0
M  V30 3969 H 373.954 -1.81978 4.64419 0
M  V30 3970 H 373.108 -4.16406 4.41238 0
M  V30 3971 H 371.847 -3.61678 3.2717 0
M  V30 3972 H 370.852 -2.15849 5.05657 0
M  V30 3973 H 372.077 -2.73466 6.21605 0
M  V30 3974 H 370.023 -4.47372 4.79786 0
M  V30 3975 H 369.94 -3.94798 6.44725 0
M  V30 3976 H 371.208 -5.03033 5.95465 0
M  V30 3977 N 375.437 -1.54477 -0.31217 0
M  V30 3978 C 376.367 -1.87652 -1.38957 0
M  V30 3979 C 377.348 -0.734358 -1.53431 0
M  V30 3980 O 378.533 -0.98911 -1.67123 0
M  V30 3981 C 375.663 -2.11396 -2.75552 0
M  V30 3982 C 374.617 -3.27243 -2.75855 0
M  V30 3983 C 373.943 -3.36382 -4.15633 0
M  V30 3984 C 375.243 -4.64622 -2.38587 0
M  V30 3985 H 376.937 -2.77887 -1.11442 0
M  V30 3986 H 374.483 -1.33707 -0.534655 0
M  V30 3987 H 376.436 -2.33189 -3.51 0
M  V30 3988 H 375.16 -1.17921 -3.04569 0
M  V30 3989 H 373.819 -3.05356 -2.02863 0
M  V30 3990 H 373.467 -2.40445 -4.41809 0
M  V30 3991 H 373.167 -4.14249 -4.1674 0
M  V30 3992 H 374.691 -3.60422 -4.92877 0
M  V30 3993 H 376.105 -4.86219 -3.03749 0
M  V30 3994 H 374.502 -5.45121 -2.50925 0
M  V30 3995 H 375.572 -4.66097 -1.33723 0
M  V30 3996 N 376.915 0.57481 -1.46744 0
M  V30 3997 C 377.845 1.69337 -1.60771 0
M  V30 3998 C 378.826 1.63825 -0.457736 0
M  V30 3999 O 380.011 1.8172 -0.684947 0
M  V30 4000 C 377.141 3.0798 -1.60517 0
M  V30 4001 C 376.095 3.28327 -2.74564 0
M  V30 4002 C 375.421 4.67578 -2.59373 0
M  V30 4003 C 376.721 3.15398 -4.16319 0
M  V30 4004 H 378.415 1.57853 -2.54407 0
M  V30 4005 H 375.961 0.75799 -1.22436 0
M  V30 4006 H 377.914 3.86061 -1.68923 0
M  V30 4007 H 376.638 3.20381 -0.634305 0
M  V30 4008 H 375.297 2.52649 -2.65639 0
M  V30 4009 H 374.945 4.76755 -1.60353 0
M  V30 4010 H 374.645 4.82144 -3.35873 0
M  V30 4011 H 376.169 5.47817 -2.69682 0
M  V30 4012 H 377.583 3.83315 -4.26313 0
M  V30 4013 H 375.98 3.41482 -4.93468 0
M  V30 4014 H 377.05 2.12372 -4.3592 0
M  V30 4015 N 378.394 1.34581 0.820102 0
M  V30 4016 C 379.671 1.17675 1.56244 0
M  V30 4017 C 380.051 -0.249541 2.0962 0
M  V30 4018 O 379.399 -1.25125 1.91196 0
M  V30 4019 C 379.609 2.23364 2.6816 0
M  V30 4020 C 380.957 2.58485 3.36854 0
M  V30 4021 O 381.981 2.22175 2.78418 0
M  V30 4022 O 380.84 3.20868 4.42386 0
M  V30 4023 H 377.934 0.456333 0.689702 0
M  V30 4024 H 380.48 1.46222 0.861231 0
M  V30 4025 H 379.252 3.19087 2.26493 0
M  V30 4026 H 378.875 1.96009 3.45928 0
M  V30 4027 N 379.872 -1.04064 1.18357 0
M  V30 4028 C 380.819 -2.12077 0.910603 0
M  V30 4029 C 381.789 -1.65421 -0.15 0
M  V30 4030 O 382.974 -1.90797 -0.0103614 0
M  V30 4031 C 380.114 -3.42252 0.442472 0
M  V30 4032 C 379.227 -4.0252 1.5685 0
M  V30 4033 C 378.362 -5.20657 1.05309 0
M  V30 4034 C 377.401 -5.72955 2.1538 0
M  V30 4035 N 376.538 -6.8238 1.65233 0
M  V30 4036 H 381.378 -2.34764 1.83548 0
M  V30 4037 H 378.915 -1.15157 0.915279 0
M  V30 4038 H 380.873 -4.16921 0.152534 0
M  V30 4039 H 379.503 -3.19712 -0.445428 0
M  V30 4040 H 378.555 -3.25178 1.97391 0
M  V30 4041 H 379.867 -4.37362 2.39824 0
M  V30 4042 H 379.021 -6.0244 0.717677 0
M  V30 4043 H 377.76 -4.87318 0.19293 0
M  V30 4044 H 376.765 -4.89793 2.49766 0
M  V30 4045 H 377.99 -6.08337 3.01832 0
M  V30 4046 H 375.936 -6.50917 0.815064 0
M  V30 4047 H 375.853 -7.16286 2.41805 0
M  V30 4048 H 377.121 -7.67788 1.34619 0
M  V30 4049 N 381.35 -0.985608 -1.22978 0
M  V30 4050 C 382.596 -0.667998 -1.92118 0
M  V30 4051 C 382.951 0.790454 -1.75413 0
M  V30 4052 O 382.244 1.56336 -1.10768 0
M  V30 4053 C 382.438 -1.00014 -3.43121 0
M  V30 4054 C 382.267 -2.48933 -3.74516 0
M  V30 4055 C 381.037 -3.15218 -3.94925 0
M  V30 4056 C 383.235 -3.47024 -3.79577 0
M  V30 4057 N 381.217 -4.53689 -4.13569 0
M  V30 4058 C 382.588 -4.70923 -4.03276 0
M  V30 4059 C 384.643 -3.41432 -3.62393 0
M  V30 4060 C 383.346 -5.89914 -4.11574 0
M  V30 4061 C 385.372 -4.59793 -3.71947 0
M  V30 4062 C 384.734 -5.82489 -3.96088 0
M  V30 4063 H 380.833 -0.295589 -0.723983 0
M  V30 4064 H 383.417 -1.26413 -1.4808 0
M  V30 4065 H 381.588 -0.432655 -3.85983 0
M  V30 4066 H 383.32 -0.63927 -3.99619 0
M  V30 4067 H 380.075 -2.65702 -3.92045 0
M  V30 4068 H 380.499 -5.25492 -4.26834 0
M  V30 4069 H 385.141 -2.47594 -3.4272 0
M  V30 4070 H 382.859 -6.84164 -4.30053 0
M  V30 4071 H 386.445 -4.57048 -3.59998 0
M  V30 4072 H 385.325 -6.72546 -4.033 0
M  V30 4073 N 382.828 1.3818 -0.7579 0
M  V30 4074 C 383.776 2.32277 -0.122482 0
M  V30 4075 C 384.77 1.54238 0.700505 0
M  V30 4076 O 385.976 1.69737 0.599119 0
M  V30 4077 H 382.351 0.751712 -0.0208143 0
M  V30 4078 H 384.322 2.83469 -0.932099 0
M  V30 4079 C 383.071 3.39447 0.753076 0
M  V30 4080 H 382.394 3.99591 0.129184 0
M  V30 4081 H 383.834 4.07684 1.16489 0
M  V30 4082 C 382.293 2.78375 1.8976 0
M  V30 4083 O 382.823 2.68025 2.99208 0
M  V30 4084 N 381.029 2.36121 1.69397 0
M  V30 4085 H 380.576 2.4474 0.803762 0
M  V30 4086 H 380.534 1.95602 2.46145 0
M  V30 4087 N 384.306 0.507319 1.49211 0
M  V30 4088 C 385.583 -0.0982702 1.95353 0
M  V30 4089 C 385.963 -1.53516 1.449 0
M  V30 4090 O 385.311 -2.18594 0.66551 0
M  V30 4091 C 385.521 -0.00440283 3.49 0
M  V30 4092 C 386.869 -0.175147 4.24239 0
M  V30 4093 O 387.893 -0.0792891 3.56112 0
M  V30 4094 O 386.752 -0.37276 5.45227 0
M  V30 4095 H 383.846 -0.0918236 0.821887 0
M  V30 4096 H 386.392 0.570307 1.5983 0
M  V30 4097 H 385.164 0.997402 3.78375 0
M  V30 4098 H 384.787 -0.712845 3.91158 0
M  V30 4099 N 385.784 -1.5574 0.241426 0
M  V30 4100 C 387.03 -1.99104 -0.385406 0
M  V30 4101 C 387.363 -1.1293 -1.57988 0
M  V30 4102 O 386.638 -0.191449 -1.93555 0
M  V30 4103 C 386.921 -3.51087 -0.800616 0
M  V30 4104 C 386.774 -4.48028 0.398874 0
M  V30 4105 C 388.093 -4.08015 -1.64959 0
M  V30 4106 H 385.212 -0.723848 -0.138614 0
M  V30 4107 H 387.854 -1.86903 0.341642 0
M  V30 4108 H 386.004 -3.61615 -1.4201 0
M  V30 4109 H 387.676 -4.49487 1.03726 0
M  V30 4110 H 385.919 -4.21077 1.04293 0
M  V30 4111 H 386.59 -5.51962 0.0651056 0
M  V30 4112 H 389.066 -4.00555 -1.12672 0
M  V30 4113 H 387.942 -5.14635 -1.90898 0
M  V30 4114 H 388.203 -3.56131 -2.61961 0
M  V30 4115 N 387.262 0.0317525 -1.57568 0
M  V30 4116 C 388.49 0.734949 -1.93407 0
M  V30 4117 C 388.905 1.69036 -0.84096 0
M  V30 4118 O 388.262 1.81582 0.182836 0
M  V30 4119 C 388.313 1.49432 -3.29169 0
M  V30 4120 O 388.034 0.577261 -4.3428 0
M  V30 4121 C 389.535 2.29492 -3.79273 0
M  V30 4122 H 386.755 0.206706 -0.638368 0
M  V30 4123 H 389.299 -0.00992046 -2.04498 0
M  V30 4124 H 387.454 2.1911 -3.19483 0
M  V30 4125 H 387.868 1.10952 -5.1263 0
M  V30 4126 H 389.342 2.78172 -4.76785 0
M  V30 4127 H 389.819 3.10794 -3.10328 0
M  V30 4128 H 390.425 1.64894 -3.92033 0
M  V30 4129 N 388.74 1.54641 0.303973 0
M  V30 4130 C 389.989 1.7299 1.03717 0
M  V30 4131 C 390.302 0.521168 1.88529 0
M  V30 4132 O 391.508 0.586408 2.65092 0
M  V30 4133 C 389.964 3.06051 1.89369 0
M  V30 4134 C 389.572 4.34393 1.09574 0
M  V30 4135 C 391.316 3.3376 2.62306 0
M  V30 4136 C 389.223 5.58506 1.94486 0
M  V30 4137 H 388.153 0.64473 0.390947 0
M  V30 4138 H 390.804 1.81124 0.294328 0
M  V30 4139 H 389.186 2.91874 2.67629 0
M  V30 4140 H 390.36 4.59396 0.359485 0
M  V30 4141 H 388.675 4.13597 0.482324 0
M  V30 4142 H 391.272 4.23687 3.26181 0
M  V30 4143 H 391.615 2.52503 3.3098 0
M  V30 4144 H 392.148 3.48894 1.91097 0
M  V30 4145 H 388.887 6.42422 1.30287 0
M  V30 4146 H 388.407 5.37694 2.65792 0
M  V30 4147 H 390.086 5.95651 2.52605 0
M  V30 4148 N 390.218 -0.567019 1.47046 0
M  V30 4149 C 391.466 -1.322 1.52864 0
M  V30 4150 C 391.787 -1.94088 0.188388 0
M  V30 4151 O 391.057 -1.7941 -0.786693 0
M  V30 4152 H 389.637 -0.490894 0.563056 0
M  V30 4153 H 392.299 -0.662879 1.83281 0
M  V30 4154 H 391.395 -2.12062 2.2899 0
M  V30 4155 N 391.696 -1.35014 -0.812953 0
M  V30 4156 C 392.644 -1.27435 -1.94585 0
M  V30 4157 C 393.638 -0.170494 -1.6854 0
M  V30 4158 O 394.844 -0.336085 -1.76835 0
M  V30 4159 H 391.219 -0.396144 -0.639198 0
M  V30 4160 H 393.19 -2.23158 -1.98098 0
M  V30 4161 C 391.939 -1.05677 -3.31252 0
M  V30 4162 H 391.262 -1.89853 -3.51846 0
M  V30 4163 H 392.702 -1.04413 -4.10943 0
M  V30 4164 C 391.161 0.239615 -3.36047 0
M  V30 4165 O 391.691 1.23759 -3.8216 0
M  V30 4166 N 389.897 0.276186 -2.89285 0
M  V30 4167 H 389.444 -0.53653 -2.51951 0
M  V30 4168 H 389.402 1.14332 -2.92875 0
M  V30 4169 N 393.175 1.03435 -1.18907 0
M  V30 4170 C 394.125 2.09924 -0.889706 0
M  V30 4171 C 395.109 1.60261 0.143216 0
M  V30 4172 O 396.301 1.76892 -0.0617122 0
M  V30 4173 C 393.43 3.40669 -0.424168 0
M  V30 4174 C 392.516 3.97082 -1.48952 0
M  V30 4175 N 392.907 4.27227 -2.70759 0
M  V30 4176 C 391.205 4.25029 -1.35152 0
M  V30 4177 C 391.906 4.7246 -3.39347 0
M  V30 4178 N 390.882 4.7366 -2.66735 0
M  V30 4179 H 394.684 2.31116 -1.81555 0
M  V30 4180 H 392.198 1.21246 -1.08042 0
M  V30 4181 H 394.195 4.16461 -0.191176 0
M  V30 4182 H 392.855 3.20901 0.495263 0
M  V30 4183 H 393.866 4.16678 -3.0757 0
M  V30 4184 H 390.543 4.14554 -0.495126 0
M  V30 4185 H 391.933 5.04751 -4.43481 0
M  V30 4186 N 394.653 0.992116 1.22453 0
M  V30 4187 C 395.899 0.668523 1.91464 0
M  V30 4188 C 396.232 -0.797313 1.77078 0
M  V30 4189 O 395.507 -1.5765 1.13916 0
M  V30 4190 C 395.79 1.07424 3.43703 0
M  V30 4191 C 395.643 2.59857 3.67143 0
M  V30 4192 C 396.962 0.626891 4.35612 0
M  V30 4193 H 394.081 0.244341 0.695318 0
M  V30 4194 H 396.723 1.2355 1.44345 0
M  V30 4195 H 394.873 0.591816 3.83966 0
M  V30 4196 H 396.545 3.15764 3.3629 0
M  V30 4197 H 394.788 3.01961 3.11451 0
M  V30 4198 H 395.459 2.83296 4.73759 0
M  V30 4199 H 397.935 1.04125 4.02861 0
M  V30 4200 H 396.811 0.939076 5.40807 0
M  V30 4201 H 397.072 -0.472457 4.39568 0
M  V30 4202 N 396.131 -1.37776 0.765217 0
M  V30 4203 C 397.361 -2.03828 0.337277 0
M  V30 4204 C 397.769 -1.57841 -1.04321 0
M  V30 4205 O 397.112 -0.752043 -1.67601 0
M  V30 4206 C 397.174 -3.58292 0.294407 0
M  V30 4207 C 396.838 -4.27384 1.61838 0
M  V30 4208 C 397.835 -4.51956 2.56967 0
M  V30 4209 C 395.52 -4.65345 1.89102 0
M  V30 4210 C 397.514 -5.13536 3.77571 0
M  V30 4211 C 395.201 -5.26647 3.09978 0
M  V30 4212 C 396.199 -5.50679 4.04032 0
M  V30 4213 O 395.887 -6.10702 5.2278 0
M  V30 4214 H 395.619 -0.661292 0.140248 0
M  V30 4215 H 398.173 -1.77222 1.03834 0
M  V30 4216 H 396.403 -3.83918 -0.462983 0
M  V30 4217 H 398.092 -4.05763 -0.105581 0
M  V30 4218 H 398.858 -4.23048 2.37183 0
M  V30 4219 H 394.737 -4.45978 1.16725 0
M  V30 4220 H 398.281 -5.3221 4.50997 0
M  V30 4221 H 394.178 -5.54979 3.29649 0
M  V30 4222 H 394.946 -6.29183 5.23517 0
M  V30 4223 N 397.609 -0.515225 -1.4894 0
M  V30 4224 C 398.886 0.0879088 -1.95402 0
M  V30 4225 C 399.266 1.52745 -1.45712 0
M  V30 4226 O 398.614 2.18238 -0.677093 0
M  V30 4227 C 398.824 -0.0141055 -3.48997 0
M  V30 4228 C 400.172 0.152646 -4.24326 0
M  V30 4229 O 401.196 0.0604025 -3.56149 0
M  V30 4230 O 400.055 0.34384 -5.45417 0
M  V30 4231 H 397.149 0.0874636 -0.822362 0
M  V30 4232 H 399.695 -0.578775 -1.59525 0
M  V30 4233 H 398.467 -1.01745 -3.77841 0
M  V30 4234 H 398.09 0.692091 -3.9153 0
M  V30 4235 N 399.087 1.5561 -0.249682 0
M  V30 4236 C 400.315 2.03411 0.378352 0
M  V30 4237 C 400.73 1.12886 1.51335 0
M  V30 4238 O 400.087 0.143833 1.81932 0
M  V30 4239 C 400.138 3.50537 0.88351 0
M  V30 4240 O 399.859 4.37614 -0.20626 0
M  V30 4241 C 401.36 4.14113 1.58195 0
M  V30 4242 H 398.58 0.664994 0.08958 0
M  V30 4243 H 401.124 2.01044 -0.374357 0
M  V30 4244 H 399.279 3.5343 1.58639 0
M  V30 4245 H 399.693 5.24199 0.177782 0
M  V30 4246 H 401.167 5.18741 1.8871 0
M  V30 4247 H 401.644 3.60767 2.50487 0
M  V30 4248 H 402.25 4.15151 0.923573 0
M  V30 4249 N 400.565 -0.0233959 1.57583 0
M  V30 4250 C 401.513 -1.04063 2.08023 0
M  V30 4251 C 402.507 -1.37084 0.995204 0
M  V30 4252 O 403.713 -1.35923 1.18004 0
M  V30 4253 H 400.088 -0.353144 0.663922 0
M  V30 4254 H 402.059 -0.589453 2.9252 0
M  V30 4255 C 400.808 -2.33123 2.57971 0
M  V30 4256 H 400.131 -2.08577 3.4108 0
M  V30 4257 H 401.571 -3.02632 2.96967 0
M  V30 4258 C 400.03 -3.02483 1.48342 0
M  V30 4259 O 400.56 -3.92541 0.852898 0
M  V30 4260 N 398.766 -2.63909 1.21658 0
M  V30 4261 H 398.313 -1.90758 1.73116 0
M  V30 4262 H 398.271 -3.10633 0.485218 0
M  V30 4263 N 402.043 -1.548 -0.295768 0
M  V30 4264 C 403.32 -1.65014 -1.05023 0
M  V30 4265 C 403.7 -0.501805 -2.05049 0
M  V30 4266 O 403.048 0.500869 -2.22943 0
M  V30 4267 C 403.258 -3.03252 -1.72741 0
M  V30 4268 C 404.606 -3.60242 -2.24746 0
M  V30 4269 O 405.63 -3.05737 -1.82765 0
M  V30 4270 O 404.489 -4.55687 -3.01681 0
M  V30 4271 H 401.583 -0.669314 -0.485744 0
M  V30 4272 H 404.129 -1.67144 -0.293438 0
M  V30 4273 H 402.901 -3.7827 -1.00138 0
M  V30 4274 H 402.524 -3.04922 -2.55163 0
M  V30 4275 N 403.521 0.559213 -1.47345 0
M  V30 4276 C 404.746 1.34676 -1.57725 0
M  V30 4277 C 405.171 1.86723 -0.227164 0
M  V30 4278 O 404.529 1.6286 0.796642 0
M  V30 4279 C 404.577 2.49399 -2.60447 0
M  V30 4280 O 403.681 3.51567 -2.15578 0
M  V30 4281 H 403.022 0.400115 -0.52991 0
M  V30 4282 H 405.552 0.676009 -1.93109 0
M  V30 4283 H 405.562 2.95996 -2.80803 0
M  V30 4284 H 404.237 2.10873 -3.58477 0
M  V30 4285 H 402.814 3.11289 -2.05313 0
M  V30 4286 N 404.999 1.35443 0.805782 0
M  V30 4287 C 405.947 1.28465 1.93906 0
M  V30 4288 C 406.941 0.17943 1.68447 0
M  V30 4289 O 408.147 0.345459 1.76654 0
M  V30 4290 H 404.522 0.399528 0.637088 0
M  V30 4291 H 406.493 2.24206 1.96912 0
M  V30 4292 C 405.242 1.07432 3.30687 0
M  V30 4293 H 404.565 1.91716 3.50835 0
M  V30 4294 H 406.005 1.06591 4.10383 0
M  V30 4295 C 404.464 -0.22179 3.36169 0
M  V30 4296 O 404.994 -1.21731 3.82811 0
M  V30 4297 N 403.2 -0.260841 2.89427 0
M  V30 4298 H 402.747 0.549884 2.51663 0
M  V30 4299 H 402.705 -1.12777 2.93477 0
M  V30 4300 N 406.477 -1.02803 1.19454 0
M  V30 4301 C 407.41 -2.107 0.876396 0
M  V30 4302 C 408.388 -1.61741 -0.166897 0
M  V30 4303 O 409.572 -1.88451 -0.0430195 0
M  V30 4304 C 406.699 -3.37262 0.311758 0
M  V30 4305 C 405.745 -4.05093 1.33424 0
M  V30 4306 S 406.578 -4.50498 2.89503 0
M  V30 4307 C 407.734 -5.80277 2.34584 0
M  V30 4308 H 407.967 -2.37362 1.79016 0
M  V30 4309 H 405.5 -1.15755 1.02177 0
M  V30 4310 H 407.458 -4.10499 -0.00748752 0
M  V30 4311 H 406.119 -3.08693 -0.58032 0
M  V30 4312 H 405.312 -4.9611 0.888302 0
M  V30 4313 H 404.914 -3.3803 1.60037 0
M  V30 4314 H 407.206 -6.54873 1.73633 0
M  V30 4315 H 408.149 -6.29651 3.23952 0
M  V30 4316 H 408.557 -5.3599 1.77131 0
M  V30 4317 N 407.956 -0.998596 -1.21925 0
M  V30 4318 C 408.888 -0.511879 -2.23411 0
M  V30 4319 C 409.901 0.396094 -1.57908 0
M  V30 4320 O 411.09 0.197316 -1.77406 0
M  V30 4321 C 408.19 0.276802 -3.37768 0
M  V30 4322 C 407.363 -0.628687 -4.32858 0
M  V30 4323 C 406.422 0.109272 -5.26087 0
M  V30 4324 O 405.448 -0.507237 -5.66935 0
M  V30 4325 N 406.65 1.38983 -5.63617 0
M  V30 4326 H 409.415 -1.38457 -2.658 0
M  V30 4327 H 406.976 -0.873981 -1.36283 0
M  V30 4328 H 408.968 0.77928 -3.97126 0
M  V30 4329 H 407.538 1.05063 -2.94415 0
M  V30 4330 H 406.758 -1.31175 -3.71735 0
M  V30 4331 H 408.046 -1.24514 -4.93329 0
M  V30 4332 H 407.444 1.91194 -5.32411 0
M  V30 4333 H 406.001 1.83739 -6.25367 0
M  V30 4334 N 409.434 1.37368 -0.772513 0
M  V30 4335 C 410.381 2.30262 -0.157488 0
M  V30 4336 C 411.351 1.51137 0.688965 0
M  V30 4337 O 412.536 1.79704 0.641168 0
M  V30 4338 C 409.676 3.37611 0.715045 0
M  V30 4339 C 408.789 4.31746 -0.148098 0
M  V30 4340 C 407.924 5.26171 0.729213 0
M  V30 4341 C 406.963 6.11948 -0.136418 0
M  V30 4342 N 406.1 6.98613 0.698914 0
M  V30 4343 H 410.94 2.82277 -0.955179 0
M  V30 4344 H 408.477 1.38957 -0.482631 0
M  V30 4345 H 410.435 3.98479 1.23575 0
M  V30 4346 H 409.065 2.86959 1.47833 0
M  V30 4347 H 408.117 3.72178 -0.786613 0
M  V30 4348 H 409.429 4.92084 -0.81579 0
M  V30 4349 H 408.583 5.92247 1.31637 0
M  V30 4350 H 407.322 4.66246 1.43059 0
M  V30 4351 H 406.327 5.4485 -0.736102 0
M  V30 4352 H 407.552 6.73945 -0.835134 0
M  V30 4353 H 405.498 6.41215 1.38489 0
M  V30 4354 H 405.415 7.55948 0.0885358 0
M  V30 4355 H 406.683 7.69077 1.27044 0
M  V30 4356 N 410.912 0.523116 1.48665 0
M  V30 4357 C 412.161 -0.01544 2.01694 0
M  V30 4358 C 412.474 -1.35975 1.40606 0
M  V30 4359 O 413.68 -1.98627 1.85093 0
M  V30 4360 C 412.136 -0.0779303 3.59816 0
M  V30 4361 C 411.744 1.26107 4.29885 0
M  V30 4362 C 413.488 -0.565678 4.20714 0
M  V30 4363 C 411.395 1.15954 5.79921 0
M  V30 4364 H 410.325 -0.00954163 0.75394 0
M  V30 4365 H 412.976 0.665865 1.70993 0
M  V30 4366 H 411.358 -0.824165 3.87329 0
M  V30 4367 H 412.532 2.02233 4.14051 0
M  V30 4368 H 410.847 1.68401 3.80828 0
M  V30 4369 H 413.444 -0.6595 5.30617 0
M  V30 4370 H 413.787 -1.56984 3.85567 0
M  V30 4371 H 414.32 0.12467 3.97605 0
M  V30 4372 H 411.059 2.13864 6.19631 0
M  V30 4373 H 410.579 0.439529 5.98187 0
M  V30 4374 H 412.258 0.847361 6.41427 0
M  V30 4375 N 412.39 -1.55475 0.257931 0
M  V30 4376 C 413.338 -2.23244 -0.653076 0
M  V30 4377 C 414.332 -1.22366 -1.17144 0
M  V30 4378 O 415.538 -1.40347 -1.12706 0
M  V30 4379 H 411.913 -0.716247 -0.229117 0
M  V30 4380 H 413.884 -2.98343 -0.0584788 0
M  V30 4381 C 412.633 -2.95401 -1.83395 0
M  V30 4382 H 411.956 -3.72802 -1.44424 0
M  V30 4383 H 413.396 -3.46165 -2.44838 0
M  V30 4384 C 411.855 -1.99895 -2.71189 0
M  V30 4385 O 412.385 -1.53909 -3.71046 0
M  V30 4386 N 410.591 -1.6676 -2.3799 0
M  V30 4387 H 410.138 -2.04352 -1.56837 0
M  V30 4388 H 410.096 -1.03127 -2.97005 0
M  V30 4389 N 413.868 0.0150385 -1.57593 0
M  V30 4390 C 414.8 1.03912 -2.04291 0
M  V30 4391 C 415.813 1.31618 -0.958146 0
M  V30 4392 O 417.002 1.28859 -1.23522 0
M  V30 4393 C 414.102 2.37749 -2.41514 0
M  V30 4394 C 413.275 2.29198 -3.72541 0
M  V30 4395 C 412.334 3.45598 -3.96797 0
M  V30 4396 O 411.36 3.24461 -4.67668 0
M  V30 4397 N 412.562 4.67945 -3.43523 0
M  V30 4398 H 415.327 0.64099 -2.92765 0
M  V30 4399 H 412.888 0.20272 -1.60626 0
M  V30 4400 H 414.88 3.14364 -2.54867 0
M  V30 4401 H 413.45 2.69357 -1.58637 0
M  V30 4402 H 412.67 1.3759 -3.69408 0
M  V30 4403 H 413.958 2.20642 -4.5847 0
M  V30 4404 H 413.356 4.88017 -2.86104 0
M  V30 4405 H 411.913 5.41878 -3.62232 0
M  V30 4406 N 415.346 1.54954 0.287554 0
M  V30 4407 C 416.293 1.86834 1.35505 0
M  V30 4408 C 417.263 0.718452 1.49758 0
M  V30 4409 O 418.448 0.968358 1.644 0
M  V30 4410 C 415.588 2.13303 2.71286 0
M  V30 4411 C 414.701 3.40883 2.65373 0
M  V30 4412 C 413.836 3.57125 3.93236 0
M  V30 4413 C 412.875 4.78449 3.81776 0
M  V30 4414 N 412.012 4.91426 5.01443 0
M  V30 4415 H 416.852 2.77889 1.07619 0
M  V30 4416 H 414.389 1.37593 0.520241 0
M  V30 4417 H 416.347 2.26646 3.50267 0
M  V30 4418 H 414.977 1.25499 2.97405 0
M  V30 4419 H 414.029 3.36088 1.78182 0
M  V30 4420 H 415.341 4.29993 2.52799 0
M  V30 4421 H 414.495 3.70207 4.80658 0
M  V30 4422 H 413.234 2.66173 4.0866 0
M  V30 4423 H 412.239 4.65386 2.92738 0
M  V30 4424 H 413.464 5.70822 3.67884 0
M  V30 4425 H 411.41 4.03401 5.17304 0
M  V30 4426 H 411.327 5.74559 4.91343 0
M  V30 4427 H 412.595 5.08879 5.90477 0
M  V30 4428 N 416.824 -0.551391 1.4764 0
M  V30 4429 C 417.754 -1.66757 1.63445 0
M  V30 4430 C 418.735 -1.63077 0.483742 0
M  V30 4431 O 419.92 -1.80607 0.71377 0
M  V30 4432 C 417.05 -3.05387 1.65396 0
M  V30 4433 C 416.004 -3.23918 2.79752 0
M  V30 4434 C 415.33 -4.63393 2.66779 0
M  V30 4435 C 416.63 -3.08735 4.21284 0
M  V30 4436 H 418.324 -1.53786 2.56886 0
M  V30 4437 H 415.87 -0.738415 1.23626 0
M  V30 4438 H 417.823 -3.83325 1.75043 0
M  V30 4439 H 416.547 -3.19332 0.685195 0
M  V30 4440 H 415.206 -2.48391 2.69625 0
M  V30 4441 H 414.854 -4.74144 1.67918 0
M  V30 4442 H 414.554 -4.7674 3.43501 0
M  V30 4443 H 416.078 -5.43458 2.78364 0
M  V30 4444 H 417.492 -3.76484 4.32357 0
M  V30 4445 H 415.889 -3.33588 4.98838 0
M  V30 4446 H 416.959 -2.0541 4.39243 0
M  V30 4447 N 418.302 -1.35869 -0.798587 0
M  V30 4448 C 419.579 -1.20145 -1.54352 0
M  V30 4449 C 419.959 0.216161 -2.0999 0
M  V30 4450 O 419.307 1.22068 -1.93162 0
M  V30 4451 C 419.517 -2.27602 -2.64572 0
M  V30 4452 C 420.865 -2.63811 -3.32699 0
M  V30 4453 O 421.889 -2.26576 -2.74849 0
M  V30 4454 O 420.748 -3.27866 -4.37226 0
M  V30 4455 H 417.842 -0.467248 -0.682355 0
M  V30 4456 H 420.388 -1.47574 -0.837859 0
M  V30 4457 H 419.16 -3.2265 -2.21388 0
M  V30 4458 H 418.783 -2.01488 -3.42766 0
M  V30 4459 N 419.78 1.02168 -1.19998 0
M  V30 4460 C 420.69 2.14069 -0.959774 0
M  V30 4461 C 421.706 1.73804 0.082655 0
M  V30 4462 O 422.882 2.01133 -0.103633 0
M  V30 4463 C 419.947 3.42936 -0.509459 0
M  V30 4464 C 419.008 3.97474 -1.62213 0
M  V30 4465 C 418.241 5.2019 -1.19321 0
M  V30 4466 O 418.464 5.70369 -0.0597726 0
M  V30 4467 O 417.398 5.67749 -1.99863 0
M  V30 4468 H 421.224 2.37199 -1.89658 0
M  V30 4469 H 418.809 1.12469 -0.983411 0
M  V30 4470 H 420.691 4.20551 -0.267322 0
M  V30 4471 H 419.366 3.21234 0.398821 0
M  V30 4472 H 418.273 3.21161 -1.9185 0
M  V30 4473 H 419.606 4.23555 -2.50723 0
M  V30 4474 N 421.258 1.00505 1.21394 0
M  V30 4475 C 422.486 0.706609 1.9446 0
M  V30 4476 C 422.901 -0.73081 1.74082 0
M  V30 4477 O 422.258 -1.49446 1.04747 0
M  V30 4478 C 422.309 1.01824 3.46863 0
M  V30 4479 O 422.03 2.39919 3.66566 0
M  V30 4480 C 423.531 0.739216 4.37093 0
M  V30 4481 H 420.751 0.260394 0.618414 0
M  V30 4482 H 423.295 1.34311 1.54211 0
M  V30 4483 H 421.45 0.427343 3.85036 0
M  V30 4484 H 421.864 2.50784 4.6066 0
M  V30 4485 H 423.338 1.00744 5.42729 0
M  V30 4486 H 423.815 -0.326746 4.37983 0
M  V30 4487 H 424.421 1.31173 4.04566 0
M  V30 4488 N 422.737 -1.36956 0.779787 0
M  V30 4489 C 423.685 -2.32053 0.15942 0
M  V30 4490 C 424.679 -1.55333 -0.675878 0
M  V30 4491 O 425.885 -1.70668 -0.57204 0
M  V30 4492 H 422.26 -0.751286 0.0327707 0
M  V30 4493 H 424.231 -2.8195 0.977078 0
M  V30 4494 C 422.98 -3.40602 -0.698977 0
M  V30 4495 H 422.303 -3.99746 -0.0655966 0
M  V30 4496 H 423.743 -4.09486 -1.09989 0
M  V30 4497 C 422.202 -2.81359 -1.85307 0
M  V30 4498 O 422.732 -2.72751 -2.94906 0
M  V30 4499 N 420.938 -2.38786 -1.65619 0
M  V30 4500 H 420.485 -2.45987 -0.764725 0
M  V30 4501 H 420.443 -1.99493 -2.43002 0
M  V30 4502 N 424.215 -0.530993 -1.48385 0
M  V30 4503 C 425.178 0.220497 -2.28137 0
M  V30 4504 C 426.178 0.866851 -1.35434 0
M  V30 4505 O 427.368 0.726746 -1.58316 0
M  V30 4506 C 424.5 1.31921 -3.1434 0
M  V30 4507 H 425.693 -0.479714 -2.96038 0
M  V30 4508 H 423.246 -0.286968 -1.53643 0
M  V30 4509 H 423.981 2.05264 -2.51072 0
M  V30 4510 H 423.766 0.86085 -3.82533 0
M  V30 4511 H 425.256 1.84776 -3.74497 0
M  V30 4512 N 425.693 1.55336 -0.266172 0
M  V30 4513 C 426.64 2.22172 0.625165 0
M  V30 4514 C 427.61 1.19211 1.15663 0
M  V30 4515 O 428.795 1.47723 1.20758 0
M  V30 4516 C 425.935 2.93972 1.8076 0
M  V30 4517 C 425.048 4.11632 1.31084 0
M  V30 4518 C 424.183 4.71099 2.45436 0
M  V30 4519 C 423.222 5.8097 1.92718 0
M  V30 4520 N 422.359 6.34538 3.00509 0
M  V30 4521 H 427.199 2.9796 0.0485582 0
M  V30 4522 H 424.736 1.47095 0.0122024 0
M  V30 4523 H 426.694 3.33811 2.50251 0
M  V30 4524 H 425.324 2.20623 2.35638 0
M  V30 4525 H 424.376 3.76975 0.509326 0
M  V30 4526 H 425.688 4.90893 0.884633 0
M  V30 4527 H 424.842 5.13612 3.22936 0
M  V30 4528 H 423.581 3.91096 2.91368 0
M  V30 4529 H 422.586 5.37916 1.13695 0
M  V30 4530 H 423.811 6.62836 1.47733 0
M  V30 4531 H 421.757 5.57433 3.45839 0
M  V30 4532 H 421.674 7.09046 2.62279 0
M  V30 4533 H 422.942 6.81709 3.78011 0
M  V30 4534 N 427.171 -0.0066808 1.57599 0
M  V30 4535 C 428.119 -1.01851 2.09115 0
M  V30 4536 C 429.113 -1.36021 1.00969 0
M  V30 4537 O 430.319 -1.34663 1.19439 0
M  V30 4538 H 426.694 -0.346083 0.667631 0
M  V30 4539 H 428.665 -0.558394 2.93129 0
M  V30 4540 C 427.414 -2.30374 2.60429 0
M  V30 4541 H 426.737 -2.04947 3.43273 0
M  V30 4542 H 428.177 -2.99466 3.00161 0
M  V30 4543 C 426.636 -3.00893 1.51542 0
M  V30 4544 O 427.166 -3.91614 0.894484 0
M  V30 4545 N 425.372 -2.62603 1.2445 0
M  V30 4546 H 424.919 -1.88911 1.75129 0
M  V30 4547 H 424.877 -3.10101 0.518137 0
M  V30 4548 N 428.649 -1.55105 -0.279332 0
M  V30 4549 C 429.898 -1.74618 -1.00952 0
M  V30 4550 C 430.211 -0.551096 -1.87676 0
M  V30 4551 O 431.417 -0.628507 -2.64125 0
M  V30 4552 C 429.873 -3.09025 -1.84476 0
M  V30 4553 C 429.481 -4.36081 -1.0265 0
M  V30 4554 C 431.225 -3.37891 -2.56963 0
M  V30 4555 C 429.132 -5.6153 -1.85576 0
M  V30 4556 H 428.062 -0.650868 -0.38064 0
M  V30 4557 H 430.713 -1.81569 -0.265475 0
M  V30 4558 H 429.095 -2.96095 -2.62952 0
M  V30 4559 H 430.269 -4.59909 -0.286354 0
M  V30 4560 H 428.584 -4.14312 -0.416464 0
M  V30 4561 H 431.181 -4.28822 -3.19399 0
M  V30 4562 H 431.524 -2.57737 -3.26921 0
M  V30 4563 H 432.057 -3.5189 -1.85522 0
M  V30 4564 H 428.796 -6.44413 -1.2005 0
M  V30 4565 H 428.316 -5.41854 -2.57204 0
M  V30 4566 H 429.995 -5.99594 -2.43096 0
M  V30 4567 N 430.127 0.543554 -1.4793 0
M  V30 4568 C 431.074 1.64942 -1.6144 0
M  V30 4569 C 432.044 1.59692 -0.456903 0
M  V30 4570 O 433.229 1.78321 -0.678688 0
M  V30 4571 C 430.369 3.03238 -1.64744 0
M  V30 4572 C 429.482 3.18823 -2.91506 0
M  V30 4573 C 428.617 4.47599 -2.86057 0
M  V30 4574 C 427.656 4.56664 -4.07584 0
M  V30 4575 N 426.793 5.76811 -4.00292 0
M  V30 4576 H 431.633 1.52733 -2.55884 0
M  V30 4577 H 429.17 0.7438 -1.2691 0
M  V30 4578 H 431.128 3.83339 -1.64641 0
M  V30 4579 H 429.758 3.1425 -0.738017 0
M  V30 4580 H 428.81 2.32064 -3.01414 0
M  V30 4581 H 430.122 3.21384 -3.81463 0
M  V30 4582 H 429.276 5.35975 -2.84281 0
M  V30 4583 H 428.015 4.47538 -1.93807 0
M  V30 4584 H 427.02 3.66697 -4.09651 0
M  V30 4585 H 428.245 4.58474 -5.00978 0
M  V30 4586 H 426.191 5.77673 -3.10853 0
M  V30 4587 H 426.108 5.80808 -4.8394 0
M  V30 4588 H 427.376 6.67512 -4.02553 0
M  V30 4589 N 431.605 1.3629 0.791371 0
M  V30 4590 C 432.833 1.33562 1.58016 0
M  V30 4591 C 433.248 -0.0835616 1.88615 0
M  V30 4592 O 432.605 -1.0399 1.49974 0
M  V30 4593 C 432.656 2.15517 2.90232 0
M  V30 4594 O 432.377 3.51902 2.60953 0
M  V30 4595 C 433.878 2.20546 3.84544 0
M  V30 4596 H 431.098 0.458226 0.490173 0
M  V30 4597 H 433.642 1.79361 0.982345 0
M  V30 4598 H 431.797 1.73278 3.46487 0
M  V30 4599 H 432.211 3.94644 3.4548 0
M  V30 4600 H 433.685 2.82252 4.74382 0
M  V30 4601 H 434.162 1.20838 4.2225 0
M  V30 4602 H 434.768 2.63013 3.34222 0
M  V30 4603 N 433.083 -1.0153 1.20538 0
M  V30 4604 C 434.332 -1.74558 1.01057 0
M  V30 4605 C 434.645 -1.90168 -0.457756 0
M  V30 4606 O 435.851 -2.60301 -0.771722 0
M  V30 4607 C 434.307 -3.13963 1.75941 0
M  V30 4608 C 433.915 -3.06361 3.26875 0
M  V30 4609 C 435.659 -3.91191 1.64832 0
M  V30 4610 C 433.566 -4.40782 3.94291 0
M  V30 4611 H 432.496 -0.654417 0.374505 0
M  V30 4612 H 435.147 -1.13521 1.44171 0
M  V30 4613 H 433.529 -3.75549 1.25614 0
M  V30 4614 H 434.703 -2.54074 3.84425 0
M  V30 4615 H 433.018 -2.42625 3.38411 0
M  V30 4616 H 435.615 -4.90644 2.12539 0
M  V30 4617 H 435.958 -4.11884 0.604745 0
M  V30 4618 H 436.491 -3.36236 2.12579 0
M  V30 4619 H 433.23 -4.25292 4.98805 0
M  V30 4620 H 432.75 -4.9307 3.41529 0
M  V30 4621 H 434.429 -5.09621 3.98617 0
M  V30 4622 N 434.561 -1.01147 -1.20859 0
M  V30 4623 C 435.508 -0.577354 -2.23462 0
M  V30 4624 C 436.478 0.399922 -1.61214 0
M  V30 4625 O 437.663 0.300515 -1.88419 0
M  V30 4626 C 434.803 0.083372 -3.44999 0
M  V30 4627 C 433.916 -0.937856 -4.21697 0
M  V30 4628 C 433.051 -0.248717 -5.30617 0
M  V30 4629 C 432.09 -1.25705 -5.99053 0
M  V30 4630 N 431.227 -0.594939 -6.99575 0
M  V30 4631 H 436.067 -1.45695 -2.59956 0
M  V30 4632 H 433.604 -0.729428 -1.27741 0
M  V30 4633 H 435.562 0.483535 -4.14388 0
M  V30 4634 H 434.192 0.926645 -3.09214 0
M  V30 4635 H 433.244 -1.45622 -3.51423 0
M  V30 4636 H 434.556 -1.70493 -4.68757 0
M  V30 4637 H 433.71 0.207215 -6.06346 0
M  V30 4638 H 432.449 0.55071 -4.84581 0
M  V30 4639 H 431.454 -1.72343 -5.2209 0
M  V30 4640 H 432.679 -2.05767 -6.47176 0
M  V30 4641 H 430.625 0.184713 -6.5574 0
M  V30 4642 H 430.542 -1.30017 -7.44736 0
M  V30 4643 H 431.81 -0.162427 -7.79331 0
M  V30 4644 N 436.039 1.36541 -0.78704 0
M  V30 4645 C 436.969 2.32659 -0.197992 0
M  V30 4646 C 437.95 1.56533 0.665697 0
M  V30 4647 O 439.135 1.84698 0.60001 0
M  V30 4648 C 436.265 3.40778 0.669901 0
M  V30 4649 C 435.219 4.27897 -0.0937039 0
M  V30 4650 C 434.545 5.27163 0.894629 0
M  V30 4651 C 435.845 5.06334 -1.28154 0
M  V30 4652 H 437.539 2.82171 -1.00099 0
M  V30 4653 H 435.085 1.35665 -0.482793 0
M  V30 4654 H 437.038 4.07008 1.09191 0
M  V30 4655 H 435.762 2.89827 1.50558 0
M  V30 4656 H 434.421 3.6322 -0.49666 0
M  V30 4657 H 434.069 4.72486 1.72527 0
M  V30 4658 H 433.769 5.86317 0.388149 0
M  V30 4659 H 435.293 5.96266 1.31525 0
M  V30 4660 H 436.707 5.65617 -0.93541 0
M  V30 4661 H 435.104 5.74888 -1.72115 0
M  V30 4662 H 436.174 4.38114 -2.07807 0
M  V30 4663 N 437.518 0.538854 1.48102 0
M  V30 4664 C 438.795 -0.0568108 1.95517 0
M  V30 4665 C 439.175 -1.50408 1.48124 0
M  V30 4666 O 438.523 -2.17133 0.711727 0
M  V30 4667 C 438.733 0.0696262 3.48931 0
M  V30 4668 C 440.081 -0.0851202 4.24515 0
M  V30 4669 O 441.105 -0.0037347 3.562 0
M  V30 4670 O 439.964 -0.257025 5.45895 0
M  V30 4671 H 437.058 -0.0743695 0.823649 0
M  V30 4672 H 439.604 0.604081 1.58584 0
M  V30 4673 H 438.376 1.07744 3.76174 0
M  V30 4674 H 437.999 -0.629714 3.92582 0
M  V30 4675 N 438.996 -1.55193 0.274407 0
M  V30 4676 C 440.221 -2.04446 -0.348824 0
M  V30 4677 C 440.646 -1.15149 -1.48735 0
M  V30 4678 O 440.004 -0.149952 -1.80679 0
M  V30 4679 C 440.052 -3.51431 -0.808009 0
M  V30 4680 O 439.156 -3.65225 -1.91531 0
M  V30 4681 H 438.497 -0.66006 -0.0722276 0
M  V30 4682 H 441.027 -2.00481 0.408498 0
M  V30 4683 H 441.037 -3.92781 -1.10395 0
M  V30 4684 H 439.712 -4.15892 0.0249865 0
M  V30 4685 H 438.289 -3.35778 -1.62196 0
M  V30 4686 N 440.474 -0.00167713 -1.576 0
M  V30 4687 C 441.422 1.0074 -2.09652 0
M  V30 4688 C 442.416 1.35483 -1.01689 0
M  V30 4689 O 443.622 1.34028 -1.20152 0
M  V30 4690 H 439.997 0.342537 -0.669457 0
M  V30 4691 H 441.968 0.542841 -2.93421 0
M  V30 4692 C 440.717 2.2899 -2.61647 0
M  V30 4693 H 440.04 2.03124 -3.44355 0
M  V30 4694 H 441.48 2.9787 -3.01744 0
M  V30 4695 C 439.939 3.00085 -1.53136 0
M  V30 4696 O 440.469 3.91135 -0.91524 0
M  V30 4697 N 438.675 2.6194 -1.25841 0
M  V30 4698 H 438.222 1.8798 -1.76129 0
M  V30 4699 H 438.18 3.09822 -0.534576 0
M  V30 4700 N 441.952 1.55251 0.271103 0
M  V30 4701 C 442.902 1.84649 1.33749 0
M  V30 4702 C 443.886 0.705529 1.44607 0
M  V30 4703 O 445.078 0.966916 1.48256 0
M  V30 4704 C 442.207 2.12354 2.69742 0
M  V30 4705 C 441.293 3.32714 2.62988 0
M  V30 4706 N 441.684 4.52575 2.25853 0
M  V30 4707 C 439.982 3.35341 2.94045 0
M  V30 4708 C 440.683 5.34669 2.29136 0
M  V30 4709 N 439.659 4.73123 2.67685 0
M  V30 4710 H 443.461 2.74865 1.0405 0
M  V30 4711 H 440.975 1.55152 0.479738 0
M  V30 4712 H 442.972 2.31572 3.4667 0
M  V30 4713 H 441.632 1.23422 3.00328 0
M  V30 4714 H 442.643 4.78639 1.978 0
M  V30 4715 H 439.32 2.56608 3.2933 0
M  V30 4716 H 440.71 6.40509 2.02971 0
M  V30 4717 N 443.43 -0.535701 1.48216 0
M  V30 4718 C 444.658 -1.31671 1.59594 0
M  V30 4719 C 445.073 -1.87083 0.254056 0
M  V30 4720 O 444.43 -1.66112 -0.755854 0
M  V30 4721 C 444.481 -2.47158 2.63809 0
M  V30 4722 O 444.202 -1.94032 3.92789 0
M  V30 4723 C 445.703 -3.39062 2.85573 0
M  V30 4724 H 442.923 -0.400623 0.538277 0
M  V30 4725 H 445.467 -0.646827 1.94001 0
M  V30 4726 H 443.622 -3.10043 2.32276 0
M  V30 4727 H 444.036 -2.69585 4.49916 0
M  V30 4728 H 445.51 -4.16459 3.62306 0
M  V30 4729 H 445.987 -3.93941 1.94184 0
M  V30 4730 H 446.593 -2.81975 3.18387 0
M  V30 4731 N 444.908 -1.36708 -0.784132 0
M  V30 4732 C 446.155 -1.31231 -1.54222 0
M  V30 4733 C 446.483 0.106864 -1.94206 0
M  V30 4734 O 445.738 1.07734 -1.63376 0
M  V30 4735 C 446.037 -2.18571 -2.82774 0
M  V30 4736 C 445.703 -3.67039 -2.61903 0
M  V30 4737 C 444.365 -4.07503 -2.55919 0
M  V30 4738 C 446.717 -4.61149 -2.4288 0
M  V30 4739 C 444.045 -5.40211 -2.28886 0
M  V30 4740 C 446.397 -5.94081 -2.17373 0
M  V30 4741 C 445.061 -6.33664 -2.09825 0
M  V30 4742 H 444.331 -0.48021 -0.56434 0
M  V30 4743 H 446.978 -1.68807 -0.904233 0
M  V30 4744 H 445.283 -1.73949 -3.51068 0
M  V30 4745 H 446.98 -2.11655 -3.40592 0
M  V30 4746 H 443.57 -3.34941 -2.67418 0
M  V30 4747 H 447.754 -4.30756 -2.46501 0
M  V30 4748 H 443.01 -5.69855 -2.21529 0
M  V30 4749 H 447.184 -6.66566 -2.01649 0
M  V30 4750 H 444.811 -7.36423 -1.88641 0
M  V30 4751 N 446.386 1.0089 -1.21074 0
M  V30 4752 C 447.316 2.1145 -0.990523 0
M  V30 4753 C 448.297 1.69897 0.0831699 0
M  V30 4754 O 449.482 1.94052 -0.0758853 0
M  V30 4755 C 446.612 3.42914 -0.550177 0
M  V30 4756 C 445.566 3.98244 -1.56799 0
M  V30 4757 C 444.892 5.25568 -0.984013 0
M  V30 4758 C 446.192 4.30752 -2.95381 0
M  V30 4759 H 447.886 2.3013 -1.91521 0
M  V30 4760 H 445.432 1.10592 -0.92225 0
M  V30 4761 H 447.385 4.19653 -0.383305 0
M  V30 4762 H 446.109 3.24014 0.41015 0
M  V30 4763 H 444.768 3.23621 -1.72236 0
M  V30 4764 H 444.416 5.02998 -0.0155216 0
M  V30 4765 H 444.116 5.63551 -1.66384 0
M  V30 4766 H 445.64 6.04955 -0.828378 0
M  V30 4767 H 447.054 4.98349 -2.8341 0
M  V30 4768 H 445.451 4.79869 -3.60341 0
M  V30 4769 H 446.521 3.39192 -3.46521 0
M  V30 4770 N 447.864 1.01787 1.20321 0
M  V30 4771 C 449.11 0.718699 1.90279 0
M  V30 4772 C 449.465 -0.743669 1.77447 0
M  V30 4773 O 448.758 -1.53345 1.14874 0
M  V30 4774 C 448.952 1.09076 3.40349 0
M  V30 4775 C 448.781 2.58775 3.67784 0
M  V30 4776 C 447.551 3.25578 3.86428 0
M  V30 4777 C 449.749 3.56966 3.70243 0
M  V30 4778 N 447.731 4.64495 4.01395 0
M  V30 4779 C 449.102 4.8145 3.90649 0
M  V30 4780 C 451.157 3.5092 3.53213 0
M  V30 4781 C 449.86 6.00619 3.95789 0
M  V30 4782 C 451.886 4.69493 3.59625 0
M  V30 4783 C 451.248 5.92786 3.80505 0
M  V30 4784 H 447.347 0.31468 0.715891 0
M  V30 4785 H 449.931 1.30295 1.44677 0
M  V30 4786 H 448.102 0.534839 3.847 0
M  V30 4787 H 449.834 0.744997 3.97784 0
M  V30 4788 H 446.589 2.76003 3.84862 0
M  V30 4789 H 447.013 5.36624 4.12752 0
M  V30 4790 H 451.655 2.56593 3.36035 0
M  V30 4791 H 449.373 6.95326 4.11762 0
M  V30 4792 H 452.959 4.66432 3.47754 0
M  V30 4793 H 451.839 6.83003 3.85327 0
M  V30 4794 N 449.342 -1.36122 0.79427 0
M  V30 4795 C 450.289 -2.29982 0.194101 0
M  V30 4796 C 451.259 -1.52214 -0.664833 0
M  V30 4797 O 452.444 -1.80702 -0.612498 0
M  V30 4798 C 449.584 -3.38706 -0.661244 0
M  V30 4799 C 448.697 -4.31456 0.216766 0
M  V30 4800 C 447.832 -5.27265 -0.645411 0
M  V30 4801 C 446.871 -6.11653 0.233756 0
M  V30 4802 N 446.008 -6.99636 -0.587682 0
M  V30 4803 H 450.848 -2.80722 0.999965 0
M  V30 4804 H 448.385 -1.38172 0.504677 0
M  V30 4805 H 450.343 -4.00394 -1.17219 0
M  V30 4806 H 448.973 -2.89274 -1.43249 0
M  V30 4807 H 448.025 -3.7088 0.845724 0
M  V30 4808 H 449.337 -4.90724 0.893973 0
M  V30 4809 H 448.491 -5.94266 -1.22198 0
M  V30 4810 H 447.23 -4.68463 -1.35623 0
M  V30 4811 H 446.235 -5.4361 0.82269 0
M  V30 4812 H 447.46 -6.72531 0.942247 0
M  V30 4813 H 445.406 -6.43337 -1.2827 0
M  V30 4814 H 445.323 -7.55993 0.0317402 0
M  V30 4815 H 446.591 -7.71001 -1.14792 0
M  V30 4816 N 450.82 -0.546701 -1.47814 0
M  V30 4817 C 452.097 0.0464413 -1.95545 0
M  V30 4818 C 452.477 1.4962 -1.48919 0
M  V30 4819 O 451.825 2.16752 -0.723232 0
M  V30 4820 C 452.035 -0.0881298 -3.48889 0
M  V30 4821 C 453.383 0.0626059 -4.24554 0
M  V30 4822 O 454.407 -0.0151555 -3.56197 0
M  V30 4823 O 453.266 0.228071 -5.46024 0
M  V30 4824 H 450.36 0.0700004 -0.824032 0
M  V30 4825 H 452.906 -0.612482 -1.58262 0
M  V30 4826 H 451.678 -1.09737 -3.75597 0
M  V30 4827 H 451.301 0.608886 -3.9291 0
M  V30 4828 N 452.299 1.55045 -0.282633 0
M  V30 4829 C 453.229 2.2579 0.595066 0
M  V30 4830 C 454.21 1.25074 1.15284 0
M  V30 4831 O 455.395 1.5381 1.18559 0
M  V30 4832 C 452.525 2.98472 1.77572 0
M  V30 4833 C 451.479 4.0618 1.34914 0
M  V30 4834 C 450.805 4.66477 2.6135 0
M  V30 4835 C 452.105 5.1996 0.493821 0
M  V30 4836 H 453.799 2.994 0.00505653 0
M  V30 4837 H 451.345 1.44 0.000992001 0
M  V30 4838 H 453.298 3.46677 2.39568 0
M  V30 4839 H 452.022 2.2241 2.39168 0
M  V30 4840 H 450.681 3.58797 0.752338 0
M  V30 4841 H 450.329 3.87074 3.2122 0
M  V30 4842 H 450.029 5.39207 2.33516 0
M  V30 4843 H 451.553 5.17435 3.24181 0
M  V30 4844 H 452.967 5.64172 1.01898 0
M  V30 4845 H 451.364 5.99299 0.310047 0
M  V30 4846 H 452.434 4.82462 -0.485593 0
M  V30 4847 N 453.777 0.010035 1.57597 0
M  V30 4848 C 455.054 -0.710296 1.82248 0
M  V30 4849 C 455.434 -1.91426 0.889911 0
M  V30 4850 O 454.782 -2.28424 -0.0590292 0
M  V30 4851 C 454.992 -1.10655 3.30993 0
M  V30 4852 C 456.34 -1.50621 3.96987 0
M  V30 4853 O 457.364 -1.20007 3.35375 0
M  V30 4854 O 456.223 -2.07587 5.05539 0
M  V30 4855 H 453.317 -0.34673 0.750804 0
M  V30 4856 H 455.863 0.0362578 1.69661 0
M  V30 4857 H 454.635 -0.248826 3.90508 0
M  V30 4858 H 454.258 -1.91189 3.48615 0
M  V30 4859 N 455.255 -1.55392 -0.262866 0
M  V30 4860 C 456.203 -1.8977 -1.345 0
M  V30 4861 C 457.197 -0.775063 -1.50629 0
M  V30 4862 O 458.403 -0.959519 -1.52293 0
M  V30 4863 H 454.778 -0.602467 -0.450041 0
M  V30 4864 H 456.749 -2.80147 -1.02762 0
M  V30 4865 C 455.498 -2.19501 -2.69657 0
M  V30 4866 H 454.821 -3.05378 -2.5804 0
M  V30 4867 H 456.261 -2.47469 -3.44289 0
M  V30 4868 C 454.72 -1.00597 -3.21531 0
M  V30 4869 O 455.25 -0.245768 -4.00947 0
M  V30 4870 N 453.456 -0.800911 -2.79345 0
M  V30 4871 H 453.003 -1.42079 -2.14875 0
M  V30 4872 H 452.961 -0.00697996 -3.14399 0
M  V30 4873 N 456.733 0.527833 -1.48498 0
M  V30 4874 C 457.663 1.64136 -1.66077 0
M  V30 4875 C 458.644 1.62286 -0.509625 0
M  V30 4876 O 459.829 1.79449 -0.742413 0
M  V30 4877 C 456.959 3.02717 -1.70234 0
M  V30 4878 C 455.913 3.19426 -2.8487 0
M  V30 4879 C 455.239 4.5909 -2.74118 0
M  V30 4880 C 456.539 3.01993 -4.26142 0
M  V30 4881 H 458.233 1.4968 -2.593 0
M  V30 4882 H 455.779 0.718654 -1.24785 0
M  V30 4883 H 457.732 3.80491 -1.8112 0
M  V30 4884 H 456.456 3.18201 -0.735911 0
M  V30 4885 H 455.115 2.4407 -2.73542 0
M  V30 4886 H 454.763 4.71413 -1.7544 0
M  V30 4887 H 454.463 4.71214 -3.51042 0
M  V30 4888 H 455.987 5.3896 -2.86974 0
M  V30 4889 H 457.401 3.69558 -4.38292 0
M  V30 4890 H 455.798 3.2561 -5.04082 0
M  V30 4891 H 456.868 1.98396 -4.42456 0
M  V30 4892 N 458.211 1.37122 0.776871 0
M  V30 4893 C 459.159 1.32549 1.91138 0
M  V30 4894 C 460.153 0.215119 1.68029 0
M  V30 4895 O 461.359 0.382852 1.75881 0
M  V30 4896 H 457.734 0.412952 0.62847 0
M  V30 4897 H 459.705 2.28332 1.92112 0
M  V30 4898 C 458.454 1.14422 3.28333 0
M  V30 4899 H 457.777 1.99115 3.46689 0
M  V30 4900 H 459.217 1.15272 4.0803 0
M  V30 4901 C 457.676 -0.150434 3.36564 0
M  V30 4902 O 458.206 -1.13584 3.85307 0
M  V30 4903 N 456.412 -0.19939 2.89915 0
M  V30 4904 H 455.959 0.603142 2.5044 0
M  V30 4905 H 455.917 -1.06526 2.95803 0
M  V30 4906 N 459.689 -1.00246 1.21608 0
M  V30 4907 C 460.637 -2.11193 0.97469 0
M  V30 4908 C 461.631 -1.69216 -0.0789303 0
M  V30 4909 O 462.837 -1.79853 0.0726806 0
M  V30 4910 H 459.212 -0.690455 0.297953 0
M  V30 4911 H 461.183 -2.2873 1.91638 0
M  V30 4912 C 459.932 -3.43182 0.558717 0
M  V30 4913 H 459.255 -3.75918 1.3611 0
M  V30 4914 H 460.695 -4.21823 0.429154 0
M  V30 4915 C 459.154 -3.28882 -0.730648 0
M  V30 4916 O 459.684 -3.59835 -1.78554 0
M  V30 4917 N 457.89 -2.8209 -0.698131 0
M  V30 4918 H 457.437 -2.57099 0.16061 0
M  V30 4919 H 457.395 -2.72903 -1.56113 0
M  V30 4920 N 461.167 -1.02423 -1.1978 0
M  V30 4921 C 462.392 -0.7373 -1.93852 0
M  V30 4922 C 462.817 0.696923 -1.74713 0
M  V30 4923 O 462.175 1.48056 -1.04638 0
M  V30 4924 C 462.223 -1.08783 -3.438 0
M  V30 4925 O 461.327 -0.20383 -4.11896 0
M  V30 4926 H 460.668 -0.27284 -0.605355 0
M  V30 4927 H 463.198 -1.36966 -1.51992 0
M  V30 4928 H 463.208 -1.04276 -3.9445 0
M  V30 4929 H 461.883 -2.13274 -3.57053 0
M  V30 4930 H 460.46 -0.307091 -3.71633 0
M  V30 4931 N 462.645 1.35699 -0.801477 0
M  V30 4932 C 463.608 2.28199 -0.213994 0
M  V30 4933 C 464.608 1.49359 0.595691 0
M  V30 4934 O 465.798 1.69186 0.414921 0
M  V30 4935 C 462.93 3.33587 0.702297 0
M  V30 4936 H 464.123 2.81666 -1.02976 0
M  V30 4937 H 461.676 1.45467 -0.571759 0
M  V30 4938 H 462.411 2.85297 1.54195 0
M  V30 4939 H 462.196 3.91906 0.123484 0
M  V30 4940 H 463.686 4.02638 1.10783 0
M  V30 4941 N 464.123 0.554532 1.47522 0
M  V30 4942 C 465.055 -0.232106 2.28022 0
M  V30 4943 C 466.068 -0.881865 1.36847 0
M  V30 4944 O 467.257 -0.756168 1.61692 0
M  V30 4945 C 464.357 -1.34604 3.11022 0
M  V30 4946 C 463.53 -0.793582 4.30141 0
M  V30 4947 C 462.589 -1.79168 4.94758 0
M  V30 4948 O 461.615 -1.33886 5.5323 0
M  V30 4949 N 462.817 -3.12495 4.89211 0
M  V30 4950 H 465.582 0.458407 2.96173 0
M  V30 4951 H 463.143 0.390433 1.57122 0
M  V30 4952 H 465.135 -2.01243 3.51118 0
M  V30 4953 H 463.705 -1.93983 2.45131 0
M  V30 4954 H 462.925 0.0495025 3.94169 0
M  V30 4955 H 464.213 -0.403776 5.07195 0
M  V30 4956 H 463.611 -3.51931 4.42901 0
M  V30 4957 H 462.168 -3.74698 5.33333 0
M  V30 4958 N 465.601 -1.54893 0.290851 0
M  V30 4959 C 466.531 -2.26103 -0.583084 0
M  V30 4960 C 467.512 -1.25684 -1.14619 0
M  V30 4961 O 468.697 -1.54436 -1.17741 0
M  V30 4962 C 465.827 -2.99409 -1.75987 0
M  V30 4963 C 464.781 -4.0689 -1.32758 0
M  V30 4964 C 464.107 -4.67856 -2.58872 0
M  V30 4965 C 465.407 -5.20215 -0.46624 0
M  V30 4966 H 467.101 -2.99398 0.0108214 0
M  V30 4967 H 464.647 -1.43998 0.00664468 0
M  V30 4968 H 466.6 -3.47943 -2.37727 0
M  V30 4969 H 465.324 -2.23675 -2.37985 0
M  V30 4970 H 463.983 -3.59191 -0.733299 0
M  V30 4971 H 463.631 -3.88772 -3.19163 0
M  V30 4972 H 463.331 -5.40438 -2.30653 0
M  V30 4973 H 464.855 -5.19147 -3.21433 0
M  V30 4974 H 466.269 -5.64704 -0.989047 0
M  V30 4975 H 464.666 -5.99455 -0.27826 0
M  V30 4976 H 465.736 -4.82198 0.511173 0
M  V30 4977 N 467.08 -0.0183926 -1.57589 0
M  V30 4978 C 468.308 0.673046 -1.95647 0
M  V30 4979 C 468.723 1.66275 -0.894312 0
M  V30 4980 O 468.08 1.82072 0.124975 0
M  V30 4981 C 468.131 1.38884 -3.33756 0
M  V30 4982 O 467.852 0.438806 -4.35897 0
M  V30 4983 C 469.353 2.1731 -3.86383 0
M  V30 4984 H 466.573 0.186292 -0.644621 0
M  V30 4985 H 469.117 -0.0749748 -2.04363 0
M  V30 4986 H 467.272 2.08835 -3.26293 0
M  V30 4987 H 467.686 0.945869 -5.15901 0
M  V30 4988 H 469.16 2.62863 -4.85394 0
M  V30 4989 H 469.637 3.00764 -3.20059 0
M  V30 4990 H 470.243 1.52339 -3.97081 0
M  V30 4991 N 468.558 1.5553 0.254621 0
M  V30 4992 C 469.521 1.88872 1.29846 0
M  V30 4993 C 470.521 0.764591 1.41459 0
M  V30 4994 O 471.711 1.03265 1.40293 0
M  V30 4995 C 468.843 2.11032 2.67728 0
M  V30 4996 H 470.036 2.82201 1.01502 0
M  V30 4997 H 467.589 1.48303 0.493556 0
M  V30 4998 H 468.324 1.20146 3.01223 0
M  V30 4999 H 468.109 2.92895 2.60682 0
M  V30 5000 H 469.599 2.38038 3.43115 0
M  V30 5001 N 470.036 -0.519951 1.48776 0
M  V30 5002 C 471.264 -1.29971 1.60982 0
M  V30 5003 C 471.679 -1.86803 0.273885 0
M  V30 5004 O 471.036 -1.66904 -0.738193 0
M  V30 5005 C 471.087 -2.44346 2.66415 0
M  V30 5006 O 470.808 -1.89855 3.94825 0
M  V30 5007 C 472.309 -3.36014 2.89153 0
M  V30 5008 H 469.529 -0.394891 0.542496 0
M  V30 5009 H 472.073 -0.626214 1.94676 0
M  V30 5010 H 470.228 -3.07562 2.35552 0
M  V30 5011 H 470.642 -2.64798 4.5275 0
M  V30 5012 H 472.116 -4.12593 3.66703 0
M  V30 5013 H 472.593 -3.91859 1.98351 0
M  V30 5014 H 473.199 -2.78582 3.21359 0
M  V30 5015 N 471.514 -1.37532 -0.769588 0
M  V30 5016 C 472.744 -1.35861 -1.55645 0
M  V30 5017 C 473.152 0.0574398 -1.89113 0
M  V30 5018 O 472.495 1.03021 -1.52093 0
M  V30 5019 C 472.557 -2.13431 -2.89288 0
M  V30 5020 C 472.221 -3.62378 -2.78444 0
M  V30 5021 C 473.218 -4.56215 -2.49326 0
M  V30 5022 C 470.903 -4.05529 -2.96398 0
M  V30 5023 C 472.897 -5.91181 -2.38294 0
M  V30 5024 C 470.584 -5.40579 -2.84987 0
M  V30 5025 C 471.582 -6.33218 -2.55975 0
M  V30 5026 O 471.27 -7.65787 -2.44594 0
M  V30 5027 H 471.002 -0.467001 -0.48876 0
M  V30 5028 H 473.556 -1.81505 -0.961515 0
M  V30 5029 H 471.786 -1.62481 -3.50909 0
M  V30 5030 H 473.475 -2.04368 -3.50697 0
M  V30 5031 H 474.241 -4.24187 -2.35139 0
M  V30 5032 H 470.12 -3.33781 -3.1798 0
M  V30 5033 H 473.664 -6.63457 -2.15571 0
M  V30 5034 H 469.561 -5.72209 -2.98743 0
M  V30 5035 H 470.329 -7.76132 -2.59927 0
M  V30 5036 N 472.992 0.995999 -1.22138 0
M  V30 5037 C 474.408 1.25917 -0.980667 0
M  V30 5038 C 474.608 1.98819 0.327604 0
M  V30 5039 O 473.664 2.29587 1.05101 0
M  V30 5040 C 474.977 2.07399 -2.17729 0
M  V30 5041 C 476.525 2.20594 -2.22052 0
M  V30 5042 C 477 3.05462 -3.41258 0
M  V30 5043 N 478.491 3.13049 -3.41401 0
M  V30 5044 C 479.226 3.78997 -4.30289 0
M  V30 5045 N 478.722 4.46899 -5.2939 0
M  V30 5046 N 480.515 3.75728 -4.18073 0
M  V30 5047 H 472.666 0.507158 -2.06256 0
M  V30 5048 H 474.929 0.28658 -0.903646 0
M  V30 5049 H 474.635 1.61191 -3.12586 0
M  V30 5050 H 474.509 3.08154 -2.17534 0
M  V30 5051 H 476.896 2.66017 -1.27745 0
M  V30 5052 H 476.977 1.1928 -2.26287 0
M  V30 5053 H 476.621 2.60739 -4.35864 0
M  V30 5054 H 476.551 4.06911 -3.34262 0
M  V30 5055 H 479.042 2.64721 -2.69688 0
M  V30 5056 H 479.355 4.94952 -5.935 0
M  V30 5057 H 477.7 4.45657 -5.33306 0
M  V30 5058 H 480.891 3.2184 -3.39907 0
M  V30 5059 H 481.064 4.26845 -4.87553 0
M  V30 5060 N 474.47 1.03057 1.19235 0
M  V30 5061 C 475.886 0.747947 1.40989 0
M  V30 5062 C 476.086 -0.666752 1.90149 0
M  V30 5063 O 475.142 -1.43249 2.07933 0
M  V30 5064 C 476.455 1.7855 2.41951 0
M  V30 5065 C 478.003 1.80524 2.55695 0
M  V30 5066 C 478.478 2.83243 3.59913 0
M  V30 5067 N 479.969 2.8207 3.67411 0
M  V30 5068 C 480.704 3.58204 4.47747 0
M  V30 5069 N 480.2 4.44057 5.31775 0
M  V30 5070 N 481.993 3.46738 4.42413 0
M  V30 5071 H 474.144 1.94367 0.856468 0
M  V30 5072 H 476.407 0.840412 0.438647 0
M  V30 5073 H 476.113 2.79973 2.12857 0
M  V30 5074 H 475.987 1.6092 3.41152 0
M  V30 5075 H 478.374 0.79778 2.84112 0
M  V30 5076 H 478.455 2.02229 1.56643 0
M  V30 5077 H 478.099 3.84161 3.32239 0
M  V30 5078 H 478.029 2.58795 4.5862 0
M  V30 5079 H 480.52 2.19803 3.074 0
M  V30 5080 H 480.833 4.98884 5.90199 0
M  V30 5081 H 479.178 4.48129 5.3123 0
M  V30 5082 H 482.369 2.79077 3.75811 0
M  V30 5083 H 482.542 4.06322 5.04783 0
M  V30 5084 N 475.948 -1.35272 0.808662 0
M  V30 5085 C 476.878 -2.32315 0.234981 0
M  V30 5086 C 477.859 -1.57572 -0.64071 0
M  V30 5087 O 479.044 -1.8563 -0.570551 0
M  V30 5088 C 476.174 -3.41801 -0.615601 0
M  V30 5089 C 475.128 -4.27694 0.161767 0
M  V30 5090 C 474.454 -5.28519 -0.810649 0
M  V30 5091 C 475.754 -5.04231 1.36193 0
M  V30 5092 H 477.448 -2.80543 1.04575 0
M  V30 5093 H 474.994 -1.3488 0.504315 0
M  V30 5094 H 476.947 -4.08693 -1.02702 0
M  V30 5095 H 475.671 -2.92186 -1.45928 0
M  V30 5096 H 474.33 -3.62384 0.554382 0
M  V30 5097 H 473.978 -4.75171 -1.64988 0
M  V30 5098 H 473.678 -5.8686 -0.294822 0
M  V30 5099 H 475.202 -5.98283 -1.22023 0
M  V30 5100 H 476.616 -5.64058 1.02528 0
M  V30 5101 H 475.013 -5.72077 1.81239 0
M  V30 5102 H 476.083 -4.34753 2.14751 0
M  V30 5103 N 477.426 -0.562348 -1.47226 0
M  V30 5104 C 478.336 0.185466 -2.33866 0
M  V30 5105 C 479.352 0.906713 -1.48508 0
M  V30 5106 O 480.528 0.874458 -1.81425 0
M  V30 5107 C 477.593 1.19904 -3.25306 0
M  V30 5108 C 476.654 0.484669 -4.26555 0
M  V30 5109 C 475.887 1.44996 -5.13626 0
M  V30 5110 O 476.11 2.68515 -5.03245 0
M  V30 5111 O 475.044 0.971642 -5.94006 0
M  V30 5112 H 478.87 -0.525361 -2.99121 0
M  V30 5113 H 476.455 -0.322916 -1.45868 0
M  V30 5114 H 478.337 1.78399 -3.81774 0
M  V30 5115 H 477.012 1.8917 -2.62672 0
M  V30 5116 H 475.919 -0.141605 -3.73832 0
M  V30 5117 H 477.252 -0.166634 -4.91918 0
M  V30 5118 N 478.904 1.54736 -0.299062 0
M  V30 5119 C 480.181 1.92187 0.363802 0
M  V30 5120 C 480.561 1.22607 1.71845 0
M  V30 5121 O 479.909 0.361141 2.25628 0
M  V30 5122 C 480.119 3.45678 0.480377 0
M  V30 5123 C 481.467 4.17885 0.752147 0
M  V30 5124 O 482.491 3.51702 0.564264 0
M  V30 5125 O 481.35 5.35048 1.11294 0
M  V30 5126 H 478.444 0.801681 0.203066 0
M  V30 5127 H 480.99 1.66115 -0.346978 0
M  V30 5128 H 479.762 3.88443 -0.471999 0
M  V30 5129 H 479.385 3.77779 1.2397 0
M  V30 5130 N 480.382 0.0267497 1.57577 0
M  V30 5131 C 481.312 -0.954308 2.13108 0
M  V30 5132 C 482.293 -1.34088 1.04663 0
M  V30 5133 O 483.478 -1.41992 1.32484 0
M  V30 5134 C 480.608 -2.23744 2.65624 0
M  V30 5135 C 479.562 -1.99168 3.78835 0
M  V30 5136 C 478.888 -3.33726 4.17769 0
M  V30 5137 C 480.188 -1.33277 5.0501 0
M  V30 5138 H 481.882 -0.491848 2.95332 0
M  V30 5139 H 479.428 -0.23514 1.42067 0
M  V30 5140 H 481.381 -2.92754 3.03106 0
M  V30 5141 H 480.105 -2.72151 1.80558 0
M  V30 5142 H 478.764 -1.32577 3.41788 0
M  V30 5143 H 478.412 -3.79888 3.29688 0
M  V30 5144 H 478.112 -3.18089 4.94058 0
M  V30 5145 H 479.636 -4.04008 4.57832 0
M  V30 5146 H 481.05 -1.92283 5.40093 0
M  V30 5147 H 479.447 -1.28045 5.8628 0
M  V30 5148 H 480.517 -0.305411 4.83937 0
M  V30 5149 N 481.861 -1.55662 -0.24637 0
M  V30 5150 C 482.824 -1.89558 -1.28842 0
M  V30 5151 C 483.824 -0.772082 -1.41052 0
M  V30 5152 O 485.014 -1.04007 -1.39743 0
M  V30 5153 C 482.146 -2.12449 -2.66605 0
M  V30 5154 H 483.339 -2.82735 -1.00004 0
M  V30 5155 H 480.892 -1.48562 -0.485684 0
M  V30 5156 H 481.627 -1.21742 -3.00582 0
M  V30 5157 H 481.412 -2.94273 -2.59125 0
M  V30 5158 H 482.902 -2.39854 -3.41847 0
M  V30 5159 N 483.339 0.512053 -1.4905 0
M  V30 5160 C 484.286 1.6148 -1.64902 0
M  V30 5161 C 485.256 1.58687 -0.490673 0
M  V30 5162 O 486.441 1.76842 -0.71636 0
M  V30 5163 C 483.581 2.99676 -1.71139 0
M  V30 5164 C 482.694 3.12568 -2.98203 0
M  V30 5165 C 481.829 4.4143 -2.95487 0
M  V30 5166 C 480.868 4.47916 -4.17179 0
M  V30 5167 N 480.005 5.68191 -4.12437 0
M  V30 5168 H 484.845 1.47271 -2.59066 0
M  V30 5169 H 482.382 0.716713 -1.28459 0
M  V30 5170 H 484.34 3.79761 -1.72736 0
M  V30 5171 H 482.97 3.12614 -0.804508 0
M  V30 5172 H 482.022 2.25618 -3.06269 0
M  V30 5173 H 483.334 3.1322 -3.88194 0
M  V30 5174 H 482.488 5.29825 -2.95585 0
M  V30 5175 H 481.227 4.43326 -2.03256 0
M  V30 5176 H 480.232 3.57925 -4.17337 0
M  V30 5177 H 481.457 4.47744 -5.1059 0
M  V30 5178 H 479.403 5.7095 -3.23036 0
M  V30 5179 H 479.32 5.70413 -4.96151 0
M  V30 5180 H 480.588 6.58823 -4.16621 0
M  V30 5181 N 484.817 1.37938 0.762283 0
M  V30 5182 C 485.749 1.30349 1.88525 0
M  V30 5183 C 486.762 0.217402 1.61342 0
M  V30 5184 O 487.951 0.474291 1.72084 0
M  V30 5185 C 485.051 0.994844 3.23969 0
M  V30 5186 C 484.224 2.18829 3.78725 0
M  V30 5187 C 483.283 1.84844 4.92665 0
M  V30 5188 O 482.309 2.57244 5.07754 0
M  V30 5189 N 483.511 0.798201 5.74986 0
M  V30 5190 H 486.276 2.27114 1.95549 0
M  V30 5191 H 483.837 1.31686 0.941825 0
M  V30 5192 H 485.829 0.748168 3.97724 0
M  V30 5193 H 484.399 0.115446 3.12387 0
M  V30 5194 H 483.619 2.59615 2.96637 0
M  V30 5195 H 484.907 2.98497 4.1204 0
M  V30 5196 H 484.305 0.197611 5.65355 0
M  V30 5197 H 482.862 0.611396 6.48926 0
M  V30 5198 N 486.295 -0.989507 1.22664 0
M  V30 5199 C 487.544 -1.72375 1.04737 0
M  V30 5200 C 487.857 -1.91096 -0.417316 0
M  V30 5201 O 489.063 -2.6188 -0.716334 0
M  V30 5202 C 487.519 -3.10161 1.82561 0
M  V30 5203 C 487.127 -2.99358 3.333 0
M  V30 5204 C 488.871 -3.87607 1.73093 0
M  V30 5205 C 486.778 -4.32319 4.03552 0
M  V30 5206 H 485.708 -0.646326 0.388302 0
M  V30 5207 H 488.359 -1.10437 1.46546 0
M  V30 5208 H 486.741 -3.728 1.33552 0
M  V30 5209 H 487.915 -2.45863 3.89728 0
M  V30 5210 H 486.23 -2.35392 3.43481 0
M  V30 5211 H 488.827 -4.86025 2.22899 0
M  V30 5212 H 489.17 -4.10509 0.691976 0
M  V30 5213 H 489.703 -3.31652 2.19663 0
M  V30 5214 H 486.442 -4.14616 5.07714 0
M  V30 5215 H 485.962 -4.85714 3.51911 0
M  V30 5216 H 487.641 -5.01051 4.09337 0
M  V30 5217 N 487.773 -1.03688 -1.18687 0
M  V30 5218 C 489.001 -0.757918 -1.92518 0
M  V30 5219 C 489.416 0.684398 -1.75959 0
M  V30 5220 O 488.773 1.46617 -1.08673 0
M  V30 5221 C 488.824 -1.10985 -3.44042 0
M  V30 5222 O 488.545 -2.49554 -3.60076 0
M  V30 5223 C 490.046 -0.854844 -4.3498 0
M  V30 5224 H 487.266 -0.276699 -0.611293 0
M  V30 5225 H 489.81 -1.38352 -1.50595 0
M  V30 5226 H 487.965 -0.529279 -3.83767 0
M  V30 5227 H 488.379 -2.6291 -4.53849 0
M  V30 5228 H 489.853 -1.15098 -5.39867 0
M  V30 5229 H 490.33 0.210507 -4.38695 0
M  V30 5230 H 490.936 -1.41853 -4.00946 0
M  V30 5231 N 489.251 1.34841 -0.815825 0
M  V30 5232 C 490.199 2.31549 -0.220888 0
M  V30 5233 C 491.193 1.5707 0.634457 0
M  V30 5234 O 492.399 1.72125 0.526589 0
M  V30 5235 H 488.774 0.750153 -0.0526782 0
M  V30 5236 H 490.745 2.7926 -1.05149 0
M  V30 5237 C 489.494 3.42335 0.608427 0
M  V30 5238 H 488.817 3.9978 -0.0404121 0
M  V30 5239 H 490.257 4.12258 0.990931 0
M  V30 5240 C 488.716 2.86173 1.77782 0
M  V30 5241 O 489.246 2.80474 2.87571 0
M  V30 5242 N 487.452 2.43093 1.59229 0
M  V30 5243 H 486.999 2.47928 0.699237 0
M  V30 5244 H 486.957 2.05866 2.37627 0
M  V30 5245 N 490.729 0.570148 1.46925 0
M  V30 5246 C 492.14 0.1402 1.86173 0
M  V30 5247 C 492.491 -1.29347 1.47526 0
M  V30 5248 O 491.616 -1.97508 0.884292 0
M  V30 5249 C 492.211 0.247661 3.37894 0
M  V30 5250 C 490.77 -0.127332 3.76185 0
M  V30 5251 C 489.917 0.589349 2.70965 0
M  V30 5252 H 492.868 0.779117 1.38259 0
M  V30 5253 H 492.889 -0.530341 3.76786 0
M  V30 5254 H 492.401 1.29121 3.65991 0
M  V30 5255 H 490.502 -1.17149 3.53704 0
M  V30 5256 H 490.615 0.240238 4.78497 0
M  V30 5257 H 488.979 0.0309824 2.54681 0
M  V30 5258 H 489.762 1.6343 3.01903 0
M  V30 5259 N 492.207 -1.54576 0.307264 0
M  V30 5260 C 493.157 -2.20467 -0.581249 0
M  V30 5261 C 494.141 -1.17972 -1.09414 0
M  V30 5262 O 495.333 -1.43667 -1.03387 0
M  V30 5263 C 492.462 -2.95369 -1.74963 0
M  V30 5264 C 491.548 -4.05186 -1.25241 0
M  V30 5265 N 491.939 -5.03577 -0.47364 0
M  V30 5266 C 490.237 -4.18841 -1.53259 0
M  V30 5267 C 490.938 -5.81328 -0.208083 0
M  V30 5268 N 489.914 -5.37834 -0.789651 0
M  V30 5269 H 493.716 -2.93892 0.0212221 0
M  V30 5270 H 491.23 -1.62011 0.112325 0
M  V30 5271 H 493.227 -3.41046 -2.39777 0
M  V30 5272 H 491.887 -2.23461 -2.35574 0
M  V30 5273 H 492.898 -5.17766 -0.117963 0
M  V30 5274 H 489.575 -3.58141 -2.14573 0
M  V30 5275 H 490.965 -6.706 0.417793 0
M  V30 5276 N 493.685 -0.035106 -1.57561 0
M  V30 5277 C 494.91 0.655802 -1.96759 0
M  V30 5278 C 495.335 1.64523 -0.911809 0
M  V30 5279 O 494.693 1.80857 0.126673 0
M  V30 5280 C 494.741 1.33326 -3.35047 0
M  V30 5281 O 493.845 2.44866 -3.31835 0
M  V30 5282 H 493.186 0.171807 -0.641388 0
M  V30 5283 H 495.716 -0.0987369 -2.04362 0
M  V30 5284 H 495.726 1.68867 -3.71413 0
M  V30 5285 H 494.401 0.608033 -4.11431 0
M  V30 5286 H 492.978 2.11392 -3.07193 0
M  V30 5287 N 495.163 1.55791 0.238111 0
M  V30 5288 C 496.391 1.82098 0.982233 0
M  V30 5289 C 496.806 0.612025 1.78605 0
M  V30 5290 O 496.163 -0.419381 1.77616 0
M  V30 5291 C 496.214 3.0673 1.91309 0
M  V30 5292 O 495.935 4.2296 1.14179 0
M  V30 5293 C 497.436 3.45903 2.77248 0
M  V30 5294 H 494.656 0.605748 0.288635 0
M  V30 5295 H 497.2 2.02862 0.258341 0
M  V30 5296 H 495.355 2.87991 2.59114 0
M  V30 5297 H 495.769 4.93653 1.7722 0
M  V30 5298 H 497.243 4.36189 3.38295 0
M  V30 5299 H 497.72 2.66891 3.48806 0
M  V30 5300 H 498.326 3.67024 2.14881 0
M  V30 5301 N 496.642 -0.504142 1.49319 0
M  V30 5302 C 497.891 -1.25507 1.57895 0
M  V30 5303 C 498.204 -1.93735 0.269433 0
M  V30 5304 O 499.41 -2.70492 0.233706 0
M  V30 5305 C 497.866 -2.27869 2.78574 0
M  V30 5306 C 497.474 -1.65594 4.16272 0
M  V30 5307 C 499.218 -3.0381 2.96479 0
M  V30 5308 C 497.125 -2.66048 5.28178 0
M  V30 5309 H 496.055 -0.47212 0.587894 0
M  V30 5310 H 498.706 -0.52931 1.757 0
M  V30 5311 H 497.088 -3.03594 2.54257 0
M  V30 5312 H 498.262 -0.958826 4.50714 0
M  V30 5313 H 496.577 -1.02055 4.037 0
M  V30 5314 H 499.174 -3.78925 3.77253 0
M  V30 5315 H 499.517 -3.61235 2.06918 0
M  V30 5316 H 500.05 -2.352 3.20821 0
M  V30 5317 H 496.789 -2.13408 6.19788 0
M  V30 5318 H 496.309 -3.34009 4.98195 0
M  V30 5319 H 497.988 -3.28536 5.57381 0
M  V30 5320 N 498.12 -1.38341 -0.754957 0
M  V30 5321 C 499.35 -1.37504 -1.54195 0
M  V30 5322 C 499.758 0.0373787 -1.89163 0
M  V30 5323 O 499.101 1.01402 -1.53178 0
M  V30 5324 C 499.163 -2.16488 -2.87008 0
M  V30 5325 C 498.827 -3.65311 -2.74585 0
M  V30 5326 C 499.824 -4.58834 -2.44474 0
M  V30 5327 C 497.509 -4.08649 -2.9208 0
M  V30 5328 C 499.503 -5.93675 -2.32011 0
M  V30 5329 C 497.19 -5.43571 -2.79237 0
M  V30 5330 C 498.188 -6.35898 -2.49245 0
M  V30 5331 O 497.876 -7.68338 -2.36458 0
M  V30 5332 H 497.608 -0.472159 -0.483779 0
M  V30 5333 H 500.162 -1.82515 -0.94221 0
M  V30 5334 H 498.392 -1.66194 -3.49166 0
M  V30 5335 H 500.081 -2.08076 -3.4851 0
M  V30 5336 H 500.847 -4.26657 -2.30627 0
M  V30 5337 H 496.726 -3.37134 -3.14422 0
M  V30 5338 H 500.27 -6.65706 -2.08522 0
M  V30 5339 H 496.167 -5.75345 -2.92657 0
M  V30 5340 H 496.935 -7.78845 -2.5168 0
M  V30 5341 N 499.598 0.982988 -1.23187 0
M  V30 5342 C 500.545 2.07491 -1.01075 0
M  V30 5343 C 501.515 1.65949 0.070905 0
M  V30 5344 O 502.7 1.90629 -0.0806822 0
M  V30 5345 C 499.84 3.39751 -0.605261 0
M  V30 5346 C 498.953 3.94578 -1.75876 0
M  V30 5347 C 498.088 5.15039 -1.3003 0
M  V30 5348 C 497.127 5.62027 -2.42472 0
M  V30 5349 N 496.264 6.73719 -1.97602 0
M  V30 5350 H 501.104 2.25739 -1.9454 0
M  V30 5351 H 498.641 1.10659 -0.969179 0
M  V30 5352 H 500.599 4.15719 -0.351279 0
M  V30 5353 H 499.229 3.21473 0.292382 0
M  V30 5354 H 498.281 3.1539 -2.12681 0
M  V30 5355 H 499.593 4.25422 -2.60418 0
M  V30 5356 H 498.747 5.9833 -1.00429 0
M  V30 5357 H 497.486 4.85843 -0.425216 0
M  V30 5358 H 496.491 4.77318 -2.7285 0
M  V30 5359 H 497.716 5.93244 -3.30512 0
M  V30 5360 H 495.662 6.46287 -1.1247 0
M  V30 5361 H 495.579 7.03934 -2.75705 0
M  V30 5362 H 496.847 7.6049 -1.71098 0
M  V30 5363 N 501.076 1.04316 1.18135 0
M  V30 5364 C 502.024 0.630175 2.23901 0
M  V30 5365 C 503.018 -0.344254 1.65865 0
M  V30 5366 O 504.224 -0.211273 1.78756 0
M  V30 5367 H 500.599 0.185578 0.728742 0
M  V30 5368 H 502.57 1.53253 2.56039 0
M  V30 5369 C 501.319 0.011666 3.47698 0
M  V30 5370 H 500.642 0.752526 3.92654 0
M  V30 5371 H 502.082 -0.240046 4.2332 0
M  V30 5372 C 500.541 -1.23913 3.13285 0
M  V30 5373 O 501.071 -2.32959 3.27251 0
M  V30 5374 N 499.277 -1.13338 2.67587 0
M  V30 5375 H 498.824 -0.246006 2.56423 0
M  V30 5376 H 498.782 -1.97116 2.44934 0
M  V30 5377 N 502.554 -1.34406 0.822964 0
M  V30 5378 C 503.464 -2.33298 0.246838 0
M  V30 5379 C 504.48 -1.62625 -0.618797 0
M  V30 5380 O 505.656 -1.94391 -0.526685 0
M  V30 5381 C 502.721 -3.41785 -0.581731 0
M  V30 5382 C 501.782 -4.28206 0.306309 0
M  V30 5383 C 501.015 -5.31512 -0.48281 0
M  V30 5384 O 501.238 -5.43973 -1.71607 0
M  V30 5385 O 500.172 -6.01749 0.134884 0
M  V30 5386 H 503.998 -2.84401 1.06534 0
M  V30 5387 H 501.583 -1.37466 0.585108 0
M  V30 5388 H 503.465 -4.08028 -1.05313 0
M  V30 5389 H 502.14 -2.92925 -1.37756 0
M  V30 5390 H 501.047 -3.64885 0.825199 0
M  V30 5391 H 502.38 -4.80507 1.06649 0
M  V30 5392 N 504.032 -0.577932 -1.46621 0
M  V30 5393 C 504.979 0.158048 -2.30258 0
M  V30 5394 C 505.949 0.888669 -1.40328 0
M  V30 5395 O 507.134 0.880283 -1.6928 0
M  V30 5396 C 504.274 1.16884 -3.24703 0
M  V30 5397 C 503.387 0.442163 -4.29731 0
M  V30 5398 C 502.522 1.44007 -5.11308 0
M  V30 5399 C 501.561 0.69952 -6.0809 0
M  V30 5400 N 500.698 1.64525 -6.82551 0
M  V30 5401 H 505.538 -0.561242 -2.92667 0
M  V30 5402 H 503.075 -0.288591 -1.44241 0
M  V30 5403 H 505.033 1.7677 -3.779 0
M  V30 5404 H 503.663 1.85591 -2.64113 0
M  V30 5405 H 502.715 -0.271632 -3.79429 0
M  V30 5406 H 504.027 -0.136992 -4.98612 0
M  V30 5407 H 503.181 2.11186 -5.68758 0
M  V30 5408 H 501.92 2.05315 -4.42377 0
M  V30 5409 H 500.925 0.0139217 -5.49798 0
M  V30 5410 H 502.15 0.091894 -6.79038 0
M  V30 5411 H 500.096 2.24653 -6.16334 0
M  V30 5412 H 500.013 1.11878 -7.47676 0
M  V30 5413 H 501.281 2.30754 -7.44562 0
M  V30 5414 N 505.51 1.54411 -0.315457 0
M  V30 5415 C 506.473 2.22713 0.54142 0
M  V30 5416 C 507.473 1.2179 1.04995 0
M  V30 5417 O 508.663 1.46426 0.943667 0
M  V30 5418 C 505.795 2.92485 1.75116 0
M  V30 5419 H 506.988 2.99849 -0.0555508 0
M  V30 5420 H 504.541 1.56159 -0.0664453 0
M  V30 5421 H 505.276 2.19466 2.38758 0
M  V30 5422 H 505.061 3.66483 1.39401 0
M  V30 5423 H 506.551 3.44548 2.35959 0
M  V30 5424 N 506.988 0.0434614 1.5754 0
M  V30 5425 C 508.237 -0.631454 1.91561 0
M  V30 5426 C 508.55 -1.72457 0.92292 0
M  V30 5427 O 509.756 -2.45712 1.15489 0
M  V30 5428 C 508.212 -1.17447 3.40197 0
M  V30 5429 C 507.82 -0.113867 4.47855 0
M  V30 5430 C 509.564 -1.82507 3.83264 0
M  V30 5431 C 507.471 -0.669326 5.876 0
M  V30 5432 H 506.401 -0.239629 0.714908 0
M  V30 5433 H 509.052 0.111097 1.83163 0
M  V30 5434 H 507.434 -1.96909 3.43574 0
M  V30 5435 H 508.608 0.659348 4.56058 0
M  V30 5436 H 506.923 0.438821 4.14081 0
M  V30 5437 H 509.52 -2.25047 4.85034 0
M  V30 5438 H 509.863 -2.67365 3.19095 0
M  V30 5439 H 510.396 -1.09712 3.82372 0
M  V30 5440 H 507.135 0.141449 6.55347 0
M  V30 5441 H 506.655 -1.4107 5.82974 0
M  V30 5442 H 508.334 -1.15463 6.36614 0
M  V30 5443 N 508.466 -1.55915 -0.229846 0
M  V30 5444 C 509.882 -1.48721 -0.579166 0
M  V30 5445 C 510.082 -0.736976 -1.87539 0
M  V30 5446 O 509.138 -0.273258 -2.51017 0
M  V30 5447 C 510.451 -2.9323 -0.666082 0
M  V30 5448 C 511.999 -3.03701 -0.757267 0
M  V30 5449 C 512.474 -4.49552 -0.8756 0
M  V30 5450 N 513.965 -4.53561 -0.940035 0
M  V30 5451 C 514.7 -5.63683 -1.05116 0
M  V30 5452 N 514.196 -6.83576 -1.12675 0
M  V30 5453 N 515.989 -5.51516 -1.08565 0
M  V30 5454 H 508.14 -2.03123 0.620857 0
M  V30 5455 H 510.403 -0.922898 0.21671 0
M  V30 5456 H 510.109 -3.51032 0.21664 0
M  V30 5457 H 509.983 -3.44668 -1.53243 0
M  V30 5458 H 512.37 -2.45969 -1.63043 0
M  V30 5459 H 512.451 -2.55446 0.134583 0
M  V30 5460 H 512.095 -5.079 -0.00692351 0
M  V30 5461 H 512.025 -4.95506 -1.78274 0
M  V30 5462 H 514.516 -3.67215 -0.892269 0
M  V30 5463 H 514.829 -7.63251 -1.21109 0
M  V30 5464 H 513.174 -6.86303 -1.09603 0
M  V30 5465 H 516.365 -4.5678 -1.02319 0
M  V30 5466 H 516.538 -6.37372 -1.1688 0
M  V30 5467 N 509.944 0.496216 -1.49584 0
M  V30 5468 C 511.172 1.27394 -1.63029 0
M  V30 5469 C 511.587 1.86344 -0.303569 0
M  V30 5470 O 510.944 1.68057 0.711547 0
M  V30 5471 C 510.995 2.40077 -2.70269 0
M  V30 5472 O 510.716 1.83549 -3.97796 0
M  V30 5473 C 512.217 3.31372 -2.94462 0
M  V30 5474 H 509.437 0.386211 -0.54871 0
M  V30 5475 H 511.981 0.595163 -1.95648 0
M  V30 5476 H 510.136 3.03775 -2.40415 0
M  V30 5477 H 510.55 2.57561 -4.56905 0
M  V30 5478 H 512.024 4.06707 -3.73221 0
M  V30 5479 H 512.501 3.88654 -2.0456 0
M  V30 5480 H 513.107 2.73435 -3.25751 0
M  V30 5481 N 511.423 1.38739 0.74761 0
M  V30 5482 C 512.669 1.35475 1.50912 0
M  V30 5483 C 513.002 -0.0533093 1.94127 0
M  V30 5484 O 512.277 -1.01572 1.65871 0
M  V30 5485 C 512.56 2.31582 2.75757 0
M  V30 5486 C 512.413 3.81274 2.38642 0
M  V30 5487 C 513.732 2.25722 3.77806 0
M  V30 5488 H 510.851 0.493427 0.547447 0
M  V30 5489 H 513.493 1.69634 0.855823 0
M  V30 5490 H 511.643 2.02582 3.31501 0
M  V30 5491 H 513.315 4.20972 1.88626 0
M  V30 5492 H 511.558 3.98664 1.71025 0
M  V30 5493 H 512.229 4.4399 3.27989 0
M  V30 5494 H 514.705 2.51336 3.31616 0
M  V30 5495 H 513.581 2.95069 4.62845 0
M  V30 5496 H 513.842 1.25803 4.23823 0
M  V30 5497 N 512.901 -0.976442 1.23707 0
M  V30 5498 C 513.848 -2.06952 1.02174 0
M  V30 5499 C 514.818 -1.65984 -0.0621034 0
M  V30 5500 O 516.003 -1.90584 0.0907906 0
M  V30 5501 C 513.143 -3.39425 0.62327 0
M  V30 5502 C 512.256 -3.9364 1.77966 0
M  V30 5503 C 511.391 -5.14343 1.3276 0
M  V30 5504 C 510.43 -5.60733 2.45449 0
M  V30 5505 N 509.567 -6.72662 2.01172 0
M  V30 5506 H 514.407 -2.24704 1.95734 0
M  V30 5507 H 511.944 -1.10143 0.975034 0
M  V30 5508 H 513.902 -4.15526 0.37332 0
M  V30 5509 H 512.532 -3.21624 -0.275329 0
M  V30 5510 H 511.584 -3.14258 2.14351 0
M  V30 5511 H 512.896 -4.24035 2.62671 0
M  V30 5512 H 512.05 -5.97789 1.03601 0
M  V30 5513 H 510.789 -4.8561 0.450975 0
M  V30 5514 H 509.794 -4.75865 2.75378 0
M  V30 5515 H 511.019 -5.91483 3.33654 0
M  V30 5516 H 508.965 -6.45681 1.15895 0
M  V30 5517 H 508.882 -7.02462 2.79434 0
M  V30 5518 H 510.15 -7.59572 1.75129 0
M  V30 5519 N 514.379 -1.04941 -1.1758 0
M  V30 5520 C 515.289 -0.658826 -2.25159 0
M  V30 5521 C 516.305 0.318941 -1.71052 0
M  V30 5522 O 517.481 0.171669 -2.00667 0
M  V30 5523 C 514.546 -0.0369522 -3.4668 0
M  V30 5524 C 513.607 -1.06484 -4.15884 0
M  V30 5525 C 512.84 -0.472551 -5.31604 0
M  V30 5526 O 513.063 0.718736 -5.65854 0
M  V30 5527 O 511.997 -1.20557 -5.89703 0
M  V30 5528 H 515.823 -1.55533 -2.60851 0
M  V30 5529 H 513.408 -0.820819 -1.24832 0
M  V30 5530 H 515.29 0.308784 -4.20267 0
M  V30 5531 H 513.965 0.833238 -3.12792 0
M  V30 5532 H 512.872 -1.46253 -3.44327 0
M  V30 5533 H 514.205 -1.9061 -4.53794 0
M  V30 5534 N 515.857 1.33968 -0.830081 0
M  V30 5535 C 517.082 2.02813 -0.433796 0
M  V30 5536 C 517.507 1.62076 0.954614 0
M  V30 5537 O 516.865 0.808955 1.62252 0
M  V30 5538 C 516.913 3.56348 -0.552115 0
M  V30 5539 O 516.017 4.10202 0.425191 0
M  V30 5540 H 515.358 0.639817 -0.177567 0
M  V30 5541 H 517.888 1.7106 -1.12248 0
M  V30 5542 H 517.898 4.05722 -0.430513 0
M  V30 5543 H 516.573 3.85344 -1.56471 0
M  V30 5544 H 515.15 3.71979 0.261878 0
M  V30 5545 N 517.335 0.585699 1.46312 0
M  V30 5546 C 518.265 -0.133556 2.33118 0
M  V30 5547 C 519.246 -0.880707 1.45525 0
M  V30 5548 O 520.431 -0.855579 1.74337 0
M  V30 5549 C 517.561 -1.14585 3.27853 0
M  V30 5550 C 516.515 -0.513341 4.2491 0
M  V30 5551 C 515.841 -1.63231 5.09175 0
M  V30 5552 C 517.141 0.551413 5.19381 0
M  V30 5553 H 518.835 0.59121 2.93505 0
M  V30 5554 H 516.381 0.285761 1.41136 0
M  V30 5555 H 518.334 -1.65741 3.87438 0
M  V30 5556 H 517.058 -1.90093 2.65579 0
M  V30 5557 H 515.717 -0.0228349 3.66593 0
M  V30 5558 H 515.365 -2.37713 4.43285 0
M  V30 5559 H 515.065 -1.21473 5.74907 0
M  V30 5560 H 516.589 -2.14658 5.71624 0
M  V30 5561 H 518.003 0.124804 5.73164 0
M  V30 5562 H 516.4 0.889486 5.93471 0
M  V30 5563 H 517.47 1.43655 4.63132 0
M  V30 5564 N 518.813 -1.54241 0.323641 0
M  V30 5565 C 519.776 -2.22997 -0.529602 0
M  V30 5566 C 520.776 -1.22345 -1.04347 0
M  V30 5567 O 521.966 -1.46924 -0.935889 0
M  V30 5568 C 519.098 -2.93409 -1.73562 0
M  V30 5569 H 520.291 -2.99815 0.0714518 0
M  V30 5570 H 517.844 -1.56121 0.0747258 0
M  V30 5571 H 518.579 -2.20729 -2.37591 0
M  V30 5572 H 518.364 -3.67217 -1.37456 0
M  V30 5573 H 519.854 -3.45794 -2.34128 0
M  V30 5574 N 520.291 -0.0518155 -1.57515 0
M  V30 5575 C 521.537 0.616839 -1.93821 0
M  V30 5576 C 521.892 1.68413 -0.930307 0
M  V30 5577 O 521.185 1.91534 0.0504231 0
M  V30 5578 C 521.379 1.25607 -3.34601 0
M  V30 5579 C 521.208 0.252222 -4.48992 0
M  V30 5580 C 519.978 -0.156031 -5.05059 0
M  V30 5581 C 522.176 -0.502613 -5.11838 0
M  V30 5582 N 520.158 -1.15267 -6.02981 0
M  V30 5583 C 521.529 -1.35232 -6.05072 0
M  V30 5584 C 523.584 -0.560855 -4.94731 0
M  V30 5585 C 522.287 -2.25505 -6.83037 0
M  V30 5586 C 524.313 -1.45102 -5.73323 0
M  V30 5587 C 523.675 -2.28845 -6.6619 0
M  V30 5588 H 519.774 0.197344 -0.75669 0
M  V30 5589 H 522.358 -0.124297 -1.94303 0
M  V30 5590 H 520.529 1.96723 -3.34895 0
M  V30 5591 H 522.261 1.88358 -3.58195 0
M  V30 5592 H 519.016 0.22306 -4.73074 0
M  V30 5593 H 519.44 -1.64791 -6.56638 0
M  V30 5594 H 524.082 0.0723639 -4.22738 0
M  V30 5595 H 521.8 -2.89872 -7.54321 0
M  V30 5596 H 525.386 -1.50066 -5.62113 0
M  V30 5597 H 524.266 -2.96608 -7.25943 0
M  V30 5598 N 521.769 1.56035 0.221574 0
M  V30 5599 C 522.699 1.95434 1.2778 0
M  V30 5600 C 523.68 0.822564 1.48889 0
M  V30 5601 O 524.865 1.08486 1.61072 0
M  V30 5602 C 521.995 2.27102 2.62759 0
M  V30 5603 C 520.949 3.4277 2.56306 0
M  V30 5604 C 520.275 3.60043 3.95314 0
M  V30 5605 C 521.575 4.77742 2.11093 0
M  V30 5606 H 523.269 2.83912 0.950504 0
M  V30 5607 H 520.815 1.36596 0.455791 0
M  V30 5608 H 522.768 2.53256 3.36807 0
M  V30 5609 H 521.492 1.35478 2.97176 0
M  V30 5610 H 520.151 3.16664 1.84715 0
M  V30 5611 H 519.799 2.65794 4.27039 0
M  V30 5612 H 519.499 4.37841 3.91879 0
M  V30 5613 H 521.023 3.88545 4.71025 0
M  V30 5614 H 522.437 5.03102 2.74885 0
M  V30 5615 H 520.834 5.58823 2.18716 0
M  V30 5616 H 521.904 4.731 1.06321 0
M  V30 5617 N 523.247 -0.488276 1.49845 0
M  V30 5618 C 524.197 -1.58556 1.63842 0
M  V30 5619 C 525.181 -1.53142 0.493586 0
M  V30 5620 O 526.373 -1.60457 0.747169 0
M  V30 5621 C 523.502 -2.97101 1.72005 0
M  V30 5622 C 522.588 -3.07463 2.92108 0
M  V30 5623 N 522.979 -2.87681 4.16021 0
M  V30 5624 C 521.277 -3.3858 2.90309 0
M  V30 5625 C 521.978 -3.0256 4.96822 0
M  V30 5626 N 520.954 -3.32002 4.30437 0
M  V30 5627 H 524.756 -1.41935 2.57355 0
M  V30 5628 H 522.27 -0.694668 1.46793 0
M  V30 5629 H 524.267 -3.75976 1.80132 0
M  V30 5630 H 522.927 -3.14782 0.796375 0
M  V30 5631 H 523.938 -2.63603 4.45796 0
M  V30 5632 H 520.615 -3.62357 2.07372 0
M  V30 5633 H 522.005 -2.9165 6.05301 0
M  V30 5634 N 524.725 -1.39134 -0.740242 0
M  V30 5635 C 525.657 -1.33332 -1.86428 0
M  V30 5636 C 526.67 -0.243042 -1.60976 0
M  V30 5637 O 527.859 -0.501608 -1.71307 0
M  V30 5638 C 524.959 -1.04626 -3.22346 0
M  V30 5639 C 524.132 -2.24826 -3.75196 0
M  V30 5640 C 523.191 -1.92659 -4.89662 0
M  V30 5641 O 522.217 -2.6529 -5.03597 0
M  V30 5642 N 523.419 -0.889575 -5.73643 0
M  V30 5643 H 526.184 -2.30196 -1.91911 0
M  V30 5644 H 523.745 -1.33168 -0.920756 0
M  V30 5645 H 525.737 -0.811347 -3.96484 0
M  V30 5646 H 524.307 -0.165129 -3.12164 0
M  V30 5647 H 523.527 -2.64301 -2.9247 0
M  V30 5648 H 524.815 -3.05015 -4.07239 0
M  V30 5649 H 524.213 -0.287529 -5.64969 0
M  V30 5650 H 522.77 -0.714557 -6.47871 0
M  V30 5651 N 526.204 0.969867 -1.24223 0
M  V30 5652 C 527.152 2.08535 -1.03034 0
M  V30 5653 C 528.146 1.69366 0.0340379 0
M  V30 5654 O 529.352 1.79597 -0.12034 0
M  V30 5655 H 525.727 0.682313 -0.316154 0
M  V30 5656 H 527.698 2.23569 -1.97635 0
M  V30 5657 C 526.447 3.4158 -0.649509 0
M  V30 5658 H 525.77 3.72177 -1.46028 0
M  V30 5659 H 527.21 4.20536 -0.540841 0
M  V30 5660 C 525.669 3.30703 0.643194 0
M  V30 5661 O 526.199 3.64443 1.68951 0
M  V30 5662 N 524.405 2.83841 0.623095 0
M  V30 5663 H 523.952 2.56583 -0.228719 0
M  V30 5664 H 523.91 2.76946 1.48823 0
M  V30 5665 N 527.682 1.05563 1.17022 0
M  V30 5666 C 528.929 0.767937 1.87374 0
M  V30 5667 C 529.257 -0.705224 1.81265 0
M  V30 5668 O 528.512 -1.5318 1.21796 0
M  V30 5669 C 528.811 1.19849 3.36706 0
M  V30 5670 C 528.477 2.6745 3.63017 0
M  V30 5671 C 527.139 3.0777 3.69907 0
M  V30 5672 C 529.491 3.62811 3.74189 0
M  V30 5673 C 526.819 4.42307 3.85463 0
M  V30 5674 C 529.171 4.97087 3.91264 0
M  V30 5675 C 527.835 5.37055 3.96394 0
M  V30 5676 H 527.105 0.281008 0.68565 0
M  V30 5677 H 529.752 1.32339 1.38415 0
M  V30 5678 H 528.057 0.562096 3.87747 0
M  V30 5679 H 529.754 0.953038 3.8951 0
M  V30 5680 H 526.344 2.35228 3.58282 0
M  V30 5681 H 530.528 3.32798 3.68183 0
M  V30 5682 H 525.784 4.72769 3.87684 0
M  V30 5683 H 529.958 5.70869 3.9885 0
M  V30 5684 H 527.585 6.41308 4.082 0
M  V30 5685 N 529.16 -1.33526 0.837174 0
M  V30 5686 C 530.39 -2.01754 0.444848 0
M  V30 5687 C 530.798 -1.63149 -0.958072 0
M  V30 5688 O 530.141 -0.839827 -1.63379 0
M  V30 5689 C 530.203 -3.56228 0.483917 0
M  V30 5690 C 529.867 -4.18205 1.84265 0
M  V30 5691 C 530.864 -4.37699 2.80563 0
M  V30 5692 C 528.549 -4.54667 2.13503 0
M  V30 5693 C 530.543 -4.928 4.04261 0
M  V30 5694 C 528.23 -5.09475 3.37458 0
M  V30 5695 C 529.228 -5.28488 4.32654 0
M  V30 5696 O 528.916 -5.82132 5.54417 0
M  V30 5697 H 528.648 -0.652928 0.175104 0
M  V30 5698 H 531.202 -1.71469 1.13082 0
M  V30 5699 H 529.432 -3.85833 -0.258826 0
M  V30 5700 H 531.121 -4.05752 0.109653 0
M  V30 5701 H 531.887 -4.0988 2.59274 0
M  V30 5702 H 527.766 -4.39164 1.40201 0
M  V30 5703 H 531.31 -5.07555 4.78574 0
M  V30 5704 H 527.207 -5.36725 3.58604 0
M  V30 5705 H 527.975 -6.00548 5.56133 0
M  V30 5706 N 530.638 -0.59345 -1.46 0
M  V30 5707 C 531.586 0.146268 -2.3214 0
M  V30 5708 C 532.58 0.873743 -1.45128 0
M  V30 5709 O 533.786 0.790912 -1.61693 0
M  V30 5710 H 530.161 0.0660349 -0.749095 0
M  V30 5711 H 532.132 -0.598895 -2.92328 0
M  V30 5712 C 530.881 1.1396 -3.28494 0
M  V30 5713 H 530.204 0.589252 -3.95434 0
M  V30 5714 H 531.644 1.62738 -3.91526 0
M  V30 5715 C 530.103 2.20604 -2.54628 0
M  V30 5716 O 530.633 3.28128 -2.31722 0
M  V30 5717 N 528.839 1.95502 -2.15005 0
M  V30 5718 H 528.386 1.0807 -2.33834 0
M  V30 5719 H 528.344 2.67064 -1.65904 0
M  V30 5720 N 532.116 1.54067 -0.331816 0
M  V30 5721 C 533.362 2.01012 0.268667 0
M  V30 5722 C 533.695 1.2195 1.51136 0
M  V30 5723 O 532.97 0.303972 1.9211 0
M  V30 5724 C 533.253 3.55158 0.59456 0
M  V30 5725 C 533.106 4.4494 -0.659409 0
M  V30 5726 C 534.425 4.16939 1.4089 0
M  V30 5727 H 531.544 0.730698 0.0961756 0
M  V30 5728 H 534.186 1.84593 -0.450031 0
M  V30 5729 H 532.336 3.6928 1.20685 0
M  V30 5730 H 534.008 4.42675 -1.29756 0
M  V30 5731 H 532.251 4.1428 -1.28665 0
M  V30 5732 H 532.922 5.50643 -0.386804 0
M  V30 5733 H 535.398 4.06443 0.891272 0
M  V30 5734 H 534.274 5.24889 1.60569 0
M  V30 5735 H 534.535 3.70798 2.40752 0
M  V30 5736 N 533.594 0.0601682 1.57485 0
M  V30 5737 C 534.542 -0.928899 2.13247 0
M  V30 5738 C 535.536 -1.31616 1.06647 0
M  V30 5739 O 536.742 -1.29476 1.25043 0
M  V30 5740 H 533.117 -0.317455 0.681708 0
M  V30 5741 H 535.088 -0.433566 2.95233 0
M  V30 5742 C 533.837 -2.19121 2.69965 0
M  V30 5743 H 533.16 -1.90204 3.51657 0
M  V30 5744 H 534.6 -2.86465 3.12592 0
M  V30 5745 C 533.059 -2.94195 1.64168 0
M  V30 5746 O 533.589 -3.87468 1.05978 0
M  V30 5747 N 531.795 -2.57089 1.35476 0
M  V30 5748 H 531.342 -1.81314 1.82984 0
M  V30 5749 H 531.3 -3.07624 0.649196 0
M  V30 5750 N 535.072 -1.5615 -0.213296 0
M  V30 5751 C 536.019 -1.93086 -1.26437 0
M  V30 5752 C 536.989 -0.789086 -1.4616 0
M  V30 5753 O 538.174 -1.04569 -1.59593 0
M  V30 5754 C 535.314 -2.26003 -2.608 0
M  V30 5755 C 534.427 -3.53156 -2.48807 0
M  V30 5756 C 533.562 -3.7548 -3.7575 0
M  V30 5757 C 532.601 -4.96119 -3.58514 0
M  V30 5758 N 531.738 -5.14791 -4.77425 0
M  V30 5759 H 536.578 -2.82707 -0.942376 0
M  V30 5760 H 534.115 -1.39919 -0.454001 0
M  V30 5761 H 536.073 -2.431 -3.39055 0
M  V30 5762 H 534.703 -1.39546 -2.91079 0
M  V30 5763 H 533.755 -3.44207 -1.61944 0
M  V30 5764 H 535.067 -4.41565 -2.31996 0
M  V30 5765 H 534.221 -3.92718 -4.62447 0
M  V30 5766 H 532.96 -2.85368 -3.95495 0
M  V30 5767 H 531.965 -4.78823 -2.70201 0
M  V30 5768 H 533.19 -5.87724 -3.40231 0
M  V30 5769 H 531.136 -4.27623 -4.97468 0
M  V30 5770 H 531.053 -5.97347 -4.63371 0
M  V30 5771 H 532.321 -5.36471 -5.65525 0
M  V30 5772 N 536.55 0.480323 -1.50102 0
M  V30 5773 C 537.827 1.24159 -1.51142 0
M  V30 5774 C 538.207 2.09605 -0.250818 0
M  V30 5775 O 537.555 2.15274 0.766118 0
M  V30 5776 C 537.765 2.08057 -2.80202 0
M  V30 5777 C 539.113 2.66556 -3.30504 0
M  V30 5778 O 540.137 2.18308 -2.81461 0
M  V30 5779 O 538.996 3.54442 -4.15973 0
M  V30 5780 H 536.09 0.562928 -0.605839 0
M  V30 5781 H 538.636 0.492899 -1.62384 0
M  V30 5782 H 537.408 1.45032 -3.6343 0
M  V30 5783 H 537.031 2.90079 -2.71919 0
M  V30 5784 N 538.028 1.39524 0.732853 0
M  V30 5785 C 539.277 1.36175 1.48792 0
M  V30 5786 C 539.59 -0.0388195 1.95561 0
M  V30 5787 O 540.796 -0.194899 2.708 0
M  V30 5788 C 539.252 2.39242 2.68871 0
M  V30 5789 C 538.86 3.85024 2.29042 0
M  V30 5790 C 540.604 2.44972 3.46683 0
M  V30 5791 C 538.511 4.79727 3.45856 0
M  V30 5792 H 537.441 0.506267 0.558757 0
M  V30 5793 H 540.092 1.65181 0.799226 0
M  V30 5794 H 538.474 2.0331 3.39825 0
M  V30 5795 H 539.648 4.30008 1.6562 0
M  V30 5796 H 537.963 3.82609 1.64316 0
M  V30 5797 H 540.56 3.12918 4.33574 0
M  V30 5798 H 540.903 1.4749 3.89297 0
M  V30 5799 H 541.436 2.79808 2.82759 0
M  V30 5800 H 538.175 5.78479 3.08289 0
M  V30 5801 H 537.695 4.39421 4.08251 0
M  V30 5802 H 539.374 4.98731 4.12161 0
M  V30 5803 N 539.506 -0.963266 1.24736 0
M  V30 5804 C 540.416 -2.09246 1.06082 0
M  V30 5805 C 541.432 -1.74 0.000363101 0
M  V30 5806 O 542.608 -2.0041 0.199479 0
M  V30 5807 C 539.673 -3.40115 0.672498 0
M  V30 5808 C 538.734 -3.89282 1.80993 0
M  V30 5809 C 537.967 -5.13905 1.44004 0
M  V30 5810 O 538.19 -5.69434 0.331835 0
M  V30 5811 O 537.124 -5.57566 2.26723 0
M  V30 5812 H 540.95 -2.27881 2.00759 0
M  V30 5813 H 538.535 -1.07649 1.03595 0
M  V30 5814 H 540.417 -4.18797 0.467668 0
M  V30 5815 H 539.092 -3.22771 -0.245102 0
M  V30 5816 H 537.999 -3.11642 2.06955 0
M  V30 5817 H 539.332 -4.1111 2.70646 0
M  V30 5818 N 540.985 -1.06182 -1.16461 0
M  V30 5819 C 542.233 -0.776326 -1.86595 0
M  V30 5820 C 542.554 0.69921 -1.82033 0
M  V30 5821 O 541.824 1.50579 -1.2531 0
M  V30 5822 H 540.404 -0.284184 -0.690832 0
M  V30 5823 H 543.066 -1.34308 -1.41235 0
M  V30 5824 H 542.162 -1.10022 -2.92064 0
M  V30 5825 N 542.463 1.3308 -0.844243 0
M  V30 5826 C 543.688 2.02341 -0.455282 0
M  V30 5827 C 544.113 1.6308 0.93737 0
M  V30 5828 O 543.471 0.826118 1.61385 0
M  V30 5829 C 543.519 3.55743 -0.58988 0
M  V30 5830 O 542.623 4.1063 0.38166 0
M  V30 5831 H 541.964 0.637898 -0.184343 0
M  V30 5832 H 544.494 1.6986 -1.14056 0
M  V30 5833 H 544.504 4.05243 -0.473522 0
M  V30 5834 H 543.179 3.83662 -1.60549 0
M  V30 5835 H 541.756 3.72236 0.22241 0
M  V30 5836 N 543.941 0.601185 1.45683 0
M  V30 5837 C 544.904 -0.111398 2.28929 0
M  V30 5838 C 545.904 -0.801246 1.39416 0
M  V30 5839 O 547.094 -0.650383 1.61603 0
M  V30 5840 C 544.226 -1.16773 3.20276 0
M  V30 5841 H 545.419 0.620412 2.93413 0
M  V30 5842 H 542.972 0.359946 1.52099 0
M  V30 5843 H 543.707 -1.93051 2.60579 0
M  V30 5844 H 543.492 -0.677358 3.86205 0
M  V30 5845 H 544.982 -1.66698 3.82886 0
M  V30 5846 N 545.419 -1.53889 0.339982 0
M  V30 5847 C 546.367 -2.26391 -0.533822 0
M  V30 5848 C 547.361 -1.28404 -1.10493 0
M  V30 5849 O 548.567 -1.46124 -1.05108 0
M  V30 5850 H 544.942 -0.727385 -0.190828 0
M  V30 5851 H 546.913 -2.98233 0.0997484 0
M  V30 5852 C 545.662 -3.04707 -1.67479 0
M  V30 5853 H 544.985 -3.79934 -1.2446 0
M  V30 5854 H 546.425 -3.58657 -2.26144 0
M  V30 5855 C 544.884 -2.13989 -2.60212 0
M  V30 5856 O 545.414 -1.73361 -3.62366 0
M  V30 5857 N 543.62 -1.79141 -2.28816 0
M  V30 5858 H 543.167 -2.12378 -1.45785 0
M  V30 5859 H 543.125 -1.18725 -2.91121 0
M  V30 5860 N 546.897 -0.0685191 -1.57451 0
M  V30 5861 C 548.143 0.596247 -1.94465 0
M  V30 5862 C 548.498 1.67417 -0.948117 0
M  V30 5863 O 547.791 1.91576 0.0301056 0
M  V30 5864 C 547.985 1.22051 -3.35914 0
M  V30 5865 C 547.814 0.204586 -4.49234 0
M  V30 5866 C 546.584 -0.20959 -5.04865 0
M  V30 5867 C 548.782 -0.556872 -5.11276 0
M  V30 5868 N 546.764 -1.21656 -6.01725 0
M  V30 5869 C 548.135 -1.41642 -6.03604 0
M  V30 5870 C 550.19 -0.613297 -4.94108 0
M  V30 5871 C 548.893 -2.32737 -6.80607 0
M  V30 5872 C 550.919 -1.51174 -5.71752 0
M  V30 5873 C 550.281 -2.35898 -6.63726 0
M  V30 5874 H 546.38 0.189307 -0.75874 0
M  V30 5875 H 548.964 -0.144899 -1.9416 0
M  V30 5876 H 547.135 1.9316 -3.36963 0
M  V30 5877 H 548.867 1.84548 -3.60172 0
M  V30 5878 H 545.622 0.172871 -4.73284 0
M  V30 5879 H 546.046 -1.71746 -6.54853 0
M  V30 5880 H 550.688 0.0275228 -4.22791 0
M  V30 5881 H 548.406 -2.97856 -7.51204 0
M  V30 5882 H 551.992 -1.5602 -5.6049 0
M  V30 5883 H 550.872 -3.04291 -7.22756 0
M  V30 5884 N 548.375 1.56261 0.205012 0
M  V30 5885 C 549.621 1.81211 0.923805 0
M  V30 5886 C 549.976 0.644065 1.813 0
M  V30 5887 O 549.269 -0.361208 1.88164 0
M  V30 5888 C 549.463 3.09722 1.78345 0
M  V30 5889 C 549.292 4.38915 0.978979 0
M  V30 5890 C 548.062 5.00874 0.667332 0
M  V30 5891 C 550.26 5.13199 0.336386 0
M  V30 5892 N 548.242 6.137 -0.156814 0
M  V30 5893 C 549.613 6.19009 -0.350402 0
M  V30 5894 C 551.668 4.97266 0.251101 0
M  V30 5895 C 550.371 7.10616 -1.11434 0
M  V30 5896 C 552.397 5.89288 -0.499413 0
M  V30 5897 C 551.759 6.94536 -1.17468 0
M  V30 5898 H 547.858 0.714528 0.317764 0
M  V30 5899 H 550.442 1.93738 0.193317 0
M  V30 5900 H 548.613 2.98448 2.48563 0
M  V30 5901 H 550.345 3.22798 2.44098 0
M  V30 5902 H 547.1 4.63151 0.989366 0
M  V30 5903 H 547.524 6.74695 -0.558206 0
M  V30 5904 H 552.166 4.15935 0.758823 0
M  V30 5905 H 549.884 7.91417 -1.63353 0
M  V30 5906 H 553.47 5.79034 -0.566627 0
M  V30 5907 H 552.35 7.64513 -1.74613 0
M  V30 5908 N 549.853 -0.472356 1.50355 0
M  V30 5909 C 551.13 -1.23356 1.51798 0
M  V30 5910 C 551.51 -2.09469 0.26193 0
M  V30 5911 O 550.858 -2.15677 -0.754691 0
M  V30 5912 C 551.068 -2.06568 2.81302 0
M  V30 5913 C 552.416 -2.648 3.31913 0
M  V30 5914 O 553.44 -2.16812 2.82614 0
M  V30 5915 O 552.299 -3.52231 4.17846 0
M  V30 5916 H 549.393 -0.559707 0.608816 0
M  V30 5917 H 551.939 -0.48428 1.62643 0
M  V30 5918 H 550.711 -1.43103 3.64194 0
M  V30 5919 H 550.334 -2.88633 2.73454 0
M  V30 5920 N 551.331 -1.39911 -0.725443 0
M  V30 5921 C 552.578 -1.37654 -1.48518 0
M  V30 5922 C 552.906 0.0243982 -1.94485 0
M  V30 5923 O 552.161 1.00708 -1.67799 0
M  V30 5924 C 552.46 -2.30368 -2.7325 0
M  V30 5925 C 552.126 -3.77817 -2.461 0
M  V30 5926 C 550.788 -4.17991 -2.38405 0
M  V30 5927 C 553.14 -4.71036 -2.23103 0
M  V30 5928 C 550.468 -5.49433 -2.05768 0
M  V30 5929 C 552.82 -6.02766 -1.9198 0
M  V30 5930 C 551.484 -6.41993 -1.82761 0
M  V30 5931 H 550.754 -0.503713 -0.543465 0
M  V30 5932 H 553.401 -1.7249 -0.831822 0
M  V30 5933 H 551.706 -1.88683 -3.43375 0
M  V30 5934 H 553.403 -2.2591 -3.31309 0
M  V30 5935 H 549.993 -3.45982 -2.52972 0
M  V30 5936 H 554.177 -4.40823 -2.2801 0
M  V30 5937 H 549.433 -5.78738 -1.9716 0
M  V30 5938 H 553.607 -6.74519 -1.73197 0
M  V30 5939 H 551.234 -7.43761 -1.57237 0
M  V30 5940 N 552.809 0.956637 -1.25245 0
M  V30 5941 C 553.719 2.0868 -1.0719 0
M  V30 5942 C 554.735 1.73997 -0.00959074 0
M  V30 5943 O 555.911 2.00301 -0.210104 0
M  V30 5944 C 552.976 3.39754 -0.690526 0
M  V30 5945 C 552.037 3.88316 -1.83055 0
M  V30 5946 C 551.27 5.13134 -1.46728 0
M  V30 5947 O 551.493 5.6925 -0.362029 0
M  V30 5948 O 550.427 5.56356 -2.29677 0
M  V30 5949 H 554.253 2.26813 -2.01965 0
M  V30 5950 H 551.838 1.07098 -1.04165 0
M  V30 5951 H 553.72 4.18543 -0.489871 0
M  V30 5952 H 552.395 3.22896 0.227981 0
M  V30 5953 H 551.302 3.1054 -2.08604 0
M  V30 5954 H 552.635 4.09669 -2.72822 0
M  V30 5955 N 554.287 1.06798 1.15896 0
M  V30 5956 C 555.536 0.782796 1.8589 0
M  V30 5957 C 555.849 -0.693498 1.82893 0
M  V30 5958 O 557.055 -1.09325 2.48516 0
M  V30 5959 C 555.511 1.3502 3.33613 0
M  V30 5960 C 555.119 2.8571 3.45071 0
M  V30 5961 C 556.863 1.14278 4.08829 0
M  V30 5962 C 554.77 3.35669 4.86909 0
M  V30 5963 H 553.7 0.289149 0.696354 0
M  V30 5964 H 556.351 1.28734 1.30766 0
M  V30 5965 H 554.733 0.773407 3.88374 0
M  V30 5966 H 555.907 3.49385 3.00445 0
M  V30 5967 H 554.222 3.05178 2.83294 0
M  V30 5968 H 556.819 1.49087 5.13495 0
M  V30 5969 H 557.162 0.0814575 4.1622 0
M  V30 5970 H 557.695 1.68563 3.60321 0
M  V30 5971 H 554.434 4.41302 4.84698 0
M  V30 5972 H 553.954 2.76745 5.32139 0
M  V30 5973 H 555.633 3.31296 5.55745 0
M  V30 5974 N 555.766 -1.3263 0.851289 0
M  V30 5975 C 557.014 -1.96978 0.452128 0
M  V30 5976 C 557.335 -1.67715 -0.99482 0
M  V30 5977 O 556.605 -0.98259 -1.69476 0
M  V30 5978 H 555.185 -0.72873 0.164202 0
M  V30 5979 H 557.847 -1.61774 1.08698 0
M  V30 5980 H 556.943 -3.06387 0.594407 0
M  V30 5981 N 557.244 -0.608902 -1.45362 0
M  V30 5982 C 558.49 -0.104762 -2.02529 0
M  V30 5983 C 558.823 1.26191 -1.47613 0
M  V30 5984 O 558.098 1.8327 -0.65134 0
M  V30 5985 C 558.381 -0.0672661 -3.60037 0
M  V30 5986 C 558.234 -1.4647 -4.25284 0
M  V30 5987 C 559.553 0.619877 -4.35713 0
M  V30 5988 H 556.672 -0.0395438 -0.735938 0
M  V30 5989 H 559.314 -0.781126 -1.73201 0
M  V30 5990 H 557.464 0.50871 -3.85155 0
M  V30 5991 H 559.136 -2.08785 -4.11347 0
M  V30 5992 H 557.379 -2.02502 -3.83634 0
M  V30 5993 H 558.05 -1.39069 -5.34195 0
M  V30 5994 H 560.526 0.130297 -4.15896 0
M  V30 5995 H 559.402 0.615224 -5.45441 0
M  V30 5996 H 559.663 1.68621 -4.0868 0
M  V30 5997 N 558.722 1.53707 -0.348139 0
M  V30 5998 C 560.133 1.86213 0.134797 0
M  V30 5999 C 560.484 1.26925 1.49614 0
M  V30 6000 O 559.609 0.584573 2.08355 0
M  V30 6001 C 560.204 3.37866 0.251371 0
M  V30 6002 C 558.763 3.70233 0.678543 0
M  V30 6003 C 557.91 2.76683 -0.184925 0
M  V30 6004 H 560.861 1.48204 -0.567571 0
M  V30 6005 H 560.882 3.64908 1.07806 0
M  V30 6006 H 560.394 3.80988 -0.739581 0
M  V30 6007 H 558.495 3.32659 1.67835 0
M  V30 6008 H 558.608 4.76836 0.465251 0
M  V30 6009 H 556.972 2.52374 0.343465 0
M  V30 6010 H 557.755 3.22635 -1.1731 0
M  V30 6011 N 560.2 0.0768682 1.57412 0
M  V30 6012 C 561.616 -0.279772 1.57129 0
M  V30 6013 C 561.816 -1.69688 1.08666 0
M  V30 6014 O 560.872 -2.40953 0.754843 0
M  V30 6015 C 562.185 -0.0848055 3.0058 0
M  V30 6016 C 563.733 -0.153954 3.12621 0
M  V30 6017 C 564.208 0.0127946 4.57998 0
M  V30 6018 N 565.699 -0.0426435 4.6318 0
M  V30 6019 C 566.434 0.0618892 5.73367 0
M  V30 6020 N 565.93 0.220229 6.9245 0
M  V30 6021 N 567.723 0.00446072 5.621 0
M  V30 6022 H 559.874 1.00297 1.87228 0
M  V30 6023 H 562.137 0.391565 0.863354 0
M  V30 6024 H 561.843 0.89325 3.40168 0
M  V30 6025 H 561.717 -0.834961 3.67843 0
M  V30 6026 H 564.104 -1.1225 2.72917 0
M  V30 6027 H 564.185 0.627389 2.47987 0
M  V30 6028 H 563.829 0.978128 4.98392 0
M  V30 6029 H 563.759 -0.788016 5.20671 0
M  V30 6030 H 566.25 -0.163226 3.77547 0
M  V30 6031 H 566.563 0.291999 7.72248 0
M  V30 6032 H 564.908 0.255658 6.9453 0
M  V30 6033 H 568.099 -0.117979 4.67951 0
M  V30 6034 H 568.272 0.0893796 6.47938 0
M  V30 6035 N 561.678 -1.56367 -0.196722 0
M  V30 6036 C 562.903 -1.84991 -0.937714 0
M  V30 6037 C 563.328 -0.660244 -1.76132 0
M  V30 6038 O 562.686 0.390967 -1.77034 0
M  V30 6039 C 562.734 -3.11828 -1.81096 0
M  V30 6040 O 561.838 -2.92266 -2.90955 0
M  V30 6041 H 561.179 -0.609193 -0.264159 0
M  V30 6042 H 563.709 -2.03595 -0.202529 0
M  V30 6043 H 563.719 -3.42579 -2.21594 0
M  V30 6044 H 562.394 -3.98037 -1.2058 0
M  V30 6045 H 560.971 -2.72809 -2.54224 0
M  V30 6046 N 563.156 0.464375 -1.50603 0
M  V30 6047 C 564.405 1.21277 -1.61167 0
M  V30 6048 C 564.718 1.92953 -0.320704 0
M  V30 6049 O 565.924 2.69778 -0.30534 0
M  V30 6050 C 564.38 2.20403 -2.84518 0
M  V30 6051 C 563.988 1.54499 -4.20516 0
M  V30 6052 C 565.732 2.95843 -3.0443 0
M  V30 6053 C 563.639 2.51951 -5.35047 0
M  V30 6054 H 562.569 0.456367 -0.600204 0
M  V30 6055 H 565.22 0.48254 -1.77042 0
M  V30 6056 H 563.602 2.96746 -2.62217 0
M  V30 6057 H 564.776 0.83899 -4.53098 0
M  V30 6058 H 563.091 0.913152 -4.06264 0
M  V30 6059 H 565.688 3.6879 -3.87167 0
M  V30 6060 H 566.031 3.55622 -2.16423 0
M  V30 6061 H 566.564 2.26611 -3.26944 0
M  V30 6062 H 563.303 1.96901 -6.25228 0
M  V30 6063 H 562.823 3.20683 -5.06875 0
M  V30 6064 H 564.502 3.13643 -5.65895 0
M  V30 6065 N 564.634 1.40294 0.718013 0
M  V30 6066 C 565.862 1.4175 1.50714 0
M  V30 6067 C 566.277 0.0165366 1.88793 0
M  V30 6068 O 565.634 -0.958942 1.55276 0
M  V30 6069 C 565.685 2.30598 2.784 0
M  V30 6070 O 565.406 3.6524 2.41932 0
M  V30 6071 C 566.907 2.4062 3.72313 0
M  V30 6072 H 564.127 0.483565 0.465194 0
M  V30 6073 H 566.671 1.84316 0.885889 0
M  V30 6074 H 564.826 1.91401 3.36815 0
M  V30 6075 H 565.24 4.12402 3.24076 0
M  V30 6076 H 566.714 3.07001 4.58753 0
M  V30 6077 H 567.191 1.4305 4.15251 0
M  V30 6078 H 567.797 2.80359 3.19811 0
M  V30 6079 N 566.112 -0.949982 1.2575 0
M  V30 6080 C 567.075 -2.02894 1.06615 0
M  V30 6081 C 568.075 -1.60791 0.0173905 0
M  V30 6082 O 569.265 -1.72249 0.260003 0
M  V30 6083 C 566.397 -3.35219 0.619751 0
M  V30 6084 H 567.59 -2.21302 2.02399 0
M  V30 6085 H 565.143 -1.12772 1.08223 0
M  V30 6086 H 565.878 -3.22508 -0.340486 0
M  V30 6087 H 565.663 -3.67129 1.37692 0
M  V30 6088 H 567.153 -4.14505 0.507443 0
M  V30 6089 N 567.59 -1.07411 -1.15328 0
M  V30 6090 C 568.818 -0.818782 -1.90009 0
M  V30 6091 C 569.233 0.628072 -1.78047 0
M  V30 6092 O 568.59 1.43085 -1.13282 0
M  V30 6093 C 568.641 -1.21874 -3.40337 0
M  V30 6094 O 568.362 -2.60883 -3.51954 0
M  V30 6095 C 569.863 -0.992796 -4.3204 0
M  V30 6096 H 567.083 -0.296007 -0.60218 0
M  V30 6097 H 569.627 -1.43073 -1.46117 0
M  V30 6098 H 567.782 -0.651103 -3.81889 0
M  V30 6099 H 568.196 -2.77216 -4.45255 0
M  V30 6100 H 569.67 -1.32215 -5.35932 0
M  V30 6101 H 570.147 0.0708331 -4.39143 0
M  V30 6102 H 570.753 -1.54537 -3.9623 0
M  V30 6103 N 569.068 1.32177 -0.85831 0
M  V30 6104 C 569.998 2.31282 -0.321041 0
M  V30 6105 C 570.979 1.59841 0.581786 0
M  V30 6106 O 572.164 1.87619 0.501262 0
M  V30 6107 C 569.294 3.4385 0.48832 0
M  V30 6108 C 568.248 4.26799 -0.320391 0
M  V30 6109 C 567.574 5.31164 0.613934 0
M  V30 6110 C 568.874 4.98829 -1.54813 0
M  V30 6111 H 570.568 2.76469 -1.14915 0
M  V30 6112 H 568.114 1.32916 -0.554028 0
M  V30 6113 H 570.067 4.12224 0.874626 0
M  V30 6114 H 568.791 2.97401 1.34983 0
M  V30 6115 H 567.45 3.60077 -0.688497 0
M  V30 6116 H 567.098 4.80967 1.47239 0
M  V30 6117 H 566.798 5.8755 0.0768097 0
M  V30 6118 H 568.322 6.024 0.997336 0
M  V30 6119 H 569.736 5.59864 -1.23392 0
M  V30 6120 H 568.133 5.64957 -2.02346 0
M  V30 6121 H 569.203 4.26483 -2.30739 0
M  V30 6122 N 570.547 0.616602 1.45037 0
M  V30 6123 C 571.51 -0.0871112 2.29034 0
M  V30 6124 C 572.51 -0.786414 1.40258 0
M  V30 6125 O 573.7 -0.633207 1.62284 0
M  V30 6126 C 570.832 -1.13369 3.21497 0
M  V30 6127 H 572.025 0.651497 2.92738 0
M  V30 6128 H 569.578 0.376058 1.51709 0
M  V30 6129 H 570.313 -1.90277 2.62612 0
M  V30 6130 H 570.098 -0.636358 3.86902 0
M  V30 6131 H 571.588 -1.62627 3.84633 0
M  V30 6132 N 572.025 -1.5352 0.356285 0
M  V30 6133 C 572.955 -2.28372 -0.486661 0
M  V30 6134 C 573.936 -1.30432 -1.09185 0
M  V30 6135 O 575.121 -1.59291 -1.11085 0
M  V30 6136 C 572.251 -3.06604 -1.63129 0
M  V30 6137 C 571.205 -4.12154 -1.15381 0
M  V30 6138 C 570.531 -4.78415 -2.38796 0
M  V30 6139 C 571.831 -5.21724 -0.245179 0
M  V30 6140 H 573.525 -2.99083 0.137797 0
M  V30 6141 H 571.071 -1.43841 0.0677134 0
M  V30 6142 H 573.024 -3.57712 -2.22755 0
M  V30 6143 H 571.748 -2.33568 -2.28284 0
M  V30 6144 H 570.407 -3.61978 -0.580294 0
M  V30 6145 H 570.055 -4.01959 -3.02387 0
M  V30 6146 H 569.755 -5.49734 -2.07524 0
M  V30 6147 H 571.279 -5.32313 -2.99125 0
M  V30 6148 H 572.693 -5.68391 -0.748646 0
M  V30 6149 H 571.09 -6.00095 -0.0237608 0
M  V30 6150 H 572.16 -4.79596 0.715229 0
M  V30 6151 N 573.503 -0.0852151 -1.57369 0
M  V30 6152 C 574.436 0.913608 -2.09113 0
M  V30 6153 C 575.414 1.28264 -0.999358 0
M  V30 6154 O 576.598 1.3896 -1.27367 0
M  V30 6155 C 573.725 2.21777 -2.55993 0
M  V30 6156 C 572.771 1.99932 -3.76735 0
M  V30 6157 S 573.604 1.24637 -5.20794 0
M  V30 6158 C 574.76 2.56304 -5.71016 0
M  V30 6159 H 574.993 0.473369 -2.93507 0
M  V30 6160 H 572.526 0.127856 -1.5387 0
M  V30 6161 H 574.484 2.96726 -2.83662 0
M  V30 6162 H 573.145 2.62923 -1.71843 0
M  V30 6163 H 572.338 2.96482 -4.07571 0
M  V30 6164 H 571.94 1.33116 -3.49509 0
M  V30 6165 H 574.232 3.5233 -5.78679 0
M  V30 6166 H 575.175 2.3006 -6.69685 0
M  V30 6167 H 575.583 2.64125 -4.98897 0
M  V30 6168 N 574.981 1.5647 0.188427 0
M  V30 6169 C 575.929 1.95971 1.25293 0
M  V30 6170 C 576.923 0.846047 1.4676 0
M  V30 6171 O 578.129 1.03109 1.47542 0
M  V30 6172 H 574.504 0.623253 0.420784 0
M  V30 6173 H 576.475 2.84731 0.892792 0
M  V30 6174 C 575.224 2.32116 2.58877 0
M  V30 6175 H 574.547 3.17341 2.43176 0
M  V30 6176 H 575.987 2.63613 3.3209 0
M  V30 6177 C 574.446 1.15823 3.16365 0
M  V30 6178 O 574.976 0.436785 3.99318 0
M  V30 6179 N 573.182 0.933278 2.75206 0
M  V30 6180 H 572.729 1.52169 2.07852 0
M  V30 6181 H 572.687 0.156976 3.14008 0
M  V30 6182 N 576.459 -0.456382 1.50847 0
M  V30 6183 C 577.407 -1.57318 1.71329 0
M  V30 6184 C 578.401 -1.59187 0.579287 0
M  V30 6185 O 579.607 -1.6316 0.76018 0
M  V30 6186 H 575.982 -0.5223 0.541024 0
M  V30 6187 H 577.953 -1.3721 2.64983 0
M  V30 6188 C 576.702 -2.95142 1.83811 0
M  V30 6189 H 576.025 -2.94428 2.70467 0
M  V30 6190 H 577.465 -3.72702 2.02161 0
M  V30 6191 C 575.924 -3.31636 0.593224 0
M  V30 6192 O 576.454 -4.00852 -0.260898 0
M  V30 6193 N 574.66 -2.87205 0.442902 0
M  V30 6194 H 574.207 -2.31051 1.13901 0
M  V30 6195 H 574.165 -3.11986 -0.38884 0
M  V30 6196 N 577.937 -1.40673 -0.710563 0
M  V30 6197 C 579.167 -1.4234 -1.49742 0
M  V30 6198 C 579.575 -0.022821 -1.89186 0
M  V30 6199 O 578.918 0.964773 -1.56326 0
M  V30 6200 C 578.98 -2.25509 -2.79975 0
M  V30 6201 C 578.644 -3.73862 -2.62824 0
M  V30 6202 C 579.641 -4.66379 -2.29752 0
M  V30 6203 C 577.326 -4.17735 -2.78932 0
M  V30 6204 C 579.32 -6.00756 -2.13006 0
M  V30 6205 C 577.007 -5.5218 -2.61802 0
M  V30 6206 C 578.005 -6.43505 -2.28888 0
M  V30 6207 O 577.693 -7.75472 -2.11894 0
M  V30 6208 H 577.425 -0.487311 -0.468513 0
M  V30 6209 H 579.979 -1.8542 -0.883668 0
M  V30 6210 H 578.209 -1.77218 -3.43701 0
M  V30 6211 H 579.898 -2.19058 -3.41714 0
M  V30 6212 H 580.664 -4.33778 -2.16936 0
M  V30 6213 H 576.543 -3.46967 -3.03537 0
M  V30 6214 H 580.087 -6.72003 -1.87237 0
M  V30 6215 H 575.984 -5.84365 -2.74204 0
M  V30 6216 H 576.752 -7.86458 -2.26775 0
M  V30 6217 N 579.415 0.9433 -1.26252 0
M  V30 6218 C 580.662 1.68925 -1.11672 0
M  V30 6219 C 580.99 1.91499 0.340329 0
M  V30 6220 O 580.245 1.49189 1.26653 0
M  V30 6221 C 580.544 3.07073 -1.82868 0
M  V30 6222 C 580.21 3.04262 -3.32769 0
M  V30 6223 C 578.872 3.03203 -3.7366 0
M  V30 6224 C 581.224 2.96729 -4.28487 0
M  V30 6225 C 578.552 2.92373 -5.0866 0
M  V30 6226 C 580.904 2.87442 -5.63525 0
M  V30 6227 C 579.568 2.84724 -6.03729 0
M  V30 6228 H 578.838 0.618141 -0.408635 0
M  V30 6229 H 581.485 1.10124 -1.56668 0
M  V30 6230 H 579.79 3.69486 -1.30335 0
M  V30 6231 H 581.487 3.63635 -1.69029 0
M  V30 6232 H 578.077 3.05865 -3.00241 0
M  V30 6233 H 582.261 2.96658 -3.97879 0
M  V30 6234 H 577.517 2.88645 -5.38975 0
M  V30 6235 H 581.691 2.80576 -6.37377 0
M  V30 6236 H 579.318 2.76089 -7.08293 0
M  V30 6237 N 580.893 1.08022 1.14757 0
M  V30 6238 C 582.121 0.828847 1.89572 0
M  V30 6239 C 582.536 -0.618621 1.78377 0
M  V30 6240 O 581.893 -1.42482 1.1404 0
M  V30 6241 C 581.944 1.23677 3.39685 0
M  V30 6242 O 581.665 2.62746 3.50566 0
M  V30 6243 C 583.166 1.01569 4.31507 0
M  V30 6244 H 580.386 0.299196 0.600602 0
M  V30 6245 H 582.93 1.43846 1.45357 0
M  V30 6246 H 581.085 0.671347 3.81539 0
M  V30 6247 H 581.499 2.79573 4.43778 0
M  V30 6248 H 582.973 1.35055 5.35223 0
M  V30 6249 H 583.45 -0.0475433 4.39174 0
M  V30 6250 H 584.056 1.56636 3.95405 0
M  V30 6251 N 582.371 -1.3172 0.865308 0
M  V30 6252 C 583.648 -1.91574 0.394789 0
M  V30 6253 C 584.028 -1.78769 -1.12271 0
M  V30 6254 O 583.376 -1.19245 -1.94918 0
M  V30 6255 C 583.586 -3.37957 0.870982 0
M  V30 6256 C 584.934 -4.15073 0.894384 0
M  V30 6257 O 585.958 -3.4672 0.816325 0
M  V30 6258 O 584.817 -5.37151 1.00651 0
M  V30 6259 H 581.911 -0.818649 0.117229 0
M  V30 6260 H 584.457 -1.4042 0.952913 0
M  V30 6261 H 583.229 -3.41269 1.91444 0
M  V30 6262 H 582.852 -3.96534 0.290907 0
M  V30 6263 N 583.85 -0.624285 -1.44708 0
M  V30 6264 C 584.812 0.0749638 -2.29077 0
M  V30 6265 C 585.812 0.778965 -1.40673 0
M  V30 6266 O 587.003 0.624591 -1.62618 0
M  V30 6267 C 584.135 1.11663 -3.22094 0
M  V30 6268 H 585.327 -0.667013 -2.92388 0
M  V30 6269 H 582.88 -0.384098 -1.51507 0
M  V30 6270 H 583.615 1.88881 -2.63618 0
M  V30 6271 H 583.401 0.61583 -3.87234 0
M  V30 6272 H 584.891 1.60585 -3.8549 0
M  V30 6273 N 585.328 1.53329 -0.364422 0
M  V30 6274 C 586.238 2.29414 0.490552 0
M  V30 6275 C 587.254 1.35335 1.09363 0
M  V30 6276 O 588.43 1.68391 1.10483 0
M  V30 6277 C 585.495 3.06772 1.61529 0
M  V30 6278 C 584.556 4.16516 1.03986 0
M  V30 6279 C 583.789 4.90176 2.111 0
M  V30 6280 O 584.012 4.63687 3.32191 0
M  V30 6281 O 582.946 5.76134 1.74222 0
M  V30 6282 H 586.772 3.03428 -0.12856 0
M  V30 6283 H 584.357 1.48843 -0.128837 0
M  V30 6284 H 586.239 3.55082 2.26924 0
M  V30 6285 H 584.914 2.35596 2.21983 0
M  V30 6286 H 583.821 3.7246 0.349856 0
M  V30 6287 H 585.154 4.89855 0.4799 0
M  V30 6288 N 586.806 0.0935595 1.57322 0
M  V30 6289 C 588.055 -0.570191 1.93473 0
M  V30 6290 C 588.368 -1.69434 0.977318 0
M  V30 6291 O 589.574 -2.41914 1.23248 0
M  V30 6292 C 588.03 -1.06564 3.43762 0
M  V30 6293 C 587.638 0.0286723 4.47991 0
M  V30 6294 C 589.382 -1.70221 3.88877 0
M  V30 6295 C 587.289 -0.482046 5.89432 0
M  V30 6296 H 586.219 -0.216764 0.72217 0
M  V30 6297 H 588.87 0.169313 1.82717 0
M  V30 6298 H 587.252 -1.85878 3.49664 0
M  V30 6299 H 588.426 0.804106 4.5373 0
M  V30 6300 H 586.741 0.570336 4.12476 0
M  V30 6301 H 589.338 -2.09502 4.91948 0
M  V30 6302 H 589.681 -2.57078 3.27439 0
M  V30 6303 H 590.214 -0.974919 3.85668 0
M  V30 6304 H 586.953 0.349871 6.54566 0
M  V30 6305 H 586.473 -1.22452 5.87167 0
M  V30 6306 H 588.152 -0.951508 6.39965 0
M  V30 6307 N 588.284 -1.56567 -0.180126 0
M  V30 6308 C 589.231 -1.95725 -1.22313 0
M  V30 6309 C 590.201 -0.819911 -1.44453 0
M  V30 6310 O 591.386 -1.07931 -1.57339 0
M  V30 6311 C 588.526 -2.31484 -2.55947 0
M  V30 6312 C 587.639 -3.58354 -2.4126 0
M  V30 6313 C 586.774 -3.83366 -3.67701 0
M  V30 6314 C 585.813 -5.03612 -3.47909 0
M  V30 6315 N 584.95 -5.24802 -4.66398 0
M  V30 6316 H 589.79 -2.84642 -0.882198 0
M  V30 6317 H 587.327 -1.4085 -0.42422 0
M  V30 6318 H 589.285 -2.50237 -3.33822 0
M  V30 6319 H 587.915 -1.45689 -2.88053 0
M  V30 6320 H 586.967 -3.47565 -1.54606 0
M  V30 6321 H 588.279 -4.46386 -2.22577 0
M  V30 6322 H 587.433 -4.02439 -4.54013 0
M  V30 6323 H 586.172 -2.93692 -3.89353 0
M  V30 6324 H 585.177 -4.84447 -2.59983 0
M  V30 6325 H 586.402 -5.94809 -3.27688 0
M  V30 6326 H 584.348 -4.38079 -4.88286 0
M  V30 6327 H 584.265 -6.07041 -4.50596 0
M  V30 6328 H 585.533 -5.48346 -5.54019 0
M  V30 6329 N 589.762 0.448376 -1.51087 0
M  V30 6330 C 590.99 1.22143 -1.66999 0
M  V30 6331 C 591.405 1.85283 -0.362699 0
M  V30 6332 O 590.762 1.70236 0.65772 0
M  V30 6333 C 590.813 2.31357 -2.7777 0
M  V30 6334 O 590.534 1.70801 -4.03434 0
M  V30 6335 C 592.035 3.21836 -3.04855 0
M  V30 6336 H 589.255 0.368558 -0.560719 0
M  V30 6337 H 591.799 0.532618 -1.97442 0
M  V30 6338 H 589.954 2.95973 -2.49958 0
M  V30 6339 H 590.368 2.42895 -4.64868 0
M  V30 6340 H 591.842 3.94627 -3.85971 0
M  V30 6341 H 592.319 3.81949 -2.16821 0
M  V30 6342 H 592.925 2.62933 -3.34285 0
M  V30 6343 N 591.24 1.41047 0.703093 0
M  V30 6344 C 592.47 1.43133 1.48985 0
M  V30 6345 C 592.878 0.0328537 1.89171 0
M  V30 6346 O 592.221 -0.956469 1.56835 0
M  V30 6347 C 592.283 2.26991 2.78775 0
M  V30 6348 C 591.947 3.7525 2.60837 0
M  V30 6349 C 592.944 4.67591 2.27276 0
M  V30 6350 C 590.629 4.19208 2.76712 0
M  V30 6351 C 592.623 6.01877 2.09817 0
M  V30 6352 C 590.31 5.53561 2.5887 0
M  V30 6353 C 591.308 6.4471 2.25472 0
M  V30 6354 O 590.996 7.76584 2.07778 0
M  V30 6355 H 590.728 0.489788 0.465922 0
M  V30 6356 H 593.282 1.85886 0.873822 0
M  V30 6357 H 591.512 1.79038 3.42757 0
M  V30 6358 H 593.201 2.20867 3.40547 0
M  V30 6359 H 593.967 4.34923 2.14633 0
M  V30 6360 H 589.846 3.48572 3.01693 0
M  V30 6361 H 593.39 6.72986 1.83671 0
M  V30 6362 H 589.287 5.85811 2.71102 0
M  V30 6363 H 590.055 7.87649 2.22601 0
M  V30 6364 N 592.718 -0.936591 1.26751 0
M  V30 6365 C 593.946 -1.71758 1.15355 0
M  V30 6366 C 594.361 -1.86549 -0.290683 0
M  V30 6367 O 593.718 -1.37616 -1.19868 0
M  V30 6368 C 593.769 -3.12193 1.82258 0
M  V30 6369 O 593.49 -2.98105 3.21038 0
M  V30 6370 C 594.991 -4.06485 1.76875 0
M  V30 6371 H 592.211 -0.537636 0.401483 0
M  V30 6372 H 594.755 -1.17382 1.67457 0
M  V30 6373 H 592.91 -3.63456 1.34083 0
M  V30 6374 H 593.324 -3.86824 3.54214 0
M  V30 6375 H 594.798 -5.02569 2.28316 0
M  V30 6376 H 595.275 -4.32986 0.736216 0
M  V30 6377 H 595.881 -3.61144 2.24623 0
M  V30 6378 N 594.196 -1.08629 -1.14182 0
M  V30 6379 C 595.473 -0.73002 -1.81466 0
M  V30 6380 C 595.853 0.785996 -1.95922 0
M  V30 6381 O 595.201 1.70535 -1.52086 0
M  V30 6382 C 595.411 -1.45957 -3.17014 0
M  V30 6383 C 596.759 -1.62008 -3.92477 0
M  V30 6384 O 597.783 -1.42141 -3.26611 0
M  V30 6385 O 596.642 -1.94806 -5.106 0
M  V30 6386 H 593.736 -0.261307 -0.784632 0
M  V30 6387 H 596.282 -1.188 -1.2118 0
M  V30 6388 H 595.054 -2.49221 -3.01669 0
M  V30 6389 H 594.677 -0.993222 -3.84995 0
M  V30 6390 N 595.674 1.31259 -0.872281 0
M  V30 6391 C 597.085 1.78822 -0.536617 0
M  V30 6392 C 597.436 1.71855 0.946594 0
M  V30 6393 O 596.561 1.28769 1.73918 0
M  V30 6394 C 597.156 3.24698 -0.967294 0
M  V30 6395 C 595.715 3.70147 -0.683251 0
M  V30 6396 C 594.862 2.51994 -1.15733 0
M  V30 6397 H 597.813 1.18308 -1.05777 0
M  V30 6398 H 597.834 3.79386 -0.290929 0
M  V30 6399 H 597.346 3.29737 -2.04683 0
M  V30 6400 H 595.447 3.70607 0.384825 0
M  V30 6401 H 595.56 4.62183 -1.2619 0
M  V30 6402 H 593.924 2.48078 -0.577024 0
M  V30 6403 H 594.707 2.59778 -2.24434 0
M  V30 6404 N 597.152 0.631951 1.44375 0
M  V30 6405 C 598.401 0.134214 2.01253 0
M  V30 6406 C 598.714 -1.25171 1.50305 0
M  V30 6407 O 599.92 -1.8435 1.99317 0
M  V30 6408 C 598.376 0.189187 3.59402 0
M  V30 6409 C 597.984 1.57647 4.19346 0
M  V30 6410 C 599.728 -0.252044 4.23751 0
M  V30 6411 C 597.635 1.58651 5.69722 0
M  V30 6412 H 596.565 0.0464101 0.75257 0
M  V30 6413 H 599.216 0.790868 1.65582 0
M  V30 6414 H 597.598 -0.534584 3.92375 0
M  V30 6415 H 598.772 2.32389 3.97909 0
M  V30 6416 H 597.087 1.96186 3.67288 0
M  V30 6417 H 599.684 -0.264084 5.34047 0
M  V30 6418 H 600.027 -1.27951 3.96149 0
M  V30 6419 H 600.56 0.41926 3.95584 0
M  V30 6420 H 597.299 2.59237 6.0206 0
M  V30 6421 H 596.819 0.882039 5.93279 0
M  V30 6422 H 598.498 1.32082 6.33375 0
M  V30 6423 N 598.631 -1.53133 0.372548 0
M  V30 6424 C 599.541 -2.29671 -0.478379 0
M  V30 6425 C 600.557 -1.35913 -1.08644 0
M  V30 6426 O 601.733 -1.68975 -1.09588 0
M  V30 6427 C 598.798 -3.07625 -1.599 0
M  V30 6428 C 597.859 -4.17061 -1.01776 0
M  V30 6429 C 597.092 -4.91289 -2.08497 0
M  V30 6430 O 597.315 -4.65442 -3.29727 0
M  V30 6431 O 596.249 -5.7705 -1.71164 0
M  V30 6432 H 600.075 -3.03355 0.144649 0
M  V30 6433 H 597.66 -1.48773 0.136729 0
M  V30 6434 H 599.542 -3.56281 -2.25038 0
M  V30 6435 H 598.217 -2.3677 -2.2073 0
M  V30 6436 H 597.124 -3.72641 -0.330098 0
M  V30 6437 H 598.457 -4.90102 -0.453915 0
M  V30 6438 N 600.109 -0.101901 -1.5727 0
M  V30 6439 C 601.059 0.865346 -2.1094 0
M  V30 6440 C 602.043 1.2394 -1.02605 0
M  V30 6441 O 603.235 1.21334 -1.28868 0
M  V30 6442 C 600.364 2.12187 -2.69874 0
M  V30 6443 C 599.45 1.77295 -3.85263 0
M  V30 6444 N 599.841 1.12993 -4.93017 0
M  V30 6445 C 598.139 2.06862 -3.95126 0
M  V30 6446 C 598.84 0.968631 -5.73579 0
M  V30 6447 N 597.816 1.48814 -5.22834 0
M  V30 6448 H 601.618 0.364368 -2.91633 0
M  V30 6449 H 599.132 0.101104 -1.62085 0
M  V30 6450 H 601.129 2.82431 -3.06657 0
M  V30 6451 H 599.789 2.62844 -1.90639 0
M  V30 6452 H 600.8 0.795935 -5.11747 0
M  V30 6453 H 597.477 2.59686 -3.26909 0
M  V30 6454 H 598.867 0.465231 -6.70287 0
M  V30 6455 N 601.587 1.56661 0.17182 0
M  V30 6456 C 602.834 1.81965 0.888529 0
M  V30 6457 C 603.162 0.6789 1.82267 0
M  V30 6458 O 602.417 -0.333875 1.92831 0
M  V30 6459 C 602.716 3.13435 1.71736 0
M  V30 6460 C 602.382 4.41159 0.932184 0
M  V30 6461 C 601.044 4.75851 0.715481 0
M  V30 6462 C 603.396 5.19803 0.381387 0
M  V30 6463 C 600.724 5.86666 -0.063126 0
M  V30 6464 C 603.076 6.31433 -0.384129 0
M  V30 6465 C 601.74 6.64692 -0.611637 0
M  V30 6466 H 601.01 0.665859 0.325136 0
M  V30 6467 H 603.657 1.90884 0.153495 0
M  V30 6468 H 601.962 2.99857 2.52177 0
M  V30 6469 H 603.659 3.30224 2.27493 0
M  V30 6470 H 600.249 4.13947 1.11112 0
M  V30 6471 H 604.433 4.93396 0.536148 0
M  V30 6472 H 599.689 6.10892 -0.249136 0
M  V30 6473 H 603.863 6.91577 -0.818185 0
M  V30 6474 H 601.49 7.50398 -1.21684 0
M  V30 6475 N 603.065 -0.440357 1.51323 0
M  V30 6476 C 604.311 -1.19181 1.64085 0
M  V30 6477 C 604.644 -1.90936 0.354575 0
M  V30 6478 O 603.919 -1.8347 -0.645675 0
M  V30 6479 C 604.202 -2.2112 2.84215 0
M  V30 6480 C 604.055 -1.53468 4.22809 0
M  V30 6481 C 605.374 -3.22133 2.99864 0
M  V30 6482 H 602.493 -0.431924 0.597169 0
M  V30 6483 H 605.135 -0.481443 1.83799 0
M  V30 6484 H 603.285 -2.81703 2.67537 0
M  V30 6485 H 604.957 -0.962455 4.51148 0
M  V30 6486 H 603.2 -0.837086 4.25647 0
M  V30 6487 H 603.871 -2.27694 5.02852 0
M  V30 6488 H 606.347 -2.71601 3.15233 0
M  V30 6489 H 605.223 -3.90756 3.85488 0
M  V30 6490 H 605.484 -3.88061 2.11804 0
M  V30 6491 N 604.543 -1.41418 -0.695603 0
M  V30 6492 C 605.954 -1.36335 -1.27552 0
M  V30 6493 C 606.305 -0.0464336 -1.96145 0
M  V30 6494 O 605.43 0.855304 -1.9878 0
M  V30 6495 C 606.025 -2.46941 -2.3196 0
M  V30 6496 C 604.584 -2.45256 -2.85529 0
M  V30 6497 C 603.731 -2.2679 -1.59566 0
M  V30 6498 H 606.682 -1.50934 -0.490362 0
M  V30 6499 H 606.703 -2.15997 -3.1325 0
M  V30 6500 H 606.215 -3.42775 -1.82008 0
M  V30 6501 H 604.316 -1.53179 -3.39657 0
M  V30 6502 H 604.429 -3.41565 -3.35961 0
M  V30 6503 H 602.793 -1.74667 -1.85374 0
M  V30 6504 H 603.576 -3.24651 -1.1161 0
M  V30 6505 N 606.021 0.929856 -1.27246 0
M  V30 6506 C 607.298 1.65544 -1.04186 0
M  V30 6507 C 607.678 2.06796 0.424097 0
M  V30 6508 O 607.026 1.80053 1.40688 0
M  V30 6509 C 607.236 2.85912 -2.00138 0
M  V30 6510 C 608.584 3.57305 -2.29387 0
M  V30 6511 O 609.608 2.96036 -1.98094 0
M  V30 6512 O 608.467 4.67688 -2.82719 0
M  V30 6513 H 605.561 0.725473 -0.397011 0
M  V30 6514 H 608.107 0.980583 -1.38501 0
M  V30 6515 H 606.879 2.52403 -2.99013 0
M  V30 6516 H 606.502 3.61118 -1.66371 0
M  V30 6517 N 607.499 1.09233 1.13605 0
M  V30 6518 C 608.462 0.733553 2.17144 0
M  V30 6519 C 609.462 -0.235873 1.59061 0
M  V30 6520 O 610.652 -0.0143167 1.74194 0
M  V30 6521 C 607.784 0.084471 3.40795 0
M  V30 6522 H 608.977 1.65049 2.50397 0
M  V30 6523 H 606.53 0.891264 1.28399 0
M  V30 6524 H 607.265 -0.843795 3.1313 0
M  V30 6525 H 607.05 0.781985 3.84223 0
M  V30 6526 H 608.54 -0.151216 4.17326 0
M  V30 6527 N 608.977 -1.30795 0.87923 0
M  V30 6528 C 610.225 -1.95974 0.493809 0
M  V30 6529 C 610.546 -1.69787 -0.959021 0
M  V30 6530 O 609.816 -1.01832 -1.67353 0
M  V30 6531 H 608.396 -0.725083 0.179622 0
M  V30 6532 H 611.058 -1.59432 1.12105 0
M  V30 6533 H 610.154 -3.05058 0.659263 0
M  V30 6534 N 610.455 -0.639598 -1.44038 0
M  V30 6535 C 611.685 -0.154586 -2.06021 0
M  V30 6536 C 612.093 1.17951 -1.47933 0
M  V30 6537 O 611.436 1.73627 -0.59994 0
M  V30 6538 C 611.498 0.0255459 -3.59491 0
M  V30 6539 C 611.162 -1.2317 -4.40089 0
M  V30 6540 C 612.159 -2.15735 -4.73027 0
M  V30 6541 C 609.844 -1.46949 -4.80324 0
M  V30 6542 C 611.838 -3.30382 -5.45093 0
M  V30 6543 C 609.525 -2.61891 -5.52138 0
M  V30 6544 C 610.523 -3.53433 -5.84443 0
M  V30 6545 O 610.211 -4.6637 -6.54793 0
M  V30 6546 H 609.943 -0.0808543 -0.671147 0
M  V30 6547 H 612.497 -0.876541 -1.85758 0
M  V30 6548 H 610.727 0.802733 -3.78276 0
M  V30 6549 H 612.416 0.466184 -4.03214 0
M  V30 6550 H 613.182 -1.98602 -4.42473 0
M  V30 6551 H 609.061 -0.765815 -4.54595 0
M  V30 6552 H 612.605 -4.01856 -5.70226 0
M  V30 6553 H 608.502 -2.78964 -5.82108 0
M  V30 6554 H 609.27 -4.6546 -6.73267 0
M  V30 6555 N 611.933 1.52934 -0.380664 0
M  V30 6556 C 613.18 2.01467 0.204278 0
M  V30 6557 C 613.508 1.26744 1.47533 0
M  V30 6558 O 612.763 0.353723 1.92477 0
M  V30 6559 C 613.062 3.5349 0.527199 0
M  V30 6560 C 612.728 4.46171 -0.651295 0
M  V30 6561 C 611.39 4.71227 -0.974619 0
M  V30 6562 C 613.742 5.00909 -1.44012 0
M  V30 6563 C 611.07 5.4827 -2.08847 0
M  V30 6564 C 613.422 5.7917 -2.5445 0
M  V30 6565 C 612.086 6.02507 -2.87301 0
M  V30 6566 H 611.356 0.73722 0.0747504 0
M  V30 6567 H 614.003 1.84411 -0.516234 0
M  V30 6568 H 612.308 3.68574 1.32892 0
M  V30 6569 H 614.005 3.88529 0.992283 0
M  V30 6570 H 610.595 4.26829 -0.389276 0
M  V30 6571 H 614.779 4.81485 -1.20357 0
M  V30 6572 H 610.035 5.64567 -2.34679 0
M  V30 6573 H 614.209 6.20588 -3.1598 0
M  V30 6574 H 611.836 6.61989 -3.7373 0
M  V30 6575 N 613.412 0.11024 1.57214 0
M  V30 6576 C 614.828 -0.24638 1.57687 0
M  V30 6577 C 615.028 -1.67344 1.12241 0
M  V30 6578 O 614.084 -2.39298 0.805783 0
M  V30 6579 C 615.397 -0.0210288 3.00693 0
M  V30 6580 C 616.945 -0.0876077 3.12877 0
M  V30 6581 C 617.42 0.10994 4.57868 0
M  V30 6582 N 618.911 0.0556135 4.63167 0
M  V30 6583 C 619.646 0.183495 5.73106 0
M  V30 6584 N 619.142 0.367058 6.91827 0
M  V30 6585 N 620.935 0.123689 5.61964 0
M  V30 6586 H 613.086 1.04246 1.85058 0
M  V30 6587 H 615.349 0.40979 0.854854 0
M  V30 6588 H 615.055 0.965203 3.38196 0
M  V30 6589 H 614.929 -0.756748 3.69531 0
M  V30 6590 H 617.316 -1.06436 2.75237 0
M  V30 6591 H 617.397 0.67985 2.466 0
M  V30 6592 H 617.041 1.08362 4.96206 0
M  V30 6593 H 616.971 -0.677397 5.22225 0
M  V30 6594 H 619.462 -0.0831062 3.77809 0
M  V30 6595 H 619.775 0.455739 7.71455 0
M  V30 6596 H 618.12 0.40292 6.93831 0
M  V30 6597 H 621.311 -0.0186928 4.68096 0
M  V30 6598 H 621.484 0.226797 6.47603 0
M  V30 6599 N 614.89 -1.56749 -0.16351 0
M  V30 6600 C 615.837 -1.97011 -1.2023 0
M  V30 6601 C 616.807 -0.835186 -1.43575 0
M  V30 6602 O 617.992 -1.09594 -1.56185 0
M  V30 6603 C 615.132 -2.34186 -2.53478 0
M  V30 6604 C 614.245 -3.60893 -2.37446 0
M  V30 6605 C 613.38 -3.87245 -3.63614 0
M  V30 6606 C 612.419 -5.07274 -3.42548 0
M  V30 6607 N 611.556 -5.29719 -4.60806 0
M  V30 6608 H 616.396 -2.85562 -0.851958 0
M  V30 6609 H 613.933 -1.41292 -0.409257 0
M  V30 6610 H 615.891 -2.53764 -3.31149 0
M  V30 6611 H 614.521 -1.48736 -2.86492 0
M  V30 6612 H 613.573 -3.49185 -1.50911 0
M  V30 6613 H 614.885 -4.48722 -2.1783 0
M  V30 6614 H 614.039 -4.07232 -4.49719 0
M  V30 6615 H 612.778 -2.97806 -3.86216 0
M  V30 6616 H 611.783 -4.87177 -2.5483 0
M  V30 6617 H 613.008 -5.98251 -3.2136 0
M  V30 6618 H 610.954 -4.43233 -4.83612 0
M  V30 6619 H 610.871 -6.11786 -4.44132 0
M  V30 6620 H 612.139 -5.54192 -5.48171 0
M  V30 6621 N 616.368 0.432326 -1.51554 0
M  V30 6622 C 617.596 1.20364 -1.68286 0
M  V30 6623 C 618.011 1.84888 -0.38233 0
M  V30 6624 O 617.368 1.70924 0.639627 0
M  V30 6625 C 617.419 2.28398 -2.80208 0
M  V30 6626 O 617.14 1.66512 -4.05223 0
M  V30 6627 C 618.641 3.18584 -3.08251 0
M  V30 6628 H 615.861 0.36259 -0.564596 0
M  V30 6629 H 618.405 0.511647 -1.97996 0
M  V30 6630 H 616.56 2.93305 -2.53083 0
M  V30 6631 H 616.974 2.37951 -4.67418 0
M  V30 6632 H 618.448 3.90511 -3.90135 0
M  V30 6633 H 618.925 3.79628 -2.2086 0
M  V30 6634 H 619.531 2.59372 -3.37055 0
M  V30 6635 N 617.846 1.41785 0.688094 0
M  V30 6636 C 618.776 1.47 1.8142 0
M  V30 6637 C 619.757 0.327881 1.6691 0
M  V30 6638 O 620.942 0.540362 1.86531 0
M  V30 6639 C 618.072 1.35876 3.19617 0
M  V30 6640 C 617.026 2.47976 3.48844 0
M  V30 6641 C 616.352 2.21915 4.86475 0
M  V30 6642 C 617.652 3.90309 3.47068 0
M  V30 6643 H 619.346 2.41247 1.77314 0
M  V30 6644 H 616.892 1.16116 0.851651 0
M  V30 6645 H 618.845 1.38134 3.98117 0
M  V30 6646 H 617.569 0.38116 3.24368 0
M  V30 6647 H 616.228 2.45013 2.72698 0
M  V30 6648 H 615.876 1.2248 4.8786 0
M  V30 6649 H 615.576 2.97037 5.06994 0
M  V30 6650 H 617.1 2.25901 5.67275 0
M  V30 6651 H 618.514 3.94947 4.1556 0
M  V30 6652 H 616.911 4.65175 3.7912 0
M  V30 6653 H 617.981 4.17927 2.45896 0
M  V30 6654 N 619.324 -0.923095 1.27737 0
M  V30 6655 C 620.601 -1.64989 1.05062 0
M  V30 6656 C 620.981 -2.07018 -0.413124 0
M  V30 6657 O 620.329 -1.80797 -1.39731 0
M  V30 6658 C 620.539 -2.84847 2.01652 0
M  V30 6659 C 621.887 -3.56083 2.31279 0
M  V30 6660 O 622.911 -2.94981 1.99662 0
M  V30 6661 O 621.77 -4.66182 2.85196 0
M  V30 6662 H 618.864 -0.723357 0.400853 0
M  V30 6663 H 621.41 -0.973224 1.3902 0
M  V30 6664 H 620.182 -2.50814 3.00347 0
M  V30 6665 H 619.805 -3.60231 1.68284 0
M  V30 6666 N 620.802 -1.09834 -1.13024 0
M  V30 6667 C 621.75 -0.736283 -2.20639 0
M  V30 6668 C 622.744 0.264725 -1.67319 0
M  V30 6669 O 623.95 0.125745 -1.7956 0
M  V30 6670 H 620.325 -0.220136 -0.719058 0
M  V30 6671 H 622.296 -1.65295 -2.48436 0
M  V30 6672 C 621.045 -0.177544 -3.47246 0
M  V30 6673 H 620.368 -0.939009 -3.88616 0
M  V30 6674 H 621.808 0.0378007 -4.23983 0
M  V30 6675 C 620.267 1.08824 -3.1884 0
M  V30 6676 O 620.797 2.1708 -3.37993 0
M  V30 6677 N 619.003 1.00442 -2.7269 0
M  V30 6678 H 618.55 0.123383 -2.57304 0
M  V30 6679 H 618.508 1.85206 -2.5406 0
M  V30 6680 N 622.28 1.30327 -0.886154 0
M  V30 6681 C 623.691 1.78243 -0.555554 0
M  V30 6682 C 624.042 1.72849 0.928314 0
M  V30 6683 O 623.167 1.30607 1.72542 0
M  V30 6684 C 623.762 3.23654 -1.00168 0
M  V30 6685 C 622.321 3.69401 -0.722471 0
M  V30 6686 C 621.468 2.50753 -1.18399 0
M  V30 6687 H 624.419 1.1718 -1.07026 0
M  V30 6688 H 624.44 3.79056 -0.331152 0
M  V30 6689 H 623.952 3.27548 -2.08169 0
M  V30 6690 H 622.053 3.70995 0.345496 0
M  V30 6691 H 622.166 4.60818 -1.31085 0
M  V30 6692 H 620.53 2.47452 -0.603303 0
M  V30 6693 H 621.313 2.57383 -2.27176 0
M  V30 6694 N 623.758 0.647228 1.43697 0
M  V30 6695 C 625.005 0.158188 2.01881 0
M  V30 6696 C 625.333 -1.22573 1.51017 0
M  V30 6697 O 624.588 -1.83086 0.69122 0
M  V30 6698 C 624.887 0.111481 3.57226 0
M  V30 6699 C 624.553 1.43633 4.27411 0
M  V30 6700 C 623.215 1.79915 4.463 0
M  V30 6701 C 625.567 2.31011 4.67208 0
M  V30 6702 C 622.895 3.03251 5.02251 0
M  V30 6703 C 625.247 3.53633 5.24525 0
M  V30 6704 C 623.911 3.90118 5.41631 0
M  V30 6705 H 623.181 0.0578851 0.738736 0
M  V30 6706 H 625.828 0.836746 1.72252 0
M  V30 6707 H 624.133 -0.650507 3.86362 0
M  V30 6708 H 625.83 -0.283682 3.99995 0
M  V30 6709 H 622.42 1.14403 4.1305 0
M  V30 6710 H 626.604 2.04272 4.52313 0
M  V30 6711 H 621.86 3.31575 5.13681 0
M  V30 6712 H 626.034 4.21561 5.5431 0
M  V30 6713 H 623.661 4.85768 5.84751 0
M  V30 6714 N 625.236 -1.5273 0.388769 0
M  V30 6715 C 626.183 -2.26437 -0.446639 0
M  V30 6716 C 627.153 -1.28025 -1.05824 0
M  V30 6717 O 628.338 -1.56852 -1.08637 0
M  V30 6718 C 625.478 -3.07407 -1.56828 0
M  V30 6719 C 624.591 -4.20747 -0.979589 0
M  V30 6720 C 623.726 -4.89113 -2.07224 0
M  V30 6721 C 622.765 -5.94447 -1.45942 0
M  V30 6722 N 621.902 -6.56411 -2.49135 0
M  V30 6723 H 626.742 -2.97404 0.18837 0
M  V30 6724 H 624.279 -1.46727 0.104725 0
M  V30 6725 H 626.237 -3.52642 -2.22934 0
M  V30 6726 H 624.867 -2.3865 -2.17361 0
M  V30 6727 H 623.919 -3.7983 -0.208151 0
M  V30 6728 H 625.231 -4.9637 -0.491747 0
M  V30 6729 H 624.385 -5.3765 -2.81101 0
M  V30 6730 H 623.124 -4.13013 -2.59368 0
M  V30 6731 H 622.129 -5.4525 -0.705894 0
M  V30 6732 H 623.354 -6.7248 -0.945932 0
M  V30 6733 H 621.3 -5.83152 -3.00449 0
M  V30 6734 H 621.217 -7.27645 -2.05105 0
M  V30 6735 H 622.485 -7.09592 -3.22644 0
M  V30 6736 N 626.714 -0.118576 -1.57153 0
M  V30 6737 C 627.677 0.817464 -2.14127 0
M  V30 6738 C 628.677 1.1949 -1.07604 0
M  V30 6739 O 629.867 1.12048 -1.33382 0
M  V30 6740 C 626.999 2.10541 -2.68115 0
M  V30 6741 H 628.192 0.322339 -2.98163 0
M  V30 6742 H 625.745 0.130655 -1.55753 0
M  V30 6743 H 626.48 2.64485 -1.87665 0
M  V30 6744 H 626.265 1.84425 -3.4602 0
M  V30 6745 H 627.755 2.77453 -3.12105 0
M  V30 6746 N 628.193 1.56834 0.155195 0
M  V30 6747 C 629.123 2.00678 1.19376 0
M  V30 6748 C 630.104 0.884973 1.45266 0
M  V30 6749 O 631.289 1.1522 1.56326 0
M  V30 6750 C 628.419 2.38042 2.5289 0
M  V30 6751 C 627.373 3.53332 2.41538 0
M  V30 6752 C 626.699 3.76485 3.79688 0
M  V30 6753 C 627.999 4.86265 1.9064 0
M  V30 6754 H 629.693 2.87688 0.829232 0
M  V30 6755 H 627.239 1.38407 0.397445 0
M  V30 6756 H 629.192 2.67314 3.25763 0
M  V30 6757 H 627.916 1.4796 2.91162 0
M  V30 6758 H 626.575 3.24213 1.71117 0
M  V30 6759 H 626.223 2.83667 4.15382 0
M  V30 6760 H 625.923 4.54068 3.72956 0
M  V30 6761 H 627.447 4.08174 4.54122 0
M  V30 6762 H 628.861 5.14308 2.53299 0
M  V30 6763 H 627.258 5.67597 1.94818 0
M  V30 6764 H 628.328 4.77184 0.861596 0
M  V30 6765 N 629.671 -0.424282 1.51781 0
M  V30 6766 C 630.919 -1.17028 1.64769 0
M  V30 6767 C 631.24 -1.91409 0.372523 0
M  V30 6768 O 630.51 -1.86091 -0.612108 0
M  V30 6769 H 629.09 -0.434992 0.607282 0
M  V30 6770 H 631.752 -0.485169 1.88765 0
M  V30 6771 H 630.848 -1.8927 2.4816 0
M  V30 6772 N 631.149 -1.42148 -0.680565 0
M  V30 6773 C 632.397 -1.42029 -1.43779 0
M  V30 6774 C 632.718 -0.0356347 -1.94967 0
M  V30 6775 O 631.988 0.924936 -1.7269 0
M  V30 6776 H 630.568 -0.522835 -0.533529 0
M  V30 6777 H 633.23 -1.7752 -0.804538 0
M  V30 6778 H 632.326 -2.11658 -2.29363 0
M  V30 6779 N 632.627 0.916307 -1.28225 0
M  V30 6780 C 633.575 2.03977 -1.11786 0
M  V30 6781 C 634.569 1.69358 -0.0378265 0
M  V30 6782 O 635.775 1.78925 -0.196405 0
M  V30 6783 H 632.15 0.66829 -0.344809 0
M  V30 6784 H 634.121 2.14985 -2.06939 0
M  V30 6785 C 632.87 3.38518 -0.7938 0
M  V30 6786 H 632.193 3.65649 -1.61682 0
M  V30 6787 H 633.633 4.17864 -0.718719 0
M  V30 6788 C 632.092 3.33134 0.502353 0
M  V30 6789 O 632.622 3.71281 1.53341 0
M  V30 6790 N 630.828 2.86229 0.502147 0
M  V30 6791 H 630.375 2.55382 -0.337338 0
M  V30 6792 H 630.333 2.83009 1.36942 0
M  V30 6793 N 634.105 1.10431 1.1244 0
M  V30 6794 C 635.035 0.775143 2.20258 0
M  V30 6795 C 636.016 -0.25186 1.68225 0
M  V30 6796 O 637.201 -0.117637 1.93843 0
M  V30 6797 C 634.331 0.206133 3.46688 0
M  V30 6798 C 633.285 1.16382 4.11873 0
M  V30 6799 C 632.611 0.456014 5.32752 0
M  V30 6800 C 633.911 2.5104 4.58013 0
M  V30 6801 H 635.605 1.67665 2.4805 0
M  V30 6802 H 633.151 0.807595 1.19222 0
M  V30 6803 H 635.104 -0.036291 4.21384 0
M  V30 6804 H 633.828 -0.730614 3.18323 0
M  V30 6805 H 632.487 1.39169 3.39157 0
M  V30 6806 H 632.135 -0.485203 5.00654 0
M  V30 6807 H 631.835 1.09466 5.77314 0
M  V30 6808 H 633.359 0.222135 6.10196 0
M  V30 6809 H 634.773 2.32401 5.24083 0
M  V30 6810 H 633.17 3.10789 5.13352 0
M  V30 6811 H 634.24 3.11039 3.71998 0
M  V30 6812 N 635.583 -1.29855 0.893053 0
M  V30 6813 C 636.829 -1.96116 0.516349 0
M  V30 6814 C 637.162 -1.70281 -0.933695 0
M  V30 6815 O 636.437 -1.01205 -1.66096 0
M  V30 6816 C 636.72 -3.51068 0.801455 0
M  V30 6817 C 636.573 -3.86387 2.30272 0
M  V30 6818 C 637.892 -4.39186 0.283423 0
M  V30 6819 H 635.011 -0.712335 0.189072 0
M  V30 6820 H 637.653 -1.53587 1.11852 0
M  V30 6821 H 635.803 -3.87424 0.288949 0
M  V30 6822 H 637.475 -3.60012 2.88425 0
M  V30 6823 H 635.718 -3.34167 2.76613 0
M  V30 6824 H 636.389 -4.94512 2.45279 0
M  V30 6825 H 638.865 -4.09785 0.722187 0
M  V30 6826 H 637.741 -5.46505 0.512169 0
M  V30 6827 H 638.002 -4.34511 -0.815643 0
M  V30 6828 N 637.061 -0.65484 -1.43351 0
M  V30 6829 C 638.338 -0.0987371 -1.95351 0
M  V30 6830 C 638.718 1.38161 -1.59608 0
M  V30 6831 O 638.066 2.10791 -0.882021 0
M  V30 6832 C 638.276 -0.346684 -3.47274 0
M  V30 6833 C 639.624 -0.25249 -4.23849 0
M  V30 6834 O 640.648 -0.279332 -3.55103 0
M  V30 6835 O 639.507 -0.177584 -5.46211 0
M  V30 6836 H 636.601 0.0086829 -0.826954 0
M  V30 6837 H 639.147 -0.728189 -1.53282 0
M  V30 6838 H 637.919 -1.37296 -3.66423 0
M  V30 6839 H 637.542 0.315757 -3.96344 0
M  V30 6840 N 638.539 1.52521 -0.396863 0
M  V30 6841 C 639.472 2.23118 0.478926 0
M  V30 6842 C 640.45 1.23475 1.05796 0
M  V30 6843 O 641.634 1.52486 1.10817 0
M  V30 6844 C 638.761 2.95028 1.66362 0
M  V30 6845 C 637.807 4.09002 1.20913 0
M  V30 6846 S 638.64 5.35182 0.184407 0
M  V30 6847 C 639.796 6.10616 1.37471 0
M  V30 6848 H 640.029 2.97056 -0.120542 0
M  V30 6849 H 637.562 1.53334 -0.18109 0
M  V30 6850 H 639.52 3.37066 2.34301 0
M  V30 6851 H 638.181 2.20756 2.23441 0
M  V30 6852 H 637.374 4.58445 2.09389 0
M  V30 6853 H 636.976 3.69016 0.608559 0
M  V30 6854 H 639.268 6.37247 2.30048 0
M  V30 6855 H 640.211 7.02084 0.921051 0
M  V30 6856 H 640.619 5.41499 1.59495 0
M  V30 6857 N 640.017 0.126909 1.57088 0
M  V30 6858 C 641.265 -0.528123 1.95078 0
M  V30 6859 C 641.586 -1.66708 1.0116 0
M  V30 6860 O 640.856 -1.95777 0.0693527 0
M  V30 6861 H 639.436 -0.198087 0.720257 0
M  V30 6862 H 642.098 0.197703 1.93895 0
M  V30 6863 H 641.194 -0.917507 2.98309 0
M  V30 6864 N 641.495 -1.56914 -0.146875 0
M  V30 6865 C 642.911 -1.51582 -0.499518 0
M  V30 6866 C 643.111 -0.83535 -1.83369 0
M  V30 6867 O 642.167 -0.405932 -2.49216 0
M  V30 6868 C 643.48 -2.96349 -0.509711 0
M  V30 6869 C 645.028 -3.07288 -0.595217 0
M  V30 6870 C 645.503 -4.53562 -0.636071 0
M  V30 6871 N 646.994 -4.57906 -0.69829 0
M  V30 6872 C 647.729 -5.68462 -0.750886 0
M  V30 6873 N 647.225 -6.88588 -0.76282 0
M  V30 6874 N 649.018 -5.56496 -0.791777 0
M  V30 6875 H 641.169 -1.99547 0.727656 0
M  V30 6876 H 643.432 -0.910113 0.265327 0
M  V30 6877 H 643.138 -3.4939 0.402409 0
M  V30 6878 H 643.012 -3.52307 -1.34758 0
M  V30 6879 H 645.399 -2.54266 -1.49776 0
M  V30 6880 H 645.48 -2.54373 0.2698 0
M  V30 6881 H 645.124 -5.07222 0.262313 0
M  V30 6882 H 645.054 -5.04259 -1.51758 0
M  V30 6883 H 647.545 -3.71429 -0.696362 0
M  V30 6884 H 647.858 -7.68598 -0.804804 0
M  V30 6885 H 646.203 -6.91148 -0.730694 0
M  V30 6886 H 649.394 -4.61562 -0.779624 0
M  V30 6887 H 649.567 -6.42671 -0.829301 0
M  V30 6888 N 642.974 0.416227 -1.52004 0
M  V30 6889 C 644.22 1.16555 -1.6596 0
M  V30 6890 C 644.553 1.90347 -0.384906 0
M  V30 6891 O 643.828 1.84474 0.616405 0
M  V30 6892 C 644.111 2.1657 -2.87696 0
M  V30 6893 C 643.964 1.46722 -4.25197 0
M  V30 6894 C 645.283 3.17321 -3.04951 0
M  V30 6895 H 642.402 0.422369 -0.603965 0
M  V30 6896 H 645.044 0.452141 -1.84542 0
M  V30 6897 H 643.194 2.77411 -2.71985 0
M  V30 6898 H 644.866 0.89056 -4.52622 0
M  V30 6899 H 643.109 0.769263 -4.26925 0
M  V30 6900 H 643.78 2.19665 -5.0641 0
M  V30 6901 H 646.256 2.66552 -3.19514 0
M  V30 6902 H 645.132 3.84573 -3.91656 0
M  V30 6903 H 645.393 3.84643 -2.17951 0
M  V30 6904 N 644.452 1.42507 0.673017 0
M  V30 6905 C 645.399 1.46124 1.78651 0
M  V30 6906 C 646.369 0.313007 1.63124 0
M  V30 6907 O 647.554 0.517337 1.83653 0
M  V30 6908 C 644.694 1.3711 3.16694 0
M  V30 6909 C 643.807 2.61983 3.43495 0
M  V30 6910 C 642.942 2.45098 4.71275 0
M  V30 6911 C 641.981 3.65336 4.91117 0
M  V30 6912 N 641.118 3.47383 6.10139 0
M  V30 6913 H 645.958 2.4128 1.74895 0
M  V30 6914 H 643.495 1.19788 0.853766 0
M  V30 6915 H 645.453 1.29881 3.96468 0
M  V30 6916 H 644.083 0.45549 3.1957 0
M  V30 6917 H 643.135 2.79571 2.57961 0
M  V30 6918 H 644.447 3.51355 3.5405 0
M  V30 6919 H 643.601 2.35466 5.59143 0
M  V30 6920 H 642.34 1.53219 4.63007 0
M  V30 6921 H 641.345 3.754 4.0169 0
M  V30 6922 H 642.57 4.58199 5.01229 0
M  V30 6923 H 640.516 2.58222 6.0304 0
M  V30 6924 H 640.433 4.30344 6.21563 0
M  V30 6925 H 641.701 3.41565 7.00681 0
M  V30 6926 N 645.93 -0.909495 1.28709 0
M  V30 6927 C 647.179 -1.65365 1.15487 0
M  V30 6928 C 647.492 -1.93364 -0.294941 0
M  V30 6929 O 648.698 -2.65905 -0.548338 0
M  V30 6930 C 647.154 -2.97923 2.01916 0
M  V30 6931 C 646.762 -2.77556 3.51663 0
M  V30 6932 C 648.506 -3.75814 1.97393 0
M  V30 6933 C 646.413 -4.0578 4.30229 0
M  V30 6934 H 645.343 -0.620323 0.42862 0
M  V30 6935 H 647.994 -1.00894 1.53273 0
M  V30 6936 H 646.376 -3.63552 1.5699 0
M  V30 6937 H 647.55 -2.2058 4.04575 0
M  V30 6938 H 645.865 -2.13072 3.57756 0
M  V30 6939 H 648.462 -4.70866 2.53357 0
M  V30 6940 H 648.805 -4.05277 0.951643 0
M  V30 6941 H 649.338 -3.1701 2.40311 0
M  V30 6942 H 646.077 -3.81488 5.33055 0
M  V30 6943 H 645.597 -4.62351 3.82089 0
M  V30 6944 H 647.276 -4.74004 4.40374 0
M  V30 6945 N 647.408 -1.11026 -1.11852 0
M  V30 6946 C 648.657 -0.851249 -1.82857 0
M  V30 6947 C 648.97 0.62514 -1.85341 0
M  V30 6948 O 650.176 1.00026 -2.52403 0
M  V30 6949 C 648.632 -1.47309 -3.28372 0
M  V30 6950 C 648.24 -2.9832 -3.34229 0
M  V30 6951 C 649.984 -1.29373 -4.04306 0
M  V30 6952 C 647.891 -3.53509 -4.74115 0
M  V30 6953 H 646.821 -0.314794 -0.685143 0
M  V30 6954 H 649.472 -1.33499 -1.25898 0
M  V30 6955 H 647.854 -0.917017 -3.85236 0
M  V30 6956 H 649.028 -3.60295 -2.87271 0
M  V30 6957 H 647.343 -3.15482 -2.71772 0
M  V30 6958 H 649.94 -1.68042 -5.07608 0
M  V30 6959 H 650.283 -0.235879 -4.15631 0
M  V30 6960 H 650.816 -1.8182 -3.53817 0
M  V30 6961 H 647.555 -4.58987 -4.67986 0
M  V30 6962 H 647.075 -2.96305 -5.21501 0
M  V30 6963 H 648.754 -3.51693 -5.43066 0
M  V30 6964 N 648.886 1.2938 -0.899927 0
M  V30 6965 C 649.796 2.31462 -0.382437 0
M  V30 6966 C 650.812 1.65956 0.522929 0
M  V30 6967 O 651.988 1.97131 0.412454 0
M  V30 6968 C 649.053 3.44595 0.381472 0
M  V30 6969 C 648.114 4.25692 -0.555444 0
M  V30 6970 C 647.347 5.33422 0.172102 0
M  V30 6971 O 647.57 5.53053 1.396 0
M  V30 6972 O 646.504 5.99939 -0.485491 0
M  V30 6973 H 650.33 2.77706 -1.22934 0
M  V30 6974 H 647.915 1.33821 -0.664259 0
M  V30 6975 H 649.797 4.13474 0.813442 0
M  V30 6976 H 648.472 3.00458 1.20443 0
M  V30 6977 H 647.379 3.59453 -1.03653 0
M  V30 6978 H 648.712 4.73471 -1.34483 0
M  V30 6979 N 650.364 0.662433 1.43002 0
M  V30 6980 C 651.612 0.179237 2.01304 0
M  V30 6981 C 651.933 -1.21428 1.52579 0
M  V30 6982 O 651.203 -1.81294 0.742252 0
M  V30 6983 H 649.783 0.0632725 0.744316 0
M  V30 6984 H 652.445 0.856169 1.75088 0
M  V30 6985 H 651.541 0.170957 3.11631 0
M  V30 6986 N 651.842 -1.52309 0.404946 0
M  V30 6987 C 652.772 -2.29805 -0.41376 0
M  V30 6988 C 653.753 -1.3384 -1.0498 0
M  V30 6989 O 654.938 -1.62745 -1.05961 0
M  V30 6990 C 652.068 -3.11639 -1.53292 0
M  V30 6991 C 651.022 -4.15616 -1.02211 0
M  V30 6992 C 650.348 -4.8577 -2.23455 0
M  V30 6993 C 651.648 -5.2224 -0.0790725 0
M  V30 6994 H 653.342 -2.98493 0.232878 0
M  V30 6995 H 650.888 -1.43552 0.113441 0
M  V30 6996 H 652.841 -3.64618 -2.11262 0
M  V30 6997 H 651.565 -2.40712 -2.20738 0
M  V30 6998 H 650.224 -3.63641 -0.46484 0
M  V30 6999 H 649.872 -4.11376 -2.89445 0
M  V30 7000 H 649.572 -5.56058 -1.89929 0
M  V30 7001 H 651.096 -5.4156 -2.82038 0
M  V30 7002 H 652.51 -5.70485 -0.567438 0
M  V30 7003 H 650.907 -5.99867 0.167167 0
M  V30 7004 H 651.977 -4.77078 0.867447 0
M  V30 7005 N 653.32 -0.135238 -1.57019 0
M  V30 7006 C 654.25 0.805235 -2.19176 0
M  V30 7007 C 655.231 1.2656 -1.13651 0
M  V30 7008 O 656.416 1.32528 -1.4195 0
M  V30 7009 C 653.546 2.04914 -2.80406 0
M  V30 7010 C 652.5 1.72598 -3.91655 0
M  V30 7011 C 651.826 3.04154 -4.39766 0
M  V30 7012 C 653.126 0.981709 -5.12991 0
M  V30 7013 H 654.82 0.287232 -2.98019 0
M  V30 7014 H 652.366 0.136714 -1.4335 0
M  V30 7015 H 654.319 2.71178 -3.22553 0
M  V30 7016 H 653.043 2.59067 -1.98877 0
M  V30 7017 H 651.702 1.08717 -3.50109 0
M  V30 7018 H 651.35 3.56274 -3.55075 0
M  V30 7019 H 651.05 2.83299 -5.14796 0
M  V30 7020 H 652.574 3.71509 -4.84576 0
M  V30 7021 H 653.988 1.5462 -5.52056 0
M  V30 7022 H 652.385 0.873533 -5.93708 0
M  V30 7023 H 653.455 -0.0286887 -4.84892 0
M  V30 7024 N 654.798 1.5699 0.138552 0
M  V30 7025 C 656.214 1.51844 0.491472 0
M  V30 7026 C 656.414 0.845063 1.82923 0
M  V30 7027 O 655.47 0.419143 2.48997 0
M  V30 7028 C 656.783 2.96615 0.493987 0
M  V30 7029 C 658.331 3.076 0.578913 0
M  V30 7030 C 658.806 4.53893 0.612009 0
M  V30 7031 N 660.297 4.5827 0.673997 0
M  V30 7032 C 661.032 5.68852 0.720729 0
M  V30 7033 N 660.528 6.88982 0.726292 0
M  V30 7034 N 662.321 5.56908 0.762253 0
M  V30 7035 H 654.472 1.99158 -0.738228 0
M  V30 7036 H 656.735 0.908693 -0.270149 0
M  V30 7037 H 656.441 3.49172 -0.420933 0
M  V30 7038 H 656.315 3.53017 1.32887 0
M  V30 7039 H 658.702 2.55057 1.48425 0
M  V30 7040 H 658.783 2.54227 -0.283286 0
M  V30 7041 H 658.427 5.07076 -0.289208 0
M  V30 7042 H 658.357 5.05057 1.49082 0
M  V30 7043 H 660.848 3.71793 0.676654 0
M  V30 7044 H 661.161 7.69014 0.764032 0
M  V30 7045 H 659.506 6.91526 0.69403 0
M  V30 7046 H 662.697 4.61969 0.755135 0
M  V30 7047 H 662.87 6.43102 0.795207 0
M  V30 7048 N 656.276 -0.40816 1.52223 0
M  V30 7049 C 657.223 -1.49737 1.75635 0
M  V30 7050 C 658.193 -1.5493 0.598824 0
M  V30 7051 O 659.378 -1.71487 0.83648 0
M  V30 7052 C 656.518 -2.87174 1.91376 0
M  V30 7053 C 655.631 -2.91283 3.19027 0
M  V30 7054 C 654.766 -4.20026 3.25195 0
M  V30 7055 C 653.805 -4.18113 4.47044 0
M  V30 7056 N 652.942 -5.38429 4.50598 0
M  V30 7057 H 657.782 -1.29075 2.68596 0
M  V30 7058 H 655.319 -0.626518 1.33091 0
M  V30 7059 H 657.277 -3.66959 1.98486 0
M  V30 7060 H 655.907 -3.06329 1.01795 0
M  V30 7061 H 654.959 -2.03984 3.21084 0
M  V30 7062 H 656.271 -2.85734 4.08849 0
M  V30 7063 H 655.425 -5.08204 3.31382 0
M  V30 7064 H 654.164 -4.28271 2.33313 0
M  V30 7065 H 653.169 -3.28325 4.41002 0
M  V30 7066 H 654.394 -4.11507 5.40221 0
M  V30 7067 H 652.34 -5.4734 3.616 0
M  V30 7068 H 652.257 -5.34879 5.34266 0
M  V30 7069 H 653.525 -6.28557 4.61016 0
M  V30 7070 N 657.755 -1.42862 -0.66545 0
M  V30 7071 C 659.032 -1.3431 -1.42197 0
M  V30 7072 C 659.412 0.0150265 -2.11095 0
M  V30 7073 O 658.76 1.03101 -2.03918 0
M  V30 7074 C 658.97 -2.51783 -2.41674 0
M  V30 7075 C 660.318 -2.94321 -3.0604 0
M  V30 7076 O 661.342 -2.51741 -2.52001 0
M  V30 7077 O 660.201 -3.68047 -4.03985 0
M  V30 7078 H 657.295 -0.530159 -0.634713 0
M  V30 7079 H 659.841 -1.54888 -0.693386 0
M  V30 7080 H 658.613 -3.42282 -1.89627 0
M  V30 7081 H 658.236 -2.33241 -3.22001 0
M  V30 7082 N 659.233 0.902656 -1.29189 0
M  V30 7083 C 660.181 2.0278 -1.13943 0
M  V30 7084 C 661.175 1.69308 -0.055787 0
M  V30 7085 O 662.381 1.78707 -0.215371 0
M  V30 7086 H 658.756 0.664595 -0.351877 0
M  V30 7087 H 660.727 2.12778 -2.09208 0
M  V30 7088 C 659.476 3.37657 -0.82966 0
M  V30 7089 H 658.799 3.63913 -1.65551 0
M  V30 7090 H 660.239 4.17078 -0.762998 0
M  V30 7091 C 658.698 3.33648 0.466991 0
M  V30 7092 O 659.228 3.72886 1.49395 0
M  V30 7093 N 657.434 2.86745 0.471761 0
M  V30 7094 H 656.981 2.55009 -0.364406 0
M  V30 7095 H 656.939 2.84446 1.33933 0
M  V30 7096 N 660.711 1.11618 1.11262 0
M  V30 7097 C 661.939 0.888739 1.8684 0
M  V30 7098 C 662.354 -0.561558 1.80255 0
M  V30 7099 O 661.711 -1.38782 1.18515 0
M  V30 7100 C 661.762 1.34422 3.35579 0
M  V30 7101 O 661.483 2.73766 3.42029 0
M  V30 7102 C 662.984 1.15246 4.28058 0
M  V30 7103 H 660.204 0.318152 0.590779 0
M  V30 7104 H 662.748 1.48398 1.40707 0
M  V30 7105 H 660.903 0.79239 3.7921 0
M  V30 7106 H 661.317 2.9355 4.34659 0
M  V30 7107 H 662.791 1.52015 5.30656 0
M  V30 7108 H 663.268 0.0922007 4.39103 0
M  V30 7109 H 663.874 1.69136 3.90222 0
M  V30 7110 N 662.189 -1.289 0.906776 0
M  V30 7111 C 663.438 -1.9455 0.532262 0
M  V30 7112 C 663.751 -1.72219 -0.927353 0
M  V30 7113 O 664.957 -2.32033 -1.40971 0
M  V30 7114 C 663.413 -3.48438 0.901041 0
M  V30 7115 C 663.021 -3.79558 2.37991 0
M  V30 7116 C 664.765 -4.20284 0.596777 0
M  V30 7117 C 662.672 -5.26723 2.68918 0
M  V30 7118 H 661.602 -0.728259 0.195333 0
M  V30 7119 H 664.253 -1.46519 1.10474 0
M  V30 7120 H 662.635 -3.95162 0.257419 0
M  V30 7121 H 663.809 -3.43668 3.06967 0
M  V30 7122 H 662.124 -3.20868 2.65391 0
M  V30 7123 H 664.721 -5.28612 0.8046 0
M  V30 7124 H 665.064 -4.13694 -0.465072 0
M  V30 7125 H 665.597 -3.79315 1.19855 0
M  V30 7126 H 662.336 -5.38384 3.73928 0
M  V30 7127 H 661.856 -5.63836 2.04571 0
M  V30 7128 H 663.535 -5.94391 2.55555 0
M  V30 7129 N 663.667 -0.670007 -1.42649 0
M  V30 7130 C 664.916 -0.187526 -2.00826 0
M  V30 7131 C 665.229 1.21142 -1.53571 0
M  V30 7132 O 666.435 1.79001 -2.04134 0
M  V30 7133 C 664.891 -0.284409 -3.58774 0
M  V30 7134 C 664.499 -1.6871 -4.15019 0
M  V30 7135 C 666.243 0.139605 -4.2427 0
M  V30 7136 C 664.15 -1.73701 -5.65316 0
M  V30 7137 H 663.08 -0.0663468 -0.751075 0
M  V30 7138 H 665.731 -0.834492 -1.63427 0
M  V30 7139 H 664.113 0.430364 -3.93655 0
M  V30 7140 H 665.287 -2.42857 -3.91608 0
M  V30 7141 H 663.602 -2.05855 -3.61957 0
M  V30 7142 H 666.199 0.122398 -5.3456 0
M  V30 7143 H 666.542 1.17403 -3.99402 0
M  V30 7144 H 667.075 -0.523995 -3.94334 0
M  V30 7145 H 663.814 -2.75109 -5.94975 0
M  V30 7146 H 663.334 -1.03903 -5.90732 0
M  V30 7147 H 665.013 -1.48829 -6.2965 0
M  V30 7148 N 665.145 1.52092 -0.413018 0
M  V30 7149 C 666.055 2.30858 0.417318 0
M  V30 7150 C 667.071 1.38746 1.05003 0
M  V30 7151 O 668.247 1.71821 1.05069 0
M  V30 7152 C 665.312 3.11756 1.51687 0
M  V30 7153 C 664.373 4.19613 0.906825 0
M  V30 7154 C 663.606 4.96644 1.95399 0
M  V30 7155 O 663.829 4.7402 3.17271 0
M  V30 7156 O 662.763 5.81385 1.55805 0
M  V30 7157 H 666.589 3.02865 -0.225028 0
M  V30 7158 H 664.174 1.48358 -0.176126 0
M  V30 7159 H 666.056 3.62122 2.15512 0
M  V30 7160 H 664.731 2.42539 2.14375 0
M  V30 7161 H 663.638 3.73385 0.231183 0
M  V30 7162 H 664.971 4.91134 0.323814 0
M  V30 7163 N 666.623 0.143563 1.56945 0
M  V30 7164 C 667.57 -0.797433 2.16586 0
M  V30 7165 C 668.54 -1.24654 1.09775 0
M  V30 7166 O 669.725 -1.31968 1.37801 0
M  V30 7167 C 666.865 -2.03253 2.78895 0
M  V30 7168 C 665.978 -1.62954 4.00087 0
M  V30 7169 C 665.113 -2.81617 4.50406 0
M  V30 7170 C 664.152 -2.37675 5.64072 0
M  V30 7171 N 663.289 -3.49335 6.09023 0
M  V30 7172 H 668.129 -0.282023 2.96662 0
M  V30 7173 H 665.666 -0.127494 1.46546 0
M  V30 7174 H 667.624 -2.75653 3.13163 0
M  V30 7175 H 666.254 -2.52211 2.01469 0
M  V30 7176 H 665.306 -0.803322 3.71821 0
M  V30 7177 H 666.618 -1.26679 4.82446 0
M  V30 7178 H 665.772 -3.62212 4.86711 0
M  V30 7179 H 664.511 -3.21134 3.67048 0
M  V30 7180 H 663.516 -1.55519 5.27346 0
M  V30 7181 H 664.741 -1.99247 6.49213 0
M  V30 7182 H 662.687 -3.8848 5.28601 0
M  V30 7183 H 662.604 -3.17064 6.86299 0
M  V30 7184 H 663.872 -4.30297 6.49973 0
M  V30 7185 N 668.101 -1.57061 -0.130224 0
M  V30 7186 C 669.329 -1.88432 -0.854456 0
M  V30 7187 C 669.744 -0.733608 -1.73964 0
M  V30 7188 O 669.101 0.296029 -1.80083 0
M  V30 7189 C 669.152 -3.1918 -1.69724 0
M  V30 7190 O 668.873 -4.2982 -0.847705 0
M  V30 7191 C 670.374 -3.6418 -2.5276 0
M  V30 7192 H 667.594 -0.624193 -0.246221 0
M  V30 7193 H 670.138 -2.04159 -0.11798 0
M  V30 7194 H 668.293 -3.05156 -2.3866 0
M  V30 7195 H 668.707 -5.04689 -1.42792 0
M  V30 7196 H 670.181 -4.58457 -3.07443 0
M  V30 7197 H 670.658 -2.90285 -3.29592 0
M  V30 7198 H 671.264 -3.80954 -1.89087 0
M  V30 7199 N 669.579 0.400081 -1.52437 0
M  V30 7200 C 670.804 1.17221 -1.71096 0
M  V30 7201 C 671.229 1.83269 -0.423565 0
M  V30 7202 O 670.587 1.70378 0.619751 0
M  V30 7203 C 670.635 2.20425 -2.85386 0
M  V30 7204 O 669.739 3.26769 -2.51586 0
M  V30 7205 H 669.08 0.341766 -0.569291 0
M  V30 7206 H 671.61 0.467772 -1.99181 0
M  V30 7207 H 671.62 2.64605 -3.10561 0
M  V30 7208 H 670.295 1.71737 -3.78786 0
M  V30 7209 H 668.872 2.87804 -2.37114 0
M  V30 7210 N 671.057 1.43213 0.657864 0
M  V30 7211 C 672.007 1.44459 1.76396 0
M  V30 7212 C 672.991 0.313641 1.57814 0
M  V30 7213 O 674.183 0.557094 1.68004 0
M  V30 7214 C 671.312 1.36586 3.14959 0
M  V30 7215 C 670.398 2.54692 3.39106 0
M  V30 7216 N 670.789 3.80059 3.33749 0
M  V30 7217 C 669.087 2.49316 3.69807 0
M  V30 7218 C 669.788 4.58606 3.57849 0
M  V30 7219 N 668.764 3.89267 3.79437 0
M  V30 7220 H 672.566 2.39265 1.70673 0
M  V30 7221 H 670.08 1.378 0.859357 0
M  V30 7222 H 672.077 1.35561 3.94245 0
M  V30 7223 H 670.737 0.427956 3.21867 0
M  V30 7224 H 671.748 4.12414 3.13266 0
M  V30 7225 H 668.425 1.6419 3.83859 0
M  V30 7226 H 669.815 5.67619 3.59525 0
M  V30 7227 N 672.536 -0.895792 1.29666 0
M  V30 7228 C 673.761 -1.68528 1.20885 0
M  V30 7229 C 674.186 -1.8673 -0.226595 0
M  V30 7230 O 673.544 -1.39044 -1.16347 0
M  V30 7231 C 673.592 -3.04512 1.93144 0
M  V30 7232 O 672.696 -3.92963 1.25115 0
M  V30 7233 H 672.037 -0.515371 0.418675 0
M  V30 7234 H 674.567 -1.11878 1.71302 0
M  V30 7235 H 674.577 -3.54628 2.0175 0
M  V30 7236 H 673.252 -2.90582 2.97548 0
M  V30 7237 H 671.829 -3.51399 1.24794 0
M  V30 7238 N 674.014 -1.12206 -1.10668 0
M  V30 7239 C 674.944 -0.810086 -2.18997 0
M  V30 7240 C 675.925 0.225065 -1.68604 0
M  V30 7241 O 677.11 0.086783 -1.94006 0
M  V30 7242 C 674.24 -0.261262 -3.46316 0
M  V30 7243 C 673.194 -1.2292 -4.09969 0
M  V30 7244 C 672.52 -0.540713 -5.31959 0
M  V30 7245 C 673.82 -2.58295 -4.53962 0
M  V30 7246 H 675.514 -1.7159 -2.45352 0
M  V30 7247 H 673.06 -0.82646 -1.17922 0
M  V30 7248 H 675.013 -0.0307522 -4.21389 0
M  V30 7249 H 673.737 0.679879 -3.19445 0
M  V30 7250 H 672.396 -1.44548 -3.369 0
M  V30 7251 H 672.044 0.405492 -5.01363 0
M  V30 7252 H 671.744 -1.18637 -5.75499 0
M  V30 7253 H 673.268 -0.319184 -6.09765 0
M  V30 7254 H 674.682 -2.40709 -5.20319 0
M  V30 7255 H 673.079 -3.18916 -5.08343 0
M  V30 7256 H 674.149 -3.16918 -3.67002 0
M  V30 7257 N 675.492 1.28418 -0.913599 0
M  V30 7258 C 676.439 2.27301 -0.400373 0
M  V30 7259 C 677.409 1.57582 0.52509 0
M  V30 7260 O 678.594 1.85482 0.447318 0
M  V30 7261 C 675.734 3.43284 0.35361 0
M  V30 7262 C 674.847 4.27752 -0.604341 0
M  V30 7263 C 673.982 5.30934 0.168075 0
M  V30 7264 C 673.021 6.07065 -0.783499 0
M  V30 7265 N 672.158 7.02086 -0.0446112 0
M  V30 7266 H 676.998 2.70579 -1.24865 0
M  V30 7267 H 674.535 1.33067 -0.627028 0
M  V30 7268 H 676.493 4.09322 0.806945 0
M  V30 7269 H 675.123 3.00997 1.16623 0
M  V30 7270 H 674.175 3.61759 -1.17621 0
M  V30 7271 H 675.487 4.80682 -1.33216 0
M  V30 7272 H 674.641 6.02855 0.681979 0
M  V30 7273 H 673.38 4.78771 0.928947 0
M  V30 7274 H 672.385 5.33995 -1.30878 0
M  V30 7275 H 673.61 6.61317 -1.54392 0
M  V30 7276 H 671.556 6.52273 0.698272 0
M  V30 7277 H 671.473 7.52637 -0.712258 0
M  V30 7278 H 672.741 7.78205 0.449102 0
M  V30 7279 N 676.97 0.677563 1.42291 0
M  V30 7280 C 677.918 -0.0106755 2.32598 0
M  V30 7281 C 678.912 -0.787643 1.49975 0
M  V30 7282 O 680.118 -0.695295 1.66029 0
M  V30 7283 H 676.493 -0.0222482 0.751671 0
M  V30 7284 H 678.464 0.768312 2.88339 0
M  V30 7285 C 677.213 -0.946142 3.3458 0
M  V30 7286 H 676.536 -0.357701 3.98197 0
M  V30 7287 H 677.976 -1.39634 4.00348 0
M  V30 7288 C 676.435 -2.05383 2.67057 0
M  V30 7289 O 676.965 -3.1406 2.50458 0
M  V30 7290 N 675.171 -1.82635 2.26038 0
M  V30 7291 H 674.718 -0.942534 2.39737 0
M  V30 7292 H 674.676 -2.56937 1.81192 0
M  V30 7293 N 678.448 -1.51871 0.421078 0
M  V30 7294 C 679.378 -2.30231 -0.389363 0
M  V30 7295 C 680.359 -1.34946 -1.03555 0
M  V30 7296 O 681.544 -1.63859 -1.04229 0
M  V30 7297 C 678.674 -3.13247 -1.49979 0
M  V30 7298 C 677.628 -4.16677 -0.977966 0
M  V30 7299 C 676.954 -4.88112 -2.1829 0
M  V30 7300 C 678.254 -5.22295 -0.0236775 0
M  V30 7301 H 679.948 -2.98229 0.264524 0
M  V30 7302 H 677.494 -1.43424 0.12866 0
M  V30 7303 H 679.447 -3.66838 -2.07383 0
M  V30 7304 H 678.171 -2.4304 -2.18173 0
M  V30 7305 H 676.83 -3.64114 -0.426245 0
M  V30 7306 H 676.478 -4.14423 -2.85066 0
M  V30 7307 H 676.178 -5.58041 -1.84021 0
M  V30 7308 H 677.702 -5.44521 -2.76278 0
M  V30 7309 H 679.116 -5.71055 -0.506899 0
M  V30 7310 H 677.513 -5.99656 0.230782 0
M  V30 7311 H 678.583 -4.76131 0.917999 0
M  V30 7312 N 679.926 -0.151884 -1.56866 0
M  V30 7313 C 681.173 0.498004 -1.96281 0
M  V30 7314 C 681.501 1.64551 -1.03698 0
M  V30 7315 O 680.756 1.95585 -0.0671497 0
M  V30 7316 C 681.055 1.04074 -3.41911 0
M  V30 7317 C 680.721 0.0111688 -4.50899 0
M  V30 7318 C 679.383 -0.271844 -4.80432 0
M  V30 7319 C 681.735 -0.68869 -5.1663 0
M  V30 7320 C 679.063 -1.26044 -5.73001 0
M  V30 7321 C 681.415 -1.66613 -6.10264 0
M  V30 7322 C 680.079 -1.9568 -6.38174 0
M  V30 7323 H 679.349 0.182233 -0.718242 0
M  V30 7324 H 681.996 -0.239746 -1.89993 0
M  V30 7325 H 680.301 1.85592 -3.45055 0
M  V30 7326 H 681.998 1.55224 -3.69738 0
M  V30 7327 H 678.588 0.241932 -4.27917 0
M  V30 7328 H 682.772 -0.48324 -4.93942 0
M  V30 7329 H 678.028 -1.49202 -5.92915 0
M  V30 7330 H 682.202 -2.21392 -6.60272 0
M  V30 7331 H 679.829 -2.72434 -7.09707 0
M  V30 7332 N 681.404 1.57128 0.121893 0
M  V30 7333 C 682.632 1.88883 0.844451 0
M  V30 7334 C 683.047 0.742824 1.73573 0
M  V30 7335 O 682.404 -0.286475 1.80238 0
M  V30 7336 C 682.455 3.20076 1.68029 0
M  V30 7337 O 682.176 4.30264 0.824898 0
M  V30 7338 C 683.677 3.65515 2.50826 0
M  V30 7339 H 680.897 0.62549 0.242907 0
M  V30 7340 H 683.441 2.04219 0.107151 0
M  V30 7341 H 681.596 3.06418 2.37038 0
M  V30 7342 H 682.01 5.05439 1.40113 0
M  V30 7343 H 683.484 4.60081 3.05008 0
M  V30 7344 H 683.961 2.92029 3.28048 0
M  V30 7345 H 684.567 3.81952 1.87064 0
M  V30 7346 N 682.882 -0.391992 1.52647 0
M  V30 7347 C 684.11 -1.1586 1.71418 0
M  V30 7348 C 684.525 -1.8381 0.431216 0
M  V30 7349 O 683.882 -1.7256 -0.594085 0
M  V30 7350 C 683.933 -2.20888 2.86165 0
M  V30 7351 O 683.654 -1.5571 4.09495 0
M  V30 7352 C 685.155 -3.103 3.1659 0
M  V30 7353 H 682.375 -0.347494 0.574011 0
M  V30 7354 H 684.919 -0.458972 1.99283 0
M  V30 7355 H 683.074 -2.86492 2.6077 0
M  V30 7356 H 683.488 -2.25474 4.73563 0
M  V30 7357 H 684.962 -3.8003 4.00351 0
M  V30 7358 H 685.439 -3.73639 2.30848 0
M  V30 7359 H 686.045 -2.50345 3.43813 0
M  V30 7360 N 684.36 -1.4356 -0.65026 0
M  V30 7361 C 685.323 -1.48615 -1.74489 0
M  V30 7362 C 686.323 -0.370483 -1.56474 0
M  V30 7363 O 687.513 -0.632351 -1.62317 0
M  V30 7364 C 684.645 -1.34161 -3.13391 0
M  V30 7365 H 685.838 -2.46103 -1.71387 0
M  V30 7366 H 683.391 -1.30369 -0.862186 0
M  V30 7367 H 684.126 -0.376918 -3.22102 0
M  V30 7368 H 683.911 -2.1504 -3.27872 0
M  V30 7369 H 685.401 -1.40637 -3.93206 0
M  V30 7370 N 685.838 0.888903 -1.30139 0
M  V30 7371 C 687.066 1.67358 -1.21651 0
M  V30 7372 C 687.481 1.87499 0.221246 0
M  V30 7373 O 686.838 1.41969 1.14677 0
M  V30 7374 C 686.889 3.05213 -1.93719 0
M  V30 7375 O 686.61 2.85984 -3.31881 0
M  V30 7376 C 688.111 3.9964 -1.9184 0
M  V30 7377 H 685.331 0.522365 -0.42116 0
M  V30 7378 H 687.875 1.11086 -1.71698 0
M  V30 7379 H 686.03 3.5823 -1.4748 0
M  V30 7380 H 686.444 3.73411 -3.68327 0
M  V30 7381 H 687.918 4.93749 -2.46811 0
M  V30 7382 H 688.395 4.29955 -0.896409 0
M  V30 7383 H 689.001 3.52558 -2.37872 0
M  V30 7384 N 687.317 1.12792 1.10072 0
M  V30 7385 C 688.264 0.79921 2.16521 0
M  V30 7386 C 689.234 -0.235726 1.64419 0
M  V30 7387 O 690.419 -0.109457 1.90486 0
M  V30 7388 C 687.559 0.264091 3.44088 0
M  V30 7389 C 686.672 1.35729 4.10124 0
M  V30 7390 C 685.807 0.781212 5.25424 0
M  V30 7391 C 684.846 1.85327 5.8337 0
M  V30 7392 N 683.983 1.29564 6.90042 0
M  V30 7393 H 688.823 1.71105 2.43981 0
M  V30 7394 H 686.36 0.854225 1.19756 0
M  V30 7395 H 688.318 -0.0642423 4.17151 0
M  V30 7396 H 686.948 -0.610901 3.16967 0
M  V30 7397 H 686 1.80234 3.34993 0
M  V30 7398 H 687.312 2.16782 4.4923 0
M  V30 7399 H 686.466 0.403769 6.05355 0
M  V30 7400 H 685.205 -0.0604686 4.87663 0
M  V30 7401 H 684.21 2.23986 5.02106 0
M  V30 7402 H 685.435 2.69824 6.23195 0
M  V30 7403 H 683.381 0.475844 6.54272 0
M  V30 7404 H 683.298 2.04271 7.2788 0
M  V30 7405 H 684.566 0.945545 7.73744 0
M  V30 7406 N 688.795 -1.27931 0.920396 0
M  V30 7407 C 689.758 -2.25345 0.41858 0
M  V30 7408 C 690.758 -1.54116 -0.458798 0
M  V30 7409 O 691.948 -1.72235 -0.260912 0
M  V30 7410 C 689.08 -3.38556 -0.399104 0
M  V30 7411 H 690.273 -2.71251 1.27918 0
M  V30 7412 H 687.826 -1.39728 0.700406 0
M  V30 7413 H 688.561 -2.98021 -1.27882 0
M  V30 7414 H 688.346 -3.91426 0.229863 0
M  V30 7415 H 689.836 -4.10976 -0.740817 0
M  V30 7416 N 690.273 -0.685099 -1.4193 0
M  V30 7417 C 691.183 -0.013404 -2.34596 0
M  V30 7418 C 692.199 0.777589 -1.55658 0
M  V30 7419 O 693.375 0.717553 -1.88184 0
M  V30 7420 C 690.44 0.919031 -3.34297 0
M  V30 7421 C 689.501 0.121417 -4.29128 0
M  V30 7422 C 688.734 1.00944 -5.24067 0
M  V30 7423 O 688.957 2.24898 -5.24192 0
M  V30 7424 O 687.891 0.464724 -6.00103 0
M  V30 7425 H 691.717 -0.776978 -2.93593 0
M  V30 7426 H 689.302 -0.445379 -1.42607 0
M  V30 7427 H 691.184 1.45402 -3.9552 0
M  V30 7428 H 689.859 1.66228 -2.77759 0
M  V30 7429 H 688.766 -0.45792 -3.71287 0
M  V30 7430 H 690.099 -0.582937 -4.88736 0
M  V30 7431 N 691.751 1.51645 -0.429126 0
M  V30 7432 C 692.999 2.01616 0.139802 0
M  V30 7433 C 693.32 1.31568 1.43927 0
M  V30 7434 O 692.59 0.447688 1.90716 0
M  V30 7435 H 691.17 0.744998 0.054654 0
M  V30 7436 H 693.832 1.8638 -0.569952 0
M  V30 7437 H 692.928 3.10439 0.321609 0
M  V30 7438 N 693.229 0.160201 1.56784 0
M  V30 7439 C 694.476 -0.487588 1.96542 0
M  V30 7440 C 694.804 -1.63999 1.04569 0
M  V30 7441 O 694.059 -1.95546 0.0775211 0
M  V30 7442 C 694.358 -1.02259 3.42459 0
M  V30 7443 C 694.024 0.0127436 4.50898 0
M  V30 7444 C 692.686 0.297318 4.80281 0
M  V30 7445 C 695.038 0.716078 5.16257 0
M  V30 7446 C 692.366 1.29081 5.72324 0
M  V30 7447 C 694.718 1.69847 6.09372 0
M  V30 7448 C 693.382 1.99061 6.37127 0
M  V30 7449 H 692.652 -0.178421 0.719199 0
M  V30 7450 H 695.299 0.249818 1.89864 0
M  V30 7451 H 693.604 -1.8376 3.46034 0
M  V30 7452 H 695.301 -1.53261 3.70556 0
M  V30 7453 H 691.891 -0.219235 4.28039 0
M  V30 7454 H 696.075 0.509428 4.93679 0
M  V30 7455 H 691.331 1.52344 5.92116 0
M  V30 7456 H 695.505 2.2489 6.59088 0
M  V30 7457 H 693.132 2.76194 7.08252 0
M  V30 7458 N 694.707 -1.5719 -0.113559 0
M  V30 7459 C 695.937 -1.89053 -0.833212 0
M  V30 7460 C 696.345 -0.750139 -1.73694 0
M  V30 7461 O 695.688 0.287808 -1.81431 0
M  V30 7462 C 695.75 -3.15986 -1.71443 0
M  V30 7463 C 695.414 -4.46271 -0.984449 0
M  V30 7464 C 696.411 -5.18897 -0.322741 0
M  V30 7465 C 694.096 -4.92963 -0.964011 0
M  V30 7466 C 696.09 -6.3644 0.349646 0
M  V30 7467 C 693.777 -6.10422 -0.287828 0
M  V30 7468 C 694.775 -6.82009 0.36784 0
M  V30 7469 O 694.463 -7.97233 1.03322 0
M  V30 7470 H 694.195 -0.630225 -0.244526 0
M  V30 7471 H 696.749 -2.05152 -0.100847 0
M  V30 7472 H 694.979 -2.95984 -2.48858 0
M  V30 7473 H 696.668 -3.33826 -2.309 0
M  V30 7474 H 697.434 -4.83875 -0.330114 0
M  V30 7475 H 693.313 -4.37143 -1.46379 0
M  V30 7476 H 696.857 -6.92254 0.861996 0
M  V30 7477 H 692.754 -6.449 -0.278237 0
M  V30 7478 H 693.522 -8.13105 0.938247 0
M  V30 7479 N 696.185 0.383891 -1.52853 0
M  V30 7480 C 697.148 1.45197 -1.77343 0
M  V30 7481 C 698.148 1.47362 -0.643522 0
M  V30 7482 O 699.338 1.48443 -0.911613 0
M  V30 7483 C 696.47 2.8445 -1.87885 0
M  V30 7484 H 697.663 1.24764 -2.72716 0
M  V30 7485 H 695.216 0.615939 -1.43652 0
M  V30 7486 H 695.951 3.10222 -0.94515 0
M  V30 7487 H 695.736 2.8428 -2.70051 0
M  V30 7488 H 697.226 3.61832 -2.08488 0
M  V30 7489 N 697.663 1.43903 0.642637 0
M  V30 7490 C 698.94 1.36556 1.40043 0
M  V30 7491 C 699.32 0.0185588 2.11092 0
M  V30 7492 O 698.668 -0.998438 2.05532 0
M  V30 7493 C 698.878 2.55596 2.37638 0
M  V30 7494 C 700.226 2.99153 3.01318 0
M  V30 7495 O 701.25 2.55719 2.47965 0
M  V30 7496 O 700.109 3.74427 3.98078 0
M  V30 7497 H 697.203 0.540189 0.626198 0
M  V30 7498 H 699.749 1.55971 0.668657 0
M  V30 7499 H 698.521 3.45256 1.84158 0
M  V30 7500 H 698.144 2.38334 3.18249 0
M  V30 7501 N 699.141 -0.881989 1.30609 0
M  V30 7502 C 700.389 -1.63082 1.19368 0
M  V30 7503 C 700.71 -1.93376 -0.251147 0
M  V30 7504 O 699.98 -1.5723 -1.16857 0
M  V30 7505 H 698.56 -0.604542 0.438791 0
M  V30 7506 H 701.222 -1.05658 1.63776 0
M  V30 7507 H 700.318 -2.57966 1.7567 0
M  V30 7508 N 700.619 -1.13374 -1.09472 0
M  V30 7509 C 701.844 -0.918711 -1.85942 0
M  V30 7510 C 702.269 0.527225 -1.8056 0
M  V30 7511 O 701.627 1.37408 -1.18274 0
M  V30 7512 C 701.675 -1.41056 -3.31867 0
M  V30 7513 O 700.779 -0.595496 -4.08078 0
M  V30 7514 H 700.12 -0.329297 -0.576593 0
M  V30 7515 H 702.65 -1.50829 -1.38245 0
M  V30 7516 H 702.66 -1.41398 -3.82715 0
M  V30 7517 H 701.335 -2.46335 -3.35099 0
M  V30 7518 H 699.912 -0.659911 -3.67014 0
M  V30 7519 N 702.098 1.27442 -0.927168 0
M  V30 7520 C 703.328 1.9821 -0.582775 0
M  V30 7521 C 703.736 1.69361 0.843406 0
M  V30 7522 O 703.079 0.950381 1.57205 0
M  V30 7523 C 703.141 3.52048 -0.728165 0
M  V30 7524 C 702.805 4.04518 -2.12637 0
M  V30 7525 C 703.802 4.17332 -3.10048 0
M  V30 7526 C 701.487 4.38879 -2.44317 0
M  V30 7527 C 703.481 4.6378 -4.37249 0
M  V30 7528 C 701.168 4.85018 -3.71753 0
M  V30 7529 C 702.166 4.97428 -4.68033 0
M  V30 7530 O 701.854 5.42556 -5.93202 0
M  V30 7531 H 701.586 0.639314 -0.219667 0
M  V30 7532 H 704.14 1.63272 -1.24626 0
M  V30 7533 H 702.37 3.86699 -0.00758143 0
M  V30 7534 H 704.059 4.04033 -0.388906 0
M  V30 7535 H 704.825 3.91046 -2.86894 0
M  V30 7536 H 700.704 4.28462 -1.70121 0
M  V30 7537 H 704.248 4.73382 -5.12402 0
M  V30 7538 H 700.145 5.10746 -3.94726 0
M  V30 7539 H 700.913 5.60811 -5.96182 0
M  V30 7540 N 703.576 0.692616 1.41565 0
M  V30 7541 C 704.825 0.219452 2.00503 0
M  V30 7542 C 705.138 -1.18683 1.55479 0
M  V30 7543 O 706.344 -1.75731 2.06956 0
M  V30 7544 C 704.8 0.341451 3.58277 0
M  V30 7545 C 704.408 1.75291 4.12283 0
M  V30 7546 C 706.152 -0.0720899 4.24439 0
M  V30 7547 C 704.059 1.82673 5.62481 0
M  V30 7548 H 702.989 0.0782874 0.749925 0
M  V30 7549 H 705.64 0.860386 1.62079 0
M  V30 7550 H 704.022 -0.367683 3.94289 0
M  V30 7551 H 705.196 2.49057 3.87695 0
M  V30 7552 H 703.511 2.11587 3.58636 0
M  V30 7553 H 706.108 -0.0373385 5.34687 0
M  V30 7554 H 706.451 -1.11034 4.0122 0
M  V30 7555 H 706.984 0.586663 3.9345 0
M  V30 7556 H 703.723 2.84539 5.90523 0
M  V30 7557 H 703.243 1.13288 5.89004 0
M  V30 7558 H 704.922 1.58827 6.27203 0
M  V30 7559 N 705.054 -1.51416 0.437162 0
M  V30 7560 C 706.331 -1.94682 -0.189292 0
M  V30 7561 C 706.711 -1.37581 -1.60108 0
M  V30 7562 O 706.059 -0.562815 -2.2146 0
M  V30 7563 C 706.269 -3.48599 -0.167201 0
M  V30 7564 C 707.617 -4.2296 -0.372856 0
M  V30 7565 O 708.641 -3.55354 -0.245323 0
M  V30 7566 O 707.5 -5.42895 -0.626693 0
M  V30 7567 H 704.594 -0.816708 -0.130063 0
M  V30 7568 H 707.14 -1.62316 0.495128 0
M  V30 7569 H 705.912 -3.82616 0.81981 0
M  V30 7570 H 705.535 -3.87406 -0.894537 0
M  V30 7571 N 706.532 -0.168513 -1.56696 0
M  V30 7572 C 707.482 0.7751 -2.14421 0
M  V30 7573 C 708.466 1.19476 -1.07769 0
M  V30 7574 O 709.658 1.15759 -1.33898 0
M  V30 7575 C 706.787 2.00549 -2.7863 0
M  V30 7576 C 705.873 1.60795 -3.92436 0
M  V30 7577 N 706.264 0.919812 -4.97366 0
M  V30 7578 C 704.562 1.89917 -4.03544 0
M  V30 7579 C 705.263 0.724485 -5.77171 0
M  V30 7580 N 704.239 1.26505 -5.28675 0
M  V30 7581 H 708.041 0.240349 -2.92916 0
M  V30 7582 H 705.555 0.0322675 -1.62368 0
M  V30 7583 H 707.552 2.6917 -3.1836 0
M  V30 7584 H 706.212 2.54522 -2.01615 0
M  V30 7585 H 707.223 0.578169 -5.14663 0
M  V30 7586 H 703.9 2.45587 -3.37629 0
M  V30 7587 H 705.29 0.180521 -6.71657 0
M  V30 7588 N 708.01 1.57248 0.105221 0
M  V30 7589 C 709.238 1.89768 0.82437 0
M  V30 7590 C 709.653 0.761192 1.72775 0
M  V30 7591 O 709.01 -0.267342 1.80531 0
M  V30 7592 C 709.061 3.2184 1.64625 0
M  V30 7593 O 708.782 4.31115 0.779217 0
M  V30 7594 C 710.283 3.68155 2.46935 0
M  V30 7595 H 707.503 0.628031 0.236259 0
M  V30 7596 H 710.047 2.04321 0.085485 0
M  V30 7597 H 708.202 3.08915 2.33775 0
M  V30 7598 H 708.616 5.06897 1.34745 0
M  V30 7599 H 710.09 4.6329 3.00111 0
M  V30 7600 H 710.567 2.95492 3.24932 0
M  V30 7601 H 711.173 3.83914 1.83002 0
M  V30 7602 N 709.488 -0.375779 1.53054 0
M  V30 7603 C 710.436 -1.48015 1.79428 0
M  V30 7604 C 711.43 -1.55893 0.662854 0
M  V30 7605 O 712.636 -1.58901 0.845599 0
M  V30 7606 H 709.011 -0.492887 0.56795 0
M  V30 7607 H 710.982 -1.22971 2.71884 0
M  V30 7608 C 709.731 -2.84984 1.99197 0
M  V30 7609 H 709.054 -2.79677 2.85693 0
M  V30 7610 H 710.494 -3.61462 2.21633 0
M  V30 7611 C 708.953 -3.28025 0.768183 0
M  V30 7612 O 709.483 -4.01671 -0.0480482 0
M  V30 7613 N 707.689 -2.84454 0.594521 0
M  V30 7614 H 707.236 -2.24688 1.25988 0
M  V30 7615 H 707.194 -3.13609 -0.222916 0
M  V30 7616 N 710.966 -1.44241 -0.634997 0
M  V30 7617 C 712.212 -1.47038 -1.39669 0
M  V30 7618 C 712.545 -0.101122 -1.93937 0
M  V30 7619 O 711.82 0.880699 -1.73418 0
M  V30 7620 C 712.103 -2.52763 -2.56482 0
M  V30 7621 C 711.956 -3.99032 -2.07589 0
M  V30 7622 C 713.275 -2.55031 -3.58674 0
M  V30 7623 H 710.394 -0.53537 -0.506506 0
M  V30 7624 H 713.036 -1.75898 -0.718317 0
M  V30 7625 H 711.186 -2.28284 -3.14354 0
M  V30 7626 H 712.858 -4.3463 -1.54577 0
M  V30 7627 H 711.101 -4.10994 -1.38804 0
M  V30 7628 H 711.772 -4.68649 -2.91671 0
M  V30 7629 H 714.248 -2.76893 -3.10595 0
M  V30 7630 H 713.124 -3.30916 -4.37934 0
M  V30 7631 H 713.385 -1.59085 -4.12486 0
M  V30 7632 N 712.444 0.87505 -1.31075 0
M  V30 7633 C 713.407 1.96333 -1.18263 0
M  V30 7634 C 714.407 1.60416 -0.111106 0
M  V30 7635 O 715.597 1.7044 -0.359987 0
M  V30 7636 C 712.729 3.31036 -0.81414 0
M  V30 7637 H 713.922 2.09125 -2.14958 0
M  V30 7638 H 711.475 1.06271 -1.14614 0
M  V30 7639 H 712.21 3.23944 0.151875 0
M  V30 7640 H 711.995 3.58476 -1.58862 0
M  V30 7641 H 713.485 4.10842 -0.748249 0
M  V30 7642 N 713.922 1.13953 1.08869 0
M  V30 7643 C 715.152 0.926825 1.84644 0
M  V30 7644 C 715.56 -0.527941 1.81685 0
M  V30 7645 O 714.903 -1.37742 1.21543 0
M  V30 7646 C 714.965 1.34416 3.33426 0
M  V30 7647 C 714.629 2.81351 3.60126 0
M  V30 7648 C 715.626 3.79486 3.55368 0
M  V30 7649 C 713.311 3.1865 3.88288 0
M  V30 7650 C 715.305 5.1293 3.78393 0
M  V30 7651 C 712.992 4.5227 4.10968 0
M  V30 7652 C 713.99 5.4922 4.06013 0
M  V30 7653 O 713.678 6.80429 4.28102 0
M  V30 7654 H 713.41 0.33013 0.589907 0
M  V30 7655 H 715.964 1.51738 1.38436 0
M  V30 7656 H 714.194 0.696901 3.80368 0
M  V30 7657 H 715.883 1.10302 3.90626 0
M  V30 7658 H 716.649 3.52017 3.3363 0
M  V30 7659 H 712.528 2.43785 3.91267 0
M  V30 7660 H 716.072 5.88591 3.74442 0
M  V30 7661 H 711.969 4.79462 4.32188 0
M  V30 7662 H 712.737 6.86617 4.45533 0
M  V30 7663 N 715.4 -1.26948 0.933913 0
M  V30 7664 C 716.628 -1.98186 0.59414 0
M  V30 7665 C 717.043 -1.69614 -0.829257 0
M  V30 7666 O 716.4 -0.960213 -1.55197 0
M  V30 7667 C 716.451 -3.52123 0.818026 0
M  V30 7668 O 716.172 -3.79698 2.18543 0
M  V30 7669 C 717.673 -4.40608 0.48781 0
M  V30 7670 H 714.893 -0.632305 0.224569 0
M  V30 7671 H 717.437 -1.61646 1.25263 0
M  V30 7672 H 715.592 -3.86851 0.206246 0
M  V30 7673 H 716.006 -4.7426 2.24005 0
M  V30 7674 H 717.48 -5.47606 0.695126 0
M  V30 7675 H 717.957 -4.35394 -0.576913 0
M  V30 7676 H 718.563 -4.11411 1.078 0
M  V30 7677 N 716.879 -0.700114 -1.41195 0
M  V30 7678 C 718.127 -0.232546 -2.00758 0
M  V30 7679 C 718.448 1.1734 -1.55745 0
M  V30 7680 O 717.718 1.79262 -0.790058 0
M  V30 7681 H 716.298 -0.0829845 -0.742376 0
M  V30 7682 H 718.96 -0.902289 -1.72756 0
M  V30 7683 H 718.056 -0.253521 -3.11069 0
M  V30 7684 N 718.357 1.51182 -0.445186 0
M  V30 7685 C 719.32 2.26501 0.350722 0
M  V30 7686 C 720.32 1.3025 0.942952 0
M  V30 7687 O 721.51 1.53897 0.816175 0
M  V30 7688 C 718.642 3.06274 1.49697 0
M  V30 7689 H 719.835 2.98299 -0.309474 0
M  V30 7690 H 717.388 1.55034 -0.198551 0
M  V30 7691 H 718.123 2.38911 2.19299 0
M  V30 7692 H 717.908 3.76979 1.0784 0
M  V30 7693 H 719.398 3.63306 2.05909 0
M  V30 7694 N 719.835 0.176821 1.56605 0
M  V30 7695 C 721.065 -0.472142 2.01133 0
M  V30 7696 C 721.473 -1.56979 1.05614 0
M  V30 7697 O 720.816 -1.83632 0.0500137 0
M  V30 7698 C 720.878 -1.10547 3.42081 0
M  V30 7699 C 720.542 -0.148806 4.56758 0
M  V30 7700 C 721.539 0.634939 5.16008 0
M  V30 7701 C 719.224 -0.0430325 5.02282 0
M  V30 7702 C 721.218 1.5116 6.19217 0
M  V30 7703 C 718.905 0.83721 6.05338 0
M  V30 7704 C 719.903 1.61311 6.63677 0
M  V30 7705 O 719.591 2.47863 7.64735 0
M  V30 7706 H 719.323 -0.124725 0.664394 0
M  V30 7707 H 721.877 0.277329 2.03519 0
M  V30 7708 H 720.107 -1.90318 3.36625 0
M  V30 7709 H 721.796 -1.6572 3.70529 0
M  V30 7710 H 722.562 0.563424 4.81716 0
M  V30 7711 H 718.441 -0.636753 4.56581 0
M  V30 7712 H 721.985 2.11767 6.64681 0
M  V30 7713 H 717.882 0.909908 6.39055 0
M  V30 7714 H 718.65 2.4144 7.8208 0
M  V30 7715 N 721.313 -1.57302 -0.09688 0
M  V30 7716 C 722.561 -1.8563 -0.799117 0
M  V30 7717 C 722.882 -0.765263 -1.79356 0
M  V30 7718 O 722.152 0.208657 -1.94786 0
M  V30 7719 H 720.732 -0.684937 -0.298111 0
M  V30 7720 H 723.394 -1.9474 -0.0789341 0
M  V30 7721 H 722.49 -2.82305 -1.3308 0
M  V30 7722 N 722.791 0.367657 -1.53252 0
M  V30 7723 C 723.739 1.47061 -1.8021 0
M  V30 7724 C 724.733 1.55539 -0.671112 0
M  V30 7725 O 725.939 1.58451 -0.854014 0
M  V30 7726 H 722.314 0.489868 -0.570555 0
M  V30 7727 H 724.285 1.21527 -2.72532 0
M  V30 7728 C 723.034 2.83924 -2.00706 0
M  V30 7729 H 722.357 2.78158 -2.87172 0
M  V30 7730 H 723.797 3.60281 -2.23547 0
M  V30 7731 C 722.256 3.27613 -0.785568 0
M  V30 7732 O 722.786 4.01691 0.0267459 0
M  V30 7733 N 720.992 2.84134 -0.609597 0
M  V30 7734 H 720.539 2.24017 -1.27178 0
M  V30 7735 H 720.497 3.13723 0.206281 0
M  V30 7736 N 724.269 1.44576 0.627338 0
M  V30 7737 C 725.515 1.47777 1.38888 0
M  V30 7738 C 725.848 0.111406 1.9388 0
M  V30 7739 O 725.123 -0.87149 1.73883 0
M  V30 7740 C 725.406 2.54119 2.55138 0
M  V30 7741 C 725.259 4.00128 2.0547 0
M  V30 7742 C 726.578 2.56929 3.57317 0
M  V30 7743 H 723.697 0.538048 0.50366 0
M  V30 7744 H 726.339 1.76277 0.708978 0
M  V30 7745 H 724.489 2.29948 3.13139 0
M  V30 7746 H 726.161 4.35444 1.5227 0
M  V30 7747 H 724.404 4.11724 1.36623 0
M  V30 7748 H 725.075 4.7019 2.89181 0
M  V30 7749 H 727.551 2.78536 3.09122 0
M  V30 7750 H 726.427 3.33234 4.36173 0
M  V30 7751 H 726.688 1.6127 4.11636 0
M  V30 7752 N 725.747 -0.868086 1.31537 0
M  V30 7753 C 726.677 -1.99131 1.21939 0
M  V30 7754 C 727.658 -1.69768 0.106166 0
M  V30 7755 O 728.843 -1.92006 0.291081 0
M  V30 7756 C 725.973 -3.34676 0.927879 0
M  V30 7757 C 724.927 -3.7835 2.00088 0
M  V30 7758 C 724.253 -5.11375 1.56203 0
M  V30 7759 C 725.553 -3.95256 3.41424 0
M  V30 7760 H 727.247 -2.07419 2.15911 0
M  V30 7761 H 724.793 -0.996569 1.03945 0
M  V30 7762 H 726.746 -4.12793 0.847327 0
M  V30 7763 H 725.47 -3.26565 -0.0475042 0
M  V30 7764 H 724.129 -3.02474 2.07135 0
M  V30 7765 H 723.777 -4.99709 0.57445 0
M  V30 7766 H 723.477 -5.41568 2.27985 0
M  V30 7767 H 725.001 -5.92001 1.49558 0
M  V30 7768 H 726.415 -4.63764 3.3704 0
M  V30 7769 H 724.812 -4.36849 4.1144 0
M  V30 7770 H 725.882 -2.98579 3.82072 0
M  V30 7771 N 727.225 -1.14528 -1.08264 0
M  V30 7772 C 728.474 -0.908992 -1.80056 0
M  V30 7773 C 728.787 0.565859 -1.87236 0
M  V30 7774 O 729.993 0.919454 -2.55457 0
M  V30 7775 C 728.449 -1.57681 -3.23519 0
M  V30 7776 C 728.057 -3.08803 -3.24569 0
M  V30 7777 C 729.801 -1.4217 -3.99985 0
M  V30 7778 C 727.708 -3.68414 -4.62629 0
M  V30 7779 H 726.638 -0.336432 -0.674781 0
M  V30 7780 H 729.289 -1.37437 -1.21587 0
M  V30 7781 H 727.671 -1.03911 -3.82124 0
M  V30 7782 H 728.845 -3.69252 -2.75663 0
M  V30 7783 H 727.16 -3.23968 -2.61598 0
M  V30 7784 H 729.757 -1.84106 -5.02005 0
M  V30 7785 H 730.1 -0.367989 -4.1467 0
M  V30 7786 H 730.633 -1.92984 -3.47853 0
M  V30 7787 H 727.372 -4.73644 -4.53147 0
M  V30 7788 H 726.892 -3.12746 -5.11811 0
M  V30 7789 H 728.571 -3.68793 -5.31602 0
M  V30 7790 N 728.703 1.26451 -0.940633 0
M  V30 7791 C 729.98 1.88947 -0.505811 0
M  V30 7792 C 730.36 1.85011 1.01657 0
M  V30 7793 O 729.708 1.30406 1.87634 0
M  V30 7794 C 729.918 3.32304 -1.06654 0
M  V30 7795 C 731.266 4.09153 -1.13486 0
M  V30 7796 O 732.29 3.41371 -1.01708 0
M  V30 7797 O 731.149 5.30369 -1.31797 0
M  V30 7798 H 728.243 0.810422 -0.164759 0
M  V30 7799 H 730.789 1.34625 -1.03316 0
M  V30 7800 H 729.561 3.29527 -2.11015 0
M  V30 7801 H 729.184 3.94164 -0.521603 0
M  V30 7802 N 730.181 0.707592 1.40822 0
M  V30 7803 C 731.429 0.243189 2.00632 0
M  V30 7804 C 731.75 -1.16512 1.56365 0
M  V30 7805 O 731.02 -1.78841 0.799553 0
M  V30 7806 H 729.6 0.0869203 0.741926 0
M  V30 7807 H 732.262 0.911438 1.72275 0
M  V30 7808 H 731.358 0.270014 3.1093 0
M  V30 7809 N 731.66 -1.50943 0.453197 0
M  V30 7810 C 732.59 -2.31005 -0.34044 0
M  V30 7811 C 733.571 -1.37112 -1.00669 0
M  V30 7812 O 734.756 -1.66033 -1.0073 0
M  V30 7813 C 731.886 -3.16358 -1.433 0
M  V30 7814 C 730.84 -4.18658 -0.889363 0
M  V30 7815 C 730.166 -4.92633 -2.07887 0
M  V30 7816 C 731.466 -5.22227 0.0871142 0
M  V30 7817 H 733.16 -2.97601 0.327723 0
M  V30 7818 H 730.706 -1.43119 0.159054 0
M  V30 7819 H 732.659 -3.71155 -1.99555 0
M  V30 7820 H 731.383 -2.47613 -2.12968 0
M  V30 7821 H 730.042 -3.64936 -0.348915 0
M  V30 7822 H 729.69 -4.20376 -2.76211 0
M  V30 7823 H 729.39 -5.61819 -1.72143 0
M  V30 7824 H 730.914 -5.50258 -2.64666 0
M  V30 7825 H 732.328 -5.72001 -0.385656 0
M  V30 7826 H 730.725 -5.99032 0.357926 0
M  V30 7827 H 731.795 -4.74077 1.01879 0
M  V30 7828 N 733.138 -0.185124 -1.56509 0
M  V30 7829 C 734.366 0.462139 -2.01673 0
M  V30 7830 C 734.781 1.55873 -1.06532 0
M  V30 7831 O 734.138 1.82371 -0.0684805 0
M  V30 7832 C 734.189 1.0277 -3.46584 0
M  V30 7833 O 733.91 -0.0251296 -4.38093 0
M  V30 7834 C 735.411 1.75183 -4.07217 0
M  V30 7835 H 732.631 0.117001 -0.660721 0
M  V30 7836 H 735.175 -0.290905 -2.0242 0
M  V30 7837 H 733.33 1.73118 -3.46568 0
M  V30 7838 H 733.744 0.394387 -5.23015 0
M  V30 7839 H 735.218 2.09999 -5.10494 0
M  V30 7840 H 735.695 2.6519 -3.50101 0
M  V30 7841 H 736.301 1.09445 -4.10977 0
M  V30 7842 N 734.616 1.57351 0.0885366 0
M  V30 7843 C 735.548 1.99221 1.13329 0
M  V30 7844 C 736.561 0.895705 1.35945 0
M  V30 7845 O 737.75 1.17376 1.34481 0
M  V30 7846 C 734.85 2.3016 2.48756 0
M  V30 7847 C 734.023 3.61444 2.46327 0
M  V30 7848 C 733.082 3.80244 3.63732 0
M  V30 7849 O 732.108 4.52024 3.45924 0
M  V30 7850 N 733.31 3.2132 4.8346 0
M  V30 7851 H 736.075 2.89456 0.776862 0
M  V30 7852 H 733.636 1.59505 0.277428 0
M  V30 7853 H 735.628 2.39925 3.25911 0
M  V30 7854 H 734.198 1.459 2.76464 0
M  V30 7855 H 733.418 3.62588 1.54673 0
M  V30 7856 H 734.706 4.47678 2.41789 0
M  V30 7857 H 734.104 2.63028 5.00832 0
M  V30 7858 H 732.661 3.3656 5.58185 0
M  V30 7859 N 736.094 -0.359525 1.53444 0
M  V30 7860 C 737.024 -1.44662 1.8329 0
M  V30 7861 C 738.005 -1.55617 0.68683 0
M  V30 7862 O 739.19 -1.70086 0.93725 0
M  V30 7863 C 736.32 -2.81923 2.02822 0
M  V30 7864 C 735.274 -2.85787 3.18606 0
M  V30 7865 C 734.6 -4.25781 3.23442 0
M  V30 7866 C 735.9 -2.52762 4.57065 0
M  V30 7867 H 737.594 -1.19934 2.74329 0
M  V30 7868 H 735.14 -0.575517 1.31999 0
M  V30 7869 H 737.093 -3.58005 2.22285 0
M  V30 7870 H 735.817 -3.08051 1.085 0
M  V30 7871 H 734.476 -2.12157 2.98973 0
M  V30 7872 H 734.124 -4.48994 2.26745 0
M  V30 7873 H 733.824 -4.29281 4.01238 0
M  V30 7874 H 735.348 -5.03727 3.45096 0
M  V30 7875 H 736.762 -3.18557 4.76649 0
M  V30 7876 H 735.159 -2.67569 5.37147 0
M  V30 7877 H 736.229 -1.47993 4.61764 0
M  V30 7878 N 737.572 -1.44907 -0.619662 0
M  V30 7879 C 738.502 -1.55488 -1.742 0
M  V30 7880 C 739.483 -0.407143 -1.65156 0
M  V30 7881 O 740.668 -0.628743 -1.8374 0
M  V30 7882 C 737.798 -1.5097 -3.1277 0
M  V30 7883 C 736.752 -2.64337 -3.36615 0
M  V30 7884 C 736.078 -2.44872 -4.75333 0
M  V30 7885 C 737.378 -4.06423 -3.28051 0
M  V30 7886 H 739.072 -2.49432 -1.65602 0
M  V30 7887 H 736.618 -1.20047 -0.795281 0
M  V30 7888 H 738.571 -1.56971 -3.91073 0
M  V30 7889 H 737.295 -0.535486 -3.2218 0
M  V30 7890 H 735.954 -2.57744 -2.60698 0
M  V30 7891 H 735.602 -1.45617 -4.81461 0
M  V30 7892 H 735.302 -3.20888 -4.92244 0
M  V30 7893 H 736.826 -2.52709 -5.55851 0
M  V30 7894 H 738.24 -4.14324 -3.96243 0
M  V30 7895 H 736.637 -4.82733 -3.56495 0
M  V30 7896 H 737.707 -4.29183 -2.25676 0
M  V30 7897 N 739.05 0.861098 -1.31996 0
M  V30 7898 C 740.461 1.43065 -1.19955 0
M  V30 7899 C 740.812 1.95273 0.190489 0
M  V30 7900 O 739.937 1.87012 1.08882 0
M  V30 7901 C 740.532 2.60052 -2.1716 0
M  V30 7902 C 739.091 3.13026 -2.09026 0
M  V30 7903 C 738.238 1.85756 -2.05888 0
M  V30 7904 H 741.189 0.668834 -1.43918 0
M  V30 7905 H 741.21 3.37016 -1.76637 0
M  V30 7906 H 740.722 2.22024 -3.18319 0
M  V30 7907 H 738.823 3.55653 -1.11092 0
M  V30 7908 H 738.936 3.74707 -2.98549 0
M  V30 7909 H 737.3 2.05088 -1.51033 0
M  V30 7910 H 738.083 1.49954 -3.08818 0
M  V30 7911 N 740.528 1.15101 1.07655 0
M  V30 7912 C 741.777 0.918528 1.79572 0
M  V30 7913 C 742.09 -0.555922 1.87534 0
M  V30 7914 O 743.296 -0.905893 2.55941 0
M  V30 7915 C 741.752 1.59394 3.22679 0
M  V30 7916 C 741.36 3.1052 3.22927 0
M  V30 7917 C 743.104 1.44289 3.99225 0
M  V30 7918 C 741.011 3.70862 4.60668 0
M  V30 7919 H 739.941 0.340006 0.672987 0
M  V30 7920 H 742.592 1.38079 1.20857 0
M  V30 7921 H 740.974 1.05936 3.81567 0
M  V30 7922 H 742.148 3.70708 2.737 0
M  V30 7923 H 740.463 3.25351 2.59876 0
M  V30 7924 H 743.06 1.86766 5.01022 0
M  V30 7925 H 743.403 0.389975 4.14469 0
M  V30 7926 H 743.936 1.94826 3.46825 0
M  V30 7927 H 740.675 4.7604 4.50628 0
M  V30 7928 H 740.195 3.15456 5.10145 0
M  V30 7929 H 741.874 3.71607 5.29639 0
M  V30 7930 N 742.006 -1.2595 0.947325 0
M  V30 7931 C 743.255 -1.92759 0.593887 0
M  V30 7932 C 743.568 -1.75083 -0.872093 0
M  V30 7933 O 744.774 -2.36401 -1.33518 0
M  V30 7934 C 743.23 -3.45395 1.01144 0
M  V30 7935 C 742.838 -3.71795 2.49946 0
M  V30 7936 C 744.582 -4.18173 0.730185 0
M  V30 7937 C 742.489 -5.17901 2.85539 0
M  V30 7938 H 741.419 -0.721676 0.218403 0
M  V30 7939 H 744.07 -1.4293 1.15079 0
M  V30 7940 H 742.452 -3.94143 0.383007 0
M  V30 7941 H 743.626 -3.33728 3.17746 0
M  V30 7942 H 741.941 -3.12263 2.75465 0
M  V30 7943 H 744.538 -5.25784 0.972367 0
M  V30 7944 H 744.881 -4.14964 -0.333223 0
M  V30 7945 H 745.414 -3.75309 1.31862 0
M  V30 7946 H 742.153 -5.26216 3.90867 0
M  V30 7947 H 741.673 -5.57042 2.22406 0
M  V30 7948 H 743.352 -5.8596 2.74336 0
M  V30 7949 N 743.484 -0.715051 -1.40445 0
M  V30 7950 C 744.416 -0.0227516 -2.29189 0
M  V30 7951 C 745.429 0.724313 -1.458 0
M  V30 7952 O 746.618 0.571781 -1.69094 0
M  V30 7953 C 743.718 0.992038 -3.24055 0
M  V30 7954 C 742.891 0.310613 -4.36296 0
M  V30 7955 C 741.95 1.23071 -5.11605 0
M  V30 7956 O 740.976 0.71571 -5.64682 0
M  V30 7957 N 742.178 2.56188 -5.2091 0
M  V30 7958 H 744.943 -0.78473 -2.89244 0
M  V30 7959 H 742.504 -0.562637 -1.51809 0
M  V30 7960 H 744.496 1.60973 -3.71308 0
M  V30 7961 H 743.066 1.65538 -2.65171 0
M  V30 7962 H 742.286 -0.487269 -3.91177 0
M  V30 7963 H 743.574 -0.162415 -5.08541 0
M  V30 7964 H 742.972 3.00527 -4.7927 0
M  V30 7965 H 741.529 3.13103 -5.71673 0
M  V30 7966 N 744.962 1.50701 -0.461195 0
M  V30 7967 C 745.872 2.32069 0.343661 0
M  V30 7968 C 746.888 1.42016 1.00535 0
M  V30 7969 O 748.064 1.75077 0.995498 0
M  V30 7970 C 745.129 3.16424 1.41692 0
M  V30 7971 C 744.19 4.22286 0.772869 0
M  V30 7972 C 743.423 5.02609 1.79499 0
M  V30 7973 O 743.646 4.83874 3.0203 0
M  V30 7974 O 742.58 5.86047 1.3723 0
M  V30 7975 H 746.406 3.01996 -0.321268 0
M  V30 7976 H 743.991 1.47723 -0.223235 0
M  V30 7977 H 745.873 3.68795 2.03883 0
M  V30 7978 H 744.548 2.49236 2.0655 0
M  V30 7979 H 743.455 3.73931 0.112277 0
M  V30 7980 H 744.788 4.91915 0.167399 0
M  V30 7981 N 746.441 0.193421 1.56409 0
M  V30 7982 C 747.669 -0.451438 2.01915 0
M  V30 7983 C 748.084 -1.55306 1.07357 0
M  V30 7984 O 747.441 -1.82333 0.0781512 0
M  V30 7985 C 747.492 -1.00931 3.47124 0
M  V30 7986 O 747.213 0.0483623 4.38073 0
M  V30 7987 C 748.714 -1.73021 4.0814 0
M  V30 7988 H 745.934 -0.113495 0.661332 0
M  V30 7989 H 748.478 0.301636 2.02263 0
M  V30 7990 H 746.633 -1.71277 3.47481 0
M  V30 7991 H 747.047 -0.366644 5.23217 0
M  V30 7992 H 748.521 -2.07289 5.11601 0
M  V30 7993 H 748.998 -2.6333 3.51502 0
M  V30 7994 H 749.604 -1.07264 4.11551 0
M  V30 7995 N 747.919 -1.57396 -0.0801906 0
M  V30 7996 C 749.196 -1.77883 -0.813451 0
M  V30 7997 C 749.576 -0.778879 -1.96206 0
M  V30 7998 O 748.924 0.189683 -2.27711 0
M  V30 7999 C 749.134 -3.24116 -1.2942 0
M  V30 8000 C 750.482 -3.87714 -1.73098 0
M  V30 8001 O 751.506 -3.27956 -1.39007 0
M  V30 8002 O 750.365 -4.92828 -2.36184 0
M  V30 8003 H 747.459 -0.729727 -0.389138 0
M  V30 8004 H 750.005 -1.69591 -0.0609166 0
M  V30 8005 H 748.777 -3.88443 -0.471947 0
M  V30 8006 H 748.4 -3.371 -2.1083 0
M  V30 8007 N 749.397 0.351382 -1.53633 0
M  V30 8008 C 750.627 1.11113 -1.74176 0
M  V30 8009 C 751.035 1.83084 -0.477154 0
M  V30 8010 O 750.378 1.74941 0.560483 0
M  V30 8011 C 750.44 2.17521 -2.86225 0
M  V30 8012 C 750.104 1.65193 -4.26099 0
M  V30 8013 C 751.101 1.10842 -5.07947 0
M  V30 8014 C 748.786 1.70277 -4.72558 0
M  V30 8015 C 750.78 0.622689 -6.34351 0
M  V30 8016 C 748.467 1.21316 -5.98937 0
M  V30 8017 C 749.465 0.674033 -6.79666 0
M  V30 8018 O 749.153 0.191696 -8.03671 0
M  V30 8019 H 748.885 0.33756 -0.585687 0
M  V30 8020 H 751.439 0.411786 -2.0123 0
M  V30 8021 H 749.669 2.90991 -2.54678 0
M  V30 8022 H 751.358 2.78999 -2.94812 0
M  V30 8023 H 752.124 1.06243 -4.7322 0
M  V30 8024 H 748.003 2.11181 -4.09785 0
M  V30 8025 H 751.547 0.201216 -6.9731 0
M  V30 8026 H 747.444 1.25613 -6.3316 0
M  V30 8027 H 748.212 0.309712 -8.17914 0
M  V30 8028 N 750.875 1.45233 0.611969 0
M  V30 8029 C 751.822 1.5357 1.72293 0
M  V30 8030 C 752.792 0.381912 1.6165 0
M  V30 8031 O 753.977 0.594765 1.81293 0
M  V30 8032 C 751.117 1.50419 3.10593 0
M  V30 8033 C 750.23 2.76316 3.32074 0
M  V30 8034 C 749.365 2.64866 4.60456 0
M  V30 8035 C 748.404 3.85838 4.7518 0
M  V30 8036 N 747.541 3.72949 5.94856 0
M  V30 8037 H 752.381 2.4848 1.64504 0
M  V30 8038 H 749.918 1.23302 0.802191 0
M  V30 8039 H 751.876 1.4658 3.90602 0
M  V30 8040 H 750.506 0.590621 3.17351 0
M  V30 8041 H 749.558 2.90261 2.45872 0
M  V30 8042 H 750.87 3.66055 3.38829 0
M  V30 8043 H 750.024 2.58969 5.48653 0
M  V30 8044 H 748.763 1.72719 4.56092 0
M  V30 8045 H 747.768 3.92099 3.85407 0
M  V30 8046 H 748.993 4.79045 4.81344 0
M  V30 8047 H 746.939 2.83567 5.91545 0
M  V30 8048 H 746.856 4.56319 6.02751 0
M  V30 8049 H 748.124 3.70976 6.85563 0
M  V30 8050 N 752.353 -0.854086 1.3245 0
M  V30 8051 C 753.602 -1.60318 1.22397 0
M  V30 8052 C 753.915 -1.9444 -0.212664 0
M  V30 8053 O 755.121 -2.67991 -0.435066 0
M  V30 8054 C 753.577 -2.8909 2.1437 0
M  V30 8055 C 753.185 -2.62391 3.63119 0
M  V30 8056 C 754.929 -3.67104 2.13155 0
M  V30 8057 C 752.836 -3.87167 4.47052 0
M  V30 8058 H 751.766 -0.601586 0.454544 0
M  V30 8059 H 754.417 -0.943023 1.57415 0
M  V30 8060 H 752.799 -3.56567 1.72268 0
M  V30 8061 H 753.973 -2.03222 4.13567 0
M  V30 8062 H 752.288 -1.97706 3.66471 0
M  V30 8063 H 754.885 -4.59696 2.731 0
M  V30 8064 H 755.228 -4.00876 1.12268 0
M  V30 8065 H 755.761 -3.06533 2.5354 0
M  V30 8066 H 752.5 -3.58536 5.48755 0
M  V30 8067 H 752.02 -4.45729 4.01355 0
M  V30 8068 H 753.699 -4.549 4.60081 0
M  V30 8069 N 753.831 -1.1567 -1.07043 0
M  V30 8070 C 755.056 -0.957946 -1.83952 0
M  V30 8071 C 755.481 0.488807 -1.81638 0
M  V30 8072 O 754.839 1.34869 -1.21162 0
M  V30 8073 C 754.887 -1.48064 -3.288 0
M  V30 8074 O 753.991 -0.681921 -4.06723 0
M  V30 8075 H 753.332 -0.341453 -0.569479 0
M  V30 8076 H 755.862 -1.53728 -1.35015 0
M  V30 8077 H 755.872 -1.49484 -3.7963 0
M  V30 8078 H 754.547 -2.53388 -3.29799 0
M  V30 8079 H 753.124 -0.737612 -3.65532 0
M  V30 8080 N 755.309 1.25446 -0.953992 0
M  V30 8081 C 756.257 2.27909 -0.46478 0
M  V30 8082 C 757.251 1.62904 0.464607 0
M  V30 8083 O 758.457 1.76733 0.341407 0
M  V30 8084 H 754.832 0.74036 -0.131798 0
M  V30 8085 H 756.803 2.66559 -1.34122 0
M  V30 8086 C 755.552 3.46853 0.242589 0
M  V30 8087 H 754.875 3.97105 -0.463418 0
M  V30 8088 H 756.315 4.20432 0.548919 0
M  V30 8089 C 754.774 3.03386 1.46487 0
M  V30 8090 O 755.304 3.09342 2.56262 0
M  V30 8091 N 753.51 2.58584 1.32599 0
M  V30 8092 H 753.057 2.53938 0.432834 0
M  V30 8093 H 753.015 2.29866 2.14497 0
M  V30 8094 N 756.787 0.722489 1.40064 0
M  V30 8095 C 757.719 0.0349057 2.29173 0
M  V30 8096 C 758.732 -0.716571 1.46182 0
M  V30 8097 O 759.921 -0.562806 1.69395 0
M  V30 8098 C 757.021 -0.974839 3.24577 0
M  V30 8099 C 756.194 -0.287471 4.36454 0
M  V30 8100 C 755.253 -1.20356 5.12251 0
M  V30 8101 O 754.279 -0.685753 5.65054 0
M  V30 8102 N 755.481 -2.53422 5.22262 0
M  V30 8103 H 758.246 0.800058 2.88824 0
M  V30 8104 H 755.807 0.57068 1.51509 0
M  V30 8105 H 757.799 -1.59002 3.72157 0
M  V30 8106 H 756.369 -1.6413 2.66046 0
M  V30 8107 H 755.589 0.508008 3.90913 0
M  V30 8108 H 756.877 0.189382 5.08447 0
M  V30 8109 H 756.275 -2.97981 4.80857 0
M  V30 8110 H 754.832 -3.10067 5.73325 0
M  V30 8111 N 758.265 -1.50454 0.469181 0
M  V30 8112 C 759.175 -2.32248 -0.331349 0
M  V30 8113 C 760.191 -1.42548 -0.997807 0
M  V30 8114 O 761.367 -1.75602 -0.9862 0
M  V30 8115 C 758.432 -3.17171 -1.40012 0
M  V30 8116 C 757.493 -4.2269 -0.750463 0
M  V30 8117 C 756.726 -5.03554 -1.76831 0
M  V30 8118 O 756.949 -4.85469 -2.99459 0
M  V30 8119 O 755.883 -5.86767 -1.3412 0
M  V30 8120 H 759.709 -3.01821 0.337279 0
M  V30 8121 H 757.294 -1.47602 0.231066 0
M  V30 8122 H 759.176 -3.69871 -2.01924 0
M  V30 8123 H 757.851 -2.50328 -2.05226 0
M  V30 8124 H 756.758 -3.73986 -0.0924446 0
M  V30 8125 H 758.091 -4.91997 -0.14131 0
M  V30 8126 N 759.743 -0.201713 -1.56304 0
M  V30 8127 C 760.673 0.71155 -2.22394 0
M  V30 8128 C 761.654 1.21625 -1.18917 0
M  V30 8129 O 762.839 1.26388 -1.47444 0
M  V30 8130 C 759.969 1.92837 -2.88845 0
M  V30 8131 C 758.923 1.55831 -3.98623 0
M  V30 8132 C 758.249 2.85228 -4.52271 0
M  V30 8133 C 759.549 0.763249 -5.16693 0
M  V30 8134 H 761.243 0.160573 -2.98969 0
M  V30 8135 H 758.789 0.0757916 -1.438 0
M  V30 8136 H 760.742 2.57253 -3.33764 0
M  V30 8137 H 759.466 2.50398 -2.09686 0
M  V30 8138 H 758.125 0.9377 -3.54405 0
M  V30 8139 H 757.773 3.40893 -3.69866 0
M  V30 8140 H 757.473 2.6121 -5.26349 0
M  V30 8141 H 758.997 3.50622 -4.99897 0
M  V30 8142 H 760.411 1.31066 -5.58117 0
M  V30 8143 H 758.808 0.620935 -5.96879 0
M  V30 8144 H 759.878 -0.234322 -4.84334 0
M  V30 8145 N 761.222 1.57436 0.0718424 0
M  V30 8146 C 762.499 1.78312 0.804006 0
M  V30 8147 C 762.879 0.789273 1.9579 0
M  V30 8148 O 762.227 -0.177605 2.27809 0
M  V30 8149 C 762.437 3.24798 1.277 0
M  V30 8150 C 763.785 3.88627 1.71039 0
M  V30 8151 O 764.809 3.28689 1.37266 0
M  V30 8152 O 763.668 4.94073 2.33567 0
M  V30 8153 H 760.762 0.73178 0.385262 0
M  V30 8154 H 763.308 1.69621 0.0519219 0
M  V30 8155 H 762.08 3.88688 0.45134 0
M  V30 8156 H 761.703 3.38213 2.0904 0
M  V30 8157 N 762.7 -0.34323 1.53817 0
M  V30 8158 C 763.633 -1.44472 1.76644 0
M  V30 8159 C 764.611 -1.50498 0.615556 0
M  V30 8160 O 765.795 -1.6821 0.850751 0
M  V30 8161 C 762.922 -2.82705 1.86536 0
M  V30 8162 C 761.968 -2.94302 3.08688 0
M  V30 8163 S 762.801 -2.60739 4.67735 0
M  V30 8164 C 763.957 -4.01079 4.80506 0
M  V30 8165 H 764.19 -1.24893 2.69794 0
M  V30 8166 H 761.723 -0.538915 1.4469 0
M  V30 8167 H 763.681 -3.62342 1.92921 0
M  V30 8168 H 762.342 -2.9958 0.943975 0
M  V30 8169 H 761.535 -3.95593 3.12286 0
M  V30 8170 H 761.137 -2.22614 3.00531 0
M  V30 8171 H 763.429 -4.95603 4.61935 0
M  V30 8172 H 764.372 -4.02475 5.82597 0
M  V30 8173 H 764.78 -3.89119 4.08958 0
M  V30 8174 N 764.178 -1.45556 -0.604258 0
M  V30 8175 C 765.424 -1.49968 -1.36519 0
M  V30 8176 C 765.757 -0.142236 -1.93678 0
M  V30 8177 O 765.032 0.843717 -1.75247 0
M  V30 8178 C 765.315 -2.58146 -2.51063 0
M  V30 8179 C 765.168 -4.03346 -1.99078 0
M  V30 8180 C 766.487 -2.62581 -3.53184 0
M  V30 8181 H 763.606 -0.545993 -0.495036 0
M  V30 8182 H 766.248 -1.77382 -0.680845 0
M  V30 8183 H 764.398 -2.34901 -3.09441 0
M  V30 8184 H 766.07 -4.37811 -1.45323 0
M  V30 8185 H 764.313 -4.13845 -1.30055 0
M  V30 8186 H 764.984 -4.74731 -2.81664 0
M  V30 8187 H 767.46 -2.83419 -3.04652 0
M  V30 8188 H 766.336 -3.40131 -4.30816 0
M  V30 8189 H 766.597 -1.67798 -4.09019 0
M  V30 8190 N 765.656 0.84705 -1.32902 0
M  V30 8191 C 766.886 1.63166 -1.26729 0
M  V30 8192 C 767.294 1.88474 0.165595 0
M  V30 8193 O 766.637 1.45947 1.11558 0
M  V30 8194 C 766.699 3.0103 -1.96522 0
M  V30 8195 C 766.363 2.9873 -3.45846 0
M  V30 8196 C 767.36 2.75032 -4.41196 0
M  V30 8197 C 765.045 3.19125 -3.87898 0
M  V30 8198 C 767.039 2.71743 -5.76571 0
M  V30 8199 C 764.726 3.15462 -5.2338 0
M  V30 8200 C 765.724 2.91801 -6.17528 0
M  V30 8201 O 765.412 2.88027 -7.5053 0
M  V30 8202 H 765.144 0.51469 -0.438258 0
M  V30 8203 H 767.698 1.06383 -1.75704 0
M  V30 8204 H 765.928 3.59634 -1.42128 0
M  V30 8205 H 767.617 3.61821 -1.83958 0
M  V30 8206 H 768.383 2.59034 -4.10032 0
M  V30 8207 H 764.262 3.36565 -3.15032 0
M  V30 8208 H 767.806 2.53194 -6.5003 0
M  V30 8209 H 763.703 3.31006 -5.54171 0
M  V30 8210 H 764.471 3.03927 -7.59981 0
M  V30 8211 N 767.134 1.16236 1.06428 0
M  V30 8212 C 768.081 0.86769 2.13869 0
M  V30 8213 C 769.051 -0.183298 1.65086 0
M  V30 8214 O 770.236 -0.0488002 1.90738 0
M  V30 8215 C 767.376 0.373427 3.43074 0
M  V30 8216 C 766.489 1.48708 4.05598 0
M  V30 8217 C 765.624 0.947977 5.22673 0
M  V30 8218 C 764.663 2.03793 5.77178 0
M  V30 8219 N 763.8 1.51451 6.85571 0
M  V30 8220 H 768.64 1.78781 2.38414 0
M  V30 8221 H 766.177 0.891892 1.16977 0
M  V30 8222 H 768.135 0.0685035 4.17144 0
M  V30 8223 H 766.765 -0.509752 3.1875 0
M  V30 8224 H 765.817 1.908 3.29089 0
M  V30 8225 H 767.129 2.30964 4.42105 0
M  V30 8226 H 766.283 0.596154 6.03764 0
M  V30 8227 H 765.022 0.0947081 4.87608 0
M  V30 8228 H 764.027 2.39847 4.94726 0
M  V30 8229 H 765.252 2.89514 6.14295 0
M  V30 8230 H 763.198 0.683755 6.52427 0
M  V30 8231 H 763.115 2.27325 7.21013 0
M  V30 8232 H 764.383 1.19123 7.70344 0
M  V30 8233 N 768.612 -1.24939 0.960631 0
M  V30 8234 C 769.858 -1.93425 0.629155 0
M  V30 8235 C 770.213 -1.73784 -0.825635 0
M  V30 8236 O 769.506 -1.07595 -1.58536 0
M  V30 8237 C 769.7 -3.45066 0.930809 0
M  V30 8238 C 769.529 -3.79455 2.41337 0
M  V30 8239 C 768.299 -4.01195 3.07197 0
M  V30 8240 C 770.497 -3.86492 3.39306 0
M  V30 8241 N 768.479 -4.22626 4.45265 0
M  V30 8242 C 769.85 -4.12682 4.62702 0
M  V30 8243 C 771.905 -3.69198 3.34061 0
M  V30 8244 C 770.608 -4.23376 5.81502 0
M  V30 8245 C 772.634 -3.81135 4.52206 0
M  V30 8246 C 771.996 -4.07743 5.74391 0
M  V30 8247 H 768.095 -0.729791 0.280943 0
M  V30 8248 H 770.679 -1.50597 1.23404 0
M  V30 8249 H 768.85 -3.86776 0.354801 0
M  V30 8250 H 770.582 -4.00826 0.558627 0
M  V30 8251 H 767.337 -3.97319 2.5775 0
M  V30 8252 H 767.761 -4.37335 5.16785 0
M  V30 8253 H 772.403 -3.47639 2.40638 0
M  V30 8254 H 770.121 -4.4375 6.75361 0
M  V30 8255 H 773.707 -3.69133 4.49702 0
M  V30 8256 H 772.587 -4.16768 6.64284 0
M  V30 8257 N 770.09 -0.729906 -1.39679 0
M  V30 8258 C 771.339 -0.272534 -1.9985 0
M  V30 8259 C 771.652 1.14519 -1.58571 0
M  V30 8260 O 772.858 1.70182 -2.11543 0
M  V30 8261 C 771.314 -0.436322 -3.57245 0
M  V30 8262 C 770.922 -1.86161 -4.0749 0
M  V30 8263 C 772.666 -0.0404679 -4.24481 0
M  V30 8264 C 770.573 -1.97522 -5.5744 0
M  V30 8265 H 769.503 -0.0981428 -0.747585 0
M  V30 8266 H 772.154 -0.903056 -1.59741 0
M  V30 8267 H 770.536 0.263015 -3.95126 0
M  V30 8268 H 771.71 -2.59248 -3.80955 0
M  V30 8269 H 770.025 -2.21021 -3.529 0
M  V30 8270 H 772.622 -0.104437 -5.34598 0
M  V30 8271 H 772.965 1.00357 -4.04023 0
M  V30 8272 H 773.498 -0.690774 -3.91757 0
M  V30 8273 H 770.237 -3.00096 -5.82771 0
M  V30 8274 H 769.757 -1.28864 -5.85794 0
M  V30 8275 H 771.436 -1.754 -6.22771 0
M  V30 8276 N 771.568 1.50203 -0.477153 0
M  V30 8277 C 772.516 2.30278 0.327826 0
M  V30 8278 C 773.51 1.37831 0.984839 0
M  V30 8279 O 774.716 1.54994 0.915251 0
M  V30 8280 H 771.091 0.741612 0.124564 0
M  V30 8281 H 773.062 2.96124 -0.367853 0
M  V30 8282 C 771.811 3.18548 1.39365 0
M  V30 8283 H 771.134 3.89596 0.897475 0
M  V30 8284 H 772.574 3.77561 1.92934 0
M  V30 8285 C 771.033 2.36548 2.39889 0
M  V30 8286 O 771.563 2.05282 3.45286 0
M  V30 8287 N 769.769 1.99015 2.11758 0
M  V30 8288 H 769.316 2.24641 1.26071 0
M  V30 8289 H 769.274 1.44454 2.7925 0
M  V30 8290 N 773.046 0.209999 1.56195 0
M  V30 8291 C 773.978 -0.736967 2.17029 0
M  V30 8292 C 774.991 -1.16599 1.13616 0
M  V30 8293 O 776.18 -1.09914 1.40646 0
M  V30 8294 C 773.28 -2.00852 2.72969 0
M  V30 8295 C 772.453 -1.73691 4.01435 0
M  V30 8296 C 771.512 -2.85439 4.42053 0
M  V30 8297 O 770.538 -2.54405 5.09183 0
M  V30 8298 N 771.74 -4.14135 4.06783 0
M  V30 8299 H 774.505 -0.216656 2.98916 0
M  V30 8300 H 772.066 0.0285672 1.61875 0
M  V30 8301 H 774.058 -2.74778 2.97118 0
M  V30 8302 H 772.628 -2.43963 1.95451 0
M  V30 8303 H 771.848 -0.834676 3.85262 0
M  V30 8304 H 773.136 -1.52961 4.85263 0
M  V30 8305 H 772.534 -4.42196 3.52816 0
M  V30 8306 H 771.091 -4.84642 4.35851 0
M  V30 8307 N 774.524 -1.57472 -0.0634922 0
M  V30 8308 C 775.749 -1.92273 -0.77756 0
M  V30 8309 C 776.174 -0.807141 -1.69902 0
M  V30 8310 O 775.532 0.239523 -1.79711 0
M  V30 8311 C 775.58 -3.26054 -1.54017 0
M  V30 8312 O 774.684 -3.15873 -2.65138 0
M  V30 8313 H 774.025 -0.629389 -0.211579 0
M  V30 8314 H 776.555 -2.04579 -0.0292523 0
M  V30 8315 H 776.565 -3.60127 -1.91763 0
M  V30 8316 H 775.24 -4.06824 -0.864128 0
M  V30 8317 H 773.817 -2.93373 -2.30189 0
M  V30 8318 N 776.003 0.335068 -1.53997 0
M  V30 8319 C 777.25 1.07435 -1.71651 0
M  V30 8320 C 777.578 1.88378 -0.48413 0
M  V30 8321 O 776.833 1.8827 0.534139 0
M  V30 8322 C 777.132 2.0364 -2.9371 0
M  V30 8323 C 776.798 1.38942 -4.28959 0
M  V30 8324 C 775.46 1.21027 -4.65732 0
M  V30 8325 C 777.812 0.924083 -5.12943 0
M  V30 8326 C 775.14 0.552097 -5.84097 0
M  V30 8327 C 777.492 0.27978 -6.31981 0
M  V30 8328 C 776.156 0.0883843 -6.67441 0
M  V30 8329 H 775.426 0.393133 -0.628114 0
M  V30 8330 H 778.073 0.352712 -1.88224 0
M  V30 8331 H 776.378 2.82215 -2.71775 0
M  V30 8332 H 778.075 2.6085 -3.04562 0
M  V30 8333 H 774.665 1.53885 -4.00022 0
M  V30 8334 H 778.849 1.05032 -4.85059 0
M  V30 8335 H 774.105 0.392502 -6.10139 0
M  V30 8336 H 778.279 -0.0888479 -6.96343 0
M  V30 8337 H 775.906 -0.423657 -7.59019 0
M  V30 8338 N 777.481 1.45874 0.596531 0
M  V30 8339 C 778.411 1.5824 1.71705 0
M  V30 8340 C 779.392 0.433366 1.64487 0
M  V30 8341 O 780.577 0.657895 1.82717 0
M  V30 8342 C 777.707 1.55927 3.10329 0
M  V30 8343 C 776.661 2.69659 3.32367 0
M  V30 8344 C 775.987 2.52403 4.71377 0
M  V30 8345 C 777.287 4.11591 3.21544 0
M  V30 8346 H 778.981 2.52035 1.61613 0
M  V30 8347 H 776.527 1.21297 0.776082 0
M  V30 8348 H 778.48 1.63173 3.88526 0
M  V30 8349 H 777.204 0.586674 3.21288 0
M  V30 8350 H 775.863 2.61859 2.56564 0
M  V30 8351 H 775.511 1.53258 4.79083 0
M  V30 8352 H 775.211 3.28679 4.87077 0
M  V30 8353 H 776.735 2.6152 5.5176 0
M  V30 8354 H 778.149 4.20576 3.89601 0
M  V30 8355 H 776.546 4.88344 3.4877 0
M  V30 8356 H 777.616 4.32719 2.1882 0
M  V30 8357 N 778.959 -0.83999 1.33349 0
M  V30 8358 C 780.37 -1.41139 1.22216 0
M  V30 8359 C 780.721 -1.95551 -0.159398 0
M  V30 8360 O 779.846 -1.88721 -1.05893 0
M  V30 8361 C 780.441 -2.56564 2.21269 0
M  V30 8362 C 779 -3.09661 2.13979 0
M  V30 8363 C 778.147 -1.82457 2.08818 0
M  V30 8364 H 781.098 -0.645853 1.44964 0
M  V30 8365 H 781.119 -3.34163 1.81976 0
M  V30 8366 H 780.631 -2.16932 3.21811 0
M  V30 8367 H 778.732 -3.53841 1.16736 0
M  V30 8368 H 778.845 -3.6991 3.04472 0
M  V30 8369 H 777.209 -2.0266 1.54276 0
M  V30 8370 H 777.992 -1.45022 3.11165 0
M  V30 8371 N 780.437 -1.16799 -1.0581 0
M  V30 8372 C 781.367 -0.902241 -2.15364 0
M  V30 8373 C 782.348 0.153351 -1.69407 0
M  V30 8374 O 783.533 0.00442032 -1.94199 0
M  V30 8375 C 780.663 -0.407911 -3.44896 0
M  V30 8376 C 779.617 -1.40197 -4.04387 0
M  V30 8377 C 778.943 -0.765848 -5.29187 0
M  V30 8378 C 780.243 -2.77316 -4.42598 0
M  V30 8379 H 781.937 -1.81841 -2.37853 0
M  V30 8380 H 779.483 -0.875731 -1.14311 0
M  V30 8381 H 781.436 -0.20945 -4.20879 0
M  V30 8382 H 780.16 0.54378 -3.22041 0
M  V30 8383 H 778.819 -1.58707 -3.30466 0
M  V30 8384 H 778.467 0.192482 -5.02632 0
M  V30 8385 H 778.167 -1.42939 -5.69949 0
M  V30 8386 H 779.691 -0.577519 -6.07863 0
M  V30 8387 H 781.105 -2.62561 -5.09642 0
M  V30 8388 H 779.502 -3.4019 -4.94359 0
M  V30 8389 H 780.572 -3.32199 -3.53231 0
M  V30 8390 N 781.915 1.24427 -0.967243 0
M  V30 8391 C 783.164 1.91789 -0.624478 0
M  V30 8392 C 783.477 1.76448 0.844129 0
M  V30 8393 O 784.683 2.38495 1.2974 0
M  V30 8394 C 783.139 3.43743 -1.06626 0
M  V30 8395 C 782.747 3.67771 -2.55829 0
M  V30 8396 C 784.491 4.16958 -0.79662 0
M  V30 8397 C 782.398 5.13293 -2.93742 0
M  V30 8398 H 781.328 0.71811 -0.229856 0
M  V30 8399 H 783.979 1.41081 -1.17339 0
M  V30 8400 H 782.361 3.93484 -0.445663 0
M  V30 8401 H 783.535 3.28631 -3.23015 0
M  V30 8402 H 781.85 3.07841 -2.80398 0
M  V30 8403 H 784.447 5.24171 -1.05589 0
M  V30 8404 H 784.79 4.15442 0.267163 0
M  V30 8405 H 785.323 3.73164 -1.37816 0
M  V30 8406 H 782.062 5.19931 -3.9919 0
M  V30 8407 H 781.582 5.53433 -2.3124 0
M  V30 8408 H 783.261 5.81521 -2.83623 0
M  V30 8409 N 783.393 0.737304 1.3929 0
M  V30 8410 C 784.639 0.286681 2.00763 0
M  V30 8411 C 784.972 -1.12388 1.58375 0
M  V30 8412 O 784.247 -1.76661 0.813699 0
M  V30 8413 C 784.53 0.391147 3.57969 0
M  V30 8414 C 784.383 1.84165 4.1037 0
M  V30 8415 C 785.702 -0.225072 4.39524 0
M  V30 8416 H 782.821 0.105642 0.729389 0
M  V30 8417 H 785.463 0.933892 1.65464 0
M  V30 8418 H 783.613 -0.159875 3.88171 0
M  V30 8419 H 785.285 2.44972 3.90879 0
M  V30 8420 H 783.528 2.3622 3.63844 0
M  V30 8421 H 784.199 1.866 5.19504 0
M  V30 8422 H 786.675 0.244677 4.1538 0
M  V30 8423 H 785.551 -0.121646 5.48765 0
M  V30 8424 H 785.812 -1.31141 4.22202 0
M  V30 8425 N 784.871 -1.49948 0.485112 0
M  V30 8426 C 785.818 -2.28819 -0.301729 0
M  V30 8427 C 786.788 -1.34496 -0.974683 0
M  V30 8428 O 787.973 -1.63444 -0.984418 0
M  V30 8429 C 785.113 -3.16758 -1.36961 0
M  V30 8430 C 784.226 -4.26125 -0.710027 0
M  V30 8431 C 783.361 -5.01302 -1.75699 0
M  V30 8432 C 782.4 -6.02525 -1.07841 0
M  V30 8433 N 781.537 -6.70927 -2.06886 0
M  V30 8434 H 786.377 -2.95604 0.377127 0
M  V30 8435 H 783.914 -1.45764 0.197826 0
M  V30 8436 H 785.872 -3.66106 -2.00056 0
M  V30 8437 H 784.502 -2.51991 -2.01744 0
M  V30 8438 H 783.554 -3.80385 0.0338278 0
M  V30 8439 H 784.866 -4.98493 -0.175079 0
M  V30 8440 H 784.02 -5.54438 -2.46339 0
M  V30 8441 H 782.759 -4.28672 -2.32577 0
M  V30 8442 H 781.764 -5.48635 -0.357706 0
M  V30 8443 H 782.989 -6.77134 -0.516345 0
M  V30 8444 H 780.935 -6.01079 -2.62755 0
M  V30 8445 H 780.852 -7.39216 -1.58414 0
M  V30 8446 H 782.12 -7.28675 -2.76863 0
M  V30 8447 N 786.349 -0.21828 -1.56081 0
M  V30 8448 C 787.597 0.413488 -1.97825 0
M  V30 8449 C 787.918 1.60527 -1.10707 0
M  V30 8450 O 787.188 1.9504 -0.183378 0
M  V30 8451 H 785.768 0.155757 -0.730581 0
M  V30 8452 H 788.43 -0.310413 -1.92412 0
M  V30 8453 H 787.526 0.742024 -3.03151 0
M  V30 8454 N 787.827 1.57504 0.0551401 0
M  V30 8455 C 788.737 2.08198 1.08124 0
M  V30 8456 C 789.753 1.01496 1.41331 0
M  V30 8457 O 790.929 1.33073 1.51174 0
M  V30 8458 C 787.994 2.52968 2.37083 0
M  V30 8459 C 787.055 3.7404 2.10696 0
M  V30 8460 C 786.288 4.16665 3.33505 0
M  V30 8461 O 786.511 3.59019 4.4324 0
M  V30 8462 O 785.445 5.09324 3.20737 0
M  V30 8463 H 789.271 2.95977 0.680518 0
M  V30 8464 H 786.856 1.46933 0.270401 0
M  V30 8465 H 788.738 2.82211 3.12946 0
M  V30 8466 H 787.413 1.6831 2.76502 0
M  V30 8467 H 786.32 3.49855 1.32484 0
M  V30 8468 H 787.653 4.59601 1.76148 0
M  V30 8469 N 789.305 -0.326896 1.54172 0
M  V30 8470 C 790.235 -1.40741 1.86317 0
M  V30 8471 C 791.216 -1.54125 0.719684 0
M  V30 8472 O 792.401 -1.6806 0.973117 0
M  V30 8473 C 789.531 -2.77557 2.08757 0
M  V30 8474 C 788.485 -2.78965 3.24596 0
M  V30 8475 C 787.811 -4.18824 3.32401 0
M  V30 8476 C 789.111 -2.4301 4.62324 0
M  V30 8477 H 790.805 -1.14088 2.76811 0
M  V30 8478 H 788.351 -0.547389 1.3319 0
M  V30 8479 H 790.304 -3.53209 2.29829 0
M  V30 8480 H 789.028 -3.0568 1.15009 0
M  V30 8481 H 787.687 -2.05767 3.03406 0
M  V30 8482 H 787.335 -4.44083 2.36218 0
M  V30 8483 H 787.035 -4.20673 4.10253 0
M  V30 8484 H 788.559 -4.96294 3.55703 0
M  V30 8485 H 789.973 -3.08375 4.83299 0
M  V30 8486 H 788.37 -2.56116 5.42701 0
M  V30 8487 H 789.44 -1.38165 4.64799 0
M  V30 8488 N 790.784 -1.46188 -0.588786 0
M  V30 8489 C 791.717 -1.508 -1.71274 0
M  V30 8490 C 792.695 -0.362635 -1.58505 0
M  V30 8491 O 793.879 -0.565899 -1.79805 0
M  V30 8492 C 791.006 -1.38082 -3.09275 0
M  V30 8493 C 790.052 -2.56723 -3.40581 0
M  V30 8494 S 790.885 -4.1911 -3.33327 0
M  V30 8495 C 792.041 -4.08891 -4.73877 0
M  V30 8496 H 792.274 -2.45895 -1.67102 0
M  V30 8497 H 789.807 -1.34 -0.767025 0
M  V30 8498 H 791.765 -1.31432 -3.88891 0
M  V30 8499 H 790.426 -0.444259 -3.10942 0
M  V30 8500 H 789.619 -2.43801 -4.41109 0
M  V30 8501 H 789.221 -2.60332 -2.68521 0
M  V30 8502 H 791.513 -3.75196 -5.64123 0
M  V30 8503 H 792.456 -5.09395 -4.91856 0
M  V30 8504 H 792.864 -3.40239 -4.50441 0
M  V30 8505 N 792.262 0.832906 -1.33792 0
M  V30 8506 C 793.539 1.57359 -1.16178 0
M  V30 8507 C 793.919 2.09372 0.269532 0
M  V30 8508 O 793.267 1.89993 1.26944 0
M  V30 8509 C 793.477 2.70279 -2.20795 0
M  V30 8510 C 794.825 3.39305 -2.55259 0
M  V30 8511 O 795.849 2.80526 -2.19508 0
M  V30 8512 O 794.708 4.45428 -3.16632 0
M  V30 8513 H 791.802 0.694025 -0.449731 0
M  V30 8514 H 794.348 0.875144 -1.45394 0
M  V30 8515 H 793.12 2.29527 -3.16911 0
M  V30 8516 H 792.743 3.47782 -1.927 0
M  V30 8517 N 793.74 1.17359 1.05189 0
M  V30 8518 C 794.673 0.833768 2.12423 0
M  V30 8519 C 795.651 -0.19945 1.61372 0
M  V30 8520 O 796.835 -0.080979 1.88326 0
M  V30 8521 C 793.962 0.243745 3.37822 0
M  V30 8522 C 793.008 1.25235 4.07699 0
M  V30 8523 S 793.841 2.80368 4.56239 0
M  V30 8524 C 794.997 2.22846 5.84885 0
M  V30 8525 H 795.23 1.74197 2.40921 0
M  V30 8526 H 792.763 0.998242 1.1779 0
M  V30 8527 H 794.721 -0.0901915 4.10401 0
M  V30 8528 H 793.382 -0.642396 3.07461 0
M  V30 8529 H 792.575 0.788168 4.97799 0
M  V30 8530 H 792.177 1.53194 3.41185 0
M  V30 8531 H 794.469 1.60403 6.58238 0
M  V30 8532 H 795.412 3.112 6.3605 0
M  V30 8533 H 795.82 1.66296 5.39449 0
M  V30 8534 N 795.218 -1.23913 0.973828 0
M  V30 8535 C 796.443 -1.96735 0.656511 0
M  V30 8536 C 796.868 -1.71682 -0.768571 0
M  V30 8537 O 796.226 -0.984267 -1.52256 0
M  V30 8538 C 796.274 -3.48004 0.944735 0
M  V30 8539 O 795.378 -4.12387 0.0333357 0
M  V30 8540 H 794.719 -0.616119 0.247575 0
M  V30 8541 H 797.249 -1.57525 1.30564 0
M  V30 8542 H 797.259 -3.98424 0.87876 0
M  V30 8543 H 795.934 -3.65567 1.98328 0
M  V30 8544 H 794.511 -3.72585 0.153157 0
M  V30 8545 N 796.696 -0.74468 -1.38897 0
M  V30 8546 C 798.112 -0.421302 -1.53939 0
M  V30 8547 C 798.312 1.06668 -1.70951 0
M  V30 8548 O 797.368 1.85278 -1.71547 0
M  V30 8549 C 798.681 -1.21278 -2.75159 0
M  V30 8550 C 800.229 -1.20196 -2.89001 0
M  V30 8551 C 800.704 -1.97621 -4.13171 0
M  V30 8552 N 802.195 -1.94836 -4.2023 0
M  V30 8553 C 802.93 -2.51545 -5.15279 0
M  V30 8554 N 802.426 -3.1693 -6.16058 0
M  V30 8555 N 804.219 -2.41524 -5.07565 0
M  V30 8556 H 796.37 -1.70914 -1.26103 0
M  V30 8557 H 798.633 -0.724058 -0.611919 0
M  V30 8558 H 798.339 -2.26609 -2.68963 0
M  V30 8559 H 798.213 -0.823677 -3.68097 0
M  V30 8560 H 800.6 -0.156742 -2.94683 0
M  V30 8561 H 800.681 -1.63051 -1.97099 0
M  V30 8562 H 800.325 -3.02149 -4.0825 0
M  V30 8563 H 800.255 -1.52166 -5.04136 0
M  V30 8564 H 802.746 -1.4721 -3.48048 0
M  V30 8565 H 803.059 -3.57644 -6.85062 0
M  V30 8566 H 801.404 -3.21023 -6.16417 0
M  V30 8567 H 804.595 -1.90077 -4.27771 0
M  V30 8568 H 804.768 -2.86016 -5.81462 0
M  V30 8569 N 798.174 1.49689 -0.493057 0
M  V30 8570 C 799.422 2.02027 0.0541642 0
M  V30 8571 C 799.743 1.37554 1.38217 0
M  V30 8572 O 799.013 0.528174 1.88646 0
M  V30 8573 H 797.593 0.746646 0.0230069 0
M  V30 8574 H 800.255 1.83795 -0.648489 0
M  V30 8575 H 799.351 3.11523 0.189652 0
M  V30 8576 N 799.652 0.226554 1.55963 0
M  V30 8577 C 801.068 -0.128733 1.5908 0
M  V30 8578 C 801.268 -1.58558 1.24345 0
M  V30 8579 O 800.324 -2.32661 0.981069 0
M  V30 8580 C 801.637 0.202076 3.0002 0
M  V30 8581 C 803.185 0.144718 3.12665 0
M  V30 8582 C 803.66 0.449272 4.55791 0
M  V30 8583 N 805.151 0.399026 4.61478 0
M  V30 8584 C 805.886 0.608106 5.70166 0
M  V30 8585 N 805.382 0.879227 6.87198 0
M  V30 8586 N 807.175 0.5402 5.59498 0
M  V30 8587 H 799.326 1.17686 1.76816 0
M  V30 8588 H 801.589 0.472072 0.822102 0
M  V30 8589 H 801.295 1.21341 3.30105 0
M  V30 8590 H 801.169 -0.480554 3.74126 0
M  V30 8591 H 803.556 -0.857261 2.82374 0
M  V30 8592 H 803.637 0.860899 2.40878 0
M  V30 8593 H 803.281 1.44871 4.86801 0
M  V30 8594 H 803.211 -0.288157 5.25811 0
M  V30 8595 H 805.702 0.197372 3.77384 0
M  V30 8596 H 806.015 1.02673 7.65949 0
M  V30 8597 H 804.36 0.916477 6.88931 0
M  V30 8598 H 807.551 0.328581 4.66945 0
M  V30 8599 H 807.724 0.706548 6.44137 0
M  V30 8600 N 801.13 -1.57531 -0.0467866 0
M  V30 8601 C 802.355 -1.93087 -0.757123 0
M  V30 8602 C 802.78 -0.825116 -1.69037 0
M  V30 8603 O 802.138 0.220449 -1.79955 0
M  V30 8604 C 802.186 -3.27669 -1.5055 0
M  V30 8605 O 801.29 -3.18667 -2.61773 0
M  V30 8606 H 800.631 -0.631597 -0.204892 0
M  V30 8607 H 803.161 -2.04599 -0.00755232 0
M  V30 8608 H 803.171 -3.6214 -1.87932 0
M  V30 8609 H 801.846 -4.07717 -0.820931 0
M  V30 8610 H 800.423 -2.95798 -2.27064 0
M  V30 8611 N 802.608 0.318715 -1.54344 0
M  V30 8612 C 803.857 1.05363 -1.71993 0
M  V30 8613 C 804.17 1.89018 -0.503155 0
M  V30 8614 O 805.376 2.65639 -0.561085 0
M  V30 8615 C 803.832 1.92281 -3.0423 0
M  V30 8616 C 803.44 1.13715 -4.33328 0
M  V30 8617 C 805.184 2.65479 -3.31242 0
M  V30 8618 C 803.091 1.99806 -5.56625 0
M  V30 8619 H 802.021 0.397081 -0.64097 0
M  V30 8620 H 804.672 0.311598 -1.80835 0
M  V30 8621 H 803.054 2.70402 -2.89307 0
M  V30 8622 H 804.228 0.403305 -4.59032 0
M  V30 8623 H 802.543 0.521769 -4.13118 0
M  V30 8624 H 805.14 3.30209 -4.20555 0
M  V30 8625 H 805.483 3.33374 -2.49334 0
M  V30 8626 H 806.016 1.94417 -3.47054 0
M  V30 8627 H 802.755 1.36411 -6.41149 0
M  V30 8628 H 802.275 2.70911 -5.35133 0
M  V30 8629 H 803.954 2.58277 -5.93213 0
M  V30 8630 N 804.086 1.46499 0.581025 0
M  V30 8631 C 805.311 1.55708 1.37002 0
M  V30 8632 C 805.736 0.19942 1.8704 0
M  V30 8633 O 805.094 -0.820731 1.61659 0
M  V30 8634 C 805.142 2.56716 2.53238 0
M  V30 8635 O 804.246 2.10336 3.54729 0
M  V30 8636 H 803.587 0.523912 0.407937 0
M  V30 8637 H 806.117 1.92085 0.704602 0
M  V30 8638 H 806.127 2.76378 3.00132 0
M  V30 8639 H 804.802 3.55307 2.16171 0
M  V30 8640 H 803.379 2.00669 3.14303 0
M  V30 8641 N 805.565 -0.825799 1.34232 0
M  V30 8642 C 806.981 -1.11848 1.13851 0
M  V30 8643 C 807.181 -2.01405 -0.0619031 0
M  V30 8644 O 806.237 -2.41465 -0.738287 0
M  V30 8645 C 807.55 -1.76797 2.43235 0
M  V30 8646 C 809.098 -1.89304 2.49265 0
M  V30 8647 C 809.573 -2.57669 3.78643 0
M  V30 8648 N 811.064 -2.65171 3.79788 0
M  V30 8649 C 811.799 -3.1879 4.76614 0
M  V30 8650 N 811.295 -3.72995 5.83821 0
M  V30 8651 N 813.088 -3.17164 4.64073 0
M  V30 8652 H 805.239 -0.230049 2.11151 0
M  V30 8653 H 807.502 -0.164609 0.9336 0
M  V30 8654 H 807.208 -1.18455 3.31152 0
M  V30 8655 H 807.082 -2.76693 2.56361 0
M  V30 8656 H 809.469 -2.46796 1.6179 0
M  V30 8657 H 809.55 -0.883191 2.4007 0
M  V30 8658 H 809.194 -2.00833 4.66507 0
M  V30 8659 H 809.124 -3.59152 3.8512 0
M  V30 8660 H 811.615 -2.26746 3.02315 0
M  V30 8661 H 811.928 -4.12151 6.53721 0
M  V30 8662 H 810.273 -3.71246 5.87538 0
M  V30 8663 H 813.464 -2.74082 3.79469 0
M  V30 8664 H 813.637 -3.58647 5.397 0
M  V30 8665 N 807.043 -1.17915 -1.04565 0
M  V30 8666 C 807.953 -0.916449 -2.15959 0
M  V30 8667 C 808.969 0.117655 -1.73602 0
M  V30 8668 O 810.145 -0.063089 -2.01301 0
M  V30 8669 C 807.21 -0.440262 -3.43893 0
M  V30 8670 C 806.271 -1.54172 -4.00661 0
M  V30 8671 C 805.504 -1.08816 -5.22489 0
M  V30 8672 O 805.727 0.0551547 -5.70373 0
M  V30 8673 O 804.661 -1.88383 -5.7166 0
M  V30 8674 H 808.487 -1.8484 -2.40972 0
M  V30 8675 H 806.072 -0.960552 -1.14428 0
M  V30 8676 H 807.954 -0.182537 -4.21004 0
M  V30 8677 H 806.629 0.46346 -3.20365 0
M  V30 8678 H 805.536 -1.85341 -3.24961 0
M  V30 8679 H 806.869 -2.42139 -4.2852 0
M  V30 8680 N 808.521 1.23394 -0.980386 0
M  V30 8681 C 809.484 2.23092 -0.525619 0
M  V30 8682 C 810.484 1.56129 0.384745 0
M  V30 8683 O 811.674 1.73284 0.178439 0
M  V30 8684 C 808.806 3.40074 0.23712 0
M  V30 8685 H 809.999 2.64839 -1.40714 0
M  V30 8686 H 807.552 1.36227 -0.766275 0
M  V30 8687 H 808.287 3.03783 1.13518 0
M  V30 8688 H 808.072 3.89883 -0.416356 0
M  V30 8689 H 809.562 4.14043 0.543892 0
M  V30 8690 N 809.999 0.752036 1.385 0
M  V30 8691 C 810.962 0.131587 2.28822 0
M  V30 8692 C 811.962 -0.649149 1.47115 0
M  V30 8693 O 813.152 -0.475645 1.67581 0
M  V30 8694 C 810.284 -0.822101 3.30839 0
M  V30 8695 H 811.477 0.927551 2.85196 0
M  V30 8696 H 809.03 0.518945 1.47434 0
M  V30 8697 H 809.765 -1.6438 2.79553 0
M  V30 8698 H 809.55 -0.264689 3.91206 0
M  V30 8699 H 811.04 -1.25226 3.98382 0
M  V30 8700 N 811.477 -1.49425 0.500989 0
M  V30 8701 C 812.702 -2.07356 -0.0425154 0
M  V30 8702 C 813.127 -1.35887 -1.30063 0
M  V30 8703 O 812.485 -0.41561 -1.76472 0
M  V30 8704 C 812.533 -3.59518 -0.279188 0
M  V30 8705 O 811.637 -3.89542 -1.3539 0
M  V30 8706 H 810.978 -0.663482 0.0262207 0
M  V30 8707 H 813.508 -1.92231 0.700607 0
M  V30 8708 H 813.518 -4.04791 -0.5107 0
M  V30 8709 H 812.193 -4.10946 0.640009 0
M  V30 8710 H 810.77 -3.56079 -1.10734 0
M  V30 8711 N 812.955 -0.234822 -1.55841 0
M  V30 8712 C 814.18 0.400741 -2.03492 0
M  V30 8713 C 814.605 1.51618 -1.11327 0
M  V30 8714 O 813.963 1.81002 -0.103922 0
M  V30 8715 C 814.011 0.897184 -3.49261 0
M  V30 8716 O 813.115 2.00764 -3.60233 0
M  V30 8717 H 812.456 0.0890023 -0.658008 0
M  V30 8718 H 814.986 -0.357345 -2.01455 0
M  V30 8719 H 814.996 1.20356 -3.89844 0
M  V30 8720 H 813.671 0.0808639 -4.15821 0
M  V30 8721 H 812.248 1.70689 -3.31541 0
M  V30 8722 N 814.433 1.57553 0.0384317 0
M  V30 8723 C 815.383 2.02404 1.0496 0
M  V30 8724 C 816.367 0.911705 1.32577 0
M  V30 8725 O 817.559 1.17561 1.32319 0
M  V30 8726 C 814.688 2.49924 2.35357 0
M  V30 8727 C 813.774 3.6796 2.1087 0
M  V30 8728 N 814.165 4.81009 1.56411 0
M  V30 8729 C 812.463 3.75153 2.41197 0
M  V30 8730 C 813.164 5.62686 1.47512 0
M  V30 8731 N 812.14 5.0752 1.94742 0
M  V30 8732 H 815.942 2.87234 0.622399 0
M  V30 8733 H 813.456 1.60543 0.244916 0
M  V30 8734 H 815.453 2.80312 3.08595 0
M  V30 8735 H 814.113 1.66496 2.78763 0
M  V30 8736 H 815.124 5.02636 1.2481 0
M  V30 8737 H 811.801 3.02507 2.87742 0
M  V30 8738 H 813.191 6.6349 1.05976 0
M  V30 8739 N 815.911 -0.310526 1.54511 0
M  V30 8740 C 816.874 -1.3657 1.84068 0
M  V30 8741 C 817.874 -1.44123 0.713097 0
M  V30 8742 O 819.064 -1.43924 0.981399 0
M  V30 8743 C 816.196 -2.75162 2.01243 0
M  V30 8744 H 817.389 -1.1161 2.78358 0
M  V30 8745 H 814.942 -0.546699 1.46427 0
M  V30 8746 H 815.677 -3.05359 1.09208 0
M  V30 8747 H 815.462 -2.71071 2.83307 0
M  V30 8748 H 816.952 -3.51473 2.25514 0
M  V30 8749 N 817.389 -1.46805 -0.573248 0
M  V30 8750 C 818.352 -1.57655 -1.66366 0
M  V30 8751 C 819.352 -0.452905 -1.5429 0
M  V30 8752 O 820.542 -0.717502 -1.58737 0
M  V30 8753 C 817.674 -1.50584 -3.05839 0
M  V30 8754 H 818.867 -2.54842 -1.581 0
M  V30 8755 H 816.42 -1.34756 -0.791868 0
M  V30 8756 H 817.155 -0.547127 -3.19651 0
M  V30 8757 H 816.94 -2.32118 -3.16012 0
M  V30 8758 H 818.43 -1.61282 -3.85199 0
M  V30 8759 N 818.867 0.818669 -1.34668 0
M  V30 8760 C 819.83 1.9114 -1.26483 0
M  V30 8761 C 820.83 1.598 -0.179044 0
M  V30 8762 O 822.02 1.6876 -0.431952 0
M  V30 8763 C 819.152 3.27285 -0.95381 0
M  V30 8764 H 820.345 1.9982 -2.23634 0
M  V30 8765 H 817.898 1.01314 -1.19018 0
M  V30 8766 H 818.633 3.24297 0.0143428 0
M  V30 8767 H 818.418 3.51416 -1.73924 0
M  V30 8768 H 819.908 4.07299 -0.921827 0
M  V30 8769 N 820.346 1.18468 1.03938 0
M  V30 8770 C 821.592 0.982286 1.77423 0
M  V30 8771 C 821.925 -0.48679 1.88 0
M  V30 8772 O 821.2 -1.36146 1.38905 0
M  V30 8773 C 821.483 1.63929 3.20623 0
M  V30 8774 C 821.336 3.18132 3.17982 0
M  V30 8775 C 822.655 1.3536 4.18767 0
M  V30 8776 H 819.774 0.358264 0.644062 0
M  V30 8777 H 822.416 1.46154 1.21405 0
M  V30 8778 H 820.566 1.2318 3.68455 0
M  V30 8779 H 822.238 3.68024 2.78129 0
M  V30 8780 H 820.481 3.50225 2.55978 0
M  V30 8781 H 821.152 3.5924 4.19107 0
M  V30 8782 H 823.628 1.70669 3.79488 0
M  V30 8783 H 822.504 1.83896 5.17178 0
M  V30 8784 H 822.765 0.276722 4.41233 0
M  V30 8785 N 821.824 -1.22873 0.986916 0
M  V30 8786 C 822.734 -2.28277 0.540978 0
M  V30 8787 C 823.75 -1.69164 -0.407363 0
M  V30 8788 O 824.926 -1.99504 -0.275674 0
M  V30 8789 C 821.991 -3.46404 -0.143181 0
M  V30 8790 C 821.052 -4.20854 0.847375 0
M  V30 8791 C 820.285 -5.33341 0.19577 0
M  V30 8792 O 820.508 -5.61356 -1.0117 0
M  V30 8793 O 819.442 -5.95169 0.897623 0
M  V30 8794 H 823.268 -2.68578 1.41773 0
M  V30 8795 H 820.853 -1.28927 0.754867 0
M  V30 8796 H 822.735 -4.18096 -0.526676 0
M  V30 8797 H 821.41 -3.08041 -0.994593 0
M  V30 8798 H 820.317 -3.51459 1.28169 0
M  V30 8799 H 821.65 -4.63082 1.6678 0
M  V30 8800 N 823.302 -0.75937 -1.38099 0
M  V30 8801 C 824.548 -0.318584 -2.00282 0
M  V30 8802 C 824.881 1.09854 -1.60143 0
M  V30 8803 O 824.156 1.75344 -0.841702 0
M  V30 8804 C 824.439 -0.448047 -3.57302 0
M  V30 8805 C 824.292 -1.9067 -4.07388 0
M  V30 8806 C 825.611 0.155119 -4.39827 0
M  V30 8807 H 822.73 -0.117233 -0.727616 0
M  V30 8808 H 825.372 -0.960097 -1.63958 0
M  V30 8809 H 823.522 0.0981003 -3.88376 0
M  V30 8810 H 825.194 -2.5116 -3.86932 0
M  V30 8811 H 823.437 -2.41979 -3.6004 0
M  V30 8812 H 824.108 -1.94841 -5.1647 0
M  V30 8813 H 826.584 -0.31073 -4.14938 0
M  V30 8814 H 825.46 0.0343264 -5.48889 0
M  V30 8815 H 825.721 1.24407 -4.24235 0
M  V30 8816 N 824.78 1.49157 -0.508906 0
M  V30 8817 C 825.71 2.32109 0.254469 0
M  V30 8818 C 826.691 1.40754 0.955111 0
M  V30 8819 O 827.876 1.69658 0.944983 0
M  V30 8820 C 825.006 3.21458 1.3146 0
M  V30 8821 C 823.96 4.2167 0.733368 0
M  V30 8822 C 823.286 5.00009 1.8946 0
M  V30 8823 C 824.586 5.21544 -0.280875 0
M  V30 8824 H 826.28 2.9618 -0.43795 0
M  V30 8825 H 823.826 1.4243 -0.212062 0
M  V30 8826 H 825.779 3.78305 1.85643 0
M  V30 8827 H 824.503 2.55346 2.03632 0
M  V30 8828 H 823.162 3.65979 0.213231 0
M  V30 8829 H 822.81 4.30338 2.60419 0
M  V30 8830 H 822.51 5.67821 1.51173 0
M  V30 8831 H 824.034 5.59702 2.44061 0
M  V30 8832 H 825.448 5.73039 0.173095 0
M  V30 8833 H 823.845 5.97291 -0.580006 0
M  V30 8834 H 824.915 4.69969 -1.19404 0
M  V30 8835 N 826.258 0.243083 1.55714 0
M  V30 8836 C 827.674 -0.111853 1.59208 0
M  V30 8837 C 827.874 -1.5723 1.2602 0
M  V30 8838 O 826.93 -2.31608 1.00569 0
M  V30 8839 C 828.243 0.233885 2.99789 0
M  V30 8840 C 829.791 0.177873 3.12494 0
M  V30 8841 C 830.266 0.49759 4.55289 0
M  V30 8842 N 831.757 0.447949 4.61029 0
M  V30 8843 C 832.492 0.668545 5.69489 0
M  V30 8844 N 831.988 0.952064 6.86227 0
M  V30 8845 N 833.781 0.599512 5.58894 0
M  V30 8846 H 825.932 1.19554 1.75558 0
M  V30 8847 H 828.195 0.480765 0.817049 0
M  V30 8848 H 827.901 1.24835 3.28799 0
M  V30 8849 H 827.775 -0.440846 3.74615 0
M  V30 8850 H 830.162 -0.827263 2.83267 0
M  V30 8851 H 830.243 0.886399 2.39951 0
M  V30 8852 H 829.887 1.50026 4.85237 0
M  V30 8853 H 829.817 -0.232371 5.26087 0
M  V30 8854 H 832.308 0.237388 3.77154 0
M  V30 8855 H 832.621 1.10791 7.64817 0
M  V30 8856 H 830.966 0.989496 6.8792 0
M  V30 8857 H 834.157 0.378088 4.66571 0
M  V30 8858 H 834.33 0.774828 6.43351 0
M  V30 8859 N 827.736 -1.57571 -0.0300757 0
M  V30 8860 C 828.984 -1.88852 -0.719666 0
M  V30 8861 C 829.305 -0.840645 -1.75949 0
M  V30 8862 O 828.575 0.125854 -1.95495 0
M  V30 8863 H 827.155 -0.696965 -0.268792 0
M  V30 8864 H 829.817 -1.949 0.00373285 0
M  V30 8865 H 828.913 -2.87695 -1.20987 0
M  V30 8866 N 829.214 0.302327 -1.54673 0
M  V30 8867 C 830.461 1.0377 -1.73891 0
M  V30 8868 C 830.789 1.87309 -0.523979 0
M  V30 8869 O 830.044 1.8936 0.494084 0
M  V30 8870 C 830.343 1.97365 -2.97963 0
M  V30 8871 C 830.009 1.29812 -4.3181 0
M  V30 8872 C 828.671 1.11121 -4.68194 0
M  V30 8873 C 831.023 0.815073 -5.14787 0
M  V30 8874 C 828.351 0.428077 -5.85136 0
M  V30 8875 C 830.703 0.145665 -6.32432 0
M  V30 8876 C 829.367 -0.0532098 -6.67479 0
M  V30 8877 H 828.637 0.379721 -0.636312 0
M  V30 8878 H 831.284 0.312708 -1.8893 0
M  V30 8879 H 829.589 2.76387 -2.777 0
M  V30 8880 H 831.286 2.54331 -3.10027 0
M  V30 8881 H 827.876 1.45366 -4.03196 0
M  V30 8882 H 832.06 0.947191 -4.87178 0
M  V30 8883 H 827.316 0.262995 -6.10834 0
M  V30 8884 H 831.49 -0.236533 -6.95998 0
M  V30 8885 H 829.117 -0.58456 -7.57949 0
M  V30 8886 N 830.692 1.47107 0.565454 0
M  V30 8887 C 831.622 1.61846 1.68309 0
M  V30 8888 C 832.603 0.468159 1.63531 0
M  V30 8889 O 833.788 0.696504 1.8128 0
M  V30 8890 C 830.918 1.62474 3.06952 0
M  V30 8891 C 829.872 2.76649 3.26572 0
M  V30 8892 C 829.198 2.62345 4.65917 0
M  V30 8893 C 830.498 4.18319 3.12741 0
M  V30 8894 H 832.192 2.55407 1.5623 0
M  V30 8895 H 829.738 1.22916 0.750179 0
M  V30 8896 H 831.691 1.71378 3.84977 0
M  V30 8897 H 830.415 0.654692 3.19971 0
M  V30 8898 H 829.074 2.67242 2.50952 0
M  V30 8899 H 828.722 1.63386 4.75725 0
M  V30 8900 H 828.422 3.38936 4.79996 0
M  V30 8901 H 829.946 2.73165 5.46089 0
M  V30 8902 H 831.36 4.28745 3.80593 0
M  V30 8903 H 829.757 4.95632 3.38333 0
M  V30 8904 H 830.827 4.37263 2.09592 0
M  V30 8905 N 832.17 -0.811516 1.35101 0
M  V30 8906 C 833.586 -1.10634 1.15031 0
M  V30 8907 C 833.786 -2.01459 -0.0405379 0
M  V30 8908 O 832.842 -2.42235 -0.712635 0
M  V30 8909 C 834.155 -1.74207 2.45097 0
M  V30 8910 C 835.703 -1.8665 2.51258 0
M  V30 8911 C 836.178 -2.53638 3.81355 0
M  V30 8912 N 837.669 -2.61128 3.82579 0
M  V30 8913 C 838.404 -3.13717 4.79968 0
M  V30 8914 N 837.9 -3.66782 5.87744 0
M  V30 8915 N 839.693 -3.12224 4.67411 0
M  V30 8916 H 831.844 -0.207641 2.11383 0
M  V30 8917 H 834.107 -0.154697 0.935293 0
M  V30 8918 H 833.813 -1.14936 3.32389 0
M  V30 8919 H 833.687 -2.73958 2.59281 0
M  V30 8920 H 836.074 -2.45066 1.64398 0
M  V30 8921 H 836.155 -0.857678 2.40993 0
M  V30 8922 H 835.799 -1.95873 4.68611 0
M  V30 8923 H 835.729 -3.55047 3.88907 0
M  V30 8924 H 838.22 -2.23527 3.04703 0
M  V30 8925 H 838.533 -4.05194 6.58056 0
M  V30 8926 H 836.878 -3.64994 5.91443 0
M  V30 8927 H 840.069 -2.70042 3.82354 0
M  V30 8928 H 840.242 -3.52903 5.43474 0
M  V30 8929 N 833.648 -1.19017 -1.03309 0
M  V30 8930 C 834.578 -0.94772 -2.13402 0
M  V30 8931 C 835.559 0.117383 -1.69694 0
M  V30 8932 O 836.744 -0.0367733 -1.94165 0
M  V30 8933 C 833.874 -0.480977 -3.43953 0
M  V30 8934 C 832.828 -1.48743 -4.01322 0
M  V30 8935 C 832.154 -0.877924 -5.27443 0
M  V30 8936 C 833.454 -2.86642 -4.36616 0
M  V30 8937 H 835.148 -1.86846 -2.33942 0
M  V30 8938 H 832.694 -0.899781 -1.12427 0
M  V30 8939 H 834.647 -0.298677 -4.2034 0
M  V30 8940 H 833.371 0.475348 -3.23122 0
M  V30 8941 H 832.03 -1.65681 -3.27025 0
M  V30 8942 H 831.678 0.0858232 -5.02927 0
M  V30 8943 H 831.378 -1.54996 -5.66789 0
M  V30 8944 H 832.902 -0.706326 -6.06501 0
M  V30 8945 H 834.316 -2.73312 -5.03958 0
M  V30 8946 H 832.713 -3.50599 -4.87032 0
M  V30 8947 H 833.783 -3.39617 -3.46105 0
M  V30 8948 N 835.127 1.22348 -0.993418 0
M  V30 8949 C 836.09 2.22522 -0.549251 0
M  V30 8950 C 837.09 1.56529 0.368164 0
M  V30 8951 O 838.28 1.73463 0.16005 0
M  V30 8952 C 835.412 3.40307 0.201037 0
M  V30 8953 H 836.605 2.63332 -1.43515 0
M  V30 8954 H 834.158 1.35407 -0.78068 0
M  V30 8955 H 834.893 3.0497 1.10289 0
M  V30 8956 H 834.678 3.8942 -0.457685 0
M  V30 8957 H 836.168 4.14597 0.499946 0
M  V30 8958 N 836.605 0.766683 1.37694 0
M  V30 8959 C 837.553 0.137269 2.32195 0
M  V30 8960 C 838.547 -0.69067 1.54681 0
M  V30 8961 O 839.753 -0.588299 1.70115 0
M  V30 8962 H 836.128 0.0256003 0.751564 0
M  V30 8963 H 838.099 0.950129 2.82869 0
M  V30 8964 C 836.848 -0.731446 3.39919 0
M  V30 8965 H 836.171 -0.103738 3.99665 0
M  V30 8966 H 837.611 -1.13891 4.08417 0
M  V30 8967 C 836.07 -1.87984 2.79578 0
M  V30 8968 O 836.6 -2.97496 2.69924 0
M  V30 8969 N 834.806 -1.6789 2.37195 0
M  V30 8970 H 834.353 -0.788162 2.45246 0
M  V30 8971 H 834.311 -2.44894 1.97165 0
M  V30 8972 N 838.083 -1.48885 0.516809 0
M  V30 8973 C 839.016 -2.26218 -0.30011 0
M  V30 8974 C 839.994 -1.31491 -0.956496 0
M  V30 8975 O 841.178 -1.6081 -0.983488 0
M  V30 8976 C 838.305 -3.07315 -1.42392 0
M  V30 8977 C 837.351 -4.17316 -0.880295 0
M  V30 8978 S 838.184 -5.34955 0.24146 0
M  V30 8979 C 839.34 -6.1961 -0.885138 0
M  V30 8980 H 839.573 -2.95158 0.356217 0
M  V30 8981 H 837.106 -1.5141 0.302365 0
M  V30 8982 H 839.064 -3.54619 -2.06775 0
M  V30 8983 H 837.725 -2.37813 -2.05192 0
M  V30 8984 H 836.918 -4.73635 -1.72297 0
M  V30 8985 H 836.52 -3.72685 -0.313396 0
M  V30 8986 H 838.812 -6.53513 -1.78682 0
M  V30 8987 H 839.755 -7.07183 -0.360226 0
M  V30 8988 H 840.163 -5.52461 -1.1596 0
M  V30 8989 N 839.561 -0.251338 -1.55583 0
M  V30 8990 C 840.786 0.379136 -2.03905 0
M  V30 8991 C 841.211 1.50428 -1.12929 0
M  V30 8992 O 840.569 1.80882 -0.123114 0
M  V30 8993 C 840.617 0.86009 -3.50193 0
M  V30 8994 O 839.721 1.96932 -3.62342 0
M  V30 8995 H 839.062 0.0820183 -0.658915 0
M  V30 8996 H 841.592 -0.378692 -2.01065 0
M  V30 8997 H 841.602 1.16214 -3.91099 0
M  V30 8998 H 840.277 0.0367559 -4.15884 0
M  V30 8999 H 838.854 1.67163 -3.33333 0
M  V30 9000 N 841.039 1.57585 0.0217189 0
M  V30 9001 C 841.987 2.08134 1.03842 0
M  V30 9002 C 842.981 0.996662 1.36978 0
M  V30 9003 O 844.187 1.18149 1.35797 0
M  V30 9004 H 840.562 0.664298 0.352438 0
M  V30 9005 H 842.533 2.92583 0.58634 0
M  V30 9006 C 841.282 2.58218 2.32849 0
M  V30 9007 H 840.605 3.41302 2.08214 0
M  V30 9008 H 842.045 2.97289 3.02316 0
M  V30 9009 C 840.504 1.48664 3.02325 0
M  V30 9010 O 841.034 0.857075 3.9245 0
M  V30 9011 N 839.24 1.21938 2.63779 0
M  V30 9012 H 838.787 1.73319 1.90574 0
M  V30 9013 H 838.745 0.488523 3.10581 0
M  V30 9014 N 842.517 -0.29412 1.54831 0
M  V30 9015 C 843.427 -1.3854 1.89325 0
M  V30 9016 C 844.443 -1.55127 0.788133 0
M  V30 9017 O 845.619 -1.6966 1.08524 0
M  V30 9018 C 842.684 -2.72809 2.13954 0
M  V30 9019 C 841.745 -2.65148 3.37631 0
M  V30 9020 C 840.978 -3.93014 3.61076 0
M  V30 9021 O 841.201 -4.927 2.87406 0
M  V30 9022 O 840.135 -3.94491 4.54599 0
M  V30 9023 H 843.961 -1.12289 2.82179 0
M  V30 9024 H 841.546 -0.490793 1.41108 0
M  V30 9025 H 843.428 -3.52238 2.31315 0
M  V30 9026 H 842.103 -2.9889 1.24285 0
M  V30 9027 H 841.01 -1.84168 3.25627 0
M  V30 9028 H 842.343 -2.4402 4.27452 0
M  V30 9029 N 843.995 -1.47404 -0.557645 0
M  V30 9030 C 844.905 -1.62491 -1.69216 0
M  V30 9031 C 845.921 -0.507764 -1.66426 0
M  V30 9032 O 847.097 -0.775241 -1.85882 0
M  V30 9033 C 844.162 -1.63511 -3.05721 0
M  V30 9034 C 843.223 -2.86648 -3.1958 0
M  V30 9035 C 842.456 -2.87609 -4.49574 0
M  V30 9036 O 842.679 -1.97799 -5.35006 0
M  V30 9037 O 841.613 -3.79465 -4.67215 0
M  V30 9038 H 845.439 -2.58487 -1.59431 0
M  V30 9039 H 843.024 -1.30485 -0.7276 0
M  V30 9040 H 844.906 -1.66863 -3.86956 0
M  V30 9041 H 843.581 -0.706812 -3.15889 0
M  V30 9042 H 842.488 -2.8884 -2.37744 0
M  V30 9043 H 843.821 -3.7877 -3.14316 0
M  V30 9044 N 845.473 0.80434 -1.35529 0
M  V30 9045 C 846.889 1.10023 -1.15616 0
M  V30 9046 C 847.089 2.01478 0.0298535 0
M  V30 9047 O 846.145 2.42609 0.699778 0
M  V30 9048 C 847.458 1.72905 -2.46017 0
M  V30 9049 C 849.006 1.85315 -2.52245 0
M  V30 9050 C 849.481 2.51612 -3.82695 0
M  V30 9051 N 850.972 2.59095 -3.83958 0
M  V30 9052 C 851.707 3.11167 -4.81625 0
M  V30 9053 N 851.203 3.63659 -5.89681 0
M  V30 9054 N 852.996 3.09741 -4.6906 0
M  V30 9055 H 845.147 0.196428 -2.1149 0
M  V30 9056 H 847.41 0.149735 -0.9361 0
M  V30 9057 H 847.116 1.13171 -3.32994 0
M  V30 9058 H 846.99 2.72579 -2.6073 0
M  V30 9059 H 849.377 2.44191 -1.65695 0
M  V30 9060 H 849.458 0.844886 -2.41444 0
M  V30 9061 H 849.102 1.93385 -4.69643 0
M  V30 9062 H 849.032 3.5298 -3.90785 0
M  V30 9063 H 851.523 2.21908 -3.05884 0
M  V30 9064 H 851.836 4.01699 -6.60195 0
M  V30 9065 H 850.181 3.61852 -5.9337 0
M  V30 9066 H 853.372 2.68011 -3.83781 0
M  V30 9067 H 853.545 3.50016 -5.45338 0
M  V30 9068 N 846.951 1.19563 1.02676 0
M  V30 9069 C 847.899 0.931942 2.13114 0
M  V30 9070 C 848.893 -0.113007 1.69023 0
M  V30 9071 O 850.099 0.0364298 1.79963 0
M  V30 9072 H 846.474 0.283981 0.696318 0
M  V30 9073 H 848.445 1.86991 2.32545 0
M  V30 9074 C 847.194 0.489461 3.44238 0
M  V30 9075 H 846.517 1.28508 3.78584 0
M  V30 9076 H 847.957 0.34408 4.22602 0
M  V30 9077 C 846.416 -0.796761 3.27343 0
M  V30 9078 O 846.946 -1.85767 3.56165 0
M  V30 9079 N 845.152 -0.754824 2.80626 0
M  V30 9080 H 844.699 0.108778 2.5737 0
M  V30 9081 H 844.657 -1.6158 2.69702 0
M  V30 9082 N 848.429 -1.21819 0.999893 0
M  V30 9083 C 849.359 -2.26282 0.576096 0
M  V30 9084 C 850.34 -1.65317 -0.400537 0
M  V30 9085 O 851.525 -1.92028 -0.28964 0
M  V30 9086 C 848.655 -3.47147 -0.103145 0
M  V30 9087 C 847.609 -4.20594 0.792745 0
M  V30 9088 C 846.935 -5.34696 -0.0198026 0
M  V30 9089 C 848.235 -4.78533 2.09293 0
M  V30 9090 H 849.929 -2.61984 1.4493 0
M  V30 9091 H 847.475 -1.25935 0.698316 0
M  V30 9092 H 849.428 -4.1939 -0.411068 0
M  V30 9093 H 848.152 -3.1056 -1.01094 0
M  V30 9094 H 846.811 -3.50194 1.08442 0
M  V30 9095 H 846.459 -4.94352 -0.928729 0
M  V30 9096 H 846.159 -5.84764 0.576661 0
M  V30 9097 H 847.683 -6.09752 -0.321659 0
M  V30 9098 H 849.097 -5.42682 1.8485 0
M  V30 9099 H 847.494 -5.38968 2.63881 0
M  V30 9100 H 848.564 -3.98197 2.76708 0
M  V30 9101 N 849.908 -0.773975 -1.37286 0
M  V30 9102 C 851.185 -0.263942 -1.93811 0
M  V30 9103 C 851.565 1.24138 -1.70743 0
M  V30 9104 O 850.913 2.02557 -1.05749 0
M  V30 9105 C 851.123 -0.639753 -3.43086 0
M  V30 9106 C 852.471 -0.610796 -4.20184 0
M  V30 9107 O 853.495 -0.579278 -3.51458 0
M  V30 9108 O 852.354 -0.639862 -5.42741 0
M  V30 9109 H 849.448 -0.0614331 -0.824715 0
M  V30 9110 H 851.994 -0.855477 -1.46559 0
M  V30 9111 H 850.766 -1.67856 -3.53469 0
M  V30 9112 H 850.389 -0.0212827 -3.97594 0
M  V30 9113 N 851.386 1.48609 -0.524698 0
M  V30 9114 C 852.316 2.32366 0.229837 0
M  V30 9115 C 853.297 1.41759 0.940129 0
M  V30 9116 O 854.482 1.7065 0.926936 0
M  V30 9117 C 851.612 3.22835 1.28043 0
M  V30 9118 C 850.566 4.22424 0.688603 0
M  V30 9119 C 849.892 5.0199 1.84146 0
M  V30 9120 C 851.192 5.21217 -0.336176 0
M  V30 9121 H 852.886 2.95698 -0.469339 0
M  V30 9122 H 850.432 1.42197 -0.227156 0
M  V30 9123 H 852.385 3.80253 1.8162 0
M  V30 9124 H 851.109 2.57492 2.00912 0
M  V30 9125 H 849.768 3.66185 0.174402 0
M  V30 9126 H 849.416 4.33076 2.5584 0
M  V30 9127 H 849.116 5.69392 1.45142 0
M  V30 9128 H 850.64 5.62259 2.38111 0
M  V30 9129 H 852.054 5.7319 0.112307 0
M  V30 9130 H 850.451 5.96642 -0.643324 0
M  V30 9131 H 851.521 4.68676 -1.24381 0
M  V30 9132 N 852.864 0.259585 1.55447 0
M  V30 9133 C 853.811 -0.634578 2.21905 0
M  V30 9134 C 854.781 -1.16168 1.18719 0
M  V30 9135 O 855.966 -1.21383 1.4721 0
M  V30 9136 C 853.106 -1.82005 2.93203 0
M  V30 9137 C 852.219 -1.32828 4.11073 0
M  V30 9138 C 851.354 -2.47431 4.70055 0
M  V30 9139 C 850.393 -1.95179 5.80148 0
M  V30 9140 N 849.53 -3.03197 6.33258 0
M  V30 9141 H 854.37 -0.0611886 2.97937 0
M  V30 9142 H 851.907 -0.0184378 1.47088 0
M  V30 9143 H 853.865 -2.51664 3.32748 0
M  V30 9144 H 852.495 -2.36571 2.19622 0
M  V30 9145 H 851.547 -0.525301 3.76756 0
M  V30 9146 H 852.859 -0.905435 4.90513 0
M  V30 9147 H 852.013 -3.25111 5.12238 0
M  V30 9148 H 850.752 -2.93023 3.89857 0
M  V30 9149 H 849.757 -1.15974 5.37429 0
M  V30 9150 H 850.982 -1.50541 6.62204 0
M  V30 9151 H 848.928 -3.48199 5.55961 0
M  V30 9152 H 848.845 -2.65282 7.07928 0
M  V30 9153 H 850.113 -3.80898 6.80101 0
M  V30 9154 N 854.342 -1.57594 -0.0133615 0
M  V30 9155 C 855.567 -1.94649 -0.715996 0
M  V30 9156 C 855.992 -0.860786 -1.67249 0
M  V30 9157 O 855.35 0.182228 -1.80382 0
M  V30 9158 C 855.398 -3.30789 -1.43566 0
M  V30 9159 O 854.502 -3.24148 -2.54955 0
M  V30 9160 H 853.843 -0.635801 -0.191449 0
M  V30 9161 H 856.373 -2.04569 0.0358478 0
M  V30 9162 H 856.383 -3.66045 -1.80208 0
M  V30 9163 H 855.058 -4.09367 -0.734263 0
M  V30 9164 H 853.635 -3.00548 -2.20739 0
M  V30 9165 N 855.82 0.285905 -1.54985 0
M  V30 9166 C 857.048 1.03776 -1.78992 0
M  V30 9167 C 857.463 1.80402 -0.556814 0
M  V30 9168 O 856.82 1.76242 0.473801 0
M  V30 9169 C 856.871 2.0065 -3.00702 0
M  V30 9170 O 856.592 1.27131 -4.19249 0
M  V30 9171 C 858.093 2.87753 -3.37214 0
M  V30 9172 H 855.313 0.307126 -0.596586 0
M  V30 9173 H 857.857 0.3206 -2.01971 0
M  V30 9174 H 856.012 2.67847 -2.79887 0
M  V30 9175 H 856.426 1.92316 -4.8797 0
M  V30 9176 H 857.9 3.51548 -4.2558 0
M  V30 9177 H 858.377 3.56848 -2.56039 0
M  V30 9178 H 858.983 2.26065 -3.60242 0
M  V30 9179 N 857.298 1.47698 0.54982 0
M  V30 9180 C 858.547 1.53961 1.30303 0
M  V30 9181 C 858.86 0.209731 1.94472 0
M  V30 9182 O 860.066 0.150418 2.71083 0
M  V30 9183 C 858.522 2.71436 2.36328 0
M  V30 9184 C 858.13 4.10983 1.78316 0
M  V30 9185 C 859.874 2.86996 3.12783 0
M  V30 9186 C 857.781 5.19747 2.82164 0
M  V30 9187 H 856.711 0.573098 0.489975 0
M  V30 9188 H 859.362 1.73989 0.583089 0
M  V30 9189 H 857.744 2.44801 3.11269 0
M  V30 9190 H 858.918 4.47552 1.09697 0
M  V30 9191 H 857.233 4.00371 1.1442 0
M  V30 9192 H 859.83 3.65422 3.90347 0
M  V30 9193 H 860.173 1.95712 3.67427 0
M  V30 9194 H 860.706 3.13436 2.44954 0
M  V30 9195 H 857.445 6.12932 2.32366 0
M  V30 9196 H 856.965 4.87688 3.49171 0
M  V30 9197 H 858.644 5.47014 3.4552 0
M  V30 9198 N 858.776 -0.797141 1.35954 0
M  V30 9199 C 859.723 -1.90944 1.2965 0
M  V30 9200 C 860.693 -1.65262 0.166628 0
M  V30 9201 O 861.878 -1.87527 0.351883 0
M  V30 9202 C 859.018 -3.27637 1.08389 0
M  V30 9203 C 858.131 -3.65442 2.30382 0
M  V30 9204 C 857.266 -4.91213 2.02195 0
M  V30 9205 C 856.305 -5.21674 3.20191 0
M  V30 9206 N 855.442 -6.38627 2.91719 0
M  V30 9207 H 860.282 -1.95668 2.24762 0
M  V30 9208 H 857.819 -0.95696 1.11717 0
M  V30 9209 H 859.777 -4.06451 0.940912 0
M  V30 9210 H 858.407 -3.22355 0.169351 0
M  V30 9211 H 857.459 -2.81813 2.55511 0
M  V30 9212 H 858.771 -3.83907 3.18461 0
M  V30 9213 H 857.925 -5.77876 1.84783 0
M  V30 9214 H 856.664 -4.74803 1.11416 0
M  V30 9215 H 855.669 -4.33498 3.38171 0
M  V30 9216 H 856.894 -5.40009 4.11786 0
M  V30 9217 H 854.84 -6.23623 2.03543 0
M  V30 9218 H 854.757 -6.57387 3.73334 0
M  V30 9219 H 856.025 -7.28292 2.77868 0
M  V30 9220 N 860.254 -1.20106 -1.0204 0
M  V30 9221 C 861.482 -1.0344 -1.79186 0
M  V30 9222 C 861.897 0.416542 -1.84148 0
M  V30 9223 O 861.254 1.28925 -1.29168 0
M  V30 9224 C 861.305 -1.60663 -3.23836 0
M  V30 9225 O 861.026 -3.00079 -3.19193 0
M  V30 9226 C 862.527 -1.48897 -4.17546 0
M  V30 9227 H 859.747 -0.364093 -0.563629 0
M  V30 9228 H 862.291 -1.5911 -1.28469 0
M  V30 9229 H 860.446 -1.09122 -3.71714 0
M  V30 9230 H 860.86 -3.27162 -4.09958 0
M  V30 9231 H 862.334 -1.93703 -5.16898 0
M  V30 9232 H 862.811 -0.440843 -4.36982 0
M  V30 9233 H 863.417 -1.9961 -3.75547 0
M  V30 9234 N 861.732 1.21287 -1.00634 0
M  V30 9235 C 862.981 1.89706 -0.685178 0
M  V30 9236 C 863.294 1.79044 0.787566 0
M  V30 9237 O 864.5 2.42502 1.22086 0
M  V30 9238 C 862.956 3.40176 -1.17508 0
M  V30 9239 C 862.564 3.59446 -2.674 0
M  V30 9240 C 864.308 4.14213 -0.928869 0
M  V30 9241 C 862.215 5.03688 -3.09923 0
M  V30 9242 H 861.145 0.710434 -0.252586 0
M  V30 9243 H 863.796 1.37277 -1.21768 0
M  V30 9244 H 862.178 3.91867 -0.570622 0
M  V30 9245 H 863.352 3.18188 -3.33306 0
M  V30 9246 H 861.667 2.98764 -2.9005 0
M  V30 9247 H 864.264 5.20546 -1.22212 0
M  V30 9248 H 864.607 4.16082 0.134859 0
M  V30 9249 H 865.14 3.68591 -1.49619 0
M  V30 9250 H 861.879 5.06968 -4.15529 0
M  V30 9251 H 861.399 5.45796 -2.4873 0
M  V30 9252 H 863.078 5.72204 -3.0198 0
M  V30 9253 N 863.21 0.781244 1.36873 0
M  V30 9254 C 864.459 0.34652 1.98701 0
M  V30 9255 C 864.772 -1.08555 1.62712 0
M  V30 9256 O 865.978 -1.62213 2.17713 0
M  V30 9257 C 864.434 0.568611 3.5538 0
M  V30 9258 C 864.042 2.01156 4.003 0
M  V30 9259 C 865.786 0.197983 4.24038 0
M  V30 9260 C 863.693 2.18074 5.49725 0
M  V30 9261 H 862.623 0.125821 0.743428 0
M  V30 9262 H 865.274 0.961721 1.56279 0
M  V30 9263 H 863.656 -0.116185 3.9583 0
M  V30 9264 H 864.83 2.73209 3.71071 0
M  V30 9265 H 863.145 2.33967 3.44454 0
M  V30 9266 H 865.742 0.302778 5.33842 0
M  V30 9267 H 866.085 -0.852927 4.07469 0
M  V30 9268 H 866.618 0.835696 3.88923 0
M  V30 9269 H 863.357 3.21519 5.71232 0
M  V30 9270 H 862.877 1.50517 5.80607 0
M  V30 9271 H 864.556 1.98393 6.15832 0
M  V30 9272 N 864.689 -1.48329 0.532571 0
M  V30 9273 C 865.917 -2.069 0.00354299 0
M  V30 9274 C 866.332 -1.38876 -1.27902 0
M  V30 9275 O 865.689 -0.477119 -1.76153 0
M  V30 9276 C 865.74 -3.60821 -0.221416 0
M  V30 9277 O 865.461 -4.26291 1.01034 0
M  V30 9278 C 866.962 -4.36194 -0.790531 0
M  V30 9279 H 864.182 -0.670103 0.0346836 0
M  V30 9280 H 866.726 -1.90682 0.738955 0
M  V30 9281 H 864.881 -3.76636 -0.906884 0
M  V30 9282 H 865.295 -5.18475 0.792683 0
M  V30 9283 H 866.769 -5.44657 -0.897347 0
M  V30 9284 H 867.246 -4.00798 -1.79605 0
M  V30 9285 H 867.852 -4.25064 -0.141546 0
M  V30 9286 N 866.167 -0.267825 -1.55308 0
M  V30 9287 C 867.392 0.357487 -2.04296 0
M  V30 9288 C 867.817 1.49222 -1.14518 0
M  V30 9289 O 867.175 1.80741 -0.142292 0
M  V30 9290 C 867.223 0.822899 -3.51085 0
M  V30 9291 O 866.327 1.93078 -3.6441 0
M  V30 9292 H 865.668 0.075025 -0.659748 0
M  V30 9293 H 868.198 -0.399996 -2.00652 0
M  V30 9294 H 868.208 1.12059 -3.92309 0
M  V30 9295 H 866.883 -0.0073562 -4.15899 0
M  V30 9296 H 865.46 1.63618 -3.35087 0
M  V30 9297 N 867.645 1.57599 0.00500368 0
M  V30 9298 C 868.593 2.09223 1.01628 0
M  V30 9299 C 869.587 1.01113 1.35913 0
M  V30 9300 O 870.793 1.19583 1.34536 0
M  V30 9301 H 867.168 0.667999 0.345372 0
M  V30 9302 H 869.139 2.93188 0.555274 0
M  V30 9303 C 867.888 2.60674 2.30097 0
M  V30 9304 H 867.211 3.43491 2.04582 0
M  V30 9305 H 868.651 3.00479 2.99146 0
M  V30 9306 C 867.11 1.51862 3.00731 0
M  V30 9307 O 867.64 0.898651 3.91519 0
M  V30 9308 N 865.846 1.24729 2.62471 0
M  V30 9309 H 865.393 1.7533 1.88725 0
M  V30 9310 H 865.351 0.521437 3.10046 0
M  V30 9311 N 869.123 -0.277682 1.55134 0
M  V30 9312 C 870.07 -1.34313 1.87693 0
M  V30 9313 C 871.04 -1.49298 0.727973 0
M  V30 9314 O 872.225 -1.6378 0.978807 0
M  V30 9315 C 869.365 -2.69922 2.15026 0
M  V30 9316 C 868.478 -2.63197 3.42565 0
M  V30 9317 C 867.613 -3.90955 3.59622 0
M  V30 9318 C 866.652 -3.78722 4.8087 0
M  V30 9319 N 865.789 -4.98303 4.94609 0
M  V30 9320 H 870.629 -1.05847 2.78569 0
M  V30 9321 H 868.166 -0.511469 1.37922 0
M  V30 9322 H 870.124 -3.48817 2.28872 0
M  V30 9323 H 868.754 -2.966 1.2739 0
M  V30 9324 H 867.806 -1.76038 3.37216 0
M  V30 9325 H 869.118 -2.50056 4.31594 0
M  V30 9326 H 868.272 -4.78291 3.7326 0
M  V30 9327 H 867.011 -4.06957 2.6877 0
M  V30 9328 H 866.016 -2.89769 4.67241 0
M  V30 9329 H 867.241 -3.64242 5.73153 0
M  V30 9330 H 865.187 -5.14725 4.06687 0
M  V30 9331 H 865.104 -4.87675 5.77676 0
M  V30 9332 H 866.372 -5.87225 5.12628 0
M  V30 9333 N 870.601 -1.47988 -0.541979 0
M  V30 9334 C 871.848 -1.55393 -1.29843 0
M  V30 9335 C 872.176 -0.222668 -1.93221 0
M  V30 9336 O 871.431 0.785936 -1.79225 0
M  V30 9337 C 871.73 -2.63189 -2.41798 0
M  V30 9338 C 871.396 -4.05999 -1.96151 0
M  V30 9339 C 870.058 -4.44872 -1.83419 0
M  V30 9340 C 872.41 -4.95545 -1.61507 0
M  V30 9341 C 869.738 -5.71108 -1.34361 0
M  V30 9342 C 872.09 -6.22259 -1.13915 0
M  V30 9343 C 870.754 -6.59998 -0.997911 0
M  V30 9344 H 870.024 -0.568623 -0.47513 0
M  V30 9345 H 872.671 -1.81654 -0.606142 0
M  V30 9346 H 870.976 -2.30743 -3.16647 0
M  V30 9347 H 872.673 -2.66138 -2.99953 0
M  V30 9348 H 869.263 -3.75294 -2.07008 0
M  V30 9349 H 873.447 -4.662 -1.70209 0
M  V30 9350 H 868.703 -5.99083 -1.22103 0
M  V30 9351 H 872.877 -6.91048 -0.861755 0
M  V30 9352 H 870.504 -7.57704 -0.615561 0
M  V30 9353 N 872.079 0.78992 -1.36375 0
M  V30 9354 C 873.309 1.57644 -1.33536 0
M  V30 9355 C 873.717 1.89007 0.0855075 0
M  V30 9356 O 873.06 1.50547 1.05267 0
M  V30 9357 C 873.122 2.92424 -2.09113 0
M  V30 9358 C 872.786 2.83793 -3.58205 0
M  V30 9359 C 873.783 2.56072 -4.52464 0
M  V30 9360 C 871.468 3.02386 -4.01084 0
M  V30 9361 C 873.462 2.47044 -5.87578 0
M  V30 9362 C 871.149 2.9298 -5.36289 0
M  V30 9363 C 872.147 2.65347 -6.29349 0
M  V30 9364 O 871.835 2.55935 -7.62071 0
M  V30 9365 H 871.567 0.495639 -0.459694 0
M  V30 9366 H 874.121 0.988354 -1.80058 0
M  V30 9367 H 872.351 3.53282 -1.57254 0
M  V30 9368 H 874.04 3.53693 -1.99139 0
M  V30 9369 H 874.806 2.4141 -4.2065 0
M  V30 9370 H 870.685 3.229 -3.29023 0
M  V30 9371 H 874.229 2.25396 -6.60184 0
M  V30 9372 H 870.126 3.07204 -5.67711 0
M  V30 9373 H 870.894 2.7142 -7.72187 0
M  V30 9374 N 873.557 1.20646 1.01402 0
M  V30 9375 C 874.505 0.954493 2.12114 0
M  V30 9376 C 875.499 -0.0950737 1.69133 0
M  V30 9377 O 876.705 0.0555153 1.79914 0
M  V30 9378 H 873.08 0.29135 0.693267 0
M  V30 9379 H 875.051 1.89447 2.30548 0
M  V30 9380 C 873.8 0.525944 3.43699 0
M  V30 9381 H 873.123 1.32516 3.772 0
M  V30 9382 H 874.563 0.388883 4.22213 0
M  V30 9383 C 873.022 -0.761997 3.28169 0
M  V30 9384 O 873.552 -1.81979 3.58115 0
M  V30 9385 N 871.758 -0.725017 2.8141 0
M  V30 9386 H 871.305 0.13607 2.5724 0
M  V30 9387 H 871.263 -1.5871 2.71401 0
M  V30 9388 N 875.035 -1.20752 1.01276 0
M  V30 9389 C 876.281 -1.90302 0.700924 0
M  V30 9390 C 876.614 -1.78406 -0.767142 0
M  V30 9391 O 875.889 -1.16575 -1.55694 0
M  V30 9392 C 876.172 -3.41831 1.13242 0
M  V30 9393 C 876.025 -3.6268 2.66051 0
M  V30 9394 C 877.344 -4.34486 0.700738 0
M  V30 9395 H 874.463 -0.69107 0.256107 0
M  V30 9396 H 877.105 -1.42227 1.25982 0
M  V30 9397 H 875.255 -3.82906 0.656902 0
M  V30 9398 H 876.927 -3.30882 3.21426 0
M  V30 9399 H 875.17 -3.06281 3.07204 0
M  V30 9400 H 875.841 -4.68882 2.91296 0
M  V30 9401 H 878.317 -4.01036 1.10948 0
M  V30 9402 H 877.193 -5.39136 1.03073 0
M  V30 9403 H 877.454 -4.40307 -0.39778 0
M  V30 9404 N 876.513 -0.788492 -1.36457 0
M  V30 9405 C 877.76 -0.360461 -1.99266 0
M  V30 9406 C 878.088 1.0676 -1.62581 0
M  V30 9407 O 877.343 1.75205 -0.871884 0
M  V30 9408 C 877.642 -0.470255 -3.54293 0
M  V30 9409 C 877.308 -1.85899 -4.10795 0
M  V30 9410 C 875.97 -2.23896 -4.25939 0
M  V30 9411 C 878.322 -2.76836 -4.41601 0
M  V30 9412 C 875.65 -3.52235 -4.69199 0
M  V30 9413 C 878.002 -4.04602 -4.86292 0
M  V30 9414 C 876.666 -4.42623 -4.99641 0
M  V30 9415 H 875.936 -0.131902 -0.729166 0
M  V30 9416 H 878.583 -1.00577 -1.62962 0
M  V30 9417 H 876.888 0.258559 -3.90946 0
M  V30 9418 H 878.585 -0.120119 -4.0082 0
M  V30 9419 H 875.175 -1.55372 -3.99447 0
M  V30 9420 H 879.359 -2.48735 -4.2947 0
M  V30 9421 H 874.615 -3.81565 -4.77722 0
M  V30 9422 H 878.789 -4.75182 -5.09092 0
M  V30 9423 H 876.416 -5.42125 -5.32921 0
M  V30 9424 N 877.991 1.48044 -0.54043 0
M  V30 9425 C 878.939 2.31461 0.229862 0
M  V30 9426 C 879.933 1.41884 0.925495 0
M  V30 9427 O 881.139 1.58736 0.848689 0
M  V30 9428 H 877.514 0.746227 0.0929975 0
M  V30 9429 H 879.485 2.94297 -0.493118 0
M  V30 9430 C 878.234 3.24172 1.25729 0
M  V30 9431 H 877.557 3.93052 0.731426 0
M  V30 9432 H 878.997 3.85404 1.76747 0
M  V30 9433 C 877.456 2.4651 2.2964 0
M  V30 9434 O 877.986 2.19742 3.36268 0
M  V30 9435 N 876.192 2.07817 2.03127 0
M  V30 9436 H 875.739 2.29786 1.1643 0
M  V30 9437 H 875.697 1.56168 2.72872 0
M  V30 9438 N 879.47 0.276058 1.55163 0
M  V30 9439 C 880.418 -0.626978 2.2399 0
M  V30 9440 C 881.412 -1.15708 1.23725 0
M  V30 9441 O 882.618 -1.1106 1.41653 0
M  V30 9442 H 878.993 -0.220742 0.718872 0
M  V30 9443 H 880.964 -0.0236569 2.98391 0
M  V30 9444 C 879.713 -1.79935 2.97521 0
M  V30 9445 H 879.036 -1.40064 3.74463 0
M  V30 9446 H 880.476 -2.40781 3.48999 0
M  V30 9447 C 878.935 -2.68838 2.03046 0
M  V30 9448 O 879.465 -3.69224 1.58229 0
M  V30 9449 N 877.671 -2.36028 1.69527 0
M  V30 9450 H 877.218 -1.54442 2.06169 0
M  V30 9451 H 877.176 -2.95782 1.06586 0
M  V30 9452 N 880.948 -1.576 0.00335426 0
M  V30 9453 C 881.878 -2.11668 -0.985839 0
M  V30 9454 C 882.859 -1.02661 -1.35627 0
M  V30 9455 O 884.044 -1.30361 -1.43943 0
M  V30 9456 C 881.174 -2.62273 -2.27662 0
M  V30 9457 C 880.128 -3.75837 -2.0477 0
M  V30 9458 C 879.454 -4.12769 -3.39891 0
M  V30 9459 C 880.754 -5.02975 -1.40759 0
M  V30 9460 H 882.448 -2.9457 -0.535637 0
M  V30 9461 H 879.994 -1.41702 -0.256204 0
M  V30 9462 H 881.947 -2.98727 -2.97221 0
M  V30 9463 H 880.671 -1.76498 -2.74802 0
M  V30 9464 H 879.33 -3.39782 -1.37636 0
M  V30 9465 H 878.978 -3.24013 -3.8474 0
M  V30 9466 H 878.678 -4.89281 -3.25389 0
M  V30 9467 H 880.202 -4.51784 -4.1076 0
M  V30 9468 H 881.616 -5.37179 -2.00279 0
M  V30 9469 H 880.013 -5.84315 -1.36734 0
M  V30 9470 H 881.083 -4.83431 -0.377218 0
M  V30 9471 N 882.426 0.269451 -1.5528 0
M  V30 9472 C 883.373 1.33316 -1.88403 0
M  V30 9473 C 884.343 1.48909 -0.735881 0
M  V30 9474 O 885.528 1.63259 -0.987479 0
M  V30 9475 C 882.668 2.68778 -2.16454 0
M  V30 9476 C 881.781 2.61377 -3.43956 0
M  V30 9477 C 880.916 3.89042 -3.6169 0
M  V30 9478 C 879.955 3.76166 -4.82872 0
M  V30 9479 N 879.092 4.95673 -4.97245 0
M  V30 9480 H 883.932 1.04368 -2.79126 0
M  V30 9481 H 881.469 0.504147 -1.38191 0
M  V30 9482 H 883.427 3.47599 -2.30719 0
M  V30 9483 H 882.057 2.9592 -1.28961 0
M  V30 9484 H 881.109 1.74247 -3.38145 0
M  V30 9485 H 882.421 2.47764 -4.32914 0
M  V30 9486 H 881.575 4.76304 -3.75791 0
M  V30 9487 H 880.314 4.05526 -2.70924 0
M  V30 9488 H 879.319 2.87287 -4.68771 0
M  V30 9489 H 880.544 3.61198 -5.75077 0
M  V30 9490 H 878.49 5.12561 -4.09411 0
M  V30 9491 H 878.407 4.84605 -5.80254 0
M  V30 9492 H 879.675 5.84498 -5.15735 0
M  V30 9493 N 883.904 1.48273 0.534124 0
M  V30 9494 C 885.129 1.59988 1.31979 0
M  V30 9495 C 885.554 0.258824 1.86311 0
M  V30 9496 O 884.912 -0.768885 1.64188 0
M  V30 9497 C 884.96 2.64642 2.44943 0
M  V30 9498 O 884.064 2.21515 3.47858 0
M  V30 9499 H 883.405 0.536625 0.391063 0
M  V30 9500 H 885.935 1.94229 0.643135 0
M  V30 9501 H 885.945 2.85786 2.91187 0
M  V30 9502 H 884.62 3.62004 2.04758 0
M  V30 9503 H 883.197 2.10567 3.0776 0
M  V30 9504 N 885.382 -0.782676 1.36792 0
M  V30 9505 C 886.612 -1.56934 1.3437 0
M  V30 9506 C 887.02 -1.89049 -0.0754828 0
M  V30 9507 O 886.363 -1.51103 -1.04467 0
M  V30 9508 C 886.425 -2.91311 2.10661 0
M  V30 9509 C 886.089 -2.81889 3.59705 0
M  V30 9510 C 887.086 -2.53668 4.53815 0
M  V30 9511 C 884.771 -3.00254 4.02682 0
M  V30 9512 C 886.765 -2.43925 5.8888 0
M  V30 9513 C 884.452 -2.90132 5.37835 0
M  V30 9514 C 885.45 -2.62006 6.30747 0
M  V30 9515 O 885.138 -2.5189 7.63418 0
M  V30 9516 H 884.87 -0.493194 0.462316 0
M  V30 9517 H 887.424 -0.978791 1.80579 0
M  V30 9518 H 885.654 -3.52443 1.59125 0
M  V30 9519 H 887.343 -3.52632 2.01012 0
M  V30 9520 H 888.109 -2.39176 4.21924 0
M  V30 9521 H 883.988 -3.21151 3.30731 0
M  V30 9522 H 887.532 -2.21892 6.6137 0
M  V30 9523 H 883.429 -3.04189 5.69332 0
M  V30 9524 H 884.197 -2.67321 7.73616 0
M  V30 9525 N 886.86 -1.21182 -1.00761 0
M  V30 9526 C 888.085 -1.05411 -1.78615 0
M  V30 9527 C 888.51 0.391837 -1.83973 0
M  V30 9528 O 887.868 1.28256 -1.28141 0
M  V30 9529 C 887.916 -1.65285 -3.20489 0
M  V30 9530 O 887.02 -0.896558 -4.02536 0
M  V30 9531 H 886.361 -0.37116 -0.550578 0
M  V30 9532 H 888.891 -1.60669 -1.26676 0
M  V30 9533 H 888.901 -1.69397 -3.71172 0
M  V30 9534 H 887.576 -2.70514 -3.15904 0
M  V30 9535 H 886.153 -0.930335 -3.61108 0
M  V30 9536 N 888.338 1.20213 -1.01915 0
M  V30 9537 C 889.615 1.85348 -0.62495 0
M  V30 9538 C 889.995 1.91101 0.896854 0
M  V30 9539 O 889.343 1.42075 1.78961 0
M  V30 9540 C 889.553 3.24849 -1.27571 0
M  V30 9541 C 890.901 4.01107 -1.39277 0
M  V30 9542 O 891.925 3.34211 -1.23212 0
M  V30 9543 O 890.784 5.20914 -1.6526 0
M  V30 9544 H 887.878 0.798303 -0.215965 0
M  V30 9545 H 890.424 1.27782 -1.11669 0
M  V30 9546 H 889.196 3.1544 -2.31545 0
M  V30 9547 H 888.819 3.90049 -0.77122 0
M  V30 9548 N 889.816 0.795718 1.36037 0
M  V30 9549 C 891.065 0.367575 1.98322 0
M  V30 9550 C 891.378 -1.06823 1.63854 0
M  V30 9551 O 892.584 -1.59895 2.19421 0
M  V30 9552 C 891.04 0.606272 3.54757 0
M  V30 9553 C 890.648 2.0539 3.98144 0
M  V30 9554 C 892.392 0.242947 4.23804 0
M  V30 9555 C 890.299 2.23893 5.47381 0
M  V30 9556 H 889.229 0.133699 0.742052 0
M  V30 9557 H 891.88 0.978242 1.5525 0
M  V30 9558 H 890.262 -0.0741957 3.9593 0
M  V30 9559 H 891.436 2.77129 3.68152 0
M  V30 9560 H 889.751 2.37607 3.41953 0
M  V30 9561 H 892.348 0.359382 5.33491 0
M  V30 9562 H 892.691 -0.809661 4.08351 0
M  V30 9563 H 893.224 0.876899 3.88015 0
M  V30 9564 H 889.963 3.27559 5.6779 0
M  V30 9565 H 889.483 1.56666 5.78978 0
M  V30 9566 H 891.162 2.04914 6.13693 0
M  V30 9567 N 891.294 -1.47756 0.548274 0
M  V30 9568 C 892.257 -2.28379 -0.193857 0
M  V30 9569 C 893.257 -1.36436 -0.850986 0
M  V30 9570 O 894.447 -1.59154 -0.70822 0
M  V30 9571 C 891.579 -3.15858 -1.28243 0
M  V30 9572 H 892.772 -2.95458 0.514231 0
M  V30 9573 H 890.325 -1.53298 0.304879 0
M  V30 9574 H 891.06 -2.5345 -2.0232 0
M  V30 9575 H 890.845 -3.83512 -0.816148 0
M  V30 9576 H 892.335 -3.76627 -1.80393 0
M  V30 9577 N 892.772 -0.284283 -1.55015 0
M  V30 9578 C 893.72 0.615091 -2.2432 0
M  V30 9579 C 894.714 1.15051 -1.24337 0
M  V30 9580 O 895.92 1.10308 -1.4224 0
M  V30 9581 H 892.295 0.216927 -0.720033 0
M  V30 9582 H 894.266 0.00783216 -2.98399 0
M  V30 9583 C 893.015 1.78355 -2.98471 0
M  V30 9584 H 892.338 1.38076 -3.752 0
M  V30 9585 H 893.778 2.38927 -3.50271 0
M  V30 9586 C 892.237 2.67757 -2.04469 0
M  V30 9587 O 892.767 3.6838 -1.60185 0
M  V30 9588 N 890.973 2.35125 -1.70776 0
M  V30 9589 H 890.52 1.53346 -2.06985 0
M  V30 9590 H 890.478 2.95212 -1.08153 0
M  V30 9591 N 894.251 1.57596 -0.0117121 0
M  V30 9592 C 895.184 2.04624 1.01016 0
M  V30 9593 C 896.162 0.938437 1.32786 0
M  V30 9594 O 897.346 1.20746 1.44751 0
M  V30 9595 C 894.473 2.45369 2.33477 0
M  V30 9596 C 893.519 3.66998 2.17289 0
M  V30 9597 S 894.352 5.14412 1.48795 0
M  V30 9598 C 895.508 5.58438 2.82662 0
M  V30 9599 H 895.741 2.9098 0.60977 0
M  V30 9600 H 893.274 1.53106 0.199494 0
M  V30 9601 H 895.232 2.69511 3.09635 0
M  V30 9602 H 893.893 1.59391 2.70653 0
M  V30 9603 H 893.086 3.93297 3.15172 0
M  V30 9604 H 892.688 3.42918 1.49275 0
M  V30 9605 H 894.98 5.61614 3.78941 0
M  V30 9606 H 895.923 6.58224 2.61049 0
M  V30 9607 H 896.331 4.86033 2.8711 0
M  V30 9608 N 895.729 -0.261212 1.5542 0
M  V30 9609 C 896.677 -1.34298 1.89913 0
M  V30 9610 C 897.671 -1.50547 0.776665 0
M  V30 9611 O 898.877 -1.52191 0.961139 0
M  V30 9612 H 895.252 -0.4494 0.602946 0
M  V30 9613 H 897.223 -1.02464 2.80256 0
M  V30 9614 C 895.972 -2.69423 2.19788 0
M  V30 9615 H 895.295 -2.57715 3.05652 0
M  V30 9616 H 896.735 -3.44026 2.47835 0
M  V30 9617 C 895.194 -3.21423 1.00939 0
M  V30 9618 O 895.724 -4.00921 0.250034 0
M  V30 9619 N 893.93 -2.7926 0.803883 0
M  V30 9620 H 893.477 -2.14724 1.42308 0
M  V30 9621 H 893.435 -3.14398 0.0103257 0
M  V30 9622 N 897.207 -1.48554 -0.526253 0
M  V30 9623 C 898.154 -1.63354 -1.63046 0
M  V30 9624 C 899.124 -0.475509 -1.59148 0
M  V30 9625 O 900.309 -0.699453 -1.77517 0
M  V30 9626 C 897.449 -1.68271 -3.01295 0
M  V30 9627 C 896.562 -2.95207 -3.15399 0
M  V30 9628 C 895.697 -2.91262 -4.4423 0
M  V30 9629 C 894.736 -4.12886 -4.51876 0
M  V30 9630 N 893.873 -4.06996 -5.721 0
M  V30 9631 H 898.713 -2.57649 -1.49737 0
M  V30 9632 H 896.25 -1.27769 -0.728938 0
M  V30 9633 H 898.208 -1.69104 -3.81392 0
M  V30 9634 H 896.838 -0.774641 -3.13367 0
M  V30 9635 H 895.89 -3.04102 -2.2853 0
M  V30 9636 H 897.202 -3.85187 -3.1691 0
M  V30 9637 H 896.356 -2.90516 -5.32621 0
M  V30 9638 H 895.095 -1.99016 -4.45246 0
M  V30 9639 H 894.1 -4.13902 -3.61891 0
M  V30 9640 H 895.325 -5.06294 -4.52596 0
M  V30 9641 H 893.271 -3.17573 -5.74006 0
M  V30 9642 H 893.188 -4.90685 -5.75121 0
M  V30 9643 H 894.456 -4.10315 -6.62768 0
M  V30 9644 N 898.685 0.775411 -1.37205 0
M  V30 9645 C 899.618 1.8957 -1.27037 0
M  V30 9646 C 900.596 1.61891 -0.151643 0
M  V30 9647 O 901.78 1.85673 -0.325218 0
M  V30 9648 C 898.907 3.24712 -0.963316 0
M  V30 9649 C 897.953 3.71306 -2.09842 0
M  V30 9650 S 898.786 3.8541 -3.71778 0
M  V30 9651 C 899.942 5.23406 -3.43216 0
M  V30 9652 H 900.175 1.97905 -2.21857 0
M  V30 9653 H 897.708 0.936127 -1.22784 0
M  V30 9654 H 899.666 4.02768 -0.792983 0
M  V30 9655 H 898.327 3.14083 -0.0326561 0
M  V30 9656 H 897.52 4.69271 -1.83849 0
M  V30 9657 H 897.122 3.00341 -2.2287 0
M  V30 9658 H 899.414 6.08454 -2.97977 0
M  V30 9659 H 900.357 5.54409 -4.40495 0
M  V30 9660 H 900.765 4.9117 -2.78231 0
M  V30 9661 N 900.163 1.21714 1.00117 0
M  V30 9662 C 901.093 1.00397 2.10815 0
M  V30 9663 C 902.074 -0.0723502 1.69946 0
M  V30 9664 O 903.259 0.0882398 1.93999 0
M  V30 9665 C 900.389 0.572001 3.42557 0
M  V30 9666 C 899.343 1.59331 3.97237 0
M  V30 9667 C 898.669 1.01746 5.2493 0
M  V30 9668 C 899.969 2.98117 4.28863 0
M  V30 9669 H 901.663 1.92983 2.28906 0
M  V30 9670 H 899.209 0.929273 1.10002 0
M  V30 9671 H 901.162 0.410018 4.19401 0
M  V30 9672 H 899.886 -0.38951 3.24269 0
M  V30 9673 H 898.545 1.74293 3.22518 0
M  V30 9674 H 898.193 0.0475491 5.02978 0
M  V30 9675 H 897.893 1.69969 5.62481 0
M  V30 9676 H 899.417 0.866881 6.04415 0
M  V30 9677 H 900.831 2.86578 4.96534 0
M  V30 9678 H 899.228 3.63389 4.77565 0
M  V30 9679 H 900.298 3.48674 3.36979 0
M  V30 9680 N 901.641 -1.19671 1.02551 0
M  V30 9681 C 902.589 -2.24812 0.596867 0
M  V30 9682 C 903.583 -1.65336 -0.368839 0
M  V30 9683 O 904.789 -1.78422 -0.237786 0
M  V30 9684 H 901.164 -0.731417 0.174739 0
M  V30 9685 H 903.135 -2.58286 1.49435 0
M  V30 9686 C 901.884 -3.47677 -0.0399514 0
M  V30 9687 H 901.207 -3.93728 0.694153 0
M  V30 9688 H 902.647 -4.22917 -0.302861 0
M  V30 9689 C 901.106 -3.11411 -1.2855 0
M  V30 9690 O 901.636 -3.23757 -2.37791 0
M  V30 9691 N 899.842 -2.65875 -1.17297 0
M  V30 9692 H 899.389 -2.56029 -0.284045 0
M  V30 9693 H 899.347 -2.41981 -2.00731 0
M  V30 9694 N 903.119 -0.802921 -1.35613 0
M  V30 9695 C 904.396 -0.304993 -1.93208 0
M  V30 9696 C 904.776 1.20488 -1.73337 0
M  V30 9697 O 904.124 2.00268 -1.10022 0
M  V30 9698 C 904.334 -0.712383 -3.41652 0
M  V30 9699 C 905.682 -0.699785 -4.18794 0
M  V30 9700 O 906.706 -0.653698 -3.5015 0
M  V30 9701 O 905.565 -0.754842 -5.41262 0
M  V30 9702 H 902.659 -0.0789127 -0.823226 0
M  V30 9703 H 905.205 -0.886372 -1.44712 0
M  V30 9704 H 903.977 -1.75316 -3.49829 0
M  V30 9705 H 903.6 -0.105614 -3.9746 0
M  V30 9706 N 904.597 1.47463 -0.556102 0
M  V30 9707 C 905.822 2.07371 -0.0344729 0
M  V30 9708 C 906.247 1.40621 1.2493 0
M  V30 9709 O 905.605 0.48082 1.74808 0
M  V30 9710 C 905.653 3.60306 0.145563 0
M  V30 9711 O 904.757 3.94299 1.20839 0
M  V30 9712 H 904.098 0.662052 -0.0508274 0
M  V30 9713 H 906.628 1.89498 -0.771469 0
M  V30 9714 H 906.638 4.06408 0.360112 0
M  V30 9715 H 905.313 4.08288 -0.792089 0
M  V30 9716 H 903.89 3.59944 0.97442 0
M  V30 9717 N 906.075 0.2925 1.54862 0
M  V30 9718 C 907.303 -0.322113 2.04377 0
M  V30 9719 C 907.718 -1.48164 1.17016 0
M  V30 9720 O 907.075 -1.81466 0.19395 0
M  V30 9721 C 907.126 -0.786506 3.5284 0
M  V30 9722 O 906.847 0.326863 4.36879 0
M  V30 9723 C 908.348 -1.46715 4.18318 0
M  V30 9724 H 905.568 -0.0712074 0.667211 0
M  V30 9725 H 908.112 0.429657 1.99935 0
M  V30 9726 H 906.267 -1.48832 3.5767 0
M  V30 9727 H 906.681 -0.0331558 5.2449 0
M  V30 9728 H 908.155 -1.74333 5.23748 0
M  V30 9729 H 908.632 -2.40443 3.67538 0
M  V30 9730 H 909.238 -0.808735 4.1754 0
M  V30 9731 N 907.553 -1.57587 0.0200696 0
M  V30 9732 C 908.799 -1.91708 -0.661503 0
M  V30 9733 C 909.132 -0.895968 -1.72296 0
M  V30 9734 O 908.407 0.082577 -1.94325 0
M  V30 9735 C 908.69 -3.36344 -1.28627 0
M  V30 9736 C 908.543 -4.49186 -0.234982 0
M  V30 9737 C 909.862 -3.80771 -2.20685 0
M  V30 9738 H 906.981 -0.69717 -0.239005 0
M  V30 9739 H 909.623 -1.8985 0.0754764 0
M  V30 9740 H 907.773 -3.38058 -1.91439 0
M  V30 9741 H 909.445 -4.59606 0.395011 0
M  V30 9742 H 907.688 -4.31557 0.440565 0
M  V30 9743 H 908.359 -5.47395 -0.711558 0
M  V30 9744 H 910.835 -3.80735 -1.67868 0
M  V30 9745 H 909.711 -4.82685 -2.61356 0
M  V30 9746 H 909.972 -3.15764 -3.09428 0
M  V30 9747 N 909.032 0.252966 -1.55557 0
M  V30 9748 C 909.995 1.29645 -1.8901 0
M  V30 9749 C 910.995 1.41378 -0.766096 0
M  V30 9750 O 912.185 1.40183 -1.03414 0
M  V30 9751 C 909.317 2.67504 -2.11316 0
M  V30 9752 H 910.51 1.01202 -2.82309 0
M  V30 9753 H 908.063 0.491977 -1.48355 0
M  V30 9754 H 908.798 3.01095 -1.20466 0
M  V30 9755 H 908.583 2.6037 -2.93172 0
M  V30 9756 H 910.073 3.42861 -2.38403 0
M  V30 9757 N 910.51 1.48831 0.518367 0
M  V30 9758 C 911.738 1.6112 1.298 0
M  V30 9759 C 912.153 0.275872 1.86774 0
M  V30 9760 O 911.51 -0.736416 1.66983 0
M  V30 9761 C 911.561 2.66675 2.44063 0
M  V30 9762 O 911.282 3.95027 1.89434 0
M  V30 9763 C 912.783 2.8951 3.35706 0
M  V30 9764 H 910.003 0.542916 0.394314 0
M  V30 9765 H 912.547 1.94743 0.624142 0
M  V30 9766 H 910.702 2.35879 3.07311 0
M  V30 9767 H 911.116 4.53031 2.64316 0
M  V30 9768 H 912.59 3.67142 4.12202 0
M  V30 9769 H 913.067 1.98768 3.91648 0
M  V30 9770 H 913.673 3.21656 2.7824 0
M  V30 9771 N 911.988 -0.768124 1.37614 0
M  V30 9772 C 912.935 -1.88151 1.33671 0
M  V30 9773 C 913.905 -1.64871 0.201645 0
M  V30 9774 O 915.09 -1.86739 0.391582 0
M  V30 9775 C 912.23 -3.25264 1.15314 0
M  V30 9776 C 911.343 -3.60473 2.38082 0
M  V30 9777 C 910.478 -4.86814 2.12569 0
M  V30 9778 C 909.517 -5.14765 3.31184 0
M  V30 9779 N 908.654 -6.32295 3.052 0
M  V30 9780 H 913.494 -1.90857 2.28862 0
M  V30 9781 H 911.031 -0.933048 1.13722 0
M  V30 9782 H 912.989 -4.04364 1.02691 0
M  V30 9783 H 911.619 -3.21924 0.237689 0
M  V30 9784 H 910.671 -2.7633 2.61431 0
M  V30 9785 H 911.983 -3.77065 3.26532 0
M  V30 9786 H 911.137 -5.73826 1.96999 0
M  V30 9787 H 909.876 -4.72333 1.21462 0
M  V30 9788 H 908.881 -4.26227 3.4729 0
M  V30 9789 H 910.106 -5.31153 4.23147 0
M  V30 9790 H 908.052 -6.19166 2.16726 0
M  V30 9791 H 907.969 -6.4932 3.87195 0
M  V30 9792 H 909.237 -7.22234 2.93254 0
M  V30 9793 N 913.466 -1.22244 -0.994698 0
M  V30 9794 C 914.877 -1.043 -1.5485 0
M  V30 9795 C 915.228 0.394102 -1.92201 0
M  V30 9796 O 914.353 1.27883 -1.74571 0
M  V30 9797 C 914.948 -1.88708 -2.8138 0
M  V30 9798 C 913.507 -1.75067 -3.3321 0
M  V30 9799 C 912.654 -1.85286 -2.06312 0
M  V30 9800 H 915.605 -1.36115 -0.815988 0
M  V30 9801 H 915.626 -1.40342 -3.53673 0
M  V30 9802 H 915.138 -2.93296 -2.54164 0
M  V30 9803 H 913.239 -0.732047 -3.65338 0
M  V30 9804 H 913.352 -2.57632 -4.03934 0
M  V30 9805 H 911.716 -1.28706 -2.19788 0
M  V30 9806 H 912.499 -2.91401 -1.81494 0
M  V30 9807 N 914.944 1.19125 -1.03184 0
M  V30 9808 C 915.874 2.24675 -0.635889 0
M  V30 9809 C 916.855 1.66321 0.356565 0
M  V30 9810 O 918.04 1.92728 0.238625 0
M  V30 9811 C 915.17 3.47298 0.011069 0
M  V30 9812 C 914.124 4.18345 -0.903979 0
M  V30 9813 C 913.45 5.34561 -0.12197 0
M  V30 9814 C 914.75 4.72816 -2.21907 0
M  V30 9815 H 916.444 2.5805 -1.51825 0
M  V30 9816 H 913.99 1.24039 -0.73146 0
M  V30 9817 H 915.943 4.20333 0.299729 0
M  V30 9818 H 914.667 3.13131 0.928245 0
M  V30 9819 H 913.326 3.47196 -1.17688 0
M  V30 9820 H 912.974 4.9664 0.797334 0
M  V30 9821 H 912.674 5.83029 -0.731498 0
M  V30 9822 H 914.198 6.10391 0.159881 0
M  V30 9823 H 915.612 5.3759 -1.99173 0
M  V30 9824 H 914.009 5.31782 -2.78078 0
M  V30 9825 H 915.079 3.9072 -2.87168 0
M  V30 9826 N 916.422 0.810101 1.35185 0
M  V30 9827 C 917.369 0.220927 2.2974 0
M  V30 9828 C 918.339 -0.647024 1.5298 0
M  V30 9829 O 919.524 -0.591367 1.81404 0
M  V30 9830 C 916.664 -0.62167 3.39454 0
M  V30 9831 C 915.777 0.267104 4.31173 0
M  V30 9832 C 914.912 -0.583833 5.27982 0
M  V30 9833 C 913.951 0.305123 6.11339 0
M  V30 9834 N 913.088 -0.505992 7.00274 0
M  V30 9835 H 917.928 1.03266 2.79536 0
M  V30 9836 H 915.465 0.520768 1.37573 0
M  V30 9837 H 917.423 -1.12539 4.01735 0
M  V30 9838 H 916.053 -1.39863 2.90926 0
M  V30 9839 H 915.105 0.88895 3.69867 0
M  V30 9840 H 916.417 0.951182 4.89647 0
M  V30 9841 H 915.571 -1.15254 5.95652 0
M  V30 9842 H 914.31 -1.30146 4.70014 0
M  V30 9843 H 913.315 0.886075 5.42613 0
M  V30 9844 H 914.54 1.02067 6.71386 0
M  V30 9845 H 912.486 -1.20753 6.4479 0
M  V30 9846 H 912.403 0.119966 7.55905 0
M  V30 9847 H 913.671 -1.05787 7.72288 0
M  V30 9848 N 917.9 -1.47166 0.563914 0
M  V30 9849 C 919.125 -2.0735 0.0454698 0
M  V30 9850 C 919.55 -1.41281 -1.24182 0
M  V30 9851 O 918.908 -0.490084 -1.7455 0
M  V30 9852 C 918.956 -3.60378 -0.126453 0
M  V30 9853 O 918.06 -3.94934 -1.18746 0
M  V30 9854 H 917.401 -0.661773 0.0543377 0
M  V30 9855 H 919.931 -1.89086 0.781508 0
M  V30 9856 H 919.941 -4.06593 -0.338554 0
M  V30 9857 H 918.616 -4.07862 0.81373 0
M  V30 9858 H 917.193 -3.60455 -0.955318 0
M  V30 9859 N 919.378 -0.300708 -1.54705 0
M  V30 9860 C 920.326 0.591264 -2.2496 0
M  V30 9861 C 921.32 1.13725 -1.2555 0
M  V30 9862 O 922.526 1.08793 -1.43402 0
M  V30 9863 H 918.901 0.209278 -0.722293 0
M  V30 9864 H 920.872 -0.0238175 -2.9839 0
M  V30 9865 C 919.621 1.75179 -3.00346 0
M  V30 9866 H 918.944 1.34089 -3.76643 0
M  V30 9867 H 920.384 2.35198 -3.52786 0
M  V30 9868 C 918.843 2.65574 -2.07298 0
M  V30 9869 O 919.373 3.6666 -1.64083 0
M  V30 9870 N 917.579 2.33301 -1.7326 0
M  V30 9871 H 917.126 1.51142 -2.08599 0
M  V30 9872 H 917.084 2.94049 -1.11278 0
M  V30 9873 N 920.856 1.57574 -0.0284266 0
M  V30 9874 C 921.786 2.1321 0.952039 0
M  V30 9875 C 922.767 1.04806 1.33977 0
M  V30 9876 O 923.952 1.32635 1.41851 0
M  V30 9877 C 921.082 2.65862 2.23461 0
M  V30 9878 C 920.036 3.79047 1.98765 0
M  V30 9879 C 919.362 4.18124 3.33281 0
M  V30 9880 C 920.662 5.05151 1.32739 0
M  V30 9881 H 922.356 2.95385 0.488705 0
M  V30 9882 H 919.902 1.42092 0.233628 0
M  V30 9883 H 921.855 3.03417 2.92431 0
M  V30 9884 H 920.579 1.80848 2.71959 0
M  V30 9885 H 919.238 3.41929 1.32213 0
M  V30 9886 H 918.886 3.30092 3.79537 0
M  V30 9887 H 918.586 4.94396 3.17563 0
M  V30 9888 H 920.11 4.58262 4.0352 0
M  V30 9889 H 921.524 5.40297 1.91708 0
M  V30 9890 H 919.921 5.86416 1.27421 0
M  V30 9891 H 920.991 4.83969 0.300261 0
M  V30 9892 N 922.334 -0.244713 1.55689 0
M  V30 9893 C 923.559 -0.994157 1.8202 0
M  V30 9894 C 923.984 -1.78079 0.60577 0
M  V30 9895 O 923.342 -1.75748 -0.445221 0
M  V30 9896 C 923.39 -1.90599 3.06111 0
M  V30 9897 O 922.494 -2.99804 2.8318 0
M  V30 9898 H 921.835 -0.282767 0.600782 0
M  V30 9899 H 924.365 -0.26504 2.02876 0
M  V30 9900 H 924.375 -2.32023 3.35603 0
M  V30 9901 H 923.05 -1.32763 3.9414 0
M  V30 9902 H 921.627 -2.62493 2.64862 0
M  V30 9903 N 923.813 -1.49104 -0.510467 0
M  V30 9904 C 925.041 -1.61806 -1.28944 0
M  V30 9905 C 925.456 -0.285774 -1.86625 0
M  V30 9906 O 924.813 0.727551 -1.67371 0
M  V30 9907 C 924.864 -2.67966 -2.42645 0
M  V30 9908 O 924.585 -3.96026 -1.87337 0
M  V30 9909 C 926.086 -2.91286 -3.34166 0
M  V30 9910 H 923.306 -0.544999 -0.391429 0
M  V30 9911 H 925.85 -1.95071 -0.613805 0
M  V30 9912 H 924.005 -2.37505 -3.06056 0
M  V30 9913 H 924.419 -4.54427 -2.61909 0
M  V30 9914 H 925.893 -3.69323 -4.1025 0
M  V30 9915 H 926.37 -2.00842 -3.90588 0
M  V30 9916 H 926.976 -3.23127 -2.76531 0
M  V30 9917 N 925.291 0.760815 -1.38019 0
M  V30 9918 C 926.538 1.51973 -1.3383 0
M  V30 9919 C 926.866 1.9436 0.0738855 0
M  V30 9920 O 926.121 1.65181 1.04946 0
M  V30 9921 C 926.42 2.79024 -2.23339 0
M  V30 9922 C 926.086 2.55636 -3.71431 0
M  V30 9923 C 924.748 2.48966 -4.11788 0
M  V30 9924 C 927.1 2.35018 -4.65205 0
M  V30 9925 C 924.428 2.19684 -5.44018 0
M  V30 9926 C 926.78 2.07258 -5.97685 0
M  V30 9927 C 925.444 1.9904 -6.37134 0
M  V30 9928 H 924.714 0.556108 -0.489719 0
M  V30 9929 H 927.361 0.87545 -1.70318 0
M  V30 9930 H 925.666 3.48065 -1.79883 0
M  V30 9931 H 927.363 3.36951 -2.17405 0
M  V30 9932 H 923.953 2.61695 -3.39432 0
M  V30 9933 H 928.137 2.39154 -4.34878 0
M  V30 9934 H 923.393 2.11825 -5.73533 0
M  V30 9935 H 927.567 1.90307 -6.69893 0
M  V30 9936 H 925.194 1.76115 -7.39519 0
M  V30 9937 N 926.769 1.22769 0.988202 0
M  V30 9938 C 927.717 0.999271 2.10041 0
M  V30 9939 C 928.711 -0.0591767 1.69297 0
M  V30 9940 O 929.917 0.0936653 1.79756 0
M  V30 9941 H 926.292 0.30599 0.686931 0
M  V30 9942 H 928.263 1.94294 2.26478 0
M  V30 9943 C 927.012 0.59873 3.42506 0
M  V30 9944 H 926.335 1.40487 3.74304 0
M  V30 9945 H 927.775 0.478353 4.21293 0
M  V30 9946 C 926.234 -0.692216 3.29712 0
M  V30 9947 O 926.764 -1.74342 3.61895 0
M  V30 9948 N 924.97 -0.665163 2.82885 0
M  V30 9949 H 924.517 0.190604 2.56894 0
M  V30 9950 H 924.475 -1.52917 2.74706 0
M  V30 9951 N 928.247 -1.18576 1.03814 0
M  V30 9952 C 929.472 -1.92978 0.759873 0
M  V30 9953 C 929.897 -1.75514 -0.676486 0
M  V30 9954 O 929.255 -1.06359 -1.46824 0
M  V30 9955 C 929.303 -3.42507 1.12788 0
M  V30 9956 O 928.407 -4.1163 0.251886 0
M  V30 9957 H 927.748 -0.602129 0.279886 0
M  V30 9958 H 930.278 -1.50383 1.3873 0
M  V30 9959 H 930.288 -3.93206 1.08872 0
M  V30 9960 H 928.963 -3.5454 2.17427 0
M  V30 9961 H 927.54 -3.7125 0.350441 0
M  V30 9962 N 929.725 -0.817259 -1.34754 0
M  V30 9963 C 930.658 -0.180483 -2.27485 0
M  V30 9964 C 931.636 0.659792 -1.48612 0
M  V30 9965 O 932.82 0.624761 -1.77845 0
M  V30 9966 C 929.947 0.748487 -3.30326 0
M  V30 9967 C 928.993 -0.0135304 -4.26498 0
M  V30 9968 S 929.826 -1.35685 -5.18025 0
M  V30 9969 C 930.982 -0.432605 -6.24403 0
M  V30 9970 H 931.215 -0.966677 -2.81145 0
M  V30 9971 H 928.748 -0.612864 -1.41716 0
M  V30 9972 H 930.706 1.27893 -3.90069 0
M  V30 9973 H 929.367 1.50816 -2.75524 0
M  V30 9974 H 928.56 0.692454 -4.9922 0
M  V30 9975 H 928.162 -0.474344 -3.7098 0
M  V30 9976 H 930.454 0.378035 -6.76444 0
M  V30 9977 H 931.397 -1.12934 -6.99036 0
M  V30 9978 H 931.805 -0.0235533 -5.64495 0
M  V30 9979 N 931.203 1.46865 -0.571711 0
M  V30 9980 C 932.48 1.95596 0.0132445 0
M  V30 9981 C 932.86 1.51438 1.47071 0
M  V30 9982 O 932.208 0.759917 2.15494 0
M  V30 9983 C 932.418 3.48689 -0.147335 0
M  V30 9984 C 933.766 4.24599 -0.00946329 0
M  V30 9985 O 934.79 3.5612 -0.0756112 0
M  V30 9986 O 933.649 5.46332 0.135361 0
M  V30 9987 H 930.743 0.825102 0.0560039 0
M  V30 9988 H 933.289 1.57199 -0.639256 0
M  V30 9989 H 932.061 3.73681 -1.16096 0
M  V30 9990 H 931.684 3.93887 0.542109 0
M  V30 9991 N 932.681 0.308908 1.54543 0
M  V30 9992 C 934.097 -0.0442273 1.59539 0
M  V30 9993 C 934.297 -1.51743 1.32575 0
M  V30 9994 O 933.353 -2.27134 1.10302 0
M  V30 9995 C 934.666 0.360826 2.98527 0
M  V30 9996 C 936.214 0.310252 3.11459 0
M  V30 9997 C 936.689 0.690246 4.52769 0
M  V30 9998 N 938.18 0.643084 4.58714 0
M  V30 9999 C 938.915 0.909483 5.66141 0
M  V30 10000 N 938.411 1.24226 6.81572 0
M  V30 10001 N 940.204 0.836018 5.55848 0
M  V30 10002 H 932.355 1.26893 1.70329 0
M  V30 10003 H 934.618 0.514986 0.795923 0
M  V30 10004 H 934.324 1.38669 3.23209 0
M  V30 10005 H 934.198 -0.281563 3.76148 0
M  V30 10006 H 936.585 -0.706375 2.86521 0
M  V30 10007 H 936.666 0.987373 2.35976 0
M  V30 10008 H 936.31 1.70472 4.78437 0
M  V30 10009 H 936.24 -0.00903075 5.26599 0
M  V30 10010 H 938.731 0.397138 3.75807 0
M  V30 10011 H 939.044 1.4313 7.5943 0
M  V30 10012 H 937.389 1.28038 6.83104 0
M  V30 10013 H 940.58 0.575637 4.64547 0
M  V30 10014 H 940.753 1.047 6.39486 0
M  V30 10015 N 934.159 -1.57557 0.0367827 0
M  V30 10016 C 935.089 -2.13712 -0.940719 0
M  V30 10017 C 936.07 -1.05515 -1.33419 0
M  V30 10018 O 937.255 -1.33385 -1.41146 0
M  V30 10019 C 934.385 -2.67043 -2.22048 0
M  V30 10020 C 933.339 -3.80096 -1.96752 0
M  V30 10021 C 932.665 -4.19886 -3.31059 0
M  V30 10022 C 933.965 -5.05848 -1.30058 0
M  V30 10023 H 935.659 -2.9564 -0.473033 0
M  V30 10024 H 933.205 -1.42214 -0.226089 0
M  V30 10025 H 935.158 -3.04964 -2.90818 0
M  V30 10026 H 933.882 -1.82287 -2.70996 0
M  V30 10027 H 932.541 -3.42625 -1.30398 0
M  V30 10028 H 932.189 -3.32101 -3.77781 0
M  V30 10029 H 931.889 -4.96073 -3.14937 0
M  V30 10030 H 933.413 -4.60395 -4.01084 0
M  V30 10031 H 934.827 -5.41306 -1.8884 0
M  V30 10032 H 933.224 -5.87084 -1.24309 0
M  V30 10033 H 934.294 -4.84122 -0.274591 0
M  V30 10034 N 935.637 0.236453 -1.55816 0
M  V30 10035 C 936.6 1.27633 -1.90375 0
M  V30 10036 C 937.6 1.40557 -0.781048 0
M  V30 10037 O 938.79 1.39078 -1.04895 0
M  V30 10038 C 935.922 2.65247 -2.14142 0
M  V30 10039 H 937.115 0.982019 -2.83366 0
M  V30 10040 H 934.668 0.476215 -1.48869 0
M  V30 10041 H 935.403 2.99801 -1.23653 0
M  V30 10042 H 935.188 2.57246 -2.95917 0
M  V30 10043 H 936.678 3.40313 -2.42026 0
M  V30 10044 N 937.115 1.49373 0.502552 0
M  V30 10045 C 938.345 1.62252 1.27898 0
M  V30 10046 C 938.753 0.292555 1.86924 0
M  V30 10047 O 938.096 -0.731823 1.68493 0
M  V30 10048 C 938.158 2.63153 2.4493 0
M  V30 10049 C 937.822 4.07541 2.06784 0
M  V30 10050 C 938.819 4.94392 1.60849 0
M  V30 10051 C 936.504 4.53263 2.16466 0
M  V30 10052 C 938.498 6.25003 1.25098 0
M  V30 10053 C 936.185 5.83888 1.80327 0
M  V30 10054 C 937.183 6.69582 1.34718 0
M  V30 10055 O 936.871 7.97773 0.990661 0
M  V30 10056 H 936.603 0.54918 0.394179 0
M  V30 10057 H 939.157 1.96132 0.610031 0
M  V30 10058 H 937.387 2.2445 3.14895 0
M  V30 10059 H 939.076 2.65578 3.06957 0
M  V30 10060 H 939.842 4.60296 1.52816 0
M  V30 10061 H 935.721 3.86731 2.50919 0
M  V30 10062 H 939.265 6.91844 0.894269 0
M  V30 10063 H 935.162 6.17513 1.8801 0
M  V30 10064 H 935.93 8.1077 1.12227 0
M  V30 10065 N 938.594 -0.753485 1.38421 0
M  V30 10066 C 939.824 -1.54049 1.37669 0
M  V30 10067 C 940.232 -1.89167 -0.0353656 0
M  V30 10068 O 939.575 -1.53285 -1.01239 0
M  V30 10069 C 939.637 -2.86777 2.16793 0
M  V30 10070 C 939.301 -2.74196 3.65603 0
M  V30 10071 C 940.298 -2.43985 4.59094 0
M  V30 10072 C 937.983 -2.91645 4.0896 0
M  V30 10073 C 939.977 -2.31379 5.93921 0
M  V30 10074 C 937.664 -2.78658 5.43868 0
M  V30 10075 C 938.662 -2.48568 6.36163 0
M  V30 10076 O 938.35 -2.3564 7.68589 0
M  V30 10077 H 938.082 -0.483276 0.472673 0
M  V30 10078 H 940.636 -0.940267 1.82615 0
M  V30 10079 H 938.866 -3.48988 1.66565 0
M  V30 10080 H 940.555 -3.48289 2.08446 0
M  V30 10081 H 941.321 -2.30172 4.26902 0
M  V30 10082 H 937.2 -3.14063 3.37469 0
M  V30 10083 H 940.744 -2.07813 6.65927 0
M  V30 10084 H 936.641 -2.92044 5.75656 0
M  V30 10085 H 937.409 -2.50851 7.79112 0
M  V30 10086 N 940.072 -1.23292 -0.981677 0
M  V30 10087 C 941.02 -1.0104 -2.09508 0
M  V30 10088 C 942.014 0.0501977 -1.69326 0
M  V30 10089 O 943.22 -0.103197 -1.79704 0
M  V30 10090 H 939.595 -0.309629 -0.685298 0
M  V30 10091 H 941.566 -1.95493 -2.25444 0
M  V30 10092 C 940.315 -0.616885 -3.42184 0
M  V30 10093 H 939.638 -1.4247 -3.73554 0
M  V30 10094 H 941.078 -0.500688 -4.21033 0
M  V30 10095 C 939.537 0.674721 -3.30074 0
M  V30 10096 O 940.067 1.72421 -3.62814 0
M  V30 10097 N 938.273 0.650151 -2.83234 0
M  V30 10098 H 937.82 -0.204225 -2.56789 0
M  V30 10099 H 937.778 1.51458 -2.75514 0
M  V30 10100 N 941.55 1.18024 -1.04442 0
M  V30 10101 C 942.513 2.19992 -0.643136 0
M  V30 10102 C 943.513 1.57949 0.301444 0
M  V30 10103 O 944.703 1.73986 0.0863341 0
M  V30 10104 C 941.835 3.40853 0.0565208 0
M  V30 10105 H 943.028 2.57008 -1.54554 0
M  V30 10106 H 940.581 1.31974 -0.837408 0
M  V30 10107 H 941.316 3.09373 0.972553 0
M  V30 10108 H 941.101 3.87128 -0.622439 0
M  V30 10109 H 942.591 4.16344 0.323652 0
M  V30 10110 N 943.028 0.824394 1.34319 0
M  V30 10111 C 943.938 0.24932 2.33271 0
M  V30 10112 C 944.954 -0.617066 1.62691 0
M  V30 10113 O 946.13 -0.524616 1.94447 0
M  V30 10114 C 943.195 -0.578094 3.41846 0
M  V30 10115 C 942.256 0.310866 4.28173 0
M  V30 10116 C 941.489 -0.477153 5.31563 0
M  V30 10117 O 941.712 -1.71028 5.44156 0
M  V30 10118 O 940.646 0.141287 6.01734 0
M  V30 10119 H 944.472 1.06837 2.84288 0
M  V30 10120 H 942.057 0.58657 1.37403 0
M  V30 10121 H 943.939 -1.04878 4.0814 0
M  V30 10122 H 942.614 -1.37444 2.93071 0
M  V30 10123 H 941.521 0.829081 3.64797 0
M  V30 10124 H 942.854 1.07161 4.80393 0
M  V30 10125 N 944.506 -1.46559 0.579492 0
M  V30 10126 C 945.453 -2.30275 -0.155598 0
M  V30 10127 C 946.423 -1.40422 -0.887175 0
M  V30 10128 O 947.608 -1.69373 -0.878481 0
M  V30 10129 C 944.748 -3.24827 -1.16539 0
M  V30 10130 C 943.861 -4.29778 -0.43759 0
M  V30 10131 C 942.996 -5.11461 -1.43462 0
M  V30 10132 C 942.035 -6.08164 -0.693048 0
M  V30 10133 N 941.172 -6.82726 -1.63799 0
M  V30 10134 H 946.012 -2.92607 0.564356 0
M  V30 10135 H 943.549 -1.44211 0.290126 0
M  V30 10136 H 945.507 -3.78088 -1.76368 0
M  V30 10137 H 944.137 -2.64311 -1.8531 0
M  V30 10138 H 943.189 -3.794 0.27567 0
M  V30 10139 H 944.501 -4.98597 0.142298 0
M  V30 10140 H 943.655 -5.68982 -2.1058 0
M  V30 10141 H 942.394 -4.42595 -2.04844 0
M  V30 10142 H 941.399 -5.49799 -0.00807093 0
M  V30 10143 H 942.624 -6.79047 -0.0846678 0
M  V30 10144 H 940.57 -6.16572 -2.23997 0
M  V30 10145 H 940.487 -7.47795 -1.11082 0
M  V30 10146 H 941.755 -7.44807 -2.29962 0
M  V30 10147 N 945.984 -0.3171 -1.54377 0
M  V30 10148 C 947.261 0.341348 -1.92598 0
M  V30 10149 C 947.641 1.70402 -1.24605 0
M  V30 10150 O 946.989 2.25191 -0.387448 0
M  V30 10151 C 947.199 0.440003 -3.46215 0
M  V30 10152 C 948.547 0.703327 -4.18734 0
M  V30 10153 O 949.571 0.523181 -3.52337 0
M  V30 10154 O 948.43 1.05042 -5.3631 0
M  V30 10155 H 945.524 0.193696 -0.803997 0
M  V30 10156 H 948.07 -0.366341 -1.65699 0
M  V30 10157 H 946.842 -0.517299 -3.87866 0
M  V30 10158 H 946.465 1.19553 -3.792 0
M  V30 10159 N 947.462 1.57535 -0.0451378 0
M  V30 10160 C 948.709 1.92451 0.629987 0
M  V30 10161 C 949.037 0.92298 1.71206 0
M  V30 10162 O 948.292 -0.0656626 1.9559 0
M  V30 10163 C 948.591 3.34065 1.27024 0
M  V30 10164 C 948.257 4.49785 0.316971 0
M  V30 10165 C 946.919 4.81169 0.0546406 0
M  V30 10166 C 949.271 5.20111 -0.336693 0
M  V30 10167 C 946.599 5.8023 -0.86889 0
M  V30 10168 C 948.951 6.2016 -1.24838 0
M  V30 10169 C 947.615 6.49976 -1.51944 0
M  V30 10170 H 946.885 0.704228 0.230529 0
M  V30 10171 H 949.532 1.91182 -0.110328 0
M  V30 10172 H 947.837 3.31672 2.08568 0
M  V30 10173 H 949.534 3.58359 1.79945 0
M  V30 10174 H 946.124 4.2529 0.531614 0
M  V30 10175 H 950.308 4.96082 -0.147105 0
M  V30 10176 H 945.564 6.0167 -1.08643 0
M  V30 10177 H 949.738 6.73767 -1.76098 0
M  V30 10178 H 947.365 7.26551 -2.2367 0
M  V30 10179 N 948.94 -0.228186 1.55939 0
M  V30 10180 C 950.188 -0.951668 1.78291 0
M  V30 10181 C 950.509 -1.85132 0.612474 0
M  V30 10182 O 949.779 -1.92356 -0.370942 0
M  V30 10183 H 948.359 -0.354388 0.657585 0
M  V30 10184 H 951.021 -0.241635 1.93396 0
M  V30 10185 H 950.117 -1.56239 2.70177 0
M  V30 10186 N 950.418 -1.49637 -0.494624 0
M  V30 10187 C 951.665 -1.59445 -1.24834 0
M  V30 10188 C 951.993 -0.284028 -1.92415 0
M  V30 10189 O 951.248 0.728519 -1.81634 0
M  V30 10190 C 951.547 -2.70749 -2.33302 0
M  V30 10191 C 951.213 -4.12034 -1.83135 0
M  V30 10192 C 949.875 -4.50482 -1.69173 0
M  V30 10193 C 952.227 -5.00432 -1.4566 0
M  V30 10194 C 949.555 -5.75093 -1.16124 0
M  V30 10195 C 951.907 -6.25568 -0.940608 0
M  V30 10196 C 950.571 -6.62839 -0.787432 0
M  V30 10197 H 949.841 -0.583451 -0.456799 0
M  V30 10198 H 952.488 -1.8349 -0.548044 0
M  V30 10199 H 950.793 -2.407 -3.09145 0
M  V30 10200 H 952.49 -2.75546 -2.91334 0
M  V30 10201 H 949.08 -3.8169 -1.94964 0
M  V30 10202 H 953.264 -4.71379 -1.55291 0
M  V30 10203 H 948.52 -6.02665 -1.02982 0
M  V30 10204 H 952.694 -6.93439 -0.641467 0
M  V30 10205 H 950.321 -7.59279 -0.374191 0
M  V30 10206 N 951.896 0.746133 -1.38819 0
M  V30 10207 C 952.859 1.84167 -1.36437 0
M  V30 10208 C 953.859 1.58626 -0.263499 0
M  V30 10209 O 955.049 1.66233 -0.520801 0
M  V30 10210 C 952.181 3.21769 -1.12596 0
M  V30 10211 H 953.374 1.87684 -2.33912 0
M  V30 10212 H 950.927 0.948625 -1.24221 0
M  V30 10213 H 951.662 3.23917 -0.15758 0
M  V30 10214 H 951.447 3.41702 -1.92307 0
M  V30 10215 H 952.937 4.0184 -1.13643 0
M  V30 10216 N 953.375 1.23811 0.975125 0
M  V30 10217 C 954.305 1.04846 2.08638 0
M  V30 10218 C 955.286 -0.0362859 1.70061 0
M  V30 10219 O 956.471 0.12937 1.93769 0
M  V30 10220 C 953.601 0.644534 3.41267 0
M  V30 10221 C 952.555 1.67722 3.93768 0
M  V30 10222 C 951.881 1.12857 5.22654 0
M  V30 10223 C 953.181 3.07147 4.22443 0
M  V30 10224 H 954.875 1.97795 2.24761 0
M  V30 10225 H 952.421 0.952397 1.08006 0
M  V30 10226 H 954.374 0.498887 4.18436 0
M  V30 10227 H 953.098 -0.320641 3.25022 0
M  V30 10228 H 951.757 1.81095 3.18748 0
M  V30 10229 H 951.405 0.154227 5.02764 0
M  V30 10230 H 951.105 1.81862 5.58749 0
M  V30 10231 H 952.629 0.994891 6.0244 0
M  V30 10232 H 954.043 2.97045 4.90344 0
M  V30 10233 H 952.44 3.73437 4.6975 0
M  V30 10234 H 953.51 3.55743 3.29507 0
M  V30 10235 N 954.853 -1.17469 1.05066 0
M  V30 10236 C 956.078 -1.92162 0.780298 0
M  V30 10237 C 956.503 -1.76222 -0.657832 0
M  V30 10238 O 955.861 -1.0791 -1.45688 0
M  V30 10239 C 955.909 -3.41292 1.16414 0
M  V30 10240 O 955.013 -4.1134 0.295531 0
M  V30 10241 H 954.354 -0.599127 0.286257 0
M  V30 10242 H 956.884 -1.48903 1.40318 0
M  V30 10243 H 956.894 -3.92029 1.13036 0
M  V30 10244 H 955.569 -3.52214 2.21175 0
M  V30 10245 H 954.146 -3.70857 0.389797 0
M  V30 10246 N 956.331 -0.831506 -1.3388 0
M  V30 10247 C 957.261 -0.274378 -2.31882 0
M  V30 10248 C 958.242 0.613872 -1.58637 0
M  V30 10249 O 959.427 0.538961 -1.86571 0
M  V30 10250 C 956.557 0.557498 -3.42796 0
M  V30 10251 C 955.511 -0.234337 -4.27358 0
M  V30 10252 C 954.837 0.720825 -5.29819 0
M  V30 10253 C 956.137 -1.44732 -5.01847 0
M  V30 10254 H 957.831 -1.09322 -2.78728 0
M  V30 10255 H 955.377 -0.527136 -1.34005 0
M  V30 10256 H 957.33 0.957501 -4.10378 0
M  V30 10257 H 956.054 1.40947 -2.94621 0
M  V30 10258 H 954.713 -0.61581 -3.61391 0
M  V30 10259 H 954.361 1.569 -4.77903 0
M  V30 10260 H 954.061 0.195171 -5.87276 0
M  V30 10261 H 955.585 1.1185 -6.00268 0
M  V30 10262 H 956.999 -1.12087 -5.62236 0
M  V30 10263 H 955.396 -1.90923 -5.68919 0
M  V30 10264 H 956.466 -2.22099 -4.31045 0
M  V30 10265 N 957.809 1.4625 -0.587256 0
M  V30 10266 C 958.759 2.27407 0.164393 0
M  V30 10267 C 959.743 1.36138 0.857628 0
M  V30 10268 O 960.935 1.60279 0.750973 0
M  V30 10269 C 958.064 3.22585 1.17447 0
M  V30 10270 C 957.15 4.21339 0.483121 0
M  V30 10271 N 957.541 5.03669 -0.46385 0
M  V30 10272 C 955.839 4.39931 0.73329 0
M  V30 10273 C 956.54 5.75182 -0.868334 0
M  V30 10274 N 955.516 5.43169 -0.216487 0
M  V30 10275 H 959.318 2.88453 -0.563237 0
M  V30 10276 H 956.832 1.57155 -0.409388 0
M  V30 10277 H 958.829 3.79439 1.72718 0
M  V30 10278 H 957.489 2.63098 1.90288 0
M  V30 10279 H 958.5 5.11049 -0.839602 0
M  V30 10280 H 955.177 3.91588 1.44792 0
M  V30 10281 H 956.567 6.51371 -1.64821 0
M  V30 10282 N 959.287 0.325282 1.54207 0
M  V30 10283 C 960.512 -0.281418 2.05482 0
M  V30 10284 C 960.937 -1.44869 1.19977 0
M  V30 10285 O 960.295 -1.80088 0.209275 0
M  V30 10286 C 960.343 -0.692029 3.53897 0
M  V30 10287 O 959.447 -1.7942 3.71325 0
M  V30 10288 H 958.788 -0.0504872 0.662078 0
M  V30 10289 H 961.318 0.474191 1.99029 0
M  V30 10290 H 961.328 -0.974219 3.96198 0
M  V30 10291 H 960.003 0.161709 4.15586 0
M  V30 10292 H 958.58 -1.51069 3.40929 0
M  V30 10293 N 960.765 -1.57509 0.0534917 0
M  V30 10294 C 961.712 -2.11667 -0.920101 0
M  V30 10295 C 962.682 -1.0246 -1.30733 0
M  V30 10296 O 963.867 -1.30021 -1.39639 0
M  V30 10297 C 961.007 -2.66803 -2.18883 0
M  V30 10298 C 960.12 -3.90104 -1.85588 0
M  V30 10299 C 959.255 -4.33547 -3.06937 0
M  V30 10300 C 958.294 -5.49542 -2.69573 0
M  V30 10301 N 957.431 -5.88029 -3.83623 0
M  V30 10302 H 962.271 -2.94562 -0.451371 0
M  V30 10303 H 959.808 -1.45576 -0.211168 0
M  V30 10304 H 961.766 -2.96871 -2.93127 0
M  V30 10305 H 960.396 -1.86702 -2.63329 0
M  V30 10306 H 959.448 -3.66613 -1.01484 0
M  V30 10307 H 960.76 -4.74404 -1.54087 0
M  V30 10308 H 959.914 -4.6518 -3.89477 0
M  V30 10309 H 958.653 -3.48064 -3.41618 0
M  V30 10310 H 957.658 -5.17579 -1.8545 0
M  V30 10311 H 958.883 -6.36743 -2.36082 0
M  V30 10312 H 956.829 -5.05498 -4.181 0
M  V30 10313 H 956.746 -6.67025 -3.55828 0
M  V30 10314 H 958.014 -6.24277 -4.66796 0
M  V30 10315 N 962.243 0.219913 -1.56058 0
M  V30 10316 C 963.659 0.569685 -1.49086 0
M  V30 10317 C 963.859 1.87066 -0.748903 0
M  V30 10318 O 962.915 2.50838 -0.289235 0
M  V30 10319 C 964.228 0.647397 -2.93648 0
M  V30 10320 C 965.776 0.737914 -3.04177 0
M  V30 10321 C 966.251 0.846957 -4.50101 0
M  V30 10322 N 967.742 0.911136 -4.5415 0
M  V30 10323 C 968.477 1.01525 -5.64341 0
M  V30 10324 N 967.973 1.0832 -6.8428 0
M  V30 10325 N 969.766 1.05051 -5.52196 0
M  V30 10326 H 961.917 -0.633778 -2.02724 0
M  V30 10327 H 964.18 -0.222583 -0.921499 0
M  V30 10328 H 963.886 -0.238987 -3.50887 0
M  V30 10329 H 963.76 1.51046 -3.45637 0
M  V30 10330 H 966.147 1.61474 -2.47002 0
M  V30 10331 H 966.228 -0.150845 -2.55355 0
M  V30 10332 H 965.872 -0.0254166 -5.07894 0
M  V30 10333 H 965.802 1.75116 -4.96631 0
M  V30 10334 H 968.293 0.868869 -3.67776 0
M  V30 10335 H 968.606 1.16247 -7.64007 0
M  V30 10336 H 966.951 1.05231 -6.86987 0
M  V30 10337 H 970.142 0.994086 -4.57423 0
M  V30 10338 H 970.315 1.12819 -6.38103 0
M  V30 10339 N 963.721 1.49897 0.486681 0
M  V30 10340 C 964.949 1.63837 1.26353 0
M  V30 10341 C 965.364 0.315428 1.86146 0
M  V30 10342 O 964.721 -0.700831 1.68507 0
M  V30 10343 C 964.772 2.71792 2.38351 0
M  V30 10344 O 964.493 3.98956 1.81013 0
M  V30 10345 C 965.994 2.96566 3.2949 0
M  V30 10346 H 963.214 0.551158 0.382709 0
M  V30 10347 H 965.758 1.96023 0.582694 0
M  V30 10348 H 963.913 2.42344 3.02238 0
M  V30 10349 H 964.327 4.58536 2.54647 0
M  V30 10350 H 965.801 3.75803 4.04322 0
M  V30 10351 H 966.278 2.07031 3.87343 0
M  V30 10352 H 966.884 3.27485 2.71355 0
M  V30 10353 N 965.199 -0.738761 1.39212 0
M  V30 10354 C 966.129 -1.86602 1.40364 0
M  V30 10355 C 967.11 -1.67984 0.267495 0
M  V30 10356 O 968.295 -1.88358 0.472765 0
M  V30 10357 C 965.425 -3.24308 1.24265 0
M  V30 10358 C 964.379 -3.57557 2.35239 0
M  V30 10359 C 963.705 -4.94159 2.04233 0
M  V30 10360 C 965.005 -3.60914 3.77543 0
M  V30 10361 H 966.699 -1.85896 2.34698 0
M  V30 10362 H 964.245 -0.892959 1.1297 0
M  V30 10363 H 966.198 -4.02838 1.23692 0
M  V30 10364 H 964.922 -3.25531 0.263974 0
M  V30 10365 H 963.581 -2.81354 2.35022 0
M  V30 10366 H 963.229 -4.91959 1.04813 0
M  V30 10367 H 962.929 -5.17373 2.78567 0
M  V30 10368 H 964.453 -5.7505 2.05303 0
M  V30 10369 H 965.867 -4.29528 3.79709 0
M  V30 10370 H 964.264 -3.95644 4.51205 0
M  V30 10371 H 965.334 -2.60803 4.08791 0
M  V30 10372 N 966.677 -1.24326 -0.968545 0
M  V30 10373 C 967.625 -1.03256 -2.08425 0
M  V30 10374 C 968.619 0.0322356 -1.69369 0
M  V30 10375 O 969.825 -0.122251 -1.79584 0
M  V30 10376 H 966.2 -0.31688 -0.681976 0
M  V30 10377 H 968.171 -1.97873 -2.23358 0
M  V30 10378 C 966.92 -0.653144 -3.4151 0
M  V30 10379 H 966.243 -1.46424 -3.72021 0
M  V30 10380 H 967.683 -0.545316 -4.20479 0
M  V30 10381 C 966.142 0.639674 -3.30771 0
M  V30 10382 O 966.672 1.68563 -3.64622 0
M  V30 10383 N 964.878 0.620074 -2.83907 0
M  V30 10384 H 964.425 -0.231449 -2.56558 0
M  V30 10385 H 964.383 1.48528 -2.77104 0
M  V30 10386 N 968.156 1.1691 -1.05688 0
M  V30 10387 C 969.386 1.90927 -0.789339 0
M  V30 10388 C 969.794 1.77339 0.659369 0
M  V30 10389 O 969.137 1.11147 1.4626 0
M  V30 10390 C 969.199 3.42361 -1.09677 0
M  V30 10391 C 968.863 3.79733 -2.54267 0
M  V30 10392 C 969.86 3.82163 -3.52487 0
M  V30 10393 C 967.545 4.10547 -2.89406 0
M  V30 10394 C 969.539 4.14884 -4.8389 0
M  V30 10395 C 967.226 4.42936 -4.21011 0
M  V30 10396 C 968.224 4.45084 -5.18063 0
M  V30 10397 O 967.912 4.76707 -6.47307 0
M  V30 10398 H 967.644 0.612466 -0.286115 0
M  V30 10399 H 970.198 1.4916 -1.4121 0
M  V30 10400 H 968.428 3.84446 -0.416924 0
M  V30 10401 H 970.117 3.97645 -0.814456 0
M  V30 10402 H 970.883 3.58476 -3.26681 0
M  V30 10403 H 966.762 4.08044 -2.14525 0
M  V30 10404 H 970.306 4.16475 -5.59638 0
M  V30 10405 H 966.203 4.66088 -4.46579 0
M  V30 10406 H 966.971 4.94544 -6.52203 0
M  V30 10407 N 969.634 0.838594 1.33437 0
M  V30 10408 C 970.544 0.274048 2.32994 0
M  V30 10409 C 971.56 -0.599776 1.63336 0
M  V30 10410 O 972.736 -0.503963 1.94993 0
M  V30 10411 C 969.801 -0.541804 3.4244 0
M  V30 10412 C 968.862 0.356262 4.27819 0
M  V30 10413 C 968.095 -0.420747 5.32039 0
M  V30 10414 O 968.318 -1.65247 5.45939 0
M  V30 10415 O 967.252 0.205101 6.0155 0
M  V30 10416 H 971.078 1.09846 2.83139 0
M  V30 10417 H 968.663 0.601111 1.36774 0
M  V30 10418 H 970.545 -1.00544 4.0923 0
M  V30 10419 H 969.22 -1.34328 2.94513 0
M  V30 10420 H 968.127 0.867726 3.63897 0
M  V30 10421 H 969.46 1.1225 4.79229 0
M  V30 10422 N 971.112 -1.45937 0.595003 0
M  V30 10423 C 972.36 -2.01921 0.0851368 0
M  V30 10424 C 972.681 -1.46748 -1.28413 0
M  V30 10425 O 971.951 -0.656873 -1.84559 0
M  V30 10426 H 970.531 -0.746457 0.0284826 0
M  V30 10427 H 973.193 -1.78891 0.773561 0
M  V30 10428 H 972.289 -3.1209 0.0254002 0
M  V30 10429 N 972.59 -0.333456 -1.54032 0
M  V30 10430 C 973.523 0.570776 -2.20947 0
M  V30 10431 C 974.501 1.10811 -1.18994 0
M  V30 10432 O 975.685 1.17027 -1.47773 0
M  V30 10433 C 972.812 1.7842 -2.87896 0
M  V30 10434 C 971.858 1.37722 -4.03652 0
M  V30 10435 S 972.691 0.405548 -5.33962 0
M  V30 10436 C 973.847 1.62603 -6.0441 0
M  V30 10437 H 974.08 0.0023936 -2.973 0
M  V30 10438 H 971.613 -0.117531 -1.53952 0
M  V30 10439 H 973.571 2.48038 -3.27089 0
M  V30 10440 H 972.232 2.32378 -2.11327 0
M  V30 10441 H 971.425 2.28167 -4.49395 0
M  V30 10442 H 971.027 0.760628 -3.66184 0
M  V30 10443 H 973.319 2.56202 -6.2719 0
M  V30 10444 H 974.262 1.21058 -6.97675 0
M  V30 10445 H 974.67 1.8175 -5.34441 0
M  V30 10446 N 974.068 1.57479 -0.061844 0
M  V30 10447 C 975.016 2.13346 0.926629 0
M  V30 10448 C 976.01 1.06787 1.31502 0
M  V30 10449 O 977.216 1.25181 1.29343 0
M  V30 10450 H 973.591 0.682046 0.316729 0
M  V30 10451 H 975.562 2.95279 0.430424 0
M  V30 10452 C 974.311 2.70198 2.18834 0
M  V30 10453 H 973.634 3.51859 1.89829 0
M  V30 10454 H 975.074 3.12897 2.86132 0
M  V30 10455 C 973.533 1.64481 2.9402 0
M  V30 10456 O 974.063 1.0639 3.87355 0
M  V30 10457 N 972.269 1.35749 2.56944 0
M  V30 10458 H 971.816 1.83177 1.81119 0
M  V30 10459 H 971.774 0.652469 3.07555 0
M  V30 10460 N 975.546 -0.211634 1.56173 0
M  V30 10461 C 976.823 -0.959467 1.70451 0
M  V30 10462 C 977.203 -2.02036 0.611942 0
M  V30 10463 O 976.551 -2.25325 -0.37959 0
M  V30 10464 C 976.761 -1.56092 3.12148 0
M  V30 10465 C 978.109 -2.04939 3.71867 0
M  V30 10466 O 979.133 -1.65966 3.15172 0
M  V30 10467 O 977.992 -2.766 4.71333 0
M  V30 10468 H 975.086 -0.448844 0.6946 0
M  V30 10469 H 977.632 -0.202633 1.68486 0
M  V30 10470 H 976.404 -0.79538 3.83131 0
M  V30 10471 H 976.027 -2.38303 3.18273 0
M  V30 10472 N 977.024 -1.50153 -0.478725 0
M  V30 10473 C 977.934 -1.71232 -1.60364 0
M  V30 10474 C 978.95 -0.595269 -1.63501 0
M  V30 10475 O 980.126 -0.872683 -1.81511 0
M  V30 10476 C 977.191 -1.79487 -2.96623 0
M  V30 10477 C 976.252 -3.03185 -3.03937 0
M  V30 10478 C 975.485 -3.11036 -4.33696 0
M  V30 10479 O 975.708 -2.2588 -5.23769 0
M  V30 10480 O 974.642 -4.03698 -4.46443 0
M  V30 10481 H 978.468 -2.66575 -1.45505 0
M  V30 10482 H 976.053 -1.34158 -0.65741 0
M  V30 10483 H 977.935 -1.8714 -3.77567 0
M  V30 10484 H 976.61 -0.873264 -3.11698 0
M  V30 10485 H 975.517 -3.01036 -2.22099 0
M  V30 10486 H 976.85 -3.94898 -2.93796 0
M  V30 10487 N 978.502 0.731368 -1.39602 0
M  V30 10488 C 979.45 1.86676 -1.38761 0
M  V30 10489 C 980.444 1.6723 -0.270247 0
M  V30 10490 O 981.65 1.74528 -0.440471 0
M  V30 10491 H 978.025 0.614553 -0.433391 0
M  V30 10492 H 979.996 1.84501 -2.34525 0
M  V30 10493 C 978.745 3.24394 -1.25155 0
M  V30 10494 H 978.068 3.39955 -2.10406 0
M  V30 10495 H 979.508 4.04019 -1.28625 0
M  V30 10496 C 977.967 3.36877 0.0396976 0
M  V30 10497 O 978.497 3.88833 1.00854 0
M  V30 10498 N 976.703 2.90414 0.103965 0
M  V30 10499 H 976.25 2.48321 -0.685155 0
M  V30 10500 H 976.208 2.99146 0.967435 0
M  V30 10501 N 979.98 1.24838 0.961938 0
M  V30 10502 C 981.208 1.11871 1.74047 0
M  V30 10503 C 981.623 -0.328209 1.85925 0
M  V30 10504 O 980.98 -1.22616 1.35173 0
M  V30 10505 C 981.031 1.75931 3.15801 0
M  V30 10506 O 980.752 3.14967 3.04512 0
M  V30 10507 C 982.253 1.68649 4.09966 0
M  V30 10508 H 979.473 0.390569 0.545616 0
M  V30 10509 H 982.017 1.65058 1.20732 0
M  V30 10510 H 980.172 1.26733 3.66084 0
M  V30 10511 H 980.586 3.46349 3.93882 0
M  V30 10512 H 982.06 2.18144 5.07067 0
M  V30 10513 H 982.537 0.648831 4.34381 0
M  V30 10514 H 983.143 2.17301 3.65596 0
M  V30 10515 N 981.458 -1.16348 1.06306 0
M  V30 10516 C 982.874 -1.38873 0.786543 0
M  V30 10517 C 983.074 -1.91915 -0.614061 0
M  V30 10518 O 982.13 -2.11804 -1.3746 0
M  V30 10519 C 983.443 -2.36936 1.85154 0
M  V30 10520 C 984.991 -2.5062 1.87506 0
M  V30 10521 C 985.466 -3.51965 2.9306 0
M  V30 10522 N 986.957 -3.59492 2.92095 0
M  V30 10523 C 987.692 -4.37699 3.70415 0
M  V30 10524 N 987.188 -5.19327 4.58553 0
M  V30 10525 N 988.981 -4.32683 3.58806 0
M  V30 10526 H 981.132 -0.802542 1.96655 0
M  V30 10527 H 983.395 -0.415304 0.852189 0
M  V30 10528 H 983.101 -2.05056 2.85736 0
M  V30 10529 H 982.975 -3.36585 1.70267 0
M  V30 10530 H 985.362 -2.81804 0.875827 0
M  V30 10531 H 985.443 -1.51006 2.06472 0
M  V30 10532 H 985.087 -3.21518 3.93177 0
M  V30 10533 H 985.017 -4.51309 2.71344 0
M  V30 10534 H 987.508 -3.01222 2.28197 0
M  V30 10535 H 987.821 -5.76216 5.1497 0
M  V30 10536 H 986.166 -5.1867 4.62608 0
M  V30 10537 H 989.357 -3.67971 2.89335 0
M  V30 10538 H 989.53 -4.93386 4.20088 0
M  V30 10539 N 982.937 -0.845659 -1.3299 0
M  V30 10540 C 984.214 -0.366306 -1.92139 0
M  V30 10541 C 984.594 1.14912 -1.77083 0
M  V30 10542 O 983.942 1.96667 -1.16338 0
M  V30 10543 C 984.152 -0.820716 -3.39213 0
M  V30 10544 C 985.5 -0.832667 -4.16355 0
M  V30 10545 O 986.524 -0.764764 -3.47893 0
M  V30 10546 O 985.383 -0.926658 -5.38586 0
M  V30 10547 H 982.477 -0.105063 -0.820299 0
M  V30 10548 H 985.023 -0.931962 -1.41819 0
M  V30 10549 H 983.795 -1.86357 -3.44074 0
M  V30 10550 H 983.418 -0.232009 -3.96923 0
M  V30 10551 N 984.415 1.45619 -0.602734 0
M  V30 10552 C 985.661 2.03131 -0.104587 0
M  V30 10553 C 986.016 1.4634 1.2491 0
M  V30 10554 O 985.309 0.626733 1.8106 0
M  V30 10555 C 985.503 3.574 -0.00157909 0
M  V30 10556 C 985.332 4.29155 -1.34373 0
M  V30 10557 C 984.102 4.67272 -1.92316 0
M  V30 10558 C 986.3 4.61422 -2.27143 0
M  V30 10559 N 984.282 5.23864 -3.20062 0
M  V30 10560 C 985.653 5.18796 -3.39485 0
M  V30 10561 C 987.708 4.4336 -2.26575 0
M  V30 10562 C 986.411 5.60012 -4.51419 0
M  V30 10563 C 988.437 4.85605 -3.37553 0
M  V30 10564 C 987.799 5.43068 -4.48617 0
M  V30 10565 H 983.898 0.777739 -0.0815251 0
M  V30 10566 H 986.482 1.77504 -0.800024 0
M  V30 10567 H 984.653 3.82698 0.663068 0
M  V30 10568 H 986.385 4.01565 0.502784 0
M  V30 10569 H 983.14 4.50671 -1.45577 0
M  V30 10570 H 983.564 5.56664 -3.85298 0
M  V30 10571 H 988.206 3.98251 -1.41971 0
M  V30 10572 H 985.924 6.04089 -5.36751 0
M  V30 10573 H 989.51 4.73365 -3.38255 0
M  V30 10574 H 988.39 5.75156 -5.33072 0
M  V30 10575 N 985.893 0.34162 1.53853 0
M  V30 10576 C 987.123 -0.256557 2.05001 0
M  V30 10577 C 987.531 -1.44916 1.21639 0
M  V30 10578 O 986.874 -1.8207 0.244138 0
M  V30 10579 C 986.936 -0.737109 3.51862 0
M  V30 10580 C 986.6 0.335584 4.55766 0
M  V30 10581 C 987.597 1.17765 5.06387 0
M  V30 10582 C 985.282 0.488958 4.99914 0
M  V30 10583 C 987.276 2.15865 5.99734 0
M  V30 10584 C 984.963 1.47336 5.93073 0
M  V30 10585 C 985.961 2.30666 6.4287 0
M  V30 10586 O 985.649 3.2743 7.34197 0
M  V30 10587 H 985.381 -0.0536867 0.673865 0
M  V30 10588 H 987.935 0.49123 1.99439 0
M  V30 10589 H 986.165 -1.53611 3.54881 0
M  V30 10590 H 987.854 -1.25562 3.85991 0
M  V30 10591 H 988.62 1.07023 4.73044 0
M  V30 10592 H 984.499 -0.149807 4.60757 0
M  V30 10593 H 988.043 2.80945 6.38526 0
M  V30 10594 H 983.94 1.58134 6.25831 0
M  V30 10595 H 984.708 3.22879 7.52125 0
M  V30 10596 N 987.371 -1.57444 0.0701946 0
M  V30 10597 C 988.599 -1.97754 -0.608358 0
M  V30 10598 C 989.014 -0.948496 -1.63245 0
M  V30 10599 O 988.371 0.065046 -1.82384 0
M  V30 10600 C 988.422 -3.38142 -1.27836 0
M  V30 10601 O 988.143 -4.37104 -0.295255 0
M  V30 10602 C 989.644 -3.93318 -2.04489 0
M  V30 10603 H 986.864 -0.650398 -0.164997 0
M  V30 10604 H 989.408 -2.04006 0.142124 0
M  V30 10605 H 987.563 -3.32982 -1.97994 0
M  V30 10606 H 987.977 -5.18732 -0.77574 0
M  V30 10607 H 989.451 -4.93774 -2.46762 0
M  V30 10608 H 989.928 -3.29774 -2.90079 0
M  V30 10609 H 990.534 -4.01875 -1.39201 0
M  V30 10610 N 988.849 0.203349 -1.56283 0
M  V30 10611 C 990.097 0.923183 -1.79782 0
M  V30 10612 C 990.418 1.84134 -0.64185 0
M  V30 10613 O 989.688 1.92922 0.340292 0
M  V30 10614 H 988.268 0.343881 -0.66314 0
M  V30 10615 H 990.93 0.210837 -1.93756 0
M  V30 10616 H 990.026 1.51921 -2.72629 0
M  V30 10617 N 990.327 1.50405 0.470755 0
M  V30 10618 C 991.604 1.51929 1.23195 0
M  V30 10619 C 991.984 0.264159 2.09441 0
M  V30 10620 O 991.332 -0.752395 2.15757 0
M  V30 10621 C 991.542 2.81521 2.06269 0
M  V30 10622 C 992.89 3.32195 2.64446 0
M  V30 10623 O 993.914 2.82845 2.16511 0
M  V30 10624 O 992.773 4.18221 3.51786 0
M  V30 10625 H 989.867 0.609411 0.559059 0
M  V30 10626 H 992.413 1.62695 0.482549 0
M  V30 10627 H 991.185 3.64346 1.42715 0
M  V30 10628 H 990.808 2.7376 2.88342 0
M  V30 10629 N 991.805 -0.723954 1.39988 0
M  V30 10630 C 993.053 -1.48078 1.3754 0
M  V30 10631 C 993.374 -1.94985 -0.0243358 0
M  V30 10632 O 992.644 -1.69764 -0.977602 0
M  V30 10633 H 991.224 -0.549354 0.506181 0
M  V30 10634 H 993.886 -0.858746 1.74962 0
M  V30 10635 H 992.982 -2.35763 2.04505 0
M  V30 10636 N 993.283 -1.25346 -0.955304 0
M  V30 10637 C 994.216 -0.999933 -2.05126 0
M  V30 10638 C 995.194 0.070585 -1.62447 0
M  V30 10639 O 996.378 -0.0689306 -1.88374 0
M  V30 10640 C 993.505 -0.511425 -3.34817 0
M  V30 10641 C 992.551 -1.57237 -3.96458 0
M  V30 10642 S 993.384 -3.15736 -4.32517 0
M  V30 10643 C 994.54 -2.68619 -5.65327 0
M  V30 10644 H 994.773 -1.92791 -2.26316 0
M  V30 10645 H 992.306 -1.08869 -1.09485 0
M  V30 10646 H 994.264 -0.236219 -4.0982 0
M  V30 10647 H 992.925 0.39604 -3.11593 0
M  V30 10648 H 992.118 -1.18125 -4.89962 0
M  V30 10649 H 991.72 -1.79822 -3.27933 0
M  V30 10650 H 994.012 -2.12203 -6.4341 0
M  V30 10651 H 994.955 -3.6076 -6.09309 0
M  V30 10652 H 995.363 -2.08638 -5.24529 0
M  V30 10653 N 994.761 1.15782 -1.06922 0
M  V30 10654 C 996.008 1.86465 -0.789752 0
M  V30 10655 C 996.336 1.82075 0.684022 0
M  V30 10656 O 995.591 1.23576 1.51748 0
M  V30 10657 C 995.89 3.35284 -1.2377 0
M  V30 10658 C 995.556 3.59871 -2.71668 0
M  V30 10659 C 994.218 3.6629 -3.12066 0
M  V30 10660 C 996.57 3.69929 -3.67154 0
M  V30 10661 C 993.898 3.80275 -4.46775 0
M  V30 10662 C 996.25 3.85436 -5.01619 0
M  V30 10663 C 994.914 3.901 -5.41644 0
M  V30 10664 H 994.184 0.682324 -0.288991 0
M  V30 10665 H 996.831 1.36861 -1.33945 0
M  V30 10666 H 995.136 3.87065 -0.607309 0
M  V30 10667 H 996.833 3.88371 -0.998431 0
M  V30 10668 H 993.423 3.55512 -2.39393 0
M  V30 10669 H 997.607 3.64274 -3.37073 0
M  V30 10670 H 992.863 3.8214 -4.77262 0
M  V30 10671 H 997.037 3.92161 -5.75485 0
M  V30 10672 H 994.664 4.00688 -6.46029 0
M  V30 10673 N 996.239 0.8527 1.3254 0
M  V30 10674 C 997.469 0.468363 2.01221 0
M  V30 10675 C 997.877 -0.938966 1.64256 0
M  V30 10676 O 997.22 -1.62387 0.858837 0
M  V30 10677 C 997.282 0.525457 3.55639 0
M  V30 10678 C 996.946 1.89133 4.16026 0
M  V30 10679 C 997.943 2.85652 4.34395 0
M  V30 10680 C 995.628 2.18795 4.52144 0
M  V30 10681 C 997.622 4.09985 4.88048 0
M  V30 10682 C 995.309 3.43381 5.05502 0
M  V30 10683 C 996.307 4.38792 5.23403 0
M  V30 10684 O 995.995 5.61173 5.75622 0
M  V30 10685 H 995.727 0.182712 0.65084 0
M  V30 10686 H 998.281 1.15076 1.70138 0
M  V30 10687 H 996.511 -0.213779 3.86109 0
M  V30 10688 H 998.2 0.156999 4.05596 0
M  V30 10689 H 998.966 2.6404 4.06827 0
M  V30 10690 H 994.845 1.45317 4.37498 0
M  V30 10691 H 998.389 4.84465 5.01936 0
M  V30 10692 H 994.286 3.64844 5.32503 0
M  V30 10693 H 995.054 5.63104 5.94017 0
M  V30 10694 N 997.718 -1.45297 0.610449 0
M  V30 10695 C 998.648 -2.33311 -0.0939698 0
M  V30 10696 C 999.629 -1.46999 -0.85588 0
M  V30 10697 O 1000.81 -1.75764 -0.825865 0
M  V30 10698 C 997.944 -3.29751 -1.09003 0
M  V30 10699 C 996.898 -4.2572 -0.441146 0
M  V30 10700 C 996.224 -5.11873 -1.54566 0
M  V30 10701 C 997.524 -5.1837 0.639489 0
M  V30 10702 H 999.218 -2.92459 0.640941 0
M  V30 10703 H 996.764 -1.40631 0.309675 0
M  V30 10704 H 998.717 -3.90195 -1.59141 0
M  V30 10705 H 997.441 -2.68768 -1.85557 0
M  V30 10706 H 996.1 -3.66579 0.0393908 0
M  V30 10707 H 995.748 -4.47256 -2.30155 0
M  V30 10708 H 995.448 -5.76886 -1.11698 0
M  V30 10709 H 996.972 -5.75185 -2.04925 0
M  V30 10710 H 998.386 -5.7287 0.22207 0
M  V30 10711 H 996.783 -5.91876 0.990089 0
M  V30 10712 H 997.853 -4.60627 1.51495 0
M  V30 10713 N 999.196 -0.349774 -1.5367 0
M  V30 10714 C 1000.43 0.245682 -2.05134 0
M  V30 10715 C 1000.83 1.44269 -1.22406 0
M  V30 10716 O 1000.18 1.81938 -0.25379 0
M  V30 10717 C 1000.24 0.718439 -3.52248 0
M  V30 10718 C 999.903 -0.35975 -4.55582 0
M  V30 10719 C 1000.9 -1.20449 -5.05755 0
M  V30 10720 C 998.585 -0.515463 -4.99648 0
M  V30 10721 C 1000.58 -2.19043 -5.98581 0
M  V30 10722 C 998.266 -1.50479 -5.92283 0
M  V30 10723 C 999.264 -2.34072 -6.41638 0
M  V30 10724 O 998.952 -3.31319 -7.3245 0
M  V30 10725 H 998.684 0.0501122 -0.67414 0
M  V30 10726 H 1001.24 -0.5018 -1.99176 0
M  V30 10727 H 999.468 1.51727 -3.55691 0
M  V30 10728 H 1001.16 1.23513 -3.86651 0
M  V30 10729 H 1001.92 -1.09531 -4.7247 0
M  V30 10730 H 997.802 0.12537 -4.60829 0
M  V30 10731 H 1001.35 -2.84327 -6.37027 0
M  V30 10732 H 997.243 -1.61451 -6.24983 0
M  V30 10733 H 998.011 -3.26863 -7.50402 0
M  V30 10734 N 1000.67 1.57404 -0.0785433 0
M  V30 10735 C 1001.62 2.14316 0.903949 0
M  V30 10736 C 1002.62 1.08176 1.30362 0
M  V30 10737 O 1003.82 1.26546 1.28008 0
M  V30 10738 H 1000.2 0.685367 0.309477 0
M  V30 10739 H 1002.17 2.95719 0.399081 0
M  V30 10740 C 1000.92 2.72504 2.15956 0
M  V30 10741 H 1000.24 3.53853 1.86087 0
M  V30 10742 H 1001.68 3.15914 2.82798 0
M  V30 10743 C 1000.14 1.6759 2.92259 0
M  V30 10744 O 1000.67 1.10492 3.86205 0
M  V30 10745 N 998.875 1.38467 2.5549 0
M  V30 10746 H 998.422 1.85088 1.79166 0
M  V30 10747 H 998.38 0.685053 3.06846 0
M  V30 10748 N 1002.15 -0.195058 1.56388 0
M  V30 10749 C 1003.38 -0.935745 1.85091 0
M  V30 10750 C 1003.8 -1.76061 0.662118 0
M  V30 10751 O 1003.16 -1.77076 -0.389083 0
M  V30 10752 C 1003.21 -1.80764 3.1202 0
M  V30 10753 O 1002.31 -2.90643 2.92575 0
M  V30 10754 H 1001.65 -0.26351 0.609474 0
M  V30 10755 H 1004.18 -0.200362 2.03617 0
M  V30 10756 H 1004.19 -2.21229 3.42815 0
M  V30 10757 H 1002.87 -1.20157 3.98165 0
M  V30 10758 H 1001.44 -2.53934 2.73079 0
M  V30 10759 N 1003.63 -1.50653 -0.462772 0
M  V30 10760 C 1004.91 -1.5258 -1.22387 0
M  V30 10761 C 1005.29 -0.275263 -2.09298 0
M  V30 10762 O 1004.63 0.740943 -2.16153 0
M  V30 10763 C 1004.84 -2.82611 -2.04773 0
M  V30 10764 C 1006.19 -3.33592 -2.62681 0
M  V30 10765 O 1007.22 -2.83989 -2.15008 0
M  V30 10766 O 1006.08 -4.20081 -3.49563 0
M  V30 10767 H 1003.17 -0.612367 -0.55582 0
M  V30 10768 H 1005.72 -1.62948 -0.473914 0
M  V30 10769 H 1004.49 -3.65098 -1.40781 0
M  V30 10770 H 1004.11 -2.75286 -2.86886 0
M  V30 10771 N 1005.11 0.71652 -1.4037 0
M  V30 10772 C 1006.04 1.84138 -1.36477 0
M  V30 10773 C 1007.05 1.6054 -0.27033 0
M  V30 10774 O 1008.24 1.70431 -0.530612 0
M  V30 10775 C 1005.34 3.20523 -1.10082 0
M  V30 10776 C 1004.52 3.71326 -2.31162 0
M  V30 10777 C 1003.57 4.86322 -2.00942 0
M  V30 10778 O 1002.6 4.99022 -2.73799 0
M  V30 10779 N 1003.8 5.72051 -0.986812 0
M  V30 10780 H 1006.57 1.87977 -2.3342 0
M  V30 10781 H 1004.13 0.89802 -1.34712 0
M  V30 10782 H 1006.12 3.95049 -0.878526 0
M  V30 10783 H 1004.69 3.11838 -0.21809 0
M  V30 10784 H 1003.91 2.87941 -2.69227 0
M  V30 10785 H 1005.2 4.02003 -3.11883 0
M  V30 10786 H 1004.6 5.64399 -0.383381 0
M  V30 10787 H 1003.15 6.46565 -0.824419 0
M  V30 10788 N 1006.59 1.25851 0.948643 0
M  V30 10789 C 1007.81 1.13813 1.73382 0
M  V30 10790 C 1008.24 -0.303615 1.85633 0
M  V30 10791 O 1007.59 -1.21997 1.34114 0
M  V30 10792 C 1007.64 1.80388 3.12238 0
M  V30 10793 O 1006.75 1.08759 3.978 0
M  V30 10794 H 1006.09 0.397006 0.532243 0
M  V30 10795 H 1008.62 1.66529 1.18866 0
M  V30 10796 H 1008.63 1.86913 3.62667 0
M  V30 10797 H 1007.3 2.85278 3.02637 0
M  V30 10798 H 1005.88 1.10157 3.56258 0
M  V30 10799 N 1008.06 -1.15214 1.07534 0
M  V30 10800 C 1009.01 -2.18022 0.667108 0
M  V30 10801 C 1010 -1.57911 -0.308714 0
M  V30 10802 O 1011.19 -1.76578 -0.122147 0
M  V30 10803 C 1008.32 -3.43232 0.0684348 0
M  V30 10804 C 1007.41 -4.10393 1.06951 0
M  V30 10805 N 1007.8 -4.53013 2.24973 0
M  V30 10806 C 1006.09 -4.36758 0.903262 0
M  V30 10807 C 1006.8 -5.05118 2.88498 0
M  V30 10808 N 1005.77 -4.98777 2.16153 0
M  V30 10809 H 1009.57 -2.48706 1.56597 0
M  V30 10810 H 1007.09 -1.31801 0.948796 0
M  V30 10811 H 1009.08 -4.16197 -0.241934 0
M  V30 10812 H 1007.74 -3.14031 -0.825525 0
M  V30 10813 H 1008.76 -4.4634 2.6268 0
M  V30 10814 H 1005.43 -4.17453 0.0623543 0
M  V30 10815 H 1006.82 -5.48039 3.8872 0
M  V30 10816 N 1009.54 -0.859717 -1.32086 0
M  V30 10817 C 1010.77 -0.479028 -2.0097 0
M  V30 10818 C 1011.18 0.930242 -1.64752 0
M  V30 10819 O 1010.52 1.6193 -0.867437 0
M  V30 10820 C 1010.59 -0.54431 -3.55355 0
M  V30 10821 C 1010.25 -1.91337 -4.15017 0
M  V30 10822 C 1011.25 -2.87951 -4.32874 0
M  V30 10823 C 1008.93 -2.21189 -4.50977 0
M  V30 10824 C 1010.93 -4.12567 -4.85867 0
M  V30 10825 C 1008.61 -3.46057 -5.03674 0
M  V30 10826 C 1009.61 -4.41562 -5.21068 0
M  V30 10827 O 1009.3 -5.64218 -5.72637 0
M  V30 10828 H 1009.03 -0.186161 -0.649861 0
M  V30 10829 H 1011.58 -1.15976 -1.69525 0
M  V30 10830 H 1009.81 0.1933 -3.86217 0
M  V30 10831 H 1011.5 -0.178506 -4.05507 0
M  V30 10832 H 1012.27 -2.66194 -4.05421 0
M  V30 10833 H 1008.15 -1.47635 -4.36721 0
M  V30 10834 H 1011.69 -4.8712 -4.99359 0
M  V30 10835 H 1007.59 -3.67662 -5.30561 0
M  V30 10836 H 1008.36 -5.66246 -5.91023 0
M  V30 10837 N 1011.02 1.44971 -0.618145 0
M  V30 10838 C 1012.25 2.07039 -0.122395 0
M  V30 10839 C 1012.67 1.45793 1.18853 0
M  V30 10840 O 1012.03 0.55453 1.72611 0
M  V30 10841 C 1012.08 3.60599 -0.0073864 0
M  V30 10842 O 1011.18 3.99069 1.04007 0
M  V30 10843 H 1010.52 0.6593 -0.0788615 0
M  V30 10844 H 1013.05 1.86055 -0.851147 0
M  V30 10845 H 1013.06 4.07569 0.187417 0
M  V30 10846 H 1011.74 4.04561 -0.964544 0
M  V30 10847 H 1010.31 3.63753 0.820879 0
M  V30 10848 N 1012.5 0.357919 1.53482 0
M  V30 10849 C 1013.45 -0.507364 2.26999 0
M  V30 10850 C 1014.44 -1.08987 1.29685 0
M  V30 10851 O 1015.65 -1.03396 1.47341 0
M  V30 10852 H 1012.02 -0.182326 0.729562 0
M  V30 10853 H 1013.99 0.134547 2.98097 0
M  V30 10854 C 1012.74 -1.63911 3.06641 0
M  V30 10855 H 1012.06 -1.20017 3.81361 0
M  V30 10856 H 1013.5 -2.21943 3.61272 0
M  V30 10857 C 1011.96 -2.57697 2.17011 0
M  V30 10858 O 1012.49 -3.60318 1.77578 0
M  V30 10859 N 1010.7 -2.2671 1.818 0
M  V30 10860 H 1010.25 -1.43296 2.14065 0
M  V30 10861 H 1010.2 -2.89716 1.22115 0
M  V30 10862 N 1013.98 -1.5736 0.0868897 0
M  V30 10863 C 1014.93 -2.10105 -0.885435 0
M  V30 10864 C 1015.91 -1.01417 -1.24913 0
M  V30 10865 O 1017.1 -1.27704 -1.22558 0
M  V30 10866 C 1014.23 -2.67837 -2.14752 0
M  V30 10867 C 1013.32 -3.83553 -1.80963 0
M  V30 10868 N 1013.71 -4.91917 -1.17693 0
M  V30 10869 C 1012.01 -3.93134 -2.10622 0
M  V30 10870 C 1012.71 -5.72628 -1.02332 0
M  V30 10871 N 1011.68 -5.2139 -1.53796 0
M  V30 10872 H 1015.49 -2.91272 -0.392179 0
M  V30 10873 H 1013 -1.61981 -0.116566 0
M  V30 10874 H 1015 -3.03948 -2.85344 0
M  V30 10875 H 1013.66 -1.88122 -2.64651 0
M  V30 10876 H 1014.67 -5.10964 -0.844731 0
M  V30 10877 H 1011.34 -3.24416 -2.62793 0
M  V30 10878 H 1012.73 -6.69813 -0.529171 0
M  V30 10879 N 1015.45 0.186762 -1.56489 0
M  V30 10880 C 1016.7 0.905852 -1.81109 0
M  V30 10881 C 1017.03 1.82906 -0.661477 0
M  V30 10882 O 1016.28 1.92504 0.35226 0
M  V30 10883 C 1016.58 1.74719 -3.11782 0
M  V30 10884 C 1016.25 0.974238 -4.40249 0
M  V30 10885 C 1014.91 0.760856 -4.75147 0
M  V30 10886 C 1017.26 0.430971 -5.19415 0
M  V30 10887 C 1014.59 -0.00714216 -5.867 0
M  V30 10888 C 1016.94 -0.323859 -6.3177 0
M  V30 10889 C 1015.61 -0.548183 -6.65245 0
M  V30 10890 H 1014.88 0.331475 -0.662726 0
M  V30 10891 H 1017.52 0.171703 -1.90729 0
M  V30 10892 H 1015.83 2.55027 -2.97437 0
M  V30 10893 H 1017.53 2.30634 -3.28038 0
M  V30 10894 H 1014.12 1.15057 -4.12868 0
M  V30 10895 H 1018.3 0.583205 -4.92861 0
M  V30 10896 H 1013.56 -0.190832 -6.11102 0
M  V30 10897 H 1017.73 -0.752155 -6.92326 0
M  V30 10898 H 1015.36 -1.14518 -7.51525 0
M  V30 10899 N 1016.93 1.50896 0.454776 0
M  V30 10900 C 1018.18 1.63905 1.20444 0
M  V30 10901 C 1018.53 0.342692 1.89323 0
M  V30 10902 O 1017.83 -0.660465 1.79857 0
M  V30 10903 C 1018.02 2.76839 2.26042 0
M  V30 10904 C 1017.85 4.17332 1.67524 0
M  V30 10905 C 1016.62 4.83512 1.46779 0
M  V30 10906 C 1018.82 5.01022 1.1611 0
M  V30 10907 N 1016.8 6.08171 0.83675 0
M  V30 10908 C 1018.17 6.16538 0.654283 0
M  V30 10909 C 1020.23 4.86677 1.05119 0
M  V30 10910 C 1018.93 7.19284 0.0483821 0
M  V30 10911 C 1020.95 5.89614 0.459211 0
M  V30 10912 C 1020.32 7.0439 -0.0371476 0
M  V30 10913 H 1016.42 0.653802 0.42903 0
M  V30 10914 H 1019 1.88069 0.503783 0
M  V30 10915 H 1017.17 2.54369 2.93515 0
M  V30 10916 H 1018.9 2.7912 2.93043 0
M  V30 10917 H 1015.66 4.41082 1.72464 0
M  V30 10918 H 1016.08 6.7485 0.539176 0
M  V30 10919 H 1020.72 3.98211 1.42085 0
M  V30 10920 H 1018.44 8.07412 -0.333438 0
M  V30 10921 H 1022.03 5.80582 0.376315 0
M  V30 10922 H 1020.91 7.8268 -0.488035 0
M  V30 10923 N 1018.41 -0.709066 1.40748 0
M  V30 10924 C 1019.82 -1.28847 1.35112 0
M  V30 10925 C 1020.17 -1.9618 0.0277149 0
M  V30 10926 O 1019.3 -1.97955 -0.874233 0
M  V30 10927 C 1019.89 -2.34306 2.44716 0
M  V30 10928 C 1018.45 -2.87856 2.4252 0
M  V30 10929 C 1017.6 -1.61723 2.25257 0
M  V30 10930 H 1020.55 -0.504742 1.50459 0
M  V30 10931 H 1020.57 -3.15297 2.12998 0
M  V30 10932 H 1020.08 -1.85271 3.41022 0
M  V30 10933 H 1018.18 -3.41103 1.49931 0
M  V30 10934 H 1018.3 -3.39205 3.38344 0
M  V30 10935 H 1016.66 -1.87032 1.7289 0
M  V30 10936 H 1017.44 -1.14703 3.23571 0
M  V30 10937 N 1019.89 -1.26353 -0.941956 0
M  V30 10938 C 1021.12 -1.14626 -1.72245 0
M  V30 10939 C 1021.53 0.298588 -1.86424 0
M  V30 10940 O 1020.89 1.2045 -1.37106 0
M  V30 10941 C 1020.94 -1.80933 -3.12963 0
M  V30 10942 O 1020.66 -3.19771 -2.99463 0
M  V30 10943 C 1022.16 -1.7515 -4.07231 0
M  V30 10944 H 1019.38 -0.3992 -0.539333 0
M  V30 10945 H 1021.93 -1.66958 -1.1809 0
M  V30 10946 H 1020.08 -1.32541 -3.64021 0
M  V30 10947 H 1020.5 -3.52571 -3.88322 0
M  V30 10948 H 1021.97 -2.26183 -5.03533 0
M  V30 10949 H 1022.45 -0.717855 -4.33294 0
M  V30 10950 H 1023.05 -2.2309 -3.62093 0
M  V30 10951 N 1021.37 1.14642 -1.08144 0
M  V30 10952 C 1022.61 1.85892 -0.810683 0
M  V30 10953 C 1022.95 1.82575 0.661821 0
M  V30 10954 O 1022.22 1.25454 1.48632 0
M  V30 10955 C 1022.5 3.34647 -1.32979 0
M  V30 10956 C 1022.36 3.46551 -2.86744 0
M  V30 10957 C 1023.68 4.29661 -0.952864 0
M  V30 10958 H 1020.8 0.674963 -0.295963 0
M  V30 10959 H 1023.44 1.3464 -1.3406 0
M  V30 10960 H 1021.59 3.78425 -0.87903 0
M  V30 10961 H 1023.26 3.11579 -3.40171 0
M  V30 10962 H 1021.5 2.87849 -3.24539 0
M  V30 10963 H 1022.17 4.51101 -3.18138 0
M  V30 10964 H 1024.65 3.93885 -1.34141 0
M  V30 10965 H 1023.53 5.32209 -1.34331 0
M  V30 10966 H 1023.79 4.41877 0.140392 0
M  V30 10967 N 1022.85 0.866709 1.31628 0
M  V30 10968 C 1023.79 0.309128 2.30537 0
M  V30 10969 C 1024.79 -0.574028 1.59378 0
M  V30 10970 O 1025.99 -0.460491 1.7401 0
M  V30 10971 H 1022.37 0.081279 0.747595 0
M  V30 10972 H 1024.34 1.15734 2.75042 0
M  V30 10973 C 1023.09 -0.477287 3.44409 0
M  V30 10974 H 1022.41 0.19301 3.99334 0
M  V30 10975 H 1023.85 -0.832818 4.1574 0
M  V30 10976 C 1022.31 -1.66727 2.92752 0
M  V30 10977 O 1022.84 -2.76654 2.91248 0
M  V30 10978 N 1021.05 -1.49833 2.48995 0
M  V30 10979 H 1020.59 -0.604073 2.50417 0
M  V30 10980 H 1020.55 -2.29594 2.14788 0
M  V30 10981 N 1024.32 -1.44642 0.625825 0
M  V30 10982 C 1025.73 -1.85502 0.211175 0
M  V30 10983 C 1026.09 -1.52356 -1.2362 0
M  V30 10984 O 1025.21 -0.959051 -1.93988 0
M  V30 10985 C 1025.81 -3.36702 0.37648 0
M  V30 10986 C 1024.36 -3.76396 0.0163795 0
M  V30 10987 C 1023.51 -2.68517 0.692368 0
M  V30 10988 H 1026.46 -1.35183 0.831333 0
M  V30 10989 H 1026.48 -3.78536 -0.386106 0
M  V30 10990 H 1026 -3.60795 1.42999 0
M  V30 10991 H 1024.1 -3.57919 -1.0356 0
M  V30 10992 H 1024.21 -4.77231 0.422742 0
M  V30 10993 H 1022.57 -2.54377 0.128191 0
M  V30 10994 H 1023.36 -2.95444 1.74837 0
M  V30 10995 N 1025.8 -0.366053 -1.5329 0
M  V30 10996 C 1027.03 0.22391 -2.05383 0
M  V30 10997 C 1027.44 1.42962 -1.23929 0
M  V30 10998 O 1026.78 1.81659 -0.273072 0
M  V30 10999 C 1026.84 0.681038 -3.5299 0
M  V30 11000 C 1026.51 -0.40805 -4.55175 0
M  V30 11001 C 1027.51 -1.25806 -5.04449 0
M  V30 11002 C 1025.19 -0.568428 -4.99073 0
M  V30 11003 C 1027.18 -2.25379 -5.96224 0
M  V30 11004 C 1024.87 -1.56752 -5.90654 0
M  V30 11005 C 1025.87 -2.40864 -6.39119 0
M  V30 11006 O 1025.56 -3.39069 -7.28895 0
M  V30 11007 H 1025.29 0.0429593 -0.674634 0
M  V30 11008 H 1027.84 -0.522897 -1.98633 0
M  V30 11009 H 1026.07 1.47945 -3.5728 0
M  V30 11010 H 1027.76 1.19406 -3.8794 0
M  V30 11011 H 1028.53 -1.14536 -4.71282 0
M  V30 11012 H 1024.41 0.0764858 -4.60937 0
M  V30 11013 H 1027.95 -2.91068 -6.33976 0
M  V30 11014 H 1023.85 -1.6807 -6.23236 0
M  V30 11015 H 1024.62 -3.34804 -7.46893 0
M  V30 11016 N 1027.28 1.57312 -0.0952337 0
M  V30 11017 C 1028.23 2.14032 0.863657 0
M  V30 11018 C 1029.2 1.0589 1.27971 0
M  V30 11019 O 1030.38 1.33678 1.36143 0
M  V30 11020 C 1027.52 2.72513 2.11733 0
M  V30 11021 C 1026.63 3.94887 1.7518 0
M  V30 11022 C 1025.77 4.41533 2.95334 0
M  V30 11023 C 1024.81 5.56496 2.54908 0
M  V30 11024 N 1023.95 5.97993 3.67897 0
M  V30 11025 H 1028.79 2.95655 0.373115 0
M  V30 11026 H 1026.32 1.46085 0.172497 0
M  V30 11027 H 1028.28 3.04539 2.85153 0
M  V30 11028 H 1026.91 1.93618 2.58287 0
M  V30 11029 H 1025.96 3.69175 0.917279 0
M  V30 11030 H 1027.27 4.78322 1.41455 0
M  V30 11031 H 1026.43 4.75343 3.77007 0
M  V30 11032 H 1025.17 3.56999 3.3227 0
M  V30 11033 H 1024.17 5.22314 1.71662 0
M  V30 11034 H 1025.4 6.42779 2.19117 0
M  V30 11035 H 1023.34 5.16405 4.04551 0
M  V30 11036 H 1023.26 6.76225 3.38018 0
M  V30 11037 H 1024.53 6.36434 4.5008 0
M  V30 11038 N 1028.76 -0.17846 1.56586 0
M  V30 11039 C 1029.69 -1.2496 1.90946 0
M  V30 11040 C 1030.67 -1.43136 0.771424 0
M  V30 11041 O 1031.85 -1.58258 1.02405 0
M  V30 11042 C 1028.98 -2.61368 2.15417 0
M  V30 11043 C 1028.03 -2.59969 3.3811 0
M  V30 11044 S 1028.86 -2.09756 4.9271 0
M  V30 11045 C 1030.01 -3.47956 5.20267 0
M  V30 11046 H 1030.25 -0.956287 2.815 0
M  V30 11047 H 1027.78 -0.382709 1.49582 0
M  V30 11048 H 1029.74 -3.39882 2.30197 0
M  V30 11049 H 1028.4 -2.87903 1.25582 0
M  V30 11050 H 1027.59 -3.60309 3.52411 0
M  V30 11051 H 1027.19 -1.89547 3.2241 0
M  V30 11052 H 1029.49 -4.43914 5.11807 0
M  V30 11053 H 1030.43 -3.38536 6.21932 0
M  V30 11054 H 1030.84 -3.43637 4.47855 0
M  V30 11055 N 1030.24 -1.51135 -0.446768 0
M  V30 11056 C 1031.2 -1.71187 -1.52406 0
M  V30 11057 C 1032.2 -0.582037 -1.49897 0
M  V30 11058 O 1033.39 -0.849452 -1.52085 0
M  V30 11059 C 1030.52 -1.75962 -2.91976 0
M  V30 11060 H 1031.71 -2.67324 -1.35934 0
M  V30 11061 H 1029.27 -1.40982 -0.674813 0
M  V30 11062 H 1030 -0.816065 -3.13864 0
M  V30 11063 H 1029.79 -2.58065 -2.95203 0
M  V30 11064 H 1031.28 -1.93347 -3.70144 0
M  V30 11065 N 1031.71 0.701592 -1.41122 0
M  V30 11066 C 1032.96 1.45871 -1.39879 0
M  V30 11067 C 1033.28 1.94999 -0.00668769 0
M  V30 11068 O 1032.55 1.71298 0.95047 0
M  V30 11069 H 1031.13 0.541231 -0.514857 0
M  V30 11070 H 1033.79 0.830803 -1.76306 0
M  V30 11071 H 1032.89 2.32479 -2.0823 0
M  V30 11072 N 1033.19 1.2685 0.935242 0
M  V30 11073 C 1034.42 1.15538 1.71635 0
M  V30 11074 C 1034.83 -0.288698 1.8658 0
M  V30 11075 O 1034.19 -1.19721 1.37743 0
M  V30 11076 C 1034.24 1.8259 3.11999 0
M  V30 11077 O 1033.96 3.21355 2.97763 0
M  V30 11078 C 1035.46 1.77307 4.06297 0
M  V30 11079 H 1032.68 0.402055 0.537208 0
M  V30 11080 H 1035.23 1.67582 1.17203 0
M  V30 11081 H 1033.38 1.3447 3.63313 0
M  V30 11082 H 1033.8 3.54626 3.86446 0
M  V30 11083 H 1035.27 2.28851 5.02326 0
M  V30 11084 H 1035.75 0.740823 4.32907 0
M  V30 11085 H 1036.35 2.25007 3.60904 0
M  V30 11086 N 1034.67 -1.14067 1.0875 0
M  V30 11087 C 1035.9 -1.89041 0.840902 0
M  V30 11088 C 1036.31 -1.78768 -0.60725 0
M  V30 11089 O 1035.67 -1.14945 -1.41753 0
M  V30 11090 C 1035.72 -3.38891 1.25838 0
M  V30 11091 O 1035.44 -3.48886 2.64972 0
M  V30 11092 C 1036.94 -4.30852 1.04315 0
M  V30 11093 H 1034.16 -0.598685 0.303014 0
M  V30 11094 H 1036.71 -1.44438 1.44769 0
M  V30 11095 H 1034.86 -3.81103 0.695627 0
M  V30 11096 H 1035.28 -4.41989 2.82393 0
M  V30 11097 H 1036.75 -5.34353 1.38461 0
M  V30 11098 H 1037.23 -4.39196 -0.0195784 0
M  V30 11099 H 1037.83 -3.944 1.59151 0
M  V30 11100 N 1036.15 -0.873678 -1.31166 0
M  V30 11101 C 1037.06 -0.335726 -2.32185 0
M  V30 11102 C 1038.07 0.556259 -1.64869 0
M  V30 11103 O 1039.25 0.452087 -1.9626 0
M  V30 11104 C 1036.32 0.450822 -3.43756 0
M  V30 11105 C 1035.38 -0.469565 -4.26724 0
M  V30 11106 C 1034.61 0.279538 -5.32967 0
M  V30 11107 O 1034.83 1.50715 -5.50128 0
M  V30 11108 O 1033.77 -0.36452 -6.00795 0
M  V30 11109 H 1037.59 -1.17314 -2.80127 0
M  V30 11110 H 1035.18 -0.637163 -1.35132 0
M  V30 11111 H 1037.06 0.896582 -4.11752 0
M  V30 11112 H 1035.73 1.26472 -2.9797 0
M  V30 11113 H 1034.64 -0.963902 -3.61469 0
M  V30 11114 H 1035.97 -1.24916 -4.76085 0
M  V30 11115 N 1037.63 1.44308 -0.633487 0
M  V30 11116 C 1038.57 2.30694 0.0700257 0
M  V30 11117 C 1039.54 1.43618 0.834447 0
M  V30 11118 O 1040.73 1.72517 0.815014 0
M  V30 11119 C 1037.87 3.28929 1.04403 0
M  V30 11120 C 1036.98 4.31106 0.277779 0
M  V30 11121 C 1036.12 5.16433 1.24381 0
M  V30 11122 C 1035.16 6.10317 0.466855 0
M  V30 11123 N 1034.29 6.88335 1.38347 0
M  V30 11124 H 1039.13 2.90311 -0.672567 0
M  V30 11125 H 1036.67 1.43034 -0.343449 0
M  V30 11126 H 1038.63 3.84373 1.62214 0
M  V30 11127 H 1037.26 2.71006 1.75372 0
M  V30 11128 H 1036.31 3.78115 -0.416292 0
M  V30 11129 H 1037.62 4.97725 -0.327251 0
M  V30 11130 H 1036.78 5.76406 1.89318 0
M  V30 11131 H 1035.51 4.49893 1.88276 0
M  V30 11132 H 1034.52 5.49451 -0.195989 0
M  V30 11133 H 1035.74 6.78894 -0.167414 0
M  V30 11134 H 1033.69 6.24461 2.00959 0
M  V30 11135 H 1033.61 7.51402 0.832517 0
M  V30 11136 H 1034.88 7.52829 2.0216 0
M  V30 11137 N 1039.1 0.374177 1.53094 0
M  V30 11138 C 1040.38 -0.269632 1.93733 0
M  V30 11139 C 1040.76 -1.6566 1.30843 0
M  V30 11140 O 1040.11 -2.23598 0.470759 0
M  V30 11141 C 1040.32 -0.311204 3.4761 0
M  V30 11142 C 1041.67 -0.547432 4.21056 0
M  V30 11143 O 1042.69 -0.392053 3.54036 0
M  V30 11144 O 1041.55 -0.850645 5.39839 0
M  V30 11145 H 1038.64 -0.163723 0.810632 0
M  V30 11146 H 1041.19 0.427586 1.64225 0
M  V30 11147 H 1039.96 0.660897 3.85678 0
M  V30 11148 H 1039.59 -1.05397 3.83376 0
M  V30 11149 N 1040.58 -1.57259 0.103575 0
M  V30 11150 C 1041.55 -2.13337 -0.837859 0
M  V30 11151 C 1042.55 -1.06459 -1.20512 0
M  V30 11152 O 1043.74 -1.32307 -1.13316 0
M  V30 11153 C 1040.87 -2.66093 -2.13089 0
M  V30 11154 H 1042.06 -2.97842 -0.350775 0
M  V30 11155 H 1039.61 -1.55621 -0.145511 0
M  V30 11156 H 1040.35 -1.85133 -2.66264 0
M  V30 11157 H 1040.13 -3.44244 -1.87719 0
M  V30 11158 H 1041.62 -3.09443 -2.80419 0
M  V30 11159 N 1042.06 0.170153 -1.56679 0
M  V30 11160 C 1043.01 1.21064 -1.965 0
M  V30 11161 C 1043.98 1.43928 -0.829092 0
M  V30 11162 O 1045.16 1.56649 -1.08931 0
M  V30 11163 C 1042.3 2.54468 -2.33109 0
M  V30 11164 C 1041.42 2.38974 -3.59883 0
M  V30 11165 C 1040.55 3.65252 -3.857 0
M  V30 11166 C 1039.59 3.44696 -5.05817 0
M  V30 11167 N 1038.73 4.63047 -5.27761 0
M  V30 11168 H 1043.57 0.864055 -2.85198 0
M  V30 11169 H 1041.1 0.415243 -1.41117 0
M  V30 11170 H 1043.06 3.32222 -2.52358 0
M  V30 11171 H 1041.69 2.8712 -1.4752 0
M  V30 11172 H 1040.74 1.5239 -3.48542 0
M  V30 11173 H 1042.06 2.19731 -4.47794 0
M  V30 11174 H 1041.21 4.51441 -4.05322 0
M  V30 11175 H 1039.95 3.87475 -2.96166 0
M  V30 11176 H 1038.95 2.56893 -4.86092 0
M  V30 11177 H 1040.18 3.23894 -5.96883 0
M  V30 11178 H 1038.12 4.85487 -4.41179 0
M  V30 11179 H 1038.04 4.46722 -6.09898 0
M  V30 11180 H 1039.31 5.50516 -5.51863 0
M  V30 11181 N 1043.54 1.5137 0.438746 0
M  V30 11182 C 1044.95 1.39514 0.775116 0
M  V30 11183 C 1045.15 0.47638 1.95788 0
M  V30 11184 O 1044.21 -0.0689832 2.52406 0
M  V30 11185 C 1045.52 2.81517 1.05681 0
M  V30 11186 C 1047.07 2.90658 1.16133 0
M  V30 11187 C 1047.55 4.33566 1.47597 0
M  V30 11188 N 1049.04 4.36665 1.54524 0
M  V30 11189 C 1049.77 5.4427 1.80438 0
M  V30 11190 N 1049.27 6.62037 2.04154 0
M  V30 11191 N 1051.06 5.31749 1.82208 0
M  V30 11192 H 1043.21 2.09657 -0.340237 0
M  V30 11193 H 1045.48 0.943736 -0.0898115 0
M  V30 11194 H 1045.18 3.50734 0.260441 0
M  V30 11195 H 1045.06 3.20757 1.98481 0
M  V30 11196 H 1047.44 2.2164 1.94833 0
M  V30 11197 H 1047.52 2.54917 0.212376 0
M  V30 11198 H 1047.17 5.03133 0.694251 0
M  V30 11199 H 1047.1 4.66819 2.43696 0
M  V30 11200 H 1049.59 3.51761 1.38105 0
M  V30 11201 H 1049.9 7.39838 2.23293 0
M  V30 11202 H 1048.25 6.65155 2.01479 0
M  V30 11203 H 1051.44 4.3873 1.63198 0
M  V30 11204 H 1051.61 6.15689 2.02067 0
M  V30 11205 N 1045.02 -0.694098 1.41492 0
M  V30 11206 C 1045.93 -1.83778 1.45818 0
M  V30 11207 C 1046.94 -1.70471 0.348639 0
M  V30 11208 O 1048.12 -1.92361 0.596588 0
M  V30 11209 C 1045.18 -3.19771 1.33967 0
M  V30 11210 C 1044.24 -3.45175 2.5525 0
M  V30 11211 C 1043.48 -4.74681 2.43955 0
M  V30 11212 O 1043.7 -5.51268 1.46491 0
M  V30 11213 O 1042.63 -5.00901 3.33739 0
M  V30 11214 H 1046.46 -1.83084 2.42309 0
M  V30 11215 H 1044.05 -0.847349 1.23046 0
M  V30 11216 H 1045.93 -4.00961 1.29648 0
M  V30 11217 H 1044.6 -3.21145 0.405926 0
M  V30 11218 H 1043.51 -2.6391 2.65146 0
M  V30 11219 H 1044.84 -3.48617 3.47458 0
M  V30 11220 N 1046.49 -1.27344 -0.928501 0
M  V30 11221 C 1047.77 -1.04362 -1.65433 0
M  V30 11222 C 1048.15 0.421896 -2.06841 0
M  V30 11223 O 1047.5 1.40496 -1.80203 0
M  V30 11224 C 1047.71 -2.00442 -2.85699 0
M  V30 11225 C 1049.06 -2.29767 -3.57061 0
M  V30 11226 O 1050.08 -1.98409 -2.95825 0
M  V30 11227 O 1048.94 -2.83217 -4.67387 0
M  V30 11228 H 1046.03 -0.397783 -0.72505 0
M  V30 11229 H 1048.58 -1.38606 -0.979109 0
M  V30 11230 H 1047.35 -2.99281 -2.52085 0
M  V30 11231 H 1046.98 -1.66755 -3.60941 0
M  V30 11232 N 1047.97 1.13488 -1.09353 0
M  V30 11233 C 1049.2 1.88592 -0.850915 0
M  V30 11234 C 1049.62 1.79087 0.597761 0
M  V30 11235 O 1048.97 1.15695 1.41142 0
M  V30 11236 C 1049.02 3.38219 -1.27633 0
M  V30 11237 O 1048.74 3.47476 -2.66819 0
M  V30 11238 C 1050.25 4.30293 -1.06598 0
M  V30 11239 H 1047.47 0.597069 -0.306185 0
M  V30 11240 H 1050.01 1.43668 -1.45533 0
M  V30 11241 H 1048.16 3.80729 -0.715828 0
M  V30 11242 H 1048.58 4.40485 -2.84733 0
M  V30 11243 H 1050.05 5.33611 -1.41293 0
M  V30 11244 H 1050.53 4.392 -0.0037135 0
M  V30 11245 H 1051.14 3.9355 -1.6124 0
M  V30 11246 N 1049.45 0.880621 1.30701 0
M  V30 11247 C 1050.68 0.511682 2.00473 0
M  V30 11248 C 1051.09 -0.898684 1.6604 0
M  V30 11249 O 1050.45 -1.59035 0.895218 0
M  V30 11250 C 1050.5 0.671723 3.55204 0
M  V30 11251 O 1050.22 2.02656 3.8841 0
M  V30 11252 C 1051.72 0.3052 4.42248 0
M  V30 11253 H 1048.94 0.198231 0.64105 0
M  V30 11254 H 1051.49 1.18472 1.66687 0
M  V30 11255 H 1049.64 0.0461066 3.87373 0
M  V30 11256 H 1050.06 2.04202 4.83117 0
M  V30 11257 H 1051.53 0.468095 5.50012 0
M  V30 11258 H 1052.01 -0.756456 4.32637 0
M  V30 11259 H 1052.61 0.906959 4.15517 0
M  V30 11260 N 1050.93 -1.4397 0.641131 0
M  V30 11261 C 1051.88 -2.30728 -0.0577905 0
M  V30 11262 C 1052.85 -1.44059 -0.826819 0
M  V30 11263 O 1054.03 -1.72947 -0.805853 0
M  V30 11264 C 1051.17 -3.29478 -1.02657 0
M  V30 11265 C 1050.28 -4.31247 -0.254913 0
M  V30 11266 C 1049.42 -5.17085 -1.2164 0
M  V30 11267 C 1048.46 -6.10556 -0.434481 0
M  V30 11268 N 1047.6 -6.89059 -1.34694 0
M  V30 11269 H 1052.44 -2.8995 0.687953 0
M  V30 11270 H 1049.97 -1.4285 0.351029 0
M  V30 11271 H 1051.93 -3.85228 -1.60173 0
M  V30 11272 H 1050.56 -2.71932 -1.73933 0
M  V30 11273 H 1049.61 -3.77889 0.436338 0
M  V30 11274 H 1050.92 -4.97545 0.353642 0
M  V30 11275 H 1050.08 -5.77402 -1.86258 0
M  V30 11276 H 1048.82 -4.50885 -1.85888 0
M  V30 11277 H 1047.82 -5.49339 0.225125 0
M  V30 11278 H 1049.05 -6.78795 0.203415 0
M  V30 11279 H 1046.99 -6.25518 -1.97644 0
M  V30 11280 H 1046.91 -7.51833 -0.792657 0
M  V30 11281 H 1048.18 -7.5389 -1.98165 0
M  V30 11282 N 1052.41 -0.382291 -1.52893 0
M  V30 11283 C 1053.32 0.463745 -2.29971 0
M  V30 11284 C 1054.33 1.07777 -1.36602 0
M  V30 11285 O 1055.51 1.0851 -1.69669 0
M  V30 11286 C 1052.57 1.57938 -3.08637 0
M  V30 11287 C 1051.64 0.991182 -4.17701 0
M  V30 11288 C 1050.87 2.05365 -4.92606 0
M  V30 11289 O 1051.09 3.26757 -4.67532 0
M  V30 11290 O 1050.03 1.67487 -5.78128 0
M  V30 11291 H 1053.85 -0.163962 -3.03257 0
M  V30 11292 H 1051.44 -0.146199 -1.48683 0
M  V30 11293 H 1053.32 2.22765 -3.57706 0
M  V30 11294 H 1051.99 2.19218 -2.3817 0
M  V30 11295 H 1050.9 0.306364 -3.72843 0
M  V30 11296 H 1052.23 0.422699 -4.90382 0
M  V30 11297 N 1053.89 1.57202 -0.111913 0
M  V30 11298 C 1055.13 1.9495 0.547795 0
M  V30 11299 C 1055.46 0.994763 1.67137 0
M  V30 11300 O 1054.72 0.0173528 1.95692 0
M  V30 11301 C 1055.01 3.39152 1.12741 0
M  V30 11302 C 1054.68 4.50724 0.125916 0
M  V30 11303 C 1053.34 4.80968 -0.149489 0
M  V30 11304 C 1055.69 5.18215 -0.556987 0
M  V30 11305 C 1053.02 5.76023 -1.1142 0
M  V30 11306 C 1055.37 6.14307 -1.51029 0
M  V30 11307 C 1054.04 6.42947 -1.79375 0
M  V30 11308 H 1053.31 0.713372 0.200453 0
M  V30 11309 H 1055.96 1.90542 -0.191316 0
M  V30 11310 H 1054.26 3.4022 1.94313 0
M  V30 11311 H 1055.96 3.65668 1.64584 0
M  V30 11312 H 1052.55 4.27162 0.350756 0
M  V30 11313 H 1056.73 4.95012 -0.357378 0
M  V30 11314 H 1051.99 5.9652 -1.34064 0
M  V30 11315 H 1056.16 6.65692 -2.04516 0
M  V30 11316 H 1053.79 7.1641 -2.54284 0
M  V30 11317 N 1055.36 -0.161842 1.56767 0
M  V30 11318 C 1056.3 -1.22927 1.9226 0
M  V30 11319 C 1057.27 -1.42309 0.786562 0
M  V30 11320 O 1058.46 -1.57163 1.04078 0
M  V30 11321 C 1055.59 -2.59069 2.18177 0
M  V30 11322 C 1054.63 -2.56368 3.40849 0
M  V30 11323 S 1055.46 -2.04518 4.94907 0
M  V30 11324 C 1056.62 -3.42418 5.23928 0
M  V30 11325 H 1056.85 -0.926377 2.82499 0
M  V30 11326 H 1054.39 -0.366822 1.49979 0
M  V30 11327 H 1056.34 -3.37421 2.33789 0
M  V30 11328 H 1055.01 -2.86554 1.28629 0
M  V30 11329 H 1054.2 -3.56551 3.56213 0
M  V30 11330 H 1053.8 -1.86116 3.24402 0
M  V30 11331 H 1056.09 -4.38461 5.16486 0
M  V30 11332 H 1057.04 -3.3192 6.25487 0
M  V30 11333 H 1057.44 -3.38868 4.51474 0
M  V30 11334 N 1056.84 -1.516 -0.430713 0
M  V30 11335 C 1058.07 -1.687 -1.20644 0
M  V30 11336 C 1058.49 -0.386555 -1.84085 0
M  V30 11337 O 1057.85 0.653952 -1.69095 0
M  V30 11338 C 1057.9 -2.80887 -2.2613 0
M  V30 11339 O 1057 -2.44952 -3.31772 0
M  V30 11340 H 1056.34 -0.562289 -0.353167 0
M  V30 11341 H 1058.87 -1.98198 -0.507807 0
M  V30 11342 H 1058.88 -3.05167 -2.70809 0
M  V30 11343 H 1057.56 -3.75249 -1.79334 0
M  V30 11344 H 1056.13 -2.31267 -2.92523 0
M  V30 11345 N 1058.32 0.686584 -1.41858 0
M  V30 11346 C 1059.27 1.80038 -1.44413 0
M  V30 11347 C 1060.24 1.63415 -0.297427 0
M  V30 11348 O 1061.42 1.84138 -0.499789 0
M  V30 11349 C 1058.56 3.17988 -1.34082 0
M  V30 11350 C 1057.67 3.45979 -2.58693 0
M  V30 11351 C 1056.81 4.73592 -2.4059 0
M  V30 11352 C 1055.85 4.94581 -3.60633 0
M  V30 11353 N 1054.99 6.13426 -3.41545 0
M  V30 11354 H 1059.83 1.77189 -2.396 0
M  V30 11355 H 1057.36 0.865158 -1.18968 0
M  V30 11356 H 1059.32 3.97689 -1.26092 0
M  V30 11357 H 1057.95 3.1999 -0.424975 0
M  V30 11358 H 1057 2.60617 -2.77097 0
M  V30 11359 H 1058.31 3.57386 -3.47961 0
M  V30 11360 H 1057.47 5.61364 -2.30119 0
M  V30 11361 H 1056.21 4.64448 -1.48794 0
M  V30 11362 H 1055.21 4.05254 -3.71549 0
M  V30 11363 H 1056.44 5.05578 -4.53395 0
M  V30 11364 H 1054.38 6.05477 -2.52456 0
M  V30 11365 H 1054.3 6.25641 -4.24393 0
M  V30 11366 H 1055.57 7.03908 -3.34864 0
M  V30 11367 N 1059.8 1.27835 0.921735 0
M  V30 11368 C 1060.75 1.07723 2.00947 0
M  V30 11369 C 1061.73 0.00336676 1.609 0
M  V30 11370 O 1062.92 0.222593 1.75595 0
M  V30 11371 C 1060.05 0.732732 3.35389 0
M  V30 11372 C 1059.14 1.84504 3.81863 0
M  V30 11373 N 1059.53 3.08551 4.00787 0
M  V30 11374 C 1057.83 1.73308 4.10951 0
M  V30 11375 C 1058.53 3.80974 4.39584 0
M  V30 11376 N 1057.5 3.08773 4.47393 0
M  V30 11377 H 1061.31 2.01854 2.13617 0
M  V30 11378 H 1058.82 1.18637 1.109 0
M  V30 11379 H 1060.82 0.56975 4.12988 0
M  V30 11380 H 1059.48 -0.200885 3.24078 0
M  V30 11381 H 1060.49 3.44248 3.86928 0
M  V30 11382 H 1057.17 0.870698 4.0832 0
M  V30 11383 H 1058.56 4.87617 4.62255 0
M  V30 11384 N 1061.28 -1.12907 1.09954 0
M  V30 11385 C 1062.5 -1.88679 0.861099 0
M  V30 11386 C 1062.93 -1.78853 -0.582499 0
M  V30 11387 O 1062.28 -1.13992 -1.4098 0
M  V30 11388 C 1062.33 -3.36047 1.30785 0
M  V30 11389 O 1061.44 -4.09716 0.469728 0
M  V30 11390 H 1060.78 -0.586447 0.31141 0
M  V30 11391 H 1063.31 -1.42818 1.46507 0
M  V30 11392 H 1063.32 -3.86882 1.29562 0
M  V30 11393 H 1061.99 -3.42516 2.35914 0
M  V30 11394 H 1060.57 -3.6887 0.54674 0
M  V30 11395 N 1062.75 -0.88754 -1.30232 0
M  V30 11396 C 1063.7 -0.354497 -2.28061 0
M  V30 11397 C 1064.67 0.556732 -1.56492 0
M  V30 11398 O 1065.86 0.484597 -1.84543 0
M  V30 11399 C 1063 0.422701 -3.42501 0
M  V30 11400 C 1062.11 -0.518036 -4.28883 0
M  V30 11401 C 1061.24 0.275011 -5.30488 0
M  V30 11402 C 1060.28 -0.661032 -6.0852 0
M  V30 11403 N 1059.42 0.0968509 -7.02033 0
M  V30 11404 H 1064.26 -1.19388 -2.73039 0
M  V30 11405 H 1061.8 -0.600091 -1.34303 0
M  V30 11406 H 1063.75 0.889249 -4.07613 0
M  V30 11407 H 1062.38 1.22664 -2.98586 0
M  V30 11408 H 1061.44 -1.10308 -3.64055 0
M  V30 11409 H 1062.75 -1.23504 -4.83268 0
M  V30 11410 H 1061.9 0.803301 -6.01358 0
M  V30 11411 H 1060.64 1.02522 -4.76802 0
M  V30 11412 H 1059.65 -1.20093 -5.36524 0
M  V30 11413 H 1060.87 -1.41037 -6.64293 0
M  V30 11414 H 1058.82 0.829548 -6.50734 0
M  V30 11415 H 1058.73 -0.560476 -7.5392 0
M  V30 11416 H 1060 0.6058 -7.77142 0
M  V30 11417 N 1064.23 1.43628 -0.648757 0
M  V30 11418 C 1065.51 1.95391 -0.0904551 0
M  V30 11419 C 1065.89 1.59021 1.38837 0
M  V30 11420 O 1065.24 0.873078 2.11163 0
M  V30 11421 C 1065.45 3.47418 -0.33196 0
M  V30 11422 C 1066.8 4.23952 -0.234521 0
M  V30 11423 O 1067.82 3.55218 -0.264276 0
M  V30 11424 O 1066.68 5.46282 -0.154428 0
M  V30 11425 H 1063.77 0.82691 0.0121884 0
M  V30 11426 H 1066.32 1.5359 -0.721685 0
M  V30 11427 H 1065.09 3.67001 -1.35741 0
M  V30 11428 H 1064.71 3.96207 0.332556 0
M  V30 11429 N 1065.71 0.390394 1.52688 0
M  V30 11430 C 1066.67 -0.432149 2.25089 0
M  V30 11431 C 1067.67 -0.989296 1.26766 0
M  V30 11432 O 1068.86 -0.871126 1.50854 0
M  V30 11433 C 1066 -1.60642 3.00678 0
M  V30 11434 H 1067.19 0.201734 2.99221 0
M  V30 11435 H 1064.74 0.142531 1.55649 0
M  V30 11436 H 1065.48 -2.2777 2.3085 0
M  V30 11437 H 1065.26 -1.21361 3.72846 0
M  V30 11438 H 1066.75 -2.18873 3.55647 0
M  V30 11439 N 1067.19 -1.57141 0.120249 0
M  V30 11440 C 1068.14 -2.15379 -0.829497 0
M  V30 11441 C 1069.11 -1.07913 -1.2627 0
M  V30 11442 O 1070.29 -1.35827 -1.33999 0
M  V30 11443 C 1067.43 -2.75847 -2.0737 0
M  V30 11444 C 1066.54 -3.97624 -1.68875 0
M  V30 11445 C 1065.68 -4.46175 -2.88272 0
M  V30 11446 C 1064.72 -5.60481 -2.46023 0
M  V30 11447 N 1063.85 -6.0377 -3.58337 0
M  V30 11448 H 1068.69 -2.96211 -0.326031 0
M  V30 11449 H 1066.23 -1.46341 -0.149235 0
M  V30 11450 H 1068.19 -3.09037 -2.80272 0
M  V30 11451 H 1066.82 -1.97703 -2.55174 0
M  V30 11452 H 1065.87 -3.70588 -0.858431 0
M  V30 11453 H 1067.18 -4.80512 -1.33827 0
M  V30 11454 H 1066.34 -4.8128 -3.69397 0
M  V30 11455 H 1065.08 -3.6224 -3.26548 0
M  V30 11456 H 1064.08 -5.24979 -1.63331 0
M  V30 11457 H 1065.31 -6.46184 -2.08863 0
M  V30 11458 H 1063.25 -5.22776 -3.96284 0
M  V30 11459 H 1063.17 -6.81517 -3.27217 0
M  V30 11460 H 1064.44 -6.43514 -4.39898 0
M  V30 11461 N 1068.67 0.153526 -1.5685 0
M  V30 11462 C 1069.58 1.20932 -2.01029 0
M  V30 11463 C 1070.59 1.47401 -0.924598 0
M  V30 11464 O 1071.77 1.592 -1.23359 0
M  V30 11465 C 1068.83 2.52438 -2.37647 0
M  V30 11466 C 1067.89 2.33673 -3.60132 0
M  V30 11467 C 1067.13 3.58909 -3.94994 0
M  V30 11468 O 1067.35 4.64823 -3.30599 0
M  V30 11469 O 1066.28 3.5196 -4.8827 0
M  V30 11470 H 1070.11 0.864273 -2.91143 0
M  V30 11471 H 1067.7 0.361755 -1.44954 0
M  V30 11472 H 1069.58 3.29981 -2.62088 0
M  V30 11473 H 1068.25 2.86486 -1.5069 0
M  V30 11474 H 1067.16 1.54102 -3.40886 0
M  V30 11475 H 1068.49 2.04544 -4.47686 0
M  V30 11476 N 1070.14 1.51827 0.422667 0
M  V30 11477 C 1071.09 1.74198 1.51406 0
M  V30 11478 C 1072.06 0.584013 1.55494 0
M  V30 11479 O 1073.25 0.820079 1.72277 0
M  V30 11480 C 1070.39 1.88627 2.88988 0
M  V30 11481 C 1069.5 3.16233 2.94314 0
M  V30 11482 C 1068.63 3.21172 4.2311 0
M  V30 11483 C 1067.67 4.43033 4.2236 0
M  V30 11484 N 1066.81 4.4544 5.42704 0
M  V30 11485 H 1071.65 2.67352 1.31632 0
M  V30 11486 H 1069.19 1.32487 0.63919 0
M  V30 11487 H 1071.15 1.94976 3.68837 0
M  V30 11488 H 1069.78 0.988673 3.07287 0
M  V30 11489 H 1068.83 3.19123 2.07039 0
M  V30 11490 H 1070.14 4.06104 2.89623 0
M  V30 11491 H 1069.29 3.26517 5.11343 0
M  V30 11492 H 1068.03 2.29216 4.30478 0
M  V30 11493 H 1067.04 4.37849 3.32518 0
M  V30 11494 H 1068.26 5.3627 4.16643 0
M  V30 11495 H 1066.21 3.56361 5.50766 0
M  V30 11496 H 1066.13 5.29138 5.39953 0
M  V30 11497 H 1067.39 4.54997 6.32928 0
M  V30 11498 N 1071.62 -0.679052 1.4222 0
M  V30 11499 C 1072.85 -1.46747 1.45852 0
M  V30 11500 C 1073.27 -1.88675 0.0685937 0
M  V30 11501 O 1072.62 -1.57861 -0.915757 0
M  V30 11502 C 1072.67 -2.71935 2.38188 0
M  V30 11503 O 1072.39 -2.31768 3.71773 0
M  V30 11504 C 1073.9 -3.65536 2.50796 0
M  V30 11505 H 1071.12 -0.451682 0.49621 0
M  V30 11506 H 1073.66 -0.834723 1.86689 0
M  V30 11507 H 1071.81 -3.31409 2.00616 0
M  V30 11508 H 1072.23 -3.12579 4.21182 0
M  V30 11509 H 1073.7 -4.50113 3.19535 0
M  V30 11510 H 1074.18 -4.11148 1.54447 0
M  V30 11511 H 1074.79 -3.11957 2.89072 0
M  V30 11512 N 1073.1 -1.28322 -0.914942 0
M  V30 11513 C 1074.35 -1.15179 -1.66067 0
M  V30 11514 C 1074.67 0.300279 -1.92674 0
M  V30 11515 O 1073.94 1.20821 -1.54205 0
M  V30 11516 H 1072.52 -0.423264 -0.615513 0
M  V30 11517 H 1075.18 -1.61034 -1.09791 0
M  V30 11518 H 1074.28 -1.69048 -2.62353 0
M  V30 11519 N 1074.58 1.12322 -1.10551 0
M  V30 11520 C 1075.51 2.17819 -0.713263 0
M  V30 11521 C 1076.52 1.6086 0.250604 0
M  V30 11522 O 1077.71 1.78466 0.0348909 0
M  V30 11523 C 1074.81 3.38885 -0.0320325 0
M  V30 11524 C 1073.99 4.25332 -1.02038 0
M  V30 11525 C 1073.04 5.24895 -0.370412 0
M  V30 11526 O 1072.07 5.59958 -1.02157 0
M  V30 11527 N 1073.27 5.73934 0.870633 0
M  V30 11528 H 1076.04 2.52083 -1.62094 0
M  V30 11529 H 1073.6 1.27755 -0.994492 0
M  V30 11530 H 1075.59 4.02574 0.414285 0
M  V30 11531 H 1074.16 3.02762 0.778072 0
M  V30 11532 H 1073.38 3.5824 -1.64492 0
M  V30 11533 H 1074.67 4.79936 -1.68936 0
M  V30 11534 H 1074.07 5.47614 1.419 0
M  V30 11535 H 1072.62 6.39504 1.26008 0
M  V30 11536 N 1076.06 0.894434 1.2976 0
M  V30 11537 C 1077.3 0.518435 1.96061 0
M  V30 11538 C 1077.64 -0.931882 1.70381 0
M  V30 11539 O 1076.91 -1.65988 1.01381 0
M  V30 11540 C 1077.19 0.80519 3.50982 0
M  V30 11541 C 1077.05 2.30683 3.86142 0
M  V30 11542 C 1078.37 0.288096 4.39156 0
M  V30 11543 H 1075.48 0.18983 0.712133 0
M  V30 11544 H 1078.13 1.12016 1.53468 0
M  V30 11545 H 1076.28 0.293071 3.87393 0
M  V30 11546 H 1077.95 2.88808 3.59705 0
M  V30 11547 H 1076.19 2.76968 3.33873 0
M  V30 11548 H 1076.86 2.45805 4.94251 0
M  V30 11549 H 1079.34 0.726547 4.09708 0
M  V30 11550 H 1078.21 0.517985 5.4645 0
M  V30 11551 H 1078.48 -0.811018 4.34597 0
M  V30 11552 N 1077.53 -1.43282 0.656365 0
M  V30 11553 C 1078.76 -2.06125 0.178879 0
M  V30 11554 C 1079.18 -1.49216 -1.15672 0
M  V30 11555 O 1078.53 -0.624693 -1.71475 0
M  V30 11556 C 1078.59 -3.614 0.0851785 0
M  V30 11557 O 1078.31 -4.16194 1.36798 0
M  V30 11558 C 1079.81 -4.41325 -0.41801 0
M  V30 11559 H 1077.03 -0.664753 0.0913504 0
M  V30 11560 H 1079.57 -1.83733 0.897901 0
M  V30 11561 H 1077.73 -3.82966 -0.584421 0
M  V30 11562 H 1078.14 -5.09892 1.22924 0
M  V30 11563 H 1079.61 -5.50303 -0.432519 0
M  V30 11564 H 1080.09 -4.14577 -1.44991 0
M  V30 11565 H 1080.7 -4.24735 0.219208 0
M  V30 11566 N 1079.01 -0.398486 -1.52479 0
M  V30 11567 C 1080.26 0.180394 -2.01293 0
M  V30 11568 C 1080.58 1.46548 -1.28641 0
M  V30 11569 O 1079.85 1.91579 -0.409173 0
M  V30 11570 H 1078.43 0.0696528 -0.743746 0
M  V30 11571 H 1081.09 -0.532285 -1.87491 0
M  V30 11572 H 1080.19 0.38409 -3.09728 0
M  V30 11573 N 1080.49 1.57075 -0.12858 0
M  V30 11574 C 1081.72 1.99876 0.534544 0
M  V30 11575 C 1082.13 1.00843 1.59612 0
M  V30 11576 O 1081.49 0.00268947 1.825 0
M  V30 11577 C 1081.54 3.42654 1.15198 0
M  V30 11578 O 1081.26 4.37899 0.132823 0
M  V30 11579 C 1082.76 4.00637 1.8975 0
M  V30 11580 H 1079.98 0.656073 0.140744 0
M  V30 11581 H 1082.53 2.03337 -0.217742 0
M  V30 11582 H 1080.68 3.40101 1.85499 0
M  V30 11583 H 1081.1 5.21253 0.582682 0
M  V30 11584 H 1082.57 5.02592 2.28266 0
M  V30 11585 H 1083.05 3.40313 2.7764 0
M  V30 11586 H 1083.65 4.06764 1.2419 0
M  V30 11587 N 1081.97 -0.145205 1.5693 0
M  V30 11588 C 1083.19 -0.876386 1.87974 0
M  V30 11589 C 1083.62 -1.73866 0.717795 0
M  V30 11590 O 1082.98 -1.78224 -0.332551 0
M  V30 11591 C 1083.03 -1.70746 3.17613 0
M  V30 11592 O 1082.13 -2.81188 3.01674 0
M  V30 11593 H 1081.47 -0.243987 0.617549 0
M  V30 11594 H 1084 -0.135482 2.04151 0
M  V30 11595 H 1084.01 -2.1021 3.49679 0
M  V30 11596 H 1082.69 -1.07429 4.01786 0
M  V30 11597 H 1081.26 -2.45117 2.81019 0
M  V30 11598 N 1083.45 -1.52049 -0.414609 0
M  V30 11599 C 1084.72 -1.56397 -1.17471 0
M  V30 11600 C 1085.1 -0.34171 -2.08316 0
M  V30 11601 O 1084.45 0.6718 -2.18401 0
M  V30 11602 C 1084.66 -2.88983 -1.95678 0
M  V30 11603 C 1086.01 -3.41781 -2.51935 0
M  V30 11604 O 1087.03 -2.90686 -2.05865 0
M  V30 11605 O 1085.89 -4.30989 -3.36022 0
M  V30 11606 H 1082.99 -0.62974 -0.536056 0
M  V30 11607 H 1085.53 -1.64374 -0.421834 0
M  V30 11608 H 1084.31 -3.69392 -1.29094 0
M  V30 11609 H 1083.93 -2.84274 -2.77983 0
M  V30 11610 N 1084.93 0.6715 -1.42579 0
M  V30 11611 C 1086.17 1.43154 -1.43224 0
M  V30 11612 C 1086.5 1.94436 -0.0498695 0
M  V30 11613 O 1085.76 1.71521 0.942282 0
M  V30 11614 C 1086.05 2.64256 -2.40632 0
M  V30 11615 C 1085.72 2.31497 -3.86937 0
M  V30 11616 C 1084.38 2.22274 -4.26788 0
M  V30 11617 C 1086.73 2.04957 -4.7921 0
M  V30 11618 C 1084.06 1.84642 -5.56888 0
M  V30 11619 C 1086.41 1.68828 -6.09656 0
M  V30 11620 C 1085.08 1.58118 -6.48502 0
M  V30 11621 H 1084.35 0.523838 -0.524094 0
M  V30 11622 H 1087 0.765363 -1.7554 0
M  V30 11623 H 1085.3 3.35921 -2.01654 0
M  V30 11624 H 1087 3.22443 -2.38394 0
M  V30 11625 H 1083.59 2.39578 -3.55387 0
M  V30 11626 H 1087.77 2.11014 -4.49207 0
M  V30 11627 H 1083.03 1.74921 -5.85843 0
M  V30 11628 H 1087.2 1.47319 -6.8064 0
M  V30 11629 H 1084.83 1.28728 -7.49222 0
M  V30 11630 N 1086.4 1.28806 0.908124 0
M  V30 11631 C 1087.65 1.1646 1.66027 0
M  V30 11632 C 1087.98 -0.285025 1.92097 0
M  V30 11633 O 1087.26 -1.20675 1.52538 0
M  V30 11634 C 1087.54 1.96951 3.01467 0
M  V30 11635 C 1087.39 3.50007 2.82515 0
M  V30 11636 C 1088.71 1.78932 4.02084 0
M  V30 11637 H 1085.83 0.424435 0.602515 0
M  V30 11638 H 1088.47 1.58185 1.0525 0
M  V30 11639 H 1086.62 1.61495 3.53344 0
M  V30 11640 H 1088.3 3.95401 2.37605 0
M  V30 11641 H 1086.54 3.75356 2.17463 0
M  V30 11642 H 1087.21 4.01591 3.7872 0
M  V30 11643 H 1089.69 2.09885 3.59287 0
M  V30 11644 H 1088.56 2.37615 4.94803 0
M  V30 11645 H 1088.82 0.742286 4.35824 0
M  V30 11646 N 1087.88 -1.11734 1.11145 0
M  V30 11647 C 1089.13 -1.83043 0.856717 0
M  V30 11648 C 1089.45 -1.84901 -0.619407 0
M  V30 11649 O 1088.72 -1.31738 -1.44989 0
M  V30 11650 H 1087.3 -0.677823 0.31395 0
M  V30 11651 H 1089.96 -1.35262 1.40322 0
M  V30 11652 H 1089.06 -2.87005 1.22616 0
M  V30 11653 N 1089.36 -0.901303 -1.29284 0
M  V30 11654 C 1090.58 -0.542823 -2.0017 0
M  V30 11655 C 1091.01 0.865583 -1.67001 0
M  V30 11656 O 1090.37 1.5764 -0.895502 0
M  V30 11657 C 1090.42 -0.743987 -3.52842 0
M  V30 11658 O 1089.52 0.202771 -4.11901 0
M  V30 11659 H 1088.86 -0.211903 -0.62928 0
M  V30 11660 H 1091.39 -1.21333 -1.64741 0
M  V30 11661 H 1091.4 -0.64926 -4.02801 0
M  V30 11662 H 1090.08 -1.77077 -3.7632 0
M  V30 11663 H 1088.65 0.0603637 -3.72851 0
M  V30 11664 N 1090.84 1.42931 -0.663954 0
M  V30 11665 C 1092.08 2.01982 -0.182007 0
M  V30 11666 C 1092.42 1.52323 1.20463 0
M  V30 11667 O 1091.69 0.720834 1.80649 0
M  V30 11668 C 1091.97 3.59518 -0.204671 0
M  V30 11669 C 1091.83 4.19382 -1.62599 0
M  V30 11670 C 1093.15 4.37762 0.45308 0
M  V30 11671 H 1090.27 0.733892 -0.0676115 0
M  V30 11672 H 1092.91 1.70092 -0.84668 0
M  V30 11673 H 1091.06 3.86816 0.361295 0
M  V30 11674 H 1092.73 4.03076 -2.24337 0
M  V30 11675 H 1090.97 3.75623 -2.17001 0
M  V30 11676 H 1091.64 5.28496 -1.59362 0
M  V30 11677 H 1094.12 4.1609 -0.0285774 0
M  V30 11678 H 1093 5.47392 0.406538 0
M  V30 11679 H 1093.26 4.1482 1.52895 0
M  V30 11680 N 1092.32 0.406567 1.52266 0
M  V30 11681 C 1093.26 -0.420182 2.26943 0
M  V30 11682 C 1094.23 -1.04323 1.29251 0
M  V30 11683 O 1095.42 -1.06799 1.5811 0
M  V30 11684 C 1092.56 -1.5323 3.09216 0
M  V30 11685 C 1091.67 -0.930419 4.21862 0
M  V30 11686 C 1090.81 -2.01502 4.91498 0
M  V30 11687 C 1089.84 -1.38994 5.9611 0
M  V30 11688 N 1088.98 -2.41458 6.59274 0
M  V30 11689 H 1093.82 0.223066 2.97164 0
M  V30 11690 H 1091.36 0.121842 1.46595 0
M  V30 11691 H 1093.32 -2.18803 3.5522 0
M  V30 11692 H 1091.95 -2.14561 2.41171 0
M  V30 11693 H 1091 -0.163809 3.80047 0
M  V30 11694 H 1092.31 -0.433785 4.9691 0
M  V30 11695 H 1091.46 -2.74807 5.40894 0
M  V30 11696 H 1090.2 -2.5453 4.16012 0
M  V30 11697 H 1089.21 -0.642213 5.46036 0
M  V30 11698 H 1090.43 -0.867386 6.73538 0
M  V30 11699 H 1088.38 -2.93623 5.86619 0
M  V30 11700 H 1088.3 -1.96599 7.2999 0
M  V30 11701 H 1089.56 -3.14341 7.13309 0
M  V30 11702 N 1093.79 -1.57004 0.136909 0
M  V30 11703 C 1094.72 -2.19262 -0.802902 0
M  V30 11704 C 1095.71 -1.13786 -1.26439 0
M  V30 11705 O 1096.89 -1.42091 -1.32377 0
M  V30 11706 C 1094.02 -2.80624 -2.04615 0
M  V30 11707 C 1092.97 -3.91839 -1.72181 0
M  V30 11708 C 1092.3 -4.4009 -3.03686 0
M  V30 11709 C 1093.6 -5.13095 -0.976249 0
M  V30 11710 H 1095.29 -2.98049 -0.28406 0
M  V30 11711 H 1092.84 -1.43364 -0.135189 0
M  V30 11712 H 1094.79 -3.22842 -2.70834 0
M  V30 11713 H 1093.52 -1.99153 -2.58855 0
M  V30 11714 H 1092.18 -3.50224 -1.08344 0
M  V30 11715 H 1091.82 -3.55454 -3.55896 0
M  V30 11716 H 1091.52 -5.15098 -2.82751 0
M  V30 11717 H 1093.05 -4.84971 -3.70993 0
M  V30 11718 H 1094.46 -5.5222 -1.54033 0
M  V30 11719 H 1092.86 -5.93801 -0.867214 0
M  V30 11720 H 1093.93 -4.84888 0.0338488 0
M  V30 11721 N 1095.27 0.136881 -1.57004 0
M  V30 11722 C 1096.22 1.18782 -1.99984 0
M  V30 11723 C 1097.21 1.43899 -0.893841 0
M  V30 11724 O 1098.42 1.44072 -1.07904 0
M  V30 11725 H 1094.8 0.400065 -0.636751 0
M  V30 11726 H 1096.77 0.798696 -2.87512 0
M  V30 11727 C 1095.52 2.51105 -2.40502 0
M  V30 11728 H 1094.84 2.32611 -3.25165 0
M  V30 11729 H 1096.28 3.23244 -2.74389 0
M  V30 11730 C 1094.74 3.12386 -1.26161 0
M  V30 11731 O 1095.27 3.97666 -0.567836 0
M  V30 11732 N 1093.47 2.71989 -1.02326 0
M  V30 11733 H 1093.02 2.02736 -1.58921 0
M  V30 11734 H 1092.98 3.13322 -0.26013 0
M  V30 11735 N 1096.75 1.52266 0.40654 0
M  V30 11736 C 1098.03 1.57018 1.1664 0
M  V30 11737 C 1098.41 0.352752 2.08132 0
M  V30 11738 O 1097.76 -0.660208 2.18754 0
M  V30 11739 C 1097.97 2.90016 1.94143 0
M  V30 11740 C 1099.31 3.43112 2.50119 0
M  V30 11741 O 1100.34 2.91773 2.0432 0
M  V30 11742 O 1099.2 4.32765 3.33731 0
M  V30 11743 H 1096.29 0.632574 0.532709 0
M  V30 11744 H 1098.84 1.64595 0.413111 0
M  V30 11745 H 1097.61 3.70071 1.27134 0
M  V30 11746 H 1097.23 2.85744 2.76471 0
M  V30 11747 N 1098.23 -0.663929 1.42933 0
M  V30 11748 C 1099.18 -1.77007 1.4371 0
M  V30 11749 C 1100.16 -1.57945 0.306948 0
M  V30 11750 O 1101.35 -1.68239 0.549967 0
M  V30 11751 C 1098.48 -3.15535 1.3525 0
M  V30 11752 C 1097.57 -3.40183 2.53252 0
M  V30 11753 N 1097.96 -3.35357 3.78641 0
M  V30 11754 C 1096.26 -3.70861 2.47746 0
M  V30 11755 C 1096.96 -3.5979 4.57085 0
M  V30 11756 N 1095.94 -3.81084 3.87655 0
M  V30 11757 H 1099.74 -1.71686 2.3854 0
M  V30 11758 H 1097.25 -0.865191 1.37434 0
M  V30 11759 H 1099.25 -3.94816 1.33888 0
M  V30 11760 H 1097.91 -3.22046 0.414308 0
M  V30 11761 H 1098.92 -3.15011 4.11082 0
M  V30 11762 H 1095.6 -3.84552 1.62561 0
M  V30 11763 H 1096.99 -3.61928 5.6609 0
M  V30 11764 N 1099.71 -1.29285 -0.901281 0
M  V30 11765 C 1100.95 -1.17165 -1.65162 0
M  V30 11766 C 1101.28 0.277184 -1.92515 0
M  V30 11767 O 1100.54 1.2168 -1.53273 0
M  V30 11768 C 1100.84 -1.92865 -3.00895 0
M  V30 11769 C 1100.5 -3.42593 -2.93157 0
M  V30 11770 C 1099.16 -3.83426 -2.90754 0
M  V30 11771 C 1101.52 -4.38011 -2.82481 0
M  V30 11772 C 1098.84 -5.17997 -2.75492 0
M  V30 11773 C 1101.2 -5.7267 -2.68759 0
M  V30 11774 C 1099.86 -6.12764 -2.64721 0
M  V30 11775 H 1099.13 -0.428737 -0.604372 0
M  V30 11776 H 1101.78 -1.60204 -1.04914 0
M  V30 11777 H 1100.08 -1.42412 -3.65001 0
M  V30 11778 H 1101.78 -1.80893 -3.57881 0
M  V30 11779 H 1098.37 -3.10134 -2.95829 0
M  V30 11780 H 1102.55 -4.07417 -2.83416 0
M  V30 11781 H 1097.81 -5.48173 -2.70769 0
M  V30 11782 H 1101.98 -6.46258 -2.59469 0
M  V30 11783 H 1099.61 -7.16987 -2.52652 0
M  V30 11784 N 1101.18 1.11143 -1.11736 0
M  V30 11785 C 1102.15 2.15456 -0.78174 0
M  V30 11786 C 1103.15 1.59547 0.200383 0
M  V30 11787 O 1104.34 1.74183 -0.0244893 0
M  V30 11788 C 1101.47 3.40523 -0.160364 0
M  V30 11789 H 1102.66 2.46658 -1.70586 0
M  V30 11790 H 1100.22 1.26381 -0.919644 0
M  V30 11791 H 1100.95 3.14932 0.773835 0
M  V30 11792 H 1100.74 3.82386 -0.867378 0
M  V30 11793 H 1102.23 4.17559 0.0582175 0
M  V30 11794 N 1102.66 0.908147 1.28804 0
M  V30 11795 C 1103.59 0.409106 2.29888 0
M  V30 11796 C 1104.57 -0.520338 1.61946 0
M  V30 11797 O 1105.76 -0.429268 1.89396 0
M  V30 11798 C 1102.89 -0.35669 3.45463 0
M  V30 11799 C 1101.84 0.4831 4.25265 0
M  V30 11800 C 1101.17 -0.4107 5.3312 0
M  V30 11801 C 1102.47 1.73744 4.92555 0
M  V30 11802 H 1104.16 1.25386 2.7188 0
M  V30 11803 H 1101.71 0.604368 1.30703 0
M  V30 11804 H 1103.66 -0.71661 4.15262 0
M  V30 11805 H 1102.39 -1.2353 3.02337 0
M  V30 11806 H 1101.04 0.825464 3.57186 0
M  V30 11807 H 1100.69 -1.28769 4.86238 0
M  V30 11808 H 1100.39 0.14756 5.87415 0
M  V30 11809 H 1101.92 -0.766626 6.05768 0
M  V30 11810 H 1103.33 1.44676 5.54745 0
M  V30 11811 H 1101.73 2.23767 5.5682 0
M  V30 11812 H 1102.8 2.46853 4.17363 0
M  V30 11813 N 1104.14 -1.42577 0.671525 0
M  V30 11814 C 1105.1 -2.292 0.000392482 0
M  V30 11815 C 1106.1 -1.43158 -0.732294 0
M  V30 11816 O 1107.29 -1.64583 -0.570789 0
M  V30 11817 C 1104.43 -3.25591 -1.01013 0
M  V30 11818 H 1105.62 -2.90037 0.762783 0
M  V30 11819 H 1103.17 -1.50162 0.433703 0
M  V30 11820 H 1103.91 -2.69685 -1.80112 0
M  V30 11821 H 1103.69 -3.89049 -0.488183 0
M  V30 11822 H 1105.18 -3.90561 -1.47824 0
M  V30 11823 N 1105.62 -0.414636 -1.52048 0
M  V30 11824 C 1106.58 0.396285 -2.25748 0
M  V30 11825 C 1107.58 0.969003 -1.28324 0
M  V30 11826 O 1108.77 0.847016 -1.52221 0
M  V30 11827 C 1105.9 1.55838 -3.03195 0
M  V30 11828 H 1107.1 -0.249311 -2.98862 0
M  V30 11829 H 1104.65 -0.167276 -1.55402 0
M  V30 11830 H 1105.38 2.24068 -2.34444 0
M  V30 11831 H 1105.17 1.15414 -3.74729 0
M  V30 11832 H 1106.66 2.13187 -3.59084 0
M  V30 11833 N 1107.1 1.56929 -0.145233 0
M  V30 11834 C 1108.03 2.12449 0.833107 0
M  V30 11835 C 1109.01 1.0476 1.24355 0
M  V30 11836 O 1110.19 1.32579 1.33997 0
M  V30 11837 C 1107.32 2.64274 2.11842 0
M  V30 11838 C 1106.36 3.84093 1.85404 0
M  V30 11839 S 1107.2 5.25172 1.04663 0
M  V30 11840 C 1108.35 5.80384 2.34318 0
M  V30 11841 H 1108.59 2.951 0.360969 0
M  V30 11842 H 1106.12 1.54246 0.0690187 0
M  V30 11843 H 1108.08 2.94783 2.8568 0
M  V30 11844 H 1106.74 1.81756 2.56171 0
M  V30 11845 H 1105.93 4.18593 2.80706 0
M  V30 11846 H 1105.53 3.54336 1.19675 0
M  V30 11847 H 1107.83 5.91709 3.29981 0
M  V30 11848 H 1108.77 6.7798 2.04325 0
M  V30 11849 H 1109.18 5.08617 2.44885 0
M  V30 11850 N 1108.58 -0.128553 1.57075 0
M  V30 11851 C 1109.85 -0.867766 1.75297 0
M  V30 11852 C 1110.23 -1.98508 0.718176 0
M  V30 11853 O 1109.58 -2.2702 -0.259616 0
M  V30 11854 C 1109.79 -1.39326 3.19983 0
M  V30 11855 C 1111.14 -1.84939 3.82208 0
M  V30 11856 O 1112.16 -1.49027 3.23527 0
M  V30 11857 O 1111.02 -2.51227 4.85332 0
M  V30 11858 H 1108.12 -0.411393 0.717415 0
M  V30 11859 H 1110.66 -0.113038 1.69323 0
M  V30 11860 H 1109.43 -0.591172 3.86809 0
M  V30 11861 H 1109.06 -2.21097 3.30457 0
M  V30 11862 N 1110.05 -1.5248 -0.398459 0
M  V30 11863 C 1111.3 -1.67061 -1.14441 0
M  V30 11864 C 1111.63 -0.405821 -1.90219 0
M  V30 11865 O 1110.88 0.611532 -1.859 0
M  V30 11866 C 1111.18 -2.85038 -2.15611 0
M  V30 11867 C 1110.85 -4.22847 -1.56561 0
M  V30 11868 C 1109.51 -4.60329 -1.40182 0
M  V30 11869 C 1111.86 -5.08683 -1.1354 0
M  V30 11870 C 1109.19 -5.81314 -0.793149 0
M  V30 11871 C 1111.54 -6.30284 -0.540866 0
M  V30 11872 C 1110.21 -6.66505 -0.364297 0
M  V30 11873 H 1109.48 -0.611321 -0.418769 0
M  V30 11874 H 1112.12 -1.86604 -0.430241 0
M  V30 11875 H 1110.43 -2.59873 -2.93212 0
M  V30 11876 H 1112.13 -2.93516 -2.73221 0
M  V30 11877 H 1108.72 -3.93316 -1.70295 0
M  V30 11878 H 1112.9 -4.80301 -1.24999 0
M  V30 11879 H 1108.16 -6.07994 -0.64446 0
M  V30 11880 H 1112.33 -6.96115 -0.199167 0
M  V30 11881 H 1109.96 -7.60121 0.109439 0
M  V30 11882 N 1111.53 0.65634 -1.43283 0
M  V30 11883 C 1112.76 1.44408 -1.48168 0
M  V30 11884 C 1113.17 1.88542 -0.0986016 0
M  V30 11885 O 1112.53 1.59298 0.890527 0
M  V30 11886 C 1112.58 2.68111 -2.42484 0
M  V30 11887 O 1112.3 2.25824 -3.75413 0
M  V30 11888 C 1113.8 3.61499 -2.56579 0
M  V30 11889 H 1111.02 0.443731 -0.503333 0
M  V30 11890 H 1113.57 0.804917 -1.87993 0
M  V30 11891 H 1111.72 3.28175 -2.05863 0
M  V30 11892 H 1112.14 3.05839 -4.26102 0
M  V30 11893 H 1113.61 4.44972 -3.26655 0
M  V30 11894 H 1114.09 4.08639 -1.60969 0
M  V30 11895 H 1114.69 3.07319 -2.93998 0
M  V30 11896 N 1113.01 1.29761 0.894412 0
M  V30 11897 C 1113.96 1.15232 2.0205 0
M  V30 11898 C 1114.95 0.0665664 1.69269 0
M  V30 11899 O 1116.16 0.226746 1.78566 0
M  V30 11900 H 1112.53 0.356102 0.662341 0
M  V30 11901 H 1114.5 2.10559 2.11442 0
M  V30 11902 C 1113.25 0.851143 3.37121 0
M  V30 11903 H 1112.58 1.67865 3.62852 0
M  V30 11904 H 1114.02 0.78954 4.16584 0
M  V30 11905 C 1112.47 -0.445737 3.33938 0
M  V30 11906 O 1113 -1.47017 3.7383 0
M  V30 11907 N 1111.21 -0.453493 2.8704 0
M  V30 11908 H 1110.76 0.380636 2.54772 0
M  V30 11909 H 1110.72 -1.32119 2.85293 0
M  V30 11910 N 1114.49 -1.10549 1.12324 0
M  V30 11911 C 1115.73 -1.82941 0.889043 0
M  V30 11912 C 1116.09 -1.83483 -0.578935 0
M  V30 11913 O 1115.38 -1.28365 -1.42243 0
M  V30 11914 C 1115.58 -3.28997 1.39626 0
M  V30 11915 C 1115.4 -3.42683 2.91202 0
M  V30 11916 C 1114.17 -3.55164 3.59426 0
M  V30 11917 C 1116.37 -3.36187 3.89208 0
M  V30 11918 N 1114.35 -3.57414 4.99128 0
M  V30 11919 C 1115.73 -3.45168 5.15033 0
M  V30 11920 C 1117.78 -3.19778 3.81637 0
M  V30 11921 C 1116.48 -3.39431 6.34176 0
M  V30 11922 C 1118.51 -3.15362 5.003 0
M  V30 11923 C 1117.87 -3.24924 6.24983 0
M  V30 11924 H 1113.97 -0.684249 0.378585 0
M  V30 11925 H 1116.55 -1.32206 1.42932 0
M  V30 11926 H 1114.73 -3.78228 0.883051 0
M  V30 11927 H 1116.46 -3.89343 1.10425 0
M  V30 11928 H 1113.21 -3.5812 3.09914 0
M  V30 11929 H 1113.64 -3.62153 5.71991 0
M  V30 11930 H 1118.28 -3.11264 2.86137 0
M  V30 11931 H 1116 -3.46711 7.29943 0
M  V30 11932 H 1119.58 -3.03819 4.96171 0
M  V30 11933 H 1118.46 -3.21508 7.15264 0
M  V30 11934 N 1115.97 -0.914965 -1.28321 0
M  V30 11935 C 1117.24 -0.46764 -1.89928 0
M  V30 11936 C 1117.62 1.05364 -1.82925 0
M  V30 11937 O 1116.97 1.90223 -1.26599 0
M  V30 11938 C 1117.18 -0.999372 -3.34385 0
M  V30 11939 C 1118.53 -1.0522 -4.11356 0
M  V30 11940 O 1119.55 -0.9481 -3.4335 0
M  V30 11941 O 1118.41 -1.21085 -5.32917 0
M  V30 11942 H 1115.51 -0.148398 -0.813577 0
M  V30 11943 H 1118.05 -1.00583 -1.36679 0
M  V30 11944 H 1116.82 -2.04333 -3.33712 0
M  V30 11945 H 1116.45 -0.442083 -3.95135 0
M  V30 11946 N 1117.44 1.42219 -0.679077 0
M  V30 11947 C 1118.86 1.55737 -0.349034 0
M  V30 11948 C 1119.06 1.65789 1.14527 0
M  V30 11949 O 1118.12 1.62717 1.93079 0
M  V30 11950 C 1119.43 2.80516 -1.0831 0
M  V30 11951 C 1120.98 2.94294 -1.06584 0
M  V30 11952 C 1121.45 4.2194 -1.78132 0
M  V30 11953 N 1122.94 4.28861 -1.75021 0
M  V30 11954 C 1123.68 5.26453 -2.27234 0
M  V30 11955 N 1123.17 6.30171 -2.87847 0
M  V30 11956 N 1124.97 5.1828 -2.17584 0
M  V30 11957 H 1117.12 1.33939 -1.64846 0
M  V30 11958 H 1119.38 0.645029 -0.694725 0
M  V30 11959 H 1119.09 2.79241 -2.13816 0
M  V30 11960 H 1118.96 3.71539 -0.651069 0
M  V30 11961 H 1121.35 2.95094 -0.0191061 0
M  V30 11962 H 1121.43 2.04491 -1.53679 0
M  V30 11963 H 1121.07 4.21901 -2.82776 0
M  V30 11964 H 1121 5.10685 -1.28483 0
M  V30 11965 H 1123.49 3.54537 -1.30814 0
M  V30 11966 H 1123.81 7.01 -3.25298 0
M  V30 11967 H 1122.15 6.30721 -2.91918 0
M  V30 11968 H 1125.34 4.36172 -1.69916 0
M  V30 11969 H 1125.52 5.94172 -2.58581 0
M  V30 11970 N 1118.92 0.422693 1.51826 0
M  V30 11971 C 1120.15 -0.147744 2.06372 0
M  V30 11972 C 1120.56 -1.37714 1.29152 0
M  V30 11973 O 1119.92 -1.7917 0.347046 0
M  V30 11974 C 1119.97 -0.484642 3.58237 0
M  V30 11975 O 1119.69 0.695944 4.32537 0
M  V30 11976 C 1121.19 -1.10734 4.29247 0
M  V30 11977 H 1118.41 -0.0144047 0.670845 0
M  V30 11978 H 1120.96 0.597558 1.95575 0
M  V30 11979 H 1119.11 -1.17984 3.68997 0
M  V30 11980 H 1119.53 0.411471 5.22884 0
M  V30 11981 H 1121 -1.29318 5.36639 0
M  V30 11982 H 1121.48 -2.08429 3.86593 0
M  V30 11983 H 1122.08 -0.451958 4.22892 0
M  V30 11984 N 1120.4 -1.5685 0.153553 0
M  V30 11985 C 1121.33 -2.20101 -0.779601 0
M  V30 11986 C 1122.31 -1.15121 -1.25225 0
M  V30 11987 O 1123.5 -1.43487 -1.30862 0
M  V30 11988 C 1120.63 -2.82778 -2.01628 0
M  V30 11989 C 1119.58 -3.93643 -1.68015 0
M  V30 11990 C 1118.91 -4.43286 -2.99001 0
M  V30 11991 C 1120.21 -5.14102 -0.921774 0
M  V30 11992 H 1121.9 -2.98334 -0.252432 0
M  V30 11993 H 1119.45 -1.43499 -0.119975 0
M  V30 11994 H 1121.4 -3.25696 -2.67395 0
M  V30 11995 H 1120.12 -2.01887 -2.56728 0
M  V30 11996 H 1118.78 -3.51354 -1.04624 0
M  V30 11997 H 1118.43 -3.59208 -3.52106 0
M  V30 11998 H 1118.13 -5.18068 -2.77272 0
M  V30 11999 H 1119.65 -4.88878 -3.65828 0
M  V30 12000 H 1121.07 -5.53823 -1.48167 0
M  V30 12001 H 1119.46 -5.94687 -0.804185 0
M  V30 12002 H 1120.53 -4.84825 0.0852757 0
M  V30 12003 N 1121.88 0.120221 -1.57141 0
M  V30 12004 C 1123.11 0.842441 -1.88972 0
M  V30 12005 C 1123.52 1.73494 -0.744671 0
M  V30 12006 O 1122.88 1.80268 0.284557 0
M  V30 12007 C 1122.93 1.67688 -3.20254 0
M  V30 12008 O 1122.65 0.820319 -4.30351 0
M  V30 12009 C 1124.15 2.50436 -3.65782 0
M  V30 12010 H 1121.37 0.242241 -0.625748 0
M  V30 12011 H 1123.91 0.104978 -2.0423 0
M  V30 12012 H 1122.07 2.36712 -3.0667 0
M  V30 12013 H 1122.48 1.39575 -5.05588 0
M  V30 12014 H 1123.96 3.04518 -4.60405 0
M  V30 12015 H 1124.43 3.27737 -2.92378 0
M  V30 12016 H 1125.04 1.86657 -3.82151 0
M  V30 12017 N 1123.36 1.52689 0.390367 0
M  V30 12018 C 1124.32 1.76726 1.45947 0
M  V30 12019 C 1125.32 0.637269 1.47633 0
M  V30 12020 O 1126.51 0.905312 1.48828 0
M  V30 12021 C 1123.64 1.86678 2.85244 0
M  V30 12022 H 1124.83 2.72185 1.25918 0
M  V30 12023 H 1122.39 1.4339 0.622023 0
M  V30 12024 H 1123.12 0.931991 3.10619 0
M  V30 12025 H 1122.91 2.68843 2.85422 0
M  V30 12026 H 1124.4 2.06952 3.62713 0
M  V30 12027 N 1124.83 -0.648732 1.43629 0
M  V30 12028 C 1125.77 -1.77417 1.45107 0
M  V30 12029 C 1126.78 -1.59067 0.346618 0
M  V30 12030 O 1127.97 -1.67705 0.611322 0
M  V30 12031 C 1125.07 -3.14906 1.25249 0
M  V30 12032 C 1124.24 -3.59874 2.48616 0
M  V30 12033 C 1123.3 -4.76181 2.23916 0
M  V30 12034 O 1122.33 -4.8539 2.97296 0
M  V30 12035 N 1123.53 -5.66691 1.25862 0
M  V30 12036 H 1126.29 -1.76626 2.42123 0
M  V30 12037 H 1123.85 -0.832725 1.38843 0
M  V30 12038 H 1125.85 -3.90408 1.06601 0
M  V30 12039 H 1124.42 -3.10443 0.366623 0
M  V30 12040 H 1123.64 -2.74768 2.82659 0
M  V30 12041 H 1124.92 -3.86665 3.30708 0
M  V30 12042 H 1124.32 -5.61927 0.652227 0
M  V30 12043 H 1122.88 -6.41895 1.13196 0
M  V30 12044 N 1126.31 -1.30234 -0.887518 0
M  V30 12045 C 1127.26 -1.164 -1.99298 0
M  V30 12046 C 1128.23 -0.0541536 -1.66012 0
M  V30 12047 O 1129.41 -0.223881 -1.89482 0
M  V30 12048 C 1126.55 -0.859169 -3.34234 0
M  V30 12049 C 1125.67 -2.05065 -3.80227 0
M  V30 12050 C 1124.8 -1.68413 -5.03796 0
M  V30 12051 C 1123.84 -2.8407 -5.4219 0
M  V30 12052 N 1122.98 -2.47732 -6.56942 0
M  V30 12053 H 1127.82 -2.10973 -2.10463 0
M  V30 12054 H 1125.36 -1.04969 -1.03053 0
M  V30 12055 H 1127.31 -0.663064 -4.11897 0
M  V30 12056 H 1125.94 0.0496808 -3.22762 0
M  V30 12057 H 1125 -2.35808 -2.98494 0
M  V30 12058 H 1126.31 -2.91688 -4.04623 0
M  V30 12059 H 1125.46 -1.45162 -5.89078 0
M  V30 12060 H 1124.2 -0.789553 -4.81266 0
M  V30 12061 H 1123.21 -3.0799 -4.55437 0
M  V30 12062 H 1124.43 -3.74211 -5.66695 0
M  V30 12063 H 1122.38 -1.60777 -6.35993 0
M  V30 12064 H 1122.29 -3.27887 -6.81195 0
M  V30 12065 H 1123.56 -2.27831 -7.45462 0
M  V30 12066 N 1127.79 1.09952 -1.12909 0
M  V30 12067 C 1129.04 1.81657 -0.885729 0
M  V30 12068 C 1129.36 1.85863 0.589913 0
M  V30 12069 O 1128.63 1.34028 1.42875 0
M  V30 12070 H 1127.21 0.672743 -0.324694 0
M  V30 12071 H 1129.87 1.33013 -1.42456 0
M  V30 12072 H 1128.97 2.85018 -1.27167 0
M  V30 12073 N 1129.27 0.921757 1.27833 0
M  V30 12074 C 1130.51 0.569378 1.95268 0
M  V30 12075 C 1130.87 -0.878685 1.71163 0
M  V30 12076 O 1130.16 -1.6177 1.02669 0
M  V30 12077 C 1130.36 0.824259 3.47765 0
M  V30 12078 C 1130.19 2.29555 3.86697 0
M  V30 12079 C 1128.96 2.94715 4.10452 0
M  V30 12080 C 1131.15 3.27261 3.96743 0
M  V30 12081 N 1129.14 4.32058 4.36118 0
M  V30 12082 C 1130.51 4.49793 4.26715 0
M  V30 12083 C 1132.56 3.2255 3.79296 0
M  V30 12084 C 1131.26 5.68208 4.41057 0
M  V30 12085 C 1133.29 4.40272 3.9486 0
M  V30 12086 C 1132.65 5.61581 4.25213 0
M  V30 12087 H 1128.75 0.258368 0.738085 0
M  V30 12088 H 1131.34 1.18715 1.54321 0
M  V30 12089 H 1129.51 0.235697 3.87684 0
M  V30 12090 H 1131.24 0.435106 4.02354 0
M  V30 12091 H 1127.99 2.4541 4.05057 0
M  V30 12092 H 1128.42 5.03092 4.5302 0
M  V30 12093 H 1133.06 2.29835 3.54875 0
M  V30 12094 H 1130.78 6.61396 4.64308 0
M  V30 12095 H 1134.36 4.38138 3.82787 0
M  V30 12096 H 1133.24 6.51154 4.36998 0
M  V30 12097 N 1130.75 -1.41857 0.686609 0
M  V30 12098 C 1131.99 -2.01666 0.214118 0
M  V30 12099 C 1132.33 -1.5422 -1.18025 0
M  V30 12100 O 1131.6 -0.749482 -1.7948 0
M  V30 12101 C 1131.88 -3.59147 0.261841 0
M  V30 12102 C 1131.74 -4.16742 1.69251 0
M  V30 12103 C 1133.06 -4.38427 -0.383378 0
M  V30 12104 H 1130.17 -0.732724 0.0792785 0
M  V30 12105 H 1132.82 -1.68724 0.873633 0
M  V30 12106 H 1130.97 -3.87342 -0.29971 0
M  V30 12107 H 1132.64 -3.99456 2.30722 0
M  V30 12108 H 1130.88 -3.72124 2.2295 0
M  V30 12109 H 1131.55 -5.25894 1.6775 0
M  V30 12110 H 1134.03 -4.15992 0.0947701 0
M  V30 12111 H 1132.9 -5.4797 -0.319401 0
M  V30 12112 H 1133.17 -4.172 -1.46276 0
M  V30 12113 N 1132.22 -0.430739 -1.51599 0
M  V30 12114 C 1133.47 0.139396 -2.01218 0
M  V30 12115 C 1133.79 1.44361 -1.31982 0
M  V30 12116 O 1134.99 2.0963 -1.72533 0
M  V30 12117 C 1133.45 0.298969 -3.58656 0
M  V30 12118 C 1133.06 -0.994424 -4.36824 0
M  V30 12119 C 1134.8 0.82323 -4.16441 0
M  V30 12120 C 1132.71 -0.800855 -5.85952 0
M  V30 12121 H 1131.64 0.0558698 -0.751927 0
M  V30 12122 H 1134.29 -0.559493 -1.74762 0
M  V30 12123 H 1132.67 1.06071 -3.8153 0
M  V30 12124 H 1133.84 -1.76398 -4.257 0
M  V30 12125 H 1132.16 -1.44672 -3.9046 0
M  V30 12126 H 1134.76 0.984434 -5.2556 0
M  V30 12127 H 1135.1 1.80388 -3.75188 0
M  V30 12128 H 1135.63 0.119982 -3.97619 0
M  V30 12129 H 1132.37 -1.75369 -6.31606 0
M  V30 12130 H 1131.89 -0.0709793 -5.99758 0
M  V30 12131 H 1133.57 -0.451459 -6.45423 0
M  V30 12132 N 1133.7 1.56767 -0.161869 0
M  V30 12133 C 1134.63 2.20511 0.767918 0
M  V30 12134 C 1135.61 1.15783 1.24612 0
M  V30 12135 O 1136.8 1.44179 1.301 0
M  V30 12136 C 1133.93 2.83844 2.00125 0
M  V30 12137 C 1132.88 3.94528 1.65926 0
M  V30 12138 C 1132.21 4.44866 2.96646 0
M  V30 12139 C 1133.51 5.14583 0.894497 0
M  V30 12140 H 1135.2 2.98464 0.236607 0
M  V30 12141 H 1132.75 1.43561 0.112363 0
M  V30 12142 H 1134.7 3.27109 2.65664 0
M  V30 12143 H 1133.43 2.03246 2.55654 0
M  V30 12144 H 1132.08 3.51904 1.02759 0
M  V30 12145 H 1131.73 3.61071 3.50196 0
M  V30 12146 H 1131.43 5.19531 2.74521 0
M  V30 12147 H 1132.96 4.90812 3.6323 0
M  V30 12148 H 1134.37 5.54601 1.45228 0
M  V30 12149 H 1132.77 5.95105 0.772636 0
M  V30 12150 H 1133.84 4.84773 -0.110986 0
M  V30 12151 N 1135.18 -0.111886 1.57202 0
M  V30 12152 C 1136.13 -1.15585 2.01849 0
M  V30 12153 C 1137.12 -1.42458 0.916621 0
M  V30 12154 O 1138.33 -1.42337 1.10182 0
M  V30 12155 H 1134.7 -0.389885 0.643035 0
M  V30 12156 H 1136.67 -0.752854 2.88747 0
M  V30 12157 C 1135.42 -2.47247 2.44467 0
M  V30 12158 H 1134.75 -2.27409 3.28824 0
M  V30 12159 H 1136.19 -3.18837 2.79497 0
M  V30 12160 C 1134.65 -3.10339 1.31115 0
M  V30 12161 O 1135.18 -3.96713 0.631029 0
M  V30 12162 N 1133.38 -2.70326 1.0664 0
M  V30 12163 H 1132.93 -2.00182 1.62126 0
M  V30 12164 H 1132.89 -3.12869 0.309944 0
M  V30 12165 N 1136.66 -1.52894 -0.382264 0
M  V30 12166 C 1137.94 -1.58853 -1.14127 0
M  V30 12167 C 1138.32 -0.38582 -2.07544 0
M  V30 12168 O 1137.66 0.625323 -2.19777 0
M  V30 12169 C 1137.87 -2.93068 -1.89504 0
M  V30 12170 C 1139.22 -3.47048 -2.44629 0
M  V30 12171 O 1140.25 -2.94987 -1.99652 0
M  V30 12172 O 1139.1 -4.3802 -3.26804 0
M  V30 12173 H 1136.2 -0.640969 -0.522578 0
M  V30 12174 H 1138.74 -1.65231 -0.386873 0
M  V30 12175 H 1137.52 -3.72047 -1.2123 0
M  V30 12176 H 1137.14 -2.90106 -2.7189 0
M  V30 12177 N 1138.14 0.641106 -1.43971 0
M  V30 12178 C 1139.08 1.75352 -1.50068 0
M  V30 12179 C 1140.05 1.62386 -0.349266 0
M  V30 12180 O 1141.24 1.82455 -0.558118 0
M  V30 12181 C 1138.38 3.13561 -1.4413 0
M  V30 12182 C 1137.49 3.37574 -2.6957 0
M  V30 12183 C 1136.63 4.65698 -2.55535 0
M  V30 12184 C 1135.67 4.82857 -3.76186 0
M  V30 12185 N 1134.8 6.02249 -3.60888 0
M  V30 12186 H 1139.64 1.69477 -2.45116 0
M  V30 12187 H 1137.18 0.826871 -1.2166 0
M  V30 12188 H 1139.14 3.93476 -1.38681 0
M  V30 12189 H 1137.77 3.18476 -0.526563 0
M  V30 12190 H 1136.82 2.5167 -2.85248 0
M  V30 12191 H 1138.13 3.46135 -3.59154 0
M  V30 12192 H 1137.29 5.53759 -2.47862 0
M  V30 12193 H 1136.03 4.59479 -1.63495 0
M  V30 12194 H 1135.03 3.93229 -3.84254 0
M  V30 12195 H 1136.26 4.90898 -4.6925 0
M  V30 12196 H 1134.2 5.97138 -2.71591 0
M  V30 12197 H 1134.12 6.11822 -4.44083 0
M  V30 12198 H 1135.39 6.92898 -3.57088 0
M  V30 12199 N 1139.62 1.30703 0.880598 0
M  V30 12200 C 1140.86 1.19142 1.62752 0
M  V30 12201 C 1141.18 -0.251795 1.93973 0
M  V30 12202 O 1142.38 -0.488971 2.67061 0
M  V30 12203 C 1140.84 2.08503 2.93351 0
M  V30 12204 C 1140.45 3.57758 2.69653 0
M  V30 12205 C 1142.19 2.05715 3.71324 0
M  V30 12206 C 1140.1 4.39161 3.96096 0
M  V30 12207 H 1139.03 0.442332 0.610622 0
M  V30 12208 H 1141.68 1.55483 0.974547 0
M  V30 12209 H 1140.06 1.65049 3.59965 0
M  V30 12210 H 1141.24 4.09388 2.11513 0
M  V30 12211 H 1139.55 3.62414 2.0505 0
M  V30 12212 H 1142.15 2.63783 4.65105 0
M  V30 12213 H 1142.49 1.04168 4.03057 0
M  V30 12214 H 1143.02 2.47313 3.11579 0
M  V30 12215 H 1139.76 5.4142 3.69519 0
M  V30 12216 H 1139.28 3.92293 4.53725 0
M  V30 12217 H 1140.96 4.50823 4.64077 0
M  V30 12218 N 1141.09 -1.09351 1.1349 0
M  V30 12219 C 1142.34 -1.81812 0.898452 0
M  V30 12220 C 1142.67 -1.85525 -0.573959 0
M  V30 12221 O 1141.95 -1.32403 -1.42477 0
M  V30 12222 C 1142.23 -3.27921 1.48794 0
M  V30 12223 C 1142.08 -3.32476 3.02952 0
M  V30 12224 C 1143.4 -4.24625 1.15678 0
M  V30 12225 H 1140.52 -0.660074 0.327829 0
M  V30 12226 H 1143.16 -1.28091 1.40331 0
M  V30 12227 H 1141.31 -3.738 1.05858 0
M  V30 12228 H 1142.99 -2.94994 3.54649 0
M  V30 12229 H 1141.23 -2.72037 3.37903 0
M  V30 12230 H 1141.9 -4.35409 3.39298 0
M  V30 12231 H 1144.38 -3.87036 1.52781 0
M  V30 12232 H 1143.25 -5.25194 1.59571 0
M  V30 12233 H 1143.51 -4.42044 0.0705933 0
M  V30 12234 N 1142.57 -0.928524 -1.27343 0
M  V30 12235 C 1143.82 -0.569392 -1.9433 0
M  V30 12236 C 1144.15 0.889481 -1.7297 0
M  V30 12237 O 1143.4 1.6499 -1.05247 0
M  V30 12238 C 1143.7 -0.84269 -3.47323 0
M  V30 12239 C 1143.37 -2.28344 -3.88806 0
M  V30 12240 C 1142.03 -2.67731 -3.99842 0
M  V30 12241 C 1144.38 -3.22031 -4.09811 0
M  V30 12242 C 1141.71 -3.99928 -4.29272 0
M  V30 12243 C 1144.06 -4.5381 -4.40725 0
M  V30 12244 C 1142.72 -4.93031 -4.49975 0
M  V30 12245 H 1141.99 -0.208355 -0.711104 0
M  V30 12246 H 1144.64 -1.17264 -1.51398 0
M  V30 12247 H 1142.95 -0.156775 -3.91486 0
M  V30 12248 H 1144.64 -0.543779 -3.97296 0
M  V30 12249 H 1141.23 -1.96787 -3.80753 0
M  V30 12250 H 1145.42 -2.92803 -4.00724 0
M  V30 12251 H 1140.67 -4.29996 -4.34642 0
M  V30 12252 H 1144.85 -5.26407 -4.55926 0
M  V30 12253 H 1142.47 -5.95497 -4.72533 0
M  V30 12254 N 1144.05 1.41491 -0.694123 0
M  V30 12255 C 1144.98 2.33462 -0.0422169 0
M  V30 12256 C 1145.96 1.51739 0.76872 0
M  V30 12257 O 1147.15 1.8028 0.721985 0
M  V30 12258 C 1144.28 3.35545 0.895925 0
M  V30 12259 C 1143.23 4.27568 0.192188 0
M  V30 12260 C 1142.56 5.20014 1.24459 0
M  V30 12261 C 1143.86 5.1376 -0.940626 0
M  V30 12262 H 1145.55 2.88225 -0.810363 0
M  V30 12263 H 1143.1 1.38586 -0.39114 0
M  V30 12264 H 1145.05 3.9881 1.36121 0
M  V30 12265 H 1143.77 2.79129 1.69572 0
M  V30 12266 H 1142.43 3.65726 -0.25305 0
M  V30 12267 H 1142.08 4.59913 2.03687 0
M  V30 12268 H 1141.78 5.82417 0.778734 0
M  V30 12269 H 1143.3 5.86155 1.71041 0
M  V30 12270 H 1144.72 5.70601 -0.555692 0
M  V30 12271 H 1143.11 5.85097 -1.33349 0
M  V30 12272 H 1144.18 4.51011 -1.78093 0
M  V30 12273 N 1145.53 0.438773 1.51369 0
M  V30 12274 C 1146.78 -0.126962 2.01701 0
M  V30 12275 C 1147.1 -1.43086 1.32481 0
M  V30 12276 O 1146.37 -1.90427 0.459823 0
M  V30 12277 H 1144.95 -0.0499092 0.745331 0
M  V30 12278 H 1147.61 0.581808 1.86013 0
M  V30 12279 H 1146.7 -0.301836 3.10637 0
M  V30 12280 N 1147.01 -1.56678 0.170181 0
M  V30 12281 C 1148.23 -2.0166 -0.484543 0
M  V30 12282 C 1148.66 -1.04962 -1.56091 0
M  V30 12283 O 1148.01 -0.0289887 -1.81277 0
M  V30 12284 C 1148.06 -3.45252 -1.04084 0
M  V30 12285 O 1147.17 -3.51623 -2.15488 0
M  V30 12286 H 1146.51 -0.653765 -0.116135 0
M  V30 12287 H 1149.04 -2.02761 0.273737 0
M  V30 12288 H 1149.05 -3.84534 -1.36373 0
M  V30 12289 H 1147.72 -4.15131 -0.252738 0
M  V30 12290 H 1146.3 -3.242 -1.84252 0
M  V30 12291 N 1148.48 0.103547 -1.57259 0
M  V30 12292 C 1149.43 1.14513 -2.02459 0
M  V30 12293 C 1150.43 1.4197 -0.924163 0
M  V30 12294 O 1151.63 1.41751 -1.10936 0
M  V30 12295 H 1148.01 0.386469 -0.645094 0
M  V30 12296 H 1149.98 0.737531 -2.89142 0
M  V30 12297 C 1148.73 2.45948 -2.45775 0
M  V30 12298 H 1148.05 2.25662 -3.30026 0
M  V30 12299 H 1149.49 3.17351 -2.81184 0
M  V30 12300 C 1147.95 3.09639 -1.32759 0
M  V30 12301 O 1148.48 3.96372 -0.652059 0
M  V30 12302 N 1146.68 2.69757 -1.08072 0
M  V30 12303 H 1146.23 1.9932 -1.63185 0
M  V30 12304 H 1146.19 3.127 -0.326532 0
M  V30 12305 N 1149.96 1.53094 0.37415 0
M  V30 12306 C 1151.21 1.68082 1.11495 0
M  V30 12307 C 1151.52 0.434685 1.90709 0
M  V30 12308 O 1152.73 0.464956 2.67489 0
M  V30 12309 C 1151.19 2.97101 2.03124 0
M  V30 12310 C 1150.79 4.28947 1.29262 0
M  V30 12311 C 1152.54 3.21456 2.77248 0
M  V30 12312 C 1150.44 5.4906 2.19743 0
M  V30 12313 H 1149.37 0.626238 0.419931 0
M  V30 12314 H 1152.03 1.79594 0.376588 0
M  V30 12315 H 1150.41 2.79371 2.80656 0
M  V30 12316 H 1151.58 4.57279 0.568528 0
M  V30 12317 H 1149.9 4.10968 0.670362 0
M  V30 12318 H 1152.49 4.08377 3.45155 0
M  V30 12319 H 1152.84 2.37153 3.42146 0
M  V30 12320 H 1153.37 3.3982 2.06803 0
M  V30 12321 H 1150.11 6.35815 1.59437 0
M  V30 12322 H 1149.63 5.25019 2.90027 0
M  V30 12323 H 1151.31 5.83517 2.79495 0
M  V30 12324 N 1151.44 -0.633461 1.44309 0
M  V30 12325 C 1152.39 -1.74554 1.50995 0
M  V30 12326 C 1153.36 -1.62199 0.357873 0
M  V30 12327 O 1154.54 -1.82156 0.567787 0
M  V30 12328 C 1151.68 -3.12792 1.45791 0
M  V30 12329 C 1150.79 -3.3614 2.71356 0
M  V30 12330 C 1149.93 -4.64337 2.58002 0
M  V30 12331 C 1148.97 -4.80855 3.78741 0
M  V30 12332 N 1148.11 -6.00327 3.64077 0
M  V30 12333 H 1152.95 -1.68174 2.46011 0
M  V30 12334 H 1150.48 -0.820407 1.22097 0
M  V30 12335 H 1152.44 -3.92735 1.40765 0
M  V30 12336 H 1151.07 -3.18193 0.543445 0
M  V30 12337 H 1150.12 -2.50154 2.86579 0
M  V30 12338 H 1151.43 -3.44226 3.60985 0
M  V30 12339 H 1150.59 -5.52437 2.50795 0
M  V30 12340 H 1149.33 -4.58605 1.65929 0
M  V30 12341 H 1148.33 -3.91185 3.86334 0
M  V30 12342 H 1149.56 -4.88403 4.71847 0
M  V30 12343 H 1147.5 -5.9569 2.74754 0
M  V30 12344 H 1147.42 -6.09459 4.47321 0
M  V30 12345 H 1148.69 -6.90995 3.60758 0
M  V30 12346 N 1152.92 -1.31168 -0.873655 0
M  V30 12347 C 1153.87 -1.18432 -2.00191 0
M  V30 12348 C 1154.86 -0.0934873 -1.69142 0
M  V30 12349 O 1156.07 -0.255126 -1.78183 0
M  V30 12350 H 1152.44 -0.366594 -0.656592 0
M  V30 12351 H 1154.41 -2.13896 -2.08065 0
M  V30 12352 C 1153.16 -0.904668 -3.35725 0
M  V30 12353 H 1152.48 -1.73617 -3.60135 0
M  V30 12354 H 1153.92 -0.855715 -4.15275 0
M  V30 12355 C 1152.38 0.392554 -3.34605 0
M  V30 12356 O 1152.91 1.41052 -3.76121 0
M  V30 12357 N 1151.12 0.40777 -2.87725 0
M  V30 12358 H 1150.67 -0.42112 -2.54134 0
M  V30 12359 H 1150.62 1.27564 -2.87358 0
M  V30 12360 N 1154.4 1.08748 -1.14068 0
M  V30 12361 C 1155.62 1.84814 -0.930138 0
M  V30 12362 C 1156.04 1.81461 0.521267 0
M  V30 12363 O 1155.4 1.21577 1.36108 0
M  V30 12364 C 1155.45 3.32501 -1.41863 0
M  V30 12365 O 1155.17 3.35846 -2.81317 0
M  V30 12366 C 1156.67 4.25384 -1.24753 0
M  V30 12367 H 1153.89 0.583546 -0.331233 0
M  V30 12368 H 1156.43 1.37366 -1.51495 0
M  V30 12369 H 1154.59 3.7735 -0.876664 0
M  V30 12370 H 1155 4.28013 -3.03159 0
M  V30 12371 H 1156.48 5.27138 -1.63798 0
M  V30 12372 H 1156.95 4.38789 -0.18999 0
M  V30 12373 H 1157.56 3.86357 -1.77787 0
M  V30 12374 N 1155.87 0.935264 1.26849 0
M  V30 12375 C 1156.82 0.430895 2.28574 0
M  V30 12376 C 1157.82 -0.488739 1.62196 0
M  V30 12377 O 1159.02 -0.367605 1.76206 0
M  V30 12378 H 1155.4 0.120793 0.742235 0
M  V30 12379 H 1157.37 1.3015 2.68521 0
M  V30 12380 C 1156.12 -0.294053 3.46454 0
M  V30 12381 H 1155.44 0.404416 3.97749 0
M  V30 12382 H 1156.88 -0.611272 4.19571 0
M  V30 12383 C 1155.34 -1.50975 3.01178 0
M  V30 12384 O 1155.87 -2.60826 3.05504 0
M  V30 12385 N 1154.08 -1.36423 2.56587 0
M  V30 12386 H 1153.62 -0.470483 2.53267 0
M  V30 12387 H 1153.58 -2.17886 2.26656 0
M  V30 12388 N 1157.35 -1.41121 0.701616 0
M  V30 12389 C 1158.6 -2.00733 0.234682 0
M  V30 12390 C 1158.92 -1.55869 -1.17174 0
M  V30 12391 O 1158.19 -0.791965 -1.79178 0
M  V30 12392 H 1156.77 -0.742288 0.0837745 0
M  V30 12393 H 1159.43 -1.7266 0.904127 0
M  V30 12394 H 1158.53 -3.11041 0.256831 0
M  V30 12395 N 1158.83 -0.446794 -1.51134 0
M  V30 12396 C 1160.08 0.118047 -2.01354 0
M  V30 12397 C 1160.39 1.42953 -1.33505 0
M  V30 12398 O 1161.6 2.07788 -1.74747 0
M  V30 12399 C 1160.05 0.260912 -3.58953 0
M  V30 12400 C 1159.66 -1.0407 -4.35745 0
M  V30 12401 C 1161.41 0.779014 -4.17291 0
M  V30 12402 C 1159.31 -0.862958 -5.8507 0
M  V30 12403 H 1158.24 0.0478915 -0.752478 0
M  V30 12404 H 1160.89 -0.577997 -1.74159 0
M  V30 12405 H 1159.28 1.02018 -3.82633 0
M  V30 12406 H 1160.45 -1.80903 -4.23805 0
M  V30 12407 H 1158.77 -1.48805 -3.88904 0
M  V30 12408 H 1161.36 0.928636 -5.26574 0
M  V30 12409 H 1161.71 1.76399 -3.7708 0
M  V30 12410 H 1162.24 0.0778022 -3.97724 0
M  V30 12411 H 1158.98 -1.82059 -6.2971 0
M  V30 12412 H 1158.5 -0.134588 -5.99649 0
M  V30 12413 H 1160.18 -0.51989 -6.44908 0
M  V30 12414 N 1160.31 1.56586 -0.178487 0
M  V30 12415 C 1161.56 1.96709 0.4637 0
M  V30 12416 C 1161.88 1.06586 1.63292 0
M  V30 12417 O 1161.15 0.133683 1.95443 0
M  V30 12418 H 1159.73 0.726381 0.174299 0
M  V30 12419 H 1162.39 1.9314 -0.261345 0
M  V30 12420 H 1161.49 3.01164 0.818934 0
M  V30 12421 N 1161.79 -0.095206 1.57312 0
M  V30 12422 C 1162.73 -1.13438 2.03063 0
M  V30 12423 C 1163.73 -1.41478 0.931679 0
M  V30 12424 O 1164.93 -1.41161 1.11686 0
M  V30 12425 H 1161.31 -0.383042 0.647134 0
M  V30 12426 H 1163.28 -0.722186 2.89529 0
M  V30 12427 C 1162.03 -2.44641 2.47075 0
M  V30 12428 H 1161.35 -2.23908 3.31218 0
M  V30 12429 H 1162.79 -3.15855 2.82863 0
M  V30 12430 C 1161.25 -3.08931 1.34399 0
M  V30 12431 O 1161.78 -3.96021 0.673071 0
M  V30 12432 N 1159.99 -2.6918 1.09501 0
M  V30 12433 H 1159.53 -1.98451 1.6424 0
M  V30 12434 H 1159.49 -3.12522 0.34311 0
M  V30 12435 N 1163.26 -1.53291 -0.366026 0
M  V30 12436 C 1164.51 -1.69702 -1.11036 0
M  V30 12437 C 1164.84 -0.44728 -1.88979 0
M  V30 12438 O 1164.12 0.55542 -1.86401 0
M  V30 12439 C 1164.4 -2.94661 -2.06995 0
M  V30 12440 C 1164.25 -4.29791 -1.32663 0
M  V30 12441 C 1165.57 -3.15219 -3.07123 0
M  V30 12442 H 1162.69 -0.617525 -0.402284 0
M  V30 12443 H 1165.33 -1.85929 -0.391223 0
M  V30 12444 H 1163.48 -2.80958 -2.68318 0
M  V30 12445 H 1165.16 -4.55305 -0.741266 0
M  V30 12446 H 1163.4 -4.29223 -0.628484 0
M  V30 12447 H 1164.07 -5.13359 -2.02896 0
M  V30 12448 H 1166.55 -3.28105 -2.55903 0
M  V30 12449 H 1165.42 -4.04088 -3.71489 0
M  V30 12450 H 1165.68 -2.30479 -3.77269 0
M  V30 12451 N 1164.74 0.6258 -1.44643 0
M  V30 12452 C 1165.97 1.41726 -1.51422 0
M  V30 12453 C 1166.39 1.87565 -0.14181 0
M  V30 12454 O 1165.75 1.59059 0.870054 0
M  V30 12455 C 1165.8 2.61012 -2.48807 0
M  V30 12456 O 1164.9 3.61029 -1.99328 0
M  V30 12457 H 1164.24 0.423855 -0.511119 0
M  V30 12458 H 1166.77 0.763336 -1.89827 0
M  V30 12459 H 1166.78 3.08489 -2.67018 0
M  V30 12460 H 1165.46 2.26995 -3.48491 0
M  V30 12461 H 1164.04 3.20325 -1.90909 0
M  V30 12462 N 1166.22 1.31629 0.866686 0
M  V30 12463 C 1167.45 1.24474 1.65269 0
M  V30 12464 C 1167.86 -0.18939 1.87848 0
M  V30 12465 O 1167.22 -1.12251 1.43895 0
M  V30 12466 C 1167.27 1.98872 3.01881 0
M  V30 12467 O 1166.99 3.36687 2.8031 0
M  V30 12468 C 1168.49 1.98595 3.96327 0
M  V30 12469 H 1165.71 0.429966 0.515141 0
M  V30 12470 H 1168.26 1.73559 1.08156 0
M  V30 12471 H 1166.41 1.53539 3.55675 0
M  V30 12472 H 1166.83 3.74612 3.67105 0
M  V30 12473 H 1168.3 2.55156 4.89489 0
M  V30 12474 H 1168.78 0.969257 4.28371 0
M  V30 12475 H 1169.38 2.43821 3.4847 0
M  V30 12476 N 1167.7 -1.08142 1.14644 0
M  V30 12477 C 1168.93 -1.84318 0.939926 0
M  V30 12478 C 1169.34 -1.81735 -0.511636 0
M  V30 12479 O 1168.7 -1.22297 -1.35461 0
M  V30 12480 C 1168.75 -3.31744 1.43625 0
M  V30 12481 O 1168.47 -3.3435 2.83094 0
M  V30 12482 C 1169.97 -4.24717 1.27007 0
M  V30 12483 H 1167.19 -0.581781 0.334323 0
M  V30 12484 H 1169.74 -1.36561 1.52221 0
M  V30 12485 H 1167.89 -3.7688 0.896664 0
M  V30 12486 H 1168.31 -4.26399 3.05425 0
M  V30 12487 H 1169.78 -5.26262 1.66591 0
M  V30 12488 H 1170.26 -4.38682 0.213257 0
M  V30 12489 H 1170.86 -3.85409 1.79833 0
M  V30 12490 N 1169.18 -0.941978 -1.26351 0
M  V30 12491 C 1170.43 -0.585711 -1.93009 0
M  V30 12492 C 1170.74 0.879507 -1.74711 0
M  V30 12493 O 1171.95 1.34518 -2.35833 0
M  V30 12494 C 1170.4 -0.996787 -3.45821 0
M  V30 12495 C 1170.01 -2.48367 -3.72851 0
M  V30 12496 C 1171.75 -0.712452 -4.18479 0
M  V30 12497 C 1169.66 -2.83341 -5.19107 0
M  V30 12498 H 1168.59 -0.215342 -0.722595 0
M  V30 12499 H 1171.24 -1.14472 -1.43417 0
M  V30 12500 H 1169.62 -0.366295 -3.94302 0
M  V30 12501 H 1170.8 -3.16328 -3.35072 0
M  V30 12502 H 1169.11 -2.74139 -3.13427 0
M  V30 12503 H 1171.71 -0.95007 -5.26192 0
M  V30 12504 H 1172.05 0.350811 -4.14819 0
M  V30 12505 H 1172.59 -1.3027 -3.75865 0
M  V30 12506 H 1169.32 -3.88633 -5.27868 0
M  V30 12507 H 1168.84 -2.20043 -5.5798 0
M  V30 12508 H 1170.52 -2.71849 -5.87118 0
M  V30 12509 N 1170.66 1.40747 -0.709091 0
M  V30 12510 C 1171.93 1.94831 -0.173246 0
M  V30 12511 C 1172.31 1.64766 1.31967 0
M  V30 12512 O 1171.66 0.961853 2.07269 0
M  V30 12513 C 1171.87 3.45697 -0.479013 0
M  V30 12514 C 1173.22 4.22576 -0.414122 0
M  V30 12515 O 1174.24 3.53778 -0.414699 0
M  V30 12516 O 1173.1 5.45135 -0.385986 0
M  V30 12517 H 1170.2 0.826683 -0.0228947 0
M  V30 12518 H 1172.74 1.50391 -0.786178 0
M  V30 12519 H 1171.51 3.60914 -1.51185 0
M  V30 12520 H 1171.14 3.97261 0.164211 0
M  V30 12521 N 1172.13 0.454803 1.50895 0
M  V30 12522 C 1173.07 -0.383826 2.25963 0
M  V30 12523 C 1174.08 -0.971263 1.30653 0
M  V30 12524 O 1175.27 -0.862434 1.56283 0
M  V30 12525 C 1172.37 -1.55069 3.01342 0
M  V30 12526 C 1171.54 -1.07899 4.23883 0
M  V30 12527 C 1170.6 -2.118 4.81692 0
M  V30 12528 O 1169.63 -1.70523 5.43057 0
M  V30 12529 N 1170.83 -3.44459 4.67256 0
M  V30 12530 H 1173.59 0.259646 2.98573 0
M  V30 12531 H 1171.15 0.284661 1.59378 0
M  V30 12532 H 1173.15 -2.24236 3.36898 0
M  V30 12533 H 1171.72 -2.09917 2.31633 0
M  V30 12534 H 1170.94 -0.213773 3.9362 0
M  V30 12535 H 1172.22 -0.741501 5.03368 0
M  V30 12536 H 1171.62 -3.80716 4.18416 0
M  V30 12537 H 1170.18 -4.0947 5.07127 0
M  V30 12538 N 1173.61 -1.56489 0.186789 0
M  V30 12539 C 1175.03 -1.58701 -0.169176 0
M  V30 12540 C 1175.23 -1.2027 -1.61671 0
M  V30 12541 O 1174.28 -0.92154 -2.35083 0
M  V30 12542 C 1175.6 -3.00437 0.125657 0
M  V30 12543 C 1177.14 -3.12932 0.0651 0
M  V30 12544 C 1177.62 -4.56787 0.333131 0
M  V30 12545 N 1179.11 -4.62344 0.281453 0
M  V30 12546 C 1179.85 -5.71529 0.462805 0
M  V30 12547 N 1179.34 -6.89213 0.704054 0
M  V30 12548 N 1181.13 -5.60692 0.397636 0
M  V30 12549 H 1173.29 -1.79754 1.13148 0
M  V30 12550 H 1175.55 -0.83385 0.450997 0
M  V30 12551 H 1175.25 -3.33086 1.12901 0
M  V30 12552 H 1175.13 -3.72782 -0.575612 0
M  V30 12553 H 1177.52 -2.80101 -0.928845 0
M  V30 12554 H 1177.6 -2.42991 0.799318 0
M  V30 12555 H 1177.24 -4.9033 1.32436 0
M  V30 12556 H 1177.17 -5.24907 -0.421879 0
M  V30 12557 H 1179.66 -3.77764 0.101266 0
M  V30 12558 H 1179.97 -7.68314 0.831468 0
M  V30 12559 H 1178.32 -6.9104 0.740851 0
M  V30 12560 H 1181.51 -4.6763 0.20964 0
M  V30 12561 H 1181.68 -6.45726 0.54239 0
M  V30 12562 N 1175.09 0.086862 -1.5736 0
M  V30 12563 C 1176.04 1.10478 -2.02641 0
M  V30 12564 C 1177.01 1.39331 -0.904219 0
M  V30 12565 O 1178.19 1.50654 -1.17081 0
M  V30 12566 C 1175.33 2.41754 -2.4627 0
M  V30 12567 C 1174.44 2.19561 -3.72044 0
M  V30 12568 C 1173.58 3.44294 -4.04519 0
M  V30 12569 C 1172.62 3.17399 -5.23378 0
M  V30 12570 N 1171.76 4.3442 -5.51564 0
M  V30 12571 H 1176.6 0.711663 -2.89378 0
M  V30 12572 H 1174.13 0.339856 -1.4312 0
M  V30 12573 H 1176.09 3.18378 -2.69613 0
M  V30 12574 H 1174.72 2.78896 -1.62532 0
M  V30 12575 H 1173.77 1.337 -3.5613 0
M  V30 12576 H 1175.08 1.95685 -4.58812 0
M  V30 12577 H 1174.24 4.29321 -4.28682 0
M  V30 12578 H 1172.98 3.71232 -3.16289 0
M  V30 12579 H 1171.98 2.30765 -4.99026 0
M  V30 12580 H 1173.21 2.91799 -6.13213 0
M  V30 12581 H 1171.15 4.61418 -4.66293 0
M  V30 12582 H 1171.07 4.13764 -6.3272 0
M  V30 12583 H 1172.34 5.20489 -5.80269 0
M  V30 12584 N 1176.57 1.53483 0.357892 0
M  V30 12585 C 1177.84 1.60649 1.11585 0
M  V30 12586 C 1178.22 0.418789 2.06904 0
M  V30 12587 O 1177.57 -0.590279 2.20744 0
M  V30 12588 C 1177.78 2.96046 1.84818 0
M  V30 12589 C 1179.13 3.50895 2.39076 0
M  V30 12590 O 1180.15 2.98126 1.94934 0
M  V30 12591 O 1179.01 4.43163 3.19794 0
M  V30 12592 H 1176.11 0.649202 0.512315 0
M  V30 12593 H 1178.65 1.65826 0.360537 0
M  V30 12594 H 1177.43 3.73929 1.15296 0
M  V30 12595 H 1177.05 2.94395 2.6724 0
M  V30 12596 N 1178.05 -0.61812 1.44973 0
M  V30 12597 C 1179.32 -1.37705 1.38913 0
M  V30 12598 C 1179.7 -2.1103 0.054385 0
M  V30 12599 O 1179.05 -2.07197 -0.963409 0
M  V30 12600 C 1179.26 -2.33265 2.59593 0
M  V30 12601 C 1180.61 -2.96197 3.04224 0
M  V30 12602 O 1181.63 -2.43589 2.59891 0
M  V30 12603 O 1180.49 -3.91666 3.8113 0
M  V30 12604 H 1177.59 -0.61694 0.55074 0
M  V30 12605 H 1180.13 -0.642088 1.57084 0
M  V30 12606 H 1178.9 -1.78271 3.48332 0
M  V30 12607 H 1178.53 -3.14158 2.43702 0
M  V30 12608 N 1179.52 -1.32087 -0.859693 0
M  V30 12609 C 1180.75 -1.25486 -1.6513 0
M  V30 12610 C 1181.17 0.175015 -1.87284 0
M  V30 12611 O 1180.53 1.12468 -1.42199 0
M  V30 12612 C 1180.58 -2.01469 -2.9907 0
M  V30 12613 O 1179.68 -1.35904 -3.89363 0
M  V30 12614 H 1179.02 -0.432728 -0.503629 0
M  V30 12615 H 1181.55 -1.74322 -1.07112 0
M  V30 12616 H 1181.56 -2.11452 -3.4893 0
M  V30 12617 H 1180.24 -3.05448 -2.82266 0
M  V30 12618 H 1178.82 -1.34437 -3.47823 0
M  V30 12619 N 1181 1.07532 -1.15215 0
M  V30 12620 C 1181.95 2.14687 -0.847243 0
M  V30 12621 C 1182.92 1.64903 0.199043 0
M  V30 12622 O 1184.1 1.90682 0.0669986 0
M  V30 12623 C 1181.24 3.43414 -0.340673 0
M  V30 12624 C 1180.36 4.06999 -1.44831 0
M  V30 12625 C 1179.49 5.23554 -0.898059 0
M  V30 12626 C 1178.53 5.79097 -1.98276 0
M  V30 12627 N 1177.67 6.86985 -1.44902 0
M  V30 12628 H 1182.51 2.4011 -1.76498 0
M  V30 12629 H 1180.04 1.17823 -0.880689 0
M  V30 12630 H 1182 4.1719 -0.0286956 0
M  V30 12631 H 1180.63 3.18249 0.540144 0
M  V30 12632 H 1179.68 3.30895 -1.87651 0
M  V30 12633 H 1181 4.44289 -2.26735 0
M  V30 12634 H 1180.15 6.04305 -0.538514 0
M  V30 12635 H 1178.89 4.87676 -0.0481752 0
M  V30 12636 H 1177.89 4.96992 -2.35115 0
M  V30 12637 H 1179.12 6.1703 -2.83639 0
M  V30 12638 H 1177.07 6.5305 -0.621468 0
M  V30 12639 H 1176.98 7.23149 -2.20434 0
M  V30 12640 H 1178.25 7.71446 -1.11767 0
M  V30 12641 N 1182.48 0.948665 1.2585 0
M  V30 12642 C 1183.71 0.617229 1.97479 0
M  V30 12643 C 1184.12 -0.809406 1.7057 0
M  V30 12644 O 1183.48 -1.54066 0.97826 0
M  V30 12645 C 1183.53 0.859065 3.51144 0
M  V30 12646 O 1183.25 2.2296 3.77121 0
M  V30 12647 C 1184.75 0.539197 4.40009 0
M  V30 12648 H 1181.97 0.231933 0.629641 0
M  V30 12649 H 1184.52 1.27141 1.60173 0
M  V30 12650 H 1182.67 0.25138 3.86584 0
M  V30 12651 H 1183.09 2.29524 4.71613 0
M  V30 12652 H 1184.56 0.758986 5.46757 0
M  V30 12653 H 1185.04 -0.526062 4.36038 0
M  V30 12654 H 1185.64 1.12594 4.10125 0
M  V30 12655 N 1183.96 -1.40369 0.716545 0
M  V30 12656 C 1185.37 -1.83783 0.328719 0
M  V30 12657 C 1185.72 -1.5991 -1.13681 0
M  V30 12658 O 1184.85 -1.08048 -1.87496 0
M  V30 12659 C 1185.44 -3.33626 0.589848 0
M  V30 12660 C 1184 -3.7553 0.25572 0
M  V30 12661 C 1183.15 -2.63571 0.861733 0
M  V30 12662 H 1186.1 -1.29623 0.915621 0
M  V30 12663 H 1186.12 -3.80225 -0.14459 0
M  V30 12664 H 1185.63 -3.5097 1.65655 0
M  V30 12665 H 1183.73 -3.63781 -0.805883 0
M  V30 12666 H 1183.84 -4.73577 0.725388 0
M  V30 12667 H 1182.21 -2.53047 0.289706 0
M  V30 12668 H 1182.99 -2.83727 1.93272 0
M  V30 12669 N 1185.44 -0.462799 -1.50652 0
M  V30 12670 C 1186.67 0.0928413 -2.06391 0
M  V30 12671 C 1187.07 1.34791 -1.3277 0
M  V30 12672 O 1186.42 1.79555 -0.388048 0
M  V30 12673 C 1186.48 0.45517 -3.56607 0
M  V30 12674 C 1186.14 -0.696698 -4.51658 0
M  V30 12675 C 1187.14 -1.57633 -4.95427 0
M  V30 12676 C 1184.83 -0.884669 -4.94448 0
M  V30 12677 C 1186.82 -2.62841 -5.80684 0
M  V30 12678 C 1184.51 -1.93998 -5.79489 0
M  V30 12679 C 1185.5 -2.81022 -6.22508 0
M  V30 12680 O 1185.19 -3.84738 -7.05856 0
M  V30 12681 H 1184.92 -3.18898e-05 -0.676 0
M  V30 12682 H 1187.48 -0.648161 -1.94905 0
M  V30 12683 H 1185.71 1.24924 -3.65966 0
M  V30 12684 H 1187.4 0.944923 -3.94748 0
M  V30 12685 H 1188.16 -1.44276 -4.63044 0
M  V30 12686 H 1184.04 -0.216807 -4.6049 0
M  V30 12687 H 1187.59 -3.30797 -6.14182 0
M  V30 12688 H 1183.48 -2.07366 -6.11285 0
M  V30 12689 H 1184.25 -3.81626 -7.24088 0
M  V30 12690 N 1186.91 1.56388 -0.195085 0
M  V30 12691 C 1188.14 2.01963 0.449289 0
M  V30 12692 C 1188.56 1.07522 1.55192 0
M  V30 12693 O 1187.91 0.0800915 1.82324 0
M  V30 12694 C 1187.97 3.47231 1.00561 0
M  V30 12695 O 1187.69 4.38068 -0.0530241 0
M  V30 12696 C 1189.19 4.08324 1.72587 0
M  V30 12697 H 1186.41 0.661452 0.112792 0
M  V30 12698 H 1188.95 2.02231 -0.303788 0
M  V30 12699 H 1187.11 3.47663 1.70907 0
M  V30 12700 H 1187.52 5.23256 0.361076 0
M  V30 12701 H 1188.99 5.11821 2.06744 0
M  V30 12702 H 1189.47 3.51782 2.62956 0
M  V30 12703 H 1190.08 4.11665 1.06826 0
M  V30 12704 N 1188.39 -0.0785156 1.57404 0
M  V30 12705 C 1189.62 -0.792042 1.9114 0
M  V30 12706 C 1190.04 -1.71458 0.790408 0
M  V30 12707 O 1189.39 -1.80959 -0.236662 0
M  V30 12708 C 1189.44 -1.59138 3.24588 0
M  V30 12709 O 1189.16 -0.705931 4.32375 0
M  V30 12710 C 1190.67 -2.4065 3.72293 0
M  V30 12711 H 1187.89 -0.225566 0.63195 0
M  V30 12712 H 1190.43 -0.0507929 2.04437 0
M  V30 12713 H 1188.58 -2.28498 3.12838 0
M  V30 12714 H 1189 -1.26121 5.09111 0
M  V30 12715 H 1190.47 -2.92204 4.68317 0
M  V30 12716 H 1190.95 -3.1987 3.00965 0
M  V30 12717 H 1191.56 -1.7646 3.86965 0
M  V30 12718 N 1189.87 -1.5367 -0.349747 0
M  V30 12719 C 1191.1 -1.74294 -1.10928 0
M  V30 12720 C 1191.51 -0.479102 -1.83033 0
M  V30 12721 O 1190.85 0.558621 -1.75 0
M  V30 12722 C 1190.91 -2.86457 -2.17216 0
M  V30 12723 C 1190.58 -4.26274 -1.6474 0
M  V30 12724 C 1191.57 -5.08065 -1.10302 0
M  V30 12725 C 1189.26 -4.72739 -1.69774 0
M  V30 12726 C 1191.25 -6.34417 -0.615938 0
M  V30 12727 C 1188.94 -5.99066 -1.20678 0
M  V30 12728 C 1189.94 -6.79737 -0.6668 0
M  V30 12729 O 1189.63 -8.03691 -0.183143 0
M  V30 12730 H 1189.36 -0.586046 -0.336937 0
M  V30 12731 H 1191.91 -2.01274 -0.409645 0
M  V30 12732 H 1190.14 -2.54988 -2.9072 0
M  V30 12733 H 1191.83 -2.95109 -2.78686 0
M  V30 12734 H 1192.6 -4.73333 -1.05739 0
M  V30 12735 H 1188.48 -4.1001 -2.10744 0
M  V30 12736 H 1192.02 -6.97331 -0.193795 0
M  V30 12737 H 1187.92 -6.33293 -1.24939 0
M  V30 12738 H 1188.69 -8.17946 -0.301008 0
M  V30 12739 N 1191.35 0.610423 -1.45298 0
M  V30 12740 C 1192.59 1.37154 -1.49388 0
M  V30 12741 C 1192.93 1.93737 -0.134025 0
M  V30 12742 O 1192.2 1.74888 0.851138 0
M  V30 12743 C 1192.49 2.52155 -2.5708 0
M  V30 12744 C 1192.34 2.00786 -4.02498 0
M  V30 12745 C 1193.66 3.54294 -2.61082 0
M  V30 12746 H 1190.78 0.497346 -0.54389 0
M  V30 12747 H 1193.42 0.688358 -1.77092 0
M  V30 12748 H 1191.57 3.10434 -2.33587 0
M  V30 12749 H 1193.24 1.47178 -4.37191 0
M  V30 12750 H 1191.48 1.31809 -4.1329 0
M  V30 12751 H 1192.15 2.83674 -4.73533 0
M  V30 12752 H 1194.63 3.05851 -2.82125 0
M  V30 12753 H 1193.51 4.32254 -3.38301 0
M  V30 12754 H 1193.77 4.09726 -1.66063 0
M  V30 12755 N 1192.83 1.32541 0.852676 0
M  V30 12756 C 1193.77 1.21602 1.98282 0
M  V30 12757 C 1194.77 0.120384 1.68972 0
M  V30 12758 O 1195.97 0.283441 1.77754 0
M  V30 12759 H 1192.35 0.376994 0.650676 0
M  V30 12760 H 1194.32 2.17179 2.04636 0
M  V30 12761 C 1193.07 0.957965 3.34243 0
M  V30 12762 H 1192.39 1.79324 3.57327 0
M  V30 12763 H 1193.83 0.921673 4.13861 0
M  V30 12764 C 1192.29 -0.339271 3.35187 0
M  V30 12765 O 1192.82 -1.3505 3.78318 0
M  V30 12766 N 1191.03 -0.361944 2.88337 0
M  V30 12767 H 1190.57 0.461497 2.53432 0
M  V30 12768 H 1190.53 -1.22976 2.89352 0
M  V30 12769 N 1194.3 -1.0692 1.15784 0
M  V30 12770 C 1195.55 -1.79245 0.933581 0
M  V30 12771 C 1195.87 -1.87362 -0.540427 0
M  V30 12772 O 1195.14 -1.37769 -1.39271 0
M  V30 12773 H 1193.72 -0.663898 0.342416 0
M  V30 12774 H 1196.39 -1.29189 1.45932 0
M  V30 12775 H 1195.48 -2.81546 1.34679 0
M  V30 12776 N 1195.78 -0.955326 -1.25345 0
M  V30 12777 C 1196.73 -0.474888 -2.25862 0
M  V30 12778 C 1197.7 0.472996 -1.59223 0
M  V30 12779 O 1198.88 0.386094 -1.86853 0
M  V30 12780 C 1196.02 0.240554 -3.44261 0
M  V30 12781 C 1195.14 -0.74465 -4.25534 0
M  V30 12782 C 1194.27 -0.00657513 -5.312 0
M  V30 12783 C 1193.31 -0.982666 -6.04161 0
M  V30 12784 N 1192.45 -0.275418 -7.0156 0
M  V30 12785 H 1197.29 -1.33693 -2.66327 0
M  V30 12786 H 1194.83 -0.670439 -1.30933 0
M  V30 12787 H 1196.78 0.671933 -4.11753 0
M  V30 12788 H 1195.41 1.06664 -3.04668 0
M  V30 12789 H 1194.47 -1.29451 -3.57696 0
M  V30 12790 H 1195.78 -1.48948 -4.76042 0
M  V30 12791 H 1194.93 0.483404 -6.04771 0
M  V30 12792 H 1193.67 0.771035 -4.81567 0
M  V30 12793 H 1192.68 -1.48364 -5.29404 0
M  V30 12794 H 1193.9 -1.76052 -6.55883 0
M  V30 12795 H 1191.85 0.483441 -6.54216 0
M  V30 12796 H 1191.76 -0.959324 -7.49889 0
M  V30 12797 H 1193.03 0.193002 -7.79261 0
M  V30 12798 N 1197.26 1.39987 -0.723979 0
M  V30 12799 C 1198.49 2.05037 -0.27702 0
M  V30 12800 C 1198.9 1.54565 1.08421 0
M  V30 12801 O 1198.26 0.705795 1.683 0
M  V30 12802 C 1198.31 3.60582 -0.25751 0
M  V30 12803 O 1198.03 4.09194 -1.565 0
M  V30 12804 C 1199.53 4.42817 0.206972 0
M  V30 12805 H 1196.75 0.659637 -0.122963 0
M  V30 12806 H 1199.3 1.7924 -0.98454 0
M  V30 12807 H 1197.45 3.85319 0.401037 0
M  V30 12808 H 1197.87 5.03447 -1.47112 0
M  V30 12809 H 1199.34 5.5174 0.16947 0
M  V30 12810 H 1199.82 4.21023 1.25045 0
M  V30 12811 H 1200.42 4.23205 -0.421604 0
M  V30 12812 N 1198.74 0.470782 1.50404 0
M  V30 12813 C 1199.99 -0.0859981 2.01517 0
M  V30 12814 C 1200.3 -1.40811 1.35763 0
M  V30 12815 O 1201.51 -2.04982 1.7803 0
M  V30 12816 C 1199.96 -0.203773 3.59323 0
M  V30 12817 C 1199.57 1.10989 4.34034 0
M  V30 12818 C 1201.32 -0.712528 4.18477 0
M  V30 12819 C 1199.22 0.955928 5.83623 0
M  V30 12820 H 1198.15 -0.0359142 0.753144 0
M  V30 12821 H 1200.8 0.605631 1.73218 0
M  V30 12822 H 1199.19 -0.959177 3.84208 0
M  V30 12823 H 1200.36 1.87623 4.20873 0
M  V30 12824 H 1198.67 1.54973 3.86487 0
M  V30 12825 H 1201.27 -0.844745 5.27985 0
M  V30 12826 H 1201.61 -1.70377 3.79838 0
M  V30 12827 H 1202.15 -0.0145179 3.97797 0
M  V30 12828 H 1198.89 1.92054 6.26734 0
M  V30 12829 H 1198.41 0.22997 5.99359 0
M  V30 12830 H 1200.09 0.622423 6.43999 0
M  V30 12831 N 1200.22 -1.56282 0.203376 0
M  V30 12832 C 1201.49 -1.89587 -0.481256 0
M  V30 12833 C 1201.87 -1.11812 -1.79057 0
M  V30 12834 O 1201.22 -0.221759 -2.27421 0
M  V30 12835 C 1201.43 -3.42071 -0.691965 0
M  V30 12836 C 1202.78 -4.12471 -1.00761 0
M  V30 12837 O 1203.8 -3.47568 -0.779396 0
M  V30 12838 O 1202.66 -5.27194 -1.43974 0
M  V30 12839 H 1199.76 -0.787682 -0.251963 0
M  V30 12840 H 1202.3 -1.67934 0.244207 0
M  V30 12841 H 1201.08 -3.9061 0.232322 0
M  V30 12842 H 1200.7 -3.69444 -1.46958 0
M  V30 12843 N 1201.7 0.070167 -1.57444 0
M  V30 12844 C 1202.63 1.08351 -2.06839 0
M  V30 12845 C 1203.61 1.40269 -0.962224 0
M  V30 12846 O 1204.79 1.49867 -1.23505 0
M  V30 12847 C 1201.92 2.39649 -2.51368 0
M  V30 12848 C 1200.88 2.22079 -3.65875 0
M  V30 12849 C 1200.2 3.58776 -3.96464 0
M  V30 12850 C 1201.5 1.64069 -4.95862 0
M  V30 12851 H 1203.2 0.672465 -2.9175 0
M  V30 12852 H 1200.74 0.322027 -1.40353 0
M  V30 12853 H 1202.69 3.10833 -2.84537 0
M  V30 12854 H 1201.42 2.82736 -1.63487 0
M  V30 12855 H 1200.08 1.53337 -3.32992 0
M  V30 12856 H 1199.73 3.99436 -3.05712 0
M  V30 12857 H 1199.43 3.47859 -4.7357 0
M  V30 12858 H 1200.95 4.31387 -4.32131 0
M  V30 12859 H 1202.36 2.2512 -5.27251 0
M  V30 12860 H 1200.76 1.63843 -5.773 0
M  V30 12861 H 1201.83 0.60232 -4.81145 0
M  V30 12862 N 1203.17 1.53854 0.341593 0
M  V30 12863 C 1204.12 1.81979 1.41959 0
M  V30 12864 C 1205.09 0.665616 1.5218 0
M  V30 12865 O 1206.28 0.910246 1.67688 0
M  V30 12866 C 1203.42 2.03681 2.78583 0
M  V30 12867 C 1202.53 3.31389 2.77137 0
M  V30 12868 C 1201.66 3.43148 4.05491 0
M  V30 12869 C 1200.7 4.64799 3.98282 0
M  V30 12870 N 1199.84 4.73581 5.18329 0
M  V30 12871 H 1204.68 2.73953 1.17275 0
M  V30 12872 H 1202.22 1.35689 0.568062 0
M  V30 12873 H 1204.17 2.14253 3.57983 0
M  V30 12874 H 1202.8 1.15017 3.01614 0
M  V30 12875 H 1201.86 3.29649 1.89832 0
M  V30 12876 H 1203.17 4.20885 2.67689 0
M  V30 12877 H 1202.32 3.53163 4.93316 0
M  V30 12878 H 1201.06 2.51712 4.17723 0
M  V30 12879 H 1200.07 4.54859 3.08842 0
M  V30 12880 H 1201.29 5.57601 3.87631 0
M  V30 12881 H 1199.24 3.85055 5.31102 0
M  V30 12882 H 1199.15 5.57016 5.11145 0
M  V30 12883 H 1200.42 4.87908 6.0792 0
M  V30 12884 N 1204.65 -0.602709 1.4562 0
M  V30 12885 C 1205.58 -1.7271 1.50678 0
M  V30 12886 C 1206.6 -1.57884 0.397048 0
M  V30 12887 O 1207.79 -1.65676 0.664367 0
M  V30 12888 C 1204.89 -3.10762 1.35204 0
M  V30 12889 C 1204.06 -3.51782 2.59939 0
M  V30 12890 C 1203.12 -4.68816 2.38952 0
M  V30 12891 O 1202.14 -4.75686 3.12588 0
M  V30 12892 N 1203.35 -5.624 1.43827 0
M  V30 12893 H 1206.11 -1.68833 2.47619 0
M  V30 12894 H 1203.67 -0.788131 1.41422 0
M  V30 12895 H 1205.66 -3.86819 1.18967 0
M  V30 12896 H 1204.23 -3.09119 0.465203 0
M  V30 12897 H 1203.45 -2.65637 2.91257 0
M  V30 12898 H 1204.74 -3.75948 3.42842 0
M  V30 12899 H 1204.14 -5.59568 0.830669 0
M  V30 12900 H 1202.7 -6.37969 1.33561 0
M  V30 12901 N 1206.13 -1.32992 -0.845635 0
M  V30 12902 C 1207.09 -1.22607 -1.9365 0
M  V30 12903 C 1208.09 -0.146812 -1.60128 0
M  V30 12904 O 1209.28 -0.397863 -1.69596 0
M  V30 12905 C 1206.41 -0.887677 -3.2914 0
M  V30 12906 H 1207.61 -2.19563 -2.04285 0
M  V30 12907 H 1205.16 -1.16952 -1.03691 0
M  V30 12908 H 1205.9 0.0796777 -3.24202 0
M  V30 12909 H 1205.68 -1.66808 -3.54849 0
M  V30 12910 H 1207.17 -0.83958 -4.09073 0
M  V30 12911 N 1207.61 1.06304 -1.1635 0
M  V30 12912 C 1208.83 1.83338 -0.969639 0
M  V30 12913 C 1209.26 1.81945 0.477231 0
M  V30 12914 O 1208.62 1.22018 1.34094 0
M  V30 12915 C 1208.66 3.2785 -1.50155 0
M  V30 12916 O 1207.77 4.06281 -0.707805 0
M  V30 12917 H 1207.11 0.567293 -0.345072 0
M  V30 12918 H 1209.64 1.34033 -1.54584 0
M  V30 12919 H 1209.65 3.7867 -1.51898 0
M  V30 12920 H 1208.32 3.28179 -2.55483 0
M  V30 12921 H 1206.9 3.65055 -0.760872 0
M  V30 12922 N 1209.09 0.96196 1.24836 0
M  V30 12923 C 1210.31 0.637709 1.97353 0
M  V30 12924 C 1210.74 -0.784919 1.7094 0
M  V30 12925 O 1210.09 -1.53188 0.969694 0
M  V30 12926 C 1210.14 0.911485 3.4889 0
M  V30 12927 O 1209.25 -0.00601668 4.124 0
M  V30 12928 H 1208.59 0.241685 0.618453 0
M  V30 12929 H 1211.12 1.29055 1.58764 0
M  V30 12930 H 1211.13 0.840702 3.99245 0
M  V30 12931 H 1209.8 1.9483 3.67442 0
M  V30 12932 H 1208.38 0.117597 3.72715 0
M  V30 12933 N 1210.56 -1.39601 0.731392 0
M  V30 12934 C 1211.5 -2.29147 0.0494974 0
M  V30 12935 C 1212.51 -1.46635 -0.707248 0
M  V30 12936 O 1213.7 -1.6975 -0.552008 0
M  V30 12937 C 1210.8 -3.25191 -0.954152 0
M  V30 12938 C 1209.97 -4.36629 -0.259674 0
M  V30 12939 C 1209.03 -5.13007 -1.17092 0
M  V30 12940 O 1208.06 -5.65479 -0.64976 0
M  V30 12941 N 1209.26 -5.23865 -2.50092 0
M  V30 12942 H 1212.02 -2.88308 0.818433 0
M  V30 12943 H 1209.58 -1.51142 0.580316 0
M  V30 12944 H 1211.58 -3.73161 -1.56629 0
M  V30 12945 H 1210.15 -2.67085 -1.62432 0
M  V30 12946 H 1209.37 -3.90582 0.532888 0
M  V30 12947 H 1210.65 -5.08317 0.221753 0
M  V30 12948 H 1210.05 -4.82745 -2.94913 0
M  V30 12949 H 1208.61 -5.75288 -3.0641 0
M  V30 12950 N 1212.04 -0.478751 -1.50152 0
M  V30 12951 C 1212.97 0.347829 -2.26545 0
M  V30 12952 C 1213.99 0.950354 -1.32182 0
M  V30 12953 O 1215.18 0.837462 -1.57635 0
M  V30 12954 C 1212.28 1.50255 -3.0377 0
M  V30 12955 C 1211.45 1.01142 -4.25546 0
M  V30 12956 C 1210.51 2.0411 -4.85 0
M  V30 12957 O 1209.53 1.61862 -5.45701 0
M  V30 12958 N 1210.74 3.36982 -4.72677 0
M  V30 12959 H 1213.5 -0.307113 -2.98122 0
M  V30 12960 H 1211.06 -0.309981 -1.58905 0
M  V30 12961 H 1213.05 2.18848 -3.40423 0
M  V30 12962 H 1211.62 2.06205 -2.34943 0
M  V30 12963 H 1210.84 0.151124 -3.9391 0
M  V30 12964 H 1212.13 0.661326 -5.04484 0
M  V30 12965 H 1211.53 3.74011 -4.2442 0
M  V30 12966 H 1210.09 4.0135 -5.13577 0
M  V30 12967 N 1213.52 1.56172 -0.211661 0
M  V30 12968 C 1214.77 1.98039 0.422706 0
M  V30 12969 C 1215.1 1.09904 1.60472 0
M  V30 12970 O 1214.35 0.141771 1.95186 0
M  V30 12971 C 1214.65 3.45636 0.909442 0
M  V30 12972 C 1214.32 4.50613 -0.160982 0
M  V30 12973 C 1212.98 4.79043 -0.455064 0
M  V30 12974 C 1215.33 5.13624 -0.885426 0
M  V30 12975 C 1212.66 5.67771 -1.47828 0
M  V30 12976 C 1215.01 6.03459 -1.8979 0
M  V30 12977 C 1213.67 6.30238 -2.19901 0
M  V30 12978 H 1212.94 0.724676 0.154679 0
M  V30 12979 H 1215.59 1.8894 -0.312106 0
M  V30 12980 H 1213.9 3.51889 1.72283 0
M  V30 12981 H 1215.59 3.75395 1.40995 0
M  V30 12982 H 1212.18 4.28528 0.0783864 0
M  V30 12983 H 1216.37 4.91737 -0.671463 0
M  V30 12984 H 1211.62 5.86787 -1.7173 0
M  V30 12985 H 1215.8 6.51338 -2.46438 0
M  V30 12986 H 1213.42 6.98788 -2.9933 0
M  V30 12987 N 1215 -0.0618163 1.57479 0
M  V30 12988 C 1216.23 -0.771724 1.91969 0
M  V30 12989 C 1216.64 -1.7061 0.808549 0
M  V30 12990 O 1216 -1.812 -0.217455 0
M  V30 12991 C 1216.05 -1.55687 3.26257 0
M  V30 12992 O 1215.77 -0.660032 4.331 0
M  V30 12993 C 1217.27 -2.36688 3.74825 0
M  V30 12994 H 1214.49 -0.21885 0.634307 0
M  V30 12995 H 1217.04 -0.0291068 2.04479 0
M  V30 12996 H 1215.19 -2.25167 3.15244 0
M  V30 12997 H 1215.6 -1.20715 5.1042 0
M  V30 12998 H 1217.08 -2.8722 4.7139 0
M  V30 12999 H 1217.56 -3.1666 3.0434 0
M  V30 13000 H 1218.16 -1.72346 3.88815 0
M  V30 13001 N 1216.48 -1.54033 -0.333429 0
M  V30 13002 C 1217.75 -1.62404 -1.09015 0
M  V30 13003 C 1218.13 -0.451653 -2.06212 0
M  V30 13004 O 1217.48 0.555086 -2.21655 0
M  V30 13005 C 1217.69 -2.98949 -1.80085 0
M  V30 13006 C 1219.04 -3.54655 -2.33464 0
M  V30 13007 O 1220.06 -3.0119 -1.90166 0
M  V30 13008 O 1218.92 -4.48195 -3.12703 0
M  V30 13009 H 1216.02 -0.65727 -0.501921 0
M  V30 13010 H 1218.56 -1.66378 -0.33411 0
M  V30 13011 H 1217.33 -3.75716 -1.09332 0
M  V30 13012 H 1216.96 -2.98609 -2.62523 0
M  V30 13013 N 1217.95 0.594978 -1.45938 0
M  V30 13014 C 1219.18 1.37994 -1.5416 0
M  V30 13015 C 1219.6 1.87954 -0.17848 0
M  V30 13016 O 1218.95 1.62932 0.822161 0
M  V30 13017 C 1219.01 2.57586 -2.53637 0
M  V30 13018 O 1218.73 2.09698 -3.84653 0
M  V30 13019 C 1220.23 3.50292 -2.71681 0
M  V30 13020 H 1217.45 0.421983 -0.5217 0
M  V30 13021 H 1219.99 0.724459 -1.91238 0
M  V30 13022 H 1218.15 3.19149 -2.19597 0
M  V30 13023 H 1218.56 2.87492 -4.3869 0
M  V30 13024 H 1220.03 4.30717 -3.45234 0
M  V30 13025 H 1220.51 4.01444 -1.78156 0
M  V30 13026 H 1221.12 2.94573 -3.06768 0
M  V30 13027 N 1219.43 1.33438 0.838571 0
M  V30 13028 C 1220.38 1.23717 1.94841 0
M  V30 13029 C 1221.35 0.11573 1.65696 0
M  V30 13030 O 1222.53 0.294051 1.8852 0
M  V30 13031 C 1219.67 0.982626 3.30815 0
M  V30 13032 C 1218.79 2.19036 3.72354 0
M  V30 13033 C 1217.92 1.86995 4.97199 0
M  V30 13034 C 1216.96 3.03998 5.31274 0
M  V30 13035 N 1216.1 2.71943 6.47295 0
M  V30 13036 H 1220.94 2.18639 2.02487 0
M  V30 13037 H 1218.48 1.08721 0.990861 0
M  V30 13038 H 1220.43 0.81548 4.09152 0
M  V30 13039 H 1219.06 0.0701443 3.22724 0
M  V30 13040 H 1218.12 2.46724 2.89537 0
M  V30 13041 H 1219.43 3.06505 3.93518 0
M  V30 13042 H 1218.58 1.66925 5.83285 0
M  V30 13043 H 1217.32 0.967628 4.78004 0
M  V30 13044 H 1216.33 3.24681 4.43692 0
M  V30 13045 H 1217.55 3.94985 5.52416 0
M  V30 13046 H 1215.5 1.8427 6.29588 0
M  V30 13047 H 1215.41 3.52943 6.68556 0
M  V30 13048 H 1216.68 2.55342 7.36492 0
M  V30 13049 N 1220.91 -1.05686 1.16912 0
M  V30 13050 C 1222.14 -1.82821 0.979348 0
M  V30 13051 C 1222.56 -1.82196 -0.467575 0
M  V30 13052 O 1221.92 -1.22727 -1.33445 0
M  V30 13053 C 1221.97 -3.2705 1.51891 0
M  V30 13054 O 1221.07 -4.05899 0.729341 0
M  V30 13055 H 1220.41 -0.565455 0.348076 0
M  V30 13056 H 1222.94 -1.33211 1.55293 0
M  V30 13057 H 1222.95 -3.77859 1.53904 0
M  V30 13058 H 1221.63 -3.26819 2.5722 0
M  V30 13059 H 1220.2 -3.64646 0.780221 0
M  V30 13060 N 1222.39 -0.968567 -1.24324 0
M  V30 13061 C 1223.63 -0.631863 -1.92705 0
M  V30 13062 C 1223.97 0.83096 -1.75524 0
M  V30 13063 O 1223.24 1.59795 -1.10887 0
M  V30 13064 C 1223.53 -1.00845 -3.45691 0
M  V30 13065 C 1223.38 -2.52803 -3.72036 0
M  V30 13066 C 1224.7 -0.543647 -4.36729 0
M  V30 13067 H 1221.82 -0.231027 -0.699854 0
M  V30 13068 H 1224.46 -1.20773 -1.46676 0
M  V30 13069 H 1222.61 -0.518434 -3.85025 0
M  V30 13070 H 1224.28 -3.09289 -3.42255 0
M  V30 13071 H 1222.52 -2.95963 -3.17157 0
M  V30 13072 H 1223.19 -2.74203 -4.79079 0
M  V30 13073 H 1225.67 -0.964182 -4.04775 0
M  V30 13074 H 1224.55 -0.8357 -5.42501 0
M  V30 13075 H 1224.81 0.556256 -4.38587 0
M  V30 13076 N 1223.87 1.39211 -0.738786 0
M  V30 13077 C 1225.11 2.00436 -0.28839 0
M  V30 13078 C 1225.44 1.58626 1.12552 0
M  V30 13079 O 1224.7 0.808154 1.78234 0
M  V30 13080 C 1225 3.55758 -0.342224 0
M  V30 13081 C 1224.66 4.1723 -1.70968 0
M  V30 13082 C 1223.32 4.33734 -2.08395 0
M  V30 13083 C 1225.68 4.51294 -2.60736 0
M  V30 13084 C 1223 4.81592 -3.35091 0
M  V30 13085 C 1225.36 5.00562 -3.86808 0
M  V30 13086 C 1224.02 5.15274 -4.24322 0
M  V30 13087 H 1223.29 0.733447 -0.105529 0
M  V30 13088 H 1225.94 1.66481 -0.94637 0
M  V30 13089 H 1224.24 3.8976 0.399331 0
M  V30 13090 H 1225.94 4.00993 0.0244582 0
M  V30 13091 H 1222.53 4.04788 -1.4087 0
M  V30 13092 H 1226.71 4.38158 -2.3309 0
M  V30 13093 H 1221.97 4.91167 -3.64095 0
M  V30 13094 H 1226.14 5.25892 -4.5652 0
M  V30 13095 H 1223.77 5.52119 -5.2256 0
M  V30 13096 N 1225.34 0.486708 1.49896 0
M  V30 13097 C 1226.27 -0.288898 2.31706 0
M  V30 13098 C 1227.26 -0.975901 1.3932 0
M  V30 13099 O 1228.44 -0.970065 1.68236 0
M  V30 13100 C 1225.57 -1.36218 3.19471 0
M  V30 13101 C 1224.52 -0.795884 4.20535 0
M  V30 13102 C 1223.85 -1.96862 4.97141 0
M  V30 13103 C 1225.15 0.203421 5.21904 0
M  V30 13104 H 1226.84 0.393934 2.96797 0
M  V30 13105 H 1224.39 0.190894 1.42729 0
M  V30 13106 H 1226.34 -1.91238 3.75508 0
M  V30 13107 H 1225.07 -2.074 2.52295 0
M  V30 13108 H 1223.73 -0.267538 3.65622 0
M  V30 13109 H 1223.37 -2.66779 4.26425 0
M  V30 13110 H 1223.07 -1.59585 5.65514 0
M  V30 13111 H 1224.6 -2.52343 5.56017 0
M  V30 13112 H 1226.01 -0.258144 5.72719 0
M  V30 13113 H 1224.41 0.491273 5.98086 0
M  V30 13114 H 1225.48 1.12414 4.7169 0
M  V30 13115 N 1226.82 -1.56058 0.219941 0
M  V30 13116 C 1227.73 -2.23844 -0.70222 0
M  V30 13117 C 1228.75 -1.24554 -1.215 0
M  V30 13118 O 1229.93 -1.57362 -1.25695 0
M  V30 13119 C 1226.99 -2.90384 -1.89416 0
M  V30 13120 C 1226.05 -4.05012 -1.42351 0
M  V30 13121 C 1225.28 -4.68369 -2.55863 0
M  V30 13122 O 1225.51 -4.3071 -3.73958 0
M  V30 13123 O 1224.44 -5.5739 -2.27157 0
M  V30 13124 H 1228.27 -3.03305 -0.15478 0
M  V30 13125 H 1225.85 -1.49396 -0.010438 0
M  V30 13126 H 1227.73 -3.32389 -2.59028 0
M  V30 13127 H 1226.41 -2.13883 -2.42973 0
M  V30 13128 H 1225.32 -3.67579 -0.695448 0
M  V30 13129 H 1226.65 -4.83251 -0.934332 0
M  V30 13130 N 1228.3 0.053464 -1.57509 0
M  V30 13131 C 1229.53 0.765301 -1.92764 0
M  V30 13132 C 1229.95 1.69385 -0.817943 0
M  V30 13133 O 1229.31 1.7986 0.228075 0
M  V30 13134 C 1229.36 1.51938 -3.27028 0
M  V30 13135 O 1228.46 2.63121 -3.17555 0
M  V30 13136 H 1227.8 0.207567 -0.630723 0
M  V30 13137 H 1230.33 0.0162254 -2.04594 0
M  V30 13138 H 1230.34 1.89466 -3.6134 0
M  V30 13139 H 1229.02 0.838207 -4.07366 0
M  V30 13140 H 1227.59 2.28316 -2.94832 0
M  V30 13141 N 1229.78 1.54207 0.325255 0
M  V30 13142 C 1230.73 1.83474 1.40021 0
M  V30 13143 C 1231.7 0.681719 1.51466 0
M  V30 13144 O 1232.88 0.92798 1.66713 0
M  V30 13145 C 1230.02 2.06624 2.76407 0
M  V30 13146 C 1229.13 3.3431 2.73607 0
M  V30 13147 C 1228.27 3.4743 4.01828 0
M  V30 13148 C 1227.31 4.68997 3.93329 0
M  V30 13149 N 1226.45 4.79052 5.13277 0
M  V30 13150 H 1231.29 2.75182 1.14363 0
M  V30 13151 H 1228.82 1.36284 0.553639 0
M  V30 13152 H 1230.78 2.18037 3.5569 0
M  V30 13153 H 1229.41 1.18209 3.00377 0
M  V30 13154 H 1228.46 3.31643 1.86324 0
M  V30 13155 H 1229.77 4.237 2.6321 0
M  V30 13156 H 1228.93 3.58376 4.89542 0
M  V30 13157 H 1227.67 2.56128 4.1503 0
M  V30 13158 H 1226.67 4.58109 3.04 0
M  V30 13159 H 1227.9 5.61681 3.81695 0
M  V30 13160 H 1225.84 3.90666 5.26988 0
M  V30 13161 H 1225.76 5.62406 5.05208 0
M  V30 13162 H 1227.03 4.94328 6.02711 0
M  V30 13163 N 1231.26 -0.58723 1.46251 0
M  V30 13164 C 1232.17 -1.72455 1.59048 0
M  V30 13165 C 1233.18 -1.67416 0.47413 0
M  V30 13166 O 1234.36 -1.87406 0.737633 0
M  V30 13167 C 1231.42 -3.08953 1.57318 0
M  V30 13168 C 1230.49 -3.25291 2.80151 0
M  V30 13169 C 1229.72 -4.55277 2.78493 0
M  V30 13170 O 1229.94 -5.38883 1.8698 0
M  V30 13171 O 1228.88 -4.74765 3.69975 0
M  V30 13172 H 1232.7 -1.64606 2.55223 0
M  V30 13173 H 1230.29 -0.753742 1.28993 0
M  V30 13174 H 1232.17 -3.90239 1.59033 0
M  V30 13175 H 1230.84 -3.17249 0.643025 0
M  V30 13176 H 1229.75 -2.43515 2.83991 0
M  V30 13177 H 1231.08 -3.21883 3.7236 0
M  V30 13178 N 1232.74 -1.33881 -0.831482 0
M  V30 13179 C 1234.15 -1.23112 -1.40358 0
M  V30 13180 C 1234.5 0.146944 -1.95649 0
M  V30 13181 O 1233.62 1.04689 -1.89391 0
M  V30 13182 C 1234.22 -2.22899 -2.5515 0
M  V30 13183 C 1232.78 -2.15946 -3.08292 0
M  V30 13184 C 1231.92 -2.09975 -1.81124 0
M  V30 13185 H 1234.87 -1.45372 -0.63661 0
M  V30 13186 H 1234.9 -1.841 -3.32997 0
M  V30 13187 H 1234.41 -3.23186 -2.14878 0
M  V30 13188 H 1232.51 -1.18987 -3.53091 0
M  V30 13189 H 1232.62 -3.06822 -3.67964 0
M  V30 13190 H 1230.99 -1.55564 -2.01673 0
M  V30 13191 H 1231.77 -3.12082 -1.43037 0
M  V30 13192 N 1234.21 1.05064 -1.1747 0
M  V30 13193 C 1235.46 1.77737 -0.961979 0
M  V30 13194 C 1235.78 1.88198 0.510551 0
M  V30 13195 O 1235.05 1.39968 1.37062 0
M  V30 13196 H 1233.63 0.658366 -0.352935 0
M  V30 13197 H 1236.29 1.26851 -1.47969 0
M  V30 13198 H 1235.39 2.79368 -1.39141 0
M  V30 13199 N 1235.69 0.975146 1.23809 0
M  V30 13200 C 1237.11 0.682899 1.44252 0
M  V30 13201 C 1237.31 -0.752739 1.86912 0
M  V30 13202 O 1236.36 -1.52579 2.01186 0
M  V30 13203 C 1237.68 1.67335 2.49839 0
M  V30 13204 C 1239.22 1.6868 2.63659 0
M  V30 13205 C 1239.7 2.66542 3.72451 0
M  V30 13206 N 1241.19 2.65028 3.79887 0
M  V30 13207 C 1241.93 3.37421 4.63611 0
M  V30 13208 N 1241.42 4.19355 5.51465 0
M  V30 13209 N 1243.21 3.2621 4.57759 0
M  V30 13210 H 1235.37 1.9026 0.94418 0
M  V30 13211 H 1237.63 0.819543 0.476502 0
M  V30 13212 H 1237.33 2.69978 2.25399 0
M  V30 13213 H 1237.21 1.45201 3.48133 0
M  V30 13214 H 1239.6 0.667438 2.87453 0
M  V30 13215 H 1239.68 1.94878 1.65699 0
M  V30 13216 H 1239.32 3.68617 3.49405 0
M  V30 13217 H 1239.25 2.3762 4.69941 0
M  V30 13218 H 1241.74 2.05562 3.171 0
M  V30 13219 H 1242.05 4.71461 6.12327 0
M  V30 13220 H 1240.4 4.23447 5.51106 0
M  V30 13221 H 1243.59 2.61656 3.88142 0
M  V30 13222 H 1243.76 3.82889 5.22781 0
M  V30 13223 N 1237.17 -1.38817 0.746158 0
M  V30 13224 C 1238.12 -2.32373 0.102785 0
M  V30 13225 C 1239.11 -1.53638 -0.713556 0
M  V30 13226 O 1240.32 -1.69223 -0.613488 0
M  V30 13227 H 1236.69 -0.751861 0.0144405 0
M  V30 13228 H 1238.66 -2.84249 0.908032 0
M  V30 13229 C 1237.41 -3.38796 -0.781827 0
M  V30 13230 H 1236.74 -3.99467 -0.163057 0
M  V30 13231 H 1238.18 -4.06682 -1.19941 0
M  V30 13232 C 1236.63 -2.76756 -1.92113 0
M  V30 13233 O 1237.16 -2.65478 -3.0147 0
M  V30 13234 N 1235.37 -2.34676 -1.71392 0
M  V30 13235 H 1234.92 -2.44049 -0.824483 0
M  V30 13236 H 1234.88 -1.93508 -2.47794 0
M  V30 13237 N 1238.65 -0.49465 -1.49636 0
M  V30 13238 C 1239.9 0.0539277 -2.01628 0
M  V30 13239 C 1240.21 1.38634 -1.37986 0
M  V30 13240 O 1241.42 2.02123 -1.81269 0
M  V30 13241 C 1239.87 0.146582 -3.59601 0
M  V30 13242 C 1239.48 -1.1788 -4.32213 0
M  V30 13243 C 1241.22 0.645862 -4.19558 0
M  V30 13244 C 1239.13 -1.04866 -5.82028 0
M  V30 13245 H 1238.06 0.0239278 -0.75362 0
M  V30 13246 H 1240.71 -0.633112 -1.72232 0
M  V30 13247 H 1239.09 0.897931 -3.85685 0
M  V30 13248 H 1240.27 -1.94295 -4.17835 0
M  V30 13249 H 1238.58 -1.61102 -3.83973 0
M  V30 13250 H 1241.18 0.76064 -5.29262 0
M  V30 13251 H 1241.52 1.64313 -3.82501 0
M  V30 13252 H 1242.06 -0.04877 -3.9777 0
M  V30 13253 H 1238.79 -2.02 -6.23599 0
M  V30 13254 H 1238.31 -0.325293 -5.98917 0
M  V30 13255 H 1239.99 -0.724799 -6.42927 0
M  V30 13256 N 1240.13 1.55939 -0.228214 0
M  V30 13257 C 1241.37 1.98084 0.400884 0
M  V30 13258 C 1241.69 1.11727 1.59819 0
M  V30 13259 O 1240.96 0.195794 1.94919 0
M  V30 13260 H 1239.54 0.731558 0.151102 0
M  V30 13261 H 1242.21 1.92211 -0.322659 0
M  V30 13262 H 1241.3 3.03617 0.722706 0
M  V30 13263 N 1241.6 -0.0451101 1.57535 0
M  V30 13264 C 1242.83 -0.750231 1.92497 0
M  V30 13265 C 1243.24 -1.70268 0.824946 0
M  V30 13266 O 1242.59 -1.82511 -0.208656 0
M  V30 13267 C 1242.65 -1.57543 3.23141 0
M  V30 13268 C 1242.31 -0.789495 4.50129 0
M  V30 13269 C 1243.31 -0.0968367 5.1981 0
M  V30 13270 C 1240.99 -0.748776 4.96688 0
M  V30 13271 C 1242.99 0.626018 6.34318 0
M  V30 13272 C 1240.67 -0.0221652 6.11096 0
M  V30 13273 C 1241.67 0.664006 6.79765 0
M  V30 13274 O 1241.36 1.37885 7.91987 0
M  V30 13275 H 1241.09 -0.216895 0.64026 0
M  V30 13276 H 1243.65 -0.011558 2.05397 0
M  V30 13277 H 1241.88 -2.35754 3.06524 0
M  V30 13278 H 1243.57 -2.16168 3.4355 0
M  V30 13279 H 1244.33 -0.119429 4.84853 0
M  V30 13280 H 1240.21 -1.27235 4.43094 0
M  V30 13281 H 1243.75 1.16215 6.87852 0
M  V30 13282 H 1239.65 0.00240707 6.455 0
M  V30 13283 H 1240.42 1.29087 8.08257 0
M  V30 13284 N 1243.08 -1.54377 -0.317073 0
M  V30 13285 C 1244.33 -1.72105 -1.0518 0
M  V30 13286 C 1244.64 -0.505166 -1.88964 0
M  V30 13287 O 1245.85 -0.563912 -2.65579 0
M  V30 13288 C 1244.31 -3.04435 -1.91957 0
M  V30 13289 C 1243.91 -4.33449 -1.13253 0
M  V30 13290 C 1245.66 -3.31524 -2.65127 0
M  V30 13291 C 1243.57 -5.56837 -1.99214 0
M  V30 13292 H 1242.5 -0.641392 -0.396399 0
M  V30 13293 H 1245.15 -1.80868 -0.309673 0
M  V30 13294 H 1243.53 -2.89595 -2.70094 0
M  V30 13295 H 1244.7 -4.59074 -0.39842 0
M  V30 13296 H 1243.02 -4.13173 -0.517372 0
M  V30 13297 H 1245.61 -4.20906 -3.29761 0
M  V30 13298 H 1245.96 -2.49688 -3.33109 0
M  V30 13299 H 1246.49 -3.47261 -1.94048 0
M  V30 13300 H 1243.23 -6.41294 -1.35729 0
M  V30 13301 H 1242.75 -5.35421 -2.70341 0
M  V30 13302 H 1244.43 -5.93488 -2.57646 0
M  V30 13303 N 1244.56 0.579466 -1.4656 0
M  V30 13304 C 1245.81 1.33756 -1.52038 0
M  V30 13305 C 1246.14 1.93725 -0.173423 0
M  V30 13306 O 1245.39 1.77167 0.831293 0
M  V30 13307 C 1245.69 2.48417 -2.56951 0
M  V30 13308 C 1245.36 2.0642 -4.00876 0
M  V30 13309 C 1244.02 1.94682 -4.4006 0
M  V30 13310 C 1246.37 1.74066 -4.91274 0
M  V30 13311 C 1243.7 1.48852 -5.67503 0
M  V30 13312 C 1246.05 1.29714 -6.19158 0
M  V30 13313 C 1244.71 1.16555 -6.57245 0
M  V30 13314 H 1243.98 0.489447 -0.556347 0
M  V30 13315 H 1246.63 0.652176 -1.80053 0
M  V30 13316 H 1244.94 3.22416 -2.2261 0
M  V30 13317 H 1246.63 3.06629 -2.58418 0
M  V30 13318 H 1243.22 2.16492 -3.69904 0
M  V30 13319 H 1247.41 1.82019 -4.61717 0
M  V30 13320 H 1242.66 1.3731 -5.95782 0
M  V30 13321 H 1246.84 1.03734 -6.88631 0
M  V30 13322 H 1244.46 0.808193 -7.55892 0
M  V30 13323 N 1246.04 1.3432 0.824371 0
M  V30 13324 C 1247.29 1.26595 1.5805 0
M  V30 13325 C 1247.61 -0.164471 1.93803 0
M  V30 13326 O 1246.87 -1.12537 1.60106 0
M  V30 13327 C 1247.17 2.1008 2.89139 0
M  V30 13328 C 1246.83 3.59102 2.72684 0
M  V30 13329 C 1245.5 3.99726 2.67904 0
M  V30 13330 C 1247.85 4.53736 2.56463 0
M  V30 13331 C 1245.18 5.33178 2.44822 0
M  V30 13332 C 1247.53 5.87366 2.34913 0
M  V30 13333 C 1246.19 6.27155 2.28544 0
M  V30 13334 H 1245.46 0.463245 0.578347 0
M  V30 13335 H 1248.11 1.66048 0.953948 0
M  V30 13336 H 1246.41 1.6345 3.56078 0
M  V30 13337 H 1248.11 2.01451 3.46726 0
M  V30 13338 H 1244.7 3.26855 2.77244 0
M  V30 13339 H 1248.88 4.23248 2.5918 0
M  V30 13340 H 1244.14 5.63028 2.38348 0
M  V30 13341 H 1248.31 6.60286 2.21349 0
M  V30 13342 H 1245.94 7.30498 2.1042 0
M  V30 13343 N 1247.52 -1.0444 1.18026 0
M  V30 13344 C 1248.46 -2.12365 0.903865 0
M  V30 13345 C 1249.43 -1.65373 -0.155252 0
M  V30 13346 O 1250.62 -1.90793 -0.016419 0
M  V30 13347 C 1247.76 -3.4239 0.431603 0
M  V30 13348 C 1246.87 -4.03016 1.55571 0
M  V30 13349 C 1246.01 -5.20988 1.03655 0
M  V30 13350 C 1245.05 -5.73636 2.1356 0
M  V30 13351 N 1244.18 -6.82901 1.63066 0
M  V30 13352 H 1249.02 -2.35346 1.82802 0
M  V30 13353 H 1246.56 -1.15447 0.911618 0
M  V30 13354 H 1248.52 -4.16967 0.139296 0
M  V30 13355 H 1247.15 -3.19569 -0.455576 0
M  V30 13356 H 1246.2 -3.25803 1.96358 0
M  V30 13357 H 1247.51 -4.38122 2.38434 0
M  V30 13358 H 1246.67 -6.02665 0.698546 0
M  V30 13359 H 1245.4 -4.87377 0.177457 0
M  V30 13360 H 1244.41 -4.90583 2.4821 0
M  V30 13361 H 1245.63 -6.09293 2.99899 0
M  V30 13362 H 1243.58 -6.51172 0.794394 0
M  V30 13363 H 1243.5 -7.1705 2.3953 0
M  V30 13364 H 1244.77 -7.68211 1.32181 0
M  V30 13365 N 1248.99 -0.981699 -1.2329 0
M  V30 13366 C 1249.94 -0.515432 -2.26817 0
M  V30 13367 C 1250.94 0.428204 -1.63899 0
M  V30 13368 O 1252.14 0.301954 -1.77449 0
M  V30 13369 H 1248.52 -0.148257 -0.737241 0
M  V30 13370 H 1250.49 -1.40027 -2.63505 0
M  V30 13371 C 1249.24 0.165266 -3.47307 0
M  V30 13372 H 1248.56 -0.55176 -3.95974 0
M  V30 13373 H 1250 0.45513 -4.2155 0
M  V30 13374 C 1248.46 1.39693 -3.06574 0
M  V30 13375 O 1248.99 2.49308 -3.14974 0
M  V30 13376 N 1247.2 1.26806 -2.61474 0
M  V30 13377 H 1246.74 0.376161 -2.54839 0
M  V30 13378 H 1246.7 2.09324 -2.34587 0
M  V30 13379 N 1250.47 1.3842 -0.753509 0
M  V30 13380 C 1251.7 2.04929 -0.319174 0
M  V30 13381 C 1252.12 1.56457 1.04416 0
M  V30 13382 O 1251.48 0.716527 1.6654 0
M  V30 13383 C 1251.53 3.58887 -0.351054 0
M  V30 13384 O 1250.63 4.07166 0.654963 0
M  V30 13385 H 1249.97 0.648782 -0.141343 0
M  V30 13386 H 1252.5 1.77096 -1.02461 0
M  V30 13387 H 1252.51 4.075 -0.201907 0
M  V30 13388 H 1251.19 3.93525 -1.34576 0
M  V30 13389 H 1249.77 3.69921 0.470435 0
M  V30 13390 N 1251.95 0.502579 1.49372 0
M  V30 13391 C 1253.18 -0.0381429 2.06865 0
M  V30 13392 C 1253.59 -1.30674 1.36271 0
M  V30 13393 O 1252.95 -1.77078 0.441532 0
M  V30 13394 C 1253 -0.294068 3.60302 0
M  V30 13395 O 1252.72 0.924244 4.2824 0
M  V30 13396 C 1254.22 -0.878253 4.34513 0
M  V30 13397 H 1251.44 0.0211756 0.670666 0
M  V30 13398 H 1253.99 0.700387 1.92132 0
M  V30 13399 H 1252.14 -0.982583 3.74732 0
M  V30 13400 H 1252.56 0.688062 5.19967 0
M  V30 13401 H 1254.03 -1.0069 5.42739 0
M  V30 13402 H 1254.51 -1.87643 3.97098 0
M  V30 13403 H 1255.11 -0.227157 4.24693 0
M  V30 13404 N 1253.43 -1.55816 0.23648 0
M  V30 13405 C 1254.68 -1.97862 -0.391579 0
M  V30 13406 C 1254.99 -1.1276 -1.59827 0
M  V30 13407 O 1256.2 -1.44772 -2.29681 0
M  V30 13408 C 1254.65 -3.5204 -0.748065 0
M  V30 13409 C 1254.26 -4.45867 0.436643 0
M  V30 13410 C 1256 -4.02766 -1.3409 0
M  V30 13411 C 1253.91 -5.91373 0.0568909 0
M  V30 13412 H 1252.84 -0.738913 -0.150078 0
M  V30 13413 H 1255.49 -1.80415 0.335052 0
M  V30 13414 H 1253.87 -3.65143 -1.53254 0
M  V30 13415 H 1255.05 -4.44519 1.21408 0
M  V30 13416 H 1253.36 -4.05565 0.943702 0
M  V30 13417 H 1255.96 -5.08987 -1.63817 0
M  V30 13418 H 1256.3 -3.49496 -2.26182 0
M  V30 13419 H 1256.84 -3.92946 -0.619548 0
M  V30 13420 H 1253.58 -6.48657 0.944682 0
M  V30 13421 H 1253.1 -5.95881 -0.684557 0
M  V30 13422 H 1254.77 -6.45972 -0.364586 0
M  V30 13423 N 1254.91 0.036755 -1.57557 0
M  V30 13424 C 1256.18 0.764087 -1.80059 0
M  V30 13425 C 1256.56 1.93983 -0.83269 0
M  V30 13426 O 1255.91 2.28148 0.126815 0
M  V30 13427 C 1256.12 1.20433 -3.27562 0
M  V30 13428 C 1257.47 1.6234 -3.9234 0
M  V30 13429 O 1258.49 1.29911 -3.31665 0
M  V30 13430 O 1257.35 2.22504 -4.99154 0
M  V30 13431 H 1254.45 0.368866 -0.74018 0
M  V30 13432 H 1256.99 0.0141254 -1.69694 0
M  V30 13433 H 1255.76 0.364646 -3.89597 0
M  V30 13434 H 1255.39 2.01454 -3.42786 0
M  V30 13435 N 1256.39 1.54543 0.308881 0
M  V30 13436 C 1257.63 1.7266 1.04266 0
M  V30 13437 C 1257.95 0.51518 1.88694 0
M  V30 13438 O 1259.15 0.577988 2.65276 0
M  V30 13439 C 1257.61 3.05448 1.9034 0
M  V30 13440 C 1257.22 4.34043 1.10953 0
M  V30 13441 C 1258.96 3.32925 2.63365 0
M  V30 13442 C 1256.87 5.57886 1.96258 0
M  V30 13443 H 1255.8 0.643485 0.392992 0
M  V30 13444 H 1258.45 1.8103 0.300077 0
M  V30 13445 H 1256.83 2.91023 2.68555 0
M  V30 13446 H 1258.01 4.59279 0.374069 0
M  V30 13447 H 1256.32 4.13442 0.495453 0
M  V30 13448 H 1258.92 4.22649 3.27524 0
M  V30 13449 H 1259.26 2.51451 3.3178 0
M  V30 13450 H 1259.79 3.48285 1.92204 0
M  V30 13451 H 1256.53 6.42005 1.32326 0
M  V30 13452 H 1256.05 5.36847 2.67498 0
M  V30 13453 H 1257.73 5.94846 2.54494 0
M  V30 13454 N 1257.86 -0.571685 1.46866 0
M  V30 13455 C 1258.77 -1.70758 1.60869 0
M  V30 13456 C 1259.79 -1.66903 0.49186 0
M  V30 13457 O 1260.97 -1.86613 0.757468 0
M  V30 13458 C 1258.03 -3.07267 1.60586 0
M  V30 13459 C 1257.09 -3.22301 2.83585 0
M  V30 13460 C 1256.32 -4.52298 2.83306 0
M  V30 13461 O 1256.55 -5.36869 1.92685 0
M  V30 13462 O 1255.48 -4.70814 3.7499 0
M  V30 13463 H 1259.31 -1.6189 2.56954 0
M  V30 13464 H 1256.89 -0.740018 1.29785 0
M  V30 13465 H 1258.77 -3.8853 1.63163 0
M  V30 13466 H 1257.45 -3.16549 0.676637 0
M  V30 13467 H 1256.36 -2.4049 2.86558 0
M  V30 13468 H 1257.69 -3.17916 3.75753 0
M  V30 13469 N 1259.34 -1.34755 -0.817236 0
M  V30 13470 C 1260.76 -1.14561 -1.11121 0
M  V30 13471 C 1260.96 0.0490776 -2.0144 0
M  V30 13472 O 1260.01 0.722897 -2.41931 0
M  V30 13473 C 1261.33 -2.44356 -1.75244 0
M  V30 13474 C 1262.87 -2.50465 -1.87713 0
M  V30 13475 C 1263.35 -3.80276 -2.55253 0
M  V30 13476 N 1264.84 -3.81468 -2.62747 0
M  V30 13477 C 1265.58 -4.78634 -3.15749 0
M  V30 13478 N 1265.07 -5.86184 -3.6927 0
M  V30 13479 N 1266.86 -4.66083 -3.14203 0
M  V30 13480 H 1259.02 -2.11293 -0.2166 0
M  V30 13481 H 1261.28 -0.934629 -0.158661 0
M  V30 13482 H 1260.98 -3.31899 -1.16344 0
M  V30 13483 H 1260.86 -2.58117 -2.75055 0
M  V30 13484 H 1263.25 -1.63358 -2.45761 0
M  V30 13485 H 1263.33 -2.40627 -0.867887 0
M  V30 13486 H 1262.97 -4.67776 -1.97858 0
M  V30 13487 H 1262.9 -3.87399 -3.56693 0
M  V30 13488 H 1265.39 -3.03753 -2.24817 0
M  V30 13489 H 1265.7 -6.56332 -4.0798 0
M  V30 13490 H 1264.05 -5.8989 -3.67498 0
M  V30 13491 H 1267.24 -3.81206 -2.7166 0
M  V30 13492 H 1267.41 -5.41973 -3.55203 0
M  V30 13493 N 1260.82 1.03812 -1.18578 0
M  V30 13494 C 1261.77 2.11883 -0.915115 0
M  V30 13495 C 1262.74 1.65453 0.146479 0
M  V30 13496 O 1263.92 1.90799 0.00630058 0
M  V30 13497 C 1261.06 3.42157 -0.449755 0
M  V30 13498 C 1260.17 4.02185 -1.57706 0
M  V30 13499 C 1259.31 5.20431 -1.06417 0
M  V30 13500 C 1258.35 5.72496 -2.16599 0
M  V30 13501 N 1257.49 6.82027 -1.66685 0
M  V30 13502 H 1262.33 2.34373 -1.84047 0
M  V30 13503 H 1259.86 1.14962 -0.917728 0
M  V30 13504 H 1261.82 4.16888 -0.161407 0
M  V30 13505 H 1260.45 3.19806 0.438622 0
M  V30 13506 H 1259.5 3.24757 -1.98083 0
M  V30 13507 H 1260.81 4.36851 -2.40754 0
M  V30 13508 H 1259.97 6.02286 -0.730497 0
M  V30 13509 H 1258.71 4.87276 -0.203301 0
M  V30 13510 H 1257.71 4.8926 -2.50808 0
M  V30 13511 H 1258.94 6.07694 -3.03126 0
M  V30 13512 H 1256.88 6.50742 -0.828916 0
M  V30 13513 H 1256.8 7.1577 -2.43329 0
M  V30 13514 H 1258.07 7.67499 -1.36253 0
M  V30 13515 N 1262.3 0.988223 1.22768 0
M  V30 13516 C 1263.21 0.543407 2.2822 0
M  V30 13517 C 1264.22 -0.405563 1.69208 0
M  V30 13518 O 1265.4 -0.273551 1.99534 0
M  V30 13519 C 1262.46 -0.139495 3.46419 0
M  V30 13520 C 1261.53 0.851853 4.20764 0
M  V30 13521 C 1260.76 0.201446 5.3332 0
M  V30 13522 O 1260.98 -1.00573 5.61464 0
M  V30 13523 O 1259.92 0.903956 5.95073 0
M  V30 13524 H 1263.74 1.42059 2.68427 0
M  V30 13525 H 1261.33 0.756239 1.28846 0
M  V30 13526 H 1263.21 -0.522226 4.18152 0
M  V30 13527 H 1261.88 -0.991315 3.08147 0
M  V30 13528 H 1260.79 1.28543 3.51322 0
M  V30 13529 H 1262.12 1.67273 4.62905 0
M  V30 13530 N 1263.78 -1.38018 0.760839 0
M  V30 13531 C 1264.71 -2.2899 0.0980916 0
M  V30 13532 C 1265.72 -1.48102 -0.675985 0
M  V30 13533 O 1266.91 -1.70883 -0.515878 0
M  V30 13534 C 1264.01 -3.27142 -0.884959 0
M  V30 13535 C 1263.18 -4.37081 -0.167 0
M  V30 13536 C 1262.24 -5.15375 -1.06184 0
M  V30 13537 O 1261.27 -5.6673 -0.529667 0
M  V30 13538 N 1262.47 -5.29052 -2.38924 0
M  V30 13539 H 1265.23 -2.86508 0.879403 0
M  V30 13540 H 1262.8 -1.49877 0.612245 0
M  V30 13541 H 1264.79 -3.764 -1.48678 0
M  V30 13542 H 1263.36 -2.70471 -1.5673 0
M  V30 13543 H 1262.58 -3.89363 0.615617 0
M  V30 13544 H 1263.87 -5.07732 0.329525 0
M  V30 13545 H 1263.26 -4.88892 -2.84607 0
M  V30 13546 H 1261.82 -5.81658 -2.94139 0
M  V30 13547 N 1265.25 -0.510493 -1.49103 0
M  V30 13548 C 1266.48 0.0271718 -2.06882 0
M  V30 13549 C 1266.9 1.2995 -1.36962 0
M  V30 13550 O 1266.25 1.76842 -0.450916 0
M  V30 13551 C 1266.3 0.274956 -3.60453 0
M  V30 13552 O 1266.03 -0.946941 -4.27744 0
M  V30 13553 C 1267.53 0.855197 -4.34973 0
M  V30 13554 H 1264.75 -0.024732 -0.670544 0
M  V30 13555 H 1267.29 -0.710567 -1.91758 0
M  V30 13556 H 1265.45 0.962696 -3.75248 0
M  V30 13557 H 1265.86 -0.715627 -5.19595 0
M  V30 13558 H 1267.33 0.978103 -5.43265 0
M  V30 13559 H 1267.81 1.85535 -3.98087 0
M  V30 13560 H 1268.42 0.204632 -4.24807 0
M  V30 13561 N 1266.73 1.55688 -0.24474 0
M  V30 13562 C 1267.98 1.98498 0.379852 0
M  V30 13563 C 1268.3 1.13416 1.58625 0
M  V30 13564 O 1267.57 0.216456 1.947 0
M  V30 13565 H 1266.15 0.73312 0.143334 0
M  V30 13566 H 1268.81 1.91858 -0.343027 0
M  V30 13567 H 1267.91 3.04367 0.690463 0
M  V30 13568 N 1268.21 -0.0283989 1.57574 0
M  V30 13569 C 1269.44 -0.730831 1.93563 0
M  V30 13570 C 1269.85 -1.68857 0.844556 0
M  V30 13571 O 1269.21 -1.8162 -0.178971 0
M  V30 13572 C 1269.26 -1.48731 3.29486 0
M  V30 13573 O 1268.98 -0.568017 4.34402 0
M  V30 13574 C 1270.48 -2.28684 3.79761 0
M  V30 13575 H 1267.7 -0.205346 0.638807 0
M  V30 13576 H 1270.25 0.0142728 2.04495 0
M  V30 13577 H 1268.4 -2.18429 3.19949 0
M  V30 13578 H 1268.82 -1.09861 5.12865 0
M  V30 13579 H 1270.29 -2.77157 4.77376 0
M  V30 13580 H 1270.77 -3.10133 3.10989 0
M  V30 13581 H 1271.37 -1.64059 3.92383 0
M  V30 13582 N 1269.69 -1.54705 -0.300681 0
M  V30 13583 C 1270.93 -1.75189 -1.03345 0
M  V30 13584 C 1271.29 -0.531398 -1.84916 0
M  V30 13585 O 1270.58 0.476194 -1.85588 0
M  V30 13586 C 1270.78 -2.98173 -1.97047 0
M  V30 13587 C 1270.6 -4.32067 -1.24694 0
M  V30 13588 C 1269.37 -4.95825 -0.973967 0
M  V30 13589 C 1271.57 -5.1016 -0.651224 0
M  V30 13590 N 1269.55 -6.13503 -0.220737 0
M  V30 13591 C 1270.93 -6.19992 -0.0307781 0
M  V30 13592 C 1272.98 -4.94782 -0.556306 0
M  V30 13593 C 1271.68 -7.16122 0.675403 0
M  V30 13594 C 1273.71 -5.91243 0.136221 0
M  V30 13595 C 1273.07 -7.00444 0.745517 0
M  V30 13596 H 1269.17 -0.693643 -0.361087 0
M  V30 13597 H 1271.75 -1.92183 -0.312046 0
M  V30 13598 H 1269.93 -2.82604 -2.66439 0
M  V30 13599 H 1271.66 -3.07182 -2.63479 0
M  V30 13600 H 1268.41 -4.56193 -1.2722 0
M  V30 13601 H 1268.84 -6.7685 0.142402 0
M  V30 13602 H 1273.48 -4.10483 -1.01307 0
M  V30 13603 H 1271.2 -7.99962 1.14394 0
M  V30 13604 H 1274.78 -5.81422 0.209611 0
M  V30 13605 H 1273.66 -7.73801 1.27287 0
M  V30 13606 N 1271.17 0.563888 -1.47167 0
M  V30 13607 C 1272.11 1.69254 -1.59549 0
M  V30 13608 C 1273.11 1.62948 -0.463078 0
M  V30 13609 O 1274.31 1.68214 -0.640639 0
M  V30 13610 H 1270.69 0.559925 -0.501984 0
M  V30 13611 H 1272.66 1.55946 -2.54408 0
M  V30 13612 C 1271.41 3.0762 -1.62066 0
M  V30 13613 H 1270.73 3.13151 -2.48549 0
M  V30 13614 H 1272.17 3.863 -1.74781 0
M  V30 13615 C 1270.63 3.35048 -0.352721 0
M  V30 13616 O 1271.16 3.9793 0.549053 0
M  V30 13617 N 1269.37 2.8965 -0.234805 0
M  V30 13618 H 1268.91 2.38657 -0.969561 0
M  V30 13619 H 1268.87 3.08373 0.61263 0
M  V30 13620 N 1272.64 1.35187 0.810078 0
M  V30 13621 C 1273.87 1.31528 1.60359 0
M  V30 13622 C 1274.29 -0.105385 1.87805 0
M  V30 13623 O 1273.65 -1.07113 1.46276 0
M  V30 13624 C 1273.7 2.12429 2.91386 0
M  V30 13625 O 1272.8 1.50262 3.84051 0
M  V30 13626 H 1272.15 0.451122 0.487222 0
M  V30 13627 H 1274.68 1.78178 1.00568 0
M  V30 13628 H 1274.69 2.24257 3.40841 0
M  V30 13629 H 1273.36 3.15714 2.70735 0
M  V30 13630 H 1271.94 1.47253 3.42594 0
M  V30 13631 N 1274.12 -1.03182 1.19127 0
M  V30 13632 C 1275.37 -1.75934 0.986415 0
M  V30 13633 C 1275.68 -1.89519 -0.48392 0
M  V30 13634 O 1276.89 -2.59213 -0.80752 0
M  V30 13635 C 1275.35 -3.16358 1.71597 0
M  V30 13636 C 1274.95 -3.10836 3.22622 0
M  V30 13637 C 1276.7 -3.93426 1.59425 0
M  V30 13638 C 1274.61 -4.46174 3.88179 0
M  V30 13639 H 1273.54 -0.659516 0.365451 0
M  V30 13640 H 1276.19 -1.15497 1.42593 0
M  V30 13641 H 1274.57 -3.77245 1.20426 0
M  V30 13642 H 1275.74 -2.59348 3.80887 0
M  V30 13643 H 1274.06 -2.47266 3.35035 0
M  V30 13644 H 1276.65 -4.93526 2.05757 0
M  V30 13645 H 1277 -4.12678 0.547926 0
M  V30 13646 H 1277.53 -3.39134 2.07925 0
M  V30 13647 H 1274.27 -4.32126 4.92897 0
M  V30 13648 H 1273.79 -4.97729 3.34702 0
M  V30 13649 H 1275.47 -5.15066 3.91556 0
M  V30 13650 N 1275.6 -0.99472 -1.22242 0
M  V30 13651 C 1276.55 -0.53946 -2.26258 0
M  V30 13652 C 1277.54 0.410796 -1.64344 0
M  V30 13653 O 1278.75 0.283116 -1.7776 0
M  V30 13654 H 1275.12 -0.156069 -0.735627 0
M  V30 13655 H 1277.09 -1.42814 -2.62005 0
M  V30 13656 C 1275.84 0.12842 -3.47463 0
M  V30 13657 H 1275.17 -0.593727 -3.95367 0
M  V30 13658 H 1276.61 0.410393 -4.22009 0
M  V30 13659 C 1275.07 1.36433 -3.08038 0
M  V30 13660 O 1275.6 2.45953 -3.176 0
M  V30 13661 N 1273.8 1.24026 -2.62804 0
M  V30 13662 H 1273.35 0.349111 -2.55223 0
M  V30 13663 H 1273.31 2.06824 -2.36794 0
M  V30 13664 N 1277.08 1.37613 -0.768148 0
M  V30 13665 C 1278.49 1.53202 -0.44737 0
M  V30 13666 C 1278.69 1.72736 1.03752 0
M  V30 13667 O 1277.75 1.74667 1.8234 0
M  V30 13668 C 1279.06 2.7306 -1.25931 0
M  V30 13669 C 1280.61 2.8692 -1.25084 0
M  V30 13670 C 1281.09 4.09757 -2.04605 0
M  V30 13671 N 1282.58 4.16862 -2.0194 0
M  V30 13672 C 1283.31 5.10936 -2.60254 0
M  V30 13673 N 1282.81 6.1059 -3.27341 0
M  V30 13674 N 1284.6 5.03393 -2.50104 0
M  V30 13675 H 1276.75 1.23184 -1.7303 0
M  V30 13676 H 1279.02 0.599541 -0.73434 0
M  V30 13677 H 1278.72 2.65078 -2.31141 0
M  V30 13678 H 1278.6 3.66646 -0.886036 0
M  V30 13679 H 1280.98 2.94375 -0.206736 0
M  V30 13680 H 1281.06 1.94303 -1.66373 0
M  V30 13681 H 1280.71 4.03063 -3.09035 0
M  V30 13682 H 1280.64 5.01481 -1.60701 0
M  V30 13683 H 1283.13 3.455 -1.53096 0
M  V30 13684 H 1283.44 6.78893 -3.6922 0
M  V30 13685 H 1281.79 6.10879 -3.31439 0
M  V30 13686 H 1284.98 4.24483 -1.9731 0
M  V30 13687 H 1285.15 5.76524 -2.95844 0
M  V30 13688 N 1278.56 0.518393 1.4883 0
M  V30 13689 C 1279.78 -0.0162 2.06894 0
M  V30 13690 C 1280.2 -1.29222 1.37649 0
M  V30 13691 O 1279.56 -1.766 0.460288 0
M  V30 13692 C 1279.61 -0.255836 3.60594 0
M  V30 13693 O 1279.33 0.969612 4.27235 0
M  V30 13694 C 1280.83 -0.832117 4.3542 0
M  V30 13695 H 1278.05 0.0282877 0.670403 0
M  V30 13696 H 1280.59 0.720726 1.91379 0
M  V30 13697 H 1278.75 -0.942782 3.75753 0
M  V30 13698 H 1279.16 0.743172 5.19208 0
M  V30 13699 H 1280.64 -0.949279 5.43776 0
M  V30 13700 H 1281.11 -1.83421 3.99066 0
M  V30 13701 H 1281.72 -0.1821 4.2491 0
M  V30 13702 N 1280.03 -1.55556 0.252993 0
M  V30 13703 C 1281.26 -2.03945 -0.376965 0
M  V30 13704 C 1281.68 -1.13089 -1.50308 0
M  V30 13705 O 1281.04 -0.125039 -1.80868 0
M  V30 13706 C 1281.09 -3.50284 -0.856363 0
M  V30 13707 O 1280.19 -3.62551 -1.96546 0
M  V30 13708 H 1279.54 -0.659002 -0.081317 0
M  V30 13709 H 1282.07 -2.01024 0.380831 0
M  V30 13710 H 1282.08 -3.91222 -1.15798 0
M  V30 13711 H 1280.75 -4.15887 -0.0323302 0
M  V30 13712 H 1279.33 -3.33511 -1.66808 0
M  V30 13713 N 1281.51 0.0200419 -1.57587 0
M  V30 13714 C 1282.46 1.01784 -2.07144 0
M  V30 13715 C 1283.43 1.3537 -0.962501 0
M  V30 13716 O 1284.61 1.45553 -1.23365 0
M  V30 13717 C 1281.75 2.31091 -2.56302 0
M  V30 13718 C 1280.87 2.03584 -3.81022 0
M  V30 13719 C 1280 3.26827 -4.18757 0
M  V30 13720 C 1279.04 2.94915 -5.36369 0
M  V30 13721 N 1278.18 4.10636 -5.69493 0
M  V30 13722 H 1283.02 0.588288 -2.92136 0
M  V30 13723 H 1280.56 0.278848 -1.44433 0
M  V30 13724 H 1282.51 3.06656 -2.82874 0
M  V30 13725 H 1281.14 2.71752 -1.74215 0
M  V30 13726 H 1280.2 1.18475 -3.6148 0
M  V30 13727 H 1281.51 1.76049 -4.66699 0
M  V30 13728 H 1280.66 4.10753 -4.46505 0
M  V30 13729 H 1279.4 3.57483 -3.31749 0
M  V30 13730 H 1278.41 2.09392 -5.08365 0
M  V30 13731 H 1279.63 2.65528 -6.25037 0
M  V30 13732 H 1277.58 4.41226 -4.85444 0
M  V30 13733 H 1277.49 3.86556 -6.497 0
M  V30 13734 H 1278.76 4.95409 -6.01822 0
M  V30 13735 N 1282.99 1.54862 0.292472 0
M  V30 13736 C 1283.94 1.87168 1.38097 0
M  V30 13737 C 1284.93 0.746176 1.52081 0
M  V30 13738 O 1286.14 0.930281 1.54097 0
M  V30 13739 H 1282.51 0.593769 0.461456 0
M  V30 13740 H 1284.48 2.78135 1.0809 0
M  V30 13741 C 1283.23 2.14315 2.73796 0
M  V30 13742 H 1282.56 3.00398 2.63821 0
M  V30 13743 H 1284 2.40853 3.48949 0
M  V30 13744 C 1282.46 0.944424 3.23392 0
M  V30 13745 O 1282.99 0.169208 4.01343 0
M  V30 13746 N 1281.19 0.747456 2.80823 0
M  V30 13747 H 1280.74 1.37953 2.17547 0
M  V30 13748 H 1280.7 -0.0530199 3.14355 0
M  V30 13749 N 1284.47 -0.556076 1.47464 0
M  V30 13750 C 1285.7 -1.33858 1.57764 0
M  V30 13751 C 1286.11 -1.87415 0.22825 0
M  V30 13752 O 1285.47 -1.65054 -0.778674 0
M  V30 13753 C 1285.52 -2.5077 2.60378 0
M  V30 13754 O 1285.24 -1.99426 3.90078 0
M  V30 13755 C 1286.74 -3.42965 2.80873 0
M  V30 13756 H 1283.96 -0.408003 0.532705 0
M  V30 13757 H 1286.51 -0.673501 1.93091 0
M  V30 13758 H 1284.66 -3.13214 2.27982 0
M  V30 13759 H 1285.07 -2.75759 4.46158 0
M  V30 13760 H 1286.55 -4.21412 3.56533 0
M  V30 13761 H 1287.03 -3.96579 1.88737 0
M  V30 13762 H 1287.63 -2.86336 3.14471 0
M  V30 13763 N 1285.95 -1.35615 -0.802897 0
M  V30 13764 C 1287.17 -1.32377 -1.59659 0
M  V30 13765 C 1287.6 0.0954235 -1.87858 0
M  V30 13766 O 1286.96 1.06336 -1.46842 0
M  V30 13767 C 1287 -2.13972 -2.90256 0
M  V30 13768 O 1286.11 -1.52296 -3.83249 0
M  V30 13769 H 1285.45 -0.453699 -0.484823 0
M  V30 13770 H 1287.98 -1.78708 -0.996217 0
M  V30 13771 H 1287.99 -2.26061 -3.39647 0
M  V30 13772 H 1286.66 -3.17145 -2.69057 0
M  V30 13773 H 1285.24 -1.49068 -3.41809 0
M  V30 13774 N 1287.43 1.02549 -1.19673 0
M  V30 13775 C 1288.67 1.75408 -0.995732 0
M  V30 13776 C 1288.99 1.89773 0.473863 0
M  V30 13777 O 1290.19 2.59638 0.793762 0
M  V30 13778 C 1288.65 3.15444 -1.73273 0
M  V30 13779 C 1288.26 3.09121 -3.24266 0
M  V30 13780 C 1290 3.92575 -1.61509 0
M  V30 13781 C 1287.91 4.44109 -3.9054 0
M  V30 13782 H 1286.84 0.657569 -0.368944 0
M  V30 13783 H 1289.49 1.14739 -1.43203 0
M  V30 13784 H 1287.87 3.76601 -1.22425 0
M  V30 13785 H 1289.05 2.57325 -3.82257 0
M  V30 13786 H 1287.36 2.45485 -3.36342 0
M  V30 13787 H 1289.96 4.92428 -2.08372 0
M  V30 13788 H 1290.3 4.12382 -0.569804 0
M  V30 13789 H 1290.83 3.38027 -2.09721 0
M  V30 13790 H 1287.57 4.29506 -4.95182 0
M  V30 13791 H 1287.09 4.95947 -3.37337 0
M  V30 13792 H 1288.77 5.12982 -3.94282 0
M  V30 13793 N 1288.9 1.00119 1.21713 0
M  V30 13794 C 1290.15 0.682733 1.90962 0
M  V30 13795 C 1290.48 -0.784131 1.77665 0
M  V30 13796 O 1289.76 -1.56799 1.15084 0
M  V30 13797 C 1290.04 1.09975 3.42896 0
M  V30 13798 C 1289.89 2.62578 3.65202 0
M  V30 13799 C 1291.21 0.659247 4.35134 0
M  V30 13800 H 1288.33 0.249501 0.693483 0
M  V30 13801 H 1290.97 1.24619 1.43423 0
M  V30 13802 H 1289.12 0.620334 3.83515 0
M  V30 13803 H 1290.8 3.18254 3.33934 0
M  V30 13804 H 1289.04 3.04268 3.09198 0
M  V30 13805 H 1289.71 2.86809 4.7164 0
M  V30 13806 H 1292.19 1.07116 4.02076 0
M  V30 13807 H 1291.06 0.979241 5.40095 0
M  V30 13808 H 1291.32 -0.439777 4.39907 0
M  V30 13809 N 1290.38 -1.37203 0.775435 0
M  V30 13810 C 1291.61 -2.04396 0.351737 0
M  V30 13811 C 1292.03 -1.58099 -1.01913 0
M  V30 13812 O 1291.39 -0.742932 -1.65379 0
M  V30 13813 C 1291.44 -3.58283 0.408105 0
M  V30 13814 O 1290.54 -4.08156 -0.590104 0
M  V30 13815 H 1289.88 -0.646451 0.151647 0
M  V30 13816 H 1292.41 -1.75443 1.05265 0
M  V30 13817 H 1292.42 -4.07127 0.266711 0
M  V30 13818 H 1291.1 -3.91335 1.40819 0
M  V30 13819 H 1289.67 -3.70622 -0.411524 0
M  V30 13820 N 1291.86 -0.526279 -1.48553 0
M  V30 13821 C 1292.81 0.251938 -2.31232 0
M  V30 13822 C 1293.8 0.938991 -1.40994 0
M  V30 13823 O 1295.01 0.863798 -1.57919 0
M  V30 13824 H 1291.38 0.100114 -0.745306 0
M  V30 13825 H 1293.35 -0.465013 -2.94754 0
M  V30 13826 C 1292.1 1.28816 -3.22958 0
M  V30 13827 H 1291.43 0.768899 -3.92337 0
M  V30 13828 H 1292.87 1.80417 -3.837 0
M  V30 13829 C 1291.32 2.31982 -2.44307 0
M  V30 13830 O 1291.85 3.3835 -2.16523 0
M  V30 13831 N 1290.06 2.051 -2.05869 0
M  V30 13832 H 1289.61 1.18618 -2.28665 0
M  V30 13833 H 1289.57 2.74349 -1.53557 0
M  V30 13834 N 1293.34 1.5542 -0.261239 0
M  V30 13835 C 1294.75 1.85161 0.239195 0
M  V30 13836 C 1295.1 1.18319 1.56509 0
M  V30 13837 O 1294.22 0.4666 2.1131 0
M  V30 13838 C 1294.82 3.3592 0.440781 0
M  V30 13839 C 1293.38 3.65837 0.885461 0
M  V30 13840 C 1292.53 2.77285 -0.0291982 0
M  V30 13841 H 1295.48 1.51158 -0.483417 0
M  V30 13842 H 1295.5 3.58276 1.28136 0
M  V30 13843 H 1295.01 3.84541 -0.524382 0
M  V30 13844 H 1293.11 3.22705 1.86259 0
M  V30 13845 H 1293.22 4.73469 0.732394 0
M  V30 13846 H 1291.59 2.50045 0.484701 0
M  V30 13847 H 1292.37 3.28716 -0.989992 0
M  V30 13848 N 1294.82 -0.0116844 1.57596 0
M  V30 13849 C 1296.06 -0.698958 1.90055 0
M  V30 13850 C 1296.39 -1.74422 0.860659 0
M  V30 13851 O 1295.65 -1.95226 -0.136132 0
M  V30 13852 C 1295.94 -1.38985 3.29269 0
M  V30 13853 C 1295.61 -0.478916 4.48349 0
M  V30 13854 C 1294.27 -0.228071 4.80659 0
M  V30 13855 C 1296.62 0.14897 5.20987 0
M  V30 13856 C 1293.95 0.659147 5.82986 0
M  V30 13857 C 1296.3 1.02399 6.24257 0
M  V30 13858 C 1294.97 1.28413 6.55032 0
M  V30 13859 H 1294.24 -0.255767 0.69546 0
M  V30 13860 H 1296.89 0.0413339 1.91455 0
M  V30 13861 H 1295.19 -2.2039 3.23937 0
M  V30 13862 H 1296.89 -1.92747 3.51638 0
M  V30 13863 H 1293.48 -0.68459 4.23097 0
M  V30 13864 H 1297.66 -0.0318326 4.9629 0
M  V30 13865 H 1292.92 0.86882 6.05195 0
M  V30 13866 H 1297.09 1.51694 6.79678 0
M  V30 13867 H 1294.72 1.97332 7.34142 0
M  V30 13868 N 1296.29 -1.55015 -0.284256 0
M  V30 13869 C 1297.54 -1.74297 -1.01506 0
M  V30 13870 C 1297.86 -0.545134 -1.8785 0
M  V30 13871 O 1299.06 -0.620118 -2.64323 0
M  V30 13872 C 1297.52 -3.08438 -1.85456 0
M  V30 13873 C 1297.13 -4.35753 -1.04034 0
M  V30 13874 C 1298.87 -3.37073 -2.58035 0
M  V30 13875 C 1296.78 -5.60938 -1.87358 0
M  V30 13876 H 1295.71 -0.649656 -0.382705 0
M  V30 13877 H 1298.36 -1.81484 -0.271239 0
M  V30 13878 H 1296.74 -2.95259 -2.63891 0
M  V30 13879 H 1297.91 -4.59816 -0.300954 0
M  V30 13880 H 1296.23 -4.14178 -0.429616 0
M  V30 13881 H 1298.83 -4.27806 -3.20759 0
M  V30 13882 H 1299.17 -2.56698 -3.27738 0
M  V30 13883 H 1299.7 -3.51299 -1.86638 0
M  V30 13884 H 1296.44 -6.44029 -1.22096 0
M  V30 13885 H 1295.96 -5.41035 -2.58923 0
M  V30 13886 H 1297.64 -5.98819 -2.44999 0
M  V30 13887 N 1297.77 0.548248 -1.47757 0
M  V30 13888 C 1299 1.3302 -1.58472 0
M  V30 13889 C 1299.41 1.87292 -0.238186 0
M  V30 13890 O 1298.77 1.65465 0.76991 0
M  V30 13891 C 1298.82 2.49386 -2.61704 0
M  V30 13892 O 1298.54 1.97355 -3.9113 0
M  V30 13893 C 1300.04 3.41471 -2.82688 0
M  V30 13894 H 1297.26 0.405172 -0.534861 0
M  V30 13895 H 1299.81 0.663251 -1.93446 0
M  V30 13896 H 1297.96 3.12001 -2.29639 0
M  V30 13897 H 1298.38 2.7339 -4.47614 0
M  V30 13898 H 1299.85 4.19516 -3.58762 0
M  V30 13899 H 1300.33 3.95573 -1.90837 0
M  V30 13900 H 1300.93 2.84664 -3.15985 0
M  V30 13901 N 1299.25 1.36039 0.795694 0
M  V30 13902 C 1300.5 1.29251 1.54845 0
M  V30 13903 C 1300.81 -0.127926 1.95181 0
M  V30 13904 O 1302.02 -0.318141 2.6963 0
M  V30 13905 C 1300.47 2.26736 2.79497 0
M  V30 13906 C 1300.08 3.74183 2.46355 0
M  V30 13907 C 1301.83 2.28913 3.5749 0
M  V30 13908 C 1299.73 4.63462 3.67365 0
M  V30 13909 H 1298.66 0.48027 0.581255 0
M  V30 13910 H 1301.31 1.61366 0.873693 0
M  V30 13911 H 1299.7 1.87608 3.4874 0
M  V30 13912 H 1300.87 4.22011 1.8505 0
M  V30 13913 H 1299.18 3.7472 1.81586 0
M  V30 13914 H 1301.78 2.92828 4.47388 0
M  V30 13915 H 1302.12 1.2959 3.95616 0
M  V30 13916 H 1302.66 2.66627 2.9522 0
M  V30 13917 H 1299.4 5.63824 3.34339 0
M  V30 13918 H 1298.92 4.20354 4.27858 0
M  V30 13919 H 1300.6 4.79424 4.34467 0
M  V30 13920 N 1300.73 -1.01913 1.20215 0
M  V30 13921 C 1301.95 -1.79613 1.03702 0
M  V30 13922 C 1302.38 -1.83591 -0.409374 0
M  V30 13923 O 1301.74 -1.26911 -1.29473 0
M  V30 13924 C 1301.78 -3.22052 1.62219 0
M  V30 13925 O 1300.89 -4.03374 0.858106 0
M  V30 13926 H 1300.23 -0.554095 0.365889 0
M  V30 13927 H 1302.76 -1.28203 1.59452 0
M  V30 13928 H 1302.77 -3.72772 1.65847 0
M  V30 13929 H 1301.44 -3.18471 2.67487 0
M  V30 13930 H 1300.02 -3.6198 0.895835 0
M  V30 13931 N 1302.21 -1.00763 -1.2118 0
M  V30 13932 C 1303.14 -0.528468 -2.23024 0
M  V30 13933 C 1304.15 0.384348 -1.58198 0
M  V30 13934 O 1305.34 0.184127 -1.77548 0
M  V30 13935 C 1302.44 0.251693 -3.37964 0
M  V30 13936 C 1301.61 -0.660838 -4.32379 0
M  V30 13937 C 1300.67 0.0701723 -5.26153 0
M  V30 13938 O 1299.7 -0.549355 -5.66543 0
M  V30 13939 N 1300.9 1.34791 -5.64634 0
M  V30 13940 H 1303.67 -1.40428 -2.64764 0
M  V30 13941 H 1301.23 -0.884085 -1.3563 0
M  V30 13942 H 1303.22 0.749746 -3.97694 0
M  V30 13943 H 1301.79 1.02872 -2.95188 0
M  V30 13944 H 1301.01 -1.33934 -3.7075 0
M  V30 13945 H 1302.3 -1.28177 -4.9239 0
M  V30 13946 H 1301.69 1.87232 -5.33817 0
M  V30 13947 H 1300.25 1.79086 -6.26715 0
M  V30 13948 N 1303.68 1.3679 -0.7827 0
M  V30 13949 C 1304.63 2.30139 -0.174595 0
M  V30 13950 C 1305.6 1.51645 0.677714 0
M  V30 13951 O 1306.79 1.80176 0.627796 0
M  V30 13952 C 1303.93 3.38133 0.689936 0
M  V30 13953 C 1303.04 4.31624 -0.180179 0
M  V30 13954 C 1302.17 5.26698 0.69009 0
M  V30 13955 C 1301.21 6.1183 -0.181891 0
M  V30 13956 N 1300.35 6.99113 0.646977 0
M  V30 13957 H 1305.19 2.81559 -0.97613 0
M  V30 13958 H 1302.73 1.38595 -0.492944 0
M  V30 13959 H 1304.69 3.99386 1.2061 0
M  V30 13960 H 1303.32 2.88049 1.45696 0
M  V30 13961 H 1302.37 3.71583 -0.81425 0
M  V30 13962 H 1303.68 4.91464 -0.852337 0
M  V30 13963 H 1302.83 5.93209 1.27232 0
M  V30 13964 H 1301.57 4.67297 1.3959 0
M  V30 13965 H 1300.58 5.44288 -0.776572 0
M  V30 13966 H 1301.8 6.73306 -0.885195 0
M  V30 13967 H 1299.75 6.42227 1.3372 0
M  V30 13968 H 1299.67 7.55993 0.0323547 0
M  V30 13969 H 1300.93 7.7 1.21325 0
M  V30 13970 N 1305.16 0.53415 1.48272 0
M  V30 13971 C 1306.11 -0.246268 2.26666 0
M  V30 13972 C 1307.1 -0.906149 1.32958 0
M  V30 13973 O 1308.29 -0.808266 1.57468 0
M  V30 13974 C 1305.42 -1.29001 3.18141 0
M  V30 13975 C 1304.5 -0.634704 4.19324 0
M  V30 13976 N 1304.89 0.281972 5.05013 0
M  V30 13977 C 1303.19 -0.891412 4.37001 0
M  V30 13978 C 1303.89 0.660411 5.77939 0
M  V30 13979 N 1302.87 0.0205295 5.43596 0
M  V30 13980 H 1306.67 0.458881 2.90296 0
M  V30 13981 H 1304.19 0.352466 1.58529 0
M  V30 13982 H 1306.18 -1.86285 3.72966 0
M  V30 13983 H 1304.84 -1.99649 2.56067 0
M  V30 13984 H 1305.85 0.654819 5.13744 0
M  V30 13985 H 1302.53 -1.58815 3.86114 0
M  V30 13986 H 1303.92 1.41231 6.56889 0
M  V30 13987 N 1306.64 -1.55279 0.269478 0
M  V30 13988 C 1307.92 -1.91458 -0.400412 0
M  V30 13989 C 1308.3 -1.19306 -1.74153 0
M  V30 13990 O 1307.65 -0.318017 -2.26276 0
M  V30 13991 C 1307.86 -3.44698 -0.546258 0
M  V30 13992 C 1309.2 -4.16374 -0.831758 0
M  V30 13993 O 1310.23 -3.50561 -0.631279 0
M  V30 13994 O 1309.09 -5.32826 -1.21484 0
M  V30 13995 H 1306.18 -0.79766 -0.218328 0
M  V30 13996 H 1308.73 -1.66747 0.315214 0
M  V30 13997 H 1307.5 -3.89273 0.397784 0
M  V30 13998 H 1307.12 -3.75345 -1.31157 0
M  V30 13999 N 1308.12 0.00332656 -1.576 0
M  V30 14000 C 1309.07 1.01406 -2.09331 0
M  V30 14001 C 1310.06 1.35806 -1.01258 0
M  V30 14002 O 1311.27 1.34409 -1.19726 0
M  V30 14003 H 1307.64 0.344661 -0.668366 0
M  V30 14004 H 1309.61 0.552154 -2.93247 0
M  V30 14005 C 1308.36 2.29819 -2.60918 0
M  V30 14006 H 1307.68 2.04216 -3.43709 0
M  V30 14007 H 1309.12 2.98826 -3.00797 0
M  V30 14008 C 1307.58 3.0057 -1.52182 0
M  V30 14009 O 1308.11 3.91423 -0.902817 0
M  V30 14010 N 1306.32 2.62338 -1.25009 0
M  V30 14011 H 1305.87 1.88538 -1.75531 0
M  V30 14012 H 1305.82 3.0999 -0.524736 0
M  V30 14013 N 1309.6 1.55164 0.276031 0
M  V30 14014 C 1310.54 1.87836 1.34113 0
M  V30 14015 C 1311.51 0.729562 1.4922 0
M  V30 14016 O 1312.7 0.980549 1.63676 0
M  V30 14017 C 1309.84 2.15313 2.69693 0
M  V30 14018 C 1308.95 3.42845 2.62833 0
M  V30 14019 C 1308.09 3.60038 3.90572 0
M  V30 14020 C 1307.13 4.81273 3.7821 0
M  V30 14021 N 1306.26 4.95139 4.97777 0
M  V30 14022 H 1311.1 2.78681 1.0555 0
M  V30 14023 H 1308.64 1.37976 0.510001 0
M  V30 14024 H 1310.6 2.29243 3.48573 0
M  V30 14025 H 1309.23 1.27706 2.96464 0
M  V30 14026 H 1308.28 3.37403 1.75679 0
M  V30 14027 H 1309.59 4.3186 2.49597 0
M  V30 14028 H 1308.75 3.73769 4.77893 0
M  V30 14029 H 1307.48 2.69203 4.06671 0
M  V30 14030 H 1306.49 4.67549 2.89271 0
M  V30 14031 H 1307.71 5.7354 3.63632 0
M  V30 14032 H 1305.66 4.07234 5.14292 0
M  V30 14033 H 1305.58 5.78194 4.8706 0
M  V30 14034 H 1306.85 5.13253 5.86679 0
M  V30 14035 N 1311.07 -0.540404 1.48045 0
M  V30 14036 C 1312.32 -1.29422 1.55224 0
M  V30 14037 C 1312.64 -1.93716 0.223365 0
M  V30 14038 O 1311.91 -1.808 -0.754204 0
M  V30 14039 H 1310.49 -0.480658 0.571819 0
M  V30 14040 H 1313.16 -0.629712 1.84447 0
M  V30 14041 H 1312.25 -2.07897 2.32777 0
M  V30 14042 N 1312.55 -1.36459 -0.788468 0
M  V30 14043 C 1313.83 -1.21289 -1.53455 0
M  V30 14044 C 1314.21 0.200549 -2.10145 0
M  V30 14045 O 1313.56 1.20629 -1.94064 0
M  V30 14046 C 1313.77 -2.29562 -2.62873 0
M  V30 14047 C 1315.12 -2.66277 -3.30729 0
M  V30 14048 O 1316.14 -2.28612 -2.73157 0
M  V30 14049 O 1315 -3.31106 -4.34777 0
M  V30 14050 H 1312.09 -0.472306 -0.678864 0
M  V30 14051 H 1314.64 -1.48192 -0.826869 0
M  V30 14052 H 1313.41 -3.24286 -2.18984 0
M  V30 14053 H 1313.03 -2.0403 -3.41259 0
M  V30 14054 N 1314.03 1.01274 -1.20754 0
M  V30 14055 C 1315.26 1.7906 -1.04653 0
M  V30 14056 C 1315.68 1.83806 0.399632 0
M  V30 14057 O 1315.04 1.27596 1.28798 0
M  V30 14058 C 1315.09 3.21187 -1.63925 0
M  V30 14059 O 1314.19 4.02913 -0.879486 0
M  V30 14060 H 1313.53 0.552147 -0.368823 0
M  V30 14061 H 1316.06 1.27356 -1.6013 0
M  V30 14062 H 1316.07 3.71887 -1.67822 0
M  V30 14063 H 1314.75 3.17048 -2.69172 0
M  V30 14064 H 1313.32 3.61499 -0.915019 0
M  V30 14065 N 1315.51 1.01404 1.20644 0
M  V30 14066 C 1316.74 0.719995 1.93648 0
M  V30 14067 C 1317.15 -0.722872 1.74846 0
M  V30 14068 O 1316.49 -1.50172 1.05802 0
M  V30 14069 C 1316.55 0.972637 3.46092 0
M  V30 14070 C 1316.22 2.40412 3.88653 0
M  V30 14071 C 1317.21 3.38481 3.94622 0
M  V30 14072 C 1314.9 2.74418 4.20714 0
M  V30 14073 C 1316.89 4.68619 4.32059 0
M  V30 14074 C 1314.58 4.04769 4.57826 0
M  V30 14075 C 1315.58 5.01681 4.63471 0
M  V30 14076 O 1315.27 6.297 4.99733 0
M  V30 14077 H 1315 0.263849 0.622382 0
M  V30 14078 H 1317.55 1.35741 1.54154 0
M  V30 14079 H 1315.78 0.278057 3.85699 0
M  V30 14080 H 1317.47 0.670572 4.00323 0
M  V30 14081 H 1318.24 3.13545 3.7002 0
M  V30 14082 H 1314.12 1.99675 4.15513 0
M  V30 14083 H 1317.66 5.4426 4.3638 0
M  V30 14084 H 1313.56 4.29486 4.81884 0
M  V30 14085 H 1314.32 6.3395 5.17735 0
M  V30 14086 N 1316.99 -1.36373 0.789944 0
M  V30 14087 C 1318.24 -1.98834 0.361866 0
M  V30 14088 C 1318.56 -1.63006 -1.07024 0
M  V30 14089 O 1317.83 -0.904312 -1.73779 0
M  V30 14090 H 1316.41 -0.735457 0.130812 0
M  V30 14091 H 1319.07 -1.66561 1.0121 0
M  V30 14092 H 1318.16 -3.08778 0.454122 0
M  V30 14093 N 1318.47 -0.542005 -1.47987 0
M  V30 14094 C 1319.7 -0.0166928 -2.06593 0
M  V30 14095 C 1320.1 1.27564 -1.39728 0
M  V30 14096 O 1319.45 1.77245 -0.48268 0
M  V30 14097 C 1319.51 0.265501 -3.58518 0
M  V30 14098 C 1319.17 -0.935133 -4.4733 0
M  V30 14099 C 1320.17 -1.83673 -4.86375 0
M  V30 14100 C 1317.85 -1.14552 -4.89063 0
M  V30 14101 C 1319.85 -2.93252 -5.65935 0
M  V30 14102 C 1317.54 -2.24443 -5.68391 0
M  V30 14103 C 1318.53 -3.13625 -6.06736 0
M  V30 14104 O 1318.22 -4.21613 -6.84469 0
M  V30 14105 H 1317.95 -0.0358651 -0.675048 0
M  V30 14106 H 1320.51 -0.750565 -1.91195 0
M  V30 14107 H 1318.74 1.0535 -3.72073 0
M  V30 14108 H 1320.43 0.734348 -3.99202 0
M  V30 14109 H 1321.19 -1.68618 -4.54745 0
M  V30 14110 H 1317.07 -0.460598 -4.58693 0
M  V30 14111 H 1320.62 -3.62888 -5.95783 0
M  V30 14112 H 1316.51 -2.39477 -5.99434 0
M  V30 14113 H 1317.28 -4.19472 -7.02841 0
M  V30 14114 N 1319.94 1.55134 -0.277709 0
M  V30 14115 C 1320.88 2.18745 0.650058 0
M  V30 14116 C 1321.85 1.14922 1.15029 0
M  V30 14117 O 1323.04 1.43458 1.22278 0
M  V30 14118 C 1320.17 2.81277 1.88683 0
M  V30 14119 C 1319.21 3.98425 1.52185 0
M  V30 14120 S 1320.04 5.32153 0.597782 0
M  V30 14121 C 1321.2 5.98155 1.84287 0
M  V30 14122 H 1321.43 2.97098 0.109571 0
M  V30 14123 H 1318.97 1.54276 -0.0619536 0
M  V30 14124 H 1320.92 3.17934 2.59669 0
M  V30 14125 H 1319.59 2.02813 2.39845 0
M  V30 14126 H 1318.78 4.40877 2.4422 0
M  V30 14127 H 1318.38 3.63203 0.892146 0
M  V30 14128 H 1320.67 6.17546 2.78646 0
M  V30 14129 H 1321.62 6.92857 1.46131 0
M  V30 14130 H 1322.02 5.27541 2.00899 0
M  V30 14131 N 1321.42 0.00503138 1.57599 0
M  V30 14132 C 1322.35 -1.01883 2.04194 0
M  V30 14133 C 1323.33 -1.33183 0.9328 0
M  V30 14134 O 1324.52 -1.45261 1.20131 0
M  V30 14135 C 1321.64 -2.34515 2.44377 0
M  V30 14136 C 1320.69 -2.18843 3.66074 0
M  V30 14137 S 1321.52 -1.50975 5.13777 0
M  V30 14138 C 1322.68 -2.85027 5.57235 0
M  V30 14139 H 1322.91 -0.622099 2.90718 0
M  V30 14140 H 1320.44 -0.205983 1.5302 0
M  V30 14141 H 1322.4 -3.10775 2.68196 0
M  V30 14142 H 1321.06 -2.71327 1.58243 0
M  V30 14143 H 1320.26 -3.16836 3.91958 0
M  V30 14144 H 1319.86 -1.50727 3.42283 0
M  V30 14145 H 1322.15 -3.81318 5.60002 0
M  V30 14146 H 1323.09 -2.63837 6.57112 0
M  V30 14147 H 1323.5 -2.89168 4.84812 0
M  V30 14148 N 1322.9 -1.55308 -0.267798 0
M  V30 14149 C 1324.15 -1.7642 -1.00019 0
M  V30 14150 C 1324.48 -0.566559 -1.85752 0
M  V30 14151 O 1323.75 0.435752 -1.89556 0
M  V30 14152 C 1324.04 -3.07229 -1.87836 0
M  V30 14153 C 1323.89 -4.37358 -1.05061 0
M  V30 14154 C 1325.21 -3.34113 -2.86455 0
M  V30 14155 H 1322.33 -0.641859 -0.362197 0
M  V30 14156 H 1324.97 -1.8804 -0.272188 0
M  V30 14157 H 1323.12 -2.97454 -2.49907 0
M  V30 14158 H 1324.79 -4.59098 -0.450208 0
M  V30 14159 H 1323.03 -4.32351 -0.354242 0
M  V30 14160 H 1323.71 -5.25223 -1.69838 0
M  V30 14161 H 1326.18 -3.43715 -2.34519 0
M  V30 14162 H 1325.06 -4.26896 -3.45038 0
M  V30 14163 H 1325.32 -2.54005 -3.61848 0
M  V30 14164 N 1324.38 0.532545 -1.4833 0
M  V30 14165 C 1325.79 1.11451 -1.49785 0
M  V30 14166 C 1326.14 1.94386 -0.266207 0
M  V30 14167 O 1325.26 2.07121 0.62688 0
M  V30 14168 C 1325.86 2.0279 -2.71407 0
M  V30 14169 C 1324.42 2.56209 -2.75742 0
M  V30 14170 C 1323.57 1.33114 -2.43261 0
M  V30 14171 H 1326.52 0.317924 -1.55483 0
M  V30 14172 H 1326.54 2.87038 -2.49779 0
M  V30 14173 H 1326.05 1.42401 -3.61031 0
M  V30 14174 H 1324.15 3.20327 -1.9032 0
M  V30 14175 H 1324.26 2.95518 -3.77102 0
M  V30 14176 H 1322.63 1.64607 -1.94362 0
M  V30 14177 H 1323.41 0.744809 -3.35123 0
M  V30 14178 N 1325.86 1.36875 0.78122 0
M  V30 14179 C 1326.8 1.31941 1.91557 0
M  V30 14180 C 1327.8 0.209783 1.68096 0
M  V30 14181 O 1329 0.377266 1.76002 0
M  V30 14182 H 1325.38 0.410955 0.629778 0
M  V30 14183 H 1327.35 2.27721 1.92836 0
M  V30 14184 C 1326.1 1.13379 3.28695 0
M  V30 14185 H 1325.42 1.98013 3.47319 0
M  V30 14186 H 1326.86 1.13976 4.08394 0
M  V30 14187 C 1325.32 -0.161119 3.36515 0
M  V30 14188 O 1325.85 -1.14806 3.84945 0
M  V30 14189 N 1324.06 -0.208594 2.8985 0
M  V30 14190 H 1323.6 0.595187 2.5063 0
M  V30 14191 H 1323.56 -1.07465 2.95463 0
M  V30 14192 N 1327.33 -1.00632 1.21289 0
M  V30 14193 C 1328.58 -1.73802 1.02351 0
M  V30 14194 C 1328.9 -1.90503 -0.443611 0
M  V30 14195 O 1330.1 -2.60868 -0.752356 0
M  V30 14196 C 1328.56 -3.12647 1.78269 0
M  V30 14197 C 1328.17 -3.03923 3.29142 0
M  V30 14198 C 1329.91 -3.89956 1.67735 0
M  V30 14199 C 1327.82 -4.3784 3.97556 0
M  V30 14200 H 1326.75 -0.651616 0.379358 0
M  V30 14201 H 1329.4 -1.12446 1.45011 0
M  V30 14202 H 1327.78 -3.74605 1.28401 0
M  V30 14203 H 1328.95 -2.51211 3.86303 0
M  V30 14204 H 1327.27 -2.40103 3.40205 0
M  V30 14205 H 1329.87 -4.89051 2.1618 0
M  V30 14206 H 1330.21 -4.11423 0.635338 0
M  V30 14207 H 1330.74 -3.34647 2.15072 0
M  V30 14208 H 1327.48 -4.21573 5.01952 0
M  V30 14209 H 1327 -4.90518 3.45184 0
M  V30 14210 H 1328.68 -5.06644 4.02393 0
M  V30 14211 N 1328.81 -1.02043 -1.20104 0
M  V30 14212 C 1330.09 -0.626922 -1.85281 0
M  V30 14213 C 1330.47 0.894819 -1.91197 0
M  V30 14214 O 1329.82 1.7881 -1.42265 0
M  V30 14215 C 1330.03 -1.27917 -3.24713 0
M  V30 14216 C 1331.37 -1.39704 -4.00959 0
M  V30 14217 O 1332.4 -1.23568 -3.3408 0
M  V30 14218 O 1331.26 -1.65814 -5.20738 0
M  V30 14219 H 1328.35 -0.216815 -0.798073 0
M  V30 14220 H 1330.9 -1.11804 -1.27663 0
M  V30 14221 H 1329.67 -2.3188 -3.15194 0
M  V30 14222 H 1329.29 -0.775371 -3.89966 0
M  V30 14223 N 1330.29 1.35952 -0.797165 0
M  V30 14224 C 1331.71 1.52218 -0.479765 0
M  V30 14225 C 1331.91 1.74898 1.00064 0
M  V30 14226 O 1330.96 1.78495 1.78594 0
M  V30 14227 C 1332.28 2.70328 -1.31694 0
M  V30 14228 C 1333.82 2.84202 -1.31142 0
M  V30 14229 C 1334.3 4.05325 -2.13251 0
M  V30 14230 N 1335.79 4.12485 -2.10737 0
M  V30 14231 C 1336.52 5.053 -2.71033 0
M  V30 14232 N 1336.02 6.03509 -3.40219 0
M  V30 14233 N 1337.81 4.97975 -2.60725 0
M  V30 14234 H 1329.96 1.19486 -1.75604 0
M  V30 14235 H 1332.23 0.58383 -0.746892 0
M  V30 14236 H 1331.93 2.60116 -2.36712 0
M  V30 14237 H 1331.81 3.64684 -0.963607 0
M  V30 14238 H 1334.19 2.9387 -0.269131 0
M  V30 14239 H 1334.28 1.9073 -1.70457 0
M  V30 14240 H 1333.92 3.96417 -3.17515 0
M  V30 14241 H 1333.85 4.97959 -1.71302 0
M  V30 14242 H 1336.34 3.42174 -1.6039 0
M  V30 14243 H 1336.65 6.70909 -3.83537 0
M  V30 14244 H 1335 6.03711 -3.44322 0
M  V30 14245 H 1338.19 4.20203 -2.0627 0
M  V30 14246 H 1338.36 5.70119 -3.08007 0
M  V30 14247 N 1331.77 0.549846 1.47697 0
M  V30 14248 C 1333 0.0276889 2.06881 0
M  V30 14249 C 1333.41 -1.26273 1.40359 0
M  V30 14250 O 1332.77 -1.75584 0.497644 0
M  V30 14251 C 1332.82 -0.179291 3.61055 0
M  V30 14252 O 1332.54 1.06002 4.25083 0
M  V30 14253 C 1334.04 -0.739571 4.37087 0
M  V30 14254 H 1331.26 0.0425016 0.669653 0
M  V30 14255 H 1333.81 0.761158 1.89807 0
M  V30 14256 H 1331.96 -0.862867 3.77668 0
M  V30 14257 H 1332.37 0.853137 5.17515 0
M  V30 14258 H 1333.85 -0.833722 5.45668 0
M  V30 14259 H 1334.33 -1.74915 4.02867 0
M  V30 14260 H 1334.93 -0.0919294 4.25201 0
M  V30 14261 N 1333.25 -1.54984 0.285932 0
M  V30 14262 C 1334.47 -2.04699 -0.333621 0
M  V30 14263 C 1334.9 -1.16252 -1.47875 0
M  V30 14264 O 1334.25 -0.163376 -1.80562 0
M  V30 14265 C 1334.3 -3.52022 -0.78187 0
M  V30 14266 O 1333.41 -3.66639 -1.88812 0
M  V30 14267 H 1332.75 -0.660579 -0.0673203 0
M  V30 14268 H 1335.28 -2.00171 0.423386 0
M  V30 14269 H 1335.29 -3.93591 -1.07473 0
M  V30 14270 H 1333.96 -4.15862 0.055893 0
M  V30 14271 H 1332.54 -3.36974 -1.59696 0
M  V30 14272 N 1334.72 -0.0133892 -1.57594 0
M  V30 14273 C 1335.97 0.668634 -1.91143 0
M  V30 14274 C 1336.3 1.7303 -0.888299 0
M  V30 14275 O 1335.55 1.95418 0.105056 0
M  V30 14276 C 1335.85 1.33729 -3.31438 0
M  V30 14277 C 1335.52 0.407527 -4.49055 0
M  V30 14278 C 1334.18 0.151573 -4.80961 0
M  V30 14279 C 1336.53 -0.231835 -5.20684 0
M  V30 14280 C 1333.86 -0.751812 -5.81863 0
M  V30 14281 C 1336.21 -1.12318 -6.22549 0
M  V30 14282 C 1334.88 -1.38818 -6.52906 0
M  V30 14283 H 1334.15 0.24467 -0.699441 0
M  V30 14284 H 1336.79 -0.0717876 -1.91365 0
M  V30 14285 H 1335.1 2.15209 -3.27403 0
M  V30 14286 H 1336.8 1.87128 -3.5466 0
M  V30 14287 H 1333.39 0.617192 -4.24133 0
M  V30 14288 H 1337.57 -0.0471268 -4.96278 0
M  V30 14289 H 1332.83 -0.964991 -6.03737 0
M  V30 14290 H 1337 -1.62488 -6.77179 0
M  V30 14291 H 1334.63 -2.08986 -7.3091 0
M  V30 14292 N 1336.2 1.55448 0.259558 0
M  V30 14293 C 1337.48 1.6742 1.01143 0
M  V30 14294 C 1337.86 0.549525 2.03822 0
M  V30 14295 O 1337.21 -0.448699 2.24051 0
M  V30 14296 C 1337.42 3.07201 1.65616 0
M  V30 14297 C 1338.77 3.6539 2.16277 0
M  V30 14298 O 1339.79 3.0992 1.7558 0
M  V30 14299 O 1338.65 4.62604 2.90963 0
M  V30 14300 H 1335.74 0.680469 0.469991 0
M  V30 14301 H 1338.29 1.67783 0.254348 0
M  V30 14302 H 1337.06 3.80504 0.912819 0
M  V30 14303 H 1336.68 3.10794 2.47977 0
M  V30 14304 N 1337.68 -0.524672 1.4861 0
M  V30 14305 C 1338.63 -1.62872 1.63527 0
M  V30 14306 C 1339.6 -1.59097 0.477202 0
M  V30 14307 O 1340.78 -1.77443 0.701341 0
M  V30 14308 C 1337.92 -3.01116 1.68592 0
M  V30 14309 C 1337.04 -3.15085 2.95542 0
M  V30 14310 C 1336.17 -4.4392 2.91734 0
M  V30 14311 C 1335.21 -4.51436 4.13366 0
M  V30 14312 N 1334.35 -5.71667 4.07605 0
M  V30 14313 H 1339.19 -1.49462 2.57808 0
M  V30 14314 H 1336.72 -0.727578 1.27846 0
M  V30 14315 H 1338.68 -3.81212 1.6951 0
M  V30 14316 H 1337.31 -3.13285 0.777975 0
M  V30 14317 H 1336.36 -2.28207 3.04345 0
M  V30 14318 H 1337.68 -3.165 3.85524 0
M  V30 14319 H 1336.83 -5.32312 2.91083 0
M  V30 14320 H 1335.57 -4.45034 1.9949 0
M  V30 14321 H 1334.57 -3.6145 4.14287 0
M  V30 14322 H 1335.8 -4.52057 5.06776 0
M  V30 14323 H 1333.74 -5.73668 3.18184 0
M  V30 14324 H 1333.66 -5.74599 4.91297 0
M  V30 14325 H 1334.93 -6.62331 4.1102 0
M  V30 14326 N 1339.16 -1.37287 -0.77395 0
M  V30 14327 C 1340.09 -1.35569 -1.90114 0
M  V30 14328 C 1341.07 -0.224658 -1.6861 0
M  V30 14329 O 1342.25 -0.424676 -1.895 0
M  V30 14330 C 1339.38 -1.15971 -3.27365 0
M  V30 14331 C 1338.34 -2.26063 -3.63427 0
M  V30 14332 C 1337.66 -1.9159 -4.99197 0
M  V30 14333 C 1338.96 -3.68236 -3.70405 0
M  V30 14334 H 1340.66 -2.29891 -1.91808 0
M  V30 14335 H 1338.2 -1.10661 -0.92142 0
M  V30 14336 H 1340.16 -1.134 -4.05855 0
M  V30 14337 H 1338.88 -0.181043 -3.26098 0
M  V30 14338 H 1337.54 -2.27786 -2.87244 0
M  V30 14339 H 1337.19 -0.922586 -4.94467 0
M  V30 14340 H 1336.89 -2.65309 -5.24294 0
M  V30 14341 H 1338.41 -1.90602 -5.80089 0
M  V30 14342 H 1339.83 -3.68655 -4.39052 0
M  V30 14343 H 1338.22 -4.4099 -4.06999 0
M  V30 14344 H 1339.29 -4.02021 -2.71122 0
M  V30 14345 N 1340.64 0.999871 -1.21821 0
M  V30 14346 C 1341.6 2.07024 -0.983541 0
M  V30 14347 C 1342.6 1.6073 0.0474011 0
M  V30 14348 O 1343.79 1.73156 -0.190398 0
M  V30 14349 C 1340.92 3.37444 -0.484199 0
M  V30 14350 H 1342.11 2.29276 -1.9332 0
M  V30 14351 H 1339.67 1.1704 -1.03592 0
M  V30 14352 H 1340.4 3.20874 0.470138 0
M  V30 14353 H 1340.19 3.72378 -1.2279 0
M  V30 14354 H 1341.68 4.16213 -0.34004 0
M  V30 14355 N 1342.11 1.02678 1.19562 0
M  V30 14356 C 1343.06 0.599259 2.24748 0
M  V30 14357 C 1344.06 -0.367079 1.65375 0
M  V30 14358 O 1345.26 -0.235887 1.78448 0
M  V30 14359 H 1341.64 0.175517 0.73123 0
M  V30 14360 H 1343.61 1.4971 2.58127 0
M  V30 14361 C 1342.36 -0.0362515 3.47681 0
M  V30 14362 H 1341.68 0.698343 3.93654 0
M  V30 14363 H 1343.12 -0.298361 4.22949 0
M  V30 14364 C 1341.58 -1.28218 3.11547 0
M  V30 14365 O 1342.11 -2.37446 3.24009 0
M  V30 14366 N 1340.32 -1.17014 2.66 0
M  V30 14367 H 1339.86 -0.28132 2.56059 0
M  V30 14368 H 1339.82 -2.00473 2.42194 0
M  V30 14369 N 1343.59 -1.35528 0.804364 0
M  V30 14370 C 1344.82 -2.03604 0.395013 0
M  V30 14371 C 1345.24 -1.60225 -0.985371 0
M  V30 14372 O 1344.6 -0.777844 -1.63766 0
M  V30 14373 C 1344.65 -3.57337 0.484011 0
M  V30 14374 O 1343.75 -4.09316 -0.503395 0
M  V30 14375 H 1343.09 -0.643089 0.165325 0
M  V30 14376 H 1345.62 -1.73171 1.08963 0
M  V30 14377 H 1345.63 -4.0647 0.353009 0
M  V30 14378 H 1344.31 -3.8826 1.49088 0
M  V30 14379 H 1342.89 -3.71412 -0.332817 0
M  V30 14380 N 1345.07 -0.557671 -1.47404 0
M  V30 14381 C 1346.02 0.189765 -2.30019 0
M  V30 14382 C 1346.99 0.907923 -1.3909 0
M  V30 14383 O 1348.17 0.903528 -1.68051 0
M  V30 14384 C 1345.31 1.21348 -3.23061 0
M  V30 14385 C 1344.43 0.501343 -4.29081 0
M  V30 14386 C 1343.56 1.51039 -5.09275 0
M  V30 14387 C 1342.6 0.783254 -6.07068 0
M  V30 14388 N 1341.74 1.73916 -6.80219 0
M  V30 14389 H 1346.58 -0.520856 -2.93413 0
M  V30 14390 H 1344.11 -0.268686 -1.44625 0
M  V30 14391 H 1346.07 1.81961 -3.75428 0
M  V30 14392 H 1344.7 1.89213 -2.61531 0
M  V30 14393 H 1343.75 -0.219317 -3.79767 0
M  V30 14394 H 1345.07 -0.0682656 -4.98753 0
M  V30 14395 H 1344.22 2.19004 -5.65793 0
M  V30 14396 H 1342.96 2.11392 -4.39505 0
M  V30 14397 H 1341.96 0.0896883 -5.49727 0
M  V30 14398 H 1343.19 0.185464 -6.78847 0
M  V30 14399 H 1341.14 2.33125 -6.13179 0
M  V30 14400 H 1341.05 1.22171 -7.46063 0
M  V30 14401 H 1342.32 2.40993 -7.41311 0
M  V30 14402 N 1346.55 1.54831 -0.294147 0
M  V30 14403 C 1347.46 2.26939 0.594621 0
M  V30 14404 C 1348.48 1.30209 1.15419 0
M  V30 14405 O 1349.65 1.6318 1.18044 0
M  V30 14406 C 1346.72 2.9909 1.75345 0
M  V30 14407 C 1345.78 4.11342 1.22865 0
M  V30 14408 C 1345.01 4.80043 2.33225 0
M  V30 14409 O 1345.23 4.48062 3.52983 0
M  V30 14410 O 1344.17 5.67593 2.00304 0
M  V30 14411 H 1347.99 3.03698 0.00989235 0
M  V30 14412 H 1345.58 1.49276 -0.0608528 0
M  V30 14413 H 1347.46 3.44369 2.42875 0
M  V30 14414 H 1346.14 2.25232 2.32492 0
M  V30 14415 H 1345.04 3.70478 0.519279 0
M  V30 14416 H 1346.38 4.87158 0.702703 0
M  V30 14417 N 1348.03 0.0217466 1.57585 0
M  V30 14418 C 1349.27 -0.659463 1.91778 0
M  V30 14419 C 1349.61 -1.72201 0.897801 0
M  V30 14420 O 1348.88 -1.94333 -0.080509 0
M  V30 14421 C 1349.16 -1.28269 3.36481 0
M  V30 14422 C 1349.02 -0.230201 4.49211 0
M  V30 14423 C 1350.34 -2.20279 3.81005 0
M  V30 14424 H 1347.46 -0.238263 0.697424 0
M  V30 14425 H 1350.1 0.0774967 1.89842 0
M  V30 14426 H 1348.25 -1.9108 3.38262 0
M  V30 14427 H 1349.92 0.399901 4.59563 0
M  V30 14428 H 1348.16 0.445157 4.3151 0
M  V30 14429 H 1348.83 -0.705732 5.4747 0
M  V30 14430 H 1351.31 -1.67463 3.80914 0
M  V30 14431 H 1350.19 -2.60842 4.82962 0
M  V30 14432 H 1350.45 -3.09092 3.16093 0
M  V30 14433 N 1349.51 -1.55583 -0.251311 0
M  V30 14434 C 1350.42 -1.93073 -1.33266 0
M  V30 14435 C 1351.43 -0.830612 -1.52895 0
M  V30 14436 O 1352.61 -1.13162 -1.66602 0
M  V30 14437 C 1349.67 -2.21396 -2.66805 0
M  V30 14438 C 1348.73 -3.44815 -2.55737 0
M  V30 14439 C 1347.97 -3.71777 -3.82907 0
M  V30 14440 O 1348.19 -3.00884 -4.84587 0
M  V30 14441 O 1347.12 -4.65305 -3.81805 0
M  V30 14442 H 1350.95 -2.85168 -1.04465 0
M  V30 14443 H 1348.53 -1.42408 -0.451693 0
M  V30 14444 H 1350.42 -2.4094 -3.45725 0
M  V30 14445 H 1349.09 -1.3248 -2.95348 0
M  V30 14446 H 1348 -3.30582 -1.75118 0
M  V30 14447 H 1349.33 -4.34019 -2.32139 0
M  V30 14448 N 1350.98 0.516783 -1.48886 0
M  V30 14449 C 1351.91 1.62897 -1.67292 0
M  V30 14450 C 1352.89 1.61903 -0.521671 0
M  V30 14451 O 1354.08 1.78892 -0.755728 0
M  V30 14452 C 1351.21 3.01444 -1.72478 0
M  V30 14453 C 1350.16 3.173 -2.87236 0
M  V30 14454 C 1349.49 4.5704 -2.77522 0
M  V30 14455 C 1350.79 2.98818 -4.28375 0
M  V30 14456 H 1352.48 1.47748 -2.60405 0
M  V30 14457 H 1350.03 0.709361 -1.25316 0
M  V30 14458 H 1351.98 3.79135 -1.83942 0
M  V30 14459 H 1350.71 3.17645 -0.759538 0
M  V30 14460 H 1349.37 2.4203 -2.75349 0
M  V30 14461 H 1349.01 4.70096 -1.78938 0
M  V30 14462 H 1348.71 4.68593 -3.54534 0
M  V30 14463 H 1350.24 5.36813 -2.90972 0
M  V30 14464 H 1351.65 3.66291 -4.41026 0
M  V30 14465 H 1350.05 3.21854 -5.06488 0
M  V30 14466 H 1351.12 1.95102 -4.43918 0
M  V30 14467 N 1352.46 1.37696 0.766659 0
M  V30 14468 C 1353.39 1.36576 1.89392 0
M  V30 14469 C 1354.37 0.233597 1.68488 0
M  V30 14470 O 1355.56 0.434719 1.89272 0
M  V30 14471 C 1352.69 1.17705 3.26746 0
M  V30 14472 C 1351.64 2.27987 3.62224 0
M  V30 14473 C 1350.97 1.94235 4.98174 0
M  V30 14474 C 1352.27 3.70195 3.68447 0
M  V30 14475 H 1353.96 2.30905 1.90587 0
M  V30 14476 H 1351.51 1.11148 0.915538 0
M  V30 14477 H 1353.46 1.15551 4.05248 0
M  V30 14478 H 1352.18 0.198334 3.25997 0
M  V30 14479 H 1350.84 2.29306 2.86032 0
M  V30 14480 H 1350.49 0.948796 4.93971 0
M  V30 14481 H 1350.19 2.68086 5.2288 0
M  V30 14482 H 1351.72 1.93676 5.7907 0
M  V30 14483 H 1353.13 3.70978 4.37091 0
M  V30 14484 H 1351.53 4.43142 4.04654 0
M  V30 14485 H 1352.6 4.03453 2.68986 0
M  V30 14486 N 1353.94 -0.993397 1.22349 0
M  V30 14487 C 1354.85 -2.11771 1.00947 0
M  V30 14488 C 1355.87 -1.73949 -0.0420679 0
M  V30 14489 O 1357.04 -2.00837 0.150548 0
M  V30 14490 C 1354.11 -3.41654 0.589359 0
M  V30 14491 C 1353.17 -3.93579 1.71446 0
M  V30 14492 C 1352.4 -5.17264 1.3143 0
M  V30 14493 O 1352.62 -5.70074 0.192876 0
M  V30 14494 O 1351.56 -5.62929 2.13059 0
M  V30 14495 H 1355.38 -2.32708 1.95142 0
M  V30 14496 H 1352.97 -1.10144 1.00939 0
M  V30 14497 H 1354.85 -4.19813 0.365403 0
M  V30 14498 H 1353.53 -3.22077 -0.323738 0
M  V30 14499 H 1352.43 -3.16596 1.99294 0
M  V30 14500 H 1353.77 -4.17588 2.6054 0
M  V30 14501 N 1355.42 -1.03311 -1.19015 0
M  V30 14502 C 1356.37 -0.611169 -2.24427 0
M  V30 14503 C 1357.36 0.358303 -1.65567 0
M  V30 14504 O 1358.57 0.22642 -1.7857 0
M  V30 14505 H 1354.94 -0.179393 -0.730289 0
M  V30 14506 H 1356.91 -1.51077 -2.57329 0
M  V30 14507 C 1355.66 0.0178126 -3.47695 0
M  V30 14508 H 1354.98 -0.71921 -3.93278 0
M  V30 14509 H 1356.42 0.275926 -4.23101 0
M  V30 14510 C 1354.88 1.26564 -3.12223 0
M  V30 14511 O 1355.41 2.35725 -3.25264 0
M  V30 14512 N 1353.62 1.15602 -2.66617 0
M  V30 14513 H 1353.17 0.267736 -2.56205 0
M  V30 14514 H 1353.12 1.99186 -2.43254 0
M  V30 14515 N 1356.9 1.35099 -0.81154 0
M  V30 14516 C 1358.12 2.03391 -0.405805 0
M  V30 14517 C 1358.55 1.60745 0.97686 0
M  V30 14518 O 1357.9 0.786518 1.63351 0
M  V30 14519 C 1357.95 3.57075 -0.502954 0
M  V30 14520 O 1357.06 4.09577 0.481681 0
M  V30 14521 H 1356.4 0.642203 -0.168733 0
M  V30 14522 H 1358.93 1.72591 -1.0988 0
M  V30 14523 H 1358.94 4.06277 -0.37456 0
M  V30 14524 H 1357.61 3.87463 -1.51145 0
M  V30 14525 H 1356.19 3.71583 0.313115 0
M  V30 14526 N 1358.37 0.56548 1.47106 0
M  V30 14527 C 1359.6 0.0476763 2.07345 0
M  V30 14528 C 1360.02 -1.24032 1.41413 0
M  V30 14529 O 1359.38 -1.74498 0.491941 0
M  V30 14530 C 1359.43 -0.122618 3.60391 0
M  V30 14531 O 1358.53 -1.18326 3.9506 0
M  V30 14532 H 1357.87 0.0550419 0.661715 0
M  V30 14533 H 1360.4 0.78352 1.89003 0
M  V30 14534 H 1360.41 -0.334227 4.06629 0
M  V30 14535 H 1359.09 0.81807 4.07775 0
M  V30 14536 H 1357.67 -0.951481 3.60557 0
M  V30 14537 N 1359.85 -1.54672 0.302354 0
M  V30 14538 C 1360.8 -2.2357 -0.573141 0
M  V30 14539 C 1361.77 -1.21878 -1.12849 0
M  V30 14540 O 1362.95 -1.50502 -1.17277 0
M  V30 14541 C 1360.09 -2.98111 -1.7385 0
M  V30 14542 C 1359.21 -4.14579 -1.21441 0
M  V30 14543 C 1358.34 -4.76699 -2.34374 0
M  V30 14544 C 1357.38 -5.8531 -1.79106 0
M  V30 14545 N 1356.52 -6.41379 -2.85618 0
M  V30 14546 H 1361.36 -2.97993 0.0209969 0
M  V30 14547 H 1358.9 -1.47083 0.0221318 0
M  V30 14548 H 1360.85 -3.39561 -2.42392 0
M  V30 14549 H 1359.48 -2.26063 -2.30425 0
M  V30 14550 H 1358.54 -3.78061 -0.421204 0
M  V30 14551 H 1359.85 -4.92824 -0.769821 0
M  V30 14552 H 1359 -5.21009 -3.10861 0
M  V30 14553 H 1357.74 -3.9779 -2.8216 0
M  V30 14554 H 1356.75 -5.40423 -1.01109 0
M  V30 14555 H 1357.97 -6.66104 -1.32222 0
M  V30 14556 H 1355.92 -5.65352 -3.32735 0
M  V30 14557 H 1355.83 -7.14974 -2.45659 0
M  V30 14558 H 1357.1 -6.90346 -3.61998 0
M  V30 14559 N 1361.33 -0.0301034 -1.57571 0
M  V30 14560 C 1362.26 0.980187 -2.07183 0
M  V30 14561 C 1363.28 1.2882 -0.995449 0
M  V30 14562 O 1364.46 1.25268 -1.27162 0
M  V30 14563 C 1361.56 2.30734 -2.48224 0
M  V30 14564 C 1360.74 2.18434 -3.78953 0
M  V30 14565 C 1359.8 3.34092 -4.06533 0
M  V30 14566 O 1358.82 3.10934 -4.76769 0
M  V30 14567 N 1360.02 4.57914 -3.56784 0
M  V30 14568 H 1362.79 0.556877 -2.94481 0
M  V30 14569 H 1360.35 0.156632 -1.61141 0
M  V30 14570 H 1362.34 3.06936 -2.63766 0
M  V30 14571 H 1360.91 2.64703 -1.66287 0
M  V30 14572 H 1360.13 1.26953 -3.73198 0
M  V30 14573 H 1361.42 2.07421 -4.64601 0
M  V30 14574 H 1360.82 4.79623 -2.99964 0
M  V30 14575 H 1359.38 5.31281 -3.77603 0
M  V30 14576 N 1362.81 1.55714 0.243056 0
M  V30 14577 C 1363.74 1.87093 1.32396 0
M  V30 14578 C 1364.75 0.757482 1.44104 0
M  V30 14579 O 1365.94 1.03563 1.45386 0
M  V30 14580 C 1363.04 2.04546 2.70212 0
M  V30 14581 C 1362.22 3.3543 2.80723 0
M  V30 14582 C 1361.27 3.42578 3.99408 0
M  V30 14583 O 1360.3 4.15762 3.88755 0
M  V30 14584 N 1361.5 2.7215 5.12752 0
M  V30 14585 H 1364.27 2.80399 1.05813 0
M  V30 14586 H 1361.83 1.55998 0.433151 0
M  V30 14587 H 1363.82 2.06665 3.47954 0
M  V30 14588 H 1362.39 1.17966 2.89487 0
M  V30 14589 H 1361.61 3.45594 1.89626 0
M  V30 14590 H 1362.9 4.21692 2.84698 0
M  V30 14591 H 1362.3 2.1243 5.24299 0
M  V30 14592 H 1360.85 2.79957 5.88615 0
M  V30 14593 N 1364.29 -0.50888 1.49158 0
M  V30 14594 C 1365.53 -1.26537 1.58481 0
M  V30 14595 C 1365.87 -1.92353 0.267168 0
M  V30 14596 O 1365.14 -1.80336 -0.728639 0
M  V30 14597 C 1365.42 -2.33846 2.73839 0
M  V30 14598 C 1365.28 -1.72582 4.15374 0
M  V30 14599 C 1366.6 -3.35467 2.84868 0
M  V30 14600 H 1363.71 -0.458697 0.576859 0
M  V30 14601 H 1366.36 -0.564728 1.81413 0
M  V30 14602 H 1364.51 -2.93605 2.54417 0
M  V30 14603 H 1366.18 -1.16711 4.46292 0
M  V30 14604 H 1364.42 -1.03025 4.21389 0
M  V30 14605 H 1365.09 -2.5038 4.91949 0
M  V30 14606 H 1367.57 -2.85689 3.02524 0
M  V30 14607 H 1366.44 -4.07922 3.67275 0
M  V30 14608 H 1366.71 -3.97313 1.93894 0
M  V30 14609 N 1365.76 -1.381 -0.759346 0
M  V30 14610 C 1367.01 -1.33311 -1.51364 0
M  V30 14611 C 1367.33 0.0761325 -1.95452 0
M  V30 14612 O 1368.53 0.246541 -2.70378 0
M  V30 14613 C 1366.99 -2.34067 -2.73387 0
M  V30 14614 C 1366.6 -3.80583 -2.36348 0
M  V30 14615 C 1368.34 -2.38311 -3.51295 0
M  V30 14616 C 1366.25 -4.73039 -3.54948 0
M  V30 14617 H 1365.18 -0.495512 -0.568317 0
M  V30 14618 H 1367.83 -1.63625 -0.830602 0
M  V30 14619 H 1366.21 -1.96788 -3.43643 0
M  V30 14620 H 1367.38 -4.26769 -1.73796 0
M  V30 14621 H 1365.7 -3.79403 -1.71587 0
M  V30 14622 H 1368.3 -3.04586 -4.39467 0
M  V30 14623 H 1368.64 -1.40034 -3.92041 0
M  V30 14624 H 1369.17 -2.74361 -2.88047 0
M  V30 14625 H 1365.91 -5.7249 -3.19273 0
M  V30 14626 H 1365.43 -4.3155 -4.16563 0
M  V30 14627 H 1367.11 -4.90775 -4.21603 0
M  V30 14628 N 1367.24 0.986894 -1.22875 0
M  V30 14629 C 1368.47 1.7601 -1.08185 0
M  V30 14630 C 1368.88 1.85545 0.370088 0
M  V30 14631 O 1368.22 1.32915 1.26804 0
M  V30 14632 C 1368.29 3.20661 -1.62532 0
M  V30 14633 C 1367.95 3.34655 -3.11216 0
M  V30 14634 C 1368.95 3.21493 -4.08581 0
M  V30 14635 C 1366.63 3.59512 -3.50794 0
M  V30 14636 C 1368.63 3.32983 -5.43508 0
M  V30 14637 C 1366.31 3.70642 -4.85868 0
M  V30 14638 C 1367.31 3.57387 -5.82034 0
M  V30 14639 O 1367 3.68135 -7.14655 0
M  V30 14640 H 1366.73 0.559402 -0.379533 0
M  V30 14641 H 1369.28 1.24905 -1.63058 0
M  V30 14642 H 1367.51 3.72985 -1.02073 0
M  V30 14643 H 1369.2 3.7972 -1.43415 0
M  V30 14644 H 1369.97 3.02193 -3.79347 0
M  V30 14645 H 1365.85 3.68904 -2.76461 0
M  V30 14646 H 1369.39 3.22553 -6.18551 0
M  V30 14647 H 1365.29 3.89451 -5.1478 0
M  V30 14648 H 1366.06 3.84971 -7.22316 0
M  V30 14649 N 1368.72 1.0394 1.18466 0
M  V30 14650 C 1370 0.65632 1.8426 0
M  V30 14651 C 1370.38 -0.864288 1.92596 0
M  V30 14652 O 1369.73 -1.76524 1.45092 0
M  V30 14653 C 1369.94 1.33067 3.22636 0
M  V30 14654 C 1371.28 1.46065 3.98686 0
M  V30 14655 O 1372.31 1.28867 3.32072 0
M  V30 14656 O 1371.17 1.74078 5.18034 0
M  V30 14657 H 1368.26 0.229484 0.794523 0
M  V30 14658 H 1370.81 1.13821 1.25868 0
M  V30 14659 H 1369.58 2.36866 3.11465 0
M  V30 14660 H 1369.2 0.837313 3.88683 0
M  V30 14661 N 1370.2 -1.34667 0.818693 0
M  V30 14662 C 1371.15 -2.29595 0.235551 0
M  V30 14663 C 1372.12 -1.53389 -0.63727 0
M  V30 14664 O 1373.3 -1.81777 -0.579804 0
M  V30 14665 C 1370.44 -3.39843 -0.600043 0
M  V30 14666 C 1369.55 -4.30995 0.294553 0
M  V30 14667 C 1368.69 -5.28343 -0.550203 0
M  V30 14668 C 1367.73 -6.11132 0.344043 0
M  V30 14669 N 1366.86 -7.00582 -0.461392 0
M  V30 14670 H 1371.7 -2.78872 1.05044 0
M  V30 14671 H 1369.24 -1.37239 0.529517 0
M  V30 14672 H 1371.2 -4.02443 -1.09978 0
M  V30 14673 H 1369.83 -2.91811 -1.38008 0
M  V30 14674 H 1368.88 -3.69294 0.912483 0
M  V30 14675 H 1370.19 -4.89031 0.982341 0
M  V30 14676 H 1369.35 -5.96374 -1.11459 0
M  V30 14677 H 1368.09 -4.70833 -1.27151 0
M  V30 14678 H 1367.09 -5.42038 0.920608 0
M  V30 14679 H 1368.32 -6.70722 1.0634 0
M  V30 14680 H 1366.26 -6.45546 -1.16645 0
M  V30 14681 H 1366.18 -7.55813 0.168095 0
M  V30 14682 H 1367.45 -7.72946 -1.00867 0
M  V30 14683 N 1371.68 -0.573274 -1.46804 0
M  V30 14684 C 1372.62 0.178246 -2.31916 0
M  V30 14685 C 1373.62 0.89366 -1.4391 0
M  V30 14686 O 1374.82 0.81312 -1.60588 0
M  V30 14687 H 1371.2 0.0763519 -0.748114 0
M  V30 14688 H 1373.17 -0.558552 -2.93126 0
M  V30 14689 C 1371.92 1.18476 -3.26892 0
M  V30 14690 H 1371.24 0.643691 -3.94584 0
M  V30 14691 H 1372.68 1.68118 -3.89246 0
M  V30 14692 C 1371.14 2.24092 -2.51564 0
M  V30 14693 O 1371.67 3.3129 -2.27178 0
M  V30 14694 N 1369.88 1.98447 -2.1229 0
M  V30 14695 H 1369.42 1.11283 -2.32323 0
M  V30 14696 H 1369.38 2.69325 -1.62207 0
M  V30 14697 N 1373.15 1.5451 -0.310553 0
M  V30 14698 C 1374.38 2.05204 0.301013 0
M  V30 14699 C 1374.8 1.1859 1.46007 0
M  V30 14700 O 1374.16 0.192081 1.8028 0
M  V30 14701 C 1374.21 3.53221 0.725767 0
M  V30 14702 O 1373.31 3.69596 1.82955 0
M  V30 14703 H 1372.66 0.661566 0.0568026 0
M  V30 14704 H 1375.19 1.99473 -0.455178 0
M  V30 14705 H 1375.2 3.9525 1.01198 0
M  V30 14706 H 1373.87 4.15721 -0.122046 0
M  V30 14707 H 1372.45 3.39472 1.54315 0
M  V30 14708 N 1374.63 0.0384594 1.57553 0
M  V30 14709 C 1375.57 -0.969185 2.077 0
M  V30 14710 C 1376.58 -1.2829 1.00227 0
M  V30 14711 O 1377.77 -1.24592 1.27824 0
M  V30 14712 C 1374.87 -2.29414 2.49444 0
M  V30 14713 C 1374.04 -2.16422 3.80106 0
M  V30 14714 C 1373.1 -3.31931 4.08299 0
M  V30 14715 O 1372.13 -3.08401 4.78412 0
M  V30 14716 N 1373.33 -4.56015 3.59208 0
M  V30 14717 H 1376.09 -0.541252 2.94772 0
M  V30 14718 H 1373.65 -0.148084 1.61221 0
M  V30 14719 H 1375.65 -3.05533 2.6539 0
M  V30 14720 H 1374.22 -2.63817 1.67688 0
M  V30 14721 H 1373.44 -1.24973 3.73866 0
M  V30 14722 H 1374.72 -2.04954 4.65694 0
M  V30 14723 H 1374.12 -4.78025 3.02503 0
M  V30 14724 H 1372.68 -5.29271 3.80415 0
M  V30 14725 N 1376.11 -1.55841 -0.234795 0
M  V30 14726 C 1377.34 -1.82307 -0.978355 0
M  V30 14727 C 1377.75 -0.615825 -1.78474 0
M  V30 14728 O 1377.11 0.4156 -1.77705 0
M  V30 14729 C 1377.16 -3.07136 -1.90655 0
M  V30 14730 O 1376.88 -4.23202 -1.13278 0
M  V30 14731 C 1378.38 -3.46492 -2.76511 0
M  V30 14732 H 1375.6 -0.606361 -0.287345 0
M  V30 14733 H 1378.15 -2.02916 -0.254023 0
M  V30 14734 H 1376.3 -2.88542 -2.58501 0
M  V30 14735 H 1376.72 -4.94029 -1.76168 0
M  V30 14736 H 1378.19 -4.36908 -3.37366 0
M  V30 14737 H 1378.67 -2.67633 -3.48238 0
M  V30 14738 H 1379.27 -3.6748 -2.14099 0
M  V30 14739 N 1377.59 0.500963 -1.49426 0
M  V30 14740 C 1378.84 1.25427 -1.60124 0
M  V30 14741 C 1379.19 1.90288 -0.284312 0
M  V30 14742 O 1378.48 1.77741 0.715459 0
M  V30 14743 C 1378.68 2.34448 -2.69757 0
M  V30 14744 C 1378.51 1.80278 -4.11983 0
M  V30 14745 C 1377.28 1.61577 -4.7877 0
M  V30 14746 C 1379.47 1.31462 -4.97215 0
M  V30 14747 N 1377.46 1.02337 -6.0531 0
M  V30 14748 C 1378.83 0.843562 -6.14235 0
M  V30 14749 C 1380.88 1.20035 -4.83214 0
M  V30 14750 C 1379.59 0.269543 -7.18795 0
M  V30 14751 C 1381.61 0.640304 -5.87924 0
M  V30 14752 C 1380.97 0.179474 -7.04171 0
M  V30 14753 H 1377.07 0.448932 -0.6403 0
M  V30 14754 H 1379.66 0.561377 -1.86431 0
M  V30 14755 H 1377.83 3.01198 -2.45223 0
M  V30 14756 H 1379.56 3.01487 -2.69977 0
M  V30 14757 H 1376.31 1.85946 -4.3557 0
M  V30 14758 H 1376.74 0.746441 -6.72872 0
M  V30 14759 H 1381.38 1.54263 -3.93653 0
M  V30 14760 H 1379.1 -0.0849963 -8.08055 0
M  V30 14761 H 1382.68 0.554669 -5.7915 0
M  V30 14762 H 1381.56 -0.247125 -7.83811 0
M  V30 14763 N 1379.07 1.38501 0.752011 0
M  V30 14764 C 1380.03 1.35655 1.84744 0
M  V30 14765 C 1381.03 0.256772 1.58737 0
M  V30 14766 O 1382.22 0.513749 1.66452 0
M  V30 14767 C 1379.35 1.11231 3.22243 0
M  V30 14768 H 1380.55 2.33114 1.88674 0
M  V30 14769 H 1378.1 1.23818 0.953882 0
M  V30 14770 H 1378.83 0.143848 3.23981 0
M  V30 14771 H 1378.62 1.90857 3.42515 0
M  V30 14772 H 1380.11 1.11939 4.02318 0
M  V30 14773 N 1380.55 -0.980364 1.23396 0
M  V30 14774 C 1381.79 -1.72421 1.06765 0
M  V30 14775 C 1382.12 -1.90151 -0.394515 0
M  V30 14776 O 1381.4 -1.4538 -1.29209 0
M  V30 14777 C 1381.68 -3.12246 1.79372 0
M  V30 14778 C 1381.54 -3.02087 3.33262 0
M  V30 14779 C 1382.85 -4.11667 1.55624 0
M  V30 14780 H 1379.97 -0.625822 0.389251 0
M  V30 14781 H 1382.62 -1.14132 1.51901 0
M  V30 14782 H 1380.77 -3.62008 1.41004 0
M  V30 14783 H 1382.44 -2.59848 3.81152 0
M  V30 14784 H 1380.68 -2.38592 3.62293 0
M  V30 14785 H 1381.35 -4.01087 3.79254 0
M  V30 14786 H 1383.83 -3.70712 1.88975 0
M  V30 14787 H 1382.7 -5.07593 2.08902 0
M  V30 14788 H 1382.96 -4.39358 0.491601 0
M  V30 14789 N 1382.02 -1.04567 -1.17913 0
M  V30 14790 C 1383.27 -0.747179 -1.8735 0
M  V30 14791 C 1383.59 0.728274 -1.81537 0
M  V30 14792 O 1384.79 1.14048 -2.46385 0
M  V30 14793 C 1383.25 -1.28629 -3.36129 0
M  V30 14794 C 1382.86 -2.79073 -3.5046 0
M  V30 14795 C 1384.6 -1.06455 -4.10935 0
M  V30 14796 C 1382.51 -3.26316 -4.93226 0
M  V30 14797 H 1381.44 -0.275807 -0.701745 0
M  V30 14798 H 1384.09 -1.26215 -1.33199 0
M  V30 14799 H 1382.47 -0.699151 -3.89779 0
M  V30 14800 H 1383.64 -3.43587 -3.07057 0
M  V30 14801 H 1381.96 -2.99716 -2.89066 0
M  V30 14802 H 1384.56 -1.3926 -5.16247 0
M  V30 14803 H 1384.9 -0.00201298 -4.163 0
M  V30 14804 H 1385.43 -1.61656 -3.63472 0
M  V30 14805 H 1382.17 -4.31972 -4.93032 0
M  V30 14806 H 1381.69 -2.6654 -5.37323 0
M  V30 14807 H 1383.37 -3.2063 -5.61966 0
M  V30 14808 N 1383.5 1.34231 -0.825823 0
M  V30 14809 C 1384.45 2.29467 -0.247724 0
M  V30 14810 C 1385.42 1.53724 0.629127 0
M  V30 14811 O 1386.6 1.82082 0.570156 0
M  V30 14812 C 1383.74 3.40157 0.582012 0
M  V30 14813 C 1382.86 4.30832 -0.317406 0
M  V30 14814 C 1381.99 5.28627 0.522176 0
M  V30 14815 C 1381.03 6.10941 -0.376448 0
M  V30 14816 N 1380.17 7.00817 0.424232 0
M  V30 14817 H 1385.01 2.78311 -1.06521 0
M  V30 14818 H 1382.54 1.36956 -0.536788 0
M  V30 14819 H 1384.5 4.03021 1.07843 0
M  V30 14820 H 1383.13 2.92539 1.36459 0
M  V30 14821 H 1382.18 3.68805 -0.932054 0
M  V30 14822 H 1383.5 4.88503 -1.00826 0
M  V30 14823 H 1382.65 5.96957 1.08295 0
M  V30 14824 H 1381.39 4.71501 1.24652 0
M  V30 14825 H 1380.39 5.41542 -0.94934 0
M  V30 14826 H 1381.62 6.70149 -1.09895 0
M  V30 14827 H 1379.57 6.46156 1.1322 0
M  V30 14828 H 1379.48 7.55713 -0.208175 0
M  V30 14829 H 1380.75 7.7347 0.967664 0
M  V30 14830 N 1384.98 0.581051 1.46498 0
M  V30 14831 C 1385.93 -0.174031 2.27335 0
M  V30 14832 C 1386.91 -0.863391 1.35773 0
M  V30 14833 O 1388.11 -0.75776 1.59959 0
M  V30 14834 C 1385.23 -1.18814 3.22084 0
M  V30 14835 C 1384.32 -0.500978 4.21131 0
M  V30 14836 N 1384.71 0.442495 5.03861 0
M  V30 14837 C 1383.01 -0.751932 4.39616 0
M  V30 14838 C 1383.71 0.843944 5.75545 0
M  V30 14839 N 1382.69 0.19346 5.43256 0
M  V30 14840 H 1386.49 0.551004 2.88689 0
M  V30 14841 H 1384 0.402722 1.57327 0
M  V30 14842 H 1386 -1.74325 3.78703 0
M  V30 14843 H 1384.66 -1.91401 2.62289 0
M  V30 14844 H 1385.67 0.817931 5.114 0
M  V30 14845 H 1382.35 -1.46451 3.90971 0
M  V30 14846 H 1383.74 1.62058 6.52063 0
M  V30 14847 N 1386.46 -1.54343 0.318742 0
M  V30 14848 C 1387.73 -1.92635 -0.339299 0
M  V30 14849 C 1388.11 -1.24786 -1.7027 0
M  V30 14850 O 1387.46 -0.389844 -2.2515 0
M  V30 14851 C 1387.67 -3.46262 -0.436318 0
M  V30 14852 C 1389.02 -4.18809 -0.698871 0
M  V30 14853 O 1390.04 -3.52392 -0.519431 0
M  V30 14854 O 1388.9 -5.36422 -1.04471 0
M  V30 14855 H 1386 -0.804202 -0.192841 0
M  V30 14856 H 1388.54 -1.6566 0.368104 0
M  V30 14857 H 1387.32 -3.8781 0.521427 0
M  V30 14858 H 1386.94 -3.79327 -1.19149 0
M  V30 14859 N 1387.94 -0.0468143 -1.5753 0
M  V30 14860 C 1388.88 0.946945 -2.12452 0
M  V30 14861 C 1389.88 1.32515 -1.05527 0
M  V30 14862 O 1391.08 1.30532 -1.23941 0
M  V30 14863 H 1387.46 0.323223 -0.678993 0
M  V30 14864 H 1389.43 0.45858 -2.94855 0
M  V30 14865 C 1388.18 2.21402 -2.68098 0
M  V30 14866 H 1387.5 1.93178 -3.50032 0
M  V30 14867 H 1388.94 2.89105 -3.10152 0
M  V30 14868 C 1387.4 2.95576 -1.61668 0
M  V30 14869 O 1387.93 3.88353 -1.02689 0
M  V30 14870 N 1386.14 2.58228 -1.33291 0
M  V30 14871 H 1385.68 1.82858 -1.8144 0
M  V30 14872 H 1385.64 3.08164 -0.623092 0
M  V30 14873 N 1389.41 1.55964 0.226527 0
M  V30 14874 C 1390.35 1.88487 1.30405 0
M  V30 14875 C 1391.36 0.772723 1.43293 0
M  V30 14876 O 1392.55 1.05099 1.44279 0
M  V30 14877 C 1389.65 2.074 2.68027 0
M  V30 14878 C 1388.82 3.38389 2.77149 0
M  V30 14879 C 1387.88 3.46795 3.95752 0
M  V30 14880 O 1386.91 4.19862 3.84323 0
M  V30 14881 N 1388.11 2.77573 5.09836 0
M  V30 14882 H 1390.87 2.81506 1.02833 0
M  V30 14883 H 1388.43 1.56449 0.416581 0
M  V30 14884 H 1390.43 2.10344 3.45742 0
M  V30 14885 H 1389 1.2103 2.8822 0
M  V30 14886 H 1388.22 3.47586 1.8595 0
M  V30 14887 H 1389.5 4.24688 2.8021 0
M  V30 14888 H 1388.9 2.17979 5.22017 0
M  V30 14889 H 1387.46 2.86185 5.85612 0
M  V30 14890 N 1390.89 -0.493031 1.4969 0
M  V30 14891 C 1391.8 -1.61991 1.69694 0
M  V30 14892 C 1392.82 -1.64061 0.579641 0
M  V30 14893 O 1393.99 -1.82335 0.855323 0
M  V30 14894 C 1391.06 -2.98323 1.76648 0
M  V30 14895 C 1390.12 -3.06816 3.00271 0
M  V30 14896 C 1389.35 -4.36644 3.06883 0
M  V30 14897 O 1389.58 -5.25901 2.20872 0
M  V30 14898 O 1388.51 -4.50275 3.99419 0
M  V30 14899 H 1392.34 -1.48042 2.65174 0
M  V30 14900 H 1389.92 -0.670182 1.33525 0
M  V30 14901 H 1391.8 -3.79335 1.83529 0
M  V30 14902 H 1390.48 -3.12517 0.843482 0
M  V30 14903 H 1389.39 -2.24962 2.98903 0
M  V30 14904 H 1390.72 -2.97551 3.92077 0
M  V30 14905 N 1392.37 -1.38898 -0.744656 0
M  V30 14906 C 1393.6 -1.3903 -1.53901 0
M  V30 14907 C 1394.02 0.0156607 -1.88093 0
M  V30 14908 O 1393.38 1.00012 -1.51219 0
M  V30 14909 C 1393.43 -2.2609 -2.80919 0
M  V30 14910 O 1392.53 -1.68414 -3.76444 0
M  V30 14911 H 1391.87 -0.473854 -0.465144 0
M  V30 14912 H 1394.4 -1.82773 -0.919525 0
M  V30 14913 H 1394.41 -2.40264 -3.29754 0
M  V30 14914 H 1393.09 -3.28271 -2.55364 0
M  V30 14915 H 1391.66 -1.63431 -3.35179 0
M  V30 14916 N 1393.85 0.973806 -1.23914 0
M  V30 14917 C 1394.78 2.08526 -1.05068 0
M  V30 14918 C 1395.76 1.70065 0.0344761 0
M  V30 14919 O 1396.94 1.93755 -0.131432 0
M  V30 14920 C 1394.07 3.41198 -0.648165 0
M  V30 14921 C 1393.03 3.9359 -1.6814 0
M  V30 14922 C 1392.35 5.22534 -1.13414 0
M  V30 14923 C 1393.65 4.22116 -3.07597 0
M  V30 14924 H 1395.35 2.24551 -1.98034 0
M  V30 14925 H 1392.89 1.07905 -0.953546 0
M  V30 14926 H 1394.85 4.18383 -0.50334 0
M  V30 14927 H 1393.57 3.25056 0.317182 0
M  V30 14928 H 1392.23 3.18555 -1.81434 0
M  V30 14929 H 1391.88 5.02747 -0.159578 0
M  V30 14930 H 1391.58 5.58555 -1.82456 0
M  V30 14931 H 1393.1 6.02334 -1.0013 0
M  V30 14932 H 1394.52 4.90027 -2.97567 0
M  V30 14933 H 1392.91 4.69352 -3.73937 0
M  V30 14934 H 1393.98 3.29128 -3.56094 0
M  V30 14935 N 1395.33 1.05191 1.17357 0
M  V30 14936 C 1396.58 0.757104 1.86951 0
M  V30 14937 C 1396.89 -0.718637 1.8192 0
M  V30 14938 O 1398.09 -1.12739 2.46986 0
M  V30 14939 C 1396.55 1.30409 3.35442 0
M  V30 14940 C 1396.16 2.80928 3.48975 0
M  V30 14941 C 1397.9 1.08633 4.10365 0
M  V30 14942 C 1395.81 3.28927 4.91488 0
M  V30 14943 H 1394.74 0.279525 0.700273 0
M  V30 14944 H 1397.39 1.2692 1.32528 0
M  V30 14945 H 1395.77 0.719812 3.89403 0
M  V30 14946 H 1396.95 3.45211 3.05231 0
M  V30 14947 H 1395.26 3.01245 2.87473 0
M  V30 14948 H 1397.86 1.41996 5.15501 0
M  V30 14949 H 1398.2 0.0240903 4.16293 0
M  V30 14950 H 1398.73 1.63581 3.6261 0
M  V30 14951 H 1395.47 4.34581 4.90734 0
M  V30 14952 H 1394.99 2.69386 5.35902 0
M  V30 14953 H 1396.67 3.23605 5.60258 0
M  V30 14954 N 1396.8 -1.33791 0.83293 0
M  V30 14955 C 1397.75 -2.31249 0.250357 0
M  V30 14956 C 1398.75 -1.57865 -0.614403 0
M  V30 14957 O 1399.95 -1.72782 -0.504627 0
M  V30 14958 H 1396.33 -0.749421 0.0622268 0
M  V30 14959 H 1398.3 -2.77899 1.08697 0
M  V30 14960 C 1397.05 -3.43082 -0.564783 0
M  V30 14961 H 1396.37 -3.99696 0.0913189 0
M  V30 14962 H 1397.81 -4.13486 -0.938351 0
M  V30 14963 C 1396.27 -2.88414 -1.74124 0
M  V30 14964 O 1396.8 -2.84113 -2.83976 0
M  V30 14965 N 1395.01 -2.45101 -1.56121 0
M  V30 14966 H 1394.55 -2.48799 -0.667607 0
M  V30 14967 H 1394.51 -2.08875 -2.34986 0
M  V30 14968 N 1398.28 -0.588812 -1.46187 0
M  V30 14969 C 1399.23 0.153638 -2.32092 0
M  V30 14970 C 1400.22 0.878346 -1.4485 0
M  V30 14971 O 1401.43 0.796042 -1.61441 0
M  V30 14972 H 1397.81 0.0684129 -0.748882 0
M  V30 14973 H 1399.78 -0.58961 -2.92517 0
M  V30 14974 C 1398.53 1.15003 -3.28131 0
M  V30 14975 H 1397.85 0.601804 -3.95245 0
M  V30 14976 H 1399.29 1.6398 -3.91007 0
M  V30 14977 C 1397.75 2.21411 -2.53926 0
M  V30 14978 O 1398.28 3.28862 -2.30679 0
M  V30 14979 N 1396.48 1.96184 -2.14383 0
M  V30 14980 H 1396.03 1.08812 -2.3349 0
M  V30 14981 H 1395.99 2.6759 -1.65055 0
M  V30 14982 N 1399.76 1.54172 -0.326923 0
M  V30 14983 C 1400.69 2.21958 0.571588 0
M  V30 14984 C 1401.71 1.22067 1.0772 0
M  V30 14985 O 1402.89 1.48517 0.990202 0
M  V30 14986 C 1399.99 2.87307 1.79744 0
M  V30 14987 C 1399.17 4.13366 1.42995 0
M  V30 14988 C 1398.23 4.62276 2.5137 0
M  V30 14989 O 1397.25 5.2688 2.15373 0
M  V30 14990 N 1398.45 4.36789 3.82355 0
M  V30 14991 H 1401.22 2.99699 -0.00885848 0
M  V30 14992 H 1398.78 1.61201 -0.150279 0
M  V30 14993 H 1400.77 3.1695 2.51644 0
M  V30 14994 H 1399.34 2.13252 2.28566 0
M  V30 14995 H 1398.56 3.9045 0.542444 0
M  V30 14996 H 1399.85 4.95396 1.16017 0
M  V30 14997 H 1399.25 3.85086 4.14397 0
M  V30 14998 H 1397.81 4.71079 4.50475 0
M  V30 14999 N 1401.24 0.0551678 1.57503 0
M  V30 15000 C 1402.49 -0.61772 1.92848 0
M  V30 15001 C 1402.81 -1.70614 0.933862 0
M  V30 15002 O 1402.07 -1.95628 -0.0532073 0
M  V30 15003 C 1402.37 -1.24895 3.34867 0
M  V30 15004 C 1402.03 -0.288325 4.49977 0
M  V30 15005 C 1400.7 -0.0240016 4.81194 0
M  V30 15006 C 1403.05 0.369804 5.19886 0
M  V30 15007 C 1400.38 0.905818 5.79665 0
M  V30 15008 C 1402.73 1.28784 6.19352 0
M  V30 15009 C 1401.39 1.5608 6.48996 0
M  V30 15010 H 1400.66 -0.22604 0.705682 0
M  V30 15011 H 1403.31 0.1225 1.91108 0
M  V30 15012 H 1401.61 -2.06452 3.32993 0
M  V30 15013 H 1403.31 -1.77659 3.59497 0
M  V30 15014 H 1399.9 -0.504524 4.2562 0
M  V30 15015 H 1404.08 0.178689 4.95978 0
M  V30 15016 H 1399.34 1.12472 6.00966 0
M  V30 15017 H 1403.51 1.80385 6.72632 0
M  V30 15018 H 1401.14 2.28292 7.25112 0
M  V30 15019 N 1402.72 -1.56081 -0.218252 0
M  V30 15020 C 1403.66 -1.92684 -1.27049 0
M  V30 15021 C 1404.63 -0.784441 -1.46409 0
M  V30 15022 O 1405.82 -1.04062 -1.59924 0
M  V30 15023 C 1402.96 -2.25174 -2.61516 0
M  V30 15024 C 1402.07 -3.52364 -2.49927 0
M  V30 15025 C 1401.21 -3.74286 -3.7694 0
M  V30 15026 C 1400.25 -4.94979 -3.60087 0
M  V30 15027 N 1399.38 -5.13273 -4.79057 0
M  V30 15028 H 1404.22 -2.82406 -0.951347 0
M  V30 15029 H 1401.76 -1.39774 -0.458441 0
M  V30 15030 H 1403.72 -2.42022 -3.39825 0
M  V30 15031 H 1402.35 -1.38621 -2.9152 0
M  V30 15032 H 1401.4 -3.43691 -1.63036 0
M  V30 15033 H 1402.71 -4.40826 -2.33397 0
M  V30 15034 H 1401.87 -3.91248 -4.63692 0
M  V30 15035 H 1400.6 -2.84111 -3.96399 0
M  V30 15036 H 1399.61 -4.77963 -2.71719 0
M  V30 15037 H 1400.83 -5.86641 -3.42095 0
M  V30 15038 H 1398.78 -4.26041 -4.98824 0
M  V30 15039 H 1398.7 -5.95873 -4.65265 0
M  V30 15040 H 1399.97 -5.34673 -5.67226 0
M  V30 15041 N 1404.2 0.485086 -1.49949 0
M  V30 15042 C 1405.13 1.60306 -1.62411 0
M  V30 15043 C 1406.11 1.5558 -0.47262 0
M  V30 15044 O 1407.29 1.75406 -0.690285 0
M  V30 15045 C 1404.42 2.98859 -1.59377 0
M  V30 15046 C 1403.46 3.2179 -2.79917 0
M  V30 15047 S 1404.3 3.03194 -4.41399 0
M  V30 15048 C 1405.45 4.44114 -4.41037 0
M  V30 15049 H 1405.69 1.49493 -2.56981 0
M  V30 15050 H 1403.22 0.671413 -1.39037 0
M  V30 15051 H 1405.18 3.78744 -1.58313 0
M  V30 15052 H 1403.84 3.07073 -0.660673 0
M  V30 15053 H 1403.03 4.22975 -2.74059 0
M  V30 15054 H 1402.63 2.49653 -2.78477 0
M  V30 15055 H 1404.92 5.36496 -4.13737 0
M  V30 15056 H 1405.87 4.55019 -5.42553 0
M  V30 15057 H 1406.28 4.25538 -3.70914 0
M  V30 15058 N 1405.67 1.39291 0.737279 0
M  V30 15059 C 1406.62 1.37969 1.87263 0
M  V30 15060 C 1407.62 0.263156 1.67344 0
M  V30 15061 O 1408.82 0.433069 1.74713 0
M  V30 15062 H 1405.2 0.430782 0.616385 0
M  V30 15063 H 1407.17 2.33741 1.85494 0
M  V30 15064 C 1405.92 1.23779 3.24922 0
M  V30 15065 H 1405.24 2.08963 3.40844 0
M  V30 15066 H 1406.68 1.26911 4.04561 0
M  V30 15067 C 1405.14 -0.0539778 3.36857 0
M  V30 15068 O 1405.67 -1.02501 3.88402 0
M  V30 15069 N 1403.87 -0.116275 2.90367 0
M  V30 15070 H 1403.42 0.674622 2.48609 0
M  V30 15071 H 1403.38 -0.980107 2.98733 0
M  V30 15072 N 1407.15 -0.967221 1.24429 0
M  V30 15073 C 1408.1 -2.06187 1.03709 0
M  V30 15074 C 1409.07 -1.66025 -0.0497665 0
M  V30 15075 O 1410.25 -1.90511 0.104951 0
M  V30 15076 C 1407.39 -3.38952 0.648477 0
M  V30 15077 C 1406.51 -3.92306 1.80886 0
M  V30 15078 C 1405.64 -5.13342 1.36579 0
M  V30 15079 C 1404.68 -5.58893 2.49609 0
M  V30 15080 N 1403.82 -6.71148 2.06165 0
M  V30 15081 H 1408.66 -2.23244 1.97399 0
M  V30 15082 H 1406.19 -1.09415 0.983192 0
M  V30 15083 H 1408.15 -4.15237 0.40419 0
M  V30 15084 H 1406.78 -3.21819 -0.25142 0
M  V30 15085 H 1405.83 -3.12656 2.1668 0
M  V30 15086 H 1407.15 -4.22071 2.65815 0
M  V30 15087 H 1406.3 -5.97003 1.0804 0
M  V30 15088 H 1405.04 -4.85262 0.487051 0
M  V30 15089 H 1404.04 -4.73805 2.78906 0
M  V30 15090 H 1405.27 -5.88987 3.3804 0
M  V30 15091 H 1403.22 -6.44802 1.20691 0
M  V30 15092 H 1403.13 -7.00366 2.84647 0
M  V30 15093 H 1404.4 -7.5825 1.80769 0
M  V30 15094 N 1408.63 -1.05812 -1.16797 0
M  V30 15095 C 1409.59 -0.668766 -2.19226 0
M  V30 15096 C 1410.59 0.28299 -1.5829 0
M  V30 15097 O 1411.78 0.0660233 -1.74075 0
M  V30 15098 C 1408.91 0.0167379 -3.40896 0
M  V30 15099 H 1410.11 -1.57543 -2.55187 0
M  V30 15100 H 1407.66 -0.852753 -1.30988 0
M  V30 15101 H 1408.4 0.936382 -3.10487 0
M  V30 15102 H 1408.18 -0.667576 -3.86375 0
M  V30 15103 H 1409.67 0.275041 -4.16693 0
M  V30 15104 N 1410.11 1.33347 -0.840014 0
M  V30 15105 C 1411.36 1.97354 -0.435412 0
M  V30 15106 C 1411.68 1.66866 1.009 0
M  V30 15107 O 1410.95 0.968186 1.70303 0
M  V30 15108 H 1409.53 0.730096 -0.158017 0
M  V30 15109 H 1412.19 1.6269 -1.07322 0
M  V30 15110 H 1411.28 3.0688 -0.56841 0
M  V30 15111 N 1411.59 0.596556 1.45873 0
M  V30 15112 C 1412.52 -0.116229 2.33211 0
M  V30 15113 C 1413.5 -0.869868 1.46176 0
M  V30 15114 O 1414.68 -0.842599 1.74968 0
M  V30 15115 C 1411.81 -1.12145 3.28696 0
M  V30 15116 C 1410.77 -0.481749 4.2528 0
M  V30 15117 C 1410.09 -1.59443 5.10374 0
M  V30 15118 C 1411.39 0.589996 5.18957 0
M  V30 15119 H 1413.09 0.613005 2.93057 0
M  V30 15120 H 1410.63 0.296242 1.4092 0
M  V30 15121 H 1412.58 -1.62857 3.88659 0
M  V30 15122 H 1411.31 -1.88114 2.66985 0
M  V30 15123 H 1409.97 0.0044092 3.666 0
M  V30 15124 H 1409.62 -2.34413 4.45039 0
M  V30 15125 H 1409.32 -1.17197 5.75794 0
M  V30 15126 H 1410.84 -2.10404 5.73204 0
M  V30 15127 H 1412.25 0.167395 5.73056 0
M  V30 15128 H 1410.65 0.933565 5.92794 0
M  V30 15129 H 1411.72 1.47093 4.62052 0
M  V30 15130 N 1413.06 -1.53996 0.335095 0
M  V30 15131 C 1414.29 -2.0489 -0.265245 0
M  V30 15132 C 1414.7 -1.21024 -1.4543 0
M  V30 15133 O 1414.04 -0.236417 -1.82172 0
M  V30 15134 C 1414.11 -3.51546 -0.752018 0
M  V30 15135 C 1413.77 -4.55904 0.316261 0
M  V30 15136 C 1414.77 -5.06881 1.15617 0
M  V30 15137 C 1412.45 -5.00117 0.467762 0
M  V30 15138 C 1414.45 -6.00644 2.13321 0
M  V30 15139 C 1412.13 -5.93692 1.4482 0
M  V30 15140 C 1413.13 -6.43842 2.27938 0
M  V30 15141 O 1412.82 -7.35578 3.24315 0
M  V30 15142 H 1412.55 -0.673631 -0.0565427 0
M  V30 15143 H 1415.11 -1.99646 0.482771 0
M  V30 15144 H 1413.34 -3.54227 -1.55114 0
M  V30 15145 H 1415.02 -3.85455 -1.27197 0
M  V30 15146 H 1415.79 -4.73494 1.05017 0
M  V30 15147 H 1411.67 -4.60689 -0.169338 0
M  V30 15148 H 1415.21 -6.39711 2.78236 0
M  V30 15149 H 1411.11 -6.26495 1.5548 0
M  V30 15150 H 1411.88 -7.53487 3.19688 0
M  V30 15151 N 1414.54 -0.0635198 -1.57472 0
M  V30 15152 C 1415.47 0.90431 -2.15278 0
M  V30 15153 C 1416.45 1.31609 -1.07764 0
M  V30 15154 O 1417.64 1.38861 -1.35762 0
M  V30 15155 C 1414.77 2.17483 -2.70774 0
M  V30 15156 C 1413.72 1.90272 -3.8338 0
M  V30 15157 C 1413.05 3.23885 -4.25444 0
M  V30 15158 C 1414.35 1.21454 -5.07983 0
M  V30 15159 H 1416.04 0.422786 -2.964 0
M  V30 15160 H 1413.59 0.201918 -1.42577 0
M  V30 15161 H 1415.54 2.856 -3.09856 0
M  V30 15162 H 1414.26 2.67863 -1.86861 0
M  V30 15163 H 1412.92 1.24564 -3.44789 0
M  V30 15164 H 1412.57 3.72089 -3.38465 0
M  V30 15165 H 1412.27 3.06472 -5.01347 0
M  V30 15166 H 1413.8 3.93212 -4.67137 0
M  V30 15167 H 1415.21 1.79625 -5.44433 0
M  V30 15168 H 1413.61 1.14327 -5.89109 0
M  V30 15169 H 1414.68 0.19238 -4.84518 0
M  V30 15170 N 1416.02 1.56195 0.209972 0
M  V30 15171 C 1417.27 1.80011 0.93402 0
M  V30 15172 C 1417.6 0.635109 1.83521 0
M  V30 15173 O 1416.87 -0.365099 1.91043 0
M  V30 15174 C 1417.16 3.13989 1.76304 0
M  V30 15175 C 1417.01 4.40956 0.887567 0
M  V30 15176 C 1418.33 3.44514 2.73857 0
M  V30 15177 H 1415.45 0.654859 0.338125 0
M  V30 15178 H 1418.09 1.88921 0.20221 0
M  V30 15179 H 1416.24 3.06524 2.38695 0
M  V30 15180 H 1417.91 4.60452 0.279507 0
M  V30 15181 H 1416.15 4.33368 0.193533 0
M  V30 15182 H 1416.83 5.31164 1.50228 0
M  V30 15183 H 1419.3 3.52182 2.216 0
M  V30 15184 H 1418.18 4.39407 3.28957 0
M  V30 15185 H 1418.44 2.6726 3.52171 0
M  V30 15186 N 1417.5 -0.477127 1.50204 0
M  V30 15187 C 1418.43 -1.59319 1.64773 0
M  V30 15188 C 1419.44 -1.53951 0.529427 0
M  V30 15189 O 1420.63 -1.59449 0.802388 0
M  V30 15190 C 1417.73 -2.98185 1.61055 0
M  V30 15191 C 1416.9 -3.28486 2.88817 0
M  V30 15192 C 1415.96 -4.46878 2.77825 0
M  V30 15193 O 1414.99 -4.47483 3.51778 0
M  V30 15194 N 1416.19 -5.48187 1.90974 0
M  V30 15195 H 1418.96 -1.4724 2.61037 0
M  V30 15196 H 1416.52 -0.66544 1.47592 0
M  V30 15197 H 1418.51 -3.75345 1.51323 0
M  V30 15198 H 1417.08 -3.04064 0.725509 0
M  V30 15199 H 1416.3 -2.39997 3.12722 0
M  V30 15200 H 1417.59 -3.4554 3.7347 0
M  V30 15201 H 1416.99 -5.50515 1.30192 0
M  V30 15202 H 1415.54 -6.24355 1.87148 0
M  V30 15203 N 1418.98 -1.3968 -0.729882 0
M  V30 15204 C 1419.92 -1.38808 -1.84393 0
M  V30 15205 C 1420.89 -0.247035 -1.64253 0
M  V30 15206 O 1422.08 -0.44293 -1.85588 0
M  V30 15207 C 1419.22 -1.2424 -3.2196 0
M  V30 15208 C 1418.33 -2.47932 -3.53771 0
M  V30 15209 C 1417.47 -2.25913 -4.80767 0
M  V30 15210 C 1416.51 -3.45254 -5.05436 0
M  V30 15211 N 1415.64 -3.2252 -6.23638 0
M  V30 15212 H 1420.48 -2.34038 -1.84473 0
M  V30 15213 H 1418.02 -1.16252 -0.901332 0
M  V30 15214 H 1419.98 -1.13804 -4.01378 0
M  V30 15215 H 1418.61 -0.326375 -3.21146 0
M  V30 15216 H 1417.66 -2.68952 -2.69015 0
M  V30 15217 H 1418.97 -3.36806 -3.67917 0
M  V30 15218 H 1418.13 -2.12748 -5.68175 0
M  V30 15219 H 1416.86 -1.34441 -4.68804 0
M  V30 15220 H 1415.87 -3.58912 -4.16488 0
M  V30 15221 H 1417.09 -4.37634 -5.19282 0
M  V30 15222 H 1415.04 -2.33718 -6.12953 0
M  V30 15223 H 1414.96 -4.04954 -6.38395 0
M  V30 15224 H 1416.23 -3.1306 -7.13872 0
M  V30 15225 N 1420.45 0.960609 -1.2494 0
M  V30 15226 C 1421.7 1.70701 -1.09495 0
M  V30 15227 C 1422.03 1.90754 0.364214 0
M  V30 15228 O 1421.31 1.47417 1.26879 0
M  V30 15229 C 1421.59 3.09353 -1.84317 0
M  V30 15230 C 1421.44 2.96747 -3.38026 0
M  V30 15231 C 1422.76 4.09139 -1.62153 0
M  V30 15232 H 1419.88 0.61955 -0.399158 0
M  V30 15233 H 1422.52 1.11701 -1.53698 0
M  V30 15234 H 1420.67 3.59719 -1.46746 0
M  V30 15235 H 1422.35 2.53752 -3.85237 0
M  V30 15236 H 1420.59 2.32798 -3.66043 0
M  V30 15237 H 1421.26 3.95002 -3.85587 0
M  V30 15238 H 1423.74 3.67659 -1.94849 0
M  V30 15239 H 1422.61 5.04206 -2.16951 0
M  V30 15240 H 1422.87 4.38521 -0.561437 0
M  V30 15241 N 1421.93 1.0643 1.16234 0
M  V30 15242 C 1423.18 0.780296 1.86429 0
M  V30 15243 C 1423.5 -0.695335 1.82181 0
M  V30 15244 O 1422.77 -1.50312 1.2563 0
M  V30 15245 H 1421.35 0.285654 0.690225 0
M  V30 15246 H 1424.01 1.34609 1.40949 0
M  V30 15247 H 1423.11 1.10644 2.91829 0
M  V30 15248 N 1423.41 -1.329 0.847073 0
M  V30 15249 C 1424.36 -2.3097 0.27487 0
M  V30 15250 C 1425.35 -1.58508 -0.597625 0
M  V30 15251 O 1426.56 -1.73307 -0.486273 0
M  V30 15252 H 1422.93 -0.748719 0.0701719 0
M  V30 15253 H 1424.9 -2.7673 1.11638 0
M  V30 15254 C 1423.65 -3.43662 -0.528363 0
M  V30 15255 H 1422.98 -3.99576 0.133707 0
M  V30 15256 H 1424.42 -4.14458 -0.894443 0
M  V30 15257 C 1422.88 -2.90244 -1.71055 0
M  V30 15258 O 1423.41 -2.87109 -2.80947 0
M  V30 15259 N 1421.61 -2.46743 -1.53512 0
M  V30 15260 H 1421.16 -2.49493 -0.641181 0
M  V30 15261 H 1421.12 -2.11356 -2.32757 0
M  V30 15262 N 1424.89 -0.604284 -1.45555 0
M  V30 15263 C 1426.17 -0.0303285 -1.95576 0
M  V30 15264 C 1426.55 1.43661 -1.54676 0
M  V30 15265 O 1425.89 2.13747 -0.807731 0
M  V30 15266 C 1426.1 -0.22497 -3.48274 0
M  V30 15267 C 1427.45 -0.104042 -4.24473 0
M  V30 15268 O 1428.48 -0.154919 -3.55863 0
M  V30 15269 O 1427.33 0.0136297 -5.46498 0
M  V30 15270 H 1424.43 0.0376106 -0.826144 0
M  V30 15271 H 1426.97 -0.674114 -1.55736 0
M  V30 15272 H 1425.75 -1.24391 -3.71002 0
M  V30 15273 H 1425.37 0.454234 -3.94997 0
M  V30 15274 N 1426.37 1.53816 -0.343257 0
M  V30 15275 C 1427.6 2.05028 0.254375 0
M  V30 15276 C 1428 1.21793 1.44786 0
M  V30 15277 O 1427.35 0.246075 1.82044 0
M  V30 15278 C 1427.41 3.5194 0.733364 0
M  V30 15279 C 1427.07 4.5573 -0.340434 0
M  V30 15280 C 1428.07 5.06261 -1.18304 0
M  V30 15281 C 1425.76 4.99862 -0.494277 0
M  V30 15282 C 1427.75 5.99504 -2.16503 0
M  V30 15283 C 1425.44 5.92916 -1.47967 0
M  V30 15284 C 1426.43 6.42625 -2.3135 0
M  V30 15285 O 1426.12 7.33848 -3.28211 0
M  V30 15286 H 1425.85 0.673922 0.0529695 0
M  V30 15287 H 1428.41 1.99387 -0.493352 0
M  V30 15288 H 1426.64 3.55044 1.53233 0
M  V30 15289 H 1428.33 3.86124 1.25151 0
M  V30 15290 H 1429.09 4.7293 -1.07527 0
M  V30 15291 H 1424.97 4.60772 0.144904 0
M  V30 15292 H 1428.52 6.38227 -2.81624 0
M  V30 15293 H 1424.41 6.25662 -1.588 0
M  V30 15294 H 1425.18 7.51781 -3.23679 0
M  V30 15295 N 1427.84 0.0718701 1.57436 0
M  V30 15296 C 1428.78 -0.924911 2.09709 0
M  V30 15297 C 1429.79 -1.26136 1.02925 0
M  V30 15298 O 1430.98 -1.21853 1.30438 0
M  V30 15299 C 1428.08 -2.24072 2.54254 0
M  V30 15300 C 1427.25 -2.0831 3.84611 0
M  V30 15301 C 1426.31 -3.23196 4.15248 0
M  V30 15302 O 1425.34 -2.98184 4.84846 0
M  V30 15303 N 1426.54 -4.48293 3.688 0
M  V30 15304 H 1429.3 -0.478605 2.95854 0
M  V30 15305 H 1426.86 -0.113853 1.61499 0
M  V30 15306 H 1428.86 -2.99835 2.71811 0
M  V30 15307 H 1427.43 -2.60201 1.73246 0
M  V30 15308 H 1426.65 -1.17014 3.76432 0
M  V30 15309 H 1427.93 -1.9503 4.69937 0
M  V30 15310 H 1427.33 -4.71501 3.12575 0
M  V30 15311 H 1425.89 -5.21082 3.91556 0
M  V30 15312 N 1429.32 -1.56304 -0.201686 0
M  V30 15313 C 1430.27 -1.94901 -1.26949 0
M  V30 15314 C 1431.26 -0.833574 -1.47472 0
M  V30 15315 O 1432.47 -1.01854 -1.48411 0
M  V30 15316 H 1428.85 -0.619663 -0.426053 0
M  V30 15317 H 1430.82 -2.83964 -0.9169 0
M  V30 15318 C 1429.57 -2.29913 -2.60835 0
M  V30 15319 H 1428.89 -3.15268 -2.45858 0
M  V30 15320 H 1430.33 -2.60789 -3.34313 0
M  V30 15321 C 1428.79 -1.13136 -3.17335 0
M  V30 15322 O 1429.32 -0.402915 -3.99674 0
M  V30 15323 N 1427.52 -0.909912 -2.75987 0
M  V30 15324 H 1427.07 -1.50402 -2.09134 0
M  V30 15325 H 1427.03 -0.130348 -3.1413 0
M  V30 15326 N 1430.8 0.469154 -1.50455 0
M  V30 15327 C 1432.05 1.2229 -1.6178 0
M  V30 15328 C 1432.38 1.91577 -0.318073 0
M  V30 15329 O 1431.65 1.82205 0.68057 0
M  V30 15330 C 1431.94 2.26504 -2.79943 0
M  V30 15331 C 1431.79 1.61509 -4.19804 0
M  V30 15332 C 1433.11 3.27796 -2.93662 0
M  V30 15333 H 1430.23 0.443241 -0.588817 0
M  V30 15334 H 1432.87 0.516431 -1.82847 0
M  V30 15335 H 1431.02 2.86757 -2.62112 0
M  V30 15336 H 1432.69 1.04838 -4.49229 0
M  V30 15337 H 1430.94 0.918162 -4.23972 0
M  V30 15338 H 1431.61 2.37248 -4.98415 0
M  V30 15339 H 1434.08 2.77568 -3.09992 0
M  V30 15340 H 1432.96 3.98041 -3.77961 0
M  V30 15341 H 1433.22 3.92033 -2.04359 0
M  V30 15342 N 1432.28 1.40065 0.722464 0
M  V30 15343 C 1433.51 1.41066 1.50944 0
M  V30 15344 C 1433.92 0.00678083 1.89199 0
M  V30 15345 O 1433.26 -0.977992 1.55502 0
M  V30 15346 C 1433.32 2.23127 2.81877 0
M  V30 15347 C 1432.99 3.7162 2.65984 0
M  V30 15348 C 1433.98 4.64415 2.33698 0
M  V30 15349 C 1431.67 4.15355 2.82463 0
M  V30 15350 C 1433.66 5.98928 2.18091 0
M  V30 15351 C 1431.35 5.49941 2.66474 0
M  V30 15352 C 1432.35 6.41542 2.34335 0
M  V30 15353 O 1432.03 7.73647 2.18461 0
M  V30 15354 H 1431.77 0.483321 0.472628 0
M  V30 15355 H 1434.32 1.84664 0.899356 0
M  V30 15356 H 1432.55 1.74298 3.45192 0
M  V30 15357 H 1434.24 2.16153 3.43559 0
M  V30 15358 H 1435.01 4.31924 2.20606 0
M  V30 15359 H 1430.88 3.44381 3.06468 0
M  V30 15360 H 1434.43 6.70391 1.92928 0
M  V30 15361 H 1430.33 5.82019 2.79149 0
M  V30 15362 H 1431.09 7.84507 2.33434 0
M  V30 15363 N 1433.76 -0.95397 1.25448 0
M  V30 15364 C 1434.99 -1.7308 1.12814 0
M  V30 15365 C 1435.4 -1.86461 -0.320764 0
M  V30 15366 O 1434.74 -1.3623 -1.23236 0
M  V30 15367 C 1434.8 -3.16239 1.70976 0
M  V30 15368 C 1434.46 -3.26286 3.19979 0
M  V30 15369 C 1435.46 -3.10547 4.16961 0
M  V30 15370 C 1433.15 -3.50085 3.60202 0
M  V30 15371 C 1435.14 -3.18456 5.52146 0
M  V30 15372 C 1432.83 -3.5763 4.95524 0
M  V30 15373 C 1433.83 -3.4183 5.91305 0
M  V30 15374 O 1433.51 -3.49058 7.24164 0
M  V30 15375 H 1433.25 -0.549143 0.394231 0
M  V30 15376 H 1435.8 -1.20538 1.66312 0
M  V30 15377 H 1434.03 -3.70148 1.11926 0
M  V30 15378 H 1435.72 -3.75784 1.53432 0
M  V30 15379 H 1436.48 -2.92029 3.87226 0
M  V30 15380 H 1432.36 -3.61445 2.86145 0
M  V30 15381 H 1435.91 -3.0604 6.26885 0
M  V30 15382 H 1431.8 -3.75665 5.24925 0
M  V30 15383 H 1432.57 -3.65684 7.32269 0
M  V30 15384 N 1435.24 -1.07045 -1.15668 0
M  V30 15385 C 1436.17 -0.645945 -2.1991 0
M  V30 15386 C 1437.18 0.29995 -1.60013 0
M  V30 15387 O 1438.37 0.0897537 -1.78274 0
M  V30 15388 C 1435.47 0.0721917 -3.38823 0
M  V30 15389 C 1434.64 -0.889103 -4.28268 0
M  V30 15390 C 1433.7 -0.208829 -5.25785 0
M  V30 15391 O 1432.73 -0.848894 -5.62834 0
M  V30 15392 N 1433.93 1.04671 -5.70985 0
M  V30 15393 H 1436.69 -1.54266 -2.56948 0
M  V30 15394 H 1434.26 -0.954736 -1.30753 0
M  V30 15395 H 1436.25 0.537882 -4.0111 0
M  V30 15396 H 1434.82 0.870805 -3.00226 0
M  V30 15397 H 1434.04 -1.53399 -3.63129 0
M  V30 15398 H 1435.33 -1.54097 -4.84904 0
M  V30 15399 H 1434.72 1.58673 -5.42991 0
M  V30 15400 H 1433.28 1.45613 -6.35327 0
M  V30 15401 N 1436.71 1.32449 -0.85411 0
M  V30 15402 C 1438.12 1.79545 -0.511923 0
M  V30 15403 C 1438.48 1.70534 0.970188 0
M  V30 15404 O 1437.6 1.2636 1.75676 0
M  V30 15405 C 1438.2 3.26 -0.922456 0
M  V30 15406 C 1436.75 3.71053 -0.632176 0
M  V30 15407 C 1435.9 2.53565 -1.12249 0
M  V30 15408 H 1438.85 1.19755 -1.04137 0
M  V30 15409 H 1438.87 3.79751 -0.238618 0
M  V30 15410 H 1438.39 3.32526 -2.00119 0
M  V30 15411 H 1436.49 3.70042 0.435862 0
M  V30 15412 H 1436.6 4.63878 -1.19809 0
M  V30 15413 H 1434.96 2.48849 -0.542781 0
M  V30 15414 H 1435.75 2.62846 -2.20832 0
M  V30 15415 N 1438.19 0.611994 1.45232 0
M  V30 15416 C 1439.12 -0.142449 2.28757 0
M  V30 15417 C 1440.14 -0.827486 1.40202 0
M  V30 15418 O 1441.33 -0.692136 1.64535 0
M  V30 15419 C 1438.43 -1.22296 3.16065 0
M  V30 15420 C 1437.6 -0.624178 4.32924 0
M  V30 15421 C 1436.66 -1.59615 5.01408 0
M  V30 15422 O 1435.68 -1.12073 5.58058 0
M  V30 15423 N 1436.89 -2.93057 5.01097 0
M  V30 15424 H 1439.65 0.574276 2.94147 0
M  V30 15425 H 1437.21 0.451789 1.55469 0
M  V30 15426 H 1439.2 -1.87309 3.58744 0
M  V30 15427 H 1437.77 -1.84215 2.52554 0
M  V30 15428 H 1436.99 0.204141 3.93671 0
M  V30 15429 H 1438.28 -0.204435 5.08389 0
M  V30 15430 H 1437.68 -3.3428 4.5637 0
M  V30 15431 H 1436.24 -3.53481 5.47626 0
M  V30 15432 N 1439.67 -1.53632 0.351409 0
M  V30 15433 C 1440.9 -2.05458 -0.243852 0
M  V30 15434 C 1441.31 -1.22588 -1.43589 0
M  V30 15435 O 1440.67 -0.263088 -1.80594 0
M  V30 15436 C 1440.72 -3.55586 -0.651226 0
M  V30 15437 O 1440.44 -4.35313 0.493415 0
M  V30 15438 C 1441.94 -4.23614 -1.30637 0
M  V30 15439 H 1439.16 -0.669443 -0.0456828 0
M  V30 15440 H 1441.71 -1.98149 0.505675 0
M  V30 15441 H 1439.86 -3.63091 -1.35068 0
M  V30 15442 H 1440.28 -5.24234 0.167107 0
M  V30 15443 H 1441.75 -5.30022 -1.5421 0
M  V30 15444 H 1442.23 -3.76449 -2.26236 0
M  V30 15445 H 1442.83 -4.20323 -0.648738 0
M  V30 15446 N 1441.15 -0.0802183 -1.57396 0
M  V30 15447 C 1442.08 0.920242 -2.08822 0
M  V30 15448 C 1443.06 1.2858 -0.995281 0
M  V30 15449 O 1444.24 1.39364 -1.26925 0
M  V30 15450 C 1441.37 2.22589 -2.55288 0
M  V30 15451 C 1440.42 2.01128 -3.76098 0
M  V30 15452 S 1441.25 1.2629 -5.20395 0
M  V30 15453 C 1442.4 2.58116 -5.70199 0
M  V30 15454 H 1442.64 0.482685 -2.93355 0
M  V30 15455 H 1440.17 0.13274 -1.53828 0
M  V30 15456 H 1442.13 2.97625 -2.82718 0
M  V30 15457 H 1440.79 2.63468 -1.71008 0
M  V30 15458 H 1439.98 2.97775 -4.06628 0
M  V30 15459 H 1439.58 1.34225 -3.49084 0
M  V30 15460 H 1441.88 3.54166 -5.77558 0
M  V30 15461 H 1442.82 2.32185 -6.68951 0
M  V30 15462 H 1443.23 2.65707 -4.98056 0
M  V30 15463 N 1442.63 1.56409 0.193394 0
M  V30 15464 C 1443.85 1.84837 0.929676 0
M  V30 15465 C 1444.27 0.662928 1.76779 0
M  V30 15466 O 1443.63 -0.368339 1.78744 0
M  V30 15467 C 1443.68 3.12083 1.82445 0
M  V30 15468 O 1443.4 4.26056 1.02018 0
M  V30 15469 C 1444.9 3.53701 2.67227 0
M  V30 15470 H 1442.12 0.613766 0.271168 0
M  V30 15471 H 1444.66 2.03518 0.200134 0
M  V30 15472 H 1442.82 2.95294 2.5076 0
M  V30 15473 H 1443.23 4.98526 1.63008 0
M  V30 15474 H 1444.71 4.45699 3.25663 0
M  V30 15475 H 1445.18 2.76771 3.41019 0
M  V30 15476 H 1445.79 3.73027 2.04281 0
M  V30 15477 N 1444.1 -0.461169 1.50702 0
M  V30 15478 C 1445.05 -1.5579 1.70288 0
M  V30 15479 C 1446.02 -1.5693 0.544251 0
M  V30 15480 O 1447.21 -1.74308 0.77597 0
M  V30 15481 C 1444.35 -2.93694 1.81212 0
M  V30 15482 C 1443.46 -3.02267 3.0864 0
M  V30 15483 C 1442.59 -4.31147 3.103 0
M  V30 15484 C 1441.63 -4.33498 4.32141 0
M  V30 15485 N 1440.77 -5.53864 4.31484 0
M  V30 15486 H 1445.61 -1.38393 2.63915 0
M  V30 15487 H 1443.15 -0.6727 1.30817 0
M  V30 15488 H 1445.1 -3.73679 1.85526 0
M  V30 15489 H 1443.73 -3.09703 0.91015 0
M  V30 15490 H 1442.79 -2.15093 3.1375 0
M  V30 15491 H 1444.1 -2.99864 3.98601 0
M  V30 15492 H 1443.25 -5.19487 3.13398 0
M  V30 15493 H 1441.99 -4.36172 2.18186 0
M  V30 15494 H 1441 -3.43554 4.29245 0
M  V30 15495 H 1442.22 -4.30156 5.25493 0
M  V30 15496 H 1440.17 -5.59657 3.42229 0
M  V30 15497 H 1440.08 -5.53244 5.15225 0
M  V30 15498 H 1441.35 -6.44302 4.38742 0
M  V30 15499 N 1445.58 -1.40446 -0.715026 0
M  V30 15500 C 1446.81 -1.4207 -1.50412 0
M  V30 15501 C 1447.22 -0.0205547 -1.88789 0
M  V30 15502 O 1446.58 0.955635 -1.55479 0
M  V30 15503 C 1446.63 -2.3119 -2.77909 0
M  V30 15504 O 1446.35 -3.65754 -2.41154 0
M  V30 15505 C 1447.85 -2.41412 -3.718 0
M  V30 15506 H 1445.07 -0.484554 -0.464164 0
M  V30 15507 H 1447.62 -1.84504 -0.881964 0
M  V30 15508 H 1445.77 -1.92117 -3.36407 0
M  V30 15509 H 1446.19 -4.13091 -3.23197 0
M  V30 15510 H 1447.66 -3.07976 -4.58099 0
M  V30 15511 H 1448.14 -1.43934 -4.14945 0
M  V30 15512 H 1448.74 -2.81039 -3.19213 0
M  V30 15513 N 1447.06 0.947303 -1.25952 0
M  V30 15514 C 1448.34 1.66964 -1.01894 0
M  V30 15515 C 1448.72 2.06192 0.452555 0
M  V30 15516 O 1448.06 1.78098 1.43156 0
M  V30 15517 C 1448.27 2.88643 -1.96179 0
M  V30 15518 C 1449.62 3.60432 -2.24441 0
M  V30 15519 O 1450.65 2.98737 -1.93996 0
M  V30 15520 O 1449.51 4.7154 -2.76247 0
M  V30 15521 H 1446.6 0.730875 -0.386976 0
M  V30 15522 H 1449.15 0.999577 -1.37137 0
M  V30 15523 H 1447.92 2.565 -2.95506 0
M  V30 15524 H 1447.54 3.63377 -1.61379 0
M  V30 15525 N 1448.54 1.07657 1.15099 0
M  V30 15526 C 1449.47 0.657598 2.19564 0
M  V30 15527 C 1450.48 -0.29146 1.6017 0
M  V30 15528 O 1451.67 -0.0802981 1.78319 0
M  V30 15529 C 1448.77 -0.0542221 3.38857 0
M  V30 15530 C 1447.95 0.911803 4.27791 0
M  V30 15531 C 1447 0.236709 5.25667 0
M  V30 15532 O 1446.03 0.878731 5.62376 0
M  V30 15533 N 1447.23 -1.01641 5.71532 0
M  V30 15534 H 1450 1.55626 2.56126 0
M  V30 15535 H 1447.56 0.961657 1.30245 0
M  V30 15536 H 1449.55 -0.516603 4.01389 0
M  V30 15537 H 1448.12 -0.854871 3.00684 0
M  V30 15538 H 1447.34 1.55322 3.6231 0
M  V30 15539 H 1448.63 1.56667 4.8408 0
M  V30 15540 H 1448.03 -1.55791 5.43825 0
M  V30 15541 H 1446.58 -1.42242 6.3609 0
M  V30 15542 N 1450.02 -1.31994 0.861122 0
M  V30 15543 C 1450.95 -2.31214 0.325963 0
M  V30 15544 C 1451.93 -1.59965 -0.578383 0
M  V30 15545 O 1453.11 -1.87726 -0.497268 0
M  V30 15546 C 1450.24 -3.43953 -0.481001 0
M  V30 15547 C 1449.2 -4.2673 0.329474 0
M  V30 15548 C 1448.52 -5.31293 -0.602627 0
M  V30 15549 C 1449.82 -4.98498 1.55874 0
M  V30 15550 H 1451.52 -2.76223 1.15503 0
M  V30 15551 H 1449.06 -1.32797 0.556856 0
M  V30 15552 H 1451.02 -4.12409 -0.86585 0
M  V30 15553 H 1449.74 -2.97687 -1.3435 0
M  V30 15554 H 1448.4 -3.59929 0.696159 0
M  V30 15555 H 1448.05 -4.8128 -1.46215 0
M  V30 15556 H 1447.75 -5.87565 -0.0643044 0
M  V30 15557 H 1449.27 -6.02611 -0.984512 0
M  V30 15558 H 1450.68 -5.596 1.24583 0
M  V30 15559 H 1449.08 -5.64525 2.03548 0
M  V30 15560 H 1450.15 -4.25991 2.31646 0
M  V30 15561 N 1451.49 -0.619688 -1.44906 0
M  V30 15562 C 1452.46 0.0822364 -2.29052 0
M  V30 15563 C 1453.46 0.783427 -1.40425 0
M  V30 15564 O 1454.65 0.629751 -1.62419 0
M  V30 15565 C 1451.78 1.12685 -3.21737 0
M  V30 15566 H 1452.97 -0.657726 -2.92599 0
M  V30 15567 H 1450.53 -0.379286 -1.51628 0
M  V30 15568 H 1451.26 1.89717 -2.63017 0
M  V30 15569 H 1451.05 0.628122 -3.87036 0
M  V30 15570 H 1452.54 1.61808 -3.84978 0
M  V30 15571 N 1452.97 1.53444 -0.359552 0
M  V30 15572 C 1454.22 2.00348 0.233109 0
M  V30 15573 C 1454.53 1.25104 1.50361 0
M  V30 15574 O 1455.74 1.62566 2.1745 0
M  V30 15575 C 1454.2 3.56871 0.465951 0
M  V30 15576 C 1453.8 4.40987 -0.789571 0
M  V30 15577 C 1455.55 4.12148 1.0166 0
M  V30 15578 C 1453.46 5.8905 -0.526646 0
M  V30 15579 H 1452.39 0.748502 0.0908851 0
M  V30 15580 H 1455.04 1.77182 -0.47736 0
M  V30 15581 H 1453.42 3.76167 1.23753 0
M  V30 15582 H 1454.59 4.33465 -1.56348 0
M  V30 15583 H 1452.91 3.96784 -1.263 0
M  V30 15584 H 1455.5 5.20395 1.22853 0
M  V30 15585 H 1455.85 3.66364 1.97694 0
M  V30 15586 H 1456.38 3.96626 0.305334 0
M  V30 15587 H 1453.12 6.39099 -1.45715 0
M  V30 15588 H 1452.64 5.99436 0.208875 0
M  V30 15589 H 1454.32 6.46826 -0.149889 0
M  V30 15590 O 1454.49 0.228504 1.59875 0
M  V30 15591 H 1455.18 -0.350657 1.905 0
M  V30 END ATOM
M  V30 BEGIN BOND
M  V30 END BOND
M  V30 END CTAB
M  END
$$$$
