drugbank_target|Q53728 Phospholipase D (DB08376)
 OpenBabel12092120503D

  0  0  0     0  0            999 V3000
M  V30 BEGIN CTAB
M  V30 COUNTS 8220 8314 0 0 0
M  V30 BEGIN ATOM
M  V30 1 H -0.908 1.98254 -0.117106 0
M  V30 2 N 0 1.576 0 0
M  V30 3 C 0.933 2.03868 1.02534 0
M  V30 4 C 1.911 0.928543 1.3348 0
M  V30 5 O 3.095 1.19667 1.45644 0
M  V30 6 C 0.222 2.43627 2.35294 0
M  V30 7 C -0.732 3.65373 2.2001 0
M  V30 8 S 0.101 5.13292 1.52614 0
M  V30 9 C 1.257 5.56322 2.86805 0
M  V30 10 H 1.49 2.90518 0.631377 0
M  V30 11 H -0.977 1.52953 0.210867 0
M  V30 12 H 0.981 2.67203 3.11629 0
M  V30 13 H -0.358 1.57376 2.7183 0
M  V30 14 H -1.165 3.90944 3.18086 0
M  V30 15 H -1.563 3.418 1.51819 0
M  V30 16 H 0.729 5.58782 3.83104 0
M  V30 17 H 1.672 6.56266 2.65933 0
M  V30 18 H 2.08 4.83886 2.90714 0
M  V30 19 N 1.4781 -0.272755 1.55222 0
M  V30 20 C 2.7061 -1.02255 1.79865 0
M  V30 21 C 3.1211 -1.79924 0.572088 0
M  V30 22 O 2.4781 -1.76638 -0.458842 0
M  V30 23 C 2.5291 -1.98094 3.02392 0
M  V30 24 O 2.2501 -1.23572 4.20311 0
M  V30 25 C 3.7511 -2.84884 3.39641 0
M  V30 26 H 0.9711 -0.302057 0.599168 0
M  V30 27 H 3.5151 -0.303465 2.02236 0
M  V30 28 H 1.6701 -2.65465 2.82147 0
M  V30 29 H 2.0841 -1.88172 4.89583 0
M  V30 30 H 3.5581 -3.47927 4.28545 0
M  V30 31 H 4.0351 -3.54665 2.59055 0
M  V30 32 H 4.6411 -2.23003 3.62146 0
M  V30 33 N 2.9562 -1.48159 -0.537278 0
M  V30 34 C 4.1812 -1.59707 -1.32319 0
M  V30 35 C 4.6062 -0.254859 -1.86365 0
M  V30 36 O 3.9642 0.772378 -1.64024 0
M  V30 37 C 4.0122 -2.6412 -2.45505 0
M  V30 38 O 3.1162 -2.20774 -3.48328 0
M  V30 39 H 2.4572 -0.535791 -0.392204 0
M  V30 40 H 4.9872 -1.94092 -0.647268 0
M  V30 41 H 4.9972 -2.85166 -2.91795 0
M  V30 42 H 3.6722 -3.61567 -2.05528 0
M  V30 43 H 2.2492 -2.09911 -3.08207 0
M  V30 44 N 4.4343 0.785586 -1.36625 0
M  V30 45 C 5.7113 1.53198 -1.21613 0
M  V30 46 C 6.0913 2.10187 0.196113 0
M  V30 47 O 5.4393 1.94318 1.20219 0
M  V30 48 C 5.6493 2.62388 -2.30116 0
M  V30 49 C 6.9973 3.30167 -2.66974 0
M  V30 50 O 8.0213 2.72674 -2.29188 0
M  V30 51 O 6.8803 4.34077 -3.32023 0
M  V30 52 H 3.9743 0.677865 -0.473738 0
M  V30 53 H 6.5203 0.823739 -1.48367 0
M  V30 54 H 5.2923 2.18299 -3.24748 0
M  V30 55 H 4.9153 3.40827 -2.0475 0
M  V30 56 N 5.9124 1.20967 1.01018 0
M  V30 57 C 6.8444 0.922059 2.09835 0
M  V30 58 C 7.8574 -0.0927106 1.62536 0
M  V30 59 O 9.0464 0.139127 1.77957 0
M  V30 60 C 6.1464 0.362004 3.36961 0
M  V30 61 C 5.3194 1.42986 4.13369 0
M  V30 62 C 4.3784 0.879976 5.1879 0
M  V30 63 O 3.4044 1.56219 5.47343 0
M  V30 64 N 4.6064 -0.307396 5.79686 0
M  V30 65 H 7.3714 1.8588 2.35093 0
M  V30 66 H 4.9324 1.11422 1.1746 0
M  V30 67 H 6.9244 -0.0201474 4.04695 0
M  V30 68 H 5.4944 -0.479437 3.08902 0
M  V30 69 H 4.7144 1.98608 3.40512 0
M  V30 70 H 6.0024 2.14885 4.61196 0
M  V30 71 H 5.4004 -0.878796 5.58832 0
M  V30 72 H 3.9574 -0.631115 6.48737 0
M  V30 73 N 7.3905 -1.2043 1.01659 0
M  V30 74 C 8.8065 -1.41852 0.731442 0
M  V30 75 C 9.0065 -1.89358 -0.688898 0
M  V30 76 O 8.0625 -2.06247 -1.45666 0
M  V30 77 C 9.3755 -2.44019 1.75714 0
M  V30 78 C 10.9235 -2.57785 1.77527 0
M  V30 79 C 11.3985 -3.63194 2.79023 0
M  V30 80 N 12.8895 -3.70678 2.77763 0
M  V30 81 C 13.6245 -4.51897 3.52954 0
M  V30 82 N 13.1205 -5.36921 4.37821 0
M  V30 83 N 14.9135 -4.4643 3.41551 0
M  V30 84 H 7.0645 -0.879093 1.93354 0
M  V30 85 H 9.3275 -0.448425 0.835236 0
M  V30 86 H 9.0335 -2.1611 2.77469 0
M  V30 87 H 8.9075 -3.43007 1.56927 0
M  V30 88 H 11.2945 -2.85023 0.764569 0
M  V30 89 H 11.3755 -1.58992 2.00387 0
M  V30 90 H 11.0195 -3.36699 3.80258 0
M  V30 91 H 10.9495 -4.61609 2.53425 0
M  V30 92 H 13.4405 -3.09944 2.16201 0
M  V30 93 H 13.7535 -5.95981 4.91962 0
M  V30 94 H 12.0985 -5.36424 4.41899 0
M  V30 95 H 15.2895 -3.79042 2.74672 0
M  V30 96 H 15.4625 -5.09491 4.00404 0
M  V30 97 N 8.8686 -0.792821 -1.36206 0
M  V30 98 C 10.2796 -0.429513 -1.81692 0
M  V30 99 C 10.6306 1.04695 -1.65932 0
M  V30 100 O 9.7556 1.81256 -1.18218 0
M  V30 101 C 10.3506 -0.772831 -3.29868 0
M  V30 102 C 8.9096 -0.462307 -3.7355 0
M  V30 103 C 8.0566 -1.00569 -2.5842 0
M  V30 104 H 11.0076 -0.985672 -1.24379 0
M  V30 105 H 11.0286 -0.0651928 -3.80444 0
M  V30 106 H 10.5406 -1.84747 -3.41307 0
M  V30 107 H 8.6416 0.604158 -3.67669 0
M  V30 108 H 8.7546 -0.985299 -4.68859 0
M  V30 109 H 7.1186 -0.428734 -2.51066 0
M  V30 110 H 7.9016 -2.08616 -2.72643 0
M  V30 111 N 10.3467 1.47872 -0.545128 0
M  V30 112 C 11.3097 2.28337 0.198717 0
M  V30 113 C 12.3097 1.36255 0.853888 0
M  V30 114 O 13.4997 1.59003 0.711606 0
M  V30 115 C 10.6317 3.15585 1.28915 0
M  V30 116 H 11.8247 2.95567 -0.507941 0
M  V30 117 H 9.3777 1.53362 -0.301616 0
M  V30 118 H 10.1127 2.53019 2.02859 0
M  V30 119 H 9.8977 3.83337 0.824309 0
M  V30 120 H 11.3877 3.76243 1.81194 0
M  V30 121 N 11.8248 0.280983 1.55075 0
M  V30 122 C 13.2408 -0.0729964 1.59433 0
M  V30 123 C 13.4408 -1.5411 1.29817 0
M  V30 124 O 12.4968 -2.29086 1.06187 0
M  V30 125 C 13.8098 0.306921 2.9913 0
M  V30 126 C 15.3578 0.254023 3.11968 0
M  V30 127 C 15.8328 0.608467 4.5394 0
M  V30 128 N 17.3238 0.560241 4.59799 0
M  V30 129 C 18.0588 0.80722 5.6769 0
M  V30 130 N 17.5548 1.11912 6.83701 0
M  V30 131 N 19.3478 0.735623 5.57266 0
M  V30 132 H 11.4988 1.238 1.7259 0
M  V30 133 H 13.7618 0.500547 0.805082 0
M  V30 134 H 13.4678 1.32816 3.25657 0
M  V30 135 H 13.3418 -0.349363 3.75579 0
M  V30 136 H 15.7288 -0.75794 2.852 0
M  V30 137 H 15.8098 0.944649 2.37718 0
M  V30 138 H 15.4538 1.61814 4.81434 0
M  V30 139 H 15.3838 -0.104013 5.26497 0
M  V30 140 H 17.8748 0.329288 3.76463 0
M  V30 141 H 18.1878 1.29409 7.61888 0
M  V30 142 H 16.5328 1.15695 6.85303 0
M  V30 143 H 19.7238 0.491752 4.6551 0
M  V30 144 H 19.8968 0.931482 6.4127 0
M  V30 145 N 13.3029 -1.57598 0.00835791 0
M  V30 146 C 14.2329 -2.1198 -0.979113 0
M  V30 147 C 15.2139 -1.03091 -1.35301 0
M  V30 148 O 16.3989 -1.30818 -1.43528 0
M  V30 149 C 13.5289 -2.62995 -2.26828 0
M  V30 150 C 12.4829 -3.76485 -2.03576 0
M  V30 151 C 11.8089 -4.13846 -3.38579 0
M  V30 152 C 13.1089 -5.0342 -1.39161 0
M  V30 153 H 14.8029 -2.94738 -0.526281 0
M  V30 154 H 12.3489 -1.41783 -0.251704 0
M  V30 155 H 14.3019 -2.99669 -2.96271 0
M  V30 156 H 13.0259 -1.7737 -2.7424 0
M  V30 157 H 11.6849 -3.40217 -1.36557 0
M  V30 158 H 11.3329 -3.25232 -3.83709 0
M  V30 159 H 11.0329 -4.90312 -3.23834 0
M  V30 160 H 12.5569 -4.53086 -4.09323 0
M  V30 161 H 13.9709 -5.37812 -1.98573 0
M  V30 162 H 12.3679 -5.84746 -1.34878 0
M  V30 163 H 13.4379 -4.83548 -0.361868 0
M  V30 164 N 14.781 0.264519 -1.55364 0
M  V30 165 C 16.192 0.834936 -1.6699 0
M  V30 166 C 16.543 1.86718 -0.602552 0
M  V30 167 O 15.668 2.14899 0.254425 0
M  V30 168 C 16.263 1.5212 -3.02729 0
M  V30 169 C 14.822 2.03954 -3.16354 0
M  V30 170 C 13.969 0.884498 -2.62815 0
M  V30 171 H 16.92 0.0406869 -1.58648 0
M  V30 172 H 16.941 2.38853 -2.96191 0
M  V30 173 H 16.453 0.769668 -3.80392 0
M  V30 174 H 14.554 2.82041 -2.43482 0
M  V30 175 H 14.667 2.24902 -4.23032 0
M  V30 176 H 13.031 1.2802 -2.20188 0
M  V30 177 H 13.814 0.14634 -3.42988 0
M  V30 178 N 16.2591 1.48442 0.529413 0
M  V30 179 C 17.4871 1.60151 1.30994 0
M  V30 180 C 17.9021 0.261985 1.86973 0
M  V30 181 O 17.2591 -0.748805 1.66431 0
M  V30 182 C 17.3101 2.64854 2.46038 0
M  V30 183 O 17.0311 3.93608 1.92365 0
M  V30 184 C 18.5321 2.87007 3.37849 0
M  V30 185 H 15.7521 0.539971 0.398338 0
M  V30 186 H 18.2961 1.94273 0.638597 0
M  V30 187 H 16.4511 2.33589 3.09055 0
M  V30 188 H 16.8651 4.51055 2.67675 0
M  V30 189 H 18.3391 3.64068 4.14919 0
M  V30 190 H 18.8161 1.95852 3.93114 0
M  V30 191 H 19.4221 3.19579 2.80623 0
M  V30 192 N 17.7372 -0.778329 1.37039 0
M  V30 193 C 18.6872 -1.88142 1.28789 0
M  V30 194 C 19.6712 -1.59923 0.177063 0
M  V30 195 O 20.8632 -1.72165 0.410873 0
M  V30 196 C 17.9922 -3.25518 1.09055 0
M  V30 197 C 17.0782 -3.5971 2.24654 0
M  V30 198 N 17.4692 -3.65131 3.50018 0
M  V30 199 C 15.7672 -3.89837 2.16663 0
M  V30 200 C 16.4682 -3.95882 4.26207 0
M  V30 201 N 15.4442 -4.11441 3.55271 0
M  V30 202 H 19.2462 -1.90575 2.23737 0
M  V30 203 H 16.7602 -0.974435 1.29917 0
M  V30 204 H 18.7572 -4.04423 1.0123 0
M  V30 205 H 17.4172 -3.24353 0.15018 0
M  V30 206 H 18.4282 -3.475 3.84011 0
M  V30 207 H 15.1052 -3.96533 1.30645 0
M  V30 208 H 16.4952 -4.06907 5.34674 0
M  V30 209 N 19.2153 -1.21501 -1.00376 0
M  V30 210 C 20.1623 -0.975387 -2.09177 0
M  V30 211 C 21.1323 0.0990615 -1.65804 0
M  V30 212 O 22.3173 -0.0483147 -1.90739 0
M  V30 213 C 19.4573 -0.547507 -3.40729 0
M  V30 214 C 18.5703 -1.69153 -3.97506 0
M  V30 215 C 17.7053 -1.2127 -5.17172 0
M  V30 216 C 16.7443 -2.32897 -5.66061 0
M  V30 217 N 15.8813 -1.86138 -6.76976 0
M  V30 218 H 20.7213 -1.9068 -2.29009 0
M  V30 219 H 18.2583 -0.950257 -1.12288 0
M  V30 220 H 20.2163 -0.280667 -4.16255 0
M  V30 221 H 18.8463 0.346904 -3.20931 0
M  V30 222 H 17.8983 -2.07298 -3.18954 0
M  V30 223 H 19.2103 -2.5316 -4.29781 0
M  V30 224 H 18.3643 -0.902591 -5.99948 0
M  V30 225 H 17.1033 -0.342692 -4.86495 0
M  V30 226 H 16.1083 -2.64709 -4.81881 0
M  V30 227 H 17.3333 -3.20396 -5.98768 0
M  V30 228 H 15.2793 -1.01484 -6.48103 0
M  V30 229 H 15.1963 -2.63717 -7.08512 0
M  V30 230 H 16.4643 -1.58165 -7.63285 0
M  V30 231 N 20.6934 1.19889 -1.02296 0
M  V30 232 C 21.9414 1.89046 -0.714558 0
M  V30 233 C 22.2624 1.79636 0.758681 0
M  V30 234 O 21.5324 1.20292 1.54618 0
M  V30 235 H 20.1124 0.699802 -0.261317 0
M  V30 236 H 22.7744 1.45574 -1.29592 0
M  V30 237 H 21.8704 2.95524 -1.0036 0
M  V30 238 N 22.1715 0.800033 1.35784 0
M  V30 239 C 23.1185 0.203848 2.29898 0
M  V30 240 C 24.0885 -0.658375 1.52495 0
M  V30 241 O 25.2735 -0.604832 1.8096 0
M  V30 242 C 22.4135 -0.64688 3.38983 0
M  V30 243 C 21.5265 0.235054 4.3136 0
M  V30 244 C 20.6615 -0.623054 5.27533 0
M  V30 245 C 19.7005 0.259682 6.11549 0
M  V30 246 N 18.8375 -0.558019 6.99879 0
M  V30 247 H 23.6775 1.01186 2.80295 0
M  V30 248 H 21.2145 0.51053 1.37957 0
M  V30 249 H 23.1725 -1.15521 4.00887 0
M  V30 250 H 21.8025 -1.42021 2.89879 0
M  V30 251 H 20.8545 0.861438 3.70518 0
M  V30 252 H 22.1665 0.914768 4.9034 0
M  V30 253 H 21.3205 -1.19678 5.94779 0
M  V30 254 H 20.0595 -1.33636 4.69034 0
M  V30 255 H 19.0645 0.845726 5.43256 0
M  V30 256 H 20.2895 0.970748 6.72126 0
M  V30 257 H 18.2355 -1.25542 6.43875 0
M  V30 258 H 18.1525 0.0637872 7.55973 0
M  V30 259 H 19.4205 -1.11523 7.71481 0
M  V30 260 N 23.6496 -1.47581 0.552962 0
M  V30 261 C 24.5796 -2.32762 -0.185451 0
M  V30 262 C 25.5606 -1.43527 -0.912905 0
M  V30 263 O 26.7456 -1.72388 -0.894201 0
M  V30 264 C 23.8756 -3.25219 -1.21859 0
M  V30 265 C 22.8296 -4.23661 -0.607864 0
M  V30 266 C 22.1556 -5.05413 -1.74533 0
M  V30 267 C 23.4556 -5.20481 0.435582 0
M  V30 268 H 25.1496 -2.94749 0.525684 0
M  V30 269 H 22.6956 -1.41738 0.254251 0
M  V30 270 H 24.6486 -3.8365 -1.7433 0
M  V30 271 H 23.3726 -2.61279 -1.95961 0
M  V30 272 H 22.0316 -3.66451 -0.104489 0
M  V30 273 H 21.6796 -4.3788 -2.47529 0
M  V30 274 H 21.3796 -5.72059 -1.34249 0
M  V30 275 H 22.9036 -5.66701 -2.27338 0
M  V30 276 H 24.3176 -5.733 -0.00290157 0
M  V30 277 H 22.7146 -5.95305 0.757067 0
M  V30 278 H 23.7846 -4.66217 1.33303 0
M  V30 279 N 25.1277 -0.289203 -1.54924 0
M  V30 280 C 26.0577 0.58549 -2.2604 0
M  V30 281 C 27.0387 1.14753 -1.25562 0
M  V30 282 O 28.2237 1.17906 -1.54311 0
M  V30 283 C 25.3537 1.76305 -2.99222 0
M  V30 284 C 24.3077 1.33191 -4.06748 0
M  V30 285 C 23.6337 2.5937 -4.6758 0
M  V30 286 C 24.9337 0.471775 -5.20165 0
M  V30 287 H 26.6277 -0.00763532 -2.99399 0
M  V30 288 H 24.1737 -0.00511229 -1.43999 0
M  V30 289 H 26.1267 2.38097 -3.47689 0
M  V30 290 H 24.8507 2.38223 -2.23422 0
M  V30 291 H 23.5097 0.737121 -3.59113 0
M  V30 292 H 23.1577 3.19576 -3.88433 0
M  V30 293 H 22.8577 2.31228 -5.40192 0
M  V30 294 H 24.3817 3.21985 -5.18804 0
M  V30 295 H 25.7957 0.995056 -5.64599 0
M  V30 296 H 24.1927 0.284639 -5.99425 0
M  V30 297 H 25.2627 -0.506041 -4.82252 0
M  V30 298 N 26.6058 1.57591 -0.0167156 0
M  V30 299 C 27.5688 2.08393 0.954204 0
M  V30 300 C 28.5688 0.996531 1.26198 0
M  V30 301 O 29.7588 1.25858 1.20438 0
M  V30 302 C 26.8908 2.5394 2.27436 0
M  V30 303 H 28.0838 2.95455 0.514451 0
M  V30 304 H 25.6368 1.54582 0.231089 0
M  V30 305 H 26.3718 1.70171 2.76066 0
M  V30 306 H 26.1568 3.33371 2.06412 0
M  V30 307 H 27.6468 2.93512 2.97053 0
M  V30 308 N 28.0839 -0.256276 1.55502 0
M  V30 309 C 29.4949 -0.826068 1.67431 0
M  V30 310 C 29.8459 -1.86396 0.612446 0
M  V30 311 O 28.9709 -2.15031 -0.243025 0
M  V30 312 C 29.5659 -1.50512 3.03532 0
M  V30 313 C 28.1249 -2.02273 3.17431 0
M  V30 314 C 27.2719 -0.870548 2.63281 0
M  V30 315 H 30.2229 -0.0322728 1.58667 0
M  V30 316 H 30.2439 -2.37279 2.97454 0
M  V30 317 H 29.7559 -0.749484 3.80794 0
M  V30 318 H 27.8569 -2.80746 2.44974 0
M  V30 319 H 27.9699 -2.22655 4.24219 0
M  V30 320 H 26.3339 -1.26851 2.20864 0
M  V30 321 H 27.1169 -0.128149 3.43061 0
M  V30 322 N 29.562 -1.4872 -0.521534 0
M  V30 323 C 30.512 -1.60269 -1.62166 0
M  V30 324 C 31.496 -0.45935 -1.54204 0
M  V30 325 O 32.688 -0.711241 -1.62081 0
M  V30 326 C 29.817 -1.65344 -3.00859 0
M  V30 327 C 28.903 -2.85187 -3.13894 0
M  V30 328 N 29.294 -4.09509 -2.96877 0
M  V30 329 C 27.592 -2.82695 -3.44963 0
M  V30 330 C 28.293 -4.89959 -3.13552 0
M  V30 331 N 27.269 -4.22934 -3.41508 0
M  V30 332 H 31.071 -2.5413 -1.47632 0
M  V30 333 H 28.585 -1.45209 -0.727194 0
M  V30 334 H 30.582 -1.71713 -3.79895 0
M  V30 335 H 29.242 -0.726058 -3.16478 0
M  V30 336 H 30.253 -4.39814 -2.73467 0
M  V30 337 H 26.93 -1.99249 -3.66887 0
M  V30 338 H 28.32 -5.98654 -3.05061 0
M  V30 339 N 31.0401 0.771051 -1.3745 0
M  V30 340 C 32.4561 1.07171 -1.18265 0
M  V30 341 C 32.6561 2.01491 -0.019287 0
M  V30 342 O 31.7121 2.44244 0.640408 0
M  V30 343 C 33.0251 1.66854 -2.50161 0
M  V30 344 C 34.5731 1.79109 -2.56689 0
M  V30 345 C 35.0481 2.42205 -3.88717 0
M  V30 346 N 36.5391 2.49655 -3.90162 0
M  V30 347 C 37.2741 2.9933 -4.8907 0
M  V30 348 N 36.7701 3.49172 -5.98374 0
M  V30 349 N 38.5631 2.9821 -4.76474 0
M  V30 350 H 30.7141 0.144796 -2.11906 0
M  V30 351 H 32.9771 0.126863 -0.939473 0
M  V30 352 H 32.6831 1.05017 -3.35655 0
M  V30 353 H 32.5571 2.6614 -2.673 0
M  V30 354 H 34.9441 2.40077 -1.71601 0
M  V30 355 H 35.0251 0.785757 -2.43433 0
M  V30 356 H 34.6691 1.81875 -4.74219 0
M  V30 357 H 34.5991 3.43345 -3.99276 0
M  V30 358 H 37.0901 2.14383 -3.11205 0
M  V30 359 H 37.4031 3.8548 -6.69795 0
M  V30 360 H 35.7481 3.47275 -6.02018 0
M  V30 361 H 38.9391 2.58572 -3.90203 0
M  V30 362 H 39.1121 3.36613 -5.53711 0
M  V30 363 N 32.5182 1.22032 0.997298 0
M  V30 364 C 33.4482 1.01065 2.10495 0
M  V30 365 C 34.4292 -0.0669542 1.69968 0
M  V30 366 O 35.6142 0.0943987 1.9397 0
M  V30 367 C 32.7442 0.582874 3.42374 0
M  V30 368 C 31.6982 1.60592 3.96729 0
M  V30 369 C 31.0242 1.03412 5.24605 0
M  V30 370 C 32.3242 2.99478 4.27914 0
M  V30 371 H 34.0182 1.93708 2.28292 0
M  V30 372 H 31.5642 0.932761 1.09707 0
M  V30 373 H 33.5172 0.423332 4.19268 0
M  V30 374 H 32.2412 -0.379213 3.24391 0
M  V30 375 H 30.9002 1.75316 3.21963 0
M  V30 376 H 30.5482 0.063518 5.0296 0
M  V30 377 H 30.2482 1.71754 5.61938 0
M  V30 378 H 31.7722 0.886066 6.04137 0
M  V30 379 H 33.1862 2.88153 4.95622 0
M  V30 380 H 31.5832 3.64903 4.76409 0
M  V30 381 H 32.6532 3.49742 3.3587 0
M  V30 382 N 33.9963 -1.19345 1.0293 0
M  V30 383 C 34.9463 -2.20472 0.58104 0
M  V30 384 C 35.9303 -1.56578 -0.370442 0
M  V30 385 O 37.1223 -1.75963 -0.191344 0
M  V30 386 C 34.2513 -3.43236 -0.066306 0
M  V30 387 C 33.3373 -4.14274 0.907642 0
M  V30 388 N 33.7283 -4.61492 2.07023 0
M  V30 389 C 32.0263 -4.39966 0.731177 0
M  V30 390 C 32.7273 -5.1605 2.68454 0
M  V30 391 N 31.7033 -5.06875 1.96414 0
M  V30 392 H 35.5053 -2.54659 1.46717 0
M  V30 393 H 33.0193 -1.35423 0.896345 0
M  V30 394 H 35.0163 -4.14927 -0.405068 0
M  V30 395 H 33.6763 -3.10549 -0.948118 0
M  V30 396 H 34.6873 -4.56304 2.44963 0
M  V30 397 H 31.3643 -4.17377 -0.101507 0
M  V30 398 H 32.7543 -5.6287 3.66915 0
M  V30 399 N 35.4744 -0.807222 -1.35358 0
M  V30 400 C 36.8904 -0.491038 -1.51858 0
M  V30 401 C 37.0904 0.987648 -1.75635 0
M  V30 402 O 36.1464 1.77265 -1.79815 0
M  V30 403 C 37.4594 -1.33695 -2.69344 0
M  V30 404 C 39.0074 -1.33246 -2.83222 0
M  V30 405 C 39.4824 -2.1625 -4.03733 0
M  V30 406 N 40.9734 -2.1379 -4.10911 0
M  V30 407 C 41.7084 -2.74772 -5.03277 0
M  V30 408 N 41.2044 -3.44684 -6.0097 0
M  V30 409 N 42.9974 -2.6441 -4.96028 0
M  V30 410 H 35.1484 -1.76485 -1.18181 0
M  V30 411 H 37.4114 -0.751199 -0.578276 0
M  V30 412 H 37.1174 -2.38634 -2.58354 0
M  V30 413 H 36.9914 -0.990618 -3.6396 0
M  V30 414 H 39.3784 -0.290911 -2.93663 0
M  V30 415 H 39.4594 -1.71866 -1.89461 0
M  V30 416 H 39.1034 -3.20445 -3.94052 0
M  V30 417 H 39.0334 -1.74989 -4.96675 0
M  V30 418 H 41.5244 -1.62923 -3.40976 0
M  V30 419 H 41.8374 -3.88501 -6.68047 0
M  V30 420 H 40.1824 -3.48788 -6.01142 0
M  V30 421 H 43.3734 -2.0938 -4.18662 0
M  V30 422 H 43.5464 -3.12225 -5.6782 0
M  V30 423 N 36.9525 1.47285 -0.560781 0
M  V30 424 C 37.8825 2.32857 0.173105 0
M  V30 425 C 38.8635 1.44009 0.905281 0
M  V30 426 O 40.0485 1.7286 0.885046 0
M  V30 427 C 37.1785 3.25861 1.20133 0
M  V30 428 C 36.1325 4.23978 0.585388 0
M  V30 429 C 35.4585 5.06332 1.7185 0
M  V30 430 C 36.7585 5.20242 -0.463178 0
M  V30 431 H 38.4525 2.94466 -0.541307 0
M  V30 432 H 35.9985 1.41601 -0.261764 0
M  V30 433 H 37.9515 3.84569 1.72293 0
M  V30 434 H 36.6755 2.62315 1.94573 0
M  V30 435 H 35.3345 3.66501 0.085054 0
M  V30 436 H 34.9825 4.39186 2.45203 0
M  V30 437 H 34.6825 5.72762 1.31213 0
M  V30 438 H 36.2065 5.67899 2.24329 0
M  V30 439 H 37.6205 5.73293 -0.027502 0
M  V30 440 H 36.0175 5.94896 -0.788627 0
M  V30 441 H 37.0875 4.65504 -1.35773 0
M  V30 442 N 38.4306 0.297415 1.54768 0
M  V30 443 C 39.6796 -0.313669 1.99246 0
M  V30 444 C 39.9926 -1.55281 1.18942 0
M  V30 445 O 41.1986 -2.23825 1.5367 0
M  V30 446 C 39.6546 -0.609407 3.54703 0
M  V30 447 C 39.2626 0.611192 4.43811 0
M  V30 448 C 41.0066 -1.18188 4.07715 0
M  V30 449 C 38.9136 0.288805 5.90694 0
M  V30 450 H 37.8436 -0.120979 0.744231 0
M  V30 451 H 40.4946 0.40556 1.78962 0
M  V30 452 H 38.8766 -1.38813 3.70873 0
M  V30 453 H 40.0506 1.3875 4.39414 0
M  V30 454 H 38.3656 1.10205 4.01552 0
M  V30 455 H 40.9626 -1.43727 5.15021 0
M  V30 456 H 41.3056 -2.12299 3.58099 0
M  V30 457 H 41.8386 -0.464944 3.95074 0
M  V30 458 H 38.5776 1.19838 6.44453 0
M  V30 459 H 38.0976 -0.450305 5.98107 0
M  V30 460 H 39.7766 -0.110933 6.46905 0
M  V30 461 N 39.9087 -1.5758 0.0250728 0
M  V30 462 C 41.3197 -1.79476 -0.514323 0
M  V30 463 C 41.6707 -0.934956 -1.72491 0
M  V30 464 O 40.7957 -0.144245 -2.15919 0
M  V30 465 C 41.3907 -3.25503 -0.939842 0
M  V30 466 C 39.9497 -3.48408 -1.42438 0
M  V30 467 C 39.0967 -2.74583 -0.387201 0
M  V30 468 H 42.0477 -1.567 0.25113 0
M  V30 469 H 42.0687 -3.34992 -1.80445 0
M  V30 470 H 41.5807 -3.88056 -0.0585628 0
M  V30 471 H 39.6817 -2.91103 -2.32572 0
M  V30 472 H 39.7947 -4.57119 -1.43455 0
M  V30 473 H 38.1587 -2.39942 -0.854409 0
M  V30 474 H 38.9417 -3.39849 0.485543 0
M  V30 475 N 41.3868 0.248026 -1.55636 0
M  V30 476 C 42.6328 0.97767 -1.77678 0
M  V30 477 C 42.9658 1.85016 -0.590135 0
M  V30 478 O 42.2408 1.90095 0.411611 0
M  V30 479 C 42.5238 1.83914 -3.09593 0
M  V30 480 C 42.3768 0.99491 -4.38659 0
M  V30 481 C 43.6958 2.82183 -3.37729 0
M  V30 482 H 40.8148 0.354005 -0.646413 0
M  V30 483 H 43.4568 0.248253 -1.88371 0
M  V30 484 H 41.6068 2.46104 -3.00608 0
M  V30 485 H 43.2788 0.391789 -4.59633 0
M  V30 486 H 41.5218 0.299231 -4.32767 0
M  V30 487 H 42.1928 1.63145 -5.2734 0
M  V30 488 H 44.6688 2.30129 -3.4667 0
M  V30 489 H 43.5448 3.39582 -4.31249 0
M  V30 490 H 43.8058 3.58588 -2.58586 0
M  V30 491 N 42.8649 1.48995 0.513639 0
M  V30 492 C 44.0899 1.61792 1.29762 0
M  V30 493 C 44.5149 0.284475 1.85936 0
M  V30 494 O 43.8729 -0.746185 1.65232 0
M  V30 495 C 43.9209 2.67993 2.41272 0
M  V30 496 O 43.0249 2.26287 3.44772 0
M  V30 497 H 42.3659 0.541963 0.38363 0
M  V30 498 H 44.8959 1.95097 0.616307 0
M  V30 499 H 44.9059 2.89772 2.87221 0
M  V30 500 H 43.5809 3.64791 1.9975 0
M  V30 501 H 42.1579 2.14788 3.04829 0
M  V30 502 N 44.343 -0.763751 1.37857 0
M  V30 503 C 45.589 -1.52483 1.33704 0
M  V30 504 C 45.922 -1.94051 -0.0759612 0
M  V30 505 O 45.197 -1.64675 -1.03501 0
M  V30 506 C 45.48 -2.78441 2.28348 0
M  V30 507 C 45.333 -2.43075 3.78463 0
M  V30 508 C 46.652 -3.80415 2.21298 0
M  V30 509 H 43.771 -0.553169 0.487005 0
M  V30 510 H 46.413 -0.875562 1.68624 0
M  V30 511 H 44.563 -3.33842 1.987 0
M  V30 512 H 46.235 -1.93527 4.18742 0
M  V30 513 H 44.478 -1.75666 3.96641 0
M  V30 514 H 45.149 -3.33149 4.40132 0
M  V30 515 H 47.625 -3.34527 2.47449 0
M  V30 516 H 46.501 -4.66257 2.89647 0
M  V30 517 H 46.762 -4.25262 1.20849 0
M  V30 518 N 45.8211 -1.22559 -0.990812 0
M  V30 519 C 46.7841 -0.998863 -2.0629 0
M  V30 520 C 47.7841 0.0354834 -1.60761 0
M  V30 521 O 48.9741 -0.203231 -1.7301 0
M  V30 522 C 46.1061 -0.509203 -3.37076 0
M  V30 523 H 47.2991 -1.95014 -2.27837 0
M  V30 524 H 44.8521 -1.04456 -1.16269 0
M  V30 525 H 45.5871 0.446335 -3.21214 0
M  V30 526 H 45.3721 -1.25547 -3.71457 0
M  V30 527 H 46.8621 -0.370888 -4.1595 0
M  V30 528 N 47.2992 1.18797 -1.03562 0
M  V30 529 C 48.2292 2.24472 -0.643019 0
M  V30 530 C 49.2102 1.66433 0.351283 0
M  V30 531 O 50.3952 1.92803 0.232505 0
M  V30 532 C 47.5252 3.473 4.24935e-05 0
M  V30 533 C 46.4792 4.18055 -0.917257 0
M  V30 534 C 45.8052 5.34519 -0.138941 0
M  V30 535 C 47.1052 4.72109 -2.23407 0
M  V30 536 H 48.7992 2.57566 -1.52643 0
M  V30 537 H 46.3452 1.23806 -0.735394 0
M  V30 538 H 48.2982 4.20426 0.286383 0
M  V30 539 H 47.0222 3.13424 0.918299 0
M  V30 540 H 45.6812 3.46821 -1.1879 0
M  V30 541 H 45.3292 4.96891 0.781562 0
M  V30 542 H 45.0292 5.82794 -0.750005 0
M  V30 543 H 46.5532 6.10438 0.1405 0
M  V30 544 H 47.9672 5.36955 -2.00879 0
M  V30 545 H 46.3642 5.30897 -2.79765 0
M  V30 546 H 47.4342 3.89807 -2.88407 0
M  V30 547 N 48.7773 0.814389 1.34928 0
M  V30 548 C 50.0053 0.411136 2.02774 0
M  V30 549 C 50.4203 -0.980316 1.61354 0
M  V30 550 O 49.7773 -1.63299 0.814847 0
M  V30 551 C 49.8283 0.493865 3.58111 0
M  V30 552 O 49.5493 1.83047 3.98027 0
M  V30 553 C 51.0503 0.0844174 4.4322 0
M  V30 554 H 48.2703 0.166037 0.650133 0
M  V30 555 H 50.8143 1.10018 1.72384 0
M  V30 556 H 48.9693 -0.147006 3.87121 0
M  V30 557 H 49.3833 1.79872 4.92693 0
M  V30 558 H 50.8573 0.193404 5.51661 0
M  V30 559 H 51.3343 -0.97113 4.28329 0
M  V30 560 H 51.9403 0.69875 4.19521 0
M  V30 561 N 50.2554 -1.46986 0.568584 0
M  V30 562 C 51.4834 -2.0683 0.0539956 0
M  V30 563 C 51.8984 -1.41953 -1.24478 0
M  V30 564 O 51.2554 -0.519933 -1.74937 0
M  V30 565 C 51.3064 -3.61254 -0.133362 0
M  V30 566 O 51.0274 -4.237 1.11399 0
M  V30 567 C 52.5284 -4.37992 -0.683927 0
M  V30 568 H 49.7484 -0.669058 0.0510141 0
M  V30 569 H 52.2924 -1.88824 0.785234 0
M  V30 570 H 50.4474 -3.78735 -0.81477 0
M  V30 571 H 50.8614 -5.16388 0.91888 0
M  V30 572 H 52.3354 -5.46684 -0.764263 0
M  V30 573 H 52.8124 -4.05058 -1.69778 0
M  V30 574 H 53.4184 -4.25283 -0.0378494 0
M  V30 575 N 51.7335 -0.305618 -1.54608 0
M  V30 576 C 52.9795 0.302746 -2.00528 0
M  V30 577 C 53.3125 1.53184 -1.19367 0
M  V30 578 O 52.5875 1.92598 -0.271321 0
M  V30 579 C 52.8705 0.654756 -3.54097 0
M  V30 580 C 52.7235 -0.583793 -4.45995 0
M  V30 581 C 54.0425 1.47947 -4.14487 0
M  V30 582 H 51.1615 0.108564 -0.72896 0
M  V30 583 H 53.8035 -0.418634 -1.85331 0
M  V30 584 H 51.9535 1.26935 -3.67178 0
M  V30 585 H 53.6255 -1.22224 -4.44814 0
M  V30 586 H 51.8685 -1.21615 -4.16404 0
M  V30 587 H 52.5395 -0.293287 -5.5122 0
M  V30 588 H 55.0155 0.96013 -4.04871 0
M  V30 589 H 53.8915 1.69454 -5.22088 0
M  V30 590 H 54.1525 2.47011 -3.66658 0
M  V30 591 N 53.2116 1.57565 -0.0334293 0
M  V30 592 C 54.4516 1.93844 0.648379 0
M  V30 593 C 54.8156 0.910387 1.69044 0
M  V30 594 O 56.0166 1.15952 2.42505 0
M  V30 595 C 54.2876 3.35017 1.24492 0
M  V30 596 S 55.8466 3.93229 1.94721 0
M  V30 597 H 52.6646 0.678231 0.213364 0
M  V30 598 H 55.2666 1.95254 -0.0981253 0
M  V30 599 H 53.9706 4.07652 0.474128 0
M  V30 600 H 53.5016 3.37061 2.02864 0
M  V30 601 H 55.5166 3.77014 3.22606 0
M  V30 602 N 54.6897 -0.239769 1.55765 0
M  V30 603 C 55.6527 -1.28038 1.90103 0
M  V30 604 C 56.6527 -1.40723 0.778055 0
M  V30 605 O 57.8427 -1.39301 1.04599 0
M  V30 606 C 54.9747 -2.65702 2.13577 0
M  V30 607 H 56.1677 -0.988048 2.83157 0
M  V30 608 H 53.7207 -0.479382 1.48767 0
M  V30 609 H 54.4557 -3.00063 1.23015 0
M  V30 610 H 54.2407 -2.57875 2.95369 0
M  V30 611 H 55.7307 -3.40828 2.41301 0
M  V30 612 N 56.1678 -1.49265 -0.50573 0
M  V30 613 C 57.1308 -1.65075 -1.59006 0
M  V30 614 C 58.1308 -0.522768 -1.52065 0
M  V30 615 O 59.3208 -0.789117 -1.55302 0
M  V30 616 C 56.4528 -1.64369 -2.98656 0
M  V30 617 H 57.6458 -2.61784 -1.46319 0
M  V30 618 H 55.1988 -1.38226 -0.729616 0
M  V30 619 H 55.9338 -0.692272 -3.16825 0
M  V30 620 H 55.7188 -2.46282 -3.05103 0
M  V30 621 H 57.2088 -1.78674 -3.77446 0
M  V30 622 N 57.6459 0.756429 -1.3826 0
M  V30 623 C 58.5759 1.88374 -1.37976 0
M  V30 624 C 59.5569 1.68311 -0.246082 0
M  V30 625 O 60.7419 1.88944 -0.44874 0
M  V30 626 C 57.8719 3.25864 -1.20125 0
M  V30 627 C 56.8259 3.60523 -2.30666 0
M  V30 628 C 56.1519 4.9672 -1.97923 0
M  V30 629 C 57.4519 3.65692 -3.72916 0
M  V30 630 H 59.1459 1.88869 -2.32312 0
M  V30 631 H 56.6919 0.907272 -1.11824 0
M  V30 632 H 58.6449 4.0438 -1.18552 0
M  V30 633 H 57.3689 3.25841 -0.222498 0
M  V30 634 H 56.0279 2.84324 -2.3142 0
M  V30 635 H 55.6759 4.93253 -0.985393 0
M  V30 636 H 55.3759 5.20878 -2.71955 0
M  V30 637 H 56.8999 5.77618 -1.97964 0
M  V30 638 H 58.3139 4.34328 -3.74208 0
M  V30 639 H 56.7109 4.01358 -4.4613 0
M  V30 640 H 57.7809 2.65987 -4.05436 0
M  V30 641 N 59.124 1.23083 0.984299 0
M  V30 642 C 60.535 1.05609 1.5396 0
M  V30 643 C 60.886 -0.377793 1.92528 0
M  V30 644 O 60.011 -1.26398 1.75649 0
M  V30 645 C 60.606 1.91087 2.7977 0
M  V30 646 C 59.165 1.77885 3.31713 0
M  V30 647 C 58.312 1.87028 2.04733 0
M  V30 648 H 61.263 1.36802 0.804419 0
M  V30 649 H 61.284 1.43336 3.5247 0
M  V30 650 H 60.796 2.9544 2.51668 0
M  V30 651 H 58.897 0.762995 3.64704 0
M  V30 652 H 59.01 2.61047 4.01735 0
M  V30 653 H 57.374 1.30565 2.18689 0
M  V30 654 H 58.157 2.92929 1.79017 0
M  V30 655 N 60.6021 -1.18246 1.0419 0
M  V30 656 C 61.8271 -1.92736 0.765996 0
M  V30 657 C 62.2521 -1.75728 -0.67091 0
M  V30 658 O 61.6101 -1.06825 -1.46486 0
M  V30 659 C 61.6581 -3.42148 1.13875 0
M  V30 660 O 60.7621 -4.11548 0.264954 0
M  V30 661 H 60.1031 -0.601238 0.281797 0
M  V30 662 H 62.6331 -1.49942 1.39207 0
M  V30 663 H 62.6431 -3.92858 1.1012 0
M  V30 664 H 61.3181 -3.53848 2.18551 0
M  V30 665 H 59.8951 -3.71137 0.362226 0
M  V30 666 N 62.0802 -0.821533 -1.34494 0
M  V30 667 C 63.3052 -0.420873 -2.03085 0
M  V30 668 C 63.7302 0.964915 -1.61465 0
M  V30 669 O 63.0882 1.62763 -0.798607 0
M  V30 670 C 63.1362 -0.529414 -3.56693 0
M  V30 671 O 62.2402 0.451302 -4.09923 0
M  V30 672 H 61.5812 -0.173489 -0.640935 0
M  V30 673 H 64.1112 -1.11157 -1.71771 0
M  V30 674 H 64.1212 -0.404671 -4.05988 0
M  V30 675 H 62.7962 -1.54014 -3.86332 0
M  V30 676 H 61.3732 0.285558 -3.71805 0
M  V30 677 N 63.5583 1.46682 -0.576371 0
M  V30 678 C 64.7863 2.06798 -0.0649635 0
M  V30 679 C 65.2013 1.42612 1.23723 0
M  V30 680 O 64.5583 0.529203 1.74659 0
M  V30 681 C 64.6093 3.6132 0.114202 0
M  V30 682 O 64.3303 4.23104 -1.13644 0
M  V30 683 C 65.8313 4.38349 0.66069 0
M  V30 684 H 63.0513 0.668778 -0.0545616 0
M  V30 685 H 65.5953 1.88404 -0.795237 0
M  V30 686 H 63.7503 3.79162 0.794673 0
M  V30 687 H 64.1643 5.15894 -0.946253 0
M  V30 688 H 65.6383 5.47081 0.73526 0
M  V30 689 H 66.1153 4.05953 1.67627 0
M  V30 690 H 66.7213 4.25297 0.0152951 0
M  V30 691 N 65.0364 0.313813 1.54444 0
M  V30 692 C 65.9994 -0.54379 2.22656 0
M  V30 693 C 66.9994 -1.05124 1.21678 0
M  V30 694 O 68.1894 -0.945225 1.46325 0
M  V30 695 C 65.3214 -1.75427 2.92298 0
M  V30 696 H 66.5144 0.0523599 2.99854 0
M  V30 697 H 64.0674 0.0647834 1.56166 0
M  V30 698 H 64.8024 -2.38991 2.19211 0
M  V30 699 H 64.5874 -1.39791 3.66334 0
M  V30 700 H 66.0774 -2.36325 3.44297 0
M  V30 701 N 66.5145 -1.57545 0.0417849 0
M  V30 702 C 67.7445 -1.96339 -0.642995 0
M  V30 703 C 68.1525 -0.917536 -1.65463 0
M  V30 704 O 67.4955 0.107747 -1.83384 0
M  V30 705 C 67.5575 -3.31333 -1.39494 0
M  V30 706 C 67.2215 -4.53796 -0.540204 0
M  V30 707 C 68.2185 -5.19553 0.189806 0
M  V30 708 C 65.9035 -5.0006 -0.473886 0
M  V30 709 C 67.8975 -6.29904 0.974674 0
M  V30 710 C 65.5845 -6.10289 0.314677 0
M  V30 711 C 66.5825 -6.75072 1.03765 0
M  V30 712 O 66.2705 -7.83183 1.81327 0
M  V30 713 H 66.0025 -0.651241 -0.181277 0
M  V30 714 H 68.5565 -2.05148 0.101665 0
M  V30 715 H 66.7865 -3.19052 -2.18502 0
M  V30 716 H 68.4755 -3.54942 -1.96904 0
M  V30 717 H 69.2415 -4.84774 0.147981 0
M  V30 718 H 65.1205 -4.49433 -1.0262 0
M  V30 719 H 68.6645 -6.80401 1.5395 0
M  V30 720 H 64.5615 -6.44506 0.358174 0
M  V30 721 H 65.3295 -7.99913 1.73438 0
M  V30 722 N 67.9926 0.231505 -1.5589 0
M  V30 723 C 68.9556 1.27028 -1.90779 0
M  V30 724 C 69.9556 1.40308 -0.785507 0
M  V30 725 O 71.1456 1.38744 -1.05336 0
M  V30 726 C 68.2776 2.64566 -2.14983 0
M  V30 727 H 69.4706 0.973017 -2.83677 0
M  V30 728 H 67.0236 0.471486 -1.49019 0
M  V30 729 H 67.7586 2.99406 -1.24604 0
M  V30 730 H 67.5436 2.56305 -2.96732 0
M  V30 731 H 69.0336 3.39543 -2.43105 0
M  V30 732 N 69.4707 1.49531 0.497807 0
M  V30 733 C 70.4337 1.65916 1.58128 0
M  V30 734 C 71.4337 0.530825 1.51786 0
M  V30 735 O 72.6237 0.797342 1.54881 0
M  V30 736 C 69.7557 1.65951 2.9778 0
M  V30 737 H 70.9487 2.62556 1.44929 0
M  V30 738 H 68.5017 1.38611 0.722275 0
M  V30 739 H 69.2367 0.709065 3.16453 0
M  V30 740 H 69.0217 2.47897 3.03792 0
M  V30 741 H 70.5117 1.80673 3.76493 0
M  V30 742 N 70.9488 -0.749086 1.3866 0
M  V30 743 C 72.2258 -1.4992 1.25632 0
M  V30 744 C 72.6058 -2.10633 -0.140317 0
M  V30 745 O 71.9538 -1.97437 -1.15025 0
M  V30 746 C 72.1638 -2.56195 2.36992 0
M  V30 747 C 73.5118 -3.22972 2.75634 0
M  V30 748 O 74.5358 -2.66502 2.36337 0
M  V30 749 O 73.3948 -4.25122 3.43415 0
M  V30 750 H 70.4888 -0.665067 0.491544 0
M  V30 751 H 73.0348 -0.784113 1.50498 0
M  V30 752 H 71.8068 -2.09612 3.30422 0
M  V30 753 H 71.4298 -3.35279 2.13714 0
M  V30 754 N 72.4269 -1.23603 -0.977757 0
M  V30 755 C 73.6549 -1.09646 -1.75458 0
M  V30 756 C 74.0699 0.351859 -1.85492 0
M  V30 757 O 73.4269 1.24327 -1.336 0
M  V30 758 C 73.4779 -1.71895 -3.18016 0
M  V30 759 O 73.1989 -3.11063 -3.08498 0
M  V30 760 C 74.6999 -1.63415 -4.12081 0
M  V30 761 H 71.9199 -0.38359 -0.550545 0
M  V30 762 H 74.4639 -1.63507 -1.22824 0
M  V30 763 H 72.6189 -1.22061 -3.67668 0
M  V30 764 H 73.0329 -3.41305 -3.9826 0
M  V30 765 H 74.5069 -2.11669 -5.09804 0
M  V30 766 H 74.9839 -0.593462 -4.35172 0
M  V30 767 H 75.5899 -2.12628 -3.68334 0
M  V30 768 N 73.905 1.17692 -1.04816 0
M  V30 769 C 75.316 1.69501 -0.782698 0
M  V30 770 C 75.667 1.83456 0.695577 0
M  V30 771 O 74.792 1.51942 1.54086 0
M  V30 772 C 75.387 3.07874 -1.41419 0
M  V30 773 C 73.946 3.56864 -1.19686 0
M  V30 774 C 73.093 2.3322 -1.50012 0
M  V30 775 H 76.044 1.02262 -1.2136 0
M  V30 776 H 76.065 3.71528 -0.821428 0
M  V30 777 H 75.577 2.97685 -2.49009 0
M  V30 778 H 73.678 3.72337 -0.140043 0
M  V30 779 H 73.791 4.39851 -1.89916 0
M  V30 780 H 72.155 2.37501 -0.920071 0
M  V30 781 H 72.938 2.25644 -2.58727 0
M  V30 782 N 75.3831 0.828654 1.34056 0
M  V30 783 C 76.7941 0.477534 1.8049 0
M  V30 784 C 77.1451 -1.00258 1.6865 0
M  V30 785 O 76.2701 -1.78057 1.22982 0
M  V30 786 C 76.8651 0.860018 3.27703 0
M  V30 787 C 75.4241 0.561185 3.72193 0
M  V30 788 C 74.5711 1.07385 2.55663 0
M  V30 789 H 77.5221 1.0183 1.21722 0
M  V30 790 H 77.5431 0.166038 3.80138 0
M  V30 791 H 77.0551 1.93731 3.36288 0
M  V30 792 H 75.1561 -0.506465 3.69142 0
M  V30 793 H 75.2691 1.10926 4.66082 0
M  V30 794 H 73.6331 0.495149 2.49841 0
M  V30 795 H 74.4161 2.15771 2.67016 0
M  V30 796 N 76.8612 -1.46375 0.584142 0
M  V30 797 C 78.0892 -2.06761 0.0759296 0
M  V30 798 C 78.5042 -1.43266 -1.22965 0
M  V30 799 O 77.8612 -0.538458 -1.74376 0
M  V30 800 C 77.9122 -3.61375 -0.0950384 0
M  V30 801 O 77.6332 -4.22495 1.15887 0
M  V30 802 C 79.1342 -4.38693 -0.637434 0
M  V30 803 H 76.3542 -0.668479 0.0581075 0
M  V30 804 H 78.8982 -1.8798 0.805218 0
M  V30 805 H 77.0532 -3.79578 -0.774554 0
M  V30 806 H 77.4672 -5.15385 0.973598 0
M  V30 807 H 78.9412 -5.47464 -0.706237 0
M  V30 808 H 79.4182 -4.06836 -1.65472 0
M  V30 809 H 80.0242 -4.25299 0.00725967 0
M  V30 810 N 78.3393 -0.321999 -1.54275 0
M  V30 811 C 79.7503 0.166384 -1.85957 0
M  V30 812 C 80.1013 1.51747 -1.24367 0
M  V30 813 O 79.2263 2.09317 -0.549124 0
M  V30 814 C 79.8213 0.308681 -3.37391 0
M  V30 815 C 78.3803 0.741286 -3.69028 0
M  V30 816 C 77.5273 -0.137937 -2.76957 0
M  V30 817 H 80.4783 -0.542335 -1.49146 0
M  V30 818 H 80.4993 1.13984 -3.63026 0
M  V30 819 H 80.0113 -0.674809 -3.82188 0
M  V30 820 H 78.1123 1.73458 -3.29762 0
M  V30 821 H 78.2253 0.546118 -4.75977 0
M  V30 822 H 76.5893 0.386251 -2.51754 0
M  V30 823 H 77.3723 -1.11816 -3.2458 0
M  V30 824 N 79.8174 1.5752 -0.0501392 0
M  V30 825 C 80.7674 2.07981 0.934231 0
M  V30 826 C 81.7514 0.984745 1.27246 0
M  V30 827 O 82.9434 1.24809 1.25506 0
M  V30 828 C 80.0724 2.62751 2.20945 0
M  V30 829 C 79.1584 3.79225 1.89865 0
M  V30 830 N 79.5494 4.89036 1.29142 0
M  V30 831 C 77.8474 3.88111 2.19741 0
M  V30 832 C 78.5484 5.70084 1.15669 0
M  V30 833 N 77.5244 5.17659 1.65923 0
M  V30 834 H 81.3264 2.90277 0.460053 0
M  V30 835 H 78.8404 1.61665 0.15434 0
M  V30 836 H 80.8374 2.97205 2.9236 0
M  V30 837 H 79.4974 1.81894 2.6897 0
M  V30 838 H 80.5084 5.08854 0.963756 0
M  V30 839 H 77.1854 3.18194 2.70293 0
M  V30 840 H 78.5754 6.68395 0.685356 0
M  V30 841 N 81.2955 -0.223234 1.56011 0
M  V30 842 C 82.2255 -1.27988 1.95298 0
M  V30 843 C 83.2065 -1.48976 0.820979 0
M  V30 844 O 84.3915 -1.61188 1.08315 0
M  V30 845 C 81.5215 -2.63 2.26822 0
M  V30 846 C 80.4755 -2.56671 3.42497 0
M  V30 847 C 79.8015 -3.95697 3.59622 0
M  V30 848 C 81.1015 -2.11601 4.77517 0
M  V30 849 H 82.7955 -0.953525 2.8381 0
M  V30 850 H 80.3415 -0.457244 1.36548 0
M  V30 851 H 82.2945 -3.37077 2.52898 0
M  V30 852 H 81.0185 -2.9732 1.35161 0
M  V30 853 H 79.6775 -1.85051 3.16467 0
M  V30 854 H 79.3255 -4.27322 2.6534 0
M  V30 855 H 79.0255 -3.92345 4.37424 0
M  V30 856 H 80.5495 -4.71438 3.88044 0
M  V30 857 H 81.9635 -2.7542 5.02809 0
M  V30 858 H 80.3605 -2.19311 5.5859 0
M  V30 859 H 81.4305 -1.06824 4.72987 0
M  V30 860 N 82.7736 -1.49793 -0.48987 0
M  V30 861 C 84.0506 -1.50348 -1.25119 0
M  V30 862 C 84.4306 -0.237466 -2.0976 0
M  V30 863 O 83.7786 0.77981 -2.14782 0
M  V30 864 C 83.9886 -2.78872 -2.09837 0
M  V30 865 C 85.3366 -3.288 -2.68655 0
M  V30 866 O 86.3606 -2.80065 -2.20096 0
M  V30 867 O 85.2196 -4.13707 -3.57083 0
M  V30 868 H 82.3136 -0.602242 -0.566775 0
M  V30 869 H 84.8596 -1.62067 -0.503229 0
M  V30 870 H 83.6316 -3.62499 -1.47343 0
M  V30 871 H 83.2546 -2.70066 -2.91805 0
M  V30 872 N 84.2517 0.741722 -1.39055 0
M  V30 873 C 85.2147 1.83733 -1.37021 0
M  V30 874 C 86.2147 1.58542 -0.268534 0
M  V30 875 O 87.4047 1.66067 -0.526076 0
M  V30 876 C 84.5367 3.2141 -1.13617 0
M  V30 877 H 85.7297 1.86941 -2.34506 0
M  V30 878 H 83.2827 0.944676 -1.24521 0
M  V30 879 H 84.0177 3.23865 -0.167863 0
M  V30 880 H 83.8027 3.4109 -1.93391 0
M  V30 881 H 85.2927 4.01477 -1.14918 0
M  V30 882 N 85.7298 1.2412 0.971189 0
M  V30 883 C 86.9788 1.07284 1.70801 0
M  V30 884 C 87.2918 -0.388902 1.91695 0
M  V30 885 O 88.4978 -0.677379 2.62914 0
M  V30 886 C 86.9538 1.87145 3.07416 0
M  V30 887 C 86.5618 3.37707 2.94377 0
M  V30 888 C 88.3058 1.78828 3.84995 0
M  V30 889 C 86.2128 4.09925 4.26281 0
M  V30 890 H 85.1428 0.397854 0.64049 0
M  V30 891 H 87.7938 1.4817 1.0825 0
M  V30 892 H 86.1758 1.39071 3.70777 0
M  V30 893 H 87.3498 3.93335 2.4005 0
M  V30 894 H 85.6648 3.46938 2.30267 0
M  V30 895 H 88.2618 2.30089 4.82662 0
M  V30 896 H 88.6048 0.75284 4.09436 0
M  V30 897 H 89.1378 2.24563 3.28354 0
M  V30 898 H 85.8768 5.13813 4.07033 0
M  V30 899 H 85.3968 3.59083 4.80437 0
M  V30 900 H 87.0758 4.1673 4.94919 0
M  V30 901 N 87.2079 -1.17134 1.05439 0
M  V30 902 C 88.1179 -2.24878 0.668365 0
M  V30 903 C 89.1339 -1.71186 -0.311687 0
M  V30 904 O 90.3099 -2.00738 -0.163161 0
M  V30 905 C 87.3749 -3.46662 0.051648 0
M  V30 906 C 86.4359 -4.15429 1.08246 0
M  V30 907 C 85.6689 -5.31399 0.495082 0
M  V30 908 O 85.8919 -5.66153 -0.694743 0
M  V30 909 O 84.8259 -5.89187 1.23056 0
M  V30 910 H 88.6519 -2.60189 1.56637 0
M  V30 911 H 86.2369 -1.24482 0.826104 0
M  V30 912 H 88.1189 -4.20394 -0.290966 0
M  V30 913 H 86.7939 -3.13142 -0.819971 0
M  V30 914 H 85.7009 -3.43704 1.47711 0
M  V30 915 H 87.0339 -4.52982 1.92532 0
M  V30 916 N 88.686 -0.835752 -1.33615 0
M  V30 917 C 90.102 -0.523139 -1.50783 0
M  V30 918 C 90.302 0.950171 -1.77691 0
M  V30 919 O 89.358 1.73411 -1.83534 0
M  V30 920 C 90.671 -1.39378 -2.66448 0
M  V30 921 C 92.219 -1.39223 -2.80332 0
M  V30 922 C 92.694 -2.24765 -3.99055 0
M  V30 923 N 94.185 -2.22458 -4.06284 0
M  V30 924 C 94.92 -2.85386 -4.97336 0
M  V30 925 N 94.416 -3.57354 -5.93523 0
M  V30 926 N 96.209 -2.74872 -4.90308 0
M  V30 927 H 88.36 -1.78952 -1.14411 0
M  V30 928 H 90.623 -0.763297 -0.562212 0
M  V30 929 H 90.329 -2.44061 -2.53234 0
M  V30 930 H 90.203 -1.0676 -3.61776 0
M  V30 931 H 92.59 -0.353136 -2.92979 0
M  V30 932 H 92.671 -1.75846 -1.85773 0
M  V30 933 H 92.315 -3.28732 -3.87167 0
M  V30 934 H 92.245 -1.85485 -4.92852 0
M  V30 935 H 94.736 -1.70119 -3.37443 0
M  V30 936 H 95.049 -4.02584 -6.59656 0
M  V30 937 H 93.394 -3.61461 -5.93608 0
M  V30 938 H 96.585 -2.18213 -4.14126 0
M  V30 939 H 96.758 -3.24199 -5.61069 0
M  V30 940 N 90.1641 1.46063 -0.591896 0
M  V30 941 C 91.3891 2.07226 -0.0850314 0
M  V30 942 C 91.8141 1.43625 1.21463 0
M  V30 943 O 91.1721 0.523305 1.73583 0
M  V30 944 C 91.2201 3.60554 0.0576567 0
M  V30 945 O 90.3241 3.97128 1.11188 0
M  V30 946 H 89.6651 0.660615 -0.0669568 0
M  V30 947 H 92.1951 1.8756 -0.81745 0
M  V30 948 H 92.2051 4.07165 0.2609 0
M  V30 949 H 90.8801 4.06235 -0.891416 0
M  V30 950 H 89.4571 3.62213 0.886356 0
M  V30 951 N 91.6422 0.330177 1.54103 0
M  V30 952 C 92.5722 -0.525353 2.27513 0
M  V30 953 C 93.5532 -1.11383 1.2856 0
M  V30 954 O 94.7382 -1.13773 1.57383 0
M  V30 955 C 91.8682 -1.6831 3.03791 0
M  V30 956 C 90.8222 -1.2236 4.10137 0
M  V30 957 C 90.1482 -2.46882 4.74293 0
M  V30 958 C 91.4482 -0.333697 5.21233 0
M  V30 959 H 93.1422 0.087013 2.99274 0
M  V30 960 H 90.6882 0.0432893 1.43935 0
M  V30 961 H 92.6412 -2.28795 3.5388 0
M  V30 962 H 91.3652 -2.32216 2.29659 0
M  V30 963 H 90.0242 -0.64165 3.60941 0
M  V30 964 H 89.6722 -3.09165 3.96769 0
M  V30 965 H 89.3722 -2.16825 5.46133 0
M  V30 966 H 90.8962 -3.08117 5.27159 0
M  V30 967 H 92.3102 -0.845013 5.67038 0
M  V30 968 H 90.7072 -0.125612 5.99969 0
M  V30 969 H 91.7772 0.633724 4.80741 0
M  V30 970 N 93.1203 -1.57491 0.0584922 0
M  V30 971 C 94.5363 -1.56792 -0.298091 0
M  V30 972 C 94.7363 -1.06679 -1.70944 0
M  V30 973 O 93.7923 -0.726672 -2.41818 0
M  V30 974 C 95.1053 -3.00461 -0.119879 0
M  V30 975 C 96.6533 -3.1242 -0.190428 0
M  V30 976 C 97.1283 -4.57982 -0.0406567 0
M  V30 977 N 98.6193 -4.63099 -0.0966958 0
M  V30 978 C 99.3543 -5.734 -0.00502943 0
M  V30 979 N 98.8503 -6.9266 0.139402 0
M  V30 980 N 100.643 -5.62067 -0.0611391 0
M  V30 981 H 92.7943 -1.88386 0.98105 0
M  V30 982 H 95.0573 -0.867865 0.381463 0
M  V30 983 H 94.7633 -3.41187 0.85349 0
M  V30 984 H 94.6373 -3.66843 -0.877833 0
M  V30 985 H 97.0243 -2.71589 -1.15427 0
M  V30 986 H 97.1053 -2.48702 0.598405 0
M  V30 987 H 96.7493 -4.995 0.919897 0
M  V30 988 H 96.6793 -5.19715 -0.848727 0
M  V30 989 H 99.1703 -3.77331 -0.207277 0
M  V30 990 H 99.4833 -7.72536 0.201855 0
M  V30 991 H 97.8283 -6.94781 0.174586 0
M  V30 992 H 101.019 -4.67782 -0.172583 0
M  V30 993 H 101.192 -6.47999 0.0137562 0
M  V30 994 N 94.5984 0.214957 -1.56127 0
M  V30 995 C 95.8754 0.963093 -1.70247 0
M  V30 996 C 96.2554 2.02166 -0.60764 0
M  V30 997 O 95.6034 2.25244 0.384385 0
M  V30 998 C 95.8134 1.56756 -3.11815 0
M  V30 999 C 97.1614 2.0573 -3.7143 0
M  V30 1000 O 98.1854 1.66637 -3.14818 0
M  V30 1001 O 97.0444 2.77603 -4.70743 0
M  V30 1002 H 94.1384 0.450321 -0.693643 0
M  V30 1003 H 96.6844 0.206219 -1.68442 0
M  V30 1004 H 95.4564 0.803533 -3.82961 0
M  V30 1005 H 95.0794 2.3898 -3.17765 0
M  V30 1006 N 96.0765 1.50051 0.48192 0
M  V30 1007 C 97.3045 1.64237 1.25832 0
M  V30 1008 C 97.7195 0.321336 1.86045 0
M  V30 1009 O 97.0765 -0.695478 1.68729 0
M  V30 1010 C 97.1275 2.72548 2.37487 0
M  V30 1011 O 96.8485 3.99529 1.79745 0
M  V30 1012 C 98.3495 2.9761 3.28547 0
M  V30 1013 H 95.5695 0.55237 0.380957 0
M  V30 1014 H 98.1135 1.96207 0.576467 0
M  V30 1015 H 96.2685 2.43303 3.01467 0
M  V30 1016 H 96.6825 4.59342 2.5319 0
M  V30 1017 H 98.1565 3.77084 4.03127 0
M  V30 1018 H 98.6335 2.0826 3.86684 0
M  V30 1019 H 99.2395 3.28345 2.70314 0
M  V30 1020 N 97.5546 -0.734337 1.39446 0
M  V30 1021 C 98.7796 -1.52866 1.40167 0
M  V30 1022 C 99.2046 -1.881 -0.00171513 0
M  V30 1023 O 98.5626 -1.51957 -0.988879 0
M  V30 1024 C 98.6106 -2.79235 2.28167 0
M  V30 1025 O 97.7146 -3.75185 1.71201 0
M  V30 1026 H 97.0556 -0.461618 0.477289 0
M  V30 1027 H 99.5856 -0.905949 1.8345 0
M  V30 1028 H 99.5956 -3.27963 2.42702 0
M  V30 1029 H 98.2706 -2.52923 3.30156 0
M  V30 1030 H 96.8476 -3.33958 1.65912 0
M  V30 1031 N 99.0327 -1.24633 -0.964593 0
M  V30 1032 C 100.444 -1.08045 -1.5226 0
M  V30 1033 C 100.795 0.347116 -1.93105 0
M  V30 1034 O 99.9197 1.23588 -1.77637 0
M  V30 1035 C 100.515 -1.95514 -2.76695 0
M  V30 1036 C 99.0737 -1.8314 -3.28841 0
M  V30 1037 C 98.2207 -1.90262 -2.01732 0
M  V30 1038 H 101.172 -1.38064 -0.782553 0
M  V30 1039 H 101.193 -1.48925 -3.50145 0
M  V30 1040 H 100.705 -2.99407 -2.46936 0
M  V30 1041 H 98.8057 -0.82092 -3.63444 0
M  V30 1042 H 98.9187 -2.67406 -3.97531 0
M  V30 1043 H 97.2827 -1.34027 -2.16584 0
M  V30 1044 H 98.0657 -2.9574 -1.74334 0
M  V30 1045 N 100.511 1.16574 -1.06058 0
M  V30 1046 C 101.759 1.86677 -0.77434 0
M  V30 1047 C 102.08 1.81959 0.701147 0
M  V30 1048 O 101.35 1.2515 1.50713 0
M  V30 1049 H 99.9298 0.691134 -0.283449 0
M  V30 1050 H 102.592 1.41378 -1.34158 0
M  V30 1051 H 101.688 2.92181 -1.09711 0
M  V30 1052 N 101.989 0.842826 1.3317 0
M  V30 1053 C 102.919 0.294028 2.31641 0
M  V30 1054 C 103.9 -0.600401 1.59151 0
M  V30 1055 O 105.085 -0.523124 1.87022 0
M  V30 1056 C 102.215 -0.528416 3.43257 0
M  V30 1057 C 101.169 0.27056 4.27144 0
M  V30 1058 C 100.495 -0.675881 5.30411 0
M  V30 1059 C 101.795 1.48981 5.00602 0
M  V30 1060 H 103.489 1.11681 2.77791 0
M  V30 1061 H 101.035 0.538478 1.33553 0
M  V30 1062 H 102.988 -0.922674 4.11175 0
M  V30 1063 H 101.712 -1.38445 2.95805 0
M  V30 1064 H 100.371 0.646427 3.60856 0
M  V30 1065 H 100.019 -1.52842 4.79216 0
M  V30 1066 H 99.7189 -0.145374 5.8742 0
M  V30 1067 H 101.243 -1.06757 6.01195 0
M  V30 1068 H 102.657 1.16849 5.61266 0
M  V30 1069 H 101.054 1.95739 5.6728 0
M  V30 1070 H 102.124 2.25746 4.29147 0
M  V30 1071 N 103.467 -1.45747 0.599634 0
M  V30 1072 C 104.377 -2.34262 -0.125888 0
M  V30 1073 C 105.393 -1.50768 -0.868625 0
M  V30 1074 O 106.569 -1.83592 -0.828003 0
M  V30 1075 C 103.634 -3.28252 -1.11587 0
M  V30 1076 C 102.695 -4.27651 -0.375956 0
M  V30 1077 C 101.928 -5.1715 -1.31877 0
M  V30 1078 O 102.151 -5.09916 -2.55621 0
M  V30 1079 O 101.085 -5.96286 -0.820157 0
M  V30 1080 H 104.911 -2.97688 0.601315 0
M  V30 1081 H 102.496 -1.44999 0.359934 0
M  V30 1082 H 104.378 -3.86191 -1.68626 0
M  V30 1083 H 103.053 -2.67401 -1.82424 0
M  V30 1084 H 101.96 -3.7335 0.236698 0
M  V30 1085 H 103.293 -4.91334 0.29177 0
M  V30 1086 N 104.945 -0.338344 -1.53925 0
M  V30 1087 C 106.193 0.259245 -2.0043 0
M  V30 1088 C 106.514 1.51484 -1.22791 0
M  V30 1089 O 105.784 1.93037 -0.33368 0
M  V30 1090 H 104.364 0.0987845 -0.740439 0
M  V30 1091 H 107.026 -0.458302 -1.89435 0
M  V30 1092 H 106.122 0.505334 -3.07982 0
M  V30 1093 N 106.423 1.57458 -0.0668435 0
M  V30 1094 C 107.648 1.9804 0.616027 0
M  V30 1095 C 108.073 0.944771 1.62652 0
M  V30 1096 O 107.431 -0.0902094 1.81075 0
M  V30 1097 C 107.479 3.37665 1.26549 0
M  V30 1098 O 106.583 3.36701 2.38131 0
M  V30 1099 H 105.924 0.644719 0.158849 0
M  V30 1100 H 108.454 2.04121 -0.139891 0
M  V30 1101 H 108.464 3.7474 1.6135 0
M  V30 1102 H 107.139 4.12573 0.525016 0
M  V30 1103 H 105.716 3.1139 2.0516 0
M  V30 1104 N 107.901 -0.206675 1.56239 0
M  V30 1105 C 109.147 -0.930218 1.80208 0
M  V30 1106 C 109.48 -1.83387 0.638981 0
M  V30 1107 O 108.755 -1.91119 -0.361066 0
M  V30 1108 C 109.038 -1.75641 3.1436 0
M  V30 1109 C 108.891 -0.878257 4.41142 0
M  V30 1110 C 110.21 -2.73129 3.45092 0
M  V30 1111 H 107.329 -0.336742 0.655571 0
M  V30 1112 H 109.971 -0.198222 1.88963 0
M  V30 1113 H 108.121 -2.38048 3.07027 0
M  V30 1114 H 109.793 -0.269787 4.6051 0
M  V30 1115 H 108.036 -0.184385 4.33408 0
M  V30 1116 H 108.707 -1.49106 5.3148 0
M  V30 1117 H 111.183 -2.20856 3.52649 0
M  V30 1118 H 110.059 -3.28028 4.40101 0
M  V30 1119 H 110.32 -3.51606 2.68003 0
M  V30 1120 N 109.379 -1.50304 -0.473955 0
M  V30 1121 C 110.625 -1.62358 -1.22521 0
M  V30 1122 C 110.98 -0.318555 -1.89745 0
M  V30 1123 O 110.273 0.683315 -1.79001 0
M  V30 1124 C 110.467 -2.73938 -2.29549 0
M  V30 1125 C 110.296 -4.15165 -1.72825 0
M  V30 1126 C 109.066 -4.81604 -1.52924 0
M  V30 1127 C 111.264 -4.99503 -1.22481 0
M  V30 1128 N 109.246 -6.07056 -0.91413 0
M  V30 1129 C 110.617 -6.15655 -0.732743 0
M  V30 1130 C 112.672 -4.85299 -1.11308 0
M  V30 1131 C 111.375 -7.19164 -0.139976 0
M  V30 1132 C 113.401 -5.88982 -0.534258 0
M  V30 1133 C 112.763 -7.0438 -0.0525562 0
M  V30 1134 H 108.862 -0.648286 -0.437321 0
M  V30 1135 H 111.446 -1.87413 -0.527692 0
M  V30 1136 H 109.617 -2.50611 -2.9673 0
M  V30 1137 H 111.349 -2.75366 -2.96573 0
M  V30 1138 H 108.104 -4.3885 -1.78067 0
M  V30 1139 H 108.528 -6.74108 -0.625071 0
M  V30 1140 H 113.17 -3.96369 -1.47144 0
M  V30 1141 H 110.888 -8.07771 0.230591 0
M  V30 1142 H 114.474 -5.80055 -0.450219 0
M  V30 1143 H 113.354 -7.83238 0.388324 0
M  V30 1144 N 110.857 0.726932 -1.39834 0
M  V30 1145 C 111.789 1.85147 -1.35104 0
M  V30 1146 C 112.802 1.60736 -0.258392 0
M  V30 1147 O 113.991 1.70821 -0.517931 0
M  V30 1148 C 111.091 3.21332 -1.07697 0
M  V30 1149 C 110.264 3.73033 -2.28396 0
M  V30 1150 C 109.323 4.87802 -1.97322 0
M  V30 1151 O 108.349 5.01043 -2.70083 0
M  V30 1152 N 109.551 5.72768 -0.944273 0
M  V30 1153 H 112.316 1.89706 -2.32017 0
M  V30 1154 H 109.877 0.908006 -1.3404 0
M  V30 1155 H 111.869 3.95691 -0.849144 0
M  V30 1156 H 110.439 3.11992 -0.194909 0
M  V30 1157 H 109.659 2.89934 -2.6708 0
M  V30 1158 H 110.947 4.0431 -3.08887 0
M  V30 1159 H 110.345 5.64669 -0.341427 0
M  V30 1160 H 108.902 6.4716 -0.776346 0
M  V30 1161 N 112.336 1.25143 0.95797 0
M  V30 1162 C 113.752 1.01892 1.22842 0
M  V30 1163 C 113.952 -0.266311 1.99732 0
M  V30 1164 O 113.008 -0.979913 2.3271 0
M  V30 1165 C 114.321 2.24004 2.00606 0
M  V30 1166 C 115.869 2.28731 2.13662 0
M  V30 1167 C 116.344 3.5049 2.94823 0
M  V30 1168 N 117.835 3.50866 3.02403 0
M  V30 1169 C 118.57 4.4174 3.65586 0
M  V30 1170 N 118.066 5.42882 4.30408 0
M  V30 1171 N 119.859 4.29429 3.62694 0
M  V30 1172 H 112.01 2.07718 0.443493 0
M  V30 1173 H 114.273 0.912031 0.258657 0
M  V30 1174 H 113.979 3.17395 1.51503 0
M  V30 1175 H 113.853 2.26907 3.01319 0
M  V30 1176 H 116.24 1.35865 2.61963 0
M  V30 1177 H 116.321 2.29848 1.12265 0
M  V30 1178 H 115.965 4.43676 2.47213 0
M  V30 1179 H 115.895 3.46617 3.96439 0
M  V30 1180 H 118.386 2.777 2.56302 0
M  V30 1181 H 118.699 6.0844 4.76467 0
M  V30 1182 H 117.044 5.46758 4.29047 0
M  V30 1183 H 120.235 3.49643 3.11236 0
M  V30 1184 H 120.408 5.00448 4.1165 0
M  V30 1185 N 113.814 -1.1601 1.06675 0
M  V30 1186 C 115.042 -1.90527 0.806667 0
M  V30 1187 C 115.457 -1.77643 -0.639396 0
M  V30 1188 O 114.814 -1.12369 -1.43803 0
M  V30 1189 C 114.865 -3.41106 1.19705 0
M  V30 1190 O 114.586 -3.53608 2.58636 0
M  V30 1191 C 116.087 -4.32663 0.965266 0
M  V30 1192 H 113.307 -0.604053 0.292166 0
M  V30 1193 H 115.851 -1.47026 1.4214 0
M  V30 1194 H 114.006 -3.82296 0.626774 0
M  V30 1195 H 114.42 -4.47011 2.74375 0
M  V30 1196 H 115.894 -5.36763 1.288 0
M  V30 1197 H 116.371 -4.39089 -0.0987936 0
M  V30 1198 H 116.977 -3.97206 1.52011 0
M  V30 1199 N 115.292 -0.849877 -1.32721 0
M  V30 1200 C 116.569 -0.372405 -1.92022 0
M  V30 1201 C 116.949 1.1435 -1.77447 0
M  V30 1202 O 116.297 1.96296 -1.16962 0
M  V30 1203 C 116.507 -0.831482 -3.3895 0
M  V30 1204 C 117.855 -0.845882 -4.16089 0
M  V30 1205 O 118.879 -0.775806 -3.47649 0
M  V30 1206 O 117.738 -0.943753 -5.38289 0
M  V30 1207 H 114.832 -0.107667 -0.819961 0
M  V30 1208 H 117.378 -0.93646 -1.41522 0
M  V30 1209 H 116.15 -1.87448 -3.4348 0
M  V30 1210 H 115.773 -0.24461 -3.96847 0
M  V30 1211 N 116.77 1.45427 -0.607355 0
M  V30 1212 C 118.018 2.01841 -0.102253 0
M  V30 1213 C 118.339 1.47832 1.27164 0
M  V30 1214 O 117.609 0.672497 1.83995 0
M  V30 1215 H 116.189 0.746188 -0.0348101 0
M  V30 1216 H 118.851 1.78229 -0.7887 0
M  V30 1217 H 117.947 3.12057 -0.0518585 0
M  V30 1218 N 118.248 0.346503 1.53744 0
M  V30 1219 C 119.196 -0.52422 2.26616 0
M  V30 1220 C 120.19 -1.09948 1.28871 0
M  V30 1221 O 121.396 -1.04488 1.46568 0
M  V30 1222 H 117.771 -0.187743 0.728187 0
M  V30 1223 H 119.742 0.11239 2.98188 0
M  V30 1224 C 118.491 -1.66186 3.05414 0
M  V30 1225 H 117.814 -1.22848 3.80458 0
M  V30 1226 H 119.254 -2.24622 3.59612 0
M  V30 1227 C 117.713 -2.59302 2.1509 0
M  V30 1228 O 118.243 -3.61628 1.74895 0
M  V30 1229 N 116.449 -2.28055 1.8011 0
M  V30 1230 H 115.996 -1.44883 2.12994 0
M  V30 1231 H 115.954 -2.90615 1.19958 0
M  V30 1232 N 119.726 -1.57421 0.075193 0
M  V30 1233 C 121.142 -1.57099 -0.281444 0
M  V30 1234 C 121.342 -1.08486 -1.69803 0
M  V30 1235 O 120.398 -0.752279 -2.41033 0
M  V30 1236 C 121.711 -3.00571 -0.0880041 0
M  V30 1237 C 123.259 -3.12605 -0.157281 0
M  V30 1238 C 123.734 -4.57999 0.0079207 0
M  V30 1239 N 125.225 -4.63176 -0.0475725 0
M  V30 1240 C 125.96 -5.73373 0.0557876 0
M  V30 1241 N 125.456 -6.92473 0.21286 0
M  V30 1242 N 127.249 -5.621 -0.00152098 0
M  V30 1243 H 119.4 -1.87335 1.00098 0
M  V30 1244 H 121.663 -0.86377 0.390646 0
M  V30 1245 H 121.369 -3.40262 0.889629 0
M  V30 1246 H 121.243 -3.67754 -0.838875 0
M  V30 1247 H 123.63 -2.72798 -1.1254 0
M  V30 1248 H 123.711 -2.48053 0.62475 0
M  V30 1249 H 123.355 -4.98496 0.972824 0
M  V30 1250 H 123.285 -5.20586 -0.793556 0
M  V30 1251 H 125.776 -3.7753 -0.167244 0
M  V30 1252 H 126.089 -7.72279 0.283781 0
M  V30 1253 H 124.434 -6.94556 0.248267 0
M  V30 1254 H 127.625 -4.67938 -0.122958 0
M  V30 1255 H 127.798 -6.47948 0.0824844 0
M  V30 1256 N 121.204 0.198386 -1.56346 0
M  V30 1257 C 122.134 1.24865 -1.9731 0
M  V30 1258 C 123.115 1.47651 -0.844576 0
M  V30 1259 O 124.3 1.59444 -1.10866 0
M  V30 1260 C 121.43 2.59358 -2.30977 0
M  V30 1261 C 120.384 2.5119 -3.46537 0
M  V30 1262 C 119.71 3.89926 -3.65871 0
M  V30 1263 C 121.01 2.03977 -4.80823 0
M  V30 1264 H 122.704 0.908252 -2.85291 0
M  V30 1265 H 120.25 0.435462 -1.37258 0
M  V30 1266 H 122.203 3.33011 -2.58228 0
M  V30 1267 H 120.927 2.95132 -1.39874 0
M  V30 1268 H 119.586 1.79993 -3.19371 0
M  V30 1269 H 119.234 4.23046 -2.72105 0
M  V30 1270 H 118.934 3.85336 -4.4361 0
M  V30 1271 H 120.458 4.65205 -3.95495 0
M  V30 1272 H 121.872 2.67386 -5.07127 0
M  V30 1273 H 120.269 2.10397 -5.62008 0
M  V30 1274 H 121.339 0.992861 -4.74626 0
M  V30 1275 N 122.682 1.50554 0.465978 0
M  V30 1276 C 123.959 1.5232 1.22712 0
M  V30 1277 C 124.339 0.270807 2.09356 0
M  V30 1278 O 123.687 -0.745541 2.15995 0
M  V30 1279 C 123.897 2.82175 2.05374 0
M  V30 1280 C 125.245 3.33033 2.6339 0
M  V30 1281 O 126.269 2.83531 2.15612 0
M  V30 1282 O 125.128 4.19336 3.50456 0
M  V30 1283 H 122.222 0.611183 0.557122 0
M  V30 1284 H 124.768 1.62847 0.477381 0
M  V30 1285 H 123.54 3.64797 1.41558 0
M  V30 1286 H 123.163 2.74675 2.87471 0
M  V30 1287 N 124.16 -0.719506 1.40217 0
M  V30 1288 C 125.123 -1.8153 1.39927 0
M  V30 1289 C 126.123 -1.58095 0.293723 0
M  V30 1290 O 127.313 -1.65209 0.552429 0
M  V30 1291 C 124.445 -3.19561 1.18716 0
M  V30 1292 H 125.638 -1.83186 2.37451 0
M  V30 1293 H 123.191 -0.924746 1.26008 0
M  V30 1294 H 123.926 -3.23557 0.219366 0
M  V30 1295 H 123.711 -3.3797 1.98793 0
M  V30 1296 H 125.201 -3.99598 1.21291 0
M  V30 1297 N 125.638 -1.25649 -0.95132 0
M  V30 1298 C 127.049 -1.09654 -1.51106 0
M  V30 1299 C 127.4 0.326615 -1.93462 0
M  V30 1300 O 126.525 1.21697 -1.78938 0
M  V30 1301 C 127.12 -1.98437 -2.74605 0
M  V30 1302 C 125.679 -1.86618 -3.2688 0
M  V30 1303 C 124.826 -1.9239 -1.99703 0
M  V30 1304 H 127.777 -1.38887 -0.767865 0
M  V30 1305 H 127.798 -1.5263 -3.48546 0
M  V30 1306 H 127.31 -3.02009 -2.43746 0
M  V30 1307 H 125.411 -0.859421 -3.62553 0
M  V30 1308 H 125.524 -2.71607 -3.94673 0
M  V30 1309 H 123.888 -1.36317 -2.15151 0
M  V30 1310 H 124.671 -2.97573 -1.71188 0
M  V30 1311 N 127.117 1.15442 -1.07289 0
M  V30 1312 C 128.394 1.82306 -0.708792 0
M  V30 1313 C 128.774 1.94991 0.808807 0
M  V30 1314 O 128.122 1.50085 1.72298 0
M  V30 1315 C 128.332 3.18695 -1.42247 0
M  V30 1316 C 129.68 3.94341 -1.57417 0
M  V30 1317 O 130.704 3.28247 -1.38319 0
M  V30 1318 O 129.563 5.12839 -1.88834 0
M  V30 1319 H 126.657 0.787628 -0.252132 0
M  V30 1320 H 129.203 1.22559 -1.17377 0
M  V30 1321 H 127.975 3.04557 -2.45684 0
M  V30 1322 H 127.598 3.86128 -0.948223 0
M  V30 1323 N 128.595 0.856903 1.32268 0
M  V30 1324 C 129.843 0.460474 1.96784 0
M  V30 1325 C 130.164 -0.987701 1.68135 0
M  V30 1326 O 129.434 -1.69058 0.989765 0
M  V30 1327 H 128.014 0.167289 0.728027 0
M  V30 1328 H 130.676 1.09383 1.61312 0
M  V30 1329 H 129.772 0.60739 3.06133 0
M  V30 1330 N 130.073 -1.45103 0.615059 0
M  V30 1331 C 131.35 -1.95549 0.0448276 0
M  V30 1332 C 131.73 -1.55737 -1.4251 0
M  V30 1333 O 131.078 -0.823556 -2.13143 0
M  V30 1334 C 131.288 -3.48098 0.250785 0
M  V30 1335 C 132.636 -4.24384 0.135509 0
M  V30 1336 O 133.66 -3.55738 0.181299 0
M  V30 1337 O 132.519 -5.46493 0.0268878 0
M  V30 1338 H 129.613 -0.8264 -0.0314845 0
M  V30 1339 H 132.159 -1.55232 0.685642 0
M  V30 1340 H 130.931 -3.7007 1.27139 0
M  V30 1341 H 130.554 -3.95323 -0.424937 0
M  V30 1342 N 131.551 -0.354651 -1.53558 0
M  V30 1343 C 132.962 0.126902 -1.86268 0
M  V30 1344 C 133.313 1.49075 -1.27558 0
M  V30 1345 O 132.438 2.08105 -0.5934 0
M  V30 1346 C 133.033 0.237046 -3.3797 0
M  V30 1347 C 131.592 0.662842 -3.70518 0
M  V30 1348 C 130.739 -0.196652 -2.76602 0
M  V30 1349 H 133.69 -0.573849 -1.47962 0
M  V30 1350 H 133.711 1.06259 -3.65362 0
M  V30 1351 H 133.223 -0.755725 -3.80671 0
M  V30 1352 H 131.324 1.66424 -3.33367 0
M  V30 1353 H 131.437 0.445034 -4.77029 0
M  V30 1354 H 129.801 0.332763 -2.52517 0
M  V30 1355 H 130.584 -1.18676 -3.22135 0
M  V30 1356 N 133.029 1.57378 -0.0835403 0
M  V30 1357 C 133.992 2.12252 0.864959 0
M  V30 1358 C 134.992 1.04916 1.21858 0
M  V30 1359 O 136.182 1.30853 1.14991 0
M  V30 1360 C 133.314 2.63358 2.16461 0
M  V30 1361 H 134.507 2.97371 0.388676 0
M  V30 1362 H 132.06 1.55423 0.165317 0
M  V30 1363 H 132.795 1.81727 2.686 0
M  V30 1364 H 132.58 3.41826 1.92087 0
M  V30 1365 H 134.07 3.05847 2.84337 0
M  V30 1366 N 134.507 -0.190092 1.56449 0
M  V30 1367 C 135.755 -0.907908 1.80559 0
M  V30 1368 C 136.076 -1.83583 0.657438 0
M  V30 1369 O 135.346 -1.93203 -0.323924 0
M  V30 1370 H 133.926 -0.338247 0.666032 0
M  V30 1371 H 136.588 -0.194403 1.93928 0
M  V30 1372 H 135.684 -1.49604 2.73907 0
M  V30 1373 N 135.985 -1.50799 -0.457987 0
M  V30 1374 C 137.231 -1.63648 -1.20792 0
M  V30 1375 C 137.586 -0.338662 -1.89396 0
M  V30 1376 O 136.879 0.664291 -1.79716 0
M  V30 1377 C 137.073 -2.76358 -2.2663 0
M  V30 1378 C 136.902 -4.16974 -1.68411 0
M  V30 1379 C 135.672 -4.83199 -1.47807 0
M  V30 1380 C 137.87 -5.00774 -1.17176 0
M  V30 1381 N 135.852 -6.07991 -0.849692 0
M  V30 1382 C 137.223 -6.16397 -0.667403 0
M  V30 1383 C 139.278 -4.86452 -1.06155 0
M  V30 1384 C 137.981 -7.19272 -0.0636908 0
M  V30 1385 C 140.007 -5.89515 -0.471759 0
M  V30 1386 C 139.369 -7.04397 0.0221557 0
M  V30 1387 H 135.468 -0.652888 -0.43042 0
M  V30 1388 H 138.052 -1.87962 -0.507785 0
M  V30 1389 H 136.223 -2.53744 -2.94056 0
M  V30 1390 H 137.955 -2.78496 -2.93636 0
M  V30 1391 H 134.71 -4.40714 -1.73403 0
M  V30 1392 H 135.134 -6.74733 -0.553537 0
M  V30 1393 H 139.776 -3.97907 -1.42932 0
M  V30 1394 H 137.494 -8.07481 0.316253 0
M  V30 1395 H 141.08 -5.805 -0.388671 0
M  V30 1396 H 139.96 -7.82782 0.471375 0
M  V30 1397 N 137.463 0.71206 -1.40597 0
M  V30 1398 C 138.393 1.83889 -1.43899 0
M  V30 1399 C 139.374 1.67442 -0.299504 0
M  V30 1400 O 140.559 1.87421 -0.508624 0
M  V30 1401 C 137.689 3.21877 -1.30431 0
M  V30 1402 C 136.643 3.53002 -2.42019 0
M  V30 1403 C 135.969 4.90172 -2.13626 0
M  V30 1404 C 137.269 3.53643 -3.84362 0
M  V30 1405 H 138.963 1.81383 -2.38203 0
M  V30 1406 H 136.509 0.871237 -1.14654 0
M  V30 1407 H 138.462 4.00404 -1.31357 0
M  V30 1408 H 137.186 3.24968 -0.326049 0
M  V30 1409 H 135.845 2.76818 -2.40349 0
M  V30 1410 H 135.493 4.89869 -1.14182 0
M  V30 1411 H 135.193 5.11962 -2.88389 0
M  V30 1412 H 136.717 5.71028 -2.1624 0
M  V30 1413 H 138.131 4.22203 -3.87837 0
M  V30 1414 H 136.528 3.86961 -4.58673 0
M  V30 1415 H 137.598 2.52954 -4.13693 0
M  V30 1416 N 138.941 1.26152 0.944643 0
M  V30 1417 C 139.871 1.09902 2.06019 0
M  V30 1418 C 140.852 0.00519538 1.70099 0
M  V30 1419 O 142.037 0.176583 1.93396 0
M  V30 1420 C 139.167 0.727562 3.39594 0
M  V30 1421 C 138.121 1.77274 3.89561 0
M  V30 1422 C 137.447 1.25569 5.19747 0
M  V30 1423 C 138.747 3.17357 4.14827 0
M  V30 1424 H 140.441 2.03217 2.19871 0
M  V30 1425 H 137.987 0.978452 1.05652 0
M  V30 1426 H 139.94 0.600777 4.17095 0
M  V30 1427 H 138.664 -0.241287 3.25707 0
M  V30 1428 H 137.323 1.88814 3.14237 0
M  V30 1429 H 136.971 0.276783 5.02238 0
M  V30 1430 H 136.671 1.95433 5.54148 0
M  V30 1431 H 138.195 1.1415 5.99835 0
M  V30 1432 H 139.609 3.08914 4.82954 0
M  V30 1433 H 138.006 3.84781 4.60504 0
M  V30 1434 H 139.076 3.63673 3.20734 0
M  V30 1435 N 140.419 -1.14872 1.07899 0
M  V30 1436 C 141.351 -2.19425 0.662231 0
M  V30 1437 C 142.364 -1.60231 -0.288079 0
M  V30 1438 O 143.553 -1.78336 -0.076534 0
M  V30 1439 C 140.653 -3.38867 -0.0470695 0
M  V30 1440 C 139.826 -4.27597 0.920831 0
M  V30 1441 C 138.885 -5.25616 0.247805 0
M  V30 1442 O 137.911 -5.62189 0.890599 0
M  V30 1443 N 139.113 -5.71746 -1.00435 0
M  V30 1444 H 141.878 -2.55797 1.56166 0
M  V30 1445 H 139.439 -1.30042 0.964404 0
M  V30 1446 H 141.431 -4.01497 -0.50813 0
M  V30 1447 H 140.001 -3.00864 -0.848523 0
M  V30 1448 H 139.221 -3.61982 1.56087 0
M  V30 1449 H 140.509 -4.83748 1.57688 0
M  V30 1450 H 139.907 -5.44153 -1.54642 0
M  V30 1451 H 138.464 -6.36389 -1.40899 0
M  V30 1452 N 141.898 -0.863906 -1.31812 0
M  V30 1453 C 143.126 -0.486111 -2.01108 0
M  V30 1454 C 143.541 0.919755 -1.64882 0
M  V30 1455 O 142.898 1.60162 -0.874893 0
M  V30 1456 C 142.949 -0.626435 -3.56031 0
M  V30 1457 O 142.67 -1.97693 -3.90959 0
M  V30 1458 C 144.171 -0.248857 -4.42601 0
M  V30 1459 H 141.391 -0.190052 -0.643523 0
M  V30 1460 H 143.935 -1.1634 -1.68182 0
M  V30 1461 H 142.09 0.00322717 -3.874 0
M  V30 1462 H 142.504 -1.98034 -4.85678 0
M  V30 1463 H 143.978 -0.398016 -5.50563 0
M  V30 1464 H 144.455 0.811489 -4.31638 0
M  V30 1465 H 145.061 -0.853971 -4.16638 0
M  V30 1466 N 143.376 1.44774 -0.622745 0
M  V30 1467 C 144.787 1.85546 -0.207226 0
M  V30 1468 C 145.138 1.52093 1.23944 0
M  V30 1469 O 144.263 0.95492 1.94191 0
M  V30 1470 C 144.858 3.36781 -0.369313 0
M  V30 1471 C 143.417 3.76399 -0.00836847 0
M  V30 1472 C 142.564 2.68664 -0.686651 0
M  V30 1473 H 145.515 1.3536 -0.828454 0
M  V30 1474 H 145.536 3.78453 0.394162 0
M  V30 1475 H 145.048 3.61098 -1.42231 0
M  V30 1476 H 143.149 3.57698 1.04322 0
M  V30 1477 H 143.262 4.7732 -0.412584 0
M  V30 1478 H 141.626 2.54404 -0.122777 0
M  V30 1479 H 142.409 2.95815 -1.74208 0
M  V30 1480 N 144.854 0.36279 1.53368 0
M  V30 1481 C 146.102 -0.227326 2.00817 0
M  V30 1482 C 146.423 -1.49511 1.25186 0
M  V30 1483 O 145.693 -1.92482 0.364348 0
M  V30 1484 H 144.273 -0.0869923 0.741917 0
M  V30 1485 H 146.935 0.488381 1.88682 0
M  V30 1486 H 146.031 -0.456273 3.08747 0
M  V30 1487 N 146.332 -1.57332 0.0918853 0
M  V30 1488 C 147.572 -1.96117 -0.575988 0
M  V30 1489 C 147.936 -0.972499 -1.65549 0
M  V30 1490 O 149.137 -1.24872 -2.38034 0
M  V30 1491 C 147.408 -3.39407 -1.11973 0
M  V30 1492 S 148.967 -4.00185 -1.79992 0
M  V30 1493 H 145.785 -0.685682 -0.188045 0
M  V30 1494 H 148.387 -1.94755 0.170525 0
M  V30 1495 H 147.091 -4.09131 -0.322504 0
M  V30 1496 H 146.622 -3.44358 -1.90214 0
M  V30 1497 H 148.637 -3.88728 -3.08391 0
M  V30 1498 N 147.81 0.181792 -1.56548 0
M  V30 1499 C 149.056 0.896803 -1.82562 0
M  V30 1500 C 149.411 1.80324 -0.670908 0
M  V30 1501 O 148.704 1.8868 0.333235 0
M  V30 1502 C 148.898 1.73728 -3.12335 0
M  V30 1503 C 148.727 0.913714 -4.4032 0
M  V30 1504 C 147.497 0.592903 -5.01809 0
M  V30 1505 C 149.695 0.260164 -5.13642 0
M  V30 1506 N 147.677 -0.247901 -6.13399 0
M  V30 1507 C 149.048 -0.442256 -6.18421 0
M  V30 1508 C 151.103 0.177253 -4.97584 0
M  V30 1509 C 149.806 -1.21971 -7.08883 0
M  V30 1510 C 151.832 -0.586839 -5.88481 0
M  V30 1511 C 151.194 -1.27766 -6.92716 0
M  V30 1512 H 147.293 0.307122 -0.719166 0
M  V30 1513 H 149.877 0.164535 -1.94004 0
M  V30 1514 H 148.048 2.44105 -3.02105 0
M  V30 1515 H 149.78 2.39279 -3.26386 0
M  V30 1516 H 146.535 0.920502 -4.64568 0
M  V30 1517 H 146.959 -0.658304 -6.73792 0
M  V30 1518 H 151.601 0.696993 -4.17015 0
M  V30 1519 H 149.319 -1.75083 -7.88905 0
M  V30 1520 H 152.905 -0.652522 -5.78129 0
M  V30 1521 H 151.785 -1.85943 -7.61836 0
M  V30 1522 N 149.288 1.51039 0.449983 0
M  V30 1523 C 150.536 1.62759 1.19808 0
M  V30 1524 C 150.857 0.339981 1.92013 0
M  V30 1525 O 150.127 -0.643606 1.85026 0
M  V30 1526 H 148.707 0.599811 0.445237 0
M  V30 1527 H 151.369 1.87914 0.517138 0
M  V30 1528 H 150.465 2.44911 1.93455 0
M  V30 1529 N 150.766 -0.704594 1.40972 0
M  V30 1530 C 152.043 -1.45847 1.30338 0
M  V30 1531 C 152.423 -2.10973 -0.0732344 0
M  V30 1532 O 151.771 -2.00997 -1.08685 0
M  V30 1533 C 151.981 -2.48525 2.45023 0
M  V30 1534 C 153.329 -3.1404 2.8577 0
M  V30 1535 O 154.353 -2.58848 2.44696 0
M  V30 1536 O 153.212 -4.13981 3.56766 0
M  V30 1537 H 150.306 -0.649092 0.512454 0
M  V30 1538 H 152.852 -0.735836 1.52917 0
M  V30 1539 H 151.624 -1.98994 3.36923 0
M  V30 1540 H 151.247 -3.2831 2.24272 0
M  V30 1541 N 152.244 -1.26651 -0.937939 0
M  V30 1542 C 153.207 -1.08546 -2.01867 0
M  V30 1543 C 154.207 -0.0327327 -1.60767 0
M  V30 1544 O 155.397 -0.276427 -1.71993 0
M  V30 1545 C 152.529 -0.651711 -3.34613 0
M  V30 1546 H 153.722 -2.04502 -2.1936 0
M  V30 1547 H 151.275 -1.09294 -1.11734 0
M  V30 1548 H 152.01 0.309696 -3.22818 0
M  V30 1549 H 151.795 -1.41189 -3.65798 0
M  V30 1550 H 153.285 -0.546973 -4.14002 0
M  V30 1551 N 153.722 1.14298 -1.08507 0
M  V30 1552 C 154.97 1.84993 -0.813763 0
M  V30 1553 C 155.291 1.83405 0.662393 0
M  V30 1554 O 154.561 1.28319 1.48024 0
M  V30 1555 H 153.141 0.684966 -0.298045 0
M  V30 1556 H 155.803 1.385 -1.37126 0
M  V30 1557 H 154.899 2.89788 -1.15884 0
M  V30 1558 N 155.201 0.870884 1.31352 0
M  V30 1559 C 156.441 0.488783 1.9847 0
M  V30 1560 C 156.805 -0.941536 1.67329 0
M  V30 1561 O 158.006 -1.42903 2.27667 0
M  V30 1562 C 156.277 0.739688 3.49662 0
M  V30 1563 S 157.836 0.457582 4.36408 0
M  V30 1564 H 154.654 0.18242 0.6872 0
M  V30 1565 H 157.256 1.12711 1.59739 0
M  V30 1566 H 155.96 1.77944 3.69816 0
M  V30 1567 H 155.491 0.0883905 3.93301 0
M  V30 1568 H 157.506 -0.709752 4.91098 0
M  V30 1569 N 156.679 -1.44442 0.630414 0
M  V30 1570 C 157.626 -2.30678 -0.0749355 0
M  V30 1571 C 158.596 -1.4344 -0.837502 0
M  V30 1572 O 159.781 -1.72343 -0.818684 0
M  V30 1573 C 156.921 -3.28706 -1.05103 0
M  V30 1574 C 156.034 -4.31046 -0.286954 0
M  V30 1575 C 155.169 -5.16167 -1.2548 0
M  V30 1576 C 154.208 -6.10216 -0.479843 0
M  V30 1577 N 153.345 -6.88039 -1.39811 0
M  V30 1578 H 158.185 -2.90454 0.666386 0
M  V30 1579 H 155.722 -1.43107 0.340404 0
M  V30 1580 H 157.68 -3.84027 -1.63031 0
M  V30 1581 H 156.31 -2.70632 -1.75949 0
M  V30 1582 H 155.362 -3.78203 0.408243 0
M  V30 1583 H 156.674 -4.97794 0.316657 0
M  V30 1584 H 155.828 -5.76002 -1.90544 0
M  V30 1585 H 154.567 -4.49491 -1.89233 0
M  V30 1586 H 153.572 -5.49491 0.184295 0
M  V30 1587 H 154.797 -6.78928 0.152965 0
M  V30 1588 H 152.743 -6.24032 -2.02287 0
M  V30 1589 H 152.66 -7.51223 -0.848508 0
M  V30 1590 H 153.928 -7.52397 -2.03762 0
M  V30 1591 N 158.157 -0.370918 -1.53173 0
M  V30 1592 C 159.434 0.273754 -1.93675 0
M  V30 1593 C 159.814 1.65938 -1.3049 0
M  V30 1594 O 159.162 2.23698 -0.465999 0
M  V30 1595 C 159.372 0.318602 -3.47543 0
M  V30 1596 C 160.72 0.556392 -4.20939 0
M  V30 1597 O 161.744 0.399587 -3.53952 0
M  V30 1598 O 160.603 0.862133 -5.39657 0
M  V30 1599 H 157.697 0.165448 -0.810281 0
M  V30 1600 H 160.243 -0.42409 -1.64315 0
M  V30 1601 H 159.015 -0.652687 -3.85818 0
M  V30 1602 H 158.638 1.06212 -3.83151 0
M  V30 1603 N 159.635 1.57281 -0.100228 0
M  V30 1604 C 161.051 1.57527 0.256416 0
M  V30 1605 C 161.251 1.11173 1.68056 0
M  V30 1606 O 160.307 0.79053 2.39806 0
M  V30 1607 C 161.62 3.00673 0.0401747 0
M  V30 1608 C 163.168 3.12815 0.107528 0
M  V30 1609 C 163.643 4.57929 -0.0807834 0
M  V30 1610 N 165.134 4.63193 -0.0261207 0
M  V30 1611 C 165.869 5.73212 -0.146999 0
M  V30 1612 N 165.365 6.92047 -0.322999 0
M  V30 1613 N 167.158 5.62031 -0.0879044 0
M  V30 1614 H 159.309 1.85718 -1.03065 0
M  V30 1615 H 161.572 0.857446 -0.404339 0
M  V30 1616 H 161.278 3.38804 -0.943649 0
M  V30 1617 H 161.152 3.69042 0.780262 0
M  V30 1618 H 163.539 2.74554 1.08186 0
M  V30 1619 H 163.62 2.47028 -0.664134 0
M  V30 1620 H 163.264 4.96886 -1.05201 0
M  V30 1621 H 163.194 5.21783 0.710635 0
M  V30 1622 H 165.685 3.77748 0.107161 0
M  V30 1623 H 165.998 7.7173 -0.406608 0
M  V30 1624 H 164.343 6.94074 -0.358733 0
M  V30 1625 H 167.534 4.68075 0.048498 0
M  V30 1626 H 167.707 6.47734 -0.185557 0
M  V30 1627 N 161.113 -0.173488 1.56642 0
M  V30 1628 C 162.076 -1.19859 1.95362 0
M  V30 1629 C 163.076 -1.37296 0.83704 0
M  V30 1630 O 164.266 -1.34739 1.10413 0
M  V30 1631 C 161.398 -2.56405 2.24654 0
M  V30 1632 H 162.591 -0.867062 2.87092 0
M  V30 1633 H 160.144 -0.415853 1.50666 0
M  V30 1634 H 160.879 -2.94576 1.35631 0
M  V30 1635 H 160.664 -2.45115 3.06041 0
M  V30 1636 H 162.154 -3.30287 2.5554 0
M  V30 1637 N 162.591 -1.51276 -0.441967 0
M  V30 1638 C 163.839 -1.63392 -1.18943 0
M  V30 1639 C 164.16 -0.350159 -1.9183 0
M  V30 1640 O 163.43 0.633784 -1.85364 0
M  V30 1641 H 162.01 -0.602164 -0.442049 0
M  V30 1642 H 164.672 -1.88186 -0.507165 0
M  V30 1643 H 163.768 -2.45934 -1.92154 0
M  V30 1644 N 164.069 0.697108 -1.41344 0
M  V30 1645 C 165.297 1.48593 -1.43972 0
M  V30 1646 C 165.712 1.88747 -0.0445612 0
M  V30 1647 O 165.069 1.56682 0.935785 0
M  V30 1648 C 165.12 2.74946 -2.34706 0
M  V30 1649 O 164.841 2.36484 -3.68791 0
M  V30 1650 C 166.342 3.687 -2.46121 0
M  V30 1651 H 163.562 0.457964 -0.490418 0
M  V30 1652 H 166.106 0.858429 -1.8561 0
M  V30 1653 H 164.261 3.33937 -1.9638 0
M  V30 1654 H 164.675 3.17918 -4.17167 0
M  V30 1655 H 166.149 4.54145 -3.13777 0
M  V30 1656 H 166.626 4.13081 -1.49199 0
M  V30 1657 H 167.232 3.15613 -2.85076 0
M  V30 1658 N 165.547 1.27147 0.931209 0
M  V30 1659 C 166.963 1.04475 1.20653 0
M  V30 1660 C 167.163 -0.223885 2.00252 0
M  V30 1661 O 166.219 -0.930332 2.34736 0
M  V30 1662 C 167.532 2.28209 1.95809 0
M  V30 1663 C 169.08 2.33211 2.08762 0
M  V30 1664 C 169.555 3.56665 2.87323 0
M  V30 1665 N 171.046 3.57201 2.94892 0
M  V30 1666 C 171.781 4.49395 3.56134 0
M  V30 1667 N 171.277 5.51889 4.18796 0
M  V30 1668 N 173.07 4.37026 3.53504 0
M  V30 1669 H 165.221 2.08612 0.399333 0
M  V30 1670 H 167.484 0.917312 0.239253 0
M  V30 1671 H 167.19 3.20538 1.44736 0
M  V30 1672 H 167.064 2.33247 2.96438 0
M  V30 1673 H 169.451 1.41391 2.59023 0
M  V30 1674 H 169.532 2.32178 1.07364 0
M  V30 1675 H 169.176 4.4882 2.37746 0
M  V30 1676 H 169.106 3.54948 3.88998 0
M  V30 1677 H 171.597 2.83074 2.50354 0
M  V30 1678 H 171.91 6.18409 4.63454 0
M  V30 1679 H 170.255 5.55735 4.17353 0
M  V30 1680 H 173.446 3.56166 3.03749 0
M  V30 1681 H 173.619 5.09067 4.00942 0
M  V30 1682 N 167.025 -1.13721 1.09112 0
M  V30 1683 C 168.441 -1.36914 0.820174 0
M  V30 1684 C 168.641 -1.93356 -0.567079 0
M  V30 1685 O 167.697 -2.15093 -1.32255 0
M  V30 1686 C 169.01 -2.3235 1.90877 0
M  V30 1687 C 170.558 -2.45973 1.93562 0
M  V30 1688 C 171.033 -3.44714 3.01556 0
M  V30 1689 N 172.524 -3.52263 3.00775 0
M  V30 1690 C 173.259 -4.28536 3.80978 0
M  V30 1691 N 172.755 -5.07991 4.71081 0
M  V30 1692 N 174.548 -4.23804 3.69251 0
M  V30 1693 H 166.699 -0.754348 1.98553 0
M  V30 1694 H 168.962 -0.3944 0.862063 0
M  V30 1695 H 168.668 -1.98027 2.90651 0
M  V30 1696 H 168.542 -3.32332 1.78424 0
M  V30 1697 H 170.929 -2.79584 0.944286 0
M  V30 1698 H 171.01 -1.45926 2.10093 0
M  V30 1699 H 170.654 -3.11835 4.00901 0
M  V30 1700 H 170.584 -4.44558 2.82269 0
M  V30 1701 H 173.075 -2.95567 2.35475 0
M  V30 1702 H 173.388 -5.63487 5.28869 0
M  V30 1703 H 171.733 -5.07235 4.75119 0
M  V30 1704 H 174.924 -3.60806 2.98222 0
M  V30 1705 H 175.097 -4.82995 4.31995 0
M  V30 1706 N 168.503 -0.877838 -1.30888 0
M  V30 1707 C 169.433 -0.35534 -2.3078 0
M  V30 1708 C 170.414 0.557994 -1.60687 0
M  V30 1709 O 171.599 0.473355 -1.88343 0
M  V30 1710 C 168.729 0.437221 -3.44537 0
M  V30 1711 C 167.683 -0.383715 -4.26276 0
M  V30 1712 C 167.009 0.535014 -5.32017 0
M  V30 1713 C 168.309 -1.62201 -4.96476 0
M  V30 1714 H 170.003 -1.19007 -2.74732 0
M  V30 1715 H 167.549 -0.573698 -1.32078 0
M  V30 1716 H 169.502 0.813334 -4.13477 0
M  V30 1717 H 168.226 1.30553 -2.99372 0
M  V30 1718 H 166.885 -0.741874 -3.59015 0
M  V30 1719 H 166.533 1.40083 -4.831 0
M  V30 1720 H 166.233 -0.0104211 -5.87599 0
M  V30 1721 H 167.757 0.907799 -6.03814 0
M  V30 1722 H 169.171 -1.31689 -5.5797 0
M  V30 1723 H 167.568 -2.10711 -5.61891 0
M  V30 1724 H 168.638 -2.37044 -4.23011 0
M  V30 1725 N 169.982 1.44106 -0.638065 0
M  V30 1726 C 170.912 2.33448 0.0494287 0
M  V30 1727 C 171.893 1.48606 0.827672 0
M  V30 1728 O 173.078 1.77308 0.792173 0
M  V30 1729 C 170.208 3.31771 1.02691 0
M  V30 1730 C 169.162 4.26485 0.359823 0
M  V30 1731 C 168.488 5.14729 1.44769 0
M  V30 1732 C 169.788 5.17056 -0.738296 0
M  V30 1733 H 171.482 2.91183 -0.696636 0
M  V30 1734 H 169.028 1.40014 -0.336456 0
M  V30 1735 H 170.981 3.93161 1.51666 0
M  V30 1736 H 169.705 2.7226 1.80395 0
M  V30 1737 H 168.364 3.66437 -0.10934 0
M  V30 1738 H 168.012 4.51566 2.21578 0
M  V30 1739 H 167.712 5.78913 1.00668 0
M  V30 1740 H 169.236 5.78991 1.93911 0
M  V30 1741 H 170.65 5.72342 -0.331354 0
M  V30 1742 H 169.047 5.89879 -1.10286 0
M  V30 1743 H 170.117 4.57652 -1.60258 0
M  V30 1744 N 171.46 0.379036 1.52974 0
M  V30 1745 C 172.737 -0.263479 1.93817 0
M  V30 1746 C 173.117 -1.65244 1.31368 0
M  V30 1747 O 172.465 -2.23448 0.477856 0
M  V30 1748 C 172.675 -0.300166 3.47707 0
M  V30 1749 C 174.023 -0.534061 4.21228 0
M  V30 1750 O 175.047 -0.38081 3.54159 0
M  V30 1751 O 173.906 -0.833501 5.40106 0
M  V30 1752 H 171 -0.161149 0.811147 0
M  V30 1753 H 173.546 0.432798 1.64088 0
M  V30 1754 H 172.318 0.673138 3.85467 0
M  V30 1755 H 171.941 -1.04179 3.83709 0
M  V30 1756 N 172.938 -1.57226 0.108567 0
M  V30 1757 C 173.885 -2.14756 -0.845481 0
M  V30 1758 C 174.855 -1.06971 -1.27068 0
M  V30 1759 O 176.04 -1.34827 -1.35005 0
M  V30 1760 C 173.18 -2.74298 -2.09415 0
M  V30 1761 C 172.293 -3.96358 -1.71826 0
M  V30 1762 C 171.428 -4.44021 -2.9158 0
M  V30 1763 C 170.467 -5.58637 -2.50181 0
M  V30 1764 N 169.604 -6.01091 -3.62814 0
M  V30 1765 H 174.444 -2.95961 -0.348035 0
M  V30 1766 H 171.981 -1.46226 -0.160106 0
M  V30 1767 H 173.939 -3.06945 -2.82561 0
M  V30 1768 H 172.569 -1.95801 -2.56636 0
M  V30 1769 H 171.621 -3.69939 -0.885947 0
M  V30 1770 H 172.933 -4.79504 -1.37394 0
M  V30 1771 H 172.087 -4.78522 -3.72963 0
M  V30 1772 H 170.826 -3.59803 -3.29231 0
M  V30 1773 H 169.831 -5.23751 -1.67228 0
M  V30 1774 H 171.056 -6.44613 -2.13659 0
M  V30 1775 H 169.002 -5.19817 -4.00158 0
M  V30 1776 H 168.919 -6.79066 -3.32273 0
M  V30 1777 H 170.187 -6.40227 -4.44668 0
M  V30 1778 N 174.416 0.165178 -1.56732 0
M  V30 1779 C 175.349 1.23336 -1.91998 0
M  V30 1780 C 176.327 1.42476 -0.783531 0
M  V30 1781 O 177.511 1.57384 -1.03743 0
M  V30 1782 C 174.638 2.59533 -2.17625 0
M  V30 1783 C 173.684 2.57093 -3.40302 0
M  V30 1784 S 174.517 2.05571 -4.9447 0
M  V30 1785 C 175.673 3.43532 -5.23198 0
M  V30 1786 H 175.906 0.932387 -2.82301 0
M  V30 1787 H 173.439 0.370013 -1.49901 0
M  V30 1788 H 175.397 3.37918 -2.3307 0
M  V30 1789 H 174.058 2.86827 -1.28019 0
M  V30 1790 H 173.251 3.57308 -3.55453 0
M  V30 1791 H 172.853 1.86806 -3.24005 0
M  V30 1792 H 175.145 4.39559 -5.15552 0
M  V30 1793 H 176.088 3.33251 -6.2478 0
M  V30 1794 H 176.496 3.39828 -4.50752 0
M  V30 1795 N 175.894 1.51508 0.433938 0
M  V30 1796 C 177.122 1.68157 1.20543 0
M  V30 1797 C 177.537 0.380362 1.84929 0
M  V30 1798 O 176.894 -0.641446 1.70856 0
M  V30 1799 C 176.945 2.79965 2.28696 0
M  V30 1800 O 176.666 4.05045 1.66943 0
M  V30 1801 C 178.167 3.07912 3.18912 0
M  V30 1802 H 175.387 0.56421 0.363191 0
M  V30 1803 H 177.931 1.97941 0.513754 0
M  V30 1804 H 176.086 2.5277 2.93574 0
M  V30 1805 H 176.5 4.67165 2.38448 0
M  V30 1806 H 177.974 3.89719 3.90926 0
M  V30 1807 H 178.451 2.20456 3.79863 0
M  V30 1808 H 179.057 3.36779 2.59731 0
M  V30 1809 N 177.372 -0.689602 1.41712 0
M  V30 1810 C 178.788 -1.00093 1.24312 0
M  V30 1811 C 178.988 -2.01036 0.136729 0
M  V30 1812 O 178.044 -2.47562 -0.496918 0
M  V30 1813 C 179.357 -1.51985 2.59463 0
M  V30 1814 C 180.905 -1.63838 2.66695 0
M  V30 1815 C 181.38 -2.1913 4.02177 0
M  V30 1816 N 182.871 -2.26483 4.04054 0
M  V30 1817 C 183.606 -2.70306 5.0569 0
M  V30 1818 N 183.102 -3.13691 6.17713 0
M  V30 1819 N 184.895 -2.69923 4.9305 0
M  V30 1820 H 177.046 -0.0210029 2.1239 0
M  V30 1821 H 179.309 -0.0718733 0.945272 0
M  V30 1822 H 179.015 -0.85269 3.41207 0
M  V30 1823 H 178.889 -2.50103 2.82362 0
M  V30 1824 H 181.276 -2.29664 1.85306 0
M  V30 1825 H 181.357 -0.642492 2.476 0
M  V30 1826 H 181.001 -1.53918 4.84016 0
M  V30 1827 H 180.931 -3.19482 4.18615 0
M  V30 1828 H 183.422 -1.95874 3.23174 0
M  V30 1829 H 183.735 -3.45773 6.9113 0
M  V30 1830 H 182.08 -3.11585 6.21241 0
M  V30 1831 H 185.271 -2.35382 4.04614 0
M  V30 1832 H 185.444 -3.03758 5.72394 0
M  V30 1833 N 178.85 -1.27639 -0.924453 0
M  V30 1834 C 179.798 -1.10485 -2.04685 0
M  V30 1835 C 180.792 -0.0270421 -1.69378 0
M  V30 1836 O 181.998 -0.185008 -1.79047 0
M  V30 1837 H 178.373 -0.340546 -0.670472 0
M  V30 1838 H 180.344 -2.05566 -2.16298 0
M  V30 1839 C 179.093 -0.772229 -3.39016 0
M  V30 1840 H 178.416 -1.59351 -3.66671 0
M  V30 1841 H 179.856 -0.692097 -4.18313 0
M  V30 1842 C 178.315 0.523554 -3.32807 0
M  V30 1843 O 178.845 1.55702 -3.70297 0
M  V30 1844 N 177.051 0.520363 -2.85903 0
M  V30 1845 H 176.598 -0.32107 -2.55591 0
M  V30 1846 H 176.556 1.38742 -2.82131 0
M  V30 1847 N 180.328 1.1314 -1.09713 0
M  V30 1848 C 181.577 1.83838 -0.829851 0
M  V30 1849 C 181.89 1.84599 0.646728 0
M  V30 1850 O 183.096 2.51218 1.02965 0
M  V30 1851 C 181.552 3.30069 -1.43466 0
M  V30 1852 C 181.16 3.37688 -2.94399 0
M  V30 1853 C 182.904 4.05788 -1.24645 0
M  V30 1854 C 180.811 4.78209 -3.47952 0
M  V30 1855 H 179.741 0.68877 -0.306777 0
M  V30 1856 H 182.392 1.27448 -1.3202 0
M  V30 1857 H 180.774 3.8628 -0.871996 0
M  V30 1858 H 181.948 2.91456 -3.56918 0
M  V30 1859 H 180.263 2.75436 -3.12289 0
M  V30 1860 H 182.86 5.09535 -1.62107 0
M  V30 1861 H 183.203 4.15878 -0.187357 0
M  V30 1862 H 183.736 3.55915 -1.77678 0
M  V30 1863 H 180.475 4.73311 -4.53495 0
M  V30 1864 H 179.995 5.24924 -2.90198 0
M  V30 1865 H 181.674 5.47133 -3.45332 0
M  V30 1866 N 181.806 0.884767 1.30421 0
M  V30 1867 C 182.769 0.356277 2.26414 0
M  V30 1868 C 183.769 -0.501124 1.52792 0
M  V30 1869 O 184.959 -0.30831 1.7145 0
M  V30 1870 C 182.091 -0.492316 3.37326 0
M  V30 1871 H 183.284 1.20389 2.74675 0
M  V30 1872 H 180.837 0.661607 1.41607 0
M  V30 1873 H 181.572 -1.36052 2.94381 0
M  V30 1874 H 181.357 0.121832 3.91911 0
M  V30 1875 H 182.847 -0.853871 4.08777 0
M  V30 1876 N 183.284 -1.43765 0.645699 0
M  V30 1877 C 184.561 -1.9541 0.0862963 0
M  V30 1878 C 184.941 -1.58725 -1.39175 0
M  V30 1879 O 184.289 -0.868581 -2.11348 0
M  V30 1880 C 184.499 -3.47488 0.324565 0
M  V30 1881 C 185.847 -4.24001 0.225497 0
M  V30 1882 O 186.871 -3.55274 0.256715 0
M  V30 1883 O 185.73 -5.46313 0.142801 0
M  V30 1884 H 182.824 -0.826882 -0.0139483 0
M  V30 1885 H 185.37 -1.53743 0.718415 0
M  V30 1886 H 184.142 -3.67289 1.3496 0
M  V30 1887 H 183.765 -3.96135 -0.340987 0
M  V30 1888 N 184.763 -0.387143 -1.52771 0
M  V30 1889 C 185.726 0.436939 -2.24997 0
M  V30 1890 C 186.726 0.991991 -1.26555 0
M  V30 1891 O 187.916 0.874335 -1.50669 0
M  V30 1892 C 185.048 1.61281 -3.00335 0
M  V30 1893 H 186.241 -0.195365 -2.99263 0
M  V30 1894 H 183.794 -0.139218 -1.55679 0
M  V30 1895 H 184.529 2.2826 -2.30364 0
M  V30 1896 H 184.314 1.22154 -3.72587 0
M  V30 1897 H 185.804 2.19629 -3.5518 0
M  V30 1898 N 186.241 1.57166 -0.116904 0
M  V30 1899 C 187.657 1.5779 0.239693 0
M  V30 1900 C 187.857 1.1295 1.66867 0
M  V30 1901 O 186.913 0.81592 2.38954 0
M  V30 1902 C 188.226 3.00699 0.00828202 0
M  V30 1903 C 189.774 3.12912 0.0743438 0
M  V30 1904 C 190.249 4.57817 -0.129348 0
M  V30 1905 N 191.74 4.63139 -0.075247 0
M  V30 1906 C 192.475 5.73023 -0.207788 0
M  V30 1907 N 191.971 6.91665 -0.396382 0
M  V30 1908 N 193.764 5.61906 -0.14751 0
M  V30 1909 H 185.915 1.84615 -1.05029 0
M  V30 1910 H 188.178 0.85311 -0.41341 0
M  V30 1911 H 187.884 3.37784 -0.979531 0
M  V30 1912 H 187.758 3.69848 0.741077 0
M  V30 1913 H 190.145 2.75686 1.05268 0
M  V30 1914 H 190.226 2.4631 -0.690297 0
M  V30 1915 H 189.87 4.95742 -1.10465 0
M  V30 1916 H 189.8 5.22507 0.655253 0
M  V30 1917 H 192.291 3.7784 0.0670898 0
M  V30 1918 H 192.604 7.71255 -0.488437 0
M  V30 1919 H 190.949 6.93654 -0.432329 0
M  V30 1920 H 194.14 4.681 -0.00115036 0
M  V30 1921 H 194.313 6.47501 -0.254247 0
M  V30 1922 N 187.719 -0.156864 1.56817 0
M  V30 1923 C 188.669 -1.19891 1.93934 0
M  V30 1924 C 189.653 -1.39061 0.809372 0
M  V30 1925 O 190.845 -1.40789 1.07273 0
M  V30 1926 C 187.974 -2.53493 2.31508 0
M  V30 1927 C 187.06 -2.37957 3.51052 0
M  V30 1928 N 187.451 -1.92158 4.67877 0
M  V30 1929 C 185.749 -2.68739 3.55943 0
M  V30 1930 C 186.45 -1.8943 5.49992 0
M  V30 1931 N 185.426 -2.32375 4.91429 0
M  V30 1932 H 189.228 -0.836746 2.81737 0
M  V30 1933 H 186.742 -0.365012 1.58245 0
M  V30 1934 H 188.739 -3.28811 2.56299 0
M  V30 1935 H 187.399 -2.905 1.45051 0
M  V30 1936 H 188.41 -1.62274 4.91821 0
M  V30 1937 H 185.087 -3.09687 2.80001 0
M  V30 1938 H 186.477 -1.55596 6.53636 0
M  V30 1939 N 189.197 -1.51736 -0.425897 0
M  V30 1940 C 190.425 -1.68794 -1.1965 0
M  V30 1941 C 190.84 -0.390164 -1.84725 0
M  V30 1942 O 190.197 0.632376 -1.71194 0
M  V30 1943 C 190.248 -2.81174 -2.27208 0
M  V30 1944 O 189.969 -4.05925 -1.64793 0
M  V30 1945 C 191.47 -3.09599 -3.17275 0
M  V30 1946 H 188.69 -0.566128 -0.360194 0
M  V30 1947 H 191.234 -1.98211 -0.503249 0
M  V30 1948 H 189.389 -2.54324 -2.9223 0
M  V30 1949 H 189.803 -4.68423 -2.35967 0
M  V30 1950 H 191.277 -3.91786 -3.88854 0
M  V30 1951 H 191.754 -2.22468 -3.78688 0
M  V30 1952 H 192.36 -3.38151 -2.57941 0
M  V30 1953 N 190.675 0.682077 -1.42076 0
M  V30 1954 C 191.921 1.44428 -1.42367 0
M  V30 1955 C 192.254 1.94164 -0.0373056 0
M  V30 1956 O 191.529 1.70429 0.937239 0
M  V30 1957 C 191.812 2.64654 -2.44194 0
M  V30 1958 C 191.665 2.20596 -3.91991 0
M  V30 1959 C 192.984 3.66865 -2.431 0
M  V30 1960 H 190.103 0.523834 -0.518428 0
M  V30 1961 H 192.745 0.77576 -1.73442 0
M  V30 1962 H 190.895 3.2169 -2.17826 0
M  V30 1963 H 192.567 1.68783 -4.29313 0
M  V30 1964 H 190.81 1.52242 -4.06208 0
M  V30 1965 H 191.481 3.06921 -4.58807 0
M  V30 1966 H 193.957 3.19531 -2.66532 0
M  V30 1967 H 192.833 4.48577 -3.16339 0
M  V30 1968 H 193.094 4.17493 -1.45437 0
M  V30 1969 N 192.153 1.28127 0.917671 0
M  V30 1970 C 193.43 1.05761 1.64542 0
M  V30 1971 C 193.81 -0.404344 2.07191 0
M  V30 1972 O 193.158 -1.38963 1.81388 0
M  V30 1973 C 193.368 2.02857 2.83989 0
M  V30 1974 C 194.716 2.32786 3.551 0
M  V30 1975 O 195.74 2.0091 2.94132 0
M  V30 1976 O 194.599 2.87169 4.64969 0
M  V30 1977 H 191.693 0.403916 0.721652 0
M  V30 1978 H 194.239 1.39431 0.967322 0
M  V30 1979 H 193.011 3.01407 2.49538 0
M  V30 1980 H 192.634 1.69809 3.59514 0
M  V30 1981 N 193.631 -1.12557 1.10312 0
M  V30 1982 C 194.88 -1.83395 0.839588 0
M  V30 1983 C 195.193 -1.84939 -0.636929 0
M  V30 1984 O 196.399 -2.51761 -1.01631 0
M  V30 1985 C 194.855 -3.29303 1.45215 0
M  V30 1986 C 194.463 -3.36122 2.96186 0
M  V30 1987 C 196.207 -4.05121 1.26796 0
M  V30 1988 C 194.114 -4.76357 3.50483 0
M  V30 1989 H 193.044 -0.687133 0.310425 0
M  V30 1990 H 195.695 -1.26746 1.32694 0
M  V30 1991 H 194.077 -3.85812 0.892469 0
M  V30 1992 H 195.251 -2.89559 3.58458 0
M  V30 1993 H 193.566 -2.73776 3.13745 0
M  V30 1994 H 196.163 -5.08668 1.64806 0
M  V30 1995 H 196.506 -4.15773 0.209409 0
M  V30 1996 H 197.039 -3.54967 1.79563 0
M  V30 1997 H 193.778 -4.70899 4.55998 0
M  V30 1998 H 193.298 -5.23377 2.92978 0
M  V30 1999 H 194.977 -5.45294 3.48228 0
M  V30 2000 N 195.109 -0.891671 -1.2995 0
M  V30 2001 C 196.334 -0.527932 -2.00568 0
M  V30 2002 C 196.759 0.877969 -1.66353 0
M  V30 2003 O 196.117 1.58301 -0.883762 0
M  V30 2004 C 196.165 -0.717745 -3.53385 0
M  V30 2005 O 195.269 0.233376 -4.11739 0
M  V30 2006 H 194.61 -0.20722 -0.630837 0
M  V30 2007 H 197.14 -1.20105 -1.65638 0
M  V30 2008 H 197.15 -0.619307 -4.03272 0
M  V30 2009 H 195.825 -1.74276 -3.77625 0
M  V30 2010 H 194.402 0.0880706 -3.72796 0
M  V30 2011 N 196.587 1.43421 -0.653314 0
M  V30 2012 C 197.812 2.06678 -0.172846 0
M  V30 2013 C 198.237 1.48648 1.15262 0
M  V30 2014 O 197.595 0.596457 1.71208 0
M  V30 2015 C 197.643 3.60474 -0.0953184 0
M  V30 2016 O 196.747 4.01487 0.942442 0
M  V30 2017 H 196.088 0.657181 -0.0949155 0
M  V30 2018 H 198.618 1.83925 -0.896265 0
M  V30 2019 H 198.628 4.07905 0.0879728 0
M  V30 2020 H 197.303 4.02088 -1.06291 0
M  V30 2021 H 195.88 3.65646 0.731932 0
M  V30 2022 N 198.065 0.39524 1.52563 0
M  V30 2023 C 198.995 -0.428384 2.29537 0
M  V30 2024 C 199.976 -1.05831 1.33169 0
M  V30 2025 O 201.161 -1.06995 1.62067 0
M  V30 2026 C 198.291 -1.55274 3.10656 0
M  V30 2027 C 197.245 -1.04855 4.14957 0
M  V30 2028 C 196.571 -2.26543 4.84337 0
M  V30 2029 C 197.871 -0.112324 5.22179 0
M  V30 2030 H 199.565 0.213867 2.98635 0
M  V30 2031 H 197.111 0.104298 1.43622 0
M  V30 2032 H 199.064 -2.1358 3.63265 0
M  V30 2033 H 197.788 -2.22266 2.39302 0
M  V30 2034 H 196.447 -0.487985 3.63338 0
M  V30 2035 H 196.095 -2.92059 4.09525 0
M  V30 2036 H 195.795 -1.93466 5.54837 0
M  V30 2037 H 197.319 -2.85481 5.39753 0
M  V30 2038 H 198.733 -0.603752 5.70112 0
M  V30 2039 H 197.13 0.128968 5.99961 0
M  V30 2040 H 198.2 0.837052 4.77621 0
M  V30 2041 N 199.544 -1.57102 0.125237 0
M  V30 2042 C 200.507 -2.14471 -0.80838 0
M  V30 2043 C 201.507 -1.0811 -1.19033 0
M  V30 2044 O 202.697 -1.33856 -1.11482 0
M  V30 2045 C 199.829 -2.69005 -2.09402 0
M  V30 2046 H 201.022 -2.98297 -0.309696 0
M  V30 2047 H 198.575 -1.55807 -0.124051 0
M  V30 2048 H 199.31 -1.88785 -2.63687 0
M  V30 2049 H 199.095 -3.46799 -1.82957 0
M  V30 2050 H 200.585 -3.13278 -2.76128 0
M  V30 2051 N 201.022 0.148545 -1.56898 0
M  V30 2052 C 202.433 0.708766 -1.72723 0
M  V30 2053 C 202.784 1.81734 -0.739395 0
M  V30 2054 O 201.909 2.16194 0.0943169 0
M  V30 2055 C 202.504 1.29245 -3.13179 0
M  V30 2056 C 201.063 1.79925 -3.30611 0
M  V30 2057 C 200.21 0.687111 -2.68652 0
M  V30 2058 H 203.161 -0.0771063 -1.58513 0
M  V30 2059 H 203.182 2.16224 -3.13093 0
M  V30 2060 H 202.694 0.485382 -3.85053 0
M  V30 2061 H 200.795 2.63203 -2.63732 0
M  V30 2062 H 200.908 1.92903 -4.38549 0
M  V30 2063 H 199.272 1.11335 -2.29078 0
M  V30 2064 H 200.055 -0.108483 -3.43129 0
M  V30 2065 N 202.5 1.5196 0.417844 0
M  V30 2066 C 203.747 1.65591 1.16559 0
M  V30 2067 C 204.075 0.381565 1.90721 0
M  V30 2068 O 203.33 -0.635156 1.85106 0
M  V30 2069 C 203.629 2.82269 2.19223 0
M  V30 2070 C 203.295 4.20819 1.61933 0
M  V30 2071 C 201.957 4.58506 1.46033 0
M  V30 2072 C 204.309 5.07196 1.20008 0
M  V30 2073 C 201.637 5.80257 0.867113 0
M  V30 2074 C 203.989 6.29544 0.621086 0
M  V30 2075 C 202.653 6.65987 0.449144 0
M  V30 2076 H 201.923 0.605939 0.42652 0
M  V30 2077 H 204.57 1.86041 0.45397 0
M  V30 2078 H 202.875 2.56118 2.96498 0
M  V30 2079 H 204.572 2.90012 2.76936 0
M  V30 2080 H 201.162 3.91116 1.7529 0
M  V30 2081 H 205.346 4.7867 1.31105 0
M  V30 2082 H 200.602 6.07124 0.721833 0
M  V30 2083 H 204.776 6.95805 0.287798 0
M  V30 2084 H 202.403 7.60199 -0.012632 0
M  V30 2085 N 203.978 -0.674533 1.42435 0
M  V30 2086 C 205.389 -1.25514 1.38214 0
M  V30 2087 C 205.74 -1.96055 0.0755464 0
M  V30 2088 O 204.865 -2.00028 -0.8257 0
M  V30 2089 C 205.46 -2.28269 2.50357 0
M  V30 2090 C 204.019 -2.81856 2.49467 0
M  V30 2091 C 203.166 -1.56182 2.29134 0
M  V30 2092 H 206.117 -0.467902 1.51646 0
M  V30 2093 H 206.138 -3.10009 2.20624 0
M  V30 2094 H 205.65 -1.769 3.45439 0
M  V30 2095 H 203.751 -3.37346 1.58204 0
M  V30 2096 H 203.864 -3.30854 3.46515 0
M  V30 2097 H 202.228 -1.82761 1.774 0
M  V30 2098 H 203.011 -1.06778 3.26272 0
M  V30 2099 N 205.456 -1.28612 -0.910864 0
M  V30 2100 C 206.404 -1.1265 -2.03501 0
M  V30 2101 C 207.398 -0.0450054 -1.6934 0
M  V30 2102 O 208.604 -0.203988 -1.7884 0
M  V30 2103 H 204.979 -0.347639 -0.666822 0
M  V30 2104 H 206.95 -2.07849 -2.14106 0
M  V30 2105 C 205.699 -0.808143 -3.38178 0
M  V30 2106 H 205.022 -1.63231 -3.6496 0
M  V30 2107 H 206.462 -0.736426 -4.17556 0
M  V30 2108 C 204.921 0.488226 -3.33344 0
M  V30 2109 O 205.451 1.51766 -3.71927 0
M  V30 2110 N 203.657 0.490009 -2.86439 0
M  V30 2111 H 203.204 -0.348161 -2.55236 0
M  V30 2112 H 203.162 1.35741 -2.83587 0
M  V30 2113 N 206.934 1.1197 -1.10907 0
M  V30 2114 C 208.182 1.83225 -0.852819 0
M  V30 2115 C 208.503 1.84769 0.623341 0
M  V30 2116 O 207.773 1.3143 1.45269 0
M  V30 2117 H 206.353 0.67849 -0.312507 0
M  V30 2118 H 209.015 1.3556 -1.40033 0
M  V30 2119 H 208.111 2.87265 -1.22005 0
M  V30 2120 N 208.412 0.89855 1.29475 0
M  V30 2121 C 209.66 0.522847 1.9522 0
M  V30 2122 C 209.981 -0.93371 1.71192 0
M  V30 2123 O 209.251 -1.65823 1.04305 0
M  V30 2124 H 207.831 0.190366 0.722336 0
M  V30 2125 H 210.493 1.14459 1.5775 0
M  V30 2126 H 209.589 0.704476 3.04045 0
M  V30 2127 N 209.89 -1.43072 0.660911 0
M  V30 2128 C 211.137 -2.01721 0.177445 0
M  V30 2129 C 211.465 -1.5218 -1.21126 0
M  V30 2130 O 210.72 -0.708659 -1.82419 0
M  V30 2131 C 211.019 -3.57103 0.145563 0
M  V30 2132 C 210.685 -4.26021 1.47705 0
M  V30 2133 C 209.347 -4.44563 1.84165 0
M  V30 2134 C 211.699 -4.64983 2.35458 0
M  V30 2135 C 209.027 -4.99334 3.0803 0
M  V30 2136 C 211.379 -5.21127 3.58622 0
M  V30 2137 C 210.043 -5.37884 3.95268 0
M  V30 2138 H 209.313 -0.73815 0.0649317 0
M  V30 2139 H 211.96 -1.71446 0.853144 0
M  V30 2140 H 210.265 -3.86965 -0.61361 0
M  V30 2141 H 211.962 -4.00248 -0.2455 0
M  V30 2142 H 208.552 -4.11939 1.18339 0
M  V30 2143 H 212.736 -4.50343 2.08579 0
M  V30 2144 H 207.992 -5.10493 3.36462 0
M  V30 2145 H 212.166 -5.50262 4.26831 0
M  V30 2146 H 209.793 -5.80089 4.91325 0
M  V30 2147 N 211.368 -0.403325 -1.52352 0
M  V30 2148 C 212.278 0.432009 -2.30588 0
M  V30 2149 C 213.294 1.05884 -1.38075 0
M  V30 2150 O 214.47 1.06161 -1.71148 0
M  V30 2151 C 211.535 1.53669 -3.10784 0
M  V30 2152 C 210.596 0.933525 -4.19027 0
M  V30 2153 C 209.829 1.98557 -4.9539 0
M  V30 2154 O 210.052 3.20283 -4.71991 0
M  V30 2155 O 208.986 1.59504 -5.80381 0
M  V30 2156 H 212.812 -0.205739 -3.03002 0
M  V30 2157 H 210.397 -0.166675 -1.48467 0
M  V30 2158 H 212.279 2.17814 -3.60742 0
M  V30 2159 H 210.954 2.15915 -2.41169 0
M  V30 2160 H 209.861 0.254954 -3.7323 0
M  V30 2161 H 211.194 0.35508 -4.90918 0
M  V30 2162 N 212.846 1.57033 -0.133567 0
M  V30 2163 C 214.123 1.87256 0.56522 0
M  V30 2164 C 214.503 1.03726 1.83859 0
M  V30 2165 O 213.851 0.120247 2.28183 0
M  V30 2166 C 214.061 3.3865 0.843636 0
M  V30 2167 C 215.409 4.07574 1.19032 0
M  V30 2168 O 216.433 3.43752 0.933429 0
M  V30 2169 O 215.292 5.20259 1.67312 0
M  V30 2170 H 212.386 0.775678 0.286796 0
M  V30 2171 H 214.932 1.68855 -0.169168 0
M  V30 2172 H 213.704 3.91257 -0.0581149 0
M  V30 2173 H 213.327 3.62532 1.63268 0
M  V30 2174 N 214.325 -0.140222 1.56975 0
M  V30 2175 C 215.288 -1.15689 1.97861 0
M  V30 2176 C 216.288 -1.3549 0.865974 0
M  V30 2177 O 217.478 -1.32367 1.13246 0
M  V30 2178 C 214.61 -2.51582 2.30042 0
M  V30 2179 H 215.803 -0.805971 2.88867 0
M  V30 2180 H 213.356 -0.383801 1.51515 0
M  V30 2181 H 214.091 -2.91632 1.41849 0
M  V30 2182 H 213.876 -2.38569 3.11171 0
M  V30 2183 H 215.366 -3.24792 2.62488 0
M  V30 2184 N 215.803 -1.52179 -0.40978 0
M  V30 2185 C 217.049 -1.66453 -1.15851 0
M  V30 2186 C 217.382 -0.392972 -1.90182 0
M  V30 2187 O 216.657 0.608579 -1.84734 0
M  V30 2188 C 216.94 -2.88612 -2.15349 0
M  V30 2189 C 216.793 -4.25815 -1.44918 0
M  V30 2190 C 218.112 -3.06294 -3.16026 0
M  V30 2191 H 215.231 -0.60575 -0.419805 0
M  V30 2192 H 217.873 -1.84732 -0.444314 0
M  V30 2193 H 216.023 -2.73158 -2.76255 0
M  V30 2194 H 217.695 -4.52995 -0.871365 0
M  V30 2195 H 215.938 -4.27247 -0.751159 0
M  V30 2196 H 216.609 -5.07337 -2.17516 0
M  V30 2197 H 219.085 -3.20641 -2.65195 0
M  V30 2198 H 217.961 -3.93283 -3.8291 0
M  V30 2199 H 218.222 -2.19579 -3.83715 0
M  V30 2200 N 217.281 0.66697 -1.42791 0
M  V30 2201 C 218.527 1.4291 -1.43891 0
M  V30 2202 C 218.86 1.94114 -0.0578972 0
M  V30 2203 O 218.135 1.71414 0.91911 0
M  V30 2204 C 218.418 2.62049 -2.46987 0
M  V30 2205 C 218.271 2.16426 -3.94309 0
M  V30 2206 C 219.59 3.64266 -2.46978 0
M  V30 2207 H 216.709 0.518306 -0.523954 0
M  V30 2208 H 219.351 0.757321 -1.74255 0
M  V30 2209 H 217.501 3.19361 -2.21225 0
M  V30 2210 H 219.173 1.64221 -4.31079 0
M  V30 2211 H 217.416 1.47925 -4.078 0
M  V30 2212 H 218.087 3.02038 -4.62036 0
M  V30 2213 H 220.563 3.16686 -2.69906 0
M  V30 2214 H 219.439 4.45196 -3.21079 0
M  V30 2215 H 219.7 4.15927 -1.49857 0
M  V30 2216 N 218.759 1.29093 0.90403 0
M  V30 2217 C 220.036 1.075 1.63411 0
M  V30 2218 C 220.416 -0.382346 2.07609 0
M  V30 2219 O 219.764 -1.37031 1.82851 0
M  V30 2220 C 219.974 2.05858 2.81822 0
M  V30 2221 C 221.322 2.36539 3.52611 0
M  V30 2222 O 222.346 2.04019 2.91984 0
M  V30 2223 O 221.205 2.92085 4.61897 0
M  V30 2224 H 218.299 0.411547 0.717327 0
M  V30 2225 H 220.845 1.40449 0.952479 0
M  V30 2226 H 219.617 3.04037 2.46327 0
M  V30 2227 H 219.24 1.73613 3.57693 0
M  V30 2228 N 220.237 -1.11381 1.11499 0
M  V30 2229 C 221.485 -1.8277 0.862524 0
M  V30 2230 C 221.806 -1.85097 -0.613534 0
M  V30 2231 O 221.076 -1.32198 -1.4457 0
M  V30 2232 H 219.656 -0.676823 0.316101 0
M  V30 2233 H 222.318 -1.34816 1.4075 0
M  V30 2234 H 221.414 -2.86614 1.23527 0
M  V30 2235 N 221.715 -0.905404 -1.28997 0
M  V30 2236 C 222.645 -0.404212 -2.29975 0
M  V30 2237 C 223.626 0.523784 -1.61835 0
M  V30 2238 O 224.811 0.433298 -1.89304 0
M  V30 2239 C 221.941 0.364042 -3.45387 0
M  V30 2240 C 220.895 -0.474048 -4.25367 0
M  V30 2241 C 220.221 0.422045 -5.33032 0
M  V30 2242 C 221.521 -1.72696 -4.92923 0
M  V30 2243 H 223.215 -1.24807 -2.72146 0
M  V30 2244 H 220.761 -0.601585 -1.30832 0
M  V30 2245 H 222.714 0.725447 -4.15109 0
M  V30 2246 H 221.438 1.24174 -3.02074 0
M  V30 2247 H 220.097 -0.81786 -3.57361 0
M  V30 2248 H 219.745 1.29804 -4.85963 0
M  V30 2249 H 219.445 -0.135057 -5.87445 0
M  V30 2250 H 220.969 0.779517 -6.05604 0
M  V30 2251 H 222.383 -1.43495 -5.55051 0
M  V30 2252 H 220.78 -2.22582 -5.57295 0
M  V30 2253 H 221.85 -2.45964 -4.17887 0
M  V30 2254 N 223.193 1.4272 -0.668489 0
M  V30 2255 C 224.14 2.30796 0.0137489 0
M  V30 2256 C 225.11 1.4561 0.799177 0
M  V30 2257 O 226.295 1.74453 0.772702 0
M  V30 2258 C 223.435 3.31377 0.963507 0
M  V30 2259 C 222.548 4.31655 0.172569 0
M  V30 2260 C 221.683 5.19312 1.1175 0
M  V30 2261 C 220.722 6.11274 0.317886 0
M  V30 2262 N 219.859 6.91504 1.2152 0
M  V30 2263 H 224.699 2.88585 -0.743161 0
M  V30 2264 H 222.236 1.42154 -0.378226 0
M  V30 2265 H 224.194 3.88214 1.52792 0
M  V30 2266 H 222.824 2.75202 1.68712 0
M  V30 2267 H 221.876 3.76988 -0.508374 0
M  V30 2268 H 223.188 4.96779 -0.448527 0
M  V30 2269 H 222.342 5.80851 1.75206 0
M  V30 2270 H 221.081 4.5435 1.77249 0
M  V30 2271 H 220.086 5.48809 -0.329918 0
M  V30 2272 H 221.311 6.78283 -0.332917 0
M  V30 2273 H 219.257 6.29176 1.85671 0
M  V30 2274 H 219.174 7.53209 0.649036 0
M  V30 2275 H 220.442 7.57535 1.83742 0
M  V30 2276 N 224.671 0.411399 1.52136 0
M  V30 2277 C 225.634 -0.401089 2.25663 0
M  V30 2278 C 226.634 -0.971732 1.28117 0
M  V30 2279 O 227.824 -0.850254 1.52041 0
M  V30 2280 C 224.956 -1.56483 3.02863 0
M  V30 2281 H 226.149 0.24295 2.98914 0
M  V30 2282 H 223.702 0.163968 1.55438 0
M  V30 2283 H 224.437 -2.24567 2.33967 0
M  V30 2284 H 224.222 -1.16211 3.74483 0
M  V30 2285 H 225.712 -2.13951 3.58629 0
M  V30 2286 N 226.149 -1.5696 0.141893 0
M  V30 2287 C 227.395 -1.9625 -0.511248 0
M  V30 2288 C 227.728 -1.02654 -1.64851 0
M  V30 2289 O 227.003 -0.0679676 -1.94381 0
M  V30 2290 C 227.286 -3.45285 -1.02227 0
M  V30 2291 C 227.139 -4.49658 0.113138 0
M  V30 2292 C 228.458 -3.96698 -1.90574 0
M  V30 2293 H 225.577 -0.713567 -0.184367 0
M  V30 2294 H 228.219 -1.88698 0.222087 0
M  V30 2295 H 226.369 -3.51852 -1.64719 0
M  V30 2296 H 228.041 -4.55174 0.749302 0
M  V30 2297 H 226.284 -4.26857 0.773026 0
M  V30 2298 H 226.955 -5.51258 -0.286053 0
M  V30 2299 H 229.431 -3.92578 -1.37918 0
M  V30 2300 H 228.307 -5.01453 -2.2324 0
M  V30 2301 H 228.568 -3.3875 -2.84079 0
M  V30 2302 N 227.627 0.131896 -1.57047 0
M  V30 2303 C 228.873 0.843179 -1.84441 0
M  V30 2304 C 229.206 1.80129 -0.725749 0
M  V30 2305 O 228.481 1.92624 0.269469 0
M  V30 2306 C 228.764 1.60442 -3.22382 0
M  V30 2307 C 228.617 0.666782 -4.4483 0
M  V30 2308 C 229.936 2.56354 -3.5773 0
M  V30 2309 H 227.055 0.305081 -0.670891 0
M  V30 2310 H 229.697 0.107839 -1.89694 0
M  V30 2311 H 227.847 2.23128 -3.18035 0
M  V30 2312 H 229.519 0.0497646 -4.61273 0
M  V30 2313 H 227.762 -0.022609 -4.33794 0
M  V30 2314 H 228.433 1.23579 -5.37989 0
M  V30 2315 H 230.909 2.0378 -3.62785 0
M  V30 2316 H 229.785 3.06657 -4.5525 0
M  V30 2317 H 230.046 3.38419 -2.84473 0
M  V30 2318 N 229.106 1.52395 0.401703 0
M  V30 2319 C 230.069 1.75636 1.47257 0
M  V30 2320 C 231.069 0.62628 1.48103 0
M  V30 2321 O 232.259 0.894227 1.49497 0
M  V30 2322 C 229.391 1.84553 2.86624 0
M  V30 2323 H 230.584 2.71241 1.27938 0
M  V30 2324 H 228.137 1.42923 0.632662 0
M  V30 2325 H 228.872 0.908882 3.11303 0
M  V30 2326 H 228.657 2.66715 2.87412 0
M  V30 2327 H 230.147 2.04251 3.64241 0
M  V30 2328 N 230.584 -0.659388 1.43143 0
M  V30 2329 C 231.547 -1.75432 1.47501 0
M  V30 2330 C 232.547 -1.56707 0.360512 0
M  V30 2331 O 233.737 -1.62717 0.622002 0
M  V30 2332 C 230.869 -3.14239 1.32162 0
M  V30 2333 H 232.062 -1.7295 2.45006 0
M  V30 2334 H 229.615 -0.870469 1.29817 0
M  V30 2335 H 230.35 -3.22336 0.356401 0
M  V30 2336 H 230.135 -3.29235 2.12948 0
M  V30 2337 H 231.625 -3.94094 1.3813 0
M  V30 2338 N 232.062 -1.29571 -0.897171 0
M  V30 2339 C 233.31 -1.17456 -1.64464 0
M  V30 2340 C 233.631 0.273698 -1.9307 0
M  V30 2341 O 232.901 1.18684 -1.55855 0
M  V30 2342 H 231.481 -0.431706 -0.609622 0
M  V30 2343 H 234.143 -1.62531 -1.07562 0
M  V30 2344 H 233.239 -1.72648 -2.59998 0
M  V30 2345 N 233.54 1.10788 -1.12088 0
M  V30 2346 C 234.49 2.15158 -0.754401 0
M  V30 2347 C 235.474 1.59026 0.244846 0
M  V30 2348 O 236.666 1.76927 0.0509097 0
M  V30 2349 C 233.795 3.42677 -0.206657 0
M  V30 2350 C 232.881 4.05751 -1.23398 0
M  V30 2351 N 233.272 4.43582 -2.43041 0
M  V30 2352 C 231.57 4.32764 -1.07848 0
M  V30 2353 C 232.271 4.93085 -3.08613 0
M  V30 2354 N 231.247 4.89664 -2.36072 0
M  V30 2355 H 235.049 2.42195 -1.6649 0
M  V30 2356 H 232.563 1.27872 -1.00112 0
M  V30 2357 H 234.56 4.16834 0.0740646 0
M  V30 2358 H 233.22 3.17101 0.698342 0
M  V30 2359 H 234.231 4.35395 -2.80449 0
M  V30 2360 H 230.908 4.16863 -0.230483 0
M  V30 2361 H 232.298 5.31933 -4.10483 0
M  V30 2362 N 235.018 0.912232 1.28515 0
M  V30 2363 C 236.243 0.559774 1.99703 0
M  V30 2364 C 236.668 -0.851393 1.67729 0
M  V30 2365 O 236.026 -1.56875 0.908834 0
M  V30 2366 C 236.074 0.773874 3.52198 0
M  V30 2367 O 235.178 -0.167842 4.12058 0
M  V30 2368 H 234.519 0.21723 0.627461 0
M  V30 2369 H 237.049 1.22725 1.63706 0
M  V30 2370 H 237.059 0.683386 4.02236 0
M  V30 2371 H 235.734 1.80261 3.74805 0
M  V30 2372 H 234.311 -0.0287509 3.72889 0
M  V30 2373 N 236.496 -1.42363 0.676048 0
M  V30 2374 C 237.907 -1.84649 0.275948 0
M  V30 2375 C 238.258 -1.56588 -1.18214 0
M  V30 2376 O 237.383 -1.02634 -1.90513 0
M  V30 2377 C 237.978 -3.35178 0.494053 0
M  V30 2378 C 236.537 -3.76109 0.148061 0
M  V30 2379 C 235.684 -2.65931 0.785891 0
M  V30 2380 H 238.635 -1.32192 0.878121 0
M  V30 2381 H 238.656 -3.79655 -0.25343 0
M  V30 2382 H 238.168 -3.55571 1.55535 0
M  V30 2383 H 236.269 -3.61323 -0.909742 0
M  V30 2384 H 236.382 -4.7546 0.589454 0
M  V30 2385 H 234.746 -2.53773 0.217113 0
M  V30 2386 H 235.529 -2.89146 1.85067 0
M  V30 2387 N 237.974 -0.419461 -1.51915 0
M  V30 2388 C 239.39 -0.0708431 -1.59443 0
M  V30 2389 C 239.59 1.41796 -1.43164 0
M  V30 2390 O 238.646 2.18596 -1.26381 0
M  V30 2391 C 239.959 -0.574991 -2.95151 0
M  V30 2392 C 241.507 -0.533867 -3.08413 0
M  V30 2393 C 241.982 -1.01469 -4.46618 0
M  V30 2394 N 243.473 -0.971939 -4.52888 0
M  V30 2395 C 244.208 -1.31505 -5.58116 0
M  V30 2396 N 243.704 -1.73014 -6.70849 0
M  V30 2397 N 245.497 -1.23436 -5.48379 0
M  V30 2398 H 237.648 -1.38836 -1.60743 0
M  V30 2399 H 239.911 -0.570998 -0.756747 0
M  V30 2400 H 239.617 -1.61597 -3.12377 0
M  V30 2401 H 239.491 0.00979777 -3.77199 0
M  V30 2402 H 241.878 0.498086 -2.90866 0
M  V30 2403 H 241.959 -1.15484 -2.28248 0
M  V30 2404 H 241.603 -2.04502 -4.6491 0
M  V30 2405 H 241.533 -0.370433 -5.25295 0
M  V30 2406 H 244.024 -0.666893 -3.71969 0
M  V30 2407 H 244.337 -1.97479 -7.47143 0
M  V30 2408 H 242.682 -1.76926 -6.72103 0
M  V30 2409 H 245.873 -0.908869 -4.59192 0
M  V30 2410 H 246.046 -1.50506 -6.30279 0
M  V30 2411 N 239.452 1.56882 -0.150215 0
M  V30 2412 C 240.698 1.96518 0.500834 0
M  V30 2413 C 241.031 1.03527 1.64304 0
M  V30 2414 O 240.306 0.0782751 1.94342 0
M  V30 2415 C 240.589 3.45822 1.00395 0
M  V30 2416 C 240.442 4.49591 -0.136983 0
M  V30 2417 C 241.761 3.97704 1.88467 0
M  V30 2418 H 238.88 0.714535 0.18058 0
M  V30 2419 H 241.522 1.88577 -0.232091 0
M  V30 2420 H 239.672 3.5272 1.62851 0
M  V30 2421 H 241.344 4.5477 -0.77343 0
M  V30 2422 H 239.587 4.26441 -0.795652 0
M  V30 2423 H 240.258 5.51402 0.256815 0
M  V30 2424 H 242.734 3.93304 1.35834 0
M  V30 2425 H 241.61 5.0263 2.20578 0
M  V30 2426 H 241.871 3.40252 2.82279 0
M  V30 2427 N 240.93 -0.123565 1.57115 0
M  V30 2428 C 242.346 -0.476961 1.52306 0
M  V30 2429 C 242.546 -1.82109 0.86248 0
M  V30 2430 O 241.602 -2.48586 0.442884 0
M  V30 2431 C 242.915 -0.465661 2.97073 0
M  V30 2432 C 244.463 -0.549534 3.08138 0
M  V30 2433 C 244.938 -0.568669 4.54456 0
M  V30 2434 N 246.429 -0.630237 4.58892 0
M  V30 2435 C 247.164 -0.666415 5.69514 0
M  V30 2436 N 246.66 -0.660514 6.89644 0
M  V30 2437 N 248.453 -0.709077 5.5761 0
M  V30 2438 H 240.604 0.757198 1.98445 0
M  V30 2439 H 242.867 0.278808 0.906074 0
M  V30 2440 H 242.573 0.454232 3.48754 0
M  V30 2441 H 242.447 -1.29513 3.54269 0
M  V30 2442 H 244.834 -1.45985 2.56461 0
M  V30 2443 H 244.915 0.307532 2.53945 0
M  V30 2444 H 244.559 0.337581 5.06777 0
M  V30 2445 H 244.489 -1.44256 5.06456 0
M  V30 2446 H 246.98 -0.641146 3.72421 0
M  V30 2447 H 247.293 -0.690616 7.69708 0
M  V30 2448 H 245.638 -0.628012 6.92157 0
M  V30 2449 H 248.829 -0.711019 4.62668 0
M  V30 2450 H 249.002 -0.733804 6.43832 0
M  V30 2451 N 242.408 -1.52605 -0.393616 0
M  V30 2452 C 243.657 -1.66649 -1.13627 0
M  V30 2453 C 243.97 -0.410364 -1.91247 0
M  V30 2454 O 245.176 -0.430854 -2.68059 0
M  V30 2455 C 243.632 -2.9449 -2.06891 0
M  V30 2456 C 243.24 -4.27266 -1.34714 0
M  V30 2457 C 244.984 -3.17899 -2.81319 0
M  V30 2458 C 242.891 -5.46217 -2.26717 0
M  V30 2459 H 241.821 -0.62084 -0.427871 0
M  V30 2460 H 244.472 -1.791 -0.399428 0
M  V30 2461 H 242.854 -2.75774 -2.84191 0
M  V30 2462 H 244.028 -4.56518 -0.626714 0
M  V30 2463 H 242.343 -4.10081 -0.722643 0
M  V30 2464 H 244.94 -4.03949 -3.50328 0
M  V30 2465 H 245.283 -2.32777 -3.45139 0
M  V30 2466 H 245.816 -3.37159 -2.11113 0
M  V30 2467 H 242.555 -6.33733 -1.67521 0
M  V30 2468 H 242.075 -5.21283 -2.96689 0
M  V30 2469 H 243.754 -5.7991 -2.86903 0
M  V30 2470 N 243.887 0.651787 -1.4349 0
M  V30 2471 C 244.817 1.77621 -1.51569 0
M  V30 2472 C 245.798 1.66022 -0.370253 0
M  V30 2473 O 246.983 1.85095 -0.587658 0
M  V30 2474 C 244.113 3.16056 -1.43966 0
M  V30 2475 C 243.067 3.4242 -2.56774 0
M  V30 2476 C 242.393 4.8067 -2.34223 0
M  V30 2477 C 243.693 3.37023 -3.99015 0
M  V30 2478 H 245.387 1.71117 -2.45681 0
M  V30 2479 H 242.933 0.821825 -1.18246 0
M  V30 2480 H 244.886 3.94472 -1.48221 0
M  V30 2481 H 243.61 3.23293 -0.463586 0
M  V30 2482 H 242.269 2.66375 -2.51873 0
M  V30 2483 H 241.917 4.84585 -1.34856 0
M  V30 2484 H 241.617 4.9927 -3.09844 0
M  V30 2485 H 243.141 5.61342 -2.40265 0
M  V30 2486 H 244.555 4.05374 -4.05395 0
M  V30 2487 H 242.952 3.67159 -4.74673 0
M  V30 2488 H 244.022 2.3518 -4.2405 0
M  V30 2489 N 245.365 1.30045 0.890287 0
M  V30 2490 C 246.611 1.18737 1.64406 0
M  V30 2491 C 246.944 -0.258525 1.92472 0
M  V30 2492 O 246.219 -1.18562 1.54186 0
M  V30 2493 C 246.502 2.01087 2.98724 0
M  V30 2494 C 246.355 3.53867 2.77665 0
M  V30 2495 C 247.674 1.84457 3.9958 0
M  V30 2496 H 244.793 0.432698 0.596608 0
M  V30 2497 H 247.435 1.5962 1.0306 0
M  V30 2498 H 245.585 1.66349 3.51084 0
M  V30 2499 H 247.257 3.98637 2.32133 0
M  V30 2500 H 245.5 3.78318 2.12269 0
M  V30 2501 H 246.171 4.06772 3.7315 0
M  V30 2502 H 248.647 2.14817 3.56361 0
M  V30 2503 H 247.523 2.44411 4.91482 0
M  V30 2504 H 247.784 0.802276 4.3476 0
M  V30 2505 N 246.843 -1.10192 1.12674 0
M  V30 2506 C 248.091 -1.81845 0.881861 0
M  V30 2507 C 248.412 -1.85737 -0.593867 0
M  V30 2508 O 247.682 -1.33724 -1.4316 0
M  V30 2509 H 246.262 -0.673432 0.323261 0
M  V30 2510 H 248.924 -1.33316 1.42172 0
M  V30 2511 H 248.02 -2.85288 1.2656 0
M  V30 2512 N 248.321 -0.919034 -1.28029 0
M  V30 2513 C 249.284 -0.416182 -2.2539 0
M  V30 2514 C 250.284 0.460438 -1.54067 0
M  V30 2515 O 251.474 0.262744 -1.72207 0
M  V30 2516 C 248.606 0.402707 -3.38513 0
M  V30 2517 H 249.799 -1.27629 -2.71387 0
M  V30 2518 H 247.352 -0.698919 -1.39803 0
M  V30 2519 H 248.087 1.282 -2.97885 0
M  V30 2520 H 247.872 -0.225698 -3.9145 0
M  V30 2521 H 249.362 0.745191 -4.10897 0
M  V30 2522 N 249.799 1.42003 -0.683588 0
M  V30 2523 C 250.762 2.29191 -0.0198243 0
M  V30 2524 C 251.762 1.43773 0.72013 0
M  V30 2525 O 252.952 1.65061 0.556815 0
M  V30 2526 C 250.084 3.26435 0.982487 0
M  V30 2527 H 251.277 2.8938 -0.787345 0
M  V30 2528 H 248.83 1.49789 -0.446418 0
M  V30 2529 H 249.565 2.71203 1.77819 0
M  V30 2530 H 249.35 3.89449 0.455182 0
M  V30 2531 H 250.84 3.918 1.44508 0
M  V30 2532 N 251.277 0.427512 1.51691 0
M  V30 2533 C 252.688 -0.0378867 1.86662 0
M  V30 2534 C 253.039 -1.42819 1.34525 0
M  V30 2535 O 252.164 -2.05037 0.692014 0
M  V30 2536 C 252.759 -0.0755266 3.38716 0
M  V30 2537 C 251.318 -0.485309 3.73258 0
M  V30 2538 C 250.465 0.328399 2.75349 0
M  V30 2539 H 253.416 0.64379 1.45055 0
M  V30 2540 H 253.437 -0.887056 3.70016 0
M  V30 2541 H 252.949 0.936487 3.76632 0
M  V30 2542 H 251.05 -1.50329 3.40928 0
M  V30 2543 H 251.163 -0.21693 4.78609 0
M  V30 2544 H 249.527 -0.211905 2.53817 0
M  V30 2545 H 250.31 1.3391 3.16106 0
M  V30 2546 N 252.755 -1.56801 0.158532 0
M  V30 2547 C 254.004 -1.95665 -0.489702 0
M  V30 2548 C 254.317 -1.04654 -1.65248 0
M  V30 2549 O 255.523 -1.33146 -2.3661 0
M  V30 2550 C 253.979 -3.47874 -0.922582 0
M  V30 2551 C 253.587 -4.47489 0.213893 0
M  V30 2552 C 255.331 -3.95583 -1.53996 0
M  V30 2553 C 253.238 -5.90921 -0.237903 0
M  V30 2554 H 252.168 -0.730516 -0.186716 0
M  V30 2555 H 254.819 -1.81861 0.244722 0
M  V30 2556 H 253.201 -3.57051 -1.71261 0
M  V30 2557 H 254.375 -4.50017 0.991036 0
M  V30 2558 H 252.69 -4.09764 0.740407 0
M  V30 2559 H 255.287 -5.0019 -1.8898 0
M  V30 2560 H 255.63 -3.37789 -2.43319 0
M  V30 2561 H 256.163 -3.8937 -0.814611 0
M  V30 2562 H 252.902 -6.52559 0.620236 0
M  V30 2563 H 252.422 -5.91729 -0.980676 0
M  V30 2564 H 254.101 -6.43352 -0.686067 0
M  V30 2565 N 254.233 0.115231 -1.57178 0
M  V30 2566 C 255.463 0.835224 -1.88964 0
M  V30 2567 C 255.871 1.73774 -0.74829 0
M  V30 2568 O 255.214 1.81401 0.289739 0
M  V30 2569 C 255.276 1.7178 -3.15804 0
M  V30 2570 C 254.94 0.989198 -4.46166 0
M  V30 2571 C 255.937 0.328263 -5.18863 0
M  V30 2572 C 253.622 0.969256 -4.9286 0
M  V30 2573 C 255.616 -0.342873 -6.36477 0
M  V30 2574 C 253.303 0.294324 -6.10391 0
M  V30 2575 C 254.301 -0.360582 -6.82048 0
M  V30 2576 O 253.989 -1.02474 -7.97342 0
M  V30 2577 H 253.721 0.245197 -0.629964 0
M  V30 2578 H 256.275 0.10303 -2.05141 0
M  V30 2579 H 254.505 2.49173 -2.95719 0
M  V30 2580 H 256.194 2.31255 -3.33581 0
M  V30 2581 H 256.96 0.335263 -4.8384 0
M  V30 2582 H 252.839 1.46844 -4.36987 0
M  V30 2583 H 256.383 -0.854629 -6.92345 0
M  V30 2584 H 252.28 0.285099 -6.4487 0
M  V30 2585 H 253.048 -0.929594 -8.13204 0
M  V30 2586 N 255.711 1.52812 0.385517 0
M  V30 2587 C 256.661 1.74219 1.47078 0
M  V30 2588 C 257.645 0.59632 1.49442 0
M  V30 2589 O 258.837 0.85428 1.5502 0
M  V30 2590 C 255.966 1.9176 2.84751 0
M  V30 2591 C 255.052 3.12289 2.86943 0
M  V30 2592 N 255.443 4.34575 2.58802 0
M  V30 2593 C 253.741 3.12605 3.1811 0
M  V30 2594 C 254.442 5.162 2.68166 0
M  V30 2595 N 253.418 4.51964 3.02043 0
M  V30 2596 H 257.22 2.6639 1.24152 0
M  V30 2597 H 254.734 1.51166 0.593504 0
M  V30 2598 H 256.731 2.05218 3.62893 0
M  V30 2599 H 255.391 1.00805 3.08656 0
M  V30 2600 H 256.402 4.62649 2.32759 0
M  V30 2601 H 253.079 2.31472 3.47458 0
M  V30 2602 H 254.469 6.23689 2.49923 0
M  V30 2603 N 257.189 -0.644168 1.43834 0
M  V30 2604 C 258.119 -1.76814 1.52509 0
M  V30 2605 C 259.1 -1.65823 0.379052 0
M  V30 2606 O 260.285 -1.84781 0.597466 0
M  V30 2607 C 257.415 -3.15288 1.4564 0
M  V30 2608 C 256.369 -3.41053 2.58586 0
M  V30 2609 C 255.695 -4.79421 2.36769 0
M  V30 2610 C 256.995 -3.34902 4.00797 0
M  V30 2611 H 258.689 -1.69812 2.46586 0
M  V30 2612 H 256.235 -0.815542 1.1868 0
M  V30 2613 H 258.188 -3.93681 1.50311 0
M  V30 2614 H 256.912 -3.23043 0.480725 0
M  V30 2615 H 255.571 -2.65035 2.53282 0
M  V30 2616 H 255.219 -4.83863 1.37424 0
M  V30 2617 H 254.919 -4.9762 3.12487 0
M  V30 2618 H 256.443 -5.6006 2.43238 0
M  V30 2619 H 257.857 -4.03218 4.07539 0
M  V30 2620 H 256.254 -3.64637 4.76613 0
M  V30 2621 H 257.324 -2.32928 4.25291 0
M  V30 2622 N 258.668 -1.30515 -0.883378 0
M  V30 2623 C 259.616 -1.16941 -2.01066 0
M  V30 2624 C 260.61 -0.0809148 -1.69207 0
M  V30 2625 O 261.816 -0.241877 -1.78367 0
M  V30 2626 H 258.191 -0.361705 -0.659298 0
M  V30 2627 H 260.162 -2.12344 -2.09649 0
M  V30 2628 C 258.911 -0.879694 -3.36388 0
M  V30 2629 H 258.234 -1.70936 -3.61415 0
M  V30 2630 H 259.674 -0.82483 -4.159 0
M  V30 2631 C 258.133 0.417409 -3.34304 0
M  V30 2632 O 258.663 1.43843 -3.75063 0
M  V30 2633 N 256.869 0.429141 -2.87414 0
M  V30 2634 H 256.416 -0.402222 -2.5444 0
M  V30 2635 H 256.374 1.29696 -2.86403 0
M  V30 2636 N 260.146 1.09593 -1.13257 0
M  V30 2637 C 261.392 1.82003 -0.89458 0
M  V30 2638 C 261.725 1.85402 0.577906 0
M  V30 2639 O 261 1.32099 1.42759 0
M  V30 2640 C 261.283 3.28237 -1.48096 0
M  V30 2641 C 261.136 3.3312 -3.02244 0
M  V30 2642 C 262.455 4.24871 -1.14774 0
M  V30 2643 H 259.574 0.66077 -0.326424 0
M  V30 2644 H 262.216 1.28389 -1.40058 0
M  V30 2645 H 260.366 3.74024 -1.05062 0
M  V30 2646 H 262.038 2.95748 -3.54021 0
M  V30 2647 H 260.281 2.72756 -3.37323 0
M  V30 2648 H 260.952 4.3613 -3.38371 0
M  V30 2649 H 263.428 3.87361 -1.51957 0
M  V30 2650 H 262.304 5.25532 -1.58452 0
M  V30 2651 H 262.565 4.42058 -0.0611849 0
M  V30 2652 N 261.624 0.925811 1.2754 0
M  V30 2653 C 262.87 0.566092 1.94739 0
M  V30 2654 C 263.203 -0.890057 1.72603 0
M  V30 2655 O 262.478 -1.63467 1.05399 0
M  V30 2656 C 262.761 0.89054 3.48915 0
M  V30 2657 C 262.614 2.4003 3.80402 0
M  V30 2658 C 263.933 0.395101 4.38323 0
M  V30 2659 H 261.052 0.20714 0.707292 0
M  V30 2660 H 263.694 1.15725 1.50691 0
M  V30 2661 H 261.844 0.387452 3.86563 0
M  V30 2662 H 263.516 2.97494 3.52555 0
M  V30 2663 H 261.759 2.85028 3.2702 0
M  V30 2664 H 262.43 2.57785 4.8811 0
M  V30 2665 H 264.906 0.826241 4.07814 0
M  V30 2666 H 263.782 0.651086 5.45025 0
M  V30 2667 H 264.043 -0.704798 4.36446 0
M  V30 2668 N 263.102 -1.41638 0.69111 0
M  V30 2669 C 264.513 -1.84346 0.295517 0
M  V30 2670 C 264.864 -1.57833 -1.16547 0
M  V30 2671 O 263.989 -1.04648 -1.89414 0
M  V30 2672 C 264.584 -3.34636 0.529575 0
M  V30 2673 C 263.143 -3.7593 0.187944 0
M  V30 2674 C 262.29 -2.65082 0.814052 0
M  V30 2675 H 265.241 -1.31253 0.892092 0
M  V30 2676 H 265.262 -3.79903 -0.213148 0
M  V30 2677 H 264.774 -3.53901 1.59297 0
M  V30 2678 H 262.875 -3.62268 -0.871367 0
M  V30 2679 H 262.988 -4.74808 0.63985 0
M  V30 2680 H 261.352 -2.53528 0.244017 0
M  V30 2681 H 262.135 -2.87167 1.88123 0
M  V30 2682 N 264.58 -0.43555 -1.51462 0
M  V30 2683 C 265.805 0.132627 -2.06976 0
M  V30 2684 C 266.23 1.35848 -1.30104 0
M  V30 2685 O 265.588 1.78112 -0.338493 0
M  V30 2686 C 265.636 0.43523 -3.57964 0
M  V30 2687 O 264.74 1.52198 -3.83288 0
M  V30 2688 H 264.081 0.00265 -0.663995 0
M  V30 2689 H 266.611 -0.616369 -1.95095 0
M  V30 2690 H 266.621 0.686206 -4.02188 0
M  V30 2691 H 265.296 -0.460739 -4.1334 0
M  V30 2692 H 263.873 1.2611 -3.50928 0
M  V30 2693 N 266.058 1.56714 -0.166846 0
M  V30 2694 C 267.474 1.58473 0.189372 0
M  V30 2695 C 267.674 1.18201 1.63189 0
M  V30 2696 O 266.73 0.891528 2.36237 0
M  V30 2697 C 268.043 3.00573 -0.0873872 0
M  V30 2698 C 269.591 3.1299 -0.0252443 0
M  V30 2699 C 270.066 4.57174 -0.274934 0
M  V30 2700 N 271.557 4.62665 -0.222553 0
M  V30 2701 C 272.292 5.72072 -0.389985 0
M  V30 2702 N 271.788 6.90054 -0.616229 0
M  V30 2703 N 273.581 5.61153 -0.326202 0
M  V30 2704 H 265.732 1.8118 -1.10849 0
M  V30 2705 H 267.995 0.839525 -0.440342 0
M  V30 2706 H 267.701 3.34497 -1.0865 0
M  V30 2707 H 267.575 3.72019 0.623037 0
M  V30 2708 H 269.962 2.78895 0.96444 0
M  V30 2709 H 270.043 2.43989 -0.768309 0
M  V30 2710 H 269.687 4.91976 -1.26181 0
M  V30 2711 H 269.617 5.24328 0.48869 0
M  V30 2712 H 272.108 3.77863 -0.0531512 0
M  V30 2713 H 272.421 7.69311 -0.733559 0
M  V30 2714 H 270.766 6.91927 -0.652791 0
M  V30 2715 H 273.957 4.67859 -0.150072 0
M  V30 2716 H 274.13 6.46364 -0.460116 0
M  V30 2717 N 267.536 -0.106894 1.57237 0
M  V30 2718 C 268.766 -0.825191 1.89405 0
M  V30 2719 C 269.174 -1.73374 0.757496 0
M  V30 2720 O 268.517 -1.81552 -0.280115 0
M  V30 2721 C 268.579 -1.70102 3.1671 0
M  V30 2722 C 268.243 -0.965523 4.46684 0
M  V30 2723 C 269.24 -0.300741 5.19029 0
M  V30 2724 C 266.925 -0.943105 4.93367 0
M  V30 2725 C 268.919 0.376622 6.36286 0
M  V30 2726 C 266.606 -0.261949 6.10538 0
M  V30 2727 C 267.604 0.396748 6.81847 0
M  V30 2728 O 267.292 1.06701 7.96787 0
M  V30 2729 H 267.024 -0.241852 0.631255 0
M  V30 2730 H 269.578 -0.0921491 2.05193 0
M  V30 2731 H 267.808 -2.47601 2.97036 0
M  V30 2732 H 269.497 -2.29483 3.34802 0
M  V30 2733 H 270.263 -0.309599 4.84011 0
M  V30 2734 H 266.142 -1.44524 4.3776 0
M  V30 2735 H 269.686 0.891334 6.91882 0
M  V30 2736 H 265.583 -0.250896 6.45012 0
M  V30 2737 H 266.351 0.972707 8.127 0
M  V30 2738 N 269.014 -1.53014 -0.377408 0
M  V30 2739 C 270.43 -1.42523 -0.718281 0
M  V30 2740 C 270.63 -0.55487 -1.9371 0
M  V30 2741 O 269.686 -0.0327593 -2.52479 0
M  V30 2742 C 270.999 -2.85546 -0.942539 0
M  V30 2743 C 272.547 -2.95101 -1.04329 0
M  V30 2744 C 273.022 -4.3916 -1.3001 0
M  V30 2745 N 274.513 -4.42536 -1.36806 0
M  V30 2746 C 275.248 -5.51097 -1.58364 0
M  V30 2747 N 274.744 -6.69724 -1.77317 0
M  V30 2748 N 276.537 -5.38657 -1.60638 0
M  V30 2749 H 268.688 -2.08116 0.424426 0
M  V30 2750 H 270.951 -0.939352 0.127759 0
M  V30 2751 H 270.657 -3.51499 -0.118929 0
M  V30 2752 H 270.531 -3.28493 -1.85397 0
M  V30 2753 H 272.918 -2.29309 -1.85745 0
M  V30 2754 H 272.999 -2.55566 -0.109505 0
M  V30 2755 H 272.643 -5.05521 -0.490991 0
M  V30 2756 H 272.573 -4.76258 -2.24691 0
M  V30 2757 H 275.064 -3.57039 -1.23821 0
M  V30 2758 H 275.377 -7.48233 -1.93306 0
M  V30 2759 H 273.722 -6.72732 -1.74518 0
M  V30 2760 H 276.913 -4.44948 -1.45391 0
M  V30 2761 H 277.086 -6.2333 -1.77098 0
M  V30 2762 N 270.492 0.636531 -1.44174 0
M  V30 2763 C 271.769 1.39463 -1.37148 0
M  V30 2764 C 272.149 2.11082 -0.027507 0
M  V30 2765 O 271.497 2.05954 0.989716 0
M  V30 2766 C 271.707 2.36552 -2.56601 0
M  V30 2767 C 273.055 3.00048 -3.00427 0
M  V30 2768 O 274.079 2.46878 -2.56767 0
M  V30 2769 O 272.938 3.96488 -3.76111 0
M  V30 2770 H 270.032 0.623903 -0.542839 0
M  V30 2771 H 272.578 0.662039 -1.56253 0
M  V30 2772 H 271.35 1.82692 -3.46034 0
M  V30 2773 H 270.973 3.17236 -2.39681 0
M  V30 2774 N 271.97 1.30982 0.876444 0
M  V30 2775 C 272.88 1.2003 2.01569 0
M  V30 2776 C 273.896 0.11838 1.73597 0
M  V30 2777 O 275.072 0.33495 1.98595 0
M  V30 2778 C 272.137 0.901637 3.34771 0
M  V30 2779 C 271.198 2.06979 3.76109 0
M  V30 2780 C 270.431 1.78529 5.02954 0
M  V30 2781 O 270.654 0.717296 5.65872 0
M  V30 2782 O 269.588 2.64019 5.40905 0
M  V30 2783 H 273.414 2.15753 2.13739 0
M  V30 2784 H 270.999 1.10658 1.00375 0
M  V30 2785 H 272.881 0.750645 4.1466 0
M  V30 2786 H 271.556 -0.0256141 3.2369 0
M  V30 2787 H 270.463 2.27616 2.96887 0
M  V30 2788 H 271.796 2.97907 3.91807 0
M  V30 2789 N 273.449 -1.08991 1.13837 0
M  V30 2790 C 274.379 -2.17771 0.842507 0
M  V30 2791 C 275.36 -1.6892 -0.20001 0
M  V30 2792 O 276.545 -1.94113 -0.0579731 0
M  V30 2793 C 273.675 -3.4589 0.312644 0
M  V30 2794 C 272.629 -4.08099 1.28992 0
M  V30 2795 C 271.955 -5.31098 0.619623 0
M  V30 2796 C 273.255 -4.50077 2.65005 0
M  V30 2797 H 274.949 -2.42777 1.75213 0
M  V30 2798 H 272.495 -1.16682 0.843875 0
M  V30 2799 H 274.448 -4.21297 0.0933043 0
M  V30 2800 H 273.172 -3.20419 -0.632382 0
M  V30 2801 H 271.831 -3.34717 1.49533 0
M  V30 2802 H 271.479 -5.0191 -0.33102 0
M  V30 2803 H 271.179 -5.73674 1.27167 0
M  V30 2804 H 272.703 -6.09224 0.409669 0
M  V30 2805 H 274.117 -5.16688 2.48407 0
M  V30 2806 H 272.514 -5.03553 3.26427 0
M  V30 2807 H 273.584 -3.62257 3.22332 0
M  V30 2808 N 274.927 -0.932562 -1.27047 0
M  V30 2809 C 276.176 -0.571351 -1.93439 0
M  V30 2810 C 276.489 0.892467 -1.74053 0
M  V30 2811 O 277.695 1.36267 -2.34826 0
M  V30 2812 C 276.151 -0.97106 -3.46552 0
M  V30 2813 C 275.759 -2.4559 -3.74686 0
M  V30 2814 C 277.503 -0.681333 -4.18997 0
M  V30 2815 C 275.41 -2.79475 -5.21198 0
M  V30 2816 H 274.34 -0.209966 -0.724176 0
M  V30 2817 H 276.991 -1.13403 -1.44263 0
M  V30 2818 H 275.373 -0.336983 -3.94564 0
M  V30 2819 H 276.547 -3.13829 -3.37414 0
M  V30 2820 H 274.862 -2.71802 -3.15456 0
M  V30 2821 H 277.459 -0.910939 -5.26883 0
M  V30 2822 H 277.802 0.381628 -4.14547 0
M  V30 2823 H 278.335 -1.27473 -3.76823 0
M  V30 2824 H 275.074 -3.847 -5.30741 0
M  V30 2825 H 274.594 -2.1589 -5.596 0
M  V30 2826 H 276.273 -2.67478 -5.89122 0
M  V30 2827 N 276.405 1.4127 -0.698611 0
M  V30 2828 C 277.653 2.00782 -0.230409 0
M  V30 2829 C 277.974 1.5562 1.17505 0
M  V30 2830 O 277.244 0.78815 1.79346 0
M  V30 2831 H 275.824 0.742464 -0.0821944 0
M  V30 2832 H 278.486 1.72852 -0.90045 0
M  V30 2833 H 277.582 3.11095 -0.25021 0
M  V30 2834 N 277.883 0.443576 1.51229 0
M  V30 2835 C 278.83 -0.364716 2.279 0
M  V30 2836 C 279.8 -1.0114 1.31757 0
M  V30 2837 O 280.985 -1.02912 1.60667 0
M  V30 2838 C 278.125 -1.45644 3.12861 0
M  V30 2839 C 277.238 -0.827269 4.24005 0
M  V30 2840 C 276.373 -1.89456 4.96266 0
M  V30 2841 C 275.412 -1.24416 5.99322 0
M  V30 2842 N 274.549 -2.25309 6.64966 0
M  V30 2843 H 279.389 0.295464 2.96532 0
M  V30 2844 H 276.926 0.157554 1.46254 0
M  V30 2845 H 278.884 -2.10076 3.6045 0
M  V30 2846 H 277.514 -2.08616 2.46331 0
M  V30 2847 H 276.566 -0.0710839 3.80334 0
M  V30 2848 H 277.878 -0.312481 4.9782 0
M  V30 2849 H 277.032 -2.61535 5.47434 0
M  V30 2850 H 275.771 -2.4431 4.22095 0
M  V30 2851 H 274.776 -0.508868 5.4744 0
M  V30 2852 H 276.001 -0.702882 6.75453 0
M  V30 2853 H 273.947 -2.79231 5.93604 0
M  V30 2854 H 273.864 -1.78739 7.34567 0
M  V30 2855 H 275.132 -2.96853 7.20763 0
M  V30 2856 N 279.361 -1.56624 0.175154 0
M  V30 2857 C 280.291 -2.21155 -0.749195 0
M  V30 2858 C 281.272 -1.16836 -1.23626 0
M  V30 2859 O 282.457 -1.45277 -1.28873 0
M  V30 2860 C 279.587 -2.8553 -1.97711 0
M  V30 2861 C 278.541 -3.95921 -1.62575 0
M  V30 2862 C 277.867 -4.47365 -2.92864 0
M  V30 2863 C 279.167 -5.15323 -0.850838 0
M  V30 2864 H 280.861 -2.98653 -0.211295 0
M  V30 2865 H 278.407 -1.43651 -0.100188 0
M  V30 2866 H 280.36 -3.2935 -2.62881 0
M  V30 2867 H 279.084 -2.05406 -2.53921 0
M  V30 2868 H 277.743 -3.52762 -0.997719 0
M  V30 2869 H 277.391 -3.64027 -3.47122 0
M  V30 2870 H 277.091 -5.21839 -2.70106 0
M  V30 2871 H 278.615 -4.93873 -3.59056 0
M  V30 2872 H 280.029 -5.55812 -1.40521 0
M  V30 2873 H 278.426 -5.95739 -0.722154 0
M  V30 2874 H 279.496 -4.84661 0.152082 0
M  V30 2875 N 280.839 0.0985539 -1.57292 0
M  V30 2876 C 282.087 0.801092 -1.85545 0
M  V30 2877 C 282.408 1.79438 -0.763353 0
M  V30 2878 O 281.678 1.94763 0.21073 0
M  V30 2879 H 280.258 0.29884 -0.684619 0
M  V30 2880 H 282.92 0.0810064 -1.94732 0
M  V30 2881 H 282.016 1.3338 -2.82163 0
M  V30 2882 N 282.317 1.53212 0.369288 0
M  V30 2883 C 283.28 1.7872 1.43498 0
M  V30 2884 C 284.28 0.657554 1.46741 0
M  V30 2885 O 285.47 0.925736 1.47566 0
M  V30 2886 C 282.602 1.90591 2.82645 0
M  V30 2887 H 283.795 2.73894 1.22156 0
M  V30 2888 H 281.348 1.44233 0.602203 0
M  V30 2889 H 282.083 0.974709 3.09306 0
M  V30 2890 H 281.868 2.72751 2.8169 0
M  V30 2891 H 283.358 2.11931 3.59826 0
M  V30 2892 N 283.795 -0.628877 1.44509 0
M  V30 2893 C 284.758 -1.72263 1.51188 0
M  V30 2894 C 285.758 -1.55907 0.39367 0
M  V30 2895 O 286.948 -1.61361 0.656377 0
M  V30 2896 C 284.08 -3.11365 1.38798 0
M  V30 2897 H 285.273 -1.67714 2.4862 0
M  V30 2898 H 282.826 -0.842737 1.31634 0
M  V30 2899 H 283.561 -3.21507 0.424693 0
M  V30 2900 H 283.346 -3.24644 2.19884 0
M  V30 2901 H 284.836 -3.91075 1.46458 0
M  V30 2902 N 285.273 -1.31445 -0.869486 0
M  V30 2903 C 286.236 -1.19094 -1.9583 0
M  V30 2904 C 287.236 -0.117906 -1.60367 0
M  V30 2905 O 288.426 -0.367208 -1.70286 0
M  V30 2906 C 285.558 -0.828165 -3.30688 0
M  V30 2907 H 286.751 -2.15842 -2.08212 0
M  V30 2908 H 284.304 -1.15063 -1.05784 0
M  V30 2909 H 285.039 0.138142 -3.24006 0
M  V30 2910 H 284.824 -1.6038 -3.578 0
M  V30 2911 H 286.314 -0.765658 -4.10521 0
M  V30 2912 N 286.751 1.08385 -1.14413 0
M  V30 2913 C 287.999 1.80419 -0.910679 0
M  V30 2914 C 288.32 1.86658 0.564243 0
M  V30 2915 O 287.59 1.35985 1.41014 0
M  V30 2916 H 286.17 0.668204 -0.333934 0
M  V30 2917 H 288.832 1.31037 -1.44275 0
M  V30 2918 H 287.928 2.83238 -1.31082 0
M  V30 2919 N 288.23 0.939286 1.26551 0
M  V30 2920 C 289.177 0.446088 2.26448 0
M  V30 2921 C 290.147 -0.493234 1.58608 0
M  V30 2922 O 291.332 -0.409857 1.86346 0
M  V30 2923 C 288.472 -0.284375 3.43926 0
M  V30 2924 C 287.585 0.690399 4.26448 0
M  V30 2925 C 286.72 -0.0610712 5.31165 0
M  V30 2926 C 285.759 0.905649 6.05363 0
M  V30 2927 N 284.896 0.186055 7.01853 0
M  V30 2928 H 289.736 1.30291 2.68008 0
M  V30 2929 H 287.273 0.65371 1.31776 0
M  V30 2930 H 289.231 -0.724313 4.10864 0
M  V30 2931 H 287.861 -1.10535 3.03285 0
M  V30 2932 H 286.913 1.24885 3.59316 0
M  V30 2933 H 288.225 1.42873 4.779 0
M  V30 2934 H 287.379 -0.56038 6.04106 0
M  V30 2935 H 286.118 -0.832297 4.80546 0
M  V30 2936 H 285.123 1.4161 5.3125 0
M  V30 2937 H 286.348 1.67685 6.58072 0
M  V30 2938 H 284.294 -0.566714 6.53548 0
M  V30 2939 H 284.211 0.863752 7.51049 0
M  V30 2940 H 285.479 -0.292221 7.78952 0
M  V30 2941 N 289.708 -1.40897 0.706093 0
M  V30 2942 C 290.954 -2.01352 0.241889 0
M  V30 2943 C 291.287 -1.55832 -1.15888 0
M  V30 2944 O 290.562 -0.774145 -1.7843 0
M  V30 2945 C 290.845 -3.58752 0.311311 0
M  V30 2946 C 290.698 -4.1437 1.74978 0
M  V30 2947 C 292.017 -4.38914 -0.322922 0
M  V30 2948 H 289.136 -0.731562 0.0893687 0
M  V30 2949 H 291.778 -1.67504 0.896802 0
M  V30 2950 H 289.928 -3.87718 -0.246302 0
M  V30 2951 H 291.6 -3.96239 2.36205 0
M  V30 2952 H 289.843 -3.69016 2.28057 0
M  V30 2953 H 290.514 -5.23532 1.74981 0
M  V30 2954 H 292.99 -4.15822 0.152089 0
M  V30 2955 H 291.866 -5.48358 -0.243855 0
M  V30 2956 H 292.127 -4.19176 -1.40513 0
M  V30 2957 N 291.186 -0.45159 -1.50991 0
M  V30 2958 C 292.414 0.108334 -2.06616 0
M  V30 2959 C 292.829 1.35224 -1.31757 0
M  V30 2960 O 292.186 1.78475 -0.381174 0
M  V30 2961 C 292.237 0.41619 -3.59096 0
M  V30 2962 O 291.958 -0.778361 -4.3113 0
M  V30 2963 C 293.459 1.02523 -4.31282 0
M  V30 2964 H 290.679 0.00159995 -0.670998 0
M  V30 2965 H 293.223 -0.634771 -1.94399 0
M  V30 2966 H 291.378 1.10921 -3.71181 0
M  V30 2967 H 291.792 -0.511181 -5.22003 0
M  V30 2968 H 293.266 1.19053 -5.39009 0
M  V30 2969 H 293.743 2.01013 -3.905 0
M  V30 2970 H 294.349 0.371173 -4.23677 0
M  V30 2971 N 292.664 1.56529 -0.183458 0
M  V30 2972 C 293.594 2.21549 0.737456 0
M  V30 2973 C 294.575 1.17489 1.23005 0
M  V30 2974 O 295.76 1.45959 1.281 0
M  V30 2975 C 292.89 2.86575 1.96194 0
M  V30 2976 C 291.844 3.96778 1.60473 0
M  V30 2977 C 291.17 4.48911 2.90487 0
M  V30 2978 C 292.47 5.15767 0.823497 0
M  V30 2979 H 294.164 2.98761 0.195453 0
M  V30 2980 H 291.71 1.43702 0.0925686 0
M  V30 2981 H 293.663 3.30739 2.61131 0
M  V30 2982 H 292.387 2.06749 2.52828 0
M  V30 2983 H 291.046 3.53286 0.978997 0
M  V30 2984 H 290.694 3.65862 3.45186 0
M  V30 2985 H 290.394 5.23265 2.67335 0
M  V30 2986 H 291.918 4.95771 3.56432 0
M  V30 2987 H 293.332 5.56549 1.37571 0
M  V30 2988 H 291.729 5.96114 0.690551 0
M  V30 2989 H 292.799 4.84574 -0.177782 0
M  V30 2990 N 294.142 -0.090211 1.57342 0
M  V30 2991 C 295.09 -1.12792 2.03422 0
M  V30 2992 C 296.084 -1.41182 0.936166 0
M  V30 2993 O 297.29 -1.40805 1.12133 0
M  V30 2994 H 293.665 -0.380986 0.648347 0
M  V30 2995 H 295.636 -0.71299 2.89757 0
M  V30 2996 C 294.385 -2.43855 2.47851 0
M  V30 2997 H 293.708 -2.22855 3.31927 0
M  V30 2998 H 295.148 -3.14955 2.83865 0
M  V30 2999 C 293.607 -3.08503 1.3538 0
M  V30 3000 O 294.137 -3.95805 0.685641 0
M  V30 3001 N 292.343 -2.68831 1.10355 0
M  V30 3002 H 291.89 -1.97929 1.64869 0
M  V30 3003 H 291.848 -3.12412 0.353031 0
M  V30 3004 N 295.62 -1.53406 -0.361157 0
M  V30 3005 C 296.866 -1.70054 -1.10496 0
M  V30 3006 C 297.199 -0.453278 -1.88836 0
M  V30 3007 O 296.474 0.5495 -1.86576 0
M  V30 3008 C 296.757 -2.95317 -2.06058 0
M  V30 3009 C 296.61 -4.3021 -1.31298 0
M  V30 3010 C 297.929 -3.16193 -3.06121 0
M  V30 3011 H 295.048 -0.618799 -0.400321 0
M  V30 3012 H 297.69 -1.86052 -0.385318 0
M  V30 3013 H 295.84 -2.81809 -2.67425 0
M  V30 3014 H 297.512 -4.55538 -0.726807 0
M  V30 3015 H 295.755 -4.29421 -0.614853 0
M  V30 3016 H 296.426 -5.14 -2.01265 0
M  V30 3017 H 298.902 -3.28916 -2.5486 0
M  V30 3018 H 297.778 -4.05266 -3.70204 0
M  V30 3019 H 298.039 -2.31676 -3.76535 0
M  V30 3020 N 297.098 0.621204 -1.44841 0
M  V30 3021 C 298.061 1.71459 -1.521 0
M  V30 3022 C 299.061 1.55696 -0.401933 0
M  V30 3023 O 300.251 1.61011 -0.664925 0
M  V30 3024 C 297.383 3.10624 -1.40447 0
M  V30 3025 H 298.576 1.66394 -2.49506 0
M  V30 3026 H 296.129 0.835745 -1.3208 0
M  V30 3027 H 296.864 3.21277 -0.441737 0
M  V30 3028 H 296.649 3.23473 -2.21602 0
M  V30 3029 H 298.139 3.90293 -1.4853 0
M  V30 3030 N 298.576 1.31904 0.862503 0
M  V30 3031 C 299.801 1.25135 1.65397 0
M  V30 3032 C 300.226 -0.179 1.87246 0
M  V30 3033 O 299.584 -1.1277 1.4196 0
M  V30 3034 C 299.632 2.00832 2.99498 0
M  V30 3035 O 298.736 1.35075 3.89652 0
M  V30 3036 H 298.077 0.431655 0.504549 0
M  V30 3037 H 300.607 1.74094 1.07483 0
M  V30 3038 H 300.617 2.10709 3.49379 0
M  V30 3039 H 299.292 3.04847 2.82916 0
M  V30 3040 H 297.869 1.33696 3.48109 0
M  V30 3041 N 300.054 -1.07777 1.14986 0
M  V30 3042 C 300.987 -2.14228 0.786243 0
M  V30 3043 C 301.965 -1.60888 -0.235347 0
M  V30 3044 O 303.149 -1.88099 -0.122909 0
M  V30 3045 C 300.276 -3.38281 0.168433 0
M  V30 3046 C 299.322 -4.10387 1.16123 0
M  V30 3047 S 300.155 -4.62371 2.70135 0
M  V30 3048 C 301.311 -5.89704 2.09762 0
M  V30 3049 H 301.544 -2.44741 1.68787 0
M  V30 3050 H 299.077 -1.19984 0.971756 0
M  V30 3051 H 301.035 -4.10098 -0.181588 0
M  V30 3052 H 299.696 -3.05953 -0.710725 0
M  V30 3053 H 298.889 -4.99431 0.677086 0
M  V30 3054 H 298.491 -3.44513 1.45556 0
M  V30 3055 H 300.783 -6.61648 1.45701 0
M  V30 3056 H 301.726 -6.42824 2.96955 0
M  V30 3057 H 302.134 -5.4302 1.54239 0
M  V30 3058 N 301.532 -0.945985 -1.26051 0
M  V30 3059 C 302.76 -0.613025 -1.9761 0
M  V30 3060 C 303.175 0.813035 -1.70397 0
M  V30 3061 O 302.532 1.54274 -0.974979 0
M  V30 3062 C 302.583 -0.85159 -3.51326 0
M  V30 3063 O 302.304 -2.22157 -3.77595 0
M  V30 3064 C 303.805 -0.529831 -4.40122 0
M  V30 3065 H 301.025 -0.230593 -0.630133 0
M  V30 3066 H 303.569 -1.268 -1.60443 0
M  V30 3067 H 301.724 -0.243151 -3.86636 0
M  V30 3068 H 302.138 -2.2852 -4.721 0
M  V30 3069 H 303.612 -0.747348 -5.46917 0
M  V30 3070 H 304.089 0.535341 -4.35925 0
M  V30 3071 H 304.695 -1.11721 -4.10364 0
M  V30 3072 N 303.011 1.40521 -0.713556 0
M  V30 3073 C 304.239 2.05237 -0.261775 0
M  V30 3074 C 304.654 1.53755 1.09567 0
M  V30 3075 O 304.011 0.693268 1.6882 0
M  V30 3076 C 304.062 3.60763 -0.230706 0
M  V30 3077 O 303.783 4.10345 -1.53455 0
M  V30 3078 C 305.284 4.42651 0.239874 0
M  V30 3079 H 302.504 0.660533 -0.118057 0
M  V30 3080 H 305.048 1.79967 -0.971192 0
M  V30 3081 H 303.203 3.8501 0.429661 0
M  V30 3082 H 303.617 5.04526 -1.43366 0
M  V30 3083 H 305.091 5.51599 0.210468 0
M  V30 3084 H 305.568 4.20082 1.28171 0
M  V30 3085 H 306.174 4.23507 -0.390142 0
M  V30 3086 N 304.489 0.459591 1.5075 0
M  V30 3087 C 305.714 -0.0996819 2.0716 0
M  V30 3088 C 306.139 -1.33761 1.32249 0
M  V30 3089 O 305.497 -1.77551 0.366786 0
M  V30 3090 C 305.545 -0.378226 3.58611 0
M  V30 3091 O 304.649 -1.46081 3.85661 0
M  V30 3092 H 303.99 0.00791392 0.663953 0
M  V30 3093 H 306.52 0.647329 1.9409 0
M  V30 3094 H 306.53 -0.622135 4.03229 0
M  V30 3095 H 305.205 0.526439 4.12555 0
M  V30 3096 H 303.782 -1.20511 3.5289 0
M  V30 3097 N 305.967 -1.56429 0.191757 0
M  V30 3098 C 306.914 -2.18936 -0.730454 0
M  V30 3099 C 307.884 -1.13557 -1.21219 0
M  V30 3100 O 309.069 -1.41794 -1.27668 0
M  V30 3101 C 306.209 -2.85013 -1.9458 0
M  V30 3102 C 305.322 -4.04909 -1.50574 0
M  V30 3103 C 304.457 -4.58853 -2.67634 0
M  V30 3104 C 303.496 -5.71114 -2.20217 0
M  V30 3105 N 302.633 -6.19478 -3.30442 0
M  V30 3106 H 307.473 -2.97389 -0.190664 0
M  V30 3107 H 305.01 -1.46869 -0.0823694 0
M  V30 3108 H 306.968 -3.21492 -2.65893 0
M  V30 3109 H 305.598 -2.09129 -2.45896 0
M  V30 3110 H 304.65 -3.74115 -0.688605 0
M  V30 3111 H 305.962 -4.86113 -1.11784 0
M  V30 3112 H 305.116 -4.97619 -3.47074 0
M  V30 3113 H 303.855 -3.76749 -3.09696 0
M  V30 3114 H 302.86 -5.31879 -1.3923 0
M  V30 3115 H 304.085 -6.55033 -1.79189 0
M  V30 3116 H 302.031 -5.40297 -3.72041 0
M  V30 3117 H 301.948 -6.95725 -2.9581 0
M  V30 3118 H 303.216 -6.62898 -4.10106 0
M  V30 3119 N 307.445 0.0818655 -1.57387 0
M  V30 3120 C 308.673 0.796108 -1.9097 0
M  V30 3121 C 309.088 1.71626 -0.786757 0
M  V30 3122 O 308.445 1.80908 0.240513 0
M  V30 3123 C 308.496 1.59829 -3.24248 0
M  V30 3124 O 308.217 0.715131 -4.32224 0
M  V30 3125 C 309.718 2.41442 -3.7178 0
M  V30 3126 H 306.938 0.22691 -0.631469 0
M  V30 3127 H 309.482 0.0551439 -2.04426 0
M  V30 3128 H 307.637 2.29163 -3.12351 0
M  V30 3129 H 308.051 1.27205 -5.08841 0
M  V30 3130 H 309.525 2.932 -4.67694 0
M  V30 3131 H 310.002 3.2051 -3.00283 0
M  V30 3132 H 310.608 1.77283 -3.86589 0
M  V30 3133 N 308.923 1.53595 0.353017 0
M  V30 3134 C 310.148 1.7462 1.11904 0
M  V30 3135 C 310.573 0.479721 1.8188 0
M  V30 3136 O 309.931 -0.567066 1.72204 0
M  V30 3137 C 309.979 2.92029 2.11545 0
M  V30 3138 O 309.083 2.61516 3.18878 0
M  V30 3139 H 308.424 0.579531 0.324099 0
M  V30 3140 H 310.954 2.00525 0.406301 0
M  V30 3141 H 310.964 3.18551 2.5493 0
M  V30 3142 H 309.639 3.83888 1.60008 0
M  V30 3143 H 308.216 2.45852 2.80377 0
M  V30 3144 N 310.401 -0.613514 1.45168 0
M  V30 3145 C 311.331 -1.7354 1.56225 0
M  V30 3146 C 312.312 -1.64981 0.41414 0
M  V30 3147 O 313.497 -1.83472 0.636526 0
M  V30 3148 C 310.627 -3.12128 1.52295 0
M  V30 3149 C 309.581 -3.35491 2.65762 0
M  V30 3150 C 308.907 -4.74291 2.46885 0
M  V30 3151 C 310.207 -3.26325 4.0781 0
M  V30 3152 H 311.901 -1.64543 2.50132 0
M  V30 3153 H 309.447 -0.790185 1.20383 0
M  V30 3154 H 311.4 -3.90404 1.58628 0
M  V30 3155 H 310.124 -3.2195 0.549139 0
M  V30 3156 H 308.783 -2.59603 2.58847 0
M  V30 3157 H 308.431 -4.80839 1.47657 0
M  V30 3158 H 308.131 -4.9088 3.22972 0
M  V30 3159 H 309.655 -5.54775 2.55063 0
M  V30 3160 H 311.069 -3.94483 4.16 0
M  V30 3161 H 309.466 -3.54445 4.8424 0
M  V30 3162 H 310.536 -2.23855 4.30136 0
M  V30 3163 N 311.879 -1.3236 -0.855495 0
M  V30 3164 C 313.104 -1.2601 -1.64731 0
M  V30 3165 C 313.529 0.169068 -1.87339 0
M  V30 3166 O 312.887 1.12016 -1.42556 0
M  V30 3167 C 312.935 -2.02417 -2.98429 0
M  V30 3168 O 312.039 -1.3714 -3.8893 0
M  V30 3169 H 311.38 -0.434325 -0.502253 0
M  V30 3170 H 313.91 -1.74661 -1.06558 0
M  V30 3171 H 313.92 -2.12559 -3.48257 0
M  V30 3172 H 312.595 -3.06343 -2.81295 0
M  V30 3173 H 311.172 -1.3554 -3.47395 0
M  V30 3174 N 313.357 1.07166 -1.15556 0
M  V30 3175 C 314.603 1.80222 -0.942961 0
M  V30 3176 C 314.958 1.85121 0.524209 0
M  V30 3177 O 314.251 1.32531 1.38369 0
M  V30 3178 C 314.445 3.24707 -1.49332 0
M  V30 3179 C 314.274 3.33887 -3.01247 0
M  V30 3180 C 313.044 3.44337 -3.69811 0
M  V30 3181 C 315.242 3.24484 -3.99017 0
M  V30 3182 N 313.224 3.42439 -5.09518 0
M  V30 3183 C 314.595 3.29726 -5.25053 0
M  V30 3184 C 316.65 3.08307 -3.90962 0
M  V30 3185 C 315.353 3.20455 -6.43973 0
M  V30 3186 C 317.379 3.00371 -5.09442 0
M  V30 3187 C 316.741 3.06227 -6.34354 0
M  V30 3188 H 312.84 0.672709 -0.398731 0
M  V30 3189 H 315.424 1.27905 -1.46794 0
M  V30 3190 H 313.595 3.7544 -0.994946 0
M  V30 3191 H 315.327 3.85894 -1.21935 0
M  V30 3192 H 312.082 3.48762 -3.20409 0
M  V30 3193 H 312.506 3.45013 -5.8249 0
M  V30 3194 H 317.148 3.02633 -2.95251 0
M  V30 3195 H 314.866 3.24888 -7.39914 0
M  V30 3196 H 318.452 2.88955 -5.04971 0
M  V30 3197 H 317.332 3.00132 -7.24493 0
M  V30 3198 N 314.835 0.952656 1.25548 0
M  V30 3199 C 315.783 0.462354 2.27958 0
M  V30 3200 C 316.777 -0.46634 1.62855 0
M  V30 3201 O 317.983 -0.343287 1.76696 0
M  V30 3202 H 314.358 0.13101 0.7405 0
M  V30 3203 H 316.329 1.33839 2.66702 0
M  V30 3204 C 315.078 -0.24628 3.46827 0
M  V30 3205 H 314.401 0.459192 3.97154 0
M  V30 3206 H 315.841 -0.553393 4.20373 0
M  V30 3207 C 314.3 -1.4681 3.0323 0
M  V30 3208 O 314.83 -2.56591 3.09069 0
M  V30 3209 N 313.036 -1.32874 2.58443 0
M  V30 3210 H 312.583 -0.435536 2.53891 0
M  V30 3211 H 312.541 -2.14742 2.29637 0
M  V30 3212 N 316.313 -1.40141 0.720998 0
M  V30 3213 C 317.263 -2.27949 0.0482544 0
M  V30 3214 C 318.247 -1.43538 -0.727021 0
M  V30 3215 O 319.439 -1.6658 -0.598332 0
M  V30 3216 C 316.568 -3.32126 -0.868729 0
M  V30 3217 C 315.654 -4.24008 -0.0883515 0
M  V30 3218 N 316.045 -4.97154 0.931226 0
M  V30 3219 C 314.343 -4.4485 -0.320105 0
M  V30 3220 C 315.044 -5.64587 1.4006 0
M  V30 3221 N 314.02 -5.38787 0.721752 0
M  V30 3222 H 317.822 -2.81948 0.829609 0
M  V30 3223 H 315.336 -1.52656 0.554067 0
M  V30 3224 H 317.333 -3.93884 -1.36605 0
M  V30 3225 H 315.993 -2.79687 -1.6494 0
M  V30 3226 H 317.004 -5.01 1.31222 0
M  V30 3227 H 313.681 -4.03378 -1.07668 0
M  V30 3228 H 315.071 -6.33175 2.24808 0
M  V30 3229 N 317.792 -0.46758 -1.50504 0
M  V30 3230 C 319.017 0.0886943 -2.0721 0
M  V30 3231 C 319.442 1.33057 -1.32956 0
M  V30 3232 O 318.8 1.77354 -0.376197 0
M  V30 3233 C 318.848 0.359202 -3.58806 0
M  V30 3234 O 317.952 1.44034 -3.8643 0
M  V30 3235 H 317.293 -0.0114349 -0.663902 0
M  V30 3236 H 319.823 -0.657613 -1.93744 0
M  V30 3237 H 319.833 0.600742 -4.03553 0
M  V30 3238 H 318.508 -0.548311 -4.1227 0
M  V30 3239 H 317.085 1.18638 -3.53524 0
M  V30 3240 N 319.27 1.56325 -0.20005 0
M  V30 3241 C 320.217 2.1932 0.718833 0
M  V30 3242 C 321.187 1.14198 1.20615 0
M  V30 3243 O 322.372 1.42469 1.26914 0
M  V30 3244 C 319.512 2.86041 1.93066 0
M  V30 3245 C 318.625 4.05702 1.48425 0
M  V30 3246 C 317.76 4.60266 2.65196 0
M  V30 3247 C 316.799 5.72273 2.17185 0
M  V30 3248 N 315.936 6.21221 3.27152 0
M  V30 3249 H 320.776 2.97486 0.17489 0
M  V30 3250 H 318.313 1.46911 0.0745794 0
M  V30 3251 H 320.271 3.22897 2.64184 0
M  V30 3252 H 318.901 2.1043 2.44783 0
M  V30 3253 H 317.953 3.74475 0.668755 0
M  V30 3254 H 319.265 4.86699 1.09204 0
M  V30 3255 H 318.419 4.99453 3.4443 0
M  V30 3256 H 317.158 3.78386 3.07693 0
M  V30 3257 H 316.163 5.3261 1.36407 0
M  V30 3258 H 317.388 6.55974 1.75713 0
M  V30 3259 H 315.334 5.42263 3.69171 0
M  V30 3260 H 315.251 6.97284 2.92116 0
M  V30 3261 H 316.519 6.65063 4.06585 0
M  V30 3262 N 320.748 -0.0735177 1.57428 0
M  V30 3263 C 321.678 -1.0879 2.06608 0
M  V30 3264 C 322.659 -1.40473 0.959237 0
M  V30 3265 O 323.844 -1.5013 1.23185 0
M  V30 3266 C 320.974 -2.40183 2.50857 0
M  V30 3267 C 319.928 -2.22858 3.65402 0
M  V30 3268 C 319.254 -3.59619 3.957 0
M  V30 3269 C 320.554 -1.65123 4.95511 0
M  V30 3270 H 322.248 -0.678673 2.91607 0
M  V30 3271 H 319.794 -0.325013 1.40284 0
M  V30 3272 H 321.747 -3.11437 2.83874 0
M  V30 3273 H 320.471 -2.83083 1.62885 0
M  V30 3274 H 319.13 -1.54045 3.32664 0
M  V30 3275 H 318.778 -4.00086 3.04861 0
M  V30 3276 H 318.478 -3.48866 4.72828 0
M  V30 3277 H 320.002 -4.32306 4.31212 0
M  V30 3278 H 321.416 -2.26241 5.26771 0
M  V30 3279 H 319.813 -1.65071 5.7695 0
M  V30 3280 H 320.883 -0.612559 4.81015 0
M  V30 3281 N 322.226 -1.5378 -0.344866 0
M  V30 3282 C 323.156 -1.84662 -1.42906 0
M  V30 3283 C 324.137 -0.701648 -1.54955 0
M  V30 3284 O 325.322 -0.953438 -1.69184 0
M  V30 3285 C 322.452 -2.05503 -2.79974 0
M  V30 3286 C 321.406 -3.21318 -2.82734 0
M  V30 3287 C 320.732 -3.2749 -4.22675 0
M  V30 3288 C 322.032 -4.59456 -2.48389 0
M  V30 3289 H 323.726 -2.75461 -1.17311 0
M  V30 3290 H 321.272 -1.32542 -0.562896 0
M  V30 3291 H 323.225 -2.25691 -3.55867 0
M  V30 3292 H 321.949 -1.11434 -3.07002 0
M  V30 3293 H 320.608 -3.00984 -2.09294 0
M  V30 3294 H 320.256 -2.31019 -4.4681 0
M  V30 3295 H 319.956 -4.05316 -4.25433 0
M  V30 3296 H 321.48 -3.49887 -5.00412 0
M  V30 3297 H 322.894 -4.79667 -3.13995 0
M  V30 3298 H 321.291 -5.39675 -2.62432 0
M  V30 3299 H 322.361 -4.63155 -1.4358 0
M  V30 3300 N 323.704 0.605807 -1.45491 0
M  V30 3301 C 324.95 1.36679 -1.49823 0
M  V30 3302 C 325.283 1.93693 -0.140175 0
M  V30 3303 O 324.558 1.75158 0.845581 0
M  V30 3304 C 324.841 2.51337 -2.57879 0
M  V30 3305 C 324.694 1.99508 -4.03134 0
M  V30 3306 C 326.013 3.53463 -2.62205 0
M  V30 3307 H 323.132 0.495617 -0.545466 0
M  V30 3308 H 325.774 0.682732 -1.7731 0
M  V30 3309 H 323.924 3.09691 -2.34571 0
M  V30 3310 H 325.596 1.45789 -4.37656 0
M  V30 3311 H 323.839 1.30496 -4.13707 0
M  V30 3312 H 324.51 2.82169 -4.74431 0
M  V30 3313 H 326.986 3.04953 -2.83095 0
M  V30 3314 H 325.862 4.31178 -3.39672 0
M  V30 3315 H 326.123 4.09197 -1.67363 0
M  V30 3316 N 325.182 1.32811 0.848464 0
M  V30 3317 C 326.428 1.23907 1.60546 0
M  V30 3318 C 326.761 -0.197161 1.93197 0
M  V30 3319 O 326.036 -1.13596 1.5788 0
M  V30 3320 C 326.319 2.10489 2.92175 0
M  V30 3321 C 326.172 3.62522 2.66266 0
M  V30 3322 C 327.491 1.97075 3.93509 0
M  V30 3323 H 324.61 0.451459 0.58254 0
M  V30 3324 H 327.252 1.62818 0.979296 0
M  V30 3325 H 325.402 1.77434 3.45614 0
M  V30 3326 H 327.074 4.05821 2.19334 0
M  V30 3327 H 325.317 3.84879 2.00126 0
M  V30 3328 H 325.988 4.18437 3.6002 0
M  V30 3329 H 328.464 2.26045 3.49346 0
M  V30 3330 H 327.34 2.59923 4.83457 0
M  V30 3331 H 327.601 0.940186 4.31987 0
M  V30 3332 N 326.66 -1.06551 1.16123 0
M  V30 3333 C 327.937 -1.76097 0.85142 0
M  V30 3334 C 328.317 -2.00802 -0.6513 0
M  V30 3335 O 327.665 -1.63302 -1.59827 0
M  V30 3336 C 327.875 -3.06384 1.67122 0
M  V30 3337 C 329.223 -3.80585 1.88255 0
M  V30 3338 O 330.247 -3.16218 1.63966 0
M  V30 3339 O 329.106 -4.96212 2.2899 0
M  V30 3340 H 326.2 -0.765102 0.313923 0
M  V30 3341 H 328.746 -1.12844 1.26745 0
M  V30 3342 H 327.518 -2.84071 2.69108 0
M  V30 3343 H 327.141 -3.77371 1.25206 0
M  V30 3344 N 328.138 -0.959301 -1.25041 0
M  V30 3345 C 329.386 -0.615393 -1.92503 0
M  V30 3346 C 329.707 0.850969 -1.75452 0
M  V30 3347 O 328.977 1.60658 -1.12098 0
M  V30 3348 H 327.557 -0.224613 -0.712431 0
M  V30 3349 H 330.219 -1.21855 -1.5211 0
M  V30 3350 H 329.315 -0.848738 -3.00338 0
M  V30 3351 N 329.616 1.39756 -0.72842 0
M  V30 3352 C 330.563 2.30647 -0.0841519 0
M  V30 3353 C 331.533 1.48869 0.7367 0
M  V30 3354 O 332.718 1.77574 0.698015 0
M  V30 3355 C 329.858 3.35165 0.822091 0
M  V30 3356 C 328.971 4.31999 -0.0106663 0
M  V30 3357 C 328.106 5.23585 0.896241 0
M  V30 3358 C 327.145 6.12072 0.0583381 0
M  V30 3359 N 326.282 6.96035 0.920818 0
M  V30 3360 H 331.122 2.85173 -0.864891 0
M  V30 3361 H 328.659 1.40422 -0.438179 0
M  V30 3362 H 330.617 3.94345 1.36189 0
M  V30 3363 H 329.247 2.8211 1.56888 0
M  V30 3364 H 328.299 3.74492 -0.66781 0
M  V30 3365 H 329.611 4.9443 -0.658825 0
M  V30 3366 H 328.765 5.87759 1.50412 0
M  V30 3367 H 327.504 4.61459 1.57819 0
M  V30 3368 H 326.509 5.46916 -0.562389 0
M  V30 3369 H 327.734 6.76261 -0.6203 0
M  V30 3370 H 325.68 6.36485 1.58818 0
M  V30 3371 H 325.597 7.55284 0.32899 0
M  V30 3372 H 326.865 7.64646 1.51447 0
M  V30 3373 N 331.094 0.475555 1.50254 0
M  V30 3374 C 332.322 -0.0754493 2.06762 0
M  V30 3375 C 332.737 -1.33111 1.33891 0
M  V30 3376 O 332.094 -1.77846 0.40952 0
M  V30 3377 C 332.145 -0.359008 3.59713 0
M  V30 3378 O 331.866 0.846851 4.29837 0
M  V30 3379 C 333.367 -0.956484 4.32858 0
M  V30 3380 H 330.587 0.00907525 0.670939 0
M  V30 3381 H 333.131 0.665618 1.93364 0
M  V30 3382 H 331.286 -1.05001 3.72899 0
M  V30 3383 H 331.7 0.594162 5.21124 0
M  V30 3384 H 333.174 -1.10463 5.40834 0
M  V30 3385 H 333.651 -1.94775 3.93649 0
M  V30 3386 H 334.257 -0.303723 4.24214 0
M  V30 3387 N 332.573 -1.56217 0.208337 0
M  V30 3388 C 333.536 -2.18455 -0.693557 0
M  V30 3389 C 334.536 -1.14268 -1.13135 0
M  V30 3390 O 335.726 -1.39577 -1.0423 0
M  V30 3391 C 332.858 -2.79727 -1.94848 0
M  V30 3392 H 334.051 -2.99519 -0.15114 0
M  V30 3393 H 331.604 -1.56245 -0.041287 0
M  V30 3394 H 332.339 -2.02497 -2.53309 0
M  V30 3395 H 332.124 -3.56009 -1.64316 0
M  V30 3396 H 333.614 -3.27475 -2.59133 0
M  V30 3397 N 334.051 0.0651679 -1.57465 0
M  V30 3398 C 335.3 0.761916 -1.86756 0
M  V30 3399 C 335.613 1.78406 -0.801925 0
M  V30 3400 O 336.819 2.53084 -0.982885 0
M  V30 3401 C 335.275 1.40603 -3.31299 0
M  V30 3402 C 334.883 0.422115 -4.46007 0
M  V30 3403 C 336.627 2.08476 -3.69781 0
M  V30 3404 C 334.534 1.07252 -5.81593 0
M  V30 3405 H 333.464 0.288308 -0.696702 0
M  V30 3406 H 336.115 0.015344 -1.83494 0
M  V30 3407 H 334.497 2.20109 -3.29193 0
M  V30 3408 H 335.671 -0.343613 -4.59517 0
M  V30 3409 H 333.986 -0.152527 -4.16121 0
M  V30 3410 H 336.583 2.57925 -4.68379 0
M  V30 3411 H 336.926 2.88712 -2.99919 0
M  V30 3412 H 337.459 1.35792 -3.73905 0
M  V30 3413 H 334.198 0.310342 -6.54765 0
M  V30 3414 H 333.718 1.80895 -5.71872 0
M  V30 3415 H 335.397 1.59043 -6.27148 0
M  V30 3416 N 335.529 1.53961 0.336706 0
M  V30 3417 C 336.757 1.75483 1.09605 0
M  V30 3418 C 337.172 0.4972 1.82136 0
M  V30 3419 O 336.529 -0.53149 1.74589 0
M  V30 3420 C 336.58 2.93943 2.10428 0
M  V30 3421 O 336.301 4.14842 1.40846 0
M  V30 3422 C 337.802 3.27571 2.98684 0
M  V30 3423 H 335.022 0.586166 0.326574 0
M  V30 3424 H 337.566 2.00808 0.38683 0
M  V30 3425 H 335.721 2.70929 2.76905 0
M  V30 3426 H 336.135 4.81383 2.08255 0
M  V30 3427 H 337.609 4.13791 3.6535 0
M  V30 3428 H 338.086 2.44168 3.65074 0
M  V30 3429 H 338.692 3.52615 2.37787 0
M  V30 3430 N 337.007 -0.598083 1.45811 0
M  V30 3431 C 338.255 -1.35413 1.50026 0
M  V30 3432 C 338.576 -1.94444 0.147177 0
M  V30 3433 O 337.846 -1.77701 -0.824571 0
M  V30 3434 H 336.426 -0.502727 0.552517 0
M  V30 3435 H 339.088 -0.701606 1.81834 0
M  V30 3436 H 338.184 -2.16871 2.2444 0
M  V30 3437 N 338.485 -1.33259 -0.841409 0
M  V30 3438 C 339.733 -1.24326 -1.59334 0
M  V30 3439 C 340.054 0.191564 -1.94057 0
M  V30 3440 O 339.324 1.11967 -1.60749 0
M  V30 3441 H 337.904 -0.457174 -0.590763 0
M  V30 3442 H 340.566 -1.66947 -1.00571 0
M  V30 3443 H 339.662 -1.8352 -2.52442 0
M  V30 3444 N 339.963 1.05934 -1.16686 0
M  V30 3445 C 341.212 1.78188 -0.945085 0
M  V30 3446 C 341.525 1.88338 0.528021 0
M  V30 3447 O 342.731 2.57258 0.867799 0
M  V30 3448 C 341.187 3.20277 -1.64167 0
M  V30 3449 C 340.795 3.18281 -3.15279 0
M  V30 3450 C 342.539 3.97039 -1.502 0
M  V30 3451 C 340.446 4.55112 -3.7766 0
M  V30 3452 H 339.376 0.667866 -0.349959 0
M  V30 3453 H 342.027 1.18794 -1.39858 0
M  V30 3454 H 340.409 3.79952 -1.11589 0
M  V30 3455 H 341.583 2.68167 -3.74731 0
M  V30 3456 H 339.898 2.55018 -3.29173 0
M  V30 3457 H 342.495 4.98194 -1.94183 0
M  V30 3458 H 342.838 4.13845 -0.451461 0
M  V30 3459 H 343.371 3.43894 -1.99954 0
M  V30 3460 H 340.11 4.43512 -4.82677 0
M  V30 3461 H 339.63 5.05406 -3.22994 0
M  V30 3462 H 341.309 5.24064 -3.79428 0
M  V30 3463 N 341.441 0.965919 1.2453 0
M  V30 3464 C 342.389 0.486506 2.27455 0
M  V30 3465 C 343.383 -0.449041 1.6334 0
M  V30 3466 O 344.589 -0.324527 1.7705 0
M  V30 3467 H 340.964 0.138857 0.739069 0
M  V30 3468 H 342.935 1.3666 2.65267 0
M  V30 3469 C 341.684 -0.209481 3.47068 0
M  V30 3470 H 341.007 0.50129 3.96645 0
M  V30 3471 H 342.447 -0.508775 4.20936 0
M  V30 3472 C 340.906 -1.43586 3.0477 0
M  V30 3473 O 341.436 -2.53299 3.11773 0
M  V30 3474 N 339.642 -1.30126 2.59838 0
M  V30 3475 H 339.189 -0.408583 2.54339 0
M  V30 3476 H 339.147 -2.12294 2.31902 0
M  V30 3477 N 342.919 -1.39368 0.735821 0
M  V30 3478 C 344.167 -2.00101 0.283562 0
M  V30 3479 C 344.488 -1.5868 -1.13338 0
M  V30 3480 O 343.758 -0.835423 -1.77193 0
M  V30 3481 H 342.338 -0.740024 0.101851 0
M  V30 3482 H 345 -1.70404 0.945962 0
M  V30 3483 H 344.096 -3.10323 0.332604 0
M  V30 3484 N 344.397 -0.483516 -1.5 0
M  V30 3485 C 345.643 0.0593261 -2.03313 0
M  V30 3486 C 345.998 1.36288 -1.35806 0
M  V30 3487 O 345.291 1.85519 -0.478897 0
M  V30 3488 C 345.485 0.286226 -3.56252 0
M  V30 3489 C 345.314 -0.993788 -4.38582 0
M  V30 3490 C 344.084 -1.54064 -4.81241 0
M  V30 3491 C 346.282 -1.89249 -4.78215 0
M  V30 3492 N 344.264 -2.76838 -5.47936 0
M  V30 3493 C 345.635 -2.96606 -5.44449 0
M  V30 3494 C 347.69 -1.90138 -4.60165 0
M  V30 3495 C 346.393 -4.04857 -5.94544 0
M  V30 3496 C 348.419 -2.97353 -5.1121 0
M  V30 3497 C 347.781 -4.03429 -5.77429 0
M  V30 3498 H 343.88 -0.0186322 -0.781778 0
M  V30 3499 H 346.464 -0.654489 -1.8337 0
M  V30 3500 H 344.635 0.969086 -3.76116 0
M  V30 3501 H 346.367 0.824515 -3.96212 0
M  V30 3502 H 343.122 -1.08813 -4.6093 0
M  V30 3503 H 343.546 -3.39221 -5.85882 0
M  V30 3504 H 348.188 -1.09441 -4.0839 0
M  V30 3505 H 345.906 -4.86363 -6.4535 0
M  V30 3506 H 349.492 -2.99039 -4.99066 0
M  V30 3507 H 348.372 -4.85025 -6.16214 0
M  V30 3508 N 345.875 1.56104 -0.216619 0
M  V30 3509 C 346.822 2.2007 0.695531 0
M  V30 3510 C 347.792 1.15471 1.19397 0
M  V30 3511 O 348.977 1.43807 1.25396 0
M  V30 3512 C 346.117 2.88073 1.90021 0
M  V30 3513 C 345.23 4.07253 1.44113 0
M  V30 3514 C 344.365 4.63052 2.603 0
M  V30 3515 C 343.404 5.74545 2.11103 0
M  V30 3516 N 342.541 6.24656 3.20545 0
M  V30 3517 H 347.381 2.97655 0.143327 0
M  V30 3518 H 344.918 1.46982 0.0589934 0
M  V30 3519 H 346.876 3.25681 2.60745 0
M  V30 3520 H 345.506 2.13015 2.42538 0
M  V30 3521 H 344.558 3.75164 0.628999 0
M  V30 3522 H 345.87 4.8783 1.04036 0
M  V30 3523 H 345.024 5.03078 3.39113 0
M  V30 3524 H 343.763 3.81628 3.03663 0
M  V30 3525 H 342.768 5.34027 1.3075 0
M  V30 3526 H 343.993 6.57801 1.68746 0
M  V30 3527 H 341.939 5.46148 3.63399 0
M  V30 3528 H 341.856 7.00343 2.84704 0
M  V30 3529 H 343.124 6.69338 3.99508 0
M  V30 3530 N 347.353 -0.0568162 1.57498 0
M  V30 3531 C 348.63 -0.786954 1.79071 0
M  V30 3532 C 349.01 -1.95028 0.80792 0
M  V30 3533 O 348.358 -2.27968 -0.155858 0
M  V30 3534 C 348.568 -1.24594 3.26002 0
M  V30 3535 C 349.916 -1.67323 3.90241 0
M  V30 3536 O 350.94 -1.34124 3.29984 0
M  V30 3537 O 349.799 -2.28842 4.9628 0
M  V30 3538 H 346.893 -0.378262 0.735423 0
M  V30 3539 H 349.439 -0.035734 1.69662 0
M  V30 3540 H 348.211 -0.41423 3.89101 0
M  V30 3541 H 347.834 -2.05803 3.40192 0
M  V30 3542 N 348.832 -1.54138 -0.328536 0
M  V30 3543 C 350.109 -1.62749 -1.08499 0
M  V30 3544 C 350.489 -0.458198 -2.06067 0
M  V30 3545 O 349.837 0.548046 -2.2183 0
M  V30 3546 C 350.047 -2.99519 -1.79135 0
M  V30 3547 C 351.395 -3.55394 -2.32337 0
M  V30 3548 O 352.419 -3.01792 -1.89209 0
M  V30 3549 O 351.278 -4.49186 -3.11279 0
M  V30 3550 H 348.372 -0.65886 -0.499832 0
M  V30 3551 H 350.918 -1.66484 -0.328826 0
M  V30 3552 H 349.69 -3.76061 -1.08139 0
M  V30 3553 H 349.313 -2.99441 -2.61574 0
M  V30 3554 N 350.31 0.590341 -1.46126 0
M  V30 3555 C 351.54 1.37304 -1.54373 0
M  V30 3556 C 351.948 1.88332 -0.181071 0
M  V30 3557 O 351.291 1.63852 0.830559 0
M  V30 3558 C 351.353 2.6012 -2.48149 0
M  V30 3559 C 351.017 2.30613 -3.94546 0
M  V30 3560 C 352.014 1.89915 -4.83971 0
M  V30 3561 C 349.699 2.42993 -4.39613 0
M  V30 3562 C 351.693 1.61981 -6.16475 0
M  V30 3563 C 349.38 2.14672 -5.72153 0
M  V30 3564 C 350.378 1.7423 -6.60404 0
M  V30 3565 O 350.066 1.46251 -7.90485 0
M  V30 3566 H 349.798 0.426086 -0.524811 0
M  V30 3567 H 352.352 0.72539 -1.92165 0
M  V30 3568 H 350.582 3.27664 -2.05361 0
M  V30 3569 H 352.271 3.22182 -2.46887 0
M  V30 3570 H 353.037 1.79872 -4.50412 0
M  V30 3571 H 348.916 2.73435 -3.71153 0
M  V30 3572 H 352.46 1.30341 -6.85315 0
M  V30 3573 H 348.357 2.24337 -6.05263 0
M  V30 3574 H 349.125 1.6016 -8.02677 0
M  V30 3575 N 351.788 1.33704 0.83433 0
M  V30 3576 C 352.718 1.26967 1.95963 0
M  V30 3577 C 353.699 0.149337 1.69443 0
M  V30 3578 O 354.884 0.339852 1.91203 0
M  V30 3579 C 352.014 1.01275 3.32206 0
M  V30 3580 C 350.968 2.09652 3.73136 0
M  V30 3581 C 350.294 1.69166 5.07235 0
M  V30 3582 C 351.594 3.51372 3.86439 0
M  V30 3583 H 353.288 2.2112 2.01857 0
M  V30 3584 H 350.834 1.06447 0.969793 0
M  V30 3585 H 352.787 0.952106 4.10503 0
M  V30 3586 H 351.511 0.0356203 3.26581 0
M  V30 3587 H 350.17 2.14766 2.97104 0
M  V30 3588 H 349.818 0.701437 4.98085 0
M  V30 3589 H 349.518 2.41694 5.35591 0
M  V30 3590 H 351.042 1.64576 5.88003 0
M  V30 3591 H 352.456 3.48734 4.55036 0
M  V30 3592 H 350.853 4.22425 4.26236 0
M  V30 3593 H 351.923 3.89546 2.88759 0
M  V30 3594 N 353.266 -1.05314 1.17247 0
M  V30 3595 C 354.543 -1.75184 0.87005 0
M  V30 3596 C 354.923 -2.01481 -0.629965 0
M  V30 3597 O 354.271 -1.64988 -1.58086 0
M  V30 3598 C 354.481 -3.04594 1.70363 0
M  V30 3599 C 355.829 -3.78567 1.92281 0
M  V30 3600 O 356.853 -3.14461 1.67311 0
M  V30 3601 O 355.712 -4.93755 2.3424 0
M  V30 3602 H 352.806 -0.761729 0.322021 0
M  V30 3603 H 355.352 -1.11493 1.27935 0
M  V30 3604 H 354.124 -2.81201 2.72106 0
M  V30 3605 H 353.747 -3.76022 1.29202 0
M  V30 3606 N 354.744 -0.972509 -1.24016 0
M  V30 3607 C 355.972 -0.654803 -1.96265 0
M  V30 3608 C 356.387 0.776708 -1.72083 0
M  V30 3609 O 355.744 1.52171 -1.00748 0
M  V30 3610 C 355.795 -0.92592 -3.49441 0
M  V30 3611 O 355.516 -2.30116 -3.72798 0
M  V30 3612 C 357.017 -0.623068 -4.38899 0
M  V30 3613 H 354.237 -0.243907 -0.6251 0
M  V30 3614 H 356.781 -1.30175 -1.57717 0
M  V30 3615 H 354.936 -0.325108 -3.86033 0
M  V30 3616 H 355.35 -2.38483 -4.67147 0
M  V30 3617 H 356.824 -0.863189 -5.45209 0
M  V30 3618 H 357.301 0.442754 -4.36963 0
M  V30 3619 H 357.907 -1.204 -4.07902 0
M  V30 3620 N 356.222 1.38976 -0.743202 0
M  V30 3621 C 357.185 2.28901 -0.117014 0
M  V30 3622 C 358.185 1.46698 0.658503 0
M  V30 3623 O 359.375 1.67274 0.486305 0
M  V30 3624 C 356.507 3.30309 0.84315 0
M  V30 3625 H 357.7 2.8578 -0.909373 0
M  V30 3626 H 355.253 1.47761 -0.509547 0
M  V30 3627 H 355.988 2.785 1.66157 0
M  V30 3628 H 355.773 3.91029 0.289594 0
M  V30 3629 H 357.263 3.97577 1.2776 0
M  V30 3630 N 357.7 0.491464 1.49741 0
M  V30 3631 C 358.65 -0.311086 2.25868 0
M  V30 3632 C 359.634 -0.943857 1.30308 0
M  V30 3633 O 360.826 -0.853035 1.55088 0
M  V30 3634 C 357.955 -1.38059 3.14316 0
M  V30 3635 C 357.041 -0.754541 4.17334 0
M  V30 3636 N 357.432 0.137216 5.05614 0
M  V30 3637 C 355.73 -1.01621 4.34269 0
M  V30 3638 C 356.431 0.494614 5.79593 0
M  V30 3639 N 355.407 -0.135169 5.43432 0
M  V30 3640 H 359.209 0.37555 2.91491 0
M  V30 3641 H 356.723 0.306917 1.59473 0
M  V30 3642 H 358.72 -1.96891 3.67477 0
M  V30 3643 H 357.38 -2.06901 2.50244 0
M  V30 3644 H 358.391 0.50741 5.15408 0
M  V30 3645 H 355.068 -1.69808 3.81407 0
M  V30 3646 H 356.458 1.2236 6.60665 0
M  V30 3647 N 359.178 -1.55987 0.224894 0
M  V30 3648 C 360.589 -1.84553 -0.282345 0
M  V30 3649 C 360.94 -1.14634 -1.59227 0
M  V30 3650 O 360.065 -0.417155 -2.12341 0
M  V30 3651 C 360.66 -3.348 -0.519062 0
M  V30 3652 C 359.219 -3.63671 -0.970604 0
M  V30 3653 C 358.366 -2.77277 -0.0355261 0
M  V30 3654 H 361.317 -1.52245 0.448006 0
M  V30 3655 H 361.338 -3.55187 -1.36463 0
M  V30 3656 H 360.85 -3.8566 0.43449 0
M  V30 3657 H 358.951 -3.1827 -1.9374 0
M  V30 3658 H 359.064 -4.71631 -0.842698 0
M  V30 3659 H 357.428 -2.48846 -0.542927 0
M  V30 3660 H 358.211 -3.30937 0.913003 0
M  V30 3661 N 360.656 0.0484629 -1.57525 0
M  V30 3662 C 361.902 0.744226 -1.88651 0
M  V30 3663 C 362.235 1.76029 -0.820212 0
M  V30 3664 O 361.51 1.93782 0.166985 0
M  V30 3665 C 361.793 1.43128 -3.30434 0
M  V30 3666 C 361.646 0.43005 -4.47739 0
M  V30 3667 C 362.965 2.37031 -3.70816 0
M  V30 3668 H 360.084 0.269089 -0.68612 0
M  V30 3669 H 362.726 0.00713532 -1.89999 0
M  V30 3670 H 360.876 2.05956 -3.29415 0
M  V30 3671 H 362.548 -0.194816 -4.60888 0
M  V30 3672 H 360.791 -0.252522 -4.33064 0
M  V30 3673 H 361.462 0.948874 -5.43783 0
M  V30 3674 H 363.938 1.84263 -3.73077 0
M  V30 3675 H 362.814 2.82094 -4.70865 0
M  V30 3676 H 363.075 3.22864 -3.02012 0
M  V30 3677 N 362.134 1.5431 0.320358 0
M  V30 3678 C 363.359 1.76954 1.08175 0
M  V30 3679 C 363.784 0.518193 1.80821 0
M  V30 3680 O 363.142 -0.530411 1.73368 0
M  V30 3681 C 363.19 2.96451 2.05303 0
M  V30 3682 O 362.294 2.68221 3.13259 0
M  V30 3683 H 361.635 0.586275 0.311733 0
M  V30 3684 H 364.165 2.01342 0.363676 0
M  V30 3685 H 364.175 3.23887 2.48116 0
M  V30 3686 H 362.85 3.87196 1.51829 0
M  V30 3687 H 361.427 2.51744 2.75099 0
M  V30 3688 N 363.613 -0.582584 1.46437 0
M  V30 3689 C 364.89 -1.34276 1.4223 0
M  V30 3690 C 365.27 -2.10835 0.10583 0
M  V30 3691 O 364.618 -2.09485 -0.912596 0
M  V30 3692 C 364.828 -2.26865 2.65204 0
M  V30 3693 C 366.176 -2.88691 3.11356 0
M  V30 3694 O 367.2 -2.37178 2.65753 0
M  V30 3695 O 366.059 -3.82255 3.90568 0
M  V30 3696 H 363.153 -0.603326 0.565621 0
M  V30 3697 H 365.699 -0.603591 1.58603 0
M  V30 3698 H 364.471 -1.69724 3.52576 0
M  V30 3699 H 364.094 -3.08122 2.5129 0
M  V30 3700 N 365.091 -1.34144 -0.827227 0
M  V30 3701 C 366.337 -1.26446 -1.58554 0
M  V30 3702 C 366.67 0.1664 -1.93486 0
M  V30 3703 O 365.945 1.1107 -1.59667 0
M  V30 3704 C 366.228 -2.15111 -2.8879 0
M  V30 3705 C 366.081 -3.66712 -2.60465 0
M  V30 3706 C 367.4 -2.03311 -3.90324 0
M  V30 3707 H 364.519 -0.46067 -0.575284 0
M  V30 3708 H 367.161 -1.64356 -0.953269 0
M  V30 3709 H 365.311 -1.8291 -3.42748 0
M  V30 3710 H 366.983 -4.09259 -2.1285 0
M  V30 3711 H 365.226 -3.88014 -1.93978 0
M  V30 3712 H 365.897 -4.24112 -3.53317 0
M  V30 3713 H 368.373 -2.31574 -3.45706 0
M  V30 3714 H 367.249 -2.67582 -4.79261 0
M  V30 3715 H 367.51 -1.00879 -4.30437 0
M  V30 3716 N 366.569 1.04691 -1.17803 0
M  V30 3717 C 367.846 1.7472 -0.879328 0
M  V30 3718 C 368.226 2.01812 0.619271 0
M  V30 3719 O 367.574 1.65824 1.57209 0
M  V30 3720 C 367.784 3.03686 -1.71976 0
M  V30 3721 C 369.132 3.77542 -1.94286 0
M  V30 3722 O 370.156 3.13569 -1.68976 0
M  V30 3723 O 369.015 4.92506 -2.36855 0
M  V30 3724 H 366.109 0.760011 -0.326056 0
M  V30 3725 H 368.655 1.10813 -1.28525 0
M  V30 3726 H 367.427 2.79754 -2.73594 0
M  V30 3727 H 367.05 3.75332 -1.31194 0
M  V30 3728 N 368.047 0.979072 1.23499 0
M  V30 3729 C 368.98 0.463027 2.23453 0
M  V30 3730 C 369.958 -0.469128 1.55685 0
M  V30 3731 O 371.142 -0.397882 1.84253 0
M  V30 3732 C 368.269 -0.330308 3.37086 0
M  V30 3733 C 367.315 0.545795 4.22993 0
M  V30 3734 S 368.148 1.99285 4.97037 0
M  V30 3735 C 369.304 1.20862 6.1412 0
M  V30 3736 H 369.537 1.31005 2.6688 0
M  V30 3737 H 367.07 0.784965 1.32957 0
M  V30 3738 H 369.028 -0.782027 4.02982 0
M  V30 3739 H 367.689 -1.15244 2.92194 0
M  V30 3740 H 366.882 -0.0638928 5.03959 0
M  V30 3741 H 366.484 0.933705 3.62157 0
M  V30 3742 H 368.776 0.469284 6.75873 0
M  V30 3743 H 369.719 1.99307 6.79472 0
M  V30 3744 H 370.127 0.727992 5.59786 0
M  V30 3745 N 369.525 -1.3858 0.750561 0
M  V30 3746 C 370.488 -2.28836 0.129152 0
M  V30 3747 C 371.488 -1.47045 -0.650714 0
M  V30 3748 O 372.678 -1.6753 -0.477428 0
M  V30 3749 C 369.81 -3.30751 -0.825622 0
M  V30 3750 H 371.003 -2.85294 0.924516 0
M  V30 3751 H 368.556 -1.47489 0.517376 0
M  V30 3752 H 369.291 -2.79378 -1.64677 0
M  V30 3753 H 369.076 -3.91177 -0.268852 0
M  V30 3754 H 370.566 -3.98249 -1.2565 0
M  V30 3755 N 371.003 -0.499398 -1.49478 0
M  V30 3756 C 371.933 0.269244 -2.31943 0
M  V30 3757 C 372.914 0.964054 -1.40143 0
M  V30 3758 O 374.099 0.955767 -1.69052 0
M  V30 3759 C 371.229 1.33504 -3.20615 0
M  V30 3760 C 370.183 0.760202 -4.21195 0
M  V30 3761 C 369.509 1.9264 -4.98792 0
M  V30 3762 C 370.809 -0.247661 -5.21712 0
M  V30 3763 H 372.503 -0.419082 -2.96452 0
M  V30 3764 H 370.049 -0.202988 -1.42562 0
M  V30 3765 H 372.002 1.88048 -3.77115 0
M  V30 3766 H 370.726 2.05253 -2.54045 0
M  V30 3767 H 369.385 0.23653 -3.65836 0
M  V30 3768 H 369.033 2.63154 -4.28671 0
M  V30 3769 H 368.733 1.54785 -5.66847 0
M  V30 3770 H 370.257 2.4762 -5.58137 0
M  V30 3771 H 371.671 0.209579 -5.72917 0
M  V30 3772 H 370.068 -0.541962 -5.97648 0
M  V30 3773 H 371.138 -1.16409 -4.7072 0
M  V30 3774 N 372.481 1.55866 -0.233164 0
M  V30 3775 C 373.706 2.03449 0.402906 0
M  V30 3776 C 374.131 1.11166 1.51736 0
M  V30 3777 O 373.489 0.101996 1.81013 0
M  V30 3778 C 373.537 3.49165 0.9009 0
M  V30 3779 O 372.641 3.60019 2.01147 0
M  V30 3780 H 371.982 0.657913 0.0897025 0
M  V30 3781 H 374.512 2.01493 -0.355201 0
M  V30 3782 H 374.522 3.89716 1.2077 0
M  V30 3783 H 373.197 4.15813 0.0852889 0
M  V30 3784 H 371.774 3.3136 1.71042 0
M  V30 3785 N 373.959 -0.0401083 1.57549 0
M  V30 3786 C 375.207 -0.731677 1.8839 0
M  V30 3787 C 375.528 -1.76481 0.829425 0
M  V30 3788 O 374.798 -1.95411 -0.1383 0
M  V30 3789 H 373.378 -0.273225 0.695239 0
M  V30 3790 H 376.04 -0.00867725 1.94898 0
M  V30 3791 H 375.136 -1.22816 2.86919 0
M  V30 3792 N 375.437 -1.54477 -0.31217 0
M  V30 3793 C 376.848 -1.64344 -0.885891 0
M  V30 3794 C 377.199 -0.54485 -1.88483 0
M  V30 3795 O 376.324 0.320387 -2.14015 0
M  V30 3796 C 376.919 -2.97908 -1.61357 0
M  V30 3797 C 375.478 -3.09933 -2.13585 0
M  V30 3798 C 374.625 -2.59971 -0.964897 0
M  V30 3799 H 377.576 -1.58448 -0.0894528 0
M  V30 3800 H 377.597 -2.88706 -2.47848 0
M  V30 3801 H 377.109 -3.77845 -0.886277 0
M  V30 3802 H 375.21 -2.34694 -2.89395 0
M  V30 3803 H 375.323 -4.15916 -2.37804 0
M  V30 3804 H 373.687 -2.16147 -1.34731 0
M  V30 3805 H 374.47 -3.42376 -0.251742 0
M  V30 3806 N 376.915 0.57481 -1.46744 0
M  V30 3807 C 377.878 1.66533 -1.57478 0
M  V30 3808 C 378.878 1.54338 -0.451263 0
M  V30 3809 O 380.068 1.58814 -0.715813 0
M  V30 3810 C 377.2 3.05999 -1.50259 0
M  V30 3811 H 378.393 1.58372 -2.54673 0
M  V30 3812 H 375.946 0.793301 -1.34672 0
M  V30 3813 H 376.681 3.19709 -0.543725 0
M  V30 3814 H 376.466 3.16259 -2.31781 0
M  V30 3815 H 377.956 3.8537 -1.60872 0
M  V30 3816 N 378.394 1.34581 0.820102 0
M  V30 3817 C 379.357 1.2628 1.91275 0
M  V30 3818 C 380.357 0.177344 1.59819 0
M  V30 3819 O 381.547 0.430156 1.68806 0
M  V30 3820 C 378.679 0.950327 3.27386 0
M  V30 3821 H 379.872 2.23421 2.00057 0
M  V30 3822 H 377.425 1.1891 1.0144 0
M  V30 3823 H 378.16 -0.0177938 3.24295 0
M  V30 3824 H 377.945 1.73549 3.51601 0
M  V30 3825 H 379.435 0.917492 4.07396 0
M  V30 3826 N 379.872 -1.04064 1.18357 0
M  V30 3827 C 380.835 -2.10243 0.912707 0
M  V30 3828 C 381.835 -1.60477 -0.101928 0
M  V30 3829 O 383.025 -1.73703 0.131517 0
M  V30 3830 C 380.157 -3.38893 0.369387 0
M  V30 3831 H 381.35 -2.35706 1.85426 0
M  V30 3832 H 378.903 -1.20489 0.995594 0
M  V30 3833 H 379.638 -3.19094 -0.578776 0
M  V30 3834 H 379.423 -3.76331 1.1008 0
M  V30 3835 H 380.913 -4.17128 0.198575 0
M  V30 3836 N 381.35 -0.985608 -1.22978 0
M  V30 3837 C 382.575 -0.675254 -1.961 0
M  V30 3838 C 383 0.752154 -1.72407 0
M  V30 3839 O 382.358 1.5131 -0.998751 0
M  V30 3840 C 382.406 -0.977899 -3.47087 0
M  V30 3841 O 381.51 -0.072685 -4.12336 0
M  V30 3842 H 380.851 -0.253443 -0.613728 0
M  V30 3843 H 383.381 -1.32061 -1.56272 0
M  V30 3844 H 383.391 -0.916739 -3.97567 0
M  V30 3845 H 382.066 -2.01807 -3.63657 0
M  V30 3846 H 380.643 -0.188703 -3.72422 0
M  V30 3847 N 382.828 1.3818 -0.7579 0
M  V30 3848 C 383.791 2.28764 -0.141286 0
M  V30 3849 C 384.791 1.47388 0.642907 0
M  V30 3850 O 385.981 1.67781 0.468536 0
M  V30 3851 C 383.113 3.31184 0.808069 0
M  V30 3852 H 384.306 2.848 -0.939633 0
M  V30 3853 H 381.859 1.47212 -0.525191 0
M  V30 3854 H 382.594 2.80247 1.63193 0
M  V30 3855 H 382.379 3.91314 0.248104 0
M  V30 3856 H 383.869 3.98909 1.23536 0
M  V30 3857 N 384.306 0.507319 1.49211 0
M  V30 3858 C 385.554 -0.0348839 2.0207 0
M  V30 3859 C 385.875 -1.36898 1.38866 0
M  V30 3860 O 385.145 -1.88133 0.546151 0
M  V30 3861 H 383.725 -0.0158812 0.746831 0
M  V30 3862 H 386.387 0.665998 1.83168 0
M  V30 3863 H 385.483 -0.159917 3.1169 0
M  V30 3864 N 385.784 -1.5574 0.241426 0
M  V30 3865 C 386.731 -2.21149 -0.660432 0
M  V30 3866 C 387.701 -1.17356 -1.17545 0
M  V30 3867 O 388.886 -1.45784 -1.23093 0
M  V30 3868 C 386.026 -2.91059 -1.85414 0
M  V30 3869 C 385.139 -4.09495 -1.37616 0
M  V30 3870 C 384.274 -4.67135 -2.529 0
M  V30 3871 C 383.313 -5.77831 -2.01936 0
M  V30 3872 N 382.45 -6.29677 -3.10566 0
M  V30 3873 H 387.29 -2.97845 -0.095955 0
M  V30 3874 H 384.827 -1.47057 -0.0356024 0
M  V30 3875 H 386.785 -3.29788 -2.5553 0
M  V30 3876 H 385.415 -2.16846 -2.39118 0
M  V30 3877 H 384.467 -3.76117 -0.569235 0
M  V30 3878 H 385.779 -4.89423 -0.962618 0
M  V30 3879 H 384.933 -5.08409 -3.31067 0
M  V30 3880 H 383.672 -3.86411 -2.97553 0
M  V30 3881 H 382.677 -5.36039 -1.22238 0
M  V30 3882 H 383.902 -6.60402 -1.58259 0
M  V30 3883 H 381.848 -5.5186 -3.54664 0
M  V30 3884 H 381.765 -7.04783 -2.73526 0
M  V30 3885 H 383.033 -6.75609 -3.88809 0
M  V30 3886 N 387.262 0.0317525 -1.57568 0
M  V30 3887 C 388.492 0.733884 -1.93126 0
M  V30 3888 C 388.9 1.69563 -0.839352 0
M  V30 3889 O 388.243 1.82681 0.193175 0
M  V30 3890 C 388.305 1.54798 -3.24465 0
M  V30 3891 C 387.969 0.751304 -4.50782 0
M  V30 3892 C 388.966 0.0527632 -5.19873 0
M  V30 3893 C 386.651 0.706639 -4.97305 0
M  V30 3894 C 388.645 -0.679774 -6.33765 0
M  V30 3895 C 386.332 -0.0296449 -6.11093 0
M  V30 3896 C 387.33 -0.721614 -6.79177 0
M  V30 3897 O 387.018 -1.44595 -7.90789 0
M  V30 3898 H 386.75 0.211459 -0.642076 0
M  V30 3899 H 389.304 -0.00585615 -2.05399 0
M  V30 3900 H 387.534 2.33147 -3.08512 0
M  V30 3901 H 389.223 2.13247 -3.4537 0
M  V30 3902 H 389.989 0.0783188 -4.84937 0
M  V30 3903 H 385.868 1.23474 -4.44157 0
M  V30 3904 H 389.412 -1.22042 -6.86842 0
M  V30 3905 H 385.309 -0.0571331 -6.45475 0
M  V30 3906 H 386.077 -1.35935 -8.07133 0
M  V30 3907 N 388.74 1.54641 0.303973 0
M  V30 3908 C 389.67 1.88386 1.3796 0
M  V30 3909 C 390.651 0.742485 1.5304 0
M  V30 3910 O 391.836 0.997959 1.66597 0
M  V30 3911 C 388.966 2.12854 2.74427 0
M  V30 3912 C 387.92 3.28702 2.74115 0
M  V30 3913 C 387.246 3.38582 4.13844 0
M  V30 3914 C 388.546 4.65881 2.3612 0
M  V30 3915 H 390.24 2.78474 1.09966 0
M  V30 3916 H 387.786 1.33988 0.527556 0
M  V30 3917 H 389.739 2.35047 3.49758 0
M  V30 3918 H 388.463 1.19535 3.03939 0
M  V30 3919 H 387.122 3.06428 2.0124 0
M  V30 3920 H 386.77 2.42784 4.40528 0
M  V30 3921 H 386.47 4.16453 4.14537 0
M  V30 3922 H 387.994 3.63031 4.90959 0
M  V30 3923 H 389.408 4.87823 3.01167 0
M  V30 3924 H 387.805 5.46444 2.48031 0
M  V30 3925 H 388.875 4.66799 1.3125 0
M  V30 3926 N 390.218 -0.567019 1.47046 0
M  V30 3927 C 391.495 -1.3276 1.43646 0
M  V30 3928 C 391.875 -2.1071 0.128186 0
M  V30 3929 O 391.223 -2.10441 -0.890326 0
M  V30 3930 C 391.433 -2.2404 2.67595 0
M  V30 3931 C 392.781 -2.85372 3.14401 0
M  V30 3932 O 393.805 -2.34346 2.68254 0
M  V30 3933 O 392.664 -3.78091 3.946 0
M  V30 3934 H 389.758 -0.597293 0.571988 0
M  V30 3935 H 392.304 -0.586735 1.59234 0
M  V30 3936 H 391.076 -1.65975 3.54356 0
M  V30 3937 H 390.699 -3.05439 2.54544 0
M  V30 3938 N 391.696 -1.35014 -0.812953 0
M  V30 3939 C 392.924 -1.31031 -1.6012 0
M  V30 3940 C 393.339 0.113558 -1.88458 0
M  V30 3941 O 392.696 1.06363 -1.48301 0
M  V30 3942 C 392.747 -2.10872 -2.93624 0
M  V30 3943 O 392.468 -3.47706 -2.66518 0
M  V30 3944 C 393.969 -2.14401 -3.88004 0
M  V30 3945 H 391.189 -0.45037 -0.497401 0
M  V30 3946 H 393.733 -1.77775 -1.01076 0
M  V30 3947 H 391.888 -1.67744 -3.492 0
M  V30 3948 H 392.302 -3.89097 -3.51715 0
M  V30 3949 H 393.776 -2.74669 -4.78812 0
M  V30 3950 H 394.253 -1.14105 -4.24119 0
M  V30 3951 H 394.859 -2.57662 -3.38364 0
M  V30 3952 N 393.175 1.03435 -1.18907 0
M  V30 3953 C 394.105 2.13503 -0.945448 0
M  V30 3954 C 395.086 1.69682 0.119189 0
M  V30 3955 O 396.271 1.94169 -0.034707 0
M  V30 3956 C 393.401 3.44004 -0.477316 0
M  V30 3957 C 392.355 4.0148 -1.48316 0
M  V30 3958 C 391.681 5.27537 -0.872311 0
M  V30 3959 C 392.981 4.36921 -2.86177 0
M  V30 3960 H 394.675 2.34141 -1.86597 0
M  V30 3961 H 392.221 1.12523 -0.898584 0
M  V30 3962 H 394.174 4.20372 -0.294204 0
M  V30 3963 H 392.898 3.23072 0.478786 0
M  V30 3964 H 391.557 3.27201 -1.65332 0
M  V30 3965 H 391.205 5.02917 0.0911752 0
M  V30 3966 H 390.905 5.66954 -1.54393 0
M  V30 3967 H 392.429 6.06576 -0.699871 0
M  V30 3968 H 393.843 5.04248 -2.72776 0
M  V30 3969 H 392.24 4.87405 -3.50081 0
M  V30 3970 H 393.31 3.46466 -3.39248 0
M  V30 3971 N 394.653 0.992116 1.22453 0
M  V30 3972 C 395.899 0.678177 1.91761 0
M  V30 3973 C 396.254 -0.781141 1.75829 0
M  V30 3974 O 395.547 -1.55747 1.11595 0
M  V30 3975 C 395.741 1.01832 3.42586 0
M  V30 3976 C 395.57 2.50916 3.73191 0
M  V30 3977 C 394.34 3.17308 3.93248 0
M  V30 3978 C 396.538 3.49032 3.77732 0
M  V30 3979 N 394.52 4.55876 4.11157 0
M  V30 3980 C 395.891 4.73055 4.00773 0
M  V30 3981 C 397.946 3.43349 3.60577 0
M  V30 3982 C 396.649 5.92089 4.0844 0
M  V30 3983 C 398.675 4.61759 3.69503 0
M  V30 3984 C 398.037 5.84582 3.92993 0
M  V30 3985 H 394.136 0.299425 0.722405 0
M  V30 3986 H 396.72 1.27197 1.47408 0
M  V30 3987 H 394.891 0.453118 3.85748 0
M  V30 3988 H 396.623 0.660454 3.99274 0
M  V30 3989 H 393.378 2.67778 3.9063 0
M  V30 3990 H 393.802 5.27748 4.24042 0
M  V30 3991 H 398.444 2.49408 3.41402 0
M  V30 3992 H 396.162 6.86435 4.26418 0
M  V30 3993 H 399.748 4.58951 3.57569 0
M  V30 3994 H 398.628 6.74676 3.99728 0
M  V30 3995 N 396.131 -1.37776 0.765217 0
M  V30 3996 C 397.408 -1.93975 0.251596 0
M  V30 3997 C 397.788 -1.69949 -1.25222 0
M  V30 3998 O 397.136 -1.04457 -2.03226 0
M  V30 3999 C 397.346 -3.43487 0.617895 0
M  V30 4000 C 398.694 -4.20564 0.584029 0
M  V30 4001 O 399.718 -3.5182 0.556888 0
M  V30 4002 O 398.577 -5.43138 0.605291 0
M  V30 4003 H 395.671 -0.82509 0.0561806 0
M  V30 4004 H 398.217 -1.47101 0.846128 0
M  V30 4005 H 396.989 -3.5453 1.65602 0
M  V30 4006 H 396.612 -3.976 -0.00403411 0
M  V30 4007 N 397.609 -0.515225 -1.4894 0
M  V30 4008 C 398.855 0.016187 -2.03394 0
M  V30 4009 C 399.21 1.33377 -1.38666 0
M  V30 4010 O 398.503 1.84461 -0.518141 0
M  V30 4011 C 398.697 0.210595 -3.56779 0
M  V30 4012 C 398.526 -1.08659 -4.36375 0
M  V30 4013 C 397.296 -1.64237 -4.77864 0
M  V30 4014 C 399.494 -1.9935 -4.74093 0
M  V30 4015 N 397.476 -2.88398 -5.41941 0
M  V30 4016 C 398.847 -3.08088 -5.38035 0
M  V30 4017 C 400.902 -1.99856 -4.56029 0
M  V30 4018 C 399.605 -4.17377 -5.85823 0
M  V30 4019 C 401.631 -3.08129 -5.04787 0
M  V30 4020 C 400.993 -4.15586 -5.68742 0
M  V30 4021 H 397.092 -0.0352107 -0.781207 0
M  V30 4022 H 399.676 -0.693237 -1.8194 0
M  V30 4023 H 397.847 0.889088 -3.78087 0
M  V30 4024 H 399.579 0.740287 -3.97872 0
M  V30 4025 H 396.334 -1.18566 -4.58518 0
M  V30 4026 H 396.758 -3.51572 -5.78555 0
M  V30 4027 H 401.4 -1.18079 -4.05977 0
M  V30 4028 H 399.118 -4.99943 -6.34888 0
M  V30 4029 H 402.704 -3.09557 -4.92611 0
M  V30 4030 H 401.584 -4.97987 -6.05787 0
M  V30 4031 N 399.087 1.5561 -0.249682 0
M  V30 4032 C 400.315 2.03411 0.378352 0
M  V30 4033 C 400.73 1.12886 1.51335 0
M  V30 4034 O 400.087 0.143833 1.81932 0
M  V30 4035 C 400.138 3.50537 0.88351 0
M  V30 4036 O 399.859 4.37614 -0.20626 0
M  V30 4037 C 401.36 4.14113 1.58195 0
M  V30 4038 H 398.58 0.664994 0.08958 0
M  V30 4039 H 401.124 2.01044 -0.374357 0
M  V30 4040 H 399.279 3.5343 1.58639 0
M  V30 4041 H 399.693 5.24199 0.177782 0
M  V30 4042 H 401.167 5.18741 1.8871 0
M  V30 4043 H 401.644 3.60767 2.50487 0
M  V30 4044 H 402.25 4.15151 0.923573 0
M  V30 4045 N 400.565 -0.0233959 1.57583 0
M  V30 4046 C 401.805 -0.71784 1.9138 0
M  V30 4047 C 402.169 -1.72216 0.848853 0
M  V30 4048 O 403.37 -2.46527 1.07134 0
M  V30 4049 C 401.641 -1.36489 3.30311 0
M  V30 4050 S 403.2 -2.0877 3.85954 0
M  V30 4051 H 400.018 -0.237676 0.670098 0
M  V30 4052 H 402.62 0.0276709 1.9548 0
M  V30 4053 H 401.324 -0.620782 4.05678 0
M  V30 4054 H 400.855 -2.14883 3.29528 0
M  V30 4055 H 402.87 -3.35988 3.65139 0
M  V30 4056 N 402.043 -1.548 -0.295768 0
M  V30 4057 C 403.459 -1.4613 -0.641722 0
M  V30 4058 C 403.659 -0.656771 -1.90496 0
M  V30 4059 O 402.715 -0.166547 -2.5195 0
M  V30 4060 C 404.028 -2.90141 -0.789852 0
M  V30 4061 C 405.576 -3.00216 -0.885396 0
M  V30 4062 C 406.051 -4.45434 -1.06548 0
M  V30 4063 N 407.542 -4.49166 -1.13156 0
M  V30 4064 C 408.277 -5.58717 -1.28929 0
M  V30 4065 N 407.773 -6.78182 -1.41567 0
M  V30 4066 N 409.566 -5.46415 -1.31859 0
M  V30 4067 H 401.717 -2.05574 0.534147 0
M  V30 4068 H 403.98 -0.931259 0.177372 0
M  V30 4069 H 403.686 -3.51635 0.0675598 0
M  V30 4070 H 403.56 -3.37859 -1.67724 0
M  V30 4071 H 405.947 -2.38833 -1.73329 0
M  V30 4072 H 406.028 -2.55787 0.0261185 0
M  V30 4073 H 405.672 -5.07413 -0.222335 0
M  V30 4074 H 405.602 -4.87499 -1.9913 0
M  V30 4075 H 408.093 -3.631 -1.04721 0
M  V30 4076 H 408.406 -7.57428 -1.53372 0
M  V30 4077 H 406.751 -6.81037 -1.38613 0
M  V30 4078 H 409.942 -4.5203 -1.21601 0
M  V30 4079 H 410.115 -6.31841 -1.43808 0
M  V30 4080 N 403.521 0.559213 -1.47345 0
M  V30 4081 C 404.469 1.68747 -1.60085 0
M  V30 4082 C 405.463 1.628 -0.46825 0
M  V30 4083 O 406.669 1.68009 -0.645977 0
M  V30 4084 H 403.044 0.558329 -0.503759 0
M  V30 4085 H 405.015 1.55138 -2.54902 0
M  V30 4086 C 403.764 3.07103 -1.63042 0
M  V30 4087 H 403.087 3.12361 -2.49541 0
M  V30 4088 H 404.527 3.85743 -1.76006 0
M  V30 4089 C 402.986 3.34935 -0.363357 0
M  V30 4090 O 403.516 3.98102 0.536416 0
M  V30 4091 N 401.722 2.89574 -0.244 0
M  V30 4092 H 401.269 2.38348 -0.977133 0
M  V30 4093 H 401.227 3.08566 0.602836 0
M  V30 4094 N 404.999 1.35443 0.805782 0
M  V30 4095 C 405.962 1.28301 1.89925 0
M  V30 4096 C 406.962 0.194285 1.59622 0
M  V30 4097 O 408.152 0.448036 1.6834 0
M  V30 4098 C 405.284 0.984997 3.2636 0
M  V30 4099 H 406.477 2.2553 1.97677 0
M  V30 4100 H 404.03 1.19979 1.00173 0
M  V30 4101 H 404.765 0.016603 3.24296 0
M  V30 4102 H 404.55 1.77269 3.4974 0
M  V30 4103 H 406.04 0.960651 4.064 0
M  V30 4104 N 406.477 -1.02803 1.19454 0
M  V30 4105 C 407.702 -1.80378 1.02364 0
M  V30 4106 C 408.127 -1.83282 -0.423007 0
M  V30 4107 O 407.485 -1.25945 -1.30413 0
M  V30 4108 C 407.533 -3.23248 1.59821 0
M  V30 4109 O 406.637 -4.04 0.828105 0
M  V30 4110 H 405.978 -0.556799 0.361761 0
M  V30 4111 H 408.508 -1.29385 1.58495 0
M  V30 4112 H 408.518 -3.73994 1.63073 0
M  V30 4113 H 407.193 -3.2045 2.65113 0
M  V30 4114 H 405.77 -3.62635 0.86891 0
M  V30 4115 N 407.956 -0.998596 -1.21925 0
M  V30 4116 C 409.233 -0.593401 -1.86382 0
M  V30 4117 C 409.613 0.92916 -1.89552 0
M  V30 4118 O 408.961 1.81347 -1.39017 0
M  V30 4119 C 409.171 -1.22039 -3.26967 0
M  V30 4120 C 410.519 -1.32449 -4.03413 0
M  V30 4121 O 411.543 -1.17522 -3.36254 0
M  V30 4122 O 410.402 -1.56395 -5.23644 0
M  V30 4123 H 407.496 -0.202385 -0.801854 0
M  V30 4124 H 410.042 -1.09484 -1.29659 0
M  V30 4125 H 408.814 -2.26158 -3.19325 0
M  V30 4126 H 408.437 -0.704906 -3.91301 0
M  V30 4127 N 409.434 1.37368 -0.772513 0
M  V30 4128 C 410.845 1.8231 -0.402493 0
M  V30 4129 C 411.196 1.6436 1.07146 0
M  V30 4130 O 410.321 1.15514 1.82991 0
M  V30 4131 C 410.916 3.30979 -0.723776 0
M  V30 4132 C 409.475 3.74195 -0.406802 0
M  V30 4133 C 408.622 2.59885 -0.967218 0
M  V30 4134 H 411.573 1.25829 -0.967099 0
M  V30 4135 H 411.594 3.80499 -0.00870832 0
M  V30 4136 H 411.106 3.44011 -1.7966 0
M  V30 4137 H 409.207 3.66732 0.658673 0
M  V30 4138 H 409.32 4.7027 -0.915588 0
M  V30 4139 H 407.684 2.51674 -0.391416 0
M  V30 4140 H 408.467 2.7571 -2.04546 0
M  V30 4141 N 410.912 0.523116 1.48665 0
M  V30 4142 C 411.875 -0.232592 2.28017 0
M  V30 4143 C 412.875 -0.874021 1.34972 0
M  V30 4144 O 414.065 -0.735132 1.57929 0
M  V30 4145 C 411.197 -1.33586 3.13636 0
M  V30 4146 H 412.39 0.464008 2.96289 0
M  V30 4147 H 409.943 0.278816 1.53793 0
M  V30 4148 H 410.678 -2.06593 2.4998 0
M  V30 4149 H 410.463 -0.881125 3.82071 0
M  V30 4150 H 411.953 -1.86759 3.73511 0
M  V30 4151 N 412.39 -1.55475 0.257931 0
M  V30 4152 C 413.337 -2.21837 -0.636939 0
M  V30 4153 C 414.307 -1.18596 -1.16294 0
M  V30 4154 O 415.492 -1.47081 -1.21539 0
M  V30 4155 C 412.632 -2.9301 -1.82317 0
M  V30 4156 C 411.745 -4.10931 -1.33265 0
M  V30 4157 C 410.88 -4.69791 -2.47931 0
M  V30 4158 C 409.919 -5.7994 -1.95796 0
M  V30 4159 N 409.056 -6.32935 -3.0387 0
M  V30 4160 H 413.896 -2.9793 -0.0643591 0
M  V30 4161 H 411.433 -1.47086 -0.0200031 0
M  V30 4162 H 413.391 -3.3248 -2.52018 0
M  V30 4163 H 412.021 -2.1937 -2.36805 0
M  V30 4164 H 411.073 -3.76699 -0.52931 0
M  V30 4165 H 412.385 -4.90417 -0.910654 0
M  V30 4166 H 411.539 -5.11892 -3.25656 0
M  V30 4167 H 410.278 -3.89545 -2.93438 0
M  V30 4168 H 409.283 -5.37305 -1.16546 0
M  V30 4169 H 410.508 -6.62043 -1.51246 0
M  V30 4170 H 408.454 -5.55591 -3.48791 0
M  V30 4171 H 408.371 -7.07645 -2.66035 0
M  V30 4172 H 409.639 -6.79695 -3.81621 0
M  V30 4173 N 413.868 0.0150385 -1.57593 0
M  V30 4174 C 415.114 0.704043 -1.90187 0
M  V30 4175 C 415.447 1.74249 -0.857366 0
M  V30 4176 O 414.722 1.94092 0.125843 0
M  V30 4177 C 415.005 1.36087 -3.33395 0
M  V30 4178 C 414.858 0.334981 -4.48551 0
M  V30 4179 C 416.177 2.29112 -3.7576 0
M  V30 4180 H 413.296 0.254475 -0.691673 0
M  V30 4181 H 415.938 -0.0331678 -1.89971 0
M  V30 4182 H 414.088 1.98922 -3.3371 0
M  V30 4183 H 415.76 -0.292534 -4.60372 0
M  V30 4184 H 414.003 -0.344325 -4.32431 0
M  V30 4185 H 414.674 0.833316 -5.45674 0
M  V30 4186 H 417.15 1.76308 -3.76902 0
M  V30 4187 H 416.026 2.72043 -4.76743 0
M  V30 4188 H 416.287 3.16385 -3.08793 0
M  V30 4189 N 415.346 1.54954 0.287554 0
M  V30 4190 C 416.592 1.76059 1.01856 0
M  V30 4191 C 416.947 0.547056 1.84459 0
M  V30 4192 O 416.24 -0.460442 1.85985 0
M  V30 4193 C 416.434 2.99833 1.94512 0
M  V30 4194 C 416.263 4.33108 1.21026 0
M  V30 4195 C 415.033 4.96632 0.931896 0
M  V30 4196 C 417.231 5.10694 0.607949 0
M  V30 4197 N 415.213 6.13668 0.168716 0
M  V30 4198 C 416.584 6.19996 -0.0217865 0
M  V30 4199 C 418.639 4.95236 0.514338 0
M  V30 4200 C 417.342 7.15524 -0.736092 0
M  V30 4201 C 419.368 5.91106 -0.186343 0
M  V30 4202 C 418.73 6.99786 -0.804875 0
M  V30 4203 H 414.829 0.696679 0.355193 0
M  V30 4204 H 417.413 1.92441 0.295741 0
M  V30 4205 H 415.584 2.84853 2.64033 0
M  V30 4206 H 417.316 3.09405 2.60865 0
M  V30 4207 H 414.071 4.57255 1.23348 0
M  V30 4208 H 414.495 6.76705 -0.199781 0
M  V30 4209 H 419.137 4.11328 0.978234 0
M  V30 4210 H 416.855 7.98964 -1.21172 0
M  V30 4211 H 420.441 5.81224 -0.258897 0
M  V30 4212 H 419.321 7.72694 -1.33843 0
M  V30 4213 N 416.824 -0.551391 1.4764 0
M  V30 4214 C 417.754 -1.66757 1.63445 0
M  V30 4215 C 418.735 -1.63077 0.483742 0
M  V30 4216 O 419.92 -1.80607 0.71377 0
M  V30 4217 C 417.05 -3.05387 1.65396 0
M  V30 4218 C 416.004 -3.23918 2.79752 0
M  V30 4219 C 415.33 -4.63393 2.66779 0
M  V30 4220 C 416.63 -3.08735 4.21284 0
M  V30 4221 H 418.324 -1.53786 2.56886 0
M  V30 4222 H 415.87 -0.738415 1.23626 0
M  V30 4223 H 417.823 -3.83325 1.75043 0
M  V30 4224 H 416.547 -3.19332 0.685195 0
M  V30 4225 H 415.206 -2.48391 2.69625 0
M  V30 4226 H 414.854 -4.74144 1.67918 0
M  V30 4227 H 414.554 -4.7674 3.43501 0
M  V30 4228 H 416.078 -5.43458 2.78364 0
M  V30 4229 H 417.492 -3.76484 4.32357 0
M  V30 4230 H 415.889 -3.33588 4.98838 0
M  V30 4231 H 416.959 -2.0541 4.39243 0
M  V30 4232 N 418.302 -1.35869 -0.798587 0
M  V30 4233 C 419.265 -1.29307 -1.89242 0
M  V30 4234 C 420.265 -0.202747 -1.59517 0
M  V30 4235 O 421.455 -0.456957 -1.681 0
M  V30 4236 C 418.587 -1.00229 -3.25833 0
M  V30 4237 H 419.78 -2.26576 -1.96478 0
M  V30 4238 H 417.333 -1.20509 -0.995358 0
M  V30 4239 H 418.068 -0.033801 -3.24282 0
M  V30 4240 H 417.853 -1.79121 -3.48795 0
M  V30 4241 H 419.343 -0.98219 -4.05885 0
M  V30 4242 N 419.78 1.02168 -1.19998 0
M  V30 4243 C 421.008 1.79296 -1.03249 0
M  V30 4244 C 421.423 1.84103 0.418502 0
M  V30 4245 O 420.78 1.29031 1.29063 0
M  V30 4246 C 420.831 3.24007 -1.60319 0
M  V30 4247 O 420.552 3.19512 -2.99739 0
M  V30 4248 C 422.053 4.17704 -1.48453 0
M  V30 4249 H 419.273 0.564016 -0.363493 0
M  V30 4250 H 421.817 1.28639 -1.58973 0
M  V30 4251 H 419.972 3.7183 -1.08727 0
M  V30 4252 H 420.386 4.10306 -3.26725 0
M  V30 4253 H 421.86 5.17104 -1.93153 0
M  V30 4254 H 422.337 4.37029 -0.436193 0
M  V30 4255 H 422.943 3.7576 -1.99211 0
M  V30 4256 N 421.258 1.00505 1.21394 0
M  V30 4257 C 422.483 0.706367 1.95001 0
M  V30 4258 C 422.908 -0.72463 1.73582 0
M  V30 4259 O 422.266 -1.49702 1.0227 0
M  V30 4260 C 422.314 1.03299 3.45487 0
M  V30 4261 O 421.418 0.138275 4.12168 0
M  V30 4262 H 420.759 0.263175 0.609619 0
M  V30 4263 H 423.289 1.34531 1.54151 0
M  V30 4264 H 423.299 0.979872 3.96059 0
M  V30 4265 H 421.974 2.07567 3.60401 0
M  V30 4266 H 420.551 0.247928 3.72075 0
M  V30 4267 N 422.737 -1.36956 0.779787 0
M  V30 4268 C 423.685 -2.32053 0.15942 0
M  V30 4269 C 424.679 -1.55333 -0.675878 0
M  V30 4270 O 425.885 -1.70668 -0.57204 0
M  V30 4271 H 422.26 -0.751286 0.0327707 0
M  V30 4272 H 424.231 -2.8195 0.977078 0
M  V30 4273 C 422.98 -3.40602 -0.698977 0
M  V30 4274 H 422.303 -3.99746 -0.0655966 0
M  V30 4275 H 423.743 -4.09486 -1.09989 0
M  V30 4276 C 422.202 -2.81359 -1.85307 0
M  V30 4277 O 422.732 -2.72751 -2.94906 0
M  V30 4278 N 420.938 -2.38786 -1.65619 0
M  V30 4279 H 420.485 -2.45987 -0.764725 0
M  V30 4280 H 420.443 -1.99493 -2.43002 0
M  V30 4281 N 424.215 -0.530993 -1.48385 0
M  V30 4282 C 425.463 0.00273189 -2.021 0
M  V30 4283 C 425.784 1.34672 -1.41027 0
M  V30 4284 O 425.054 1.8724 -0.576012 0
M  V30 4285 H 423.634 0.00399774 -0.746989 0
M  V30 4286 H 426.296 -0.695054 -1.82085 0
M  V30 4287 H 425.392 0.11031 -3.11905 0
M  V30 4288 N 425.693 1.55336 -0.266172 0
M  V30 4289 C 426.656 2.20878 0.612001 0
M  V30 4290 C 427.656 1.18388 1.08816 0
M  V30 4291 O 428.846 1.4335 0.989774 0
M  V30 4292 C 425.978 2.86765 1.84332 0
M  V30 4293 H 427.171 2.99873 0.0398718 0
M  V30 4294 H 424.724 1.56291 -0.0167309 0
M  V30 4295 H 425.459 2.11759 2.45619 0
M  V30 4296 H 425.244 3.61862 1.5099 0
M  V30 4297 H 426.734 3.36867 2.46801 0
M  V30 4298 N 427.171 -0.0066808 1.57599 0
M  V30 4299 C 428.396 -0.707738 1.94951 0
M  V30 4300 C 428.821 -1.66882 0.867868 0
M  V30 4301 O 428.179 -1.80457 -0.17458 0
M  V30 4302 C 428.227 -1.42162 3.31394 0
M  V30 4303 O 427.331 -2.53578 3.25226 0
M  V30 4304 H 426.672 -0.188752 0.636607 0
M  V30 4305 H 429.202 0.0445193 2.04552 0
M  V30 4306 H 429.212 -1.78655 3.66806 0
M  V30 4307 H 427.887 -0.716903 4.09675 0
M  V30 4308 H 426.464 -2.19463 3.01481 0
M  V30 4309 N 428.649 -1.55105 -0.279332 0
M  V30 4310 C 429.889 -1.7716 -1.01949 0
M  V30 4311 C 430.253 -0.557511 -1.83728 0
M  V30 4312 O 431.454 -0.656198 -2.60667 0
M  V30 4313 C 429.725 -3.0372 -1.88385 0
M  V30 4314 S 431.284 -3.46868 -2.68752 0
M  V30 4315 H 428.102 -0.62253 -0.343478 0
M  V30 4316 H 430.704 -1.93329 -0.290572 0
M  V30 4317 H 429.408 -3.90184 -1.2722 0
M  V30 4318 H 428.939 -2.902 -2.65608 0
M  V30 4319 H 430.954 -3.05643 -3.90892 0
M  V30 4320 N 430.127 0.543554 -1.4793 0
M  V30 4321 C 431.06 1.66556 -1.55995 0
M  V30 4322 C 432.038 1.57315 -0.411205 0
M  V30 4323 O 433.222 1.7798 -0.620922 0
M  V30 4324 C 430.349 3.04883 -1.47527 0
M  V30 4325 C 429.395 3.32526 -2.67074 0
M  V30 4326 S 430.228 3.20282 -4.29162 0
M  V30 4327 C 431.384 4.61079 -4.23269 0
M  V30 4328 H 431.617 1.59462 -2.50917 0
M  V30 4329 H 429.15 0.725456 -1.36296 0
M  V30 4330 H 431.108 3.84665 -1.43328 0
M  V30 4331 H 429.769 3.09429 -0.539665 0
M  V30 4332 H 428.962 4.33403 -2.5725 0
M  V30 4333 H 428.564 2.60389 -2.68466 0
M  V30 4334 H 430.856 5.52318 -3.92365 0
M  V30 4335 H 431.799 4.75959 -5.24279 0
M  V30 4336 H 432.207 4.39766 -3.5393 0
M  V30 4337 N 431.605 1.3629 0.791371 0
M  V30 4338 C 433.016 1.27225 1.36641 0
M  V30 4339 C 433.367 -0.0887968 1.95999 0
M  V30 4340 O 432.492 -0.990207 1.92416 0
M  V30 4341 C 433.087 2.30375 2.48421 0
M  V30 4342 C 431.646 2.25004 3.01746 0
M  V30 4343 C 430.793 2.15259 1.7481 0
M  V30 4344 H 433.744 1.47198 0.593173 0
M  V30 4345 H 433.765 1.93905 3.27385 0
M  V30 4346 H 433.277 3.29422 2.05189 0
M  V30 4347 H 431.378 1.29417 3.49403 0
M  V30 4348 H 431.491 3.1761 3.58693 0
M  V30 4349 H 429.855 1.61482 1.96966 0
M  V30 4350 H 430.638 3.16191 1.33709 0
M  V30 4351 N 433.083 -1.0153 1.20538 0
M  V30 4352 C 434.308 -1.79283 1.04271 0
M  V30 4353 C 434.733 -1.8372 -0.403544 0
M  V30 4354 O 434.091 -1.27321 -1.2907 0
M  V30 4355 C 434.139 -3.21535 1.63241 0
M  V30 4356 O 433.243 -4.03099 0.870908 0
M  V30 4357 H 432.584 -0.55293 0.367647 0
M  V30 4358 H 435.114 -1.27696 1.59859 0
M  V30 4359 H 435.124 -3.72243 1.6703 0
M  V30 4360 H 433.799 -3.1762 2.68497 0
M  V30 4361 H 432.376 -3.61693 0.907323 0
M  V30 4362 N 434.561 -1.01147 -1.20859 0
M  V30 4363 C 435.494 -0.522108 -2.22147 0
M  V30 4364 C 436.472 0.427686 -1.56874 0
M  V30 4365 O 437.656 0.34889 -1.85243 0
M  V30 4366 C 434.783 0.240819 -3.37843 0
M  V30 4367 C 433.829 -0.657752 -4.21398 0
M  V30 4368 S 434.662 -2.12393 -4.91578 0
M  V30 4369 C 435.818 -1.37102 -6.10699 0
M  V30 4370 H 436.051 -1.38035 -2.63313 0
M  V30 4371 H 433.584 -0.819941 -1.30829 0
M  V30 4372 H 435.542 0.674908 -4.04914 0
M  V30 4373 H 434.203 1.07457 -2.95147 0
M  V30 4374 H 433.396 -0.0697456 -5.03952 0
M  V30 4375 H 432.998 -1.0294 -3.59555 0
M  V30 4376 H 435.29 -0.648315 -6.74391 0
M  V30 4377 H 436.233 -2.17252 -6.73949 0
M  V30 4378 H 436.641 -0.876154 -5.57659 0
M  V30 4379 N 436.039 1.36541 -0.78704 0
M  V30 4380 C 436.949 2.3387 -0.184896 0
M  V30 4381 C 437.965 1.60927 0.661697 0
M  V30 4382 O 439.141 1.92927 0.57804 0
M  V30 4383 C 436.206 3.40122 0.672145 0
M  V30 4384 C 435.267 4.28867 -0.19267 0
M  V30 4385 C 434.5 5.30045 0.623561 0
M  V30 4386 O 434.723 5.39232 1.8597 0
M  V30 4387 O 433.657 6.01895 0.0247068 0
M  V30 4388 H 437.483 2.87126 -0.989562 0
M  V30 4389 H 435.068 1.38969 -0.548455 0
M  V30 4390 H 436.95 4.05093 1.16094 0
M  V30 4391 H 435.625 2.89169 1.45474 0
M  V30 4392 H 434.532 3.66945 -0.728166 0
M  V30 4393 H 435.865 4.83165 -0.938722 0
M  V30 4394 N 437.518 0.538854 1.48102 0
M  V30 4395 C 438.45 -0.256278 2.27763 0
M  V30 4396 C 439.463 -0.89633 1.35904 0
M  V30 4397 O 440.652 -0.773275 1.60881 0
M  V30 4398 C 437.752 -1.37896 3.09577 0
M  V30 4399 C 436.925 -0.839159 4.29275 0
M  V30 4400 C 435.984 -1.84405 4.9283 0
M  V30 4401 O 435.01 -1.39746 5.51779 0
M  V30 4402 N 436.212 -3.17666 4.85869 0
M  V30 4403 H 438.977 0.426968 2.96643 0
M  V30 4404 H 436.538 0.373747 1.57527 0
M  V30 4405 H 438.53 -2.04955 3.48963 0
M  V30 4406 H 437.1 -1.96572 2.4306 0
M  V30 4407 H 436.32 0.00769287 3.94199 0
M  V30 4408 H 437.608 -0.457548 5.06739 0
M  V30 4409 H 437.006 -3.56609 4.39143 0
M  V30 4410 H 435.563 -3.80334 5.29329 0
M  V30 4411 N 438.996 -1.55193 0.274407 0
M  V30 4412 C 440.273 -1.91584 -0.394331 0
M  V30 4413 C 440.653 -1.19858 -1.73774 0
M  V30 4414 O 440.001 -0.3252 -2.26174 0
M  V30 4415 C 440.211 -3.4487 -0.535311 0
M  V30 4416 C 441.559 -4.16636 -0.818534 0
M  V30 4417 O 442.583 -3.5076 -0.620146 0
M  V30 4418 O 441.442 -5.33209 -1.19792 0
M  V30 4419 H 438.536 -0.798349 -0.215794 0
M  V30 4420 H 441.082 -1.66646 0.320507 0
M  V30 4421 H 439.854 -3.89145 0.410141 0
M  V30 4422 H 439.477 -3.75759 -1.29964 0
M  V30 4423 N 440.474 -0.00167713 -1.576 0
M  V30 4424 C 441.384 1.00548 -2.1196 0
M  V30 4425 C 442.4 1.3758 -1.06526 0
M  V30 4426 O 443.576 1.46278 -1.38436 0
M  V30 4427 C 440.641 2.27809 -2.6135 0
M  V30 4428 C 439.702 1.97074 -3.81393 0
M  V30 4429 C 438.935 3.18267 -4.28417 0
M  V30 4430 O 439.158 4.30009 -3.74765 0
M  V30 4431 O 438.092 3.02167 -5.20556 0
M  V30 4432 H 441.918 0.573373 -2.98238 0
M  V30 4433 H 439.503 0.217255 -1.47812 0
M  V30 4434 H 441.385 3.02568 -2.93309 0
M  V30 4435 H 440.06 2.70254 -1.78169 0
M  V30 4436 H 438.967 1.19785 -3.54404 0
M  V30 4437 H 440.3 1.59464 -4.65652 0
M  V30 4438 N 441.952 1.55251 0.271103 0
M  V30 4439 C 442.915 1.87484 1.31842 0
M  V30 4440 C 443.915 0.749545 1.42262 0
M  V30 4441 O 445.105 1.01771 1.4138 0
M  V30 4442 C 442.237 2.0818 2.69951 0
M  V30 4443 H 443.43 2.81108 1.0449 0
M  V30 4444 H 440.983 1.47771 0.509258 0
M  V30 4445 H 441.718 1.16944 3.02481 0
M  V30 4446 H 441.503 2.90114 2.63774 0
M  V30 4447 H 442.993 2.34385 3.4562 0
M  V30 4448 N 443.43 -0.535701 1.48216 0
M  V30 4449 C 444.678 -1.28928 1.55634 0
M  V30 4450 C 444.999 -1.93645 0.229514 0
M  V30 4451 O 444.269 -1.81038 -0.74846 0
M  V30 4452 H 442.849 -0.47884 0.573342 0
M  V30 4453 H 445.511 -0.623853 1.84646 0
M  V30 4454 H 444.607 -2.07157 2.33436 0
M  V30 4455 N 444.908 -1.36708 -0.784132 0
M  V30 4456 C 446.133 -1.34565 -1.5782 0
M  V30 4457 C 446.558 0.0695257 -1.87971 0
M  V30 4458 O 445.916 1.04302 -1.48293 0
M  V30 4459 C 445.964 -2.17952 -2.87279 0
M  V30 4460 O 445.068 -1.57563 -3.81114 0
M  V30 4461 H 444.409 -0.460337 -0.478524 0
M  V30 4462 H 446.939 -1.80064 -0.971495 0
M  V30 4463 H 446.949 -2.30721 -3.365 0
M  V30 4464 H 445.624 -3.20823 -2.64661 0
M  V30 4465 H 444.201 -1.53764 -3.39722 0
M  V30 4466 N 446.386 1.0089 -1.21074 0
M  V30 4467 C 447.349 2.0775 -0.968129 0
M  V30 4468 C 448.349 1.6069 0.0593445 0
M  V30 4469 O 449.539 1.73293 -0.177525 0
M  V30 4470 C 446.671 3.37794 -0.459108 0
M  V30 4471 H 447.864 2.30707 -1.9161 0
M  V30 4472 H 445.417 1.17807 -1.02719 0
M  V30 4473 H 446.152 3.20516 0.49397 0
M  V30 4474 H 445.937 3.7328 -1.20019 0
M  V30 4475 H 447.427 4.16454 -0.309099 0
M  V30 4476 N 447.864 1.01787 1.20321 0
M  V30 4477 C 449.275 0.739307 1.71438 0
M  V30 4478 C 449.626 -0.742041 1.81627 0
M  V30 4479 O 448.751 -1.57903 1.47971 0
M  V30 4480 C 449.346 1.33538 3.11373 0
M  V30 4481 C 447.905 1.10566 3.59795 0
M  V30 4482 C 447.052 1.44028 2.36962 0
M  V30 4483 H 450.003 1.18718 1.05317 0
M  V30 4484 H 450.024 0.726611 3.73498 0
M  V30 4485 H 449.536 2.41352 3.03926 0
M  V30 4486 H 447.637 0.0452405 3.72573 0
M  V30 4487 H 447.75 1.78661 4.44542 0
M  V30 4488 H 446.114 0.85933 2.39766 0
M  V30 4489 H 446.897 2.52901 2.32155 0
M  V30 4490 N 449.342 -1.36122 0.79427 0
M  V30 4491 C 450.305 -2.28309 0.201889 0
M  V30 4492 C 451.305 -1.49041 -0.603603 0
M  V30 4493 O 452.495 -1.68964 -0.423888 0
M  V30 4494 C 449.627 -3.3321 -0.719978 0
M  V30 4495 H 450.82 -2.82208 1.01481 0
M  V30 4496 H 448.373 -1.45768 0.564037 0
M  V30 4497 H 449.108 -2.84475 -1.55706 0
M  V30 4498 H 448.893 -3.91835 -0.144266 0
M  V30 4499 H 450.383 -4.02044 -1.12916 0
M  V30 4500 N 450.82 -0.546701 -1.47814 0
M  V30 4501 C 451.73 0.21026 -2.33656 0
M  V30 4502 C 452.746 0.922413 -1.47538 0
M  V30 4503 O 453.922 0.893652 -1.80488 0
M  V30 4504 C 450.987 1.23348 -3.24016 0
M  V30 4505 C 450.048 0.529883 -4.26017 0
M  V30 4506 C 449.281 1.50435 -5.12059 0
M  V30 4507 O 449.504 2.73837 -5.00369 0
M  V30 4508 O 448.438 1.03459 -5.92942 0
M  V30 4509 H 452.264 -0.493605 -2.99662 0
M  V30 4510 H 449.849 -0.307427 -1.46203 0
M  V30 4511 H 451.731 1.82438 -3.79861 0
M  V30 4512 H 450.406 1.91945 -2.60651 0
M  V30 4513 H 449.313 -0.101948 -3.73961 0
M  V30 4514 H 450.646 -0.11445 -4.92067 0
M  V30 4515 N 452.299 1.55045 -0.282633 0
M  V30 4516 C 453.71 1.85473 0.213655 0
M  V30 4517 C 454.061 1.20465 1.54863 0
M  V30 4518 O 453.186 0.495676 2.10647 0
M  V30 4519 C 453.781 3.36496 0.394445 0
M  V30 4520 C 452.34 3.67022 0.834961 0
M  V30 4521 C 451.487 2.77218 -0.0674081 0
M  V30 4522 H 454.438 1.50478 -0.504202 0
M  V30 4523 H 454.459 3.60007 1.23186 0
M  V30 4524 H 453.971 3.83782 -0.577326 0
M  V30 4525 H 452.072 3.25241 1.81794 0
M  V30 4526 H 452.185 4.74433 0.667075 0
M  V30 4527 H 450.549 2.5069 0.450196 0
M  V30 4528 H 451.332 3.2732 -1.0352 0
M  V30 4529 N 453.777 0.010035 1.57597 0
M  V30 4530 C 455.005 -0.683413 1.95287 0
M  V30 4531 C 455.42 -1.66747 0.885481 0
M  V30 4532 O 454.777 -1.82003 -0.134629 0
M  V30 4533 C 454.828 -1.40652 3.33015 0
M  V30 4534 O 454.549 -0.461916 4.35658 0
M  V30 4535 C 456.05 -2.19356 3.85225 0
M  V30 4536 H 453.27 -0.189708 0.643624 0
M  V30 4537 H 455.814 0.0641359 2.04399 0
M  V30 4538 H 453.969 -2.10562 3.2518 0
M  V30 4539 H 454.383 -0.973215 5.15392 0
M  V30 4540 H 455.857 -2.65433 4.83993 0
M  V30 4541 H 456.334 -3.02457 3.18459 0
M  V30 4542 H 456.94 -1.54442 3.96267 0
M  V30 4543 N 455.255 -1.55392 -0.262866 0
M  V30 4544 C 456.503 -1.76127 -0.991147 0
M  V30 4545 C 456.824 -0.571083 -1.8645 0
M  V30 4546 O 456.094 0.413698 -1.91482 0
M  V30 4547 H 454.674 -0.649528 -0.368948 0
M  V30 4548 H 457.336 -1.9281 -0.284655 0
M  V30 4549 H 456.432 -2.6663 -1.62219 0
M  V30 4550 N 456.733 0.527833 -1.48498 0
M  V30 4551 C 458.01 1.28905 -1.47115 0
M  V30 4552 C 458.39 2.10297 -0.184007 0
M  V30 4553 O 457.738 2.12728 0.834218 0
M  V30 4554 C 457.948 2.16866 -2.73441 0
M  V30 4555 C 459.296 2.76936 -3.21857 0
M  V30 4556 O 460.32 2.27152 -2.74373 0
M  V30 4557 O 459.179 3.67496 -4.04486 0
M  V30 4558 H 456.273 0.581918 -0.587623 0
M  V30 4559 H 458.819 0.544311 -1.60734 0
M  V30 4560 H 457.591 1.56521 -3.58632 0
M  V30 4561 H 457.214 2.98583 -2.62553 0
M  V30 4562 N 458.211 1.37122 0.776871 0
M  V30 4563 C 459.457 1.32243 1.53752 0
M  V30 4564 C 459.79 -0.0944745 1.9397 0
M  V30 4565 O 459.065 -1.05068 1.6368 0
M  V30 4566 C 459.348 2.25681 2.80607 0
M  V30 4567 C 459.201 3.76127 2.46676 0
M  V30 4568 C 460.52 2.17657 3.82509 0
M  V30 4569 H 457.639 0.481704 0.557791 0
M  V30 4570 H 460.281 1.6778 0.891612 0
M  V30 4571 H 458.431 1.95505 3.35723 0
M  V30 4572 H 460.103 4.16877 1.97513 0
M  V30 4573 H 458.346 3.94946 1.79443 0
M  V30 4574 H 459.017 4.36933 3.37333 0
M  V30 4575 H 461.493 2.44245 3.36873 0
M  V30 4576 H 460.369 2.85185 4.69 0
M  V30 4577 H 460.63 1.16785 4.26396 0
M  V30 4578 N 459.689 -1.00246 1.21608 0
M  V30 4579 C 461.1 -1.55511 1.03312 0
M  V30 4580 C 461.451 -1.91946 -0.406332 0
M  V30 4581 O 460.576 -1.73753 -1.28992 0
M  V30 4582 C 461.171 -2.82576 1.86913 0
M  V30 4583 C 459.73 -3.34318 1.72941 0
M  V30 4584 C 458.877 -2.07487 1.83968 0
M  V30 4585 H 461.828 -0.824638 1.35593 0
M  V30 4586 H 461.849 -3.54559 1.38087 0
M  V30 4587 H 461.361 -2.56026 2.91672 0
M  V30 4588 H 459.462 -3.65797 0.70877 0
M  V30 4589 H 459.575 -4.05566 2.55055 0
M  V30 4590 H 457.939 -2.20603 1.27304 0
M  V30 4591 H 458.722 -1.83346 2.9024 0
M  V30 4592 N 461.167 -1.02423 -1.1978 0
M  V30 4593 C 462.413 -0.719051 -1.89625 0
M  V30 4594 C 462.746 0.750083 -1.7913 0
M  V30 4595 O 462.021 1.54574 -1.18056 0
M  V30 4596 C 462.304 -1.16499 -3.40735 0
M  V30 4597 C 462.157 -2.695 -3.60125 0
M  V30 4598 C 463.476 -0.742166 -4.33797 0
M  V30 4599 H 460.595 -0.26269 -0.688595 0
M  V30 4600 H 463.237 -1.27333 -1.41018 0
M  V30 4601 H 461.387 -0.69341 -3.82262 0
M  V30 4602 H 463.059 -3.24569 -3.278 0
M  V30 4603 H 461.302 -3.10113 -3.03336 0
M  V30 4604 H 461.973 -2.95757 -4.66081 0
M  V30 4605 H 464.449 -1.1477 -3.99959 0
M  V30 4606 H 463.325 -1.08213 -5.38127 0
M  V30 4607 H 463.586 0.355747 -4.40666 0
M  V30 4608 N 462.645 1.35699 -0.801477 0
M  V30 4609 C 463.894 1.98165 -0.375979 0
M  V30 4610 C 464.207 1.64306 1.06127 0
M  V30 4611 O 465.413 2.20097 1.58964 0
M  V30 4612 C 463.869 3.54497 -0.621305 0
M  V30 4613 C 463.477 3.9727 -2.07076 0
M  V30 4614 C 465.221 4.23697 -0.26091 0
M  V30 4615 C 463.128 5.46427 -2.26211 0
M  V30 4616 H 462.058 0.741478 -0.136844 0
M  V30 4617 H 464.709 1.54834 -0.984814 0
M  V30 4618 H 463.091 3.95958 0.0574112 0
M  V30 4619 H 464.265 3.66974 -2.78687 0
M  V30 4620 H 462.58 3.40943 -2.39054 0
M  V30 4621 H 465.177 5.33334 -0.381994 0
M  V30 4622 H 465.52 4.0869 0.792344 0
M  V30 4623 H 466.053 3.87639 -0.893339 0
M  V30 4624 H 462.792 5.66396 -3.29963 0
M  V30 4625 H 462.312 5.78309 -1.59119 0
M  V30 4626 H 463.991 6.12819 -2.07513 0
M  V30 4627 N 464.123 0.554532 1.47522 0
M  V30 4628 C 465.086 -0.184174 2.28459 0
M  V30 4629 C 466.086 -0.845195 1.36796 0
M  V30 4630 O 467.276 -0.701467 1.59452 0
M  V30 4631 C 464.408 -1.26903 3.16399 0
M  V30 4632 H 465.601 0.526751 2.95238 0
M  V30 4633 H 463.154 0.311375 1.53167 0
M  V30 4634 H 463.889 -2.01244 2.54306 0
M  V30 4635 H 463.674 -0.799883 3.83854 0
M  V30 4636 H 465.164 -1.78794 3.77389 0
M  V30 4637 N 465.601 -1.54893 0.290851 0
M  V30 4638 C 466.847 -2.0023 -0.321867 0
M  V30 4639 C 467.18 -1.179 -1.54316 0
M  V30 4640 O 466.455 -0.25293 -1.92848 0
M  V30 4641 C 466.738 -3.53456 -0.688515 0
M  V30 4642 C 466.591 -4.46532 0.541209 0
M  V30 4643 C 467.91 -4.13057 -1.51895 0
M  V30 4644 H 465.029 -0.727891 -0.115515 0
M  V30 4645 H 467.671 -1.85722 0.400931 0
M  V30 4646 H 465.821 -3.6595 -1.30433 0
M  V30 4647 H 467.493 -4.4596 1.17973 0
M  V30 4648 H 465.736 -4.17545 1.17636 0
M  V30 4649 H 466.407 -5.51475 0.240675 0
M  V30 4650 H 468.883 -4.03937 -0.99872 0
M  V30 4651 H 467.759 -5.20448 -1.74429 0
M  V30 4652 H 468.02 -3.64284 -2.50498 0
M  V30 4653 N 467.08 -0.0183926 -1.57589 0
M  V30 4654 C 468.328 0.661253 -1.90976 0
M  V30 4655 C 468.649 1.73281 -0.894353 0
M  V30 4656 O 467.919 1.9579 0.0656788 0
M  V30 4657 H 466.499 0.247233 -0.704901 0
M  V30 4658 H 469.161 -0.0636639 -1.94796 0
M  V30 4659 H 468.257 1.12083 -2.9128 0
M  V30 4660 N 468.558 1.5553 0.254621 0
M  V30 4661 C 469.806 1.7665 0.981793 0
M  V30 4662 C 470.127 0.580963 1.86145 0
M  V30 4663 O 469.397 -0.403537 1.91699 0
M  V30 4664 H 467.977 0.651475 0.365498 0
M  V30 4665 H 470.639 1.92958 0.274426 0
M  V30 4666 H 469.735 2.67486 1.60802 0
M  V30 4667 N 470.036 -0.519951 1.48776 0
M  V30 4668 C 470.966 -1.63253 1.66945 0
M  V30 4669 C 471.947 -1.62014 0.518224 0
M  V30 4670 O 473.132 -1.79053 0.751919 0
M  V30 4671 C 470.262 -3.0181 1.71836 0
M  V30 4672 C 469.216 -3.17911 2.8656 0
M  V30 4673 C 468.542 -4.5763 2.76548 0
M  V30 4674 C 469.842 -2.99729 4.27738 0
M  V30 4675 H 471.536 -1.48302 2.6009 0
M  V30 4676 H 469.082 -0.712026 1.25165 0
M  V30 4677 H 471.035 -3.79525 1.83135 0
M  V30 4678 H 469.759 -3.17806 0.752775 0
M  V30 4679 H 468.418 -2.42616 2.74833 0
M  V30 4680 H 468.066 -4.70476 1.77937 0
M  V30 4681 H 467.766 -4.69346 3.53536 0
M  V30 4682 H 469.29 -5.37431 2.89828 0
M  V30 4683 H 470.704 -3.67228 4.40246 0
M  V30 4684 H 469.101 -3.22932 5.05801 0
M  V30 4685 H 470.171 -1.96047 4.43502 0
M  V30 4686 N 471.514 -1.37532 -0.769588 0
M  V30 4687 C 472.762 -1.32597 -1.5252 0
M  V30 4688 C 473.083 0.0884294 -1.94799 0
M  V30 4689 O 472.353 1.03289 -1.66458 0
M  V30 4690 H 470.933 -0.487846 -0.565699 0
M  V30 4691 H 473.595 -1.72044 -0.915806 0
M  V30 4692 H 472.691 -1.96643 -2.42359 0
M  V30 4693 N 472.992 0.995999 -1.22138 0
M  V30 4694 C 474.238 1.73767 -1.04561 0
M  V30 4695 C 474.571 1.89633 0.418698 0
M  V30 4696 O 473.846 1.43723 1.3105 0
M  V30 4697 C 474.129 3.14505 -1.75382 0
M  V30 4698 C 473.982 3.06306 -3.29388 0
M  V30 4699 C 475.301 4.13615 -1.50369 0
M  V30 4700 H 472.42 0.630728 -0.38125 0
M  V30 4701 H 475.062 1.16057 -1.50435 0
M  V30 4702 H 473.212 3.63775 -1.36383 0
M  V30 4703 H 474.884 2.64681 -3.77812 0
M  V30 4704 H 473.127 2.43186 -3.59226 0
M  V30 4705 H 473.798 4.05884 -3.74116 0
M  V30 4706 H 476.274 3.73089 -1.84239 0
M  V30 4707 H 475.15 5.10212 -2.02421 0
M  V30 4708 H 475.411 4.39949 -0.435611 0
M  V30 4709 N 474.47 1.03057 1.19235 0
M  V30 4710 C 475.718 0.726581 1.88587 0
M  V30 4711 C 476.039 -0.747227 1.80115 0
M  V30 4712 O 475.309 -1.53849 1.21274 0
M  V30 4713 H 473.889 0.265768 0.698124 0
M  V30 4714 H 476.551 1.30516 1.44746 0
M  V30 4715 H 475.647 1.0224 2.94879 0
M  V30 4716 N 475.948 -1.35272 0.808662 0
M  V30 4717 C 477.197 -1.97963 0.386483 0
M  V30 4718 C 477.51 -1.64866 -1.05255 0
M  V30 4719 O 478.716 -2.20937 -1.57794 0
M  V30 4720 C 477.172 -3.54162 0.640096 0
M  V30 4721 C 476.78 -3.96166 2.0918 0
M  V30 4722 C 478.524 -4.23553 0.283376 0
M  V30 4723 C 476.431 -5.4522 2.29106 0
M  V30 4724 H 475.361 -0.740742 0.140774 0
M  V30 4725 H 478.012 -1.5431 0.993012 0
M  V30 4726 H 476.394 -3.95983 -0.0364117 0
M  V30 4727 H 477.568 -3.65491 2.80629 0
M  V30 4728 H 475.883 -3.3967 2.40859 0
M  V30 4729 H 478.48 -5.33124 0.410273 0
M  V30 4730 H 478.823 -4.09105 -0.770659 0
M  V30 4731 H 479.356 -3.8716 0.913884 0
M  V30 4732 H 476.095 -5.64638 3.32962 0
M  V30 4733 H 475.615 -5.77457 1.62184 0
M  V30 4734 H 477.294 -6.1171 2.1076 0
M  V30 4735 N 477.426 -0.562348 -1.47226 0
M  V30 4736 C 478.373 0.182461 -2.30078 0
M  V30 4737 C 479.343 0.903503 -1.39377 0
M  V30 4738 O 480.528 0.898188 -1.68337 0
M  V30 4739 C 477.668 1.20322 -3.23445 0
M  V30 4740 C 476.781 0.487717 -4.29238 0
M  V30 4741 C 475.916 1.49422 -5.09752 0
M  V30 4742 C 474.955 0.763976 -6.07314 0
M  V30 4743 N 474.092 1.71755 -6.80768 0
M  V30 4744 H 478.932 -0.530169 -2.93246 0
M  V30 4745 H 476.469 -0.273276 -1.44539 0
M  V30 4746 H 478.427 1.80768 -3.76004 0
M  V30 4747 H 477.057 1.88382 -2.6213 0
M  V30 4748 H 476.109 -0.231374 -3.79696 0
M  V30 4749 H 477.421 -0.0841003 -4.98729 0
M  V30 4750 H 476.575 2.17206 -5.66486 0
M  V30 4751 H 475.314 2.09995 -4.40174 0
M  V30 4752 H 474.319 0.0722344 -5.49753 0
M  V30 4753 H 475.544 0.16391 -6.78902 0
M  V30 4754 H 473.49 2.31177 -6.13916 0
M  V30 4755 H 473.407 1.19802 -7.46447 0
M  V30 4756 H 474.675 2.38638 -7.42073 0
M  V30 4757 N 478.904 1.54736 -0.299062 0
M  V30 4758 C 479.814 2.27127 0.587413 0
M  V30 4759 C 480.83 1.30575 1.15005 0
M  V30 4760 O 482.006 1.63554 1.17525 0
M  V30 4761 C 479.071 2.99645 1.74395 0
M  V30 4762 C 478.132 4.11731 1.21559 0
M  V30 4763 C 477.365 4.80781 2.317 0
M  V30 4764 O 477.588 4.4918 3.51558 0
M  V30 4765 O 476.522 5.68226 1.98501 0
M  V30 4766 H 480.348 3.037 0.000250109 0
M  V30 4767 H 477.933 1.49256 -0.0655919 0
M  V30 4768 H 479.815 3.45138 2.4178 0
M  V30 4769 H 478.49 2.25969 2.31775 0
M  V30 4770 H 477.397 3.70641 0.507514 0
M  V30 4771 H 478.73 4.87379 0.687233 0
M  V30 4772 N 480.382 0.0267497 1.57577 0
M  V30 4773 C 481.607 -0.666227 1.96408 0
M  V30 4774 C 482.032 -1.65004 0.903071 0
M  V30 4775 O 481.39 -1.80787 -0.136263 0
M  V30 4776 C 481.438 -1.35101 3.34335 0
M  V30 4777 O 480.542 -2.46623 3.30531 0
M  V30 4778 H 479.883 -0.175206 0.640468 0
M  V30 4779 H 482.413 0.0878977 2.04411 0
M  V30 4780 H 482.423 -1.70834 3.70513 0
M  V30 4781 H 481.098 -0.629844 4.11103 0
M  V30 4782 H 479.675 -2.13019 3.06068 0
M  V30 4783 N 481.861 -1.55662 -0.24637 0
M  V30 4784 C 483.138 -1.68272 -0.997198 0
M  V30 4785 C 483.518 -0.566785 -2.03349 0
M  V30 4786 O 482.866 0.429688 -2.24424 0
M  V30 4787 C 483.076 -3.08594 -1.63006 0
M  V30 4788 C 484.424 -3.6721 -2.13171 0
M  V30 4789 O 485.448 -3.11397 -1.72946 0
M  V30 4790 O 484.307 -4.65054 -2.87031 0
M  V30 4791 H 481.401 -0.684429 -0.464205 0
M  V30 4792 H 483.947 -1.67993 -0.240114 0
M  V30 4793 H 482.719 -3.81264 -0.880527 0
M  V30 4794 H 482.342 -3.12886 -2.45333 0
M  V30 4795 N 483.339 0.512053 -1.4905 0
M  V30 4796 C 484.75 1.09376 -1.51307 0
M  V30 4797 C 485.101 1.94 -0.292971 0
M  V30 4798 O 484.226 2.07965 0.598277 0
M  V30 4799 C 484.821 1.99031 -2.74176 0
M  V30 4800 C 483.38 2.52385 -2.79247 0
M  V30 4801 C 482.527 1.29749 -2.45073 0
M  V30 4802 H 485.478 0.296467 -1.55906 0
M  V30 4803 H 485.499 2.83569 -2.53711 0
M  V30 4804 H 485.011 1.37412 -3.62959 0
M  V30 4805 H 483.112 3.17673 -1.94716 0
M  V30 4806 H 483.225 2.90293 -3.81139 0
M  V30 4807 H 481.589 1.61912 -1.96612 0
M  V30 4808 H 482.372 0.698555 -3.36118 0
M  V30 4809 N 484.817 1.37938 0.762283 0
M  V30 4810 C 486.042 1.37059 1.55659 0
M  V30 4811 C 486.467 -0.0396123 1.88058 0
M  V30 4812 O 485.825 -1.01929 1.49934 0
M  V30 4813 C 485.873 2.22494 2.83776 0
M  V30 4814 O 484.977 1.63607 3.78559 0
M  V30 4815 H 484.318 0.467892 0.47114 0
M  V30 4816 H 486.848 1.81587 0.942725 0
M  V30 4817 H 486.858 2.36045 3.32786 0
M  V30 4818 H 485.533 3.24993 2.59524 0
M  V30 4819 H 484.11 1.5915 3.37233 0
M  V30 4820 N 486.295 -0.989507 1.22664 0
M  V30 4821 C 487.52 -1.77031 1.08051 0
M  V30 4822 C 487.945 -1.84535 -0.364483 0
M  V30 4823 O 487.303 -1.3003 -1.2634 0
M  V30 4824 C 487.351 -3.18 1.70024 0
M  V30 4825 O 486.455 -4.01161 0.956216 0
M  V30 4826 H 485.796 -0.545008 0.379292 0
M  V30 4827 H 488.326 -1.24277 1.62531 0
M  V30 4828 H 488.336 -3.68616 1.74888 0
M  V30 4829 H 487.011 -3.11853 2.75174 0
M  V30 4830 H 485.588 -3.59687 0.98384 0
M  V30 4831 N 487.773 -1.03688 -1.18687 0
M  V30 4832 C 489.021 -0.736572 -1.88199 0
M  V30 4833 C 489.342 0.737665 -1.80509 0
M  V30 4834 O 488.612 1.53204 -1.22088 0
M  V30 4835 H 487.192 -0.269466 -0.696704 0
M  V30 4836 H 489.854 -1.31282 -1.44052 0
M  V30 4837 H 488.95 -1.03802 -2.94332 0
M  V30 4838 N 489.251 1.34841 -0.815825 0
M  V30 4839 C 490.481 2.02436 -0.412695 0
M  V30 4840 C 490.889 1.61604 0.983906 0
M  V30 4841 O 490.232 0.813729 1.64694 0
M  V30 4842 C 490.294 3.56953 -0.427182 0
M  V30 4843 C 489.958 4.21083 -1.77589 0
M  V30 4844 C 490.955 4.42107 -2.73564 0
M  V30 4845 C 488.64 4.58006 -2.06243 0
M  V30 4846 C 490.634 4.99169 -3.9637 0
M  V30 4847 C 488.321 5.1478 -3.2931 0
M  V30 4848 C 489.319 5.35304 -4.24191 0
M  V30 4849 O 489.007 5.90878 -5.45086 0
M  V30 4850 H 488.739 0.655631 -0.164695 0
M  V30 4851 H 491.293 1.73246 -1.1034 0
M  V30 4852 H 489.523 3.85372 0.320175 0
M  V30 4853 H 491.212 4.05875 -0.0450875 0
M  V30 4854 H 491.978 4.13953 -2.52721 0
M  V30 4855 H 487.857 4.41339 -1.33196 0
M  V30 4856 H 491.401 5.15105 -4.70439 0
M  V30 4857 H 487.298 5.42362 -3.5002 0
M  V30 4858 H 488.066 6.0932 -5.46508 0
M  V30 4859 N 490.729 0.570148 1.46925 0
M  V30 4860 C 491.679 -0.190921 2.27199 0
M  V30 4861 C 492.663 -0.873457 1.35128 0
M  V30 4862 O 493.855 -0.769627 1.59392 0
M  V30 4863 C 490.984 -1.21204 3.21192 0
M  V30 4864 C 490.07 -0.532261 4.20747 0
M  V30 4865 N 490.461 0.405038 5.04176 0
M  V30 4866 C 488.759 -0.784582 4.39045 0
M  V30 4867 C 489.46 0.801149 5.76157 0
M  V30 4868 N 488.436 0.153082 5.43384 0
M  V30 4869 H 492.238 0.529535 2.8909 0
M  V30 4870 H 489.752 0.391019 1.57622 0
M  V30 4871 H 491.749 -1.77135 3.77398 0
M  V30 4872 H 490.409 -1.93345 2.6086 0
M  V30 4873 H 491.42 0.779903 5.11994 0
M  V30 4874 H 488.097 -1.49352 3.89872 0
M  V30 4875 H 489.487 1.57208 6.5325 0
M  V30 4876 N 492.207 -1.54576 0.307264 0
M  V30 4877 C 493.618 -1.8579 -0.184121 0
M  V30 4878 C 493.969 -1.22914 -1.52927 0
M  V30 4879 O 493.094 -0.529126 -2.09831 0
M  V30 4880 C 493.689 -3.37081 -0.340862 0
M  V30 4881 C 492.248 -3.68304 -0.776465 0
M  V30 4882 C 491.395 -2.77076 0.111503 0
M  V30 4883 H 494.346 -1.49656 0.528078 0
M  V30 4884 H 494.367 -3.61922 -1.17443 0
M  V30 4885 H 493.879 -3.82815 0.638309 0
M  V30 4886 H 491.98 -3.28092 -1.76596 0
M  V30 4887 H 492.093 -4.75434 -0.591512 0
M  V30 4888 H 490.457 -2.51374 -0.410256 0
M  V30 4889 H 491.24 -3.25632 1.08714 0
M  V30 4890 N 493.685 -0.035106 -1.57561 0
M  V30 4891 C 494.962 0.681212 -1.83354 0
M  V30 4892 C 495.342 1.89986 -0.920252 0
M  V30 4893 O 494.69 2.28489 0.0226815 0
M  V30 4894 C 494.9 1.05376 -3.32712 0
M  V30 4895 C 496.248 1.44286 -3.99333 0
M  V30 4896 O 497.272 1.14656 -3.37242 0
M  V30 4897 O 496.131 1.99518 -5.08778 0
M  V30 4898 H 493.225 0.334741 -0.756226 0
M  V30 4899 H 495.771 -0.0632448 -1.69582 0
M  V30 4900 H 494.543 0.186668 -3.90854 0
M  V30 4901 H 494.166 1.85619 -3.51613 0
M  V30 4902 N 495.163 1.55791 0.238111 0
M  V30 4903 C 496.093 1.94068 1.29846 0
M  V30 4904 C 497.074 0.806726 1.49753 0
M  V30 4905 O 498.259 1.06772 1.62214 0
M  V30 4906 C 495.389 2.24302 2.65153 0
M  V30 4907 C 494.343 3.40032 2.59927 0
M  V30 4908 C 493.669 3.55829 3.99111 0
M  V30 4909 C 494.969 4.75476 2.16148 0
M  V30 4910 H 496.663 2.82887 0.980563 0
M  V30 4911 H 494.209 1.36105 0.470253 0
M  V30 4912 H 496.162 2.4967 3.39475 0
M  V30 4913 H 494.886 1.32318 2.98596 0
M  V30 4914 H 493.545 3.14687 1.88063 0
M  V30 4915 H 493.193 2.6125 4.29834 0
M  V30 4916 H 492.893 4.3366 3.96501 0
M  V30 4917 H 494.417 3.83528 4.7512 0
M  V30 4918 H 495.831 5.00158 2.80205 0
M  V30 4919 H 494.228 5.56472 2.24631 0
M  V30 4920 H 495.298 4.71946 1.11333 0
M  V30 4921 N 496.642 -0.504142 1.49319 0
M  V30 4922 C 498.053 -1.08572 1.51885 0
M  V30 4923 C 498.404 -1.93842 0.303255 0
M  V30 4924 O 497.529 -2.0828 -0.58724 0
M  V30 4925 C 498.124 -1.97574 2.75227 0
M  V30 4926 C 496.683 -2.509 2.80581 0
M  V30 4927 C 495.83 -1.28447 2.45757 0
M  V30 4928 H 498.781 -0.288194 1.56061 0
M  V30 4929 H 498.802 -2.82219 2.55211 0
M  V30 4930 H 498.314 -1.35486 3.63683 0
M  V30 4931 H 496.415 -3.16636 1.96398 0
M  V30 4932 H 496.528 -2.88268 3.82673 0
M  V30 4933 H 494.892 -1.60868 1.97468 0
M  V30 4934 H 495.675 -0.68072 3.36483 0
M  V30 4935 N 498.12 -1.38341 -0.754957 0
M  V30 4936 C 499.348 -1.37704 -1.54419 0
M  V30 4937 C 499.763 0.0335243 -1.8877 0
M  V30 4938 O 499.12 0.999773 -1.52679 0
M  V30 4939 C 499.171 -2.23136 -2.84416 0
M  V30 4940 O 498.892 -3.58697 -2.51531 0
M  V30 4941 C 500.393 -2.30664 -3.78562 0
M  V30 4942 H 497.613 -0.471061 -0.477852 0
M  V30 4943 H 500.157 -1.81902 -0.934446 0
M  V30 4944 H 498.312 -1.82403 -3.41772 0
M  V30 4945 H 498.726 -4.03665 -3.34896 0
M  V30 4946 H 500.2 -2.9473 -4.66732 0
M  V30 4947 H 500.677 -1.3199 -4.18898 0
M  V30 4948 H 501.283 -2.71781 -3.27131 0
M  V30 4949 N 499.598 0.982988 -1.23187 0
M  V30 4950 C 500.561 2.05649 -1.01198 0
M  V30 4951 C 501.561 1.6078 0.0252464 0
M  V30 4952 O 502.751 1.72878 -0.214243 0
M  V30 4953 C 499.883 3.36744 -0.530656 0
M  V30 4954 H 501.076 2.2659 -1.96461 0
M  V30 4955 H 498.629 1.15602 -1.05195 0
M  V30 4956 H 499.364 3.21492 0.425873 0
M  V30 4957 H 499.149 3.7065 -1.2791 0
M  V30 4958 H 500.639 4.15705 -0.397366 0
M  V30 4959 N 501.076 1.04316 1.18135 0
M  V30 4960 C 502.487 0.775505 1.69832 0
M  V30 4961 C 502.838 -0.703348 1.8316 0
M  V30 4962 O 501.963 -1.54729 1.51287 0
M  V30 4963 C 502.558 1.40112 3.0847 0
M  V30 4964 C 501.117 1.18172 3.57368 0
M  V30 4965 C 500.264 1.49022 2.33854 0
M  V30 4966 H 503.215 1.20925 1.02775 0
M  V30 4967 H 503.236 0.805672 3.71873 0
M  V30 4968 H 502.748 2.47744 2.98738 0
M  V30 4969 H 500.849 0.124258 3.72393 0
M  V30 4970 H 500.962 1.8805 4.40652 0
M  V30 4971 H 499.326 0.909995 2.37889 0
M  V30 4972 H 500.109 2.57768 2.26738 0
M  V30 4973 N 502.554 -1.34406 0.822964 0
M  V30 4974 C 503.831 -1.92733 0.333641 0
M  V30 4975 C 504.211 -1.75107 -1.17901 0
M  V30 4976 O 503.559 -1.12983 -1.98613 0
M  V30 4977 C 503.769 -3.40557 0.763023 0
M  V30 4978 C 505.117 -4.17709 0.761879 0
M  V30 4979 O 506.141 -3.49141 0.705606 0
M  V30 4980 O 505 -5.40082 0.835109 0
M  V30 4981 H 502.094 -0.821964 0.0911249 0
M  V30 4982 H 504.64 -1.4338 0.907757 0
M  V30 4983 H 503.412 -3.47187 1.8049 0
M  V30 4984 H 503.035 -3.97259 0.164605 0
M  V30 4985 N 504.032 -0.577932 -1.46621 0
M  V30 4986 C 505.26 -0.0671642 -2.06791 0
M  V30 4987 C 505.675 1.23571 -1.42743 0
M  V30 4988 O 505.032 1.74602 -0.531062 0
M  V30 4989 C 505.083 0.110357 -3.61332 0
M  V30 4990 O 504.804 -1.14095 -4.22982 0
M  V30 4991 C 506.305 0.656025 -4.38419 0
M  V30 4992 H 503.525 -0.0552732 -0.66872 0
M  V30 4993 H 506.069 -0.797242 -1.8832 0
M  V30 4994 H 504.224 0.790637 -3.79246 0
M  V30 4995 H 504.638 -0.951742 -5.15793 0
M  V30 4996 H 506.112 0.729438 -5.47159 0
M  V30 4997 H 506.589 1.67195 -4.06131 0
M  V30 4998 H 507.195 0.0107692 -4.25299 0
M  V30 4999 N 505.51 1.54411 -0.315457 0
M  V30 5000 C 506.457 2.24048 0.554166 0
M  V30 5001 C 507.427 1.2283 1.11812 0
M  V30 5002 O 508.612 1.51491 1.15997 0
M  V30 5003 C 505.752 2.99574 1.71316 0
M  V30 5004 C 504.865 4.15594 1.17922 0
M  V30 5005 C 504 4.78669 2.30324 0
M  V30 5006 C 503.039 5.86807 1.74137 0
M  V30 5007 N 502.176 6.43777 2.8017 0
M  V30 5008 H 507.016 2.97964 -0.0462602 0
M  V30 5009 H 504.553 1.47059 -0.0346009 0
M  V30 5010 H 506.511 3.41604 2.39505 0
M  V30 5011 H 505.141 2.28008 2.285 0
M  V30 5012 H 504.193 3.78404 0.389136 0
M  V30 5013 H 505.505 4.93459 0.728012 0
M  V30 5014 H 504.659 5.23626 3.06433 0
M  V30 5015 H 503.398 4.00168 2.78778 0
M  V30 5016 H 502.403 5.41261 0.965236 0
M  V30 5017 H 503.628 6.67201 1.2657 0
M  V30 5018 H 501.574 5.68153 3.2793 0
M  V30 5019 H 501.491 7.17031 2.39588 0
M  V30 5020 H 502.759 6.9339 3.56132 0
M  V30 5021 N 506.988 0.0434614 1.5754 0
M  V30 5022 C 508.228 -0.636023 1.94253 0
M  V30 5023 C 508.592 -1.68461 0.921132 0
M  V30 5024 O 509.793 -2.41762 1.17494 0
M  V30 5025 C 508.064 -1.22357 3.35803 0
M  V30 5026 S 509.623 -1.92213 3.94461 0
M  V30 5027 H 506.441 -0.209041 0.679575 0
M  V30 5028 H 509.043 0.110556 1.95187 0
M  V30 5029 H 507.747 -0.448162 4.07946 0
M  V30 5030 H 507.278 -2.00713 3.38346 0
M  V30 5031 H 509.293 -3.20199 3.79061 0
M  V30 5032 N 508.466 -1.55915 -0.229846 0
M  V30 5033 C 509.694 -1.82617 -0.972562 0
M  V30 5034 C 510.109 -0.621488 -1.78278 0
M  V30 5035 O 509.466 0.409956 -1.77836 0
M  V30 5036 C 509.517 -3.0774 -1.89679 0
M  V30 5037 O 509.238 -4.23559 -1.11934 0
M  V30 5038 C 510.739 -3.47368 -2.75409 0
M  V30 5039 H 507.959 -0.60727 -0.285419 0
M  V30 5040 H 510.503 -2.02996 -0.247579 0
M  V30 5041 H 508.658 -2.89361 -2.57583 0
M  V30 5042 H 509.072 -4.94586 -1.74599 0
M  V30 5043 H 510.546 -4.37977 -3.35977 0
M  V30 5044 H 511.023 -2.68737 -3.47386 0
M  V30 5045 H 511.629 -3.68158 -2.12931 0
M  V30 5046 N 509.944 0.496216 -1.49584 0
M  V30 5047 C 511.19 1.25189 -1.59548 0
M  V30 5048 C 511.523 1.9212 -0.283466 0
M  V30 5049 O 510.798 1.80947 0.713324 0
M  V30 5050 C 511.081 2.31516 -2.75812 0
M  V30 5051 C 510.934 1.69054 -4.16822 0
M  V30 5052 C 512.253 3.3304 -2.87702 0
M  V30 5053 H 509.372 0.45379 -0.580727 0
M  V30 5054 H 512.014 0.549327 -1.81886 0
M  V30 5055 H 510.164 2.91438 -2.56897 0
M  V30 5056 H 511.836 1.12923 -4.47265 0
M  V30 5057 H 510.079 0.994485 -4.22247 0
M  V30 5058 H 510.75 2.462 -4.94054 0
M  V30 5059 H 513.226 2.83114 -3.04936 0
M  V30 5060 H 512.102 4.04794 -3.7072 0
M  V30 5061 H 512.363 3.95655 -1.97255 0
M  V30 5062 N 511.423 1.38739 0.74761 0
M  V30 5063 C 512.671 1.35007 1.50391 0
M  V30 5064 C 512.992 -0.0574274 1.94915 0
M  V30 5065 O 512.262 -1.00628 1.6808 0
M  V30 5066 H 510.842 0.496784 0.557866 0
M  V30 5067 H 513.504 1.73479 0.888319 0
M  V30 5068 H 512.6 2.00474 2.392 0
M  V30 5069 N 512.901 -0.976442 1.23707 0
M  V30 5070 C 513.831 -2.08749 1.04624 0
M  V30 5071 C 514.812 -1.70057 -0.0380956 0
M  V30 5072 O 515.997 -1.93782 0.127308 0
M  V30 5073 C 513.127 -3.41335 0.640902 0
M  V30 5074 C 512.081 -3.93947 1.67302 0
M  V30 5075 C 511.407 -5.22774 1.12301 0
M  V30 5076 C 512.707 -4.22769 3.06697 0
M  V30 5077 H 514.401 -2.24972 1.97555 0
M  V30 5078 H 511.947 -1.08108 0.951247 0
M  V30 5079 H 513.9 -4.18489 0.494434 0
M  V30 5080 H 512.624 -3.24988 -0.324099 0
M  V30 5081 H 511.283 -3.18941 1.80755 0
M  V30 5082 H 510.931 -5.0278 0.148877 0
M  V30 5083 H 510.631 -5.58942 1.81267 0
M  V30 5084 H 512.155 -6.02546 0.988479 0
M  V30 5085 H 513.569 -4.90659 2.96524 0
M  V30 5086 H 511.966 -4.70147 3.72937 0
M  V30 5087 H 513.036 -3.29885 3.55392 0
M  V30 5088 N 514.379 -1.04941 -1.1758 0
M  V30 5089 C 515.329 -0.618378 -2.19454 0
M  V30 5090 C 516.313 0.343813 -1.57184 0
M  V30 5091 O 517.505 0.16145 -1.76262 0
M  V30 5092 C 514.634 0.00803847 -3.43299 0
M  V30 5093 C 513.72 -0.977827 -4.12673 0
M  V30 5094 N 514.111 -2.14826 -4.57912 0
M  V30 5095 C 512.409 -0.805748 -4.38661 0
M  V30 5096 C 513.11 -2.77174 -5.11419 0
M  V30 5097 N 512.086 -2.04989 -5.03468 0
M  V30 5098 H 515.888 -1.51018 -2.52132 0
M  V30 5099 H 513.402 -0.919201 -1.33882 0
M  V30 5100 H 515.399 0.334584 -4.15555 0
M  V30 5101 H 514.059 0.895272 -3.12114 0
M  V30 5102 H 515.07 -2.52673 -4.52081 0
M  V30 5103 H 511.747 0.0306506 -4.17489 0
M  V30 5104 H 513.137 -3.76416 -5.56562 0
M  V30 5105 N 515.857 1.33968 -0.830081 0
M  V30 5106 C 517.134 1.92554 -0.343858 0
M  V30 5107 C 517.514 1.7573 1.16971 0
M  V30 5108 O 516.862 1.14035 1.98011 0
M  V30 5109 C 517.072 3.40147 -0.781073 0
M  V30 5110 C 518.42 4.17299 -0.78402 0
M  V30 5111 O 519.444 3.48762 -0.724112 0
M  V30 5112 O 518.303 5.39631 -0.863739 0
M  V30 5113 H 515.397 0.821469 -0.0954827 0
M  V30 5114 H 517.943 1.42897 -0.915348 0
M  V30 5115 H 516.715 3.46225 -1.82329 0
M  V30 5116 H 516.338 3.97166 -0.18567 0
M  V30 5117 N 517.335 0.585699 1.46312 0
M  V30 5118 C 518.283 -0.158577 2.32059 0
M  V30 5119 C 519.277 -0.881427 1.44662 0
M  V30 5120 O 520.483 -0.799476 1.61271 0
M  V30 5121 H 516.858 -0.0700066 0.748734 0
M  V30 5122 H 518.829 0.583383 2.92642 0
M  V30 5123 C 517.578 -1.15701 3.27885 0
M  V30 5124 H 516.901 -0.610215 3.95116 0
M  V30 5125 H 518.341 -1.64812 3.90657 0
M  V30 5126 C 516.8 -2.21951 2.53455 0
M  V30 5127 O 517.33 -3.29352 2.29978 0
M  V30 5128 N 515.536 -1.9664 2.13965 0
M  V30 5129 H 515.083 -1.09309 2.33258 0
M  V30 5130 H 515.041 -2.6794 1.64485 0
M  V30 5131 N 518.813 -1.54241 0.323641 0
M  V30 5132 C 520.041 -2.04985 -0.280871 0
M  V30 5133 C 520.456 -1.19978 -1.45777 0
M  V30 5134 O 519.813 -0.230471 -1.81039 0
M  V30 5135 C 519.864 -3.54353 -0.715258 0
M  V30 5136 O 519.585 -4.36132 0.414817 0
M  V30 5137 C 521.086 -4.21189 -1.38257 0
M  V30 5138 H 518.306 -0.66851 -0.0577502 0
M  V30 5139 H 520.85 -1.99029 0.469852 0
M  V30 5140 H 519.005 -3.60596 -1.41596 0
M  V30 5141 H 519.419 -5.2445 0.0725227 0
M  V30 5142 H 520.893 -5.27154 -1.63745 0
M  V30 5143 H 521.37 -3.72307 -2.32989 0
M  V30 5144 H 521.976 -4.19085 -0.724447 0
M  V30 5145 N 520.291 -0.0518155 -1.57515 0
M  V30 5146 C 521.239 0.940195 -2.12751 0
M  V30 5147 C 522.233 1.3218 -1.05948 0
M  V30 5148 O 523.439 1.30138 -1.24355 0
M  V30 5149 H 519.814 0.321066 -0.680015 0
M  V30 5150 H 521.785 0.449217 -2.94999 0
M  V30 5151 C 520.534 2.2055 -2.68799 0
M  V30 5152 H 519.857 1.92066 -3.50643 0
M  V30 5153 H 521.297 2.88119 -3.11068 0
M  V30 5154 C 519.756 2.95061 -1.62605 0
M  V30 5155 O 520.286 3.88025 -1.03921 0
M  V30 5156 N 518.492 2.57804 -1.34111 0
M  V30 5157 H 518.039 1.82281 -1.8202 0
M  V30 5158 H 517.997 3.07964 -0.632872 0
M  V30 5159 N 521.769 1.56035 0.221574 0
M  V30 5160 C 522.732 1.91584 1.2581 0
M  V30 5161 C 523.732 0.794425 1.39805 0
M  V30 5162 O 524.922 1.06217 1.38071 0
M  V30 5163 C 522.054 2.16663 2.63192 0
M  V30 5164 H 523.247 2.8429 0.954935 0
M  V30 5165 H 520.8 1.49316 0.461988 0
M  V30 5166 H 521.535 1.26508 2.98607 0
M  V30 5167 H 521.32 2.98358 2.5441 0
M  V30 5168 H 522.81 2.45262 3.37988 0
M  V30 5169 N 523.247 -0.488276 1.49845 0
M  V30 5170 C 524.524 -1.24959 1.50481 0
M  V30 5171 C 524.904 -2.09735 0.239698 0
M  V30 5172 O 524.252 -2.14865 -0.777524 0
M  V30 5173 C 524.462 -2.0954 2.79095 0
M  V30 5174 C 525.81 -2.68305 3.29086 0
M  V30 5175 O 526.834 -2.19797 2.80299 0
M  V30 5176 O 525.693 -3.56643 4.14087 0
M  V30 5177 H 522.787 -0.566133 0.602845 0
M  V30 5178 H 525.333 -0.501504 1.6212 0
M  V30 5179 H 524.105 -1.46958 3.62656 0
M  V30 5180 H 523.728 -2.91517 2.70377 0
M  V30 5181 N 524.725 -1.39134 -0.740242 0
M  V30 5182 C 526.141 -1.20623 -1.0451 0
M  V30 5183 C 526.341 -0.0641651 -2.01398 0
M  V30 5184 O 525.397 0.585843 -2.4561 0
M  V30 5185 C 526.71 -2.53815 -1.6124 0
M  V30 5186 C 528.258 -2.60615 -1.73346 0
M  V30 5187 C 528.733 -3.94015 -2.33486 0
M  V30 5188 N 530.224 -3.95627 -2.40902 0
M  V30 5189 C 530.959 -4.95616 -2.88361 0
M  V30 5190 N 530.455 -6.06003 -3.35756 0
M  V30 5191 N 532.248 -4.82998 -2.87523 0
M  V30 5192 H 524.399 -2.12176 -0.0975576 0
M  V30 5193 H 526.662 -0.942066 -0.105904 0
M  V30 5194 H 526.368 -3.37911 -0.975144 0
M  V30 5195 H 526.242 -2.73162 -2.6012 0
M  V30 5196 H 528.629 -1.76906 -2.36195 0
M  V30 5197 H 528.71 -2.45123 -0.731336 0
M  V30 5198 H 528.354 -4.78153 -1.71267 0
M  V30 5199 H 528.284 -4.06825 -3.34366 0
M  V30 5200 H 530.775 -3.15903 -2.07398 0
M  V30 5201 H 531.088 -6.78215 -3.70464 0
M  V30 5202 H 529.433 -6.09604 -3.33778 0
M  V30 5203 H 532.624 -3.95866 -2.49816 0
M  V30 5204 H 532.797 -5.61072 -3.24196 0
M  V30 5205 N 526.204 0.969867 -1.24223 0
M  V30 5206 C 527.481 1.68774 -0.988664 0
M  V30 5207 C 527.861 2.05342 0.489673 0
M  V30 5208 O 527.209 1.75486 1.46345 0
M  V30 5209 C 527.419 2.92135 -1.90941 0
M  V30 5210 C 528.767 3.64422 -2.17903 0
M  V30 5211 O 529.791 3.02188 -1.88576 0
M  V30 5212 O 528.65 4.76446 -2.67697 0
M  V30 5213 H 525.744 0.737736 -0.37373 0
M  V30 5214 H 528.29 1.02415 -1.35312 0
M  V30 5215 H 527.062 2.61788 -2.90831 0
M  V30 5216 H 526.685 3.66228 -1.54798 0
M  V30 5217 N 527.682 1.05563 1.17022 0
M  V30 5218 C 528.912 0.787307 1.91011 0
M  V30 5219 C 529.32 -0.661256 1.77268 0
M  V30 5220 O 528.663 -1.46379 1.10991 0
M  V30 5221 C 528.725 1.09313 3.42478 0
M  V30 5222 C 528.389 2.53863 3.80004 0
M  V30 5223 C 529.386 3.52081 3.82538 0
M  V30 5224 C 527.071 2.88969 4.10855 0
M  V30 5225 C 529.065 4.83449 4.15399 0
M  V30 5226 C 526.752 4.2054 4.43384 0
M  V30 5227 C 527.75 5.17589 4.45635 0
M  V30 5228 O 527.438 6.46799 4.77395 0
M  V30 5229 H 527.17 0.285463 0.61277 0
M  V30 5230 H 529.724 1.41051 1.49311 0
M  V30 5231 H 527.954 0.412833 3.8449 0
M  V30 5232 H 529.643 0.810224 3.97731 0
M  V30 5233 H 530.409 3.26299 3.58823 0
M  V30 5234 H 526.288 2.1409 4.08272 0
M  V30 5235 H 529.832 5.59194 4.1707 0
M  V30 5236 H 525.729 4.46083 4.66563 0
M  V30 5237 H 526.497 6.51677 4.95237 0
M  V30 5238 N 529.16 -1.33526 0.837174 0
M  V30 5239 C 530.437 -1.92369 0.354065 0
M  V30 5240 C 530.817 -1.76348 -1.16038 0
M  V30 5241 O 530.165 -1.15083 -1.97403 0
M  V30 5242 C 530.375 -3.39728 0.799101 0
M  V30 5243 C 531.723 -4.16877 0.806139 0
M  V30 5244 O 532.747 -3.48373 0.742597 0
M  V30 5245 O 531.606 -5.39166 0.892345 0
M  V30 5246 H 528.7 -0.820952 0.0998378 0
M  V30 5247 H 531.246 -1.42409 0.922913 0
M  V30 5248 H 530.018 -3.45254 1.84162 0
M  V30 5249 H 529.641 -3.97062 0.206731 0
M  V30 5250 N 530.638 -0.59345 -1.46 0
M  V30 5251 C 531.866 -0.0890934 -2.06708 0
M  V30 5252 C 532.281 1.2205 -1.44046 0
M  V30 5253 O 531.638 1.74029 -0.549551 0
M  V30 5254 C 531.689 0.0720263 -3.61428 0
M  V30 5255 O 531.41 -1.18574 -4.21748 0
M  V30 5256 C 532.911 0.609487 -4.3909 0
M  V30 5257 H 530.131 -0.0623628 -0.668096 0
M  V30 5258 H 532.675 -0.817171 -1.87464 0
M  V30 5259 H 530.83 0.750369 -3.80063 0
M  V30 5260 H 531.244 -1.0064 -5.14754 0
M  V30 5261 H 532.718 0.671363 -5.47902 0
M  V30 5262 H 533.195 1.62878 -4.07882 0
M  V30 5263 H 533.801 -0.03434 -4.25286 0
M  V30 5264 N 532.116 1.54067 -0.331816 0
M  V30 5265 C 533.362 2.01012 0.268667 0
M  V30 5266 C 533.695 1.2195 1.51136 0
M  V30 5267 O 532.97 0.303972 1.9211 0
M  V30 5268 C 533.253 3.55158 0.59456 0
M  V30 5269 C 533.106 4.4494 -0.659409 0
M  V30 5270 C 534.425 4.16939 1.4089 0
M  V30 5271 H 531.544 0.730698 0.0961756 0
M  V30 5272 H 534.186 1.84593 -0.450031 0
M  V30 5273 H 532.336 3.6928 1.20685 0
M  V30 5274 H 534.008 4.42675 -1.29756 0
M  V30 5275 H 532.251 4.1428 -1.28665 0
M  V30 5276 H 532.922 5.50643 -0.386804 0
M  V30 5277 H 535.398 4.06443 0.891272 0
M  V30 5278 H 534.274 5.24889 1.60569 0
M  V30 5279 H 534.535 3.70798 2.40752 0
M  V30 5280 N 533.594 0.0601682 1.57485 0
M  V30 5281 C 534.542 -0.928899 2.13247 0
M  V30 5282 C 535.536 -1.31616 1.06647 0
M  V30 5283 O 536.742 -1.29476 1.25043 0
M  V30 5284 H 533.117 -0.317455 0.681708 0
M  V30 5285 H 535.088 -0.433566 2.95233 0
M  V30 5286 C 533.837 -2.19121 2.69965 0
M  V30 5287 H 533.16 -1.90204 3.51657 0
M  V30 5288 H 534.6 -2.86465 3.12592 0
M  V30 5289 C 533.059 -2.94195 1.64168 0
M  V30 5290 O 533.589 -3.87468 1.05978 0
M  V30 5291 N 531.795 -2.57089 1.35476 0
M  V30 5292 H 531.342 -1.81314 1.82984 0
M  V30 5293 H 531.3 -3.07624 0.649196 0
M  V30 5294 N 535.072 -1.5615 -0.213296 0
M  V30 5295 C 536.483 -1.69645 -0.779582 0
M  V30 5296 C 536.834 -0.663615 -1.84636 0
M  V30 5297 O 535.959 0.183633 -2.15619 0
M  V30 5298 C 536.554 -3.07567 -1.42084 0
M  V30 5299 C 535.113 -3.22889 -1.93442 0
M  V30 5300 C 534.26 -2.65581 -0.797612 0
M  V30 5301 H 537.211 -1.58696 0.0114951 0
M  V30 5302 H 537.232 -3.03884 -2.28986 0
M  V30 5303 H 536.744 -3.82716 -0.644187 0
M  V30 5304 H 534.845 -2.52623 -2.73884 0
M  V30 5305 H 534.958 -4.30197 -2.10872 0
M  V30 5306 H 533.322 -2.24278 -1.20712 0
M  V30 5307 H 534.105 -3.43284 -0.033494 0
M  V30 5308 N 536.55 0.480323 -1.50102 0
M  V30 5309 C 537.46 1.60547 -1.71061 0
M  V30 5310 C 538.476 1.63564 -0.593529 0
M  V30 5311 O 539.652 1.81604 -0.870751 0
M  V30 5312 C 536.717 2.96814 -1.79171 0
M  V30 5313 C 535.778 3.04259 -3.02861 0
M  V30 5314 C 535.011 4.34027 -3.10574 0
M  V30 5315 O 535.234 5.24009 -2.25323 0
M  V30 5316 O 534.168 4.46873 -4.03223 0
M  V30 5317 H 537.994 1.45788 -2.6642 0
M  V30 5318 H 535.579 0.658838 -1.34088 0
M  V30 5319 H 537.461 3.77765 -1.86738 0
M  V30 5320 H 536.136 3.11791 -0.869947 0
M  V30 5321 H 535.043 2.22419 -3.008 0
M  V30 5322 H 536.376 2.94216 -3.94586 0
M  V30 5323 N 538.028 1.39524 0.732853 0
M  V30 5324 C 538.938 1.40695 1.87729 0
M  V30 5325 C 539.954 0.301496 1.71368 0
M  V30 5326 O 541.13 0.543313 1.93933 0
M  V30 5327 C 538.195 1.25098 3.23344 0
M  V30 5328 C 537.256 2.45634 3.52083 0
M  V30 5329 C 536.489 2.30772 4.81228 0
M  V30 5330 O 536.712 1.31233 5.55098 0
M  V30 5331 O 535.646 3.19799 5.09914 0
M  V30 5332 H 539.472 2.37168 1.89697 0
M  V30 5333 H 537.057 1.20663 0.880959 0
M  V30 5334 H 538.939 1.18541 4.04383 0
M  V30 5335 H 537.614 0.317209 3.22142 0
M  V30 5336 H 536.521 2.57767 2.71122 0
M  V30 5337 H 537.854 3.37712 3.58066 0
M  V30 5338 N 539.506 -0.963266 1.24736 0
M  V30 5339 C 540.454 -2.07985 1.04139 0
M  V30 5340 C 541.448 -1.69381 -0.0250556 0
M  V30 5341 O 542.654 -1.79531 0.129863 0
M  V30 5342 H 539.029 -0.680627 0.319768 0
M  V30 5343 H 541 -2.22517 1.98818 0
M  V30 5344 C 539.749 -3.4123 0.667615 0
M  V30 5345 H 539.072 -3.71397 1.48 0
M  V30 5346 H 540.512 -4.20244 0.563136 0
M  V30 5347 C 538.971 -3.3104 -0.625647 0
M  V30 5348 O 539.501 -3.65334 -1.67016 0
M  V30 5349 N 537.707 -2.84168 -0.608033 0
M  V30 5350 H 537.254 -2.56458 0.242323 0
M  V30 5351 H 537.212 -2.77732 -1.47352 0
M  V30 5352 N 540.985 -1.06182 -1.16461 0
M  V30 5353 C 541.948 -0.675723 -2.19013 0
M  V30 5354 C 542.948 0.277963 -1.58379 0
M  V30 5355 O 544.138 0.0604962 -1.74095 0
M  V30 5356 C 541.27 0.00591459 -3.40899 0
M  V30 5357 H 542.463 -1.58353 -2.54685 0
M  V30 5358 H 540.016 -0.856908 -1.30716 0
M  V30 5359 H 540.751 0.92652 -3.10783 0
M  V30 5360 H 540.536 -0.67984 -3.86161 0
M  V30 5361 H 542.026 0.26181 -4.16778 0
M  V30 5362 N 542.463 1.3308 -0.844243 0
M  V30 5363 C 543.393 2.3161 -0.296493 0
M  V30 5364 C 544.374 1.59215 0.598707 0
M  V30 5365 O 545.559 1.87077 0.521134 0
M  V30 5366 C 542.689 3.43313 0.524762 0
M  V30 5367 C 541.643 4.27115 -0.275106 0
M  V30 5368 C 540.969 5.30483 0.670236 0
M  V30 5369 C 542.269 5.00443 -1.49514 0
M  V30 5370 H 543.963 2.77672 -1.11976 0
M  V30 5371 H 541.509 1.33496 -0.539899 0
M  V30 5372 H 543.462 4.11273 0.918298 0
M  V30 5373 H 542.186 2.95952 1.3813 0
M  V30 5374 H 540.845 3.60787 -0.650267 0
M  V30 5375 H 540.493 4.79379 1.52332 0
M  V30 5376 H 540.193 5.87435 0.139123 0
M  V30 5377 H 541.717 6.01308 1.06117 0
M  V30 5378 H 543.131 5.61141 -1.17447 0
M  V30 5379 H 541.528 5.67071 -1.96343 0
M  V30 5380 H 542.598 4.28906 -2.26202 0
M  V30 5381 N 543.941 0.601185 1.45683 0
M  V30 5382 C 545.357 0.264315 1.57396 0
M  V30 5383 C 545.557 -1.23324 1.59353 0
M  V30 5384 O 544.613 -2.01594 1.52039 0
M  V30 5385 C 545.926 0.929839 2.85962 0
M  V30 5386 C 547.474 0.905156 2.99626 0
M  V30 5387 C 547.949 1.55057 4.30954 0
M  V30 5388 N 549.44 1.51576 4.37697 0
M  V30 5389 C 550.175 1.98436 5.37969 0
M  V30 5390 N 549.671 2.53352 6.44813 0
M  V30 5391 N 551.464 1.89242 5.29286 0
M  V30 5392 H 543.615 1.57363 1.42656 0
M  V30 5393 H 545.878 0.658831 0.681649 0
M  V30 5394 H 545.584 1.98404 2.90394 0
M  V30 5395 H 545.458 0.449224 3.74515 0
M  V30 5396 H 547.845 -0.14048 2.94765 0
M  V30 5397 H 547.926 1.42397 2.12501 0
M  V30 5398 H 547.57 2.5955 4.36573 0
M  V30 5399 H 547.5 1.00682 5.16886 0
M  V30 5400 H 549.991 1.11452 3.61091 0
M  V30 5401 H 550.304 2.86918 7.17564 0
M  V30 5402 H 548.649 2.57388 6.45582 0
M  V30 5403 H 551.84 1.46083 4.44722 0
M  V30 5404 H 552.013 2.26075 6.07284 0
M  V30 5405 N 545.419 -1.53889 0.339982 0
M  V30 5406 C 546.644 -2.05741 -0.261798 0
M  V30 5407 C 547.069 -1.21354 -1.43718 0
M  V30 5408 O 546.427 -0.22645 -1.7988 0
M  V30 5409 C 546.475 -3.54542 -0.658228 0
M  V30 5410 O 545.579 -3.7302 -1.75869 0
M  V30 5411 H 544.92 -0.662529 -0.0441672 0
M  V30 5412 H 547.45 -1.98568 0.493161 0
M  V30 5413 H 547.46 -3.9711 -0.936368 0
M  V30 5414 H 546.135 -4.15412 0.201358 0
M  V30 5415 H 544.712 -3.42355 -1.47809 0
M  V30 5416 N 546.897 -0.0685191 -1.57451 0
M  V30 5417 C 547.827 0.89747 -2.15564 0
M  V30 5418 C 548.808 1.31266 -1.08181 0
M  V30 5419 O 549.993 1.38429 -1.36202 0
M  V30 5420 C 547.123 2.16623 -2.71463 0
M  V30 5421 C 546.077 1.89054 -3.83982 0
M  V30 5422 C 545.403 3.22532 -4.26471 0
M  V30 5423 C 546.703 1.1984 -5.08366 0
M  V30 5424 H 548.397 0.413373 -2.96533 0
M  V30 5425 H 545.943 0.197391 -1.42641 0
M  V30 5426 H 547.896 2.84614 -3.10761 0
M  V30 5427 H 546.62 2.67269 -1.8771 0
M  V30 5428 H 545.279 1.23469 -3.45183 0
M  V30 5429 H 544.927 3.71013 -3.39644 0
M  V30 5430 H 544.627 3.04879 -5.02317 0
M  V30 5431 H 546.151 3.91727 -4.68383 0
M  V30 5432 H 547.565 1.77896 -5.45001 0
M  V30 5433 H 545.962 1.12456 -5.89469 0
M  V30 5434 H 547.032 0.176996 -4.84577 0
M  V30 5435 N 548.375 1.56261 0.205012 0
M  V30 5436 C 549.624 1.79236 0.925058 0
M  V30 5437 C 549.937 0.640011 1.84833 0
M  V30 5438 O 551.143 0.753809 2.60826 0
M  V30 5439 C 549.599 3.17475 1.69522 0
M  V30 5440 C 549.207 4.40482 0.817269 0
M  V30 5441 C 550.951 3.49766 2.4055 0
M  V30 5442 C 548.858 5.69744 1.58573 0
M  V30 5443 H 547.788 0.668287 0.349153 0
M  V30 5444 H 550.439 1.82629 0.178544 0
M  V30 5445 H 548.821 3.08304 2.48526 0
M  V30 5446 H 549.995 4.60752 0.0665988 0
M  V30 5447 H 548.31 4.15827 0.218316 0
M  V30 5448 H 550.907 4.43573 2.98575 0
M  V30 5449 H 551.25 2.73041 3.14252 0
M  V30 5450 H 551.783 3.60341 1.68522 0
M  V30 5451 H 548.522 6.49407 0.891679 0
M  V30 5452 H 548.042 5.53509 2.31059 0
M  V30 5453 H 549.721 6.1051 2.14212 0
M  V30 5454 N 549.853 -0.472356 1.50355 0
M  V30 5455 C 550.816 -1.5529 1.68576 0
M  V30 5456 C 551.816 -1.50863 0.556511 0
M  V30 5457 O 553.006 -1.53505 0.823516 0
M  V30 5458 C 550.138 -2.94921 1.70981 0
M  V30 5459 H 551.331 -1.40451 2.64978 0
M  V30 5460 H 548.884 -0.698645 1.39816 0
M  V30 5461 H 549.619 -3.15204 0.762675 0
M  V30 5462 H 549.404 -2.99541 2.53017 0
M  V30 5463 H 550.894 -3.73372 1.87037 0
M  V30 5464 N 551.331 -1.39911 -0.725443 0
M  V30 5465 C 552.556 -1.41137 -1.5197 0
M  V30 5466 C 552.981 -0.010262 -1.88097 0
M  V30 5467 O 552.339 0.979184 -1.52583 0
M  V30 5468 C 552.387 -2.2994 -2.77777 0
M  V30 5469 O 551.491 -1.73586 -3.74088 0
M  V30 5470 H 550.832 -0.480219 -0.458569 0
M  V30 5471 H 553.362 -1.84023 -0.894249 0
M  V30 5472 H 553.372 -2.44785 -3.26411 0
M  V30 5473 H 552.047 -3.31759 -2.50816 0
M  V30 5474 H 550.624 -1.68035 -3.32894 0
M  V30 5475 N 552.809 0.956637 -1.25245 0
M  V30 5476 C 553.772 2.03457 -1.05537 0
M  V30 5477 C 554.772 1.60798 -0.00886317 0
M  V30 5478 O 555.962 1.72384 -0.250865 0
M  V30 5479 C 553.094 3.35543 -0.601965 0
M  V30 5480 H 554.287 2.22372 -2.01223 0
M  V30 5481 H 551.84 1.13344 -1.07623 0
M  V30 5482 H 552.575 3.22323 0.357584 0
M  V30 5483 H 552.36 3.67854 -1.35743 0
M  V30 5484 H 553.85 4.14769 -0.485454 0
M  V30 5485 N 554.287 1.06798 1.15896 0
M  V30 5486 C 555.703 0.792423 1.38538 0
M  V30 5487 C 555.903 -0.60592 1.92174 0
M  V30 5488 O 554.959 -1.36561 2.12385 0
M  V30 5489 C 556.272 1.86157 2.36149 0
M  V30 5490 C 557.82 1.88567 2.49823 0
M  V30 5491 C 558.295 2.9455 3.5072 0
M  V30 5492 N 559.786 2.93616 3.58251 0
M  V30 5493 C 560.521 3.72267 4.36125 0
M  V30 5494 N 560.017 4.60751 5.17379 0
M  V30 5495 N 561.81 3.60637 4.31158 0
M  V30 5496 H 553.961 1.96993 0.794198 0
M  V30 5497 H 556.224 0.853942 0.411688 0
M  V30 5498 H 555.93 2.86603 2.03843 0
M  V30 5499 H 555.804 1.71692 3.3586 0
M  V30 5500 H 558.191 0.887765 2.8143 0
M  V30 5501 H 558.272 2.0711 1.5013 0
M  V30 5502 H 557.916 3.94537 3.19849 0
M  V30 5503 H 557.846 2.73255 4.50155 0
M  V30 5504 H 560.337 2.29472 3.00252 0
M  V30 5505 H 560.65 5.17408 5.74028 0
M  V30 5506 H 558.995 4.64803 5.16704 0
M  V30 5507 H 562.186 2.90892 3.66742 0
M  V30 5508 H 562.359 4.22176 4.91601 0
M  V30 5509 N 555.766 -1.3263 0.851289 0
M  V30 5510 C 556.991 -2.02097 0.466006 0
M  V30 5511 C 557.416 -1.63574 -0.928709 0
M  V30 5512 O 556.774 -0.834665 -1.60944 0
M  V30 5513 C 556.822 -3.55425 0.608737 0
M  V30 5514 O 555.926 -4.10827 -0.359878 0
M  V30 5515 H 555.267 -0.636911 0.187724 0
M  V30 5516 H 557.797 -1.69253 1.14955 0
M  V30 5517 H 557.807 -4.04986 0.495006 0
M  V30 5518 H 556.482 -3.82806 1.62581 0
M  V30 5519 H 555.059 -3.72349 -0.202666 0
M  V30 5520 N 557.244 -0.608902 -1.45362 0
M  V30 5521 C 558.194 0.130616 -2.27626 0
M  V30 5522 C 559.178 0.837323 -1.37396 0
M  V30 5523 O 560.37 0.727096 -1.61376 0
M  V30 5524 C 557.499 1.12646 -3.24293 0
M  V30 5525 C 556.585 0.42052 -4.2201 0
M  V30 5526 N 556.976 -0.538569 -5.02925 0
M  V30 5527 C 555.274 0.667901 -4.40971 0
M  V30 5528 C 555.975 -0.953625 -5.7383 0
M  V30 5529 N 554.951 -0.297097 -5.42788 0
M  V30 5530 H 558.753 -0.605996 -2.87585 0
M  V30 5531 H 556.267 -0.432672 -1.5653 0
M  V30 5532 H 558.264 1.67066 -3.81961 0
M  V30 5533 H 556.924 1.86361 -2.65894 0
M  V30 5534 H 557.935 -0.915375 -5.09746 0
M  V30 5535 H 554.612 1.38963 -3.93695 0
M  V30 5536 H 556.002 -1.74473 -6.48852 0
M  V30 5537 N 558.722 1.53707 -0.348139 0
M  V30 5538 C 559.968 2.01286 0.247332 0
M  V30 5539 C 560.301 1.23546 1.49834 0
M  V30 5540 O 559.576 0.324331 1.91777 0
M  V30 5541 C 559.859 3.55768 0.556858 0
M  V30 5542 C 559.712 4.44216 -0.706564 0
M  V30 5543 C 561.031 4.1841 1.3646 0
M  V30 5544 H 558.15 0.731677 0.0884201 0
M  V30 5545 H 560.792 1.84106 -0.469584 0
M  V30 5546 H 558.942 3.70539 1.16761 0
M  V30 5547 H 560.614 4.41274 -1.34444 0
M  V30 5548 H 558.857 4.12892 -1.33052 0
M  V30 5549 H 559.528 5.50202 -0.445186 0
M  V30 5550 H 562.004 4.07365 0.848113 0
M  V30 5551 H 560.88 5.26563 1.54992 0
M  V30 5552 H 561.141 3.7333 2.36805 0
M  V30 5553 N 560.2 0.0768682 1.57412 0
M  V30 5554 C 561.11 -0.903207 2.16516 0
M  V30 5555 C 562.126 -1.32341 1.12968 0
M  V30 5556 O 563.302 -1.39507 1.45258 0
M  V30 5557 C 560.367 -2.1508 2.71922 0
M  V30 5558 C 559.428 -1.78653 3.90361 0
M  V30 5559 C 558.661 -2.97465 4.43114 0
M  V30 5560 O 558.884 -4.11638 3.94854 0
M  V30 5561 O 557.818 -2.76987 5.3438 0
M  V30 5562 H 561.644 -0.430427 3.00634 0
M  V30 5563 H 559.229 -0.146485 1.4868 0
M  V30 5564 H 561.111 -2.8823 3.07411 0
M  V30 5565 H 559.786 -2.61446 1.9086 0
M  V30 5566 H 558.693 -1.0274 3.59716 0
M  V30 5567 H 560.026 -1.37066 4.7273 0
M  V30 5568 N 561.678 -1.56367 -0.196722 0
M  V30 5569 C 562.927 -1.79724 -0.915539 0
M  V30 5570 C 563.24 -0.649804 -1.84491 0
M  V30 5571 O 564.446 -0.767631 -2.60422 0
M  V30 5572 C 562.902 -3.18369 -1.67836 0
M  V30 5573 C 562.51 -4.4091 -0.793897 0
M  V30 5574 C 564.254 -3.51037 -2.38691 0
M  V30 5575 C 562.161 -5.70577 -1.55549 0
M  V30 5576 H 561.091 -0.67013 -0.345604 0
M  V30 5577 H 563.742 -1.82721 -0.168856 0
M  V30 5578 H 562.124 -3.09617 -2.46887 0
M  V30 5579 H 563.298 -4.60781 -0.042163 0
M  V30 5580 H 561.613 -4.15937 -0.19626 0
M  V30 5581 H 564.21 -4.4515 -2.96219 0
M  V30 5582 H 564.553 -2.74704 -3.12799 0
M  V30 5583 H 565.086 -3.61229 -1.66608 0
M  V30 5584 H 561.825 -6.49871 -0.857226 0
M  V30 5585 H 561.345 -5.54726 -2.2812 0
M  V30 5586 H 563.024 -6.11637 -2.10971 0
M  V30 5587 N 563.156 0.464375 -1.50603 0
M  V30 5588 C 564.381 1.24372 -1.65971 0
M  V30 5589 C 564.806 1.84901 -0.345453 0
M  V30 5590 O 564.164 1.67596 0.691457 0
M  V30 5591 C 564.212 2.32331 -2.7578 0
M  V30 5592 O 563.316 3.37146 -2.375 0
M  V30 5593 H 562.657 0.365604 -0.554283 0
M  V30 5594 H 565.187 0.55183 -1.97018 0
M  V30 5595 H 565.197 2.77539 -2.99059 0
M  V30 5596 H 563.872 1.87648 -3.71162 0
M  V30 5597 H 562.449 2.97602 -2.24694 0
M  V30 5598 N 564.634 1.40294 0.718013 0
M  V30 5599 C 565.566 1.36281 1.84283 0
M  V30 5600 C 566.579 0.268621 1.60569 0
M  V30 5601 O 567.768 0.528798 1.70487 0
M  V30 5602 C 564.868 1.09741 3.2064 0
M  V30 5603 C 564.041 2.30767 3.71571 0
M  V30 5604 C 563.1 2.00424 4.86535 0
M  V30 5605 O 562.126 2.73268 4.99313 0
M  V30 5606 N 563.328 0.980724 5.72156 0
M  V30 5607 H 566.093 2.3322 1.88225 0
M  V30 5608 H 563.654 1.34616 0.899453 0
M  V30 5609 H 565.646 0.874322 3.95143 0
M  V30 5610 H 564.216 0.214771 3.11861 0
M  V30 5611 H 563.436 2.68921 2.88228 0
M  V30 5612 H 564.724 3.11455 4.02335 0
M  V30 5613 H 564.122 0.377375 5.6444 0
M  V30 5614 H 562.679 0.817538 6.46653 0
M  V30 5615 N 566.112 -0.949982 1.2575 0
M  V30 5616 C 567.044 -2.05088 1.02331 0
M  V30 5617 C 568.057 -1.62795 -0.0133247 0
M  V30 5618 O 569.246 -1.77067 0.225759 0
M  V30 5619 C 566.346 -3.34794 0.525924 0
M  V30 5620 C 565.519 -4.05903 1.62978 0
M  V30 5621 C 564.578 -5.1388 1.13196 0
M  V30 5622 O 563.604 -5.39072 1.82729 0
M  V30 5623 N 564.806 -5.80495 -0.0242926 0
M  V30 5624 H 567.571 -2.25747 1.97125 0
M  V30 5625 H 565.132 -1.11886 1.17018 0
M  V30 5626 H 567.124 -4.04312 0.177263 0
M  V30 5627 H 565.694 -3.10872 -0.328202 0
M  V30 5628 H 564.914 -3.3042 2.1498 0
M  V30 5629 H 566.202 -4.50166 2.37124 0
M  V30 5630 H 565.6 -5.62454 -0.605184 0
M  V30 5631 H 564.157 -6.51043 -0.313947 0
M  V30 5632 N 567.59 -1.07411 -1.15328 0
M  V30 5633 C 568.867 -0.710732 -1.82231 0
M  V30 5634 C 569.247 0.806732 -1.95077 0
M  V30 5635 O 568.595 1.72139 -1.50268 0
M  V30 5636 C 568.805 -1.42586 -3.18544 0
M  V30 5637 C 570.153 -1.57836 -3.94174 0
M  V30 5638 O 571.177 -1.38669 -3.281 0
M  V30 5639 O 570.036 -1.8938 -5.12638 0
M  V30 5640 H 567.13 -0.25297 -0.78736 0
M  V30 5641 H 569.676 -1.17508 -1.22434 0
M  V30 5642 H 568.448 -2.46008 -3.04296 0
M  V30 5643 H 568.071 -0.952332 -3.86026 0
M  V30 5644 N 569.068 1.32177 -0.85831 0
M  V30 5645 C 569.998 2.31282 -0.321041 0
M  V30 5646 C 570.979 1.59841 0.581786 0
M  V30 5647 O 572.164 1.87619 0.501262 0
M  V30 5648 C 569.294 3.4385 0.48832 0
M  V30 5649 C 568.248 4.26799 -0.320391 0
M  V30 5650 C 567.574 5.31164 0.613934 0
M  V30 5651 C 568.874 4.98829 -1.54813 0
M  V30 5652 H 570.568 2.76469 -1.14915 0
M  V30 5653 H 568.114 1.32916 -0.554028 0
M  V30 5654 H 570.067 4.12224 0.874626 0
M  V30 5655 H 568.791 2.97401 1.34983 0
M  V30 5656 H 567.45 3.60077 -0.688497 0
M  V30 5657 H 567.098 4.80967 1.47239 0
M  V30 5658 H 566.798 5.8755 0.0768097 0
M  V30 5659 H 568.322 6.024 0.997336 0
M  V30 5660 H 569.736 5.59864 -1.23392 0
M  V30 5661 H 568.133 5.64957 -2.02346 0
M  V30 5662 H 569.203 4.26483 -2.30739 0
M  V30 5663 N 570.547 0.616602 1.45037 0
M  V30 5664 C 571.495 -0.109318 2.32343 0
M  V30 5665 C 572.489 -0.850543 1.465 0
M  V30 5666 O 573.695 -0.765088 1.62931 0
M  V30 5667 H 570.07 -0.0541091 0.750051 0
M  V30 5668 H 572.041 0.645326 2.91338 0
M  V30 5669 C 570.79 -1.0872 3.30266 0
M  V30 5670 H 570.113 -0.526267 3.96321 0
M  V30 5671 H 571.553 -1.56489 3.94065 0
M  V30 5672 C 570.012 -2.16525 2.58105 0
M  V30 5673 O 570.542 -3.244 2.36913 0
M  V30 5674 N 568.748 -1.92057 2.18088 0
M  V30 5675 H 568.295 -1.04337 2.35524 0
M  V30 5676 H 568.253 -2.64391 1.70131 0
M  V30 5677 N 572.025 -1.5352 0.356285 0
M  V30 5678 C 572.988 -2.24071 -0.482182 0
M  V30 5679 C 573.988 -1.24531 -1.01729 0
M  V30 5680 O 575.178 -1.48876 -0.904513 0
M  V30 5681 C 572.31 -2.97025 -1.67299 0
M  V30 5682 H 573.503 -2.99596 0.135031 0
M  V30 5683 H 571.056 -1.55928 0.107825 0
M  V30 5684 H 571.791 -2.25719 -2.32855 0
M  V30 5685 H 571.576 -3.7005 -1.29636 0
M  V30 5686 H 573.066 -3.50683 -2.26741 0
M  V30 5687 N 573.503 -0.0852151 -1.57369 0
M  V30 5688 C 574.731 0.58946 -1.98325 0
M  V30 5689 C 575.146 1.62333 -0.96403 0
M  V30 5690 O 574.503 1.82438 0.0476395 0
M  V30 5691 C 574.554 1.24604 -3.39347 0
M  V30 5692 O 574.275 0.253532 -4.37366 0
M  V30 5693 C 575.776 2.00726 -3.95252 0
M  V30 5694 H 572.996 0.158783 -0.651942 0
M  V30 5695 H 575.54 -0.161584 -2.03861 0
M  V30 5696 H 573.695 1.94808 -3.34856 0
M  V30 5697 H 574.109 0.726207 -5.19448 0
M  V30 5698 H 575.583 2.42039 -4.96106 0
M  V30 5699 H 576.06 2.86919 -3.32527 0
M  V30 5700 H 576.666 1.3536 -4.03185 0
M  V30 5701 N 574.981 1.5647 0.188427 0
M  V30 5702 C 576.221 1.82803 0.914469 0
M  V30 5703 C 576.585 0.663681 1.80165 0
M  V30 5704 O 577.786 0.807059 2.56398 0
M  V30 5705 C 576.057 3.14187 1.70357 0
M  V30 5706 S 577.616 3.61947 2.48072 0
M  V30 5707 H 574.434 0.641497 0.306599 0
M  V30 5708 H 577.036 1.94694 0.177361 0
M  V30 5709 H 575.74 3.96937 1.04255 0
M  V30 5710 H 575.271 3.05192 2.48237 0
M  V30 5711 H 577.286 3.27913 3.72407 0
M  V30 5712 N 576.459 -0.456382 1.50847 0
M  V30 5713 C 577.87 -1.03685 1.55262 0
M  V30 5714 C 578.221 -1.92779 0.364771 0
M  V30 5715 O 577.346 -2.10043 -0.52068 0
M  V30 5716 C 577.941 -1.88718 2.81374 0
M  V30 5717 C 576.5 -2.41847 2.88422 0
M  V30 5718 C 575.647 -1.20564 2.49719 0
M  V30 5719 H 578.598 -0.238399 1.56899 0
M  V30 5720 H 578.619 -2.73957 2.6406 0
M  V30 5721 H 578.131 -1.23847 3.67809 0
M  V30 5722 H 576.232 -3.10228 2.06372 0
M  V30 5723 H 576.345 -2.75947 3.9165 0
M  V30 5724 H 574.709 -1.54504 2.02486 0
M  V30 5725 H 575.492 -0.573326 3.38479 0
M  V30 5726 N 577.937 -1.40673 -0.710563 0
M  V30 5727 C 579.348 -1.34975 -1.28991 0
M  V30 5728 C 579.699 -0.0256272 -1.96183 0
M  V30 5729 O 578.824 0.876339 -1.97862 0
M  V30 5730 C 579.419 -2.44467 -2.34567 0
M  V30 5731 C 577.978 -2.42213 -2.88114 0
M  V30 5732 C 577.125 -2.25085 -1.61963 0
M  V30 5733 H 580.076 -1.50406 -0.506343 0
M  V30 5734 H 580.097 -2.12663 -3.15523 0
M  V30 5735 H 579.609 -3.40825 -1.85634 0
M  V30 5736 H 577.71 -1.49568 -3.41263 0
M  V30 5737 H 577.823 -3.37983 -3.39565 0
M  V30 5738 H 576.187 -1.72691 -1.87216 0
M  V30 5739 H 576.97 -3.23449 -1.15047 0
M  V30 5740 N 579.415 0.9433 -1.26252 0
M  V30 5741 C 580.345 2.05902 -1.10122 0
M  V30 5742 C 581.326 1.70099 -0.00700552 0
M  V30 5743 O 582.511 1.93377 -0.178641 0
M  V30 5744 C 579.641 3.39516 -0.731175 0
M  V30 5745 C 578.595 3.89372 -1.77688 0
M  V30 5746 C 577.921 5.19613 -1.26122 0
M  V30 5747 C 579.221 4.14489 -3.17799 0
M  V30 5748 H 580.915 2.19655 -2.03451 0
M  V30 5749 H 578.461 1.05548 -0.979576 0
M  V30 5750 H 580.414 4.17031 -0.605215 0
M  V30 5751 H 579.138 3.25733 0.23782 0
M  V30 5752 H 577.797 3.14036 -1.89148 0
M  V30 5753 H 577.445 5.02208 -0.282128 0
M  V30 5754 H 577.145 5.53939 -1.96023 0
M  V30 5755 H 578.669 5.99713 -1.14789 0
M  V30 5756 H 580.083 4.82625 -3.09428 0
M  V30 5757 H 578.48 4.60094 -3.85271 0
M  V30 5758 H 579.55 3.20347 -3.64014 0
M  V30 5759 N 580.893 1.08022 1.14757 0
M  V30 5760 C 582.304 0.829144 1.67279 0
M  V30 5761 C 582.655 -0.644721 1.85305 0
M  V30 5762 O 581.78 -1.49838 1.56133 0
M  V30 5763 C 582.375 1.49855 3.03857 0
M  V30 5764 C 580.934 1.29482 3.53428 0
M  V30 5765 C 580.081 1.56386 2.28995 0
M  V30 5766 H 583.032 1.24134 0.988762 0
M  V30 5767 H 583.053 0.923572 3.69121 0
M  V30 5768 H 582.565 2.57123 2.90705 0
M  V30 5769 H 580.666 0.242669 3.71809 0
M  V30 5770 H 580.779 2.01974 4.34446 0
M  V30 5771 H 579.143 0.985217 2.34874 0
M  V30 5772 H 579.926 2.64851 2.18423 0
M  V30 5773 N 582.371 -1.3172 0.865308 0
M  V30 5774 C 583.787 -1.4958 0.556596 0
M  V30 5775 C 583.987 -1.79763 -0.910353 0
M  V30 5776 O 583.043 -1.87351 -1.6928 0
M  V30 5777 C 584.356 -2.63277 1.45279 0
M  V30 5778 C 585.904 -2.77161 1.45433 0
M  V30 5779 C 586.379 -3.93949 2.33598 0
M  V30 5780 N 587.87 -4.01228 2.31453 0
M  V30 5781 C 588.605 -4.90855 2.96393 0
M  V30 5782 N 588.101 -5.85416 3.70486 0
M  V30 5783 N 589.894 -4.84063 2.85726 0
M  V30 5784 H 582.045 -1.10396 1.81456 0
M  V30 5785 H 584.308 -0.54507 0.775631 0
M  V30 5786 H 584.014 -2.47734 2.49641 0
M  V30 5787 H 583.888 -3.59309 1.14792 0
M  V30 5788 H 586.275 -2.9212 0.41831 0
M  V30 5789 H 586.356 -1.8181 1.79941 0
M  V30 5790 H 586 -3.79748 3.37274 0
M  V30 5791 H 585.93 -4.88598 1.96417 0
M  V30 5792 H 588.421 -3.3357 1.77593 0
M  V30 5793 H 588.734 -6.50525 4.17178 0
M  V30 5794 H 587.079 -5.85409 3.74594 0
M  V30 5795 H 590.27 -4.09163 2.27384 0
M  V30 5796 H 590.443 -5.53708 3.36617 0
M  V30 5797 N 583.85 -0.624285 -1.44708 0
M  V30 5798 C 585.08 -0.132726 -2.06173 0
M  V30 5799 C 585.488 1.19513 -1.46674 0
M  V30 5800 O 584.831 1.74254 -0.581491 0
M  V30 5801 C 584.893 0.0636732 -3.59444 0
M  V30 5802 C 584.557 -1.18496 -4.4137 0
M  V30 5803 C 585.553 -2.10706 -4.75288 0
M  V30 5804 C 583.239 -1.41846 -4.81856 0
M  V30 5805 C 585.233 -3.24582 -5.48567 0
M  V30 5806 C 582.92 -2.5602 -5.54885 0
M  V30 5807 C 583.918 -3.47215 -5.88159 0
M  V30 5808 O 583.606 -4.59399 -6.59703 0
M  V30 5809 H 583.338 -0.0737313 -0.671967 0
M  V30 5810 H 585.892 -0.856789 -1.86677 0
M  V30 5811 H 584.122 0.842809 -3.77404 0
M  V30 5812 H 585.811 0.508924 -4.02697 0
M  V30 5813 H 586.577 -1.93898 -4.44554 0
M  V30 5814 H 582.456 -0.717556 -4.55381 0
M  V30 5815 H 586 -3.95785 -5.74456 0
M  V30 5816 H 581.897 -2.72774 -5.85034 0
M  V30 5817 H 582.665 -4.58293 -6.78166 0
M  V30 5818 N 585.328 1.53329 -0.364422 0
M  V30 5819 C 586.605 1.93557 0.281962 0
M  V30 5820 C 586.985 1.29786 1.6649 0
M  V30 5821 O 586.333 0.456512 2.23893 0
M  V30 5822 C 586.543 3.47405 0.333331 0
M  V30 5823 C 587.891 4.20699 0.574231 0
M  V30 5824 O 588.915 3.53779 0.414588 0
M  V30 5825 O 587.774 5.39287 0.885002 0
M  V30 5826 H 584.868 0.809573 0.168881 0
M  V30 5827 H 587.414 1.64494 -0.417121 0
M  V30 5828 H 586.186 3.86091 -0.636326 0
M  V30 5829 H 585.809 3.82697 1.07836 0
M  V30 5830 N 586.806 0.0935595 1.57322 0
M  V30 5831 C 588.055 -0.570191 1.93473 0
M  V30 5832 C 588.368 -1.69434 0.977318 0
M  V30 5833 O 589.574 -2.41914 1.23248 0
M  V30 5834 C 588.03 -1.06564 3.43762 0
M  V30 5835 C 587.638 0.0286723 4.47991 0
M  V30 5836 C 589.382 -1.70221 3.88877 0
M  V30 5837 C 587.289 -0.482046 5.89432 0
M  V30 5838 H 586.219 -0.216764 0.72217 0
M  V30 5839 H 588.87 0.169313 1.82717 0
M  V30 5840 H 587.252 -1.85878 3.49664 0
M  V30 5841 H 588.426 0.804106 4.5373 0
M  V30 5842 H 586.741 0.570336 4.12476 0
M  V30 5843 H 589.338 -2.09502 4.91948 0
M  V30 5844 H 589.681 -2.57078 3.27439 0
M  V30 5845 H 590.214 -0.974919 3.85668 0
M  V30 5846 H 586.953 0.349871 6.54566 0
M  V30 5847 H 586.473 -1.22452 5.87167 0
M  V30 5848 H 588.152 -0.951508 6.39965 0
M  V30 5849 N 588.284 -1.56567 -0.180126 0
M  V30 5850 C 589.7 -1.50488 -0.531559 0
M  V30 5851 C 589.9 -0.796267 -1.851 0
M  V30 5852 O 588.956 -0.352978 -2.50021 0
M  V30 5853 C 590.269 -2.95201 -0.572456 0
M  V30 5854 C 591.817 -3.05957 -0.660264 0
M  V30 5855 C 592.292 -4.5211 -0.732135 0
M  V30 5856 N 593.783 -4.56322 -0.795262 0
M  V30 5857 C 594.518 -5.66742 -0.871296 0
M  V30 5858 N 594.014 -6.86815 -0.908708 0
M  V30 5859 N 595.807 -5.54691 -0.909639 0
M  V30 5860 H 587.958 -2.01045 0.685165 0
M  V30 5861 H 590.221 -0.915536 0.245962 0
M  V30 5862 H 589.927 -3.50165 0.328208 0
M  V30 5863 H 589.801 -3.49369 -1.422 0
M  V30 5864 H 592.188 -2.51032 -1.55136 0
M  V30 5865 H 592.269 -2.54888 0.215783 0
M  V30 5866 H 591.913 -5.07664 0.154664 0
M  V30 5867 H 591.843 -5.00926 -1.6242 0
M  V30 5868 H 594.334 -3.69868 -0.77499 0
M  V30 5869 H 594.647 -7.66718 -0.967654 0
M  V30 5870 H 592.992 -6.89443 -0.877132 0
M  V30 5871 H 596.183 -4.59804 -0.877353 0
M  V30 5872 H 596.356 -6.40768 -0.965434 0
M  V30 5873 N 589.762 0.448376 -1.51087 0
M  V30 5874 C 590.99 1.22143 -1.66999 0
M  V30 5875 C 591.405 1.85283 -0.362699 0
M  V30 5876 O 590.762 1.70236 0.65772 0
M  V30 5877 C 590.813 2.31357 -2.7777 0
M  V30 5878 O 590.534 1.70801 -4.03434 0
M  V30 5879 C 592.035 3.21836 -3.04855 0
M  V30 5880 H 589.255 0.368558 -0.560719 0
M  V30 5881 H 591.799 0.532618 -1.97442 0
M  V30 5882 H 589.954 2.95973 -2.49958 0
M  V30 5883 H 590.368 2.42895 -4.64868 0
M  V30 5884 H 591.842 3.94627 -3.85971 0
M  V30 5885 H 592.319 3.81949 -2.16821 0
M  V30 5886 H 592.925 2.62933 -3.34285 0
M  V30 5887 N 591.24 1.41047 0.703093 0
M  V30 5888 C 592.47 1.43133 1.48985 0
M  V30 5889 C 592.878 0.0328537 1.89171 0
M  V30 5890 O 592.221 -0.956469 1.56835 0
M  V30 5891 C 592.283 2.26991 2.78775 0
M  V30 5892 C 591.947 3.7525 2.60837 0
M  V30 5893 C 592.944 4.67591 2.27276 0
M  V30 5894 C 590.629 4.19208 2.76712 0
M  V30 5895 C 592.623 6.01877 2.09817 0
M  V30 5896 C 590.31 5.53561 2.5887 0
M  V30 5897 C 591.308 6.4471 2.25472 0
M  V30 5898 O 590.996 7.76584 2.07778 0
M  V30 5899 H 590.728 0.489788 0.465922 0
M  V30 5900 H 593.282 1.85886 0.873822 0
M  V30 5901 H 591.512 1.79038 3.42757 0
M  V30 5902 H 593.201 2.20867 3.40547 0
M  V30 5903 H 593.967 4.34923 2.14633 0
M  V30 5904 H 589.846 3.48572 3.01693 0
M  V30 5905 H 593.39 6.72986 1.83671 0
M  V30 5906 H 589.287 5.85811 2.71102 0
M  V30 5907 H 590.055 7.87649 2.22601 0
M  V30 5908 N 592.718 -0.936591 1.26751 0
M  V30 5909 C 593.995 -1.66094 1.03306 0
M  V30 5910 C 594.375 -2.06568 -0.435058 0
M  V30 5911 O 593.723 -1.79305 -1.41641 0
M  V30 5912 C 593.933 -2.86969 1.98619 0
M  V30 5913 C 595.281 -3.58516 2.27489 0
M  V30 5914 O 596.305 -2.97082 1.96522 0
M  V30 5915 O 595.164 -4.69181 2.80235 0
M  V30 5916 H 592.258 -0.727568 0.393158 0
M  V30 5917 H 594.804 -0.987914 1.3798 0
M  V30 5918 H 593.576 -2.53985 2.9767 0
M  V30 5919 H 593.199 -3.61996 1.64454 0
M  V30 5920 N 594.196 -1.08629 -1.14182 0
M  V30 5921 C 595.424 -0.838889 -1.8913 0
M  V30 5922 C 595.839 0.609153 -1.78703 0
M  V30 5923 O 595.196 1.41876 -1.14794 0
M  V30 5924 C 595.247 -1.25477 -3.39025 0
M  V30 5925 O 594.968 -2.64601 -3.49167 0
M  V30 5926 C 596.469 -1.03856 -4.30963 0
M  V30 5927 H 593.689 -0.302377 -0.599007 0
M  V30 5928 H 596.233 -1.44615 -1.44592 0
M  V30 5929 H 594.388 -0.691571 -3.81177 0
M  V30 5930 H 594.802 -2.81922 -4.42289 0
M  V30 5931 H 596.276 -1.37892 -5.345 0
M  V30 5932 H 596.753 0.0242522 -4.39193 0
M  V30 5933 H 597.359 -1.58731 -3.94569 0
M  V30 5934 N 595.674 1.31259 -0.872281 0
M  V30 5935 C 596.604 2.30929 -0.345554 0
M  V30 5936 C 597.585 1.60449 0.5648 0
M  V30 5937 O 598.77 1.8814 0.481335 0
M  V30 5938 C 595.9 3.44348 0.451823 0
M  V30 5939 C 594.854 4.26435 -0.365641 0
M  V30 5940 C 594.18 5.31785 0.557562 0
M  V30 5941 C 595.48 4.97159 -1.60095 0
M  V30 5942 H 597.174 2.75234 -1.17841 0
M  V30 5943 H 594.72 1.3232 -0.568094 0
M  V30 5944 H 596.673 4.13128 0.830854 0
M  V30 5945 H 595.397 2.98816 1.31821 0
M  V30 5946 H 594.056 3.59326 -0.726649 0
M  V30 5947 H 593.704 4.82502 1.4213 0
M  V30 5948 H 593.404 5.87598 0.0144878 0
M  V30 5949 H 594.928 6.03424 0.933387 0
M  V30 5950 H 596.342 5.58523 -1.29323 0
M  V30 5951 H 594.739 5.62779 -2.08327 0
M  V30 5952 H 595.809 4.24012 -2.35249 0
M  V30 5953 N 597.152 0.631951 1.44375 0
M  V30 5954 C 598.115 -0.0628142 2.29114 0
M  V30 5955 C 599.115 -0.771494 1.41084 0
M  V30 5956 O 600.305 -0.615959 1.62947 0
M  V30 5957 C 597.437 -1.09953 3.22681 0
M  V30 5958 H 598.63 0.682509 2.92031 0
M  V30 5959 H 596.183 0.392128 1.51301 0
M  V30 5960 H 596.918 -1.87481 2.64616 0
M  V30 5961 H 596.703 -0.595286 3.87555 0
M  V30 5962 H 598.193 -1.58538 3.86336 0
M  V30 5963 N 598.631 -1.53133 0.372548 0
M  V30 5964 C 599.879 -2.00958 -0.214534 0
M  V30 5965 C 600.2 -1.26135 -1.48711 0
M  V30 5966 O 599.47 -0.376597 -1.92246 0
M  V30 5967 H 598.05 -0.742456 -0.0822664 0
M  V30 5968 H 600.712 -1.88367 0.500385 0
M  V30 5969 H 599.808 -3.09031 -0.436605 0
M  V30 5970 N 600.109 -0.101901 -1.5727 0
M  V30 5971 C 601.056 0.854577 -2.14396 0
M  V30 5972 C 602.026 1.27521 -1.06432 0
M  V30 5973 O 603.211 1.35575 -1.34253 0
M  V30 5974 C 600.351 2.10576 -2.73408 0
M  V30 5975 C 599.464 1.73504 -3.95626 0
M  V30 5976 C 598.599 2.9346 -4.42781 0
M  V30 5977 C 597.638 2.52547 -5.57572 0
M  V30 5978 N 596.775 3.65359 -5.99547 0
M  V30 5979 H 601.615 0.360578 -2.9581 0
M  V30 5980 H 599.152 0.166303 -1.46157 0
M  V30 5981 H 601.11 2.83859 -3.05745 0
M  V30 5982 H 599.74 2.57463 -1.94711 0
M  V30 5983 H 598.792 0.901622 -3.6956 0
M  V30 5984 H 600.104 1.39426 -4.78917 0
M  V30 5985 H 599.258 3.74988 -4.76937 0
M  V30 5986 H 597.997 3.30753 -3.58404 0
M  V30 5987 H 597.002 1.69446 -5.23037 0
M  V30 5988 H 598.227 2.1639 -6.43702 0
M  V30 5989 H 596.173 4.02358 -5.18116 0
M  V30 5990 H 596.09 3.35148 -6.77652 0
M  V30 5991 H 597.358 4.47378 -6.38336 0
M  V30 5992 N 601.587 1.56661 0.17182 0
M  V30 5993 C 602.517 1.99401 1.21498 0
M  V30 5994 C 603.498 0.869516 1.46197 0
M  V30 5995 O 604.683 1.13556 1.57539 0
M  V30 5996 C 601.813 2.35346 2.55401 0
M  V30 5997 C 600.767 3.5075 2.45272 0
M  V30 5998 C 600.093 3.72437 3.8366 0
M  V30 5999 C 601.393 4.84216 1.95787 0
M  V30 6000 H 603.087 2.86792 0.859699 0
M  V30 6001 H 600.633 1.37977 0.412103 0
M  V30 6002 H 602.586 2.63843 3.2858 0
M  V30 6003 H 601.31 1.44864 2.92715 0
M  V30 6004 H 599.969 3.2238 1.74547 0
M  V30 6005 H 599.617 2.79246 4.18367 0
M  V30 6006 H 599.317 4.50087 3.77751 0
M  V30 6007 H 600.841 4.03334 4.58426 0
M  V30 6008 H 602.255 5.11592 2.5874 0
M  V30 6009 H 600.652 5.65498 2.00827 0
M  V30 6010 H 601.722 4.76243 0.912159 0
M  V30 6011 N 603.065 -0.440357 1.51323 0
M  V30 6012 C 604.028 -1.51679 1.71832 0
M  V30 6013 C 605.028 -1.49648 0.588386 0
M  V30 6014 O 606.218 -1.51724 0.855891 0
M  V30 6015 C 603.35 -2.91228 1.77199 0
M  V30 6016 H 604.543 -1.34799 2.67898 0
M  V30 6017 H 602.096 -0.66883 1.41267 0
M  V30 6018 H 602.831 -3.13516 0.829363 0
M  V30 6019 H 602.616 -2.94107 2.59314 0
M  V30 6020 H 604.106 -3.69321 1.94915 0
M  V30 6021 N 604.543 -1.41418 -0.695603 0
M  V30 6022 C 605.506 -1.42988 -1.79129 0
M  V30 6023 C 606.506 -0.320514 -1.57573 0
M  V30 6024 O 607.696 -0.58039 -1.64247 0
M  V30 6025 C 604.828 -1.24122 -3.175 0
M  V30 6026 H 606.021 -2.40526 -1.7913 0
M  V30 6027 H 603.574 -1.2756 -0.903225 0
M  V30 6028 H 604.309 -0.274253 -3.23138 0
M  V30 6029 H 604.094 -2.045 -3.34547 0
M  V30 6030 H 605.584 -1.28056 -3.97481 0
M  V30 6031 N 606.021 0.929856 -1.27246 0
M  V30 6032 C 607.269 1.674 -1.13233 0
M  V30 6033 C 607.59 1.92311 0.322744 0
M  V30 6034 O 606.86 1.52784 1.22612 0
M  V30 6035 H 605.44 0.620411 -0.416052 0
M  V30 6036 H 608.102 1.11663 -1.59741 0
M  V30 6037 H 607.198 2.64308 -1.65975 0
M  V30 6038 N 607.499 1.09233 1.13605 0
M  V30 6039 C 608.745 0.828385 1.8511 0
M  V30 6040 C 609.078 -0.64437 1.83198 0
M  V30 6041 O 608.353 -1.47428 1.26867 0
M  V30 6042 C 608.636 1.36167 3.33363 0
M  V30 6043 C 608.489 2.90038 3.438 0
M  V30 6044 C 609.808 0.993819 4.28732 0
M  V30 6045 H 606.927 0.30239 0.672108 0
M  V30 6046 H 609.569 1.35339 1.33355 0
M  V30 6047 H 607.719 0.9151 3.77569 0
M  V30 6048 H 609.391 3.43128 3.08319 0
M  V30 6049 H 607.634 3.27271 2.84739 0
M  V30 6050 H 608.305 3.22428 4.48045 0
M  V30 6051 H 610.781 1.37893 3.92587 0
M  V30 6052 H 609.657 1.39403 5.30903 0
M  V30 6053 H 609.918 -0.0982206 4.41991 0
M  V30 6054 N 608.977 -1.30795 0.87923 0
M  V30 6055 C 609.924 -2.28282 0.339968 0
M  V30 6056 C 610.894 -1.56134 -0.566685 0
M  V30 6057 O 612.079 -1.84231 -0.496338 0
M  V30 6058 C 609.219 -3.42225 -0.444501 0
M  V30 6059 C 608.332 -4.29204 0.490717 0
M  V30 6060 C 607.467 -5.30302 -0.308784 0
M  V30 6061 C 606.506 -6.08929 0.622272 0
M  V30 6062 N 605.643 -7.01957 -0.14155 0
M  V30 6063 H 610.483 -2.73794 1.17647 0
M  V30 6064 H 608.02 -1.34682 0.591527 0
M  V30 6065 H 609.978 -4.07038 -0.915186 0
M  V30 6066 H 608.608 -2.97799 -1.24562 0
M  V30 6067 H 607.66 -3.6475 1.07988 0
M  V30 6068 H 608.972 -4.84045 1.20425 0
M  V30 6069 H 608.126 -6.00835 -0.841575 0
M  V30 6070 H 606.865 -4.7614 -1.05556 0
M  V30 6071 H 605.87 -5.37278 1.16674 0
M  V30 6072 H 607.095 -6.65178 1.36804 0
M  V30 6073 H 605.041 -6.50192 -0.870966 0
M  V30 6074 H 604.958 -7.54261 0.51246 0
M  V30 6075 H 606.226 -7.76741 -0.655271 0
M  V30 6076 N 610.455 -0.639598 -1.44038 0
M  V30 6077 C 611.701 -0.147698 -2.02261 0
M  V30 6078 C 612.034 1.23031 -1.50256 0
M  V30 6079 O 611.309 1.81847 -0.690068 0
M  V30 6080 C 611.592 -0.14362 -3.59813 0
M  V30 6081 C 611.445 -1.55458 -4.22082 0
M  V30 6082 C 612.764 0.527317 -4.36929 0
M  V30 6083 H 609.883 -0.0551453 -0.734934 0
M  V30 6084 H 612.525 -0.817688 -1.71505 0
M  V30 6085 H 610.675 0.426898 -3.86147 0
M  V30 6086 H 612.347 -2.17464 -4.06826 0
M  V30 6087 H 610.59 -2.10594 -3.79253 0
M  V30 6088 H 611.261 -1.50369 -5.31124 0
M  V30 6089 H 613.737 0.0420504 -4.16079 0
M  V30 6090 H 612.613 0.499389 -5.46624 0
M  V30 6091 H 612.874 1.59914 -4.12165 0
M  V30 6092 N 611.933 1.52934 -0.380664 0
M  V30 6093 C 613.349 1.59571 -0.0302429 0
M  V30 6094 C 613.549 1.39509 1.45394 0
M  V30 6095 O 612.605 1.20777 2.21741 0
M  V30 6096 C 613.918 2.96519 -0.499691 0
M  V30 6097 C 615.466 3.09672 -0.455204 0
M  V30 6098 C 615.941 4.49056 -0.900703 0
M  V30 6099 N 617.432 4.55215 -0.856367 0
M  V30 6100 C 618.167 5.61282 -1.17259 0
M  V30 6101 N 617.663 6.75035 -1.55885 0
M  V30 6102 N 619.456 5.51343 -1.0944 0
M  V30 6103 H 611.607 1.64224 -1.347 0
M  V30 6104 H 613.87 0.771033 -0.551554 0
M  V30 6105 H 613.576 3.16388 -1.53595 0
M  V30 6106 H 613.45 3.77052 0.105789 0
M  V30 6107 H 615.837 2.89504 0.571949 0
M  V30 6108 H 615.918 2.31113 -1.09638 0
M  V30 6109 H 615.562 4.69964 -1.92604 0
M  V30 6110 H 615.492 5.26068 -0.236629 0
M  V30 6111 H 617.983 3.73546 -0.572013 0
M  V30 6112 H 618.296 7.51926 -1.784 0
M  V30 6113 H 616.641 6.76388 -1.59764 0
M  V30 6114 H 619.832 4.61356 -0.791713 0
M  V30 6115 H 620.005 6.33905 -1.34417 0
M  V30 6116 N 613.412 0.11024 1.57214 0
M  V30 6117 C 614.661 -0.549638 1.94067 0
M  V30 6118 C 614.974 -1.68388 0.995234 0
M  V30 6119 O 616.18 -2.40593 1.25807 0
M  V30 6120 C 614.636 -1.02912 3.44873 0
M  V30 6121 C 614.244 0.0761861 4.47935 0
M  V30 6122 C 615.988 -1.66087 3.9066 0
M  V30 6123 C 613.895 -0.419502 5.8991 0
M  V30 6124 H 612.825 -0.209092 0.724428 0
M  V30 6125 H 615.476 0.188683 1.82527 0
M  V30 6126 H 613.858 -1.82159 3.51616 0
M  V30 6127 H 615.032 0.852185 4.52851 0
M  V30 6128 H 613.347 0.614052 4.11847 0
M  V30 6129 H 615.944 -2.04272 4.94143 0
M  V30 6130 H 616.287 -2.53591 3.30148 0
M  V30 6131 H 616.82 -0.933959 3.86681 0
M  V30 6132 H 613.559 0.419277 6.54158 0
M  V30 6133 H 613.079 -1.16217 5.88433 0
M  V30 6134 H 614.758 -0.883577 6.40938 0
M  V30 6135 N 614.89 -1.56749 -0.16351 0
M  V30 6136 C 616.136 -1.82704 -0.880168 0
M  V30 6137 C 616.469 -0.689311 -1.81555 0
M  V30 6138 O 615.744 0.308224 -1.92042 0
M  V30 6139 C 616.027 -3.19084 -1.66905 0
M  V30 6140 C 615.88 -4.43397 -0.756269 0
M  V30 6141 C 617.199 -3.52493 -2.63509 0
M  V30 6142 H 614.318 -0.664608 -0.318535 0
M  V30 6143 H 616.96 -1.89438 -0.146036 0
M  V30 6144 H 615.11 -3.13475 -2.2949 0
M  V30 6145 H 616.782 -4.61079 -0.14269 0
M  V30 6146 H 615.025 -4.33752 -0.0647944 0
M  V30 6147 H 615.696 -5.3539 -1.34393 0
M  V30 6148 H 618.172 -3.58606 -2.11047 0
M  V30 6149 H 617.048 -4.48979 -3.15767 0
M  V30 6150 H 617.309 -2.77597 -3.44082 0
M  V30 6151 N 616.368 0.432326 -1.51554 0
M  V30 6152 C 617.614 1.18309 -1.64714 0
M  V30 6153 C 617.947 1.90745 -0.364696 0
M  V30 6154 O 617.222 1.8381 0.635936 0
M  V30 6155 C 617.505 2.1961 -2.85383 0
M  V30 6156 C 617.358 1.51223 -4.23617 0
M  V30 6157 C 618.677 3.20538 -3.01569 0
M  V30 6158 H 615.796 0.428751 -0.599451 0
M  V30 6159 H 618.438 0.471689 -1.84052 0
M  V30 6160 H 616.588 2.8028 -2.69027 0
M  V30 6161 H 618.26 0.938516 -4.51652 0
M  V30 6162 H 616.503 0.814501 -4.26085 0
M  V30 6163 H 617.174 2.25024 -5.04052 0
M  V30 6164 H 619.65 2.69926 -3.16669 0
M  V30 6165 H 618.526 3.88706 -3.87555 0
M  V30 6166 H 618.787 3.86933 -2.13859 0
M  V30 6167 N 617.846 1.41785 0.688094 0
M  V30 6168 C 619.071 1.45117 1.48175 0
M  V30 6169 C 619.496 0.060129 1.88004 0
M  V30 6170 O 618.854 -0.938385 1.55126 0
M  V30 6171 C 618.902 2.37224 2.71583 0
M  V30 6172 O 618.006 1.83443 3.69354 0
M  V30 6173 H 617.347 0.492208 0.445676 0
M  V30 6174 H 619.877 1.86329 0.845145 0
M  V30 6175 H 619.887 2.53353 3.19806 0
M  V30 6176 H 618.562 3.38293 2.41931 0
M  V30 6177 H 617.139 1.76802 3.28322 0
M  V30 6178 N 619.324 -0.923095 1.27737 0
M  V30 6179 C 620.601 -1.64989 1.05062 0
M  V30 6180 C 620.981 -2.07018 -0.413124 0
M  V30 6181 O 620.329 -1.80797 -1.39731 0
M  V30 6182 C 620.539 -2.84847 2.01652 0
M  V30 6183 C 621.887 -3.56083 2.31279 0
M  V30 6184 O 622.911 -2.94981 1.99662 0
M  V30 6185 O 621.77 -4.66182 2.85196 0
M  V30 6186 H 618.864 -0.723357 0.400853 0
M  V30 6187 H 621.41 -0.973224 1.3902 0
M  V30 6188 H 620.182 -2.50814 3.00347 0
M  V30 6189 H 619.805 -3.60231 1.68284 0
M  V30 6190 N 620.802 -1.09834 -1.13024 0
M  V30 6191 C 622.213 -0.855651 -1.65938 0
M  V30 6192 C 622.564 0.615159 -1.86307 0
M  V30 6193 O 621.689 1.47335 -1.58497 0
M  V30 6194 C 622.284 -1.5467 -3.01434 0
M  V30 6195 C 620.843 -1.35088 -3.51323 0
M  V30 6196 C 619.99 -1.6001 -2.26478 0
M  V30 6197 H 622.941 -1.25691 -0.968889 0
M  V30 6198 H 622.962 -0.982179 -3.67605 0
M  V30 6199 H 622.474 -2.61715 -2.86578 0
M  V30 6200 H 620.575 -0.30179 -3.71376 0
M  V30 6201 H 620.688 -2.0886 -4.31178 0
M  V30 6202 H 619.052 -1.02246 -2.33276 0
M  V30 6203 H 619.835 -2.68293 -2.14182 0
M  V30 6204 N 622.28 1.30327 -0.886154 0
M  V30 6205 C 623.243 2.26376 -0.358687 0
M  V30 6206 C 624.243 1.52845 0.499498 0
M  V30 6207 O 625.433 1.71483 0.306485 0
M  V30 6208 C 622.565 3.37379 0.488726 0
M  V30 6209 H 623.758 2.74547 -1.20681 0
M  V30 6210 H 621.311 1.41536 -0.663113 0
M  V30 6211 H 622.046 2.94526 1.35739 0
M  V30 6212 H 621.831 3.91897 -0.126003 0
M  V30 6213 H 623.321 4.08868 0.84952 0
M  V30 6214 N 623.758 0.647228 1.43697 0
M  V30 6215 C 624.706 -0.0600105 2.32523 0
M  V30 6216 C 625.7 -0.819277 1.48271 0
M  V30 6217 O 626.906 -0.730356 1.64517 0
M  V30 6218 H 623.281 -0.0381872 0.75103 0
M  V30 6219 H 625.252 0.706978 2.89904 0
M  V30 6220 C 624.001 -1.0169 3.32497 0
M  V30 6221 H 623.324 -0.442083 3.97348 0
M  V30 6222 H 624.764 -1.48095 3.97296 0
M  V30 6223 C 623.223 -2.11002 2.6264 0
M  V30 6224 O 623.753 -3.19302 2.4374 0
M  V30 6225 N 621.959 -1.87388 2.22113 0
M  V30 6226 H 621.506 -0.993174 2.37684 0
M  V30 6227 H 621.464 -2.60723 1.75701 0
M  V30 6228 N 625.236 -1.5273 0.388769 0
M  V30 6229 C 626.652 -1.59553 0.0387049 0
M  V30 6230 C 626.852 -1.40278 -1.44652 0
M  V30 6231 O 625.908 -1.21951 -2.21098 0
M  V30 6232 C 627.221 -2.9625 0.515409 0
M  V30 6233 C 628.769 -3.09426 0.471621 0
M  V30 6234 C 629.244 -4.48572 0.924505 0
M  V30 6235 N 630.735 -4.54754 0.880496 0
M  V30 6236 C 631.47 -5.60653 1.20234 0
M  V30 6237 N 630.966 -6.74198 1.59463 0
M  V30 6238 N 632.759 -5.50755 1.12363 0
M  V30 6239 H 624.91 -1.63508 1.35569 0
M  V30 6240 H 627.173 -0.768097 0.555636 0
M  V30 6241 H 626.879 -3.15569 1.5527 0
M  V30 6242 H 626.753 -3.77102 -0.085792 0
M  V30 6243 H 629.14 -2.89804 -0.556588 0
M  V30 6244 H 629.221 -2.30528 1.10862 0
M  V30 6245 H 628.865 -4.68936 1.95094 0
M  V30 6246 H 628.795 -5.25935 0.264524 0
M  V30 6247 H 631.286 -3.73237 0.591815 0
M  V30 6248 H 631.599 -7.5097 1.82385 0
M  V30 6249 H 629.944 -6.75531 1.63349 0
M  V30 6250 H 633.135 -4.6093 0.816169 0
M  V30 6251 H 633.308 -6.33184 1.37777 0
M  V30 6252 N 626.714 -0.118576 -1.57153 0
M  V30 6253 C 627.962 0.538461 -1.94795 0
M  V30 6254 C 628.283 1.67243 -1.00274 0
M  V30 6255 O 627.553 1.95811 -0.0589692 0
M  V30 6256 H 626.133 0.201904 -0.719197 0
M  V30 6257 H 628.795 -0.187418 -1.93997 0
M  V30 6258 H 627.891 0.933315 -2.97818 0
M  V30 6259 N 628.193 1.56834 0.155195 0
M  V30 6260 C 629.156 1.96748 1.17571 0
M  V30 6261 C 630.156 0.853006 1.3631 0
M  V30 6262 O 631.346 1.11978 1.33441 0
M  V30 6263 C 628.478 2.27631 2.53765 0
M  V30 6264 H 629.671 2.88085 0.833498 0
M  V30 6265 H 627.224 1.51141 0.398242 0
M  V30 6266 H 627.959 1.39059 2.92973 0
M  V30 6267 H 627.744 3.0888 2.41527 0
M  V30 6268 H 629.234 2.59377 3.27282 0
M  V30 6269 N 629.671 -0.424282 1.51781 0
M  V30 6270 C 630.917 -1.17434 1.6534 0
M  V30 6271 C 631.25 -1.90549 0.374806 0
M  V30 6272 O 630.525 -1.84145 -0.626179 0
M  V30 6273 C 630.808 -2.18093 2.86544 0
M  V30 6274 C 630.661 -1.48975 4.24413 0
M  V30 6275 C 631.98 -3.18934 3.03264 0
M  V30 6276 H 629.099 -0.425566 0.601716 0
M  V30 6277 H 631.741 -0.461921 1.84299 0
M  V30 6278 H 629.891 -2.78849 2.7051 0
M  V30 6279 H 631.563 -0.914551 4.52143 0
M  V30 6280 H 629.806 -0.791893 4.26511 0
M  V30 6281 H 630.477 -2.22347 5.05238 0
M  V30 6282 H 632.953 -2.68243 3.18096 0
M  V30 6283 H 631.829 -3.86645 3.89611 0
M  V30 6284 H 632.09 -3.85793 2.15908 0
M  V30 6285 N 631.149 -1.42148 -0.680565 0
M  V30 6286 C 632.397 -1.42029 -1.43779 0
M  V30 6287 C 632.718 -0.0356347 -1.94967 0
M  V30 6288 O 631.988 0.924936 -1.7269 0
M  V30 6289 H 630.568 -0.522835 -0.533529 0
M  V30 6290 H 633.23 -1.7752 -0.804538 0
M  V30 6291 H 632.326 -2.11658 -2.29363 0
M  V30 6292 N 632.627 0.916307 -1.28225 0
M  V30 6293 C 633.852 1.7043 -1.18188 0
M  V30 6294 C 634.277 1.86346 0.256274 0
M  V30 6295 O 633.635 1.37175 1.18544 0
M  V30 6296 C 633.683 3.07546 -1.88275 0
M  V30 6297 O 632.787 3.94904 -1.18848 0
M  V30 6298 H 632.128 0.521967 -0.410423 0
M  V30 6299 H 634.658 1.14589 -1.69501 0
M  V30 6300 H 634.668 3.57793 -1.96082 0
M  V30 6301 H 633.343 2.95279 -2.92887 0
M  V30 6302 H 631.92 3.53339 -1.19187 0
M  V30 6303 N 634.105 1.10431 1.1244 0
M  V30 6304 C 635.353 0.845045 1.83585 0
M  V30 6305 C 635.674 -0.631168 1.84503 0
M  V30 6306 O 634.944 -1.45825 1.30813 0
M  V30 6307 H 633.524 0.309628 0.679809 0
M  V30 6308 H 636.186 1.39458 1.36153 0
M  V30 6309 H 635.282 1.20786 2.8778 0
M  V30 6310 N 635.583 -1.29855 0.893053 0
M  V30 6311 C 636.831 -1.9544 0.514566 0
M  V30 6312 C 637.152 -1.70795 -0.940959 0
M  V30 6313 O 636.422 -1.03601 -1.66264 0
M  V30 6314 H 635.002 -0.723137 0.187302 0
M  V30 6315 H 637.664 -1.58234 1.13789 0
M  V30 6316 H 636.76 -3.04341 0.691581 0
M  V30 6317 N 637.061 -0.65484 -1.43351 0
M  V30 6318 C 638.291 -0.176429 -2.05845 0
M  V30 6319 C 638.699 1.16375 -1.49176 0
M  V30 6320 O 638.042 1.72981 -0.618322 0
M  V30 6321 C 638.104 -0.0125844 -3.59498 0
M  V30 6322 C 637.768 -1.27831 -4.38758 0
M  V30 6323 C 638.765 -2.2074 -4.70712 0
M  V30 6324 C 636.45 -1.52035 -4.78739 0
M  V30 6325 C 638.444 -3.36145 -5.41558 0
M  V30 6326 C 636.131 -2.67732 -5.49329 0
M  V30 6327 C 637.129 -3.59612 -5.80662 0
M  V30 6328 O 636.817 -4.73289 -6.4981 0
M  V30 6329 H 636.549 -0.0879682 -0.670252 0
M  V30 6330 H 639.103 -0.896193 -1.84818 0
M  V30 6331 H 637.333 0.762567 -3.79107 0
M  V30 6332 H 639.022 0.423392 -4.03686 0
M  V30 6333 H 639.788 -2.03284 -4.40341 0
M  V30 6334 H 635.667 -0.813987 -4.53757 0
M  V30 6335 H 639.211 -4.07881 -5.65932 0
M  V30 6336 H 635.108 -2.85122 -5.79116 0
M  V30 6337 H 635.876 -4.72575 -6.68293 0
M  V30 6338 N 638.539 1.52521 -0.396863 0
M  V30 6339 C 639.764 2.06571 0.185258 0
M  V30 6340 C 640.189 1.26605 1.39115 0
M  V30 6341 O 639.547 0.293055 1.78916 0
M  V30 6342 C 639.595 3.5674 0.526189 0
M  V30 6343 O 638.699 3.7929 1.61903 0
M  V30 6344 H 638.04 0.663712 0.0195474 0
M  V30 6345 H 640.57 1.966 -0.566519 0
M  V30 6346 H 640.58 4.00311 0.788338 0
M  V30 6347 H 639.255 4.14379 -0.355397 0
M  V30 6348 H 637.832 3.47605 1.35 0
M  V30 6349 N 640.017 0.126909 1.57088 0
M  V30 6350 C 640.949 -0.850973 2.12817 0
M  V30 6351 C 641.962 -1.22457 1.07276 0
M  V30 6352 O 643.151 -1.17215 1.34622 0
M  V30 6353 C 640.251 -2.15039 2.61938 0
M  V30 6354 C 639.424 -1.94726 3.91664 0
M  V30 6355 C 638.483 -3.0847 4.26301 0
M  V30 6356 O 637.509 -2.81038 4.94981 0
M  V30 6357 N 638.711 -4.35116 3.84259 0
M  V30 6358 H 641.476 -0.3748 2.97347 0
M  V30 6359 H 639.037 -0.0572793 1.61799 0
M  V30 6360 H 641.029 -2.90141 2.82135 0
M  V30 6361 H 639.599 -2.5398 1.82244 0
M  V30 6362 H 638.819 -1.03772 3.80296 0
M  V30 6363 H 640.107 -1.78469 4.76473 0
M  V30 6364 H 639.505 -4.60276 3.2888 0
M  V30 6365 H 638.062 -5.07064 4.09548 0
M  V30 6366 N 641.495 -1.56914 -0.146875 0
M  V30 6367 C 642.744 -1.82546 -0.857898 0
M  V30 6368 C 643.057 -0.708169 -1.8233 0
M  V30 6369 O 644.263 -0.850093 -2.57848 0
M  V30 6370 C 642.719 -3.23548 -1.57623 0
M  V30 6371 C 642.327 -4.43212 -0.653224 0
M  V30 6372 C 644.071 -3.58453 -2.27402 0
M  V30 6373 C 641.978 -5.75237 -1.37318 0
M  V30 6374 H 640.908 -0.680786 -0.32411 0
M  V30 6375 H 643.559 -1.83166 -0.110639 0
M  V30 6376 H 641.941 -3.17315 -2.36912 0
M  V30 6377 H 643.115 -4.60682 0.104452 0
M  V30 6378 H 641.43 -4.16351 -0.0638336 0
M  V30 6379 H 644.027 -4.54349 -2.81907 0
M  V30 6380 H 644.37 -2.84516 -3.03901 0
M  V30 6381 H 644.903 -3.66347 -1.55032 0
M  V30 6382 H 641.642 -6.52269 -0.650041 0
M  V30 6383 H 641.162 -5.61703 -2.10357 0
M  V30 6384 H 642.841 -6.18039 -1.91406 0
M  V30 6385 N 642.974 0.416227 -1.52004 0
M  V30 6386 C 643.921 1.50666 -1.74838 0
M  V30 6387 C 644.891 1.55245 -0.590599 0
M  V30 6388 O 646.076 1.71928 -0.827374 0
M  V30 6389 C 643.216 2.88185 -1.89851 0
M  V30 6390 C 642.329 2.92971 -3.17478 0
M  V30 6391 C 641.464 4.21745 -3.22962 0
M  V30 6392 C 640.503 4.20478 -4.4482 0
M  V30 6393 N 639.64 5.40811 -4.47736 0
M  V30 6394 H 644.48 1.30498 -2.67907 0
M  V30 6395 H 642.017 0.633568 -1.32757 0
M  V30 6396 H 643.975 3.68007 -1.96537 0
M  V30 6397 H 642.605 3.06865 -1.00169 0
M  V30 6398 H 641.657 2.05684 -3.19997 0
M  V30 6399 H 642.969 2.87899 -4.07328 0
M  V30 6400 H 642.123 5.09954 -3.28682 0
M  V30 6401 H 640.862 4.29503 -2.31038 0
M  V30 6402 H 639.867 3.30659 -4.39254 0
M  V30 6403 H 641.092 4.14366 -5.38031 0
M  V30 6404 H 639.038 5.4925 -3.58692 0
M  V30 6405 H 638.955 5.37705 -5.31422 0
M  V30 6406 H 640.223 6.30993 -4.57676 0
M  V30 6407 N 644.452 1.42507 0.673017 0
M  V30 6408 C 645.677 1.4668 1.46627 0
M  V30 6409 C 646.102 0.080066 1.8793 0
M  V30 6410 O 645.46 -0.921879 1.56112 0
M  V30 6411 C 645.508 2.40091 2.69051 0
M  V30 6412 O 644.612 1.8735 3.67387 0
M  V30 6413 H 643.953 0.496908 0.44043 0
M  V30 6414 H 646.483 1.87215 0.825334 0
M  V30 6415 H 646.493 2.56731 3.17101 0
M  V30 6416 H 645.168 3.4084 2.3833 0
M  V30 6417 H 643.745 1.80274 3.26429 0
M  V30 6418 N 645.93 -0.909495 1.28709 0
M  V30 6419 C 646.86 -2.0291 1.15542 0
M  V30 6420 C 647.841 -1.7002 0.0521017 0
M  V30 6421 O 649.026 -1.92835 0.229849 0
M  V30 6422 C 646.156 -3.37458 0.820935 0
M  V30 6423 C 645.11 -3.84524 1.87949 0
M  V30 6424 C 644.436 -5.16086 1.39854 0
M  V30 6425 C 645.736 -4.05918 3.28676 0
M  V30 6426 H 647.43 -2.14183 2.09203 0
M  V30 6427 H 644.976 -1.02913 1.00722 0
M  V30 6428 H 646.929 -4.1528 0.715571 0
M  V30 6429 H 645.653 -3.26249 -0.151374 0
M  V30 6430 H 644.312 -3.08911 1.97408 0
M  V30 6431 H 643.96 -5.01284 0.41518 0
M  V30 6432 H 643.66 -5.48547 2.1064 0
M  V30 6433 H 645.184 -5.96459 1.30649 0
M  V30 6434 H 646.598 -4.74252 3.22115 0
M  V30 6435 H 644.995 -4.49717 3.97334 0
M  V30 6436 H 646.065 -3.10583 3.72379 0
M  V30 6437 N 647.408 -1.11026 -1.11852 0
M  V30 6438 C 648.685 -0.768347 -1.79877 0
M  V30 6439 C 649.065 0.744261 -1.97545 0
M  V30 6440 O 648.413 1.67271 -1.55669 0
M  V30 6441 C 648.623 -1.52648 -3.13846 0
M  V30 6442 C 649.971 -1.70297 -3.88953 0
M  V30 6443 O 650.995 -1.49037 -3.23522 0
M  V30 6444 O 649.854 -2.05593 -5.06353 0
M  V30 6445 H 646.948 -0.277891 -0.778913 0
M  V30 6446 H 649.494 -1.21343 -1.18633 0
M  V30 6447 H 648.266 -2.55564 -2.96315 0
M  V30 6448 H 647.889 -1.07466 -3.82801 0
M  V30 6449 N 648.886 1.2938 -0.899927 0
M  V30 6450 C 649.796 2.31462 -0.382437 0
M  V30 6451 C 650.812 1.65956 0.522929 0
M  V30 6452 O 651.988 1.97131 0.412454 0
M  V30 6453 C 649.053 3.44595 0.381472 0
M  V30 6454 C 648.114 4.25692 -0.555444 0
M  V30 6455 C 647.347 5.33422 0.172102 0
M  V30 6456 O 647.57 5.53053 1.396 0
M  V30 6457 O 646.504 5.99939 -0.485491 0
M  V30 6458 H 650.33 2.77706 -1.22934 0
M  V30 6459 H 647.915 1.33821 -0.664259 0
M  V30 6460 H 649.797 4.13474 0.813442 0
M  V30 6461 H 648.472 3.00458 1.20443 0
M  V30 6462 H 647.379 3.59453 -1.03653 0
M  V30 6463 H 648.712 4.73471 -1.34483 0
M  V30 6464 N 650.364 0.662433 1.43002 0
M  V30 6465 C 651.613 0.176873 2.00923 0
M  V30 6466 C 651.926 -1.21954 1.52927 0
M  V30 6467 O 653.132 -1.80081 2.03182 0
M  V30 6468 C 651.588 0.265379 3.5892 0
M  V30 6469 C 651.196 1.66507 4.15908 0
M  V30 6470 C 652.94 -0.162103 4.2419 0
M  V30 6471 C 650.847 1.707 5.66229 0
M  V30 6472 H 649.777 0.0623627 0.751417 0
M  V30 6473 H 652.428 0.825813 1.63868 0
M  V30 6474 H 650.81 -0.451235 3.93421 0
M  V30 6475 H 651.984 2.40777 3.92891 0
M  V30 6476 H 650.299 2.03932 3.63044 0
M  V30 6477 H 652.896 -0.150745 5.34487 0
M  V30 6478 H 653.239 -1.19519 3.98774 0
M  V30 6479 H 653.772 0.503075 3.94606 0
M  V30 6480 H 650.511 2.7195 5.96426 0
M  V30 6481 H 650.031 1.00768 5.91275 0
M  V30 6482 H 651.71 1.45487 6.3043 0
M  V30 6483 N 651.842 -1.52309 0.404946 0
M  V30 6484 C 653.067 -2.06666 -0.1743 0
M  V30 6485 C 653.492 -1.27341 -1.38441 0
M  V30 6486 O 652.85 -0.302539 -1.78758 0
M  V30 6487 C 652.898 -3.57014 -0.507262 0
M  V30 6488 O 652.002 -3.80144 -1.59889 0
M  V30 6489 H 651.343 -0.663807 -0.0160273 0
M  V30 6490 H 653.873 -1.96297 0.576937 0
M  V30 6491 H 653.883 -4.00724 -0.767098 0
M  V30 6492 H 652.558 -4.14184 0.377368 0
M  V30 6493 H 651.135 -3.48316 -1.33155 0
M  V30 6494 N 653.32 -0.135238 -1.57019 0
M  V30 6495 C 654.597 0.563227 -1.87316 0
M  V30 6496 C 654.977 1.83749 -1.03921 0
M  V30 6497 O 654.325 2.2817 -0.122675 0
M  V30 6498 C 654.535 0.840031 -3.3874 0
M  V30 6499 C 655.883 1.18598 -4.077 0
M  V30 6500 O 656.907 0.92977 -3.43851 0
M  V30 6501 O 655.766 1.66758 -5.20436 0
M  V30 6502 H 652.86 0.285971 -0.775983 0
M  V30 6503 H 655.406 -0.170965 -1.68837 0
M  V30 6504 H 654.178 -0.0622785 -3.9125 0
M  V30 6505 H 653.801 1.62882 -3.62706 0
M  V30 6506 N 654.798 1.5699 0.138552 0
M  V30 6507 C 656.026 1.87976 0.864437 0
M  V30 6508 C 656.441 0.724372 1.74351 0
M  V30 6509 O 655.798 -0.305575 1.79924 0
M  V30 6510 C 655.849 3.18276 1.71414 0
M  V30 6511 O 655.57 4.29365 0.870487 0
M  V30 6512 C 657.071 3.62834 2.54688 0
M  V30 6513 H 654.291 0.622878 0.249528 0
M  V30 6514 H 656.835 2.04094 0.128805 0
M  V30 6515 H 654.99 3.03886 2.40274 0
M  V30 6516 H 655.404 5.03924 1.45466 0
M  V30 6517 H 656.878 4.5682 3.0987 0
M  V30 6518 H 657.355 2.88533 3.31127 0
M  V30 6519 H 657.961 3.79946 1.91105 0
M  V30 6520 N 656.276 -0.40816 1.52223 0
M  V30 6521 C 657.206 -1.5042 1.78595 0
M  V30 6522 C 658.187 -1.57723 0.636974 0
M  V30 6523 O 659.372 -1.72982 0.882664 0
M  V30 6524 C 656.502 -2.88232 1.93751 0
M  V30 6525 C 655.456 -2.95779 3.09352 0
M  V30 6526 C 654.782 -4.35855 3.09732 0
M  V30 6527 C 656.082 -2.67175 4.48793 0
M  V30 6528 H 657.776 -1.28601 2.70374 0
M  V30 6529 H 655.322 -0.617221 1.30101 0
M  V30 6530 H 657.275 -3.64895 2.10783 0
M  V30 6531 H 655.999 -3.11347 0.986443 0
M  V30 6532 H 654.658 -2.21561 2.92072 0
M  V30 6533 H 654.306 -4.55981 2.12346 0
M  V30 6534 H 654.006 -4.41829 3.87377 0
M  V30 6535 H 655.53 -5.14451 3.28895 0
M  V30 6536 H 656.944 -3.3356 4.66273 0
M  V30 6537 H 655.341 -2.84523 5.28362 0
M  V30 6538 H 656.411 -1.62609 4.56822 0
M  V30 6539 N 657.755 -1.42862 -0.66545 0
M  V30 6540 C 659.171 -1.25993 -0.979687 0
M  V30 6541 C 659.371 -0.170831 -2.00775 0
M  V30 6542 O 658.427 0.454827 -2.4837 0
M  V30 6543 C 659.74 -2.62005 -1.47559 0
M  V30 6544 C 661.288 -2.69437 -1.59288 0
M  V30 6545 C 661.763 -4.05838 -2.12272 0
M  V30 6546 N 663.254 -4.0784 -2.19592 0
M  V30 6547 C 663.989 -5.10205 -2.61684 0
M  V30 6548 N 663.485 -6.22949 -3.03161 0
M  V30 6549 N 665.278 -4.9756 -2.61516 0
M  V30 6550 H 657.429 -2.12395 0.0150493 0
M  V30 6551 H 659.692 -0.946355 -0.0558187 0
M  V30 6552 H 659.398 -3.42605 -0.794654 0
M  V30 6553 H 659.272 -2.86566 -2.45275 0
M  V30 6554 H 661.659 -1.89178 -2.26486 0
M  V30 6555 H 661.74 -2.48655 -0.600374 0
M  V30 6556 H 661.384 -4.86559 -1.4568 0
M  V30 6557 H 661.314 -4.23977 -3.12331 0
M  V30 6558 H 663.805 -3.26452 -1.90361 0
M  V30 6559 H 664.118 -6.96899 -3.33993 0
M  V30 6560 H 662.463 -6.2644 -3.00995 0
M  V30 6561 H 665.654 -4.08551 -2.28481 0
M  V30 6562 H 665.827 -5.77468 -2.93999 0
M  V30 6563 N 659.233 0.902656 -1.29189 0
M  V30 6564 C 660.461 1.68639 -1.19869 0
M  V30 6565 C 660.876 1.87254 0.241121 0
M  V30 6566 O 660.233 1.40745 1.16177 0
M  V30 6567 C 660.284 3.07251 -1.90471 0
M  V30 6568 O 660.005 2.89488 -3.28829 0
M  V30 6569 C 661.506 4.01653 -1.8759 0
M  V30 6570 H 658.726 0.526802 -0.415596 0
M  V30 6571 H 661.27 1.12901 -1.7051 0
M  V30 6572 H 659.425 3.59774 -1.43672 0
M  V30 6573 H 659.839 3.77296 -3.64346 0
M  V30 6574 H 661.313 4.96339 -2.4156 0
M  V30 6575 H 661.79 4.30881 -0.850756 0
M  V30 6576 H 662.396 3.55061 -2.34119 0
M  V30 6577 N 660.711 1.11618 1.11262 0
M  V30 6578 C 662.127 0.850468 1.35053 0
M  V30 6579 C 662.327 -0.523868 1.94571 0
M  V30 6580 O 661.383 -1.2743 2.17986 0
M  V30 6581 C 662.696 1.96005 2.28041 0
M  V30 6582 C 664.244 1.98993 2.416 0
M  V30 6583 C 664.719 3.0916 3.37911 0
M  V30 6584 N 666.21 3.08547 3.45475 0
M  V30 6585 C 666.945 3.9043 4.19943 0
M  V30 6586 N 666.441 4.8228 4.97371 0
M  V30 6587 N 668.234 3.786 4.15474 0
M  V30 6588 H 660.385 2.00184 0.709932 0
M  V30 6589 H 662.648 0.870635 0.375099 0
M  V30 6590 H 662.354 2.9499 1.91503 0
M  V30 6591 H 662.228 1.85782 3.28275 0
M  V30 6592 H 664.615 1.00633 2.77411 0
M  V30 6593 H 664.696 2.13292 1.4121 0
M  V30 6594 H 664.34 4.07748 3.02827 0
M  V30 6595 H 664.27 2.92102 4.3816 0
M  V30 6596 H 666.761 2.42 2.90249 0
M  V30 6597 H 667.074 5.41289 5.51567 0
M  V30 6598 H 665.419 4.863 4.96525 0
M  V30 6599 H 668.61 3.06185 3.54074 0
M  V30 6600 H 668.783 4.42647 4.73253 0
M  V30 6601 N 662.189 -1.289 0.906776 0
M  V30 6602 C 663.119 -2.29932 0.406659 0
M  V30 6603 C 664.1 -1.6189 -0.522061 0
M  V30 6604 O 665.285 -1.8935 -0.431283 0
M  V30 6605 C 662.415 -3.45425 -0.360366 0
M  V30 6606 C 661.369 -4.25316 0.478574 0
M  V30 6607 C 660.695 -5.33076 -0.416373 0
M  V30 6608 C 661.995 -4.92739 1.7322 0
M  V30 6609 H 663.689 -2.72013 1.25097 0
M  V30 6610 H 661.235 -1.30768 0.602977 0
M  V30 6611 H 663.188 -4.15186 -0.721029 0
M  V30 6612 H 661.912 -3.02206 -1.23852 0
M  V30 6613 H 660.571 -3.57273 0.821662 0
M  V30 6614 H 660.219 -4.86101 -1.29287 0
M  V30 6615 H 659.919 -5.8743 0.141309 0
M  V30 6616 H 661.443 -6.05686 -0.773072 0
M  V30 6617 H 662.857 -5.54898 1.44086 0
M  V30 6618 H 661.254 -5.57057 2.23175 0
M  V30 6619 H 662.324 -4.17625 2.46408 0
M  V30 6620 N 663.667 -0.670007 -1.42649 0
M  V30 6621 C 664.913 -0.190568 -2.01903 0
M  V30 6622 C 665.246 1.19817 -1.52832 0
M  V30 6623 O 664.521 1.80342 -0.728485 0
M  V30 6624 C 664.804 -0.21991 -3.59428 0
M  V30 6625 C 664.657 -1.64376 -4.18689 0
M  V30 6626 C 665.976 0.434519 -4.3795 0
M  V30 6627 H 663.095 -0.0707219 -0.733599 0
M  V30 6628 H 665.737 -0.853883 -1.69732 0
M  V30 6629 H 663.887 0.344894 -3.86966 0
M  V30 6630 H 665.559 -2.26044 -4.02122 0
M  V30 6631 H 663.802 -2.18591 -3.747 0
M  V30 6632 H 664.473 -1.61601 -5.27815 0
M  V30 6633 H 666.949 -0.0462156 -4.16074 0
M  V30 6634 H 665.825 0.38333 -5.4756 0
M  V30 6635 H 666.086 1.51135 -4.15464 0
M  V30 6636 N 665.145 1.52092 -0.413018 0
M  V30 6637 C 666.108 2.25706 0.398687 0
M  V30 6638 C 667.108 1.28221 0.970368 0
M  V30 6639 O 668.298 1.52131 0.848635 0
M  V30 6640 C 665.43 3.03029 1.5616 0
M  V30 6641 H 666.623 2.98888 -0.246131 0
M  V30 6642 H 664.176 1.5542 -0.165622 0
M  V30 6643 H 664.911 2.34205 2.24317 0
M  V30 6644 H 664.696 3.74606 1.15812 0
M  V30 6645 H 666.186 3.58857 2.13569 0
M  V30 6646 N 666.623 0.143563 1.56945 0
M  V30 6647 C 667.553 -0.7936 2.196 0
M  V30 6648 C 668.534 -1.25955 1.14321 0
M  V30 6649 O 669.719 -1.31773 1.42651 0
M  V30 6650 C 666.849 -2.03424 2.81489 0
M  V30 6651 C 665.803 -1.70519 3.92565 0
M  V30 6652 C 665.129 -3.01817 4.41373 0
M  V30 6653 C 666.429 -0.95449 5.13504 0
M  V30 6654 H 668.123 -0.271423 2.98167 0
M  V30 6655 H 665.669 -0.12911 1.4342 0
M  V30 6656 H 667.622 -2.69463 3.23987 0
M  V30 6657 H 666.346 -2.58008 2.00248 0
M  V30 6658 H 665.005 -1.06859 3.5068 0
M  V30 6659 H 664.653 -3.54386 3.56959 0
M  V30 6660 H 664.353 -2.80565 5.16292 0
M  V30 6661 H 665.877 -3.68934 4.86539 0
M  V30 6662 H 667.291 -1.5169 5.52868 0
M  V30 6663 H 665.688 -0.842035 5.94163 0
M  V30 6664 H 666.758 0.0544033 4.84869 0
M  V30 6665 N 668.101 -1.57061 -0.130224 0
M  V30 6666 C 669.329 -1.88432 -0.854456 0
M  V30 6667 C 669.744 -0.733608 -1.73964 0
M  V30 6668 O 669.101 0.296029 -1.80083 0
M  V30 6669 C 669.152 -3.1918 -1.69724 0
M  V30 6670 O 668.873 -4.2982 -0.847705 0
M  V30 6671 C 670.374 -3.6418 -2.5276 0
M  V30 6672 H 667.594 -0.624193 -0.246221 0
M  V30 6673 H 670.138 -2.04159 -0.11798 0
M  V30 6674 H 668.293 -3.05156 -2.3866 0
M  V30 6675 H 668.707 -5.04689 -1.42792 0
M  V30 6676 H 670.181 -4.58457 -3.07443 0
M  V30 6677 H 670.658 -2.90285 -3.29592 0
M  V30 6678 H 671.264 -3.80954 -1.89087 0
M  V30 6679 N 669.579 0.400081 -1.52437 0
M  V30 6680 C 670.827 1.14392 -1.6661 0
M  V30 6681 C 671.148 1.90792 -0.402927 0
M  V30 6682 O 670.418 1.87042 0.582425 0
M  V30 6683 H 668.998 0.425275 -0.614125 0
M  V30 6684 H 671.66 0.455076 -1.89513 0
M  V30 6685 H 670.756 1.85298 -2.51139 0
M  V30 6686 N 671.057 1.43213 0.657864 0
M  V30 6687 C 672.334 1.35063 1.41483 0
M  V30 6688 C 672.714 -0.0038314 2.111 0
M  V30 6689 O 672.062 -1.02018 2.04462 0
M  V30 6690 C 672.272 2.53061 2.40335 0
M  V30 6691 C 673.62 2.9594 3.04474 0
M  V30 6692 O 674.644 2.53074 2.50663 0
M  V30 6693 O 673.503 3.70184 4.02027 0
M  V30 6694 H 670.597 0.533517 0.631893 0
M  V30 6695 H 673.143 1.55253 0.685162 0
M  V30 6696 H 671.915 3.43283 1.87809 0
M  V30 6697 H 671.538 2.34945 3.20759 0
M  V30 6698 N 672.536 -0.895792 1.29666 0
M  V30 6699 C 673.484 -2.02173 1.15017 0
M  V30 6700 C 674.478 -1.69276 0.0647651 0
M  V30 6701 O 675.684 -1.7859 0.224846 0
M  V30 6702 H 672.059 -0.662719 0.355397 0
M  V30 6703 H 674.03 -2.11666 2.10334 0
M  V30 6704 C 672.779 -3.37212 0.847555 0
M  V30 6705 H 672.102 -3.6303 1.67479 0
M  V30 6706 H 673.542 -4.16668 0.785106 0
M  V30 6707 C 672.001 -3.33891 -0.44929 0
M  V30 6708 O 672.531 -3.73673 -1.47415 0
M  V30 6709 N 670.737 -2.86991 -0.456547 0
M  V30 6710 H 670.284 -2.54813 0.377925 0
M  V30 6711 H 670.242 -2.85152 -1.32423 0
M  V30 6712 N 674.014 -1.12206 -1.10668 0
M  V30 6713 C 674.924 -0.800686 -2.20513 0
M  V30 6714 C 675.94 0.209512 -1.72734 0
M  V30 6715 O 677.116 0.043705 -2.01353 0
M  V30 6716 C 674.181 -0.257353 -3.45744 0
M  V30 6717 C 673.242 -1.32718 -4.0827 0
M  V30 6718 C 672.475 -0.809674 -5.27522 0
M  V30 6719 O 672.698 0.35742 -5.69279 0
M  V30 6720 O 671.632 -1.57816 -5.80842 0
M  V30 6721 H 675.458 -1.71807 -2.50432 0
M  V30 6722 H 673.043 -0.898546 -1.19359 0
M  V30 6723 H 674.925 0.0408849 -4.2138 0
M  V30 6724 H 673.6 0.632627 -3.17458 0
M  V30 6725 H 672.507 -1.67855 -3.34329 0
M  V30 6726 H 673.84 -2.19083 -4.40753 0
M  V30 6727 N 675.492 1.28418 -0.913599 0
M  V30 6728 C 676.439 2.27301 -0.400373 0
M  V30 6729 C 677.409 1.57582 0.52509 0
M  V30 6730 O 678.594 1.85482 0.447318 0
M  V30 6731 C 675.734 3.43284 0.35361 0
M  V30 6732 C 674.847 4.27752 -0.604341 0
M  V30 6733 C 673.982 5.30934 0.168075 0
M  V30 6734 C 673.021 6.07065 -0.783499 0
M  V30 6735 N 672.158 7.02086 -0.0446112 0
M  V30 6736 H 676.998 2.70579 -1.24865 0
M  V30 6737 H 674.535 1.33067 -0.627028 0
M  V30 6738 H 676.493 4.09322 0.806945 0
M  V30 6739 H 675.123 3.00997 1.16623 0
M  V30 6740 H 674.175 3.61759 -1.17621 0
M  V30 6741 H 675.487 4.80682 -1.33216 0
M  V30 6742 H 674.641 6.02855 0.681979 0
M  V30 6743 H 673.38 4.78771 0.928947 0
M  V30 6744 H 672.385 5.33995 -1.30878 0
M  V30 6745 H 673.61 6.61317 -1.54392 0
M  V30 6746 H 671.556 6.52273 0.698272 0
M  V30 6747 H 671.473 7.52637 -0.712258 0
M  V30 6748 H 672.741 7.78205 0.449102 0
M  V30 6749 N 676.97 0.677563 1.42291 0
M  V30 6750 C 677.933 0.0101085 2.29198 0
M  V30 6751 C 678.933 -0.726219 1.43467 0
M  V30 6752 O 680.123 -0.563807 1.64824 0
M  V30 6753 C 677.255 -0.996316 3.26016 0
M  V30 6754 H 678.448 0.775071 2.89711 0
M  V30 6755 H 676.001 0.440065 1.49977 0
M  V30 6756 H 676.736 -1.78967 2.70446 0
M  V30 6757 H 676.521 -0.471687 3.89253 0
M  V30 6758 H 678.011 -1.46167 3.91184 0
M  V30 6759 N 678.448 -1.51871 0.421078 0
M  V30 6760 C 679.673 -2.0684 -0.152371 0
M  V30 6761 C 680.098 -1.28802 -1.37083 0
M  V30 6762 O 679.456 -0.321482 -1.78427 0
M  V30 6763 C 679.504 -3.57532 -0.469368 0
M  V30 6764 O 678.608 -3.81818 -1.55848 0
M  V30 6765 H 677.949 -0.663939 -0.00898586 0
M  V30 6766 H 680.479 -1.95674 0.597724 0
M  V30 6767 H 680.489 -4.01515 -0.724553 0
M  V30 6768 H 679.164 -4.13761 0.421276 0
M  V30 6769 H 677.741 -3.49709 -1.29453 0
M  V30 6770 N 679.926 -0.151884 -1.56866 0
M  V30 6771 C 681.342 0.204486 -1.58285 0
M  V30 6772 C 681.542 1.6431 -1.16639 0
M  V30 6773 O 680.598 2.37077 -0.868946 0
M  V30 6774 C 681.911 -0.0587019 -3.00643 0
M  V30 6775 C 683.459 0.00462303 -3.13 0
M  V30 6776 C 683.934 -0.231297 -4.57416 0
M  V30 6777 N 685.425 -0.178394 -4.62856 0
M  V30 6778 C 686.16 -0.335379 -5.72418 0
M  V30 6779 N 685.656 -0.550355 -6.90611 0
M  V30 6780 N 687.449 -0.272641 -5.61438 0
M  V30 6781 H 679.6 -1.09116 -1.82229 0
M  V30 6782 H 681.863 -0.432311 -0.843689 0
M  V30 6783 H 681.569 -1.05453 -3.35518 0
M  V30 6784 H 681.443 0.658508 -3.71407 0
M  V30 6785 H 683.83 0.991009 -2.77962 0
M  V30 6786 H 683.911 -0.744992 -2.44711 0
M  V30 6787 H 683.555 -1.2148 -4.93158 0
M  V30 6788 H 683.485 0.5387 -5.23837 0
M  V30 6789 H 685.976 -0.0170923 -3.77896 0
M  V30 6790 H 686.289 -0.660116 -7.69976 0
M  V30 6791 H 684.634 -0.586736 -6.92519 0
M  V30 6792 H 687.825 -0.105421 -4.67981 0
M  V30 6793 H 687.998 -0.398418 -6.46774 0
M  V30 6794 N 681.404 1.57128 0.121893 0
M  V30 6795 C 682.367 1.99197 1.13372 0
M  V30 6796 C 683.367 0.881728 1.3447 0
M  V30 6797 O 684.557 1.14783 1.31036 0
M  V30 6798 C 681.689 2.32963 2.4888 0
M  V30 6799 H 682.882 2.89788 0.772204 0
M  V30 6800 H 680.435 1.51952 0.366093 0
M  V30 6801 H 681.17 1.45243 2.89957 0
M  V30 6802 H 680.955 3.13934 2.34921 0
M  V30 6803 H 682.445 2.66261 3.21706 0
M  V30 6804 N 682.882 -0.391992 1.52647 0
M  V30 6805 C 683.812 -1.48517 1.8018 0
M  V30 6806 C 684.793 -1.57039 0.653667 0
M  V30 6807 O 685.978 -1.72036 0.900962 0
M  V30 6808 C 683.108 -2.86161 1.96797 0
M  V30 6809 C 682.062 -2.92481 3.12472 0
M  V30 6810 C 681.388 -4.32546 3.14338 0
M  V30 6811 C 682.688 -2.624 4.51601 0
M  V30 6812 H 684.382 -1.25726 2.71723 0
M  V30 6813 H 681.928 -0.603387 1.30749 0
M  V30 6814 H 683.881 -3.62639 2.14641 0
M  V30 6815 H 682.605 -3.10283 1.01941 0
M  V30 6816 H 681.264 -2.18451 2.94406 0
M  V30 6817 H 680.912 -4.53703 2.1717 0
M  V30 6818 H 680.612 -4.37695 3.92042 0
M  V30 6819 H 682.136 -5.10934 3.34333 0
M  V30 6820 H 683.55 -3.28596 4.69785 0
M  V30 6821 H 681.947 -2.78903 5.3135 0
M  V30 6822 H 683.017 -1.57754 4.58521 0
M  V30 6823 N 684.36 -1.4356 -0.65026 0
M  V30 6824 C 685.6 -1.46839 -1.42188 0
M  V30 6825 C 685.964 -0.0911433 -1.91784 0
M  V30 6826 O 687.165 0.00137545 -2.688 0
M  V30 6827 C 685.436 -2.48411 -2.56957 0
M  V30 6828 S 686.995 -2.70589 -3.45438 0
M  V30 6829 H 683.813 -0.519596 -0.485325 0
M  V30 6830 H 686.415 -1.80347 -0.75466 0
M  V30 6831 H 685.119 -3.47209 -2.18801 0
M  V30 6832 H 684.65 -2.16411 -3.28527 0
M  V30 6833 H 686.665 -2.00738 -4.53782 0
M  V30 6834 N 685.838 0.888903 -1.30139 0
M  V30 6835 C 687.086 1.63713 -1.18501 0
M  V30 6836 C 687.407 1.9324 0.261399 0
M  V30 6837 O 686.677 1.56608 1.17689 0
M  V30 6838 H 685.257 0.606861 -0.435579 0
M  V30 6839 H 687.919 1.06525 -1.63213 0
M  V30 6840 H 687.015 2.58894 -1.743 0
M  V30 6841 N 687.317 1.12792 1.10072 0
M  V30 6842 C 688.265 0.794523 2.18609 0
M  V30 6843 C 689.259 -0.220271 1.67962 0
M  V30 6844 O 690.465 -0.0780938 1.79831 0
M  V30 6845 H 686.84 0.239123 0.712969 0
M  V30 6846 H 688.811 1.71823 2.43966 0
M  V30 6847 C 687.56 0.269548 3.46654 0
M  V30 6848 H 686.883 1.04171 3.8599 0
M  V30 6849 H 688.323 0.0746242 4.23934 0
M  V30 6850 C 686.782 -1.00333 3.21613 0
M  V30 6851 O 687.312 -2.08042 3.4363 0
M  V30 6852 N 685.518 -0.931763 2.75257 0
M  V30 6853 H 685.065 -0.0551197 2.57541 0
M  V30 6854 H 685.023 -1.78405 2.58881 0
M  V30 6855 N 688.795 -1.27931 0.920396 0
M  V30 6856 C 689.725 -2.29487 0.431024 0
M  V30 6857 C 690.706 -1.62435 -0.504861 0
M  V30 6858 O 691.891 -1.89797 -0.411176 0
M  V30 6859 C 689.021 -3.45788 -0.323709 0
M  V30 6860 C 687.975 -4.24784 0.523658 0
M  V30 6861 C 687.301 -5.33488 -0.359809 0
M  V30 6862 C 688.601 -4.90874 1.78437 0
M  V30 6863 H 690.295 -2.70671 1.27975 0
M  V30 6864 H 687.841 -1.30121 0.616813 0
M  V30 6865 H 689.794 -4.15927 -0.676952 0
M  V30 6866 H 688.518 -3.03502 -1.2064 0
M  V30 6867 H 687.177 -3.56382 0.85951 0
M  V30 6868 H 686.825 -4.87445 -1.24124 0
M  V30 6869 H 686.525 -5.87247 0.203605 0
M  V30 6870 H 688.049 -6.06472 -0.708787 0
M  V30 6871 H 689.463 -5.53339 1.49963 0
M  V30 6872 H 687.86 -5.54659 2.29071 0
M  V30 6873 H 688.93 -4.14988 2.50824 0
M  V30 6874 N 690.273 -0.685099 -1.4193 0
M  V30 6875 C 691.205 0.0258679 -2.29185 0
M  V30 6876 C 692.218 0.755076 -1.44231 0
M  V30 6877 O 693.407 0.60752 -1.67844 0
M  V30 6878 C 690.507 1.06055 -3.21878 0
M  V30 6879 C 689.68 0.403088 -4.35539 0
M  V30 6880 C 688.739 1.33895 -5.0888 0
M  V30 6881 O 687.765 0.835326 -5.63037 0
M  V30 6882 N 688.967 2.6718 -5.15359 0
M  V30 6883 H 691.732 -0.723201 -2.90843 0
M  V30 6884 H 689.293 -0.53031 -1.52968 0
M  V30 6885 H 691.285 1.68813 -3.6781 0
M  V30 6886 H 689.855 1.71126 -2.616 0
M  V30 6887 H 689.075 -0.404185 -3.92122 0
M  V30 6888 H 690.363 -0.0545098 -5.08771 0
M  V30 6889 H 689.761 3.10626 -4.72788 0
M  V30 6890 H 688.318 3.25159 -5.64903 0
M  V30 6891 N 691.751 1.51645 -0.429126 0
M  V30 6892 C 692.681 2.30434 0.377148 0
M  V30 6893 C 693.662 1.35493 1.02838 0
M  V30 6894 O 694.847 1.6441 1.03359 0
M  V30 6895 C 691.977 3.14038 1.48315 0
M  V30 6896 C 690.931 4.1719 0.955855 0
M  V30 6897 C 690.257 4.89263 2.15698 0
M  V30 6898 C 691.557 5.223 -0.00402136 0
M  V30 6899 H 693.251 2.98085 -0.280336 0
M  V30 6900 H 690.797 1.43354 -0.136265 0
M  V30 6901 H 692.75 3.67933 2.05435 0
M  V30 6902 H 691.474 2.44193 2.16881 0
M  V30 6903 H 690.133 3.64335 0.406929 0
M  V30 6904 H 689.781 4.15929 2.82864 0
M  V30 6905 H 689.481 5.59009 1.81059 0
M  V30 6906 H 691.005 5.45978 2.73387 0
M  V30 6907 H 692.419 5.71315 0.476607 0
M  V30 6908 H 690.816 5.99525 -0.26258 0
M  V30 6909 H 691.886 4.75638 -0.943236 0
M  V30 6910 N 693.229 0.160201 1.56784 0
M  V30 6911 C 694.192 -0.760405 2.16219 0
M  V30 6912 C 695.192 -1.16595 1.10735 0
M  V30 6913 O 696.382 -1.08472 1.36306 0
M  V30 6914 C 693.514 -2.03358 2.73603 0
M  V30 6915 H 694.707 -0.243173 2.98912 0
M  V30 6916 H 692.26 -0.0893139 1.56045 0
M  V30 6917 H 692.995 -2.59416 1.94612 0
M  V30 6918 H 692.78 -1.75186 3.50788 0
M  V30 6919 H 694.27 -2.69081 3.19351 0
M  V30 6920 N 694.707 -1.5719 -0.113559 0
M  V30 6921 C 695.932 -1.89702 -0.838336 0
M  V30 6922 C 696.357 -0.752679 -1.72384 0
M  V30 6923 O 695.715 0.296575 -1.78858 0
M  V30 6924 C 695.763 -3.20989 -1.64312 0
M  V30 6925 O 694.867 -3.07278 -2.75053 0
M  V30 6926 H 694.208 -0.622339 -0.231496 0
M  V30 6927 H 696.738 -2.04382 -0.0943228 0
M  V30 6928 H 696.748 -3.53843 -2.03123 0
M  V30 6929 H 695.423 -4.03869 -0.993119 0
M  V30 6930 H 694 -2.85901 -2.39406 0
M  V30 6931 N 696.185 0.383891 -1.52853 0
M  V30 6932 C 697.432 1.12842 -1.68146 0
M  V30 6933 C 697.76 1.89823 -0.423954 0
M  V30 6934 O 697.015 1.86475 0.593765 0
M  V30 6935 C 697.314 2.12881 -2.87082 0
M  V30 6936 C 696.98 1.52519 -4.24322 0
M  V30 6937 C 695.642 1.35783 -4.61645 0
M  V30 6938 C 697.994 1.0868 -5.09743 0
M  V30 6939 C 695.322 0.737643 -5.82044 0
M  V30 6940 C 697.674 0.480699 -6.30771 0
M  V30 6941 C 696.338 0.300681 -6.66822 0
M  V30 6942 H 695.608 0.412917 -0.615289 0
M  V30 6943 H 698.255 0.412416 -1.87006 0
M  V30 6944 H 696.56 2.90719 -2.62659 0
M  V30 6945 H 698.257 2.70408 -2.96109 0
M  V30 6946 H 694.847 1.66534 -3.94923 0
M  V30 6947 H 699.031 1.2041 -4.81472 0
M  V30 6948 H 694.287 0.586415 -6.08581 0
M  V30 6949 H 698.461 0.132733 -6.96273 0
M  V30 6950 H 696.088 -0.181966 -7.59982 0
M  V30 6951 N 697.663 1.43903 0.642637 0
M  V30 6952 C 699.079 1.27536 0.959519 0
M  V30 6953 C 699.279 0.202751 2.00477 0
M  V30 6954 O 698.335 -0.415256 2.49062 0
M  V30 6955 C 699.648 2.6432 1.43372 0
M  V30 6956 C 701.196 2.71937 1.54981 0
M  V30 6957 C 701.671 4.09164 2.05789 0
M  V30 6958 N 703.162 4.11282 2.13076 0
M  V30 6959 C 703.897 5.14303 2.53534 0
M  V30 6960 N 703.393 6.27693 2.93212 0
M  V30 6961 N 705.186 5.01657 2.53567 0
M  V30 6962 H 697.337 2.12344 -0.0488376 0
M  V30 6963 H 699.6 0.947124 0.0407559 0
M  V30 6964 H 699.306 3.43826 0.740048 0
M  V30 6965 H 699.18 2.90432 2.40685 0
M  V30 6966 H 701.567 1.92757 2.23448 0
M  V30 6967 H 701.648 2.49578 0.560739 0
M  V30 6968 H 701.292 4.88815 1.37921 0
M  V30 6969 H 701.222 4.28893 3.05546 0
M  V30 6970 H 703.713 3.2944 1.85143 0
M  V30 6971 H 704.026 7.02125 3.22863 0
M  V30 6972 H 702.371 6.31149 2.90991 0
M  V30 6973 H 705.562 4.12134 2.21952 0
M  V30 6974 H 705.735 5.82072 2.84774 0
M  V30 6975 N 699.141 -0.881989 1.30609 0
M  V30 6976 C 700.366 -1.67236 1.22665 0
M  V30 6977 C 700.791 -1.8696 -0.206777 0
M  V30 6978 O 700.149 -1.4027 -1.14865 0
M  V30 6979 C 700.197 -3.02446 1.96363 0
M  V30 6980 O 699.301 -3.91614 1.29276 0
M  V30 6981 H 698.642 -0.510902 0.424117 0
M  V30 6982 H 701.172 -1.10055 1.72479 0
M  V30 6983 H 701.182 -3.52468 2.055 0
M  V30 6984 H 699.857 -2.8741 3.00613 0
M  V30 6985 H 698.434 -3.50055 1.28514 0
M  V30 6986 N 700.619 -1.13374 -1.09472 0
M  V30 6987 C 701.844 -0.918711 -1.85942 0
M  V30 6988 C 702.269 0.527225 -1.8056 0
M  V30 6989 O 701.627 1.37408 -1.18274 0
M  V30 6990 C 701.675 -1.41056 -3.31867 0
M  V30 6991 O 700.779 -0.595496 -4.08078 0
M  V30 6992 H 700.12 -0.329297 -0.576593 0
M  V30 6993 H 702.65 -1.50829 -1.38245 0
M  V30 6994 H 702.66 -1.41398 -3.82715 0
M  V30 6995 H 701.335 -2.46335 -3.35099 0
M  V30 6996 H 699.912 -0.659911 -3.67014 0
M  V30 6997 N 702.098 1.27442 -0.927168 0
M  V30 6998 C 703.375 1.89473 -0.485742 0
M  V30 6999 C 703.755 1.83922 1.03614 0
M  V30 7000 O 703.103 1.28409 1.89007 0
M  V30 7001 C 703.313 3.33417 -1.03123 0
M  V30 7002 C 704.661 4.10333 -1.0914 0
M  V30 7003 O 705.685 3.4243 -0.98082 0
M  V30 7004 O 704.544 5.31737 -1.26165 0
M  V30 7005 H 701.638 0.812124 -0.156154 0
M  V30 7006 H 704.184 1.35713 -1.01882 0
M  V30 7007 H 702.956 3.31747 -2.07508 0
M  V30 7008 H 702.579 3.94695 -0.479767 0
M  V30 7009 N 703.576 0.692616 1.41565 0
M  V30 7010 C 704.539 0.0344174 2.29174 0
M  V30 7011 C 705.539 -0.710961 1.44229 0
M  V30 7012 O 706.729 -0.546293 1.65412 0
M  V30 7013 C 703.861 -0.961682 3.27054 0
M  V30 7014 H 705.054 0.805755 2.88873 0
M  V30 7015 H 702.607 0.455947 1.49502 0
M  V30 7016 H 703.342 -1.76089 2.72329 0
M  V30 7017 H 703.127 -0.430375 3.89731 0
M  V30 7018 H 704.617 -1.4201 3.92712 0
M  V30 7019 N 705.054 -1.51416 0.437162 0
M  V30 7020 C 706.017 -2.26312 -0.362729 0
M  V30 7021 C 707.017 -1.29748 -0.949847 0
M  V30 7022 O 708.207 -1.53462 -0.824325 0
M  V30 7023 C 705.339 -3.05475 -1.5132 0
M  V30 7024 H 706.532 -2.98459 0.29365 0
M  V30 7025 H 704.085 -1.55137 0.190327 0
M  V30 7026 H 704.82 -2.37744 -2.20563 0
M  V30 7027 H 704.605 -3.76401 -1.09838 0
M  V30 7028 H 706.095 -3.62209 -2.07833 0
M  V30 7029 N 706.532 -0.168513 -1.56696 0
M  V30 7030 C 707.479 0.762875 -2.17828 0
M  V30 7031 C 708.449 1.22892 -1.11745 0
M  V30 7032 O 709.634 1.29759 -1.39883 0
M  V30 7033 C 706.774 1.9879 -2.82093 0
M  V30 7034 C 705.887 1.56568 -4.02629 0
M  V30 7035 C 705.022 2.74416 -4.54829 0
M  V30 7036 C 704.061 2.28671 -5.67782 0
M  V30 7037 N 703.198 3.39602 -6.14504 0
M  V30 7038 H 708.038 0.23479 -2.97074 0
M  V30 7039 H 705.575 0.104163 -1.46731 0
M  V30 7040 H 707.533 2.70636 -3.17509 0
M  V30 7041 H 706.163 2.48973 -2.05456 0
M  V30 7042 H 705.215 0.744067 -3.73052 0
M  V30 7043 H 706.527 1.18988 -4.844 0
M  V30 7044 H 705.681 3.54423 -4.92412 0
M  V30 7045 H 704.42 3.15254 -3.7211 0
M  V30 7046 H 703.425 1.4711 -5.29753 0
M  V30 7047 H 704.65 1.88894 -6.52301 0
M  V30 7048 H 702.596 3.80021 -5.34715 0
M  V30 7049 H 702.513 3.06105 -6.91257 0
M  V30 7050 H 703.781 4.19902 -6.56737 0
M  V30 7051 N 708.01 1.57248 0.105221 0
M  V30 7052 C 709.256 1.86719 0.806692 0
M  V30 7053 C 709.611 0.758061 1.76837 0
M  V30 7054 O 708.904 -0.240812 1.90081 0
M  V30 7055 C 709.098 3.20437 1.58287 0
M  V30 7056 C 708.927 4.44252 0.697864 0
M  V30 7057 C 707.697 5.04104 0.347444 0
M  V30 7058 C 709.895 5.14299 0.00933014 0
M  V30 7059 N 707.877 6.1146 -0.546786 0
M  V30 7060 C 709.248 6.15528 -0.74336 0
M  V30 7061 C 711.303 4.97857 -0.0656505 0
M  V30 7062 C 710.006 7.02091 -1.56401 0
M  V30 7063 C 712.032 5.84919 -0.873167 0
M  V30 7064 C 711.394 6.8566 -1.61401 0
M  V30 7065 H 707.493 0.73329 0.271679 0
M  V30 7066 H 710.077 1.94575 0.0697152 0
M  V30 7067 H 708.248 3.13651 2.29079 0
M  V30 7068 H 709.98 3.37668 2.23075 0
M  V30 7069 H 706.735 4.68505 0.692817 0
M  V30 7070 H 707.159 6.69779 -0.986157 0
M  V30 7071 H 711.801 4.19919 0.492768 0
M  V30 7072 H 709.519 7.79427 -2.13353 0
M  V30 7073 H 713.105 5.74259 -0.933724 0
M  V30 7074 H 711.985 7.5186 -2.2288 0
M  V30 7075 N 709.488 -0.375779 1.53054 0
M  V30 7076 C 710.451 -1.44254 1.7811 0
M  V30 7077 C 711.451 -1.47018 0.651328 0
M  V30 7078 O 712.641 -1.47957 0.919472 0
M  V30 7079 C 709.773 -2.8345 1.89391 0
M  V30 7080 H 710.966 -1.23316 2.73374 0
M  V30 7081 H 708.519 -0.608312 1.43977 0
M  V30 7082 H 709.254 -3.09716 0.961589 0
M  V30 7083 H 709.039 -2.82844 2.71555 0
M  V30 7084 H 710.529 -3.60722 2.10404 0
M  V30 7085 N 710.966 -1.44241 -0.634997 0
M  V30 7086 C 712.243 -1.37296 -1.39317 0
M  V30 7087 C 712.623 -0.0297532 -2.11079 0
M  V30 7088 O 711.971 0.987524 -2.06059 0
M  V30 7089 C 712.181 -2.56853 -2.36279 0
M  V30 7090 C 713.529 -3.00747 -2.99728 0
M  V30 7091 O 714.553 -2.5703 -2.46605 0
M  V30 7092 O 713.412 -3.76533 -3.96087 0
M  V30 7093 H 710.506 -0.543503 -0.623325 0
M  V30 7094 H 713.052 -1.56324 -0.660376 0
M  V30 7095 H 711.824 -3.46228 -1.82324 0
M  V30 7096 H 711.447 -2.40019 -3.16981 0
M  V30 7097 N 712.444 0.87505 -1.31075 0
M  V30 7098 C 713.692 1.62447 -1.20231 0
M  V30 7099 C 714.013 1.93506 0.240888 0
M  V30 7100 O 713.283 1.57847 1.16022 0
M  V30 7101 H 711.863 0.602207 -0.441991 0
M  V30 7102 H 714.525 1.04788 -1.64334 0
M  V30 7103 H 713.621 2.57031 -1.77036 0
M  V30 7104 N 713.922 1.13953 1.08869 0
M  V30 7105 C 714.869 0.82213 2.15661 0
M  V30 7106 C 715.839 -0.218274 1.6466 0
M  V30 7107 O 717.024 -0.0892475 1.90591 0
M  V30 7108 C 714.164 0.300572 3.43789 0
M  V30 7109 C 713.277 1.40071 4.08661 0
M  V30 7110 C 712.412 0.836897 5.24566 0
M  V30 7111 C 711.451 1.91504 5.81371 0
M  V30 7112 N 710.588 1.36875 6.88629 0
M  V30 7113 H 715.428 1.73683 2.42153 0
M  V30 7114 H 712.965 0.866879 1.18843 0
M  V30 7115 H 714.923 -0.0199943 4.17195 0
M  V30 7116 H 713.553 -0.577248 3.17597 0
M  V30 7117 H 712.605 1.83776 3.33062 0
M  V30 7118 H 713.917 2.21534 4.46905 0
M  V30 7119 H 713.071 0.467953 6.04893 0
M  V30 7120 H 711.81 -0.00874207 4.87699 0
M  V30 7121 H 710.815 2.29299 4.99702 0
M  V30 7122 H 712.04 2.76419 6.20298 0
M  V30 7123 H 709.986 0.545211 6.5373 0
M  V30 7124 H 709.903 2.1198 7.25672 0
M  V30 7125 H 711.171 1.02756 7.72698 0
M  V30 7126 N 715.4 -1.26948 0.933913 0
M  V30 7127 C 716.811 -1.76058 0.621324 0
M  V30 7128 C 717.162 -1.76175 -0.863522 0
M  V30 7129 O 716.287 -1.36921 -1.67576 0
M  V30 7130 C 716.882 -3.19713 1.12111 0
M  V30 7131 C 715.441 -3.66465 0.859074 0
M  V30 7132 C 714.588 -2.46186 1.27624 0
M  V30 7133 H 717.539 -1.13127 1.11301 0
M  V30 7134 H 717.56 -3.77566 0.471608 0
M  V30 7135 H 717.072 -3.19596 2.20182 0
M  V30 7136 H 715.173 -3.72021 -0.207566 0
M  V30 7137 H 715.286 -4.55636 1.48098 0
M  V30 7138 H 713.65 -2.45042 0.694727 0
M  V30 7139 H 714.433 -2.48774 2.36572 0
M  V30 7140 N 716.879 -0.700114 -1.41195 0
M  V30 7141 C 718.109 -0.241828 -2.0518 0
M  V30 7142 C 718.517 1.1157 -1.52803 0
M  V30 7143 O 717.86 1.70926 -0.673042 0
M  V30 7144 C 717.922 -0.12695 -3.59276 0
M  V30 7145 C 717.586 -1.41725 -4.34469 0
M  V30 7146 C 718.583 -2.35604 -4.63451 0
M  V30 7147 C 716.268 -1.67189 -4.73659 0
M  V30 7148 C 718.262 -3.53204 -5.3059 0
M  V30 7149 C 715.949 -2.85073 -5.40534 0
M  V30 7150 C 716.947 -3.77904 -5.68927 0
M  V30 7151 O 716.635 -4.93723 -6.34424 0
M  V30 7152 H 716.367 -0.109247 -0.667114 0
M  V30 7153 H 718.921 -0.954538 -1.81873 0
M  V30 7154 H 717.151 0.641571 -3.81341 0
M  V30 7155 H 718.84 0.294748 -4.04828 0
M  V30 7156 H 719.606 -2.1719 -4.33651 0
M  V30 7157 H 715.485 -0.957935 -4.50937 0
M  V30 7158 H 719.029 -4.25679 -5.52669 0
M  V30 7159 H 714.926 -3.03402 -5.69752 0
M  V30 7160 H 715.694 -4.93597 -6.5292 0
M  V30 7161 N 718.357 1.51182 -0.445186 0
M  V30 7162 C 719.32 2.26501 0.350722 0
M  V30 7163 C 720.32 1.3025 0.942952 0
M  V30 7164 O 721.51 1.53897 0.816175 0
M  V30 7165 C 718.642 3.06274 1.49697 0
M  V30 7166 H 719.835 2.98299 -0.309474 0
M  V30 7167 H 717.388 1.55034 -0.198551 0
M  V30 7168 H 718.123 2.38911 2.19299 0
M  V30 7169 H 717.908 3.76979 1.0784 0
M  V30 7170 H 719.398 3.63306 2.05909 0
M  V30 7171 N 719.835 0.176821 1.56605 0
M  V30 7172 C 720.765 -0.746841 2.21234 0
M  V30 7173 C 721.746 -1.23502 1.16967 0
M  V30 7174 O 722.931 -1.28718 1.45414 0
M  V30 7175 C 720.061 -1.97407 2.8574 0
M  V30 7176 C 719.015 -1.62153 3.96094 0
M  V30 7177 C 718.341 -2.92387 4.47676 0
M  V30 7178 C 719.641 -0.845353 5.15413 0
M  V30 7179 H 721.335 -0.208116 2.98676 0
M  V30 7180 H 718.881 -0.0986594 1.43662 0
M  V30 7181 H 720.834 -2.62531 3.2963 0
M  V30 7182 H 719.558 -2.53703 2.05676 0
M  V30 7183 H 718.217 -0.993964 3.52868 0
M  V30 7184 H 717.865 -3.46734 3.64396 0
M  V30 7185 H 717.565 -2.69551 5.22127 0
M  V30 7186 H 719.089 -3.5853 4.94255 0
M  V30 7187 H 720.503 -1.39929 5.55961 0
M  V30 7188 H 718.9 -0.715814 5.95815 0
M  V30 7189 H 719.97 0.157239 4.84645 0
M  V30 7190 N 721.313 -1.57302 -0.09688 0
M  V30 7191 C 722.263 -1.98369 -1.12399 0
M  V30 7192 C 723.247 -0.861872 -1.3587 0
M  V30 7193 O 724.439 -1.1257 -1.36591 0
M  V30 7194 C 721.568 -2.41017 -2.4447 0
M  V30 7195 C 720.654 -3.59881 -2.24381 0
M  V30 7196 N 721.045 -4.74872 -1.74155 0
M  V30 7197 C 719.343 -3.65943 -2.54954 0
M  V30 7198 C 720.044 -5.56823 -1.68294 0
M  V30 7199 N 719.02 -4.99942 -2.13444 0
M  V30 7200 H 722.822 -2.84726 -0.728575 0
M  V30 7201 H 720.336 -1.59523 -0.304332 0
M  V30 7202 H 722.333 -2.68665 -3.18786 0
M  V30 7203 H 720.993 -1.56036 -2.84751 0
M  V30 7204 H 722.004 -4.97657 -1.43379 0
M  V30 7205 H 718.681 -2.9162 -2.98771 0
M  V30 7206 H 720.071 -6.59099 -1.30528 0
M  V30 7207 N 722.791 0.367657 -1.53252 0
M  V30 7208 C 723.741 1.45035 -1.75923 0
M  V30 7209 C 724.725 1.48736 -0.613719 0
M  V30 7210 O 725.917 1.54012 -0.872313 0
M  V30 7211 C 723.046 2.82493 -1.9507 0
M  V30 7212 C 722.132 2.83279 -3.15617 0
M  V30 7213 N 722.523 2.53712 -4.37566 0
M  V30 7214 C 720.821 3.1444 -3.16297 0
M  V30 7215 C 721.522 2.62123 -5.19294 0
M  V30 7216 N 720.498 2.96747 -4.55458 0
M  V30 7217 H 724.3 1.21035 -2.6782 0
M  V30 7218 H 721.814 0.575822 -1.51849 0
M  V30 7219 H 723.811 3.60473 -2.0944 0
M  V30 7220 H 722.471 3.07459 -1.044 0
M  V30 7221 H 723.482 2.27344 -4.65333 0
M  V30 7222 H 720.159 3.44733 -2.35511 0
M  V30 7223 H 721.549 2.42628 -6.26563 0
M  V30 7224 N 724.269 1.44576 0.627338 0
M  V30 7225 C 725.216 1.51734 1.73912 0
M  V30 7226 C 726.186 0.364745 1.62046 0
M  V30 7227 O 727.371 0.575503 1.81914 0
M  V30 7228 C 724.511 1.47116 3.12171 0
M  V30 7229 C 723.624 2.72778 3.34986 0
M  V30 7230 C 722.759 2.59968 4.63239 0
M  V30 7231 C 721.798 3.80776 4.79245 0
M  V30 7232 N 720.935 3.66618 5.98778 0
M  V30 7233 H 725.775 2.46722 1.6713 0
M  V30 7234 H 723.312 1.22444 0.815224 0
M  V30 7235 H 725.27 1.42429 3.92135 0
M  V30 7236 H 723.9 0.556928 3.17959 0
M  V30 7237 H 722.952 2.87637 2.48936 0
M  V30 7238 H 724.264 3.62441 3.42692 0
M  V30 7239 H 723.418 2.53135 5.51369 0
M  V30 7240 H 722.157 1.67872 4.57898 0
M  V30 7241 H 721.162 3.87989 3.89544 0
M  V30 7242 H 722.387 4.73913 4.86398 0
M  V30 7243 H 720.333 2.77277 5.9452 0
M  V30 7244 H 720.25 4.499 6.07557 0
M  V30 7245 H 721.518 3.63684 6.89459 0
M  V30 7246 N 725.747 -0.868086 1.31537 0
M  V30 7247 C 726.677 -1.99131 1.21939 0
M  V30 7248 C 727.658 -1.69768 0.106166 0
M  V30 7249 O 728.843 -1.92006 0.291081 0
M  V30 7250 C 725.973 -3.34676 0.927879 0
M  V30 7251 C 724.927 -3.7835 2.00088 0
M  V30 7252 C 724.253 -5.11375 1.56203 0
M  V30 7253 C 725.553 -3.95256 3.41424 0
M  V30 7254 H 727.247 -2.07419 2.15911 0
M  V30 7255 H 724.793 -0.996569 1.03945 0
M  V30 7256 H 726.746 -4.12793 0.847327 0
M  V30 7257 H 725.47 -3.26565 -0.0475042 0
M  V30 7258 H 724.129 -3.02474 2.07135 0
M  V30 7259 H 723.777 -4.99709 0.57445 0
M  V30 7260 H 723.477 -5.41568 2.27985 0
M  V30 7261 H 725.001 -5.92001 1.49558 0
M  V30 7262 H 726.415 -4.63764 3.3704 0
M  V30 7263 H 724.812 -4.36849 4.1144 0
M  V30 7264 H 725.882 -2.98579 3.82072 0
M  V30 7265 N 727.225 -1.14528 -1.08264 0
M  V30 7266 C 728.471 -0.91576 -1.80947 0
M  V30 7267 C 728.804 0.55623 -1.86064 0
M  V30 7268 O 728.079 1.41207 -1.33756 0
M  V30 7269 C 728.362 -1.51917 -3.26486 0
M  V30 7270 C 728.215 -3.06111 -3.2957 0
M  V30 7271 C 729.534 -1.19724 -4.23502 0
M  V30 7272 H 726.653 -0.334113 -0.656915 0
M  V30 7273 H 729.295 -1.41547 -1.26746 0
M  V30 7274 H 727.445 -1.0942 -3.72773 0
M  V30 7275 H 729.117 -3.57448 -2.91597 0
M  V30 7276 H 727.36 -3.40483 -2.688 0
M  V30 7277 H 728.031 -3.43438 -4.32151 0
M  V30 7278 H 730.507 -1.56467 -3.85561 0
M  V30 7279 H 729.383 -1.64575 -5.23647 0
M  V30 7280 H 729.644 -0.112771 -4.41956 0
M  V30 7281 N 728.703 1.26451 -0.940633 0
M  V30 7282 C 729.928 1.98407 -0.60412 0
M  V30 7283 C 730.353 1.69584 0.81382 0
M  V30 7284 O 729.711 0.943553 1.54812 0
M  V30 7285 C 729.759 3.50387 -0.852136 0
M  V30 7286 O 728.863 4.1233 0.076013 0
M  V30 7287 H 728.204 0.622466 -0.231153 0
M  V30 7288 H 730.734 1.60932 -1.26342 0
M  V30 7289 H 730.744 4.00614 -0.772816 0
M  V30 7290 H 729.419 3.70696 -1.88566 0
M  V30 7291 H 727.996 3.7286 -0.0543187 0
M  V30 7292 N 730.181 0.707592 1.40822 0
M  V30 7293 C 731.427 0.244031 2.01326 0
M  V30 7294 C 731.76 -1.15722 1.55955 0
M  V30 7295 O 731.035 -1.78347 0.776044 0
M  V30 7296 C 731.318 0.315128 3.58718 0
M  V30 7297 C 731.171 1.75419 4.14184 0
M  V30 7298 C 732.49 -0.318251 4.38948 0
M  V30 7299 H 729.609 0.0901471 0.731466 0
M  V30 7300 H 732.251 0.898584 1.67408 0
M  V30 7301 H 730.401 -0.242176 3.87744 0
M  V30 7302 H 732.073 2.36626 3.95987 0
M  V30 7303 H 730.316 2.28449 3.68773 0
M  V30 7304 H 730.987 1.75538 5.23345 0
M  V30 7305 H 733.463 0.156514 4.15806 0
M  V30 7306 H 732.339 -0.238019 5.48384 0
M  V30 7307 H 732.6 -1.40067 4.19325 0
M  V30 7308 N 731.66 -1.50943 0.453197 0
M  V30 7309 C 732.937 -1.94872 -0.168633 0
M  V30 7310 C 733.317 -1.39272 -1.5864 0
M  V30 7311 O 732.665 -0.586272 -2.20851 0
M  V30 7312 C 732.875 -3.48757 -0.130217 0
M  V30 7313 C 734.223 -4.23331 -0.327975 0
M  V30 7314 O 735.247 -3.55594 -0.207619 0
M  V30 7315 O 734.106 -5.43529 -0.569077 0
M  V30 7316 H 731.2 -0.818042 -0.121394 0
M  V30 7317 H 733.746 -1.61782 0.512316 0
M  V30 7318 H 732.518 -3.81725 0.860346 0
M  V30 7319 H 732.141 -3.88333 -0.853397 0
M  V30 7320 N 733.138 -0.185124 -1.56509 0
M  V30 7321 C 734.415 0.503348 -1.89013 0
M  V30 7322 C 734.795 1.80349 -1.09715 0
M  V30 7323 O 734.143 2.27665 -0.195203 0
M  V30 7324 C 734.353 0.731839 -3.41241 0
M  V30 7325 C 735.701 1.05568 -4.11267 0
M  V30 7326 O 736.725 0.819906 -3.46635 0
M  V30 7327 O 735.584 1.50116 -5.25478 0
M  V30 7328 H 732.678 0.261139 -0.784688 0
M  V30 7329 H 735.224 -0.224592 -1.68207 0
M  V30 7330 H 733.996 -0.18672 -3.90854 0
M  V30 7331 H 733.619 1.5126 -3.67704 0
M  V30 7332 N 734.616 1.57351 0.0885366 0
M  V30 7333 C 735.841 1.91011 0.80805 0
M  V30 7334 C 736.266 0.780009 1.71165 0
M  V30 7335 O 735.624 -0.268083 1.79307 0
M  V30 7336 C 735.672 3.23562 1.59185 0
M  V30 7337 O 734.776 3.11615 2.7013 0
M  V30 7338 H 734.117 0.625943 0.221565 0
M  V30 7339 H 736.647 2.04507 0.0617954 0
M  V30 7340 H 736.657 3.5703 1.97468 0
M  V30 7341 H 735.332 4.05398 0.928741 0
M  V30 7342 H 733.909 2.89673 2.34827 0
M  V30 7343 N 736.094 -0.359525 1.53444 0
M  V30 7344 C 737.057 -1.42357 1.7963 0
M  V30 7345 C 738.057 -1.46319 0.666884 0
M  V30 7346 O 739.247 -1.46974 0.935113 0
M  V30 7347 C 736.379 -2.81425 1.92387 0
M  V30 7348 H 737.572 -1.20409 2.74666 0
M  V30 7349 H 735.125 -0.593007 1.44614 0
M  V30 7350 H 735.86 -3.08679 0.994384 0
M  V30 7351 H 735.645 -2.79947 2.74539 0
M  V30 7352 H 737.135 -3.5847 2.14218 0
M  V30 7353 N 737.572 -1.44907 -0.619662 0
M  V30 7354 C 738.819 -1.48292 -1.37898 0
M  V30 7355 C 739.147 -0.119933 -1.9413 0
M  V30 7356 O 738.402 0.879834 -1.74807 0
M  V30 7357 C 738.701 -2.50002 -2.55409 0
M  V30 7358 C 738.367 -3.95031 -2.17397 0
M  V30 7359 C 737.029 -4.34524 -2.06743 0
M  V30 7360 C 739.381 -4.86287 -1.87548 0
M  V30 7361 C 736.709 -5.63183 -1.64445 0
M  V30 7362 C 739.061 -6.15346 -1.4674 0
M  V30 7363 C 737.725 -6.53781 -1.34636 0
M  V30 7364 H 736.995 -0.542638 -0.504603 0
M  V30 7365 H 739.642 -1.78186 -0.701581 0
M  V30 7366 H 737.947 -2.13634 -3.28433 0
M  V30 7367 H 739.644 -2.49864 -3.13639 0
M  V30 7368 H 736.234 -3.63793 -2.26611 0
M  V30 7369 H 740.418 -4.56522 -1.94682 0
M  V30 7370 H 735.674 -5.91769 -1.53687 0
M  V30 7371 H 739.848 -6.85508 -1.22685 0
M  V30 7372 H 737.475 -7.53375 -1.01634 0
M  V30 7373 N 739.05 0.861098 -1.31996 0
M  V30 7374 C 740.28 1.64501 -1.24992 0
M  V30 7375 C 740.688 1.88288 0.185576 0
M  V30 7376 O 740.031 1.44756 1.131 0
M  V30 7377 C 740.093 3.03098 -1.93319 0
M  V30 7378 C 739.757 3.02381 -3.42658 0
M  V30 7379 C 740.754 2.79696 -4.38254 0
M  V30 7380 C 738.439 3.23221 -3.84491 0
M  V30 7381 C 740.433 2.77843 -5.73657 0
M  V30 7382 C 738.12 3.20996 -5.20005 0
M  V30 7383 C 739.118 2.98335 -6.14398 0
M  V30 7384 O 738.806 2.95971 -7.47433 0
M  V30 7385 H 738.538 0.519309 -0.432775 0
M  V30 7386 H 741.092 1.08241 -1.74565 0
M  V30 7387 H 739.322 3.61121 -1.38306 0
M  V30 7388 H 741.011 3.63751 -1.8011 0
M  V30 7389 H 741.777 2.63368 -4.07262 0
M  V30 7390 H 737.656 3.39887 -3.11445 0
M  V30 7391 H 741.2 2.60074 -6.47308 0
M  V30 7392 H 737.097 3.36865 -5.50629 0
M  V30 7393 H 737.865 3.1197 -7.56714 0
M  V30 7394 N 740.528 1.15101 1.07655 0
M  V30 7395 C 741.777 0.918528 1.79572 0
M  V30 7396 C 742.09 -0.555922 1.87534 0
M  V30 7397 O 743.296 -0.905893 2.55941 0
M  V30 7398 C 741.752 1.59394 3.22679 0
M  V30 7399 C 741.36 3.1052 3.22927 0
M  V30 7400 C 743.104 1.44289 3.99225 0
M  V30 7401 C 741.011 3.70862 4.60668 0
M  V30 7402 H 739.941 0.340006 0.672987 0
M  V30 7403 H 742.592 1.38079 1.20857 0
M  V30 7404 H 740.974 1.05936 3.81567 0
M  V30 7405 H 742.148 3.70708 2.737 0
M  V30 7406 H 740.463 3.25351 2.59876 0
M  V30 7407 H 743.06 1.86766 5.01022 0
M  V30 7408 H 743.403 0.389975 4.14469 0
M  V30 7409 H 743.936 1.94826 3.46825 0
M  V30 7410 H 740.675 4.7604 4.50628 0
M  V30 7411 H 740.195 3.15456 5.10145 0
M  V30 7412 H 741.874 3.71607 5.29639 0
M  V30 7413 N 742.006 -1.2595 0.947325 0
M  V30 7414 C 743.254 -1.93081 0.596996 0
M  V30 7415 C 743.575 -1.74632 -0.867672 0
M  V30 7416 O 742.845 -1.1056 -1.6172 0
M  V30 7417 H 741.425 -0.714542 0.217805 0
M  V30 7418 H 744.087 -1.53265 1.20398 0
M  V30 7419 H 743.183 -3.01134 0.82004 0
M  V30 7420 N 743.484 -0.715051 -1.40445 0
M  V30 7421 C 744.709 -0.26254 -2.05732 0
M  V30 7422 C 745.134 1.08691 -1.53519 0
M  V30 7423 O 744.492 1.68453 -0.670328 0
M  V30 7424 C 744.54 -0.25195 -3.59719 0
M  V30 7425 O 743.644 0.766998 -4.05205 0
M  V30 7426 H 742.985 -0.123398 -0.652433 0
M  V30 7427 H 745.515 -0.975382 -1.79854 0
M  V30 7428 H 745.525 -0.0894537 -4.07902 0
M  V30 7429 H 744.2 -1.23672 -3.97087 0
M  V30 7430 H 742.777 0.572269 -3.68483 0
M  V30 7431 N 744.962 1.50701 -0.461195 0
M  V30 7432 C 745.909 2.2831 0.338094 0
M  V30 7433 C 746.879 1.32928 0.995957 0
M  V30 7434 O 748.064 1.61857 1.0103 0
M  V30 7435 C 745.204 3.14539 1.41983 0
M  V30 7436 C 744.317 4.24942 0.77773 0
M  V30 7437 C 743.452 4.98443 1.83652 0
M  V30 7438 C 742.491 6.00733 1.17413 0
M  V30 7439 N 741.628 6.6755 2.17533 0
M  V30 7440 H 746.468 2.96167 -0.330051 0
M  V30 7441 H 744.005 1.4606 -0.174611 0
M  V30 7442 H 745.963 3.62877 2.05855 0
M  V30 7443 H 744.593 2.48749 2.05727 0
M  V30 7444 H 743.645 3.80391 0.0266924 0
M  V30 7445 H 744.957 4.98151 0.254362 0
M  V30 7446 H 744.111 5.50449 2.55129 0
M  V30 7447 H 742.85 4.24917 2.39367 0
M  V30 7448 H 741.855 5.47997 0.444944 0
M  V30 7449 H 743.08 6.76227 0.624006 0
M  V30 7450 H 741.026 5.96823 2.72284 0
M  V30 7451 H 740.943 7.36603 1.70154 0
M  V30 7452 H 742.211 7.24178 2.88421 0
M  V30 7453 N 746.441 0.193421 1.56409 0
M  V30 7454 C 747.389 -0.744829 2.20352 0
M  V30 7455 C 748.383 -1.22104 1.17418 0
M  V30 7456 O 749.589 -1.18413 1.35567 0
M  V30 7457 H 745.964 -0.258538 0.70616 0
M  V30 7458 H 747.935 -0.181794 2.97846 0
M  V30 7459 C 746.684 -1.95453 2.87565 0
M  V30 7460 H 746.007 -1.59716 3.66512 0
M  V30 7461 H 747.447 -2.58942 3.35745 0
M  V30 7462 C 745.906 -2.79223 1.8851 0
M  V30 7463 O 746.436 -3.77093 1.38434 0
M  V30 7464 N 744.642 -2.44682 1.56777 0
M  V30 7465 H 744.189 -1.65153 1.97692 0
M  V30 7466 H 744.147 -3.01016 0.907573 0
M  V30 7467 N 747.919 -1.57396 -0.0801906 0
M  V30 7468 C 748.849 -2.06145 -1.09665 0
M  V30 7469 C 749.83 -0.953273 -1.40878 0
M  V30 7470 O 751.015 -1.22548 -1.50651 0
M  V30 7471 C 748.145 -2.49836 -2.41245 0
M  V30 7472 C 747.099 -3.64454 -2.24405 0
M  V30 7473 C 746.425 -3.94172 -3.61293 0
M  V30 7474 C 747.725 -4.94807 -1.67223 0
M  V30 7475 H 749.419 -2.91316 -0.691028 0
M  V30 7476 H 746.965 -1.40145 -0.330957 0
M  V30 7477 H 748.918 -2.82552 -3.12638 0
M  V30 7478 H 747.642 -1.61683 -2.83771 0
M  V30 7479 H 746.301 -3.32008 -1.55454 0
M  V30 7480 H 745.949 -3.03163 -4.01374 0
M  V30 7481 H 745.649 -4.71345 -3.50867 0
M  V30 7482 H 747.173 -4.29376 -4.3413 0
M  V30 7483 H 748.587 -5.25807 -2.28472 0
M  V30 7484 H 746.984 -5.76245 -1.67515 0
M  V30 7485 H 748.054 -4.80751 -0.632944 0
M  V30 7486 N 749.397 0.351382 -1.53633 0
M  V30 7487 C 750.627 1.11113 -1.74176 0
M  V30 7488 C 751.035 1.83084 -0.477154 0
M  V30 7489 O 750.378 1.74941 0.560483 0
M  V30 7490 C 750.44 2.17521 -2.86225 0
M  V30 7491 C 750.104 1.65193 -4.26099 0
M  V30 7492 C 751.101 1.10842 -5.07947 0
M  V30 7493 C 748.786 1.70277 -4.72558 0
M  V30 7494 C 750.78 0.622689 -6.34351 0
M  V30 7495 C 748.467 1.21316 -5.98937 0
M  V30 7496 C 749.465 0.674033 -6.79666 0
M  V30 7497 O 749.153 0.191696 -8.03671 0
M  V30 7498 H 748.885 0.33756 -0.585687 0
M  V30 7499 H 751.439 0.411786 -2.0123 0
M  V30 7500 H 749.669 2.90991 -2.54678 0
M  V30 7501 H 751.358 2.78999 -2.94812 0
M  V30 7502 H 752.124 1.06243 -4.7322 0
M  V30 7503 H 748.003 2.11181 -4.09785 0
M  V30 7504 H 751.547 0.201216 -6.9731 0
M  V30 7505 H 747.444 1.25613 -6.3316 0
M  V30 7506 H 748.212 0.309712 -8.17914 0
M  V30 7507 N 750.875 1.45233 0.611969 0
M  V30 7508 C 752.286 1.4354 1.19387 0
M  V30 7509 C 752.637 0.160713 1.95541 0
M  V30 7510 O 751.762 -0.737954 2.03429 0
M  V30 7511 C 752.357 2.60045 2.17169 0
M  V30 7512 C 750.916 2.61486 2.70744 0
M  V30 7513 C 750.063 2.35708 1.46072 0
M  V30 7514 H 753.014 1.53536 0.401529 0
M  V30 7515 H 753.035 2.33893 3.00124 0
M  V30 7516 H 752.547 3.52803 1.61714 0
M  V30 7517 H 750.648 1.72721 3.30149 0
M  V30 7518 H 750.761 3.60572 3.15476 0
M  V30 7519 H 749.125 1.85178 1.74875 0
M  V30 7520 H 749.908 3.30606 0.924922 0
M  V30 7521 N 752.353 -0.854086 1.3245 0
M  V30 7522 C 753.316 -1.94427 1.21371 0
M  V30 7523 C 754.316 -1.60219 0.136613 0
M  V30 7524 O 755.506 -1.69846 0.387057 0
M  V30 7525 C 752.638 -3.29698 0.866701 0
M  V30 7526 H 753.831 -2.05679 2.18257 0
M  V30 7527 H 751.384 -1.04434 1.1629 0
M  V30 7528 H 752.119 -3.24145 -0.100319 0
M  V30 7529 H 751.904 -3.55903 1.64545 0
M  V30 7530 H 753.394 -4.09599 0.813515 0
M  V30 7531 N 753.831 -1.1567 -1.07043 0
M  V30 7532 C 755.077 -0.944878 -1.80121 0
M  V30 7533 C 755.432 0.522239 -1.85177 0
M  V30 7534 O 754.725 1.38228 -1.32678 0
M  V30 7535 C 754.919 -1.49677 -3.24548 0
M  V30 7536 C 754.748 -3.01602 -3.33566 0
M  V30 7537 C 753.518 -3.70177 -3.43943 0
M  V30 7538 C 755.716 -3.99362 -3.24059 0
M  V30 7539 N 753.698 -5.09882 -3.41896 0
M  V30 7540 C 755.069 -5.25404 -3.29167 0
M  V30 7541 C 757.124 -3.91289 -3.07891 0
M  V30 7542 C 755.827 -6.44314 -3.19769 0
M  V30 7543 C 757.853 -5.09761 -2.99829 0
M  V30 7544 C 757.215 -6.34679 -3.05552 0
M  V30 7545 H 753.314 -0.399447 -0.672284 0
M  V30 7546 H 755.898 -1.4693 -1.27749 0
M  V30 7547 H 754.069 -0.998941 -3.75334 0
M  V30 7548 H 755.801 -1.22346 -3.85764 0
M  V30 7549 H 752.556 -3.2078 -3.48421 0
M  V30 7550 H 752.98 -5.82857 -3.44393 0
M  V30 7551 H 757.622 -2.95573 -3.02318 0
M  V30 7552 H 755.34 -7.4026 -3.24101 0
M  V30 7553 H 758.926 -5.05279 -2.88418 0
M  V30 7554 H 757.806 -7.24812 -2.99361 0
M  V30 7555 N 755.309 1.25446 -0.953992 0
M  V30 7556 C 756.239 2.28264 -0.491717 0
M  V30 7557 C 757.22 1.63717 0.461617 0
M  V30 7558 O 758.405 1.90821 0.36071 0
M  V30 7559 C 755.535 3.46525 0.231915 0
M  V30 7560 C 754.489 4.23247 -0.636098 0
M  V30 7561 C 753.815 5.34254 0.218238 0
M  V30 7562 C 755.115 4.85971 -1.91389 0
M  V30 7563 H 756.809 2.67183 -1.35106 0
M  V30 7564 H 754.355 1.2844 -0.651095 0
M  V30 7565 H 756.308 4.17576 0.566439 0
M  V30 7566 H 755.032 3.06594 1.12551 0
M  V30 7567 H 753.691 3.53978 -0.953696 0
M  V30 7568 H 753.339 4.90564 1.11156 0
M  V30 7569 H 753.039 5.86501 -0.359232 0
M  V30 7570 H 754.563 6.08138 0.547743 0
M  V30 7571 H 755.977 5.49168 -1.64581 0
M  V30 7572 H 754.374 5.48391 -2.43696 0
M  V30 7573 H 755.444 4.08192 -2.61738 0
M  V30 7574 N 756.787 0.722489 1.40064 0
M  V30 7575 C 757.719 0.0349057 2.29173 0
M  V30 7576 C 758.732 -0.716571 1.46182 0
M  V30 7577 O 759.921 -0.562806 1.69395 0
M  V30 7578 C 757.021 -0.974839 3.24577 0
M  V30 7579 C 756.194 -0.287471 4.36454 0
M  V30 7580 C 755.253 -1.20356 5.12251 0
M  V30 7581 O 754.279 -0.685753 5.65054 0
M  V30 7582 N 755.481 -2.53422 5.22262 0
M  V30 7583 H 758.246 0.800058 2.88824 0
M  V30 7584 H 755.807 0.57068 1.51509 0
M  V30 7585 H 757.799 -1.59002 3.72157 0
M  V30 7586 H 756.369 -1.6413 2.66046 0
M  V30 7587 H 755.589 0.508008 3.90913 0
M  V30 7588 H 756.877 0.189382 5.08447 0
M  V30 7589 H 756.275 -2.97981 4.80857 0
M  V30 7590 H 754.832 -3.10067 5.73325 0
M  V30 7591 N 758.265 -1.50454 0.469181 0
M  V30 7592 C 759.542 -1.9504 -0.147955 0
M  V30 7593 C 759.922 -1.40946 -1.57154 0
M  V30 7594 O 759.27 -0.609663 -2.20217 0
M  V30 7595 C 759.48 -3.48875 -0.0932198 0
M  V30 7596 C 760.828 -4.23655 -0.283056 0
M  V30 7597 O 761.852 -3.55795 -0.169892 0
M  V30 7598 O 760.711 -5.44102 -0.511396 0
M  V30 7599 H 757.805 -0.819283 -0.11271 0
M  V30 7600 H 760.351 -1.6123 0.529446 0
M  V30 7601 H 759.123 -3.80791 0.900784 0
M  V30 7602 H 758.746 -3.89217 -0.812161 0
M  V30 7603 N 759.743 -0.201713 -1.56304 0
M  V30 7604 C 760.99 0.435307 -1.97766 0
M  V30 7605 C 761.318 1.61169 -1.0888 0
M  V30 7606 O 760.573 1.95272 -0.12934 0
M  V30 7607 C 760.872 0.931432 -3.45049 0
M  V30 7608 C 760.538 -0.132287 -4.50706 0
M  V30 7609 C 759.2 -0.424552 -4.79323 0
M  V30 7610 C 761.552 -0.852703 -5.14177 0
M  V30 7611 C 758.88 -1.4421 -5.68701 0
M  V30 7612 C 761.232 -1.85944 -6.04655 0
M  V30 7613 C 759.896 -2.15884 -6.31625 0
M  V30 7614 H 759.166 0.15929 -0.723676 0
M  V30 7615 H 761.813 -0.300069 -1.89134 0
M  V30 7616 H 760.118 1.7452 -3.50785 0
M  V30 7617 H 761.815 1.43383 -3.74489 0
M  V30 7618 H 758.405 0.105671 -4.2847 0
M  V30 7619 H 762.589 -0.640139 -4.92154 0
M  V30 7620 H 757.845 -1.6799 -5.87869 0
M  V30 7621 H 762.019 -2.42286 -6.52894 0
M  V30 7622 H 759.646 -2.94875 -7.0068 0
M  V30 7623 N 761.222 1.57436 0.0718424 0
M  V30 7624 C 762.47 1.86878 0.769484 0
M  V30 7625 C 762.791 0.7937 1.78116 0
M  V30 7626 O 762.061 -0.177642 1.95093 0
M  V30 7627 H 760.641 0.689593 0.287177 0
M  V30 7628 H 763.303 1.94841 0.0479427 0
M  V30 7629 H 762.399 2.84387 1.28572 0
M  V30 7630 N 762.7 -0.34323 1.53817 0
M  V30 7631 C 763.93 -1.10188 1.74763 0
M  V30 7632 C 764.338 -1.82829 0.486856 0
M  V30 7633 O 763.681 -1.75236 -0.551198 0
M  V30 7634 C 763.743 -2.16 2.87375 0
M  V30 7635 C 763.407 -1.62931 4.26969 0
M  V30 7636 C 764.404 -1.08147 5.08528 0
M  V30 7637 C 762.089 -1.67769 4.73454 0
M  V30 7638 C 764.083 -0.589039 6.34672 0
M  V30 7639 C 761.77 -1.18138 5.99572 0
M  V30 7640 C 762.768 -0.637979 6.80014 0
M  V30 7641 O 762.456 -0.149073 8.03762 0
M  V30 7642 H 762.188 -0.33445 0.587469 0
M  V30 7643 H 764.742 -0.401109 2.01445 0
M  V30 7644 H 762.972 -2.89637 2.56218 0
M  V30 7645 H 764.661 -2.77432 2.96287 0
M  V30 7646 H 765.427 -1.03732 4.73777 0
M  V30 7647 H 761.306 -2.09004 4.10899 0
M  V30 7648 H 764.85 -0.164233 6.97407 0
M  V30 7649 H 760.747 -1.22254 6.33817 0
M  V30 7650 H 761.515 -0.266332 8.18067 0
M  V30 7651 N 764.178 -1.45556 -0.604258 0
M  V30 7652 C 765.427 -1.49019 -1.35928 0
M  V30 7653 C 765.74 -0.137409 -1.95117 0
M  V30 7654 O 766.946 -0.0497032 -2.71455 0
M  V30 7655 C 765.402 -2.62477 -2.46239 0
M  V30 7656 C 765.01 -4.04082 -1.93447 0
M  V30 7657 C 766.754 -2.7519 -3.23219 0
M  V30 7658 C 764.661 -5.08917 -3.0126 0
M  V30 7659 H 763.591 -0.554518 -0.510907 0
M  V30 7660 H 766.242 -1.71705 -0.647262 0
M  V30 7661 H 764.624 -2.3308 -3.2014 0
M  V30 7662 H 765.798 -4.43173 -1.26232 0
M  V30 7663 H 764.113 -3.95849 -1.29201 0
M  V30 7664 H 766.71 -3.50683 -4.0364 0
M  V30 7665 H 767.053 -1.81941 -3.74437 0
M  V30 7666 H 767.586 -3.04129 -2.56418 0
M  V30 7667 H 764.325 -6.03886 -2.54955 0
M  V30 7668 H 763.845 -4.74393 -3.67031 0
M  V30 7669 H 765.524 -5.33814 -3.65584 0
M  V30 7670 N 765.656 0.84705 -1.32902 0
M  V30 7671 C 766.902 1.60414 -1.24078 0
M  V30 7672 C 767.235 1.93217 0.195105 0
M  V30 7673 O 766.51 1.58001 1.13428 0
M  V30 7674 C 766.793 2.91951 -2.108 0
M  V30 7675 C 766.646 2.6588 -3.62805 0
M  V30 7676 C 767.965 3.93299 -1.97494 0
M  V30 7677 H 765.084 0.58206 -0.452079 0
M  V30 7678 H 767.726 0.977562 -1.62922 0
M  V30 7679 H 765.876 3.45425 -1.77802 0
M  V30 7680 H 767.548 2.18902 -4.06054 0
M  V30 7681 H 765.791 1.99716 -3.85092 0
M  V30 7682 H 766.462 3.59574 -4.1882 0
M  V30 7683 H 768.938 3.49105 -2.26417 0
M  V30 7684 H 767.814 4.8318 -2.60438 0
M  V30 7685 H 768.075 4.31887 -0.944782 0
M  V30 7686 N 767.134 1.16236 1.06428 0
M  V30 7687 C 768.044 0.881976 2.1739 0
M  V30 7688 C 769.06 -0.145259 1.73393 0
M  V30 7689 O 770.236 0.0310558 2.01376 0
M  V30 7690 C 767.301 0.385496 3.4455 0
M  V30 7691 C 766.362 1.47779 4.03063 0
M  V30 7692 C 765.595 1.0049 5.24154 0
M  V30 7693 O 765.818 -0.145889 5.70213 0
M  V30 7694 O 764.752 1.79265 5.74585 0
M  V30 7695 H 768.578 1.80983 2.43883 0
M  V30 7696 H 766.163 0.942226 1.15942 0
M  V30 7697 H 768.045 0.115536 4.21242 0
M  V30 7698 H 766.72 -0.514369 3.19587 0
M  V30 7699 H 765.627 1.80147 3.27869 0
M  V30 7700 H 766.96 2.35291 4.32318 0
M  V30 7701 N 768.612 -1.24939 0.960631 0
M  V30 7702 C 769.837 -1.9742 0.635608 0
M  V30 7703 C 770.262 -1.70857 -0.786737 0
M  V30 7704 O 769.62 -0.968063 -1.53291 0
M  V30 7705 C 769.668 -3.48987 0.907771 0
M  V30 7706 O 768.772 -4.12399 -0.0104053 0
M  V30 7707 H 768.113 -0.61871 0.241027 0
M  V30 7708 H 770.643 -1.58901 1.28886 0
M  V30 7709 H 770.653 -3.99334 0.836453 0
M  V30 7710 H 769.328 -3.6765 1.94439 0
M  V30 7711 H 767.905 -3.72727 0.113631 0
M  V30 7712 N 770.09 -0.729906 -1.39679 0
M  V30 7713 C 771.501 -0.346241 -1.83461 0
M  V30 7714 C 771.852 1.1215 -1.60987 0
M  V30 7715 O 770.977 1.86456 -1.09832 0
M  V30 7716 C 771.572 -0.621656 -3.33048 0
M  V30 7717 C 770.131 -0.291543 -3.75269 0
M  V30 7718 C 769.278 -0.886844 -2.62736 0
M  V30 7719 H 772.229 -0.927949 -1.28743 0
M  V30 7720 H 772.25 0.108301 -3.80346 0
M  V30 7721 H 771.762 -1.68996 -3.49373 0
M  V30 7722 H 769.863 0.771133 -3.64533 0
M  V30 7723 H 769.976 -0.770544 -4.72863 0
M  V30 7724 H 768.34 -0.313839 -2.52759 0
M  V30 7725 H 769.123 -1.95971 -2.81869 0
M  V30 7726 N 771.568 1.50203 -0.477153 0
M  V30 7727 C 772.531 2.27194 0.302599 0
M  V30 7728 C 773.531 1.32221 0.915112 0
M  V30 7729 O 774.721 1.55593 0.783348 0
M  V30 7730 C 771.853 3.0938 1.43167 0
M  V30 7731 H 773.046 2.97575 -0.372678 0
M  V30 7732 H 770.599 1.54578 -0.231392 0
M  V30 7733 H 771.334 2.43509 2.14182 0
M  V30 7734 H 771.119 3.79181 0.998197 0
M  V30 7735 H 772.609 3.67592 1.98157 0
M  V30 7736 N 773.046 0.209999 1.56195 0
M  V30 7737 C 774.009 -0.691232 2.18528 0
M  V30 7738 C 775.009 -1.13013 1.14388 0
M  V30 7739 O 776.199 -1.04081 1.39688 0
M  V30 7740 C 773.331 -1.94551 2.79934 0
M  V30 7741 H 774.524 -0.147953 2.99535 0
M  V30 7742 H 772.077 -0.0396243 1.5625 0
M  V30 7743 H 772.812 -2.53094 2.02766 0
M  V30 7744 H 772.597 -1.63938 3.56184 0
M  V30 7745 H 774.087 -2.58785 3.2775 0
M  V30 7746 N 774.524 -1.57472 -0.0634922 0
M  V30 7747 C 775.487 -2.03268 -1.059 0
M  V30 7748 C 776.487 -0.931028 -1.31105 0
M  V30 7749 O 777.677 -1.19567 -1.26686 0
M  V30 7750 C 774.809 -2.42039 -2.40062 0
M  V30 7751 H 776.002 -2.92454 -0.664119 0
M  V30 7752 H 773.555 -1.53206 -0.309444 0
M  V30 7753 H 774.29 -1.55904 -2.84367 0
M  V30 7754 H 774.075 -3.22437 -2.23108 0
M  V30 7755 H 775.565 -2.78017 -3.11603 0
M  V30 7756 N 776.003 0.335068 -1.53997 0
M  V30 7757 C 776.935 1.4327 -1.78903 0
M  V30 7758 C 777.948 1.48347 -0.670598 0
M  V30 7759 O 779.137 1.51277 -0.947494 0
M  V30 7760 C 776.237 2.81878 -1.88144 0
M  V30 7761 C 775.41 3.00141 -3.18174 0
M  V30 7762 C 774.469 4.19041 -3.18263 0
M  V30 7763 O 773.495 4.12751 -3.9195 0
M  V30 7764 N 774.697 5.28004 -2.41231 0
M  V30 7765 H 777.462 1.22272 -2.73623 0
M  V30 7766 H 775.023 0.524996 -1.53152 0
M  V30 7767 H 777.015 3.59609 -1.85644 0
M  V30 7768 H 775.585 2.9598 -1.00572 0
M  V30 7769 H 774.805 2.09808 -3.33728 0
M  V30 7770 H 776.093 3.0923 -4.04047 0
M  V30 7771 H 775.491 5.35986 -1.8093 0
M  V30 7772 H 774.048 6.04196 -2.44521 0
M  V30 7773 N 777.481 1.45874 0.596531 0
M  V30 7774 C 778.413 1.51408 1.7207 0
M  V30 7775 C 779.426 0.403738 1.57714 0
M  V30 7776 O 780.615 0.671384 1.65393 0
M  V30 7777 C 777.715 1.3652 3.10186 0
M  V30 7778 C 776.888 2.61428 3.50677 0
M  V30 7779 C 775.947 2.40937 4.67799 0
M  V30 7780 O 774.973 3.14602 4.74357 0
M  V30 7781 N 776.175 1.4621 5.61785 0
M  V30 7782 H 778.94 2.48333 1.67782 0
M  V30 7783 H 776.501 1.41755 0.782129 0
M  V30 7784 H 778.493 1.20606 3.86311 0
M  V30 7785 H 777.063 0.478302 3.08919 0
M  V30 7786 H 776.283 2.92381 2.644 0
M  V30 7787 H 777.571 3.44432 3.74491 0
M  V30 7788 H 776.969 0.854382 5.59211 0
M  V30 7789 H 775.526 1.36264 6.37397 0
M  V30 7790 N 778.959 -0.83999 1.33349 0
M  V30 7791 C 779.889 -1.965 1.26135 0
M  V30 7792 C 780.87 -1.69505 0.142152 0
M  V30 7793 O 782.055 -1.91346 0.331743 0
M  V30 7794 C 779.185 -3.32632 0.99866 0
M  V30 7795 C 778.139 -3.74021 2.08068 0
M  V30 7796 C 777.465 -5.07947 1.67014 0
M  V30 7797 C 778.765 -3.87925 3.49731 0
M  V30 7798 H 780.459 -2.02793 2.20262 0
M  V30 7799 H 778.005 -0.974297 1.06035 0
M  V30 7800 H 779.958 -4.10903 0.934696 0
M  V30 7801 H 778.682 -3.26593 0.0217759 0
M  V30 7802 H 777.341 -2.98012 2.13505 0
M  V30 7803 H 776.989 -4.98378 0.680316 0
M  V30 7804 H 776.689 -5.36611 2.39422 0
M  V30 7805 H 778.213 -5.88695 1.62082 0
M  V30 7806 H 779.627 -4.5651 3.46802 0
M  V30 7807 H 778.024 -4.28023 4.20614 0
M  V30 7808 H 779.094 -2.90407 3.88319 0
M  V30 7809 N 780.437 -1.16799 -1.0581 0
M  V30 7810 C 781.384 -0.87902 -2.13405 0
M  V30 7811 C 782.354 0.174541 -1.6518 0
M  V30 7812 O 783.539 0.0386843 -1.90761 0
M  V30 7813 C 780.679 -0.391616 -3.42871 0
M  V30 7814 C 779.792 -1.50857 -4.04804 0
M  V30 7815 C 778.927 -0.975682 -5.22163 0
M  V30 7816 C 777.966 -2.06851 -5.76089 0
M  V30 7817 N 777.103 -1.55085 -6.84758 0
M  V30 7818 H 781.943 -1.80043 -2.37463 0
M  V30 7819 H 779.48 -0.898083 -1.16503 0
M  V30 7820 H 781.438 -0.0906247 -4.17102 0
M  V30 7821 H 780.068 0.49284 -3.19016 0
M  V30 7822 H 779.12 -1.92542 -3.28073 0
M  V30 7823 H 780.432 -2.33305 -4.40874 0
M  V30 7824 H 779.586 -0.628165 -6.03439 0
M  V30 7825 H 778.325 -0.120566 -4.87551 0
M  V30 7826 H 777.33 -2.42467 -4.93447 0
M  V30 7827 H 778.555 -2.92768 -6.12751 0
M  V30 7828 H 776.501 -0.718345 -6.52055 0
M  V30 7829 H 776.418 -2.31145 -7.19797 0
M  V30 7830 H 777.686 -1.23206 -7.69702 0
M  V30 7831 N 781.915 1.24427 -0.967243 0
M  V30 7832 C 783.143 1.96541 -0.646477 0
M  V30 7833 C 783.558 1.71753 0.783996 0
M  V30 7834 O 782.915 1.00102 1.52597 0
M  V30 7835 C 782.966 3.4983 -0.911098 0
M  V30 7836 O 782.687 3.7377 -2.28534 0
M  V30 7837 C 784.188 4.3916 -0.604458 0
M  V30 7838 H 781.408 0.626129 -0.241255 0
M  V30 7839 H 783.952 1.58268 -1.29505 0
M  V30 7840 H 782.107 3.86168 -0.308741 0
M  V30 7841 H 782.521 4.68154 -2.365 0
M  V30 7842 H 783.995 5.4557 -0.840069 0
M  V30 7843 H 784.472 4.36771 0.461273 0
M  V30 7844 H 785.078 4.08409 -1.1867 0
M  V30 7845 N 783.393 0.737304 1.3929 0
M  V30 7846 C 784.303 0.100464 2.34385 0
M  V30 7847 C 785.319 -0.719282 1.58437 0
M  V30 7848 O 786.495 -0.647216 1.90717 0
M  V30 7849 C 783.56 -0.794325 3.37478 0
M  V30 7850 C 782.621 0.0379345 4.29283 0
M  V30 7851 C 781.854 -0.814241 5.27452 0
M  V30 7852 O 782.077 -2.05288 5.32177 0
M  V30 7853 O 781.011 -0.241679 6.01415 0
M  V30 7854 H 784.837 0.885407 2.90507 0
M  V30 7855 H 782.422 0.497999 1.40856 0
M  V30 7856 H 784.304 -1.30622 4.00644 0
M  V30 7857 H 782.979 -1.55804 2.83737 0
M  V30 7858 H 781.886 0.595405 3.69331 0
M  V30 7859 H 783.219 0.763926 4.86236 0
M  V30 7860 N 784.871 -1.49948 0.485112 0
M  V30 7861 C 785.801 -2.31675 -0.291364 0
M  V30 7862 C 786.782 -1.39216 -0.977383 0
M  V30 7863 O 787.967 -1.68133 -0.971855 0
M  V30 7864 C 785.097 -3.19326 -1.36558 0
M  V30 7865 C 784.051 -4.2045 -0.800359 0
M  V30 7866 C 783.377 -4.96931 -1.97391 0
M  V30 7867 C 784.677 -5.21925 0.197867 0
M  V30 7868 H 786.371 -2.96839 0.390775 0
M  V30 7869 H 783.917 -1.42749 0.189375 0
M  V30 7870 H 785.87 -3.75304 -1.91638 0
M  V30 7871 H 784.594 -2.52074 -2.07668 0
M  V30 7872 H 783.253 -3.65594 -0.271428 0
M  V30 7873 H 782.901 -4.26141 -2.67232 0
M  V30 7874 H 782.601 -5.65344 -1.60187 0
M  V30 7875 H 784.125 -5.55749 -2.52935 0
M  V30 7876 H 785.539 -5.72691 -0.264239 0
M  V30 7877 H 783.936 -5.98138 0.484908 0
M  V30 7878 H 785.006 -4.71809 1.11912 0
M  V30 7879 N 786.349 -0.21828 -1.56081 0
M  V30 7880 C 787.279 0.687922 -2.23136 0
M  V30 7881 C 788.26 1.20357 -1.202 0
M  V30 7882 O 789.445 1.24817 -1.48776 0
M  V30 7883 C 786.575 1.89762 -2.90874 0
M  V30 7884 C 785.529 1.51595 -4.00254 0
M  V30 7885 C 784.855 2.80415 -4.55271 0
M  V30 7886 C 786.155 0.708404 -5.17474 0
M  V30 7887 H 787.849 0.128854 -2.99123 0
M  V30 7888 H 785.395 0.0605354 -1.43873 0
M  V30 7889 H 787.348 2.53699 -3.36474 0
M  V30 7890 H 786.072 2.4816 -2.1233 0
M  V30 7891 H 784.731 0.900058 -3.55379 0
M  V30 7892 H 784.379 3.36951 -3.73461 0
M  V30 7893 H 784.079 2.55613 -5.2909 0
M  V30 7894 H 785.603 3.453 -5.03587 0
M  V30 7895 H 787.017 1.2514 -5.59476 0
M  V30 7896 H 785.414 0.557593 -5.97504 0
M  V30 7897 H 786.484 -0.285679 -4.84058 0
M  V30 7898 N 787.827 1.57504 0.0551401 0
M  V30 7899 C 789.104 1.79155 0.785048 0
M  V30 7900 C 789.484 0.809995 1.94942 0
M  V30 7901 O 788.832 -0.153432 2.27984 0
M  V30 7902 C 789.042 3.26134 1.24247 0
M  V30 7903 C 790.39 3.90419 1.66908 0
M  V30 7904 O 791.414 3.30126 1.33772 0
M  V30 7905 O 790.273 4.96523 2.28314 0
M  V30 7906 H 787.367 0.735825 0.377479 0
M  V30 7907 H 789.913 1.69666 0.0339285 0
M  V30 7908 H 788.685 3.89145 0.410089 0
M  V30 7909 H 788.308 3.40411 2.05441 0
M  V30 7910 N 789.305 -0.326896 1.54172 0
M  V30 7911 C 790.716 -0.901533 1.63491 0
M  V30 7912 C 791.067 -1.88994 0.52684 0
M  V30 7913 O 790.192 -2.137 -0.340794 0
M  V30 7914 C 790.787 -1.64192 2.96355 0
M  V30 7915 C 789.346 -2.16533 3.07881 0
M  V30 7916 C 788.493 -0.98966 2.59039 0
M  V30 7917 H 791.444 -0.104568 1.58355 0
M  V30 7918 H 791.465 -2.50592 2.86328 0
M  V30 7919 H 790.977 -0.922291 3.76982 0
M  V30 7920 H 789.078 -2.91622 2.31922 0
M  V30 7921 H 789.191 -2.41762 4.13628 0
M  V30 7922 H 787.555 -1.36787 2.14852 0
M  V30 7923 H 788.338 -0.284401 3.4212 0
M  V30 7924 N 790.784 -1.46188 -0.588786 0
M  V30 7925 C 791.694 -1.58865 -1.72624 0
M  V30 7926 C 792.71 -0.472348 -1.67466 0
M  V30 7927 O 793.886 -0.735638 -1.87484 0
M  V30 7928 C 790.951 -1.56989 -3.0912 0
M  V30 7929 C 790.012 -2.79804 -3.25589 0
M  V30 7930 C 789.245 -2.78009 -4.55573 0
M  V30 7931 O 789.468 -1.86406 -5.39082 0
M  V30 7932 O 788.402 -3.6947 -4.75159 0
M  V30 7933 H 792.228 -2.55047 -1.64878 0
M  V30 7934 H 789.813 -1.28912 -0.755115 0
M  V30 7935 H 791.695 -1.58618 -3.90408 0
M  V30 7936 H 790.37 -0.639648 -3.17317 0
M  V30 7937 H 789.277 -2.83732 -2.43818 0
M  V30 7938 H 790.61 -3.72017 -3.22279 0
M  V30 7939 N 792.262 0.832906 -1.33792 0
M  V30 7940 C 793.508 1.59053 -1.26782 0
M  V30 7941 C 793.863 1.91705 0.163399 0
M  V30 7942 O 793.156 1.5638 1.10706 0
M  V30 7943 C 793.35 2.9047 -2.08235 0
M  V30 7944 C 793.179 2.70656 -3.59132 0
M  V30 7945 C 791.949 2.67905 -4.28433 0
M  V30 7946 C 794.147 2.42871 -4.53341 0
M  V30 7947 N 792.129 2.39531 -5.65242 0
M  V30 7948 C 793.5 2.24101 -5.78082 0
M  V30 7949 C 795.555 2.28517 -4.42362 0
M  V30 7950 C 794.258 1.92432 -6.93082 0
M  V30 7951 C 796.284 1.98242 -5.57184 0
M  V30 7952 C 795.646 1.80288 -6.80937 0
M  V30 7953 H 791.745 0.584823 -0.51914 0
M  V30 7954 H 794.329 0.977252 -1.68398 0
M  V30 7955 H 792.5 3.49739 -1.6893 0
M  V30 7956 H 794.232 3.55744 -1.92947 0
M  V30 7957 H 790.987 2.81624 -3.80768 0
M  V30 7958 H 791.411 2.28211 -6.37377 0
M  V30 7959 H 796.053 2.41107 -3.47314 0
M  V30 7960 H 793.771 1.78579 -7.88121 0
M  V30 7961 H 797.357 1.87882 -5.50628 0
M  V30 7962 H 796.237 1.57199 -7.68283 0
M  V30 7963 N 793.74 1.17359 1.05189 0
M  V30 7964 C 794.687 0.890325 2.12936 0
M  V30 7965 C 795.657 -0.165779 1.65271 0
M  V30 7966 O 796.842 -0.0285672 1.90779 0
M  V30 7967 C 793.982 0.409793 3.42658 0
M  V30 7968 C 793.095 1.53002 4.03998 0
M  V30 7969 C 792.23 1.00336 5.21638 0
M  V30 7970 C 791.269 2.09903 5.74984 0
M  V30 7971 N 790.406 1.58714 6.83926 0
M  V30 7972 H 795.246 1.81299 2.36505 0
M  V30 7973 H 792.783 0.904249 1.16025 0
M  V30 7974 H 794.741 0.112743 4.17048 0
M  V30 7975 H 793.371 -0.475915 3.19272 0
M  V30 7976 H 792.423 1.9428 3.27047 0
M  V30 7977 H 793.735 2.3564 4.39631 0
M  V30 7978 H 792.889 0.660158 6.03098 0
M  V30 7979 H 791.628 0.14642 4.8748 0
M  V30 7980 H 790.633 2.45081 4.92154 0
M  V30 7981 H 791.858 2.96013 6.1119 0
M  V30 7982 H 789.804 0.752915 6.51665 0
M  V30 7983 H 789.721 2.34959 7.18561 0
M  V30 7984 H 790.989 1.27287 7.69037 0
M  V30 7985 N 795.218 -1.23913 0.973828 0
M  V30 7986 C 796.448 -1.95911 0.655938 0
M  V30 7987 C 796.856 -1.72375 -0.779967 0
M  V30 7988 O 796.199 -1.00807 -1.5357 0
M  V30 7989 C 796.261 -3.49103 0.858324 0
M  V30 7990 C 795.925 -3.96347 2.27504 0
M  V30 7991 C 796.922 -4.05537 3.25324 0
M  V30 7992 C 794.607 -4.29509 2.60437 0
M  V30 7993 C 796.601 -4.47233 4.5416 0
M  V30 7994 C 794.288 -4.70887 3.89498 0
M  V30 7995 C 795.286 -4.79714 4.86172 0
M  V30 7996 O 794.974 -5.20166 6.1293 0
M  V30 7997 H 794.706 -0.630721 0.243244 0
M  V30 7998 H 797.26 -1.58534 1.30599 0
M  V30 7999 H 795.49 -3.86405 0.151097 0
M  V30 8000 H 797.179 -4.02311 0.538592 0
M  V30 8001 H 797.945 -3.80128 3.0121 0
M  V30 8002 H 793.824 -4.21853 1.85906 0
M  V30 8003 H 797.368 -4.54038 5.29618 0
M  V30 8004 H 793.265 -4.95744 4.1341 0
M  V30 8005 H 794.033 -5.38298 6.16586 0
M  V30 8006 N 796.696 -0.74468 -1.38897 0
M  V30 8007 C 797.921 -0.306119 -2.05128 0
M  V30 8008 C 798.346 1.0541 -1.55789 0
M  V30 8009 O 797.704 1.66993 -0.705909 0
M  V30 8010 C 797.752 -0.328195 -3.59103 0
M  V30 8011 O 796.856 0.680876 -4.06741 0
M  V30 8012 H 796.197 -0.137209 -0.649669 0
M  V30 8013 H 798.727 -1.01331 -1.77745 0
M  V30 8014 H 798.737 -0.175956 -4.0762 0
M  V30 8015 H 797.412 -1.32067 -3.94374 0
M  V30 8016 H 795.989 0.49398 -3.69614 0
M  V30 8017 N 798.174 1.49689 -0.493057 0
M  V30 8018 C 799.106 2.26867 0.326195 0
M  V30 8019 C 800.119 1.33083 0.937697 0
M  V30 8020 O 801.308 1.58427 0.822382 0
M  V30 8021 C 798.408 3.0519 1.4735 0
M  V30 8022 C 797.581 4.26491 0.970767 0
M  V30 8023 C 796.64 4.86926 1.99473 0
M  V30 8024 O 795.666 5.47221 1.56647 0
M  V30 8025 N 796.868 4.75871 3.32456 0
M  V30 8026 H 799.633 2.97816 -0.335547 0
M  V30 8027 H 797.194 1.58602 -0.325129 0
M  V30 8028 H 799.186 3.42496 2.15589 0
M  V30 8029 H 797.756 2.369 2.03954 0
M  V30 8030 H 796.976 3.94036 0.113529 0
M  V30 8031 H 798.264 5.05092 0.613156 0
M  V30 8032 H 797.662 4.2797 3.69944 0
M  V30 8033 H 796.219 5.17383 3.96431 0
M  V30 8034 N 799.652 0.226554 1.55963 0
M  V30 8035 C 800.584 -0.713907 2.17798 0
M  V30 8036 C 801.597 -1.15387 1.14846 0
M  V30 8037 O 802.786 -1.08416 1.41804 0
M  V30 8038 C 799.886 -1.97945 2.75084 0
M  V30 8039 C 799.059 -1.69424 4.03255 0
M  V30 8040 C 798.118 -2.80734 4.45056 0
M  V30 8041 O 797.144 -2.4899 5.11852 0
M  V30 8042 N 798.346 -4.09797 4.11152 0
M  V30 8043 H 801.111 -0.18494 2.99129 0
M  V30 8044 H 798.672 0.0457346 1.61835 0
M  V30 8045 H 800.664 -2.71611 3.00016 0
M  V30 8046 H 799.234 -2.41876 1.98027 0
M  V30 8047 H 798.454 -0.793767 3.86126 0
M  V30 8048 H 799.742 -1.47806 4.86858 0
M  V30 8049 H 799.14 -4.38429 3.57486 0
M  V30 8050 H 797.697 -4.79992 4.40966 0
M  V30 8051 N 801.13 -1.57531 -0.0467866 0
M  V30 8052 C 802.093 -2.04379 -1.03738 0
M  V30 8053 C 803.093 -0.944881 -1.3011 0
M  V30 8054 O 804.283 -1.20904 -1.25411 0
M  V30 8055 C 801.415 -2.44572 -2.37482 0
M  V30 8056 H 802.608 -2.93142 -0.633063 0
M  V30 8057 H 800.161 -1.53526 -0.293177 0
M  V30 8058 H 800.896 -1.58911 -2.82697 0
M  V30 8059 H 800.681 -3.24785 -2.19675 0
M  V30 8060 H 802.171 -2.81307 -3.08636 0
M  V30 8061 N 802.608 0.318715 -1.54344 0
M  V30 8062 C 803.571 1.37545 -1.83342 0
M  V30 8063 C 804.571 1.445 -0.705444 0
M  V30 8064 O 805.761 1.44443 -0.973752 0
M  V30 8065 C 802.893 2.76225 -1.99781 0
M  V30 8066 H 804.086 1.13084 -2.77762 0
M  V30 8067 H 801.639 0.554457 -1.46135 0
M  V30 8068 H 802.374 3.05934 -1.07588 0
M  V30 8069 H 802.159 2.7257 -2.81865 0
M  V30 8070 H 803.649 3.52664 -2.23647 0
M  V30 8071 N 804.086 1.46499 0.581025 0
M  V30 8072 C 805.049 1.5677 1.672 0
M  V30 8073 C 806.049 0.444716 1.54528 0
M  V30 8074 O 807.239 0.709074 1.59116 0
M  V30 8075 C 804.371 1.4896 3.06633 0
M  V30 8076 H 805.564 2.54 1.5945 0
M  V30 8077 H 803.117 1.34334 0.799003 0
M  V30 8078 H 803.852 0.530168 3.19937 0
M  V30 8079 H 803.637 2.30439 3.17239 0
M  V30 8080 H 805.127 1.59237 3.86048 0
M  V30 8081 N 805.565 -0.825799 1.34232 0
M  V30 8082 C 806.793 -1.61363 1.29497 0
M  V30 8083 C 807.208 -1.88341 -0.131536 0
M  V30 8084 O 806.565 -1.47279 -1.07773 0
M  V30 8085 C 806.616 -2.95623 2.08061 0
M  V30 8086 O 806.337 -2.69824 3.45147 0
M  V30 8087 C 807.838 -3.90032 2.10688 0
M  V30 8088 H 805.058 -0.501676 0.445603 0
M  V30 8089 H 807.602 -1.02767 1.76803 0
M  V30 8090 H 805.757 -3.50785 1.64404 0
M  V30 8091 H 806.171 -3.55412 3.85723 0
M  V30 8092 H 807.645 -4.81411 2.70087 0
M  V30 8093 H 808.122 -4.25188 1.10052 0
M  V30 8094 H 808.728 -3.40807 2.54422 0
M  V30 8095 N 807.043 -1.17915 -1.04565 0
M  V30 8096 C 808.454 -0.976383 -1.59134 0
M  V30 8097 C 808.805 0.475267 -1.90357 0
M  V30 8098 O 807.93 1.35172 -1.6899 0
M  V30 8099 C 808.525 -1.76604 -2.89131 0
M  V30 8100 C 807.084 -1.60777 -3.40335 0
M  V30 8101 C 806.231 -1.76369 -2.13985 0
M  V30 8102 H 809.182 -1.32532 -0.872985 0
M  V30 8103 H 809.203 -1.25215 -3.59307 0
M  V30 8104 H 808.715 -2.82252 -2.66375 0
M  V30 8105 H 806.816 -0.576436 -3.68114 0
M  V30 8106 H 806.929 -2.40268 -4.14497 0
M  V30 8107 H 805.293 -1.19268 -2.25049 0
M  V30 8108 H 806.076 -2.83441 -1.9369 0
M  V30 8109 N 808.521 1.23394 -0.980386 0
M  V30 8110 C 809.484 2.23092 -0.525619 0
M  V30 8111 C 810.484 1.56129 0.384745 0
M  V30 8112 O 811.674 1.73284 0.178439 0
M  V30 8113 C 808.806 3.40074 0.23712 0
M  V30 8114 H 809.999 2.64839 -1.40714 0
M  V30 8115 H 807.552 1.36227 -0.766275 0
M  V30 8116 H 808.287 3.03783 1.13518 0
M  V30 8117 H 808.072 3.89883 -0.416356 0
M  V30 8118 H 809.562 4.14043 0.543892 0
M  V30 8119 N 809.999 0.752036 1.385 0
M  V30 8120 C 811.247 0.306895 1.99756 0
M  V30 8121 C 811.568 -1.11478 1.59992 0
M  V30 8122 O 810.838 -1.76206 0.856045 0
M  V30 8123 H 809.418 0.11048 0.738785 0
M  V30 8124 H 812.08 0.965785 1.69289 0
M  V30 8125 H 811.176 0.368797 3.09913 0
M  V30 8126 N 811.477 -1.49425 0.500989 0
M  V30 8127 C 812.717 -2.04357 -0.0419004 0
M  V30 8128 C 813.081 -1.37236 -1.34277 0
M  V30 8129 O 814.282 -1.82889 -1.9699 0
M  V30 8130 C 812.553 -3.56889 -0.19112 0
M  V30 8131 S 814.112 -4.33369 -0.688259 0
M  V30 8132 H 810.93 -0.710998 -0.00177796 0
M  V30 8133 H 813.532 -1.83479 0.674953 0
M  V30 8134 H 812.236 -4.03283 0.760964 0
M  V30 8135 H 811.767 -3.82171 -0.933214 0
M  V30 8136 H 813.782 -4.55961 -1.9574 0
M  V30 8137 N 812.955 -0.234822 -1.55841 0
M  V30 8138 C 814.366 0.270588 -1.84729 0
M  V30 8139 C 814.717 1.58494 -1.15646 0
M  V30 8140 O 813.842 2.12071 -0.430667 0
M  V30 8141 C 814.437 0.497733 -3.35124 0
M  V30 8142 C 812.996 0.947428 -3.64281 0
M  V30 8143 C 812.143 0.01787 -2.77294 0
M  V30 8144 H 815.094 -0.457691 -1.51957 0
M  V30 8145 H 815.115 1.34199 -3.56049 0
M  V30 8146 H 814.627 -0.459037 -3.85376 0
M  V30 8147 H 812.728 1.91709 -3.19497 0
M  V30 8148 H 812.841 0.812651 -4.72158 0
M  V30 8149 H 811.205 0.527071 -2.49187 0
M  V30 8150 H 811.988 -0.934056 -3.30349 0
M  V30 8151 N 814.433 1.57553 0.0384317 0
M  V30 8152 C 815.396 2.04927 1.02653 0
M  V30 8153 C 816.396 0.951768 1.29607 0
M  V30 8154 O 817.586 1.21568 1.24768 0
M  V30 8155 C 814.718 2.45828 2.36181 0
M  V30 8156 H 815.911 2.93474 0.617508 0
M  V30 8157 H 813.464 1.53679 0.285031 0
M  V30 8158 H 814.199 1.60408 2.8185 0
M  V30 8159 H 813.984 3.25945 2.1795 0
M  V30 8160 H 815.474 2.82939 3.0714 0
M  V30 8161 N 815.911 -0.310526 1.54511 0
M  V30 8162 C 817.327 -0.655637 1.45511 0
M  V30 8163 C 817.527 -1.91114 0.638564 0
M  V30 8164 O 816.583 -2.52098 0.142497 0
M  V30 8165 C 817.896 -0.817501 2.89374 0
M  V30 8166 C 819.444 -0.914003 2.99358 0
M  V30 8167 C 819.919 -1.10794 4.44397 0
M  V30 8168 N 821.41 -1.17437 4.48066 0
M  V30 8169 C 822.145 -1.34255 5.57461 0
M  V30 8170 N 821.641 -1.48032 6.768 0
M  V30 8171 N 823.434 -1.37067 5.45132 0
M  V30 8172 H 815.585 0.514506 2.06074 0
M  V30 8173 H 817.848 0.168478 0.932909 0
M  V30 8174 H 817.554 0.034003 3.51684 0
M  V30 8175 H 817.428 -1.7094 3.36243 0
M  V30 8176 H 819.815 -1.756 2.37168 0
M  V30 8177 H 819.896 0.00170958 2.558 0
M  V30 8178 H 819.54 -0.270743 5.07178 0
M  V30 8179 H 819.47 -2.03773 4.85576 0
M  V30 8180 H 821.961 -1.08181 3.62084 0
M  V30 8181 H 822.274 -1.60593 7.5593 0
M  V30 8182 H 820.619 -1.45105 6.79683 0
M  V30 8183 H 823.81 -1.25909 4.50849 0
M  V30 8184 H 823.983 -1.49831 6.3044 0
M  V30 8185 N 817.389 -1.46805 -0.573248 0
M  V30 8186 C 818.321 -1.54127 -1.6964 0
M  V30 8187 C 819.334 -0.428778 -1.57052 0
M  V30 8188 O 820.523 -0.697612 -1.64303 0
M  V30 8189 C 817.623 -1.41438 -3.07975 0
M  V30 8190 C 816.796 -2.66974 -3.46474 0
M  V30 8191 C 815.855 -2.48349 -4.63906 0
M  V30 8192 O 814.881 -3.22109 -4.69292 0
M  V30 8193 N 816.083 -1.55129 -5.59388 0
M  V30 8194 H 818.848 -2.50971 -1.6381 0
M  V30 8195 H 816.409 -1.42981 -0.759479 0
M  V30 8196 H 818.401 -1.26737 -3.84343 0
M  V30 8197 H 816.971 -0.527388 -3.08119 0
M  V30 8198 H 816.191 -2.9655 -2.59715 0
M  V30 8199 H 817.479 -3.50347 -3.68964 0
M  V30 8200 H 816.877 -0.94324 -5.57781 0
M  V30 8201 H 815.434 -1.46387 -6.35149 0
M  V30 8202 N 818.867 0.818669 -1.34668 0
M  V30 8203 C 819.83 1.9114 -1.26483 0
M  V30 8204 C 820.83 1.598 -0.179044 0
M  V30 8205 O 822.02 1.6876 -0.431952 0
M  V30 8206 C 819.152 3.27285 -0.95381 0
M  V30 8207 H 820.345 1.9982 -2.23634 0
M  V30 8208 H 817.898 1.01314 -1.19018 0
M  V30 8209 H 818.633 3.24297 0.0143428 0
M  V30 8210 H 818.418 3.51416 -1.73924 0
M  V30 8211 H 819.908 4.07299 -0.921827 0
M  V30 8212 N 820.346 1.18468 1.03938 0
M  V30 8213 C 821.594 0.978895 1.76811 0
M  V30 8214 C 821.915 -0.49257 1.88676 0
M  V30 8215 O 821.185 -1.3572 1.41269 0
M  V30 8216 H 819.765 0.359201 0.654968 0
M  V30 8217 H 822.427 1.49173 1.25433 0
M  V30 8218 H 821.523 1.418 2.78027 0
M  V30 8219 O 821.863 -1.1679 1.11545 0
M  V30 8220 H 822.554 -1.7538 0.822292 0
M  V30 END ATOM
M  V30 BEGIN BOND
M  V30 END BOND
M  V30 END CTAB
M  END
$$$$
