drugbank_target|Q53901 ActII protein (DB08541)
 OpenBabel12092120513D

  0  0  0     0  0            999 V3000
M  V30 BEGIN CTAB
M  V30 COUNTS 3970 4008 0 0 0
M  V30 BEGIN ATOM
M  V30 1 H -0.908 1.98254 -0.117106 0
M  V30 2 N 0 1.576 0 0
M  V30 3 C 0.933 2.03868 1.02534 0
M  V30 4 C 1.911 0.928543 1.3348 0
M  V30 5 O 3.095 1.19667 1.45644 0
M  V30 6 C 0.222 2.43627 2.35294 0
M  V30 7 C -0.732 3.65373 2.2001 0
M  V30 8 S 0.101 5.13292 1.52614 0
M  V30 9 C 1.257 5.56322 2.86805 0
M  V30 10 H 1.49 2.90518 0.631377 0
M  V30 11 H -0.977 1.52953 0.210867 0
M  V30 12 H 0.981 2.67203 3.11629 0
M  V30 13 H -0.358 1.57376 2.7183 0
M  V30 14 H -1.165 3.90944 3.18086 0
M  V30 15 H -1.563 3.418 1.51819 0
M  V30 16 H 0.729 5.58782 3.83104 0
M  V30 17 H 1.672 6.56266 2.65933 0
M  V30 18 H 2.08 4.83886 2.90714 0
M  V30 19 N 1.4781 -0.272755 1.55222 0
M  V30 20 C 2.7031 -1.02683 1.80197 0
M  V30 21 C 3.1281 -1.79142 0.573551 0
M  V30 22 O 2.4861 -1.74917 -0.476849 0
M  V30 23 C 2.5341 -1.9609 3.02624 0
M  V30 24 O 1.6381 -3.04863 2.77727 0
M  V30 25 H 0.9791 -0.293557 0.595584 0
M  V30 26 H 3.5091 -0.30159 2.02365 0
M  V30 27 H 3.5191 -2.38039 3.31363 0
M  V30 28 H 2.1941 -1.39851 3.91682 0
M  V30 29 H 0.7711 -2.67228 2.60084 0
M  V30 30 N 2.9562 -1.48159 -0.537278 0
M  V30 31 C 4.3722 -1.34118 -0.865129 0
M  V30 32 C 4.5722 -0.346678 -1.98495 0
M  V30 33 O 3.6282 0.234715 -2.51407 0
M  V30 34 C 4.9412 -2.73963 -1.23954 0
M  V30 35 C 6.4892 -2.82397 -1.34984 0
M  V30 36 C 6.9642 -4.22928 -1.75772 0
M  V30 37 N 8.4552 -4.25566 -1.82887 0
M  V30 38 C 9.1902 -5.31235 -2.15817 0
M  V30 39 N 8.6862 -6.47189 -2.47222 0
M  V30 40 N 10.4792 -5.18624 -2.16761 0
M  V30 41 H 2.6302 -2.1144 0.201715 0
M  V30 42 H 4.8932 -0.947598 0.0275949 0
M  V30 43 H 4.5992 -3.48264 -0.490381 0
M  V30 44 H 4.4732 -3.0702 -2.19132 0
M  V30 45 H 6.8602 -2.08356 -2.08978 0
M  V30 46 H 6.9412 -2.5297 -0.379448 0
M  V30 47 H 6.5852 -4.97482 -1.02341 0
M  V30 48 H 6.5152 -4.49794 -2.73848 0
M  V30 49 H 9.0062 -3.41924 -1.60924 0
M  V30 50 H 9.3192 -7.23564 -2.71433 0
M  V30 51 H 7.6642 -6.50476 -2.44757 0
M  V30 52 H 10.8552 -4.27056 -1.91679 0
M  V30 53 H 11.0282 -6.01078 -2.42093 0
M  V30 54 N 4.4343 0.785586 -1.36625 0
M  V30 55 C 5.6593 1.57963 -1.34397 0
M  V30 56 C 6.0843 1.87964 0.071526 0
M  V30 57 O 5.4423 1.48182 1.0446 0
M  V30 58 C 5.4903 2.87511 -2.17646 0
M  V30 59 O 4.5943 3.81281 -1.57158 0
M  V30 60 H 3.9353 0.479014 -0.459828 0
M  V30 61 H 6.4653 0.973411 -1.79961 0
M  V30 62 H 6.4753 3.36745 -2.30362 0
M  V30 63 H 5.1503 2.65002 -3.20541 0
M  V30 64 H 3.7273 3.39885 -1.53403 0
M  V30 65 N 5.9124 1.20967 1.01018 0
M  V30 66 C 6.8224 0.980157 2.13143 0
M  V30 67 C 7.8384 -0.0660665 1.73875 0
M  V30 68 O 9.0144 0.122821 2.01025 0
M  V30 69 C 6.0794 0.54216 3.42435 0
M  V30 70 C 5.1404 1.65999 3.95908 0
M  V30 71 C 4.3734 1.2428 5.19028 0
M  V30 72 O 4.5964 0.114196 5.70286 0
M  V30 73 O 3.5304 2.05271 5.65816 0
M  V30 74 H 7.3564 1.91913 2.35379 0
M  V30 75 H 4.9414 0.994099 1.11526 0
M  V30 76 H 6.8234 0.30744 4.20277 0
M  V30 77 H 5.4984 -0.36815 3.216 0
M  V30 78 H 4.4054 1.94906 3.19316 0
M  V30 79 H 5.7384 2.54753 4.21143 0
M  V30 80 N 7.3905 -1.2043 1.01659 0
M  V30 81 C 8.3005 -2.2689 0.596484 0
M  V30 82 C 9.3165 -1.70107 -0.36599 0
M  V30 83 O 10.4925 -2.00117 -0.226942 0
M  V30 84 C 7.5575 -3.4665 -0.0586659 0
M  V30 85 C 6.6185 -4.18662 0.949751 0
M  V30 86 C 5.8515 -5.32705 0.32577 0
M  V30 87 O 6.0745 -5.63656 -0.874509 0
M  V30 88 O 5.0085 -5.92803 1.04249 0
M  V30 89 H 8.8345 -2.65041 1.4828 0
M  V30 90 H 6.4195 -1.27048 0.786082 0
M  V30 91 H 8.3015 -4.19256 -0.424564 0
M  V30 92 H 6.9765 -3.10375 -0.91918 0
M  V30 93 H 5.8835 -3.48229 1.36702 0
M  V30 94 H 7.2165 -4.58878 1.78023 0
M  V30 95 N 8.8686 -0.792821 -1.36206 0
M  V30 96 C 10.1166 -0.366062 -1.98757 0
M  V30 97 C 10.4376 1.0668 -1.63231 0
M  V30 98 O 9.7076 1.73587 -0.907978 0
M  V30 99 H 8.2876 -0.132364 -0.735179 0
M  V30 100 H 10.9496 -1.01562 -1.66347 0
M  V30 101 H 10.0456 -0.460638 -3.08682 0
M  V30 102 N 10.3467 1.47872 -0.545128 0
M  V30 103 C 11.7627 1.5829 -0.204032 0
M  V30 104 C 11.9627 1.54529 1.29317 0
M  V30 105 O 11.0187 1.44232 2.07252 0
M  V30 106 C 12.3317 2.89304 -0.819987 0
M  V30 107 C 13.8797 3.02864 -0.790105 0
M  V30 108 C 14.3547 4.3656 -1.38491 0
M  V30 109 N 15.8457 4.43165 -1.34755 0
M  V30 110 C 16.5807 5.45153 -1.77753 0
M  V30 111 N 16.0767 6.54016 -2.2855 0
M  V30 112 N 17.8697 5.36125 -1.68897 0
M  V30 113 H 10.0207 1.4856 -1.51802 0
M  V30 114 H 12.2837 0.706305 -0.632327 0
M  V30 115 H 11.9897 2.97757 -1.87173 0
M  V30 116 H 11.8637 3.75957 -0.305915 0
M  V30 117 H 14.2507 2.94014 0.252913 0
M  V30 118 H 14.3317 2.17782 -1.34181 0
M  V30 119 H 13.9757 4.46164 -2.42693 0
M  V30 120 H 13.9057 5.20353 -0.808754 0
M  V30 121 H 16.3967 3.65083 -0.975855 0
M  V30 122 H 16.7097 7.27994 -2.59314 0
M  V30 123 H 15.0547 6.54938 -2.32553 0
M  V30 124 H 18.2457 4.49975 -1.28998 0
M  V30 125 H 18.4187 6.15472 -2.02726 0
M  V30 126 N 11.8248 0.280983 1.55075 0
M  V30 127 C 13.2358 -0.215629 1.85451 0
M  V30 128 C 13.5868 -1.54991 1.203 0
M  V30 129 O 12.7118 -2.10699 0.493435 0
M  V30 130 C 13.3068 -0.398026 3.36454 0
M  V30 131 C 11.8658 -0.838866 3.66933 0
M  V30 132 C 11.0128 0.064458 2.77225 0
M  V30 133 H 13.9638 0.502601 1.50531 0
M  V30 134 H 13.9848 -1.23569 3.59876 0
M  V30 135 H 13.4968 0.573241 3.83843 0
M  V30 136 H 11.5978 -1.8214 3.25048 0
M  V30 137 H 11.7108 -0.672123 4.74362 0
M  V30 138 H 10.0748 -0.452863 2.50642 0
M  V30 139 H 10.8578 1.03172 3.2743 0
M  V30 140 N 13.3029 -1.57598 0.00835791 0
M  V30 141 C 14.2359 -2.04409 -1.01451 0
M  V30 142 C 15.2139 -0.935609 -1.32985 0
M  V30 143 O 16.3979 -1.20437 -1.45007 0
M  V30 144 C 13.5249 -2.44872 -2.33999 0
M  V30 145 C 12.5709 -3.66535 -2.18069 0
M  V30 146 S 13.4039 -5.14095 -1.4989 0
M  V30 147 C 14.5599 -5.57835 -2.8385 0
M  V30 148 H 14.7929 -2.90849 -0.615961 0
M  V30 149 H 12.3259 -1.53063 -0.202752 0
M  V30 150 H 14.2839 -2.68852 -3.10208 0
M  V30 151 H 12.9449 -1.58815 -2.70992 0
M  V30 152 H 12.1379 -3.92626 -3.16008 0
M  V30 153 H 11.7399 -3.426 -1.50004 0
M  V30 154 H 14.0319 -5.60806 -3.80136 0
M  V30 155 H 14.9749 -6.57667 -2.62449 0
M  V30 156 H 15.3829 -4.85421 -2.88144 0
M  V30 157 N 14.781 0.264519 -1.55364 0
M  V30 158 C 16.192 0.834936 -1.6699 0
M  V30 159 C 16.543 1.86718 -0.602552 0
M  V30 160 O 15.668 2.14899 0.254425 0
M  V30 161 C 16.263 1.5212 -3.02729 0
M  V30 162 C 14.822 2.03954 -3.16354 0
M  V30 163 C 13.969 0.884498 -2.62815 0
M  V30 164 H 16.92 0.0406869 -1.58648 0
M  V30 165 H 16.941 2.38853 -2.96191 0
M  V30 166 H 16.453 0.769668 -3.80392 0
M  V30 167 H 14.554 2.82041 -2.43482 0
M  V30 168 H 14.667 2.24902 -4.23032 0
M  V30 169 H 13.031 1.2802 -2.20188 0
M  V30 170 H 13.814 0.14634 -3.42988 0
M  V30 171 N 16.2591 1.48442 0.529413 0
M  V30 172 C 17.1691 1.6569 1.66084 0
M  V30 173 C 18.1851 0.539432 1.65427 0
M  V30 174 O 19.3611 0.810572 1.84368 0
M  V30 175 C 16.4261 1.69315 3.02545 0
M  V30 176 C 15.4871 2.92694 3.14052 0
M  V30 177 C 14.7201 2.96137 4.44003 0
M  V30 178 O 14.9431 2.07973 5.31134 0
M  V30 179 O 13.8771 3.88312 4.59888 0
M  V30 180 H 17.7031 2.61483 1.54469 0
M  V30 181 H 15.2881 1.3185 0.702567 0
M  V30 182 H 17.1701 1.74217 3.83701 0
M  V30 183 H 15.8451 0.766966 3.14483 0
M  V30 184 H 14.7521 2.93324 2.32189 0
M  V30 185 H 16.0851 3.84699 3.0703 0
M  V30 186 N 17.7372 -0.778329 1.37039 0
M  V30 187 C 18.6472 -1.92253 1.34446 0
M  V30 188 C 19.6632 -1.72267 0.244991 0
M  V30 189 O 20.8392 -1.95615 0.479258 0
M  V30 190 C 17.9042 -3.27282 1.144 0
M  V30 191 C 16.9652 -3.59969 2.33925 0
M  V30 192 C 16.1982 -4.88555 2.14825 0
M  V30 193 O 16.4212 -5.59113 1.12912 0
M  V30 194 O 15.3552 -5.20153 3.02861 0
M  V30 195 H 19.1812 -1.97392 2.30803 0
M  V30 196 H 16.7662 -0.920154 1.17701 0
M  V30 197 H 18.6482 -4.08062 1.05182 0
M  V30 198 H 17.3232 -3.23011 0.211124 0
M  V30 199 H 16.2302 -2.7945 2.48714 0
M  V30 200 H 17.5632 -3.68976 3.25757 0
M  V30 201 N 19.2153 -1.21501 -1.00376 0
M  V30 202 C 20.4643 -1.02718 -1.73586 0
M  V30 203 C 20.7773 0.439589 -1.90596 0
M  V30 204 O 21.9833 0.746848 -2.61026 0
M  V30 205 C 20.4393 -1.78929 -3.1227 0
M  V30 206 C 20.0473 -3.29783 -3.03228 0
M  V30 207 C 21.7913 -1.68557 -3.89601 0
M  V30 208 C 19.6983 -3.98479 -4.36999 0
M  V30 209 H 18.6283 -0.380733 -0.650814 0
M  V30 210 H 21.2793 -1.45248 -1.1214 0
M  V30 211 H 19.6613 -1.29192 -3.74333 0
M  V30 212 H 20.8353 -3.86832 -2.50395 0
M  V30 213 H 19.1503 -3.40711 -2.39385 0
M  V30 214 H 21.7473 -2.17211 -4.88593 0
M  V30 215 H 22.0903 -0.644021 -4.11288 0
M  V30 216 H 22.6233 -2.15778 -3.34193 0
M  V30 217 H 19.3623 -5.02841 -4.20513 0
M  V30 218 H 18.8823 -3.46219 -4.89788 0
M  V30 219 H 20.5613 -4.03462 -5.05794 0
M  V30 220 N 20.6934 1.19889 -1.02296 0
M  V30 221 C 22.1044 1.71124 -0.746568 0
M  V30 222 C 22.4554 1.81939 0.734335 0
M  V30 223 O 21.5804 1.48639 1.57275 0
M  V30 224 C 22.1754 3.10804 -1.34857 0
M  V30 225 C 20.7344 3.59323 -1.1209 0
M  V30 226 C 19.8814 2.3635 -1.45031 0
M  V30 227 H 22.8324 1.04813 -1.19163 0
M  V30 228 H 22.8534 3.73186 -0.742437 0
M  V30 229 H 22.3654 3.029 -2.42638 0
M  V30 230 H 20.4664 3.7255 -0.0610337 0
M  V30 231 H 20.5794 4.4378 -1.80544 0
M  V30 232 H 18.9434 2.39399 -0.869487 0
M  V30 233 H 19.7264 2.31081 -2.53883 0
M  V30 234 N 22.1715 0.800033 1.35784 0
M  V30 235 C 23.4175 0.377901 1.99248 0
M  V30 236 C 23.7505 -1.05052 1.63333 0
M  V30 237 O 23.0255 -1.72768 0.893385 0
M  V30 238 C 23.3085 0.553922 3.55814 0
M  V30 239 C 23.1615 2.0268 4.01548 0
M  V30 240 C 24.4805 -0.0244802 4.40093 0
M  V30 241 H 21.5995 0.138782 0.723815 0
M  V30 242 H 24.2415 1.00835 1.61035 0
M  V30 243 H 22.3915 0.0172398 3.88496 0
M  V30 244 H 24.0635 2.62536 3.79305 0
M  V30 245 H 22.3065 2.5256 3.52698 0
M  V30 246 H 22.9775 2.10087 5.10458 0
M  V30 247 H 25.4535 0.433775 4.13833 0
M  V30 248 H 24.3295 0.128637 5.48749 0
M  V30 249 H 24.5905 -1.11758 4.27741 0
M  V30 250 N 23.6496 -1.47581 0.552962 0
M  V30 251 C 25.0606 -1.86324 0.118463 0
M  V30 252 C 25.4116 -1.46006 -1.3106 0
M  V30 253 O 24.5366 -0.861182 -1.98526 0
M  V30 254 C 25.1316 -3.3816 0.20821 0
M  V30 255 C 23.6906 -3.7601 -0.171226 0
M  V30 256 C 22.8376 -2.71634 0.557686 0
M  V30 257 H 25.7886 -1.39159 0.762928 0
M  V30 258 H 25.8096 -3.76141 -0.574278 0
M  V30 259 H 25.3216 -3.67473 1.24841 0
M  V30 260 H 23.4226 -3.52313 -1.21269 0
M  V30 261 H 23.5356 -4.78745 0.184379 0
M  V30 262 H 21.8996 -2.547 0.00125792 0
M  V30 263 H 22.6826 -3.0379 1.59896 0
M  V30 264 N 25.1277 -0.289203 -1.54924 0
M  V30 265 C 26.5387 0.205791 -1.85562 0
M  V30 266 C 26.8897 1.54351 -1.2112 0
M  V30 267 O 26.0147 2.10435 -0.504601 0
M  V30 268 C 26.6097 0.380177 -3.3666 0
M  V30 269 C 25.1687 0.819395 -3.67373 0
M  V30 270 C 24.3157 -0.079159 -2.77187 0
M  V30 271 H 27.2667 -0.510577 -1.50262 0
M  V30 272 H 27.2877 1.21659 -3.60526 0
M  V30 273 H 26.7997 -0.593589 -3.83534 0
M  V30 274 H 24.9007 1.80413 -3.26009 0
M  V30 275 H 25.0137 0.646957 -4.74712 0
M  V30 276 H 23.3777 0.439565 -2.50878 0
M  V30 277 H 24.1607 -1.04906 -3.26878 0
M  V30 278 N 26.6058 1.57591 -0.0167156 0
M  V30 279 C 27.8518 1.92399 0.659861 0
M  V30 280 C 28.2068 0.892561 1.70444 0
M  V30 281 O 27.4998 -0.0930755 1.91374 0
M  V30 282 C 27.6938 3.3172 1.33029 0
M  V30 283 C 27.5228 4.48319 0.352174 0
M  V30 284 C 26.2928 5.05281 -0.0434883 0
M  V30 285 C 28.4908 5.12831 -0.388474 0
M  V30 286 N 26.4728 6.05399 -1.01807 0
M  V30 287 C 27.8438 6.07934 -1.2172 0
M  V30 288 C 29.8988 4.95858 -0.450513 0
M  V30 289 C 28.6018 6.87891 -2.10235 0
M  V30 290 C 30.6278 5.76413 -1.32295 0
M  V30 291 C 29.9898 6.71123 -2.13948 0
M  V30 292 H 26.0888 0.752106 0.21415 0
M  V30 293 H 28.6728 1.94532 -0.0809846 0
M  V30 294 H 26.8438 3.3043 2.04134 0
M  V30 295 H 28.5758 3.5391 1.9629 0
M  V30 296 H 25.3308 4.7246 0.328384 0
M  V30 297 H 25.7548 6.60145 -1.50123 0
M  V30 298 H 30.3968 4.22472 0.166512 0
M  V30 299 H 28.1148 7.60591 -2.72997 0
M  V30 300 H 31.7008 5.65317 -1.37508 0
M  V30 301 H 30.5808 7.3237 -2.80364 0
M  V30 302 N 28.0839 -0.256276 1.55502 0
M  V30 303 C 29.4999 -0.604325 1.47716 0
M  V30 304 C 29.6999 -1.88763 0.705039 0
M  V30 305 O 28.7559 -2.51445 0.230613 0
M  V30 306 C 30.0689 -0.715756 2.92057 0
M  V30 307 C 31.6169 -0.808706 3.02372 0
M  V30 308 C 32.0919 -0.951777 4.48001 0
M  V30 309 N 33.5829 -1.01688 4.519 0
M  V30 310 C 34.3179 -1.14668 5.61817 0
M  V30 311 N 33.8139 -1.24261 6.81565 0
M  V30 312 N 35.6069 -1.1791 5.49594 0
M  V30 313 H 27.7579 0.586291 2.04148 0
M  V30 314 H 30.0209 0.201015 0.926443 0
M  V30 315 H 29.7269 0.157027 3.51349 0
M  V30 316 H 29.6009 -1.59071 3.42018 0
M  V30 317 H 31.9879 -1.67195 2.43166 0
M  V30 318 H 32.0689 0.0912063 2.55637 0
M  V30 319 H 31.7129 -0.0931291 5.07815 0
M  V30 320 H 31.6429 -1.86659 4.92408 0
M  V30 321 H 34.1339 -0.954468 3.65648 0
M  V30 322 H 34.4469 -1.34046 7.61086 0
M  V30 323 H 32.7919 -1.21236 6.84344 0
M  V30 324 H 35.9829 -1.10057 4.54978 0
M  V30 325 H 36.1559 -1.27681 6.35296 0
M  V30 326 N 29.562 -1.4872 -0.521534 0
M  V30 327 C 30.978 -1.35028 -0.850855 0
M  V30 328 C 31.178 -0.367712 -1.98116 0
M  V30 329 O 30.234 0.208037 -2.51642 0
M  V30 330 C 31.547 -2.75263 -1.21041 0
M  V30 331 C 33.095 -2.83813 -1.31981 0
M  V30 332 C 33.57 -4.24769 -1.71276 0
M  V30 333 N 35.061 -4.27482 -1.78363 0
M  V30 334 C 35.796 -5.33494 -2.1017 0
M  V30 335 N 35.292 -6.49775 -2.40343 0
M  V30 336 N 37.085 -5.20894 -2.11248 0
M  V30 337 H 29.236 -2.11214 0.22413 0
M  V30 338 H 31.499 -0.947252 0.0376439 0
M  V30 339 H 31.205 -3.48765 -0.453415 0
M  V30 340 H 31.079 -3.09327 -2.15863 0
M  V30 341 H 33.466 -2.10561 -2.06756 0
M  V30 342 H 33.547 -2.53358 -0.352596 0
M  V30 343 H 33.191 -4.9854 -0.970588 0
M  V30 344 H 33.121 -4.52673 -2.69062 0
M  V30 345 H 35.612 -3.43611 -1.57288 0
M  V30 346 H 35.925 -7.26402 -2.63743 0
M  V30 347 H 34.27 -6.53035 -2.37844 0
M  V30 348 H 37.461 -4.29065 -1.87139 0
M  V30 349 H 37.634 -6.03612 -2.35704 0
M  V30 350 N 31.0401 0.771051 -1.3745 0
M  V30 351 C 32.4511 1.34737 -1.29239 0
M  V30 352 C 32.8021 1.96109 0.0596908 0
M  V30 353 O 31.9271 1.93865 0.961534 0
M  V30 354 C 32.5221 2.44973 -2.34037 0
M  V30 355 C 31.0811 2.98372 -2.29458 0
M  V30 356 C 30.2281 1.71595 -2.17831 0
M  V30 357 H 33.1791 0.571256 -1.48062 0
M  V30 358 H 33.2001 3.24471 -1.98744 0
M  V30 359 H 32.7121 2.00276 -3.32432 0
M  V30 360 H 30.8131 3.47443 -1.34589 0
M  V30 361 H 30.9261 3.53939 -3.229 0
M  V30 362 H 29.2901 1.94547 -1.64388 0
M  V30 363 H 30.0731 1.29001 -3.18141 0
M  V30 364 N 32.5182 1.22032 0.997298 0
M  V30 365 C 33.4652 0.986467 2.08656 0
M  V30 366 C 34.4352 -0.0902671 1.65855 0
M  V30 367 O 35.6202 0.0584294 1.90711 0
M  V30 368 C 32.7602 0.565569 3.40434 0
M  V30 369 C 31.8732 1.71259 3.96604 0
M  V30 370 C 31.0082 1.24011 5.16522 0
M  V30 371 C 30.0472 2.35896 5.64818 0
M  V30 372 N 29.1842 1.89726 6.7598 0
M  V30 373 H 34.0242 1.91892 2.27994 0
M  V30 374 H 31.5612 0.956199 1.11782 0
M  V30 375 H 33.5192 0.302738 4.161 0
M  V30 376 H 32.1492 -0.329879 3.2111 0
M  V30 377 H 31.2012 2.08986 3.17851 0
M  V30 378 H 32.5132 2.55436 4.28432 0
M  V30 379 H 31.6672 0.934395 5.99461 0
M  V30 380 H 30.4062 0.368487 4.86306 0
M  V30 381 H 29.4112 2.67261 4.8047 0
M  V30 382 H 30.6362 3.23567 5.97061 0
M  V30 383 H 28.5822 1.0492 6.47555 0
M  V30 384 H 28.4992 2.67471 7.07103 0
M  V30 385 H 29.7672 1.62211 7.62435 0
M  V30 386 N 33.9963 -1.19345 1.0293 0
M  V30 387 C 34.9433 -2.2258 0.610464 0
M  V30 388 C 35.9133 -1.6179 -0.375946 0
M  V30 389 O 37.0983 -1.88844 -0.272511 0
M  V30 390 C 34.2383 -3.45085 -0.0321473 0
M  V30 391 C 33.3513 -4.20258 1.00035 0
M  V30 392 C 32.4863 -5.3019 0.32746 0
M  V30 393 C 31.5253 -5.97121 1.34584 0
M  V30 394 N 30.6623 -6.98615 0.698726 0
M  V30 395 H 35.5023 -2.57764 1.49538 0
M  V30 396 H 33.0393 -1.26644 0.748311 0
M  V30 397 H 34.9973 -4.15061 -0.421966 0
M  V30 398 H 33.6273 -3.10555 -0.88064 0
M  V30 399 H 32.6793 -3.49223 1.50823 0
M  V30 400 H 33.9913 -4.66175 1.77433 0
M  V30 401 H 33.1453 -6.06587 -0.11718 0
M  V30 402 H 31.8843 -4.85345 -0.478713 0
M  V30 403 H 30.8893 -5.19474 1.80074 0
M  V30 404 H 32.1143 -6.4405 2.15352 0
M  V30 405 H 30.0603 -6.55942 -0.0873471 0
M  V30 406 H 29.9773 -7.42724 1.41058 0
M  V30 407 H 31.2453 -7.79004 0.278102 0
M  V30 408 N 35.4744 -0.807222 -1.35358 0
M  V30 409 C 36.4374 -0.223665 -2.28106 0
M  V30 410 C 37.4374 0.589354 -1.4961 0
M  V30 411 O 38.6274 0.407745 -1.69361 0
M  V30 412 C 35.7594 0.688149 -3.33882 0
M  V30 413 H 36.9524 -1.04169 -2.81227 0
M  V30 414 H 34.5054 -0.577921 -1.45223 0
M  V30 415 H 35.2404 1.52984 -2.85948 0
M  V30 416 H 35.0254 0.10687 -3.91954 0
M  V30 417 H 36.5154 1.09075 -4.03104 0
M  V30 418 N 36.9525 1.47285 -0.560781 0
M  V30 419 C 38.3635 1.86258 -0.128343 0
M  V30 420 C 38.7145 1.46699 1.30284 0
M  V30 421 O 37.8395 0.871698 1.98067 0
M  V30 422 C 38.4345 3.38044 -0.22614 0
M  V30 423 C 36.9935 3.76096 0.151283 0
M  V30 424 C 36.1405 2.71335 -0.572084 0
M  V30 425 H 39.0915 1.38752 -0.770297 0
M  V30 426 H 39.1125 3.76441 0.554322 0
M  V30 427 H 38.6245 3.66806 -1.26788 0
M  V30 428 H 36.7255 3.52951 1.19399 0
M  V30 429 H 36.8385 4.78641 -0.209765 0
M  V30 430 H 35.2025 2.54696 -0.0147653 0
M  V30 431 H 35.9855 3.02938 -1.61504 0
M  V30 432 N 38.4306 0.297415 1.54768 0
M  V30 433 C 39.8416 -0.195947 1.85669 0
M  V30 434 C 40.1926 -1.53707 1.21937 0
M  V30 435 O 39.3176 -2.10164 0.515754 0
M  V30 436 C 39.9126 -0.362318 3.36857 0
M  V30 437 C 38.4716 -0.799901 3.67802 0
M  V30 438 C 37.6186 0.0938578 2.77141 0
M  V30 439 H 40.5696 0.518538 1.4999 0
M  V30 440 H 40.5906 -1.19745 3.61167 0
M  V30 441 H 40.1026 0.613921 3.83214 0
M  V30 442 H 38.2036 -1.78682 3.26961 0
M  V30 443 H 38.3166 -0.621773 4.75048 0
M  V30 444 H 36.6806 -0.426254 2.51108 0
M  V30 445 H 37.4636 1.06639 3.26318 0
M  V30 446 N 39.9087 -1.5758 0.0250728 0
M  V30 447 C 41.3247 -1.56124 -0.331282 0
M  V30 448 C 41.5247 -1.03029 -1.73169 0
M  V30 449 O 40.5807 -0.675215 -2.43305 0
M  V30 450 C 41.8937 -3.00139 -0.183584 0
M  V30 451 C 43.4417 -3.11946 -0.256654 0
M  V30 452 C 43.9167 -4.57793 -0.137792 0
M  V30 453 N 45.4077 -4.6279 -0.194904 0
M  V30 454 C 46.1427 -5.7326 -0.126655 0
M  V30 455 N 45.6387 -6.928 -0.00755288 0
M  V30 456 N 47.4317 -5.61811 -0.180348 0
M  V30 457 H 39.5827 -1.90424 0.94087 0
M  V30 458 H 41.8457 -0.875761 0.362968 0
M  V30 459 H 41.5517 -3.4292 0.780927 0
M  V30 460 H 41.4257 -3.64899 -0.955448 0
M  V30 461 H 43.8127 -2.69079 -1.21162 0
M  V30 462 H 43.8937 -2.49915 0.545517 0
M  V30 463 H 43.5377 -5.01339 0.813739 0
M  V30 464 H 43.4677 -5.17798 -0.958775 0
M  V30 465 H 45.9587 -3.76807 -0.287267 0
M  V30 466 H 46.2717 -7.72791 0.0379428 0
M  V30 467 H 44.6167 -6.94995 0.0271731 0
M  V30 468 H 47.8077 -4.6731 -0.271767 0
M  V30 469 H 47.9807 -6.47882 -0.123697 0
M  V30 470 N 41.3868 0.248026 -1.55636 0
M  V30 471 C 42.3198 1.3334 -1.85191 0
M  V30 472 C 43.2978 1.46429 -0.706906 0
M  V30 473 O 44.4818 1.62662 -0.952544 0
M  V30 474 C 41.6088 2.70703 -2.03562 0
M  V30 475 C 40.6548 2.7477 -3.26196 0
M  V30 476 S 41.4878 2.31493 -4.82878 0
M  V30 477 C 42.6438 3.70783 -5.04253 0
M  V30 478 H 42.8768 1.08072 -2.76962 0
M  V30 479 H 40.4098 0.448952 -1.47729 0
M  V30 480 H 42.3678 3.49798 -2.1483 0
M  V30 481 H 41.0288 2.9321 -1.12635 0
M  V30 482 H 40.2218 3.75648 -3.36013 0
M  V30 483 H 39.8238 2.03719 -3.13647 0
M  V30 484 H 42.1158 4.6627 -4.91527 0
M  V30 485 H 43.0588 3.65901 -6.06236 0
M  V30 486 H 43.4668 3.63244 -4.32105 0
M  V30 487 N 42.8649 1.48995 0.513639 0
M  V30 488 C 44.2759 1.5119 1.09537 0
M  V30 489 C 44.6269 0.290906 1.94031 0
M  V30 490 O 43.7519 -0.60049 2.07902 0
M  V30 491 C 44.3469 2.73964 1.99322 0
M  V30 492 C 42.9059 2.78978 2.52682 0
M  V30 493 C 42.0529 2.44934 1.30009 0
M  V30 494 H 45.0039 1.55875 0.298125 0
M  V30 495 H 45.0249 2.53409 2.83838 0
M  V30 496 H 44.5369 3.62813 1.37799 0
M  V30 497 H 42.6379 1.94378 3.1788 0
M  V30 498 H 42.7509 3.8083 2.90698 0
M  V30 499 H 41.1149 1.9644 1.62122 0
M  V30 500 H 41.8979 3.36043 0.702131 0
M  V30 501 N 44.343 -0.763751 1.37857 0
M  V30 502 C 45.273 -1.89103 1.36975 0
M  V30 503 C 46.254 -1.68439 0.237152 0
M  V30 504 O 47.439 -1.8918 0.438713 0
M  V30 505 C 44.569 -3.26496 1.18395 0
M  V30 506 C 43.523 -3.61741 2.28751 0
M  V30 507 C 42.849 -4.97762 1.95286 0
M  V30 508 C 44.149 -3.67665 3.70972 0
M  V30 509 H 45.843 -1.90099 2.31307 0
M  V30 510 H 43.389 -0.91319 1.11341 0
M  V30 511 H 45.342 -4.05003 1.16406 0
M  V30 512 H 44.066 -3.25955 0.205215 0
M  V30 513 H 42.725 -2.85547 2.29909 0
M  V30 514 H 42.373 -4.93769 0.959221 0
M  V30 515 H 42.073 -5.22313 2.69189 0
M  V30 516 H 43.597 -5.7866 1.94898 0
M  V30 517 H 45.011 -4.36307 3.719 0
M  V30 518 H 43.408 -4.03718 4.43995 0
M  V30 519 H 44.478 -2.68134 4.0402 0
M  V30 520 N 45.8211 -1.22559 -0.990812 0
M  V30 521 C 47.0491 -1.07779 -1.76611 0
M  V30 522 C 47.4641 0.371513 -1.85109 0
M  V30 523 O 46.8211 1.25737 -1.32274 0
M  V30 524 C 46.8721 -1.68512 -3.19822 0
M  V30 525 O 46.5931 -3.07774 -3.1178 0
M  V30 526 C 48.0941 -1.59035 -4.13791 0
M  V30 527 H 45.3141 -0.377729 -0.554583 0
M  V30 528 H 47.8581 -1.62195 -1.24551 0
M  V30 529 H 46.0131 -1.18154 -3.68942 0
M  V30 530 H 46.4271 -3.37062 -4.01858 0
M  V30 531 H 47.9011 -2.0625 -5.1202 0
M  V30 532 H 48.3781 -0.547273 -4.35777 0
M  V30 533 H 48.9841 -2.08709 -3.70568 0
M  V30 534 N 47.2992 1.18797 -1.03562 0
M  V30 535 C 48.2312 2.21731 -0.580337 0
M  V30 536 C 49.2442 1.59051 0.347349 0
M  V30 537 O 50.4332 1.77929 0.142669 0
M  V30 538 C 47.5332 3.38459 0.172805 0
M  V30 539 C 46.7062 4.3072 -0.761496 0
M  V30 540 C 45.7652 5.26174 -0.0525547 0
M  V30 541 O 44.7912 5.65108 -0.681333 0
M  V30 542 N 45.9932 5.67624 1.21586 0
M  V30 543 H 48.7582 2.61417 -1.46565 0
M  V30 544 H 46.3192 1.33531 -0.915476 0
M  V30 545 H 48.3112 3.99335 0.656793 0
M  V30 546 H 46.8812 2.97507 0.959602 0
M  V30 547 H 46.1012 3.67525 -1.42544 0
M  V30 548 H 47.3892 4.89267 -1.39626 0
M  V30 549 H 46.7872 5.38038 1.74732 0
M  V30 550 H 45.3442 6.30721 1.64421 0
M  V30 551 N 48.7773 0.814389 1.34928 0
M  V30 552 C 50.0543 0.321363 1.92942 0
M  V30 553 C 50.4343 -1.19014 1.74353 0
M  V30 554 O 49.7823 -1.99328 1.11716 0
M  V30 555 C 49.9923 0.741323 3.41036 0
M  V30 556 C 51.3403 0.735266 4.18185 0
M  V30 557 O 52.3643 0.68336 3.49584 0
M  V30 558 O 51.2233 0.800703 5.40602 0
M  V30 559 H 48.3173 0.0858893 0.822528 0
M  V30 560 H 50.8633 0.898609 1.43955 0
M  V30 561 H 49.6353 1.78276 3.4833 0
M  V30 562 H 49.2583 0.139307 3.97356 0
M  V30 563 N 50.2554 -1.46986 0.568584 0
M  V30 564 C 51.6714 -1.57946 0.229189 0
M  V30 565 C 51.8714 -1.56567 -1.26843 0
M  V30 566 O 50.9274 -1.47511 -2.04931 0
M  V30 567 C 52.2404 -2.87963 0.865909 0
M  V30 568 C 53.7884 -3.01568 0.838188 0
M  V30 569 C 54.2634 -4.34301 1.45419 0
M  V30 570 N 55.7544 -4.40965 1.41788 0
M  V30 571 C 56.4894 -5.42256 1.86403 0
M  V30 572 N 55.9854 -6.50297 2.38926 0
M  V30 573 N 57.7784 -5.3337 1.77405 0
M  V30 574 H 49.9294 -1.46126 1.54146 0
M  V30 575 H 52.1924 -0.696156 0.643484 0
M  V30 576 H 51.8984 -2.94742 1.91886 0
M  V30 577 H 51.7724 -3.75423 0.365687 0
M  V30 578 H 54.1594 -2.94379 -0.206106 0
M  V30 579 H 54.2404 -2.1562 1.37629 0
M  V30 580 H 53.8844 -4.42247 2.49761 0
M  V30 581 H 53.8144 -5.19 0.891435 0
M  V30 582 H 56.3054 -3.63484 1.03381 0
M  V30 583 H 56.6184 -7.23777 2.70863 0
M  V30 584 H 54.9634 -6.51155 2.42944 0
M  V30 585 H 58.1544 -4.47865 1.3614 0
M  V30 586 H 58.3274 -6.12169 2.12492 0
M  V30 587 N 51.7335 -0.305618 -1.54608 0
M  V30 588 C 52.9825 0.303098 -1.9941 0
M  V30 589 C 53.2955 1.54648 -1.19764 0
M  V30 590 O 54.5015 2.23007 -1.54855 0
M  V30 591 C 52.9575 0.590588 -3.55021 0
M  V30 592 C 52.5655 -0.634719 -4.43481 0
M  V30 593 C 54.3095 1.16025 -4.08336 0
M  V30 594 C 52.2165 -0.320126 -5.90533 0
M  V30 595 H 51.1465 0.117031 -0.744862 0
M  V30 596 H 53.7975 -0.415045 -1.78745 0
M  V30 597 H 52.1795 1.36845 -3.71604 0
M  V30 598 H 53.3535 -1.41079 -4.38672 0
M  V30 599 H 51.6685 -1.12333 -4.00962 0
M  V30 600 H 54.2655 1.40994 -5.15776 0
M  V30 601 H 54.6085 2.10397 -3.5922 0
M  V30 602 H 55.1415 0.443985 -3.95315 0
M  V30 603 H 51.8805 -1.23254 -6.43808 0
M  V30 604 H 51.4005 0.418579 -5.98338 0
M  V30 605 H 53.0795 0.0766241 -6.46955 0
M  V30 606 N 53.2116 1.57565 -0.0334293 0
M  V30 607 C 54.4576 1.92262 0.645226 0
M  V30 608 C 54.7906 0.910543 1.71531 0
M  V30 609 O 54.0656 -0.066099 1.94388 0
M  V30 610 C 54.3486 3.37422 1.2577 0
M  V30 611 C 54.2016 4.49369 0.196891 0
M  V30 612 C 55.5206 3.82628 2.17449 0
M  V30 613 H 52.6396 0.699171 0.233085 0
M  V30 614 H 55.2816 1.89779 -0.0915694 0
M  V30 615 H 53.4316 3.39669 1.88566 0
M  V30 616 H 55.1036 4.59254 -0.433962 0
M  V30 617 H 53.3466 4.31168 -0.477137 0
M  V30 618 H 54.0176 5.47978 0.665124 0
M  V30 619 H 56.4936 3.82145 1.64634 0
M  V30 620 H 55.3696 4.84883 2.57254 0
M  V30 621 H 55.6306 3.18376 3.0674 0
M  V30 622 N 54.6897 -0.239769 1.55765 0
M  V30 623 C 55.9357 -0.968234 1.78194 0
M  V30 624 C 56.2687 -1.84701 0.599938 0
M  V30 625 O 55.5437 -1.9031 -0.401524 0
M  V30 626 C 55.8267 -1.8227 3.10564 0
M  V30 627 C 55.6797 -0.971633 4.3918 0
M  V30 628 C 56.9987 -2.80388 3.39221 0
M  V30 629 H 54.1177 -0.350572 0.648281 0
M  V30 630 H 56.7597 -0.238259 1.885 0
M  V30 631 H 54.9097 -2.44507 3.01908 0
M  V30 632 H 56.5817 -0.367408 4.59835 0
M  V30 633 H 54.8247 -0.276276 4.32919 0
M  V30 634 H 55.4957 -1.60346 5.28198 0
M  V30 635 H 57.9717 -2.28287 3.47885 0
M  V30 636 H 56.8477 -3.3729 4.33044 0
M  V30 637 H 57.1087 -3.57212 2.60484 0
M  V30 638 N 56.1678 -1.49265 -0.50573 0
M  V30 639 C 57.3958 -1.62215 -1.28429 0
M  V30 640 C 57.8108 -0.291697 -1.86533 0
M  V30 641 O 57.1678 0.722233 -1.67601 0
M  V30 642 C 57.2188 -2.68735 -2.41793 0
M  V30 643 O 56.9398 -3.96619 -1.86078 0
M  V30 644 C 58.4408 -2.92346 -3.3324 0
M  V30 645 H 55.6608 -0.546239 -0.389697 0
M  V30 646 H 58.2048 -1.95265 -0.607609 0
M  V30 647 H 56.3598 -2.38476 -3.053 0
M  V30 648 H 56.7738 -4.55256 -2.60465 0
M  V30 649 H 58.2478 -3.70623 -4.09075 0
M  V30 650 H 58.7248 -2.02081 -3.89948 0
M  V30 651 H 59.3308 -3.24003 -2.75503 0
M  V30 652 N 57.6459 0.756429 -1.3826 0
M  V30 653 C 58.6089 1.85176 -1.35065 0
M  V30 654 C 59.6089 1.58818 -0.251703 0
M  V30 655 O 60.7989 1.66615 -0.508433 0
M  V30 656 C 57.9309 3.22596 -1.10201 0
M  V30 657 H 59.1239 1.89417 -2.3251 0
M  V30 658 H 56.6769 0.95783 -1.23512 0
M  V30 659 H 57.4119 3.24025 -0.133504 0
M  V30 660 H 57.1969 3.43122 -1.89762 0
M  V30 661 H 58.6869 4.02673 -1.10654 0
M  V30 662 N 59.124 1.23083 0.984299 0
M  V30 663 C 60.054 1.03292 2.09411 0
M  V30 664 C 61.035 -0.048923 1.7003 0
M  V30 665 O 62.22 0.114967 1.93859 0
M  V30 666 C 59.35 0.619155 3.41736 0
M  V30 667 C 58.304 1.64791 3.95004 0
M  V30 668 C 57.63 1.0897 5.23478 0
M  V30 669 C 58.93 3.03999 4.24714 0
M  V30 670 H 60.624 1.96119 2.26225 0
M  V30 671 H 58.17 0.944344 1.08711 0
M  V30 672 H 60.123 0.467777 4.18796 0
M  V30 673 H 58.847 -0.344786 3.24775 0
M  V30 674 H 57.506 1.78721 3.20085 0
M  V30 675 H 57.154 0.11686 5.02864 0
M  V30 676 H 56.854 1.77704 5.60085 0
M  V30 677 H 58.378 0.950093 6.03163 0
M  V30 678 H 59.792 2.93393 4.92538 0
M  V30 679 H 58.189 3.69936 4.72512 0
M  V30 680 H 59.259 3.53285 3.32142 0
M  V30 681 N 60.6021 -1.18246 1.0419 0
M  V30 682 C 61.8501 -1.87886 0.744543 0
M  V30 683 C 62.1711 -1.8082 -0.730006 0
M  V30 684 O 61.4411 -1.22736 -1.52685 0
M  V30 685 H 60.0211 -0.695556 0.272417 0
M  V30 686 H 62.6831 -1.43494 1.31892 0
M  V30 687 H 61.7791 -2.9389 1.05049 0
M  V30 688 N 62.0802 -0.821533 -1.34494 0
M  V30 689 C 63.3292 -0.405355 -1.97585 0
M  V30 690 C 63.6422 1.03677 -1.65863 0
M  V30 691 O 64.8482 1.55679 -2.22433 0
M  V30 692 C 63.3042 -0.673861 -3.53535 0
M  V30 693 C 62.9122 -2.12951 -3.94152 0
M  V30 694 C 64.6562 -0.32378 -4.23263 0
M  V30 695 C 62.5632 -2.34298 -5.43009 0
M  V30 696 H 61.4932 -0.147836 -0.739365 0
M  V30 697 H 64.1442 -1.00769 -1.53355 0
M  V30 698 H 62.5262 -0.00137554 -3.96 0
M  V30 699 H 63.7002 -2.84104 -3.62797 0
M  V30 700 H 62.0152 -2.44089 -3.37356 0
M  V30 701 H 64.6122 -0.461126 -5.32708 0
M  V30 702 H 64.9552 0.731586 -4.09821 0
M  V30 703 H 65.4882 -0.950786 -3.8627 0
M  V30 704 H 62.2272 -3.38335 -5.61435 0
M  V30 705 H 61.7472 -1.67687 -5.75883 0
M  V30 706 H 63.4262 -2.16588 -6.09671 0
M  V30 707 N 63.5583 1.46682 -0.576371 0
M  V30 708 C 64.4883 2.33028 0.148397 0
M  V30 709 C 65.4693 1.44961 0.889956 0
M  V30 710 O 66.6543 1.73789 0.866662 0
M  V30 711 C 63.7843 3.27117 1.1667 0
M  V30 712 C 62.7383 4.24575 0.540386 0
M  V30 713 C 62.0643 5.08126 1.6647 0
M  V30 714 C 63.3643 5.19722 -0.518331 0
M  V30 715 H 65.0583 2.93875 -0.572509 0
M  V30 716 H 62.6043 1.41315 -0.276768 0
M  V30 717 H 64.5573 3.86374 1.68204 0
M  V30 718 H 63.2813 2.64364 1.9178 0
M  V30 719 H 61.9403 3.66571 0.0461769 0
M  V30 720 H 61.5883 4.41762 2.40531 0
M  V30 721 H 61.2883 5.74122 1.25131 0
M  V30 722 H 62.8123 5.70246 2.18293 0
M  V30 723 H 64.2263 5.73232 -0.0883058 0
M  V30 724 H 62.6233 5.94026 -0.851679 0
M  V30 725 H 63.6933 4.64037 -1.40703 0
M  V30 726 N 65.0364 0.313813 1.54444 0
M  V30 727 C 66.3134 -0.345447 1.92525 0
M  V30 728 C 66.6934 -1.70667 1.24242 0
M  V30 729 O 66.0414 -2.25273 0.382654 0
M  V30 730 C 66.2514 -0.44737 3.46121 0
M  V30 731 C 67.5994 -0.712238 4.18584 0
M  V30 732 O 68.6234 -0.530678 3.52225 0
M  V30 733 O 67.4824 -1.06183 5.36085 0
M  V30 734 H 64.5764 -0.195407 0.803583 0
M  V30 735 H 67.1224 0.362813 1.65776 0
M  V30 736 H 65.8944 0.509043 3.87975 0
M  V30 737 H 65.5174 -1.20359 3.78945 0
M  V30 738 N 66.5145 -1.57545 0.0417849 0
M  V30 739 C 67.4775 -2.09885 -0.92093 0
M  V30 740 C 68.4775 -1.01648 -1.24596 0
M  V30 741 O 69.6675 -1.27759 -1.1842 0
M  V30 742 C 66.7995 -2.57527 -2.23367 0
M  V30 743 H 67.9925 -2.96236 -0.467382 0
M  V30 744 H 65.5455 -1.5493 -0.206467 0
M  V30 745 H 66.2805 -1.74542 -2.73323 0
M  V30 746 H 66.0655 -3.36613 -2.01083 0
M  V30 747 H 67.5555 -2.98201 -2.92346 0
M  V30 748 N 67.9926 0.231505 -1.5589 0
M  V30 749 C 68.9026 1.308 -1.94752 0
M  V30 750 C 69.9186 1.51826 -0.849989 0
M  V30 751 O 71.0946 1.6515 -1.15271 0
M  V30 752 C 68.1596 2.63968 -2.24771 0
M  V30 753 C 67.2206 2.51331 -3.48039 0
M  V30 754 C 66.4536 3.78148 -3.76616 0
M  V30 755 O 66.6766 4.80722 -3.07022 0
M  V30 756 O 65.6106 3.75857 -4.70123 0
M  V30 757 H 69.4366 1.0083 -2.86474 0
M  V30 758 H 67.0216 0.433547 -1.42971 0
M  V30 759 H 68.9036 3.42633 -2.45318 0
M  V30 760 H 67.5786 2.9364 -1.36225 0
M  V30 761 H 66.4856 1.709 -3.32782 0
M  V30 762 H 67.8186 2.26601 -4.36936 0
M  V30 763 N 69.4707 1.49531 0.497807 0
M  V30 764 C 70.7187 1.58865 1.24926 0
M  V30 765 C 71.0397 0.278721 1.92998 0
M  V30 766 O 70.3097 -0.702144 1.82885 0
M  V30 767 H 68.8897 0.585343 0.464094 0
M  V30 768 H 71.5517 1.86174 0.57666 0
M  V30 769 H 70.6477 2.38633 2.01149 0
M  V30 770 N 70.9488 -0.749086 1.3866 0
M  V30 771 C 71.8788 -1.8764 1.38973 0
M  V30 772 C 72.8598 -1.68178 0.255004 0
M  V30 773 O 74.0448 -1.88704 0.458754 0
M  V30 774 C 71.1748 -3.25222 1.21851 0
M  V30 775 C 70.1288 -3.59295 2.32575 0
M  V30 776 C 69.4548 -4.95663 2.00555 0
M  V30 777 C 70.7548 -3.63709 3.7485 0
M  V30 778 H 72.4488 -1.87635 2.3331 0
M  V30 779 H 69.9948 -0.901329 1.12303 0
M  V30 780 H 71.9478 -4.03746 1.20695 0
M  V30 781 H 70.6718 -3.25719 0.239775 0
M  V30 782 H 69.3308 -2.83093 2.32925 0
M  V30 783 H 68.9788 -4.92724 1.01154 0
M  V30 784 H 68.6788 -5.19429 2.74714 0
M  V30 785 H 70.2028 -5.7656 2.01024 0
M  V30 786 H 71.6168 -4.32338 3.76506 0
M  V30 787 H 70.0138 -3.98986 4.48252 0
M  V30 788 H 71.0838 -2.63834 4.06841 0
M  V30 789 N 72.4269 -1.23603 -0.977757 0
M  V30 790 C 73.7039 -0.977897 -1.69401 0
M  V30 791 C 74.0839 0.502738 -2.05026 0
M  V30 792 O 73.4319 1.47459 -1.74551 0
M  V30 793 C 73.6419 -1.89077 -2.93345 0
M  V30 794 C 74.9899 -2.15579 -3.65802 0
M  V30 795 O 76.0139 -1.86648 -3.03383 0
M  V30 796 O 74.8729 -2.64658 -4.78141 0
M  V30 797 H 71.9669 -0.369025 -0.740101 0
M  V30 798 H 74.5129 -1.34657 -1.03274 0
M  V30 799 H 73.2849 -2.89158 -2.63634 0
M  V30 800 H 72.9079 -1.52463 -3.67207 0
M  V30 801 N 73.905 1.17692 -1.04816 0
M  V30 802 C 74.868 2.19787 -0.650117 0
M  V30 803 C 75.868 1.58044 0.296427 0
M  V30 804 O 77.058 1.74012 0.0808097 0
M  V30 805 C 74.19 3.40869 0.0456987 0
M  V30 806 H 75.383 2.56516 -1.5537 0
M  V30 807 H 72.936 1.31708 -0.841594 0
M  V30 808 H 73.671 3.09681 0.962726 0
M  V30 809 H 73.456 3.86928 -0.634727 0
M  V30 810 H 74.946 4.16445 0.310432 0
M  V30 811 N 75.3831 0.828654 1.34056 0
M  V30 812 C 76.3131 0.269443 2.3194 0
M  V30 813 C 77.2941 -0.617247 1.58506 0
M  V30 814 O 78.4791 -0.542931 1.86456 0
M  V30 815 C 75.6091 -0.564793 3.42677 0
M  V30 816 C 74.5631 0.225241 4.27407 0
M  V30 817 C 73.8891 -0.7321 5.29664 0
M  V30 818 C 75.1891 1.43663 5.02154 0
M  V30 819 H 76.8831 1.08728 2.7896 0
M  V30 820 H 74.4291 0.524283 1.34117 0
M  V30 821 H 76.3821 -0.966233 4.10173 0
M  V30 822 H 75.1061 -1.41574 2.9432 0
M  V30 823 H 73.7651 0.608117 3.61521 0
M  V30 824 H 73.4131 -1.57916 4.77568 0
M  V30 825 H 73.1131 -0.20767 5.87233 0
M  V30 826 H 74.6371 -1.13128 6.00029 0
M  V30 827 H 76.0511 1.1089 5.62473 0
M  V30 828 H 74.4481 1.89711 5.69324 0
M  V30 829 H 75.5181 2.21181 4.31517 0
M  V30 830 N 76.8612 -1.46375 0.584142 0
M  V30 831 C 78.0862 -2.07268 0.0740405 0
M  V30 832 C 78.5112 -1.42979 -1.22223 0
M  V30 833 O 77.8692 -0.514092 -1.73859 0
M  V30 834 C 77.9172 -3.60518 -0.0767769 0
M  V30 835 O 77.0212 -3.96533 -1.13292 0
M  V30 836 H 76.3622 -0.660961 0.0634524 0
M  V30 837 H 78.8922 -1.87991 0.807492 0
M  V30 838 H 78.9022 -4.07021 -0.282489 0
M  V30 839 H 77.5772 -4.06702 0.86986 0
M  V30 840 H 76.1542 -3.61738 -0.905553 0
M  V30 841 N 78.3393 -0.321999 -1.54275 0
M  V30 842 C 79.2723 0.58718 -2.20516 0
M  V30 843 C 80.2503 1.11693 -1.18167 0
M  V30 844 O 81.4343 1.18122 -1.46899 0
M  V30 845 C 78.5613 1.80554 -2.86562 0
M  V30 846 C 77.6073 1.40718 -4.02617 0
M  V30 847 S 78.4403 0.445218 -5.33646 0
M  V30 848 C 79.5963 1.6709 -6.03185 0
M  V30 849 H 79.8293 0.0244875 -2.9729 0
M  V30 850 H 77.3623 -0.106087 -1.54035 0
M  V30 851 H 79.3203 2.50462 -3.25237 0
M  V30 852 H 77.9813 2.33942 -2.09595 0
M  V30 853 H 77.1743 2.31501 -4.47687 0
M  V30 854 H 76.7763 0.78782 -3.65608 0
M  V30 855 H 79.0683 2.60856 -6.25268 0
M  V30 856 H 80.0113 1.26239 -6.96756 0
M  V30 857 H 80.4193 1.85716 -5.33076 0
M  V30 858 N 79.8174 1.5752 -0.0501392 0
M  V30 859 C 81.2334 1.56631 0.306402 0
M  V30 860 C 81.4334 1.0577 1.71508 0
M  V30 861 O 80.4894 0.713837 2.422 0
M  V30 862 C 81.8024 3.00393 0.135811 0
M  V30 863 C 83.3504 3.12315 0.206993 0
M  V30 864 C 83.8254 4.57954 0.064944 0
M  V30 865 N 85.3164 4.63041 0.121254 0
M  V30 866 C 86.0514 5.73389 0.0354381 0
M  V30 867 N 85.5474 6.92724 -0.102666 0
M  V30 868 N 87.3404 5.62026 0.090946 0
M  V30 869 H 79.4914 1.88903 -0.971046 0
M  V30 870 H 81.7544 0.869876 -0.376855 0
M  V30 871 H 81.4604 3.41635 -0.835384 0
M  V30 872 H 81.3344 3.66373 0.897275 0
M  V30 873 H 83.7214 2.70973 1.16866 0
M  V30 874 H 83.8024 2.49016 -0.585208 0
M  V30 875 H 83.4464 4.99981 -0.893394 0
M  V30 876 H 83.3764 5.19258 0.876277 0
M  V30 877 H 85.8674 3.77216 0.227284 0
M  V30 878 H 86.1804 7.72633 -0.160882 0
M  V30 879 H 84.5254 6.94864 -0.137737 0
M  V30 880 H 87.7164 4.67684 0.197388 0
M  V30 881 H 87.8894 6.47997 0.0206089 0
M  V30 882 N 81.2955 -0.223234 1.56011 0
M  V30 883 C 82.7115 -0.572856 1.48965 0
M  V30 884 C 82.9115 -1.87225 0.74492 0
M  V30 885 O 81.9675 -2.50899 0.283896 0
M  V30 886 C 83.2805 -0.653646 2.9351 0
M  V30 887 C 84.8285 -0.744386 3.0402 0
M  V30 888 C 85.3035 -0.856535 4.49919 0
M  V30 889 N 86.7945 -0.9208 4.53955 0
M  V30 890 C 87.5295 -1.02726 5.64123 0
M  V30 891 N 87.0255 -1.09777 6.84047 0
M  V30 892 N 88.8185 -1.06226 5.51971 0
M  V30 893 H 80.9695 0.629462 2.02858 0
M  V30 894 H 83.2325 0.220621 0.921971 0
M  V30 895 H 82.9385 0.231518 3.50937 0
M  V30 896 H 82.8125 -1.51781 3.45315 0
M  V30 897 H 85.1995 -1.61999 2.46658 0
M  V30 898 H 85.2805 0.14541 2.55386 0
M  V30 899 H 84.9245 0.0146069 5.07898 0
M  V30 900 H 84.8545 -1.76172 4.96257 0
M  V30 901 H 87.3455 -0.876694 3.6759 0
M  V30 902 H 87.6585 -1.17872 7.63758 0
M  V30 903 H 86.0035 -1.06693 6.86762 0
M  V30 904 H 89.1945 -1.00382 4.5721 0
M  V30 905 H 89.3675 -1.14177 6.37862 0
M  V30 906 N 82.7736 -1.49793 -0.48987 0
M  V30 907 C 83.7036 -1.70201 -1.59856 0
M  V30 908 C 84.6846 -0.55076 -1.60937 0
M  V30 909 O 85.8696 -0.787841 -1.77501 0
M  V30 910 C 82.9996 -1.77882 -2.98287 0
M  V30 911 C 81.9536 -2.92907 -3.12073 0
M  V30 912 C 81.2796 -2.85712 -4.51965 0
M  V30 913 C 82.5796 -4.3369 -2.91051 0
M  V30 914 H 84.2736 -2.63025 -1.43032 0
M  V30 915 H 81.8196 -1.26574 -0.686664 0
M  V30 916 H 83.7726 -1.90744 -3.75759 0
M  V30 917 H 82.4966 -0.816653 -3.16225 0
M  V30 918 H 81.1556 -2.79665 -2.37029 0
M  V30 919 H 80.8036 -1.8738 -4.66795 0
M  V30 920 H 80.5036 -3.62921 -4.62128 0
M  V30 921 H 82.0276 -3.00598 -5.31482 0
M  V30 922 H 83.4416 -4.47555 -3.58284 0
M  V30 923 H 81.8386 -5.12205 -3.12675 0
M  V30 924 H 82.9086 -4.47362 -1.87071 0
M  V30 925 N 84.2517 0.741722 -1.39055 0
M  V30 926 C 85.2147 1.83733 -1.37021 0
M  V30 927 C 86.2147 1.58542 -0.268534 0
M  V30 928 O 87.4047 1.66067 -0.526076 0
M  V30 929 C 84.5367 3.2141 -1.13617 0
M  V30 930 H 85.7297 1.86941 -2.34506 0
M  V30 931 H 83.2827 0.944676 -1.24521 0
M  V30 932 H 84.0177 3.23865 -0.167863 0
M  V30 933 H 83.8027 3.4109 -1.93391 0
M  V30 934 H 85.2927 4.01477 -1.14918 0
M  V30 935 N 85.7298 1.2412 0.971189 0
M  V30 936 C 86.6618 0.988349 2.06795 0
M  V30 937 C 87.6748 -0.0409541 1.62748 0
M  V30 938 O 88.8638 0.195673 1.77424 0
M  V30 939 C 85.9638 0.469023 3.35639 0
M  V30 940 C 85.1368 1.56065 4.08611 0
M  V30 941 C 84.1958 1.04458 5.15728 0
M  V30 942 O 83.2218 1.73553 5.42096 0
M  V30 943 N 84.4238 -0.122817 5.8037 0
M  V30 944 H 87.1888 1.93265 2.29061 0
M  V30 945 H 84.7498 1.15102 1.13856 0
M  V30 946 H 86.7418 0.108613 4.04554 0
M  V30 947 H 85.3118 -0.380919 3.1027 0
M  V30 948 H 84.5318 2.09341 3.34021 0
M  V30 949 H 85.8198 2.29449 4.54126 0
M  V30 950 H 85.2178 -0.700563 5.61345 0
M  V30 951 H 83.7748 -0.424404 6.50417 0
M  V30 952 N 87.2079 -1.17134 1.05439 0
M  V30 953 C 88.1179 -2.24878 0.668365 0
M  V30 954 C 89.1339 -1.71186 -0.311687 0
M  V30 955 O 90.3099 -2.00738 -0.163161 0
M  V30 956 C 87.3749 -3.46662 0.051648 0
M  V30 957 C 86.4359 -4.15429 1.08246 0
M  V30 958 C 85.6689 -5.31399 0.495082 0
M  V30 959 O 85.8919 -5.66153 -0.694743 0
M  V30 960 O 84.8259 -5.89187 1.23056 0
M  V30 961 H 88.6519 -2.60189 1.56637 0
M  V30 962 H 86.2369 -1.24482 0.826104 0
M  V30 963 H 88.1189 -4.20394 -0.290966 0
M  V30 964 H 86.7939 -3.13142 -0.819971 0
M  V30 965 H 85.7009 -3.43704 1.47711 0
M  V30 966 H 87.0339 -4.52982 1.92532 0
M  V30 967 N 88.686 -0.835752 -1.33615 0
M  V30 968 C 89.616 -0.281739 -2.31794 0
M  V30 969 C 90.597 0.608833 -1.58831 0
M  V30 970 O 91.782 0.533035 -1.86741 0
M  V30 971 C 88.912 0.546612 -3.42971 0
M  V30 972 C 87.866 -0.247904 -4.27281 0
M  V30 973 C 87.192 0.704001 -5.30045 0
M  V30 974 C 88.492 -1.46324 -5.01385 0
M  V30 975 H 90.186 -1.10206 -2.78379 0
M  V30 976 H 87.732 -0.531388 -1.33837 0
M  V30 977 H 89.685 0.944467 -4.1068 0
M  V30 978 H 88.409 1.40011 -2.95067 0
M  V30 979 H 87.068 -0.627281 -3.61194 0
M  V30 980 H 86.716 1.55381 -4.78399 0
M  V30 981 H 86.416 0.176524 -5.87335 0
M  V30 982 H 87.94 1.09944 -6.0062 0
M  V30 983 H 89.354 -1.13871 -5.61877 0
M  V30 984 H 87.751 -1.92728 -5.6831 0
M  V30 985 H 88.821 -2.23467 -4.30338 0
M  V30 986 N 90.1641 1.46063 -0.591896 0
M  V30 987 C 91.1111 2.30399 0.136069 0
M  V30 988 C 92.0811 1.41169 0.875238 0
M  V30 989 O 93.2661 1.70112 0.86409 0
M  V30 990 C 90.4061 3.25804 1.13781 0
M  V30 991 C 89.5191 4.30134 0.401137 0
M  V30 992 C 88.6541 5.12659 1.39121 0
M  V30 993 C 87.6931 6.0873 0.641462 0
M  V30 994 N 86.8301 6.8409 1.58004 0
M  V30 995 H 91.6701 2.92118 -0.589144 0
M  V30 996 H 89.2071 1.43959 -0.302342 0
M  V30 997 H 91.1651 3.79569 1.73156 0
M  V30 998 H 89.7951 2.65872 1.83062 0
M  V30 999 H 88.8471 3.79152 -0.307826 0
M  V30 1000 H 90.1591 4.98458 -0.184565 0
M  V30 1001 H 89.3131 5.70747 2.05749 0
M  V30 1002 H 88.0521 4.44316 2.01084 0
M  V30 1003 H 87.0571 5.49786 -0.0385419 0
M  V30 1004 H 88.2821 6.79095 0.0270945 0
M  V30 1005 H 86.2281 6.18449 2.18761 0
M  V30 1006 H 86.1451 7.48709 1.04738 0
M  V30 1007 H 87.4131 7.4673 2.23639 0
M  V30 1008 N 91.6422 0.330177 1.54103 0
M  V30 1009 C 92.8702 -0.272179 2.05102 0
M  V30 1010 C 93.2852 -1.45267 1.20595 0
M  V30 1011 O 92.6422 -1.8094 0.238144 0
M  V30 1012 C 92.6932 -0.70023 3.54653 0
M  V30 1013 O 92.4142 0.433301 4.35952 0
M  V30 1014 C 93.9152 -1.3647 4.21771 0
M  V30 1015 H 91.1352 -0.0549159 0.668749 0
M  V30 1016 H 93.6792 0.478285 1.98828 0
M  V30 1017 H 91.8342 -1.40066 3.61193 0
M  V30 1018 H 92.2482 0.0947539 5.24414 0
M  V30 1019 H 93.7222 -1.61509 5.27843 0
M  V30 1020 H 94.1992 -2.31409 3.73292 0
M  V30 1021 H 94.8052 -0.706675 4.19388 0
M  V30 1022 N 93.1203 -1.57491 0.0584922 0
M  V30 1023 C 94.3683 -1.92597 -0.612436 0
M  V30 1024 C 94.6893 -0.938162 -1.70949 0
M  V30 1025 O 93.9593 0.0158301 -1.95894 0
M  V30 1026 H 92.5393 -0.710964 -0.229214 0
M  V30 1027 H 95.2013 -1.94571 0.113218 0
M  V30 1028 H 94.2973 -2.94038 -1.04633 0
M  V30 1029 N 94.5984 0.214957 -1.56127 0
M  V30 1030 C 95.5484 1.27006 -1.8935 0
M  V30 1031 C 96.5324 1.41969 -0.757202 0
M  V30 1032 O 97.7244 1.44673 -1.01973 0
M  V30 1033 C 94.8534 2.61911 -2.2194 0
M  V30 1034 C 93.9394 2.50822 -3.41978 0
M  V30 1035 N 94.3304 2.09391 -4.60423 0
M  V30 1036 C 92.6284 2.81765 -3.45723 0
M  V30 1037 C 93.3294 2.09712 -5.42582 0
M  V30 1038 N 92.3054 2.50454 -4.82466 0
M  V30 1039 H 96.1074 0.940734 -2.78437 0
M  V30 1040 H 93.6214 0.423492 -1.56781 0
M  V30 1041 H 95.6184 3.38096 -2.43919 0
M  V30 1042 H 94.2784 2.95684 -1.34169 0
M  V30 1043 H 95.2894 1.80416 -4.85459 0
M  V30 1044 H 91.9664 3.19865 -2.68314 0
M  V30 1045 H 93.3564 1.79748 -6.4741 0
M  V30 1046 N 96.0765 1.50051 0.48192 0
M  V30 1047 C 97.0395 1.67584 1.5636 0
M  V30 1048 C 98.0395 0.546894 1.51214 0
M  V30 1049 O 99.2295 0.813725 1.54026 0
M  V30 1050 C 96.3615 1.691 2.96003 0
M  V30 1051 H 97.5545 2.64078 1.42136 0
M  V30 1052 H 95.1075 1.39369 0.707533 0
M  V30 1053 H 95.8425 0.742589 3.15684 0
M  V30 1054 H 95.6275 2.51105 3.01146 0
M  V30 1055 H 97.1175 1.84656 3.74556 0
M  V30 1056 N 97.5546 -0.734337 1.39446 0
M  V30 1057 C 98.7796 -1.52866 1.40167 0
M  V30 1058 C 99.2046 -1.881 -0.00171513 0
M  V30 1059 O 98.5626 -1.51957 -0.988879 0
M  V30 1060 C 98.6106 -2.79235 2.28167 0
M  V30 1061 O 97.7146 -3.75185 1.71201 0
M  V30 1062 H 97.0556 -0.461618 0.477289 0
M  V30 1063 H 99.5856 -0.905949 1.8345 0
M  V30 1064 H 99.5956 -3.27963 2.42702 0
M  V30 1065 H 98.2706 -2.52923 3.30156 0
M  V30 1066 H 96.8476 -3.33958 1.65912 0
M  V30 1067 N 99.0327 -1.24633 -0.964593 0
M  V30 1068 C 99.9627 -1.06611 -2.07741 0
M  V30 1069 C 100.944 0.0218666 -1.70086 0
M  V30 1070 O 102.129 -0.145793 -1.93652 0
M  V30 1071 C 99.2587 -0.673444 -3.40708 0
M  V30 1072 C 98.2127 -1.71054 -3.92332 0
M  V30 1073 C 97.5387 -1.17285 -5.21678 0
M  V30 1074 C 98.8387 -3.10718 -4.19824 0
M  V30 1075 H 100.533 -1.99693 -2.23076 0
M  V30 1076 H 98.0787 -0.96152 -1.07195 0
M  V30 1077 H 100.032 -0.534345 -4.17998 0
M  V30 1078 H 98.7557 0.293073 -3.25282 0
M  V30 1079 H 97.4147 -1.83791 -3.17201 0
M  V30 1080 H 97.0627 -0.196847 -5.02615 0
M  V30 1081 H 96.7627 -1.86592 -5.57187 0
M  V30 1082 H 98.2867 -1.04593 -6.01575 0
M  V30 1083 H 99.7007 -3.01192 -4.87808 0
M  V30 1084 H 98.0977 -3.77406 -4.66567 0
M  V30 1085 H 99.1677 -3.58524 -3.26479 0
M  V30 1086 N 100.511 1.16574 -1.06058 0
M  V30 1087 C 101.741 1.90675 -0.795397 0
M  V30 1088 C 102.149 1.77547 0.653735 0
M  V30 1089 O 101.492 1.11611 1.45907 0
M  V30 1090 C 101.554 3.42011 -1.10764 0
M  V30 1091 C 101.218 3.78924 -2.55471 0
M  V30 1092 C 102.215 3.81042 -3.53699 0
M  V30 1093 C 99.8998 4.09626 -2.90708 0
M  V30 1094 C 101.894 4.13346 -4.85205 0
M  V30 1095 C 99.5808 4.41597 -4.22416 0
M  V30 1096 C 100.579 4.43436 -5.19474 0
M  V30 1097 O 100.267 4.74649 -6.48817 0
M  V30 1098 H 99.9988 0.611554 -0.288058 0
M  V30 1099 H 102.553 1.48711 -1.41683 0
M  V30 1100 H 100.783 3.84312 -0.429128 0
M  V30 1101 H 102.472 3.97384 -0.827077 0
M  V30 1102 H 103.238 3.57437 -3.27817 0
M  V30 1103 H 99.1168 4.07361 -2.15819 0
M  V30 1104 H 102.661 4.14696 -5.60957 0
M  V30 1105 H 98.5578 4.64667 -4.48056 0
M  V30 1106 H 99.3258 4.9247 -6.5377 0
M  V30 1107 N 101.989 0.842826 1.3317 0
M  V30 1108 C 102.952 0.284065 2.27433 0
M  V30 1109 C 103.952 -0.54948 1.5112 0
M  V30 1110 O 105.142 -0.362699 1.70382 0
M  V30 1111 C 102.274 -0.599384 3.35589 0
M  V30 1112 H 103.467 1.11589 2.78366 0
M  V30 1113 H 101.02 0.616221 1.4364 0
M  V30 1114 H 101.755 -1.45349 2.89904 0
M  V30 1115 H 101.54 -0.00291266 3.921 0
M  V30 1116 H 103.03 -0.983488 4.05854 0
M  V30 1117 N 103.467 -1.45747 0.599634 0
M  V30 1118 C 104.417 -2.27538 -0.145107 0
M  V30 1119 C 105.401 -1.3686 -0.846055 0
M  V30 1120 O 106.593 -1.6091 -0.737357 0
M  V30 1121 C 103.722 -3.23569 -1.14708 0
M  V30 1122 C 102.808 -4.21734 -0.447383 0
M  V30 1123 N 103.199 -5.03257 0.506535 0
M  V30 1124 C 101.497 -4.40536 -0.695966 0
M  V30 1125 C 102.198 -5.74426 0.917068 0
M  V30 1126 N 101.174 -5.42966 0.26253 0
M  V30 1127 H 104.976 -2.87965 0.587672 0
M  V30 1128 H 102.49 -1.56803 0.422697 0
M  V30 1129 H 104.487 -3.8089 -1.69495 0
M  V30 1130 H 103.147 -2.64702 -1.8805 0
M  V30 1131 H 104.158 -5.10319 0.882899 0
M  V30 1132 H 100.835 -3.92802 -1.41467 0
M  V30 1133 H 102.225 -6.4995 1.70338 0
M  V30 1134 N 104.945 -0.338344 -1.53925 0
M  V30 1135 C 106.191 0.260143 -2.01125 0
M  V30 1136 C 106.524 1.50617 -1.22589 0
M  V30 1137 O 105.799 1.91979 -0.312113 0
M  V30 1138 C 106.082 0.579499 -3.55407 0
M  V30 1139 C 105.935 -0.678264 -4.44657 0
M  V30 1140 C 107.254 1.39122 -4.17532 0
M  V30 1141 H 104.373 0.0930772 -0.731099 0
M  V30 1142 H 107.015 -0.457852 -1.84401 0
M  V30 1143 H 105.165 1.19118 -3.69788 0
M  V30 1144 H 106.837 -1.31631 -4.42121 0
M  V30 1145 H 105.08 -1.3042 -4.13731 0
M  V30 1146 H 105.751 -0.410143 -5.50474 0
M  V30 1147 H 108.227 0.874035 -4.06817 0
M  V30 1148 H 107.103 1.58342 -5.25565 0
M  V30 1149 H 107.364 2.39178 -3.71815 0
M  V30 1150 N 106.423 1.57458 -0.0668435 0
M  V30 1151 C 107.671 1.92919 0.602214 0
M  V30 1152 C 107.992 0.947215 1.70449 0
M  V30 1153 O 107.262 -0.00544117 1.95899 0
M  V30 1154 H 105.842 0.71217 0.22544 0
M  V30 1155 H 108.504 1.94508 -0.123535 0
M  V30 1156 H 107.6 2.94589 1.03073 0
M  V30 1157 N 107.901 -0.206675 1.56239 0
M  V30 1158 C 108.849 -1.27571 1.94495 0
M  V30 1159 C 109.843 -1.47737 0.828862 0
M  V30 1160 O 111.049 -1.48735 1.0138 0
M  V30 1161 H 107.424 -0.428029 0.6183 0
M  V30 1162 H 109.395 -0.925961 2.8367 0
M  V30 1163 C 108.144 -2.61568 2.29079 0
M  V30 1164 H 107.467 -2.46863 3.14482 0
M  V30 1165 H 108.907 -3.35144 2.5972 0
M  V30 1166 C 107.366 -3.17695 1.12123 0
M  V30 1167 O 107.896 -3.99801 0.390153 0
M  V30 1168 N 106.102 -2.76276 0.901097 0
M  V30 1169 H 105.649 -2.09613 1.49733 0
M  V30 1170 H 105.607 -3.1417 0.120319 0
M  V30 1171 N 109.379 -1.50304 -0.473955 0
M  V30 1172 C 110.795 -1.37667 -0.807466 0
M  V30 1173 C 110.995 -0.430555 -1.96846 0
M  V30 1174 O 110.051 0.127874 -2.52176 0
M  V30 1175 C 111.364 -2.78974 -1.12223 0
M  V30 1176 C 112.912 -2.87868 -1.22885 0
M  V30 1177 C 113.387 -4.30003 -1.57676 0
M  V30 1178 N 114.878 -4.3294 -1.64673 0
M  V30 1179 C 115.613 -5.3991 -1.93091 0
M  V30 1180 N 115.109 -6.57092 -2.1955 0
M  V30 1181 N 116.902 -5.27351 -1.94569 0
M  V30 1182 H 109.053 -2.10394 0.291212 0
M  V30 1183 H 111.316 -0.945575 0.0677609 0
M  V30 1184 H 111.022 -3.50031 -0.342229 0
M  V30 1185 H 110.896 -3.16038 -2.05913 0
M  V30 1186 H 113.283 -2.17032 -1.99953 0
M  V30 1187 H 113.364 -2.54352 -0.271814 0
M  V30 1188 H 113.008 -5.01375 -0.81149 0
M  V30 1189 H 112.938 -4.61004 -2.54525 0
M  V30 1190 H 115.429 -3.48441 -1.46277 0
M  V30 1191 H 115.742 -7.34425 -2.405 0
M  V30 1192 H 114.087 -6.60272 -2.16948 0
M  V30 1193 H 117.278 -4.34801 -1.73394 0
M  V30 1194 H 117.451 -6.10805 -2.16381 0
M  V30 1195 N 110.857 0.726932 -1.39834 0
M  V30 1196 C 112.134 1.47902 -1.28001 0
M  V30 1197 C 112.514 2.1083 0.106789 0
M  V30 1198 O 111.862 1.99242 1.11869 0
M  V30 1199 C 112.072 2.52392 -2.41038 0
M  V30 1200 C 113.42 3.18546 -2.80737 0
M  V30 1201 O 114.444 2.62708 -2.40547 0
M  V30 1202 O 113.303 4.19604 -3.50135 0
M  V30 1203 H 110.397 0.657163 -0.502062 0
M  V30 1204 H 112.943 0.760071 -1.51727 0
M  V30 1205 H 111.715 2.04329 -3.33715 0
M  V30 1206 H 111.338 3.31837 -2.19021 0
M  V30 1207 N 112.336 1.25143 0.95797 0
M  V30 1208 C 113.246 1.06968 2.08794 0
M  V30 1209 C 114.262 0.00773911 1.73998 0
M  V30 1210 O 115.438 0.207972 2.00323 0
M  V30 1211 C 112.503 0.68691 3.39827 0
M  V30 1212 C 111.564 1.82641 3.88511 0
M  V30 1213 C 110.797 1.46181 5.1329 0
M  V30 1214 O 111.02 0.355971 5.69288 0
M  V30 1215 O 109.954 2.29085 5.566 0
M  V30 1216 H 113.78 2.01723 2.27027 0
M  V30 1217 H 111.365 1.04051 1.07209 0
M  V30 1218 H 113.247 0.485417 4.18595 0
M  V30 1219 H 111.922 -0.231417 3.22872 0
M  V30 1220 H 110.829 2.08274 3.10762 0
M  V30 1221 H 112.162 2.72386 4.09959 0
M  V30 1222 N 113.814 -1.1601 1.06675 0
M  V30 1223 C 114.744 -2.22688 0.702307 0
M  V30 1224 C 115.725 -1.67306 -0.307032 0
M  V30 1225 O 116.91 -1.93352 -0.181305 0
M  V30 1226 C 114.04 -3.47178 0.092038 0
M  V30 1227 C 112.994 -4.15477 1.02777 0
M  V30 1228 C 112.32 -5.33963 0.28061 0
M  V30 1229 C 113.62 -4.66019 2.35846 0
M  V30 1230 H 115.314 -2.53429 1.59419 0
M  V30 1231 H 112.86 -1.21813 0.767961 0
M  V30 1232 H 114.813 -4.21037 -0.174814 0
M  V30 1233 H 113.537 -3.15749 -0.834877 0
M  V30 1234 H 112.196 -3.43549 1.27944 0
M  V30 1235 H 111.844 -4.98788 -0.649545 0
M  V30 1236 H 111.544 -5.806 0.904258 0
M  V30 1237 H 113.068 -6.10596 0.021396 0
M  V30 1238 H 114.482 -5.3144 2.15045 0
M  V30 1239 H 112.879 -5.23293 2.93743 0
M  V30 1240 H 113.949 -3.82023 2.98641 0
M  V30 1241 N 115.292 -0.849877 -1.32721 0
M  V30 1242 C 116.222 -0.306308 -2.31482 0
M  V30 1243 C 117.203 0.591952 -1.59468 0
M  V30 1244 O 118.388 0.513199 -1.87296 0
M  V30 1245 C 115.518 0.510204 -3.43532 0
M  V30 1246 C 114.472 -0.293209 -4.26994 0
M  V30 1247 C 113.798 0.647743 -5.30762 0
M  V30 1248 C 115.098 -1.51634 -4.99804 0
M  V30 1249 H 116.792 -1.13153 -2.77195 0
M  V30 1250 H 114.338 -0.545553 -1.33266 0
M  V30 1251 H 116.291 0.900856 -4.11658 0
M  V30 1252 H 115.015 1.36874 -2.96535 0
M  V30 1253 H 113.674 -0.665555 -3.60508 0
M  V30 1254 H 113.322 1.50299 -4.8002 0
M  V30 1255 H 113.022 0.11422 -5.87489 0
M  V30 1256 H 114.546 1.03567 -6.01753 0
M  V30 1257 H 115.96 -1.19824 -5.60638 0
M  V30 1258 H 114.357 -1.98745 -5.66234 0
M  V30 1259 H 115.427 -2.28018 -4.27943 0
M  V30 1260 N 116.77 1.45427 -0.607355 0
M  V30 1261 C 118.047 1.9557 -0.0344566 0
M  V30 1262 C 118.427 1.54979 1.43334 0
M  V30 1263 O 117.775 0.812241 2.13576 0
M  V30 1264 C 117.985 3.48226 -0.232321 0
M  V30 1265 C 119.333 4.2445 -0.113001 0
M  V30 1266 O 120.357 3.55829 -0.162431 0
M  V30 1267 O 119.216 5.465 0.00209442 0
M  V30 1268 H 116.31 0.826222 0.0358667 0
M  V30 1269 H 118.856 1.55594 -0.6774 0
M  V30 1270 H 117.628 3.70739 -1.25174 0
M  V30 1271 H 117.251 3.95092 0.445896 0
M  V30 1272 N 118.248 0.346503 1.53744 0
M  V30 1273 C 119.178 -0.501193 2.28058 0
M  V30 1274 C 120.159 -1.10014 1.29734 0
M  V30 1275 O 121.344 -1.12097 1.58581 0
M  V30 1276 C 118.474 -1.65078 3.05559 0
M  V30 1277 C 117.428 -1.18003 4.11411 0
M  V30 1278 C 116.754 -2.41837 4.76884 0
M  V30 1279 C 118.054 -0.278394 5.21558 0
M  V30 1280 H 119.748 0.11875 2.99164 0
M  V30 1281 H 117.294 0.0585531 1.43881 0
M  V30 1282 H 119.247 -2.25028 3.56287 0
M  V30 1283 H 117.971 -2.29767 2.32109 0
M  V30 1284 H 116.63 -0.603331 3.61601 0
M  V30 1285 H 116.278 -3.0494 4.00026 0
M  V30 1286 H 115.978 -2.1102 5.48402 0
M  V30 1287 H 117.502 -3.02508 5.30397 0
M  V30 1288 H 118.916 -0.784823 5.67903 0
M  V30 1289 H 117.313 -0.0619707 6.00068 0
M  V30 1290 H 118.383 0.684677 4.80042 0
M  V30 1291 N 119.726 -1.57421 0.075193 0
M  V30 1292 C 120.972 -1.93905 -0.594025 0
M  V30 1293 C 121.305 -0.955701 -1.69056 0
M  V30 1294 O 120.58 0.0145373 -1.94495 0
M  V30 1295 C 120.863 -3.40638 -1.1678 0
M  V30 1296 C 120.716 -4.49733 -0.0776792 0
M  V30 1297 C 122.035 -3.88259 -2.07228 0
M  V30 1298 H 119.154 -0.705105 -0.214466 0
M  V30 1299 H 121.796 -1.8947 0.141854 0
M  V30 1300 H 119.946 -3.44549 -1.79494 0
M  V30 1301 H 121.618 -4.57942 0.555573 0
M  V30 1302 H 119.861 -4.29751 0.591286 0
M  V30 1303 H 120.532 -5.49549 -0.519603 0
M  V30 1304 H 123.008 -3.86376 -1.54445 0
M  V30 1305 H 121.884 -4.91533 -2.44308 0
M  V30 1306 H 122.145 -3.26396 -2.98191 0
M  V30 1307 N 121.204 0.198386 -1.56346 0
M  V30 1308 C 122.451 0.919286 -1.80431 0
M  V30 1309 C 122.779 1.83393 -0.647866 0
M  V30 1310 O 122.034 1.92236 0.366556 0
M  V30 1311 C 122.333 1.77031 -3.10475 0
M  V30 1312 C 121.999 1.00693 -4.39513 0
M  V30 1313 C 120.661 0.796145 -4.74568 0
M  V30 1314 C 123.013 0.469559 -5.19081 0
M  V30 1315 C 120.341 0.0364588 -5.86689 0
M  V30 1316 C 122.693 -0.2769 -6.31994 0
M  V30 1317 C 121.357 -0.49873 -6.65634 0
M  V30 1318 H 120.627 0.336391 -0.660244 0
M  V30 1319 H 123.274 0.185872 -1.90596 0
M  V30 1320 H 121.579 2.5723 -2.95533 0
M  V30 1321 H 123.276 2.33065 -3.26315 0
M  V30 1322 H 119.866 1.18122 -4.12001 0
M  V30 1323 H 124.05 0.619816 -4.92414 0
M  V30 1324 H 119.306 -0.145412 -6.11227 0
M  V30 1325 H 123.48 -0.700684 -6.92866 0
M  V30 1326 H 121.107 -1.0893 -7.52355 0
M  V30 1327 N 122.682 1.50554 0.465978 0
M  V30 1328 C 123.959 1.5232 1.22712 0
M  V30 1329 C 124.339 0.270807 2.09356 0
M  V30 1330 O 123.687 -0.745541 2.15995 0
M  V30 1331 C 123.897 2.82175 2.05374 0
M  V30 1332 C 125.245 3.33033 2.6339 0
M  V30 1333 O 126.269 2.83531 2.15612 0
M  V30 1334 O 125.128 4.19336 3.50456 0
M  V30 1335 H 122.222 0.611183 0.557122 0
M  V30 1336 H 124.768 1.62847 0.477381 0
M  V30 1337 H 123.54 3.64797 1.41558 0
M  V30 1338 H 123.163 2.74675 2.87471 0
M  V30 1339 N 124.16 -0.719506 1.40217 0
M  V30 1340 C 125.409 -1.47486 1.37589 0
M  V30 1341 C 125.722 -1.9559 -0.0201568 0
M  V30 1342 O 126.928 -2.70973 -0.169049 0
M  V30 1343 C 125.384 -2.66575 2.41796 0
M  V30 1344 C 124.992 -2.25358 3.87192 0
M  V30 1345 C 126.736 -3.4433 2.48269 0
M  V30 1346 C 124.643 -3.41262 4.83005 0
M  V30 1347 H 123.573 -0.553901 0.511576 0
M  V30 1348 H 126.224 -0.783427 1.65936 0
M  V30 1349 H 124.606 -3.3787 2.06543 0
M  V30 1350 H 125.78 -1.61509 4.31569 0
M  V30 1351 H 124.095 -1.60657 3.84159 0
M  V30 1352 H 126.692 -4.30569 3.17041 0
M  V30 1353 H 127.035 -3.87872 1.51198 0
M  V30 1354 H 127.568 -2.80076 2.82493 0
M  V30 1355 H 124.307 -3.02755 5.81394 0
M  V30 1356 H 123.827 -4.0404 4.43297 0
M  V30 1357 H 125.506 -4.07383 5.02641 0
M  V30 1358 N 125.638 -1.25649 -0.95132 0
M  V30 1359 C 126.884 -1.10757 -1.69884 0
M  V30 1360 C 127.217 0.350061 -1.91019 0
M  V30 1361 O 126.492 1.25783 -1.48354 0
M  V30 1362 C 126.775 -1.86606 -3.07978 0
M  V30 1363 C 126.628 -3.40217 -2.94232 0
M  V30 1364 C 127.947 -1.65182 -4.07925 0
M  V30 1365 H 125.066 -0.40374 -0.616574 0
M  V30 1366 H 127.708 -1.54521 -1.10558 0
M  V30 1367 H 125.858 -1.49409 -3.58621 0
M  V30 1368 H 127.53 -3.87108 -2.50889 0
M  V30 1369 H 125.773 -3.67759 -2.30078 0
M  V30 1370 H 126.444 -3.88505 -3.92133 0
M  V30 1371 H 128.92 -1.9757 -3.66204 0
M  V30 1372 H 127.796 -2.20683 -5.02583 0
M  V30 1373 H 128.057 -0.593933 -4.38092 0
M  V30 1374 N 127.117 1.15442 -1.07289 0
M  V30 1375 C 128.047 2.22312 -0.714107 0
M  V30 1376 C 129.028 1.67467 0.298155 0
M  V30 1377 O 130.213 1.93445 0.171048 0
M  V30 1378 C 127.343 3.47124 -0.110448 0
M  V30 1379 C 126.297 4.14926 -1.04979 0
M  V30 1380 C 125.623 5.33807 -0.308924 0
M  V30 1381 C 126.923 4.64762 -2.38314 0
M  V30 1382 H 128.617 2.5258 -1.6076 0
M  V30 1383 H 126.163 1.21404 -0.77441 0
M  V30 1384 H 128.116 4.21124 0.152482 0
M  V30 1385 H 126.84 3.16187 0.81812 0
M  V30 1386 H 125.499 3.42866 -1.29764 0
M  V30 1387 H 125.147 4.99126 0.623084 0
M  V30 1388 H 124.847 5.80113 -0.935036 0
M  V30 1389 H 126.371 6.10576 -0.0537771 0
M  V30 1390 H 127.785 5.30292 -2.1786 0
M  V30 1391 H 126.182 5.21728 -2.96514 0
M  V30 1392 H 127.252 3.80434 -3.00663 0
M  V30 1393 N 128.595 0.856903 1.32268 0
M  V30 1394 C 129.823 0.475439 2.01363 0
M  V30 1395 C 130.238 -0.928486 1.64392 0
M  V30 1396 O 129.595 -1.60624 0.866387 0
M  V30 1397 C 129.646 0.607545 3.56358 0
M  V30 1398 O 129.367 1.95617 3.92002 0
M  V30 1399 C 130.868 0.225382 4.42727 0
M  V30 1400 H 128.088 0.186636 0.644521 0
M  V30 1401 H 130.632 1.15446 1.68797 0
M  V30 1402 H 128.787 -0.0237719 3.87393 0
M  V30 1403 H 129.201 1.95455 4.86721 0
M  V30 1404 H 130.675 0.368813 5.50767 0
M  V30 1405 H 131.152 -0.834369 4.31202 0
M  V30 1406 H 131.758 0.831864 4.17085 0
M  V30 1407 N 130.073 -1.45103 0.615059 0
M  V30 1408 C 130.983 -2.34382 -0.101034 0
M  V30 1409 C 131.999 -1.51681 -0.852585 0
M  V30 1410 O 133.175 -1.8446 -0.808484 0
M  V30 1411 C 130.24 -3.29417 -1.08099 0
M  V30 1412 C 129.301 -4.28025 -0.330577 0
M  V30 1413 C 128.534 -5.1852 -1.26385 0
M  V30 1414 O 128.757 -5.12598 -2.50198 0
M  V30 1415 O 127.691 -5.97122 -0.756866 0
M  V30 1416 H 131.517 -2.97033 0.632855 0
M  V30 1417 H 129.102 -1.4461 0.375293 0
M  V30 1418 H 130.984 -3.87958 -1.6452 0
M  V30 1419 H 129.659 -2.69321 -1.79577 0
M  V30 1420 H 128.566 -3.73078 0.276283 0
M  V30 1421 H 129.899 -4.90997 0.343866 0
M  V30 1422 N 131.551 -0.354651 -1.53558 0
M  V30 1423 C 132.797 0.238797 -2.01389 0
M  V30 1424 C 133.13 1.49309 -1.2418 0
M  V30 1425 O 132.405 1.91638 -0.332457 0
M  V30 1426 C 132.688 0.541771 -3.56001 0
M  V30 1427 C 132.541 -0.725388 -4.43912 0
M  V30 1428 C 133.86 1.34685 -4.18984 0
M  V30 1429 H 130.979 0.0853177 -0.732045 0
M  V30 1430 H 133.621 -0.477384 -1.83905 0
M  V30 1431 H 131.771 1.15189 -3.71031 0
M  V30 1432 H 133.443 -1.36313 -4.407 0
M  V30 1433 H 131.686 -1.34801 -4.12324 0
M  V30 1434 H 132.357 -0.468505 -5.50008 0
M  V30 1435 H 134.833 0.830837 -4.07721 0
M  V30 1436 H 133.709 1.52759 -5.27215 0
M  V30 1437 H 133.97 2.35221 -3.74331 0
M  V30 1438 N 133.029 1.57378 -0.0835403 0
M  V30 1439 C 133.939 2.16897 0.894021 0
M  V30 1440 C 134.955 1.13528 1.31861 0
M  V30 1441 O 136.131 1.45848 1.3889 0
M  V30 1442 C 133.196 2.72831 2.13925 0
M  V30 1443 C 132.257 3.91115 1.76997 0
M  V30 1444 C 131.49 4.44371 2.95584 0
M  V30 1445 O 131.713 3.96596 4.09961 0
M  V30 1446 O 130.647 5.35549 2.74719 0
M  V30 1447 H 134.473 3.00814 0.417679 0
M  V30 1448 H 132.058 1.48741 0.140181 0
M  V30 1449 H 133.94 3.0863 2.86924 0
M  V30 1450 H 132.615 1.91967 2.60635 0
M  V30 1451 H 131.522 3.60148 1.01214 0
M  V30 1452 H 132.855 4.73307 1.3506 0
M  V30 1453 N 134.507 -0.190092 1.56449 0
M  V30 1454 C 135.753 -0.911052 1.81184 0
M  V30 1455 C 136.086 -1.82699 0.658396 0
M  V30 1456 O 135.361 -1.91491 -0.340775 0
M  V30 1457 C 135.644 -1.72297 3.16205 0
M  V30 1458 C 135.497 -0.831419 4.42049 0
M  V30 1459 C 136.816 -2.69454 3.47969 0
M  V30 1460 H 133.935 -0.32977 0.659106 0
M  V30 1461 H 136.577 -0.178169 1.89163 0
M  V30 1462 H 134.727 -2.34778 3.09534 0
M  V30 1463 H 136.399 -0.220929 4.60771 0
M  V30 1464 H 134.642 -0.138406 4.33579 0
M  V30 1465 H 135.313 -1.43461 5.33032 0
M  V30 1466 H 137.789 -2.17104 3.54972 0
M  V30 1467 H 136.665 -3.23342 4.43555 0
M  V30 1468 H 136.926 -3.48744 2.71717 0
M  V30 1469 N 135.985 -1.50799 -0.457987 0
M  V30 1470 C 137.396 -1.55152 -1.0385 0
M  V30 1471 C 137.747 -0.362719 -1.92818 0
M  V30 1472 O 136.872 0.522915 -2.09987 0
M  V30 1473 C 137.467 -2.81173 -1.89017 0
M  V30 1474 C 136.026 -2.88164 -2.42154 0
M  V30 1475 C 135.173 -2.49591 -1.20829 0
M  V30 1476 H 138.124 -1.56874 -0.240068 0
M  V30 1477 H 138.145 -2.63769 -2.74238 0
M  V30 1478 H 137.657 -3.67677 -1.24238 0
M  V30 1479 H 135.758 -2.06042 -3.10447 0
M  V30 1480 H 135.871 -3.91356 -2.76364 0
M  V30 1481 H 134.235 -2.02322 -1.54719 0
M  V30 1482 H 135.018 -3.38418 -0.576927 0
M  V30 1483 N 137.463 0.71206 -1.40597 0
M  V30 1484 C 138.373 1.8562 -1.43466 0
M  V30 1485 C 139.389 1.70902 -0.326902 0
M  V30 1486 O 140.565 1.93105 -0.572043 0
M  V30 1487 C 137.63 3.21451 -1.29884 0
M  V30 1488 C 136.691 3.48398 -2.50833 0
M  V30 1489 C 135.924 4.77749 -2.3789 0
M  V30 1490 O 136.147 5.53089 -1.39459 0
M  V30 1491 O 135.081 5.05111 -3.27333 0
M  V30 1492 H 138.907 1.86155 -2.39958 0
M  V30 1493 H 136.492 0.86295 -1.21957 0
M  V30 1494 H 138.374 4.02579 -1.24531 0
M  V30 1495 H 137.049 3.21636 -0.364997 0
M  V30 1496 H 135.956 2.67265 -2.61763 0
M  V30 1497 H 137.289 3.53014 -3.4299 0
M  V30 1498 N 138.941 1.26152 0.944643 0
M  V30 1499 C 140.352 1.10454 1.50522 0
M  V30 1500 C 140.703 -0.31635 1.93633 0
M  V30 1501 O 139.828 -1.20746 1.79581 0
M  V30 1502 C 140.423 1.99891 2.73549 0
M  V30 1503 C 138.982 1.88348 3.25886 0
M  V30 1504 C 138.129 1.93447 1.9868 0
M  V30 1505 H 141.08 1.39292 0.760489 0
M  V30 1506 H 141.101 1.54477 3.47732 0
M  V30 1507 H 140.613 3.03297 2.42141 0
M  V30 1508 H 138.714 0.878636 3.62092 0
M  V30 1509 H 138.827 2.73696 3.93227 0
M  V30 1510 H 137.191 1.37456 2.14425 0
M  V30 1511 H 137.974 2.98476 1.69607 0
M  V30 1512 N 140.419 -1.14872 1.07899 0
M  V30 1513 C 141.329 -2.2341 0.715915 0
M  V30 1514 C 142.345 -1.71808 -0.275306 0
M  V30 1515 O 143.521 -2.01039 -0.120545 0
M  V30 1516 C 140.586 -3.46474 0.125168 0
M  V30 1517 C 139.647 -4.13039 1.17034 0
M  V30 1518 C 138.88 -5.30229 0.607688 0
M  V30 1519 O 139.103 -5.675 -0.574497 0
M  V30 1520 O 138.037 -5.86444 1.35526 0
M  V30 1521 H 141.863 -2.56808 1.62121 0
M  V30 1522 H 139.448 -1.22702 0.852322 0
M  V30 1523 H 141.33 -4.20917 -0.201729 0
M  V30 1524 H 140.005 -3.14811 -0.753364 0
M  V30 1525 H 138.912 -3.40493 1.54968 0
M  V30 1526 H 140.245 -4.48796 2.02097 0
M  V30 1527 N 141.898 -0.863906 -1.31812 0
M  V30 1528 C 143.309 -0.52522 -1.7916 0
M  V30 1529 C 143.66 0.957518 -1.71248 0
M  V30 1530 O 142.785 1.74734 -1.27659 0
M  V30 1531 C 143.38 -0.9466 -3.25307 0
M  V30 1532 C 141.939 -0.659668 -3.70574 0
M  V30 1533 C 141.086 -1.14126 -2.52726 0
M  V30 1534 H 144.037 -1.05022 -1.1898 0
M  V30 1535 H 144.058 -0.266766 -3.79564 0
M  V30 1536 H 143.57 -2.02579 -3.31034 0
M  V30 1537 H 141.671 0.408416 -3.70355 0
M  V30 1538 H 141.784 -1.23245 -4.62977 0
M  V30 1539 H 140.148 -0.561216 -2.4844 0
M  V30 1540 H 140.931 -2.22775 -2.61201 0
M  V30 1541 N 143.376 1.44774 -0.622745 0
M  V30 1542 C 144.624 2.01721 -0.123655 0
M  V30 1543 C 144.945 1.49172 1.25589 0
M  V30 1544 O 144.215 0.691974 1.83272 0
M  V30 1545 H 142.795 0.745777 -0.0427225 0
M  V30 1546 H 145.457 1.77382 -0.807559 0
M  V30 1547 H 144.553 3.11984 -0.0849534 0
M  V30 1548 N 144.854 0.36279 1.53368 0
M  V30 1549 C 146.27 0.0116182 1.59596 0
M  V30 1550 C 146.47 -1.47012 1.37803 0
M  V30 1551 O 145.526 -2.23136 1.18181 0
M  V30 1552 C 146.839 0.465052 2.97082 0
M  V30 1553 C 148.387 0.419033 3.10182 0
M  V30 1554 C 148.862 0.848235 4.50077 0
M  V30 1555 N 150.353 0.803183 4.56183 0
M  V30 1556 C 151.088 1.107 5.62613 0
M  V30 1557 N 150.584 1.47996 6.76808 0
M  V30 1558 N 152.377 1.02998 5.52583 0
M  V30 1559 H 144.528 1.32775 1.65785 0
M  V30 1560 H 146.791 0.542518 0.777417 0
M  V30 1561 H 146.497 1.49892 3.18159 0
M  V30 1562 H 146.371 -0.149786 3.76902 0
M  V30 1563 H 148.758 -0.605696 2.88817 0
M  V30 1564 H 148.839 1.06933 2.32377 0
M  V30 1565 H 148.483 1.87107 4.7218 0
M  V30 1566 H 148.413 0.175218 5.26308 0
M  V30 1567 H 150.904 0.52838 3.74188 0
M  V30 1568 H 151.217 1.69613 7.53957 0
M  V30 1569 H 149.562 1.51859 6.78206 0
M  V30 1570 H 152.753 0.737817 4.62249 0
M  V30 1571 H 152.926 1.2701 6.35431 0
M  V30 1572 N 146.332 -1.57332 0.0918853 0
M  V30 1573 C 147.578 -1.95328 -0.567313 0
M  V30 1574 C 147.933 -0.972866 -1.65991 0
M  V30 1575 O 147.226 0.00166256 -1.916 0
M  V30 1576 C 147.42 -3.37689 -1.17051 0
M  V30 1577 C 147.249 -4.49489 -0.137875 0
M  V30 1578 C 146.019 -5.04498 0.284515 0
M  V30 1579 C 148.217 -5.10393 0.63271 0
M  V30 1580 N 146.199 -5.99853 1.30576 0
M  V30 1581 C 147.57 -6.01435 1.50587 0
M  V30 1582 C 149.625 -4.93143 0.68658 0
M  V30 1583 C 148.328 -6.77077 2.42815 0
M  V30 1584 C 150.354 -5.69445 1.59645 0
M  V30 1585 C 149.716 -6.60151 2.45725 0
M  V30 1586 H 145.815 -0.761467 -0.178023 0
M  V30 1587 H 148.399 -1.93924 0.173706 0
M  V30 1588 H 146.57 -3.39793 -1.88136 0
M  V30 1589 H 148.302 -3.62872 -1.79181 0
M  V30 1590 H 145.057 -4.73489 -0.102593 0
M  V30 1591 H 145.481 -6.52231 1.81449 0
M  V30 1592 H 150.123 -4.22785 0.035244 0
M  V30 1593 H 147.841 -7.46699 3.08975 0
M  V30 1594 H 151.427 -5.58112 1.64323 0
M  V30 1595 H 150.307 -7.18159 3.14987 0
M  V30 1596 N 147.81 0.181792 -1.56548 0
M  V30 1597 C 148.773 1.20894 -1.94724 0
M  V30 1598 C 149.773 1.37738 -0.829747 0
M  V30 1599 O 150.963 1.35323 -1.09697 0
M  V30 1600 C 148.095 2.57593 -2.23291 0
M  V30 1601 H 149.288 0.882275 -2.86629 0
M  V30 1602 H 146.841 0.423838 -1.50444 0
M  V30 1603 H 147.576 2.95291 -1.34067 0
M  V30 1604 H 147.361 2.46735 -3.04736 0
M  V30 1605 H 148.851 3.31637 -2.53785 0
M  V30 1606 N 149.288 1.51039 0.449983 0
M  V30 1607 C 150.198 1.74261 1.57067 0
M  V30 1608 C 151.214 0.626363 1.62335 0
M  V30 1609 O 152.39 0.907162 1.79812 0
M  V30 1610 C 149.455 1.85114 2.93144 0
M  V30 1611 C 148.516 3.0893 2.98095 0
M  V30 1612 C 147.749 3.19256 4.27681 0
M  V30 1613 O 147.972 2.35835 5.19363 0
M  V30 1614 O 146.906 4.12144 4.38658 0
M  V30 1615 H 150.732 2.69303 1.40391 0
M  V30 1616 H 148.317 1.35389 0.631688 0
M  V30 1617 H 150.199 1.94311 3.73926 0
M  V30 1618 H 148.874 0.932588 3.09975 0
M  V30 1619 H 147.781 3.0522 2.16314 0
M  V30 1620 H 149.114 4.00433 2.86206 0
M  V30 1621 N 150.766 -0.704594 1.40972 0
M  V30 1622 C 151.698 -1.82974 1.38033 0
M  V30 1623 C 152.711 -1.60305 0.283931 0
M  V30 1624 O 153.9 -1.69975 0.545042 0
M  V30 1625 C 151 -3.19578 1.12795 0
M  V30 1626 C 150.173 -3.69352 2.34302 0
M  V30 1627 C 149.232 -4.84601 2.05058 0
M  V30 1628 O 148.258 -4.96682 2.7802 0
M  V30 1629 N 149.46 -5.71194 1.03528 0
M  V30 1630 H 152.225 -1.85991 2.35005 0
M  V30 1631 H 149.786 -0.886567 1.35468 0
M  V30 1632 H 151.778 -3.9429 0.911987 0
M  V30 1633 H 150.348 -3.11642 0.24452 0
M  V30 1634 H 149.568 -2.85649 2.71659 0
M  V30 1635 H 150.856 -3.99345 3.1528 0
M  V30 1636 H 150.254 -5.64054 0.431217 0
M  V30 1637 H 148.811 -6.45843 0.879205 0
M  V30 1638 N 152.244 -1.26651 -0.937939 0
M  V30 1639 C 153.49 -1.12553 -1.687 0
M  V30 1640 C 153.823 0.329782 -1.91379 0
M  V30 1641 O 153.098 1.24202 -1.4968 0
M  V30 1642 C 153.381 -1.89862 -3.05981 0
M  V30 1643 C 153.234 -3.43318 -2.90607 0
M  V30 1644 C 154.553 -1.69499 -4.0615 0
M  V30 1645 H 151.672 -0.410257 -0.612257 0
M  V30 1646 H 154.314 -1.55685 -1.08913 0
M  V30 1647 H 152.464 -1.53204 -3.57017 0
M  V30 1648 H 154.136 -3.89747 -2.46769 0
M  V30 1649 H 152.379 -3.70179 -2.26164 0
M  V30 1650 H 153.05 -3.92642 -3.8799 0
M  V30 1651 H 155.526 -2.01442 -3.64088 0
M  V30 1652 H 154.402 -2.26002 -5.00214 0
M  V30 1653 H 154.663 -0.640365 -4.37438 0
M  V30 1654 N 153.722 1.14298 -1.08507 0
M  V30 1655 C 154.669 2.19414 -0.715965 0
M  V30 1656 C 155.639 1.63399 0.298326 0
M  V30 1657 O 156.824 1.89929 0.182101 0
M  V30 1658 C 153.964 3.44845 -0.132534 0
M  V30 1659 C 153.077 4.15007 -1.19973 0
M  V30 1660 C 152.212 5.28024 -0.580048 0
M  V30 1661 C 151.251 5.9002 -1.62921 0
M  V30 1662 N 150.388 6.94485 -1.03125 0
M  V30 1663 H 155.228 2.50336 -1.61666 0
M  V30 1664 H 152.765 1.2293 -0.807882 0
M  V30 1665 H 154.723 4.16601 0.223454 0
M  V30 1666 H 153.353 3.14403 0.731467 0
M  V30 1667 H 152.405 3.41629 -1.67313 0
M  V30 1668 H 153.717 4.57178 -1.99473 0
M  V30 1669 H 152.871 6.06455 -0.172364 0
M  V30 1670 H 151.61 4.87076 0.246603 0
M  V30 1671 H 150.615 5.10291 -2.04654 0
M  V30 1672 H 151.84 6.33042 -2.45835 0
M  V30 1673 H 149.786 6.55612 -0.225711 0
M  V30 1674 H 149.703 7.35148 -1.76334 0
M  V30 1675 H 150.971 7.7679 -0.649458 0
M  V30 1676 N 155.201 0.870884 1.31352 0
M  V30 1677 C 156.111 0.330783 2.32256 0
M  V30 1678 C 157.127 -0.559767 1.6475 0
M  V30 1679 O 158.303 -0.456263 1.96164 0
M  V30 1680 C 155.368 -0.458137 3.4366 0
M  V30 1681 C 154.429 0.460482 4.26823 0
M  V30 1682 C 153.662 -0.290881 5.32907 0
M  V30 1683 O 153.885 -1.51885 5.49806 0
M  V30 1684 O 152.819 0.351732 6.00871 0
M  V30 1685 H 156.645 1.16718 2.80376 0
M  V30 1686 H 154.23 0.634285 1.35267 0
M  V30 1687 H 156.112 -0.905343 4.1156 0
M  V30 1688 H 154.787 -1.27106 2.97701 0
M  V30 1689 H 153.694 0.956207 3.61673 0
M  V30 1690 H 155.027 1.23903 4.7635 0
M  V30 1691 N 156.679 -1.44442 0.630414 0
M  V30 1692 C 157.612 -2.27862 -0.124247 0
M  V30 1693 C 158.59 -1.38495 -0.851931 0
M  V30 1694 O 159.774 -1.67935 -0.856166 0
M  V30 1695 C 156.901 -3.17407 -1.18197 0
M  V30 1696 C 155.947 -4.22875 -0.554892 0
M  V30 1697 S 156.78 -5.31485 0.654489 0
M  V30 1698 C 157.936 -6.246 -0.40326 0
M  V30 1699 H 158.169 -2.91519 0.583435 0
M  V30 1700 H 155.702 -1.48618 0.418565 0
M  V30 1701 H 157.66 -3.69549 -1.78728 0
M  V30 1702 H 156.321 -2.52971 -1.86184 0
M  V30 1703 H 155.514 -4.85542 -1.35148 0
M  V30 1704 H 155.116 -3.73992 -0.0242105 0
M  V30 1705 H 157.408 -6.65375 -1.27602 0
M  V30 1706 H 158.351 -7.07851 0.187813 0
M  V30 1707 H 158.759 -5.59775 -0.728837 0
M  V30 1708 N 158.157 -0.370918 -1.53173 0
M  V30 1709 C 159.397 0.217106 -2.03244 0
M  V30 1710 C 159.761 1.45558 -1.25207 0
M  V30 1711 O 160.962 2.11957 -1.65311 0
M  V30 1712 C 159.233 0.496664 -3.53932 0
M  V30 1713 S 160.792 1.0576 -4.25864 0
M  V30 1714 H 157.61 0.0627827 -0.708223 0
M  V30 1715 H 160.212 -0.515019 -1.88594 0
M  V30 1716 H 158.916 -0.412096 -4.08326 0
M  V30 1717 H 158.447 1.25772 -3.72753 0
M  V30 1718 H 160.462 2.34145 -4.37482 0
M  V30 1719 N 159.635 1.57281 -0.100228 0
M  V30 1720 C 161.051 1.57527 0.256416 0
M  V30 1721 C 161.251 1.11173 1.68056 0
M  V30 1722 O 160.307 0.79053 2.39806 0
M  V30 1723 C 161.62 3.00673 0.0401747 0
M  V30 1724 C 163.168 3.12815 0.107528 0
M  V30 1725 C 163.643 4.57929 -0.0807834 0
M  V30 1726 N 165.134 4.63193 -0.0261207 0
M  V30 1727 C 165.869 5.73212 -0.146999 0
M  V30 1728 N 165.365 6.92047 -0.322999 0
M  V30 1729 N 167.158 5.62031 -0.0879044 0
M  V30 1730 H 159.309 1.85718 -1.03065 0
M  V30 1731 H 161.572 0.857446 -0.404339 0
M  V30 1732 H 161.278 3.38804 -0.943649 0
M  V30 1733 H 161.152 3.69042 0.780262 0
M  V30 1734 H 163.539 2.74554 1.08186 0
M  V30 1735 H 163.62 2.47028 -0.664134 0
M  V30 1736 H 163.264 4.96886 -1.05201 0
M  V30 1737 H 163.194 5.21783 0.710635 0
M  V30 1738 H 165.685 3.77748 0.107161 0
M  V30 1739 H 165.998 7.7173 -0.406608 0
M  V30 1740 H 164.343 6.94074 -0.358733 0
M  V30 1741 H 167.534 4.68075 0.048498 0
M  V30 1742 H 167.707 6.47734 -0.185557 0
M  V30 1743 N 161.113 -0.173488 1.56642 0
M  V30 1744 C 162.338 -0.910149 1.86363 0
M  V30 1745 C 162.763 -1.75132 0.686318 0
M  V30 1746 O 162.121 -1.77595 -0.364643 0
M  V30 1747 C 162.169 -1.76447 3.14482 0
M  V30 1748 O 161.273 -2.86584 2.96553 0
M  V30 1749 H 160.614 -0.255086 0.613047 0
M  V30 1750 H 163.144 -0.172283 2.03873 0
M  V30 1751 H 163.154 -2.16483 3.45831 0
M  V30 1752 H 161.829 -1.14658 3.99783 0
M  V30 1753 H 160.406 -2.50146 2.76553 0
M  V30 1754 N 162.591 -1.51276 -0.441967 0
M  V30 1755 C 163.521 -1.752 -1.54361 0
M  V30 1756 C 164.502 -0.601682 -1.59103 0
M  V30 1757 O 165.687 -0.843913 -1.74905 0
M  V30 1758 C 162.817 -1.87282 -2.92477 0
M  V30 1759 C 161.771 -3.02687 -3.02596 0
M  V30 1760 C 161.097 -2.99947 -4.42647 0
M  V30 1761 C 162.397 -4.4273 -2.77106 0
M  V30 1762 H 164.091 -2.67442 -1.34592 0
M  V30 1763 H 161.637 -1.28694 -0.646048 0
M  V30 1764 H 163.59 -2.02602 -3.695 0
M  V30 1765 H 162.314 -0.916844 -3.13467 0
M  V30 1766 H 160.973 -2.87065 -2.28012 0
M  V30 1767 H 160.621 -2.02136 -4.60597 0
M  V30 1768 H 160.321 -3.77439 -4.50348 0
M  V30 1769 H 161.845 -3.17354 -5.2165 0
M  V30 1770 H 163.259 -4.58727 -3.43864 0
M  V30 1771 H 161.656 -5.21893 -2.96222 0
M  V30 1772 H 162.726 -4.53087 -1.72744 0
M  V30 1773 N 164.069 0.697108 -1.41344 0
M  V30 1774 C 165.485 1.00751 -1.2378 0
M  V30 1775 C 165.685 2.01105 -0.126066 0
M  V30 1776 O 164.741 2.47295 0.51004 0
M  V30 1777 C 166.054 1.53359 -2.58653 0
M  V30 1778 C 167.602 1.6525 -2.65822 0
M  V30 1779 C 168.077 2.2126 -4.01009 0
M  V30 1780 N 169.568 2.28622 -4.02847 0
M  V30 1781 C 170.303 2.72984 -5.04249 0
M  V30 1782 N 169.799 3.16962 -6.16041 0
M  V30 1783 N 171.592 2.72534 -4.91611 0
M  V30 1784 H 163.743 0.0322662 -2.12375 0
M  V30 1785 H 166.006 0.0768853 -0.944877 0
M  V30 1786 H 165.712 0.870773 -3.4075 0
M  V30 1787 H 165.586 2.51597 -2.81032 0
M  V30 1788 H 167.973 2.30644 -1.84086 0
M  V30 1789 H 168.054 0.655614 -2.47256 0
M  V30 1790 H 167.698 1.56482 -4.83193 0
M  V30 1791 H 167.628 3.21698 -4.16915 0
M  V30 1792 H 170.119 1.97585 -3.22131 0
M  V30 1793 H 170.432 3.49434 -6.89287 0
M  V30 1794 H 168.777 3.14875 -6.1958 0
M  V30 1795 H 171.968 2.37525 -4.0336 0
M  V30 1796 H 172.141 3.06789 -5.70775 0
M  V30 1797 N 165.547 1.27147 0.931209 0
M  V30 1798 C 166.963 1.04475 1.20653 0
M  V30 1799 C 167.163 -0.223885 2.00252 0
M  V30 1800 O 166.219 -0.930332 2.34736 0
M  V30 1801 C 167.532 2.28209 1.95809 0
M  V30 1802 C 169.08 2.33211 2.08762 0
M  V30 1803 C 169.555 3.56665 2.87323 0
M  V30 1804 N 171.046 3.57201 2.94892 0
M  V30 1805 C 171.781 4.49395 3.56134 0
M  V30 1806 N 171.277 5.51889 4.18796 0
M  V30 1807 N 173.07 4.37026 3.53504 0
M  V30 1808 H 165.221 2.08612 0.399333 0
M  V30 1809 H 167.484 0.917312 0.239253 0
M  V30 1810 H 167.19 3.20538 1.44736 0
M  V30 1811 H 167.064 2.33247 2.96438 0
M  V30 1812 H 169.451 1.41391 2.59023 0
M  V30 1813 H 169.532 2.32178 1.07364 0
M  V30 1814 H 169.176 4.4882 2.37746 0
M  V30 1815 H 169.106 3.54948 3.88998 0
M  V30 1816 H 171.597 2.83074 2.50354 0
M  V30 1817 H 171.91 6.18409 4.63454 0
M  V30 1818 H 170.255 5.55735 4.17353 0
M  V30 1819 H 173.446 3.56166 3.03749 0
M  V30 1820 H 173.619 5.09067 4.00942 0
M  V30 1821 N 167.025 -1.13721 1.09112 0
M  V30 1822 C 167.958 -2.18094 0.67158 0
M  V30 1823 C 168.936 -1.59414 -0.320299 0
M  V30 1824 O 170.12 -1.87183 -0.222444 0
M  V30 1825 C 167.247 -3.38698 -0.0111189 0
M  V30 1826 C 166.293 -4.15966 0.942055 0
M  V30 1827 S 167.126 -4.7604 2.45246 0
M  V30 1828 C 168.282 -5.99994 1.78208 0
M  V30 1829 H 168.515 -2.53344 1.55577 0
M  V30 1830 H 166.048 -1.24967 0.906789 0
M  V30 1831 H 168.006 -4.08559 -0.398716 0
M  V30 1832 H 166.667 -3.01756 -0.871905 0
M  V30 1833 H 165.86 -5.02318 0.411396 0
M  V30 1834 H 165.462 -3.51745 1.2709 0
M  V30 1835 H 167.754 -6.68441 1.10424 0
M  V30 1836 H 168.697 -6.57662 2.62463 0
M  V30 1837 H 169.105 -5.50432 1.25238 0
M  V30 1838 N 168.503 -0.877838 -1.30888 0
M  V30 1839 C 169.75 -0.492696 -1.96415 0
M  V30 1840 C 170.078 0.956671 -1.69346 0
M  V30 1841 O 169.333 1.68993 -0.986913 0
M  V30 1842 C 169.632 -0.705748 -3.50363 0
M  V30 1843 C 169.298 -2.1291 -3.97467 0
M  V30 1844 C 167.96 -2.51834 -4.1004 0
M  V30 1845 C 170.312 -3.05702 -4.22132 0
M  V30 1846 C 167.64 -3.82775 -4.44635 0
M  V30 1847 C 169.992 -4.36166 -4.58194 0
M  V30 1848 C 168.656 -4.74993 -4.68975 0
M  V30 1849 H 167.926 -0.18029 -0.718733 0
M  V30 1850 H 170.573 -1.11233 -1.55883 0
M  V30 1851 H 168.878 -0.00303058 -3.918 0
M  V30 1852 H 170.575 -0.387456 -3.99124 0
M  V30 1853 H 167.165 -1.81694 -3.88182 0
M  V30 1854 H 171.349 -2.76853 -4.11906 0
M  V30 1855 H 166.605 -4.12609 -4.51181 0
M  V30 1856 H 170.779 -5.08111 -4.76231 0
M  V30 1857 H 168.406 -5.76495 -4.95537 0
M  V30 1858 N 169.982 1.44106 -0.638065 0
M  V30 1859 C 170.912 2.33448 0.0494287 0
M  V30 1860 C 171.893 1.48606 0.827672 0
M  V30 1861 O 173.078 1.77308 0.792173 0
M  V30 1862 C 170.208 3.31771 1.02691 0
M  V30 1863 C 169.162 4.26485 0.359823 0
M  V30 1864 C 168.488 5.14729 1.44769 0
M  V30 1865 C 169.788 5.17056 -0.738296 0
M  V30 1866 H 171.482 2.91183 -0.696636 0
M  V30 1867 H 169.028 1.40014 -0.336456 0
M  V30 1868 H 170.981 3.93161 1.51666 0
M  V30 1869 H 169.705 2.7226 1.80395 0
M  V30 1870 H 168.364 3.66437 -0.10934 0
M  V30 1871 H 168.012 4.51566 2.21578 0
M  V30 1872 H 167.712 5.78913 1.00668 0
M  V30 1873 H 169.236 5.78991 1.93911 0
M  V30 1874 H 170.65 5.72342 -0.331354 0
M  V30 1875 H 169.047 5.89879 -1.10286 0
M  V30 1876 H 170.117 4.57652 -1.60258 0
M  V30 1877 N 171.46 0.379036 1.52974 0
M  V30 1878 C 172.423 -0.448865 2.24762 0
M  V30 1879 C 173.423 -0.998689 1.26027 0
M  V30 1880 O 174.613 -0.882313 1.50203 0
M  V30 1881 C 171.745 -1.62872 2.99476 0
M  V30 1882 H 172.938 0.179491 2.99362 0
M  V30 1883 H 170.491 0.13096 1.5575 0
M  V30 1884 H 171.226 -2.29479 2.29151 0
M  V30 1885 H 171.011 -1.24128 3.71934 0
M  V30 1886 H 172.501 -2.2151 3.5401 0
M  V30 1887 N 172.938 -1.57226 0.108567 0
M  V30 1888 C 173.888 -2.11305 -0.856396 0
M  V30 1889 C 174.872 -1.03129 -1.23504 0
M  V30 1890 O 176.064 -1.29381 -1.20787 0
M  V30 1891 C 173.193 -2.70771 -2.11041 0
M  V30 1892 C 172.279 -3.86011 -1.7566 0
M  V30 1893 N 172.67 -4.93492 -1.10902 0
M  V30 1894 C 170.968 -3.95999 -2.05185 0
M  V30 1895 C 171.669 -5.73984 -0.944308 0
M  V30 1896 N 170.645 -5.2346 -1.46596 0
M  V30 1897 H 174.447 -2.91784 -0.352002 0
M  V30 1898 H 171.961 -1.62126 -0.0942324 0
M  V30 1899 H 173.958 -3.07851 -2.81128 0
M  V30 1900 H 172.618 -1.91751 -2.62034 0
M  V30 1901 H 173.629 -5.1208 -0.774235 0
M  V30 1902 H 170.306 -3.28007 -2.58298 0
M  V30 1903 H 171.696 -6.70479 -0.436813 0
M  V30 1904 N 174.416 0.165178 -1.56732 0
M  V30 1905 C 175.832 0.517174 -1.50988 0
M  V30 1906 C 176.032 1.84331 -0.813894 0
M  V30 1907 O 175.088 2.49672 -0.37682 0
M  V30 1908 C 176.401 0.544261 -2.95733 0
M  V30 1909 C 177.949 0.631039 -3.06573 0
M  V30 1910 C 178.424 0.68896 -4.52788 0
M  V30 1911 N 179.915 0.751683 -4.5706 0
M  V30 1912 C 180.65 0.817177 -5.67547 0
M  V30 1913 N 180.146 0.843129 -6.8765 0
M  V30 1914 N 181.939 0.856668 -5.55534 0
M  V30 1915 H 174.09 -0.704318 -2.00382 0
M  V30 1916 H 176.353 -0.254687 -0.913148 0
M  V30 1917 H 176.059 -0.361607 -3.49836 0
M  V30 1918 H 175.933 1.3886 -3.5071 0
M  V30 1919 H 178.32 1.52733 -2.52501 0
M  V30 1920 H 178.401 -0.240095 -2.54671 0
M  V30 1921 H 178.045 -0.2031 -5.07494 0
M  V30 1922 H 177.975 1.57633 -5.02454 0
M  V30 1923 H 180.466 0.739661 -3.70591 0
M  V30 1924 H 180.779 0.894448 -7.67606 0
M  V30 1925 H 179.124 0.811304 -6.90248 0
M  V30 1926 H 182.315 0.833437 -4.60621 0
M  V30 1927 H 182.488 0.904247 -6.4166 0
M  V30 1928 N 175.894 1.51508 0.433938 0
M  V30 1929 C 177.171 1.54888 1.19453 0
M  V30 1930 C 177.551 0.315154 2.08734 0
M  V30 1931 O 176.899 -0.699558 2.17528 0
M  V30 1932 C 177.109 2.86467 1.99342 0
M  V30 1933 C 178.457 3.38545 2.56267 0
M  V30 1934 O 179.481 2.88041 2.0955 0
M  V30 1935 O 178.34 4.26675 3.41483 0
M  V30 1936 H 175.434 0.622863 0.544032 0
M  V30 1937 H 177.98 1.63823 0.442732 0
M  V30 1938 H 176.752 3.67718 1.33788 0
M  V30 1939 H 176.375 2.8071 2.8158 0
M  V30 1940 N 177.372 -0.689602 1.41712 0
M  V30 1941 C 178.302 -1.81577 1.46806 0
M  V30 1942 C 179.283 -1.66945 0.326105 0
M  V30 1943 O 180.468 -1.86588 0.538377 0
M  V30 1944 C 177.598 -3.19762 1.35535 0
M  V30 1945 C 176.552 -3.49107 2.47605 0
M  V30 1946 C 175.878 -4.86711 2.21397 0
M  V30 1947 C 177.178 -3.47483 3.89939 0
M  V30 1948 H 178.872 -1.7757 2.41058 0
M  V30 1949 H 176.418 -0.852887 1.16025 0
M  V30 1950 H 178.371 -3.98263 1.3771 0
M  V30 1951 H 177.095 -3.24409 0.377708 0
M  V30 1952 H 175.754 -2.72959 2.44722 0
M  V30 1953 H 175.402 -4.8799 1.21961 0
M  V30 1954 H 175.102 -5.0731 2.96497 0
M  V30 1955 H 176.626 -5.67515 2.25297 0
M  V30 1956 H 178.04 -4.1598 3.94505 0
M  V30 1957 H 176.437 -3.79615 4.64771 0
M  V30 1958 H 177.507 -2.46341 4.17665 0
M  V30 1959 N 178.85 -1.27639 -0.924453 0
M  V30 1960 C 179.813 -1.10681 -2.00705 0
M  V30 1961 C 180.813 -0.0497823 -1.60723 0
M  V30 1962 O 182.003 -0.294654 -1.7169 0
M  V30 1963 C 179.135 -0.687164 -3.33902 0
M  V30 1964 H 180.328 -2.06817 -2.17179 0
M  V30 1965 H 177.881 -1.10473 -1.10569 0
M  V30 1966 H 178.616 0.275439 -3.23128 0
M  V30 1967 H 178.401 -1.45061 -3.6428 0
M  V30 1968 H 179.891 -0.590853 -4.13399 0
M  V30 1969 N 180.328 1.1314 -1.09713 0
M  V30 1970 C 181.744 1.36477 -0.827423 0
M  V30 1971 C 181.944 1.93654 0.556817 0
M  V30 1972 O 181 2.15791 1.31112 0
M  V30 1973 C 182.313 2.31334 -1.92106 0
M  V30 1974 C 183.861 2.44943 -1.94864 0
M  V30 1975 C 184.336 3.4311 -3.0338 0
M  V30 1976 N 185.827 3.50662 -3.02639 0
M  V30 1977 C 186.562 4.2651 -3.83246 0
M  V30 1978 N 186.058 5.05485 -4.73768 0
M  V30 1979 N 187.851 4.2184 -3.71493 0
M  V30 1980 H 180.002 0.743807 -1.9895 0
M  V30 1981 H 182.265 0.389823 -0.864143 0
M  V30 1982 H 181.971 1.96483 -2.91698 0
M  V30 1983 H 181.845 3.31381 -1.80184 0
M  V30 1984 H 184.232 2.79079 -0.959099 0
M  V30 1985 H 184.313 1.4481 -2.10864 0
M  V30 1986 H 183.957 3.09704 -4.02549 0
M  V30 1987 H 183.887 4.43055 -2.84622 0
M  V30 1988 H 186.378 2.94315 -2.37039 0
M  V30 1989 H 186.691 5.60675 -5.3185 0
M  V30 1990 H 185.036 5.04708 -4.77802 0
M  V30 1991 H 188.227 3.5922 -3.00131 0
M  V30 1992 H 188.4 4.80697 -4.3455 0
M  V30 1993 N 181.806 0.884767 1.30421 0
M  V30 1994 C 183.055 0.499164 1.95426 0
M  V30 1995 C 183.368 -0.95645 1.70621 0
M  V30 1996 O 184.574 -1.44889 2.29607 0
M  V30 1997 C 183.03 0.84177 3.49917 0
M  V30 1998 C 182.638 2.31514 3.83543 0
M  V30 1999 C 184.382 0.525355 4.21237 0
M  V30 2000 C 182.289 2.59939 5.31212 0
M  V30 2001 H 181.219 0.182944 0.73147 0
M  V30 2002 H 183.87 1.07971 1.48373 0
M  V30 2003 H 182.252 0.190311 3.95542 0
M  V30 2004 H 183.426 3.0109 3.48829 0
M  V30 2005 H 181.741 2.59907 3.25326 0
M  V30 2006 H 184.338 0.714762 5.29901 0
M  V30 2007 H 184.681 -0.535222 4.12845 0
M  V30 2008 H 185.214 1.134 3.81294 0
M  V30 2009 H 181.953 3.64736 5.44654 0
M  V30 2010 H 181.473 1.94972 5.67227 0
M  V30 2011 H 183.152 2.45429 5.98643 0
M  V30 2012 N 183.284 -1.43765 0.645699 0
M  V30 2013 C 184.247 -2.29163 -0.0409488 0
M  V30 2014 C 185.247 -1.41813 -0.757996 0
M  V30 2015 O 186.437 -1.63527 -0.600382 0
M  V30 2016 C 183.569 -3.23716 -1.06869 0
M  V30 2017 H 184.762 -2.91366 0.710345 0
M  V30 2018 H 182.315 -1.5092 0.406547 0
M  V30 2019 H 183.05 -2.66393 -1.84947 0
M  V30 2020 H 182.835 -3.88105 -0.558277 0
M  V30 2021 H 184.325 -3.87831 -1.54845 0
M  V30 2022 N 184.763 -0.387143 -1.52771 0
M  V30 2023 C 186.012 0.19697 -2.00736 0
M  V30 2024 C 186.325 1.48082 -1.27793 0
M  V30 2025 O 187.531 2.14485 -1.66458 0
M  V30 2026 C 185.987 0.401568 -3.57653 0
M  V30 2027 C 185.595 -0.868907 -4.39493 0
M  V30 2028 C 187.339 0.942164 -4.13912 0
M  V30 2029 C 185.246 -0.632705 -5.88006 0
M  V30 2030 H 184.176 0.0773827 -0.750019 0
M  V30 2031 H 186.827 -0.50921 -1.76293 0
M  V30 2032 H 185.209 1.16954 -3.78335 0
M  V30 2033 H 186.383 -1.64133 -4.30577 0
M  V30 2034 H 184.698 -1.33429 -3.94443 0
M  V30 2035 H 187.295 1.13455 -5.22525 0
M  V30 2036 H 187.638 1.9106 -3.69867 0
M  V30 2037 H 188.171 0.233814 -3.97112 0
M  V30 2038 H 184.91 -1.57208 -6.36369 0
M  V30 2039 H 184.43 0.100825 -5.99715 0
M  V30 2040 H 186.109 -0.26642 -6.46451 0
M  V30 2041 N 186.241 1.57166 -0.116904 0
M  V30 2042 C 187.518 1.86645 0.585049 0
M  V30 2043 C 187.898 1.0177 1.84949 0
M  V30 2044 O 187.246 0.0960379 2.28298 0
M  V30 2045 C 187.456 3.37736 0.879507 0
M  V30 2046 C 188.804 4.06289 1.23348 0
M  V30 2047 O 189.828 3.42743 0.969836 0
M  V30 2048 O 188.687 5.18455 1.7282 0
M  V30 2049 H 185.781 0.772593 0.295007 0
M  V30 2050 H 188.327 1.69025 -0.151249 0
M  V30 2051 H 187.099 3.91296 -0.0166136 0
M  V30 2052 H 186.722 3.6078 1.67103 0
M  V30 2053 N 187.719 -0.156864 1.56817 0
M  V30 2054 C 189.135 -0.50916 1.5126 0
M  V30 2055 C 189.335 -1.83897 0.823658 0
M  V30 2056 O 188.391 -2.49469 0.390055 0
M  V30 2057 C 189.704 -0.52857 2.96018 0
M  V30 2058 C 191.252 -0.614771 3.06903 0
M  V30 2059 C 191.727 -0.664938 4.53147 0
M  V30 2060 N 193.218 -0.727433 4.57452 0
M  V30 2061 C 193.953 -0.787067 5.67973 0
M  V30 2062 N 193.449 -0.806649 6.88088 0
M  V30 2063 N 195.242 -0.827195 5.5598 0
M  V30 2064 H 187.393 0.714935 2.00006 0
M  V30 2065 H 189.656 0.259526 0.911784 0
M  V30 2066 H 189.362 0.380154 3.49639 0
M  V30 2067 H 189.236 -1.36998 3.51442 0
M  V30 2068 H 191.623 -1.51392 2.53307 0
M  V30 2069 H 191.704 0.253597 2.5454 0
M  V30 2070 H 191.348 0.230011 5.07379 0
M  V30 2071 H 191.278 -1.54966 5.03282 0
M  V30 2072 H 193.769 -0.719998 3.70978 0
M  V30 2073 H 194.082 -0.853727 7.6807 0
M  V30 2074 H 192.427 -0.774687 6.90669 0
M  V30 2075 H 195.618 -0.808998 4.61056 0
M  V30 2076 H 195.791 -0.870206 6.4213 0
M  V30 2077 N 189.197 -1.51736 -0.425897 0
M  V30 2078 C 190.443 -1.65214 -1.1761 0
M  V30 2079 C 190.776 -0.372778 -1.90589 0
M  V30 2080 O 190.051 0.628139 -1.84078 0
M  V30 2081 C 190.334 -2.86312 -2.18398 0
M  V30 2082 C 190.187 -4.24254 -1.49426 0
M  V30 2083 C 191.506 -3.02925 -3.19256 0
M  V30 2084 H 188.625 -0.601263 -0.426206 0
M  V30 2085 H 191.267 -1.8425 -0.463882 0
M  V30 2086 H 189.417 -2.70213 -2.79137 0
M  V30 2087 H 191.089 -4.52046 -0.919362 0
M  V30 2088 H 189.332 -4.26426 -0.796432 0
M  V30 2089 H 190.003 -5.05001 -2.22885 0
M  V30 2090 H 192.479 -3.1781 -2.68581 0
M  V30 2091 H 191.355 -3.89199 -3.8706 0
M  V30 2092 H 191.616 -2.15497 -3.86023 0
M  V30 2093 N 190.675 0.682077 -1.42076 0
M  V30 2094 C 192.086 1.26246 -1.37546 0
M  V30 2095 C 192.437 1.96092 -0.0651481 0
M  V30 2096 O 191.562 1.99587 0.836297 0
M  V30 2097 C 192.157 2.29594 -2.49143 0
M  V30 2098 C 190.716 2.83175 -2.47969 0
M  V30 2099 C 189.863 1.57395 -2.28303 0
M  V30 2100 H 192.814 0.475937 -1.51395 0
M  V30 2101 H 192.835 3.11175 -2.18976 0
M  V30 2102 H 192.347 1.78729 -3.44496 0
M  V30 2103 H 190.448 3.3818 -1.56413 0
M  V30 2104 H 190.561 3.32687 -3.44755 0
M  V30 2105 H 188.925 1.83699 -1.76428 0
M  V30 2106 H 189.708 1.08507 -3.25701 0
M  V30 2107 N 192.153 1.28127 0.917671 0
M  V30 2108 C 193.083 1.14248 2.03641 0
M  V30 2109 C 194.064 0.0412748 1.7005 0
M  V30 2110 O 195.249 0.217566 1.92977 0
M  V30 2111 C 192.379 0.799431 3.37974 0
M  V30 2112 C 191.333 1.85497 3.85713 0
M  V30 2113 C 190.659 1.36565 5.16966 0
M  V30 2114 C 191.959 3.26085 4.08002 0
M  V30 2115 H 193.653 2.07835 2.15511 0
M  V30 2116 H 191.199 1.00064 1.03553 0
M  V30 2117 H 193.152 0.689114 4.15727 0
M  V30 2118 H 191.876 -0.172145 3.26146 0
M  V30 2119 H 190.535 1.95437 3.10161 0
M  V30 2120 H 190.183 0.383253 5.01538 0
M  V30 2121 H 189.883 2.07143 5.49878 0
M  V30 2122 H 191.407 1.26848 5.97279 0
M  V30 2123 H 192.821 3.19089 4.76293 0
M  V30 2124 H 191.218 3.94462 4.52238 0
M  V30 2125 H 192.288 3.70394 3.12948 0
M  V30 2126 N 193.631 -1.12557 1.10312 0
M  V30 2127 C 194.879 -1.83675 0.843091 0
M  V30 2128 C 195.2 -1.84435 -0.633131 0
M  V30 2129 O 194.47 -1.30657 -1.45964 0
M  V30 2130 H 193.05 -0.680138 0.308904 0
M  V30 2131 H 195.712 -1.36301 1.39313 0
M  V30 2132 H 194.808 -2.87908 1.2048 0
M  V30 2133 N 195.109 -0.891671 -1.2995 0
M  V30 2134 C 196.52 -0.563104 -1.78006 0
M  V30 2135 C 196.871 0.920978 -1.73241 0
M  V30 2136 O 195.996 1.71987 -1.31337 0
M  V30 2137 C 196.591 -1.01539 -3.23226 0
M  V30 2138 C 195.15 -0.738124 -3.69092 0
M  V30 2139 C 194.297 -1.19461 -2.50249 0
M  V30 2140 H 197.248 -1.07522 -1.16725 0
M  V30 2141 H 197.269 -0.347217 -3.78912 0
M  V30 2142 H 196.781 -2.09555 -3.26662 0
M  V30 2143 H 194.882 0.329766 -3.71138 0
M  V30 2144 H 194.995 -1.33037 -4.60259 0
M  V30 2145 H 193.359 -0.613787 -2.47194 0
M  V30 2146 H 194.142 -2.28265 -2.56417 0
M  V30 2147 N 196.587 1.43421 -0.653314 0
M  V30 2148 C 197.535 2.32546 0.0501531 0
M  V30 2149 C 198.529 1.48617 0.812985 0
M  V30 2150 O 199.735 1.64825 0.723375 0
M  V30 2151 H 196.11 0.751185 0.0350032 0
M  V30 2152 H 198.081 2.89602 -0.719261 0
M  V30 2153 C 196.83 3.32925 1.00279 0
M  V30 2154 H 196.153 3.97532 0.425236 0
M  V30 2155 H 197.593 3.9792 1.46409 0
M  V30 2156 C 196.052 2.63532 2.09886 0
M  V30 2157 O 196.582 2.45092 3.18265 0
M  V30 2158 N 194.788 2.22905 1.86445 0
M  V30 2159 H 194.335 2.38103 0.98309 0
M  V30 2160 H 194.293 1.76805 2.59976 0
M  V30 2161 N 198.065 0.39524 1.52563 0
M  V30 2162 C 199.313 -0.184678 2.01254 0
M  V30 2163 C 199.634 -1.46822 1.28329 0
M  V30 2164 O 198.904 -1.91666 0.405094 0
M  V30 2165 H 197.484 -0.0712355 0.743596 0
M  V30 2166 H 200.146 0.528293 1.87603 0
M  V30 2167 H 199.242 -0.390681 3.09645 0
M  V30 2168 N 199.544 -1.57102 0.125237 0
M  V30 2169 C 200.477 -2.11371 -0.860094 0
M  V30 2170 C 201.455 -1.03168 -1.25679 0
M  V30 2171 O 202.639 -1.30862 -1.35674 0
M  V30 2172 C 199.766 -2.61555 -2.1519 0
M  V30 2173 C 198.812 -3.81701 -1.9028 0
M  V30 2174 S 199.645 -5.23797 -1.11343 0
M  V30 2175 C 200.801 -5.77353 -2.41689 0
M  V30 2176 H 201.034 -2.94617 -0.39852 0
M  V30 2177 H 198.567 -1.54145 -0.0886555 0
M  V30 2178 H 200.525 -2.91122 -2.89411 0
M  V30 2179 H 199.186 -1.78479 -2.58465 0
M  V30 2180 H 198.379 -4.14985 -2.86014 0
M  V30 2181 H 197.981 -3.52783 -1.24178 0
M  V30 2182 H 200.273 -5.87458 -3.37489 0
M  V30 2183 H 201.216 -6.75323 -2.12942 0
M  V30 2184 H 201.624 -5.05457 -2.51342 0
M  V30 2185 N 201.022 0.148545 -1.56898 0
M  V30 2186 C 202.268 0.862694 -1.83536 0
M  V30 2187 C 202.601 1.80889 -0.706604 0
M  V30 2188 O 201.876 1.92328 0.289885 0
M  V30 2189 C 202.159 1.63853 -3.20662 0
M  V30 2190 C 202.012 0.713925 -4.44098 0
M  V30 2191 C 203.331 2.60133 -3.54991 0
M  V30 2192 H 200.45 0.312179 -0.667618 0
M  V30 2193 H 203.092 0.127953 -1.89569 0
M  V30 2194 H 201.242 2.26489 -3.1565 0
M  V30 2195 H 202.914 0.098686 -4.61194 0
M  V30 2196 H 201.157 0.0234019 -4.33794 0
M  V30 2197 H 201.828 1.29278 -5.36648 0
M  V30 2198 H 204.304 2.07616 -3.60603 0
M  V30 2199 H 203.18 3.11468 -4.51972 0
M  V30 2200 H 203.441 3.41417 -2.80868 0
M  V30 2201 N 202.5 1.5196 0.417844 0
M  V30 2202 C 203.748 1.65263 1.16329 0
M  V30 2203 C 204.069 0.380634 1.91249 0
M  V30 2204 O 203.339 -0.604214 1.86349 0
M  V30 2205 H 201.919 0.60912 0.432414 0
M  V30 2206 H 204.581 1.88969 0.477162 0
M  V30 2207 H 203.677 2.4896 1.88217 0
M  V30 2208 N 203.978 -0.674533 1.42435 0
M  V30 2209 C 204.911 -1.79924 1.40366 0
M  V30 2210 C 205.889 -1.60378 0.267899 0
M  V30 2211 O 207.073 -1.82847 0.458159 0
M  V30 2212 C 204.2 -3.16927 1.19478 0
M  V30 2213 C 203.246 -3.55221 2.36051 0
M  V30 2214 S 204.079 -3.5762 3.98583 0
M  V30 2215 C 205.235 -4.97315 3.80038 0
M  V30 2216 H 205.468 -1.81405 2.35541 0
M  V30 2217 H 203.001 -0.845221 1.29211 0
M  V30 2218 H 204.959 -3.96007 1.08114 0
M  V30 2219 H 203.62 -3.13031 0.258883 0
M  V30 2220 H 202.813 -4.54804 2.17185 0
M  V30 2221 H 202.415 -2.83502 2.43932 0
M  V30 2222 H 204.707 -5.85401 3.41045 0
M  V30 2223 H 205.65 -5.21228 4.79298 0
M  V30 2224 H 206.058 -4.69845 3.12899 0
M  V30 2225 N 205.456 -1.28612 -0.910864 0
M  V30 2226 C 206.366 -1.14643 -2.0468 0
M  V30 2227 C 207.382 -0.0723121 -1.7385 0
M  V30 2228 O 208.558 -0.282178 -1.99413 0
M  V30 2229 C 205.623 -0.812561 -3.37044 0
M  V30 2230 C 204.684 -1.96935 -3.81465 0
M  V30 2231 C 203.917 -1.65131 -5.07511 0
M  V30 2232 O 204.14 -0.567013 -5.67575 0
M  V30 2233 O 203.074 -2.49585 -5.47714 0
M  V30 2234 H 206.9 -2.1001 -2.19384 0
M  V30 2235 H 204.485 -1.07958 -1.03274 0
M  V30 2236 H 206.367 -0.640441 -4.16505 0
M  V30 2237 H 205.042 0.111426 -3.23508 0
M  V30 2238 H 203.949 -2.19664 -3.02818 0
M  V30 2239 H 205.282 -2.87414 -3.99567 0
M  V30 2240 N 206.934 1.1197 -1.10907 0
M  V30 2241 C 208.35 1.35591 -0.841852 0
M  V30 2242 C 208.55 1.94233 0.536246 0
M  V30 2243 O 207.606 2.1717 1.28816 0
M  V30 2244 C 208.919 2.29284 -1.94549 0
M  V30 2245 C 210.467 2.42862 -1.97451 0
M  V30 2246 C 210.942 3.39873 -3.07002 0
M  V30 2247 N 212.433 3.47433 -3.06341 0
M  V30 2248 C 213.168 4.22421 -3.87748 0
M  V30 2249 N 212.664 5.00432 -4.79103 0
M  V30 2250 N 214.457 4.17876 -3.75946 0
M  V30 2251 H 206.608 0.722664 -1.99728 0
M  V30 2252 H 208.871 0.380635 -0.868229 0
M  V30 2253 H 208.577 1.93378 -2.93765 0
M  V30 2254 H 208.451 3.29452 -1.83688 0
M  V30 2255 H 210.838 2.78046 -0.988645 0
M  V30 2256 H 210.919 1.42566 -2.12388 0
M  V30 2257 H 210.563 3.05417 -4.05811 0
M  V30 2258 H 210.493 4.40011 -2.89306 0
M  V30 2259 H 212.984 2.91784 -2.40147 0
M  V30 2260 H 213.297 5.55002 -5.37766 0
M  V30 2261 H 211.642 4.99612 -4.83128 0
M  V30 2262 H 214.833 3.56016 -3.03924 0
M  V30 2263 H 215.006 4.76061 -4.39624 0
M  V30 2264 N 208.412 0.89855 1.29475 0
M  V30 2265 C 209.64 0.539261 1.99749 0
M  V30 2266 C 210.055 -0.875716 1.67262 0
M  V30 2267 O 209.412 -1.57786 0.917049 0
M  V30 2268 C 209.463 0.72061 3.54245 0
M  V30 2269 O 209.184 2.07989 3.8558 0
M  V30 2270 C 210.685 0.366118 4.41786 0
M  V30 2271 H 207.905 0.207047 0.638258 0
M  V30 2272 H 210.449 1.20758 1.65039 0
M  V30 2273 H 208.604 0.0994862 3.87272 0
M  V30 2274 H 209.018 2.10841 4.80257 0
M  V30 2275 H 210.492 0.543848 5.49314 0
M  V30 2276 H 210.969 -0.696763 4.33638 0
M  V30 2277 H 211.575 0.964135 4.14228 0
M  V30 2278 N 209.89 -1.43072 0.660911 0
M  V30 2279 C 210.823 -2.28074 -0.0758862 0
M  V30 2280 C 211.801 -1.40271 -0.822362 0
M  V30 2281 O 212.985 -1.69713 -0.820352 0
M  V30 2282 C 210.112 -3.19843 -1.11437 0
M  V30 2283 C 209.158 -4.23957 -0.465069 0
M  V30 2284 S 209.991 -5.29978 0.767078 0
M  V30 2285 C 211.147 -6.25314 -0.270682 0
M  V30 2286 H 211.38 -2.90216 0.645139 0
M  V30 2287 H 208.913 -1.47697 0.449995 0
M  V30 2288 H 210.871 -3.73257 -1.70849 0
M  V30 2289 H 209.532 -2.56863 -1.80776 0
M  V30 2290 H 208.725 -4.88299 -1.24819 0
M  V30 2291 H 208.327 -3.73959 0.0551242 0
M  V30 2292 H 210.619 -6.67932 -1.13459 0
M  V30 2293 H 211.562 -7.07293 0.337916 0
M  V30 2294 H 211.97 -5.61195 -0.609937 0
M  V30 2295 N 211.368 -0.403325 -1.52352 0
M  V30 2296 C 212.316 0.439752 -2.28405 0
M  V30 2297 C 213.31 1.05089 -1.32863 0
M  V30 2298 O 214.516 0.989759 -1.50345 0
M  V30 2299 H 210.891 0.160587 -0.734653 0
M  V30 2300 H 212.862 -0.222983 -2.97566 0
M  V30 2301 C 211.611 1.54736 -3.11371 0
M  V30 2302 H 210.934 1.08643 -3.84755 0
M  V30 2303 H 212.374 2.1112 -3.67701 0
M  V30 2304 C 210.833 2.51141 -2.24566 0
M  V30 2305 O 211.363 3.54887 -1.88196 0
M  V30 2306 N 209.569 2.21213 -1.8845 0
M  V30 2307 H 209.116 1.36878 -2.18225 0
M  V30 2308 H 209.074 2.85963 -1.30662 0
M  V30 2309 N 212.846 1.57033 -0.133567 0
M  V30 2310 C 213.776 2.1909 0.807567 0
M  V30 2311 C 214.757 1.13517 1.26681 0
M  V30 2312 O 215.942 1.41809 1.32679 0
M  V30 2313 C 213.072 2.80188 2.05212 0
M  V30 2314 C 212.026 3.91471 1.73015 0
M  V30 2315 C 211.352 4.39443 3.04622 0
M  V30 2316 C 212.652 5.12886 0.987168 0
M  V30 2317 H 214.346 2.97988 0.290403 0
M  V30 2318 H 211.892 1.43335 0.138239 0
M  V30 2319 H 213.845 3.22264 2.71521 0
M  V30 2320 H 212.569 1.98601 2.59278 0
M  V30 2321 H 211.228 3.49993 1.0909 0
M  V30 2322 H 210.876 3.54695 3.56651 0
M  V30 2323 H 210.576 5.14495 2.83847 0
M  V30 2324 H 212.1 4.8418 3.72024 0
M  V30 2325 H 213.514 5.51891 1.55208 0
M  V30 2326 H 211.911 5.93615 0.87985 0
M  V30 2327 H 212.981 4.84894 -0.0235286 0
M  V30 2328 N 214.325 -0.140222 1.56975 0
M  V30 2329 C 215.255 -1.17456 2.01808 0
M  V30 2330 C 216.236 -1.44415 0.898794 0
M  V30 2331 O 217.421 -1.5522 1.16707 0
M  V30 2332 C 214.551 -2.50607 2.40444 0
M  V30 2333 C 213.505 -2.38155 3.55621 0
M  V30 2334 C 212.831 -3.76078 3.80091 0
M  V30 2335 C 214.131 -1.85991 4.88062 0
M  V30 2336 H 215.825 -0.801743 2.88466 0
M  V30 2337 H 213.371 -0.38422 1.38779 0
M  V30 2338 H 215.324 -3.23197 2.7041 0
M  V30 2339 H 214.048 -2.89737 1.50732 0
M  V30 2340 H 212.707 -1.68016 3.25832 0
M  V30 2341 H 212.355 -4.12656 2.87618 0
M  V30 2342 H 212.055 -3.68606 4.57606 0
M  V30 2343 H 213.579 -4.50206 4.12488 0
M  V30 2344 H 214.993 -2.4838 5.16701 0
M  V30 2345 H 213.39 -1.89393 5.6943 0
M  V30 2346 H 214.46 -0.816023 4.77984 0
M  V30 2347 N 215.803 -1.52179 -0.40978 0
M  V30 2348 C 217.219 -1.40968 -0.74835 0
M  V30 2349 C 217.419 -0.513657 -1.94843 0
M  V30 2350 O 216.475 0.0208026 -2.52491 0
M  V30 2351 C 217.788 -2.83483 -1.0029 0
M  V30 2352 C 219.336 -2.92821 -1.10565 0
M  V30 2353 C 219.811 -4.36303 -1.39296 0
M  V30 2354 N 221.302 -4.39535 -1.46162 0
M  V30 2355 C 222.037 -5.47614 -1.70018 0
M  V30 2356 N 221.533 -6.65812 -1.91483 0
M  V30 2357 N 223.326 -5.35129 -1.72027 0
M  V30 2358 H 215.477 -2.0897 0.380186 0
M  V30 2359 H 217.74 -0.94185 0.107805 0
M  V30 2360 H 217.446 -3.51168 -0.193461 0
M  V30 2361 H 217.32 -3.24487 -1.92323 0
M  V30 2362 H 219.707 -2.25318 -1.90568 0
M  V30 2363 H 219.788 -2.55276 -0.16369 0
M  V30 2364 H 219.432 -5.04366 -0.598109 0
M  V30 2365 H 219.362 -4.71385 -2.34743 0
M  V30 2366 H 221.853 -3.54332 -1.31367 0
M  V30 2367 H 222.166 -7.43964 -2.09134 0
M  V30 2368 H 220.511 -6.68879 -1.88749 0
M  V30 2369 H 223.702 -4.41764 -1.54796 0
M  V30 2370 H 223.875 -6.19433 -1.9028 0
M  V30 2371 N 217.281 0.66697 -1.42791 0
M  V30 2372 C 218.506 1.46004 -1.47301 0
M  V30 2373 C 218.931 1.87894 -0.0880317 0
M  V30 2374 O 218.289 1.56502 0.915253 0
M  V30 2375 C 218.337 2.68031 -2.41229 0
M  V30 2376 O 217.441 3.6659 -1.88906 0
M  V30 2377 H 216.782 0.43832 -0.49877 0
M  V30 2378 H 219.312 0.817391 -1.87563 0
M  V30 2379 H 219.322 3.1601 -2.58073 0
M  V30 2380 H 217.997 2.36883 -3.41847 0
M  V30 2381 H 216.574 3.25661 -1.81656 0
M  V30 2382 N 218.759 1.29093 0.90403 0
M  V30 2383 C 220.007 1.16583 1.65085 0
M  V30 2384 C 220.328 -0.283933 1.92922 0
M  V30 2385 O 219.598 -1.19509 1.55224 0
M  V30 2386 H 218.178 0.428467 0.611903 0
M  V30 2387 H 220.84 1.61959 1.08422 0
M  V30 2388 H 219.936 1.71266 2.6091 0
M  V30 2389 N 220.237 -1.11381 1.11499 0
M  V30 2390 C 221.485 -1.8277 0.862524 0
M  V30 2391 C 221.806 -1.85097 -0.613534 0
M  V30 2392 O 221.076 -1.32198 -1.4457 0
M  V30 2393 H 219.656 -0.676823 0.316101 0
M  V30 2394 H 222.318 -1.34816 1.4075 0
M  V30 2395 H 221.414 -2.86614 1.23527 0
M  V30 2396 N 221.715 -0.905404 -1.28997 0
M  V30 2397 C 222.645 -0.404212 -2.29975 0
M  V30 2398 C 223.626 0.523784 -1.61835 0
M  V30 2399 O 224.811 0.433298 -1.89304 0
M  V30 2400 C 221.941 0.364042 -3.45387 0
M  V30 2401 C 220.895 -0.474048 -4.25367 0
M  V30 2402 C 220.221 0.422045 -5.33032 0
M  V30 2403 C 221.521 -1.72696 -4.92923 0
M  V30 2404 H 223.215 -1.24807 -2.72146 0
M  V30 2405 H 220.761 -0.601585 -1.30832 0
M  V30 2406 H 222.714 0.725447 -4.15109 0
M  V30 2407 H 221.438 1.24174 -3.02074 0
M  V30 2408 H 220.097 -0.81786 -3.57361 0
M  V30 2409 H 219.745 1.29804 -4.85963 0
M  V30 2410 H 219.445 -0.135057 -5.87445 0
M  V30 2411 H 220.969 0.779517 -6.05604 0
M  V30 2412 H 222.383 -1.43495 -5.55051 0
M  V30 2413 H 220.78 -2.22582 -5.57295 0
M  V30 2414 H 221.85 -2.45964 -4.17887 0
M  V30 2415 N 223.193 1.4272 -0.668489 0
M  V30 2416 C 224.143 2.27971 0.0363806 0
M  V30 2417 C 225.127 1.40741 0.779794 0
M  V30 2418 O 226.319 1.64245 0.659745 0
M  V30 2419 C 223.448 3.28673 0.991398 0
M  V30 2420 C 222.534 4.23388 0.245658 0
M  V30 2421 N 222.925 5.00267 -0.746069 0
M  V30 2422 C 221.223 4.43355 0.484988 0
M  V30 2423 C 221.924 5.69396 -1.19009 0
M  V30 2424 N 220.9 5.41095 -0.521287 0
M  V30 2425 H 224.702 2.84833 -0.724394 0
M  V30 2426 H 222.216 1.54607 -0.497028 0
M  V30 2427 H 224.213 3.88543 1.51129 0
M  V30 2428 H 222.873 2.73373 1.75207 0
M  V30 2429 H 223.884 5.05525 -1.12537 0
M  V30 2430 H 220.561 3.99104 1.22565 0
M  V30 2431 H 221.951 6.41083 -2.01153 0
M  V30 2432 N 224.671 0.411399 1.52136 0
M  V30 2433 C 225.948 -0.222308 1.94333 0
M  V30 2434 C 226.328 -1.6242 1.34844 0
M  V30 2435 O 225.676 -2.22384 0.525145 0
M  V30 2436 C 225.886 -0.226345 3.48265 0
M  V30 2437 C 227.234 -0.444592 4.22266 0
M  V30 2438 O 228.258 -0.305602 3.54887 0
M  V30 2439 O 227.117 -0.718749 5.41753 0
M  V30 2440 H 224.211 -0.143907 0.814383 0
M  V30 2441 H 226.757 0.467506 1.63133 0
M  V30 2442 H 225.529 0.75475 3.83952 0
M  V30 2443 H 225.152 -0.960163 3.85832 0
M  V30 2444 N 226.149 -1.5696 0.141893 0
M  V30 2445 C 227.059 -2.20066 -0.812905 0
M  V30 2446 C 228.075 -1.18344 -1.27557 0
M  V30 2447 O 229.251 -1.50902 -1.33381 0
M  V30 2448 C 226.316 -2.80583 -2.03652 0
M  V30 2449 C 225.377 -3.97414 -1.62359 0
M  V30 2450 C 224.61 -4.55036 -2.78887 0
M  V30 2451 O 224.833 -4.11538 -3.94959 0
M  V30 2452 O 223.767 -5.45376 -2.54653 0
M  V30 2453 H 227.593 -3.02157 -0.305746 0
M  V30 2454 H 225.178 -1.49159 -0.0848799 0
M  V30 2455 H 227.06 -3.19067 -2.75272 0
M  V30 2456 H 225.735 -2.01508 -2.5333 0
M  V30 2457 H 224.642 -3.63656 -0.877775 0
M  V30 2458 H 225.975 -4.77994 -1.17401 0
M  V30 2459 N 227.627 0.131896 -1.57047 0
M  V30 2460 C 228.557 1.16384 -2.02428 0
M  V30 2461 C 229.538 1.43936 -0.90644 0
M  V30 2462 O 230.723 1.54599 -1.17528 0
M  V30 2463 C 227.853 2.49328 -2.4177 0
M  V30 2464 C 226.807 2.36266 -3.56879 0
M  V30 2465 C 226.133 3.74057 -3.8208 0
M  V30 2466 C 227.433 1.834 -4.89042 0
M  V30 2467 H 229.127 0.786433 -2.88887 0
M  V30 2468 H 226.673 0.376855 -1.38981 0
M  V30 2469 H 228.626 3.21759 -2.7212 0
M  V30 2470 H 227.35 2.88934 -1.52266 0
M  V30 2471 H 226.009 1.66286 -3.26718 0
M  V30 2472 H 225.657 4.11125 -2.89803 0
M  V30 2473 H 225.357 3.66174 -4.59554 0
M  V30 2474 H 226.881 4.48012 -4.1487 0
M  V30 2475 H 228.295 2.45636 -5.18011 0
M  V30 2476 H 226.692 1.8637 -5.70426 0
M  V30 2477 H 227.762 0.790662 -4.7841 0
M  V30 2478 N 229.106 1.52395 0.401703 0
M  V30 2479 C 230.069 1.75636 1.47257 0
M  V30 2480 C 231.069 0.62628 1.48103 0
M  V30 2481 O 232.259 0.894227 1.49497 0
M  V30 2482 C 229.391 1.84553 2.86624 0
M  V30 2483 H 230.584 2.71241 1.27938 0
M  V30 2484 H 228.137 1.42923 0.632662 0
M  V30 2485 H 228.872 0.908882 3.11303 0
M  V30 2486 H 228.657 2.66715 2.87412 0
M  V30 2487 H 230.147 2.04251 3.64241 0
M  V30 2488 N 230.584 -0.659388 1.43143 0
M  V30 2489 C 231.547 -1.75432 1.47501 0
M  V30 2490 C 232.547 -1.56707 0.360512 0
M  V30 2491 O 233.737 -1.62717 0.622002 0
M  V30 2492 C 230.869 -3.14239 1.32162 0
M  V30 2493 H 232.062 -1.7295 2.45006 0
M  V30 2494 H 229.615 -0.870469 1.29817 0
M  V30 2495 H 230.35 -3.22336 0.356401 0
M  V30 2496 H 230.135 -3.29235 2.12948 0
M  V30 2497 H 231.625 -3.94094 1.3813 0
M  V30 2498 N 232.062 -1.29571 -0.897171 0
M  V30 2499 C 233.292 -1.20408 -1.67886 0
M  V30 2500 C 233.7 0.237429 -1.87704 0
M  V30 2501 O 233.043 1.17048 -1.41582 0
M  V30 2502 C 233.105 -1.84887 -3.08314 0
M  V30 2503 C 232.769 -3.34189 -3.11716 0
M  V30 2504 C 233.766 -4.30374 -2.91675 0
M  V30 2505 C 231.451 -3.75431 -3.33701 0
M  V30 2506 C 233.445 -5.65776 -2.93557 0
M  V30 2507 C 231.132 -5.10955 -3.35214 0
M  V30 2508 C 232.13 -6.05938 -3.15164 0
M  V30 2509 O 231.818 -7.38987 -3.1647 0
M  V30 2510 H 231.55 -0.418289 -0.531046 0
M  V30 2511 H 234.104 -1.71514 -1.13014 0
M  V30 2512 H 232.334 -1.28295 -3.64798 0
M  V30 2513 H 234.023 -1.70011 -3.6858 0
M  V30 2514 H 234.789 -3.99844 -2.74499 0
M  V30 2515 H 230.668 -3.01953 -3.48347 0
M  V30 2516 H 234.212 -6.39889 -2.77826 0
M  V30 2517 H 230.109 -5.4113 -3.51922 0
M  V30 2518 H 230.877 -7.47823 -3.3272 0
M  V30 2519 N 233.54 1.10788 -1.12088 0
M  V30 2520 C 234.788 1.8231 -0.872205 0
M  V30 2521 C 235.109 1.85419 0.603709 0
M  V30 2522 O 234.379 1.32963 1.43867 0
M  V30 2523 H 232.959 0.675137 -0.319686 0
M  V30 2524 H 235.621 1.34068 -1.41463 0
M  V30 2525 H 234.717 2.85955 -1.25045 0
M  V30 2526 N 235.018 0.912232 1.28515 0
M  V30 2527 C 236.266 0.543523 1.94654 0
M  V30 2528 C 236.587 -0.9155 1.72173 0
M  V30 2529 O 235.857 -1.64708 1.06058 0
M  V30 2530 H 234.437 0.198017 0.720277 0
M  V30 2531 H 237.099 1.16126 1.56527 0
M  V30 2532 H 236.195 0.736684 3.03281 0
M  V30 2533 N 236.496 -1.42363 0.676048 0
M  V30 2534 C 237.773 -1.95183 0.127726 0
M  V30 2535 C 238.153 -1.61641 -1.35777 0
M  V30 2536 O 237.501 -0.913216 -2.09458 0
M  V30 2537 C 237.711 -3.46721 0.398199 0
M  V30 2538 C 239.059 -4.23427 0.315383 0
M  V30 2539 O 240.083 -3.54649 0.332016 0
M  V30 2540 O 238.942 -5.45888 0.25865 0
M  V30 2541 H 236.036 -0.826992 0.00359427 0
M  V30 2542 H 238.582 -1.52184 0.750864 0
M  V30 2543 H 237.354 -3.64344 1.4272 0
M  V30 2544 H 236.977 -3.96769 -0.256885 0
M  V30 2545 N 237.974 -0.419461 -1.51915 0
M  V30 2546 C 238.904 0.391813 -2.30189 0
M  V30 2547 C 239.885 1.03699 -1.34836 0
M  V30 2548 O 241.07 1.04403 -1.63748 0
M  V30 2549 C 238.2 1.50312 -3.13087 0
M  V30 2550 C 237.154 0.9824 -4.16573 0
M  V30 2551 C 236.48 2.18809 -4.8788 0
M  V30 2552 C 237.78 0.0292356 -5.22292 0
M  V30 2553 H 239.474 -0.26135 -2.98257 0
M  V30 2554 H 237.02 -0.127134 -1.43438 0
M  V30 2555 H 238.973 2.07773 -3.66617 0
M  V30 2556 H 237.697 2.18431 -2.42807 0
M  V30 2557 H 236.356 0.430119 -3.64068 0
M  V30 2558 H 236.004 2.85507 -4.14119 0
M  V30 2559 H 235.704 1.84615 -5.57845 0
M  V30 2560 H 237.228 2.76858 -5.44226 0
M  V30 2561 H 238.642 0.512976 -5.71 0
M  V30 2562 H 237.039 -0.2244 -5.9968 0
M  V30 2563 H 238.109 -0.912931 -4.76228 0
M  V30 2564 N 239.452 1.56882 -0.150215 0
M  V30 2565 C 240.382 2.19935 0.784284 0
M  V30 2566 C 241.363 1.14854 1.25469 0
M  V30 2567 O 242.548 1.43209 1.31168 0
M  V30 2568 C 239.678 2.82349 2.02229 0
M  V30 2569 C 238.632 3.93285 1.68853 0
M  V30 2570 C 237.958 4.42649 2.99944 0
M  V30 2571 C 239.258 5.13904 0.932714 0
M  V30 2572 H 240.952 2.9828 0.258781 0
M  V30 2573 H 238.498 1.43473 0.123029 0
M  V30 2574 H 240.451 3.25126 2.68088 0
M  V30 2575 H 239.175 2.0134 2.57157 0
M  V30 2576 H 237.834 3.5113 1.05371 0
M  V30 2577 H 237.482 3.58458 3.52869 0
M  V30 2578 H 237.182 5.17476 2.78374 0
M  V30 2579 H 238.706 4.88099 3.66868 0
M  V30 2580 H 240.12 5.53506 1.49345 0
M  V30 2581 H 238.517 5.94515 0.81684 0
M  V30 2582 H 239.587 4.84842 -0.0749568 0
M  V30 2583 N 240.93 -0.123565 1.57115 0
M  V30 2584 C 242.155 -0.850398 1.89164 0
M  V30 2585 C 242.58 -1.7286 0.741688 0
M  V30 2586 O 241.938 -1.78665 -0.307958 0
M  V30 2587 C 241.986 -1.66353 3.19936 0
M  V30 2588 O 241.09 -2.77004 3.0552 0
M  V30 2589 H 240.431 -0.235454 0.620852 0
M  V30 2590 H 242.961 -0.107335 2.04318 0
M  V30 2591 H 242.971 -2.05372 3.52543 0
M  V30 2592 H 241.646 -1.01881 4.03228 0
M  V30 2593 H 240.223 -2.41221 2.84371 0
M  V30 2594 N 242.408 -1.52605 -0.393616 0
M  V30 2595 C 243.636 -1.71294 -1.16043 0
M  V30 2596 C 244.051 -0.429259 -1.83855 0
M  V30 2597 O 243.408 0.595921 -1.72496 0
M  V30 2598 C 243.459 -2.8593 -2.21193 0
M  V30 2599 O 243.18 -4.09329 -1.56146 0
M  V30 2600 C 244.681 -3.16259 -3.10636 0
M  V30 2601 H 241.901 -0.573641 -0.348104 0
M  V30 2602 H 244.445 -1.99234 -0.461092 0
M  V30 2603 H 242.6 -2.60465 -2.86769 0
M  V30 2604 H 243.014 -4.73323 -2.25978 0
M  V30 2605 H 244.488 -3.99946 -3.80456 0
M  V30 2606 H 244.965 -2.3045 -3.73884 0
M  V30 2607 H 245.571 -3.43547 -2.50711 0
M  V30 2608 N 243.887 0.651787 -1.4349 0
M  V30 2609 C 245.134 1.41167 -1.45183 0
M  V30 2610 C 245.462 1.94349 -0.0766601 0
M  V30 2611 O 244.717 1.72804 0.918555 0
M  V30 2612 C 245.016 2.60914 -2.44251 0
M  V30 2613 C 244.682 2.26142 -3.9009 0
M  V30 2614 C 243.344 2.16371 -4.2981 0
M  V30 2615 C 245.696 1.98334 -4.81989 0
M  V30 2616 C 243.024 1.7695 -5.5938 0
M  V30 2617 C 245.376 1.6041 -6.11924 0
M  V30 2618 C 244.04 1.49166 -6.5062 0
M  V30 2619 H 243.31 0.516566 -0.531263 0
M  V30 2620 H 245.957 0.741099 -1.76579 0
M  V30 2621 H 244.262 3.3311 -2.06265 0
M  V30 2622 H 245.959 3.19127 -2.42815 0
M  V30 2623 H 242.549 2.34658 -3.58655 0
M  V30 2624 H 246.733 2.04803 -4.52072 0
M  V30 2625 H 241.989 1.66831 -5.88198 0
M  V30 2626 H 246.163 1.37925 -6.82605 0
M  V30 2627 H 243.79 1.1839 -7.50925 0
M  V30 2628 N 245.365 1.30045 0.890287 0
M  V30 2629 C 246.611 1.18737 1.64406 0
M  V30 2630 C 246.944 -0.258525 1.92472 0
M  V30 2631 O 246.219 -1.18562 1.54186 0
M  V30 2632 C 246.502 2.01087 2.98724 0
M  V30 2633 C 246.355 3.53867 2.77665 0
M  V30 2634 C 247.674 1.84457 3.9958 0
M  V30 2635 H 244.793 0.432698 0.596608 0
M  V30 2636 H 247.435 1.5962 1.0306 0
M  V30 2637 H 245.585 1.66349 3.51084 0
M  V30 2638 H 247.257 3.98637 2.32133 0
M  V30 2639 H 245.5 3.78318 2.12269 0
M  V30 2640 H 246.171 4.06772 3.7315 0
M  V30 2641 H 248.647 2.14817 3.56361 0
M  V30 2642 H 247.523 2.44411 4.91482 0
M  V30 2643 H 247.784 0.802276 4.3476 0
M  V30 2644 N 246.843 -1.10192 1.12674 0
M  V30 2645 C 248.071 -1.85983 0.906527 0
M  V30 2646 C 248.486 -1.80783 -0.544333 0
M  V30 2647 O 247.843 -1.19834 -1.37645 0
M  V30 2648 C 247.894 -3.34281 1.37618 0
M  V30 2649 O 247.615 -3.39401 2.77017 0
M  V30 2650 C 249.116 -4.26938 1.19325 0
M  V30 2651 H 246.336 -0.587716 0.323775 0
M  V30 2652 H 248.88 -1.39284 1.49734 0
M  V30 2653 H 247.035 -3.78436 0.828539 0
M  V30 2654 H 247.449 -4.31838 2.97684 0
M  V30 2655 H 248.923 -5.29181 1.57071 0
M  V30 2656 H 249.4 -4.38995 0.134097 0
M  V30 2657 H 250.006 -3.8859 1.72852 0
M  V30 2658 N 248.321 -0.919034 -1.28029 0
M  V30 2659 C 249.284 -0.416182 -2.2539 0
M  V30 2660 C 250.284 0.460438 -1.54067 0
M  V30 2661 O 251.474 0.262744 -1.72207 0
M  V30 2662 C 248.606 0.402707 -3.38513 0
M  V30 2663 H 249.799 -1.27629 -2.71387 0
M  V30 2664 H 247.352 -0.698919 -1.39803 0
M  V30 2665 H 248.087 1.282 -2.97885 0
M  V30 2666 H 247.872 -0.225698 -3.9145 0
M  V30 2667 H 249.362 0.745191 -4.10897 0
M  V30 2668 N 249.799 1.42003 -0.683588 0
M  V30 2669 C 250.709 2.34597 -0.0109075 0
M  V30 2670 C 251.725 1.55576 0.779245 0
M  V30 2671 O 252.901 1.88107 0.719555 0
M  V30 2672 C 249.966 3.34199 0.922588 0
M  V30 2673 C 249.027 4.29115 0.125984 0
M  V30 2674 C 248.26 5.23959 1.01502 0
M  V30 2675 O 248.483 5.23952 2.25456 0
M  V30 2676 O 247.417 6.00053 0.47111 0
M  V30 2677 H 251.243 2.93675 -0.773853 0
M  V30 2678 H 248.828 1.42654 -0.443861 0
M  V30 2679 H 250.71 3.95365 1.45823 0
M  V30 2680 H 249.385 2.77582 1.66523 0
M  V30 2681 H 248.292 3.71335 -0.453969 0
M  V30 2682 H 249.625 4.88798 -0.577736 0
M  V30 2683 N 251.277 0.427512 1.51691 0
M  V30 2684 C 252.24 -0.377132 2.26076 0
M  V30 2685 C 253.24 -0.958089 1.29141 0
M  V30 2686 O 254.43 -0.83408 1.52934 0
M  V30 2687 C 251.562 -1.53262 3.04506 0
M  V30 2688 H 252.755 0.27464 2.9864 0
M  V30 2689 H 250.308 0.180445 1.55255 0
M  V30 2690 H 251.043 -2.22072 2.36335 0
M  V30 2691 H 250.828 -1.12232 3.75694 0
M  V30 2692 H 252.318 -2.10135 3.60878 0
M  V30 2693 N 252.755 -1.56801 0.158532 0
M  V30 2694 C 253.685 -2.20347 -0.772609 0
M  V30 2695 C 254.666 -1.15518 -1.24859 0
M  V30 2696 O 255.851 -1.43902 -1.30406 0
M  V30 2697 C 252.981 -2.83417 -2.00729 0
M  V30 2698 C 251.935 -3.94174 -1.66765 0
M  V30 2699 C 251.261 -4.44233 -2.97592 0
M  V30 2700 C 252.561 -5.14392 -0.905447 0
M  V30 2701 H 254.255 -2.98413 -0.242959 0
M  V30 2702 H 251.801 -1.43537 -0.115419 0
M  V30 2703 H 253.754 -3.26543 -2.6636 0
M  V30 2704 H 252.478 -2.02701 -2.56086 0
M  V30 2705 H 251.137 -3.51684 -1.03508 0
M  V30 2706 H 250.785 -3.60325 -3.50963 0
M  V30 2707 H 250.485 -5.18945 -2.75626 0
M  V30 2708 H 252.009 -4.90037 -3.64274 0
M  V30 2709 H 253.423 -5.5429 -1.46408 0
M  V30 2710 H 251.82 -5.9494 -0.7853 0
M  V30 2711 H 252.89 -4.84795 0.100668 0
M  V30 2712 N 254.233 0.115231 -1.57178 0
M  V30 2713 C 255.143 1.15994 -2.03918 0
M  V30 2714 C 256.159 1.45103 -0.960268 0
M  V30 2715 O 257.335 1.56144 -1.27204 0
M  V30 2716 C 254.4 2.46568 -2.43732 0
M  V30 2717 C 253.461 2.24822 -3.65723 0
M  V30 2718 C 252.694 3.4917 -4.03629 0
M  V30 2719 O 252.917 4.56623 -3.41835 0
M  V30 2720 O 251.851 3.39949 -4.96708 0
M  V30 2721 H 255.677 0.793019 -2.93164 0
M  V30 2722 H 253.262 0.3263 -1.45793 0
M  V30 2723 H 255.144 3.23492 -2.70057 0
M  V30 2724 H 253.819 2.82726 -1.57631 0
M  V30 2725 H 252.726 1.45744 -3.44542 0
M  V30 2726 H 254.059 1.93566 -4.52541 0
M  V30 2727 N 255.711 1.52812 0.385517 0
M  V30 2728 C 256.643 1.74096 1.49074 0
M  V30 2729 C 257.656 0.621462 1.50472 0
M  V30 2730 O 258.845 0.897245 1.54311 0
M  V30 2731 C 255.945 1.78774 2.87911 0
M  V30 2732 C 255.118 3.08134 3.10439 0
M  V30 2733 C 254.177 3.04313 4.29278 0
M  V30 2734 O 253.203 3.78168 4.25415 0
M  V30 2735 N 254.405 2.23741 5.35649 0
M  V30 2736 H 257.17 2.69455 1.31202 0
M  V30 2737 H 254.731 1.51343 0.575065 0
M  V30 2738 H 256.723 1.73721 3.65518 0
M  V30 2739 H 255.293 0.907869 2.99126 0
M  V30 2740 H 254.513 3.26649 2.20667 0
M  V30 2741 H 255.801 3.93662 3.22347 0
M  V30 2742 H 255.199 1.63211 5.41645 0
M  V30 2743 H 253.756 2.24524 6.11909 0
M  V30 2744 N 257.189 -0.644168 1.43834 0
M  V30 2745 C 258.414 -1.43642 1.49605 0
M  V30 2746 C 258.839 -1.8773 0.117913 0
M  V30 2747 O 258.197 -1.57938 -0.890239 0
M  V30 2748 C 258.245 -2.6416 2.45463 0
M  V30 2749 O 257.349 -3.63538 1.94714 0
M  V30 2750 H 256.69 -0.430329 0.50568 0
M  V30 2751 H 259.22 -0.787448 1.8884 0
M  V30 2752 H 259.23 -3.11864 2.63068 0
M  V30 2753 H 257.905 -2.31414 3.45572 0
M  V30 2754 H 256.482 -3.2273 1.86814 0
M  V30 2755 N 258.668 -1.30515 -0.883378 0
M  V30 2756 C 259.893 -1.22487 -1.67367 0
M  V30 2757 C 260.318 0.208767 -1.86938 0
M  V30 2758 O 259.676 1.15015 -1.40148 0
M  V30 2759 C 259.724 -1.96041 -3.02655 0
M  V30 2760 O 258.828 -1.28859 -3.91751 0
M  V30 2761 H 258.169 -0.423573 -0.511353 0
M  V30 2762 H 260.699 -1.72362 -1.10239 0
M  V30 2763 H 260.709 -2.05124 -3.52687 0
M  V30 2764 H 259.384 -3.00307 -2.8773 0
M  V30 2765 H 257.961 -1.28141 -3.50192 0
M  V30 2766 N 260.146 1.09593 -1.13257 0
M  V30 2767 C 261.562 1.33775 -0.870423 0
M  V30 2768 C 261.762 1.95327 0.494926 0
M  V30 2769 O 260.818 2.19853 1.2418 0
M  V30 2770 C 262.131 2.25106 -1.99369 0
M  V30 2771 C 263.679 2.3862 -2.02558 0
M  V30 2772 C 264.154 3.33285 -3.14142 0
M  V30 2773 N 265.645 3.40857 -3.13641 0
M  V30 2774 C 266.38 4.14101 -3.96621 0
M  V30 2775 N 265.876 4.90157 -4.8961 0
M  V30 2776 N 267.669 4.09808 -3.84726 0
M  V30 2777 H 259.82 0.680136 -2.01216 0
M  V30 2778 H 262.083 0.362133 -0.876107 0
M  V30 2779 H 261.789 1.87103 -2.97801 0
M  V30 2780 H 261.663 3.25481 -1.90635 0
M  V30 2781 H 264.05 2.75887 -1.0474 0
M  V30 2782 H 264.131 1.38028 -2.15364 0
M  V30 2783 H 263.775 2.96741 -4.12198 0
M  V30 2784 H 263.705 4.33776 -2.98574 0
M  V30 2785 H 266.196 2.86624 -2.46282 0
M  V30 2786 H 266.509 5.4347 -5.49418 0
M  V30 2787 H 264.854 4.89251 -4.93617 0
M  V30 2788 H 268.045 3.4949 -3.11408 0
M  V30 2789 H 268.218 4.66629 -4.49623 0
M  V30 2790 N 261.624 0.925811 1.2754 0
M  V30 2791 C 262.572 0.413897 2.28888 0
M  V30 2792 C 263.566 -0.500779 1.61829 0
M  V30 2793 O 264.772 -0.38069 1.75928 0
M  V30 2794 H 261.147 0.115274 0.743112 0
M  V30 2795 H 263.118 1.28151 2.69481 0
M  V30 2796 C 261.867 -0.319792 3.46226 0
M  V30 2797 H 261.19 0.374846 3.98039 0
M  V30 2798 H 262.63 -0.642435 4.19105 0
M  V30 2799 C 261.089 -1.53209 3.00048 0
M  V30 2800 O 261.619 -2.6309 3.03557 0
M  V30 2801 N 259.825 -1.38326 2.55566 0
M  V30 2802 H 259.372 -0.489292 2.5291 0
M  V30 2803 H 259.33 -2.19564 2.25031 0
M  V30 2804 N 263.102 -1.41638 0.69111 0
M  V30 2805 C 264.513 -1.84346 0.295517 0
M  V30 2806 C 264.864 -1.57833 -1.16547 0
M  V30 2807 O 263.989 -1.04648 -1.89414 0
M  V30 2808 C 264.584 -3.34636 0.529575 0
M  V30 2809 C 263.143 -3.7593 0.187944 0
M  V30 2810 C 262.29 -2.65082 0.814052 0
M  V30 2811 H 265.241 -1.31253 0.892092 0
M  V30 2812 H 265.262 -3.79903 -0.213148 0
M  V30 2813 H 264.774 -3.53901 1.59297 0
M  V30 2814 H 262.875 -3.62268 -0.871367 0
M  V30 2815 H 262.988 -4.74808 0.63985 0
M  V30 2816 H 261.352 -2.53528 0.244017 0
M  V30 2817 H 262.135 -2.87167 1.88123 0
M  V30 2818 N 264.58 -0.43555 -1.51462 0
M  V30 2819 C 265.828 0.131254 -2.01673 0
M  V30 2820 C 266.149 1.43368 -1.32177 0
M  V30 2821 O 265.419 1.90524 -0.455769 0
M  V30 2822 H 263.999 0.0514954 -0.745223 0
M  V30 2823 H 266.661 -0.577847 -1.86137 0
M  V30 2824 H 265.757 0.308446 -3.10572 0
M  V30 2825 N 266.058 1.56714 -0.166846 0
M  V30 2826 C 267.286 2.0112 0.485644 0
M  V30 2827 C 267.701 1.04705 1.57106 0
M  V30 2828 O 267.058 0.0471923 1.82439 0
M  V30 2829 C 267.109 3.45361 1.06808 0
M  V30 2830 O 266.83 4.38092 0.0259995 0
M  V30 2831 C 268.331 4.05145 1.79924 0
M  V30 2832 H 265.551 0.65931 0.124704 0
M  V30 2833 H 268.095 2.02746 -0.267262 0
M  V30 2834 H 266.25 3.44524 1.7715 0
M  V30 2835 H 266.664 5.22519 0.455398 0
M  V30 2836 H 268.138 5.08009 2.15942 0
M  V30 2837 H 268.615 3.46982 2.69258 0
M  V30 2838 H 269.221 4.09672 1.14234 0
M  V30 2839 N 267.536 -0.106894 1.57237 0
M  V30 2840 C 268.446 -1.14911 2.0453 0
M  V30 2841 C 269.462 -1.44592 0.96795 0
M  V30 2842 O 270.638 -1.55468 1.2803 0
M  V30 2843 C 267.703 -2.45272 2.45036 0
M  V30 2844 C 266.764 -2.22879 3.66911 0
M  V30 2845 C 265.997 -3.47024 4.05475 0
M  V30 2846 O 266.22 -4.54804 3.44252 0
M  V30 2847 O 265.154 -3.3731 4.98504 0
M  V30 2848 H 268.98 -0.777461 2.9358 0
M  V30 2849 H 266.565 -0.318563 1.45964 0
M  V30 2850 H 268.447 -3.22055 2.71769 0
M  V30 2851 H 267.122 -2.81886 1.59129 0
M  V30 2852 H 266.029 -1.43915 3.45311 0
M  V30 2853 H 267.362 -1.91163 4.53561 0
M  V30 2854 N 269.014 -1.53014 -0.377408 0
M  V30 2855 C 269.946 -1.74884 -1.48149 0
M  V30 2856 C 270.959 -0.629433 -1.5014 0
M  V30 2857 O 272.148 -0.905416 -1.53833 0
M  V30 2858 C 269.248 -1.80299 -2.86959 0
M  V30 2859 C 268.421 -3.09776 -3.08801 0
M  V30 2860 C 267.48 -3.06586 -4.27658 0
M  V30 2861 O 266.506 -3.80419 -4.23403 0
M  V30 2862 N 267.708 -2.26578 -5.34455 0
M  V30 2863 H 270.473 -2.70147 -1.29771 0
M  V30 2864 H 268.034 -1.51646 -0.56703 0
M  V30 2865 H 270.026 -1.75657 -3.64591 0
M  V30 2866 H 268.596 -0.92372 -2.98641 0
M  V30 2867 H 267.816 -3.27815 -2.18931 0
M  V30 2868 H 269.104 -3.95366 -3.20255 0
M  V30 2869 H 268.502 -1.66081 -5.40771 0
M  V30 2870 H 267.059 -2.27766 -6.10709 0
M  V30 2871 N 270.492 0.636531 -1.44174 0
M  V30 2872 C 271.74 1.39343 -1.46383 0
M  V30 2873 C 272.061 1.94766 -0.0955715 0
M  V30 2874 O 271.331 1.75452 0.871395 0
M  V30 2875 H 269.911 0.517199 -0.538994 0
M  V30 2876 H 272.573 0.74957 -1.7991 0
M  V30 2877 H 271.669 2.22746 -2.18611 0
M  V30 2878 N 271.97 1.30982 0.876444 0
M  V30 2879 C 273.386 1.09498 1.16113 0
M  V30 2880 C 273.586 -0.13875 2.01022 0
M  V30 2881 O 272.642 -0.829935 2.38471 0
M  V30 2882 C 273.955 2.36308 1.85954 0
M  V30 2883 C 275.503 2.41856 1.98683 0
M  V30 2884 C 275.978 3.6853 2.71937 0
M  V30 2885 N 277.469 3.69387 2.79477 0
M  V30 2886 C 278.204 4.64096 3.36753 0
M  V30 2887 N 277.7 5.69155 3.95012 0
M  V30 2888 N 279.493 4.51626 3.3465 0
M  V30 2889 H 271.644 2.10118 0.310494 0
M  V30 2890 H 273.907 0.926634 0.200131 0
M  V30 2891 H 273.613 3.26388 1.31011 0
M  V30 2892 H 273.487 2.4561 2.86278 0
M  V30 2893 H 275.874 1.52249 2.52793 0
M  V30 2894 H 275.955 2.36523 0.9742 0
M  V30 2895 H 275.599 4.58499 2.18496 0
M  V30 2896 H 275.529 3.71127 3.73593 0
M  V30 2897 H 278.02 2.93438 2.38123 0
M  V30 2898 H 278.333 6.3751 4.36808 0
M  V30 2899 H 276.678 5.72937 3.93406 0
M  V30 2900 H 279.869 3.68728 2.8837 0
M  V30 2901 H 280.042 5.25614 3.7899 0
M  V30 2902 N 273.449 -1.08991 1.13837 0
M  V30 2903 C 274.359 -2.19301 0.833333 0
M  V30 2904 C 275.375 -1.73026 -0.183847 0
M  V30 2905 O 276.551 -2.01395 -0.0138092 0
M  V30 2906 C 273.616 -3.45323 0.308651 0
M  V30 2907 C 272.677 -4.06255 1.38764 0
M  V30 2908 C 271.91 -5.26262 0.887896 0
M  V30 2909 O 272.133 -5.69747 -0.27287 0
M  V30 2910 O 271.067 -5.78435 1.66421 0
M  V30 2911 H 274.893 -2.47854 1.75506 0
M  V30 2912 H 272.478 -1.18012 0.916166 0
M  V30 2913 H 274.36 -4.21394 0.0216739 0
M  V30 2914 H 273.035 -3.18362 -0.585431 0
M  V30 2915 H 271.942 -3.318 1.72799 0
M  V30 2916 H 273.275 -4.37452 2.25602 0
M  V30 2917 N 274.927 -0.932562 -1.27047 0
M  V30 2918 C 275.859 -0.392734 -2.2581 0
M  V30 2919 C 276.872 0.479241 -1.55586 0
M  V30 2920 O 278.061 0.291078 -1.76111 0
M  V30 2921 C 275.161 0.455456 -3.35826 0
M  V30 2922 C 274.334 -0.398355 -4.35582 0
M  V30 2923 C 273.393 0.387985 -5.24768 0
M  V30 2924 O 272.419 -0.206003 -5.68827 0
M  V30 2925 N 273.621 1.68664 -5.55457 0
M  V30 2926 H 276.386 -1.24173 -2.72766 0
M  V30 2927 H 273.947 -0.800511 -1.40725 0
M  V30 2928 H 275.939 0.988692 -3.92437 0
M  V30 2929 H 274.509 1.20522 -2.88432 0
M  V30 2930 H 273.729 -1.11286 -3.78165 0
M  V30 2931 H 275.017 -0.981889 -4.99236 0
M  V30 2932 H 274.415 2.19147 -5.21528 0
M  V30 2933 H 272.972 2.1663 -6.14748 0
M  V30 2934 N 276.405 1.4127 -0.698611 0
M  V30 2935 C 277.368 2.29158 -0.044132 0
M  V30 2936 C 278.368 1.44529 0.704841 0
M  V30 2937 O 279.558 1.65643 0.539276 0
M  V30 2938 C 276.69 3.27459 0.947809 0
M  V30 2939 H 277.883 2.88529 -0.817994 0
M  V30 2940 H 275.436 1.49307 -0.46228 0
M  V30 2941 H 276.171 2.73073 1.74933 0
M  V30 2942 H 275.956 3.8991 0.41385 0
M  V30 2943 H 277.446 3.93311 1.40344 0
M  V30 2944 N 277.883 0.443576 1.51229 0
M  V30 2945 C 279.131 -0.120557 2.0174 0
M  V30 2946 C 279.452 -1.42665 1.32935 0
M  V30 2947 O 278.722 -1.9028 0.465866 0
M  V30 2948 H 277.302 -0.0475426 0.745486 0
M  V30 2949 H 279.964 0.587711 1.85828 0
M  V30 2950 H 279.06 -0.291972 3.10731 0
M  V30 2951 N 279.361 -1.56624 0.175154 0
M  V30 2952 C 280.607 -1.9729 -0.469506 0
M  V30 2953 C 280.94 -1.06128 -1.62636 0
M  V30 2954 O 280.215 -0.109183 -1.94193 0
M  V30 2955 C 280.498 -3.47375 -0.948804 0
M  V30 2956 C 280.351 -4.49317 0.208491 0
M  V30 2957 C 281.67 -4.00652 -1.82116 0
M  V30 2958 H 278.789 -0.717317 -0.16919 0
M  V30 2959 H 281.431 -1.88184 0.262062 0
M  V30 2960 H 279.581 -3.55267 -1.57219 0
M  V30 2961 H 281.253 -4.53482 0.845682 0
M  V30 2962 H 279.496 -4.25121 0.863395 0
M  V30 2963 H 280.167 -5.51741 -0.169059 0
M  V30 2964 H 282.643 -3.95416 -1.2956 0
M  V30 2965 H 281.519 -5.06075 -2.12554 0
M  V30 2966 H 281.78 -3.44699 -2.7683 0
M  V30 2967 N 280.839 0.0985539 -1.57292 0
M  V30 2968 C 282.086 0.802678 -1.85912 0
M  V30 2969 C 282.414 1.78901 -0.763186 0
M  V30 2970 O 281.669 1.94178 0.243559 0
M  V30 2971 C 281.968 1.56927 -3.21105 0
M  V30 2972 C 281.634 0.725376 -4.45027 0
M  V30 2973 C 280.296 0.492726 -4.78671 0
M  V30 2974 C 282.648 0.138493 -5.21016 0
M  V30 2975 C 279.976 -0.336727 -5.85733 0
M  V30 2976 C 282.328 -0.678264 -6.28953 0
M  V30 2977 C 280.992 -0.921039 -6.61115 0
M  V30 2978 H 280.262 0.293721 -0.680301 0
M  V30 2979 H 282.909 0.0642841 -1.91392 0
M  V30 2980 H 281.214 2.37914 -3.11294 0
M  V30 2981 H 282.911 2.11841 -3.40477 0
M  V30 2982 H 279.501 0.916815 -4.18679 0
M  V30 2983 H 283.685 0.305404 -4.95359 0
M  V30 2984 H 278.941 -0.533836 -6.09065 0
M  V30 2985 H 283.115 -1.1399 -6.87007 0
M  V30 2986 H 280.742 -1.56556 -7.43905 0
M  V30 2987 N 282.317 1.53212 0.369288 0
M  V30 2988 C 283.28 1.7872 1.43498 0
M  V30 2989 C 284.28 0.657554 1.46741 0
M  V30 2990 O 285.47 0.925736 1.47566 0
M  V30 2991 C 282.602 1.90591 2.82645 0
M  V30 2992 H 283.795 2.73894 1.22156 0
M  V30 2993 H 281.348 1.44233 0.602203 0
M  V30 2994 H 282.083 0.974709 3.09306 0
M  V30 2995 H 281.868 2.72751 2.8169 0
M  V30 2996 H 283.358 2.11931 3.59826 0
M  V30 2997 N 283.795 -0.628877 1.44509 0
M  V30 2998 C 285.072 -1.38733 1.37886 0
M  V30 2999 C 285.452 -2.11065 0.0387008 0
M  V30 3000 O 284.8 -2.06476 -0.97878 0
M  V30 3001 C 285.01 -2.35188 2.57852 0
M  V30 3002 C 286.358 -2.9845 3.02014 0
M  V30 3003 O 287.382 -2.45513 2.58073 0
M  V30 3004 O 286.241 -3.94487 3.78209 0
M  V30 3005 H 283.335 -0.621015 0.54614 0
M  V30 3006 H 285.881 -0.653744 1.56602 0
M  V30 3007 H 284.653 -1.80855 3.46998 0
M  V30 3008 H 284.276 -3.1596 2.4136 0
M  V30 3009 N 285.273 -1.31445 -0.869486 0
M  V30 3010 C 286.205 -1.14955 -1.98287 0
M  V30 3011 C 287.218 -0.0885037 -1.62559 0
M  V30 3012 O 288.407 -0.336044 -1.75308 0
M  V30 3013 C 285.507 -0.734255 -3.3085 0
M  V30 3014 C 284.68 -1.88042 -3.94917 0
M  V30 3015 C 283.739 -1.4511 -5.05796 0
M  V30 3016 O 282.765 -2.16082 -5.2659 0
M  V30 3017 N 283.967 -0.338763 -5.79511 0
M  V30 3018 H 286.732 -2.10856 -2.12979 0
M  V30 3019 H 284.293 -1.23786 -1.04349 0
M  V30 3020 H 286.285 -0.42975 -4.02412 0
M  V30 3021 H 284.855 0.133158 -3.12316 0
M  V30 3022 H 284.075 -2.35222 -3.1633 0
M  V30 3023 H 285.363 -2.6481 -4.34457 0
M  V30 3024 H 284.761 0.252274 -5.65137 0
M  V30 3025 H 283.318 -0.0937925 -6.51733 0
M  V30 3026 N 286.751 1.08385 -1.14413 0
M  V30 3027 C 287.681 2.17321 -0.854044 0
M  V30 3028 C 288.662 1.69024 0.191049 0
M  V30 3029 O 289.847 1.94141 0.0476779 0
M  V30 3030 C 286.977 3.45719 -0.330983 0
M  V30 3031 C 285.931 4.07409 -1.31155 0
M  V30 3032 C 285.257 5.30762 -0.64778 0
M  V30 3033 C 286.557 4.48665 -2.67388 0
M  V30 3034 H 288.251 2.41845 -1.76498 0
M  V30 3035 H 285.797 1.16233 -0.850051 0
M  V30 3036 H 287.75 4.21241 -0.115645 0
M  V30 3037 H 286.474 3.2075 0.615381 0
M  V30 3038 H 285.133 3.33919 -1.51306 0
M  V30 3039 H 284.781 5.02078 0.304398 0
M  V30 3040 H 284.481 5.72992 -1.30207 0
M  V30 3041 H 286.005 6.08998 -0.441972 0
M  V30 3042 H 287.419 5.15364 -2.51143 0
M  V30 3043 H 285.816 5.01814 -3.29093 0
M  V30 3044 H 286.886 3.60543 -3.24248 0
M  V30 3045 N 288.23 0.939286 1.26551 0
M  V30 3046 C 289.18 0.418284 2.2413 0
M  V30 3047 C 290.164 -0.483935 1.5345 0
M  V30 3048 O 291.356 -0.319489 1.74093 0
M  V30 3049 C 288.485 -0.31709 3.41832 0
M  V30 3050 C 287.571 0.602311 4.19801 0
M  V30 3051 N 287.962 1.72726 4.75394 0
M  V30 3052 C 286.26 0.407534 4.44134 0
M  V30 3053 C 286.961 2.30004 5.34297 0
M  V30 3054 N 285.937 1.58828 5.1988 0
M  V30 3055 H 289.739 1.27705 2.64705 0
M  V30 3056 H 287.253 0.794929 1.41614 0
M  V30 3057 H 289.25 -0.707364 4.10855 0
M  V30 3058 H 287.91 -1.17264 3.02786 0
M  V30 3059 H 288.921 2.10944 4.72994 0
M  V30 3060 H 285.598 -0.406406 4.15517 0
M  V30 3061 H 286.988 3.24778 5.88191 0
M  V30 3062 N 289.708 -1.40897 0.706093 0
M  V30 3063 C 290.956 -2.00657 0.241054 0
M  V30 3064 C 291.277 -1.56241 -1.16678 0
M  V30 3065 O 290.547 -0.79765 -1.78926 0
M  V30 3066 H 289.127 -0.742018 0.0861308 0
M  V30 3067 H 291.789 -1.72372 0.909604 0
M  V30 3068 H 290.885 -3.10958 0.266705 0
M  V30 3069 N 291.186 -0.45159 -1.50991 0
M  V30 3070 C 292.416 0.108177 -2.06317 0
M  V30 3071 C 292.824 1.35774 -1.31765 0
M  V30 3072 O 292.167 1.79838 -0.374694 0
M  V30 3073 C 292.229 0.481659 -3.56259 0
M  V30 3074 C 291.893 -0.663114 -4.52163 0
M  V30 3075 C 292.89 -1.53947 -4.96585 0
M  V30 3076 C 290.575 -0.8479 -4.95092 0
M  V30 3077 C 292.569 -2.58518 -5.82621 0
M  V30 3078 C 290.256 -1.89686 -5.80915 0
M  V30 3079 C 291.254 -2.76388 -6.24579 0
M  V30 3080 O 290.942 -3.79482 -7.08695 0
M  V30 3081 H 290.674 0.00499183 -0.675982 0
M  V30 3082 H 293.228 -0.633659 -1.95381 0
M  V30 3083 H 291.458 1.27641 -3.65027 0
M  V30 3084 H 293.147 0.974233 -3.94035 0
M  V30 3085 H 293.913 -1.4083 -4.64103 0
M  V30 3086 H 289.792 -0.18258 -4.60638 0
M  V30 3087 H 293.336 -3.26224 -6.16623 0
M  V30 3088 H 289.233 -2.02817 -6.12809 0
M  V30 3089 H 290.001 -3.76234 -7.26905 0
M  V30 3090 N 292.664 1.56529 -0.183458 0
M  V30 3091 C 293.594 2.21549 0.737456 0
M  V30 3092 C 294.575 1.17489 1.23005 0
M  V30 3093 O 295.76 1.45959 1.281 0
M  V30 3094 C 292.89 2.86575 1.96194 0
M  V30 3095 C 291.844 3.96778 1.60473 0
M  V30 3096 C 291.17 4.48911 2.90487 0
M  V30 3097 C 292.47 5.15767 0.823497 0
M  V30 3098 H 294.164 2.98761 0.195453 0
M  V30 3099 H 291.71 1.43702 0.0925686 0
M  V30 3100 H 293.663 3.30739 2.61131 0
M  V30 3101 H 292.387 2.06749 2.52828 0
M  V30 3102 H 291.046 3.53286 0.978997 0
M  V30 3103 H 290.694 3.65862 3.45186 0
M  V30 3104 H 290.394 5.23265 2.67335 0
M  V30 3105 H 291.918 4.95771 3.56432 0
M  V30 3106 H 293.332 5.56549 1.37571 0
M  V30 3107 H 291.729 5.96114 0.690551 0
M  V30 3108 H 292.799 4.84574 -0.177782 0
M  V30 3109 N 294.142 -0.090211 1.57342 0
M  V30 3110 C 295.089 -1.10909 2.02405 0
M  V30 3111 C 296.059 -1.39523 0.901252 0
M  V30 3112 O 297.244 -1.50903 1.1676 0
M  V30 3113 C 294.384 -2.42277 2.45755 0
M  V30 3114 C 293.497 -2.20352 3.71576 0
M  V30 3115 C 292.632 -3.45154 4.03785 0
M  V30 3116 C 291.671 -3.18512 5.22701 0
M  V30 3117 N 290.808 -4.35593 5.50639 0
M  V30 3118 H 295.648 -0.71782 2.89225 0
M  V30 3119 H 293.185 -0.342901 1.43048 0
M  V30 3120 H 295.143 -3.18951 2.68935 0
M  V30 3121 H 293.773 -2.79242 1.61938 0
M  V30 3122 H 292.825 -1.34458 3.55844 0
M  V30 3123 H 294.137 -1.96661 4.58395 0
M  V30 3124 H 293.291 -4.30233 4.27767 0
M  V30 3125 H 292.03 -3.71904 3.15498 0
M  V30 3126 H 291.035 -2.31827 4.98534 0
M  V30 3127 H 292.26 -2.93103 6.12591 0
M  V30 3128 H 290.206 -4.6241 4.6531 0
M  V30 3129 H 290.123 -4.1511 6.31838 0
M  V30 3130 H 291.391 -5.21723 5.7916 0
M  V30 3131 N 295.62 -1.53406 -0.361157 0
M  V30 3132 C 296.845 -1.74024 -1.12829 0
M  V30 3133 C 297.27 -0.470069 -1.82132 0
M  V30 3134 O 296.628 0.57619 -1.719 0
M  V30 3135 C 296.676 -2.90903 -2.13091 0
M  V30 3136 O 295.78 -2.59821 -3.20261 0
M  V30 3137 H 295.121 -0.577804 -0.327168 0
M  V30 3138 H 297.651 -2.00307 -0.41693 0
M  V30 3139 H 297.661 -3.17194 -2.56616 0
M  V30 3140 H 296.336 -3.83034 -1.62042 0
M  V30 3141 H 294.913 -2.44362 -2.81677 0
M  V30 3142 N 297.098 0.621204 -1.44841 0
M  V30 3143 C 298.028 1.74366 -1.55303 0
M  V30 3144 C 299.009 1.65199 -0.405385 0
M  V30 3145 O 300.194 1.83807 -0.626787 0
M  V30 3146 C 297.324 3.12931 -1.50637 0
M  V30 3147 C 296.278 3.36896 -2.63979 0
M  V30 3148 C 295.604 4.75594 -2.44366 0
M  V30 3149 C 296.904 3.28483 -4.06074 0
M  V30 3150 H 298.598 1.65867 -2.49256 0
M  V30 3151 H 296.144 0.796558 -1.19962 0
M  V30 3152 H 298.097 3.9124 -1.56555 0
M  V30 3153 H 296.821 3.22237 -0.532057 0
M  V30 3154 H 295.48 2.60972 -2.57467 0
M  V30 3155 H 295.128 4.81616 -1.45105 0
M  V30 3156 H 294.828 4.92586 -3.20364 0
M  V30 3157 H 296.352 5.5612 -2.52117 0
M  V30 3158 H 297.766 3.96684 -4.13902 0
M  V30 3159 H 296.163 3.57008 -4.82354 0
M  V30 3160 H 297.233 2.26133 -4.28943 0
M  V30 3161 N 298.576 1.31904 0.862503 0
M  V30 3162 C 299.987 1.19803 1.43193 0
M  V30 3163 C 300.338 -0.192567 1.95253 0
M  V30 3164 O 299.463 -1.09081 1.86896 0
M  V30 3165 C 300.058 2.16883 2.60283 0
M  V30 3166 C 298.617 2.08692 3.13248 0
M  V30 3167 C 297.764 2.05691 1.85975 0
M  V30 3168 H 300.715 1.43846 0.670365 0
M  V30 3169 H 300.736 1.76278 3.37204 0
M  V30 3170 H 300.248 3.18083 2.22363 0
M  V30 3171 H 298.349 1.10713 3.55771 0
M  V30 3172 H 298.462 2.9815 3.75025 0
M  V30 3173 H 296.826 1.50814 2.05249 0
M  V30 3174 H 297.609 3.08659 1.50282 0
M  V30 3175 N 300.054 -1.07777 1.14986 0
M  V30 3176 C 301.017 -2.13041 0.845358 0
M  V30 3177 C 302.017 -1.60071 -0.152931 0
M  V30 3178 O 303.207 -1.74033 0.0761879 0
M  V30 3179 C 300.339 -3.39896 0.261383 0
M  V30 3180 H 301.532 -2.41485 1.77834 0
M  V30 3181 H 299.085 -1.23595 0.956757 0
M  V30 3182 H 299.82 -3.17091 -0.68 0
M  V30 3183 H 299.605 -3.79642 0.980514 0
M  V30 3184 H 301.095 -4.17548 0.0657687 0
M  V30 3185 N 301.532 -0.945985 -1.26051 0
M  V30 3186 C 302.76 -0.613025 -1.9761 0
M  V30 3187 C 303.175 0.813035 -1.70397 0
M  V30 3188 O 302.532 1.54274 -0.974979 0
M  V30 3189 C 302.583 -0.85159 -3.51326 0
M  V30 3190 O 302.304 -2.22157 -3.77595 0
M  V30 3191 C 303.805 -0.529831 -4.40122 0
M  V30 3192 H 301.025 -0.230593 -0.630133 0
M  V30 3193 H 303.569 -1.268 -1.60443 0
M  V30 3194 H 301.724 -0.243151 -3.86636 0
M  V30 3195 H 302.138 -2.2852 -4.721 0
M  V30 3196 H 303.612 -0.747348 -5.46917 0
M  V30 3197 H 304.089 0.535341 -4.35925 0
M  V30 3198 H 304.695 -1.11721 -4.10364 0
M  V30 3199 N 303.011 1.40521 -0.713556 0
M  V30 3200 C 304.236 2.05759 -0.26035 0
M  V30 3201 C 304.661 1.53403 1.08854 0
M  V30 3202 O 304.019 0.668535 1.68524 0
M  V30 3203 C 304.067 3.59745 -0.248122 0
M  V30 3204 O 303.171 4.05123 0.77131 0
M  V30 3205 H 302.512 0.652564 -0.122703 0
M  V30 3206 H 305.042 1.79958 -0.973467 0
M  V30 3207 H 305.052 4.07911 -0.0851129 0
M  V30 3208 H 303.727 3.97218 -1.2325 0
M  V30 3209 H 302.304 3.68422 0.57619 0
M  V30 3210 N 304.489 0.459591 1.5075 0
M  V30 3211 C 305.736 -0.0993495 2.02256 0
M  V30 3212 C 306.064 -1.40751 1.34237 0
M  V30 3213 O 305.319 -1.90379 0.453228 0
M  V30 3214 C 305.618 -0.342866 3.55752 0
M  V30 3215 C 305.284 0.88218 4.42186 0
M  V30 3216 C 303.946 1.21808 4.65528 0
M  V30 3217 C 306.298 1.69837 4.92752 0
M  V30 3218 C 303.626 2.37045 5.36681 0
M  V30 3219 C 305.978 2.84192 5.65171 0
M  V30 3220 C 304.642 3.1821 5.8677 0
M  V30 3221 H 303.912 -0.0363545 0.740108 0
M  V30 3222 H 306.559 0.611329 1.8148 0
M  V30 3223 H 304.864 -1.13567 3.7498 0
M  V30 3224 H 306.561 -0.789121 3.93159 0
M  V30 3225 H 303.151 0.610467 4.2423 0
M  V30 3226 H 307.335 1.45205 4.74583 0
M  V30 3227 H 302.591 2.63689 5.51614 0
M  V30 3228 H 306.765 3.4779 6.03337 0
M  V30 3229 H 304.392 4.07613 6.41682 0
M  V30 3230 N 305.967 -1.56429 0.191757 0
M  V30 3231 C 307.378 -1.83912 -0.321428 0
M  V30 3232 C 307.729 -1.11231 -1.61623 0
M  V30 3233 O 306.854 -0.37202 -2.13178 0
M  V30 3234 C 307.449 -3.33624 -0.589961 0
M  V30 3235 C 306.008 -3.6153 -1.04753 0
M  V30 3236 C 305.155 -2.7714 -0.0943327 0
M  V30 3237 H 308.106 -1.53161 0.415612 0
M  V30 3238 H 308.127 -3.52213 -1.43966 0
M  V30 3239 H 307.639 -3.86495 0.352588 0
M  V30 3240 H 305.74 -3.14089 -2.00447 0
M  V30 3241 H 305.853 -4.69737 -0.942549 0
M  V30 3242 H 304.217 -2.47638 -0.595589 0
M  V30 3243 H 305 -3.32799 0.842601 0
M  V30 3244 N 307.445 0.0818655 -1.57387 0
M  V30 3245 C 308.393 1.11712 -2.04018 0
M  V30 3246 C 309.387 1.40683 -0.94364 0
M  V30 3247 O 310.593 1.40209 -1.12878 0
M  V30 3248 H 306.968 0.377542 -0.650358 0
M  V30 3249 H 308.939 0.697614 -2.90131 0
M  V30 3250 C 307.688 2.42537 -2.49141 0
M  V30 3251 H 307.011 2.21092 -3.33104 0
M  V30 3252 H 308.451 3.13446 -2.85531 0
M  V30 3253 C 306.91 3.0778 -1.37014 0
M  V30 3254 O 307.44 3.95436 -0.706621 0
M  V30 3255 N 305.646 2.68242 -1.11779 0
M  V30 3256 H 305.193 1.97052 -1.65917 0
M  V30 3257 H 305.151 3.1222 -0.369594 0
M  V30 3258 N 308.923 1.53595 0.353017 0
M  V30 3259 C 309.853 1.83902 1.43883 0
M  V30 3260 C 310.834 0.693421 1.55324 0
M  V30 3261 O 312.019 0.944452 1.69687 0
M  V30 3262 C 309.149 2.04016 2.8106 0
M  V30 3263 C 308.103 3.19814 2.84434 0
M  V30 3264 C 307.429 3.25244 4.24406 0
M  V30 3265 C 308.729 4.58133 2.50822 0
M  V30 3266 H 310.423 2.74835 1.1877 0
M  V30 3267 H 307.969 1.32242 0.569917 0
M  V30 3268 H 309.922 2.238 3.57059 0
M  V30 3269 H 308.646 1.09804 3.07588 0
M  V30 3270 H 307.305 2.9987 2.10887 0
M  V30 3271 H 306.953 2.28646 4.48029 0
M  V30 3272 H 306.653 4.03054 4.27576 0
M  V30 3273 H 308.177 3.47228 5.0226 0
M  V30 3274 H 309.591 4.77995 3.16534 0
M  V30 3275 H 307.988 5.38276 2.6529 0
M  V30 3276 H 309.058 4.62387 1.46034 0
M  V30 3277 N 310.401 -0.613514 1.45168 0
M  V30 3278 C 311.647 -1.37471 1.49096 0
M  V30 3279 C 311.98 -1.93765 0.129901 0
M  V30 3280 O 311.255 -1.74707 -0.854858 0
M  V30 3281 C 311.538 -2.52701 2.56542 0
M  V30 3282 C 311.391 -2.01643 4.0207 0
M  V30 3283 C 312.71 -3.54849 2.60327 0
M  V30 3284 H 309.829 -0.498502 0.54283 0
M  V30 3285 H 312.471 -0.692125 1.76945 0
M  V30 3286 H 310.621 -3.10931 2.32926 0
M  V30 3287 H 312.293 -1.48108 4.36877 0
M  V30 3288 H 310.536 -1.32688 4.13009 0
M  V30 3289 H 311.207 -2.84681 4.72928 0
M  V30 3290 H 313.683 -3.0645 2.81474 0
M  V30 3291 H 312.559 -4.32973 3.37381 0
M  V30 3292 H 312.82 -4.10079 1.6519 0
M  V30 3293 N 311.879 -1.3236 -0.855495 0
M  V30 3294 C 312.829 -1.17809 -1.95205 0
M  V30 3295 C 313.813 -0.0852319 -1.60674 0
M  V30 3296 O 315.005 -0.311651 -1.74235 0
M  V30 3297 C 312.134 -0.902437 -3.31226 0
M  V30 3298 C 311.22 -2.03695 -3.7198 0
M  V30 3299 N 311.611 -3.28544 -3.84568 0
M  V30 3300 C 309.909 -1.93993 -4.016 0
M  V30 3301 C 310.61 -4.02847 -4.19629 0
M  V30 3302 N 309.586 -3.31138 -4.31102 0
M  V30 3303 H 313.388 -2.12462 -2.0307 0
M  V30 3304 H 310.902 -1.24127 -1.0472 0
M  V30 3305 H 312.899 -0.77915 -4.09554 0
M  V30 3306 H 311.559 0.0357267 -3.2468 0
M  V30 3307 H 312.57 -3.6349 -3.68911 0
M  V30 3308 H 309.247 -1.07733 -4.03361 0
M  V30 3309 H 310.637 -5.10506 -4.36845 0
M  V30 3310 N 313.357 1.07166 -1.15556 0
M  V30 3311 C 314.287 2.16403 -0.877046 0
M  V30 3312 C 315.268 1.69217 0.173111 0
M  V30 3313 O 316.453 1.94181 0.027084 0
M  V30 3314 C 313.583 3.45349 -0.367632 0
M  V30 3315 C 312.537 4.05995 -1.35468 0
M  V30 3316 C 311.863 5.30045 -0.704038 0
M  V30 3317 C 313.163 4.45804 -2.72132 0
M  V30 3318 H 314.857 2.39959 -1.79053 0
M  V30 3319 H 312.403 1.15325 -0.862331 0
M  V30 3320 H 314.356 4.21095 -0.160317 0
M  V30 3321 H 313.08 3.21385 0.581326 0
M  V30 3322 H 311.739 3.32296 -1.54839 0
M  V30 3323 H 311.387 5.02373 0.251128 0
M  V30 3324 H 311.087 5.71579 -1.36277 0
M  V30 3325 H 312.611 6.08495 -0.50654 0
M  V30 3326 H 314.025 5.12671 -2.56595 0
M  V30 3327 H 312.422 4.98296 -3.34397 0
M  V30 3328 H 313.492 3.57083 -3.28054 0
M  V30 3329 N 314.835 0.952656 1.25548 0
M  V30 3330 C 315.798 0.475794 2.24207 0
M  V30 3331 C 316.798 -0.419428 1.55234 0
M  V30 3332 O 317.988 -0.216994 1.72843 0
M  V30 3333 C 315.12 -0.312814 3.39462 0
M  V30 3334 H 316.313 1.34779 2.67908 0
M  V30 3335 H 313.866 0.735739 1.37901 0
M  V30 3336 H 314.601 -1.20257 3.01179 0
M  V30 3337 H 314.386 0.329404 3.90714 0
M  V30 3338 H 315.876 -0.635986 4.12729 0
M  V30 3339 N 316.313 -1.40141 0.720998 0
M  V30 3340 C 317.561 -2.0039 0.262323 0
M  V30 3341 C 317.882 -1.57469 -1.15015 0
M  V30 3342 O 317.152 -0.816582 -1.78069 0
M  V30 3343 H 315.732 -0.741063 0.093996 0
M  V30 3344 H 318.394 -1.71398 0.927835 0
M  V30 3345 H 317.49 -3.10658 0.299671 0
M  V30 3346 N 317.792 -0.46758 -1.50504 0
M  V30 3347 C 319.203 -0.0116166 -1.86696 0
M  V30 3348 C 319.554 1.39202 -1.38265 0
M  V30 3349 O 318.679 2.0313 -0.746132 0
M  V30 3350 C 319.274 -0.0143044 -3.38797 0
M  V30 3351 C 317.833 0.386175 -3.74414 0
M  V30 3352 C 316.98 -0.401287 -2.74381 0
M  V30 3353 H 319.931 -0.682022 -1.43297 0
M  V30 3354 H 319.952 0.788641 -3.72237 0
M  V30 3355 H 319.464 -1.03602 -3.74016 0
M  V30 3356 H 317.565 1.41237 -3.44794 0
M  V30 3357 H 317.678 0.0899596 -4.79016 0
M  V30 3358 H 316.042 0.144536 -2.5429 0
M  V30 3359 H 316.825 -1.42244 -3.12444 0
M  V30 3360 N 319.27 1.56325 -0.20005 0
M  V30 3361 C 320.519 1.96895 0.437652 0
M  V30 3362 C 320.832 1.08999 1.62415 0
M  V30 3363 O 322.038 1.39372 2.32997 0
M  V30 3364 C 320.494 3.50198 0.830025 0
M  V30 3365 C 320.102 4.46765 -0.332461 0
M  V30 3366 C 321.846 3.99526 1.43453 0
M  V30 3367 C 319.753 5.91344 0.0811468 0
M  V30 3368 H 318.683 0.735209 0.167282 0
M  V30 3369 H 321.334 1.81148 -0.292853 0
M  V30 3370 H 319.716 3.61467 1.61734 0
M  V30 3371 H 320.89 4.47231 -1.11 0
M  V30 3372 H 319.205 4.07657 -0.848789 0
M  V30 3373 H 321.802 5.05025 1.75652 0
M  V30 3374 H 322.145 3.44122 2.34277 0
M  V30 3375 H 322.678 3.91393 0.71109 0
M  V30 3376 H 319.417 6.50685 -0.793033 0
M  V30 3377 H 318.937 5.94121 0.823445 0
M  V30 3378 H 320.616 6.44945 0.515252 0
M  V30 3379 N 320.748 -0.0735177 1.57428 0
M  V30 3380 C 321.976 -0.785969 1.9139 0
M  V30 3381 C 322.391 -1.71207 0.795847 0
M  V30 3382 O 321.748 -1.81033 -0.230915 0
M  V30 3383 C 321.799 -1.58107 3.25091 0
M  V30 3384 O 321.52 -0.6922 4.32597 0
M  V30 3385 C 323.021 -2.39467 3.73055 0
M  V30 3386 H 320.241 -0.223558 0.632663 0
M  V30 3387 H 322.785 -0.044302 2.04452 0
M  V30 3388 H 320.94 -2.27503 3.13562 0
M  V30 3389 H 321.354 -1.24504 5.09508 0
M  V30 3390 H 322.828 -2.90716 4.69242 0
M  V30 3391 H 323.305 -3.18913 3.01979 0
M  V30 3392 H 323.911 -1.7523 3.87523 0
M  V30 3393 N 322.226 -1.5378 -0.344866 0
M  V30 3394 C 323.451 -1.75211 -1.10977 0
M  V30 3395 C 323.876 -0.48936 -1.81623 0
M  V30 3396 O 323.234 0.557925 -1.72502 0
M  V30 3397 C 323.282 -2.93147 -2.09993 0
M  V30 3398 O 322.386 -2.63203 -3.17487 0
M  V30 3399 H 321.727 -0.581241 -0.321021 0
M  V30 3400 H 324.257 -2.00738 -0.395661 0
M  V30 3401 H 324.267 -3.19898 -2.53237 0
M  V30 3402 H 322.942 -3.84731 -1.5797 0
M  V30 3403 H 321.519 -2.47336 -2.79069 0
M  V30 3404 N 323.704 0.605807 -1.45491 0
M  V30 3405 C 324.634 1.72709 -1.57143 0
M  V30 3406 C 325.615 1.6476 -0.422884 0
M  V30 3407 O 326.8 1.83132 -0.646247 0
M  V30 3408 C 323.93 3.11316 -1.53948 0
M  V30 3409 C 322.884 3.34077 -2.67537 0
M  V30 3410 C 322.21 4.72975 -2.49397 0
M  V30 3411 C 323.51 3.24158 -4.09535 0
M  V30 3412 H 325.204 1.63214 -2.51001 0
M  V30 3413 H 322.75 0.78379 -1.208 0
M  V30 3414 H 324.703 3.89557 -1.60696 0
M  V30 3415 H 323.427 3.21655 -0.566205 0
M  V30 3416 H 322.086 2.58227 -2.6022 0
M  V30 3417 H 321.734 4.8005 -1.50205 0
M  V30 3418 H 321.434 4.8916 -3.25571 0
M  V30 3419 H 322.958 5.53414 -2.58002 0
M  V30 3420 H 324.372 3.92271 -4.18086 0
M  V30 3421 H 322.769 3.51872 -4.86113 0
M  V30 3422 H 323.839 2.2157 -4.31317 0
M  V30 3423 N 325.182 1.32811 0.848464 0
M  V30 3424 C 326.459 1.14334 1.58704 0
M  V30 3425 C 326.839 -0.293948 2.09043 0
M  V30 3426 O 326.187 -1.29153 1.88499 0
M  V30 3427 C 326.397 2.17626 2.72837 0
M  V30 3428 C 327.745 2.51282 3.42261 0
M  V30 3429 O 328.769 2.16219 2.83068 0
M  V30 3430 O 327.628 3.11413 4.49093 0
M  V30 3431 H 324.722 0.441601 0.699226 0
M  V30 3432 H 327.268 1.44362 0.892053 0
M  V30 3433 H 326.04 3.14211 2.3321 0
M  V30 3434 H 325.663 1.88628 3.50008 0
M  V30 3435 N 326.66 -1.06551 1.16123 0
M  V30 3436 C 327.885 -1.83544 0.965735 0
M  V30 3437 C 328.31 -1.81843 -0.481102 0
M  V30 3438 O 327.668 -1.21732 -1.34354 0
M  V30 3439 C 327.716 -3.28169 1.49457 0
M  V30 3440 O 326.82 -4.0643 0.699157 0
M  V30 3441 H 326.161 -0.568026 0.343864 0
M  V30 3442 H 328.691 -1.34362 1.54299 0
M  V30 3443 H 328.701 -3.78992 1.51092 0
M  V30 3444 H 327.376 -3.28722 2.54784 0
M  V30 3445 H 325.953 -3.65216 0.7531 0
M  V30 3446 N 328.138 -0.959301 -1.25041 0
M  V30 3447 C 329.415 -0.533805 -1.88175 0
M  V30 3448 C 329.795 0.988994 -1.865 0
M  V30 3449 O 329.143 1.85677 -1.33177 0
M  V30 3450 C 329.353 -1.11575 -3.30684 0
M  V30 3451 C 330.701 -1.19548 -4.07423 0
M  V30 3452 O 331.725 -1.06765 -3.39823 0
M  V30 3453 O 330.584 -1.39656 -5.28354 0
M  V30 3454 H 327.678 -0.176772 -0.807887 0
M  V30 3455 H 330.224 -1.05303 -1.33076 0
M  V30 3456 H 328.996 -2.15884 -3.26358 0
M  V30 3457 H 328.619 -0.580059 -3.93346 0
M  V30 3458 N 329.616 1.39756 -0.72842 0
M  V30 3459 C 331.032 1.5442 -0.403308 0
M  V30 3460 C 331.232 1.69694 1.08656 0
M  V30 3461 O 330.288 1.69373 1.87267 0
M  V30 3462 C 331.601 2.76555 -1.18058 0
M  V30 3463 C 333.149 2.90384 -1.16815 0
M  V30 3464 C 333.624 4.15449 -1.92785 0
M  V30 3465 N 335.115 4.22475 -1.89918 0
M  V30 3466 C 335.85 5.1818 -2.45514 0
M  V30 3467 N 335.346 6.19714 -3.09719 0
M  V30 3468 N 337.139 5.1035 -2.35584 0
M  V30 3469 H 329.29 1.28089 -1.69431 0
M  V30 3470 H 331.553 0.620327 -0.716867 0
M  V30 3471 H 331.259 2.7159 -2.23455 0
M  V30 3472 H 331.133 3.69033 -0.780662 0
M  V30 3473 H 333.52 2.94846 -0.12234 0
M  V30 3474 H 333.601 1.98988 -1.6074 0
M  V30 3475 H 333.245 4.11749 -2.97364 0
M  V30 3476 H 333.175 5.05877 -1.46272 0
M  V30 3477 H 335.666 3.49743 -1.43138 0
M  V30 3478 H 335.979 6.8919 -3.49625 0
M  V30 3479 H 334.324 6.20121 -3.13807 0
M  V30 3480 H 337.515 4.2996 -1.85072 0
M  V30 3481 H 337.688 5.84761 -2.79211 0
M  V30 3482 N 331.094 0.475555 1.50254 0
M  V30 3483 C 332.51 0.12997 1.5907 0
M  V30 3484 C 332.71 -1.36385 1.48328 0
M  V30 3485 O 331.766 -2.13754 1.34407 0
M  V30 3486 C 333.079 0.684139 2.92814 0
M  V30 3487 C 334.627 0.647965 3.0622 0
M  V30 3488 C 335.102 1.17975 4.42545 0
M  V30 3489 N 336.593 1.13936 4.48969 0
M  V30 3490 C 337.328 1.52129 5.52851 0
M  V30 3491 N 336.824 1.97793 6.63965 0
M  V30 3492 N 338.617 1.43704 5.4342 0
M  V30 3493 H 330.768 1.44706 1.55479 0
M  V30 3494 H 333.031 0.598691 0.735033 0
M  V30 3495 H 332.737 1.73079 3.06164 0
M  V30 3496 H 332.611 0.130204 3.76975 0
M  V30 3497 H 334.998 -0.38979 2.92514 0
M  V30 3498 H 335.079 1.23876 2.23805 0
M  V30 3499 H 334.723 2.21616 4.57 0
M  V30 3500 H 334.653 0.565138 5.23559 0
M  V30 3501 H 337.144 0.804488 3.69238 0
M  V30 3502 H 337.457 2.25072 7.39299 0
M  V30 3503 H 335.802 2.01749 6.65073 0
M  V30 3504 H 338.993 1.07867 4.55502 0
M  V30 3505 H 339.166 1.73794 6.24259 0
M  V30 3506 N 332.573 -1.56217 0.208337 0
M  V30 3507 C 333.82 -1.97949 -0.42692 0
M  V30 3508 C 334.148 -1.09562 -1.60706 0
M  V30 3509 O 333.403 -0.137616 -1.95216 0
M  V30 3510 C 333.702 -3.45441 -0.916797 0
M  V30 3511 C 333.368 -4.50646 0.151391 0
M  V30 3512 C 332.03 -4.79139 0.444867 0
M  V30 3513 C 334.382 -5.13811 0.874492 0
M  V30 3514 C 331.71 -5.68084 1.46619 0
M  V30 3515 C 334.062 -6.03861 1.88506 0
M  V30 3516 C 332.726 -6.30704 2.18559 0
M  V30 3517 H 331.996 -0.724345 -0.156221 0
M  V30 3518 H 334.643 -1.89006 0.308084 0
M  V30 3519 H 332.948 -3.51521 -1.73032 0
M  V30 3520 H 334.645 -3.75094 -1.41794 0
M  V30 3521 H 331.235 -4.28511 -0.0875068 0
M  V30 3522 H 335.419 -4.91879 0.660996 0
M  V30 3523 H 330.675 -5.87151 1.7048 0
M  V30 3524 H 334.849 -6.51861 2.45051 0
M  V30 3525 H 332.476 -6.99424 2.97843 0
M  V30 3526 N 334.051 0.0651679 -1.57465 0
M  V30 3527 C 334.961 1.09448 -2.07505 0
M  V30 3528 C 335.977 1.41974 -1.00595 0
M  V30 3529 O 337.153 1.52018 -1.32107 0
M  V30 3530 C 334.218 2.38689 -2.51453 0
M  V30 3531 C 333.279 2.13073 -3.72691 0
M  V30 3532 C 332.512 3.36152 -4.14533 0
M  V30 3533 O 332.735 4.45517 -3.56189 0
M  V30 3534 O 331.669 3.23974 -5.07272 0
M  V30 3535 H 335.495 0.69935 -2.95538 0
M  V30 3536 H 333.08 0.279752 -1.46757 0
M  V30 3537 H 334.962 3.14736 -2.80212 0
M  V30 3538 H 333.637 2.77568 -1.66546 0
M  V30 3539 H 332.544 1.34709 -3.49005 0
M  V30 3540 H 333.877 1.79071 -4.5847 0
M  V30 3541 N 335.529 1.53961 0.336706 0
M  V30 3542 C 336.459 1.85417 1.41925 0
M  V30 3543 C 337.44 0.709856 1.5458 0
M  V30 3544 O 338.625 0.962396 1.68676 0
M  V30 3545 C 335.755 2.06985 2.78881 0
M  V30 3546 C 334.709 3.22813 2.81026 0
M  V30 3547 C 334.035 3.29727 4.20932 0
M  V30 3548 C 335.335 4.60767 2.45949 0
M  V30 3549 H 337.029 2.76079 1.15848 0
M  V30 3550 H 334.575 1.32839 0.555859 0
M  V30 3551 H 336.528 2.27575 3.54665 0
M  V30 3552 H 335.252 1.13061 3.06406 0
M  V30 3553 H 333.911 3.0209 2.07695 0
M  V30 3554 H 333.559 2.33385 4.45579 0
M  V30 3555 H 333.259 4.07566 4.23277 0
M  V30 3556 H 334.783 3.52536 4.98549 0
M  V30 3557 H 336.197 4.81325 3.11446 0
M  V30 3558 H 334.594 5.4106 2.59566 0
M  V30 3559 H 335.664 4.6391 1.41122 0
M  V30 3560 N 337.007 -0.598083 1.45811 0
M  V30 3561 C 338.255 -1.35413 1.50026 0
M  V30 3562 C 338.576 -1.94444 0.147177 0
M  V30 3563 O 337.846 -1.77701 -0.824571 0
M  V30 3564 H 336.426 -0.502727 0.552517 0
M  V30 3565 H 339.088 -0.701606 1.81834 0
M  V30 3566 H 338.184 -2.16871 2.2444 0
M  V30 3567 N 338.485 -1.33259 -0.841409 0
M  V30 3568 C 339.415 -1.25926 -1.96634 0
M  V30 3569 C 340.396 -0.140349 -1.6952 0
M  V30 3570 O 341.581 -0.329707 -1.91381 0
M  V30 3571 C 338.711 -0.99512 -3.32738 0
M  V30 3572 C 337.665 -2.0767 -3.74242 0
M  V30 3573 C 336.991 -1.66474 -5.08125 0
M  V30 3574 C 338.291 -3.49318 -3.88297 0
M  V30 3575 H 339.985 -2.20046 -2.03027 0
M  V30 3576 H 337.531 -1.05931 -0.975425 0
M  V30 3577 H 339.484 -0.930323 -4.11002 0
M  V30 3578 H 338.208 -0.0183004 -3.26595 0
M  V30 3579 H 336.867 -2.13187 -2.98239 0
M  V30 3580 H 336.515 -0.675012 -4.9845 0
M  V30 3581 H 336.215 -2.3885 -5.36865 0
M  V30 3582 H 337.739 -1.61455 -5.88867 0
M  V30 3583 H 339.153 -3.46316 -4.56879 0
M  V30 3584 H 337.55 -4.20158 -4.28471 0
M  V30 3585 H 338.62 -3.8801 -2.9082 0
M  V30 3586 N 339.963 1.05934 -1.16686 0
M  V30 3587 C 340.873 2.17014 -0.891183 0
M  V30 3588 C 341.889 1.73453 0.137907 0
M  V30 3589 O 343.065 2.01361 -0.039592 0
M  V30 3590 C 340.13 3.44384 -0.400099 0
M  V30 3591 C 339.191 4.02433 -1.49486 0
M  V30 3592 C 338.424 5.23723 -1.02711 0
M  V30 3593 O 338.647 5.7027 0.121716 0
M  V30 3594 O 337.581 5.7382 -1.81699 0
M  V30 3595 H 341.407 2.43113 -1.82015 0
M  V30 3596 H 338.992 1.15541 -0.947132 0
M  V30 3597 H 340.874 4.21189 -0.133392 0
M  V30 3598 H 339.549 3.19802 0.500817 0
M  V30 3599 H 338.456 3.27102 -1.81535 0
M  V30 3600 H 339.789 4.31317 -2.37121 0
M  V30 3601 N 341.441 0.965919 1.2453 0
M  V30 3602 C 342.69 0.622437 1.91856 0
M  V30 3603 C 343.003 -0.846006 1.76358 0
M  V30 3604 O 344.209 -1.29993 2.38357 0
M  V30 3605 C 342.665 1.0626 3.43856 0
M  V30 3606 C 342.273 2.55437 3.68043 0
M  V30 3607 C 344.017 0.792183 4.17043 0
M  V30 3608 C 341.924 2.93196 5.13605 0
M  V30 3609 H 340.854 0.229092 0.718354 0
M  V30 3610 H 343.505 1.17189 1.41206 0
M  V30 3611 H 341.887 0.441476 3.93531 0
M  V30 3612 H 343.061 3.22665 3.28974 0
M  V30 3613 H 341.376 2.8007 3.08139 0
M  V30 3614 H 343.973 1.05031 5.24283 0
M  V30 3615 H 344.316 -0.271584 4.15413 0
M  V30 3616 H 344.849 1.37419 3.73311 0
M  V30 3617 H 341.588 3.98636 5.20355 0
M  V30 3618 H 341.108 2.30651 5.53679 0
M  V30 3619 H 342.787 2.83004 5.81823 0
M  V30 3620 N 342.919 -1.39368 0.735821 0
M  V30 3621 C 344.168 -1.99733 0.281004 0
M  V30 3622 C 344.481 -1.59055 -1.13846 0
M  V30 3623 O 345.687 -2.12262 -1.69284 0
M  V30 3624 C 344.143 -3.57057 0.451462 0
M  V30 3625 C 343.751 -4.06697 1.87886 0
M  V30 3626 C 345.495 -4.2446 0.0584616 0
M  V30 3627 C 343.402 -5.56598 1.99883 0
M  V30 3628 H 342.332 -0.747163 0.101311 0
M  V30 3629 H 344.983 -1.59357 0.909819 0
M  V30 3630 H 343.365 -3.95234 -0.246263 0
M  V30 3631 H 344.539 -3.79853 2.60861 0
M  V30 3632 H 342.854 -3.5196 2.22515 0
M  V30 3633 H 345.451 -5.34549 0.127099 0
M  V30 3634 H 345.794 -4.04444 -0.986433 0
M  V30 3635 H 346.327 -3.9146 0.707374 0
M  V30 3636 H 343.066 -5.81494 3.02564 0
M  V30 3637 H 342.586 -5.85242 1.31346 0
M  V30 3638 H 344.265 -6.22022 1.78039 0
M  V30 3639 N 344.397 -0.483516 -1.5 0
M  V30 3640 C 345.646 0.0689102 -2.01582 0
M  V30 3641 C 345.959 1.39655 -1.36952 0
M  V30 3642 O 347.165 2.03465 -1.79762 0
M  V30 3643 C 345.621 0.173302 -3.59483 0
M  V30 3644 C 345.229 -1.14665 -4.33077 0
M  V30 3645 C 346.973 0.677024 -4.19066 0
M  V30 3646 C 344.88 -1.00537 -5.82792 0
M  V30 3647 H 343.81 0.0295277 -0.753422 0
M  V30 3648 H 346.461 -0.620295 -1.72698 0
M  V30 3649 H 344.843 0.926569 -3.85007 0
M  V30 3650 H 346.017 -1.91184 -4.19268 0
M  V30 3651 H 344.332 -1.58244 -3.85159 0
M  V30 3652 H 346.929 0.799952 -5.28682 0
M  V30 3653 H 347.272 1.67151 -3.81269 0
M  V30 3654 H 347.805 -0.0192083 -3.97795 0
M  V30 3655 H 344.544 -1.9736 -6.25083 0
M  V30 3656 H 344.064 -0.280776 -5.99142 0
M  V30 3657 H 345.743 -0.677 -6.43448 0
M  V30 3658 N 345.875 1.56104 -0.216619 0
M  V30 3659 C 346.838 2.18819 0.681962 0
M  V30 3660 C 347.838 1.14866 1.12528 0
M  V30 3661 O 349.028 1.40128 1.03488 0
M  V30 3662 C 346.16 2.80756 1.93362 0
M  V30 3663 H 347.353 2.99595 0.135254 0
M  V30 3664 H 344.906 1.56265 0.0330003 0
M  V30 3665 H 345.641 2.03837 2.52232 0
M  V30 3666 H 345.426 3.56876 1.62426 0
M  V30 3667 H 346.916 3.28844 2.57393 0
M  V30 3668 N 347.353 -0.0568162 1.57498 0
M  V30 3669 C 348.601 -0.751617 1.87604 0
M  V30 3670 C 348.922 -1.77351 0.81066 0
M  V30 3671 O 348.192 -1.95254 -0.159018 0
M  V30 3672 H 346.772 -0.280583 0.692302 0
M  V30 3673 H 349.434 -0.0293483 1.94878 0
M  V30 3674 H 348.53 -1.25852 2.856 0
M  V30 3675 N 348.832 -1.54138 -0.328536 0
M  V30 3676 C 349.762 -1.86167 -1.40939 0
M  V30 3677 C 350.743 -0.718044 -1.54202 0
M  V30 3678 O 351.928 -0.971328 -1.68163 0
M  V30 3679 C 349.058 -2.08461 -2.77779 0
M  V30 3680 C 348.012 -3.24299 -2.7931 0
M  V30 3681 C 347.338 -3.31955 -4.19178 0
M  V30 3682 C 348.638 -4.62065 -2.43502 0
M  V30 3683 H 350.332 -2.76689 -1.14383 0
M  V30 3684 H 347.878 -1.33132 -0.548806 0
M  V30 3685 H 349.831 -2.29453 -3.53454 0
M  V30 3686 H 348.555 -1.14684 -3.05802 0
M  V30 3687 H 347.214 -3.03187 -2.0609 0
M  V30 3688 H 346.862 -2.35745 -4.44335 0
M  V30 3689 H 346.562 -4.09805 -4.2111 0
M  V30 3690 H 348.086 -3.55175 -4.96672 0
M  V30 3691 H 349.5 -4.8297 -3.08889 0
M  V30 3692 H 347.897 -5.42429 -2.56693 0
M  V30 3693 H 348.967 -4.64652 -1.38659 0
M  V30 3694 N 350.31 0.590341 -1.46126 0
M  V30 3695 C 351.24 1.71032 -1.58966 0
M  V30 3696 C 352.221 1.64302 -0.440335 0
M  V30 3697 O 353.406 1.82436 -0.665634 0
M  V30 3698 C 350.536 3.09665 -1.57241 0
M  V30 3699 C 349.49 3.31221 -2.71066 0
M  V30 3700 C 348.816 4.70303 -2.54399 0
M  V30 3701 C 350.116 3.19796 -4.1295 0
M  V30 3702 H 351.81 1.60543 -2.52718 0
M  V30 3703 H 349.356 0.770933 -1.21625 0
M  V30 3704 H 351.309 3.87831 -1.64819 0
M  V30 3705 H 350.033 3.21036 -0.600289 0
M  V30 3706 H 348.692 2.55452 -2.62944 0
M  V30 3707 H 348.34 4.78429 -1.55288 0
M  V30 3708 H 348.04 4.85679 -3.30741 0
M  V30 3709 H 349.564 5.50647 -2.63857 0
M  V30 3710 H 350.978 3.87815 -4.22223 0
M  V30 3711 H 349.375 3.46696 -4.89818 0
M  V30 3712 H 350.445 2.16983 -4.33643 0
M  V30 3713 N 351.788 1.33704 0.83433 0
M  V30 3714 C 352.751 1.24244 1.92603 0
M  V30 3715 C 353.751 0.160383 1.59998 0
M  V30 3716 O 354.941 0.412228 1.69252 0
M  V30 3717 C 352.073 0.91555 3.28376 0
M  V30 3718 H 353.266 2.21287 2.02416 0
M  V30 3719 H 350.819 1.17827 1.02696 0
M  V30 3720 H 351.554 -0.0521886 3.24258 0
M  V30 3721 H 351.339 1.69811 3.53422 0
M  V30 3722 H 352.829 0.874231 4.08347 0
M  V30 3723 N 353.266 -1.05314 1.17247 0
M  V30 3724 C 354.514 -1.77941 0.958194 0
M  V30 3725 C 354.835 -1.88089 -0.514556 0
M  V30 3726 O 354.105 -1.39676 -1.37359 0
M  V30 3727 H 352.685 -0.659116 0.351533 0
M  V30 3728 H 355.347 -1.27166 1.47699 0
M  V30 3729 H 354.443 -2.79663 1.38546 0
M  V30 3730 N 354.744 -0.972509 -1.24016 0
M  V30 3731 C 355.707 -0.511403 -2.23422 0
M  V30 3732 C 356.707 0.394679 -1.55881 0
M  V30 3733 O 357.897 0.189469 -1.73167 0
M  V30 3734 C 355.029 0.258769 -3.39916 0
M  V30 3735 H 356.222 -1.39024 -2.6573 0
M  V30 3736 H 353.775 -0.757585 -1.36713 0
M  V30 3737 H 354.51 1.1545 -3.03054 0
M  V30 3738 H 354.295 -0.391522 -3.9014 0
M  V30 3739 H 355.785 0.570244 -4.13688 0
M  V30 3740 N 356.222 1.38976 -0.743202 0
M  V30 3741 C 357.47 1.99948 -0.29417 0
M  V30 3742 C 357.791 1.59279 1.12495 0
M  V30 3743 O 357.061 0.844808 1.76748 0
M  V30 3744 H 355.641 0.739473 -0.105774 0
M  V30 3745 H 358.303 1.699 -0.954986 0
M  V30 3746 H 357.399 3.10142 -0.349056 0
M  V30 3747 N 357.7 0.491464 1.49741 0
M  V30 3748 C 358.61 -0.296835 2.32715 0
M  V30 3749 C 359.626 -0.976536 1.44013 0
M  V30 3750 O 360.802 -0.960023 1.77047 0
M  V30 3751 C 357.867 -1.35288 3.19215 0
M  V30 3752 C 356.928 -0.687632 4.23757 0
M  V30 3753 C 356.161 -1.69336 5.06123 0
M  V30 3754 O 356.384 -2.92219 4.89861 0
M  V30 3755 O 355.318 -1.25394 5.88693 0
M  V30 3756 H 359.144 0.382048 3.01287 0
M  V30 3757 H 356.729 0.252953 1.47243 0
M  V30 3758 H 358.611 -1.96411 3.72828 0
M  V30 3759 H 357.286 -2.01487 2.53347 0
M  V30 3760 H 356.193 -0.0369159 3.74082 0
M  V30 3761 H 357.526 -0.0682566 4.92153 0
M  V30 3762 N 359.178 -1.55987 0.224894 0
M  V30 3763 C 360.141 -2.19178 -0.670348 0
M  V30 3764 C 361.141 -1.15461 -1.11917 0
M  V30 3765 O 362.331 -1.40675 -1.02743 0
M  V30 3766 C 359.463 -2.81777 -1.9187 0
M  V30 3767 H 360.656 -2.99662 -0.119364 0
M  V30 3768 H 358.209 -1.5628 -0.0247128 0
M  V30 3769 H 358.944 -2.05172 -2.51147 0
M  V30 3770 H 358.729 -3.57732 -1.60531 0
M  V30 3771 H 360.219 -3.30205 -2.55645 0
M  V30 3772 N 360.656 0.0484629 -1.57525 0
M  V30 3773 C 361.619 1.03956 -2.04269 0
M  V30 3774 C 362.619 1.30211 -0.943496 0
M  V30 3775 O 363.809 1.25539 -1.20771 0
M  V30 3776 C 360.941 2.37742 -2.44319 0
M  V30 3777 H 362.134 0.636182 -2.93075 0
M  V30 3778 H 359.687 0.294811 -1.53494 0
M  V30 3779 H 360.422 2.82866 -1.5861 0
M  V30 3780 H 360.207 2.20021 -3.24551 0
M  V30 3781 H 361.697 3.08936 -2.80978 0
M  V30 3782 N 362.134 1.5431 0.320358 0
M  V30 3783 C 363.411 1.63322 1.07635 0
M  V30 3784 C 363.791 0.46912 2.05821 0
M  V30 3785 O 363.139 -0.536274 2.22118 0
M  V30 3786 C 363.349 3.00465 1.77544 0
M  V30 3787 C 364.697 3.56621 2.30449 0
M  V30 3788 O 365.721 3.02791 1.87606 0
M  V30 3789 O 364.58 4.5083 3.08892 0
M  V30 3790 H 361.674 0.661502 0.496331 0
M  V30 3791 H 364.22 1.66656 0.319992 0
M  V30 3792 H 362.992 3.76629 1.06143 0
M  V30 3793 H 362.615 3.00824 2.59982 0
M  V30 3794 N 363.613 -0.582584 1.46437 0
M  V30 3795 C 364.89 -1.34276 1.4223 0
M  V30 3796 C 365.27 -2.10835 0.10583 0
M  V30 3797 O 364.618 -2.09485 -0.912596 0
M  V30 3798 C 364.828 -2.26865 2.65204 0
M  V30 3799 C 366.176 -2.88691 3.11356 0
M  V30 3800 O 367.2 -2.37178 2.65753 0
M  V30 3801 O 366.059 -3.82255 3.90568 0
M  V30 3802 H 363.153 -0.603326 0.565621 0
M  V30 3803 H 365.699 -0.603591 1.58603 0
M  V30 3804 H 364.471 -1.69724 3.52576 0
M  V30 3805 H 364.094 -3.08122 2.5129 0
M  V30 3806 N 365.091 -1.34144 -0.827227 0
M  V30 3807 C 366.023 -1.21206 -1.9453 0
M  V30 3808 C 367.036 -0.140176 -1.62195 0
M  V30 3809 O 368.225 -0.391647 -1.7415 0
M  V30 3810 C 365.325 -0.839141 -3.28347 0
M  V30 3811 C 364.498 -2.0051 -3.88734 0
M  V30 3812 C 363.557 -1.61128 -5.00923 0
M  V30 3813 O 362.583 -2.32726 -5.19449 0
M  V30 3814 N 363.785 -0.522958 -5.7814 0
M  V30 3815 H 366.55 -2.17525 -2.06162 0
M  V30 3816 H 364.111 -1.27043 -1.00358 0
M  V30 3817 H 366.103 -0.557556 -4.00841 0
M  V30 3818 H 364.673 0.0337293 -3.12582 0
M  V30 3819 H 363.893 -2.45166 -3.08686 0
M  V30 3820 H 365.181 -2.78498 -4.25812 0
M  V30 3821 H 364.579 0.0723518 -5.65654 0
M  V30 3822 H 363.136 -0.301089 -6.51104 0
M  V30 3823 N 366.569 1.04691 -1.17803 0
M  V30 3824 C 367.815 1.78045 -0.970969 0
M  V30 3825 C 368.148 1.87686 0.498751 0
M  V30 3826 O 367.423 1.38035 1.37027 0
M  V30 3827 C 367.706 3.2166 -1.61884 0
M  V30 3828 C 367.559 3.20001 -3.161 0
M  V30 3829 C 368.878 4.1962 -1.3269 0
M  V30 3830 H 365.997 0.64633 -0.354155 0
M  V30 3831 H 368.639 1.22333 -1.45378 0
M  V30 3832 H 366.789 3.69232 -1.20831 0
M  V30 3833 H 368.461 2.80467 -3.66246 0
M  V30 3834 H 366.704 2.58203 -3.48588 0
M  V30 3835 H 367.375 4.21386 -3.56564 0
M  V30 3836 H 369.851 3.80567 -1.68249 0
M  V30 3837 H 368.727 5.18339 -1.80599 0
M  V30 3838 H 368.988 4.414 -0.248622 0
M  V30 3839 N 368.047 0.979072 1.23499 0
M  V30 3840 C 369.463 0.687475 1.44034 0
M  V30 3841 C 369.663 -0.746801 1.8715 0
M  V30 3842 O 368.719 -1.51939 2.0167 0
M  V30 3843 C 370.032 1.68127 2.49307 0
M  V30 3844 C 371.58 1.69516 2.63122 0
M  V30 3845 C 372.055 2.67723 3.71603 0
M  V30 3846 N 373.546 2.66233 3.79044 0
M  V30 3847 C 374.281 3.38891 4.62537 0
M  V30 3848 N 373.777 4.21103 5.50131 0
M  V30 3849 N 375.57 3.27661 4.56721 0
M  V30 3850 H 367.721 1.90559 0.938135 0
M  V30 3851 H 369.984 0.821051 0.473897 0
M  V30 3852 H 369.69 2.70693 2.2454 0
M  V30 3853 H 369.564 1.46306 3.4767 0
M  V30 3854 H 371.951 0.676561 2.8724 0
M  V30 3855 H 372.032 1.95404 1.65079 0
M  V30 3856 H 371.676 3.69724 3.48233 0
M  V30 3857 H 371.606 2.39111 4.69184 0
M  V30 3858 H 374.097 2.06568 3.16446 0
M  V30 3859 H 374.41 4.73403 6.10827 0
M  V30 3860 H 372.755 4.25195 5.49759 0
M  V30 3861 H 375.946 2.62887 3.87309 0
M  V30 3862 H 376.119 3.84547 5.21562 0
M  V30 3863 N 369.525 -1.3858 0.750561 0
M  V30 3864 C 370.753 -2.04471 0.316098 0
M  V30 3865 C 371.168 -1.56606 -1.05452 0
M  V30 3866 O 370.525 -0.737784 -1.66922 0
M  V30 3867 C 370.576 -3.60025 0.326275 0
M  V30 3868 O 370.297 -4.06133 1.6428 0
M  V30 3869 C 371.798 -4.43131 -0.122429 0
M  V30 3870 H 369.018 -0.65717 0.135528 0
M  V30 3871 H 371.562 -1.77329 1.01857 0
M  V30 3872 H 369.717 -3.86014 -0.327431 0
M  V30 3873 H 370.131 -5.00547 1.56693 0
M  V30 3874 H 371.605 -5.51963 -0.0641473 0
M  V30 3875 H 372.082 -4.23333 -1.16988 0
M  V30 3876 H 372.688 -4.22323 0.50229 0
M  V30 3877 N 371.003 -0.499398 -1.49478 0
M  V30 3878 C 371.966 0.268838 -2.27618 0
M  V30 3879 C 372.966 0.895383 -1.33565 0
M  V30 3880 O 374.156 0.760164 -1.56739 0
M  V30 3881 C 371.288 1.38559 -3.11471 0
M  V30 3882 H 372.481 -0.416812 -2.96989 0
M  V30 3883 H 370.034 -0.254313 -1.54217 0
M  V30 3884 H 370.769 2.10544 -2.46661 0
M  V30 3885 H 370.554 0.941797 -3.80621 0
M  V30 3886 H 372.044 1.92678 -3.70493 0
M  V30 3887 N 372.481 1.55866 -0.233164 0
M  V30 3888 C 373.729 1.9821 0.394593 0
M  V30 3889 C 374.05 1.12234 1.59463 0
M  V30 3890 O 373.32 0.201981 1.94856 0
M  V30 3891 H 371.9 0.732034 0.148778 0
M  V30 3892 H 374.562 1.92107 -0.32876 0
M  V30 3893 H 373.658 3.03845 0.713063 0
M  V30 3894 N 373.959 -0.0401083 1.57549 0
M  V30 3895 C 375.184 -0.748931 1.93406 0
M  V30 3896 C 375.609 -1.68686 0.832274 0
M  V30 3897 O 374.967 -1.80047 -0.212818 0
M  V30 3898 C 375.015 -1.4916 3.28304 0
M  V30 3899 O 374.119 -2.6042 3.19774 0
M  V30 3900 H 373.46 -0.202212 0.63246 0
M  V30 3901 H 375.99 0.00112086 2.046 0
M  V30 3902 H 376 -1.86395 3.62934 0
M  V30 3903 H 374.675 -0.80364 4.08062 0
M  V30 3904 H 373.252 -2.25808 2.96758 0
M  V30 3905 N 375.437 -1.54477 -0.31217 0
M  V30 3906 C 376.848 -1.64344 -0.885891 0
M  V30 3907 C 377.199 -0.54485 -1.88483 0
M  V30 3908 O 376.324 0.320387 -2.14015 0
M  V30 3909 C 376.919 -2.97908 -1.61357 0
M  V30 3910 C 375.478 -3.09933 -2.13585 0
M  V30 3911 C 374.625 -2.59971 -0.964897 0
M  V30 3912 H 377.576 -1.58448 -0.0894528 0
M  V30 3913 H 377.597 -2.88706 -2.47848 0
M  V30 3914 H 377.109 -3.77845 -0.886277 0
M  V30 3915 H 375.21 -2.34694 -2.89395 0
M  V30 3916 H 375.323 -4.15916 -2.37804 0
M  V30 3917 H 373.687 -2.16147 -1.34731 0
M  V30 3918 H 374.47 -3.42376 -0.251742 0
M  V30 3919 N 376.915 0.57481 -1.46744 0
M  V30 3920 C 378.326 1.15695 -1.46532 0
M  V30 3921 C 378.677 1.95068 -0.210425 0
M  V30 3922 O 377.802 2.05241 0.685944 0
M  V30 3923 C 378.397 2.1048 -2.65487 0
M  V30 3924 C 376.956 2.64002 -2.68291 0
M  V30 3925 C 376.103 1.40026 -2.39349 0
M  V30 3926 H 379.054 0.362325 -1.54509 0
M  V30 3927 H 379.075 2.94074 -2.41455 0
M  V30 3928 H 378.587 1.52683 -3.56805 0
M  V30 3929 H 376.688 3.25646 -1.81067 0
M  V30 3930 H 376.801 3.06197 -3.68483 0
M  V30 3931 H 375.165 1.70106 -1.89568 0
M  V30 3932 H 375.948 0.840485 -3.32852 0
M  V30 3933 N 378.394 1.34581 0.820102 0
M  V30 3934 C 379.357 1.2628 1.91275 0
M  V30 3935 C 380.357 0.177344 1.59819 0
M  V30 3936 O 381.547 0.430156 1.68806 0
M  V30 3937 C 378.679 0.950327 3.27386 0
M  V30 3938 H 379.872 2.23421 2.00057 0
M  V30 3939 H 377.425 1.1891 1.0144 0
M  V30 3940 H 378.16 -0.0177938 3.24295 0
M  V30 3941 H 377.945 1.73549 3.51601 0
M  V30 3942 H 379.435 0.917492 4.07396 0
M  V30 3943 N 379.872 -1.04064 1.18357 0
M  V30 3944 C 380.782 -2.15569 0.925596 0
M  V30 3945 C 381.798 -1.7365 -0.110295 0
M  V30 3946 O 382.974 -2.01273 0.0716218 0
M  V30 3947 C 380.039 -3.43704 0.454836 0
M  V30 3948 C 379.1 -4.00004 1.55869 0
M  V30 3949 C 378.333 -5.22023 1.1103 0
M  V30 3950 O 378.556 -5.70392 -0.0309756 0
M  V30 3951 O 377.49 -5.70856 1.90805 0
M  V30 3952 H 381.316 -2.40187 1.8586 0
M  V30 3953 H 378.901 -1.1402 0.965394 0
M  V30 3954 H 380.783 -4.20923 0.200382 0
M  V30 3955 H 379.458 -3.20559 -0.449876 0
M  V30 3956 H 378.365 -3.24172 1.86716 0
M  V30 3957 H 379.698 -4.2749 2.43953 0
M  V30 3958 N 381.35 -0.985608 -1.22978 0
M  V30 3959 C 382.575 -0.675254 -1.961 0
M  V30 3960 C 383 0.752154 -1.72407 0
M  V30 3961 O 382.358 1.5131 -0.998751 0
M  V30 3962 C 382.406 -0.977899 -3.47087 0
M  V30 3963 O 381.51 -0.072685 -4.12336 0
M  V30 3964 H 380.851 -0.253443 -0.613728 0
M  V30 3965 H 383.381 -1.32061 -1.56272 0
M  V30 3966 H 383.391 -0.916739 -3.97567 0
M  V30 3967 H 382.066 -2.01807 -3.63657 0
M  V30 3968 H 380.643 -0.188703 -3.72422 0
M  V30 3969 O 382.867 1.34428 -0.895061 0
M  V30 3970 H 383.558 1.87018 -0.504368 0
M  V30 END ATOM
M  V30 BEGIN BOND
M  V30 END BOND
M  V30 END CTAB
M  END
$$$$
