drugbank_target|Q53IN1 Beta-lactamase (DB12107)
 OpenBabel12092121133D

  0  0  0     0  0            999 V3000
M  V30 BEGIN CTAB
M  V30 COUNTS 5763 5834 0 0 0
M  V30 BEGIN ATOM
M  V30 1 H -0.908 1.98254 -0.117106 0
M  V30 2 N 0 1.576 0 0
M  V30 3 C 0.933 2.03868 1.02534 0
M  V30 4 C 1.911 0.928543 1.3348 0
M  V30 5 O 3.095 1.19667 1.45644 0
M  V30 6 C 0.222 2.43627 2.35294 0
M  V30 7 C -0.732 3.65373 2.2001 0
M  V30 8 S 0.101 5.13292 1.52614 0
M  V30 9 C 1.257 5.56322 2.86805 0
M  V30 10 H 1.49 2.90518 0.631377 0
M  V30 11 H -0.977 1.52953 0.210867 0
M  V30 12 H 0.981 2.67203 3.11629 0
M  V30 13 H -0.358 1.57376 2.7183 0
M  V30 14 H -1.165 3.90944 3.18086 0
M  V30 15 H -1.563 3.418 1.51819 0
M  V30 16 H 0.729 5.58782 3.83104 0
M  V30 17 H 1.672 6.56266 2.65933 0
M  V30 18 H 2.08 4.83886 2.90714 0
M  V30 19 N 1.4781 -0.272755 1.55222 0
M  V30 20 C 2.4101 -1.35946 1.8453 0
M  V30 21 C 3.4231 -1.45525 0.729818 0
M  V30 22 O 4.6121 -1.47337 1.00767 0
M  V30 23 C 1.7121 -2.74069 1.99347 0
M  V30 24 C 0.8851 -2.87079 3.30007 0
M  V30 25 C -0.0559 -4.05879 3.34886 0
M  V30 26 O -1.0299 -3.96626 4.08261 0
M  V30 27 N 0.1721 -5.17857 2.62307 0
M  V30 28 H 2.9371 -1.11149 2.78327 0
M  V30 29 H 0.4981 -0.462869 1.55142 0
M  V30 30 H 2.4901 -3.51838 1.99981 0
M  V30 31 H 1.0601 -2.91688 1.12415 0
M  V30 32 H 0.2801 -1.96193 3.41909 0
M  V30 33 H 1.5681 -2.92701 4.16177 0
M  V30 34 H 0.9661 -5.28261 2.02377 0
M  V30 35 H -0.4769 -5.93855 2.68663 0
M  V30 36 N 2.9562 -1.48159 -0.537278 0
M  V30 37 C 3.8882 -1.58218 -1.65831 0
M  V30 38 C 4.9012 -0.466948 -1.5596 0
M  V30 39 O 6.0902 -0.73747 -1.62553 0
M  V30 40 C 3.1902 -1.48906 -3.04434 0
M  V30 41 C 2.3632 -2.75343 -3.3986 0
M  V30 42 C 1.4222 -2.59588 -4.57712 0
M  V30 43 O 0.4482 -3.33457 -4.61297 0
M  V30 44 N 1.6502 -1.68724 -5.55439 0
M  V30 45 H 4.4152 -2.54891 -1.57641 0
M  V30 46 H 1.9762 -1.4479 -0.724386 0
M  V30 47 H 3.9682 -1.36072 -3.81139 0
M  V30 48 H 2.5382 -0.602368 -3.06741 0
M  V30 49 H 1.7582 -3.02795 -2.52406 0
M  V30 50 H 3.0462 -3.5924 -3.60311 0
M  V30 51 H 2.4442 -1.07898 -5.55315 0
M  V30 52 H 1.0012 -1.61832 -6.3139 0
M  V30 53 N 4.4343 0.785586 -1.36625 0
M  V30 54 C 5.8503 1.08419 -1.17122 0
M  V30 55 C 6.0503 2.015 0.00208491 0
M  V30 56 O 5.1063 2.43551 0.666278 0
M  V30 57 C 6.4193 1.69498 -2.48377 0
M  V30 58 C 7.9673 1.81821 -2.54775 0
M  V30 59 C 8.4423 2.46315 -3.86126 0
M  V30 60 N 9.9333 2.53779 -3.87492 0
M  V30 61 C 10.6683 3.045 -4.85868 0
M  V30 62 N 10.1643 3.55499 -5.94637 0
M  V30 63 N 11.9573 3.03247 -4.73284 0
M  V30 64 H 4.1083 0.167264 -2.1174 0
M  V30 65 H 6.3713 0.13682 -0.938075 0
M  V30 66 H 6.0773 1.08571 -3.34522 0
M  V30 67 H 5.9513 2.6896 -2.64462 0
M  V30 68 H 8.3383 2.41884 -1.69045 0
M  V30 69 H 8.4193 0.811532 -2.42586 0
M  V30 70 H 8.0633 1.86895 -4.72263 0
M  V30 71 H 7.9933 3.47561 -3.95612 0
M  V30 72 H 10.4843 2.17672 -3.08913 0
M  V30 73 H 10.7973 3.92562 -6.65669 0
M  V30 74 H 9.1423 3.5364 -5.98301 0
M  V30 75 H 12.3333 2.62696 -3.87438 0
M  V30 76 H 12.5063 3.42467 -5.50109 0
M  V30 77 N 5.9124 1.20967 1.01018 0
M  V30 78 C 7.3284 0.965905 1.27053 0
M  V30 79 C 7.5284 -0.350785 1.98423 0
M  V30 80 O 6.5844 -1.07773 2.28344 0
M  V30 81 C 7.8974 2.15294 2.09926 0
M  V30 82 C 9.4454 2.19463 2.23171 0
M  V30 83 C 9.9204 3.3767 3.09424 0
M  V30 84 N 11.4114 3.37724 3.17012 0
M  V30 85 C 12.1464 4.25837 3.83993 0
M  V30 86 N 11.6424 5.24138 4.53047 0
M  V30 87 N 13.4354 4.1366 3.80581 0
M  V30 88 H 5.5864 2.0565 0.531194 0
M  V30 89 H 7.8494 0.90024 0.297106 0
M  V30 90 H 7.5554 3.10684 1.64828 0
M  V30 91 H 7.4294 2.13923 3.10672 0
M  V30 92 H 9.8164 1.24632 2.6749 0
M  V30 93 H 9.8974 2.2488 1.21912 0
M  V30 94 H 9.5414 4.32791 2.65808 0
M  V30 95 H 9.4714 3.29491 4.10784 0
M  V30 96 H 11.9624 2.6658 2.6785 0
M  V30 97 H 12.2754 5.87684 5.01844 0
M  V30 98 H 10.6204 5.28068 4.5185 0
M  V30 99 H 13.8114 3.36127 3.25785 0
M  V30 100 H 13.9844 4.82538 4.32505 0
M  V30 101 N 7.3905 -1.2043 1.01659 0
M  V30 102 C 8.3535 -2.21433 0.591616 0
M  V30 103 C 9.3535 -1.57203 -0.338226 0
M  V30 104 O 10.5435 -1.73737 -0.126918 0
M  V30 105 C 7.6755 -3.40628 -0.136058 0
M  V30 106 H 8.8685 -2.60545 1.48514 0
M  V30 107 H 6.4215 -1.33893 0.806379 0
M  V30 108 H 7.1565 -3.07019 -1.04449 0
M  V30 109 H 6.9415 -3.88475 0.531917 0
M  V30 110 H 8.4315 -4.15475 -0.420735 0
M  V30 111 N 8.8686 -0.792821 -1.36206 0
M  V30 112 C 10.1156 -0.366786 -1.99151 0
M  V30 113 C 10.4436 1.06243 -1.62919 0
M  V30 114 O 9.6986 1.74927 -0.877442 0
M  V30 115 C 9.9976 -0.481501 -3.54142 0
M  V30 116 C 9.6636 -1.87202 -4.10203 0
M  V30 117 C 8.3256 -2.25248 -4.25226 0
M  V30 118 C 10.6776 -2.78237 -4.40719 0
M  V30 119 C 8.0056 -3.53723 -4.68078 0
M  V30 120 C 10.3576 -4.06144 -4.85005 0
M  V30 121 C 9.0216 -4.44207 -4.98234 0
M  V30 122 H 8.2916 -0.134217 -0.728743 0
M  V30 123 H 10.9386 -1.01094 -1.62641 0
M  V30 124 H 9.2436 0.246146 -3.91026 0
M  V30 125 H 10.9406 -0.132844 -4.0078 0
M  V30 126 H 7.5306 -1.56639 -3.98951 0
M  V30 127 H 11.7146 -2.50097 -4.28679 0
M  V30 128 H 6.9706 -3.8308 -4.76508 0
M  V30 129 H 11.1446 -4.76796 -5.07581 0
M  V30 130 H 8.7716 -5.43814 -5.31197 0
M  V30 131 N 10.3467 1.47872 -0.545128 0
M  V30 132 C 11.3097 2.28337 0.198717 0
M  V30 133 C 12.3097 1.36255 0.853888 0
M  V30 134 O 13.4997 1.59003 0.711606 0
M  V30 135 C 10.6317 3.15585 1.28915 0
M  V30 136 H 11.8247 2.95567 -0.507941 0
M  V30 137 H 9.3777 1.53362 -0.301616 0
M  V30 138 H 10.1127 2.53019 2.02859 0
M  V30 139 H 9.8977 3.83337 0.824309 0
M  V30 140 H 11.3877 3.76243 1.81194 0
M  V30 141 N 11.8248 0.280983 1.55075 0
M  V30 142 C 12.7548 -0.597469 2.25727 0
M  V30 143 C 13.7358 -1.15417 1.24952 0
M  V30 144 O 14.9208 -1.18722 1.53684 0
M  V30 145 C 12.0508 -1.7789 2.98283 0
M  V30 146 C 11.0048 -1.35347 4.06036 0
M  V30 147 C 10.3308 -2.61846 4.66198 0
M  V30 148 C 11.6308 -0.499354 5.19907 0
M  V30 149 H 13.3248 -0.00824265 2.99399 0
M  V30 150 H 10.8708 -0.0025244 1.44 0
M  V30 151 H 12.8238 -2.39937 3.46422 0
M  V30 152 H 11.5478 -2.39405 2.22155 0
M  V30 153 H 10.2068 -0.756156 3.58717 0
M  V30 154 H 9.8548 -3.21632 3.86732 0
M  V30 155 H 9.5548 -2.3409 5.38958 0
M  V30 156 H 11.0788 -3.24732 5.1709 0
M  V30 157 H 12.4928 -1.02498 5.64063 0
M  V30 158 H 10.8898 -0.316424 5.99265 0
M  V30 159 H 11.9598 0.480459 4.82514 0
M  V30 160 N 13.3029 -1.57598 0.00835791 0
M  V30 161 C 14.2329 -2.1198 -0.979113 0
M  V30 162 C 15.2139 -1.03091 -1.35301 0
M  V30 163 O 16.3989 -1.30818 -1.43528 0
M  V30 164 C 13.5289 -2.62995 -2.26828 0
M  V30 165 C 12.4829 -3.76485 -2.03576 0
M  V30 166 C 11.8089 -4.13846 -3.38579 0
M  V30 167 C 13.1089 -5.0342 -1.39161 0
M  V30 168 H 14.8029 -2.94738 -0.526281 0
M  V30 169 H 12.3489 -1.41783 -0.251704 0
M  V30 170 H 14.3019 -2.99669 -2.96271 0
M  V30 171 H 13.0259 -1.7737 -2.7424 0
M  V30 172 H 11.6849 -3.40217 -1.36557 0
M  V30 173 H 11.3329 -3.25232 -3.83709 0
M  V30 174 H 11.0329 -4.90312 -3.23834 0
M  V30 175 H 12.5569 -4.53086 -4.09323 0
M  V30 176 H 13.9709 -5.37812 -1.98573 0
M  V30 177 H 12.3679 -5.84746 -1.34878 0
M  V30 178 H 13.4379 -4.83548 -0.361868 0
M  V30 179 N 14.781 0.264519 -1.55364 0
M  V30 180 C 16.009 1.013 -1.80405 0
M  V30 181 C 16.424 1.79618 -0.581622 0
M  V30 182 O 15.781 1.76879 0.449468 0
M  V30 183 C 15.832 1.96487 -3.03439 0
M  V30 184 O 15.553 1.21341 -4.20961 0
M  V30 185 C 17.054 2.83079 -3.41147 0
M  V30 186 H 14.274 0.298875 -0.600762 0
M  V30 187 H 16.818 0.292736 -2.02394 0
M  V30 188 H 14.973 2.63965 -2.83551 0
M  V30 189 H 15.387 1.85573 -4.90574 0
M  V30 190 H 16.861 3.4565 -4.30384 0
M  V30 191 H 17.338 3.53286 -2.60932 0
M  V30 192 H 17.944 2.2108 -3.63323 0
M  V30 193 N 16.2591 1.48442 0.529413 0
M  V30 194 C 17.1891 1.65902 1.64313 0
M  V30 195 C 18.1701 0.507897 1.6234 0
M  V30 196 O 19.3551 0.740503 1.79528 0
M  V30 197 C 16.4851 1.69911 3.02898 0
M  V30 198 C 15.4391 2.8453 3.19729 0
M  V30 199 C 14.7651 2.73629 4.59381 0
M  V30 200 C 16.0651 4.25821 3.02447 0
M  V30 201 H 17.7591 2.5914 1.49955 0
M  V30 202 H 15.3051 1.24709 0.719982 0
M  V30 203 H 17.2581 1.80715 3.80684 0
M  V30 204 H 15.9821 0.732524 3.18279 0
M  V30 205 H 14.6411 2.73283 2.44361 0
M  V30 206 H 14.2891 1.74938 4.71599 0
M  V30 207 H 13.9891 3.50541 4.71588 0
M  V30 208 H 15.5131 2.86401 5.39265 0
M  V30 209 H 16.9271 4.37898 3.70024 0
M  V30 210 H 15.3241 5.03735 3.26146 0
M  V30 211 H 16.3941 4.42244 1.98867 0
M  V30 212 N 17.7372 -0.778329 1.37039 0
M  V30 213 C 18.9852 -1.53361 1.31623 0
M  V30 214 C 19.3062 -1.94739 -0.100831 0
M  V30 215 O 18.5762 -1.65797 -1.04347 0
M  V30 216 H 17.1562 -0.568794 0.484234 0
M  V30 217 H 19.8182 -0.926742 1.71457 0
M  V30 218 H 18.9142 -2.43606 1.95096 0
M  V30 219 N 19.2153 -1.21501 -1.00376 0
M  V30 220 C 20.4403 -1.05977 -1.78279 0
M  V30 221 C 20.8653 0.385994 -1.84097 0
M  V30 222 O 20.2233 1.27849 -1.28547 0
M  V30 223 C 20.2713 -1.66302 -3.19963 0
M  V30 224 O 19.3753 -0.909333 -4.0225 0
M  V30 225 H 18.7163 -0.372906 -0.549397 0
M  V30 226 H 21.2463 -1.6107 -1.26165 0
M  V30 227 H 21.2563 -1.70574 -3.70632 0
M  V30 228 H 19.9313 -2.71515 -3.15043 0
M  V30 229 H 18.5083 -0.941795 -3.60811 0
M  V30 230 N 20.6934 1.19889 -1.02296 0
M  V30 231 C 21.6234 2.25141 -0.619174 0
M  V30 232 C 22.6044 1.66051 0.368915 0
M  V30 233 O 23.7894 1.92546 0.252941 0
M  V30 234 C 20.9194 3.4728 0.0368783 0
M  V30 235 C 19.8734 4.19005 -0.872865 0
M  V30 236 C 19.1994 5.34637 -0.0822402 0
M  V30 237 C 20.4994 4.74452 -2.18387 0
M  V30 238 H 22.1934 2.59171 -1.49903 0
M  V30 239 H 19.7394 1.24579 -0.722222 0
M  V30 240 H 21.6924 4.20098 0.330958 0
M  V30 241 H 20.4164 3.12433 0.95149 0
M  V30 242 H 19.0754 3.48061 -1.15105 0
M  V30 243 H 18.7234 4.96034 0.83422 0
M  V30 244 H 18.4234 5.83557 -0.688149 0
M  V30 245 H 19.9474 6.10255 0.205238 0
M  V30 246 H 21.3614 5.39055 -1.95172 0
M  V30 247 H 19.7584 5.33834 -2.74119 0
M  V30 248 H 20.8284 3.92844 -2.84257 0
M  V30 249 N 22.1715 0.800033 1.35784 0
M  V30 250 C 23.1015 0.220184 2.3246 0
M  V30 251 C 24.0825 -0.65073 1.57161 0
M  V30 252 O 25.2675 -0.582359 1.85263 0
M  V30 253 C 22.3975 -0.637353 3.41402 0
M  V30 254 C 21.3515 0.134531 4.27789 0
M  V30 255 C 20.6775 -0.844285 5.27992 0
M  V30 256 C 21.9775 1.32979 5.05088 0
M  V30 257 H 23.6715 1.02787 2.81203 0
M  V30 258 H 21.2175 0.495717 1.35199 0
M  V30 259 H 23.1705 -1.05302 4.08031 0
M  V30 260 H 21.8945 -1.47785 2.91251 0
M  V30 261 H 20.5535 0.531296 3.6273 0
M  V30 262 H 20.2015 -1.68011 4.74111 0
M  V30 263 H 19.9015 -0.332184 5.8666 0
M  V30 264 H 21.4255 -1.2583 5.97494 0
M  V30 265 H 22.8395 0.98934 5.64699 0
M  V30 266 H 21.2365 1.77593 5.7322 0
M  V30 267 H 22.3065 2.11978 4.36111 0
M  V30 268 N 23.6496 -1.47581 0.552962 0
M  V30 269 C 24.5796 -2.32762 -0.185451 0
M  V30 270 C 25.5606 -1.43527 -0.912905 0
M  V30 271 O 26.7456 -1.72388 -0.894201 0
M  V30 272 C 23.8756 -3.25219 -1.21859 0
M  V30 273 C 22.8296 -4.23661 -0.607864 0
M  V30 274 C 22.1556 -5.05413 -1.74533 0
M  V30 275 C 23.4556 -5.20481 0.435582 0
M  V30 276 H 25.1496 -2.94749 0.525684 0
M  V30 277 H 22.6956 -1.41738 0.254251 0
M  V30 278 H 24.6486 -3.8365 -1.7433 0
M  V30 279 H 23.3726 -2.61279 -1.95961 0
M  V30 280 H 22.0316 -3.66451 -0.104489 0
M  V30 281 H 21.6796 -4.3788 -2.47529 0
M  V30 282 H 21.3796 -5.72059 -1.34249 0
M  V30 283 H 22.9036 -5.66701 -2.27338 0
M  V30 284 H 24.3176 -5.733 -0.00290157 0
M  V30 285 H 22.7146 -5.95305 0.757067 0
M  V30 286 H 23.7846 -4.66217 1.33303 0
M  V30 287 N 25.1277 -0.289203 -1.54924 0
M  V30 288 C 26.0907 0.579144 -2.21762 0
M  V30 289 C 27.0907 1.07047 -1.1999 0
M  V30 290 O 28.2807 0.968384 -1.44803 0
M  V30 291 C 25.4127 1.80055 -2.8947 0
M  V30 292 H 26.6057 -0.00464908 -2.999 0
M  V30 293 H 24.1587 -0.0399306 -1.56249 0
M  V30 294 H 24.8937 2.42449 -2.15381 0
M  V30 295 H 24.6787 1.45602 -3.64064 0
M  V30 296 H 26.1687 2.41773 -3.40493 0
M  V30 297 N 26.6058 1.57591 -0.0167156 0
M  V30 298 C 28.0168 1.79201 0.523834 0
M  V30 299 C 28.3678 0.925796 1.72984 0
M  V30 300 O 27.4928 0.132792 2.15992 0
M  V30 301 C 28.0878 3.25 0.957091 0
M  V30 302 C 26.6468 3.47648 1.44283 0
M  V30 303 C 25.7938 2.74374 0.401757 0
M  V30 304 H 28.7448 1.56831 -0.242816 0
M  V30 305 H 28.7658 3.34031 1.82219 0
M  V30 306 H 28.2778 3.88019 0.0791415 0
M  V30 307 H 26.3788 2.89866 2.34113 0
M  V30 308 H 26.4918 4.56352 1.45877 0
M  V30 309 H 24.8558 2.39485 0.867121 0
M  V30 310 H 25.6388 3.40102 -0.467513 0
M  V30 311 N 28.0839 -0.256276 1.55502 0
M  V30 312 C 29.3239 -0.993081 1.78654 0
M  V30 313 C 29.6879 -1.8288 0.584724 0
M  V30 314 O 30.8889 -2.59665 0.694822 0
M  V30 315 C 29.1599 -1.83856 3.06483 0
M  V30 316 S 30.7189 -2.63573 3.5082 0
M  V30 317 H 27.5369 -0.334199 0.62756 0
M  V30 318 H 30.1389 -0.26184 1.93739 0
M  V30 319 H 28.8429 -1.21414 3.92029 0
M  V30 320 H 28.3739 -2.61271 2.94111 0
M  V30 321 H 30.3889 -3.86312 3.11412 0
M  V30 322 N 29.562 -1.4872 -0.521534 0
M  V30 323 C 30.79 -1.60843 -1.30142 0
M  V30 324 C 31.205 -0.271897 -1.86832 0
M  V30 325 O 30.562 0.739969 -1.66825 0
M  V30 326 C 30.613 -2.66155 -2.4463 0
M  V30 327 O 30.334 -3.94623 -1.90275 0
M  V30 328 C 31.835 -2.88795 -3.36322 0
M  V30 329 H 29.055 -0.542075 -0.395468 0
M  V30 330 H 31.599 -1.94609 -0.628285 0
M  V30 331 H 29.754 -2.35224 -3.07812 0
M  V30 332 H 30.168 -4.52468 -2.65279 0
M  V30 333 H 31.642 -3.66264 -4.12983 0
M  V30 334 H 32.119 -1.97934 -3.9207 0
M  V30 335 H 32.725 -3.21063 -2.78924 0
M  V30 336 N 31.0401 0.771051 -1.3745 0
M  V30 337 C 32.2701 1.55789 -1.35696 0
M  V30 338 C 32.6781 1.89107 0.0594523 0
M  V30 339 O 32.0211 1.51984 1.03183 0
M  V30 340 C 32.0831 2.89515 -2.13123 0
M  V30 341 C 31.7471 2.78829 -3.62082 0
M  V30 342 C 32.7441 2.49812 -4.5595 0
M  V30 343 C 30.4291 2.9683 -4.05213 0
M  V30 344 C 32.4231 2.38923 -5.90927 0
M  V30 345 C 30.1101 2.85562 -5.40276 0
M  V30 346 C 31.1081 2.56649 -6.32946 0
M  V30 347 O 30.7961 2.45408 -7.65526 0
M  V30 348 H 30.5281 0.489257 -0.466481 0
M  V30 349 H 33.0821 0.963446 -1.81403 0
M  V30 350 H 31.3121 3.51081 -1.62107 0
M  V30 351 H 33.0011 3.50915 -2.03994 0
M  V30 352 H 33.7671 2.3559 -4.23937 0
M  V30 353 H 29.6461 3.18335 -3.33442 0
M  V30 354 H 33.1901 2.16277 -6.63227 0
M  V30 355 H 29.0871 2.99351 -5.71891 0
M  V30 356 H 29.8551 2.60753 -7.75855 0
M  V30 357 N 32.5182 1.22032 0.997298 0
M  V30 358 C 33.4812 0.987909 2.06816 0
M  V30 359 C 34.4812 -0.0440084 1.6074 0
M  V30 360 O 35.6712 0.194053 1.73116 0
M  V30 361 C 32.8032 0.49132 3.37341 0
M  V30 362 H 33.9962 1.93803 2.28868 0
M  V30 363 H 31.5492 1.03838 1.16822 0
M  V30 364 H 32.2842 -0.463364 3.20973 0
M  V30 365 H 32.0692 1.23575 3.72118 0
M  V30 366 H 33.5592 0.348824 4.16141 0
M  V30 367 N 33.9963 -1.19345 1.0293 0
M  V30 368 C 35.4123 -1.41069 0.746446 0
M  V30 369 C 35.6123 -1.90078 -0.668776 0
M  V30 370 O 34.6683 -2.0778 -1.4347 0
M  V30 371 C 35.9813 -2.42141 1.78292 0
M  V30 372 C 37.5293 -2.55887 1.80252 0
M  V30 373 C 38.0043 -3.60214 2.8286 0
M  V30 374 N 39.4953 -3.67711 2.81679 0
M  V30 375 C 40.2303 -4.48128 3.57727 0
M  V30 376 N 39.7263 -5.32248 4.43491 0
M  V30 377 N 41.5193 -4.42782 3.46267 0
M  V30 378 H 33.6703 -0.858536 1.94275 0
M  V30 379 H 35.9333 -0.439541 0.839945 0
M  V30 380 H 35.6393 -2.13155 2.79746 0
M  V30 381 H 35.5133 -3.41323 1.60557 0
M  V30 382 H 37.9003 -2.84196 0.794757 0
M  V30 383 H 37.9813 -1.56858 2.02062 0
M  V30 384 H 37.6253 -3.32647 3.83807 0
M  V30 385 H 37.5553 -4.58895 2.58307 0
M  V30 386 H 40.0463 -3.07634 2.19476 0
M  V30 387 H 40.3593 -5.90729 4.98256 0
M  V30 388 H 38.7043 -5.31707 4.47564 0
M  V30 389 H 41.8953 -3.76107 2.78677 0
M  V30 390 H 42.0683 -5.05215 4.05785 0
M  V30 391 N 35.4744 -0.807222 -1.35358 0
M  V30 392 C 36.7224 -0.387122 -1.98358 0
M  V30 393 C 37.0434 1.04942 -1.64354 0
M  V30 394 O 36.3134 1.72615 -0.926339 0
M  V30 395 H 34.8934 -0.140154 -0.733734 0
M  V30 396 H 37.5554 -1.0332 -1.6526 0
M  V30 397 H 36.6514 -0.493352 -3.08176 0
M  V30 398 N 36.9525 1.47285 -0.560781 0
M  V30 399 C 37.8625 2.33846 0.187954 0
M  V30 400 C 38.8785 1.48412 0.908293 0
M  V30 401 O 40.0545 1.81332 0.876388 0
M  V30 402 C 37.1195 3.25178 1.2025 0
M  V30 403 C 36.1805 4.26504 0.489208 0
M  V30 404 C 35.4135 5.13472 1.45542 0
M  V30 405 O 35.6365 5.02959 2.6905 0
M  V30 406 O 34.5705 5.93902 0.977963 0
M  V30 407 H 38.3965 2.99177 -0.522177 0
M  V30 408 H 35.9815 1.45903 -0.321364 0
M  V30 409 H 37.8635 3.81584 1.78805 0
M  V30 410 H 36.5385 2.6247 1.89449 0
M  V30 411 H 35.4455 3.73847 -0.137627 0
M  V30 412 H 36.7785 4.91935 -0.161399 0
M  V30 413 N 38.4306 0.297415 1.54768 0
M  V30 414 C 39.3936 -0.567375 2.22066 0
M  V30 415 C 40.3936 -1.06409 1.20556 0
M  V30 416 O 41.5836 -0.960691 1.45315 0
M  V30 417 C 38.7156 -1.78517 2.90421 0
M  V30 418 H 39.9086 0.0205534 2.99893 0
M  V30 419 H 37.4616 0.0482163 1.56226 0
M  V30 420 H 38.1966 -2.41303 2.16664 0
M  V30 421 H 37.9816 -1.43669 3.64831 0
M  V30 422 H 39.4716 -2.39964 3.41771 0
M  V30 423 N 39.9087 -1.5758 0.0250728 0
M  V30 424 C 41.3197 -1.79476 -0.514323 0
M  V30 425 C 41.6707 -0.934956 -1.72491 0
M  V30 426 O 40.7957 -0.144245 -2.15919 0
M  V30 427 C 41.3907 -3.25503 -0.939842 0
M  V30 428 C 39.9497 -3.48408 -1.42438 0
M  V30 429 C 39.0967 -2.74583 -0.387201 0
M  V30 430 H 42.0477 -1.567 0.25113 0
M  V30 431 H 42.0687 -3.34992 -1.80445 0
M  V30 432 H 41.5807 -3.88056 -0.0585628 0
M  V30 433 H 39.6817 -2.91103 -2.32572 0
M  V30 434 H 39.7947 -4.57119 -1.43455 0
M  V30 435 H 38.1587 -2.39942 -0.854409 0
M  V30 436 H 38.9417 -3.39849 0.485543 0
M  V30 437 N 41.3868 0.248026 -1.55636 0
M  V30 438 C 42.3168 1.31079 -1.93237 0
M  V30 439 C 43.2978 1.50264 -0.797174 0
M  V30 440 O 44.4828 1.62891 -1.05737 0
M  V30 441 C 41.6128 2.66575 -2.22609 0
M  V30 442 C 40.5668 2.62087 -3.3837 0
M  V30 443 C 39.8928 4.01369 -3.53281 0
M  V30 444 C 41.1928 2.19171 -4.7409 0
M  V30 445 H 42.8868 0.998556 -2.82257 0
M  V30 446 H 40.4328 0.47891 -1.35803 0
M  V30 447 H 42.3858 3.41057 -2.47503 0
M  V30 448 H 41.1098 2.99432 -1.30414 0
M  V30 449 H 39.7688 1.90063 -3.13483 0
M  V30 450 H 39.4168 4.31489 -2.58508 0
M  V30 451 H 39.1168 3.99254 -4.31127 0
M  V30 452 H 40.6408 4.77552 -3.80495 0
M  V30 453 H 42.0548 2.83384 -4.98363 0
M  V30 454 H 40.4518 2.2817 -5.5503 0
M  V30 455 H 41.5218 1.14336 -4.71227 0
M  V30 456 N 42.8649 1.48995 0.513639 0
M  V30 457 C 44.0929 1.61531 1.29288 0
M  V30 458 C 44.5079 0.281801 1.86685 0
M  V30 459 O 43.8649 -0.731111 1.67215 0
M  V30 460 C 43.9159 2.67449 2.43215 0
M  V30 461 O 43.6369 3.95626 1.88179 0
M  V30 462 C 45.1379 2.90575 3.34785 0
M  V30 463 H 42.3579 0.544165 0.392588 0
M  V30 464 H 44.9019 1.9494 0.617956 0
M  V30 465 H 43.0569 2.36853 3.0656 0
M  V30 466 H 43.4709 4.53868 2.62876 0
M  V30 467 H 44.9449 3.68449 4.11035 0
M  V30 468 H 45.4219 2.00011 3.91015 0
M  V30 469 H 46.0279 3.22538 2.77218 0
M  V30 470 N 44.343 -0.763751 1.37857 0
M  V30 471 C 45.306 -1.85889 1.34081 0
M  V30 472 C 46.306 -1.58949 0.243277 0
M  V30 473 O 47.496 -1.66882 0.499589 0
M  V30 474 C 44.628 -3.23176 1.08489 0
M  V30 475 H 45.821 -1.90648 2.31502 0
M  V30 476 H 43.374 -0.964367 1.23003 0
M  V30 477 H 44.109 -3.24091 0.116318 0
M  V30 478 H 43.894 -3.44124 1.8794 0
M  V30 479 H 45.384 -4.03254 1.08517 0
M  V30 480 N 45.8211 -1.22559 -0.990812 0
M  V30 481 C 46.7841 -0.998863 -2.0629 0
M  V30 482 C 47.7841 0.0354834 -1.60761 0
M  V30 483 O 48.9741 -0.203231 -1.7301 0
M  V30 484 C 46.1061 -0.509203 -3.37076 0
M  V30 485 H 47.2991 -1.95014 -2.27837 0
M  V30 486 H 44.8521 -1.04456 -1.16269 0
M  V30 487 H 45.5871 0.446335 -3.21214 0
M  V30 488 H 45.3721 -1.25547 -3.71457 0
M  V30 489 H 46.8621 -0.370888 -4.1595 0
M  V30 490 N 47.2992 1.18797 -1.03562 0
M  V30 491 C 48.5452 1.8893 -0.737113 0
M  V30 492 C 48.8782 1.79837 0.732956 0
M  V30 493 O 48.1532 1.19525 1.5344 0
M  V30 494 C 48.4362 3.39607 -1.19745 0
M  V30 495 C 48.2892 3.57537 -2.72924 0
M  V30 496 C 49.6082 4.33069 -0.783526 0
M  V30 497 H 46.7272 0.686057 -0.269249 0
M  V30 498 H 49.3692 1.39797 -1.28673 0
M  V30 499 H 47.5192 3.81583 -0.729855 0
M  V30 500 H 49.1912 3.24688 -3.27682 0
M  V30 501 H 47.4342 3.00363 -3.12993 0
M  V30 502 H 48.1052 4.63238 -3.00191 0
M  V30 503 H 50.5812 3.98846 -1.18581 0
M  V30 504 H 49.4572 5.3707 -1.13343 0
M  V30 505 H 49.7182 4.40986 0.313681 0
M  V30 506 N 48.7773 0.814389 1.34928 0
M  V30 507 C 50.0543 0.321363 1.92942 0
M  V30 508 C 50.4343 -1.19014 1.74353 0
M  V30 509 O 49.7823 -1.99328 1.11716 0
M  V30 510 C 49.9923 0.741323 3.41036 0
M  V30 511 C 51.3403 0.735266 4.18185 0
M  V30 512 O 52.3643 0.68336 3.49584 0
M  V30 513 O 51.2233 0.800703 5.40602 0
M  V30 514 H 48.3173 0.0858893 0.822528 0
M  V30 515 H 50.8633 0.898609 1.43955 0
M  V30 516 H 49.6353 1.78276 3.4833 0
M  V30 517 H 49.2583 0.139307 3.97356 0
M  V30 518 N 50.2554 -1.46986 0.568584 0
M  V30 519 C 51.5034 -2.02041 0.0487022 0
M  V30 520 C 51.8244 -1.44408 -1.31039 0
M  V30 521 O 51.0944 -0.623477 -1.85714 0
M  V30 522 H 49.6744 -0.746849 0.015014 0
M  V30 523 H 52.3364 -1.80257 0.741168 0
M  V30 524 H 51.4324 -3.12085 -0.0308961 0
M  V30 525 N 51.7335 -0.305618 -1.54608 0
M  V30 526 C 52.9825 0.303098 -1.9941 0
M  V30 527 C 53.2955 1.54648 -1.19764 0
M  V30 528 O 54.5015 2.23007 -1.54855 0
M  V30 529 C 52.9575 0.590588 -3.55021 0
M  V30 530 C 52.5655 -0.634719 -4.43481 0
M  V30 531 C 54.3095 1.16025 -4.08336 0
M  V30 532 C 52.2165 -0.320126 -5.90533 0
M  V30 533 H 51.1465 0.117031 -0.744862 0
M  V30 534 H 53.7975 -0.415045 -1.78745 0
M  V30 535 H 52.1795 1.36845 -3.71604 0
M  V30 536 H 53.3535 -1.41079 -4.38672 0
M  V30 537 H 51.6685 -1.12333 -4.00962 0
M  V30 538 H 54.2655 1.40994 -5.15776 0
M  V30 539 H 54.6085 2.10397 -3.5922 0
M  V30 540 H 55.1415 0.443985 -3.95315 0
M  V30 541 H 51.8805 -1.23254 -6.43808 0
M  V30 542 H 51.4005 0.418579 -5.98338 0
M  V30 543 H 53.0795 0.0766241 -6.46955 0
M  V30 544 N 53.2116 1.57565 -0.0334293 0
M  V30 545 C 54.4606 1.91155 0.643639 0
M  V30 546 C 54.7736 0.91192 1.73042 0
M  V30 547 O 55.9796 1.13923 2.46442 0
M  V30 548 C 54.4356 3.39443 1.1961 0
M  V30 549 C 54.0436 4.47774 0.142381 0
M  V30 550 C 55.7876 3.82094 1.84944 0
M  V30 551 C 53.6946 5.87162 0.706727 0
M  V30 552 H 52.6246 0.713368 0.244176 0
M  V30 553 H 55.2756 1.8323 -0.0994323 0
M  V30 554 H 53.6576 3.42313 1.99092 0
M  V30 555 H 54.8316 4.56469 -0.630296 0
M  V30 556 H 53.1466 4.14352 -0.412446 0
M  V30 557 H 55.7436 4.83591 2.2813 0
M  V30 558 H 56.0866 3.17386 2.69392 0
M  V30 559 H 56.6196 3.81665 1.12145 0
M  V30 560 H 53.3586 6.55424 -0.0997178 0
M  V30 561 H 52.8786 5.82064 1.44779 0
M  V30 562 H 54.5576 6.35866 1.19514 0
M  V30 563 N 54.6897 -0.239769 1.55765 0
M  V30 564 C 55.6217 -1.32001 1.87372 0
M  V30 565 C 56.6347 -1.43944 0.760522 0
M  V30 566 O 57.8237 -1.45167 1.0387 0
M  V30 567 C 54.9237 -2.69779 2.05115 0
M  V30 568 C 54.0967 -2.80014 3.36022 0
M  V30 569 C 53.1557 -3.98684 3.4342 0
M  V30 570 O 52.1817 -3.87877 4.16582 0
M  V30 571 N 53.3837 -5.12176 2.73232 0
M  V30 572 H 56.1487 -1.0522 2.80622 0
M  V30 573 H 53.7097 -0.429857 1.56089 0
M  V30 574 H 55.7017 -3.47517 2.07399 0
M  V30 575 H 54.2717 -2.89237 1.18577 0
M  V30 576 H 53.4917 -1.88896 3.45994 0
M  V30 577 H 54.7797 -2.83808 4.22292 0
M  V30 578 H 54.1777 -5.2385 2.13536 0
M  V30 579 H 52.7347 -5.88022 2.81199 0
M  V30 580 N 56.1678 -1.49265 -0.50573 0
M  V30 581 C 57.5788 -1.51769 -1.08734 0
M  V30 582 C 57.9298 -0.301192 -1.93874 0
M  V30 583 O 57.0548 0.589456 -2.08217 0
M  V30 584 C 57.6498 -2.75017 -1.97867 0
M  V30 585 C 56.2088 -2.80314 -2.51199 0
M  V30 586 C 55.3558 -2.4562 -1.28709 0
M  V30 587 H 58.3068 -1.56031 -0.289855 0
M  V30 588 H 58.3278 -2.5491 -2.82491 0
M  V30 589 H 57.8398 -3.63539 -1.35873 0
M  V30 590 H 55.9408 -1.96061 -3.16845 0
M  V30 591 H 56.0538 -3.82366 -2.88675 0
M  V30 592 H 54.4178 -1.97297 -1.61078 0
M  V30 593 H 55.2008 -3.36411 -0.6843 0
M  V30 594 N 57.6459 0.756429 -1.3826 0
M  V30 595 C 58.5789 1.87802 -1.29637 0
M  V30 596 C 59.5569 1.61667 -0.173939 0
M  V30 597 O 60.7409 1.85208 -0.350775 0
M  V30 598 C 57.8679 3.23354 -1.00797 0
M  V30 599 C 56.9139 3.68379 -2.14939 0
M  V30 600 S 57.7469 3.8025 -3.77054 0
M  V30 601 C 58.9029 5.18626 -3.50396 0
M  V30 602 H 59.1359 1.94829 -2.24564 0
M  V30 603 H 56.6689 0.919117 -1.24063 0
M  V30 604 H 58.6269 4.01637 -0.848413 0
M  V30 605 H 57.2879 3.14008 -0.0759369 0
M  V30 606 H 56.4809 4.66693 -1.90299 0
M  V30 607 H 56.0829 2.97242 -2.26988 0
M  V30 608 H 58.3749 6.04289 -3.06334 0
M  V30 609 H 59.3179 5.48286 -4.48094 0
M  V30 610 H 59.7259 4.87289 -2.84973 0
M  V30 611 N 59.124 1.23083 0.984299 0
M  V30 612 C 60.054 1.03292 2.09411 0
M  V30 613 C 61.035 -0.048923 1.7003 0
M  V30 614 O 62.22 0.114967 1.93859 0
M  V30 615 C 59.35 0.619155 3.41736 0
M  V30 616 C 58.304 1.64791 3.95004 0
M  V30 617 C 57.63 1.0897 5.23478 0
M  V30 618 C 58.93 3.03999 4.24714 0
M  V30 619 H 60.624 1.96119 2.26225 0
M  V30 620 H 58.17 0.944344 1.08711 0
M  V30 621 H 60.123 0.467777 4.18796 0
M  V30 622 H 58.847 -0.344786 3.24775 0
M  V30 623 H 57.506 1.78721 3.20085 0
M  V30 624 H 57.154 0.11686 5.02864 0
M  V30 625 H 56.854 1.77704 5.60085 0
M  V30 626 H 58.378 0.950093 6.03163 0
M  V30 627 H 59.792 2.93393 4.92538 0
M  V30 628 H 58.189 3.69936 4.72512 0
M  V30 629 H 59.259 3.53285 3.32142 0
M  V30 630 N 60.6021 -1.18246 1.0419 0
M  V30 631 C 61.5491 -2.2192 0.634037 0
M  V30 632 C 62.5191 -1.62179 -0.358765 0
M  V30 633 O 63.7041 -1.89122 -0.252466 0
M  V30 634 C 60.8441 -3.451 0.00445535 0
M  V30 635 C 59.9571 -4.19174 1.04487 0
M  V30 636 C 59.0921 -5.29813 0.383676 0
M  V30 637 C 58.1311 -5.9566 1.4091 0
M  V30 638 N 57.2681 -6.97834 0.772784 0
M  V30 639 H 62.1081 -2.56164 1.52263 0
M  V30 640 H 59.6451 -1.25843 0.761701 0
M  V30 641 H 61.6031 -4.15485 -0.377919 0
M  V30 642 H 60.2331 -3.11472 -0.847652 0
M  V30 643 H 59.2851 -3.47604 1.54518 0
M  V30 644 H 60.5971 -4.64267 1.82368 0
M  V30 645 H 59.7511 -6.06677 -0.0528366 0
M  V30 646 H 58.4901 -4.85825 -0.427208 0
M  V30 647 H 57.4951 -5.17535 1.85574 0
M  V30 648 H 58.7201 -6.4173 2.22171 0
M  V30 649 H 56.6661 -6.55998 -0.0177708 0
M  V30 650 H 56.5831 -7.41186 1.48928 0
M  V30 651 H 57.8511 -7.78665 0.36071 0
M  V30 652 N 62.0802 -0.821533 -1.34494 0
M  V30 653 C 62.9902 -0.244355 -2.33324 0
M  V30 654 C 64.0062 0.620527 -1.62559 0
M  V30 655 O 65.1822 0.528754 -1.94335 0
M  V30 656 C 62.2472 0.585368 -3.41723 0
M  V30 657 C 61.3082 -0.301752 -4.28238 0
M  V30 658 C 60.5412 0.488466 -5.3146 0
M  V30 659 O 60.7642 1.72186 -5.4379 0
M  V30 660 O 59.6982 -0.12848 -6.01763 0
M  V30 661 H 63.5242 -1.06231 -2.84515 0
M  V30 662 H 61.1092 -0.583645 -1.37528 0
M  V30 663 H 62.9912 1.05747 -4.07916 0
M  V30 664 H 61.6662 1.38068 -2.92778 0
M  V30 665 H 60.5732 -0.821315 -3.64973 0
M  V30 666 H 61.9062 -1.06138 -4.8062 0
M  V30 667 N 63.5583 1.46682 -0.576371 0
M  V30 668 C 64.7883 2.06498 -0.0648694 0
M  V30 669 C 65.1963 1.42665 1.24271 0
M  V30 670 O 64.5393 0.523886 1.76071 0
M  V30 671 C 64.6013 3.5904 0.181816 0
M  V30 672 C 64.2653 4.45028 -1.0392 0
M  V30 673 C 65.2623 4.81959 -1.94966 0
M  V30 674 C 62.9473 4.86259 -1.25927 0
M  V30 675 C 64.9413 5.58942 -3.06371 0
M  V30 676 C 62.6283 5.63002 -2.37638 0
M  V30 677 C 63.6263 5.99257 -3.2769 0
M  V30 678 O 63.3143 6.7445 -4.37461 0
M  V30 679 H 63.0463 0.674028 -0.0515987 0
M  V30 680 H 65.6003 1.89393 -0.794951 0
M  V30 681 H 63.8303 3.74429 0.966436 0
M  V30 682 H 65.5193 4.00806 0.641047 0
M  V30 683 H 66.2853 4.50689 -1.79177 0
M  V30 684 H 62.1643 4.57494 -0.567448 0
M  V30 685 H 65.7083 5.87158 -3.76684 0
M  V30 686 H 61.6053 5.93686 -2.53392 0
M  V30 687 H 62.3733 6.92867 -4.35749 0
M  V30 688 N 65.0364 0.313813 1.54444 0
M  V30 689 C 66.4524 -0.0391619 1.59552 0
M  V30 690 C 66.6524 -1.51322 1.33056 0
M  V30 691 O 65.7084 -2.26782 1.11022 0
M  V30 692 C 67.0214 0.370302 2.98411 0
M  V30 693 C 68.5694 0.320139 3.11358 0
M  V30 694 C 69.0444 0.704617 4.52547 0
M  V30 695 N 70.5354 0.657645 4.58508 0
M  V30 696 C 71.2704 0.927453 5.6585 0
M  V30 697 N 70.7664 1.26389 6.81174 0
M  V30 698 N 72.5594 0.853662 5.5558 0
M  V30 699 H 64.7104 1.27433 1.69925 0
M  V30 700 H 66.9734 0.517511 0.794284 0
M  V30 701 H 66.6794 1.39694 3.22767 0
M  V30 702 H 66.5534 -0.269619 3.76235 0
M  V30 703 H 68.9404 -0.697275 2.86744 0
M  V30 704 H 69.0214 0.99486 2.35661 0
M  V30 705 H 68.6654 1.7199 4.77893 0
M  V30 706 H 68.5954 0.00768843 5.26599 0
M  V30 707 H 71.0864 0.409067 3.75679 0
M  V30 708 H 71.3994 1.4554 7.58972 0
M  V30 709 H 69.7444 1.30206 6.82694 0
M  V30 710 H 72.9354 0.590383 4.64362 0
M  V30 711 H 73.1084 1.0673 6.3915 0
M  V30 712 N 66.5145 -1.57545 0.0417849 0
M  V30 713 C 67.7635 -1.91494 -0.633492 0
M  V30 714 C 68.0765 -0.921084 -1.72556 0
M  V30 715 O 69.2825 -1.15228 -2.45835 0
M  V30 716 C 67.7385 -3.40072 -1.17808 0
M  V30 717 C 67.3465 -4.47843 -0.118633 0
M  V30 718 C 69.0905 -3.8307 -1.82915 0
M  V30 719 C 66.9975 -5.87529 -0.675578 0
M  V30 720 H 65.9275 -0.714653 -0.24039 0
M  V30 721 H 68.5785 -1.83175 0.109148 0
M  V30 722 H 66.9605 -3.43364 -1.97274 0
M  V30 723 H 68.1345 -4.56128 0.654494 0
M  V30 724 H 66.4495 -4.14128 0.434414 0
M  V30 725 H 69.0465 -4.84794 -2.25563 0
M  V30 726 H 69.3895 -3.1881 -2.67705 0
M  V30 727 H 69.9225 -3.82255 -1.10119 0
M  V30 728 H 66.6615 -6.55362 0.134475 0
M  V30 729 H 66.1815 -5.82824 -1.4169 0
M  V30 730 H 67.8605 -6.36491 -1.1614 0
M  V30 731 N 67.9926 0.231505 -1.5589 0
M  V30 732 C 69.4036 0.799327 -1.68724 0
M  V30 733 C 69.7546 1.85398 -0.642022 0
M  V30 734 O 68.8796 2.1539 0.208784 0
M  V30 735 C 69.4746 1.45664 -3.05888 0
M  V30 736 C 68.0336 1.97197 -3.20609 0
M  V30 737 C 67.1806 0.828552 -2.64632 0
M  V30 738 H 70.1316 0.00702616 -1.58698 0
M  V30 739 H 70.1526 2.32517 -3.01191 0
M  V30 740 H 69.6646 0.688808 -3.81939 0
M  V30 741 H 67.7656 2.76813 -2.4941 0
M  V30 742 H 67.8786 2.15878 -4.27707 0
M  V30 743 H 66.2426 1.23321 -2.22854 0
M  V30 744 H 67.0256 0.0735544 -3.43221 0
M  V30 745 N 69.4707 1.49531 0.497807 0
M  V30 746 C 70.7187 1.58865 1.24926 0
M  V30 747 C 71.0397 0.278721 1.92998 0
M  V30 748 O 70.3097 -0.702144 1.82885 0
M  V30 749 H 68.8897 0.585343 0.464094 0
M  V30 750 H 71.5517 1.86174 0.57666 0
M  V30 751 H 70.6477 2.38633 2.01149 0
M  V30 752 N 70.9488 -0.749086 1.3866 0
M  V30 753 C 71.8818 -1.87111 1.30631 0
M  V30 754 C 72.8598 -1.61572 0.18251 0
M  V30 755 O 74.0438 -1.85019 0.360592 0
M  V30 756 C 71.1708 -3.22815 1.02511 0
M  V30 757 C 70.2168 -3.67234 2.1689 0
M  V30 758 S 71.0498 -3.78245 3.79066 0
M  V30 759 C 72.2058 -5.16761 3.53142 0
M  V30 760 H 72.4388 -1.93636 2.25594 0
M  V30 761 H 69.9718 -0.912525 1.24549 0
M  V30 762 H 71.9298 -4.01181 0.869701 0
M  V30 763 H 70.5908 -3.13964 0.0925884 0
M  V30 764 H 69.7838 -4.65677 1.92771 0
M  V30 765 H 69.3858 -2.96034 2.28561 0
M  V30 766 H 71.6778 -6.02656 3.09534 0
M  V30 767 H 72.6208 -5.45902 4.50995 0
M  V30 768 H 73.0288 -4.85771 2.87554 0
M  V30 769 N 72.4269 -1.23603 -0.977757 0
M  V30 770 C 73.3899 -1.02069 -2.05218 0
M  V30 771 C 74.3899 0.0184305 -1.60789 0
M  V30 772 O 75.5799 -0.221569 -1.72785 0
M  V30 773 C 72.7119 -0.544926 -3.36517 0
M  V30 774 H 73.9049 -1.9742 -2.25755 0
M  V30 775 H 71.4579 -1.05684 -1.15155 0
M  V30 776 H 72.1929 0.412241 -3.21669 0
M  V30 777 H 71.9779 -1.2948 -3.70105 0
M  V30 778 H 73.4679 -0.414985 -4.15533 0
M  V30 779 N 73.905 1.17692 -1.04816 0
M  V30 780 C 75.151 1.88137 -0.75711 0
M  V30 781 C 75.484 1.80604 0.713841 0
M  V30 782 O 74.759 1.21146 1.52164 0
M  V30 783 C 75.042 3.38318 -1.2334 0
M  V30 784 C 74.895 3.54622 -2.76701 0
M  V30 785 C 76.214 4.32214 -0.829415 0
M  V30 786 H 73.333 0.683163 -0.27651 0
M  V30 787 H 75.975 1.38424 -1.30149 0
M  V30 788 H 74.125 3.80787 -0.770286 0
M  V30 789 H 75.797 3.21194 -3.31107 0
M  V30 790 H 74.04 2.97026 -3.16161 0
M  V30 791 H 74.711 4.60028 -3.05088 0
M  V30 792 H 77.187 3.97565 -1.22805 0
M  V30 793 H 76.063 5.35838 -1.19033 0
M  V30 794 H 76.324 4.41294 0.266891 0
M  V30 795 N 75.3831 0.828654 1.34056 0
M  V30 796 C 76.3461 0.259927 2.27721 0
M  V30 797 C 77.3461 -0.565478 1.50529 0
M  V30 798 O 78.5361 -0.38075 1.69988 0
M  V30 799 C 75.6681 -0.634944 3.34935 0
M  V30 800 H 76.8611 1.0863 2.79534 0
M  V30 801 H 74.4141 0.600951 1.44285 0
M  V30 802 H 75.1491 -1.48416 2.88346 0
M  V30 803 H 74.9341 -0.0444999 3.92075 0
M  V30 804 H 76.4241 -1.02648 4.04788 0
M  V30 805 N 76.8612 -1.46375 0.584142 0
M  V30 806 C 78.1072 -2.02678 0.0703716 0
M  V30 807 C 78.4402 -1.4545 -1.28678 0
M  V30 808 O 77.7152 -0.62014 -1.84349 0
M  V30 809 C 77.9982 -3.60099 0.00614674 0
M  V30 810 C 77.8512 -4.27709 1.3923 0
M  V30 811 C 79.1702 -4.34598 -0.693742 0
M  V30 812 H 76.2892 -0.736504 0.027047 0
M  V30 813 H 78.9312 -1.74501 0.751615 0
M  V30 814 H 77.0812 -3.84236 -0.574009 0
M  V30 815 H 78.7532 -4.14832 2.01773 0
M  V30 816 H 76.9962 -3.87016 1.95962 0
M  V30 817 H 77.6672 -5.36478 1.29982 0
M  V30 818 H 80.1432 -4.15615 -0.200869 0
M  V30 819 H 79.0192 -5.44318 -0.707714 0
M  V30 820 H 79.2802 -4.05759 -1.75533 0
M  V30 821 N 78.3393 -0.321999 -1.54275 0
M  V30 822 C 79.2693 0.537411 -2.27231 0
M  V30 823 C 80.2503 1.12064 -1.27968 0
M  V30 824 O 81.4353 1.14606 -1.56777 0
M  V30 825 C 78.5653 1.69919 -3.02894 0
M  V30 826 C 77.5193 1.24534 -4.09482 0
M  V30 827 C 76.8453 2.49394 -4.72977 0
M  V30 828 C 78.1453 0.361335 -5.21049 0
M  V30 829 H 79.8393 -0.0711406 -2.99315 0
M  V30 830 H 77.3853 -0.0356555 -1.43956 0
M  V30 831 H 79.3383 2.30668 -3.52662 0
M  V30 832 H 78.0623 2.33431 -2.28424 0
M  V30 833 H 76.7213 0.660782 -3.60596 0
M  V30 834 H 76.3693 3.11265 -3.95124 0
M  V30 835 H 76.0693 2.19718 -5.44975 0
M  V30 836 H 77.5933 3.10908 -5.25517 0
M  V30 837 H 79.0073 0.875072 -5.66582 0
M  V30 838 H 77.4043 0.157428 -5.99893 0
M  V30 839 H 78.4743 -0.60822 -4.8107 0
M  V30 840 N 79.8174 1.5752 -0.0501392 0
M  V30 841 C 80.7644 2.1147 0.924603 0
M  V30 842 C 81.7344 1.02182 1.30951 0
M  V30 843 O 82.9194 1.29723 1.39916 0
M  V30 844 C 80.0594 2.66337 2.19451 0
M  V30 845 C 79.1724 3.89708 1.86418 0
M  V30 846 C 78.3074 4.32893 3.07859 0
M  V30 847 C 77.3464 5.48967 2.70742 0
M  V30 848 N 76.4834 5.87211 3.84874 0
M  V30 849 H 81.3234 2.94465 0.457639 0
M  V30 850 H 78.8604 1.45531 0.214266 0
M  V30 851 H 80.8184 2.96247 2.93758 0
M  V30 852 H 79.4484 1.86141 2.63726 0
M  V30 853 H 78.5004 3.66396 1.02264 0
M  V30 854 H 79.8124 4.74074 1.55096 0
M  V30 855 H 78.9664 4.6435 3.90466 0
M  V30 856 H 77.7054 3.47336 3.42358 0
M  V30 857 H 76.7104 5.17183 1.86551 0
M  V30 858 H 77.9354 6.3624 2.37436 0
M  V30 859 H 75.8814 5.04607 4.19175 0
M  V30 860 H 75.7984 6.66266 3.57247 0
M  V30 861 H 77.0664 6.23282 4.68123 0
M  V30 862 N 81.2955 -0.223234 1.56011 0
M  V30 863 C 82.5725 -0.972108 1.69733 0
M  V30 864 C 82.9525 -2.02485 0.59691 0
M  V30 865 O 82.3005 -2.25037 -0.396324 0
M  V30 866 C 82.5105 -1.58407 3.10979 0
M  V30 867 C 83.8585 -2.07696 3.70334 0
M  V30 868 O 84.8825 -1.68304 3.1393 0
M  V30 869 O 83.7415 -2.80096 4.69264 0
M  V30 870 H 80.8355 -0.453993 0.691245 0
M  V30 871 H 83.3815 -0.215149 1.68331 0
M  V30 872 H 82.1535 -0.823831 3.82529 0
M  V30 873 H 81.7765 -2.40661 3.16493 0
M  V30 874 N 82.7736 -1.49793 -0.48987 0
M  V30 875 C 84.0216 -1.59525 -1.24081 0
M  V30 876 C 84.3426 -0.288953 -1.92847 0
M  V30 877 O 83.6126 0.692436 -1.83254 0
M  V30 878 H 82.1926 -0.587796 -0.460983 0
M  V30 879 H 84.8546 -1.86477 -0.566778 0
M  V30 880 H 83.9506 -2.39696 -1.99881 0
M  V30 881 N 84.2517 0.741722 -1.39055 0
M  V30 882 C 85.1987 1.85566 -1.37237 0
M  V30 883 C 86.1687 1.64457 -0.233072 0
M  V30 884 O 87.3537 1.85957 -0.427147 0
M  V30 885 C 84.4937 3.23004 -1.215 0
M  V30 886 C 83.6067 3.55864 -2.44918 0
M  V30 887 C 82.7417 4.82669 -2.21821 0
M  V30 888 C 81.7807 5.08351 -3.40948 0
M  V30 889 N 80.9177 6.26356 -3.17211 0
M  V30 890 H 85.7577 1.86455 -2.32462 0
M  V30 891 H 83.2947 0.911176 -1.15482 0
M  V30 892 H 85.2527 4.02331 -1.10389 0
M  V30 893 H 83.8827 3.21411 -0.29908 0
M  V30 894 H 82.9347 2.7129 -2.66657 0
M  V30 895 H 84.2467 3.70765 -3.33668 0
M  V30 896 H 83.4007 5.69962 -2.07914 0
M  V30 897 H 82.1397 4.69929 -1.30454 0
M  V30 898 H 81.1447 4.19522 -3.55361 0
M  V30 899 H 82.3697 5.22981 -4.33207 0
M  V30 900 H 80.3157 6.14917 -2.28502 0
M  V30 901 H 80.2327 6.41813 -3.99515 0
M  V30 902 H 81.5007 7.16506 -3.06984 0
M  V30 903 N 85.7298 1.2412 0.971189 0
M  V30 904 C 86.6928 1.03156 2.04674 0
M  V30 905 C 87.6928 -0.00990322 1.60797 0
M  V30 906 O 88.8828 0.230729 1.72665 0
M  V30 907 C 86.0148 0.562765 3.36223 0
M  V30 908 H 87.2078 1.98614 2.24705 0
M  V30 909 H 84.7608 1.06293 1.14593 0
M  V30 910 H 85.4958 -0.395176 3.21883 0
M  V30 911 H 85.2808 1.31441 3.69413 0
M  V30 912 H 86.7708 0.437015 4.15307 0
M  V30 913 N 87.2079 -1.17134 1.05439 0
M  V30 914 C 88.1579 -2.1919 0.627675 0
M  V30 915 C 89.1419 -1.57328 -0.337147 0
M  V30 916 O 90.3339 -1.76329 -0.153976 0
M  V30 917 C 87.4629 -3.43299 0.00651435 0
M  V30 918 C 86.5489 -4.12255 0.995312 0
M  V30 919 N 86.9399 -4.56997 2.16765 0
M  V30 920 C 85.2379 -4.38316 0.824336 0
M  V30 921 C 85.9389 -5.10239 2.7934 0
M  V30 922 N 84.9149 -5.02595 2.07122 0
M  V30 923 H 88.7169 -2.5149 1.52086 0
M  V30 924 H 86.2309 -1.33491 0.924868 0
M  V30 925 H 88.2279 -4.15693 -0.316965 0
M  V30 926 H 86.8879 -3.1249 -0.882033 0
M  V30 927 H 87.8989 -4.51006 2.54587 0
M  V30 928 H 84.5759 -4.17498 -0.0129526 0
M  V30 929 H 85.9659 -5.54961 3.78772 0
M  V30 930 N 88.686 -0.835752 -1.33615 0
M  V30 931 C 89.916 -0.442701 -2.01801 0
M  V30 932 C 90.324 0.959807 -1.63047 0
M  V30 933 O 89.667 1.63468 -0.838088 0
M  V30 934 C 89.729 -0.480125 -3.56279 0
M  V30 935 C 89.393 -1.8382 -4.18401 0
M  V30 936 C 90.39 -2.80097 -4.37998 0
M  V30 937 C 88.075 -2.13019 -4.54894 0
M  V30 938 C 90.069 -4.03736 -4.9323 0
M  V30 939 C 87.756 -3.36916 -5.09834 0
M  V30 940 C 88.754 -4.32091 -5.28948 0
M  V30 941 O 88.442 -5.53797 -5.82721 0
M  V30 942 H 88.174 -0.17441 -0.653114 0
M  V30 943 H 90.728 -1.129 -1.71589 0
M  V30 944 H 88.958 0.262931 -3.85805 0
M  V30 945 H 90.647 -0.105335 -4.05763 0
M  V30 946 H 91.413 -2.58838 -4.10156 0
M  V30 947 H 87.292 -1.39733 -4.39313 0
M  V30 948 H 90.836 -4.78034 -5.08064 0
M  V30 949 H 86.733 -3.58033 -5.37106 0
M  V30 950 H 87.501 -5.55494 -6.0114 0
M  V30 951 N 90.1641 1.46063 -0.591896 0
M  V30 952 C 91.4111 2.02338 -0.0809991 0
M  V30 953 C 91.7391 1.46228 1.28249 0
M  V30 954 O 90.9941 0.620818 1.85592 0
M  V30 955 C 91.2931 3.57391 0.0249813 0
M  V30 956 C 90.9591 4.32583 -1.27211 0
M  V30 957 C 89.6211 4.52844 -1.62745 0
M  V30 958 C 91.9731 4.75687 -2.13005 0
M  V30 959 C 89.3011 5.13462 -2.83855 0
M  V30 960 C 91.6531 5.37644 -3.3335 0
M  V30 961 C 90.3171 5.5613 -3.69155 0
M  V30 962 H 89.5871 0.740407 -0.0296397 0
M  V30 963 H 92.2341 1.75321 -0.770374 0
M  V30 964 H 90.5391 3.83597 0.797537 0
M  V30 965 H 92.2361 3.98621 0.436184 0
M  V30 966 H 88.8261 4.17116 -0.985499 0
M  V30 967 H 93.0101 4.59782 -1.86855 0
M  V30 968 H 88.2661 5.25965 -3.11722 0
M  V30 969 H 92.4401 5.7 -4.00092 0
M  V30 970 H 90.0671 6.0287 -4.63089 0
M  V30 971 N 91.6422 0.330177 1.54103 0
M  V30 972 C 92.5902 -0.548226 2.26047 0
M  V30 973 C 93.5842 -1.11309 1.27698 0
M  V30 974 O 94.7902 -1.06036 1.45452 0
M  V30 975 H 91.1652 -0.195456 0.726155 0
M  V30 976 H 93.1362 0.0807567 2.98291 0
M  V30 977 C 91.8852 -1.69415 3.03634 0
M  V30 978 H 91.2082 -1.26876 3.79134 0
M  V30 979 H 92.6482 -2.28423 3.5721 0
M  V30 980 C 91.1072 -2.61569 2.12328 0
M  V30 981 O 91.6372 -3.63462 1.7105 0
M  V30 982 N 89.8432 -2.29952 1.77681 0
M  V30 983 H 89.3902 -1.47134 2.11446 0
M  V30 984 H 89.3482 -2.91871 1.16869 0
M  V30 985 N 93.1203 -1.57491 0.0584922 0
M  V30 986 C 94.3503 -1.9701 -0.622134 0
M  V30 987 C 94.7583 -0.935034 -1.6448 0
M  V30 988 O 94.1013 0.0882904 -1.83488 0
M  V30 989 C 94.1633 -3.32794 -1.35972 0
M  V30 990 C 93.8273 -4.54343 -0.492043 0
M  V30 991 C 94.8243 -5.19323 0.244901 0
M  V30 992 C 92.5093 -5.00534 -0.420821 0
M  V30 993 C 94.5033 -6.28835 1.04143 0
M  V30 994 C 92.1903 -6.09921 0.379389 0
M  V30 995 C 93.1883 -6.73933 1.10919 0
M  V30 996 O 92.8763 -7.81216 1.89623 0
M  V30 997 H 92.6083 -0.653127 -0.174359 0
M  V30 998 H 95.1623 -2.05029 0.123418 0
M  V30 999 H 93.3923 -3.21351 -2.15105 0
M  V30 1000 H 95.0813 -3.5701 -1.93129 0
M  V30 1001 H 95.8473 -4.8459 0.19939 0
M  V30 1002 H 91.7263 -4.50496 -0.978474 0
M  V30 1003 H 95.2703 -6.7873 1.61157 0
M  V30 1004 H 91.1673 -6.44089 0.426512 0
M  V30 1005 H 91.9353 -7.98029 1.81913 0
M  V30 1006 N 94.5984 0.214957 -1.56127 0
M  V30 1007 C 95.8464 0.936518 -1.79091 0
M  V30 1008 C 96.1674 1.84606 -0.628148 0
M  V30 1009 O 95.4374 1.92664 0.35462 0
M  V30 1010 H 94.0174 0.3488 -0.660566 0
M  V30 1011 H 96.6794 0.22523 -1.93594 0
M  V30 1012 H 95.7754 1.53943 -2.71492 0
M  V30 1013 N 96.0765 1.50051 0.48192 0
M  V30 1014 C 97.3225 1.60736 1.2366 0
M  V30 1015 C 97.6555 0.301786 1.91841 0
M  V30 1016 O 96.9305 -0.696025 1.8162 0
M  V30 1017 C 97.2135 2.78009 2.28874 0
M  V30 1018 C 97.0665 4.18416 1.65069 0
M  V30 1019 C 98.3855 2.90867 3.30279 0
M  V30 1020 H 95.5045 0.585031 0.448228 0
M  V30 1021 H 98.1465 1.82402 0.531946 0
M  V30 1022 H 96.2965 2.59667 2.88973 0
M  V30 1023 H 97.9685 4.48322 1.0865 0
M  V30 1024 H 96.2115 4.23177 0.954148 0
M  V30 1025 H 96.8825 4.96381 2.41474 0
M  V30 1026 H 99.3585 3.07623 2.80191 0
M  V30 1027 H 98.2345 3.74566 4.01238 0
M  V30 1028 H 98.4955 2.01021 3.93755 0
M  V30 1029 N 97.5546 -0.734337 1.39446 0
M  V30 1030 C 98.5176 -1.83004 1.37994 0
M  V30 1031 C 99.5176 -1.58397 0.276938 0
M  V30 1032 O 100.708 -1.65785 0.534875 0
M  V30 1033 C 97.8396 -3.20802 1.1532 0
M  V30 1034 H 99.0326 -1.85694 2.35494 0
M  V30 1035 H 96.5856 -0.938059 1.25021 0
M  V30 1036 H 97.3206 -3.23772 0.185036 0
M  V30 1037 H 97.1056 -3.4006 1.95197 0
M  V30 1038 H 98.5956 -4.00862 1.17046 0
M  V30 1039 N 99.0327 -1.24633 -0.964593 0
M  V30 1040 C 99.9807 -1.03917 -2.08096 0
M  V30 1041 C 100.975 0.0268581 -1.69379 0
M  V30 1042 O 102.181 -0.127952 -1.79545 0
M  V30 1043 H 98.5557 -0.319044 -0.680966 0
M  V30 1044 H 100.527 -1.98581 -2.22729 0
M  V30 1045 C 99.2757 -0.663983 -3.41301 0
M  V30 1046 H 98.5987 -1.47605 -3.71555 0
M  V30 1047 H 100.039 -0.558663 -4.20303 0
M  V30 1048 C 98.4977 0.629169 -3.30973 0
M  V30 1049 O 99.0277 1.67404 -3.65156 0
M  V30 1050 N 97.2337 0.611057 -2.84103 0
M  V30 1051 H 96.7807 -0.239593 -2.56483 0
M  V30 1052 H 96.7387 1.47647 -2.77575 0
M  V30 1053 N 100.511 1.16574 -1.06058 0
M  V30 1054 C 101.927 1.3904 -0.783585 0
M  V30 1055 C 102.127 1.91784 0.618145 0
M  V30 1056 O 101.183 2.11511 1.37911 0
M  V30 1057 C 102.496 2.37329 -1.84649 0
M  V30 1058 C 104.044 2.51018 -1.86973 0
M  V30 1059 C 104.519 3.52588 -2.92311 0
M  V30 1060 N 106.01 3.60113 -2.91329 0
M  V30 1061 C 106.745 4.38486 -3.69482 0
M  V30 1062 N 106.241 5.20302 -4.57447 0
M  V30 1063 N 108.034 4.33446 -3.57885 0
M  V30 1064 H 100.185 0.806725 -1.96483 0
M  V30 1065 H 102.448 0.417117 -0.851303 0
M  V30 1066 H 102.154 2.05663 -2.85299 0
M  V30 1067 H 102.028 3.36946 -1.6955 0
M  V30 1068 H 104.415 2.81989 -0.869827 0
M  V30 1069 H 104.496 1.51445 -2.0615 0
M  V30 1070 H 104.14 3.22354 -3.92492 0
M  V30 1071 H 104.07 4.51886 -2.70383 0
M  V30 1072 H 106.561 3.01707 -2.27555 0
M  V30 1073 H 106.874 5.77311 -5.13743 0
M  V30 1074 H 105.219 5.19653 -4.61503 0
M  V30 1075 H 108.41 3.68586 -2.88551 0
M  V30 1076 H 108.583 4.94279 -4.19037 0
M  V30 1077 N 101.989 0.842826 1.3317 0
M  V30 1078 C 102.899 0.281444 2.32906 0
M  V30 1079 C 103.915 -0.594587 1.63526 0
M  V30 1080 O 105.091 -0.49777 1.95152 0
M  V30 1081 C 102.156 -0.530929 3.42611 0
M  V30 1082 C 101.217 0.369843 4.27704 0
M  V30 1083 C 100.45 -0.403853 5.3217 0
M  V30 1084 O 100.673 -1.63513 5.46461 0
M  V30 1085 O 99.6069 0.224199 6.01482 0
M  V30 1086 H 103.433 1.10744 2.82789 0
M  V30 1087 H 101.018 0.60545 1.36582 0
M  V30 1088 H 102.9 -0.992437 4.09547 0
M  V30 1089 H 101.575 -1.33392 2.94938 0
M  V30 1090 H 100.482 0.879275 3.6362 0
M  V30 1091 H 101.815 1.13771 4.78871 0
M  V30 1092 N 103.467 -1.45747 0.599634 0
M  V30 1093 C 104.692 -2.07178 0.0960198 0
M  V30 1094 C 105.117 -1.44268 -1.207 0
M  V30 1095 O 104.475 -0.532503 -1.73303 0
M  V30 1096 C 104.523 -3.60579 -0.0385348 0
M  V30 1097 O 103.627 -3.97713 -1.0908 0
M  V30 1098 H 102.968 -0.660251 0.0704593 0
M  V30 1099 H 105.498 -1.87124 0.827385 0
M  V30 1100 H 105.508 -4.07298 -0.239304 0
M  V30 1101 H 104.183 -4.05756 0.912947 0
M  V30 1102 H 102.76 -3.62678 -0.867135 0
M  V30 1103 N 104.945 -0.338344 -1.53925 0
M  V30 1104 C 106.193 0.259245 -2.0043 0
M  V30 1105 C 106.514 1.51484 -1.22791 0
M  V30 1106 O 105.784 1.93037 -0.33368 0
M  V30 1107 H 104.364 0.0987845 -0.740439 0
M  V30 1108 H 107.026 -0.458302 -1.89435 0
M  V30 1109 H 106.122 0.505334 -3.07982 0
M  V30 1110 N 106.423 1.57458 -0.0668435 0
M  V30 1111 C 107.355 2.09413 0.931601 0
M  V30 1112 C 108.368 1.02522 1.26464 0
M  V30 1113 O 109.557 1.30049 1.22269 0
M  V30 1114 C 106.657 2.53537 2.24882 0
M  V30 1115 C 105.83 3.83944 2.09537 0
M  V30 1116 C 104.889 4.14214 3.2452 0
M  V30 1117 O 103.915 4.83891 2.9973 0
M  V30 1118 N 105.117 3.67367 4.49469 0
M  V30 1119 H 107.882 2.95699 0.488048 0
M  V30 1120 H 105.443 1.61462 0.119009 0
M  V30 1121 H 107.435 2.70853 3.00701 0
M  V30 1122 H 106.005 1.72415 2.60753 0
M  V30 1123 H 105.225 3.76057 1.18215 0
M  V30 1124 H 106.513 4.69312 1.96529 0
M  V30 1125 H 105.911 3.11068 4.72497 0
M  V30 1126 H 104.468 3.89891 5.2233 0
M  V30 1127 N 107.901 -0.206675 1.56239 0
M  V30 1128 C 109.317 -0.557025 1.49564 0
M  V30 1129 C 109.517 -1.86424 0.764735 0
M  V30 1130 O 108.573 -2.50584 0.310491 0
M  V30 1131 C 109.886 -0.622478 2.94186 0
M  V30 1132 C 111.434 -0.712099 3.04792 0
M  V30 1133 C 111.909 -0.808767 4.50803 0
M  V30 1134 N 113.4 -0.8726 4.54907 0
M  V30 1135 C 114.135 -0.967365 5.65181 0
M  V30 1136 N 113.631 -1.02515 6.85173 0
M  V30 1137 N 115.424 -1.00366 5.53067 0
M  V30 1138 H 107.575 0.650943 2.02179 0
M  V30 1139 H 109.838 0.230387 0.919579 0
M  V30 1140 H 109.544 0.268727 3.50672 0
M  V30 1141 H 109.418 -1.4811 3.46905 0
M  V30 1142 H 111.805 -1.59374 2.48363 0
M  V30 1143 H 111.886 0.172489 2.55218 0
M  V30 1144 H 111.53 0.0684754 5.07854 0
M  V30 1145 H 111.46 -1.70899 4.98098 0
M  V30 1146 H 113.951 -0.837657 3.68499 0
M  V30 1147 H 114.264 -1.09765 7.64965 0
M  V30 1148 H 112.609 -0.994026 6.87855 0
M  V30 1149 H 115.8 -0.95527 4.58249 0
M  V30 1150 H 115.973 -1.07405 6.39037 0
M  V30 1151 N 109.379 -1.50304 -0.473955 0
M  V30 1152 C 110.625 -1.61389 -1.22806 0
M  V30 1153 C 110.958 -0.311955 -1.91678 0
M  V30 1154 O 110.233 0.686384 -1.81986 0
M  V30 1155 C 110.516 -2.79219 -2.27396 0
M  V30 1156 C 110.369 -4.19286 -1.62848 0
M  V30 1157 C 111.688 -2.92614 -3.28732 0
M  V30 1158 H 108.807 -0.587399 -0.445119 0
M  V30 1159 H 111.449 -1.82681 -0.522265 0
M  V30 1160 H 109.599 -2.61195 -2.87592 0
M  V30 1161 H 111.271 -4.48892 -1.06271 0
M  V30 1162 H 109.514 -4.23677 -0.931693 0
M  V30 1163 H 110.185 -4.97655 -2.38838 0
M  V30 1164 H 112.661 -3.09105 -2.78556 0
M  V30 1165 H 111.537 -3.76688 -3.99246 0
M  V30 1166 H 111.798 -2.03107 -3.92683 0
M  V30 1167 N 110.857 0.726932 -1.39834 0
M  V30 1168 C 112.082 1.52121 -1.40976 0
M  V30 1169 C 112.507 1.88098 -0.00826029 0
M  V30 1170 O 111.865 1.52479 0.980807 0
M  V30 1171 C 111.913 2.78021 -2.29644 0
M  V30 1172 O 111.017 3.74272 -1.73188 0
M  V30 1173 H 110.358 0.45908 -0.479731 0
M  V30 1174 H 112.888 0.896207 -1.83927 0
M  V30 1175 H 112.898 3.26671 -2.44438 0
M  V30 1176 H 111.573 2.51169 -3.31492 0
M  V30 1177 H 110.15 3.33073 -1.6768 0
M  V30 1178 N 112.336 1.25143 0.95797 0
M  V30 1179 C 113.246 1.06968 2.08794 0
M  V30 1180 C 114.262 0.00773911 1.73998 0
M  V30 1181 O 115.438 0.207972 2.00323 0
M  V30 1182 C 112.503 0.68691 3.39827 0
M  V30 1183 C 111.564 1.82641 3.88511 0
M  V30 1184 C 110.797 1.46181 5.1329 0
M  V30 1185 O 111.02 0.355971 5.69288 0
M  V30 1186 O 109.954 2.29085 5.566 0
M  V30 1187 H 113.78 2.01723 2.27027 0
M  V30 1188 H 111.365 1.04051 1.07209 0
M  V30 1189 H 113.247 0.485417 4.18595 0
M  V30 1190 H 111.922 -0.231417 3.22872 0
M  V30 1191 H 110.829 2.08274 3.10762 0
M  V30 1192 H 112.162 2.72386 4.09959 0
M  V30 1193 N 113.814 -1.1601 1.06675 0
M  V30 1194 C 114.746 -2.20115 0.638921 0
M  V30 1195 C 115.759 -1.59916 -0.305057 0
M  V30 1196 O 116.948 -1.78245 -0.0954446 0
M  V30 1197 C 114.048 -3.38798 -0.0830083 0
M  V30 1198 C 113.221 -4.2855 0.875426 0
M  V30 1199 C 112.28 -5.25849 0.192042 0
M  V30 1200 O 111.306 -5.63102 0.830921 0
M  V30 1201 N 112.508 -5.70648 -1.06493 0
M  V30 1202 H 115.273 -2.57439 1.53444 0
M  V30 1203 H 112.834 -1.31057 0.950557 0
M  V30 1204 H 114.826 -4.00936 -0.550685 0
M  V30 1205 H 113.396 -2.99947 -0.880386 0
M  V30 1206 H 112.616 -3.63617 1.52238 0
M  V30 1207 H 113.904 -4.85393 1.52548 0
M  V30 1208 H 113.302 -5.42482 -1.60405 0
M  V30 1209 H 111.859 -6.34859 -1.47641 0
M  V30 1210 N 115.292 -0.849877 -1.32721 0
M  V30 1211 C 116.52 -0.464754 -2.01613 0
M  V30 1212 C 116.935 0.937191 -1.63897 0
M  V30 1213 O 116.292 1.61081 -0.857856 0
M  V30 1214 C 116.343 -0.588638 -3.56675 0
M  V30 1215 O 116.064 -1.93535 -3.93034 0
M  V30 1216 C 117.565 -0.2019 -4.4284 0
M  V30 1217 H 114.785 -0.183215 -0.645502 0
M  V30 1218 H 117.329 -1.1455 -1.69407 0
M  V30 1219 H 115.484 0.0443159 -3.87375 0
M  V30 1220 H 115.898 -1.92871 -4.87751 0
M  V30 1221 H 117.372 -0.339599 -5.50954 0
M  V30 1222 H 117.849 0.857224 -4.30753 0
M  V30 1223 H 118.455 -0.809733 -4.17521 0
M  V30 1224 N 116.77 1.45427 -0.607355 0
M  V30 1225 C 117.7 2.3329 0.0989352 0
M  V30 1226 C 118.681 1.46816 0.859007 0
M  V30 1227 O 119.866 1.75588 0.829604 0
M  V30 1228 C 116.996 3.29518 1.09705 0
M  V30 1229 C 115.95 4.25626 0.450206 0
M  V30 1230 C 115.276 5.11542 1.55655 0
M  V30 1231 C 116.576 5.18505 -0.628455 0
M  V30 1232 H 118.27 2.92595 -0.634716 0
M  V30 1233 H 115.816 1.40696 -0.306681 0
M  V30 1234 H 117.769 3.89855 1.59971 0
M  V30 1235 H 116.493 2.68372 1.86129 0
M  V30 1236 H 115.152 3.66586 -0.0315886 0
M  V30 1237 H 114.8 4.46765 2.31107 0
M  V30 1238 H 114.5 5.76647 1.12925 0
M  V30 1239 H 116.024 5.74748 2.06148 0
M  V30 1240 H 117.438 5.72916 -0.209877 0
M  V30 1241 H 115.835 5.92085 -0.977489 0
M  V30 1242 H 116.905 4.60948 -1.50514 0
M  V30 1243 N 118.248 0.346503 1.53744 0
M  V30 1244 C 119.495 -0.249104 2.00962 0
M  V30 1245 C 119.823 -1.5032 1.23426 0
M  V30 1246 O 119.078 -1.93217 0.310761 0
M  V30 1247 C 119.377 -0.605809 3.52228 0
M  V30 1248 C 119.043 0.551747 4.47512 0
M  V30 1249 C 117.705 0.86941 4.73281 0
M  V30 1250 C 120.057 1.32818 5.03993 0
M  V30 1251 C 117.385 1.96582 5.52786 0
M  V30 1252 C 119.737 2.41486 5.84694 0
M  V30 1253 C 118.401 2.73808 6.08757 0
M  V30 1254 H 117.671 -0.0911538 0.735372 0
M  V30 1255 H 120.318 0.475027 1.85515 0
M  V30 1256 H 118.623 -1.4107 3.65522 0
M  V30 1257 H 120.32 -1.07858 3.86222 0
M  V30 1258 H 116.91 0.294102 4.2759 0
M  V30 1259 H 121.094 1.09602 4.84047 0
M  V30 1260 H 116.35 2.22045 5.69654 0
M  V30 1261 H 120.524 3.02078 6.27473 0
M  V30 1262 H 118.151 3.58892 6.7015 0
M  V30 1263 N 119.726 -1.57421 0.075193 0
M  V30 1264 C 120.636 -2.1642 -0.905511 0
M  V30 1265 C 121.652 -1.12828 -1.32461 0
M  V30 1266 O 122.828 -1.45109 -1.39661 0
M  V30 1267 C 119.893 -2.71693 -2.15369 0
M  V30 1268 C 118.954 -3.90171 -1.79068 0
M  V30 1269 C 118.187 -4.42798 -2.97936 0
M  V30 1270 O 118.41 -3.94416 -4.12058 0
M  V30 1271 O 117.344 -5.34085 -2.77555 0
M  V30 1272 H 121.17 -3.00588 -0.433626 0
M  V30 1273 H 118.755 -1.48664 -0.148067 0
M  V30 1274 H 120.637 -3.07104 -2.88557 0
M  V30 1275 H 119.312 -1.90582 -2.61649 0
M  V30 1276 H 118.219 -3.59606 -1.03122 0
M  V30 1277 H 119.552 -4.72584 -1.37569 0
M  V30 1278 N 121.204 0.198386 -1.56346 0
M  V30 1279 C 122.453 0.917451 -1.79627 0
M  V30 1280 C 122.766 1.8456 -0.64784 0
M  V30 1281 O 123.972 2.60504 -0.764859 0
M  V30 1282 C 122.428 1.68175 -3.18191 0
M  V30 1283 C 122.036 0.798589 -4.40825 0
M  V30 1284 C 123.78 2.39065 -3.50782 0
M  V30 1285 C 121.687 1.56157 -5.70411 0
M  V30 1286 H 120.617 0.346317 -0.669762 0
M  V30 1287 H 123.268 0.170801 -1.82703 0
M  V30 1288 H 121.65 2.47216 -3.09354 0
M  V30 1289 H 122.824 0.0470665 -4.60776 0
M  V30 1290 H 121.139 0.200686 -4.15916 0
M  V30 1291 H 123.736 2.96692 -4.44835 0
M  V30 1292 H 124.079 3.13091 -2.74371 0
M  V30 1293 H 124.612 1.66993 -3.61052 0
M  V30 1294 H 121.351 0.864142 -6.49779 0
M  V30 1295 H 120.871 2.2871 -5.54483 0
M  V30 1296 H 122.55 2.11622 -6.11412 0
M  V30 1297 N 122.682 1.50554 0.465978 0
M  V30 1298 C 123.93 1.61479 1.21528 0
M  V30 1299 C 124.251 0.319596 1.92363 0
M  V30 1300 O 123.521 -0.663194 1.84333 0
M  V30 1301 H 122.101 0.595055 0.451573 0
M  V30 1302 H 124.763 1.87355 0.53704 0
M  V30 1303 H 123.859 2.42846 1.96042 0
M  V30 1304 N 124.16 -0.719506 1.40217 0
M  V30 1305 C 125.385 -1.51371 1.4178 0
M  V30 1306 C 125.81 -1.88091 0.0182355 0
M  V30 1307 O 125.168 -1.52997 -0.972707 0
M  V30 1308 C 125.216 -2.768 2.31115 0
M  V30 1309 O 124.32 -3.73349 1.7517 0
M  V30 1310 H 123.661 -0.456529 0.482159 0
M  V30 1311 H 126.191 -0.88644 1.844 0
M  V30 1312 H 126.201 -3.25371 2.46167 0
M  V30 1313 H 124.876 -2.49407 3.3282 0
M  V30 1314 H 123.453 -3.32179 1.69444 0
M  V30 1315 N 125.638 -1.25649 -0.95132 0
M  V30 1316 C 126.884 -1.10757 -1.69884 0
M  V30 1317 C 127.217 0.350061 -1.91019 0
M  V30 1318 O 126.492 1.25783 -1.48354 0
M  V30 1319 C 126.775 -1.86606 -3.07978 0
M  V30 1320 C 126.628 -3.40217 -2.94232 0
M  V30 1321 C 127.947 -1.65182 -4.07925 0
M  V30 1322 H 125.066 -0.40374 -0.616574 0
M  V30 1323 H 127.708 -1.54521 -1.10558 0
M  V30 1324 H 125.858 -1.49409 -3.58621 0
M  V30 1325 H 127.53 -3.87108 -2.50889 0
M  V30 1326 H 125.773 -3.67759 -2.30078 0
M  V30 1327 H 126.444 -3.88505 -3.92133 0
M  V30 1328 H 128.92 -1.9757 -3.66204 0
M  V30 1329 H 127.796 -2.20683 -5.02583 0
M  V30 1330 H 128.057 -0.593933 -4.38092 0
M  V30 1331 N 127.117 1.15442 -1.07289 0
M  V30 1332 C 128.342 1.90638 -0.816828 0
M  V30 1333 C 128.767 1.77445 0.624083 0
M  V30 1334 O 128.125 1.10671 1.43602 0
M  V30 1335 C 128.173 3.39008 -1.22906 0
M  V30 1336 O 127.277 4.10701 -0.373975 0
M  V30 1337 H 126.618 0.593555 -0.297638 0
M  V30 1338 H 129.148 1.46198 -1.43134 0
M  V30 1339 H 129.158 3.89801 -1.20497 0
M  V30 1340 H 127.833 3.47929 -2.27856 0
M  V30 1341 H 126.41 3.70046 -0.460499 0
M  V30 1342 N 128.595 0.856903 1.32268 0
M  V30 1343 C 129.542 0.301172 2.28827 0
M  V30 1344 C 130.512 -0.593104 1.5515 0
M  V30 1345 O 131.697 -0.527537 1.83362 0
M  V30 1346 C 128.837 -0.502523 3.41422 0
M  V30 1347 C 127.95 0.417797 4.29975 0
M  V30 1348 C 127.085 -0.398749 5.29701 0
M  V30 1349 C 126.124 0.518827 6.09897 0
M  V30 1350 N 125.261 -0.260674 7.01616 0
M  V30 1351 H 130.101 1.12983 2.75751 0
M  V30 1352 H 127.638 0.568582 1.35667 0
M  V30 1353 H 129.596 -0.984141 4.05426 0
M  V30 1354 H 128.226 -1.29599 2.95642 0
M  V30 1355 H 127.278 1.01781 3.66531 0
M  V30 1356 H 128.59 1.12191 4.86019 0
M  V30 1357 H 127.744 -0.943435 5.9932 0
M  V30 1358 H 126.483 -1.13622 4.7428 0
M  V30 1359 H 125.488 1.07538 5.39181 0
M  V30 1360 H 126.713 1.25495 6.67404 0
M  V30 1361 H 124.659 -0.981198 6.4862 0
M  V30 1362 H 124.576 0.384364 7.55022 0
M  V30 1363 H 125.844 -0.787014 7.75517 0
M  V30 1364 N 130.073 -1.45103 0.615059 0
M  V30 1365 C 131.301 -2.06553 0.11977 0
M  V30 1366 C 131.716 -1.45842 -1.19898 0
M  V30 1367 O 131.073 -0.575325 -1.73194 0
M  V30 1368 C 131.124 -3.61495 -0.018364 0
M  V30 1369 O 130.845 -4.19942 1.24822 0
M  V30 1370 C 132.346 -4.39947 -0.544237 0
M  V30 1371 H 129.566 -0.667096 0.0722739 0
M  V30 1372 H 132.11 -1.8623 0.84491 0
M  V30 1373 H 130.265 -3.81135 -0.693865 0
M  V30 1374 H 130.679 -5.13204 1.0827 0
M  V30 1375 H 132.153 -5.48838 -0.589953 0
M  V30 1376 H 132.63 -4.10255 -1.56805 0
M  V30 1377 H 133.236 -4.25188 0.0974703 0
M  V30 1378 N 131.551 -0.354651 -1.53558 0
M  V30 1379 C 132.481 0.489091 -2.2832 0
M  V30 1380 C 133.462 1.09324 -1.30316 0
M  V30 1381 O 134.647 1.11255 -1.59173 0
M  V30 1382 C 131.777 1.63456 -3.0643 0
M  V30 1383 C 130.731 1.1582 -4.12031 0
M  V30 1384 C 130.057 2.39305 -4.7816 0
M  V30 1385 C 131.357 0.250731 -5.21698 0
M  V30 1386 H 133.051 -0.134614 -2.99097 0
M  V30 1387 H 130.597 -0.0661826 -1.43848 0
M  V30 1388 H 132.55 2.23136 -3.57475 0
M  V30 1389 H 131.274 2.28533 -2.33325 0
M  V30 1390 H 129.933 0.584146 -3.61916 0
M  V30 1391 H 129.581 3.02814 -4.01637 0
M  V30 1392 H 129.281 2.08109 -5.49513 0
M  V30 1393 H 130.805 2.99691 -5.31994 0
M  V30 1394 H 132.219 0.754695 -5.68311 0
M  V30 1395 H 130.616 0.0301468 -6.00092 0
M  V30 1396 H 131.686 -0.710125 -4.79672 0
M  V30 1397 N 133.029 1.57378 -0.0835403 0
M  V30 1398 C 134.257 1.98263 0.59157 0
M  V30 1399 C 134.672 0.962302 1.62435 0
M  V30 1400 O 134.029 -0.049581 1.82433 0
M  V30 1401 C 134.08 3.39214 1.24965 0
M  V30 1402 O 133.801 4.37339 0.258186 0
M  V30 1403 C 135.302 3.95038 2.01147 0
M  V30 1404 H 132.522 0.651773 0.159477 0
M  V30 1405 H 135.066 2.03878 -0.159415 0
M  V30 1406 H 133.221 3.34649 1.95164 0
M  V30 1407 H 133.635 5.19371 0.731734 0
M  V30 1408 H 135.109 4.95848 2.42567 0
M  V30 1409 H 135.586 3.32222 2.87272 0
M  V30 1410 H 136.192 4.0304 1.35789 0
M  V30 1411 N 134.507 -0.190092 1.56449 0
M  V30 1412 C 135.47 -1.21925 1.9408 0
M  V30 1413 C 136.47 -1.38176 0.822431 0
M  V30 1414 O 137.66 -1.35903 1.08977 0
M  V30 1415 C 134.792 -2.58773 2.21922 0
M  V30 1416 H 135.985 -0.897464 2.86157 0
M  V30 1417 H 133.538 -0.43181 1.50217 0
M  V30 1418 H 134.273 -2.95998 1.32499 0
M  V30 1419 H 134.058 -2.48348 3.03424 0
M  V30 1420 H 135.548 -3.32978 2.52022 0
M  V30 1421 N 135.985 -1.50799 -0.457987 0
M  V30 1422 C 137.213 -1.66218 -1.23203 0
M  V30 1423 C 137.628 -0.350894 -1.85511 0
M  V30 1424 O 136.985 0.668546 -1.69814 0
M  V30 1425 C 137.036 -2.76291 -2.33121 0
M  V30 1426 O 136.757 -4.02338 -1.73366 0
M  V30 1427 C 138.258 -3.028 -3.2377 0
M  V30 1428 H 135.478 -0.558361 -0.372121 0
M  V30 1429 H 138.022 -1.97099 -0.545179 0
M  V30 1430 H 136.177 -2.48068 -2.97558 0
M  V30 1431 H 136.591 -4.63312 -2.4585 0
M  V30 1432 H 138.065 -3.8345 -3.97077 0
M  V30 1433 H 138.542 -2.14385 -3.83322 0
M  V30 1434 H 139.148 -3.32604 -2.65056 0
M  V30 1435 N 137.463 0.71206 -1.40597 0
M  V30 1436 C 138.393 1.83889 -1.43899 0
M  V30 1437 C 139.374 1.67442 -0.299504 0
M  V30 1438 O 140.559 1.87421 -0.508624 0
M  V30 1439 C 137.689 3.21877 -1.30431 0
M  V30 1440 C 136.643 3.53002 -2.42019 0
M  V30 1441 C 135.969 4.90172 -2.13626 0
M  V30 1442 C 137.269 3.53643 -3.84362 0
M  V30 1443 H 138.963 1.81383 -2.38203 0
M  V30 1444 H 136.509 0.871237 -1.14654 0
M  V30 1445 H 138.462 4.00404 -1.31357 0
M  V30 1446 H 137.186 3.24968 -0.326049 0
M  V30 1447 H 135.845 2.76818 -2.40349 0
M  V30 1448 H 135.493 4.89869 -1.14182 0
M  V30 1449 H 135.193 5.11962 -2.88389 0
M  V30 1450 H 136.717 5.71028 -2.1624 0
M  V30 1451 H 138.131 4.22203 -3.87837 0
M  V30 1452 H 136.528 3.86961 -4.58673 0
M  V30 1453 H 137.598 2.52954 -4.13693 0
M  V30 1454 N 138.941 1.26152 0.944643 0
M  V30 1455 C 140.189 1.11271 1.6871 0
M  V30 1456 C 140.51 -0.345166 1.91921 0
M  V30 1457 O 139.78 -1.24387 1.51343 0
M  V30 1458 H 138.36 0.408783 0.625224 0
M  V30 1459 H 141.022 1.58427 1.1352 0
M  V30 1460 H 140.118 1.62879 2.66227 0
M  V30 1461 N 140.419 -1.14872 1.07899 0
M  V30 1462 C 141.382 -2.17986 0.708161 0
M  V30 1463 C 142.382 -1.58775 -0.25442 0
M  V30 1464 O 143.572 -1.74166 -0.034645 0
M  V30 1465 C 140.704 -3.40871 0.0446929 0
M  V30 1466 H 141.897 -2.52306 1.62116 0
M  V30 1467 H 139.45 -1.2943 0.876218 0
M  V30 1468 H 140.185 -3.12124 -0.880281 0
M  V30 1469 H 139.97 -3.8511 0.737091 0
M  V30 1470 H 141.46 -4.17121 -0.19991 0
M  V30 1471 N 141.898 -0.863906 -1.31812 0
M  V30 1472 C 143.128 -0.485406 -2.00817 0
M  V30 1473 C 143.536 0.925007 -1.65046 0
M  V30 1474 O 142.879 1.61653 -0.872574 0
M  V30 1475 C 142.941 -0.555589 -3.55181 0
M  V30 1476 C 142.605 -1.92654 -4.14407 0
M  V30 1477 C 143.602 -2.89324 -4.31958 0
M  V30 1478 C 141.287 -2.2262 -4.50273 0
M  V30 1479 C 143.281 -4.14108 -4.84555 0
M  V30 1480 C 140.968 -3.47654 -5.02573 0
M  V30 1481 C 141.966 -4.43214 -5.19664 0
M  V30 1482 O 141.654 -5.66033 -5.70843 0
M  V30 1483 H 141.386 -0.188224 -0.649267 0
M  V30 1484 H 143.94 -1.16514 -1.69156 0
M  V30 1485 H 142.17 0.181037 -3.86276 0
M  V30 1486 H 143.859 -0.19138 -4.05449 0
M  V30 1487 H 144.625 -2.6748 -4.04573 0
M  V30 1488 H 140.504 -1.4902 -4.3625 0
M  V30 1489 H 144.048 -4.88703 -4.9781 0
M  V30 1490 H 139.945 -3.69345 -5.29391 0
M  V30 1491 H 140.713 -5.6812 -5.89222 0
M  V30 1492 N 143.376 1.44774 -0.622745 0
M  V30 1493 C 144.339 2.29069 0.0774015 0
M  V30 1494 C 145.339 1.4059 0.780461 0
M  V30 1495 O 146.529 1.62551 0.626322 0
M  V30 1496 C 143.661 3.21974 1.12006 0
M  V30 1497 H 144.854 2.92459 -0.663901 0
M  V30 1498 H 142.407 1.51548 -0.382486 0
M  V30 1499 H 143.142 2.63417 1.89162 0
M  V30 1500 H 142.927 3.87168 0.619951 0
M  V30 1501 H 144.417 3.85318 1.60995 0
M  V30 1502 N 144.854 0.36279 1.53368 0
M  V30 1503 C 145.817 -0.472679 2.24273 0
M  V30 1504 C 146.817 -1.012 1.24961 0
M  V30 1505 O 148.007 -0.898194 1.49259 0
M  V30 1506 C 145.139 -1.66039 2.97731 0
M  V30 1507 H 146.332 0.14773 2.99536 0
M  V30 1508 H 143.885 0.114434 1.55881 0
M  V30 1509 H 144.62 -2.31896 2.26704 0
M  V30 1510 H 144.405 -1.28066 3.70596 0
M  V30 1511 H 145.895 -2.25252 3.51641 0
M  V30 1512 N 146.332 -1.57332 0.0918853 0
M  V30 1513 C 147.578 -1.94524 -0.573425 0
M  V30 1514 C 147.911 -0.973578 -1.68033 0
M  V30 1515 O 147.186 -0.00609226 -1.94499 0
M  V30 1516 C 147.469 -3.41858 -1.13161 0
M  V30 1517 C 147.322 -4.4979 -0.0299747 0
M  V30 1518 C 148.641 -3.90435 -2.03098 0
M  V30 1519 H 145.76 -0.70734 -0.206975 0
M  V30 1520 H 148.402 -1.89309 0.161942 0
M  V30 1521 H 146.552 -3.46433 -1.7583 0
M  V30 1522 H 148.224 -4.57327 0.604112 0
M  V30 1523 H 146.467 -4.291 0.636833 0
M  V30 1524 H 147.138 -5.50069 -0.461287 0
M  V30 1525 H 149.614 -3.87992 -1.50338 0
M  V30 1526 H 148.49 -4.94097 -2.39081 0
M  V30 1527 H 148.751 -3.29541 -2.94712 0
M  V30 1528 N 147.81 0.181792 -1.56548 0
M  V30 1529 C 148.757 1.22521 -1.95595 0
M  V30 1530 C 149.727 1.4454 -0.818373 0
M  V30 1531 O 150.912 1.57454 -1.07763 0
M  V30 1532 C 148.052 2.56193 -2.31212 0
M  V30 1533 C 147.165 2.41641 -3.58097 0
M  V30 1534 C 146.3 3.68108 -3.82975 0
M  V30 1535 C 145.339 3.48445 -5.03242 0
M  V30 1536 N 144.476 4.66956 -5.24306 0
M  V30 1537 H 149.316 0.885226 -2.84548 0
M  V30 1538 H 146.853 0.425718 -1.40805 0
M  V30 1539 H 148.811 3.34088 -2.49882 0
M  V30 1540 H 147.441 2.88208 -1.45382 0
M  V30 1541 H 146.493 1.54976 -3.474 0
M  V30 1542 H 147.805 2.23052 -4.46149 0
M  V30 1543 H 146.959 4.54441 -4.01956 0
M  V30 1544 H 145.698 3.89666 -2.93278 0
M  V30 1545 H 144.703 2.60499 -4.8417 0
M  V30 1546 H 145.928 3.2832 -5.9446 0
M  V30 1547 H 143.874 4.88752 -4.37559 0
M  V30 1548 H 143.791 4.51242 -6.06561 0
M  V30 1549 H 145.059 5.54602 -5.47756 0
M  V30 1550 N 149.288 1.51039 0.449983 0
M  V30 1551 C 150.536 1.62759 1.19808 0
M  V30 1552 C 150.857 0.339981 1.92013 0
M  V30 1553 O 150.127 -0.643606 1.85026 0
M  V30 1554 H 148.707 0.599811 0.445237 0
M  V30 1555 H 151.369 1.87914 0.517138 0
M  V30 1556 H 150.465 2.44911 1.93455 0
M  V30 1557 N 150.766 -0.704594 1.40972 0
M  V30 1558 C 152.014 -1.46169 1.39568 0
M  V30 1559 C 152.335 -1.95 0.00253745 0
M  V30 1560 O 151.605 -1.71095 -0.954114 0
M  V30 1561 H 150.185 -0.542326 0.513704 0
M  V30 1562 H 152.847 -0.834553 1.76128 0
M  V30 1563 H 151.943 -2.32922 2.07735 0
M  V30 1564 N 152.244 -1.26651 -0.937939 0
M  V30 1565 C 153.491 -1.12387 -1.6845 0
M  V30 1566 C 153.819 0.332208 -1.91642 0
M  V30 1567 O 153.074 1.2602 -1.49725 0
M  V30 1568 C 153.373 -1.84168 -3.06295 0
M  V30 1569 C 153.039 -3.34056 -3.02849 0
M  V30 1570 C 151.701 -3.74942 -3.01616 0
M  V30 1571 C 154.053 -4.29741 -2.9491 0
M  V30 1572 C 151.381 -5.09894 -2.90215 0
M  V30 1573 C 153.733 -5.64738 -2.8505 0
M  V30 1574 C 152.397 -6.0493 -2.82162 0
M  V30 1575 H 151.667 -0.411252 -0.616403 0
M  V30 1576 H 154.314 -1.57134 -1.09459 0
M  V30 1577 H 152.619 -1.319 -3.6893 0
M  V30 1578 H 154.316 -1.70569 -3.62915 0
M  V30 1579 H 150.906 -3.01534 -3.0459 0
M  V30 1580 H 155.09 -3.99133 -2.94969 0
M  V30 1581 H 150.346 -5.40194 -2.86358 0
M  V30 1582 H 154.52 -6.38561 -2.77872 0
M  V30 1583 H 152.147 -7.09457 -2.73084 0
M  V30 1584 N 153.722 1.14298 -1.08507 0
M  V30 1585 C 154.632 2.23027 -0.727753 0
M  V30 1586 C 155.648 1.71952 0.26619 0
M  V30 1587 O 156.824 2.011 0.109882 0
M  V30 1588 C 153.889 3.46403 -0.143541 0
M  V30 1589 C 152.95 4.12413 -1.19223 0
M  V30 1590 C 152.183 5.29899 -0.635798 0
M  V30 1591 O 152.406 5.67796 0.544393 0
M  V30 1592 O 151.34 5.85717 -1.38634 0
M  V30 1593 H 155.166 2.55945 -1.63481 0
M  V30 1594 H 152.751 1.22248 -0.858817 0
M  V30 1595 H 154.633 4.21018 0.179404 0
M  V30 1596 H 153.308 3.15206 0.736659 0
M  V30 1597 H 152.215 3.39667 -1.56772 0
M  V30 1598 H 153.548 4.47718 -2.04474 0
M  V30 1599 N 155.201 0.870884 1.31352 0
M  V30 1600 C 156.131 0.343096 2.30966 0
M  V30 1601 C 157.112 -0.566507 1.60389 0
M  V30 1602 O 158.297 -0.483336 1.88089 0
M  V30 1603 C 155.427 -0.455487 3.443 0
M  V30 1604 C 154.381 0.361103 4.26474 0
M  V30 1605 C 153.707 -0.563221 5.31725 0
M  V30 1606 C 155.007 1.59566 4.97329 0
M  V30 1607 H 156.701 1.17548 2.75359 0
M  V30 1608 H 154.247 0.566686 1.32381 0
M  V30 1609 H 156.2 -0.83525 4.13039 0
M  V30 1610 H 154.924 -1.32139 2.98675 0
M  V30 1611 H 153.583 0.722825 3.59403 0
M  V30 1612 H 153.231 -1.42643 4.82351 0
M  V30 1613 H 152.931 -0.0207409 5.87596 0
M  V30 1614 H 154.455 -0.939808 6.03324 0
M  V30 1615 H 155.869 1.28728 5.58661 0
M  V30 1616 H 154.266 2.07728 5.63 0
M  V30 1617 H 155.336 2.34798 4.24262 0
M  V30 1618 N 156.679 -1.44442 0.630414 0
M  V30 1619 C 157.956 -1.9549 0.0655657 0
M  V30 1620 C 158.336 -1.5724 -1.40851 0
M  V30 1621 O 157.684 -0.846116 -2.12257 0
M  V30 1622 C 157.894 -3.47812 0.287691 0
M  V30 1623 C 159.242 -4.24216 0.180513 0
M  V30 1624 O 160.266 -3.55526 0.219019 0
M  V30 1625 O 159.125 -5.46434 0.0848493 0
M  V30 1626 H 156.219 -0.826688 -0.0227177 0
M  V30 1627 H 158.765 -1.54496 0.702068 0
M  V30 1628 H 157.537 -3.687 1.31056 0
M  V30 1629 H 157.16 -3.95751 -0.382984 0
M  V30 1630 N 158.157 -0.370918 -1.53173 0
M  V30 1631 C 159.434 0.273754 -1.93675 0
M  V30 1632 C 159.814 1.65938 -1.3049 0
M  V30 1633 O 159.162 2.23698 -0.465999 0
M  V30 1634 C 159.372 0.318602 -3.47543 0
M  V30 1635 C 160.72 0.556392 -4.20939 0
M  V30 1636 O 161.744 0.399587 -3.53952 0
M  V30 1637 O 160.603 0.862133 -5.39657 0
M  V30 1638 H 157.697 0.165448 -0.810281 0
M  V30 1639 H 160.243 -0.42409 -1.64315 0
M  V30 1640 H 159.015 -0.652687 -3.85818 0
M  V30 1641 H 158.638 1.06212 -3.83151 0
M  V30 1642 N 159.635 1.57281 -0.100228 0
M  V30 1643 C 160.582 2.14305 0.856858 0
M  V30 1644 C 161.552 1.06296 1.27634 0
M  V30 1645 O 162.737 1.34109 1.35718 0
M  V30 1646 C 159.877 2.73184 2.10866 0
M  V30 1647 C 158.99 3.95442 1.73925 0
M  V30 1648 C 158.125 4.42468 2.93931 0
M  V30 1649 C 157.164 5.57303 2.5314 0
M  V30 1650 N 156.301 5.99158 3.65997 0
M  V30 1651 H 161.141 2.95772 0.363726 0
M  V30 1652 H 158.678 1.46139 0.167858 0
M  V30 1653 H 160.636 3.05442 2.84185 0
M  V30 1654 H 159.266 1.94437 2.57671 0
M  V30 1655 H 158.318 3.69464 0.905554 0
M  V30 1656 H 159.63 4.78769 1.39935 0
M  V30 1657 H 158.784 4.76537 3.75496 0
M  V30 1658 H 157.523 3.58052 3.31134 0
M  V30 1659 H 156.528 5.22857 1.70003 0
M  V30 1660 H 157.753 6.43471 2.17075 0
M  V30 1661 H 155.699 5.17687 4.02909 0
M  V30 1662 H 155.616 6.77295 3.35869 0
M  V30 1663 H 156.884 6.3786 4.48057 0
M  V30 1664 N 161.113 -0.173488 1.56642 0
M  V30 1665 C 162.359 -0.891784 1.8214 0
M  V30 1666 C 162.692 -1.8199 0.677736 0
M  V30 1667 O 161.967 -1.91842 -0.320446 0
M  V30 1668 C 162.25 -1.68933 3.18015 0
M  V30 1669 C 162.103 -0.784487 4.42906 0
M  V30 1670 C 163.422 -2.65748 3.50808 0
M  V30 1671 H 160.541 -0.322761 0.662567 0
M  V30 1672 H 163.183 -0.158095 1.89341 0
M  V30 1673 H 161.333 -2.31482 3.12007 0
M  V30 1674 H 163.005 -0.172046 4.60979 0
M  V30 1675 H 161.248 -0.0924117 4.33702 0
M  V30 1676 H 161.919 -1.37799 5.34524 0
M  V30 1677 H 164.395 -2.13327 3.57255 0
M  V30 1678 H 163.271 -3.18619 4.4696 0
M  V30 1679 H 163.532 -3.45842 2.75401 0
M  V30 1680 N 162.591 -1.51276 -0.441967 0
M  V30 1681 C 163.816 -1.67799 -1.21895 0
M  V30 1682 C 164.241 -0.372864 -1.84367 0
M  V30 1683 O 163.599 0.666501 -1.68604 0
M  V30 1684 C 163.647 -2.79199 -2.28211 0
M  V30 1685 O 162.751 -2.42479 -3.33583 0
M  V30 1686 H 162.092 -0.559649 -0.357336 0
M  V30 1687 H 164.622 -1.97815 -0.522522 0
M  V30 1688 H 164.632 -3.03146 -2.73069 0
M  V30 1689 H 163.307 -3.73906 -1.82118 0
M  V30 1690 H 161.884 -2.29087 -2.94234 0
M  V30 1691 N 164.069 0.697108 -1.41344 0
M  V30 1692 C 165.001 1.8224 -1.39001 0
M  V30 1693 C 166.014 1.60152 -0.292428 0
M  V30 1694 O 167.203 1.69684 -0.554048 0
M  V30 1695 C 164.303 3.18976 -1.14489 0
M  V30 1696 C 163.476 3.68105 -2.36258 0
M  V30 1697 C 162.535 4.83506 -2.07625 0
M  V30 1698 O 161.561 4.95201 -2.8065 0
M  V30 1699 N 162.763 5.70637 -1.06555 0
M  V30 1700 H 165.528 1.84742 -2.35988 0
M  V30 1701 H 163.089 0.87937 -1.35936 0
M  V30 1702 H 165.081 3.93801 -0.932885 0
M  V30 1703 H 163.651 3.11508 -0.261043 0
M  V30 1704 H 162.871 2.84204 -2.7317 0
M  V30 1705 H 164.159 3.97667 -3.17393 0
M  V30 1706 H 163.557 5.63817 -0.461125 0
M  V30 1707 H 162.114 6.45368 -0.913444 0
M  V30 1708 N 165.547 1.27147 0.931209 0
M  V30 1709 C 166.497 1.06227 2.01742 0
M  V30 1710 C 167.481 -0.00859065 1.60898 0
M  V30 1711 O 168.673 0.209537 1.75755 0
M  V30 1712 C 165.802 0.707787 3.35924 0
M  V30 1713 C 164.888 1.81661 3.83223 0
M  V30 1714 N 165.279 3.05564 4.03069 0
M  V30 1715 C 163.577 1.70249 4.12227 0
M  V30 1716 C 164.278 3.77697 4.42403 0
M  V30 1717 N 163.254 3.0544 4.49675 0
M  V30 1718 H 167.056 2.00261 2.15111 0
M  V30 1719 H 164.57 1.1781 1.11779 0
M  V30 1720 H 166.567 0.539043 4.134 0
M  V30 1721 H 165.227 -0.224964 3.2392 0
M  V30 1722 H 166.238 3.41363 3.89476 0
M  V30 1723 H 162.915 0.840329 4.08956 0
M  V30 1724 H 164.305 4.84168 4.65866 0
M  V30 1725 N 167.025 -1.13721 1.09112 0
M  V30 1726 C 167.988 -2.17222 0.731241 0
M  V30 1727 C 168.988 -1.59035 -0.237566 0
M  V30 1728 O 170.178 -1.74192 -0.0161704 0
M  V30 1729 C 167.31 -3.40804 0.0808443 0
M  V30 1730 H 168.503 -2.50573 1.64783 0
M  V30 1731 H 166.056 -1.28493 0.889897 0
M  V30 1732 H 166.791 -3.1304 -0.847127 0
M  V30 1733 H 166.576 -3.84306 0.777896 0
M  V30 1734 H 168.066 -4.1731 -0.155657 0
M  V30 1735 N 168.503 -0.877838 -1.30888 0
M  V30 1736 C 169.914 -0.544193 -1.78593 0
M  V30 1737 C 170.265 0.939301 -1.72254 0
M  V30 1738 O 169.39 1.7337 -1.29505 0
M  V30 1739 C 169.985 -0.98105 -3.24285 0
M  V30 1740 C 168.544 -0.698935 -3.69854 0
M  V30 1741 C 167.691 -1.168 -2.51502 0
M  V30 1742 H 170.642 -1.06278 -1.17859 0
M  V30 1743 H 170.663 -0.307009 -3.79259 0
M  V30 1744 H 170.175 -2.06079 -3.28866 0
M  V30 1745 H 168.276 0.369112 -3.70767 0
M  V30 1746 H 168.389 -1.28148 -4.61644 0
M  V30 1747 H 166.753 -0.587535 -2.47831 0
M  V30 1748 H 167.536 -2.25533 -2.58824 0
M  V30 1749 N 169.982 1.44106 -0.638065 0
M  V30 1750 C 171.228 2.02815 -0.15409 0
M  V30 1751 C 171.583 1.49342 1.21304 0
M  V30 1752 O 170.876 0.670699 1.79478 0
M  V30 1753 C 171.07 3.5729 -0.0887327 0
M  V30 1754 C 170.899 4.2575 -1.44799 0
M  V30 1755 C 169.669 4.62443 -2.03653 0
M  V30 1756 C 171.867 4.55746 -2.38327 0
M  V30 1757 N 169.849 5.15903 -3.32741 0
M  V30 1758 C 171.22 5.10364 -3.52036 0
M  V30 1759 C 173.275 4.37703 -2.3732 0
M  V30 1760 C 171.978 5.48837 -4.64941 0
M  V30 1761 C 174.004 4.77229 -3.49294 0
M  V30 1762 C 173.366 5.31966 -4.61726 0
M  V30 1763 H 169.465 0.775519 -0.100466 0
M  V30 1764 H 172.049 1.755 -0.843071 0
M  V30 1765 H 170.22 3.84201 0.569548 0
M  V30 1766 H 171.952 4.02671 0.404711 0
M  V30 1767 H 168.707 4.46987 -1.56523 0
M  V30 1768 H 169.131 5.47102 -3.98758 0
M  V30 1769 H 173.773 3.94671 -1.51641 0
M  V30 1770 H 171.491 5.9082 -5.51323 0
M  V30 1771 H 175.077 4.64976 -3.49698 0
M  V30 1772 H 173.957 5.61986 -5.46939 0
M  V30 1773 N 171.46 0.379036 1.52974 0
M  V30 1774 C 172.39 -0.452706 2.29069 0
M  V30 1775 C 173.371 -1.07237 1.32039 0
M  V30 1776 O 174.556 -1.08708 1.60923 0
M  V30 1777 C 171.686 -1.5856 3.08992 0
M  V30 1778 C 170.64 -1.0925 4.13822 0
M  V30 1779 C 169.966 -2.31668 4.81907 0
M  V30 1780 C 171.266 -0.167702 5.22031 0
M  V30 1781 H 172.96 0.182181 2.98845 0
M  V30 1782 H 170.506 0.0890592 1.43724 0
M  V30 1783 H 172.459 -2.1742 3.6098 0
M  V30 1784 H 171.183 -2.24792 2.36931 0
M  V30 1785 H 169.842 -0.526494 3.628 0
M  V30 1786 H 169.49 -2.96386 4.06404 0
M  V30 1787 H 169.19 -1.9934 5.52754 0
M  V30 1788 H 170.714 -2.91189 5.36695 0
M  V30 1789 H 172.128 -0.664186 5.6944 0
M  V30 1790 H 170.525 0.0653265 6.00064 0
M  V30 1791 H 171.595 0.786347 4.78482 0
M  V30 1792 N 172.938 -1.57226 0.108567 0
M  V30 1793 C 173.885 -2.14756 -0.845481 0
M  V30 1794 C 174.855 -1.06971 -1.27068 0
M  V30 1795 O 176.04 -1.34827 -1.35005 0
M  V30 1796 C 173.18 -2.74298 -2.09415 0
M  V30 1797 C 172.293 -3.96358 -1.71826 0
M  V30 1798 C 171.428 -4.44021 -2.9158 0
M  V30 1799 C 170.467 -5.58637 -2.50181 0
M  V30 1800 N 169.604 -6.01091 -3.62814 0
M  V30 1801 H 174.444 -2.95961 -0.348035 0
M  V30 1802 H 171.981 -1.46226 -0.160106 0
M  V30 1803 H 173.939 -3.06945 -2.82561 0
M  V30 1804 H 172.569 -1.95801 -2.56636 0
M  V30 1805 H 171.621 -3.69939 -0.885947 0
M  V30 1806 H 172.933 -4.79504 -1.37394 0
M  V30 1807 H 172.087 -4.78522 -3.72963 0
M  V30 1808 H 170.826 -3.59803 -3.29231 0
M  V30 1809 H 169.831 -5.23751 -1.67228 0
M  V30 1810 H 171.056 -6.44613 -2.13659 0
M  V30 1811 H 169.002 -5.19817 -4.00158 0
M  V30 1812 H 168.919 -6.79066 -3.32273 0
M  V30 1813 H 170.187 -6.40227 -4.44668 0
M  V30 1814 N 174.416 0.165178 -1.56732 0
M  V30 1815 C 175.664 0.879068 -1.8198 0
M  V30 1816 C 175.985 1.82514 -0.686561 0
M  V30 1817 O 175.255 1.93694 0.293146 0
M  V30 1818 H 173.835 0.327608 -0.671329 0
M  V30 1819 H 176.497 0.163526 -1.94213 0
M  V30 1820 H 175.593 1.45228 -2.76252 0
M  V30 1821 N 175.894 1.51508 0.433938 0
M  V30 1822 C 177.119 1.68443 1.21003 0
M  V30 1823 C 177.544 0.382636 1.84167 0
M  V30 1824 O 176.902 -0.65755 1.68956 0
M  V30 1825 C 176.95 2.80405 2.26727 0
M  V30 1826 O 176.054 2.44245 3.32292 0
M  V30 1827 H 175.395 0.561536 0.354363 0
M  V30 1828 H 177.925 1.9809 0.512024 0
M  V30 1829 H 177.935 3.0459 2.71457 0
M  V30 1830 H 176.61 3.74867 1.80132 0
M  V30 1831 H 175.187 2.30644 2.93015 0
M  V30 1832 N 177.372 -0.689602 1.41712 0
M  V30 1833 C 178.335 -1.78521 1.43746 0
M  V30 1834 C 179.335 -1.57436 0.327191 0
M  V30 1835 O 180.525 -1.64 0.587348 0
M  V30 1836 C 177.657 -3.16971 1.25467 0
M  V30 1837 H 178.85 -1.78108 2.41283 0
M  V30 1838 H 176.403 -0.89781 1.27942 0
M  V30 1839 H 177.138 -3.23019 0.287948 0
M  V30 1840 H 176.923 -3.33678 2.05917 0
M  V30 1841 H 178.413 -3.96935 1.2974 0
M  V30 1842 N 178.85 -1.27639 -0.924453 0
M  V30 1843 C 180.097 -1.14167 -1.67249 0
M  V30 1844 C 180.425 0.311863 -1.91984 0
M  V30 1845 O 179.68 1.24425 -1.51053 0
M  V30 1846 C 179.979 -1.87407 -3.04325 0
M  V30 1847 C 179.645 -3.37249 -2.99289 0
M  V30 1848 C 178.307 -3.7812 -2.97622 0
M  V30 1849 C 180.659 -4.32845 -2.90336 0
M  V30 1850 C 177.987 -5.12944 -2.8479 0
M  V30 1851 C 180.339 -5.6773 -2.79045 0
M  V30 1852 C 179.003 -6.07889 -2.7573 0
M  V30 1853 H 178.273 -0.417766 -0.612007 0
M  V30 1854 H 180.92 -1.58286 -1.07786 0
M  V30 1855 H 179.225 -1.35805 -3.67511 0
M  V30 1856 H 180.922 -1.74408 -3.61086 0
M  V30 1857 H 177.512 -3.04748 -3.01374 0
M  V30 1858 H 181.696 -4.02239 -2.90719 0
M  V30 1859 H 176.952 -5.432 -2.80612 0
M  V30 1860 H 181.126 -6.41472 -2.71083 0
M  V30 1861 H 178.753 -7.12314 -2.65544 0
M  V30 1862 N 180.328 1.1314 -1.09713 0
M  V30 1863 C 181.605 1.80762 -0.747302 0
M  V30 1864 C 181.985 1.96663 0.767265 0
M  V30 1865 O 181.333 1.53706 1.69076 0
M  V30 1866 C 181.543 3.15606 -1.48975 0
M  V30 1867 C 182.891 3.90914 -1.65746 0
M  V30 1868 O 183.915 3.25239 -1.45251 0
M  V30 1869 O 182.774 5.08718 -1.9967 0
M  V30 1870 H 179.868 0.782103 -0.268782 0
M  V30 1871 H 182.414 1.20041 -1.19951 0
M  V30 1872 H 181.186 2.99278 -2.52088 0
M  V30 1873 H 180.809 3.84029 -1.02991 0
M  V30 1874 N 181.806 0.884767 1.30421 0
M  V30 1875 C 183.054 0.502112 1.95763 0
M  V30 1876 C 183.375 -0.951815 1.70192 0
M  V30 1877 O 182.645 -1.6692 1.0254 0
M  V30 1878 H 181.225 0.182694 0.724315 0
M  V30 1879 H 183.887 1.1278 1.58955 0
M  V30 1880 H 182.983 0.672188 3.04775 0
M  V30 1881 N 183.284 -1.43765 0.645699 0
M  V30 1882 C 184.53 -2.02197 0.156271 0
M  V30 1883 C 184.863 -1.50776 -1.22393 0
M  V30 1884 O 184.138 -0.697771 -1.81553 0
M  V30 1885 C 184.421 -3.59749 0.158872 0
M  V30 1886 C 184.274 -4.21419 1.57245 0
M  V30 1887 C 185.593 -4.37149 -0.50879 0
M  V30 1888 H 182.712 -0.734694 0.0582602 0
M  V30 1889 H 185.354 -1.71157 0.824951 0
M  V30 1890 H 183.504 -3.86325 -0.410525 0
M  V30 1891 H 185.176 -4.059 2.19186 0
M  V30 1892 H 183.419 -3.78356 2.122 0
M  V30 1893 H 184.09 -5.30482 1.52619 0
M  V30 1894 H 186.566 -4.16093 -0.024412 0
M  V30 1895 H 185.442 -5.4683 -0.476213 0
M  V30 1896 H 185.703 -4.12839 -1.58165 0
M  V30 1897 N 184.763 -0.387143 -1.52771 0
M  V30 1898 C 185.991 0.195869 -2.05971 0
M  V30 1899 C 186.406 1.40691 -1.25903 0
M  V30 1900 O 185.763 1.79931 -0.305134 0
M  V30 1901 C 185.814 0.56812 -3.57008 0
M  V30 1902 O 185.535 -0.594803 -4.34043 0
M  V30 1903 C 187.036 1.20723 -4.26545 0
M  V30 1904 H 184.256 0.0300578 -0.670326 0
M  V30 1905 H 186.8 -0.551749 -1.96916 0
M  V30 1906 H 184.955 1.26564 -3.66143 0
M  V30 1907 H 185.369 -0.289322 -5.23701 0
M  V30 1908 H 186.843 1.41807 -5.33474 0
M  V30 1909 H 187.32 2.17395 -3.81623 0
M  V30 1910 H 187.926 0.550535 -4.21722 0
M  V30 1911 N 186.241 1.57166 -0.116904 0
M  V30 1912 C 187.174 2.10912 0.871291 0
M  V30 1913 C 188.152 1.025 1.26224 0
M  V30 1914 O 189.336 1.3014 1.36366 0
M  V30 1915 C 186.463 2.6041 2.16574 0
M  V30 1916 C 185.509 3.80687 1.92302 0
M  V30 1917 S 186.342 5.23199 1.14119 0
M  V30 1918 C 187.498 5.76064 2.44748 0
M  V30 1919 H 187.731 2.94401 0.414138 0
M  V30 1920 H 185.264 1.54096 0.096829 0
M  V30 1921 H 187.222 2.89583 2.9095 0
M  V30 1922 H 185.883 1.77106 2.59408 0
M  V30 1923 H 185.076 4.13462 2.8821 0
M  V30 1924 H 184.678 3.5212 1.26047 0
M  V30 1925 H 186.97 5.8566 3.406 0
M  V30 1926 H 187.913 6.74184 2.16521 0
M  V30 1927 H 188.321 5.04117 2.54019 0
M  V30 1928 N 187.719 -0.156864 1.56817 0
M  V30 1929 C 188.682 -1.17781 1.96622 0
M  V30 1930 C 189.682 -1.36401 0.851555 0
M  V30 1931 O 190.872 -1.33561 1.11836 0
M  V30 1932 C 188.004 -2.54008 2.27361 0
M  V30 1933 H 189.197 -0.836564 2.87996 0
M  V30 1934 H 186.75 -0.39985 1.51099 0
M  V30 1935 H 187.485 -2.9312 1.38748 0
M  V30 1936 H 187.27 -2.41856 3.08623 0
M  V30 1937 H 188.76 -3.27558 2.59029 0
M  V30 1938 N 189.197 -1.51736 -0.425897 0
M  V30 1939 C 190.107 -1.76738 -1.54275 0
M  V30 1940 C 191.123 -0.65211 -1.61318 0
M  V30 1941 O 192.299 -0.935654 -1.78346 0
M  V30 1942 C 189.364 -1.89755 -2.90162 0
M  V30 1943 C 188.425 -3.13633 -2.93143 0
M  V30 1944 C 187.658 -3.2602 -4.22548 0
M  V30 1945 O 187.881 -2.44067 -5.15546 0
M  V30 1946 O 186.815 -4.19071 -4.32046 0
M  V30 1947 H 190.641 -2.71502 -1.36089 0
M  V30 1948 H 188.226 -1.36376 -0.610069 0
M  V30 1949 H 190.108 -2.00236 -3.70788 0
M  V30 1950 H 188.783 -0.981785 -3.08452 0
M  V30 1951 H 187.69 -3.08622 -2.11431 0
M  V30 1952 H 189.023 -4.04936 -2.798 0
M  V30 1953 N 190.675 0.682077 -1.42076 0
M  V30 1954 C 191.605 1.80796 -1.47767 0
M  V30 1955 C 192.586 1.6677 -0.334954 0
M  V30 1956 O 193.771 1.863 -0.548264 0
M  V30 1957 C 190.901 3.19038 -1.37229 0
M  V30 1958 C 189.855 3.47789 -2.49453 0
M  V30 1959 C 189.181 4.8553 -2.23975 0
M  V30 1960 C 190.481 3.45411 -3.91776 0
M  V30 1961 H 192.175 1.7629 -2.41997 0
M  V30 1962 H 189.721 0.846721 -1.16476 0
M  V30 1963 H 191.674 3.97528 -1.39821 0
M  V30 1964 H 190.398 3.24204 -0.394907 0
M  V30 1965 H 189.057 2.71657 -2.46166 0
M  V30 1966 H 188.705 4.87337 -1.24547 0
M  V30 1967 H 188.405 5.0573 -2.99184 0
M  V30 1968 H 189.929 5.66312 -2.28304 0
M  V30 1969 H 191.343 4.13882 -3.96705 0
M  V30 1970 H 189.74 3.77145 -4.66778 0
M  V30 1971 H 190.81 2.44122 -4.18966 0
M  V30 1972 N 192.153 1.28127 0.917671 0
M  V30 1973 C 193.116 1.11744 2.00115 0
M  V30 1974 C 194.116 0.0583052 1.60694 0
M  V30 1975 O 195.306 0.303755 1.71531 0
M  V30 1976 C 192.438 0.704862 3.33533 0
M  V30 1977 H 193.631 2.07966 2.16079 0
M  V30 1978 H 191.184 1.11058 1.09981 0
M  V30 1979 H 191.919 -0.258299 3.2327 0
M  V30 1980 H 191.704 1.4699 3.63505 0
M  V30 1981 H 193.194 0.612768 4.1308 0
M  V30 1982 N 193.631 -1.12557 1.10312 0
M  V30 1983 C 194.859 -1.87864 0.866873 0
M  V30 1984 C 195.274 -1.79588 -0.582557 0
M  V30 1985 O 194.631 -1.16887 -1.40156 0
M  V30 1986 C 194.682 -3.37125 1.30496 0
M  V30 1987 O 194.403 -3.45201 2.69755 0
M  V30 1988 C 195.904 -4.29373 1.10243 0
M  V30 1989 H 193.124 -0.594452 0.311236 0
M  V30 1990 H 195.668 -1.42429 1.46745 0
M  V30 1991 H 193.823 -3.80109 0.748081 0
M  V30 1992 H 194.237 -4.38056 2.88457 0
M  V30 1993 H 195.711 -5.32394 1.45811 0
M  V30 1994 H 196.188 -4.39181 0.0409492 0
M  V30 1995 H 196.794 -3.92169 1.64571 0
M  V30 1996 N 195.109 -0.891671 -1.2995 0
M  V30 1997 C 196.339 -0.527893 -1.99742 0
M  V30 1998 C 196.747 0.88979 -1.66971 0
M  V30 1999 O 196.09 1.59766 -0.906667 0
M  V30 2000 C 196.152 -0.630804 -3.53922 0
M  V30 2001 C 195.816 -2.01401 -4.10228 0
M  V30 2002 C 196.813 -2.98422 -4.25724 0
M  V30 2003 C 194.498 -2.32121 -4.45449 0
M  V30 2004 C 196.492 -4.24293 -4.75662 0
M  V30 2005 C 194.179 -3.58237 -4.95086 0
M  V30 2006 C 195.177 -4.54137 -5.10146 0
M  V30 2007 O 194.865 -5.78014 -5.58708 0
M  V30 2008 H 194.597 -0.201953 -0.645129 0
M  V30 2009 H 197.151 -1.20076 -1.66646 0
M  V30 2010 H 195.381 0.0990616 -3.86573 0
M  V30 2011 H 197.07 -0.277338 -4.04951 0
M  V30 2012 H 197.836 -2.76001 -3.98809 0
M  V30 2013 H 193.715 -1.5824 -4.32991 0
M  V30 2014 H 197.259 -4.99153 -4.87332 0
M  V30 2015 H 193.156 -3.80491 -5.21437 0
M  V30 2016 H 193.924 -5.8049 -5.77039 0
M  V30 2017 N 196.587 1.43421 -0.653314 0
M  V30 2018 C 197.812 2.06678 -0.172846 0
M  V30 2019 C 198.237 1.48648 1.15262 0
M  V30 2020 O 197.595 0.596457 1.71208 0
M  V30 2021 C 197.643 3.60474 -0.0953184 0
M  V30 2022 O 196.747 4.01487 0.942442 0
M  V30 2023 H 196.088 0.657181 -0.0949155 0
M  V30 2024 H 198.618 1.83925 -0.896265 0
M  V30 2025 H 198.628 4.07905 0.0879728 0
M  V30 2026 H 197.303 4.02088 -1.06291 0
M  V30 2027 H 195.88 3.65646 0.731932 0
M  V30 2028 N 198.065 0.39524 1.52563 0
M  V30 2029 C 199.028 -0.425001 2.25225 0
M  V30 2030 C 200.028 -0.985266 1.27079 0
M  V30 2031 O 201.218 -0.866332 1.5113 0
M  V30 2032 C 198.35 -1.59686 3.01186 0
M  V30 2033 H 199.543 0.211233 2.99155 0
M  V30 2034 H 197.096 0.147472 1.55603 0
M  V30 2035 H 197.831 -2.27035 2.31572 0
M  V30 2036 H 197.616 -1.20176 3.73229 0
M  V30 2037 H 199.106 -2.17743 3.5634 0
M  V30 2038 N 199.544 -1.57102 0.125237 0
M  V30 2039 C 200.792 -1.95021 -0.530198 0
M  V30 2040 C 201.113 -1.00982 -1.66816 0
M  V30 2041 O 200.383 -0.0672693 -1.95784 0
M  V30 2042 H 198.963 -0.720046 -0.198853 0
M  V30 2043 H 201.625 -1.93916 0.19564 0
M  V30 2044 H 200.721 -2.98211 -0.920681 0
M  V30 2045 N 201.022 0.148545 -1.56898 0
M  V30 2046 C 202.27 0.859717 -1.82902 0
M  V30 2047 C 202.591 1.81775 -0.70588 0
M  V30 2048 O 201.861 1.93994 0.272586 0
M  V30 2049 H 200.441 0.320469 -0.674766 0
M  V30 2050 H 203.103 0.142918 -1.94375 0
M  V30 2051 H 202.199 1.4229 -2.77777 0
M  V30 2052 N 202.5 1.5196 0.417844 0
M  V30 2053 C 203.43 1.77634 1.51554 0
M  V30 2054 C 204.411 0.626918 1.58126 0
M  V30 2055 O 205.596 0.871632 1.7354 0
M  V30 2056 C 202.726 1.91911 2.8946 0
M  V30 2057 C 201.68 3.07463 2.97743 0
M  V30 2058 C 201.006 3.06951 4.37819 0
M  V30 2059 C 202.306 4.47082 2.70027 0
M  V30 2060 H 204 2.6955 1.3032 0
M  V30 2061 H 201.546 1.29706 0.625492 0
M  V30 2062 H 203.499 2.08455 3.6623 0
M  V30 2063 H 202.223 0.966598 3.11969 0
M  V30 2064 H 200.882 2.90656 2.23416 0
M  V30 2065 H 200.53 2.09438 4.57323 0
M  V30 2066 H 200.23 3.84556 4.44286 0
M  V30 2067 H 201.754 3.25613 5.16535 0
M  V30 2068 H 203.168 4.6414 3.36522 0
M  V30 2069 H 201.565 5.2654 2.87881 0
M  V30 2070 H 202.635 4.55777 1.65514 0
M  V30 2071 N 203.978 -0.674533 1.42435 0
M  V30 2072 C 205.389 -1.25514 1.38214 0
M  V30 2073 C 205.74 -1.96055 0.0755464 0
M  V30 2074 O 204.865 -2.00028 -0.8257 0
M  V30 2075 C 205.46 -2.28269 2.50357 0
M  V30 2076 C 204.019 -2.81856 2.49467 0
M  V30 2077 C 203.166 -1.56182 2.29134 0
M  V30 2078 H 206.117 -0.467902 1.51646 0
M  V30 2079 H 206.138 -3.10009 2.20624 0
M  V30 2080 H 205.65 -1.769 3.45439 0
M  V30 2081 H 203.751 -3.37346 1.58204 0
M  V30 2082 H 203.864 -3.30854 3.46515 0
M  V30 2083 H 202.228 -1.82761 1.774 0
M  V30 2084 H 203.011 -1.06778 3.26272 0
M  V30 2085 N 205.456 -1.28612 -0.910864 0
M  V30 2086 C 206.386 -1.15326 -2.03032 0
M  V30 2087 C 207.367 -0.0502924 -1.70026 0
M  V30 2088 O 208.552 -0.227797 -1.92859 0
M  V30 2089 C 205.682 -0.817343 -3.37545 0
M  V30 2090 C 204.636 -1.8754 -3.84724 0
M  V30 2091 C 203.962 -1.39305 -5.16235 0
M  V30 2092 C 205.262 -3.28244 -4.06267 0
M  V30 2093 H 206.956 -2.08975 -2.14406 0
M  V30 2094 H 204.502 -1.00612 -1.03021 0
M  V30 2095 H 206.455 -0.711151 -4.15356 0
M  V30 2096 H 205.179 0.154846 -3.26233 0
M  V30 2097 H 203.838 -1.97079 -3.09121 0
M  V30 2098 H 203.486 -0.409846 -5.01328 0
M  V30 2099 H 203.186 -2.10057 -5.48771 0
M  V30 2100 H 204.71 -1.30014 -5.96598 0
M  V30 2101 H 206.124 -3.21611 -4.74594 0
M  V30 2102 H 204.521 -3.96855 -4.5014 0
M  V30 2103 H 205.591 -3.72048 -3.10979 0
M  V30 2104 N 206.934 1.1197 -1.10907 0
M  V30 2105 C 207.866 2.17592 -0.720175 0
M  V30 2106 C 208.879 1.60938 0.245495 0
M  V30 2107 O 210.068 1.78476 0.0292245 0
M  V30 2108 C 207.168 3.38873 -0.0427917 0
M  V30 2109 C 206.341 4.25006 -1.03388 0
M  V30 2110 C 205.4 5.24774 -0.387075 0
M  V30 2111 O 204.426 5.59631 -1.03934 0
M  V30 2112 N 205.628 5.74208 0.852407 0
M  V30 2113 H 208.393 2.51567 -1.62893 0
M  V30 2114 H 205.954 1.27439 -0.998543 0
M  V30 2115 H 207.946 4.02703 0.401501 0
M  V30 2116 H 206.516 3.03007 0.768456 0
M  V30 2117 H 205.736 3.57716 -1.65629 0
M  V30 2118 H 207.024 4.79397 -1.70458 0
M  V30 2119 H 206.422 5.48062 1.40161 0
M  V30 2120 H 204.979 6.39901 1.23977 0
M  V30 2121 N 208.412 0.89855 1.29475 0
M  V30 2122 C 209.659 0.523882 1.95606 0
M  V30 2123 C 209.987 -0.929608 1.70847 0
M  V30 2124 O 209.242 -1.67401 1.01367 0
M  V30 2125 C 209.541 0.761398 3.49195 0
M  V30 2126 C 209.207 2.19207 3.94029 0
M  V30 2127 C 207.869 2.58326 4.05982 0
M  V30 2128 C 210.221 3.12379 4.17216 0
M  V30 2129 C 207.549 3.898 4.38489 0
M  V30 2130 C 209.901 4.43401 4.51197 0
M  V30 2131 C 208.565 4.82394 4.61359 0
M  V30 2132 H 207.835 0.191702 0.715773 0
M  V30 2133 H 210.482 1.13699 1.54094 0
M  V30 2134 H 208.787 0.0653622 3.91745 0
M  V30 2135 H 210.484 0.450904 3.98457 0
M  V30 2136 H 207.074 1.87846 3.85242 0
M  V30 2137 H 211.258 2.83371 4.07449 0
M  V30 2138 H 206.514 4.19734 4.44559 0
M  V30 2139 H 210.688 5.15623 4.68087 0
M  V30 2140 H 208.315 5.84306 4.86303 0
M  V30 2141 N 209.89 -1.43072 0.660911 0
M  V30 2142 C 211.301 -1.84932 0.256348 0
M  V30 2143 C 211.652 -1.55325 -1.19868 0
M  V30 2144 O 210.777 -1.00607 -1.91591 0
M  V30 2145 C 211.372 -3.35684 0.458475 0
M  V30 2146 C 209.931 -3.76245 0.108161 0
M  V30 2147 C 209.078 -2.66749 0.757641 0
M  V30 2148 H 212.029 -1.33116 0.864051 0
M  V30 2149 H 212.05 -3.79365 -0.293683 0
M  V30 2150 H 211.562 -3.572 1.51755 0
M  V30 2151 H 209.663 -3.60338 -0.948014 0
M  V30 2152 H 209.776 -4.76058 0.538992 0
M  V30 2153 H 208.14 -2.53989 0.190185 0
M  V30 2154 H 208.923 -2.91092 1.81989 0
M  V30 2155 N 211.368 -0.403325 -1.52352 0
M  V30 2156 C 212.645 0.232611 -1.94212 0
M  V30 2157 C 213.025 1.63133 -1.33981 0
M  V30 2158 O 212.373 2.22659 -0.513344 0
M  V30 2159 C 212.583 0.244811 -3.4814 0
M  V30 2160 C 213.931 0.46698 -4.22024 0
M  V30 2161 O 214.955 0.324419 -3.5472 0
M  V30 2162 O 213.814 0.74747 -5.41364 0
M  V30 2163 H 210.908 0.148223 -0.813609 0
M  V30 2164 H 213.454 -0.458848 -1.63379 0
M  V30 2165 H 212.226 -0.734378 -3.84347 0
M  V30 2166 H 211.849 0.980611 -3.85318 0
M  V30 2167 N 212.846 1.57033 -0.133567 0
M  V30 2168 C 213.756 2.19632 0.824564 0
M  V30 2169 C 214.772 1.17666 1.28182 0
M  V30 2170 O 215.948 1.50193 1.3418 0
M  V30 2171 C 213.013 2.79499 2.05137 0
M  V30 2172 C 212.074 3.96548 1.64464 0
M  V30 2173 C 211.307 4.5355 2.81297 0
M  V30 2174 O 211.53 4.09438 3.97136 0
M  V30 2175 O 210.464 5.44018 2.57542 0
M  V30 2176 H 214.29 3.01991 0.321766 0
M  V30 2177 H 211.875 1.49112 0.0927889 0
M  V30 2178 H 213.757 3.17602 2.7696 0
M  V30 2179 H 212.432 2.00162 2.54395 0
M  V30 2180 H 211.339 3.63186 0.897048 0
M  V30 2181 H 212.672 4.77364 1.19934 0
M  V30 2182 N 214.325 -0.140222 1.56975 0
M  V30 2183 C 215.571 -0.852949 1.83991 0
M  V30 2184 C 215.904 -1.80512 0.716187 0
M  V30 2185 O 215.179 -1.92479 -0.279681 0
M  V30 2186 C 215.462 -1.6215 3.21527 0
M  V30 2187 C 215.315 -0.690363 4.4447 0
M  V30 2188 C 216.634 -2.58247 3.56366 0
M  V30 2189 H 213.753 -0.308634 0.669264 0
M  V30 2190 H 216.395 -0.117898 1.89634 0
M  V30 2191 H 214.545 -2.24812 3.16847 0
M  V30 2192 H 216.217 -0.0742264 4.6124 0
M  V30 2193 H 214.46 -0.000396433 4.338 0
M  V30 2194 H 215.131 -1.2643 5.37326 0
M  V30 2195 H 217.607 -2.05701 3.61699 0
M  V30 2196 H 216.483 -3.09067 4.53617 0
M  V30 2197 H 216.744 -3.39923 2.82674 0
M  V30 2198 N 215.803 -1.52179 -0.40978 0
M  V30 2199 C 217.08 -1.56769 -1.16974 0
M  V30 2200 C 217.46 -0.348322 -2.08206 0
M  V30 2201 O 216.808 0.664862 -2.18613 0
M  V30 2202 C 217.018 -2.89603 -1.9476 0
M  V30 2203 C 218.366 -3.42579 -2.50849 0
M  V30 2204 O 219.39 -2.91338 -2.04941 0
M  V30 2205 O 218.249 -4.32054 -3.34652 0
M  V30 2206 H 215.343 -0.631439 -0.534054 0
M  V30 2207 H 217.889 -1.64507 -0.416613 0
M  V30 2208 H 216.661 -3.698 -1.27921 0
M  V30 2209 H 216.284 -2.85155 -2.77079 0
M  V30 2210 N 217.281 0.66697 -1.42791 0
M  V30 2211 C 218.506 1.46004 -1.47301 0
M  V30 2212 C 218.931 1.87894 -0.0880317 0
M  V30 2213 O 218.289 1.56502 0.915253 0
M  V30 2214 C 218.337 2.68031 -2.41229 0
M  V30 2215 O 217.441 3.6659 -1.88906 0
M  V30 2216 H 216.782 0.43832 -0.49877 0
M  V30 2217 H 219.312 0.817391 -1.87563 0
M  V30 2218 H 219.322 3.1601 -2.58073 0
M  V30 2219 H 217.997 2.36883 -3.41847 0
M  V30 2220 H 216.574 3.25661 -1.81656 0
M  V30 2221 N 218.759 1.29093 0.90403 0
M  V30 2222 C 219.707 1.13727 2.02901 0
M  V30 2223 C 220.701 0.0539853 1.69314 0
M  V30 2224 O 221.907 0.213469 1.7873 0
M  V30 2225 H 218.282 0.35117 0.664969 0
M  V30 2226 H 220.253 2.08982 2.13001 0
M  V30 2227 C 219.002 0.826066 3.37745 0
M  V30 2228 H 218.325 1.65164 3.64089 0
M  V30 2229 H 219.765 0.758559 4.17159 0
M  V30 2230 C 218.224 -0.470541 3.33598 0
M  V30 2231 O 218.754 -1.49792 3.72727 0
M  V30 2232 N 216.96 -0.474812 2.86695 0
M  V30 2233 H 216.507 0.361692 2.55048 0
M  V30 2234 H 216.465 -1.34236 2.84303 0
M  V30 2235 N 220.237 -1.11381 1.11499 0
M  V30 2236 C 221.514 -1.7955 0.775965 0
M  V30 2237 C 221.894 -1.97859 -0.73588 0
M  V30 2238 O 221.242 -1.56376 -1.66609 0
M  V30 2239 C 221.452 -3.13196 1.53977 0
M  V30 2240 C 222.8 -3.88227 1.71944 0
M  V30 2241 O 223.824 -3.22887 1.50407 0
M  V30 2242 O 222.683 -5.05477 2.07738 0
M  V30 2243 H 219.777 -0.777728 0.28119 0
M  V30 2244 H 222.323 -1.18118 1.21845 0
M  V30 2245 H 221.095 -2.95229 2.56818 0
M  V30 2246 H 220.718 -3.82342 1.09088 0
M  V30 2247 N 221.715 -0.905404 -1.28997 0
M  V30 2248 C 222.662 -0.385892 -2.27551 0
M  V30 2249 C 223.632 0.535113 -1.57244 0
M  V30 2250 O 224.817 0.459119 -1.85194 0
M  V30 2251 C 221.957 0.375461 -3.43051 0
M  V30 2252 C 221.07 -0.577092 -4.28128 0
M  V30 2253 C 220.205 0.201879 -5.30816 0
M  V30 2254 C 219.244 -0.744829 -6.07551 0
M  V30 2255 N 218.381 9.42587e-05 -7.021 0
M  V30 2256 H 223.221 -1.23139 -2.71368 0
M  V30 2257 H 220.758 -0.618542 -1.33463 0
M  V30 2258 H 222.716 0.832992 -4.088 0
M  V30 2259 H 221.346 1.18537 -3.00248 0
M  V30 2260 H 220.398 -1.15315 -3.62501 0
M  V30 2261 H 221.71 -1.30152 -4.8152 0
M  V30 2262 H 220.864 0.720351 -6.02408 0
M  V30 2263 H 219.603 0.959413 -4.7817 0
M  V30 2264 H 218.608 -1.27475 -5.34818 0
M  V30 2265 H 219.833 -1.50178 -6.62286 0
M  V30 2266 H 217.779 0.739791 -6.51815 0
M  V30 2267 H 217.696 -0.664321 -7.53076 0
M  V30 2268 H 218.964 0.498644 -7.77903 0
M  V30 2269 N 223.193 1.4272 -0.668489 0
M  V30 2270 C 224.126 2.28111 0.0637898 0
M  V30 2271 C 225.104 1.40705 0.814912 0
M  V30 2272 O 226.288 1.70146 0.81134 0
M  V30 2273 C 223.415 3.20429 1.0974 0
M  V30 2274 C 222.461 4.24197 0.442579 0
M  V30 2275 S 223.294 5.29563 -0.795173 0
M  V30 2276 C 224.45 6.25449 0.237516 0
M  V30 2277 H 224.683 2.8987 -0.660521 0
M  V30 2278 H 222.216 1.47456 -0.457821 0
M  V30 2279 H 224.174 3.74158 1.68868 0
M  V30 2280 H 222.835 2.57818 1.79411 0
M  V30 2281 H 222.028 4.88954 1.22227 0
M  V30 2282 H 221.63 3.73925 -0.0749554 0
M  V30 2283 H 223.922 6.68524 1.09915 0
M  V30 2284 H 224.865 7.07104 -0.375421 0
M  V30 2285 H 225.273 5.61511 0.580167 0
M  V30 2286 N 224.671 0.411399 1.52136 0
M  V30 2287 C 226.087 0.0623865 1.59478 0
M  V30 2288 C 226.287 -1.42554 1.4241 0
M  V30 2289 O 225.343 -2.19263 1.2522 0
M  V30 2290 C 226.656 0.559331 2.95452 0
M  V30 2291 C 228.204 0.517503 3.08692 0
M  V30 2292 C 228.679 0.990994 4.4715 0
M  V30 2293 N 230.17 0.947908 4.53397 0
M  V30 2294 C 230.905 1.28544 5.58806 0
M  V30 2295 N 230.401 1.69454 6.71757 0
M  V30 2296 N 232.194 1.20526 5.49026 0
M  V30 2297 H 224.345 1.37982 1.61477 0
M  V30 2298 H 226.608 0.566977 0.759764 0
M  V30 2299 H 226.314 1.59938 3.1323 0
M  V30 2300 H 226.188 -0.0298014 3.77188 0
M  V30 2301 H 228.575 -0.513505 2.90598 0
M  V30 2302 H 228.656 1.14272 2.28857 0
M  V30 2303 H 228.3 2.02034 4.65988 0
M  V30 2304 H 228.23 0.34257 5.25485 0
M  V30 2305 H 230.721 0.647157 3.72317 0
M  V30 2306 H 231.034 1.93513 7.48179 0
M  V30 2307 H 229.379 1.73359 6.73032 0
M  V30 2308 H 232.57 0.884505 4.59667 0
M  V30 2309 H 232.743 1.47161 6.31069 0
M  V30 2310 N 226.149 -1.5696 0.141893 0
M  V30 2311 C 227.377 -2.00322 -0.517579 0
M  V30 2312 C 227.792 -1.02193 -1.58752 0
M  V30 2313 O 227.149 -0.0181619 -1.82491 0
M  V30 2314 C 227.2 -3.43618 -1.12289 0
M  V30 2315 O 226.921 -4.37995 -0.0956929 0
M  V30 2316 C 228.422 -4.02231 -1.86347 0
M  V30 2317 H 225.642 -0.657243 -0.135177 0
M  V30 2318 H 228.186 -2.03146 0.234973 0
M  V30 2319 H 226.341 -3.41662 -1.82609 0
M  V30 2320 H 226.755 -5.21729 -0.538469 0
M  V30 2321 H 228.229 -5.04509 -2.23997 0
M  V30 2322 H 228.706 -3.42655 -2.74744 0
M  V30 2323 H 229.312 -4.07802 -1.20737 0
M  V30 2324 N 227.627 0.131896 -1.57047 0
M  V30 2325 C 228.857 0.855219 -1.88068 0
M  V30 2326 C 229.265 1.74557 -0.729817 0
M  V30 2327 O 228.608 1.81083 0.308962 0
M  V30 2328 C 228.67 1.75119 -3.13964 0
M  V30 2329 C 228.334 1.03646 -4.45091 0
M  V30 2330 C 229.331 0.383276 -5.18485 0
M  V30 2331 C 227.016 1.02148 -4.91804 0
M  V30 2332 C 229.01 -0.275347 -6.36805 0
M  V30 2333 C 226.697 0.359047 -6.10044 0
M  V30 2334 C 227.695 -0.288222 -6.82392 0
M  V30 2335 O 227.383 -0.94011 -7.98384 0
M  V30 2336 H 227.115 0.251864 -0.627328 0
M  V30 2337 H 229.669 0.124782 -2.05021 0
M  V30 2338 H 227.899 2.52295 -2.9306 0
M  V30 2339 H 229.588 2.3478 -3.31109 0
M  V30 2340 H 230.354 0.386562 -4.83457 0
M  V30 2341 H 226.233 1.5147 -4.35405 0
M  V30 2342 H 229.777 -0.781148 -6.93213 0
M  V30 2343 H 225.674 0.35348 -6.44531 0
M  V30 2344 H 226.442 -0.84329 -8.14144 0
M  V30 2345 N 229.106 1.52395 0.401703 0
M  V30 2346 C 230.336 1.70429 1.1678 0
M  V30 2347 C 230.744 0.416702 1.84554 0
M  V30 2348 O 230.087 -0.617697 1.73003 0
M  V30 2349 C 230.149 2.78919 2.26814 0
M  V30 2350 C 229.813 4.20437 1.79113 0
M  V30 2351 C 230.81 5.04028 1.27482 0
M  V30 2352 C 228.495 4.66704 1.85722 0
M  V30 2353 C 230.489 6.31961 0.830913 0
M  V30 2354 C 228.176 5.94625 1.40942 0
M  V30 2355 C 229.174 6.77082 0.897128 0
M  V30 2356 O 228.862 8.02607 0.455822 0
M  V30 2357 H 228.594 0.574272 0.356634 0
M  V30 2358 H 231.148 1.99767 0.477724 0
M  V30 2359 H 229.378 2.44973 2.99207 0
M  V30 2360 H 231.067 2.8548 2.88541 0
M  V30 2361 H 231.833 4.69471 1.21744 0
M  V30 2362 H 227.712 4.0262 2.24539 0
M  V30 2363 H 231.256 6.96271 0.430368 0
M  V30 2364 H 227.153 6.28688 1.46362 0
M  V30 2365 H 227.921 8.16453 0.578457 0
M  V30 2366 N 230.584 -0.659388 1.43143 0
M  V30 2367 C 232 -0.974337 1.26407 0
M  V30 2368 C 232.2 -2.007 0.179341 0
M  V30 2369 O 231.256 -2.4856 -0.444295 0
M  V30 2370 C 232.569 -1.46447 2.62628 0
M  V30 2371 C 234.117 -1.58144 2.7011 0
M  V30 2372 C 234.592 -2.1055 4.06734 0
M  V30 2373 N 236.083 -2.17861 4.08767 0
M  V30 2374 C 236.818 -2.59519 5.1131 0
M  V30 2375 N 236.314 -3.00518 6.24228 0
M  V30 2376 N 238.107 -2.59404 4.98664 0
M  V30 2377 H 230.258 0.0240528 2.12386 0
M  V30 2378 H 232.521 -0.0518065 0.946583 0
M  V30 2379 H 232.227 -0.780123 3.42939 0
M  V30 2380 H 232.101 -2.44058 2.87603 0
M  V30 2381 H 234.488 -2.25682 1.90136 0
M  V30 2382 H 234.569 -0.589828 2.48907 0
M  V30 2383 H 234.213 -1.43616 4.87172 0
M  V30 2384 H 234.143 -3.10531 4.25298 0
M  V30 2385 H 236.634 -1.88975 3.27257 0
M  V30 2386 H 236.947 -3.31036 6.98309 0
M  V30 2387 H 235.292 -2.98337 6.2771 0
M  V30 2388 H 238.483 -2.26747 4.09516 0
M  V30 2389 H 238.656 -2.91548 5.78709 0
M  V30 2390 N 232.062 -1.29571 -0.897171 0
M  V30 2391 C 233.012 -1.11539 -1.98855 0
M  V30 2392 C 233.996 -0.0340716 -1.60864 0
M  V30 2393 O 235.188 -0.256062 -1.75138 0
M  V30 2394 C 232.317 -0.796603 -3.3393 0
M  V30 2395 C 231.403 -1.91758 -3.78272 0
M  V30 2396 N 231.794 -3.16143 -3.94826 0
M  V30 2397 C 230.092 -1.81119 -4.07568 0
M  V30 2398 C 230.793 -3.89293 -4.32233 0
M  V30 2399 N 229.769 -3.17255 -4.41419 0
M  V30 2400 H 233.571 -2.05894 -2.09726 0
M  V30 2401 H 231.085 -1.20732 -1.08616 0
M  V30 2402 H 233.082 -0.648459 -4.11826 0
M  V30 2403 H 231.742 0.139003 -3.24402 0
M  V30 2404 H 232.753 -3.5157 -3.80288 0
M  V30 2405 H 229.43 -0.948461 -4.06584 0
M  V30 2406 H 230.82 -4.9635 -4.52865 0
M  V30 2407 N 233.54 1.10788 -1.12088 0
M  V30 2408 C 234.786 1.8313 -0.885148 0
M  V30 2409 C 235.141 1.8336 0.582839 0
M  V30 2410 O 234.434 1.28062 1.42516 0
M  V30 2411 C 234.628 3.29294 -1.38926 0
M  V30 2412 C 234.457 3.43302 -2.90472 0
M  V30 2413 C 233.227 3.55928 -3.58669 0
M  V30 2414 C 235.425 3.37014 -3.88492 0
M  V30 2415 N 233.407 3.58475 -4.98366 0
M  V30 2416 C 234.778 3.46263 -5.14298 0
M  V30 2417 C 236.833 3.20589 -3.80955 0
M  V30 2418 C 235.536 3.4078 -6.33452 0
M  V30 2419 C 237.562 3.16427 -4.99628 0
M  V30 2420 C 236.924 3.26253 -6.2429 0
M  V30 2421 H 233.023 0.685054 -0.377128 0
M  V30 2422 H 235.607 1.3251 -1.4265 0
M  V30 2423 H 233.778 3.78416 -0.874999 0
M  V30 2424 H 235.51 3.89578 -1.09596 0
M  V30 2425 H 232.265 3.58779 -3.09151 0
M  V30 2426 H 232.689 3.6337 -5.71219 0
M  V30 2427 H 237.331 3.11873 -2.85474 0
M  V30 2428 H 235.049 3.48263 -7.29204 0
M  V30 2429 H 238.635 3.04874 -4.95523 0
M  V30 2430 H 237.515 3.2303 -7.14578 0
M  V30 2431 N 235.018 0.912232 1.28515 0
M  V30 2432 C 236.243 0.559774 1.99703 0
M  V30 2433 C 236.668 -0.851393 1.67729 0
M  V30 2434 O 236.026 -1.56875 0.908834 0
M  V30 2435 C 236.074 0.773874 3.52198 0
M  V30 2436 O 235.178 -0.167842 4.12058 0
M  V30 2437 H 234.519 0.21723 0.627461 0
M  V30 2438 H 237.049 1.22725 1.63706 0
M  V30 2439 H 237.059 0.683386 4.02236 0
M  V30 2440 H 235.734 1.80261 3.74805 0
M  V30 2441 H 234.311 -0.0287509 3.72889 0
M  V30 2442 N 236.496 -1.42363 0.676048 0
M  V30 2443 C 237.907 -1.84649 0.275948 0
M  V30 2444 C 238.258 -1.56588 -1.18214 0
M  V30 2445 O 237.383 -1.02634 -1.90513 0
M  V30 2446 C 237.978 -3.35178 0.494053 0
M  V30 2447 C 236.537 -3.76109 0.148061 0
M  V30 2448 C 235.684 -2.65931 0.785891 0
M  V30 2449 H 238.635 -1.32192 0.878121 0
M  V30 2450 H 238.656 -3.79655 -0.25343 0
M  V30 2451 H 238.168 -3.55571 1.55535 0
M  V30 2452 H 236.269 -3.61323 -0.909742 0
M  V30 2453 H 236.382 -4.7546 0.589454 0
M  V30 2454 H 234.746 -2.53773 0.217113 0
M  V30 2455 H 235.529 -2.89146 1.85067 0
M  V30 2456 N 237.974 -0.419461 -1.51915 0
M  V30 2457 C 239.22 0.153166 -2.02221 0
M  V30 2458 C 239.553 1.43907 -1.30401 0
M  V30 2459 O 238.828 1.90055 -0.413438 0
M  V30 2460 C 239.111 0.390291 -3.57979 0
M  V30 2461 C 238.964 -0.913014 -4.40436 0
M  V30 2462 C 240.283 1.16794 -4.2432 0
M  V30 2463 H 237.402 0.0541924 -0.735005 0
M  V30 2464 H 240.044 -0.554955 -1.81715 0
M  V30 2465 H 238.194 0.993491 -3.75582 0
M  V30 2466 H 239.866 -1.54882 -4.34522 0
M  V30 2467 H 238.109 -1.52168 -4.06236 0
M  V30 2468 H 238.78 -0.701361 -5.47526 0
M  V30 2469 H 241.256 0.657161 -4.10878 0
M  V30 2470 H 240.132 1.3026 -5.3322 0
M  V30 2471 H 240.393 2.19132 -3.83971 0
M  V30 2472 N 239.452 1.56882 -0.150215 0
M  V30 2473 C 240.682 2.00302 0.506213 0
M  V30 2474 C 241.09 1.02934 1.58749 0
M  V30 2475 O 240.433 0.0188384 1.8369 0
M  V30 2476 C 240.495 3.40156 1.16337 0
M  V30 2477 C 240.159 4.56439 0.226311 0
M  V30 2478 C 241.156 5.17012 -0.547265 0
M  V30 2479 C 238.841 5.02136 0.128279 0
M  V30 2480 C 240.835 6.21693 -1.40629 0
M  V30 2481 C 238.522 6.06672 -0.734345 0
M  V30 2482 C 239.52 6.6632 -1.50023 0
M  V30 2483 O 239.208 7.68831 -2.34848 0
M  V30 2484 H 238.94 0.662182 0.135984 0
M  V30 2485 H 241.494 2.03961 -0.242746 0
M  V30 2486 H 239.724 3.33346 1.96004 0
M  V30 2487 H 241.413 3.67663 1.71985 0
M  V30 2488 H 242.179 4.82603 -0.48158 0
M  V30 2489 H 238.058 4.55435 0.714157 0
M  V30 2490 H 241.602 6.68179 -2.00455 0
M  V30 2491 H 237.499 6.40507 -0.801309 0
M  V30 2492 H 238.267 7.86065 -2.28131 0
M  V30 2493 N 240.93 -0.123565 1.57115 0
M  V30 2494 C 242.341 -0.681198 1.73829 0
M  V30 2495 C 242.692 -1.80535 0.768214 0
M  V30 2496 O 241.817 -2.16317 -0.0599103 0
M  V30 2497 C 242.412 -1.24246 3.15196 0
M  V30 2498 C 240.971 -1.74643 3.33432 0
M  V30 2499 C 240.118 -0.644284 2.69711 0
M  V30 2500 H 243.069 0.102315 1.5837 0
M  V30 2501 H 243.09 -2.11216 3.16493 0
M  V30 2502 H 242.602 -0.424062 3.85776 0
M  V30 2503 H 240.703 -2.58974 2.67886 0
M  V30 2504 H 240.816 -1.85902 4.41562 0
M  V30 2505 H 239.18 -1.07676 2.3082 0
M  V30 2506 H 239.963 0.163058 3.42913 0
M  V30 2507 N 242.408 -1.52605 -0.393616 0
M  V30 2508 C 243.371 -1.76415 -1.46323 0
M  V30 2509 C 244.371 -0.634126 -1.47768 0
M  V30 2510 O 245.561 -0.902142 -1.4902 0
M  V30 2511 C 242.693 -1.8607 -2.85641 0
M  V30 2512 H 243.886 -2.71916 -1.26498 0
M  V30 2513 H 241.439 -1.43257 -0.625073 0
M  V30 2514 H 242.174 -0.925378 -3.10817 0
M  V30 2515 H 241.959 -2.68235 -2.85993 0
M  V30 2516 H 243.449 -2.06179 -3.63153 0
M  V30 2517 N 243.887 0.651787 -1.4349 0
M  V30 2518 C 245.135 1.40888 -1.44897 0
M  V30 2519 C 245.456 1.94856 -0.0749086 0
M  V30 2520 O 244.726 1.74518 0.889956 0
M  V30 2521 H 243.306 0.522887 -0.533478 0
M  V30 2522 H 245.968 0.768609 -1.79104 0
M  V30 2523 H 245.064 2.25052 -2.16236 0
M  V30 2524 N 245.365 1.30045 0.890287 0
M  V30 2525 C 246.593 1.21472 1.67487 0
M  V30 2526 C 247.008 -0.223241 1.87476 0
M  V30 2527 O 246.365 -1.14828 1.41847 0
M  V30 2528 C 246.416 1.93394 3.05419 0
M  V30 2529 O 246.137 3.31576 2.86337 0
M  V30 2530 C 247.638 1.91414 3.99844 0
M  V30 2531 H 244.858 0.420604 0.522813 0
M  V30 2532 H 247.402 1.7158 1.11268 0
M  V30 2533 H 245.557 1.47099 3.58386 0
M  V30 2534 H 245.971 3.67929 3.73802 0
M  V30 2535 H 247.445 2.46285 4.94012 0
M  V30 2536 H 247.922 0.891833 4.3005 0
M  V30 2537 H 248.528 2.37496 3.52811 0
M  V30 2538 N 246.843 -1.10192 1.12674 0
M  V30 2539 C 247.793 -2.14754 0.765801 0
M  V30 2540 C 248.777 -1.59154 -0.236409 0
M  V30 2541 O 249.969 -1.76951 -0.0415261 0
M  V30 2542 C 247.098 -3.42563 0.224827 0
M  V30 2543 C 246.184 -4.05091 1.25548 0
M  V30 2544 N 246.575 -4.42287 2.4539 0
M  V30 2545 C 244.873 -4.32186 1.10142 0
M  V30 2546 C 245.574 -4.91441 3.11224 0
M  V30 2547 N 244.55 -4.88405 2.38666 0
M  V30 2548 H 248.352 -2.41309 1.67772 0
M  V30 2549 H 245.866 -1.27339 1.00789 0
M  V30 2550 H 247.863 -4.16868 -0.0519578 0
M  V30 2551 H 246.523 -3.17467 -0.681515 0
M  V30 2552 H 247.534 -4.33902 2.82754 0
M  V30 2553 H 244.211 -4.16735 0.252587 0
M  V30 2554 H 245.601 -5.29749 4.13298 0
M  V30 2555 N 248.321 -0.919034 -1.28029 0
M  V30 2556 C 249.737 -0.617972 -1.4715 0
M  V30 2557 C 249.937 0.835242 -1.83374 0
M  V30 2558 O 248.993 1.61388 -1.94191 0
M  V30 2559 C 250.306 -1.56041 -2.57044 0
M  V30 2560 C 251.854 -1.56769 -2.7091 0
M  V30 2561 C 252.329 -2.49688 -3.83953 0
M  V30 2562 N 253.82 -2.47845 -3.91314 0
M  V30 2563 C 254.555 -3.16437 -4.78179 0
M  V30 2564 N 254.051 -3.94376 -5.69596 0
M  V30 2565 N 255.844 -3.05498 -4.71834 0
M  V30 2566 H 247.995 -1.85866 -1.02798 0
M  V30 2567 H 250.258 -0.797506 -0.512531 0
M  V30 2568 H 249.964 -2.59671 -2.372 0
M  V30 2569 H 249.838 -1.29551 -3.54255 0
M  V30 2570 H 252.225 -0.538745 -2.90141 0
M  V30 2571 H 252.306 -1.87305 -1.74214 0
M  V30 2572 H 251.95 -3.52688 -3.65477 0
M  V30 2573 H 251.88 -2.16453 -4.80058 0
M  V30 2574 H 254.371 -1.91234 -3.25941 0
M  V30 2575 H 254.684 -4.43721 -6.32718 0
M  V30 2576 H 253.029 -3.98481 -5.69419 0
M  V30 2577 H 256.22 -2.44108 -3.99411 0
M  V30 2578 H 256.393 -3.59225 -5.39316 0
M  V30 2579 N 249.799 1.42003 -0.683588 0
M  V30 2580 C 250.731 2.29183 0.0283068 0
M  V30 2581 C 251.744 1.4415 0.756611 0
M  V30 2582 O 252.933 1.67779 0.609306 0
M  V30 2583 C 250.033 3.21765 1.06398 0
M  V30 2584 C 249.206 4.35496 0.407723 0
M  V30 2585 C 248.265 5.08737 1.34437 0
M  V30 2586 O 247.291 5.62948 0.841318 0
M  V30 2587 N 248.493 5.15075 2.67728 0
M  V30 2588 H 251.258 2.9092 -0.720105 0
M  V30 2589 H 248.819 1.53025 -0.528682 0
M  V30 2590 H 250.811 3.6763 1.69204 0
M  V30 2591 H 249.381 2.61418 1.71404 0
M  V30 2592 H 248.601 3.92165 -0.400012 0
M  V30 2593 H 249.889 5.08776 -0.0490956 0
M  V30 2594 H 249.287 4.72457 3.11129 0
M  V30 2595 H 247.844 5.64556 3.2576 0
M  V30 2596 N 251.277 0.427512 1.51691 0
M  V30 2597 C 252.507 -0.140986 2.06118 0
M  V30 2598 C 252.915 -1.37854 1.29588 0
M  V30 2599 O 252.258 -1.80411 0.346036 0
M  V30 2600 C 252.32 -0.538276 3.55447 0
M  V30 2601 C 251.984 0.591095 4.53161 0
M  V30 2602 C 252.981 1.46027 4.98971 0
M  V30 2603 C 250.666 0.769028 4.96378 0
M  V30 2604 C 252.66 2.49216 5.8666 0
M  V30 2605 C 250.347 1.80421 5.83859 0
M  V30 2606 C 251.345 2.66417 6.28897 0
M  V30 2607 O 251.033 3.68159 7.14643 0
M  V30 2608 H 250.765 -0.0157455 0.675817 0
M  V30 2609 H 253.319 0.602495 1.96365 0
M  V30 2610 H 251.549 -1.33432 3.6295 0
M  V30 2611 H 253.238 -1.0368 3.92435 0
M  V30 2612 H 254.004 1.33429 4.66285 0
M  V30 2613 H 249.883 0.109273 4.6087 0
M  V30 2614 H 253.427 3.16372 6.21735 0
M  V30 2615 H 249.324 1.93042 6.15959 0
M  V30 2616 H 250.092 3.64622 7.32798 0
M  V30 2617 N 252.755 -1.56801 0.158532 0
M  V30 2618 C 253.98 -2.01295 -0.499516 0
M  V30 2619 C 254.405 -1.03799 -1.56867 0
M  V30 2620 O 253.763 -0.0155162 -1.81293 0
M  V30 2621 C 253.811 -3.44469 -1.06647 0
M  V30 2622 O 252.915 -3.50012 -2.18095 0
M  V30 2623 H 252.256 -0.652884 -0.12099 0
M  V30 2624 H 254.786 -2.02958 0.258661 0
M  V30 2625 H 254.796 -3.8351 -1.39227 0
M  V30 2626 H 253.471 -4.14932 -0.283581 0
M  V30 2627 H 252.048 -3.22822 -1.86656 0
M  V30 2628 N 254.233 0.115231 -1.57178 0
M  V30 2629 C 255.181 1.16014 -2.01602 0
M  V30 2630 C 256.175 1.42653 -0.913587 0
M  V30 2631 O 257.381 1.42571 -1.09879 0
M  V30 2632 H 253.756 0.391252 -0.642204 0
M  V30 2633 H 255.727 0.758998 -2.88586 0
M  V30 2634 C 254.476 2.47767 -2.4394 0
M  V30 2635 H 253.799 2.28108 -3.28339 0
M  V30 2636 H 255.239 3.19432 -2.78818 0
M  V30 2637 C 253.698 3.10617 -1.30455 0
M  V30 2638 O 254.228 3.96846 -0.622585 0
M  V30 2639 N 252.434 2.70553 -1.06064 0
M  V30 2640 H 251.981 2.00527 -1.61699 0
M  V30 2641 H 251.939 3.12934 -0.303284 0
M  V30 2642 N 255.711 1.52812 0.385517 0
M  V30 2643 C 257.122 1.5993 0.963293 0
M  V30 2644 C 257.473 0.454302 1.90868 0
M  V30 2645 O 256.598 -0.422132 2.12243 0
M  V30 2646 C 257.193 2.89871 1.75387 0
M  V30 2647 C 255.752 2.99389 2.28129 0
M  V30 2648 C 254.899 2.55071 1.08783 0
M  V30 2649 H 257.85 1.5784 0.164948 0
M  V30 2650 H 257.871 2.76553 2.61341 0
M  V30 2651 H 257.383 3.73186 1.06554 0
M  V30 2652 H 255.484 2.20619 3.00263 0
M  V30 2653 H 255.597 4.04096 2.57377 0
M  V30 2654 H 253.961 2.09473 1.4489 0
M  V30 2655 H 254.744 3.40785 0.414807 0
M  V30 2656 N 257.189 -0.644168 1.43834 0
M  V30 2657 C 258.414 -1.43642 1.49605 0
M  V30 2658 C 258.839 -1.8773 0.117913 0
M  V30 2659 O 258.197 -1.57938 -0.890239 0
M  V30 2660 C 258.245 -2.6416 2.45463 0
M  V30 2661 O 257.349 -3.63538 1.94714 0
M  V30 2662 H 256.69 -0.430329 0.50568 0
M  V30 2663 H 259.22 -0.787448 1.8884 0
M  V30 2664 H 259.23 -3.11864 2.63068 0
M  V30 2665 H 257.905 -2.31414 3.45572 0
M  V30 2666 H 256.482 -3.2273 1.86814 0
M  V30 2667 N 258.668 -1.30515 -0.883378 0
M  V30 2668 C 259.917 -1.18795 -1.63005 0
M  V30 2669 C 260.23 0.255923 -1.93919 0
M  V30 2670 O 261.436 0.494654 -2.66956 0
M  V30 2671 C 259.892 -2.07878 -2.93794 0
M  V30 2672 C 259.5 -3.57184 -2.70414 0
M  V30 2673 C 261.244 -2.04924 -3.71761 0
M  V30 2674 C 259.151 -4.38317 -3.97029 0
M  V30 2675 H 258.081 -0.441031 -0.611562 0
M  V30 2676 H 260.732 -1.55275 -0.977854 0
M  V30 2677 H 259.114 -1.64283 -3.60315 0
M  V30 2678 H 260.288 -4.08937 -2.12384 0
M  V30 2679 H 258.603 -3.61976 -2.0582 0
M  V30 2680 H 261.2 -2.62792 -4.65665 0
M  V30 2681 H 261.543 -1.0331 -4.03277 0
M  V30 2682 H 262.076 -2.46649 -3.12104 0
M  V30 2683 H 258.815 -5.40632 -3.70671 0
M  V30 2684 H 258.335 -3.91326 -4.54559 0
M  V30 2685 H 260.014 -4.49834 -4.65036 0
M  V30 2686 N 260.146 1.09593 -1.13257 0
M  V30 2687 C 261.394 1.81375 -0.891492 0
M  V30 2688 C 261.715 1.86049 0.584009 0
M  V30 2689 O 260.985 1.34481 1.42449 0
M  V30 2690 H 259.565 0.671708 -0.326828 0
M  V30 2691 H 262.227 1.3256 -1.42877 0
M  V30 2692 H 261.323 2.84612 -1.28071 0
M  V30 2693 N 261.624 0.925811 1.2754 0
M  V30 2694 C 262.554 0.440748 2.29303 0
M  V30 2695 C 263.535 -0.497971 1.62648 0
M  V30 2696 O 264.72 -0.403126 1.8997 0
M  V30 2697 C 261.85 -0.309048 3.45922 0
M  V30 2698 C 260.804 0.54166 4.24559 0
M  V30 2699 C 260.13 -0.337191 5.33636 0
M  V30 2700 C 261.43 1.80516 4.90114 0
M  V30 2701 H 263.124 1.29121 2.70126 0
M  V30 2702 H 260.67 0.622323 1.29858 0
M  V30 2703 H 262.623 -0.659315 4.1621 0
M  V30 2704 H 261.347 -1.19352 3.04011 0
M  V30 2705 H 260.006 0.874609 3.56014 0
M  V30 2706 H 259.654 -1.22056 4.87966 0
M  V30 2707 H 259.354 0.228497 5.87156 0
M  V30 2708 H 260.878 -0.683072 6.06767 0
M  V30 2709 H 262.292 1.52307 5.52698 0
M  V30 2710 H 260.689 2.3142 5.53683 0
M  V30 2711 H 261.759 2.52581 4.13921 0
M  V30 2712 N 263.102 -1.41638 0.69111 0
M  V30 2713 C 264.349 -2.01299 0.220193 0
M  V30 2714 C 264.677 -1.54715 -1.17871 0
M  V30 2715 O 263.932 -0.747193 -1.80874 0
M  V30 2716 C 264.231 -3.56714 0.221277 0
M  V30 2717 C 263.897 -4.22792 1.56709 0
M  V30 2718 C 262.559 -4.40557 1.93554 0
M  V30 2719 C 264.911 -4.59883 2.45268 0
M  V30 2720 C 262.239 -4.92688 3.18552 0
M  V30 2721 C 264.591 -5.13403 3.69595 0
M  V30 2722 C 263.255 -5.29379 4.06589 0
M  V30 2723 H 262.525 -0.736606 0.0805743 0
M  V30 2724 H 265.172 -1.69598 0.889319 0
M  V30 2725 H 263.477 -3.8818 -0.531391 0
M  V30 2726 H 265.174 -4.00678 -0.160547 0
M  V30 2727 H 261.764 -4.09336 1.2705 0
M  V30 2728 H 265.948 -4.45817 2.18084 0
M  V30 2729 H 261.204 -5.03242 3.47214 0
M  V30 2730 H 265.378 -5.41084 4.38407 0
M  V30 2731 H 263.005 -5.69537 5.03519 0
M  V30 2732 N 264.58 -0.43555 -1.51462 0
M  V30 2733 C 265.828 0.131254 -2.01673 0
M  V30 2734 C 266.149 1.43368 -1.32177 0
M  V30 2735 O 265.419 1.90524 -0.455769 0
M  V30 2736 H 263.999 0.0514954 -0.745223 0
M  V30 2737 H 266.661 -0.577847 -1.86137 0
M  V30 2738 H 265.757 0.308446 -3.10572 0
M  V30 2739 N 266.058 1.56714 -0.166846 0
M  V30 2740 C 267.008 2.14338 0.777382 0
M  V30 2741 C 267.992 1.07642 1.19591 0
M  V30 2742 O 269.184 1.33775 1.15902 0
M  V30 2743 C 266.313 2.78417 2.00846 0
M  V30 2744 C 265.399 3.92264 1.61212 0
M  V30 2745 N 265.79 4.97268 0.925104 0
M  V30 2746 C 264.088 4.03342 1.90346 0
M  V30 2747 C 264.789 5.77093 0.730627 0
M  V30 2748 N 263.765 5.2854 1.27067 0
M  V30 2749 H 267.567 2.9289 0.243466 0
M  V30 2750 H 265.081 1.62364 0.0339954 0
M  V30 2751 H 267.078 3.18073 2.69509 0
M  V30 2752 H 265.738 2.01344 2.54736 0
M  V30 2753 H 266.749 5.14601 0.583646 0
M  V30 2754 H 263.426 3.37368 2.45946 0
M  V30 2755 H 264.816 6.71638 0.187668 0
M  V30 2756 N 267.536 -0.106894 1.57237 0
M  V30 2757 C 268.466 -1.13148 2.04254 0
M  V30 2758 C 269.447 -1.42476 0.929224 0
M  V30 2759 O 270.632 -1.52709 1.19973 0
M  V30 2760 C 267.762 -2.4545 2.45706 0
M  V30 2761 C 266.716 -2.30558 3.60592 0
M  V30 2762 C 266.042 -3.67931 3.87983 0
M  V30 2763 C 267.342 -1.75597 4.91897 0
M  V30 2764 H 269.036 -0.740374 2.90101 0
M  V30 2765 H 266.582 -0.354696 1.39563 0
M  V30 2766 H 268.535 -3.17389 2.77205 0
M  V30 2767 H 267.259 -2.86475 1.56843 0
M  V30 2768 H 265.918 -1.61067 3.29322 0
M  V30 2769 H 265.566 -4.06462 2.96306 0
M  V30 2770 H 265.266 -3.58817 4.65322 0
M  V30 2771 H 266.79 -4.41356 4.21945 0
M  V30 2772 H 268.204 -2.37364 5.21854 0
M  V30 2773 H 266.601 -1.77272 5.73319 0
M  V30 2774 H 267.671 -0.714451 4.79608 0
M  V30 2775 N 269.014 -1.53014 -0.377408 0
M  V30 2776 C 269.977 -1.77957 -1.44444 0
M  V30 2777 C 270.977 -0.649763 -1.47087 0
M  V30 2778 O 272.167 -0.917897 -1.48055 0
M  V30 2779 C 269.299 -1.89089 -2.83651 0
M  V30 2780 H 270.492 -2.73243 -1.23606 0
M  V30 2781 H 268.045 -1.43912 -0.609844 0
M  V30 2782 H 268.78 -0.958293 -3.09818 0
M  V30 2783 H 268.565 -2.71254 -2.83132 0
M  V30 2784 H 270.055 -2.1002 -3.60945 0
M  V30 2785 N 270.492 0.636531 -1.44174 0
M  V30 2786 C 271.455 1.73063 -1.50273 0
M  V30 2787 C 272.455 1.56113 -0.385397 0
M  V30 2788 O 273.645 1.61707 -0.64781 0
M  V30 2789 C 270.777 3.12096 -1.37145 0
M  V30 2790 H 271.97 1.69031 -2.47727 0
M  V30 2791 H 269.523 0.849706 -1.31186 0
M  V30 2792 H 270.258 3.21728 -0.407636 0
M  V30 2793 H 270.043 3.25805 -2.18159 0
M  V30 2794 H 271.533 3.91846 -1.44382 0
M  V30 2795 N 271.97 1.30982 0.876444 0
M  V30 2796 C 272.918 1.18006 2.00443 0
M  V30 2797 C 273.912 0.0898871 1.69161 0
M  V30 2798 O 275.118 0.251333 1.78237 0
M  V30 2799 H 271.493 0.365196 0.65737 0
M  V30 2800 H 273.464 2.13453 2.0852 0
M  V30 2801 C 272.213 0.897521 3.35916 0
M  V30 2802 H 271.536 1.7285 3.60504 0
M  V30 2803 H 272.976 0.846874 4.15456 0
M  V30 2804 C 271.435 -0.399674 3.34521 0
M  V30 2805 O 271.965 -1.41852 3.7582 0
M  V30 2806 N 270.171 -0.413893 2.87637 0
M  V30 2807 H 269.718 0.41571 2.54224 0
M  V30 2808 H 269.676 -1.28175 2.87086 0
M  V30 2809 N 273.449 -1.08991 1.13837 0
M  V30 2810 C 274.674 -1.85551 0.926585 0
M  V30 2811 C 275.099 -1.80782 -0.519566 0
M  V30 2812 O 274.457 -1.18855 -1.36906 0
M  V30 2813 C 274.505 -3.31266 1.42462 0
M  V30 2814 O 273.609 -4.07822 0.612789 0
M  V30 2815 H 272.95 -0.575192 0.331738 0
M  V30 2816 H 275.48 -1.37604 1.51414 0
M  V30 2817 H 275.49 -3.82112 1.43019 0
M  V30 2818 H 274.165 -3.34052 2.47754 0
M  V30 2819 H 272.742 -3.66731 0.675463 0
M  V30 2820 N 274.927 -0.932562 -1.27047 0
M  V30 2821 C 275.857 -0.452902 -2.29066 0
M  V30 2822 C 276.838 0.489338 -1.62909 0
M  V30 2823 O 278.023 0.393046 -1.90181 0
M  V30 2824 C 275.153 0.290698 -3.46081 0
M  V30 2825 C 274.107 -0.564168 -4.24265 0
M  V30 2826 C 273.433 0.308886 -5.33807 0
M  V30 2827 C 274.733 -1.83112 -4.89149 0
M  V30 2828 H 276.427 -1.30552 -2.69437 0
M  V30 2829 H 273.973 -0.629201 -1.29526 0
M  V30 2830 H 275.926 0.637233 -4.16554 0
M  V30 2831 H 274.65 1.17738 -3.0464 0
M  V30 2832 H 273.309 -0.893477 -3.55545 0
M  V30 2833 H 272.957 1.19467 -4.88607 0
M  V30 2834 H 272.657 -0.259633 -5.87026 0
M  V30 2835 H 274.181 0.650884 -6.07121 0
M  V30 2836 H 275.595 -1.55236 -5.51883 0
M  V30 2837 H 273.992 -2.34353 -5.52448 0
M  V30 2838 H 275.062 -2.54772 -4.12576 0
M  V30 2839 N 276.405 1.4127 -0.698611 0
M  V30 2840 C 277.653 2.00782 -0.230409 0
M  V30 2841 C 277.974 1.5562 1.17505 0
M  V30 2842 O 277.244 0.78815 1.79346 0
M  V30 2843 H 275.824 0.742464 -0.0821944 0
M  V30 2844 H 278.486 1.72852 -0.90045 0
M  V30 2845 H 277.582 3.11095 -0.25021 0
M  V30 2846 N 277.883 0.443576 1.51229 0
M  V30 2847 C 278.815 -0.400608 2.25672 0
M  V30 2848 C 279.828 -0.980945 1.29928 0
M  V30 2849 O 281.017 -0.874024 1.55638 0
M  V30 2850 C 278.117 -1.57304 3.00181 0
M  V30 2851 C 277.29 -1.11046 4.23069 0
M  V30 2852 C 276.349 -2.15374 4.80105 0
M  V30 2853 O 275.375 -1.74554 5.41774 0
M  V30 2854 N 276.577 -3.47922 4.64683 0
M  V30 2855 H 279.342 0.23745 2.98758 0
M  V30 2856 H 276.903 0.272809 1.59585 0
M  V30 2857 H 278.895 -2.26733 3.35223 0
M  V30 2858 H 277.465 -2.11632 2.30066 0
M  V30 2859 H 276.685 -0.243019 3.9345 0
M  V30 2860 H 277.973 -0.778888 5.02803 0
M  V30 2861 H 277.371 -3.83815 4.15575 0
M  V30 2862 H 275.928 -4.13228 5.0407 0
M  V30 2863 N 279.361 -1.56624 0.175154 0
M  V30 2864 C 280.772 -1.83561 -0.340916 0
M  V30 2865 C 281.123 -1.09511 -1.62794 0
M  V30 2866 O 280.248 -0.349389 -2.13561 0
M  V30 2867 C 280.843 -3.32979 -0.625313 0
M  V30 2868 C 279.402 -3.60399 -1.08581 0
M  V30 2869 C 278.549 -2.77024 -0.123722 0
M  V30 2870 H 281.5 -1.53593 0.399344 0
M  V30 2871 H 281.521 -3.50666 -1.47694 0
M  V30 2872 H 281.033 -3.86847 0.311575 0
M  V30 2873 H 279.134 -3.11945 -2.03767 0
M  V30 2874 H 279.247 -4.68711 -0.992317 0
M  V30 2875 H 277.611 -2.46993 -0.621821 0
M  V30 2876 H 278.394 -3.33674 0.807256 0
M  V30 2877 N 280.839 0.0985539 -1.57292 0
M  V30 2878 C 282.086 0.802678 -1.85912 0
M  V30 2879 C 282.414 1.78901 -0.763186 0
M  V30 2880 O 281.669 1.94178 0.243559 0
M  V30 2881 C 281.968 1.56927 -3.21105 0
M  V30 2882 C 281.634 0.725376 -4.45027 0
M  V30 2883 C 280.296 0.492726 -4.78671 0
M  V30 2884 C 282.648 0.138493 -5.21016 0
M  V30 2885 C 279.976 -0.336727 -5.85733 0
M  V30 2886 C 282.328 -0.678264 -6.28953 0
M  V30 2887 C 280.992 -0.921039 -6.61115 0
M  V30 2888 H 280.262 0.293721 -0.680301 0
M  V30 2889 H 282.909 0.0642841 -1.91392 0
M  V30 2890 H 281.214 2.37914 -3.11294 0
M  V30 2891 H 282.911 2.11841 -3.40477 0
M  V30 2892 H 279.501 0.916815 -4.18679 0
M  V30 2893 H 283.685 0.305404 -4.95359 0
M  V30 2894 H 278.941 -0.533836 -6.09065 0
M  V30 2895 H 283.115 -1.1399 -6.87007 0
M  V30 2896 H 280.742 -1.56556 -7.43905 0
M  V30 2897 N 282.317 1.53212 0.369288 0
M  V30 2898 C 283.227 1.82342 1.47609 0
M  V30 2899 C 284.243 0.711532 1.58787 0
M  V30 2900 O 285.419 1.0012 1.74751 0
M  V30 2901 C 282.484 2.00393 2.8292 0
M  V30 2902 C 281.545 3.24297 2.81301 0
M  V30 2903 C 280.778 3.41478 4.10157 0
M  V30 2904 O 281.001 2.63033 5.06132 0
M  V30 2905 O 279.935 4.34817 4.16194 0
M  V30 2906 H 283.761 2.76366 1.25918 0
M  V30 2907 H 281.346 1.38547 0.559034 0
M  V30 2908 H 283.228 2.13859 3.63101 0
M  V30 2909 H 281.903 1.09559 3.04596 0
M  V30 2910 H 280.81 3.16257 1.99831 0
M  V30 2911 H 282.143 4.15041 2.64578 0
M  V30 2912 N 283.795 -0.628877 1.44509 0
M  V30 2913 C 284.727 -1.754 1.47538 0
M  V30 2914 C 285.74 -1.58575 0.368506 0
M  V30 2915 O 286.929 -1.66847 0.634376 0
M  V30 2916 C 284.029 -3.1315 1.29577 0
M  V30 2917 C 283.202 -3.56413 2.53551 0
M  V30 2918 C 282.261 -4.7305 2.30457 0
M  V30 2919 O 281.287 -4.81247 3.03957 0
M  V30 2920 N 282.489 -5.64903 1.3366 0
M  V30 2921 H 285.254 -1.73272 2.44534 0
M  V30 2922 H 282.815 -0.813512 1.39977 0
M  V30 2923 H 284.807 -3.88902 1.11971 0
M  V30 2924 H 283.377 -3.09908 0.409371 0
M  V30 2925 H 282.597 -2.70847 2.86419 0
M  V30 2926 H 283.885 -3.82071 3.36005 0
M  V30 2927 H 283.283 -5.60975 0.729604 0
M  V30 2928 H 281.84 -6.40275 1.22032 0
M  V30 2929 N 285.273 -1.31445 -0.869486 0
M  V30 2930 C 286.203 -1.21727 -1.99261 0
M  V30 2931 C 287.184 -0.104359 -1.6978 0
M  V30 2932 O 288.369 -0.289038 -1.92037 0
M  V30 2933 C 285.499 -0.924317 -3.34774 0
M  V30 2934 C 284.453 -1.99685 -3.78563 0
M  V30 2935 C 283.779 -1.55658 -5.11541 0
M  V30 2936 C 285.079 -3.41003 -3.95619 0
M  V30 2937 H 286.773 -2.1569 -2.07649 0
M  V30 2938 H 284.319 -1.03839 -0.997675 0
M  V30 2939 H 286.272 -0.842934 -4.12883 0
M  V30 2940 H 284.996 0.0509793 -3.2656 0
M  V30 2941 H 283.655 -2.06813 -3.02694 0
M  V30 2942 H 283.303 -0.569132 -4.9977 0
M  V30 2943 H 283.003 -2.27409 -5.41811 0
M  V30 2944 H 284.527 -1.48928 -5.92159 0
M  V30 2945 H 285.941 -3.36547 -4.64122 0
M  V30 2946 H 284.338 -4.10975 -4.37286 0
M  V30 2947 H 285.408 -3.81754 -2.98985 0
M  V30 2948 N 286.751 1.08385 -1.14413 0
M  V30 2949 C 287.684 2.14642 -0.774871 0
M  V30 2950 C 288.662 1.60761 0.243876 0
M  V30 2951 O 289.846 1.88031 0.132883 0
M  V30 2952 C 286.973 3.38366 -0.150491 0
M  V30 2953 C 286.019 4.10997 -1.13945 0
M  V30 2954 S 286.852 4.63797 -2.67679 0
M  V30 2955 C 288.008 5.90808 -2.06631 0
M  V30 2956 H 288.241 2.45633 -1.67487 0
M  V30 2957 H 285.774 1.20498 -0.96538 0
M  V30 2958 H 287.732 4.09996 0.203334 0
M  V30 2959 H 286.393 3.05572 0.72694 0
M  V30 2960 H 285.586 4.99783 -0.65059 0
M  V30 2961 H 285.188 3.4528 -1.43727 0
M  V30 2962 H 287.48 6.62411 -1.4219 0
M  V30 2963 H 288.423 6.4439 -2.93542 0
M  V30 2964 H 288.831 5.4383 -1.51357 0
M  V30 2965 N 288.23 0.939286 1.26551 0
M  V30 2966 C 289.455 0.602008 1.98471 0
M  V30 2967 C 289.88 -0.815624 1.69497 0
M  V30 2968 O 289.238 -1.54912 0.941905 0
M  V30 2969 C 289.286 0.848407 3.50477 0
M  V30 2970 O 288.39 -0.0804009 4.12322 0
M  V30 2971 H 287.731 0.23049 0.622712 0
M  V30 2972 H 290.261 1.2617 1.61066 0
M  V30 2973 H 290.271 0.768553 4.00696 0
M  V30 2974 H 288.946 1.88171 3.70897 0
M  V30 2975 H 287.523 0.0503508 3.72866 0
M  V30 2976 N 289.708 -1.40897 0.706093 0
M  V30 2977 C 290.64 -2.29199 0.00815776 0
M  V30 2978 C 291.653 -1.45336 -0.733582 0
M  V30 2979 O 292.842 -1.68727 -0.582537 0
M  V30 2980 C 289.942 -3.23417 -1.01265 0
M  V30 2981 C 289.115 -4.36089 -0.338387 0
M  V30 2982 C 288.174 -5.10811 -1.26326 0
M  V30 2983 O 287.2 -5.64215 -0.751651 0
M  V30 2984 N 288.402 -5.19269 -2.595 0
M  V30 2985 H 291.167 -2.89738 0.766297 0
M  V30 2986 H 288.728 -1.52164 0.55296 0
M  V30 2987 H 290.72 -3.70276 -1.63334 0
M  V30 2988 H 289.29 -2.64112 -1.67223 0
M  V30 2989 H 288.51 -3.91479 0.462352 0
M  V30 2990 H 289.798 -5.08634 0.130031 0
M  V30 2991 H 289.196 -4.77347 -3.03573 0
M  V30 2992 H 287.753 -5.69667 -3.16737 0
M  V30 2993 N 291.186 -0.45159 -1.50991 0
M  V30 2994 C 292.414 0.108334 -2.06616 0
M  V30 2995 C 292.829 1.35224 -1.31757 0
M  V30 2996 O 292.186 1.78475 -0.381174 0
M  V30 2997 C 292.237 0.41619 -3.59096 0
M  V30 2998 O 291.958 -0.778361 -4.3113 0
M  V30 2999 C 293.459 1.02523 -4.31282 0
M  V30 3000 H 290.679 0.00159995 -0.670998 0
M  V30 3001 H 293.223 -0.634771 -1.94399 0
M  V30 3002 H 291.378 1.10921 -3.71181 0
M  V30 3003 H 291.792 -0.511181 -5.22003 0
M  V30 3004 H 293.266 1.19053 -5.39009 0
M  V30 3005 H 293.743 2.01013 -3.905 0
M  V30 3006 H 294.349 0.371173 -4.23677 0
M  V30 3007 N 292.664 1.56529 -0.183458 0
M  V30 3008 C 293.594 2.21549 0.737456 0
M  V30 3009 C 294.575 1.17489 1.23005 0
M  V30 3010 O 295.76 1.45959 1.281 0
M  V30 3011 C 292.89 2.86575 1.96194 0
M  V30 3012 C 291.844 3.96778 1.60473 0
M  V30 3013 C 291.17 4.48911 2.90487 0
M  V30 3014 C 292.47 5.15767 0.823497 0
M  V30 3015 H 294.164 2.98761 0.195453 0
M  V30 3016 H 291.71 1.43702 0.0925686 0
M  V30 3017 H 293.663 3.30739 2.61131 0
M  V30 3018 H 292.387 2.06749 2.52828 0
M  V30 3019 H 291.046 3.53286 0.978997 0
M  V30 3020 H 290.694 3.65862 3.45186 0
M  V30 3021 H 290.394 5.23265 2.67335 0
M  V30 3022 H 291.918 4.95771 3.56432 0
M  V30 3023 H 293.332 5.56549 1.37571 0
M  V30 3024 H 291.729 5.96114 0.690551 0
M  V30 3025 H 292.799 4.84574 -0.177782 0
M  V30 3026 N 294.142 -0.090211 1.57342 0
M  V30 3027 C 295.072 -1.10976 2.05443 0
M  V30 3028 C 296.053 -1.41482 0.944284 0
M  V30 3029 O 297.238 -1.51428 1.21586 0
M  V30 3030 C 294.368 -2.42831 2.48295 0
M  V30 3031 C 293.322 -2.26721 3.63018 0
M  V30 3032 C 292.648 -3.63796 3.91863 0
M  V30 3033 C 293.948 -1.7037 4.93732 0
M  V30 3034 H 295.642 -0.709564 2.9087 0
M  V30 3035 H 293.188 -0.339874 1.39932 0
M  V30 3036 H 295.141 -3.14431 2.80555 0
M  V30 3037 H 293.865 -2.84795 1.59873 0
M  V30 3038 H 292.524 -1.57565 3.31012 0
M  V30 3039 H 292.172 -4.03297 3.00601 0
M  V30 3040 H 291.872 -3.53861 4.69101 0
M  V30 3041 H 293.396 -4.36855 4.26603 0
M  V30 3042 H 294.81 -2.31816 5.24342 0
M  V30 3043 H 293.207 -1.71181 5.75167 0
M  V30 3044 H 294.277 -0.663542 4.80339 0
M  V30 3045 N 295.62 -1.53406 -0.361157 0
M  V30 3046 C 297.031 -1.61442 -0.937728 0
M  V30 3047 C 297.382 -0.48461 -1.90121 0
M  V30 3048 O 296.507 0.388312 -2.12888 0
M  V30 3049 C 297.102 -2.92624 -1.70753 0
M  V30 3050 C 295.661 -3.02981 -2.23337 0
M  V30 3051 C 294.808 -2.5677 -1.04712 0
M  V30 3052 H 297.759 -1.58083 -0.139816 0
M  V30 3053 H 297.78 -2.80675 -2.56908 0
M  V30 3054 H 297.292 -3.74834 -1.00604 0
M  V30 3055 H 295.393 -2.25368 -2.96715 0
M  V30 3056 H 295.506 -4.0814 -2.50916 0
M  V30 3057 H 293.87 -2.11752 -1.41539 0
M  V30 3058 H 294.653 -3.41402 -0.360539 0
M  V30 3059 N 297.098 0.621204 -1.44841 0
M  V30 3060 C 298.045 1.73267 -1.5247 0
M  V30 3061 C 299.015 1.6189 -0.371611 0
M  V30 3062 O 300.2 1.81668 -0.58321 0
M  V30 3063 C 297.34 3.11545 -1.48438 0
M  V30 3064 C 296.453 3.33827 -2.74196 0
M  V30 3065 C 295.588 4.62133 -2.61929 0
M  V30 3066 C 294.627 4.77627 -3.82804 0
M  V30 3067 N 293.764 5.97219 -3.69153 0
M  V30 3068 H 298.604 1.66082 -2.47428 0
M  V30 3069 H 296.141 0.810026 -1.22788 0
M  V30 3070 H 298.099 3.91528 -1.4409 0
M  V30 3071 H 296.729 3.1772 -0.570402 0
M  V30 3072 H 295.781 2.47715 -2.88689 0
M  V30 3073 H 297.093 3.41153 -3.6389 0
M  V30 3074 H 296.247 5.50291 -2.5547 0
M  V30 3075 H 294.986 4.57182 -1.69811 0
M  V30 3076 H 293.991 3.87896 -3.89637 0
M  V30 3077 H 295.216 4.84385 -4.75971 0
M  V30 3078 H 293.162 5.93339 -2.79794 0
M  V30 3079 H 293.079 6.05644 -4.52472 0
M  V30 3080 H 294.347 6.87912 -3.66603 0
M  V30 3081 N 298.576 1.31904 0.862503 0
M  V30 3082 C 299.506 1.22782 1.98612 0
M  V30 3083 C 300.487 0.113362 1.69722 0
M  V30 3084 O 301.672 0.299218 1.91881 0
M  V30 3085 C 298.802 0.942058 3.34279 0
M  V30 3086 C 297.756 2.0169 3.77499 0
M  V30 3087 C 297.082 1.58369 5.10709 0
M  V30 3088 C 298.382 3.43096 3.93805 0
M  V30 3089 H 300.076 2.16788 2.06502 0
M  V30 3090 H 297.622 1.04366 0.992154 0
M  V30 3091 H 299.575 0.864818 4.1243 0
M  V30 3092 H 298.299 -0.0336603 3.26583 0
M  V30 3093 H 296.958 2.08416 3.01593 0
M  V30 3094 H 296.606 0.595628 4.99461 0
M  V30 3095 H 296.306 2.30279 5.40597 0
M  V30 3096 H 297.83 1.52067 5.91361 0
M  V30 3097 H 299.244 3.39003 4.62331 0
M  V30 3098 H 297.641 4.13288 4.35101 0
M  V30 3099 H 298.711 3.83334 2.96957 0
M  V30 3100 N 300.054 -1.07777 1.14986 0
M  V30 3101 C 301.302 -1.79934 0.920235 0
M  V30 3102 C 301.623 -1.86955 -0.554336 0
M  V30 3103 O 300.893 -1.36731 -1.40291 0
M  V30 3104 H 299.473 -0.666424 0.337473 0
M  V30 3105 H 302.135 -1.3027 1.44968 0
M  V30 3106 H 301.231 -2.82539 1.32583 0
M  V30 3107 N 301.532 -0.945985 -1.26051 0
M  V30 3108 C 302.462 -0.477172 -2.28572 0
M  V30 3109 C 303.443 0.472032 -1.63419 0
M  V30 3110 O 304.628 0.372853 -1.90587 0
M  V30 3111 C 301.758 0.253975 -3.4637 0
M  V30 3112 C 300.712 -0.609135 -4.23643 0
M  V30 3113 C 300.038 0.252252 -5.34105 0
M  V30 3114 C 301.338 -1.8829 -4.8718 0
M  V30 3115 H 303.032 -1.33402 -2.68038 0
M  V30 3116 H 300.578 -0.642904 -1.28852 0
M  V30 3117 H 302.531 0.593016 -4.17207 0
M  V30 3118 H 301.255 1.145 -3.05871 0
M  V30 3119 H 299.914 -0.931138 -3.54578 0
M  V30 3120 H 299.562 1.14278 -4.89846 0
M  V30 3121 H 299.262 -0.32188 -5.86718 0
M  V30 3122 H 300.786 0.586454 -6.07777 0
M  V30 3123 H 302.2 -1.61081 -5.50205 0
M  V30 3124 H 300.597 -2.40199 -5.49931 0
M  V30 3125 H 301.667 -2.59134 -4.09851 0
M  V30 3126 N 303.011 1.40521 -0.713556 0
M  V30 3127 C 303.961 2.27971 -0.036165 0
M  V30 3128 C 304.945 1.43151 0.734623 0
M  V30 3129 O 306.137 1.66261 0.607158 0
M  V30 3130 C 303.266 3.31661 0.886331 0
M  V30 3131 C 302.352 4.23955 0.110836 0
M  V30 3132 N 302.743 4.97641 -0.904847 0
M  V30 3133 C 301.041 4.44674 0.343692 0
M  V30 3134 C 301.742 5.65322 -1.37064 0
M  V30 3135 N 300.718 5.39162 -0.693168 0
M  V30 3136 H 304.52 2.82384 -0.814645 0
M  V30 3137 H 302.034 1.52948 -0.545963 0
M  V30 3138 H 304.031 3.93154 1.38692 0
M  V30 3139 H 302.691 2.78808 1.66421 0
M  V30 3140 H 303.702 5.01689 -1.28563 0
M  V30 3141 H 300.379 4.02801 1.09805 0
M  V30 3142 H 301.769 6.34359 -2.21447 0
M  V30 3143 N 304.489 0.459591 1.5075 0
M  V30 3144 C 305.439 -0.358926 2.25157 0
M  V30 3145 C 306.423 -0.971285 1.28276 0
M  V30 3146 O 307.615 -0.885739 1.53244 0
M  V30 3147 C 304.744 -1.44695 3.11317 0
M  V30 3148 C 303.83 -0.842894 4.15639 0
M  V30 3149 N 304.221 0.0299373 5.05791 0
M  V30 3150 C 302.519 -1.10809 4.32015 0
M  V30 3151 C 303.22 0.371563 5.80512 0
M  V30 3152 N 302.196 -0.250409 5.43023 0
M  V30 3153 H 305.998 0.313636 2.92222 0
M  V30 3154 H 303.512 0.273021 1.60089 0
M  V30 3155 H 305.509 -2.04641 3.63218 0
M  V30 3156 H 304.169 -2.12162 2.45799 0
M  V30 3157 H 305.18 0.39797 5.16369 0
M  V30 3158 H 301.857 -1.7786 3.77719 0
M  V30 3159 H 303.247 1.08319 6.63111 0
M  V30 3160 N 305.967 -1.56429 0.191757 0
M  V30 3161 C 307.195 -2.01867 -0.453586 0
M  V30 3162 C 307.61 -1.07191 -1.5542 0
M  V30 3163 O 306.967 -0.0762108 -1.82341 0
M  V30 3164 C 307.018 -3.47017 -1.013 0
M  V30 3165 O 306.739 -4.38078 0.0437005 0
M  V30 3166 C 308.24 -4.07956 -1.73456 0
M  V30 3167 H 305.46 -0.661211 -0.114199 0
M  V30 3168 H 308.004 -2.02295 0.299483 0
M  V30 3169 H 306.159 -3.47298 -1.71647 0
M  V30 3170 H 306.573 -5.23178 -0.372212 0
M  V30 3171 H 308.047 -5.1138 -2.07833 0
M  V30 3172 H 308.524 -3.51222 -2.63704 0
M  V30 3173 H 309.13 -4.11437 -1.07702 0
M  V30 3174 N 307.445 0.0818655 -1.57387 0
M  V30 3175 C 308.675 0.794954 -1.90694 0
M  V30 3176 C 309.083 1.72147 -0.784982 0
M  V30 3177 O 308.426 1.81974 0.251196 0
M  V30 3178 C 308.488 1.65042 -3.19376 0
M  V30 3179 C 308.152 0.894337 -4.48164 0
M  V30 3180 C 309.149 0.21813 -5.19442 0
M  V30 3181 C 306.834 0.864495 -4.94805 0
M  V30 3182 C 308.828 -0.477802 -6.35607 0
M  V30 3183 C 306.515 0.164785 -6.10878 0
M  V30 3184 C 307.513 -0.505173 -6.81129 0
M  V30 3185 O 307.201 -1.19363 -7.94989 0
M  V30 3186 H 306.933 0.231779 -0.635023 0
M  V30 3187 H 309.487 0.059493 -2.05314 0
M  V30 3188 H 307.717 2.42844 -3.00938 0
M  V30 3189 H 309.406 2.24127 -3.38411 0
M  V30 3190 H 310.172 0.232558 -4.84442 0
M  V30 3191 H 306.051 1.37542 -4.40004 0
M  V30 3192 H 309.595 -1.00129 -6.90377 0
M  V30 3193 H 305.492 0.148249 -6.4533 0
M  V30 3194 H 306.26 -1.10188 -8.11049 0
M  V30 3195 N 308.923 1.53595 0.353017 0
M  V30 3196 C 310.172 1.69603 1.09168 0
M  V30 3197 C 310.485 0.460925 1.90092 0
M  V30 3198 O 311.691 0.501774 2.66823 0
M  V30 3199 C 310.147 2.99872 1.9901 0
M  V30 3200 C 309.755 4.30687 1.23339 0
M  V30 3201 C 311.499 3.25246 2.72792 0
M  V30 3202 C 309.406 5.52036 2.12156 0
M  V30 3203 H 308.336 0.631966 0.411261 0
M  V30 3204 H 310.987 1.80096 0.351802 0
M  V30 3205 H 309.369 2.83212 2.7678 0
M  V30 3206 H 310.543 4.58019 0.505456 0
M  V30 3207 H 308.858 4.11853 0.613663 0
M  V30 3208 H 311.455 4.13095 3.39495 0
M  V30 3209 H 311.798 2.41846 3.38846 0
M  V30 3210 H 312.331 3.42638 2.021 0
M  V30 3211 H 309.07 6.37951 1.50659 0
M  V30 3212 H 308.59 5.28966 2.82764 0
M  V30 3213 H 310.269 5.87313 2.71427 0
M  V30 3214 N 310.401 -0.613514 1.45168 0
M  V30 3215 C 311.333 -1.73825 1.4939 0
M  V30 3216 C 312.346 -1.58175 0.385304 0
M  V30 3217 O 313.535 -1.66165 0.652036 0
M  V30 3218 C 310.635 -3.11758 1.32891 0
M  V30 3219 C 309.808 -3.53704 2.57317 0
M  V30 3220 C 308.867 -4.70579 2.35462 0
M  V30 3221 O 307.893 -4.77996 3.09044 0
M  V30 3222 N 309.095 -5.63454 1.39644 0
M  V30 3223 H 311.86 -1.70669 2.46358 0
M  V30 3224 H 309.421 -0.79862 1.40832 0
M  V30 3225 H 311.413 -3.87692 1.1609 0
M  V30 3226 H 309.983 -3.09456 0.442218 0
M  V30 3227 H 309.203 -2.67794 2.89275 0
M  V30 3228 H 310.491 -3.78486 3.40038 0
M  V30 3229 H 309.889 -5.6017 0.789062 0
M  V30 3230 H 308.446 -6.38944 1.28816 0
M  V30 3231 N 311.879 -1.3236 -0.855495 0
M  V30 3232 C 313.125 -1.23054 -1.612 0
M  V30 3233 C 313.458 0.207404 -1.93089 0
M  V30 3234 O 312.733 1.14432 -1.57275 0
M  V30 3235 C 313.016 -2.08937 -2.93287 0
M  V30 3236 C 312.869 -3.61105 -2.68185 0
M  V30 3237 C 314.188 -1.94986 -3.94549 0
M  V30 3238 H 311.307 -0.448364 -0.584926 0
M  V30 3239 H 313.949 -1.62297 -0.987917 0
M  V30 3240 H 312.099 -1.75599 -3.46551 0
M  V30 3241 H 313.771 -4.04652 -2.21483 0
M  V30 3242 H 312.014 -3.83813 -2.02164 0
M  V30 3243 H 312.685 -4.16522 -3.62234 0
M  V30 3244 H 315.161 -2.24189 -3.5054 0
M  V30 3245 H 314.037 -2.57356 -4.84829 0
M  V30 3246 H 314.298 -0.917263 -4.3248 0
M  V30 3247 N 313.357 1.07166 -1.15556 0
M  V30 3248 C 314.768 1.6127 -0.940693 0
M  V30 3249 C 315.119 1.89251 0.517551 0
M  V30 3250 O 314.244 1.65937 1.38903 0
M  V30 3251 C 314.839 2.92993 -1.7012 0
M  V30 3252 C 313.398 3.43832 -1.53156 0
M  V30 3253 C 312.545 2.1786 -1.71558 0
M  V30 3254 H 315.496 0.90229 -1.30554 0
M  V30 3255 H 315.517 3.62007 -1.17181 0
M  V30 3256 H 315.029 2.72596 -2.76248 0
M  V30 3257 H 313.13 3.69307 -0.494294 0
M  V30 3258 H 313.243 4.19747 -2.30975 0
M  V30 3259 H 311.607 2.2765 -1.14225 0
M  V30 3260 H 312.39 1.99956 -2.79056 0
M  V30 3261 N 314.835 0.952656 1.25548 0
M  V30 3262 C 315.745 0.47782 2.29682 0
M  V30 3263 C 316.761 -0.453859 1.67977 0
M  V30 3264 O 317.937 -0.330587 1.98668 0
M  V30 3265 C 315.002 -0.238655 3.45878 0
M  V30 3266 C 314.063 0.730994 4.23031 0
M  V30 3267 C 313.296 0.0486165 5.33678 0
M  V30 3268 O 313.519 -1.16612 5.58353 0
M  V30 3269 O 312.453 0.733152 5.97418 0
M  V30 3270 H 316.279 1.34312 2.72386 0
M  V30 3271 H 313.864 0.719026 1.30959 0
M  V30 3272 H 315.746 -0.641774 4.16484 0
M  V30 3273 H 314.421 -1.07916 3.05181 0
M  V30 3274 H 313.328 1.18428 3.5486 0
M  V30 3275 H 314.661 1.53946 4.67506 0
M  V30 3276 N 316.313 -1.40141 0.720998 0
M  V30 3277 C 317.538 -2.05618 0.271258 0
M  V30 3278 C 317.963 -1.53978 -1.08039 0
M  V30 3279 O 317.321 -0.677463 -1.68167 0
M  V30 3280 C 317.369 -3.59609 0.267197 0
M  V30 3281 O 316.473 -4.05526 -0.749814 0
M  V30 3282 H 315.814 -0.651904 0.126162 0
M  V30 3283 H 318.344 -1.79439 0.982997 0
M  V30 3284 H 318.354 -4.0786 0.106744 0
M  V30 3285 H 317.029 -3.96559 1.25354 0
M  V30 3286 H 315.606 -3.68722 -0.556644 0
M  V30 3287 N 317.792 -0.46758 -1.50504 0
M  V30 3288 C 318.755 0.317059 -2.26996 0
M  V30 3289 C 319.755 0.923513 -1.31635 0
M  V30 3290 O 320.945 0.793239 -1.55091 0
M  V30 3291 C 318.077 1.45134 -3.08462 0
M  V30 3292 H 319.27 -0.353723 -2.97807 0
M  V30 3293 H 316.823 -0.221545 -1.54722 0
M  V30 3294 H 317.558 2.15728 -2.4214 0
M  V30 3295 H 317.343 1.02232 -3.78538 0
M  V30 3296 H 318.833 2.00493 -3.66323 0
M  V30 3297 N 319.27 1.56325 -0.20005 0
M  V30 3298 C 320.519 1.96895 0.437652 0
M  V30 3299 C 320.832 1.08999 1.62415 0
M  V30 3300 O 322.038 1.39372 2.32997 0
M  V30 3301 C 320.494 3.50198 0.830025 0
M  V30 3302 C 320.102 4.46765 -0.332461 0
M  V30 3303 C 321.846 3.99526 1.43453 0
M  V30 3304 C 319.753 5.91344 0.0811468 0
M  V30 3305 H 318.683 0.735209 0.167282 0
M  V30 3306 H 321.334 1.81148 -0.292853 0
M  V30 3307 H 319.716 3.61467 1.61734 0
M  V30 3308 H 320.89 4.47231 -1.11 0
M  V30 3309 H 319.205 4.07657 -0.848789 0
M  V30 3310 H 321.802 5.05025 1.75652 0
M  V30 3311 H 322.145 3.44122 2.34277 0
M  V30 3312 H 322.678 3.91393 0.71109 0
M  V30 3313 H 319.417 6.50685 -0.793033 0
M  V30 3314 H 318.937 5.94121 0.823445 0
M  V30 3315 H 320.616 6.44945 0.515252 0
M  V30 3316 N 320.748 -0.0735177 1.57428 0
M  V30 3317 C 321.711 -1.07192 2.02589 0
M  V30 3318 C 322.711 -1.31695 0.922661 0
M  V30 3319 O 323.901 -1.27445 1.18758 0
M  V30 3320 C 321.033 -2.41599 2.40506 0
M  V30 3321 H 322.226 -0.682727 2.92025 0
M  V30 3322 H 319.779 -0.319193 1.53006 0
M  V30 3323 H 320.514 -2.85354 1.5409 0
M  V30 3324 H 320.299 -2.25156 3.21009 0
M  V30 3325 H 321.789 -3.13367 2.76027 0
M  V30 3326 N 322.226 -1.5378 -0.344866 0
M  V30 3327 C 323.174 -1.82373 -1.4437 0
M  V30 3328 C 324.168 -0.694128 -1.54526 0
M  V30 3329 O 325.374 -0.877442 -1.57165 0
M  V30 3330 H 321.749 -0.577765 -0.481344 0
M  V30 3331 H 323.72 -2.74306 -1.17468 0
M  V30 3332 C 322.469 -2.04898 -2.80913 0
M  V30 3333 H 321.792 -2.9127 -2.73865 0
M  V30 3334 H 323.232 -2.28871 -3.56923 0
M  V30 3335 C 321.691 -0.834116 -3.26411 0
M  V30 3336 O 322.221 -0.0328885 -4.01687 0
M  V30 3337 N 320.427 -0.65171 -2.83198 0
M  V30 3338 H 319.974 -1.30489 -2.22104 0
M  V30 3339 H 319.932 0.159686 -3.13994 0
M  V30 3340 N 323.704 0.605807 -1.45491 0
M  V30 3341 C 324.934 1.38934 -1.52908 0
M  V30 3342 C 325.342 1.88513 -0.161086 0
M  V30 3343 O 324.685 1.62962 0.847891 0
M  V30 3344 C 324.747 2.62737 -2.45376 0
M  V30 3345 C 324.411 2.34785 -3.92078 0
M  V30 3346 C 325.408 1.95038 -4.8193 0
M  V30 3347 C 323.093 2.47642 -4.37011 0
M  V30 3348 C 325.087 1.68511 -6.14722 0
M  V30 3349 C 322.774 2.20728 -5.69844 0
M  V30 3350 C 323.772 1.81225 -6.58519 0
M  V30 3351 O 323.46 1.54627 -7.88889 0
M  V30 3352 H 323.192 0.431629 -0.520262 0
M  V30 3353 H 325.746 0.74573 -1.91384 0
M  V30 3354 H 323.976 3.29824 -2.01874 0
M  V30 3355 H 325.665 3.24783 -2.43456 0
M  V30 3356 H 326.431 1.84639 -4.48479 0
M  V30 3357 H 322.31 2.77356 -3.68232 0
M  V30 3358 H 325.854 1.37602 -6.83894 0
M  V30 3359 H 321.751 2.30744 -6.02849 0
M  V30 3360 H 322.519 1.68665 -8.00933 0
M  V30 3361 N 325.182 1.32811 0.848464 0
M  V30 3362 C 326.145 1.22194 1.9391 0
M  V30 3363 C 327.145 0.143404 1.60159 0
M  V30 3364 O 328.335 0.394253 1.6968 0
M  V30 3365 C 325.467 0.88067 3.29328 0
M  V30 3366 H 326.66 2.19127 2.04752 0
M  V30 3367 H 324.213 1.16731 1.0394 0
M  V30 3368 H 324.948 -0.0865776 3.24184 0
M  V30 3369 H 324.733 1.66052 3.55203 0
M  V30 3370 H 326.223 0.830871 4.09251 0
M  V30 3371 N 326.66 -1.06551 1.16123 0
M  V30 3372 C 327.89 -1.8274 0.963838 0
M  V30 3373 C 328.298 -1.82712 -0.491228 0
M  V30 3374 O 327.641 -1.24294 -1.35265 0
M  V30 3375 C 327.703 -3.3065 1.41106 0
M  V30 3376 C 327.367 -3.54384 2.88549 0
M  V30 3377 C 328.364 -3.4765 3.86569 0
M  V30 3378 C 326.049 -3.81789 3.26408 0
M  V30 3379 C 328.043 -3.67982 5.2045 0
M  V30 3380 C 325.73 -4.01772 4.60459 0
M  V30 3381 C 326.728 -3.94866 5.57288 0
M  V30 3382 O 326.416 -4.14306 6.88916 0
M  V30 3383 H 326.148 -0.583136 0.341948 0
M  V30 3384 H 328.702 -1.35351 1.54497 0
M  V30 3385 H 326.932 -3.78887 0.773394 0
M  V30 3386 H 328.621 -3.88324 1.1815 0
M  V30 3387 H 329.387 -3.2647 3.58667 0
M  V30 3388 H 325.266 -3.86276 2.51619 0
M  V30 3389 H 328.81 -3.62507 5.96015 0
M  V30 3390 H 324.707 -4.2244 4.88072 0
M  V30 3391 H 325.475 -4.31609 6.95454 0
M  V30 3392 N 328.138 -0.959301 -1.25041 0
M  V30 3393 C 329.386 -0.615393 -1.92503 0
M  V30 3394 C 329.707 0.850969 -1.75452 0
M  V30 3395 O 328.977 1.60658 -1.12098 0
M  V30 3396 H 327.557 -0.224613 -0.712431 0
M  V30 3397 H 330.219 -1.21855 -1.5211 0
M  V30 3398 H 329.315 -0.848738 -3.00338 0
M  V30 3399 N 329.616 1.39756 -0.72842 0
M  V30 3400 C 330.846 2.04651 -0.283117 0
M  V30 3401 C 331.254 1.5502 1.08469 0
M  V30 3402 O 330.597 0.707343 1.69536 0
M  V30 3403 C 330.659 3.58947 -0.199309 0
M  V30 3404 C 330.323 4.31525 -1.5045 0
M  V30 3405 C 331.32 4.5861 -2.44894 0
M  V30 3406 C 329.005 4.70195 -1.76698 0
M  V30 3407 C 330.999 5.23366 -3.63822 0
M  V30 3408 C 328.686 5.3468 -2.95906 0
M  V30 3409 C 329.684 5.61198 -3.89289 0
M  V30 3410 O 329.372 6.24347 -5.06404 0
M  V30 3411 H 329.104 0.664777 -0.122666 0
M  V30 3412 H 331.658 1.79913 -0.990987 0
M  V30 3413 H 329.888 3.82556 0.56461 0
M  V30 3414 H 331.577 4.0534 0.213125 0
M  V30 3415 H 332.343 4.29187 -2.25883 0
M  V30 3416 H 328.222 4.48916 -1.04859 0
M  V30 3417 H 331.766 5.4398 -4.36728 0
M  V30 3418 H 327.663 5.63524 -3.14819 0
M  V30 3419 H 328.431 6.42842 -5.06652 0
M  V30 3420 N 331.094 0.475555 1.50254 0
M  V30 3421 C 332.319 -0.0777042 2.07254 0
M  V30 3422 C 332.744 -1.3235 1.3366 0
M  V30 3423 O 332.102 -1.77152 0.385597 0
M  V30 3424 C 332.15 -0.340169 3.58992 0
M  V30 3425 O 331.254 -1.41982 3.87188 0
M  V30 3426 H 330.595 0.0149556 0.663832 0
M  V30 3427 H 333.125 0.667878 1.93392 0
M  V30 3428 H 333.135 -0.579332 4.03866 0
M  V30 3429 H 331.81 0.570167 4.11973 0
M  V30 3430 H 330.387 -1.16762 3.54148 0
M  V30 3431 N 332.573 -1.56217 0.208337 0
M  V30 3432 C 333.52 -2.19699 -0.707192 0
M  V30 3433 C 334.49 -1.14836 -1.20008 0
M  V30 3434 O 335.675 -1.4314 -1.26157 0
M  V30 3435 C 332.815 -2.87061 -1.91546 0
M  V30 3436 C 331.928 -4.06483 -1.46271 0
M  V30 3437 C 331.063 -4.61665 -2.62752 0
M  V30 3438 C 330.102 -5.73417 -2.14147 0
M  V30 3439 N 329.239 -6.22948 -3.23853 0
M  V30 3440 H 334.079 -2.97575 -0.159111 0
M  V30 3441 H 331.616 -1.46948 -0.0667874 0
M  V30 3442 H 333.574 -3.24294 -2.62468 0
M  V30 3443 H 332.204 -2.11725 -2.43664 0
M  V30 3444 H 331.256 -3.74825 -0.648886 0
M  V30 3445 H 332.568 -4.87271 -1.06622 0
M  V30 3446 H 331.722 -5.01272 -3.41776 0
M  V30 3447 H 330.461 -3.80013 -3.05682 0
M  V30 3448 H 329.466 -5.33326 -1.33581 0
M  V30 3449 H 330.691 -6.56897 -1.72232 0
M  V30 3450 H 328.637 -5.44213 -3.6629 0
M  V30 3451 H 328.554 -6.98823 -2.88414 0
M  V30 3452 H 329.822 -6.6721 -4.03052 0
M  V30 3453 N 334.051 0.0651679 -1.57465 0
M  V30 3454 C 334.961 1.09448 -2.07505 0
M  V30 3455 C 335.977 1.41974 -1.00595 0
M  V30 3456 O 337.153 1.52018 -1.32107 0
M  V30 3457 C 334.218 2.38689 -2.51453 0
M  V30 3458 C 333.279 2.13073 -3.72691 0
M  V30 3459 C 332.512 3.36152 -4.14533 0
M  V30 3460 O 332.735 4.45517 -3.56189 0
M  V30 3461 O 331.669 3.23974 -5.07272 0
M  V30 3462 H 335.495 0.69935 -2.95538 0
M  V30 3463 H 333.08 0.279752 -1.46757 0
M  V30 3464 H 334.962 3.14736 -2.80212 0
M  V30 3465 H 333.637 2.77568 -1.66546 0
M  V30 3466 H 332.544 1.34709 -3.49005 0
M  V30 3467 H 333.877 1.79071 -4.5847 0
M  V30 3468 N 335.529 1.53961 0.336706 0
M  V30 3469 C 336.806 1.62171 1.09361 0
M  V30 3470 C 337.186 0.447263 2.06307 0
M  V30 3471 O 336.534 -0.559802 2.21537 0
M  V30 3472 C 336.744 2.98565 1.80721 0
M  V30 3473 C 338.092 3.54157 2.34218 0
M  V30 3474 O 339.116 3.00784 1.90807 0
M  V30 3475 O 337.975 4.47528 3.13657 0
M  V30 3476 H 335.069 0.6562 0.503319 0
M  V30 3477 H 337.615 1.66307 0.33765 0
M  V30 3478 H 336.387 3.75482 1.10132 0
M  V30 3479 H 336.01 2.9805 2.63158 0
M  V30 3480 N 337.007 -0.598083 1.45811 0
M  V30 3481 C 337.954 -1.7082 1.55207 0
M  V30 3482 C 338.924 -1.61278 0.39732 0
M  V30 3483 O 340.109 -1.80717 0.612038 0
M  V30 3484 C 337.249 -3.09144 1.53376 0
M  V30 3485 C 336.362 -3.29423 2.79472 0
M  V30 3486 C 335.497 -4.57907 2.69248 0
M  V30 3487 C 334.536 -4.71476 3.90354 0
M  V30 3488 N 333.673 -5.9127 3.78608 0
M  V30 3489 H 338.513 -1.62125 2.50039 0
M  V30 3490 H 336.05 -0.790389 1.24062 0
M  V30 3491 H 338.008 -3.89186 1.50301 0
M  V30 3492 H 336.638 -3.16773 0.620876 0
M  V30 3493 H 335.69 -2.43091 2.92594 0
M  V30 3494 H 337.002 -3.3532 3.69272 0
M  V30 3495 H 336.156 -5.46157 2.64192 0
M  V30 3496 H 334.895 -4.54423 1.77063 0
M  V30 3497 H 333.9 -3.81648 3.95759 0
M  V30 3498 H 335.125 -4.76751 4.83617 0
M  V30 3499 H 333.071 -5.88813 2.89199 0
M  V30 3500 H 332.988 -5.98369 4.6205 0
M  V30 3501 H 334.256 -6.81992 3.77501 0
M  V30 3502 N 338.485 -1.33259 -0.841409 0
M  V30 3503 C 339.896 -1.22066 -1.41269 0
M  V30 3504 C 340.247 0.161479 -1.95534 0
M  V30 3505 O 339.372 1.06094 -1.88608 0
M  V30 3506 C 339.967 -2.20996 -2.568 0
M  V30 3507 C 338.526 -2.13649 -3.09888 0
M  V30 3508 C 337.673 -2.08623 -1.82679 0
M  V30 3509 H 340.624 -1.44895 -0.647395 0
M  V30 3510 H 340.645 -1.81621 -3.34356 0
M  V30 3511 H 340.157 -3.2158 -2.17274 0
M  V30 3512 H 338.258 -1.16359 -3.53965 0
M  V30 3513 H 338.371 -3.04079 -3.70234 0
M  V30 3514 H 336.735 -1.54061 -2.02824 0
M  V30 3515 H 337.518 -3.1101 -1.45353 0
M  V30 3516 N 339.963 1.05934 -1.16686 0
M  V30 3517 C 341.209 1.79065 -0.95203 0
M  V30 3518 C 341.542 1.87147 0.518629 0
M  V30 3519 O 340.817 1.36574 1.38484 0
M  V30 3520 C 341.1 3.23359 -1.58464 0
M  V30 3521 C 340.953 3.23336 -3.12689 0
M  V30 3522 C 342.272 4.21004 -1.28232 0
M  V30 3523 H 339.391 0.65005 -0.34728 0
M  V30 3524 H 342.033 1.23868 -1.44072 0
M  V30 3525 H 340.183 3.70493 -1.16908 0
M  V30 3526 H 341.855 2.84336 -3.6325 0
M  V30 3527 H 340.098 2.61886 -3.4583 0
M  V30 3528 H 340.769 4.25144 -3.52075 0
M  V30 3529 H 343.245 3.8233 -1.64203 0
M  V30 3530 H 342.121 5.20225 -1.75092 0
M  V30 3531 H 342.382 4.41639 -0.201791 0
M  V30 3532 N 341.441 0.965919 1.2453 0
M  V30 3533 C 342.857 0.67216 1.44756 0
M  V30 3534 C 343.057 -0.766609 1.86347 0
M  V30 3535 O 342.113 -1.5407 2.00047 0
M  V30 3536 C 343.426 1.65473 2.51076 0
M  V30 3537 C 344.974 1.66716 2.64905 0
M  V30 3538 C 345.449 2.63766 3.74421 0
M  V30 3539 N 346.94 2.62198 3.81846 0
M  V30 3540 C 347.675 3.33966 4.66106 0
M  V30 3541 N 347.171 4.15245 5.54566 0
M  V30 3542 N 348.964 3.22799 4.60171 0
M  V30 3543 H 341.115 1.89553 0.958293 0
M  V30 3544 H 343.378 0.815979 0.482579 0
M  V30 3545 H 343.084 2.68296 2.27399 0
M  V30 3546 H 342.958 1.4261 3.49202 0
M  V30 3547 H 345.345 0.646057 2.87941 0
M  V30 3548 H 345.426 1.93642 1.67142 0
M  V30 3549 H 345.07 3.6601 3.52135 0
M  V30 3550 H 345 2.34121 4.71694 0
M  V30 3551 H 347.491 2.032 3.18619 0
M  V30 3552 H 347.804 4.66898 6.15814 0
M  V30 3553 H 346.149 4.1934 5.54237 0
M  V30 3554 H 349.34 2.58764 3.90075 0
M  V30 3555 H 349.513 3.78994 5.25612 0
M  V30 3556 N 342.919 -1.39368 0.735821 0
M  V30 3557 C 343.882 -2.2896 0.104874 0
M  V30 3558 C 344.882 -1.46347 -0.666274 0
M  V30 3559 O 346.072 -1.67014 -0.49517 0
M  V30 3560 C 343.204 -3.29857 -0.860656 0
M  V30 3561 H 344.397 -2.86259 0.894205 0
M  V30 3562 H 341.95 -1.48029 0.501704 0
M  V30 3563 H 342.685 -2.77615 -1.67631 0
M  V30 3564 H 342.47 -3.9087 -0.310327 0
M  V30 3565 H 343.96 -3.96893 -1.29867 0
M  V30 3566 N 344.397 -0.483516 -1.5 0
M  V30 3567 C 345.625 0.0644831 -2.06799 0
M  V30 3568 C 346.04 1.32399 -1.34596 0
M  V30 3569 O 345.397 1.77626 -0.418946 0
M  V30 3570 C 345.448 0.339927 -3.59898 0
M  V30 3571 O 345.169 -0.869635 -4.29382 0
M  V30 3572 C 346.67 0.933515 -4.33359 0
M  V30 3573 H 343.89 -0.0126333 -0.670881 0
M  V30 3574 H 346.434 -0.675864 -1.93009 0
M  V30 3575 H 344.589 1.03022 -3.7345 0
M  V30 3576 H 345.003 -0.62179 -5.20801 0
M  V30 3577 H 346.477 1.07593 -5.41413 0
M  V30 3578 H 346.954 1.92685 -3.94676 0
M  V30 3579 H 347.56 0.281221 -4.24369 0
M  V30 3580 N 345.875 1.56104 -0.216619 0
M  V30 3581 C 347.286 1.844 0.292128 0
M  V30 3582 C 347.637 1.13788 1.59833 0
M  V30 3583 O 346.762 0.405888 2.12559 0
M  V30 3584 C 347.357 3.3452 0.53681 0
M  V30 3585 C 345.916 3.63151 0.989876 0
M  V30 3586 C 345.063 2.77255 0.0502302 0
M  V30 3587 H 348.014 1.52481 -0.439926 0
M  V30 3588 H 348.035 3.54459 1.38345 0
M  V30 3589 H 347.547 3.85885 -0.414031 0
M  V30 3590 H 345.648 3.17238 1.95425 0
M  V30 3591 H 345.761 4.71177 0.867698 0
M  V30 3592 H 344.125 2.48555 0.556117 0
M  V30 3593 H 344.908 3.31416 -0.89544 0
M  V30 3594 N 347.353 -0.0568162 1.57498 0
M  V30 3595 C 348.601 -0.751617 1.87604 0
M  V30 3596 C 348.922 -1.77351 0.81066 0
M  V30 3597 O 348.192 -1.95254 -0.159018 0
M  V30 3598 H 346.772 -0.280583 0.692302 0
M  V30 3599 H 349.434 -0.0293483 1.94878 0
M  V30 3600 H 348.53 -1.25852 2.856 0
M  V30 3601 N 348.832 -1.54138 -0.328536 0
M  V30 3602 C 350.078 -1.7236 -1.06865 0
M  V30 3603 C 350.411 -0.493231 -1.87832 0
M  V30 3604 O 349.686 0.5098 -1.877 0
M  V30 3605 C 349.969 -2.99621 -1.99747 0
M  V30 3606 C 349.822 -4.32899 -1.22143 0
M  V30 3607 C 351.141 -3.22615 -2.99345 0
M  V30 3608 H 348.26 -0.627151 -0.387105 0
M  V30 3609 H 350.902 -1.86827 -0.345767 0
M  V30 3610 H 349.052 -2.87418 -2.61387 0
M  V30 3611 H 350.724 -4.56978 -0.630017 0
M  V30 3612 H 348.967 -4.30628 -0.523628 0
M  V30 3613 H 349.638 -5.18154 -1.90318 0
M  V30 3614 H 352.114 -3.34248 -2.47826 0
M  V30 3615 H 350.99 -4.13027 -3.61524 0
M  V30 3616 H 351.251 -2.3961 -3.71536 0
M  V30 3617 N 350.31 0.590341 -1.46126 0
M  V30 3618 C 351.24 1.71032 -1.58966 0
M  V30 3619 C 352.221 1.64302 -0.440335 0
M  V30 3620 O 353.406 1.82436 -0.665634 0
M  V30 3621 C 350.536 3.09665 -1.57241 0
M  V30 3622 C 349.49 3.31221 -2.71066 0
M  V30 3623 C 348.816 4.70303 -2.54399 0
M  V30 3624 C 350.116 3.19796 -4.1295 0
M  V30 3625 H 351.81 1.60543 -2.52718 0
M  V30 3626 H 349.356 0.770933 -1.21625 0
M  V30 3627 H 351.309 3.87831 -1.64819 0
M  V30 3628 H 350.033 3.21036 -0.600289 0
M  V30 3629 H 348.692 2.55452 -2.62944 0
M  V30 3630 H 348.34 4.78429 -1.55288 0
M  V30 3631 H 348.04 4.85679 -3.30741 0
M  V30 3632 H 349.564 5.50647 -2.63857 0
M  V30 3633 H 350.978 3.87815 -4.22223 0
M  V30 3634 H 349.375 3.46696 -4.89818 0
M  V30 3635 H 350.445 2.16983 -4.33643 0
M  V30 3636 N 351.788 1.33704 0.83433 0
M  V30 3637 C 352.751 1.24244 1.92603 0
M  V30 3638 C 353.751 0.160383 1.59998 0
M  V30 3639 O 354.941 0.412228 1.69252 0
M  V30 3640 C 352.073 0.91555 3.28376 0
M  V30 3641 H 353.266 2.21287 2.02416 0
M  V30 3642 H 350.819 1.17827 1.02696 0
M  V30 3643 H 351.554 -0.0521886 3.24258 0
M  V30 3644 H 351.339 1.69811 3.53422 0
M  V30 3645 H 352.829 0.874231 4.08347 0
M  V30 3646 N 353.266 -1.05314 1.17247 0
M  V30 3647 C 354.229 -2.112 0.890357 0
M  V30 3648 C 355.229 -1.60359 -0.118943 0
M  V30 3649 O 356.419 -1.73833 0.113086 0
M  V30 3650 C 353.551 -3.39266 0.333422 0
M  V30 3651 H 354.744 -2.37659 1.82916 0
M  V30 3652 H 352.297 -1.21538 0.982758 0
M  V30 3653 H 353.032 -3.18462 -0.612587 0
M  V30 3654 H 352.817 -3.77477 1.06082 0
M  V30 3655 H 354.307 -4.17315 0.154322 0
M  V30 3656 N 354.744 -0.972509 -1.24016 0
M  V30 3657 C 355.654 -0.5143 -2.28893 0
M  V30 3658 C 356.67 0.427078 -1.68677 0
M  V30 3659 O 357.846 0.298939 -1.99169 0
M  V30 3660 C 354.911 0.183598 -3.46214 0
M  V30 3661 C 353.972 -0.798202 -4.21814 0
M  V30 3662 C 353.205 -0.133514 -5.33533 0
M  V30 3663 O 353.428 1.07714 -5.60137 0
M  V30 3664 O 352.362 -0.828103 -5.96176 0
M  V30 3665 H 356.188 -1.38629 -2.70214 0
M  V30 3666 H 353.773 -0.739769 -1.29799 0
M  V30 3667 H 355.655 0.575433 -4.17453 0
M  V30 3668 H 354.33 1.03048 -3.0686 0
M  V30 3669 H 353.237 -1.24059 -3.52931 0
M  V30 3670 H 354.57 -1.61364 -4.64997 0
M  V30 3671 N 356.222 1.38976 -0.743202 0
M  V30 3672 C 357.185 2.28901 -0.117014 0
M  V30 3673 C 358.185 1.46698 0.658503 0
M  V30 3674 O 359.375 1.67274 0.486305 0
M  V30 3675 C 356.507 3.30309 0.84315 0
M  V30 3676 H 357.7 2.8578 -0.909373 0
M  V30 3677 H 355.253 1.47761 -0.509547 0
M  V30 3678 H 355.988 2.785 1.66157 0
M  V30 3679 H 355.773 3.91029 0.289594 0
M  V30 3680 H 357.263 3.97577 1.2776 0
M  V30 3681 N 357.7 0.491464 1.49741 0
M  V30 3682 C 358.93 -0.0534375 2.06531 0
M  V30 3683 C 359.338 -1.32233 1.35318 0
M  V30 3684 O 358.681 -1.78781 0.422243 0
M  V30 3685 C 358.743 -0.387034 3.57411 0
M  V30 3686 C 358.407 0.782764 4.50246 0
M  V30 3687 C 359.404 1.67059 4.92329 0
M  V30 3688 C 357.089 0.978866 4.9267 0
M  V30 3689 C 359.083 2.73874 5.75562 0
M  V30 3690 C 356.77 2.05022 5.75682 0
M  V30 3691 C 357.768 2.92851 6.17031 0
M  V30 3692 O 357.456 3.98138 6.98385 0
M  V30 3693 H 357.188 0.0129324 0.675876 0
M  V30 3694 H 359.742 0.685238 1.93633 0
M  V30 3695 H 357.972 -1.17918 3.68283 0
M  V30 3696 H 359.661 -0.869419 3.96479 0
M  V30 3697 H 360.427 1.53086 4.60206 0
M  V30 3698 H 356.306 0.304646 4.59992 0
M  V30 3699 H 359.85 3.42458 6.07757 0
M  V30 3700 H 355.747 2.18993 6.07217 0
M  V30 3701 H 356.515 3.95374 7.16674 0
M  V30 3702 N 359.178 -1.55987 0.224894 0
M  V30 3703 C 360.426 -1.97998 -0.405099 0
M  V30 3704 C 360.747 -1.11387 -1.60056 0
M  V30 3705 O 360.017 -0.191645 -1.9496 0
M  V30 3706 H 358.597 -0.731235 -0.152658 0
M  V30 3707 H 361.259 -1.92279 0.318567 0
M  V30 3708 H 360.355 -3.03463 -0.729167 0
M  V30 3709 N 360.656 0.0484629 -1.57525 0
M  V30 3710 C 361.905 0.742065 -1.87553 0
M  V30 3711 C 362.218 1.77545 -0.820802 0
M  V30 3712 O 363.424 2.52027 -1.00967 0
M  V30 3713 C 361.88 1.37081 -3.32771 0
M  V30 3714 C 361.488 0.374786 -4.4643 0
M  V30 3715 C 363.232 2.04542 -3.71972 0
M  V30 3716 C 361.139 1.01077 -5.82698 0
M  V30 3717 H 360.069 0.280903 -0.699721 0
M  V30 3718 H 362.72 -0.00411877 -1.835 0
M  V30 3719 H 361.102 2.16605 -3.31509 0
M  V30 3720 H 362.276 -0.392331 -4.59127 0
M  V30 3721 H 360.591 -0.196653 -4.15935 0
M  V30 3722 H 363.188 2.52943 -4.71088 0
M  V30 3723 H 363.531 2.85515 -3.02964 0
M  V30 3724 H 364.064 1.31819 -3.75325 0
M  V30 3725 H 360.803 0.240878 -6.55057 0
M  V30 3726 H 360.323 1.74819 -5.73758 0
M  V30 3727 H 362.002 1.52383 -6.28799 0
M  V30 3728 N 362.134 1.5431 0.320358 0
M  V30 3729 C 363.081 1.83918 1.39438 0
M  V30 3730 C 364.051 0.686525 1.51248 0
M  V30 3731 O 365.236 0.933269 1.66417 0
M  V30 3732 C 362.376 2.075 2.75749 0
M  V30 3733 C 361.489 3.35177 2.72544 0
M  V30 3734 C 360.624 3.48704 4.00723 0
M  V30 3735 C 359.663 4.70244 3.91838 0
M  V30 3736 N 358.8 4.80679 5.11754 0
M  V30 3737 H 363.64 2.75544 1.13489 0
M  V30 3738 H 361.177 1.36459 0.549309 0
M  V30 3739 H 363.135 2.19166 3.54996 0
M  V30 3740 H 361.765 1.19163 3 0
M  V30 3741 H 360.817 3.32233 1.85271 0
M  V30 3742 H 362.129 4.24534 2.61863 0
M  V30 3743 H 361.283 3.59928 4.88402 0
M  V30 3744 H 360.022 2.57445 4.14214 0
M  V30 3745 H 359.027 4.59072 3.02544 0
M  V30 3746 H 360.252 5.6289 3.7991 0
M  V30 3747 H 358.198 3.92337 5.25745 0
M  V30 3748 H 358.115 5.64007 5.0342 0
M  V30 3749 H 359.383 4.96239 6.01138 0
M  V30 3750 N 363.613 -0.582584 1.46437 0
M  V30 3751 C 364.841 -1.36682 1.55324 0
M  V30 3752 C 365.256 -1.87796 0.194409 0
M  V30 3753 O 364.613 -1.63623 -0.808318 0
M  V30 3754 C 364.664 -2.55426 2.55812 0
M  V30 3755 O 364.385 -2.0643 3.86417 0
M  V30 3756 C 365.886 -3.47976 2.74641 0
M  V30 3757 H 363.106 -0.417545 0.525259 0
M  V30 3758 H 365.65 -0.708219 1.91845 0
M  V30 3759 H 363.805 -3.17275 2.22295 0
M  V30 3760 H 364.219 -2.83762 4.41111 0
M  V30 3761 H 365.693 -4.27775 3.48874 0
M  V30 3762 H 366.17 -3.99919 1.81553 0
M  V30 3763 H 366.776 -2.91962 3.09255 0
M  V30 3764 N 365.091 -1.34144 -0.827227 0
M  V30 3765 C 366.339 -1.26009 -1.58007 0
M  V30 3766 C 366.66 0.170971 -1.94249 0
M  V30 3767 O 365.93 1.10256 -1.61927 0
M  V30 3768 H 364.51 -0.463414 -0.585881 0
M  V30 3769 H 367.172 -1.68005 -0.987951 0
M  V30 3770 H 366.268 -1.86187 -2.50481 0
M  V30 3771 N 366.569 1.04691 -1.17803 0
M  V30 3772 C 367.794 1.81984 -0.994813 0
M  V30 3773 C 368.219 1.82586 0.452112 0
M  V30 3774 O 367.577 1.23854 1.324 0
M  V30 3775 C 367.625 3.2575 -1.54659 0
M  V30 3776 O 366.729 4.05267 -0.763728 0
M  V30 3777 H 366.07 0.562483 -0.352857 0
M  V30 3778 H 368.6 1.3189 -1.56417 0
M  V30 3779 H 368.61 3.76541 -1.57102 0
M  V30 3780 H 367.285 3.24627 -2.59981 0
M  V30 3781 H 365.862 3.63972 -0.811108 0
M  V30 3782 N 368.047 0.979072 1.23499 0
M  V30 3783 C 369.01 0.523244 2.23147 0
M  V30 3784 C 370.01 -0.386406 1.56088 0
M  V30 3785 O 371.2 -0.180283 1.73265 0
M  V30 3786 C 368.332 -0.240739 3.40049 0
M  V30 3787 H 369.525 1.40432 2.64989 0
M  V30 3788 H 367.078 0.764824 1.36309 0
M  V30 3789 H 367.813 -1.13841 3.03662 0
M  V30 3790 H 367.598 0.412207 3.89927 0
M  V30 3791 H 369.088 -0.548297 4.13985 0
M  V30 3792 N 369.525 -1.3858 0.750561 0
M  V30 3793 C 370.802 -1.94231 0.231009 0
M  V30 3794 C 371.182 -1.68611 -1.27018 0
M  V30 3795 O 370.53 -1.02296 -2.04323 0
M  V30 3796 C 370.74 -3.44123 0.581428 0
M  V30 3797 C 372.088 -4.2116 0.539389 0
M  V30 3798 O 373.112 -3.52391 0.519541 0
M  V30 3799 O 371.971 -5.43749 0.54765 0
M  V30 3800 H 369.065 -0.825639 0.0474263 0
M  V30 3801 H 371.611 -1.4799 0.830478 0
M  V30 3802 H 370.383 -3.56267 1.61833 0
M  V30 3803 H 370.006 -3.97573 -0.0462047 0
M  V30 3804 N 371.003 -0.499398 -1.49478 0
M  V30 3805 C 371.933 0.269244 -2.31943 0
M  V30 3806 C 372.914 0.964054 -1.40143 0
M  V30 3807 O 374.099 0.955767 -1.69052 0
M  V30 3808 C 371.229 1.33504 -3.20615 0
M  V30 3809 C 370.183 0.760202 -4.21195 0
M  V30 3810 C 369.509 1.9264 -4.98792 0
M  V30 3811 C 370.809 -0.247661 -5.21712 0
M  V30 3812 H 372.503 -0.419082 -2.96452 0
M  V30 3813 H 370.049 -0.202988 -1.42562 0
M  V30 3814 H 372.002 1.88048 -3.77115 0
M  V30 3815 H 370.726 2.05253 -2.54045 0
M  V30 3816 H 369.385 0.23653 -3.65836 0
M  V30 3817 H 369.033 2.63154 -4.28671 0
M  V30 3818 H 368.733 1.54785 -5.66847 0
M  V30 3819 H 370.257 2.4762 -5.58137 0
M  V30 3820 H 371.671 0.209579 -5.72917 0
M  V30 3821 H 370.068 -0.541962 -5.97648 0
M  V30 3822 H 371.138 -1.16409 -4.7072 0
M  V30 3823 N 372.481 1.55866 -0.233164 0
M  V30 3824 C 373.411 2.23783 0.666599 0
M  V30 3825 C 374.392 1.21343 1.19205 0
M  V30 3826 O 375.577 1.4996 1.23392 0
M  V30 3827 C 372.707 2.92671 1.86978 0
M  V30 3828 C 371.661 4.01682 1.47768 0
M  V30 3829 C 370.987 4.57926 2.76058 0
M  V30 3830 C 372.287 5.18126 0.658993 0
M  V30 3831 H 373.981 2.99232 0.100306 0
M  V30 3832 H 371.527 1.43924 0.046804 0
M  V30 3833 H 373.48 3.3888 2.50476 0
M  V30 3834 H 372.204 2.14688 2.46123 0
M  V30 3835 H 370.863 3.56222 0.866106 0
M  V30 3836 H 370.511 3.76659 3.33372 0
M  V30 3837 H 370.211 5.31505 2.50552 0
M  V30 3838 H 371.735 5.06859 3.40479 0
M  V30 3839 H 373.149 5.60644 1.19795 0
M  V30 3840 H 371.546 5.98009 0.500552 0
M  V30 3841 H 372.616 4.83763 -0.331856 0
M  V30 3842 N 373.959 -0.0401083 1.57549 0
M  V30 3843 C 374.906 -1.04413 2.05831 0
M  V30 3844 C 375.876 -1.36585 0.945184 0
M  V30 3845 O 377.061 -1.47112 1.21502 0
M  V30 3846 C 374.201 -2.34336 2.53339 0
M  V30 3847 C 373.314 -2.08419 3.78398 0
M  V30 3848 C 372.449 -3.32133 4.14561 0
M  V30 3849 C 371.488 -3.01721 5.3257 0
M  V30 3850 N 370.625 -4.17855 5.64218 0
M  V30 3851 H 375.465 -0.625442 2.91363 0
M  V30 3852 H 373.002 -0.297218 1.44066 0
M  V30 3853 H 374.96 -3.10234 2.78946 0
M  V30 3854 H 373.59 -2.73948 1.7074 0
M  V30 3855 H 372.642 -1.23069 3.59942 0
M  V30 3856 H 373.954 -1.81978 4.64419 0
M  V30 3857 H 373.108 -4.16406 4.41238 0
M  V30 3858 H 371.847 -3.61678 3.2717 0
M  V30 3859 H 370.852 -2.15849 5.05657 0
M  V30 3860 H 372.077 -2.73466 6.21605 0
M  V30 3861 H 370.023 -4.47372 4.79786 0
M  V30 3862 H 369.94 -3.94798 6.44725 0
M  V30 3863 H 371.208 -5.03033 5.95465 0
M  V30 3864 N 375.437 -1.54477 -0.31217 0
M  V30 3865 C 376.684 -1.73227 -1.04875 0
M  V30 3866 C 377.012 -0.512042 -1.87639 0
M  V30 3867 O 376.267 0.506131 -1.89042 0
M  V30 3868 C 376.566 -2.967 -1.99258 0
M  V30 3869 C 376.232 -4.30974 -1.32559 0
M  V30 3870 C 374.894 -4.67477 -1.141 0
M  V30 3871 C 377.246 -5.14258 -0.847835 0
M  V30 3872 C 374.574 -5.84852 -0.465326 0
M  V30 3873 C 376.926 -6.32327 -0.185931 0
M  V30 3874 C 375.59 -6.67499 0.0107077 0
M  V30 3875 H 374.86 -0.633881 -0.383765 0
M  V30 3876 H 377.507 -1.88727 -0.324731 0
M  V30 3877 H 375.812 -2.75935 -2.7815 0
M  V30 3878 H 377.509 -3.08401 -2.563 0
M  V30 3879 H 374.099 -4.02262 -1.4793 0
M  V30 3880 H 378.283 -4.86565 -0.978192 0
M  V30 3881 H 373.539 -6.10654 -0.301883 0
M  V30 3882 H 377.713 -6.96135 0.192211 0
M  V30 3883 H 375.34 -7.58306 0.536287 0
M  V30 3884 N 376.915 0.57481 -1.46744 0
M  V30 3885 C 378.143 1.35856 -1.56047 0
M  V30 3886 C 378.558 1.87691 -0.204365 0
M  V30 3887 O 377.915 1.64049 0.79963 0
M  V30 3888 C 377.966 2.54066 -2.57163 0
M  V30 3889 O 377.687 2.04377 -3.87507 0
M  V30 3890 C 379.188 3.46514 -2.76483 0
M  V30 3891 H 376.408 0.414754 -0.527466 0
M  V30 3892 H 378.952 0.698035 -1.92218 0
M  V30 3893 H 377.107 3.16092 -2.23974 0
M  V30 3894 H 377.521 2.81419 -4.4261 0
M  V30 3895 H 378.995 4.25919 -3.51137 0
M  V30 3896 H 379.472 3.98951 -1.83671 0
M  V30 3897 H 380.078 2.90318 -3.10799 0
M  V30 3898 N 378.394 1.34581 0.820102 0
M  V30 3899 C 379.304 1.28471 1.96297 0
M  V30 3900 C 380.32 0.191902 1.72939 0
M  V30 3901 O 381.496 0.418879 1.96996 0
M  V30 3902 C 378.561 1.04281 3.30645 0
M  V30 3903 C 377.622 2.22745 3.66992 0
M  V30 3904 C 376.855 1.997 4.9493 0
M  V30 3905 O 377.078 0.956656 5.6232 0
M  V30 3906 O 376.012 2.86723 5.2922 0
M  V30 3907 H 379.838 2.24624 2.04396 0
M  V30 3908 H 377.423 1.14816 0.955913 0
M  V30 3909 H 379.305 0.925841 4.11104 0
M  V30 3910 H 377.98 0.111697 3.23507 0
M  V30 3911 H 376.887 2.40003 2.86966 0
M  V30 3912 H 378.22 3.14257 3.78819 0
M  V30 3913 N 379.872 -1.04064 1.18357 0
M  V30 3914 C 380.835 -2.10243 0.912707 0
M  V30 3915 C 381.835 -1.60477 -0.101928 0
M  V30 3916 O 383.025 -1.73703 0.131517 0
M  V30 3917 C 380.157 -3.38893 0.369387 0
M  V30 3918 H 381.35 -2.35706 1.85426 0
M  V30 3919 H 378.903 -1.20489 0.995594 0
M  V30 3920 H 379.638 -3.19094 -0.578776 0
M  V30 3921 H 379.423 -3.76331 1.1008 0
M  V30 3922 H 380.913 -4.17128 0.198575 0
M  V30 3923 N 381.35 -0.985608 -1.22978 0
M  V30 3924 C 382.298 -0.522631 -2.26652 0
M  V30 3925 C 383.292 0.422998 -1.64034 0
M  V30 3926 O 384.498 0.296319 -1.77544 0
M  V30 3927 H 380.873 -0.150597 -0.736766 0
M  V30 3928 H 382.844 -1.40863 -2.63059 0
M  V30 3929 C 381.593 0.154238 -3.47358 0
M  V30 3930 H 380.916 -0.564329 -3.95797 0
M  V30 3931 H 382.356 0.441744 -4.21693 0
M  V30 3932 C 380.815 1.38719 -3.07016 0
M  V30 3933 O 381.345 2.48307 -3.15764 0
M  V30 3934 N 379.551 1.25975 -2.61875 0
M  V30 3935 H 379.098 0.368068 -2.54957 0
M  V30 3936 H 379.056 2.08578 -2.3525 0
M  V30 3937 N 382.828 1.3818 -0.7579 0
M  V30 3938 C 383.761 2.28055 -0.0814093 0
M  V30 3939 C 384.739 1.45603 0.723779 0
M  V30 3940 O 385.923 1.74961 0.701491 0
M  V30 3941 C 383.05 3.2676 0.891394 0
M  V30 3942 C 382.096 4.26153 0.171909 0
M  V30 3943 S 382.929 5.23434 -1.13035 0
M  V30 3944 C 384.085 6.25694 -0.160727 0
M  V30 3945 H 384.318 2.85082 -0.84353 0
M  V30 3946 H 381.851 1.44246 -0.550671 0
M  V30 3947 H 383.809 3.8414 1.44731 0
M  V30 3948 H 382.47 2.68706 1.62652 0
M  V30 3949 H 381.663 4.95738 0.908843 0
M  V30 3950 H 381.265 3.72691 -0.312606 0
M  V30 3951 H 383.557 6.74161 0.671773 0
M  V30 3952 H 384.5 7.03285 -0.824353 0
M  V30 3953 H 384.908 5.64064 0.221892 0
M  V30 3954 N 384.306 0.507319 1.49211 0
M  V30 3955 C 385.554 -0.0348839 2.0207 0
M  V30 3956 C 385.875 -1.36898 1.38866 0
M  V30 3957 O 385.145 -1.88133 0.546151 0
M  V30 3958 H 383.725 -0.0158812 0.746831 0
M  V30 3959 H 386.387 0.665998 1.83168 0
M  V30 3960 H 385.483 -0.159917 3.1169 0
M  V30 3961 N 385.784 -1.5574 0.241426 0
M  V30 3962 C 387.014 -2.02913 -0.38857 0
M  V30 3963 C 387.422 -1.12014 -1.52478 0
M  V30 3964 O 386.765 -0.125903 -1.83268 0
M  V30 3965 C 386.827 -3.4636 -0.963075 0
M  V30 3966 C 386.491 -4.56982 0.0401916 0
M  V30 3967 C 387.488 -5.12941 0.847766 0
M  V30 3968 C 385.173 -5.0203 0.164699 0
M  V30 3969 C 387.167 -6.12437 1.76636 0
M  V30 3970 C 384.854 -6.01358 1.0868 0
M  V30 3971 C 385.852 -6.5644 1.88616 0
M  V30 3972 O 385.54 -7.53831 2.79273 0
M  V30 3973 H 385.272 -0.668983 -0.0971452 0
M  V30 3974 H 387.826 -2.02198 0.361248 0
M  V30 3975 H 386.056 -3.44206 -1.76235 0
M  V30 3976 H 387.745 -3.77065 -1.50257 0
M  V30 3977 H 388.511 -4.78974 0.762133 0
M  V30 3978 H 384.39 -4.58824 -0.447411 0
M  V30 3979 H 387.934 -6.55355 2.39071 0
M  V30 3980 H 383.831 -6.34746 1.17338 0
M  V30 3981 H 384.599 -7.71428 2.73572 0
M  V30 3982 N 387.262 0.0317525 -1.57568 0
M  V30 3983 C 388.194 1.06073 -2.03178 0
M  V30 3984 C 389.207 1.32627 -0.944132 0
M  V30 3985 O 390.396 1.30162 -1.22148 0
M  V30 3986 C 387.496 2.40297 -2.38978 0
M  V30 3987 C 386.669 2.33137 -3.70089 0
M  V30 3988 C 385.728 3.49787 -3.9311 0
M  V30 3989 O 384.754 3.29403 -4.64201 0
M  V30 3990 N 385.956 4.71562 -3.38541 0
M  V30 3991 H 388.721 0.672006 -2.92069 0
M  V30 3992 H 386.282 0.219745 -1.60402 0
M  V30 3993 H 388.274 3.1705 -2.51518 0
M  V30 3994 H 386.844 2.71024 -1.55771 0
M  V30 3995 H 386.064 1.415 -3.67928 0
M  V30 3996 H 387.352 2.25493 -4.56104 0
M  V30 3997 H 386.75 4.91024 -2.80912 0
M  V30 3998 H 385.307 5.45689 -3.56464 0
M  V30 3999 N 388.74 1.54641 0.303973 0
M  V30 4000 C 389.988 1.73437 1.0375 0
M  V30 4001 C 390.309 0.521449 1.87899 0
M  V30 4002 O 389.579 -0.46432 1.90318 0
M  V30 4003 H 388.159 0.639518 0.386039 0
M  V30 4004 H 390.821 1.91988 0.335675 0
M  V30 4005 H 389.917 2.62235 1.69231 0
M  V30 4006 N 390.218 -0.567019 1.47046 0
M  V30 4007 C 391.495 -1.3276 1.43646 0
M  V30 4008 C 391.875 -2.1071 0.128186 0
M  V30 4009 O 391.223 -2.10441 -0.890326 0
M  V30 4010 C 391.433 -2.2404 2.67595 0
M  V30 4011 C 392.781 -2.85372 3.14401 0
M  V30 4012 O 393.805 -2.34346 2.68254 0
M  V30 4013 O 392.664 -3.78091 3.946 0
M  V30 4014 H 389.758 -0.597293 0.571988 0
M  V30 4015 H 392.304 -0.586735 1.59234 0
M  V30 4016 H 391.076 -1.65975 3.54356 0
M  V30 4017 H 390.699 -3.05439 2.54544 0
M  V30 4018 N 391.696 -1.35014 -0.812953 0
M  V30 4019 C 392.659 -1.27292 -1.90602 0
M  V30 4020 C 393.659 -0.185817 -1.59723 0
M  V30 4021 O 394.849 -0.439102 -1.68575 0
M  V30 4022 C 391.981 -0.967676 -3.26877 0
M  V30 4023 H 393.174 -2.24479 -1.9887 0
M  V30 4024 H 390.727 -1.19446 -1.00808 0
M  V30 4025 H 391.462 0.0005954 -3.243 0
M  V30 4026 H 391.247 -1.75412 -3.50675 0
M  V30 4027 H 392.737 -0.939085 -4.06904 0
M  V30 4028 N 393.175 1.03435 -1.18907 0
M  V30 4029 C 394.138 2.09756 -0.923844 0
M  V30 4030 C 395.138 1.60528 0.093416 0
M  V30 4031 O 396.328 1.73631 -0.140727 0
M  V30 4032 C 393.46 3.38692 -0.387354 0
M  V30 4033 H 394.653 2.34719 -1.86674 0
M  V30 4034 H 392.206 1.19959 -1.00197 0
M  V30 4035 H 392.941 3.19396 0.561845 0
M  V30 4036 H 392.726 3.75742 -1.12074 0
M  V30 4037 H 394.216 4.17016 -0.220694 0
M  V30 4038 N 394.653 0.992116 1.22453 0
M  V30 4039 C 395.583 0.561677 2.26644 0
M  V30 4040 C 396.564 -0.411055 1.65059 0
M  V30 4041 O 397.749 -0.301861 1.9184 0
M  V30 4042 C 394.879 -0.125247 3.47074 0
M  V30 4043 C 393.833 0.765948 4.21091 0
M  V30 4044 C 393.159 -0.0538484 5.34673 0
M  V30 4045 C 394.459 2.06242 4.79856 0
M  V30 4046 H 396.153 1.43259 2.62902 0
M  V30 4047 H 393.699 0.690283 1.26377 0
M  V30 4048 H 395.652 -0.437764 4.1912 0
M  V30 4049 H 394.376 -1.03069 3.0991 0
M  V30 4050 H 393.035 1.0621 3.50878 0
M  V30 4051 H 392.683 -0.960188 4.9375 0
M  V30 4052 H 392.383 0.539415 5.85119 0
M  V30 4053 H 393.907 -0.360477 6.09535 0
M  V30 4054 H 395.321 1.8139 5.43848 0
M  V30 4055 H 393.718 2.60444 5.40638 0
M  V30 4056 H 394.788 2.74167 3.99951 0
M  V30 4057 N 396.131 -1.37776 0.765217 0
M  V30 4058 C 397.078 -2.30342 0.145274 0
M  V30 4059 C 398.048 -1.5077 -0.696971 0
M  V30 4060 O 399.233 -1.79362 -0.650689 0
M  V30 4061 C 396.373 -3.37227 -0.732939 0
M  V30 4062 C 395.486 -4.31819 0.125199 0
M  V30 4063 C 394.621 -5.25777 -0.757107 0
M  V30 4064 C 393.66 -6.12012 0.103963 0
M  V30 4065 N 392.797 -6.98232 -0.735953 0
M  V30 4066 H 397.637 -2.8278 0.940195 0
M  V30 4067 H 395.174 -1.39211 0.475255 0
M  V30 4068 H 397.132 -3.97818 -1.25686 0
M  V30 4069 H 395.762 -2.86171 -1.49353 0
M  V30 4070 H 394.814 -3.7259 0.766865 0
M  V30 4071 H 396.126 -4.92509 0.789683 0
M  V30 4072 H 395.28 -5.91541 -1.34776 0
M  V30 4073 H 394.019 -4.65481 -1.45529 0
M  V30 4074 H 393.024 -5.45233 0.707197 0
M  V30 4075 H 394.249 -6.74379 0.799381 0
M  V30 4076 H 392.195 -6.40472 -1.41887 0
M  V30 4077 H 392.112 -7.55891 -0.128624 0
M  V30 4078 H 393.38 -7.68393 -1.31121 0
M  V30 4079 N 397.609 -0.515225 -1.4894 0
M  V30 4080 C 398.834 0.022727 -2.07388 0
M  V30 4081 C 399.259 1.2876 -1.37122 0
M  V30 4082 O 398.617 1.76067 -0.432431 0
M  V30 4083 C 398.665 0.244869 -3.59768 0
M  V30 4084 O 397.769 1.31667 -3.90817 0
M  V30 4085 H 397.11 -0.0325506 -0.663202 0
M  V30 4086 H 399.64 -0.718918 -1.91553 0
M  V30 4087 H 399.65 0.47205 -4.0526 0
M  V30 4088 H 398.325 -0.679194 -4.10317 0
M  V30 4089 H 396.902 1.07331 -3.5712 0
M  V30 4090 N 399.087 1.5561 -0.249682 0
M  V30 4091 C 400.05 2.20217 0.635394 0
M  V30 4092 C 401.05 1.17227 1.10066 0
M  V30 4093 O 402.24 1.42292 1.00492 0
M  V30 4094 C 399.372 2.84794 1.87363 0
M  V30 4095 H 400.565 2.99814 0.0716752 0
M  V30 4096 H 398.118 1.563 -0.000153234 0
M  V30 4097 H 398.853 2.09142 2.47851 0
M  V30 4098 H 398.638 3.60241 1.5482 0
M  V30 4099 H 400.128 3.3423 2.5036 0
M  V30 4100 N 400.565 -0.0233959 1.57583 0
M  V30 4101 C 401.814 -0.712133 1.8871 0
M  V30 4102 C 402.127 -1.76217 0.848944 0
M  V30 4103 O 403.333 -2.50389 1.04964 0
M  V30 4104 C 401.789 -1.3177 3.3491 0
M  V30 4105 C 401.397 -0.303715 4.46969 0
M  V30 4106 C 403.141 -1.98598 3.75179 0
M  V30 4107 C 401.048 -0.917945 5.84233 0
M  V30 4108 H 399.978 -0.269735 0.704101 0
M  V30 4109 H 402.629 0.0333114 1.8347 0
M  V30 4110 H 401.011 -2.11304 3.34913 0
M  V30 4111 H 402.185 0.465325 4.58445 0
M  V30 4112 H 400.5 0.2628 4.1557 0
M  V30 4113 H 403.097 -2.45416 4.75053 0
M  V30 4114 H 403.44 -2.80659 3.07468 0
M  V30 4115 H 403.973 -1.25831 3.77374 0
M  V30 4116 H 400.712 -0.136633 6.55358 0
M  V30 4117 H 400.232 -1.65669 5.76467 0
M  V30 4118 H 401.911 -1.4236 6.31144 0
M  V30 4119 N 402.043 -1.548 -0.295768 0
M  V30 4120 C 403.006 -1.85363 -1.34808 0
M  V30 4121 C 404.006 -0.726817 -1.43436 0
M  V30 4122 O 405.196 -0.995088 -1.42981 0
M  V30 4123 C 402.328 -2.03859 -2.73229 0
M  V30 4124 H 403.521 -2.7941 -1.08949 0
M  V30 4125 H 401.074 -1.46942 -0.532702 0
M  V30 4126 H 401.809 -1.12117 -3.04303 0
M  V30 4127 H 401.594 -2.8588 -2.68356 0
M  V30 4128 H 403.084 -2.28857 -3.49305 0
M  V30 4129 N 403.521 0.559213 -1.47345 0
M  V30 4130 C 404.451 1.67622 -1.62558 0
M  V30 4131 C 405.432 1.63331 -0.475087 0
M  V30 4132 O 406.617 1.80983 -0.704182 0
M  V30 4133 C 403.747 3.0626 -1.63774 0
M  V30 4134 C 402.701 3.25397 -2.7803 0
M  V30 4135 C 402.027 4.64801 -2.64318 0
M  V30 4136 C 403.327 3.10965 -4.19641 0
M  V30 4137 H 405.021 1.55146 -2.56067 0
M  V30 4138 H 402.567 0.744961 -1.23233 0
M  V30 4139 H 404.52 3.84247 -1.73008 0
M  V30 4140 H 403.244 3.1969 -0.66825 0
M  V30 4141 H 401.903 2.49817 -2.68304 0
M  V30 4142 H 401.551 4.75028 -1.65401 0
M  V30 4143 H 401.251 4.78555 -3.40968 0
M  V30 4144 H 402.775 5.44926 -2.75478 0
M  V30 4145 H 404.189 3.78772 -4.30354 0
M  V30 4146 H 402.586 3.36229 -4.97062 0
M  V30 4147 H 403.656 2.07736 -4.38148 0
M  V30 4148 N 404.999 1.35443 0.805782 0
M  V30 4149 C 406.227 1.31878 1.59423 0
M  V30 4150 C 406.642 -0.103562 1.88516 0
M  V30 4151 O 405.999 -1.05575 1.48863 0
M  V30 4152 C 406.05 2.12426 2.92502 0
M  V30 4153 O 405.771 3.49115 2.6467 0
M  V30 4154 C 407.272 2.16455 3.86862 0
M  V30 4155 H 404.492 0.453002 0.495005 0
M  V30 4156 H 407.036 1.78309 1.00131 0
M  V30 4157 H 405.191 1.69593 3.48306 0
M  V30 4158 H 405.605 3.90957 3.49647 0
M  V30 4159 H 407.079 2.77204 4.77349 0
M  V30 4160 H 407.556 1.16352 4.23508 0
M  V30 4161 H 408.162 2.59453 3.36993 0
M  V30 4162 N 406.477 -1.02803 1.19454 0
M  V30 4163 C 407.427 -2.0945 0.900827 0
M  V30 4164 C 408.411 -1.60335 -0.134715 0
M  V30 4165 O 409.603 -1.76857 0.0710924 0
M  V30 4166 C 406.732 -3.4044 0.442229 0
M  V30 4167 C 405.818 -3.96286 1.51056 0
M  V30 4168 N 406.209 -4.25785 2.73021 0
M  V30 4169 C 404.507 -4.24307 1.37404 0
M  V30 4170 C 405.208 -4.70654 3.41848 0
M  V30 4171 N 404.184 -4.72238 2.69243 0
M  V30 4172 H 407.986 -2.3015 1.82779 0
M  V30 4173 H 405.5 -1.20672 1.08683 0
M  V30 4174 H 407.497 -4.16354 0.21326 0
M  V30 4175 H 406.157 -3.21159 -0.478238 0
M  V30 4176 H 407.168 -4.15041 3.09776 0
M  V30 4177 H 403.845 -4.14285 0.517103 0
M  V30 4178 H 405.235 -5.02392 4.46152 0
M  V30 4179 N 407.956 -0.998596 -1.21925 0
M  V30 4180 C 409.184 -0.696286 -1.94832 0
M  V30 4181 C 409.599 0.740032 -1.73692 0
M  V30 4182 O 408.956 1.5 -1.03953 0
M  V30 4183 C 409.007 -0.999833 -3.47398 0
M  V30 4184 O 408.728 -2.37972 -3.67833 0
M  V30 4185 C 410.229 -0.716025 -4.37479 0
M  V30 4186 H 407.449 -0.257111 -0.619786 0
M  V30 4187 H 409.993 -1.33491 -1.54921 0
M  V30 4188 H 408.148 -0.406918 -3.85257 0
M  V30 4189 H 408.562 -2.48338 -4.61983 0
M  V30 4190 H 410.036 -0.978642 -5.43256 0
M  V30 4191 H 410.513 0.349968 -4.37803 0
M  V30 4192 H 411.119 -1.29025 -4.05256 0
M  V30 4193 N 409.434 1.37368 -0.772513 0
M  V30 4194 C 410.682 1.99279 -0.336516 0
M  V30 4195 C 411.003 1.6163 1.09091 0
M  V30 4196 O 410.273 0.882109 1.74916 0
M  V30 4197 H 408.853 0.737063 -0.121435 0
M  V30 4198 H 411.515 1.67836 -0.990809 0
M  V30 4199 H 410.611 3.09332 -0.414763 0
M  V30 4200 N 410.912 0.523116 1.48665 0
M  V30 4201 C 412.159 -0.0134763 2.02496 0
M  V30 4202 C 412.487 -1.3493 1.40086 0
M  V30 4203 O 411.742 -1.88286 0.533567 0
M  V30 4204 C 412.041 -0.191671 3.56886 0
M  V30 4205 C 411.707 1.06893 4.38046 0
M  V30 4206 C 410.369 1.41443 4.59943 0
M  V30 4207 C 412.721 1.90584 4.85106 0
M  V30 4208 C 410.049 2.59594 5.26144 0
M  V30 4209 C 412.401 3.07907 5.52609 0
M  V30 4210 C 411.065 3.42811 5.72745 0
M  V30 4211 H 410.335 -0.00493133 0.740984 0
M  V30 4212 H 412.982 0.687751 1.78724 0
M  V30 4213 H 411.287 -0.97561 3.79459 0
M  V30 4214 H 412.984 -0.621659 3.96152 0
M  V30 4215 H 409.574 0.789848 4.21259 0
M  V30 4216 H 413.758 1.65203 4.67997 0
M  V30 4217 H 409.014 2.86847 5.39934 0
M  V30 4218 H 413.188 3.73066 5.88043 0
M  V30 4219 H 410.815 4.34462 6.23816 0
M  V30 4220 N 412.39 -1.55475 0.257931 0
M  V30 4221 C 413.62 -2.03314 -0.367026 0
M  V30 4222 C 414.028 -1.13625 -1.51281 0
M  V30 4223 O 413.371 -0.145334 -1.83124 0
M  V30 4224 C 413.433 -3.47362 -0.926284 0
M  V30 4225 C 413.097 -4.56914 0.0886584 0
M  V30 4226 C 414.094 -5.12013 0.902123 0
M  V30 4227 C 411.779 -5.01827 0.217936 0
M  V30 4228 C 413.773 -6.10529 1.83122 0
M  V30 4229 C 411.46 -6.00172 1.15052 0
M  V30 4230 C 412.458 -6.54402 1.95568 0
M  V30 4231 O 412.146 -7.50827 2.87253 0
M  V30 4232 H 411.878 -0.669976 -0.0900443 0
M  V30 4233 H 414.432 -2.01804 0.382673 0
M  V30 4234 H 412.662 -3.46056 -1.72575 0
M  V30 4235 H 414.351 -3.78637 -1.46249 0
M  V30 4236 H 415.117 -4.78139 0.812891 0
M  V30 4237 H 410.996 -4.59272 -0.398721 0
M  V30 4238 H 414.54 -6.52783 2.46008 0
M  V30 4239 H 410.437 -6.33465 1.24064 0
M  V30 4240 H 411.205 -7.68483 2.81739 0
M  V30 4241 N 413.868 0.0150385 -1.57593 0
M  V30 4242 C 415.093 0.718067 -1.94573 0
M  V30 4243 C 415.518 1.6734 -0.859005 0
M  V30 4244 O 414.876 1.80362 0.184147 0
M  V30 4245 C 414.924 1.43918 -3.30636 0
M  V30 4246 O 414.028 2.55299 -3.23876 0
M  V30 4247 H 413.369 0.192125 -0.635597 0
M  V30 4248 H 415.899 -0.0336708 -2.04572 0
M  V30 4249 H 415.909 1.80598 -3.65853 0
M  V30 4250 H 414.584 0.738619 -4.09289 0
M  V30 4251 H 413.161 2.21058 -3.00312 0
M  V30 4252 N 415.346 1.54954 0.287554 0
M  V30 4253 C 416.592 1.75132 1.02257 0
M  V30 4254 C 416.925 0.542858 1.86458 0
M  V30 4255 O 416.2 -0.459856 1.88986 0
M  V30 4256 C 416.483 3.04812 1.91733 0
M  V30 4257 C 416.336 4.35985 1.10622 0
M  V30 4258 C 417.655 3.30438 2.90687 0
M  V30 4259 H 414.774 0.637194 0.370341 0
M  V30 4260 H 417.416 1.87678 0.296111 0
M  V30 4261 H 415.566 2.94247 2.53675 0
M  V30 4262 H 417.238 4.58487 0.508636 0
M  V30 4263 H 415.481 4.31865 0.409271 0
M  V30 4264 H 416.152 5.23017 1.76513 0
M  V30 4265 H 418.628 3.40701 2.38877 0
M  V30 4266 H 417.504 4.22467 3.50447 0
M  V30 4267 H 417.765 2.49377 3.65053 0
M  V30 4268 N 416.824 -0.551391 1.4764 0
M  V30 4269 C 418.072 -1.30572 1.54258 0
M  V30 4270 C 418.393 -1.93877 0.208963 0
M  V30 4271 O 417.663 -1.80234 -0.767619 0
M  V30 4272 H 416.243 -0.484894 0.568231 0
M  V30 4273 H 418.905 -0.643402 1.83974 0
M  V30 4274 H 418.001 -2.09621 2.31226 0
M  V30 4275 N 418.302 -1.35869 -0.798587 0
M  V30 4276 C 419.579 -1.20145 -1.54352 0
M  V30 4277 C 419.959 0.216161 -2.0999 0
M  V30 4278 O 419.307 1.22068 -1.93162 0
M  V30 4279 C 419.517 -2.27602 -2.64572 0
M  V30 4280 C 420.865 -2.63811 -3.32699 0
M  V30 4281 O 421.889 -2.26576 -2.74849 0
M  V30 4282 O 420.748 -3.27866 -4.37226 0
M  V30 4283 H 417.842 -0.467248 -0.682355 0
M  V30 4284 H 420.388 -1.47574 -0.837859 0
M  V30 4285 H 419.16 -3.2265 -2.21388 0
M  V30 4286 H 418.783 -2.01488 -3.42766 0
M  V30 4287 N 419.78 1.02168 -1.19998 0
M  V30 4288 C 420.713 2.10232 -0.887558 0
M  V30 4289 C 421.691 1.61827 0.158317 0
M  V30 4290 O 422.875 1.88471 0.0330249 0
M  V30 4291 C 420.002 3.37092 -0.32964 0
M  V30 4292 C 419.048 4.0438 -1.3557 0
M  V30 4293 S 419.881 4.48956 -2.91888 0
M  V30 4294 C 421.037 5.79024 -2.37658 0
M  V30 4295 H 421.27 2.36409 -1.80272 0
M  V30 4296 H 418.803 1.15211 -1.0279 0
M  V30 4297 H 420.761 4.10498 -0.0142824 0
M  V30 4298 H 419.422 3.08996 0.563941 0
M  V30 4299 H 418.615 4.95632 -0.9146 0
M  V30 4300 H 418.217 3.37176 -1.61828 0
M  V30 4301 H 420.509 6.53942 -1.77103 0
M  V30 4302 H 421.452 6.27924 -3.27287 0
M  V30 4303 H 421.86 5.35043 -1.79971 0
M  V30 4304 N 421.258 1.00505 1.21394 0
M  V30 4305 C 422.486 0.706609 1.9446 0
M  V30 4306 C 422.901 -0.73081 1.74082 0
M  V30 4307 O 422.258 -1.49446 1.04747 0
M  V30 4308 C 422.309 1.01824 3.46863 0
M  V30 4309 O 422.03 2.39919 3.66566 0
M  V30 4310 C 423.531 0.739216 4.37093 0
M  V30 4311 H 420.751 0.260394 0.618414 0
M  V30 4312 H 423.295 1.34311 1.54211 0
M  V30 4313 H 421.45 0.427343 3.85036 0
M  V30 4314 H 421.864 2.50784 4.6066 0
M  V30 4315 H 423.338 1.00744 5.42729 0
M  V30 4316 H 423.815 -0.326746 4.37983 0
M  V30 4317 H 424.421 1.31173 4.04566 0
M  V30 4318 N 422.737 -1.36956 0.779787 0
M  V30 4319 C 423.669 -2.28833 0.129639 0
M  V30 4320 C 424.682 -1.4902 -0.655511 0
M  V30 4321 O 425.871 -1.71578 -0.492279 0
M  V30 4322 C 422.971 -3.2833 -0.839792 0
M  V30 4323 C 422.144 -4.3727 -0.10675 0
M  V30 4324 C 421.203 -5.16789 -0.990717 0
M  V30 4325 O 420.229 -5.67406 -0.451516 0
M  V30 4326 N 421.431 -5.32294 -2.3161 0
M  V30 4327 H 424.196 -2.85268 0.918803 0
M  V30 4328 H 421.757 -1.49019 0.632841 0
M  V30 4329 H 423.749 -3.78413 -1.43477 0
M  V30 4330 H 422.319 -2.72605 -1.52988 0
M  V30 4331 H 421.539 -3.88478 0.669216 0
M  V30 4332 H 422.827 -5.07229 0.399464 0
M  V30 4333 H 422.225 -4.92768 -2.77843 0
M  V30 4334 H 420.782 -5.85656 -2.86095 0
M  V30 4335 N 424.215 -0.530993 -1.48385 0
M  V30 4336 C 425.463 0.00273189 -2.021 0
M  V30 4337 C 425.784 1.34672 -1.41027 0
M  V30 4338 O 425.054 1.8724 -0.576012 0
M  V30 4339 H 423.634 0.00399774 -0.746989 0
M  V30 4340 H 426.296 -0.695054 -1.82085 0
M  V30 4341 H 425.392 0.11031 -3.11905 0
M  V30 4342 N 425.693 1.55336 -0.266172 0
M  V30 4343 C 426.623 2.25146 0.618981 0
M  V30 4344 C 427.604 1.23845 1.16604 0
M  V30 4345 O 428.789 1.52544 1.20183 0
M  V30 4346 C 425.919 2.96572 1.80728 0
M  V30 4347 C 424.873 4.04726 1.39215 0
M  V30 4348 C 424.199 4.63678 2.66283 0
M  V30 4349 C 425.499 5.19407 0.548942 0
M  V30 4350 H 427.193 2.99377 0.0368116 0
M  V30 4351 H 424.739 1.43991 0.0162651 0
M  V30 4352 H 426.692 3.44116 2.43232 0
M  V30 4353 H 425.416 2.19861 2.41514 0
M  V30 4354 H 424.075 3.57979 0.790351 0
M  V30 4355 H 423.723 3.83646 3.25308 0
M  V30 4356 H 423.423 5.367 2.39222 0
M  V30 4357 H 424.947 5.13967 3.29651 0
M  V30 4358 H 426.361 5.63059 1.07876 0
M  V30 4359 H 424.758 5.98936 0.373593 0
M  V30 4360 H 425.828 4.8295 -0.434394 0
M  V30 4361 N 427.171 -0.0066808 1.57599 0
M  V30 4362 C 428.419 -0.691552 1.899 0
M  V30 4363 C 428.74 -1.74682 0.866672 0
M  V30 4364 O 428.01 -1.95661 -0.0968189 0
M  V30 4365 H 426.59 -0.258416 0.700878 0
M  V30 4366 H 429.252 0.0326655 1.94873 0
M  V30 4367 H 428.348 -1.16702 2.8946 0
M  V30 4368 N 428.649 -1.55105 -0.279332 0
M  V30 4369 C 429.895 -1.76597 -1.00921 0
M  V30 4370 C 430.25 -0.556831 -1.84166 0
M  V30 4371 O 429.543 0.450573 -1.86227 0
M  V30 4372 C 429.737 -3.0086 -1.92919 0
M  V30 4373 C 429.566 -4.33744 -1.18728 0
M  V30 4374 C 428.336 -4.9712 -0.905545 0
M  V30 4375 C 430.534 -5.11009 -0.580857 0
M  V30 4376 N 428.516 -6.13749 -0.136169 0
M  V30 4377 C 429.887 -6.19976 0.0546661 0
M  V30 4378 C 431.942 -4.95502 -0.488067 0
M  V30 4379 C 430.645 -7.15123 0.774028 0
M  V30 4380 C 432.671 -5.90999 0.217688 0
M  V30 4381 C 432.033 -6.9935 0.841975 0
M  V30 4382 H 428.132 -0.698553 -0.351493 0
M  V30 4383 H 430.716 -1.92595 -0.285531 0
M  V30 4384 H 428.887 -2.86249 -2.62519 0
M  V30 4385 H 430.619 -3.10784 -2.59221 0
M  V30 4386 H 427.374 -4.57903 -1.20921 0
M  V30 4387 H 427.798 -6.7659 0.235665 0
M  V30 4388 H 432.44 -4.11841 -0.956406 0
M  V30 4389 H 430.158 -7.9831 1.25407 0
M  V30 4390 H 433.744 -5.81078 0.289717 0
M  V30 4391 H 432.624 -7.71973 1.37939 0
M  V30 4392 N 430.127 0.543554 -1.4793 0
M  V30 4393 C 431.037 1.67657 -1.64098 0
M  V30 4394 C 432.053 1.65934 -0.523622 0
M  V30 4395 O 433.229 1.85133 -0.792943 0
M  V30 4396 C 430.294 3.04146 -1.66421 0
M  V30 4397 C 429.355 3.16831 -2.89684 0
M  V30 4398 C 428.588 4.46809 -2.91886 0
M  V30 4399 O 428.811 5.33095 -2.02895 0
M  V30 4400 O 427.745 4.63573 -3.83906 0
M  V30 4401 H 431.571 1.56957 -2.59997 0
M  V30 4402 H 429.156 0.715116 -1.31173 0
M  V30 4403 H 431.038 3.85346 -1.70548 0
M  V30 4404 H 429.713 3.152 -0.736923 0
M  V30 4405 H 428.62 2.34977 -2.91095 0
M  V30 4406 H 429.953 3.10687 -3.81752 0
M  V30 4407 N 431.605 1.3629 0.791371 0
M  V30 4408 C 432.83 1.33726 1.58531 0
M  V30 4409 C 433.255 -0.0794933 1.87932 0
M  V30 4410 O 432.613 -1.05087 1.47738 0
M  V30 4411 C 432.661 2.16425 2.88431 0
M  V30 4412 O 431.765 1.5554 3.81944 0
M  V30 4413 H 431.106 0.457793 0.480959 0
M  V30 4414 H 433.636 1.79547 0.981031 0
M  V30 4415 H 433.646 2.28933 3.37718 0
M  V30 4416 H 432.321 3.19415 2.66359 0
M  V30 4417 H 430.898 1.51961 3.40532 0
M  V30 4418 N 433.083 -1.0153 1.20538 0
M  V30 4419 C 434.313 -1.78487 1.04048 0
M  V30 4420 C 434.721 -1.84631 -0.413292 0
M  V30 4421 O 434.064 -1.29919 -1.29872 0
M  V30 4422 C 434.126 -3.24367 1.55003 0
M  V30 4423 C 433.79 -3.41827 3.0332 0
M  V30 4424 C 434.787 -3.30941 4.00966 0
M  V30 4425 C 432.472 -3.67602 3.42307 0
M  V30 4426 C 434.466 -3.45577 5.35589 0
M  V30 4427 C 432.153 -3.81881 4.77085 0
M  V30 4428 C 433.151 -3.70874 5.73534 0
M  V30 4429 O 432.839 -3.84714 7.05868 0
M  V30 4430 H 432.571 -0.568108 0.366373 0
M  V30 4431 H 435.125 -1.28677 1.60098 0
M  V30 4432 H 433.355 -3.75266 0.933397 0
M  V30 4433 H 435.044 -3.82963 1.34514 0
M  V30 4434 H 435.81 -3.10964 3.72191 0
M  V30 4435 H 431.689 -3.75256 2.67776 0
M  V30 4436 H 435.233 -3.36902 6.10854 0
M  V30 4437 H 431.13 -4.01359 5.0555 0
M  V30 4438 H 431.898 -4.01724 7.13134 0
M  V30 4439 N 434.561 -1.01147 -1.20859 0
M  V30 4440 C 435.524 -0.582224 -2.21682 0
M  V30 4441 C 436.524 0.344887 -1.57058 0
M  V30 4442 O 437.714 0.134281 -1.73682 0
M  V30 4443 C 434.846 0.150496 -3.40568 0
M  V30 4444 H 436.039 -1.47408 -2.61172 0
M  V30 4445 H 433.592 -0.800695 -1.34233 0
M  V30 4446 H 434.327 1.0575 -3.06574 0
M  V30 4447 H 434.112 -0.515444 -3.88697 0
M  V30 4448 H 435.602 0.438344 -4.15293 0
M  V30 4449 N 436.039 1.36541 -0.78704 0
M  V30 4450 C 437.269 2.03266 -0.369662 0
M  V30 4451 C 437.677 1.59481 1.01796 0
M  V30 4452 O 437.02 0.778612 1.66383 0
M  V30 4453 C 437.082 3.57779 -0.351371 0
M  V30 4454 C 436.746 4.24756 -1.68617 0
M  V30 4455 C 437.743 4.47811 -2.64124 0
M  V30 4456 C 435.428 4.62277 -1.96481 0
M  V30 4457 C 437.422 5.07464 -3.85693 0
M  V30 4458 C 435.109 5.21649 -3.18317 0
M  V30 4459 C 436.107 5.44182 -4.12741 0
M  V30 4460 O 435.795 6.02307 -5.32429 0
M  V30 4461 H 435.527 0.658977 -0.150751 0
M  V30 4462 H 438.081 1.75548 -1.0664 0
M  V30 4463 H 436.311 3.84606 0.401847 0
M  V30 4464 H 438 4.05879 0.0410147 0
M  V30 4465 H 438.766 4.19221 -2.43883 0
M  V30 4466 H 434.645 4.44065 -1.23805 0
M  V30 4467 H 438.189 5.24968 -4.59407 0
M  V30 4468 H 434.086 5.49664 -3.38437 0
M  V30 4469 H 434.854 6.20775 -5.33461 0
M  V30 4470 N 437.518 0.538854 1.48102 0
M  V30 4471 C 438.929 0.100679 1.86428 0
M  V30 4472 C 439.28 -1.32447 1.44749 0
M  V30 4473 O 438.405 -1.99339 0.842199 0
M  V30 4474 C 439 0.175933 3.38343 0
M  V30 4475 C 437.559 -0.207098 3.7583 0
M  V30 4476 C 436.706 0.531741 2.72154 0
M  V30 4477 H 439.657 0.749614 1.3988 0
M  V30 4478 H 439.678 -0.610144 3.75576 0
M  V30 4479 H 439.19 1.21328 3.68648 0
M  V30 4480 H 437.291 -1.24626 3.5114 0
M  V30 4481 H 437.404 0.138687 4.78899 0
M  V30 4482 H 435.768 -0.0230462 2.5469 0
M  V30 4483 H 436.551 1.56989 3.05302 0
M  V30 4484 N 438.996 -1.55193 0.274407 0
M  V30 4485 C 439.926 -2.25471 -0.607032 0
M  V30 4486 C 440.907 -1.24461 -1.15946 0
M  V30 4487 O 442.092 -1.53179 -1.19373 0
M  V30 4488 C 439.222 -2.97526 -1.79153 0
M  V30 4489 C 438.176 -4.05459 -1.37067 0
M  V30 4490 C 437.502 -4.65084 -2.6382 0
M  V30 4491 C 438.802 -5.19691 -0.521389 0
M  V30 4492 H 440.496 -2.99393 -0.0209343 0
M  V30 4493 H 438.042 -1.43997 -0.00862866 0
M  V30 4494 H 439.995 -3.45402 -2.41404 0
M  V30 4495 H 438.719 -2.21138 -2.40344 0
M  V30 4496 H 437.378 -3.58393 -0.771355 0
M  V30 4497 H 437.026 -3.85365 -3.23268 0
M  V30 4498 H 436.726 -5.37961 -2.36372 0
M  V30 4499 H 438.25 -5.15708 -3.26921 0
M  V30 4500 H 439.664 -5.63623 -1.04889 0
M  V30 4501 H 438.061 -5.99126 -0.341825 0
M  V30 4502 H 439.131 -4.82713 0.46 0
M  V30 4503 N 440.474 -0.00167713 -1.576 0
M  V30 4504 C 441.702 0.693759 -1.94922 0
M  V30 4505 C 442.117 1.67215 -0.876626 0
M  V30 4506 O 441.474 1.81929 0.144279 0
M  V30 4507 C 441.525 1.42416 -3.32265 0
M  V30 4508 O 441.246 0.485014 -4.35407 0
M  V30 4509 C 442.747 2.21395 -3.84056 0
M  V30 4510 H 439.967 0.193118 -0.642609 0
M  V30 4511 H 442.511 -0.0532952 -2.04431 0
M  V30 4512 H 440.666 2.12284 -3.24059 0
M  V30 4513 H 441.08 1.00053 -5.14868 0
M  V30 4514 H 442.554 2.67996 -4.82578 0
M  V30 4515 H 443.031 3.04142 -3.16851 0
M  V30 4516 H 443.637 1.56542 -3.95443 0
M  V30 4517 N 441.952 1.55251 0.271103 0
M  V30 4518 C 442.862 1.9136 1.35714 0
M  V30 4519 C 443.878 0.811075 1.5394 0
M  V30 4520 O 445.054 1.11031 1.6803 0
M  V30 4521 C 442.119 2.1798 2.69603 0
M  V30 4522 C 441.18 3.4153 2.60107 0
M  V30 4523 C 440.413 3.66871 3.8761 0
M  V30 4524 O 440.636 2.94689 4.8838 0
M  V30 4525 O 439.57 4.60405 3.87699 0
M  V30 4526 H 443.396 2.83815 1.08088 0
M  V30 4527 H 440.981 1.41821 0.469792 0
M  V30 4528 H 442.863 2.36518 3.48765 0
M  V30 4529 H 441.538 1.28708 2.97012 0
M  V30 4530 H 440.445 3.28325 1.79314 0
M  V30 4531 H 441.778 4.31027 2.37647 0
M  V30 4532 N 443.43 -0.535701 1.48216 0
M  V30 4533 C 444.362 -1.65662 1.58394 0
M  V30 4534 C 445.375 -1.5591 0.468607 0
M  V30 4535 O 446.564 -1.62475 0.7392 0
M  V30 4536 C 443.664 -3.04276 1.4923 0
M  V30 4537 C 442.837 -3.39567 2.75705 0
M  V30 4538 C 441.896 -4.57436 2.60075 0
M  V30 4539 O 440.922 -4.60942 3.33948 0
M  V30 4540 N 442.124 -5.55259 1.69315 0
M  V30 4541 H 444.889 -1.5737 2.55058 0
M  V30 4542 H 442.45 -0.722845 1.44867 0
M  V30 4543 H 444.442 -3.80994 1.36477 0
M  V30 4544 H 443.012 -3.06677 0.605632 0
M  V30 4545 H 442.232 -2.52083 3.03064 0
M  V30 4546 H 443.52 -3.59929 3.59623 0
M  V30 4547 H 442.918 -5.552 1.08489 0
M  V30 4548 H 441.475 -6.31218 1.62504 0
M  V30 4549 N 444.908 -1.36708 -0.784132 0
M  V30 4550 C 445.871 -1.31307 -1.87859 0
M  V30 4551 C 446.871 -0.219654 -1.59293 0
M  V30 4552 O 448.061 -0.47476 -1.67606 0
M  V30 4553 C 445.193 -1.03679 -3.24751 0
M  V30 4554 H 446.386 -2.28647 -1.94064 0
M  V30 4555 H 443.939 -1.21558 -0.98252 0
M  V30 4556 H 444.674 -0.0681936 -3.24228 0
M  V30 4557 H 444.459 -1.82811 -3.46876 0
M  V30 4558 H 445.949 -1.02518 -4.04821 0
M  V30 4559 N 446.386 1.0089 -1.21074 0
M  V30 4560 C 447.316 2.1145 -0.990523 0
M  V30 4561 C 448.297 1.69897 0.0831699 0
M  V30 4562 O 449.482 1.94052 -0.0758853 0
M  V30 4563 C 446.612 3.42914 -0.550177 0
M  V30 4564 C 445.566 3.98244 -1.56799 0
M  V30 4565 C 444.892 5.25568 -0.984013 0
M  V30 4566 C 446.192 4.30752 -2.95381 0
M  V30 4567 H 447.886 2.3013 -1.91521 0
M  V30 4568 H 445.432 1.10592 -0.92225 0
M  V30 4569 H 447.385 4.19653 -0.383305 0
M  V30 4570 H 446.109 3.24014 0.41015 0
M  V30 4571 H 444.768 3.23621 -1.72236 0
M  V30 4572 H 444.416 5.02998 -0.0155216 0
M  V30 4573 H 444.116 5.63551 -1.66384 0
M  V30 4574 H 445.64 6.04955 -0.828378 0
M  V30 4575 H 447.054 4.98349 -2.8341 0
M  V30 4576 H 445.451 4.79869 -3.60341 0
M  V30 4577 H 446.521 3.39192 -3.46521 0
M  V30 4578 N 447.864 1.01787 1.20321 0
M  V30 4579 C 448.794 0.609625 2.25401 0
M  V30 4580 C 449.775 -0.375951 1.65893 0
M  V30 4581 O 450.96 -0.261101 1.92437 0
M  V30 4582 C 448.09 -0.0515995 3.47262 0
M  V30 4583 C 447.044 0.855095 4.19371 0
M  V30 4584 C 446.37 0.0595757 5.34667 0
M  V30 4585 C 447.67 2.16374 4.75373 0
M  V30 4586 H 449.364 1.48803 2.59804 0
M  V30 4587 H 446.91 0.716934 1.24884 0
M  V30 4588 H 448.863 -0.348764 4.19954 0
M  V30 4589 H 447.587 -0.964726 3.12027 0
M  V30 4590 H 446.246 1.13628 3.48546 0
M  V30 4591 H 445.894 -0.85524 4.95676 0
M  V30 4592 H 445.594 0.663406 5.83843 0
M  V30 4593 H 447.118 -0.231105 6.10162 0
M  V30 4594 H 448.532 1.92885 5.39878 0
M  V30 4595 H 446.929 2.71853 5.34991 0
M  V30 4596 H 447.999 2.82589 3.94045 0
M  V30 4597 N 449.342 -1.36122 0.79427 0
M  V30 4598 C 450.305 -2.28309 0.201889 0
M  V30 4599 C 451.305 -1.49041 -0.603603 0
M  V30 4600 O 452.495 -1.68964 -0.423888 0
M  V30 4601 C 449.627 -3.3321 -0.719978 0
M  V30 4602 H 450.82 -2.82208 1.01481 0
M  V30 4603 H 448.373 -1.45768 0.564037 0
M  V30 4604 H 449.108 -2.84475 -1.55706 0
M  V30 4605 H 448.893 -3.91835 -0.144266 0
M  V30 4606 H 450.383 -4.02044 -1.12916 0
M  V30 4607 N 450.82 -0.546701 -1.47814 0
M  V30 4608 C 452.068 -0.0187037 -2.02091 0
M  V30 4609 C 452.389 1.33168 -1.42447 0
M  V30 4610 O 451.659 1.86619 -0.595839 0
M  V30 4611 H 450.239 -0.00392531 -0.74699 0
M  V30 4612 H 452.901 -0.714327 -1.81338 0
M  V30 4613 H 451.997 0.0772219 -3.12004 0
M  V30 4614 N 452.299 1.55045 -0.282633 0
M  V30 4615 C 453.247 2.24254 0.617478 0
M  V30 4616 C 454.241 1.24215 1.15183 0
M  V30 4617 O 455.447 1.42123 1.10459 0
M  V30 4618 H 451.822 0.719801 0.217693 0
M  V30 4619 H 453.793 2.98398 0.0110076 0
M  V30 4620 C 452.542 2.98281 1.78672 0
M  V30 4621 H 451.865 3.75053 1.38475 0
M  V30 4622 H 453.305 3.50017 2.393 0
M  V30 4623 C 451.764 2.04184 2.67975 0
M  V30 4624 O 452.294 1.59792 3.6855 0
M  V30 4625 N 450.5 1.70526 2.35307 0
M  V30 4626 H 450.047 2.06821 1.53567 0
M  V30 4627 H 450.005 1.07839 2.95327 0
M  V30 4628 N 453.777 0.010035 1.57597 0
M  V30 4629 C 455.002 -0.687021 1.95691 0
M  V30 4630 C 455.427 -1.65952 0.885519 0
M  V30 4631 O 454.785 -1.80633 -0.15543 0
M  V30 4632 C 454.833 -1.3864 3.32884 0
M  V30 4633 O 453.937 -2.50115 3.27897 0
M  V30 4634 H 453.278 -0.181989 0.638573 0
M  V30 4635 H 455.808 0.0662122 2.04493 0
M  V30 4636 H 455.818 -1.74754 3.6868 0
M  V30 4637 H 454.493 -0.673411 4.10412 0
M  V30 4638 H 453.07 -2.16253 3.03791 0
M  V30 4639 N 455.255 -1.55392 -0.262866 0
M  V30 4640 C 456.666 -1.67079 -0.833158 0
M  V30 4641 C 457.017 -0.604539 -1.86654 0
M  V30 4642 O 456.142 0.252138 -2.14926 0
M  V30 4643 C 456.737 -3.02891 -1.51797 0
M  V30 4644 C 455.296 -3.16571 -2.03617 0
M  V30 4645 C 454.443 -2.62909 -0.881701 0
M  V30 4646 H 457.394 -1.58652 -0.0389986 0
M  V30 4647 H 457.415 -2.96445 -2.38538 0
M  V30 4648 H 456.927 -3.80473 -0.765619 0
M  V30 4649 H 455.028 -2.43782 -2.81782 0
M  V30 4650 H 455.141 -4.23271 -2.24452 0
M  V30 4651 H 453.505 -2.20324 -1.27786 0
M  V30 4652 H 454.288 -3.43003 -0.14269 0
M  V30 4653 N 456.733 0.527833 -1.48498 0
M  V30 4654 C 457.696 1.61439 -1.62696 0
M  V30 4655 C 458.696 1.52824 -0.500136 0
M  V30 4656 O 459.886 1.56456 -0.765976 0
M  V30 4657 C 457.018 3.01063 -1.59918 0
M  V30 4658 H 458.211 1.50189 -2.59583 0
M  V30 4659 H 455.764 0.750055 -1.37127 0
M  V30 4660 H 456.499 3.17818 -0.645163 0
M  V30 4661 H 456.284 3.08725 -2.41726 0
M  V30 4662 H 457.774 3.80057 -1.73051 0
M  V30 4663 N 458.211 1.37122 0.776871 0
M  V30 4664 C 459.457 1.32243 1.53752 0
M  V30 4665 C 459.79 -0.0944745 1.9397 0
M  V30 4666 O 459.065 -1.05068 1.6368 0
M  V30 4667 C 459.348 2.25681 2.80607 0
M  V30 4668 C 459.201 3.76127 2.46676 0
M  V30 4669 C 460.52 2.17657 3.82509 0
M  V30 4670 H 457.639 0.481704 0.557791 0
M  V30 4671 H 460.281 1.6778 0.891612 0
M  V30 4672 H 458.431 1.95505 3.35723 0
M  V30 4673 H 460.103 4.16877 1.97513 0
M  V30 4674 H 458.346 3.94946 1.79443 0
M  V30 4675 H 459.017 4.36933 3.37333 0
M  V30 4676 H 461.493 2.44245 3.36873 0
M  V30 4677 H 460.369 2.85185 4.69 0
M  V30 4678 H 460.63 1.16785 4.26396 0
M  V30 4679 N 459.689 -1.00246 1.21608 0
M  V30 4680 C 460.914 -1.78167 1.06167 0
M  V30 4681 C 461.339 -1.84138 -0.384035 0
M  V30 4682 O 460.697 -1.28683 -1.27712 0
M  V30 4683 C 460.745 -3.19786 1.66642 0
M  V30 4684 O 459.849 -4.02153 0.913613 0
M  V30 4685 H 459.19 -0.549 0.37349 0
M  V30 4686 H 461.72 -1.25994 1.61204 0
M  V30 4687 H 461.73 -3.70451 1.70969 0
M  V30 4688 H 460.405 -3.14754 2.7185 0
M  V30 4689 H 458.982 -3.60711 0.945635 0
M  V30 4690 N 461.167 -1.02423 -1.1978 0
M  V30 4691 C 462.414 -0.717988 -1.89344 0
M  V30 4692 C 462.742 0.753036 -1.79331 0
M  V30 4693 O 461.997 1.56355 -1.17692 0
M  V30 4694 C 462.296 -1.1088 -3.39765 0
M  V30 4695 C 461.962 -2.57731 -3.6998 0
M  V30 4696 C 460.624 -2.97854 -3.77937 0
M  V30 4697 C 462.976 -3.52763 -3.83677 0
M  V30 4698 C 460.304 -4.31931 -3.97054 0
M  V30 4699 C 462.656 -4.86538 -4.04306 0
M  V30 4700 C 461.32 -5.26356 -4.10494 0
M  V30 4701 H 460.59 -0.26273 -0.692859 0
M  V30 4702 H 463.237 -1.28623 -1.41875 0
M  V30 4703 H 461.542 -0.459094 -3.89101 0
M  V30 4704 H 463.239 -0.849432 -3.919 0
M  V30 4705 H 459.829 -2.25646 -3.64393 0
M  V30 4706 H 464.013 -3.2292 -3.76877 0
M  V30 4707 H 459.269 -4.62324 -4.00083 0
M  V30 4708 H 463.443 -5.60093 -4.13846 0
M  V30 4709 H 461.07 -6.3026 -4.2506 0
M  V30 4710 N 462.645 1.35699 -0.801477 0
M  V30 4711 C 463.577 2.28598 -0.166028 0
M  V30 4712 C 464.59 1.50044 0.631721 0
M  V30 4713 O 465.779 1.72339 0.464921 0
M  V30 4714 C 462.879 3.29625 0.787451 0
M  V30 4715 C 462.052 4.37384 0.037171 0
M  V30 4716 C 461.111 5.183 0.908375 0
M  V30 4717 O 460.137 5.68053 0.361189 0
M  V30 4718 N 461.339 5.35912 2.23112 0
M  V30 4719 H 464.104 2.83771 -0.964071 0
M  V30 4720 H 461.665 1.47994 -0.656469 0
M  V30 4721 H 463.657 3.80648 1.37439 0
M  V30 4722 H 462.227 2.75004 1.48632 0
M  V30 4723 H 461.447 3.87364 -0.730935 0
M  V30 4724 H 462.735 5.0653 -0.480109 0
M  V30 4725 H 462.133 4.97125 2.69968 0
M  V30 4726 H 460.69 5.90133 2.76741 0
M  V30 4727 N 464.123 0.554532 1.47522 0
M  V30 4728 C 465.086 -0.184174 2.28459 0
M  V30 4729 C 466.086 -0.845195 1.36796 0
M  V30 4730 O 467.276 -0.701467 1.59452 0
M  V30 4731 C 464.408 -1.26903 3.16399 0
M  V30 4732 H 465.601 0.526751 2.95238 0
M  V30 4733 H 463.154 0.311375 1.53167 0
M  V30 4734 H 463.889 -2.01244 2.54306 0
M  V30 4735 H 463.674 -0.799883 3.83854 0
M  V30 4736 H 465.164 -1.78794 3.77389 0
M  V30 4737 N 465.601 -1.54893 0.290851 0
M  V30 4738 C 466.549 -2.24579 -0.605576 0
M  V30 4739 C 467.543 -1.24824 -1.14522 0
M  V30 4740 O 468.749 -1.42706 -1.09704 0
M  V30 4741 H 465.124 -0.720946 -0.213872 0
M  V30 4742 H 467.095 -2.984 0.0048173 0
M  V30 4743 C 465.844 -2.99224 -1.77088 0
M  V30 4744 H 465.167 -3.75782 -1.36484 0
M  V30 4745 H 466.607 -3.51281 -2.3744 0
M  V30 4746 C 465.066 -2.05602 -2.66888 0
M  V30 4747 O 465.596 -1.61745 -3.67698 0
M  V30 4748 N 463.802 -1.71771 -2.34399 0
M  V30 4749 H 463.349 -2.07633 -1.52468 0
M  V30 4750 H 463.307 -1.09403 -2.94751 0
M  V30 4751 N 467.08 -0.0183926 -1.57589 0
M  V30 4752 C 468.491 0.521927 -1.79256 0
M  V30 4753 C 468.842 1.72885 -0.927636 0
M  V30 4754 O 467.967 2.15978 -0.135091 0
M  V30 4755 C 468.562 0.953632 -3.25102 0
M  V30 4756 C 467.121 1.43913 -3.47801 0
M  V30 4757 C 466.268 0.398837 -2.74417 0
M  V30 4758 H 469.219 -0.244485 -1.56805 0
M  V30 4759 H 469.24 1.81863 -3.34224 0
M  V30 4760 H 468.752 0.0750123 -3.88028 0
M  V30 4761 H 466.853 2.33804 -2.90115 0
M  V30 4762 H 466.966 1.45391 -4.56507 0
M  V30 4763 H 465.33 0.864572 -2.39577 0
M  V30 4764 H 466.113 -0.471132 -3.40052 0
M  V30 4765 N 468.558 1.5553 0.254621 0
M  V30 4766 C 469.804 1.77262 0.985193 0
M  V30 4767 C 470.137 0.582286 1.85265 0
M  V30 4768 O 469.412 -0.419666 1.89919 0
M  V30 4769 C 469.695 3.0881 1.85225 0
M  V30 4770 C 469.548 4.38233 1.0135 0
M  V30 4771 C 470.867 3.3653 2.83612 0
M  V30 4772 H 467.986 0.644906 0.356742 0
M  V30 4773 H 470.628 1.88264 0.256236 0
M  V30 4774 H 468.778 2.99562 2.47376 0
M  V30 4775 H 470.45 4.59463 0.411269 0
M  V30 4776 H 468.693 4.32636 0.317574 0
M  V30 4777 H 469.364 5.26644 1.65379 0
M  V30 4778 H 471.84 3.45691 2.31596 0
M  V30 4779 H 470.716 4.29805 3.41407 0
M  V30 4780 H 470.977 2.57064 3.59681 0
M  V30 4781 N 470.036 -0.519951 1.48776 0
M  V30 4782 C 471.264 -1.29971 1.60982 0
M  V30 4783 C 471.679 -1.86803 0.273885 0
M  V30 4784 O 471.036 -1.66904 -0.738193 0
M  V30 4785 C 471.087 -2.44346 2.66415 0
M  V30 4786 O 470.808 -1.89855 3.94825 0
M  V30 4787 C 472.309 -3.36014 2.89153 0
M  V30 4788 H 469.529 -0.394891 0.542496 0
M  V30 4789 H 472.073 -0.626214 1.94676 0
M  V30 4790 H 470.228 -3.07562 2.35552 0
M  V30 4791 H 470.642 -2.64798 4.5275 0
M  V30 4792 H 472.116 -4.12593 3.66703 0
M  V30 4793 H 472.593 -3.91859 1.98351 0
M  V30 4794 H 473.199 -2.78582 3.21359 0
M  V30 4795 N 471.514 -1.37532 -0.769588 0
M  V30 4796 C 472.93 -1.18379 -1.07045 0
M  V30 4797 C 473.13 -0.0214312 -2.01489 0
M  V30 4798 O 472.186 0.637809 -2.44312 0
M  V30 4799 C 473.499 -2.50338 -1.66588 0
M  V30 4800 C 475.047 -2.56879 -1.78835 0
M  V30 4801 C 475.522 -3.88974 -2.41792 0
M  V30 4802 N 477.013 -3.90428 -2.4924 0
M  V30 4803 C 477.748 -4.89388 -2.98809 0
M  V30 4804 N 477.244 -5.98745 -3.48535 0
M  V30 4805 N 479.037 -4.76791 -2.97703 0
M  V30 4806 H 471.188 -2.11921 -0.142541 0
M  V30 4807 H 473.451 -0.939608 -0.125863 0
M  V30 4808 H 473.157 -3.35767 -1.0466 0
M  V30 4809 H 473.031 -2.67583 -2.65856 0
M  V30 4810 H 475.418 -1.71856 -2.39895 0
M  V30 4811 H 475.499 -2.43516 -0.783166 0
M  V30 4812 H 475.143 -4.74412 -1.81371 0
M  V30 4813 H 475.073 -3.99641 -3.4292 0
M  V30 4814 H 477.564 -3.11433 -2.14052 0
M  V30 4815 H 477.877 -6.70205 -3.84767 0
M  V30 4816 H 476.222 -6.02387 -3.46634 0
M  V30 4817 H 479.413 -3.90478 -2.58157 0
M  V30 4818 H 479.586 -5.54069 -3.36024 0
M  V30 4819 N 472.992 0.995999 -1.22138 0
M  V30 4820 C 474.239 1.7351 -1.04406 0
M  V30 4821 C 474.567 1.89884 0.421244 0
M  V30 4822 O 473.822 1.43683 1.32867 0
M  V30 4823 C 474.121 3.14553 -1.6968 0
M  V30 4824 C 473.787 3.18102 -3.19565 0
M  V30 4825 C 472.449 3.18778 -3.60464 0
M  V30 4826 C 474.801 3.14636 -4.15516 0
M  V30 4827 C 472.129 3.13684 -4.95801 0
M  V30 4828 C 474.481 3.11084 -5.50826 0
M  V30 4829 C 473.145 3.10074 -5.91109 0
M  V30 4830 H 472.415 0.634916 -0.38205 0
M  V30 4831 H 475.062 1.1667 -1.51857 0
M  V30 4832 H 473.367 3.74682 -1.14546 0
M  V30 4833 H 475.064 3.70477 -1.53454 0
M  V30 4834 H 471.654 3.18324 -2.86998 0
M  V30 4835 H 475.838 3.13266 -3.84939 0
M  V30 4836 H 471.094 3.11245 -5.26247 0
M  V30 4837 H 475.268 3.07357 -6.24904 0
M  V30 4838 H 472.895 3.05882 -6.95946 0
M  V30 4839 N 474.47 1.03057 1.19235 0
M  V30 4840 C 475.433 0.617418 2.20727 0
M  V30 4841 C 476.433 -0.319856 1.57587 0
M  V30 4842 O 477.623 -0.106633 1.73873 0
M  V30 4843 C 474.755 -0.096296 3.40764 0
M  V30 4844 H 475.948 1.51544 2.58794 0
M  V30 4845 H 473.501 0.821949 1.32942 0
M  V30 4846 H 474.236 -1.00859 3.08217 0
M  V30 4847 H 474.021 0.577217 3.87828 0
M  V30 4848 H 475.511 -0.372219 4.15938 0
M  V30 4849 N 475.948 -1.35272 0.808662 0
M  V30 4850 C 477.194 -1.99003 0.390581 0
M  V30 4851 C 477.527 -1.63999 -1.0401 0
M  V30 4852 O 476.802 -0.904368 -1.72196 0
M  V30 4853 C 477.085 -3.55454 0.576566 0
M  V30 4854 C 476.938 -4.00249 2.05233 0
M  V30 4855 C 478.257 -4.401 0.00354277 0
M  V30 4856 H 475.376 -0.722917 0.143388 0
M  V30 4857 H 478.018 -1.6039 1.01858 0
M  V30 4858 H 476.168 -3.88477 0.0419766 0
M  V30 4859 H 477.84 -3.77626 2.64946 0
M  V30 4860 H 476.083 -3.51082 2.54801 0
M  V30 4861 H 476.754 -5.0911 2.13333 0
M  V30 4862 H 479.23 -4.13548 0.460117 0
M  V30 4863 H 478.106 -5.48656 0.163575 0
M  V30 4864 H 478.367 -4.28444 -1.09032 0
M  V30 4865 N 477.426 -0.562348 -1.47226 0
M  V30 4866 C 478.837 -0.130325 -1.86245 0
M  V30 4867 C 479.188 1.30128 -1.46838 0
M  V30 4868 O 478.313 1.97974 -0.873805 0
M  V30 4869 C 478.908 -0.229738 -3.3802 0
M  V30 4870 C 477.467 0.14728 -3.76112 0
M  V30 4871 C 476.614 -0.574971 -2.71274 0
M  V30 4872 H 479.565 -0.771773 -1.3867 0
M  V30 4873 H 479.586 0.550316 -3.76499 0
M  V30 4874 H 479.098 -1.27178 -3.66671 0
M  V30 4875 H 477.199 1.19023 -3.53078 0
M  V30 4876 H 477.312 -0.214858 -4.78618 0
M  V30 4877 H 475.676 -0.0174756 -2.54694 0
M  V30 4878 H 476.459 -1.61827 -3.02766 0
M  V30 4879 N 478.904 1.54736 -0.299062 0
M  V30 4880 C 479.851 2.23448 0.577899 0
M  V30 4881 C 480.821 1.21637 1.13109 0
M  V30 4882 O 482.006 1.50252 1.17597 0
M  V30 4883 C 479.146 2.9774 1.74484 0
M  V30 4884 C 478.259 4.1432 1.22323 0
M  V30 4885 C 477.394 4.76199 2.35388 0
M  V30 4886 C 476.433 5.84927 1.80351 0
M  V30 4887 N 475.57 6.4077 2.86982 0
M  V30 4888 H 480.41 2.97996 -0.0146545 0
M  V30 4889 H 477.947 1.47088 -0.0190013 0
M  V30 4890 H 479.905 3.39045 2.43114 0
M  V30 4891 H 478.535 2.25572 2.30905 0
M  V30 4892 H 477.587 3.7797 0.429249 0
M  V30 4893 H 478.899 4.92659 0.780309 0
M  V30 4894 H 478.053 5.20346 3.11969 0
M  V30 4895 H 476.792 3.97188 2.83006 0
M  V30 4896 H 475.797 5.40207 1.02259 0
M  V30 4897 H 477.022 6.65821 1.3364 0
M  V30 4898 H 474.968 5.64643 3.33938 0
M  V30 4899 H 474.885 7.1445 2.4718 0
M  V30 4900 H 476.153 6.89574 3.63466 0
M  V30 4901 N 480.382 0.0267497 1.57577 0
M  V30 4902 C 481.345 -0.940916 2.08996 0
M  V30 4903 C 482.345 -1.25561 1.00455 0
M  V30 4904 O 483.535 -1.19634 1.26623 0
M  V30 4905 C 480.667 -2.25814 2.55384 0
M  V30 4906 H 481.86 -0.495628 2.95776 0
M  V30 4907 H 479.413 -0.221241 1.54726 0
M  V30 4908 H 480.148 -2.74976 1.71926 0
M  V30 4909 H 479.933 -2.04285 3.34679 0
M  V30 4910 H 481.423 -2.95178 2.95398 0
M  V30 4911 N 481.861 -1.55662 -0.24637 0
M  V30 4912 C 482.794 -1.85332 -1.33143 0
M  V30 4913 C 483.772 -0.708464 -1.46354 0
M  V30 4914 O 484.956 -0.954274 -1.6256 0
M  V30 4915 C 482.083 -2.0385 -2.70487 0
M  V30 4916 C 481.129 -3.26488 -2.74423 0
M  V30 4917 S 481.962 -4.83124 -2.30979 0
M  V30 4918 C 483.118 -5.04647 -3.70246 0
M  V30 4919 H 483.351 -2.77077 -1.07777 0
M  V30 4920 H 480.884 -1.47776 -0.44738 0
M  V30 4921 H 482.842 -2.15202 -3.49569 0
M  V30 4922 H 481.503 -1.12947 -2.9309 0
M  V30 4923 H 480.696 -3.36413 -3.7529 0
M  V30 4924 H 480.298 -3.13864 -2.03385 0
M  V30 4925 H 482.59 -4.92023 -4.65746 0
M  V30 4926 H 483.533 -6.06625 -3.65255 0
M  V30 4927 H 483.941 -4.32491 -3.62784 0
M  V30 4928 N 483.339 0.512053 -1.4905 0
M  V30 4929 C 484.587 1.26436 -1.57665 0
M  V30 4930 C 484.908 1.93255 -0.260293 0
M  V30 4931 O 484.178 1.82206 0.719564 0
M  V30 4932 H 482.758 0.469658 -0.580888 0
M  V30 4933 H 485.42 0.594398 -1.85615 0
M  V30 4934 H 484.516 2.03417 -2.36702 0
M  V30 4935 N 484.817 1.37938 0.762283 0
M  V30 4936 C 485.727 1.36681 1.90671 0
M  V30 4937 C 486.743 0.265078 1.71969 0
M  V30 4938 O 487.919 0.502055 1.95042 0
M  V30 4939 C 484.984 1.18211 3.25925 0
M  V30 4940 C 484.045 2.3811 3.57214 0
M  V30 4941 C 483.278 2.20512 4.86014 0
M  V30 4942 O 483.501 1.19429 5.57757 0
M  V30 4943 O 482.435 3.08911 5.16583 0
M  V30 4944 H 486.261 2.33091 1.94685 0
M  V30 4945 H 483.846 1.18767 0.906356 0
M  V30 4946 H 485.728 1.09937 4.06807 0
M  V30 4947 H 484.403 0.248807 3.22742 0
M  V30 4948 H 483.31 2.51958 2.76529 0
M  V30 4949 H 484.643 3.30041 3.65149 0
M  V30 4950 N 486.295 -0.989507 1.22664 0
M  V30 4951 C 487.227 -2.0824 0.957542 0
M  V30 4952 C 488.24 -1.6267 -0.0651098 0
M  V30 4953 O 489.429 -1.77695 0.169312 0
M  V30 4954 C 486.529 -3.36298 0.419145 0
M  V30 4955 C 485.702 -4.10882 1.49982 0
M  V30 4956 C 484.761 -5.17221 0.967904 0
M  V30 4957 O 483.787 -5.44613 1.65487 0
M  V30 4958 N 484.989 -5.80124 -0.20896 0
M  V30 4959 H 487.754 -2.31904 1.89843 0
M  V30 4960 H 485.315 -1.15552 1.13399 0
M  V30 4961 H 487.307 -4.04671 0.0485451 0
M  V30 4962 H 485.877 -3.09671 -0.426937 0
M  V30 4963 H 485.097 -3.37092 2.04359 0
M  V30 4964 H 486.385 -4.57482 2.22682 0
M  V30 4965 H 485.783 -5.60244 -0.783818 0
M  V30 4966 H 484.34 -6.49715 -0.520913 0
M  V30 4967 N 487.773 -1.03688 -1.18687 0
M  V30 4968 C 489.189 -0.755413 -1.4059 0
M  V30 4969 C 489.389 0.656659 -1.905 0
M  V30 4970 O 488.445 1.42144 -2.08689 0
M  V30 4971 C 489.758 -1.7983 -2.41001 0
M  V30 4972 C 491.306 -1.81877 -2.54735 0
M  V30 4973 C 491.781 -2.85148 -3.58406 0
M  V30 4974 N 493.272 -2.84015 -3.6591 0
M  V30 4975 C 494.007 -3.60573 -4.45841 0
M  V30 4976 N 493.503 -4.46871 -5.29413 0
M  V30 4977 N 495.296 -3.49079 -4.40568 0
M  V30 4978 H 487.447 -1.94818 -0.846148 0
M  V30 4979 H 489.71 -0.842727 -0.434184 0
M  V30 4980 H 489.416 -2.81097 -2.1137 0
M  V30 4981 H 489.29 -1.62727 -3.40294 0
M  V30 4982 H 491.677 -0.812836 -2.83685 0
M  V30 4983 H 491.758 -2.03057 -1.55568 0
M  V30 4984 H 491.402 -3.85918 -3.30197 0
M  V30 4985 H 491.332 -2.61224 -4.57241 0
M  V30 4986 H 493.823 -2.21431 -3.0623 0
M  V30 4987 H 494.136 -5.02007 -5.87545 0
M  V30 4988 H 492.481 -4.5094 -5.28846 0
M  V30 4989 H 495.672 -2.81066 -3.74325 0
M  V30 4990 H 495.845 -4.08994 -5.02621 0
M  V30 4991 N 489.251 1.34841 -0.815825 0
M  V30 4992 C 490.181 2.32187 -0.247298 0
M  V30 4993 C 491.162 1.5791 0.632344 0
M  V30 4994 O 492.347 1.8593 0.560698 0
M  V30 4995 C 489.477 3.42122 0.597466 0
M  V30 4996 C 488.431 4.27602 -0.184446 0
M  V30 4997 C 487.757 5.28942 0.782609 0
M  V30 4998 C 489.057 5.03502 -1.38865 0
M  V30 4999 H 490.751 2.79985 -1.06061 0
M  V30 5000 H 488.297 1.34611 -0.511461 0
M  V30 5001 H 490.25 4.09232 1.00533 0
M  V30 5002 H 488.974 2.92956 1.44376 0
M  V30 5003 H 487.633 3.62085 -0.573592 0
M  V30 5004 H 487.281 4.7604 1.62466 0
M  V30 5005 H 486.981 5.87008 0.263695 0
M  V30 5006 H 488.505 5.98922 1.18848 0
M  V30 5007 H 489.919 5.63506 -1.05518 0
M  V30 5008 H 488.316 5.71108 -1.8427 0
M  V30 5009 H 489.386 4.33608 -2.17054 0
M  V30 5010 N 490.729 0.570148 1.46925 0
M  V30 5011 C 491.959 0.0561151 2.06524 0
M  V30 5012 C 492.367 -1.24874 1.42137 0
M  V30 5013 O 491.71 -1.76292 0.516417 0
M  V30 5014 C 491.772 -0.197035 3.5896 0
M  V30 5015 C 491.436 1.02033 4.45464 0
M  V30 5016 C 492.433 1.92921 4.82781 0
M  V30 5017 C 490.118 1.23864 4.86788 0
M  V30 5018 C 492.112 3.03999 5.60235 0
M  V30 5019 C 489.799 2.35249 5.64004 0
M  V30 5020 C 490.797 3.25146 6.0064 0
M  V30 5021 O 490.485 4.34598 6.76299 0
M  V30 5022 H 490.217 0.0487409 0.674241 0
M  V30 5023 H 492.771 0.786915 1.89728 0
M  V30 5024 H 491.001 -0.982299 3.74016 0
M  V30 5025 H 492.69 -0.658032 4.00531 0
M  V30 5026 H 493.456 1.77265 4.51444 0
M  V30 5027 H 489.335 0.54805 4.57731 0
M  V30 5028 H 492.879 3.74192 5.8875 0
M  V30 5029 H 488.776 2.50873 5.94755 0
M  V30 5030 H 489.544 4.32808 6.94708 0
M  V30 5031 N 492.207 -1.54576 0.307264 0
M  V30 5032 C 493.155 -2.25208 -0.581723 0
M  V30 5033 C 494.149 -1.26031 -1.13192 0
M  V30 5034 O 495.355 -1.43862 -1.08184 0
M  V30 5035 H 491.73 -0.723173 -0.206214 0
M  V30 5036 H 493.701 -2.98378 0.0364663 0
M  V30 5037 C 492.45 -3.01086 -1.73904 0
M  V30 5038 H 491.773 -3.77208 -1.32491 0
M  V30 5039 H 493.213 -3.5378 -2.33701 0
M  V30 5040 C 491.672 -2.08422 -2.64692 0
M  V30 5041 O 492.202 -1.65636 -3.65961 0
M  V30 5042 N 490.408 -1.74247 -2.32564 0
M  V30 5043 H 489.955 -2.09238 -1.50257 0
M  V30 5044 H 489.913 -1.12524 -2.93574 0
M  V30 5045 N 493.685 -0.035106 -1.57561 0
M  V30 5046 C 494.632 0.94474 -2.10578 0
M  V30 5047 C 495.602 1.3192 -1.00927 0
M  V30 5048 O 496.787 1.41147 -1.28382 0
M  V30 5049 C 493.927 2.21982 -2.64231 0
M  V30 5050 C 493.04 1.90128 -3.87911 0
M  V30 5051 C 492.175 3.11975 -4.29936 0
M  V30 5052 C 491.214 2.75968 -5.46359 0
M  V30 5053 N 490.351 3.90459 -5.83512 0
M  V30 5054 H 495.191 0.485717 -2.94015 0
M  V30 5055 H 492.728 0.228143 -1.4532 0
M  V30 5056 H 494.686 2.96572 -2.9343 0
M  V30 5057 H 493.316 2.6549 -1.83616 0
M  V30 5058 H 492.368 1.05755 -3.65404 0
M  V30 5059 H 493.68 1.59613 -4.72573 0
M  V30 5060 H 492.834 3.9488 -4.60603 0
M  V30 5061 H 491.573 3.45657 -3.44053 0
M  V30 5062 H 490.578 1.91478 -5.1538 0
M  V30 5063 H 491.803 2.43497 -6.33945 0
M  V30 5064 H 489.749 4.23971 -5.00584 0
M  V30 5065 H 489.666 3.63588 -6.62827 0
M  V30 5066 H 490.934 4.7405 -6.18787 0
M  V30 5067 N 495.163 1.55791 0.238111 0
M  V30 5068 C 496.391 1.82098 0.982233 0
M  V30 5069 C 496.806 0.612025 1.78605 0
M  V30 5070 O 496.163 -0.419381 1.77616 0
M  V30 5071 C 496.214 3.0673 1.91309 0
M  V30 5072 O 495.935 4.2296 1.14179 0
M  V30 5073 C 497.436 3.45903 2.77248 0
M  V30 5074 H 494.656 0.605748 0.288635 0
M  V30 5075 H 497.2 2.02862 0.258341 0
M  V30 5076 H 495.355 2.87991 2.59114 0
M  V30 5077 H 495.769 4.93653 1.7722 0
M  V30 5078 H 497.243 4.36189 3.38295 0
M  V30 5079 H 497.72 2.66891 3.48806 0
M  V30 5080 H 498.326 3.67024 2.14881 0
M  V30 5081 N 496.642 -0.504142 1.49319 0
M  V30 5082 C 497.89 -1.25598 1.58334 0
M  V30 5083 C 498.211 -1.93114 0.270538 0
M  V30 5084 O 497.481 -1.82585 -0.709891 0
M  V30 5085 H 496.061 -0.466571 0.58337 0
M  V30 5086 H 498.723 -0.584547 1.85928 0
M  V30 5087 H 497.819 -2.02159 2.37778 0
M  V30 5088 N 498.12 -1.38341 -0.754957 0
M  V30 5089 C 499.345 -1.37882 -1.5493 0
M  V30 5090 C 499.77 0.0296385 -1.88077 0
M  V30 5091 O 499.128 1.01133 -1.50472 0
M  V30 5092 C 499.176 -2.23996 -2.82592 0
M  V30 5093 O 498.28 -1.65612 -3.77686 0
M  V30 5094 H 497.621 -0.470384 -0.468652 0
M  V30 5095 H 500.151 -1.82084 -0.933082 0
M  V30 5096 H 500.161 -2.37806 -3.3153 0
M  V30 5097 H 498.836 -3.26365 -2.57796 0
M  V30 5098 H 497.413 -1.60936 -3.36384 0
M  V30 5099 N 499.598 0.982988 -1.23187 0
M  V30 5100 C 500.826 1.75921 -1.08901 0
M  V30 5101 C 501.241 1.85341 0.359719 0
M  V30 5102 O 500.598 1.33072 1.24892 0
M  V30 5103 C 500.649 3.18742 -1.70545 0
M  V30 5104 O 500.37 3.09814 -3.09753 0
M  V30 5105 C 501.871 4.1277 -1.61667 0
M  V30 5106 H 499.091 0.552166 -0.381252 0
M  V30 5107 H 501.635 1.23516 -1.62985 0
M  V30 5108 H 499.79 3.68182 -1.20501 0
M  V30 5109 H 500.204 3.99703 -3.39614 0
M  V30 5110 H 501.678 5.10697 -2.09506 0
M  V30 5111 H 502.155 4.3542 -0.575009 0
M  V30 5112 H 502.761 3.69232 -2.11064 0
M  V30 5113 N 501.076 1.04316 1.18135 0
M  V30 5114 C 502.324 0.746542 1.87806 0
M  V30 5115 C 502.645 -0.728082 1.80898 0
M  V30 5116 O 501.915 -1.52554 1.22899 0
M  V30 5117 H 500.495 0.273157 0.695265 0
M  V30 5118 H 503.157 1.32044 1.43354 0
M  V30 5119 H 502.253 1.05362 2.93778 0
M  V30 5120 N 502.554 -1.34406 0.822964 0
M  V30 5121 C 503.802 -1.97892 0.410245 0
M  V30 5122 C 504.123 -1.65567 -1.03017 0
M  V30 5123 O 503.393 -0.94642 -1.71522 0
M  V30 5124 H 501.973 -0.732049 0.148707 0
M  V30 5125 H 504.635 -1.64043 1.05242 0
M  V30 5126 H 503.731 -3.07579 0.529284 0
M  V30 5127 N 504.032 -0.577932 -1.46621 0
M  V30 5128 C 505.279 -0.0616879 -2.02406 0
M  V30 5129 C 505.607 1.29638 -1.44997 0
M  V30 5130 O 504.862 1.86176 -0.60308 0
M  V30 5131 C 505.161 0.0590832 -3.57351 0
M  V30 5132 C 504.827 -1.23077 -4.33777 0
M  V30 5133 C 503.489 -1.58416 -4.54376 0
M  V30 5134 C 505.841 -2.08457 -4.77698 0
M  V30 5135 C 503.169 -2.78943 -5.16147 0
M  V30 5136 C 505.521 -3.28204 -5.408 0
M  V30 5137 C 504.185 -3.63832 -5.59627 0
M  V30 5138 H 503.455 -0.0225732 -0.740656 0
M  V30 5139 H 506.102 -0.753609 -1.76048 0
M  V30 5140 H 504.407 0.834104 -3.82818 0
M  V30 5141 H 506.104 0.474202 -3.98186 0
M  V30 5142 H 502.694 -0.945652 -4.18038 0
M  V30 5143 H 506.878 -1.82459 -4.61544 0
M  V30 5144 H 502.134 -3.06689 -5.28916 0
M  V30 5145 H 506.308 -3.94634 -5.73792 0
M  V30 5146 H 503.935 -4.57315 -6.07262 0
M  V30 5147 N 505.51 1.54411 -0.315457 0
M  V30 5148 C 506.758 2.00023 0.288971 0
M  V30 5149 C 507.079 1.20529 1.5329 0
M  V30 5150 O 506.349 0.304986 1.93511 0
M  V30 5151 H 504.929 0.738891 0.109766 0
M  V30 5152 H 507.591 1.90094 -0.430129 0
M  V30 5153 H 506.687 3.07198 0.550999 0
M  V30 5154 N 506.988 0.0434614 1.5754 0
M  V30 5155 C 507.951 -0.918696 2.09982 0
M  V30 5156 C 508.951 -1.24488 1.01781 0
M  V30 5157 O 510.141 -1.18284 1.27885 0
M  V30 5158 C 507.273 -2.23093 2.57764 0
M  V30 5159 H 508.466 -0.464229 2.96285 0
M  V30 5160 H 506.019 -0.204818 1.54952 0
M  V30 5161 H 506.754 -2.73137 1.74832 0
M  V30 5162 H 506.539 -2.00724 3.36827 0
M  V30 5163 H 508.029 -2.92028 2.98512 0
M  V30 5164 N 508.466 -1.55915 -0.229846 0
M  V30 5165 C 509.696 -1.82352 -0.971152 0
M  V30 5166 C 510.104 -0.619231 -1.7878 0
M  V30 5167 O 509.447 0.421597 -1.78797 0
M  V30 5168 C 509.509 -3.02399 -1.9441 0
M  V30 5169 C 509.173 -4.37739 -1.31277 0
M  V30 5170 C 510.17 -5.15074 -0.706757 0
M  V30 5171 C 507.855 -4.84454 -1.32702 0
M  V30 5172 C 509.849 -6.37281 -0.123413 0
M  V30 5173 C 507.536 -6.06605 -0.739831 0
M  V30 5174 C 508.534 -6.82858 -0.139071 0
M  V30 5175 O 508.222 -8.027 0.439007 0
M  V30 5176 H 507.954 -0.61035 -0.290601 0
M  V30 5177 H 510.508 -2.03839 -0.252746 0
M  V30 5178 H 508.738 -2.76709 -2.70128 0
M  V30 5179 H 510.427 -3.15779 -2.55026 0
M  V30 5180 H 511.193 -4.80093 -0.688131 0
M  V30 5181 H 507.072 -4.25081 -1.78402 0
M  V30 5182 H 510.616 -6.96741 0.346124 0
M  V30 5183 H 506.513 -6.4106 -0.755841 0
M  V30 5184 H 507.281 -8.17824 0.332521 0
M  V30 5185 N 509.944 0.496216 -1.49584 0
M  V30 5186 C 511.19 1.25189 -1.59548 0
M  V30 5187 C 511.523 1.9212 -0.283466 0
M  V30 5188 O 510.798 1.80947 0.713324 0
M  V30 5189 C 511.081 2.31516 -2.75812 0
M  V30 5190 C 510.934 1.69054 -4.16822 0
M  V30 5191 C 512.253 3.3304 -2.87702 0
M  V30 5192 H 509.372 0.45379 -0.580727 0
M  V30 5193 H 512.014 0.549327 -1.81886 0
M  V30 5194 H 510.164 2.91438 -2.56897 0
M  V30 5195 H 511.836 1.12923 -4.47265 0
M  V30 5196 H 510.079 0.994485 -4.22247 0
M  V30 5197 H 510.75 2.462 -4.94054 0
M  V30 5198 H 513.226 2.83114 -3.04936 0
M  V30 5199 H 512.102 4.04794 -3.7072 0
M  V30 5200 H 512.363 3.95655 -1.97255 0
M  V30 5201 N 511.423 1.38739 0.74761 0
M  V30 5202 C 512.386 1.36241 1.84312 0
M  V30 5203 C 513.386 0.261811 1.58654 0
M  V30 5204 O 514.576 0.519031 1.66288 0
M  V30 5205 C 511.708 1.12253 3.21888 0
M  V30 5206 H 512.901 2.33712 1.87933 0
M  V30 5207 H 510.454 1.2412 0.949946 0
M  V30 5208 H 511.189 0.154133 3.23934 0
M  V30 5209 H 510.974 1.91943 3.41907 0
M  V30 5210 H 512.464 1.13215 4.0196 0
M  V30 5211 N 512.901 -0.976442 1.23707 0
M  V30 5212 C 514.148 -1.71827 1.07153 0
M  V30 5213 C 514.476 -1.9053 -0.390982 0
M  V30 5214 O 513.731 -1.45779 -1.30564 0
M  V30 5215 C 514.03 -3.11814 1.74662 0
M  V30 5216 C 513.696 -3.12978 3.24585 0
M  V30 5217 C 512.358 -3.13003 3.6549 0
M  V30 5218 C 514.71 -3.07986 4.20469 0
M  V30 5219 C 512.038 -3.05757 5.00729 0
M  V30 5220 C 514.39 -3.02282 5.55705 0
M  V30 5221 C 513.054 -3.00631 5.95968 0
M  V30 5222 H 512.324 -0.628758 0.392102 0
M  V30 5223 H 514.971 -1.14239 1.53693 0
M  V30 5224 H 513.276 -3.72812 1.20492 0
M  V30 5225 H 514.973 -3.67989 1.59328 0
M  V30 5226 H 511.563 -3.13718 2.92026 0
M  V30 5227 H 515.747 -3.07103 3.89874 0
M  V30 5228 H 511.003 -3.02834 5.31132 0
M  V30 5229 H 515.177 -2.97376 6.29714 0
M  V30 5230 H 512.804 -2.94771 7.00724 0
M  V30 5231 N 514.379 -1.04941 -1.1758 0
M  V30 5232 C 515.625 -0.759112 -1.88057 0
M  V30 5233 C 515.958 0.711918 -1.8068 0
M  V30 5234 O 515.233 1.52035 -1.21308 0
M  V30 5235 C 515.516 -1.237 -3.38187 0
M  V30 5236 C 515.369 -2.77078 -3.54327 0
M  V30 5237 C 516.688 -0.834014 -4.32125 0
M  V30 5238 H 513.807 -0.277237 -0.682868 0
M  V30 5239 H 516.449 -1.30296 -1.38286 0
M  V30 5240 H 514.599 -0.774337 -3.80705 0
M  V30 5241 H 516.271 -3.31449 -3.20842 0
M  V30 5242 H 514.514 -3.16477 -2.96689 0
M  V30 5243 H 515.185 -3.05577 -4.59703 0
M  V30 5244 H 517.661 -1.23228 -3.97434 0
M  V30 5245 H 516.537 -1.19603 -5.35711 0
M  V30 5246 H 516.798 0.262195 -4.41322 0
M  V30 5247 N 515.857 1.33968 -0.830081 0
M  V30 5248 C 517.268 1.80439 -0.479455 0
M  V30 5249 C 517.619 1.68756 1.00079 0
M  V30 5250 O 516.744 1.23171 1.77927 0
M  V30 5251 C 517.339 3.27611 -0.863505 0
M  V30 5252 C 515.898 3.72133 -0.565145 0
M  V30 5253 C 515.045 2.55549 -1.07657 0
M  V30 5254 H 517.996 1.21614 -1.0196 0
M  V30 5255 H 518.017 3.8012 -0.170083 0
M  V30 5256 H 517.529 3.36082 -1.94089 0
M  V30 5257 H 515.63 3.69196 0.502536 0
M  V30 5258 H 515.743 4.65963 -1.11422 0
M  V30 5259 H 514.107 2.49788 -0.497807 0
M  V30 5260 H 514.89 2.66786 -2.16055 0
M  V30 5261 N 517.335 0.585699 1.46312 0
M  V30 5262 C 518.298 -0.135673 2.28798 0
M  V30 5263 C 519.298 -0.815988 1.38558 0
M  V30 5264 O 520.488 -0.667487 1.60904 0
M  V30 5265 C 517.62 -1.20163 3.1902 0
M  V30 5266 H 518.813 0.589257 2.94054 0
M  V30 5267 H 516.366 0.343794 1.52472 0
M  V30 5268 H 517.101 -1.95804 2.58517 0
M  V30 5269 H 516.886 -0.718282 3.85465 0
M  V30 5270 H 518.376 -1.70749 3.81096 0
M  V30 5271 N 518.813 -1.54241 0.323641 0
M  V30 5272 C 520.229 -1.59574 -0.0290018 0
M  V30 5273 C 520.429 -1.34017 -1.50472 0
M  V30 5274 O 519.485 -1.12464 -2.26071 0
M  V30 5275 C 520.798 -2.98169 0.389295 0
M  V30 5276 C 522.346 -3.11148 0.339958 0
M  V30 5277 C 522.821 -4.5209 0.733418 0
M  V30 5278 N 524.312 -4.5808 0.686827 0
M  V30 5279 C 525.047 -5.65248 0.963464 0
M  V30 5280 N 524.543 -6.80355 1.30724 0
M  V30 5281 N 526.336 -5.55025 0.88902 0
M  V30 5282 H 518.487 -1.6911 1.28512 0
M  V30 5283 H 520.75 -0.790972 0.522558 0
M  V30 5284 H 520.456 -3.21871 1.41746 0
M  V30 5285 H 520.33 -3.76399 -0.245657 0
M  V30 5286 H 522.717 -2.87182 -0.679002 0
M  V30 5287 H 522.798 -2.35023 1.00985 0
M  V30 5288 H 522.442 -4.76788 1.75029 0
M  V30 5289 H 522.372 -5.26584 0.0412189 0
M  V30 5290 H 524.863 -3.75411 0.43298 0
M  V30 5291 H 525.176 -7.58029 1.5037 0
M  V30 5292 H 523.521 -6.81851 1.3455 0
M  V30 5293 H 526.712 -4.63977 0.619939 0
M  V30 5294 H 526.885 -6.38458 1.10797 0
M  V30 5295 N 520.291 -0.0518155 -1.57515 0
M  V30 5296 C 521.539 0.620595 -1.92336 0
M  V30 5297 C 521.86 1.71345 -0.930907 0
M  V30 5298 O 521.13 1.95885 0.0241341 0
M  V30 5299 H 519.71 0.232226 -0.709986 0
M  V30 5300 H 522.372 -0.104969 -1.94617 0
M  V30 5301 H 521.468 1.05879 -2.93592 0
M  V30 5302 N 521.769 1.56035 0.221574 0
M  V30 5303 C 523.018 1.78245 0.944016 0
M  V30 5304 C 523.331 0.620371 1.85501 0
M  V30 5305 O 524.537 0.726103 2.6161 0
M  V30 5306 C 522.993 3.15659 1.7288 0
M  V30 5307 C 522.601 4.39591 0.863942 0
M  V30 5308 C 524.345 3.47195 2.44246 0
M  V30 5309 C 522.252 5.6803 1.64607 0
M  V30 5310 H 521.182 0.664547 0.356222 0
M  V30 5311 H 523.833 1.8243 0.197904 0
M  V30 5312 H 522.215 3.0565 2.51781 0
M  V30 5313 H 523.389 4.60655 0.115464 0
M  V30 5314 H 521.704 4.15572 0.262407 0
M  V30 5315 H 524.301 4.40381 3.03263 0
M  V30 5316 H 524.644 2.69693 3.1713 0
M  V30 5317 H 525.177 3.58533 1.72334 0
M  V30 5318 H 521.916 6.48425 0.960507 0
M  V30 5319 H 521.436 5.51027 2.36917 0
M  V30 5320 H 523.115 6.08203 2.20675 0
M  V30 5321 N 523.247 -0.488276 1.49845 0
M  V30 5322 C 524.21 -1.57069 1.66919 0
M  V30 5323 C 525.21 -1.51445 0.540479 0
M  V30 5324 O 526.4 -1.5437 0.807188 0
M  V30 5325 C 523.532 -2.96718 1.67844 0
M  V30 5326 H 524.725 -1.43254 2.63474 0
M  V30 5327 H 522.278 -0.713435 1.39068 0
M  V30 5328 H 523.013 -3.15996 0.7292 0
M  V30 5329 H 522.798 -3.02208 2.49826 0
M  V30 5330 H 524.288 -3.75335 1.83066 0
M  V30 5331 N 524.725 -1.39134 -0.740242 0
M  V30 5332 C 525.974 -1.35384 -1.49512 0
M  V30 5333 C 526.287 0.04919 -1.95538 0
M  V30 5334 O 527.493 0.209257 -2.70692 0
M  V30 5335 C 525.949 -2.37812 -2.70136 0
M  V30 5336 C 525.557 -3.83804 -2.31081 0
M  V30 5337 C 527.301 -2.4313 -3.47977 0
M  V30 5338 C 525.208 -4.77886 -3.48395 0
M  V30 5339 H 524.138 -0.503297 -0.561434 0
M  V30 5340 H 526.789 -1.64754 -0.807974 0
M  V30 5341 H 525.171 -2.01505 -3.40899 0
M  V30 5342 H 526.345 -4.29123 -1.67898 0
M  V30 5343 H 524.66 -3.81732 -1.66343 0
M  V30 5344 H 527.257 -3.10614 -4.35228 0
M  V30 5345 H 527.6 -1.45423 -3.90074 0
M  V30 5346 H 528.133 -2.78304 -2.84239 0
M  V30 5347 H 524.872 -5.76836 -3.11353 0
M  V30 5348 H 524.392 -4.3725 -4.10576 0
M  V30 5349 H 526.071 -4.96538 -4.148 0
M  V30 5350 N 526.204 0.969867 -1.24223 0
M  V30 5351 C 527.45 1.7151 -1.08223 0
M  V30 5352 C 527.783 1.90478 0.37838 0
M  V30 5353 O 527.058 1.4647 1.27971 0
M  V30 5354 C 527.341 3.10714 -1.82013 0
M  V30 5355 C 527.194 2.9925 -3.35811 0
M  V30 5356 C 528.513 4.10332 -1.59108 0
M  V30 5357 H 525.632 0.622499 -0.394543 0
M  V30 5358 H 528.274 1.1284 -1.52863 0
M  V30 5359 H 526.424 3.608 -1.44068 0
M  V30 5360 H 528.096 2.56608 -3.83341 0
M  V30 5361 H 526.339 2.35512 -3.64303 0
M  V30 5362 H 527.01 3.97857 -3.82641 0
M  V30 5363 H 529.486 3.69097 -1.92111 0
M  V30 5364 H 528.362 5.05804 -2.13198 0
M  V30 5365 H 528.623 4.38926 -0.528832 0
M  V30 5366 N 527.682 1.05563 1.17022 0
M  V30 5367 C 528.615 0.604197 2.20056 0
M  V30 5368 C 529.593 -0.369169 1.58354 0
M  V30 5369 O 530.777 -0.279898 1.8641 0
M  V30 5370 C 527.904 -0.115265 3.38504 0
M  V30 5371 C 526.95 0.813698 4.18666 0
M  V30 5372 S 527.783 2.30492 4.83357 0
M  V30 5373 C 528.939 1.59674 6.0519 0
M  V30 5374 H 529.172 1.47713 2.58008 0
M  V30 5375 H 526.705 0.867932 1.27696 0
M  V30 5376 H 528.663 -0.524162 4.0714 0
M  V30 5377 H 527.324 -0.964284 2.98932 0
M  V30 5378 H 526.517 0.256736 5.03346 0
M  V30 5379 H 526.119 1.16213 3.55486 0
M  V30 5380 H 528.411 0.898164 6.7152 0
M  V30 5381 H 529.354 2.42115 6.65422 0
M  V30 5382 H 529.762 1.08252 5.54023 0
M  V30 5383 N 529.16 -1.33526 0.837174 0
M  V30 5384 C 530.09 -2.31764 0.284206 0
M  V30 5385 C 531.071 -1.58896 -0.607142 0
M  V30 5386 O 532.256 -1.86798 -0.531047 0
M  V30 5387 C 529.386 -3.43029 -0.542962 0
M  V30 5388 C 528.34 -4.27255 0.252451 0
M  V30 5389 C 527.666 -5.3012 -0.69836 0
M  V30 5390 C 528.966 -5.01229 1.46858 0
M  V30 5391 H 530.66 -2.78262 1.10502 0
M  V30 5392 H 528.206 -1.3378 0.532812 0
M  V30 5393 H 530.159 -4.1078 -0.940096 0
M  V30 5394 H 528.883 -2.95216 -1.39697 0
M  V30 5395 H 527.542 -3.61127 0.631124 0
M  V30 5396 H 527.19 -4.78564 -1.54872 0
M  V30 5397 H 526.89 -5.87353 -0.170274 0
M  V30 5398 H 528.414 -6.00737 -1.09305 0
M  V30 5399 H 529.828 -5.61756 1.14469 0
M  V30 5400 H 528.225 -5.68104 1.93333 0
M  V30 5401 H 529.295 -4.301 2.23924 0
M  V30 5402 N 530.638 -0.59345 -1.46 0
M  V30 5403 C 531.601 0.123538 -2.28867 0
M  V30 5404 C 532.601 0.808628 -1.38989 0
M  V30 5405 O 533.791 0.658945 -1.61256 0
M  V30 5406 C 530.923 1.1847 -3.19653 0
M  V30 5407 H 532.116 -0.604843 -2.93737 0
M  V30 5408 H 529.669 -0.351875 -1.52288 0
M  V30 5409 H 530.404 1.94431 -2.59552 0
M  V30 5410 H 530.189 0.69783 -3.8584 0
M  V30 5411 H 531.679 1.68726 -3.81997 0
M  V30 5412 N 532.116 1.54067 -0.331816 0
M  V30 5413 C 533.064 2.26105 0.54582 0
M  V30 5414 C 534.058 1.27816 1.11173 0
M  V30 5415 O 535.264 1.45565 1.05882 0
M  V30 5416 H 531.639 0.726363 0.194683 0
M  V30 5417 H 533.61 2.98282 -0.083931 0
M  V30 5418 C 532.359 3.03814 1.69092 0
M  V30 5419 H 531.682 3.79269 1.26473 0
M  V30 5420 H 533.122 3.57453 2.28043 0
M  V30 5421 C 531.581 2.12606 2.61343 0
M  V30 5422 O 532.111 1.71437 3.6328 0
M  V30 5423 N 530.317 1.77925 2.29763 0
M  V30 5424 H 529.864 2.11602 1.46909 0
M  V30 5425 H 529.822 1.1718 2.91747 0
M  V30 5426 N 533.594 0.0601682 1.57485 0
M  V30 5427 C 535.01 -0.296422 1.56823 0
M  V30 5428 C 535.21 -1.70831 1.0686 0
M  V30 5429 O 534.266 -2.4174 0.729245 0
M  V30 5430 C 535.579 -0.116681 3.00474 0
M  V30 5431 C 537.127 -0.187103 3.1244 0
M  V30 5432 C 537.602 -0.035783 4.57986 0
M  V30 5433 N 539.093 -0.0917676 4.63109 0
M  V30 5434 C 539.828 0.00107251 5.734 0
M  V30 5435 N 539.324 0.146773 6.92645 0
M  V30 5436 N 541.117 -0.0551577 5.62073 0
M  V30 5437 H 533.268 0.983055 1.88281 0
M  V30 5438 H 535.531 0.382386 0.867459 0
M  V30 5439 H 535.237 0.85712 3.41096 0
M  V30 5440 H 535.111 -0.873929 3.66936 0
M  V30 5441 H 537.498 -1.15138 2.71712 0
M  V30 5442 H 537.579 0.601052 2.48638 0
M  V30 5443 H 537.223 0.925212 4.99402 0
M  V30 5444 H 537.153 -0.843196 5.19806 0
M  V30 5445 H 539.644 -0.203261 3.77353 0
M  V30 5446 H 539.957 0.210076 7.72514 0
M  V30 5447 H 538.302 0.181979 6.94762 0
M  V30 5448 H 541.493 -0.167605 4.678 0
M  V30 5449 H 541.666 0.020652 6.47997 0
M  V30 5450 N 535.072 -1.5615 -0.213296 0
M  V30 5451 C 536.02 -1.93953 -1.28394 0
M  V30 5452 C 537.014 -0.822592 -1.48087 0
M  V30 5453 O 538.22 -1.00748 -1.49164 0
M  V30 5454 H 534.595 -0.61648 -0.430646 0
M  V30 5455 H 536.566 -2.83275 -0.937977 0
M  V30 5456 C 535.315 -2.27969 -2.62537 0
M  V30 5457 H 534.638 -3.13432 -2.48194 0
M  V30 5458 H 536.078 -2.58297 -3.36242 0
M  V30 5459 C 534.537 -1.10775 -3.18167 0
M  V30 5460 O 535.067 -0.373201 -3.99963 0
M  V30 5461 N 533.273 -0.889377 -2.76656 0
M  V30 5462 H 532.82 -1.48843 -2.10246 0
M  V30 5463 H 532.778 -0.107 -3.14218 0
M  V30 5464 N 536.55 0.480323 -1.50102 0
M  V30 5465 C 537.78 1.25475 -1.64133 0
M  V30 5466 C 538.188 1.8647 -0.320272 0
M  V30 5467 O 537.531 1.69561 0.70673 0
M  V30 5468 C 537.593 2.40996 -2.6676 0
M  V30 5469 C 537.257 2.00711 -4.10565 0
M  V30 5470 C 538.254 1.53492 -4.96725 0
M  V30 5471 C 535.939 2.09714 -4.56427 0
M  V30 5472 C 537.933 1.15806 -6.26792 0
M  V30 5473 C 535.62 1.7164 -5.86501 0
M  V30 5474 C 536.618 1.24763 -6.71508 0
M  V30 5475 O 536.306 0.872122 -7.99155 0
M  V30 5476 H 536.038 0.385983 -0.554971 0
M  V30 5477 H 538.592 0.580848 -1.97016 0
M  V30 5478 H 536.822 3.11528 -2.291 0
M  V30 5479 H 538.511 3.02981 -2.70106 0
M  V30 5480 H 539.277 1.45966 -4.62514 0
M  V30 5481 H 535.156 2.4515 -3.90413 0
M  V30 5482 H 538.7 0.791465 -6.93096 0
M  V30 5483 H 534.597 1.78822 -6.20236 0
M  V30 5484 H 535.365 1.00178 -8.12346 0
M  V30 5485 N 538.028 1.39524 0.732853 0
M  V30 5486 C 539.439 1.32905 1.31122 0
M  V30 5487 C 539.79 -0.00558708 1.96199 0
M  V30 5488 O 538.915 -0.907706 1.96443 0
M  V30 5489 C 539.51 2.40704 2.38426 0
M  V30 5490 C 538.069 2.37599 2.91931 0
M  V30 5491 C 537.216 2.2248 1.65523 0
M  V30 5492 H 540.167 1.49581 0.530207 0
M  V30 5493 H 540.188 2.07616 3.18867 0
M  V30 5494 H 539.7 3.37829 1.91033 0
M  V30 5495 H 537.801 1.44119 3.43599 0
M  V30 5496 H 537.914 3.32538 3.44899 0
M  V30 5497 H 536.278 1.69691 1.8994 0
M  V30 5498 H 537.061 3.21577 1.20178 0
M  V30 5499 N 539.506 -0.963266 1.24736 0
M  V30 5500 C 540.755 -1.70115 1.08369 0
M  V30 5501 C 541.068 -1.91939 -0.376688 0
M  V30 5502 O 542.274 -2.6334 -0.660624 0
M  V30 5503 C 540.73 -3.06218 1.89099 0
M  V30 5504 C 540.338 -2.92221 3.39574 0
M  V30 5505 C 542.082 -3.83848 1.81275 0
M  V30 5506 C 539.989 -4.23662 4.12631 0
M  V30 5507 H 538.919 -0.637944 0.401924 0
M  V30 5508 H 541.57 -1.07304 1.48856 0
M  V30 5509 H 539.952 -3.69884 1.41429 0
M  V30 5510 H 541.126 -2.37541 3.94856 0
M  V30 5511 H 539.441 -2.28054 3.48397 0
M  V30 5512 H 542.038 -4.81188 2.33158 0
M  V30 5513 H 542.381 -4.08949 0.778895 0
M  V30 5514 H 542.914 -3.26918 2.26649 0
M  V30 5515 H 539.653 -4.03753 5.16395 0
M  V30 5516 H 539.173 -4.78141 3.62135 0
M  V30 5517 H 540.852 -4.92256 4.19873 0
M  V30 5518 N 540.985 -1.06182 -1.16461 0
M  V30 5519 C 541.895 -0.682671 -2.24448 0
M  V30 5520 C 542.911 0.30078 -1.71381 0
M  V30 5521 O 544.087 0.150376 -2.00838 0
M  V30 5522 C 541.152 -0.0737202 -3.46622 0
M  V30 5523 C 540.213 -1.10889 -4.14731 0
M  V30 5524 C 539.446 -0.528908 -5.31073 0
M  V30 5525 O 539.669 0.65868 -5.66584 0
M  V30 5526 O 538.603 -1.26805 -5.88391 0
M  V30 5527 H 542.429 -1.58291 -2.59187 0
M  V30 5528 H 540.014 -0.834013 -1.23954 0
M  V30 5529 H 541.896 0.264192 -4.20571 0
M  V30 5530 H 540.571 0.800015 -3.13658 0
M  V30 5531 H 539.478 -1.49896 -3.42756 0
M  V30 5532 H 540.811 -1.95412 -4.51747 0
M  V30 5533 N 542.463 1.3308 -0.844243 0
M  V30 5534 C 543.426 2.27403 -0.286485 0
M  V30 5535 C 544.426 1.51179 0.547872 0
M  V30 5536 O 545.616 1.70421 0.360886 0
M  V30 5537 C 542.748 3.35653 0.595813 0
M  V30 5538 H 543.941 2.78248 -1.11885 0
M  V30 5539 H 541.494 1.43574 -0.617749 0
M  V30 5540 H 542.229 2.90058 1.4504 0
M  V30 5541 H 542.014 3.921 -0.00125994 0
M  V30 5542 H 543.504 4.05958 0.979168 0
M  V30 5543 N 543.941 0.601185 1.45683 0
M  V30 5544 C 545.357 0.264315 1.57396 0
M  V30 5545 C 545.557 -1.23324 1.59353 0
M  V30 5546 O 544.613 -2.01594 1.52039 0
M  V30 5547 C 545.926 0.929839 2.85962 0
M  V30 5548 C 547.474 0.905156 2.99626 0
M  V30 5549 C 547.949 1.55057 4.30954 0
M  V30 5550 N 549.44 1.51576 4.37697 0
M  V30 5551 C 550.175 1.98436 5.37969 0
M  V30 5552 N 549.671 2.53352 6.44813 0
M  V30 5553 N 551.464 1.89242 5.29286 0
M  V30 5554 H 543.615 1.57363 1.42656 0
M  V30 5555 H 545.878 0.658831 0.681649 0
M  V30 5556 H 545.584 1.98404 2.90394 0
M  V30 5557 H 545.458 0.449224 3.74515 0
M  V30 5558 H 547.845 -0.14048 2.94765 0
M  V30 5559 H 547.926 1.42397 2.12501 0
M  V30 5560 H 547.57 2.5955 4.36573 0
M  V30 5561 H 547.5 1.00682 5.16886 0
M  V30 5562 H 549.991 1.11452 3.61091 0
M  V30 5563 H 550.304 2.86918 7.17564 0
M  V30 5564 H 548.649 2.57388 6.45582 0
M  V30 5565 H 551.84 1.46083 4.44722 0
M  V30 5566 H 552.013 2.26075 6.07284 0
M  V30 5567 N 545.419 -1.53889 0.339982 0
M  V30 5568 C 546.665 -2.01152 -0.258003 0
M  V30 5569 C 546.998 -1.22749 -1.50487 0
M  V30 5570 O 546.273 -0.314156 -1.91946 0
M  V30 5571 C 546.556 -3.55468 -0.575717 0
M  V30 5572 C 546.409 -4.44584 0.682996 0
M  V30 5573 C 547.728 -4.1768 -1.38677 0
M  V30 5574 H 544.847 -0.731198 -0.0922992 0
M  V30 5575 H 547.489 -1.84352 0.459814 0
M  V30 5576 H 545.639 -3.69914 -1.18725 0
M  V30 5577 H 547.311 -4.41981 1.32102 0
M  V30 5578 H 545.554 -4.13592 1.3086 0
M  V30 5579 H 546.225 -5.5043 0.416001 0
M  V30 5580 H 548.701 -4.0691 -0.869705 0
M  V30 5581 H 547.577 -5.25734 -1.57783 0
M  V30 5582 H 547.838 -3.72069 -2.38782 0
M  V30 5583 N 546.897 -0.0685191 -1.57451 0
M  V30 5584 C 547.844 0.899861 -2.12535 0
M  V30 5585 C 548.814 1.29749 -1.03703 0
M  V30 5586 O 549.999 1.38392 -1.31348 0
M  V30 5587 C 547.139 2.16328 -2.6888 0
M  V30 5588 C 546.252 1.81857 -3.91857 0
M  V30 5589 C 545.387 3.02786 -4.36457 0
M  V30 5590 C 544.426 2.64317 -5.5209 0
M  V30 5591 N 543.563 3.77994 -5.91663 0
M  V30 5592 H 548.403 0.423243 -2.94979 0
M  V30 5593 H 545.94 0.197268 -1.45771 0
M  V30 5594 H 547.898 2.90281 -2.99655 0
M  V30 5595 H 546.528 2.61536 -1.89206 0
M  V30 5596 H 545.58 0.979808 -3.67565 0
M  V30 5597 H 546.892 1.49553 -4.75852 0
M  V30 5598 H 546.046 3.85021 -4.68875 0
M  V30 5599 H 544.785 3.38281 -3.51308 0
M  V30 5600 H 543.79 1.80503 -5.19325 0
M  V30 5601 H 545.015 2.29995 -6.38967 0
M  V30 5602 H 542.961 4.13258 -5.09464 0
M  V30 5603 H 542.878 3.49447 -6.7039 0
M  V30 5604 H 544.146 4.60818 -6.28703 0
M  V30 5605 N 548.375 1.56261 0.205012 0
M  V30 5606 C 549.338 1.92908 1.23771 0
M  V30 5607 C 550.338 0.809208 1.38955 0
M  V30 5608 O 551.528 1.07676 1.36936 0
M  V30 5609 C 548.66 2.19442 2.60879 0
M  V30 5610 H 549.853 2.85287 0.924728 0
M  V30 5611 H 547.406 1.49798 0.446125 0
M  V30 5612 H 548.141 1.29668 2.97248 0
M  V30 5613 H 547.926 3.0104 2.51232 0
M  V30 5614 H 549.416 2.48833 3.35368 0
M  V30 5615 N 549.853 -0.472356 1.50355 0
M  V30 5616 C 550.816 -1.5529 1.68576 0
M  V30 5617 C 551.816 -1.50863 0.556511 0
M  V30 5618 O 553.006 -1.53505 0.823516 0
M  V30 5619 C 550.138 -2.94921 1.70981 0
M  V30 5620 H 551.331 -1.40451 2.64978 0
M  V30 5621 H 548.884 -0.698645 1.39816 0
M  V30 5622 H 549.619 -3.15204 0.762675 0
M  V30 5623 H 549.404 -2.99541 2.53017 0
M  V30 5624 H 550.894 -3.73372 1.87037 0
M  V30 5625 N 551.331 -1.39911 -0.725443 0
M  V30 5626 C 552.281 -1.35878 -1.83088 0
M  V30 5627 C 553.265 -0.237989 -1.5913 0
M  V30 5628 O 554.457 -0.476302 -1.70471 0
M  V30 5629 C 551.586 -1.21403 -3.21117 0
M  V30 5630 C 550.672 -2.38223 -3.50871 0
M  V30 5631 N 551.063 -3.63703 -3.51502 0
M  V30 5632 C 549.361 -2.31388 -3.81281 0
M  V30 5633 C 550.062 -4.4101 -3.79322 0
M  V30 5634 N 549.038 -3.7072 -3.97577 0
M  V30 5635 H 552.84 -2.3085 -1.81895 0
M  V30 5636 H 550.354 -1.33543 -0.924125 0
M  V30 5637 H 552.351 -1.16597 -4.00263 0
M  V30 5638 H 551.011 -0.273902 -3.23543 0
M  V30 5639 H 552.022 -3.96998 -3.32586 0
M  V30 5640 H 548.699 -1.45689 -3.91256 0
M  V30 5641 H 550.089 -5.49819 -3.86198 0
M  V30 5642 N 552.809 0.956637 -1.25245 0
M  V30 5643 C 553.772 2.03457 -1.05537 0
M  V30 5644 C 554.772 1.60798 -0.00886317 0
M  V30 5645 O 555.962 1.72384 -0.250865 0
M  V30 5646 C 553.094 3.35543 -0.601965 0
M  V30 5647 H 554.287 2.22372 -2.01223 0
M  V30 5648 H 551.84 1.13344 -1.07623 0
M  V30 5649 H 552.575 3.22323 0.357584 0
M  V30 5650 H 552.36 3.67854 -1.35743 0
M  V30 5651 H 553.85 4.14769 -0.485454 0
M  V30 5652 N 554.287 1.06798 1.15896 0
M  V30 5653 C 555.536 0.782796 1.8589 0
M  V30 5654 C 555.849 -0.693498 1.82893 0
M  V30 5655 O 557.055 -1.09325 2.48516 0
M  V30 5656 C 555.511 1.3502 3.33613 0
M  V30 5657 C 555.119 2.8571 3.45071 0
M  V30 5658 C 556.863 1.14278 4.08829 0
M  V30 5659 C 554.77 3.35669 4.86909 0
M  V30 5660 H 553.7 0.289149 0.696354 0
M  V30 5661 H 556.351 1.28734 1.30766 0
M  V30 5662 H 554.733 0.773407 3.88374 0
M  V30 5663 H 555.907 3.49385 3.00445 0
M  V30 5664 H 554.222 3.05178 2.83294 0
M  V30 5665 H 556.819 1.49087 5.13495 0
M  V30 5666 H 557.162 0.0814575 4.1622 0
M  V30 5667 H 557.695 1.68563 3.60321 0
M  V30 5668 H 554.434 4.41302 4.84698 0
M  V30 5669 H 553.954 2.76745 5.32139 0
M  V30 5670 H 555.633 3.31296 5.55745 0
M  V30 5671 N 555.766 -1.3263 0.851289 0
M  V30 5672 C 556.696 -2.31449 0.308771 0
M  V30 5673 C 557.677 -1.59531 -0.590255 0
M  V30 5674 O 558.862 -1.87351 -0.511205 0
M  V30 5675 C 555.992 -3.43586 -0.506548 0
M  V30 5676 C 554.946 -4.26963 0.297753 0
M  V30 5677 C 554.272 -5.30831 -0.642094 0
M  V30 5678 C 555.572 -4.99643 1.52166 0
M  V30 5679 H 557.266 -2.77074 1.13447 0
M  V30 5680 H 554.812 -1.33207 0.546971 0
M  V30 5681 H 556.765 -4.11754 -0.896474 0
M  V30 5682 H 555.489 -2.96681 -1.36558 0
M  V30 5683 H 554.148 -3.60437 0.669391 0
M  V30 5684 H 553.796 -4.8018 -1.49788 0
M  V30 5685 H 553.496 -5.87501 -0.107968 0
M  V30 5686 H 555.02 -6.01862 -1.02927 0
M  V30 5687 H 556.434 -5.6051 1.20421 0
M  V30 5688 H 554.831 -5.66022 1.99347 0
M  V30 5689 H 555.901 -4.27701 2.28474 0
M  V30 5690 N 557.244 -0.608902 -1.45362 0
M  V30 5691 C 558.469 -0.10921 -2.07112 0
M  V30 5692 C 558.894 1.19779 -1.45033 0
M  V30 5693 O 558.252 1.72961 -0.543527 0
M  V30 5694 C 558.3 0.0155745 -3.60597 0
M  V30 5695 O 557.404 1.06546 -3.98399 0
M  V30 5696 H 556.745 -0.0746619 -0.659789 0
M  V30 5697 H 559.275 -0.839283 -1.86594 0
M  V30 5698 H 559.285 0.213364 -4.07442 0
M  V30 5699 H 557.96 -0.938765 -4.05167 0
M  V30 5700 H 556.537 0.844024 -3.63223 0
M  V30 5701 N 558.722 1.53707 -0.348139 0
M  V30 5702 C 559.654 2.22725 0.540946 0
M  V30 5703 C 560.667 1.2354 1.06027 0
M  V30 5704 O 561.856 1.49867 0.96964 0
M  V30 5705 C 558.956 2.89756 1.75768 0
M  V30 5706 C 558.129 4.15297 1.37285 0
M  V30 5707 C 557.188 4.65697 2.44976 0
M  V30 5708 O 556.214 5.29798 2.08092 0
M  V30 5709 N 557.416 4.42017 3.763 0
M  V30 5710 H 560.181 2.99658 -0.0501592 0
M  V30 5711 H 557.742 1.60979 -0.17248 0
M  V30 5712 H 559.734 3.20388 2.47252 0
M  V30 5713 H 558.304 2.16382 2.25605 0
M  V30 5714 H 557.524 3.9116 0.488584 0
M  V30 5715 H 558.812 4.96948 1.09179 0
M  V30 5716 H 558.21 3.9076 4.09051 0
M  V30 5717 H 556.767 4.77242 4.4394 0
M  V30 5718 N 560.2 0.0768682 1.57412 0
M  V30 5719 C 561.13 -0.886026 2.16037 0
M  V30 5720 C 562.111 -1.30691 1.08876 0
M  V30 5721 O 563.296 -1.37705 1.36934 0
M  V30 5722 C 560.426 -2.1518 2.72608 0
M  V30 5723 C 559.38 -1.87015 3.8498 0
M  V30 5724 C 558.706 -3.20266 4.28175 0
M  V30 5725 C 560.006 -1.17143 5.08994 0
M  V30 5726 H 561.7 -0.397642 2.96748 0
M  V30 5727 H 559.246 -0.189823 1.42743 0
M  V30 5728 H 561.199 -2.82962 3.12266 0
M  V30 5729 H 559.923 -2.66269 1.89125 0
M  V30 5730 H 558.582 -1.21636 3.45833 0
M  V30 5731 H 558.23 -3.69207 3.41607 0
M  V30 5732 H 557.93 -3.0221 5.03927 0
M  V30 5733 H 559.454 -3.89237 4.70454 0
M  V30 5734 H 560.868 -1.75003 5.45937 0
M  V30 5735 H 559.265 -1.09328 5.90057 0
M  V30 5736 H 560.335 -0.151295 4.84664 0
M  V30 5737 N 561.678 -1.56367 -0.196722 0
M  V30 5738 C 562.641 -1.93561 -1.22746 0
M  V30 5739 C 563.641 -0.816566 -1.38524 0
M  V30 5740 O 564.831 -1.084 -1.36363 0
M  V30 5741 C 561.963 -2.20823 -2.59712 0
M  V30 5742 H 563.156 -2.85774 -0.909586 0
M  V30 5743 H 560.709 -1.50032 -0.438174 0
M  V30 5744 H 561.444 -1.31243 -2.96557 0
M  V30 5745 H 561.229 -3.02368 -2.49632 0
M  V30 5746 H 562.719 -2.50608 -3.34044 0
M  V30 5747 N 563.156 0.464375 -1.50603 0
M  V30 5748 C 564.066 1.58723 -1.72754 0
M  V30 5749 C 565.082 1.62925 -0.610844 0
M  V30 5750 O 566.258 1.8067 -0.889963 0
M  V30 5751 C 563.323 2.94897 -1.82309 0
M  V30 5752 C 562.384 3.0103 -3.06071 0
M  V30 5753 C 561.617 4.30708 -3.1516 0
M  V30 5754 O 561.84 5.2159 -2.30868 0
M  V30 5755 O 560.774 4.42571 -4.0794 0
M  V30 5756 H 564.6 1.42954 -2.67951 0
M  V30 5757 H 562.185 0.644579 -1.3478 0
M  V30 5758 H 564.067 3.75764 -1.90735 0
M  V30 5759 H 562.742 3.10851 -0.902967 0
M  V30 5760 H 561.649 2.19217 -3.03142 0
M  V30 5761 H 562.982 2.90014 -3.97684 0
M  V30 5762 O 564.673 1.49538 0.609965 0
M  V30 5763 H 565.364 1.46731 1.26451 0
M  V30 END ATOM
M  V30 BEGIN BOND
M  V30 END BOND
M  V30 END CTAB
M  END
$$$$
