drugbank_target|Q53ZE5 Dihydroorotate dehydrogenase A (fumarate) (DB02262; DB03247)
 OpenBabel12092120033D

  0  0  0     0  0            999 V3000
M  V30 BEGIN CTAB
M  V30 COUNTS 4816 4868 0 0 0
M  V30 BEGIN ATOM
M  V30 1 H -0.908 1.98254 -0.117106 0
M  V30 2 N 0 1.576 0 0
M  V30 3 C 0.933 2.03868 1.02534 0
M  V30 4 C 1.911 0.928543 1.3348 0
M  V30 5 O 3.095 1.19667 1.45644 0
M  V30 6 C 0.222 2.43627 2.35294 0
M  V30 7 C -0.732 3.65373 2.2001 0
M  V30 8 S 0.101 5.13292 1.52614 0
M  V30 9 C 1.257 5.56322 2.86805 0
M  V30 10 H 1.49 2.90518 0.631377 0
M  V30 11 H -0.977 1.52953 0.210867 0
M  V30 12 H 0.981 2.67203 3.11629 0
M  V30 13 H -0.358 1.57376 2.7183 0
M  V30 14 H -1.165 3.90944 3.18086 0
M  V30 15 H -1.563 3.418 1.51819 0
M  V30 16 H 0.729 5.58782 3.83104 0
M  V30 17 H 1.672 6.56266 2.65933 0
M  V30 18 H 2.08 4.83886 2.90714 0
M  V30 19 N 1.4781 -0.272755 1.55222 0
M  V30 20 C 2.4081 -1.34136 1.91127 0
M  V30 21 C 3.3891 -1.51513 0.773168 0
M  V30 22 O 4.5741 -1.64552 1.03132 0
M  V30 23 C 1.7041 -2.70083 2.1834 0
M  V30 24 C 0.6581 -2.67437 3.34158 0
M  V30 25 C -0.0159 -4.06938 3.46851 0
M  V30 26 C 1.2841 -2.26686 4.70543 0
M  V30 27 H 2.9781 -1.04333 2.80633 0
M  V30 28 H 0.5241 -0.500454 1.35024 0
M  V30 29 H 2.4771 -3.44952 2.42046 0
M  V30 30 H 1.2011 -3.01469 1.25634 0
M  V30 31 H -0.1399 -1.95026 3.1042 0
M  V30 32 H -0.4919 -4.35547 2.51611 0
M  V30 33 H -0.7919 -4.06062 4.2472 0
M  V30 34 H 0.7321 -4.83545 3.72849 0
M  V30 35 H 2.1461 -2.91277 4.93792 0
M  V30 36 H 0.5431 -2.36971 5.5133 0
M  V30 37 H 1.6131 -1.21818 4.69349 0
M  V30 38 N 2.9562 -1.48159 -0.537278 0
M  V30 39 C 3.9042 -1.62573 -1.66352 0
M  V30 40 C 4.8982 -0.492366 -1.62087 0
M  V30 41 O 6.1042 -0.670847 -1.67032 0
M  V30 42 H 2.4792 -0.511992 -0.550789 0
M  V30 43 H 4.4502 -2.57176 -1.51337 0
M  V30 44 C 3.1992 -1.67583 -3.04649 0
M  V30 45 H 2.5222 -2.54151 -3.08622 0
M  V30 46 H 3.9622 -1.81713 -3.83088 0
M  V30 47 C 2.4212 -0.413039 -3.34358 0
M  V30 48 O 2.9512 0.477259 -3.98855 0
M  V30 49 N 1.1572 -0.286961 -2.8918 0
M  V30 50 H 0.7042 -1.01241 -2.36871 0
M  V30 51 H 0.6622 0.556963 -3.09427 0
M  V30 52 N 4.4343 0.785586 -1.36625 0
M  V30 53 C 5.6623 1.57448 -1.3423 0
M  V30 54 C 6.0773 1.88649 0.0755653 0
M  V30 55 O 5.4343 1.50414 1.03354 0
M  V30 56 C 5.4853 2.89316 -2.16745 0
M  V30 57 O 5.2063 2.59459 -3.53005 0
M  V30 58 C 6.7073 3.83606 -2.22174 0
M  V30 59 H 3.9273 0.488226 -0.4603 0
M  V30 60 H 6.4713 0.974733 -1.79775 0
M  V30 61 H 4.6263 3.4575 -1.74745 0
M  V30 62 H 5.0403 3.43804 -3.96105 0
M  V30 63 H 6.5143 4.73181 -2.8426 0
M  V30 64 H 6.9913 4.21734 -1.22627 0
M  V30 65 H 7.5973 3.33104 -2.64427 0
M  V30 66 N 5.9124 1.20967 1.01018 0
M  V30 67 C 7.1404 1.04956 1.78303 0
M  V30 68 C 7.5554 -0.400915 1.84494 0
M  V30 69 O 6.9124 -1.27826 1.30257 0
M  V30 70 C 6.9634 1.63403 3.22462 0
M  V30 71 O 6.6844 3.02775 3.16637 0
M  V30 72 C 8.1854 1.52432 4.16268 0
M  V30 73 H 5.4054 0.368858 0.560522 0
M  V30 74 H 7.9494 1.60193 1.27116 0
M  V30 75 H 6.1044 1.1227 3.70775 0
M  V30 76 H 6.5184 3.30626 4.07169 0
M  V30 77 H 7.9924 1.98078 5.15237 0
M  V30 78 H 8.4694 0.477875 4.36592 0
M  V30 79 H 9.0754 2.02787 3.73841 0
M  V30 80 N 7.3905 -1.2043 1.01659 0
M  V30 81 C 8.6375 -1.89797 0.705917 0
M  V30 82 C 8.9655 -1.78848 -0.764439 0
M  V30 83 O 8.2205 -1.16694 -1.57102 0
M  V30 84 C 8.5195 -3.40464 1.08714 0
M  V30 85 C 8.1855 -3.71614 2.5537 0
M  V30 86 C 6.8475 -3.79826 2.95441 0
M  V30 87 C 9.1995 -3.85915 3.50313 0
M  V30 88 C 6.5275 -3.99797 4.29394 0
M  V30 89 C 8.8795 -4.07396 4.83954 0
M  V30 90 C 7.5435 -4.13837 5.23732 0
M  V30 91 H 6.8135 -0.694518 0.258313 0
M  V30 92 H 9.4605 -1.42691 1.27717 0
M  V30 93 H 7.7655 -3.89385 0.434309 0
M  V30 94 H 9.4625 -3.92433 0.824461 0
M  V30 95 H 6.0525 -3.65822 2.23321 0
M  V30 96 H 10.2365 -3.78926 3.20513 0
M  V30 97 H 5.4925 -4.03018 4.59768 0
M  V30 98 H 9.6665 -4.17404 5.57447 0
M  V30 99 H 7.2935 -4.29064 6.27541 0
M  V30 100 N 8.8686 -0.792821 -1.36206 0
M  V30 101 C 9.8316 -0.199459 -2.2833 0
M  V30 102 C 10.8316 0.605189 -1.48977 0
M  V30 103 O 12.0216 0.425685 -1.68919 0
M  V30 104 C 9.1536 0.723523 -3.33134 0
M  V30 105 H 10.3466 -1.01181 -2.82316 0
M  V30 106 H 7.8996 -0.562485 -1.45828 0
M  V30 107 H 8.6346 1.56008 -2.84309 0
M  V30 108 H 8.4196 0.148436 -3.91819 0
M  V30 109 H 9.9096 1.13344 -4.01924 0
M  V30 110 N 10.3467 1.47872 -0.545128 0
M  V30 111 C 11.2947 2.31533 0.222512 0
M  V30 112 C 12.2887 1.42177 0.920985 0
M  V30 113 O 13.4947 1.59005 0.843645 0
M  V30 114 H 9.8697 0.746519 0.0906278 0
M  V30 115 H 11.8407 2.94139 -0.50246 0
M  V30 116 C 10.5897 3.2457 1.24699 0
M  V30 117 H 9.9127 3.93283 0.718944 0
M  V30 118 H 11.3527 3.85963 1.75523 0
M  V30 119 C 9.8117 2.47237 2.28856 0
M  V30 120 O 10.3417 2.20808 3.35569 0
M  V30 121 N 8.5477 2.08461 2.02466 0
M  V30 122 H 8.0947 2.30155 1.157 0
M  V30 123 H 8.0527 1.57033 2.72375 0
M  V30 124 N 11.8248 0.280983 1.55075 0
M  V30 125 C 12.7878 -0.590896 2.21452 0
M  V30 126 C 13.7878 -1.07682 1.19421 0
M  V30 127 O 14.9778 -0.97605 1.44288 0
M  V30 128 C 12.1098 -1.81587 2.88511 0
M  V30 129 H 13.3028 -0.0112554 2.99898 0
M  V30 130 H 10.8558 0.0316438 1.56268 0
M  V30 131 H 11.5908 -2.43587 2.14093 0
M  V30 132 H 11.3758 -1.4753 3.63287 0
M  V30 133 H 12.8658 -2.43575 3.39206 0
M  V30 134 N 13.3029 -1.57598 0.00835791 0
M  V30 135 C 14.2499 -2.08945 -0.980346 0
M  V30 136 C 15.2199 -0.986738 -1.33614 0
M  V30 137 O 16.4049 -1.25968 -1.43306 0
M  V30 138 C 13.5449 -2.60425 -2.26435 0
M  V30 139 C 12.6579 -3.84628 -1.96685 0
M  V30 140 C 11.7929 -4.24579 -3.19228 0
M  V30 141 C 10.8319 -5.41596 -2.85202 0
M  V30 142 N 9.9689 -5.768 -4.00307 0
M  V30 143 H 14.8089 -2.93148 -0.535551 0
M  V30 144 H 12.3459 -1.44912 -0.252776 0
M  V30 145 H 14.3039 -2.88354 -3.01509 0
M  V30 146 H 12.9339 -1.79083 -2.68568 0
M  V30 147 H 11.9859 -3.63556 -1.11942 0
M  V30 148 H 13.2979 -4.69796 -1.67611 0
M  V30 149 H 12.4519 -4.53834 -4.02641 0
M  V30 150 H 11.1909 -3.38137 -3.51447 0
M  V30 151 H 10.1959 -5.12056 -2.00198 0
M  V30 152 H 11.4209 -6.29721 -2.54222 0
M  V30 153 H 9.3669 -4.93316 -4.32407 0
M  V30 154 H 9.2839 -6.5656 -3.74786 0
M  V30 155 H 10.5519 -6.10652 -4.84484 0
M  V30 156 N 14.781 0.264519 -1.55364 0
M  V30 157 C 16.028 0.994986 -1.7637 0
M  V30 158 C 16.356 1.85976 -0.5695 0
M  V30 159 O 15.611 1.90509 0.44776 0
M  V30 160 C 15.91 1.9004 -3.02687 0
M  V30 161 C 15.576 1.19243 -4.34847 0
M  V30 162 C 14.238 0.996709 -4.70764 0
M  V30 163 C 16.59 0.689296 -5.16622 0
M  V30 164 C 13.918 0.285261 -5.86006 0
M  V30 165 C 16.27 -0.00860079 -6.32599 0
M  V30 166 C 14.934 -0.215963 -6.67151 0
M  V30 167 H 14.204 0.364091 -0.645383 0
M  V30 168 H 16.851 0.266543 -1.89636 0
M  V30 169 H 15.156 2.69533 -2.84357 0
M  V30 170 H 16.853 2.46695 -3.16137 0
M  V30 171 H 13.443 1.3549 -4.06621 0
M  V30 172 H 17.627 0.828108 -4.89342 0
M  V30 173 H 12.883 0.113961 -6.11294 0
M  V30 174 H 17.057 -0.406186 -6.95214 0
M  V30 175 H 14.684 -0.769217 -7.56298 0
M  V30 176 N 16.2591 1.48442 0.529413 0
M  V30 177 C 17.2221 1.62524 1.61612 0
M  V30 178 C 18.2221 0.498509 1.52877 0
M  V30 179 O 19.4121 0.76431 1.56537 0
M  V30 180 C 16.5441 1.59597 3.01233 0
M  V30 181 H 17.7371 2.59423 1.50465 0
M  V30 182 H 15.2901 1.37047 0.751514 0
M  V30 183 H 16.0251 0.641781 3.17886 0
M  V30 184 H 15.8101 2.41397 3.08982 0
M  V30 185 H 17.3001 1.72646 3.80241 0
M  V30 186 N 17.7372 -0.778329 1.37039 0
M  V30 187 C 18.6852 -1.91278 1.32345 0
M  V30 188 C 19.6792 -1.68051 0.213331 0
M  V30 189 O 20.8852 -1.75922 0.38098 0
M  V30 190 H 17.2602 -0.628909 0.412283 0
M  V30 191 H 19.2312 -1.92355 2.28127 0
M  V30 192 C 17.9802 -3.28455 1.14073 0
M  V30 193 H 17.3032 -3.46901 1.98746 0
M  V30 194 H 18.7432 -4.08152 1.14837 0
M  V30 195 C 17.2022 -3.36548 -0.154015 0
M  V30 196 O 17.7322 -3.85186 -1.13993 0
M  V30 197 N 15.9382 -2.89894 -0.202475 0
M  V30 198 H 15.4852 -2.50504 0.600476 0
M  V30 199 H 15.4432 -2.9569 -1.06841 0
M  V30 200 N 19.2153 -1.21501 -1.00376 0
M  V30 201 C 20.6263 -1.03146 -1.55621 0
M  V30 202 C 20.9773 0.408375 -1.91903 0
M  V30 203 O 20.1023 1.29177 -1.73616 0
M  V30 204 C 20.6973 -1.86612 -2.82775 0
M  V30 205 C 19.2563 -1.72586 -3.34501 0
M  V30 206 C 18.4033 -1.83747 -2.07683 0
M  V30 207 H 21.3543 -1.35505 -0.826081 0
M  V30 208 H 21.3753 -1.3771 -3.54706 0
M  V30 209 H 20.8873 -2.91399 -2.56336 0
M  V30 210 H 18.9883 -0.704877 -3.65872 0
M  V30 211 H 19.1013 -2.54623 -4.05837 0
M  V30 212 H 17.4653 -1.27069 -2.20739 0
M  V30 213 H 18.2483 -2.90044 -1.83655 0
M  V30 214 N 20.6934 1.19889 -1.02296 0
M  V30 215 C 21.9404 1.8942 -0.715972 0
M  V30 216 C 22.2684 1.79251 0.754944 0
M  V30 217 O 21.5234 1.17526 1.56481 0
M  V30 218 C 21.8224 3.39883 -1.10518 0
M  V30 219 C 21.4884 3.70254 -2.57337 0
M  V30 220 C 20.1504 3.78254 -2.97452 0
M  V30 221 C 22.5024 3.84052 -3.52354 0
M  V30 222 C 19.8304 3.97514 -4.31509 0
M  V30 223 C 22.1824 4.04824 -4.86108 0
M  V30 224 C 20.8464 4.11054 -5.25919 0
M  V30 225 H 20.1164 0.693138 -0.261993 0
M  V30 226 H 22.7634 1.42012 -1.28472 0
M  V30 227 H 21.0684 3.8915 -0.454953 0
M  V30 228 H 22.7654 3.9199 -0.845261 0
M  V30 229 H 19.3554 3.64632 -2.25258 0
M  V30 230 H 23.5394 3.77221 -3.22518 0
M  V30 231 H 18.7954 4.00574 -4.61898 0
M  V30 232 H 22.9694 4.14442 -5.59653 0
M  V30 233 H 20.5964 4.2573 -6.29808 0
M  V30 234 N 22.1715 0.800033 1.35784 0
M  V30 235 C 23.1045 0.151499 2.27697 0
M  V30 236 C 24.0825 -0.678663 1.4776 0
M  V30 237 O 25.2665 -0.647358 1.77035 0
M  V30 238 C 22.3935 -0.790492 3.29346 0
M  V30 239 C 21.4395 -0.0407832 4.26481 0
M  V30 240 S 22.2725 1.29077 5.19711 0
M  V30 241 C 23.4285 0.353055 6.24903 0
M  V30 242 H 23.6615 0.930796 2.82353 0
M  V30 243 H 21.1945 0.594767 1.42485 0
M  V30 244 H 23.1525 -1.3285 3.88409 0
M  V30 245 H 21.8135 -1.54312 2.73581 0
M  V30 246 H 21.0065 -0.755971 4.98298 0
M  V30 247 H 20.6085 0.427063 3.71554 0
M  V30 248 H 22.9005 -0.464147 6.75908 0
M  V30 249 H 23.8435 1.04023 7.00418 0
M  V30 250 H 24.2515 -0.0483344 5.64479 0
M  V30 251 N 23.6496 -1.47581 0.552962 0
M  V30 252 C 24.5976 -2.31648 -0.21023 0
M  V30 253 C 25.5916 -1.42663 -0.913432 0
M  V30 254 O 26.7976 -1.5945 -0.835201 0
M  V30 255 H 23.1726 -0.746989 -0.0866676 0
M  V30 256 H 25.1436 -2.93869 0.518051 0
M  V30 257 C 23.8926 -3.25226 -1.22976 0
M  V30 258 H 23.2156 -3.93658 -0.698077 0
M  V30 259 H 24.6556 -3.86889 -1.73473 0
M  V30 260 C 23.1146 -2.48448 -2.27542 0
M  V30 261 O 23.6446 -2.22585 -3.34393 0
M  V30 262 N 21.8506 -2.09532 -2.01357 0
M  V30 263 H 21.3976 -2.30765 -1.14478 0
M  V30 264 H 21.3556 -1.58476 -2.71538 0
M  V30 265 N 25.1277 -0.289203 -1.54924 0
M  V30 266 C 26.0907 0.579144 -2.21762 0
M  V30 267 C 27.0907 1.07047 -1.1999 0
M  V30 268 O 28.2807 0.968384 -1.44803 0
M  V30 269 C 25.4127 1.80055 -2.8947 0
M  V30 270 H 26.6057 -0.00464908 -2.999 0
M  V30 271 H 24.1587 -0.0399306 -1.56249 0
M  V30 272 H 24.8937 2.42449 -2.15381 0
M  V30 273 H 24.6787 1.45602 -3.64064 0
M  V30 274 H 26.1687 2.41773 -3.40493 0
M  V30 275 N 26.6058 1.57591 -0.0167156 0
M  V30 276 C 27.8308 1.9598 0.67872 0
M  V30 277 C 28.2558 0.892546 1.65575 0
M  V30 278 O 27.6138 -0.147772 1.80697 0
M  V30 279 C 27.6618 3.33468 1.37227 0
M  V30 280 O 26.7658 3.28954 2.48722 0
M  V30 281 H 26.1068 0.639339 0.17928 0
M  V30 282 H 28.6368 2.04463 -0.0748802 0
M  V30 283 H 28.6468 3.69417 1.7319 0
M  V30 284 H 27.3218 4.10694 0.656007 0
M  V30 285 H 25.8988 3.04705 2.14963 0
M  V30 286 N 28.0839 -0.256276 1.55502 0
M  V30 287 C 29.3319 -0.983672 1.76545 0
M  V30 288 C 29.6529 -1.86206 0.578982 0
M  V30 289 O 28.9229 -1.91656 -0.405577 0
M  V30 290 H 27.5029 -0.366191 0.651086 0
M  V30 291 H 30.1649 -0.276479 1.92929 0
M  V30 292 H 29.2609 -1.61087 2.67315 0
M  V30 293 N 29.562 -1.4872 -0.521534 0
M  V30 294 C 30.808 -1.574 -1.27879 0
M  V30 295 C 31.141 -0.250817 -1.92573 0
M  V30 296 O 30.416 0.743934 -1.79711 0
M  V30 297 C 30.699 -2.71843 -2.36164 0
M  V30 298 C 30.552 -4.13893 -1.76105 0
M  V30 299 C 31.871 -2.82008 -3.37875 0
M  V30 300 H 28.99 -0.572941 -0.463581 0
M  V30 301 H 31.632 -1.80927 -0.580119 0
M  V30 302 H 29.782 -2.51914 -2.95756 0
M  V30 303 H 31.454 -4.45284 -1.20499 0
M  V30 304 H 29.697 -4.20498 -1.06601 0
M  V30 305 H 30.368 -4.89804 -2.5455 0
M  V30 306 H 32.844 -3.00086 -2.88249 0
M  V30 307 H 31.72 -3.63796 -4.11028 0
M  V30 308 H 31.981 -1.90511 -3.98946 0
M  V30 309 N 31.0401 0.771051 -1.3745 0
M  V30 310 C 31.9901 1.87456 -1.29785 0
M  V30 311 C 32.9741 1.59827 -0.185541 0
M  V30 312 O 34.1661 1.71945 -0.419997 0
M  V30 313 C 31.2951 3.24935 -1.1078 0
M  V30 314 C 30.3811 3.58514 -2.26558 0
M  V30 315 N 30.7721 3.6327 -3.5195 0
M  V30 316 C 29.0701 3.88683 -2.18727 0
M  V30 317 C 29.7711 3.93616 -4.283 0
M  V30 318 N 28.7471 4.09551 -3.57448 0
M  V30 319 H 32.5491 1.89386 -2.24745 0
M  V30 320 H 30.0631 0.967531 -1.30432 0
M  V30 321 H 32.0601 4.03881 -1.03374 0
M  V30 322 H 30.7201 3.24268 -0.16738 0
M  V30 323 H 31.7311 3.45458 -3.85848 0
M  V30 324 H 28.4081 3.95834 -1.32746 0
M  V30 325 H 29.7981 4.04066 -5.36824 0
M  V30 326 N 32.5182 1.22032 0.997298 0
M  V30 327 C 33.7582 1.05375 1.75144 0
M  V30 328 C 34.1222 -0.404696 1.87686 0
M  V30 329 O 35.3232 -0.691998 2.5974 0
M  V30 330 C 33.5942 1.74046 3.12158 0
M  V30 331 S 35.1532 1.72745 4.03366 0
M  V30 332 H 31.9712 0.377449 0.602539 0
M  V30 333 H 34.5732 1.54902 1.19272 0
M  V30 334 H 33.2772 2.79332 3.00669 0
M  V30 335 H 32.8082 1.24731 3.73103 0
M  V30 336 H 34.8232 0.774015 4.90126 0
M  V30 337 N 33.9963 -1.19345 1.0293 0
M  V30 338 C 34.9293 -2.21347 0.555029 0
M  V30 339 C 35.9073 -1.57492 -0.404351 0
M  V30 340 O 37.0913 -1.85741 -0.321352 0
M  V30 341 C 34.2183 -3.38163 -0.19064 0
M  V30 342 C 33.2643 -4.20375 0.720236 0
M  V30 343 S 34.0973 -4.88371 2.19668 0
M  V30 344 C 35.2533 -6.08597 1.46153 0
M  V30 345 H 35.4863 -2.61235 1.41929 0
M  V30 346 H 33.0193 -1.29598 0.839272 0
M  V30 347 H 34.9773 -4.05871 -0.614724 0
M  V30 348 H 33.6383 -2.9671 -1.03063 0
M  V30 349 H 32.8313 -5.03793 0.14455 0
M  V30 350 H 32.4333 -3.57987 1.08266 0
M  V30 351 H 34.7253 -6.73354 0.748357 0
M  V30 352 H 35.6683 -6.7065 2.27233 0
M  V30 353 H 36.0763 -5.56297 0.958842 0
M  V30 354 N 35.4744 -0.807222 -1.35358 0
M  V30 355 C 36.7024 -0.400377 -2.02989 0
M  V30 356 C 37.1174 0.988859 -1.60832 0
M  V30 357 O 36.4744 1.63729 -0.806175 0
M  V30 358 C 36.5254 -0.474867 -3.58368 0
M  V30 359 O 36.2464 -1.80933 -3.98992 0
M  V30 360 C 37.7474 -0.0609112 -4.43258 0
M  V30 361 H 34.9674 -0.162587 -0.651004 0
M  V30 362 H 37.5114 -1.09102 -1.72965 0
M  V30 363 H 35.6664 0.167534 -3.87038 0
M  V30 364 H 36.0804 -1.77256 -4.9364 0
M  V30 365 H 37.5544 -0.164145 -5.51756 0
M  V30 366 H 38.0314 0.993831 -4.27808 0
M  V30 367 H 38.6374 -0.676492 -4.19885 0
M  V30 368 N 36.9525 1.47285 -0.560781 0
M  V30 369 C 38.2015 2.01668 -0.035895 0
M  V30 370 C 38.5145 1.44021 1.32353 0
M  V30 371 O 39.7205 1.90088 1.93853 0
M  V30 372 C 38.1765 3.59897 -0.0136659 0
M  V30 373 C 37.7845 4.26536 -1.37006 0
M  V30 374 C 39.5285 4.22017 0.458425 0
M  V30 375 C 37.4355 5.76782 -1.30675 0
M  V30 376 H 36.3655 0.753938 -0.00964879 0
M  V30 377 H 39.0165 1.69243 -0.709166 0
M  V30 378 H 37.3985 3.89301 0.725325 0
M  V30 379 H 38.5725 4.0877 -2.12705 0
M  V30 380 H 36.8875 3.76419 -1.78038 0
M  V30 381 H 39.4845 5.32124 0.524247 0
M  V30 382 H 39.8275 3.89437 1.4712 0
M  V30 383 H 40.3605 3.97159 -0.225818 0
M  V30 384 H 37.0995 6.13988 -2.29564 0
M  V30 385 H 36.6195 5.96875 -0.591622 0
M  V30 386 H 38.2985 6.39063 -1.01033 0
M  V30 387 N 38.4306 0.297415 1.54768 0
M  V30 388 C 39.3406 -0.58983 2.27064 0
M  V30 389 C 40.3566 -1.15144 1.30453 0
M  V30 390 O 41.5326 -1.17699 1.63428 0
M  V30 391 C 38.5976 -1.74714 2.9946 0
M  V30 392 C 37.6586 -1.21997 4.11601 0
M  V30 393 C 36.8916 -2.32212 4.80535 0
M  V30 394 O 37.1146 -3.52036 4.48806 0
M  V30 395 O 36.0486 -1.99106 5.68014 0
M  V30 396 H 39.8746 -0.00348199 3.037 0
M  V30 397 H 37.4596 0.0640035 1.49263 0
M  V30 398 H 39.3416 -2.42147 3.44881 0
M  V30 399 H 38.0166 -2.32016 2.25722 0
M  V30 400 H 36.9236 -0.511458 3.70587 0
M  V30 401 H 38.2566 -0.692419 4.87305 0
M  V30 402 N 39.9087 -1.5758 0.0250728 0
M  V30 403 C 41.1857 -1.82917 -0.692873 0
M  V30 404 C 41.5657 -0.908137 -1.90568 0
M  V30 405 O 40.9137 0.0372298 -2.2847 0
M  V30 406 C 41.1237 -3.32034 -1.07492 0
M  V30 407 C 42.4717 -3.98406 -1.46826 0
M  V30 408 O 43.4957 -3.36505 -1.16801 0
M  V30 409 O 42.3547 -5.07497 -2.02754 0
M  V30 410 H 39.4487 -0.754079 -0.33955 0
M  V30 411 H 41.9947 -1.69619 0.0524456 0
M  V30 412 H 40.7667 -3.90728 -0.211552 0
M  V30 413 H 40.3897 -3.50424 -1.87854 0
M  V30 414 N 41.3868 0.248026 -1.55636 0
M  V30 415 C 42.3168 1.31079 -1.93237 0
M  V30 416 C 43.2978 1.50264 -0.797174 0
M  V30 417 O 44.4828 1.62891 -1.05737 0
M  V30 418 C 41.6128 2.66575 -2.22609 0
M  V30 419 C 40.5668 2.62087 -3.3837 0
M  V30 420 C 39.8928 4.01369 -3.53281 0
M  V30 421 C 41.1928 2.19171 -4.7409 0
M  V30 422 H 42.8868 0.998556 -2.82257 0
M  V30 423 H 40.4328 0.47891 -1.35803 0
M  V30 424 H 42.3858 3.41057 -2.47503 0
M  V30 425 H 41.1098 2.99432 -1.30414 0
M  V30 426 H 39.7688 1.90063 -3.13483 0
M  V30 427 H 39.4168 4.31489 -2.58508 0
M  V30 428 H 39.1168 3.99254 -4.31127 0
M  V30 429 H 40.6408 4.77552 -3.80495 0
M  V30 430 H 42.0548 2.83384 -4.98363 0
M  V30 431 H 40.4518 2.2817 -5.5503 0
M  V30 432 H 41.5218 1.14336 -4.71227 0
M  V30 433 N 42.8649 1.48995 0.513639 0
M  V30 434 C 43.7749 1.67443 1.64317 0
M  V30 435 C 44.7909 0.556947 1.64846 0
M  V30 436 O 45.9669 0.830082 1.83498 0
M  V30 437 C 43.0319 1.72515 3.00732 0
M  V30 438 C 42.0929 2.96009 3.1093 0
M  V30 439 C 41.3259 3.00829 4.40837 0
M  V30 440 O 41.5489 2.13594 5.28898 0
M  V30 441 O 40.4829 3.93168 4.55744 0
M  V30 442 H 44.3089 2.63106 1.51687 0
M  V30 443 H 41.8939 1.32588 0.688543 0
M  V30 444 H 43.7759 1.78277 3.81831 0
M  V30 445 H 42.4509 0.800278 3.13651 0
M  V30 446 H 41.3579 2.9577 2.29065 0
M  V30 447 H 42.6909 3.87934 3.02933 0
M  V30 448 N 44.343 -0.763751 1.37857 0
M  V30 449 C 45.253 -1.90817 1.36478 0
M  V30 450 C 46.269 -1.71997 0.263248 0
M  V30 451 O 47.445 -1.95095 0.499979 0
M  V30 452 C 44.51 -3.2605 1.17864 0
M  V30 453 C 43.571 -3.57467 2.3773 0
M  V30 454 C 42.804 -4.86249 2.19995 0
M  V30 455 O 43.027 -5.57884 1.18836 0
M  V30 456 O 41.961 -5.16911 3.08361 0
M  V30 457 H 45.787 -1.94933 2.32884 0
M  V30 458 H 43.372 -0.907619 1.1867 0
M  V30 459 H 45.254 -4.06924 1.09504 0
M  V30 460 H 43.929 -3.22769 0.245372 0
M  V30 461 H 42.836 -2.76796 2.51664 0
M  V30 462 H 44.169 -3.655 3.29652 0
M  V30 463 N 45.8211 -1.22559 -0.990812 0
M  V30 464 C 46.7511 -1.0218 -2.09956 0
M  V30 465 C 47.7321 0.0579394 -1.70001 0
M  V30 466 O 48.9171 -0.104684 -1.93918 0
M  V30 467 C 46.0471 -0.601023 -3.4206 0
M  V30 468 C 45.0011 -1.62694 -3.95872 0
M  V30 469 C 44.3271 -1.06193 -5.24049 0
M  V30 470 C 45.6271 -3.01743 -4.2632 0
M  V30 471 H 47.3211 -1.94916 -2.27262 0
M  V30 472 H 44.8671 -0.938566 -1.09211 0
M  V30 473 H 46.8201 -0.445561 -4.19038 0
M  V30 474 H 45.5441 0.362005 -3.24588 0
M  V30 475 H 44.2031 -1.77021 -3.21028 0
M  V30 476 H 43.8511 -0.0901903 -5.02919 0
M  V30 477 H 43.5511 -1.74732 -5.61019 0
M  V30 478 H 45.0751 -0.918092 -6.03658 0
M  V30 479 H 46.4891 -2.90777 -4.94087 0
M  V30 480 H 44.8861 -3.67425 -4.74467 0
M  V30 481 H 45.9561 -3.51518 -3.34011 0
M  V30 482 N 47.2992 1.18797 -1.03562 0
M  V30 483 C 48.2462 2.22253 -0.622259 0
M  V30 484 C 49.2162 1.61987 0.36736 0
M  V30 485 O 50.4012 1.88986 0.262492 0
M  V30 486 C 47.5412 3.45097 0.0138462 0
M  V30 487 C 46.6542 4.19722 -1.02263 0
M  V30 488 C 45.7892 5.30009 -0.355573 0
M  V30 489 C 44.8282 5.96399 -1.37749 0
M  V30 490 N 43.9652 6.98234 -0.735766 0
M  V30 491 H 48.8052 2.56968 -1.50903 0
M  V30 492 H 46.3422 1.26245 -0.755017 0
M  V30 493 H 48.3002 4.15279 0.399948 0
M  V30 494 H 46.9302 3.11018 0.864158 0
M  V30 495 H 45.9822 3.48418 -1.52673 0
M  V30 496 H 47.2942 4.65227 -1.79903 0
M  V30 497 H 46.4482 6.0664 0.0850095 0
M  V30 498 H 45.1872 4.85592 0.452967 0
M  V30 499 H 44.1922 5.18512 -1.82826 0
M  V30 500 H 45.4172 6.42899 -2.18764 0
M  V30 501 H 43.3632 6.55979 0.0525597 0
M  V30 502 H 43.2802 7.41965 -1.44995 0
M  V30 503 H 44.5482 7.78845 -0.31941 0
M  V30 504 N 48.7773 0.814389 1.34928 0
M  V30 505 C 49.7403 0.235759 2.27984 0
M  V30 506 C 50.7403 -0.581412 1.49921 0
M  V30 507 O 51.9303 -0.398758 1.69575 0
M  V30 508 C 49.0623 -0.670433 3.34242 0
M  V30 509 H 50.2553 1.05659 2.80671 0
M  V30 510 H 47.8083 0.585614 1.44915 0
M  V30 511 H 48.5433 -1.51466 2.86755 0
M  V30 512 H 48.3283 -0.0860822 3.92005 0
M  V30 513 H 49.8183 -1.06935 4.03676 0
M  V30 514 N 50.2554 -1.46986 0.568584 0
M  V30 515 C 51.4804 -2.07335 0.0520528 0
M  V30 516 C 51.9054 -1.41675 -1.23733 0
M  V30 517 O 51.2634 -0.495623 -1.74394 0
M  V30 518 C 51.3114 -3.60417 -0.11501 0
M  V30 519 O 50.4154 -3.95309 -1.17492 0
M  V30 520 H 49.7564 -0.661597 0.0564385 0
M  V30 521 H 52.2864 -1.88837 0.787507 0
M  V30 522 H 52.2964 -4.06698 -0.325644 0
M  V30 523 H 50.9714 -4.07601 0.826675 0
M  V30 524 H 49.5484 -3.60757 -0.943869 0
M  V30 525 N 51.7335 -0.305618 -1.54608 0
M  V30 526 C 52.6655 0.602161 -2.21149 0
M  V30 527 C 53.6785 1.09394 -1.20569 0
M  V30 528 O 54.8675 1.0106 -1.47136 0
M  V30 529 C 51.9675 1.83692 -2.84799 0
M  V30 530 C 51.1405 1.48686 -4.11353 0
M  V30 531 C 50.1995 2.57725 -4.58764 0
M  V30 532 O 49.2255 2.22623 -5.23858 0
M  V30 533 N 50.4275 3.88346 -4.31471 0
M  V30 534 H 53.1925 0.0324966 -2.99682 0
M  V30 535 H 50.7535 -0.128021 -1.61393 0
M  V30 536 H 52.7455 2.55994 -3.13448 0
M  V30 537 H 51.3155 2.31486 -2.10078 0
M  V30 538 H 50.5355 0.596269 -3.89664 0
M  V30 539 H 51.8235 1.22842 -4.93748 0
M  V30 540 H 51.2215 4.19671 -3.79331 0
M  V30 541 H 49.7785 4.56932 -4.64818 0
M  V30 542 N 53.2116 1.57565 -0.0334293 0
M  V30 543 C 54.1746 2.09393 0.932048 0
M  V30 544 C 55.1746 1.00986 1.25134 0
M  V30 545 O 56.3646 1.27129 1.19096 0
M  V30 546 C 53.4966 2.56338 2.2473 0
M  V30 547 H 54.6896 2.95984 0.483085 0
M  V30 548 H 52.2426 1.54819 0.21468 0
M  V30 549 H 52.9776 1.7309 2.74245 0
M  V30 550 H 52.7626 3.35542 2.02865 0
M  V30 551 H 54.2526 2.96646 2.93923 0
M  V30 552 N 54.6897 -0.239769 1.55765 0
M  V30 553 C 55.9377 -0.964892 1.77579 0
M  V30 554 C 56.2587 -1.85582 0.598699 0
M  V30 555 O 55.5287 -1.92075 -0.385226 0
M  V30 556 H 54.1087 -0.359265 0.654933 0
M  V30 557 H 56.7707 -0.256001 1.93211 0
M  V30 558 H 55.8667 -1.58243 2.69009 0
M  V30 559 N 56.1678 -1.49265 -0.50573 0
M  V30 560 C 57.1308 -1.65075 -1.59006 0
M  V30 561 C 58.1308 -0.522768 -1.52065 0
M  V30 562 O 59.3208 -0.789117 -1.55302 0
M  V30 563 C 56.4528 -1.64369 -2.98656 0
M  V30 564 H 57.6458 -2.61784 -1.46319 0
M  V30 565 H 55.1988 -1.38226 -0.729616 0
M  V30 566 H 55.9338 -0.692272 -3.16825 0
M  V30 567 H 55.7188 -2.46282 -3.05103 0
M  V30 568 H 57.2088 -1.78674 -3.77446 0
M  V30 569 N 57.6459 0.756429 -1.3826 0
M  V30 570 C 58.8759 1.54341 -1.3734 0
M  V30 571 C 59.2839 1.89159 0.0393917 0
M  V30 572 O 58.6269 1.5307 1.01565 0
M  V30 573 C 58.6889 2.87238 -2.16182 0
M  V30 574 C 58.3529 2.74973 -3.65019 0
M  V30 575 C 59.3499 2.44962 -4.58574 0
M  V30 576 C 57.0349 2.92515 -4.08338 0
M  V30 577 C 59.0289 2.32642 -5.93428 0
M  V30 578 C 56.7159 2.79815 -5.43274 0
M  V30 579 C 57.7139 2.49921 -6.35632 0
M  V30 580 O 57.4019 2.37275 -7.68086 0
M  V30 581 H 57.1339 0.484281 -0.471643 0
M  V30 582 H 59.6879 0.944152 -1.82414 0
M  V30 583 H 57.9179 3.49342 -1.65822 0
M  V30 584 H 59.6069 3.48731 -2.07705 0
M  V30 585 H 60.3729 2.31081 -4.26412 0
M  V30 586 H 56.2519 3.14781 -3.368 0
M  V30 587 H 59.7959 2.0923 -6.65484 0
M  V30 588 H 55.6929 2.93269 -5.75034 0
M  V30 589 H 56.4609 2.52509 -7.78577 0
M  V30 590 N 59.124 1.23083 0.984299 0
M  V30 591 C 60.373 1.05466 1.71929 0
M  V30 592 C 60.686 -0.409211 1.91272 0
M  V30 593 O 61.892 -0.705226 2.62181 0
M  V30 594 C 60.348 1.83874 3.09384 0
M  V30 595 C 59.956 3.34566 2.97943 0
M  V30 596 C 61.7 1.74734 3.8687 0
M  V30 597 C 59.607 4.05381 4.30605 0
M  V30 598 H 58.537 0.391039 0.644674 0
M  V30 599 H 61.188 1.47013 1.09815 0
M  V30 600 H 59.57 1.35131 3.72231 0
M  V30 601 H 60.744 3.90767 2.44209 0
M  V30 602 H 59.059 3.44476 2.33934 0
M  V30 603 H 61.656 2.24957 4.85076 0
M  V30 604 H 61.999 0.709372 4.10212 0
M  V30 605 H 62.532 2.21067 3.30717 0
M  V30 606 H 59.271 5.09467 4.1246 0
M  V30 607 H 58.791 3.53967 4.84218 0
M  V30 608 H 60.47 4.11458 4.99311 0
M  V30 609 N 60.6021 -1.18246 1.0419 0
M  V30 610 C 61.8301 -1.92195 0.766072 0
M  V30 611 C 62.2451 -1.76247 -0.676933 0
M  V30 612 O 61.6021 -1.09293 -1.46155 0
M  V30 613 C 61.6531 -3.43568 1.12442 0
M  V30 614 O 61.3741 -3.59015 2.51078 0
M  V30 615 C 62.8751 -4.34613 0.873275 0
M  V30 616 H 60.0951 -0.610114 0.279288 0
M  V30 617 H 62.6391 -1.50007 1.38989 0
M  V30 618 H 60.7941 -3.8354 0.545542 0
M  V30 619 H 61.2081 -4.5273 2.64831 0
M  V30 620 H 62.6821 -5.39374 1.17385 0
M  V30 621 H 63.1591 -4.38781 -0.191909 0
M  V30 622 H 63.7651 -4.00341 1.43551 0
M  V30 623 N 62.0802 -0.821533 -1.34494 0
M  V30 624 C 63.0272 -0.240397 -2.29545 0
M  V30 625 C 63.9972 0.634031 -1.53523 0
M  V30 626 O 65.1822 0.575966 -1.81899 0
M  V30 627 C 62.3222 0.592869 -3.39969 0
M  V30 628 C 61.4352 -0.30365 -4.30932 0
M  V30 629 C 60.5702 0.539049 -5.28458 0
M  V30 630 C 59.6092 -0.356942 -6.11058 0
M  V30 631 N 58.7462 0.446603 -7.00678 0
M  V30 632 H 63.5862 -1.05632 -2.7865 0
M  V30 633 H 61.1232 -0.532413 -1.37127 0
M  V30 634 H 63.0812 1.09129 -4.02675 0
M  V30 635 H 61.7112 1.37392 -2.92102 0
M  V30 636 H 60.7632 -0.920276 -3.691 0
M  V30 637 H 62.0752 -0.992661 -4.88823 0
M  V30 638 H 61.2292 1.102 -5.96608 0
M  V30 639 H 59.9682 1.26157 -4.71101 0
M  V30 640 H 58.9732 -0.932047 -5.41842 0
M  V30 641 H 60.1982 -1.07755 -6.70497 0
M  V30 642 H 58.1442 1.15282 -6.45791 0
M  V30 643 H 58.0612 -0.184048 -7.55776 0
M  V30 644 H 59.3292 0.992352 -7.73158 0
M  V30 645 N 63.5583 1.46682 -0.576371 0
M  V30 646 C 64.7833 2.07304 -0.0630475 0
M  V30 647 C 65.2083 1.42329 1.2298 0
M  V30 648 O 64.5663 0.504865 1.74129 0
M  V30 649 C 64.6143 3.60472 0.095895 0
M  V30 650 O 63.7183 3.95927 1.15394 0
M  V30 651 H 63.0593 0.661288 -0.0599463 0
M  V30 652 H 65.5893 1.88417 -0.797511 0
M  V30 653 H 65.5993 4.06865 0.304071 0
M  V30 654 H 64.2743 4.07157 -0.84828 0
M  V30 655 H 62.8513 3.61252 0.924724 0
M  V30 656 N 65.0364 0.313813 1.54444 0
M  V30 657 C 66.2614 -0.296681 2.05267 0
M  V30 658 C 66.6864 -1.45757 1.18897 0
M  V30 659 O 66.0444 -1.80239 0.195886 0
M  V30 660 C 66.0924 -0.71831 3.53373 0
M  V30 661 O 65.1964 -1.82175 3.69981 0
M  V30 662 H 64.5374 -0.0554061 0.661684 0
M  V30 663 H 67.0674 0.459387 1.99376 0
M  V30 664 H 67.0774 -1.00364 3.95463 0
M  V30 665 H 65.7524 0.130821 4.15694 0
M  V30 666 H 64.3294 -1.53598 3.39797 0
M  V30 667 N 66.5145 -1.57545 0.0417849 0
M  V30 668 C 67.7425 -1.96624 -0.643928 0
M  V30 669 C 68.1575 -0.918897 -1.64929 0
M  V30 670 O 67.5145 0.0979323 -1.82237 0
M  V30 671 C 67.5655 -3.35781 -1.33914 0
M  V30 672 O 67.2865 -4.365 -0.374048 0
M  V30 673 C 68.7875 -3.89566 -2.1155 0
M  V30 674 H 66.0075 -0.647316 -0.176702 0
M  V30 675 H 68.5515 -2.04229 0.105304 0
M  V30 676 H 66.7065 -3.29357 -2.03968 0
M  V30 677 H 67.1205 -5.17248 -0.869179 0
M  V30 678 H 68.5945 -4.89242 -2.55628 0
M  V30 679 H 69.0715 -3.24488 -2.9598 0
M  V30 680 H 69.6775 -3.99298 -1.46427 0
M  V30 681 N 67.9926 0.231505 -1.5589 0
M  V30 682 C 68.9226 1.29022 -1.94617 0
M  V30 683 C 69.9036 1.4941 -0.813067 0
M  V30 684 O 71.0886 1.6176 -1.07459 0
M  V30 685 C 68.2186 2.64199 -2.25424 0
M  V30 686 C 67.1726 2.58484 -3.41131 0
M  V30 687 C 66.4986 3.97599 -3.57518 0
M  V30 688 C 67.7986 2.1413 -4.76388 0
M  V30 689 H 69.4926 0.968563 -2.83301 0
M  V30 690 H 67.0386 0.464479 -1.36303 0
M  V30 691 H 68.9916 3.38413 -2.51107 0
M  V30 692 H 67.7156 2.98032 -1.33583 0
M  V30 693 H 66.3746 1.86727 -3.15481 0
M  V30 694 H 66.0226 4.28723 -2.6307 0
M  V30 695 H 65.7226 3.94659 -4.35337 0
M  V30 696 H 67.2466 4.7349 -3.85538 0
M  V30 697 H 68.6606 2.78083 -5.01341 0
M  V30 698 H 67.0576 2.2227 -5.57419 0
M  V30 699 H 68.1276 1.09331 -4.72414 0
M  V30 700 N 69.4707 1.49531 0.497807 0
M  V30 701 C 70.3807 1.69176 1.62532 0
M  V30 702 C 71.3967 0.5744 1.64246 0
M  V30 703 O 72.5727 0.849497 1.82608 0
M  V30 704 C 69.6377 1.75695 2.98885 0
M  V30 705 C 68.6987 2.9929 3.07773 0
M  V30 706 C 67.9317 3.05488 4.37622 0
M  V30 707 O 68.1547 2.19192 5.26603 0
M  V30 708 O 67.0887 3.9798 4.51548 0
M  V30 709 H 70.9147 2.647 1.48887 0
M  V30 710 H 68.4997 1.3331 0.674441 0
M  V30 711 H 70.3817 1.82317 3.79919 0
M  V30 712 H 69.0567 0.8335 3.12785 0
M  V30 713 H 67.9637 2.98183 2.25915 0
M  V30 714 H 69.2967 3.91125 2.98801 0
M  V30 715 N 70.9488 -0.749086 1.3866 0
M  V30 716 C 71.8958 -1.86291 1.36251 0
M  V30 717 C 72.8658 -1.64578 0.224347 0
M  V30 718 O 74.0508 -1.86181 0.417279 0
M  V30 719 C 71.1908 -3.23644 1.19786 0
M  V30 720 C 70.3038 -3.57158 2.43027 0
M  V30 721 C 69.4388 -4.83838 2.19258 0
M  V30 722 C 68.4778 -5.10152 3.38247 0
M  V30 723 N 67.6148 -6.28029 3.13884 0
M  V30 724 H 72.4548 -1.87685 2.3147 0
M  V30 725 H 69.9918 -0.917287 1.14997 0
M  V30 726 H 71.9498 -4.0291 1.08254 0
M  V30 727 H 70.5798 -3.21566 0.282031 0
M  V30 728 H 69.6318 -2.72701 2.65214 0
M  V30 729 H 70.9438 -3.7253 3.31697 0
M  V30 730 H 70.0978 -5.71057 2.04888 0
M  V30 731 H 68.8368 -4.70614 1.2796 0
M  V30 732 H 67.8418 -4.21401 3.53131 0
M  V30 733 H 69.0668 -5.25271 4.30427 0
M  V30 734 H 67.0128 -6.1612 2.25238 0
M  V30 735 H 66.9298 -6.43922 3.96106 0
M  V30 736 H 68.1978 -7.18124 3.03179 0
M  V30 737 N 72.4269 -1.23603 -0.977757 0
M  V30 738 C 73.8429 -0.999251 -1.24447 0
M  V30 739 C 74.0429 0.298053 -1.99283 0
M  V30 740 O 73.0989 1.01681 -2.31122 0
M  V30 741 C 74.4119 -2.20784 -2.04144 0
M  V30 742 C 75.9599 -2.25303 -2.17273 0
M  V30 743 C 76.4349 -3.45755 -3.00362 0
M  V30 744 N 77.9259 -3.4601 -3.07947 0
M  V30 745 C 78.6609 -4.35868 -3.72568 0
M  V30 746 N 78.1569 -5.35966 -4.38991 0
M  V30 747 N 79.9499 -4.23605 -3.6948 0
M  V30 748 H 72.1009 -2.06986 -0.476483 0
M  V30 749 H 74.3639 -0.907801 -0.273134 0
M  V30 750 H 74.0699 -3.14945 -1.56533 0
M  V30 751 H 73.9439 -2.22085 -3.04891 0
M  V30 752 H 76.3309 -1.3168 -2.64092 0
M  V30 753 H 76.4119 -2.28033 -1.15907 0
M  V30 754 H 76.0559 -4.39687 -2.5424 0
M  V30 755 H 75.9859 -3.40266 -4.01904 0
M  V30 756 H 78.4769 -2.73588 -2.60688 0
M  V30 757 H 78.7899 -6.00783 -4.86086 0
M  V30 758 H 77.1349 -5.39863 -4.37691 0
M  V30 759 H 80.3259 -3.44647 -3.16759 0
M  V30 760 H 80.4989 -4.93836 -4.1956 0
M  V30 761 N 73.905 1.17692 -1.04816 0
M  V30 762 C 74.815 2.25229 -0.65643 0
M  V30 763 C 75.831 1.71018 0.320761 0
M  V30 764 O 77.007 2.00649 0.173805 0
M  V30 765 C 74.072 3.46684 -0.0332629 0
M  V30 766 C 73.133 4.15997 -1.06042 0
M  V30 767 C 72.366 5.31654 -0.466893 0
M  V30 768 O 72.589 5.65777 0.724758 0
M  V30 769 O 71.523 5.89831 -1.1993 0
M  V30 770 H 75.349 2.61016 -1.55255 0
M  V30 771 H 72.934 1.24919 -0.81949 0
M  V30 772 H 74.816 4.20234 0.313256 0
M  V30 773 H 73.491 3.12703 0.836566 0
M  V30 774 H 72.398 3.44482 -1.45886 0
M  V30 775 H 73.731 4.53996 -1.90127 0
M  V30 776 N 75.3831 0.828654 1.34056 0
M  V30 777 C 76.6311 0.41863 1.97717 0
M  V30 778 C 76.9521 -1.02314 1.66002 0
M  V30 779 O 76.2221 -1.71119 0.953683 0
M  V30 780 H 74.8021 0.151809 0.731412 0
M  V30 781 H 77.4641 1.05936 1.63596 0
M  V30 782 H 76.5601 0.542318 3.07352 0
M  V30 783 N 76.8612 -1.46375 0.584142 0
M  V30 784 C 77.8092 -2.32042 -0.161047 0
M  V30 785 C 78.8032 -1.44569 -0.882966 0
M  V30 786 O 80.0092 -1.61186 -0.801191 0
M  V30 787 H 76.3842 -0.748659 -0.0708033 0
M  V30 788 H 78.3552 -2.92704 0.580269 0
M  V30 789 C 77.1042 -3.27762 -1.1605 0
M  V30 790 H 76.4272 -3.95051 -0.614419 0
M  V30 791 H 77.8672 -3.90481 -1.65228 0
M  V30 792 C 76.3262 -2.53218 -2.22221 0
M  V30 793 O 76.8562 -2.29628 -3.29597 0
M  V30 794 N 75.0622 -2.13756 -1.96868 0
M  V30 795 H 74.6092 -2.33142 -1.09557 0
M  V30 796 H 74.5672 -1.642 -2.68115 0
M  V30 797 N 78.3393 -0.321999 -1.54275 0
M  V30 798 C 79.7503 0.166384 -1.85957 0
M  V30 799 C 80.1013 1.51747 -1.24367 0
M  V30 800 O 79.2263 2.09317 -0.549124 0
M  V30 801 C 79.8213 0.308681 -3.37391 0
M  V30 802 C 78.3803 0.741286 -3.69028 0
M  V30 803 C 77.5273 -0.137937 -2.76957 0
M  V30 804 H 80.4783 -0.542335 -1.49146 0
M  V30 805 H 80.4993 1.13984 -3.63026 0
M  V30 806 H 80.0113 -0.674809 -3.82188 0
M  V30 807 H 78.1123 1.73458 -3.29762 0
M  V30 808 H 78.2253 0.546118 -4.75977 0
M  V30 809 H 76.5893 0.386251 -2.51754 0
M  V30 810 H 77.3723 -1.11816 -3.2458 0
M  V30 811 N 79.8174 1.5752 -0.0501392 0
M  V30 812 C 80.7474 2.14502 0.922566 0
M  V30 813 C 81.7284 1.06642 1.3252 0
M  V30 814 O 82.9134 1.34577 1.4001 0
M  V30 815 C 80.0434 2.68916 2.19776 0
M  V30 816 C 78.9974 3.8175 1.93523 0
M  V30 817 C 78.3234 4.22677 3.27487 0
M  V30 818 C 79.6234 5.06932 1.25765 0
M  V30 819 H 81.3174 2.9603 0.447952 0
M  V30 820 H 78.8634 1.42401 0.214024 0
M  V30 821 H 80.8164 3.07419 2.88222 0
M  V30 822 H 79.5404 1.84578 2.69441 0
M  V30 823 H 78.1994 3.43718 1.27489 0
M  V30 824 H 77.8474 3.35291 3.74952 0
M  V30 825 H 77.5474 4.98725 3.1072 0
M  V30 826 H 79.0714 4.63779 3.97166 0
M  V30 827 H 80.4854 5.42888 1.84244 0
M  V30 828 H 78.8824 5.88116 1.19328 0
M  V30 829 H 79.9524 4.84337 0.233536 0
M  V30 830 N 81.2955 -0.223234 1.56011 0
M  V30 831 C 82.7065 -0.790368 1.69145 0
M  V30 832 C 83.0575 -1.85055 0.651845 0
M  V30 833 O 82.1825 -2.15498 -0.197359 0
M  V30 834 C 82.7775 -1.4404 3.06656 0
M  V30 835 C 81.3365 -1.95494 3.2165 0
M  V30 836 C 80.4835 -0.814506 2.65068 0
M  V30 837 H 83.4345 0.00139011 1.587 0
M  V30 838 H 83.4555 -2.30916 3.0242 0
M  V30 839 H 82.9675 -0.668543 3.82298 0
M  V30 840 H 81.0685 -2.75487 2.50874 0
M  V30 841 H 81.1815 -2.13607 4.28846 0
M  V30 842 H 79.5455 -1.22137 2.23505 0
M  V30 843 H 80.3285 -0.0553515 3.43255 0
M  V30 844 N 82.7736 -1.49793 -0.48987 0
M  V30 845 C 84.1896 -1.36803 -0.822022 0
M  V30 846 C 84.3896 -0.409652 -1.97292 0
M  V30 847 O 83.4456 0.154614 -2.52026 0
M  V30 848 C 84.7586 -2.77768 -1.15175 0
M  V30 849 C 86.3066 -2.86549 -1.25931 0
M  V30 850 C 86.7816 -4.28306 -1.62228 0
M  V30 851 N 88.2726 -4.31169 -1.69256 0
M  V30 852 C 89.0076 -5.37832 -1.98807 0
M  V30 853 N 88.5036 -6.54726 -2.26507 0
M  V30 854 N 90.2966 -5.25258 -2.00152 0
M  V30 855 H 82.4476 -2.10691 0.268881 0
M  V30 856 H 84.7106 -0.946241 0.057728 0
M  V30 857 H 84.4166 -3.49648 -0.379335 0
M  V30 858 H 84.2906 -3.13836 -2.09253 0
M  V30 859 H 86.6776 -2.14899 -2.02243 0
M  V30 860 H 86.7586 -2.54049 -0.298776 0
M  V30 861 H 86.4026 -5.00486 -0.864622 0
M  V30 862 H 86.3326 -4.58279 -2.594 0
M  V30 863 H 88.8236 -3.4687 -1.49965 0
M  V30 864 H 89.1366 -7.31833 -2.48276 0
M  V30 865 H 87.4816 -6.57933 -2.23939 0
M  V30 866 H 90.6726 -4.32938 -1.77996 0
M  V30 867 H 90.8456 -6.08476 -2.22848 0
M  V30 868 N 84.2517 0.741722 -1.39055 0
M  V30 869 C 85.4817 1.52876 -1.3897 0
M  V30 870 C 85.8897 1.8919 0.0193266 0
M  V30 871 O 85.2327 1.54138 0.999356 0
M  V30 872 C 85.2947 2.84929 -2.19216 0
M  V30 873 C 84.9587 2.71086 -3.67915 0
M  V30 874 C 85.9557 2.40084 -4.61146 0
M  V30 875 C 83.6407 2.88168 -4.11418 0
M  V30 876 C 85.6347 2.26335 -5.95862 0
M  V30 877 C 83.3217 2.74037 -5.46211 0
M  V30 878 C 84.3197 2.43166 -6.38247 0
M  V30 879 O 84.0077 2.29115 -7.70559 0
M  V30 880 H 83.7397 0.479252 -0.476753 0
M  V30 881 H 86.2937 0.924751 -1.83405 0
M  V30 882 H 84.5237 3.47564 -1.69518 0
M  V30 883 H 86.2127 3.46509 -2.11392 0
M  V30 884 H 86.9787 2.26545 -4.28838 0
M  V30 885 H 82.8577 3.11191 -3.40119 0
M  V30 886 H 86.4017 2.0216 -6.67665 0
M  V30 887 H 82.2987 2.87153 -5.78112 0
M  V30 888 H 83.0667 2.44237 -7.81211 0
M  V30 889 N 85.7298 1.2412 0.971189 0
M  V30 890 C 86.9758 1.08041 1.71625 0
M  V30 891 C 87.3088 -0.380407 1.90438 0
M  V30 892 O 86.5838 -1.28127 1.46334 0
M  V30 893 C 86.8668 1.81682 3.10908 0
M  V30 894 C 86.7198 3.35493 2.99608 0
M  V30 895 C 88.0388 1.58671 4.10501 0
M  V30 896 H 85.1578 0.39388 0.622919 0
M  V30 897 H 87.7998 1.52743 1.13003 0
M  V30 898 H 85.9498 1.43684 3.60953 0
M  V30 899 H 87.6218 3.83068 2.57015 0
M  V30 900 H 85.8648 3.64052 2.35899 0
M  V30 901 H 86.5358 3.82217 3.98264 0
M  V30 902 H 89.0118 1.91719 3.69301 0
M  V30 903 H 87.8878 2.1266 5.06031 0
M  V30 904 H 88.1488 0.524161 4.38982 0
M  V30 905 N 87.2079 -1.17134 1.05439 0
M  V30 906 C 88.4849 -1.83411 0.679699 0
M  V30 907 C 88.8649 -1.9368 -0.839726 0
M  V30 908 O 88.2129 -1.47325 -1.74664 0
M  V30 909 C 88.4229 -3.20918 1.37159 0
M  V30 910 C 89.7709 -3.96796 1.51123 0
M  V30 911 O 90.7949 -3.30406 1.3308 0
M  V30 912 O 89.6539 -5.15778 1.80651 0
M  V30 913 H 86.7479 -0.79154 0.239569 0
M  V30 914 H 89.2939 -1.24411 1.15413 0
M  V30 915 H 88.0659 -3.08428 2.40807 0
M  V30 916 H 87.6889 -3.87587 0.886674 0
M  V30 917 N 88.686 -0.835752 -1.33615 0
M  V30 918 C 89.616 -0.281739 -2.31794 0
M  V30 919 C 90.597 0.608833 -1.58831 0
M  V30 920 O 91.782 0.533035 -1.86741 0
M  V30 921 C 88.912 0.546612 -3.42971 0
M  V30 922 C 87.866 -0.247904 -4.27281 0
M  V30 923 C 87.192 0.704001 -5.30045 0
M  V30 924 C 88.492 -1.46324 -5.01385 0
M  V30 925 H 90.186 -1.10206 -2.78379 0
M  V30 926 H 87.732 -0.531388 -1.33837 0
M  V30 927 H 89.685 0.944467 -4.1068 0
M  V30 928 H 88.409 1.40011 -2.95067 0
M  V30 929 H 87.068 -0.627281 -3.61194 0
M  V30 930 H 86.716 1.55381 -4.78399 0
M  V30 931 H 86.416 0.176524 -5.87335 0
M  V30 932 H 87.94 1.09944 -6.0062 0
M  V30 933 H 89.354 -1.13871 -5.61877 0
M  V30 934 H 87.751 -1.92728 -5.6831 0
M  V30 935 H 88.821 -2.23467 -4.30338 0
M  V30 936 N 90.1641 1.46063 -0.591896 0
M  V30 937 C 91.0741 2.34192 0.13831 0
M  V30 938 C 92.0901 1.50305 0.876608 0
M  V30 939 O 93.2661 1.8315 0.837728 0
M  V30 940 C 90.3311 3.27656 1.13326 0
M  V30 941 C 89.3921 4.27445 0.39863 0
M  V30 942 C 88.6251 5.16443 1.34618 0
M  V30 943 O 88.8481 5.08553 2.58321 0
M  V30 944 O 87.7821 5.95843 0.851768 0
M  V30 945 H 91.6081 2.98002 -0.58552 0
M  V30 946 H 89.1931 1.45188 -0.352239 0
M  V30 947 H 91.0751 3.85291 1.70671 0
M  V30 948 H 89.7501 2.6643 1.83839 0
M  V30 949 H 88.6571 3.73471 -0.216895 0
M  V30 950 H 89.9901 4.91482 -0.265709 0
M  V30 951 N 91.6422 0.330177 1.54103 0
M  V30 952 C 92.5722 -0.525353 2.27513 0
M  V30 953 C 93.5532 -1.11383 1.2856 0
M  V30 954 O 94.7382 -1.13773 1.57383 0
M  V30 955 C 91.8682 -1.6831 3.03791 0
M  V30 956 C 90.8222 -1.2236 4.10137 0
M  V30 957 C 90.1482 -2.46882 4.74293 0
M  V30 958 C 91.4482 -0.333697 5.21233 0
M  V30 959 H 93.1422 0.087013 2.99274 0
M  V30 960 H 90.6882 0.0432893 1.43935 0
M  V30 961 H 92.6412 -2.28795 3.5388 0
M  V30 962 H 91.3652 -2.32216 2.29659 0
M  V30 963 H 90.0242 -0.64165 3.60941 0
M  V30 964 H 89.6722 -3.09165 3.96769 0
M  V30 965 H 89.3722 -2.16825 5.46133 0
M  V30 966 H 90.8962 -3.08117 5.27159 0
M  V30 967 H 92.3102 -0.845013 5.67038 0
M  V30 968 H 90.7072 -0.125612 5.99969 0
M  V30 969 H 91.7772 0.633724 4.80741 0
M  V30 970 N 93.1203 -1.57491 0.0584922 0
M  V30 971 C 94.3683 -1.92597 -0.612436 0
M  V30 972 C 94.6893 -0.938162 -1.70949 0
M  V30 973 O 93.9593 0.0158301 -1.95894 0
M  V30 974 H 92.5393 -0.710964 -0.229214 0
M  V30 975 H 95.2013 -1.94571 0.113218 0
M  V30 976 H 94.2973 -2.94038 -1.04633 0
M  V30 977 N 94.5984 0.214957 -1.56127 0
M  V30 978 C 95.8234 0.95924 -1.83884 0
M  V30 979 C 96.2484 1.7689 -0.639644 0
M  V30 980 O 95.6064 1.76566 0.411601 0
M  V30 981 C 95.6544 1.84723 -3.09693 0
M  V30 982 O 94.7584 2.94346 -2.8885 0
M  V30 983 H 94.0994 0.27125 -0.606069 0
M  V30 984 H 96.6294 0.226276 -2.03345 0
M  V30 985 H 96.6394 2.25576 -3.39969 0
M  V30 986 H 95.3144 1.25218 -3.96602 0
M  V30 987 H 93.8914 2.57391 -2.69823 0
M  V30 988 N 96.0765 1.50051 0.48192 0
M  V30 989 C 97.3255 1.59741 1.23149 0
M  V30 990 C 97.6385 0.298163 1.93314 0
M  V30 991 O 98.8445 0.273835 2.70116 0
M  V30 992 C 97.3005 2.81926 2.23708 0
M  V30 993 C 96.9085 4.18685 1.59396 0
M  V30 994 C 98.6525 3.00956 2.99375 0
M  V30 995 C 96.5595 5.3207 2.58178 0
M  V30 996 H 95.4895 0.594838 0.46334 0
M  V30 997 H 98.1405 1.76467 0.503169 0
M  V30 998 H 96.5225 2.58736 2.99786 0
M  V30 999 H 97.6965 4.52088 0.891811 0
M  V30 1000 H 96.0115 4.05171 0.960503 0
M  V30 1001 H 98.6085 3.82836 3.73283 0
M  V30 1002 H 98.9515 2.12258 3.58123 0
M  V30 1003 H 99.4845 3.24277 2.30411 0
M  V30 1004 H 96.2235 6.22888 2.04184 0
M  V30 1005 H 95.7435 5.03098 3.26577 0
M  V30 1006 H 97.4225 5.62196 3.20225 0
M  V30 1007 N 97.5546 -0.734337 1.39446 0
M  V30 1008 C 98.5026 -1.86971 1.38364 0
M  V30 1009 C 99.4966 -1.67288 0.266687 0
M  V30 1010 O 100.703 -1.74621 0.436755 0
M  V30 1011 H 97.0776 -0.615474 0.432082 0
M  V30 1012 H 99.0486 -1.85 2.34132 0
M  V30 1013 C 97.7976 -3.2466 1.24465 0
M  V30 1014 H 97.1206 -3.40402 2.09682 0
M  V30 1015 H 98.5606 -4.04292 1.27764 0
M  V30 1016 C 97.0196 -3.36867 -0.0468674 0
M  V30 1017 O 97.5496 -3.88618 -1.01681 0
M  V30 1018 N 95.7556 -2.90391 -0.110145 0
M  V30 1019 H 95.3026 -2.48466 0.679868 0
M  V30 1020 H 95.2606 -2.98939 -0.973799 0
M  V30 1021 N 99.0327 -1.24633 -0.964593 0
M  V30 1022 C 100.258 -1.11596 -1.74818 0
M  V30 1023 C 100.683 0.32723 -1.85232 0
M  V30 1024 O 100.041 1.23695 -1.32549 0
M  V30 1025 C 100.089 -1.76397 -3.1451 0
M  V30 1026 O 99.1927 -1.03685 -3.99153 0
M  V30 1027 H 98.5337 -0.390196 -0.537255 0
M  V30 1028 H 101.064 -1.65002 -1.20977 0
M  V30 1029 H 101.074 -1.8228 -3.65018 0
M  V30 1030 H 99.7487 -2.81401 -3.06246 0
M  V30 1031 H 98.3257 -1.05611 -3.57632 0
M  V30 1032 N 100.511 1.16574 -1.06058 0
M  V30 1033 C 101.444 2.19798 -0.61352 0
M  V30 1034 C 102.422 1.58509 0.362453 0
M  V30 1035 O 103.606 1.86527 0.271994 0
M  V30 1036 C 100.733 3.3855 0.100915 0
M  V30 1037 C 99.7788 4.18317 -0.831438 0
M  V30 1038 S 100.612 4.82375 -2.32539 0
M  V30 1039 C 101.768 6.04508 -1.62238 0
M  V30 1040 H 102.001 2.5738 -1.48805 0
M  V30 1041 H 99.5338 1.27327 -0.873338 0
M  V30 1042 H 101.492 4.07358 0.506898 0
M  V30 1043 H 100.153 2.99338 0.951604 0
M  V30 1044 H 99.3458 5.03232 -0.278071 0
M  V30 1045 H 98.9478 3.5499 -1.17719 0
M  V30 1046 H 101.24 6.71133 -0.926622 0
M  V30 1047 H 102.183 6.64389 -2.44934 0
M  V30 1048 H 102.591 5.53559 -1.106 0
M  V30 1049 N 101.989 0.842826 1.3317 0
M  V30 1050 C 103.237 0.439577 1.97262 0
M  V30 1051 C 103.558 -1.00548 1.67078 0
M  V30 1052 O 102.828 -1.70098 0.971779 0
M  V30 1053 H 101.408 0.159558 0.72976 0
M  V30 1054 H 104.07 1.07665 1.62463 0
M  V30 1055 H 103.166 0.574886 3.0676 0
M  V30 1056 N 103.467 -1.45747 0.599634 0
M  V30 1057 C 104.397 -2.33235 -0.111306 0
M  V30 1058 C 105.378 -1.46359 -0.866781 0
M  V30 1059 O 106.563 -1.75146 -0.838904 0
M  V30 1060 C 103.693 -3.28932 -1.11451 0
M  V30 1061 C 102.647 -4.25381 -0.472772 0
M  V30 1062 C 101.973 -5.1071 -1.58365 0
M  V30 1063 C 103.273 -5.18831 0.600948 0
M  V30 1064 H 104.967 -2.92927 0.61919 0
M  V30 1065 H 102.513 -1.40857 0.299215 0
M  V30 1066 H 104.466 -3.89002 -1.62036 0
M  V30 1067 H 103.19 -2.67381 -1.8755 0
M  V30 1068 H 101.849 -3.66598 0.0121472 0
M  V30 1069 H 101.497 -4.45533 -2.33473 0
M  V30 1070 H 101.197 -5.7604 -1.15982 0
M  V30 1071 H 102.721 -5.73647 -2.09194 0
M  V30 1072 H 104.135 -5.73019 0.179491 0
M  V30 1073 H 102.532 -5.92595 0.946076 0
M  V30 1074 H 103.602 -4.6174 1.48068 0
M  V30 1075 N 104.945 -0.338344 -1.53925 0
M  V30 1076 C 106.356 0.146651 -1.86123 0
M  V30 1077 C 106.707 1.5042 -1.2597 0
M  V30 1078 O 105.832 2.08723 -0.571294 0
M  V30 1079 C 106.427 0.272879 -3.37699 0
M  V30 1080 C 104.986 0.702103 -3.69794 0
M  V30 1081 C 104.133 -0.167304 -2.76795 0
M  V30 1082 H 107.084 -0.558123 -1.48562 0
M  V30 1083 H 107.105 1.10128 -3.64214 0
M  V30 1084 H 106.617 -0.715307 -3.81451 0
M  V30 1085 H 104.718 1.6995 -3.31584 0
M  V30 1086 H 104.831 0.495604 -4.7653 0
M  V30 1087 H 103.195 0.359527 -2.5215 0
M  V30 1088 H 103.978 -1.15253 -3.23375 0
M  V30 1089 N 106.423 1.57458 -0.0668435 0
M  V30 1090 C 107.371 2.13639 0.919851 0
M  V30 1091 C 108.365 1.07204 1.31163 0
M  V30 1092 O 109.571 1.25591 1.28945 0
M  V30 1093 H 105.946 0.683048 0.314562 0
M  V30 1094 H 107.917 2.95415 0.421047 0
M  V30 1095 C 106.666 2.70892 2.17975 0
M  V30 1096 H 105.989 3.5246 1.88711 0
M  V30 1097 H 107.429 3.13803 2.85138 0
M  V30 1098 C 105.888 1.65414 2.93496 0
M  V30 1099 O 106.418 1.07619 3.87015 0
M  V30 1100 N 104.624 1.36564 2.56512 0
M  V30 1101 H 104.171 1.83751 1.80536 0
M  V30 1102 H 104.129 0.66223 3.07347 0
M  V30 1103 N 107.901 -0.206675 1.56239 0
M  V30 1104 C 108.831 -1.25909 1.96645 0
M  V30 1105 C 109.812 -1.48097 0.836734 0
M  V30 1106 O 110.997 -1.6003 1.10019 0
M  V30 1107 C 108.127 -2.6058 2.29599 0
M  V30 1108 C 107.081 -2.53024 3.452 0
M  V30 1109 C 106.407 -3.91861 3.63798 0
M  V30 1110 C 107.707 -2.06524 4.79734 0
M  V30 1111 H 109.401 -0.923369 2.84806 0
M  V30 1112 H 106.947 -0.442735 1.37025 0
M  V30 1113 H 108.9 -3.34375 2.56459 0
M  V30 1114 H 107.624 -2.95869 1.38307 0
M  V30 1115 H 106.283 -1.81684 3.18412 0
M  V30 1116 H 105.931 -4.24483 2.69857 0
M  V30 1117 H 105.631 -3.87683 4.4156 0
M  V30 1118 H 107.155 -4.67296 3.93022 0
M  V30 1119 H 108.569 -2.70072 5.05702 0
M  V30 1120 H 106.966 -2.13374 5.60885 0
M  V30 1121 H 108.036 -1.01802 4.74093 0
M  V30 1122 N 109.379 -1.50304 -0.473955 0
M  V30 1123 C 110.627 -1.60832 -1.22382 0
M  V30 1124 C 110.948 -0.30939 -1.9253 0
M  V30 1125 O 110.218 0.67296 -1.83978 0
M  V30 1126 H 108.798 -0.592652 -0.454723 0
M  V30 1127 H 111.46 -1.87068 -0.546968 0
M  V30 1128 H 110.556 -2.41803 -1.97327 0
M  V30 1129 N 110.857 0.726932 -1.39834 0
M  V30 1130 C 112.104 1.48664 -1.37496 0
M  V30 1131 C 112.432 1.94482 0.0264678 0
M  V30 1132 O 111.687 1.67692 1.00886 0
M  V30 1133 C 111.986 2.73495 -2.30077 0
M  V30 1134 C 111.652 2.46502 -3.77555 0
M  V30 1135 C 110.314 2.3885 -4.17737 0
M  V30 1136 C 112.666 2.23604 -4.70798 0
M  V30 1137 C 109.994 2.06352 -5.49214 0
M  V30 1138 C 112.346 1.92622 -6.02561 0
M  V30 1139 C 111.01 1.83444 -6.41798 0
M  V30 1140 H 110.28 0.544001 -0.503135 0
M  V30 1141 H 112.927 0.833657 -1.72402 0
M  V30 1142 H 111.232 3.43575 -1.88317 0
M  V30 1143 H 112.929 3.31549 -2.25558 0
M  V30 1144 H 109.519 2.5334 -3.45712 0
M  V30 1145 H 113.703 2.28479 -4.40581 0
M  V30 1146 H 108.959 1.97776 -5.78528 0
M  V30 1147 H 113.133 1.73914 -6.74334 0
M  V30 1148 H 110.76 1.58029 -7.43593 0
M  V30 1149 N 112.336 1.25143 0.95797 0
M  V30 1150 C 113.613 1.00472 1.67823 0
M  V30 1151 C 113.993 -0.470056 2.058 0
M  V30 1152 O 113.341 -1.44663 1.76875 0
M  V30 1153 C 113.551 1.9372 2.90299 0
M  V30 1154 C 114.899 2.21371 3.62326 0
M  V30 1155 O 115.923 1.91451 3.00375 0
M  V30 1156 O 114.782 2.72231 4.7387 0
M  V30 1157 H 111.876 0.380752 0.734137 0
M  V30 1158 H 114.422 1.36283 1.01119 0
M  V30 1159 H 113.194 2.93316 2.59001 0
M  V30 1160 H 112.817 1.58286 3.64735 0
M  V30 1161 N 113.814 -1.1601 1.06675 0
M  V30 1162 C 115.044 -1.90251 0.805497 0
M  V30 1163 C 115.452 -1.77891 -0.64431 0
M  V30 1164 O 114.795 -1.12383 -1.45313 0
M  V30 1165 C 114.857 -3.41419 1.12576 0
M  V30 1166 C 114.521 -3.77564 2.57477 0
M  V30 1167 C 115.518 -3.79161 3.55715 0
M  V30 1168 C 113.203 -4.08079 2.92877 0
M  V30 1169 C 115.197 -4.10767 4.8739 0
M  V30 1170 C 112.884 -4.39351 4.24751 0
M  V30 1171 C 113.882 -4.40675 5.21818 0
M  V30 1172 O 113.57 -4.71202 6.51325 0
M  V30 1173 H 113.302 -0.610018 0.291297 0
M  V30 1174 H 115.856 -1.47958 1.4247 0
M  V30 1175 H 114.086 -3.84079 0.449503 0
M  V30 1176 H 115.775 -3.9694 0.84814 0
M  V30 1177 H 116.541 -3.55693 3.29708 0
M  V30 1178 H 112.42 -4.06211 2.17976 0
M  V30 1179 H 115.964 -4.11715 5.63148 0
M  V30 1180 H 111.861 -4.62285 4.50514 0
M  V30 1181 H 112.629 -4.88996 6.56373 0
M  V30 1182 N 115.292 -0.849877 -1.32721 0
M  V30 1183 C 116.522 -0.46408 -2.0132 0
M  V30 1184 C 116.93 0.94246 -1.64056 0
M  V30 1185 O 116.273 1.6257 -0.855379 0
M  V30 1186 C 116.335 -0.517887 -3.5575 0
M  V30 1187 C 115.999 -1.88248 -4.16427 0
M  V30 1188 C 116.996 -2.84726 -4.35002 0
M  V30 1189 C 114.681 -2.17832 -4.52609 0
M  V30 1190 C 116.675 -4.08945 -4.8892 0
M  V30 1191 C 114.362 -3.42304 -5.06232 0
M  V30 1192 C 115.36 -4.37677 -5.24335 0
M  V30 1193 O 115.048 -5.59946 -5.76815 0
M  V30 1194 H 114.78 -0.181327 -0.651227 0
M  V30 1195 H 117.334 -1.14713 -1.70382 0
M  V30 1196 H 115.564 0.221997 -3.86062 0
M  V30 1197 H 117.253 -0.148366 -4.05629 0
M  V30 1198 H 118.019 -2.63174 -4.07388 0
M  V30 1199 H 113.898 -1.44385 -4.37806 0
M  V30 1200 H 117.442 -4.83396 -5.02966 0
M  V30 1201 H 113.339 -3.63709 -5.33278 0
M  V30 1202 H 114.107 -5.61838 -5.95214 0
M  V30 1203 N 116.77 1.45427 -0.607355 0
M  V30 1204 C 117.7 2.3329 0.0989352 0
M  V30 1205 C 118.681 1.46816 0.859007 0
M  V30 1206 O 119.866 1.75588 0.829604 0
M  V30 1207 C 116.996 3.29518 1.09705 0
M  V30 1208 C 115.95 4.25626 0.450206 0
M  V30 1209 C 115.276 5.11542 1.55655 0
M  V30 1210 C 116.576 5.18505 -0.628455 0
M  V30 1211 H 118.27 2.92595 -0.634716 0
M  V30 1212 H 115.816 1.40696 -0.306681 0
M  V30 1213 H 117.769 3.89855 1.59971 0
M  V30 1214 H 116.493 2.68372 1.86129 0
M  V30 1215 H 115.152 3.66586 -0.0315886 0
M  V30 1216 H 114.8 4.46765 2.31107 0
M  V30 1217 H 114.5 5.76647 1.12925 0
M  V30 1218 H 116.024 5.74748 2.06148 0
M  V30 1219 H 117.438 5.72916 -0.209877 0
M  V30 1220 H 115.835 5.92085 -0.977489 0
M  V30 1221 H 116.905 4.60948 -1.50514 0
M  V30 1222 N 118.248 0.346503 1.53744 0
M  V30 1223 C 119.525 -0.304532 1.93215 0
M  V30 1224 C 119.905 -1.67993 1.27834 0
M  V30 1225 O 119.253 -2.24411 0.430352 0
M  V30 1226 C 119.463 -0.373852 3.46992 0
M  V30 1227 C 120.811 -0.62329 4.2 0
M  V30 1228 O 121.835 -0.455847 3.53271 0
M  V30 1229 O 120.694 -0.947879 5.38217 0
M  V30 1230 H 117.788 -0.178318 0.807547 0
M  V30 1231 H 120.334 0.397895 1.64969 0
M  V30 1232 H 119.106 0.591224 3.86808 0
M  V30 1233 H 118.729 -1.12294 3.81413 0
M  V30 1234 N 119.726 -1.57421 0.075193 0
M  V30 1235 C 120.956 -1.97659 -0.601203 0
M  V30 1236 C 121.364 -0.952427 -1.63479 0
M  V30 1237 O 120.707 0.0688241 -1.83571 0
M  V30 1238 C 120.769 -3.34218 -1.32434 0
M  V30 1239 C 120.433 -4.5484 -0.443826 0
M  V30 1240 C 121.43 -5.19034 0.299969 0
M  V30 1241 C 119.115 -5.00952 -0.367709 0
M  V30 1242 C 121.109 -6.27695 1.10807 0
M  V30 1243 C 118.796 -6.09484 0.444058 0
M  V30 1244 C 119.794 -6.72719 1.18061 0
M  V30 1245 O 119.482 -7.79161 1.97898 0
M  V30 1246 H 119.214 -0.65494 -0.167422 0
M  V30 1247 H 121.768 -2.04886 0.145157 0
M  V30 1248 H 119.998 -3.23615 -2.11685 0
M  V30 1249 H 121.687 -3.59038 -1.89331 0
M  V30 1250 H 122.453 -4.84351 0.250776 0
M  V30 1251 H 118.332 -4.51509 -0.930638 0
M  V30 1252 H 121.876 -6.76982 1.68347 0
M  V30 1253 H 117.773 -6.43601 0.494803 0
M  V30 1254 H 118.541 -7.96055 1.90367 0
M  V30 1255 N 121.204 0.198386 -1.56346 0
M  V30 1256 C 122.45 0.920648 -1.80698 0
M  V30 1257 C 122.783 1.83045 -0.648697 0
M  V30 1258 O 122.058 1.91308 0.350925 0
M  V30 1259 C 122.341 1.73971 -3.15287 0
M  V30 1260 C 122.194 0.85485 -4.41602 0
M  V30 1261 C 123.513 2.71296 -3.46535 0
M  V30 1262 H 120.632 0.333261 -0.657348 0
M  V30 1263 H 123.274 0.188198 -1.89066 0
M  V30 1264 H 121.424 2.36416 -3.08285 0
M  V30 1265 H 123.096 0.245362 -4.60647 0
M  V30 1266 H 121.339 0.161398 -4.335 0
M  V30 1267 H 122.01 1.46286 -5.32264 0
M  V30 1268 H 124.486 2.18983 -3.53816 0
M  V30 1269 H 123.362 3.2569 -4.41834 0
M  V30 1270 H 123.623 3.5018 -2.69864 0
M  V30 1271 N 122.682 1.50554 0.465978 0
M  V30 1272 C 123.612 1.72722 1.57128 0
M  V30 1273 C 124.593 0.576294 1.6004 0
M  V30 1274 O 125.778 0.81598 1.76225 0
M  V30 1275 C 122.908 1.82605 2.95419 0
M  V30 1276 C 121.862 2.97835 3.07373 0
M  V30 1277 C 121.188 2.92867 4.47363 0
M  V30 1278 C 122.488 4.38265 2.84114 0
M  V30 1279 H 124.182 2.65267 1.38829 0
M  V30 1280 H 121.728 1.2765 0.666441 0
M  V30 1281 H 123.681 1.96698 3.72677 0
M  V30 1282 H 122.405 0.866858 3.14886 0
M  V30 1283 H 121.064 2.83401 2.3255 0
M  V30 1284 H 120.712 1.94783 4.63755 0
M  V30 1285 H 120.412 3.70227 4.56296 0
M  V30 1286 H 121.936 3.09015 5.26633 0
M  V30 1287 H 123.35 4.53198 3.51118 0
M  V30 1288 H 121.747 5.17115 3.04487 0
M  V30 1289 H 122.817 4.50281 1.7993 0
M  V30 1290 N 124.16 -0.719506 1.40217 0
M  V30 1291 C 125.107 -1.83359 1.40172 0
M  V30 1292 C 126.077 -1.64065 0.259206 0
M  V30 1293 O 127.262 -1.85254 0.456677 0
M  V30 1294 C 124.402 -3.2103 1.26624 0
M  V30 1295 C 123.515 -3.51923 2.50548 0
M  V30 1296 C 122.65 -4.79079 2.29471 0
M  V30 1297 C 121.689 -5.02863 3.48992 0
M  V30 1298 N 120.826 -6.2123 3.27135 0
M  V30 1299 H 125.666 -1.82733 2.35399 0
M  V30 1300 H 123.203 -0.892688 1.16917 0
M  V30 1301 H 125.161 -4.00524 1.16776 0
M  V30 1302 H 123.791 -3.20895 0.350176 0
M  V30 1303 H 122.843 -2.67014 2.70939 0
M  V30 1304 H 124.155 -3.6541 3.39525 0
M  V30 1305 H 123.309 -5.66582 2.16955 0
M  V30 1306 H 122.048 -4.67794 1.37913 0
M  V30 1307 H 121.053 -4.13816 3.6199 0
M  V30 1308 H 122.278 -5.16023 4.41472 0
M  V30 1309 H 120.224 -6.11204 2.38256 0
M  V30 1310 H 120.141 -6.35375 4.09675 0
M  V30 1311 H 121.409 -7.11532 3.18344 0
M  V30 1312 N 125.638 -1.25649 -0.95132 0
M  V30 1313 C 126.586 -1.06118 -2.06982 0
M  V30 1314 C 127.58 0.00889169 -1.69398 0
M  V30 1315 O 128.786 -0.146988 -1.79399 0
M  V30 1316 H 125.161 -0.326248 -0.677544 0
M  V30 1317 H 127.132 -2.00932 -2.2061 0
M  V30 1318 C 125.881 -0.700145 -3.40578 0
M  V30 1319 H 125.204 -1.51537 -3.69968 0
M  V30 1320 H 126.644 -0.603211 -4.19687 0
M  V30 1321 C 125.103 0.59403 -3.31622 0
M  V30 1322 O 125.633 1.63522 -3.66911 0
M  V30 1323 N 123.839 0.58089 -2.84735 0
M  V30 1324 H 123.386 -0.266783 -2.56215 0
M  V30 1325 H 123.344 1.44695 -2.79125 0
M  V30 1326 N 127.117 1.15442 -1.07289 0
M  V30 1327 C 128.049 2.19773 -0.650585 0
M  V30 1328 C 129.062 1.60076 0.296572 0
M  V30 1329 O 130.251 1.78293 0.0859905 0
M  V30 1330 C 127.351 3.38838 0.0650398 0
M  V30 1331 C 126.524 4.2808 -0.898141 0
M  V30 1332 C 125.583 5.2574 -0.219926 0
M  V30 1333 O 124.609 5.62654 -0.860773 0
M  V30 1334 N 125.811 5.71205 1.03466 0
M  V30 1335 H 128.576 2.56622 -1.54808 0
M  V30 1336 H 126.137 1.30551 -0.957494 0
M  V30 1337 H 128.129 4.01222 0.529415 0
M  V30 1338 H 126.699 3.00409 0.864466 0
M  V30 1339 H 125.919 3.62804 -1.54165 0
M  V30 1340 H 127.207 4.84577 -1.5512 0
M  V30 1341 H 126.605 5.43325 1.57526 0
M  V30 1342 H 125.162 6.35633 1.44272 0
M  V30 1343 N 128.595 0.856903 1.32268 0
M  V30 1344 C 129.542 0.301172 2.28827 0
M  V30 1345 C 130.512 -0.593104 1.5515 0
M  V30 1346 O 131.697 -0.527537 1.83362 0
M  V30 1347 C 128.837 -0.502523 3.41422 0
M  V30 1348 C 127.95 0.417797 4.29975 0
M  V30 1349 C 127.085 -0.398749 5.29701 0
M  V30 1350 C 126.124 0.518827 6.09897 0
M  V30 1351 N 125.261 -0.260674 7.01616 0
M  V30 1352 H 130.101 1.12983 2.75751 0
M  V30 1353 H 127.638 0.568582 1.35667 0
M  V30 1354 H 129.596 -0.984141 4.05426 0
M  V30 1355 H 128.226 -1.29599 2.95642 0
M  V30 1356 H 127.278 1.01781 3.66531 0
M  V30 1357 H 128.59 1.12191 4.86019 0
M  V30 1358 H 127.744 -0.943435 5.9932 0
M  V30 1359 H 126.483 -1.13622 4.7428 0
M  V30 1360 H 125.488 1.07538 5.39181 0
M  V30 1361 H 126.713 1.25495 6.67404 0
M  V30 1362 H 124.659 -0.981198 6.4862 0
M  V30 1363 H 124.576 0.384364 7.55022 0
M  V30 1364 H 125.844 -0.787014 7.75517 0
M  V30 1365 N 130.073 -1.45103 0.615059 0
M  V30 1366 C 130.983 -2.34382 -0.101034 0
M  V30 1367 C 131.999 -1.51681 -0.852585 0
M  V30 1368 O 133.175 -1.8446 -0.808484 0
M  V30 1369 C 130.24 -3.29417 -1.08099 0
M  V30 1370 C 129.301 -4.28025 -0.330577 0
M  V30 1371 C 128.534 -5.1852 -1.26385 0
M  V30 1372 O 128.757 -5.12598 -2.50198 0
M  V30 1373 O 127.691 -5.97122 -0.756866 0
M  V30 1374 H 131.517 -2.97033 0.632855 0
M  V30 1375 H 129.102 -1.4461 0.375293 0
M  V30 1376 H 130.984 -3.87958 -1.6452 0
M  V30 1377 H 129.659 -2.69321 -1.79577 0
M  V30 1378 H 128.566 -3.73078 0.276283 0
M  V30 1379 H 129.899 -4.90997 0.343866 0
M  V30 1380 N 131.551 -0.354651 -1.53558 0
M  V30 1381 C 132.499 0.512195 -2.26891 0
M  V30 1382 C 133.493 1.09263 -1.29452 0
M  V30 1383 O 134.699 1.03709 -1.47121 0
M  V30 1384 H 131.074 0.183878 -0.729173 0
M  V30 1385 H 133.045 -0.128202 -2.98124 0
M  V30 1386 C 131.794 1.64563 -3.06291 0
M  V30 1387 H 131.117 1.20829 -3.81104 0
M  V30 1388 H 132.557 2.22711 -3.60799 0
M  V30 1389 C 131.016 2.58158 -2.16462 0
M  V30 1390 O 131.546 3.60695 -1.76811 0
M  V30 1391 N 129.752 2.27096 -1.81317 0
M  V30 1392 H 129.299 1.43751 -2.1376 0
M  V30 1393 H 129.257 2.89975 -1.21498 0
M  V30 1394 N 133.029 1.57378 -0.0835403 0
M  V30 1395 C 133.992 2.12252 0.864959 0
M  V30 1396 C 134.992 1.04916 1.21858 0
M  V30 1397 O 136.182 1.30853 1.14991 0
M  V30 1398 C 133.314 2.63358 2.16461 0
M  V30 1399 H 134.507 2.97371 0.388676 0
M  V30 1400 H 132.06 1.55423 0.165317 0
M  V30 1401 H 132.795 1.81727 2.686 0
M  V30 1402 H 132.58 3.41826 1.92087 0
M  V30 1403 H 134.07 3.05847 2.84337 0
M  V30 1404 N 134.507 -0.190092 1.56449 0
M  V30 1405 C 135.439 -1.25973 1.91477 0
M  V30 1406 C 136.452 -1.41452 0.805931 0
M  V30 1407 O 137.641 -1.41789 1.08435 0
M  V30 1408 C 134.741 -2.63117 2.13594 0
M  V30 1409 C 133.914 -2.69182 3.4476 0
M  V30 1410 C 132.973 -3.87557 3.5593 0
M  V30 1411 O 131.999 -3.74427 4.28711 0
M  V30 1412 N 133.201 -5.03224 2.89388 0
M  V30 1413 H 135.966 -0.962394 2.83828 0
M  V30 1414 H 133.527 -0.379981 1.57378 0
M  V30 1415 H 135.519 -3.40742 2.1835 0
M  V30 1416 H 134.089 -2.85319 1.27719 0
M  V30 1417 H 133.309 -1.77793 3.51828 0
M  V30 1418 H 134.597 -2.70229 4.31107 0
M  V30 1419 H 133.995 -5.16791 2.30094 0
M  V30 1420 H 132.552 -5.78778 2.99764 0
M  V30 1421 N 135.985 -1.50799 -0.457987 0
M  V30 1422 C 136.895 -1.73426 -1.57989 0
M  V30 1423 C 137.911 -0.617745 -1.62665 0
M  V30 1424 O 139.087 -0.897614 -1.80291 0
M  V30 1425 C 136.152 -1.83557 -2.94122 0
M  V30 1426 C 135.213 -3.07345 -2.99729 0
M  V30 1427 C 134.446 -3.16983 -4.29368 0
M  V30 1428 O 134.669 -2.33077 -5.20607 0
M  V30 1429 O 133.603 -4.09812 -4.40837 0
M  V30 1430 H 137.429 -2.68555 -1.41817 0
M  V30 1431 H 135.014 -1.35052 -0.638859 0
M  V30 1432 H 136.896 -1.92326 -3.74952 0
M  V30 1433 H 135.571 -0.916137 -3.10465 0
M  V30 1434 H 134.478 -3.04068 -2.1793 0
M  V30 1435 H 135.811 -3.9891 -2.88326 0
M  V30 1436 N 137.463 0.71206 -1.40597 0
M  V30 1437 C 138.711 1.46907 -1.38791 0
M  V30 1438 C 139.032 1.94998 0.00780391 0
M  V30 1439 O 138.302 1.70587 0.963174 0
M  V30 1440 H 136.882 0.545043 -0.51082 0
M  V30 1441 H 139.544 0.843882 -1.75683 0
M  V30 1442 H 138.64 2.34021 -2.06496 0
M  V30 1443 N 138.941 1.26152 0.944643 0
M  V30 1444 C 140.352 1.10454 1.50522 0
M  V30 1445 C 140.703 -0.31635 1.93633 0
M  V30 1446 O 139.828 -1.20746 1.79581 0
M  V30 1447 C 140.423 1.99891 2.73549 0
M  V30 1448 C 138.982 1.88348 3.25886 0
M  V30 1449 C 138.129 1.93447 1.9868 0
M  V30 1450 H 141.08 1.39292 0.760489 0
M  V30 1451 H 141.101 1.54477 3.47732 0
M  V30 1452 H 140.613 3.03297 2.42141 0
M  V30 1453 H 138.714 0.878636 3.62092 0
M  V30 1454 H 138.827 2.73696 3.93227 0
M  V30 1455 H 137.191 1.37456 2.14425 0
M  V30 1456 H 137.974 2.98476 1.69607 0
M  V30 1457 N 140.419 -1.14872 1.07899 0
M  V30 1458 C 141.668 -1.85135 0.800499 0
M  V30 1459 C 141.981 -1.83547 -0.676014 0
M  V30 1460 O 143.187 -2.49548 -1.06948 0
M  V30 1461 C 141.643 -3.3231 1.38197 0
M  V30 1462 C 141.251 -3.42329 2.8899 0
M  V30 1463 C 142.995 -4.0772 1.18174 0
M  V30 1464 C 140.902 -4.83684 3.403 0
M  V30 1465 H 139.832 -0.693563 0.29578 0
M  V30 1466 H 142.483 -1.29532 1.29976 0
M  V30 1467 H 140.865 -3.87618 0.810431 0
M  V30 1468 H 142.039 -2.97097 3.52236 0
M  V30 1469 H 140.354 -2.80369 3.07867 0
M  V30 1470 H 142.951 -5.12049 1.5398 0
M  V30 1471 H 143.294 -4.16124 0.12117 0
M  V30 1472 H 143.827 -3.58696 1.71994 0
M  V30 1473 H 140.566 -4.80465 4.45907 0
M  V30 1474 H 140.086 -5.29474 2.81811 0
M  V30 1475 H 141.765 -5.52558 3.36584 0
M  V30 1476 N 141.898 -0.863906 -1.31812 0
M  V30 1477 C 143.145 -0.471836 -1.96926 0
M  V30 1478 C 143.473 0.974578 -1.68322 0
M  V30 1479 O 142.728 1.7003 -0.968933 0
M  V30 1480 C 143.027 -0.668547 -3.51091 0
M  V30 1481 C 142.693 -2.08683 -3.99703 0
M  V30 1482 C 141.355 -2.47471 -4.12688 0
M  V30 1483 C 143.707 -3.01207 -4.25351 0
M  V30 1484 C 141.035 -3.78037 -4.4867 0
M  V30 1485 C 143.387 -4.31282 -4.62794 0
M  V30 1486 C 142.051 -4.69992 -4.73987 0
M  V30 1487 H 141.321 -0.172657 -0.720604 0
M  V30 1488 H 143.968 -1.09573 -1.57054 0
M  V30 1489 H 142.273 0.0385252 -3.91781 0
M  V30 1490 H 143.97 -0.345102 -3.99512 0
M  V30 1491 H 140.56 -1.77566 -3.90087 0
M  V30 1492 H 144.744 -2.72469 -4.14819 0
M  V30 1493 H 140 -4.078 -4.55532 0
M  V30 1494 H 144.174 -5.03031 -4.81594 0
M  V30 1495 H 141.801 -5.71207 -5.01624 0
M  V30 1496 N 143.376 1.44774 -0.622745 0
M  V30 1497 C 144.623 2.02121 -0.1239 0
M  V30 1498 C 144.951 1.48915 1.25118 0
M  V30 1499 O 144.206 0.660045 1.84233 0
M  V30 1500 C 144.505 3.57364 -0.0508323 0
M  V30 1501 C 144.171 4.29787 -1.36358 0
M  V30 1502 C 142.833 4.4929 -1.72314 0
M  V30 1503 C 145.185 4.71062 -2.23048 0
M  V30 1504 C 142.513 5.07325 -2.94682 0
M  V30 1505 C 144.865 5.30452 -3.44679 0
M  V30 1506 C 143.529 5.48175 -3.80868 0
M  V30 1507 H 142.799 0.739612 -0.0453381 0
M  V30 1508 H 145.446 1.73648 -0.807389 0
M  V30 1509 H 143.751 3.85202 0.715991 0
M  V30 1510 H 145.448 3.99456 0.351533 0
M  V30 1511 H 142.038 4.14932 -1.07375 0
M  V30 1512 H 146.222 4.55715 -1.96565 0
M  V30 1513 H 141.478 5.19235 -3.22809 0
M  V30 1514 H 145.652 5.61385 -4.12092 0
M  V30 1515 H 143.279 5.92912 -4.75773 0
M  V30 1516 N 144.854 0.36279 1.53368 0
M  V30 1517 C 146.079 -0.231226 2.06107 0
M  V30 1518 C 146.504 -1.419 1.23474 0
M  V30 1519 O 145.862 -1.79524 0.253128 0
M  V30 1520 C 145.91 -0.605523 3.5548 0
M  V30 1521 O 145.014 -1.70312 3.7559 0
M  V30 1522 H 144.355 -0.034327 0.663112 0
M  V30 1523 H 146.885 0.522584 1.97814 0
M  V30 1524 H 146.895 -0.877314 3.98456 0
M  V30 1525 H 145.57 0.263004 4.15068 0
M  V30 1526 H 144.147 -1.4271 3.44512 0
M  V30 1527 N 146.332 -1.57332 0.0918853 0
M  V30 1528 C 147.581 -1.93412 -0.572249 0
M  V30 1529 C 147.894 -0.975515 -1.69538 0
M  V30 1530 O 149.1 -1.22991 -2.42045 0
M  V30 1531 C 147.556 -3.43648 -1.0693 0
M  V30 1532 C 147.164 -4.47994 0.0239049 0
M  V30 1533 C 148.908 -3.88695 -1.70635 0
M  V30 1534 C 146.815 -5.89381 -0.488319 0
M  V30 1535 H 145.745 -0.721939 -0.217532 0
M  V30 1536 H 148.396 -1.82735 0.167369 0
M  V30 1537 H 146.778 -3.49466 -1.8625 0
M  V30 1538 H 147.952 -4.53815 0.799277 0
M  V30 1539 H 146.267 -4.12536 0.565946 0
M  V30 1540 H 148.864 -4.91725 -2.10025 0
M  V30 1541 H 149.207 -3.27166 -2.57426 0
M  V30 1542 H 149.74 -3.85564 -0.979023 0
M  V30 1543 H 146.479 -6.54602 0.342906 0
M  V30 1544 H 145.999 -5.87037 -1.23077 0
M  V30 1545 H 147.678 -6.39863 -0.958317 0
M  V30 1546 N 147.81 0.181792 -1.56548 0
M  V30 1547 C 148.773 1.20894 -1.94724 0
M  V30 1548 C 149.773 1.37738 -0.829747 0
M  V30 1549 O 150.963 1.35323 -1.09697 0
M  V30 1550 C 148.095 2.57593 -2.23291 0
M  V30 1551 H 149.288 0.882275 -2.86629 0
M  V30 1552 H 146.841 0.423838 -1.50444 0
M  V30 1553 H 147.576 2.95291 -1.34067 0
M  V30 1554 H 147.361 2.46735 -3.04736 0
M  V30 1555 H 148.851 3.31637 -2.53785 0
M  V30 1556 N 149.288 1.51039 0.449983 0
M  V30 1557 C 150.536 1.62759 1.19808 0
M  V30 1558 C 150.857 0.339981 1.92013 0
M  V30 1559 O 150.127 -0.643606 1.85026 0
M  V30 1560 H 148.707 0.599811 0.445237 0
M  V30 1561 H 151.369 1.87914 0.517138 0
M  V30 1562 H 150.465 2.44911 1.93455 0
M  V30 1563 N 150.766 -0.704594 1.40972 0
M  V30 1564 C 151.699 -1.82861 1.36518 0
M  V30 1565 C 152.677 -1.6091 0.23382 0
M  V30 1566 O 153.861 -1.83778 0.419271 0
M  V30 1567 C 150.988 -3.1939 1.12729 0
M  V30 1568 C 150.034 -3.60148 2.28463 0
M  V30 1569 S 150.867 -3.65994 3.90907 0
M  V30 1570 C 152.023 -5.05264 3.69403 0
M  V30 1571 H 152.256 -1.86361 2.3164 0
M  V30 1572 H 149.789 -0.872439 1.27389 0
M  V30 1573 H 151.747 -3.98211 0.996893 0
M  V30 1574 H 150.408 -3.1351 0.192427 0
M  V30 1575 H 149.601 -4.59309 2.07489 0
M  V30 1576 H 149.203 -2.88612 2.37863 0
M  V30 1577 H 151.495 -5.92504 3.28551 0
M  V30 1578 H 152.438 -5.31278 4.68134 0
M  V30 1579 H 152.846 -4.76377 3.02862 0
M  V30 1580 N 152.244 -1.26651 -0.937939 0
M  V30 1581 C 153.469 -1.15279 -1.72411 0
M  V30 1582 C 153.894 0.287866 -1.85884 0
M  V30 1583 O 153.252 1.20855 -1.35143 0
M  V30 1584 C 153.3 -1.83028 -3.10698 0
M  V30 1585 O 152.404 -1.12128 -3.96864 0
M  V30 1586 H 151.745 -0.401504 -0.528858 0
M  V30 1587 H 154.275 -1.67531 -1.1745 0
M  V30 1588 H 154.285 -1.89981 -3.6107 0
M  V30 1589 H 152.96 -2.87833 -3.00208 0
M  V30 1590 H 151.537 -1.13173 -3.55312 0
M  V30 1591 N 153.722 1.14298 -1.08507 0
M  V30 1592 C 154.685 2.17607 -0.719711 0
M  V30 1593 C 155.685 1.58907 0.245997 0
M  V30 1594 O 156.875 1.74181 0.0254081 0
M  V30 1595 C 154.007 3.40842 -0.0627695 0
M  V30 1596 H 155.2 2.51443 -1.63452 0
M  V30 1597 H 152.753 1.28963 -0.88307 0
M  V30 1598 H 153.488 3.12587 0.863716 0
M  V30 1599 H 153.273 3.84713 -0.757504 0
M  V30 1600 H 154.763 4.17221 0.177786 0
M  V30 1601 N 155.201 0.870884 1.31352 0
M  V30 1602 C 156.164 0.332243 2.26779 0
M  V30 1603 C 157.164 -0.517302 1.52252 0
M  V30 1604 O 158.354 -0.326477 1.71113 0
M  V30 1605 C 155.486 -0.528066 3.36785 0
M  V30 1606 H 156.679 1.17469 2.75937 0
M  V30 1607 H 154.232 0.64655 1.423 0
M  V30 1608 H 154.967 -1.39167 2.92922 0
M  V30 1609 H 154.752 0.0802582 3.92018 0
M  V30 1610 H 156.242 -0.897179 4.07849 0
M  V30 1611 N 156.679 -1.44442 0.630414 0
M  V30 1612 C 157.589 -2.34476 -0.0761693 0
M  V30 1613 C 158.605 -1.52576 -0.836449 0
M  V30 1614 O 159.781 -1.85307 -0.788874 0
M  V30 1615 C 156.846 -3.30545 -1.04599 0
M  V30 1616 C 155.907 -4.28352 -0.28516 0
M  V30 1617 C 155.14 -5.19831 -1.20878 0
M  V30 1618 O 155.363 -5.15223 -2.44747 0
M  V30 1619 O 154.297 -5.97892 -0.693491 0
M  V30 1620 H 158.123 -2.96345 0.664324 0
M  V30 1621 H 155.708 -1.44203 0.39061 0
M  V30 1622 H 157.59 -3.89681 -1.60396 0
M  V30 1623 H 156.265 -2.7121 -1.76711 0
M  V30 1624 H 155.172 -3.72764 0.315837 0
M  V30 1625 H 156.505 -4.90605 0.395924 0
M  V30 1626 N 158.157 -0.370918 -1.53173 0
M  V30 1627 C 159.105 0.488101 -2.27421 0
M  V30 1628 C 160.099 1.07884 -1.30604 0
M  V30 1629 O 161.305 1.02143 -1.48212 0
M  V30 1630 H 157.68 0.176134 -0.731082 0
M  V30 1631 H 159.651 -0.159815 -2.97972 0
M  V30 1632 C 158.4 1.61306 -3.08019 0
M  V30 1633 H 157.723 1.1678 -3.82364 0
M  V30 1634 H 159.163 2.18872 -3.63141 0
M  V30 1635 C 157.622 2.55848 -2.19188 0
M  V30 1636 O 158.152 3.58799 -1.80626 0
M  V30 1637 N 156.358 2.2516 -1.83715 0
M  V30 1638 H 155.905 1.41476 -2.15273 0
M  V30 1639 H 155.863 2.8867 -1.24567 0
M  V30 1640 N 159.635 1.57281 -0.100228 0
M  V30 1641 C 160.884 1.93713 0.561984 0
M  V30 1642 C 161.197 0.984492 1.69018 0
M  V30 1643 O 162.403 1.24273 2.41389 0
M  V30 1644 C 160.859 3.4421 1.05106 0
M  V30 1645 C 160.467 4.47975 -0.0476628 0
M  V30 1646 C 162.211 3.89595 1.68571 0
M  V30 1647 C 160.118 5.89631 0.457055 0
M  V30 1648 H 159.048 0.723082 0.2137 0
M  V30 1649 H 161.699 1.82644 -0.177057 0
M  V30 1650 H 160.081 3.50449 1.84395 0
M  V30 1651 H 161.255 4.53385 -0.823333 0
M  V30 1652 H 159.57 4.1223 -0.587816 0
M  V30 1653 H 162.167 4.92832 2.07414 0
M  V30 1654 H 162.51 3.28526 2.55688 0
M  V30 1655 H 163.043 3.86078 0.958562 0
M  V30 1656 H 159.782 6.54411 -0.377616 0
M  V30 1657 H 159.302 5.87681 1.19962 0
M  V30 1658 H 160.981 6.40363 0.92437 0
M  V30 1659 N 161.113 -0.173488 1.56642 0
M  V30 1660 C 162.076 -1.19859 1.95362 0
M  V30 1661 C 163.076 -1.37296 0.83704 0
M  V30 1662 O 164.266 -1.34739 1.10413 0
M  V30 1663 C 161.398 -2.56405 2.24654 0
M  V30 1664 H 162.591 -0.867062 2.87092 0
M  V30 1665 H 160.144 -0.415853 1.50666 0
M  V30 1666 H 160.879 -2.94576 1.35631 0
M  V30 1667 H 160.664 -2.45115 3.06041 0
M  V30 1668 H 162.154 -3.30287 2.5554 0
M  V30 1669 N 162.591 -1.51276 -0.441967 0
M  V30 1670 C 163.524 -1.66933 -1.55591 0
M  V30 1671 C 164.502 -0.516958 -1.54163 0
M  V30 1672 O 165.686 -0.740209 -1.73358 0
M  V30 1673 C 162.813 -1.67866 -2.94174 0
M  V30 1674 C 161.859 -2.89013 -3.13646 0
M  V30 1675 S 162.692 -4.49897 -2.90436 0
M  V30 1676 C 163.848 -4.53568 -4.31308 0
M  V30 1677 H 164.081 -2.61155 -1.42076 0
M  V30 1678 H 161.614 -1.40902 -0.631341 0
M  V30 1679 H 163.572 -1.69089 -3.74058 0
M  V30 1680 H 162.233 -0.748296 -3.05056 0
M  V30 1681 H 161.426 -2.86054 -4.14957 0
M  V30 1682 H 161.028 -2.85509 -2.4158 0
M  V30 1683 H 163.32 -4.28924 -5.24434 0
M  V30 1684 H 164.263 -5.55355 -4.39303 0
M  V30 1685 H 164.671 -3.82943 -4.14747 0
M  V30 1686 N 164.069 0.697108 -1.41344 0
M  V30 1687 C 164.999 1.82353 -1.45841 0
M  V30 1688 C 165.98 1.67115 -0.317247 0
M  V30 1689 O 167.165 1.86871 -0.528474 0
M  V30 1690 C 164.295 3.20476 -1.33838 0
M  V30 1691 C 163.249 3.50415 -2.4575 0
M  V30 1692 C 162.575 4.87878 -2.18813 0
M  V30 1693 C 163.875 3.49546 -3.88091 0
M  V30 1694 H 165.569 1.78846 -2.40113 0
M  V30 1695 H 163.115 0.859028 -1.15571 0
M  V30 1696 H 165.068 3.98988 -1.35596 0
M  V30 1697 H 163.792 3.24604 -0.360498 0
M  V30 1698 H 162.451 2.74253 -2.43271 0
M  V30 1699 H 162.099 4.8863 -1.19371 0
M  V30 1700 H 161.799 5.08875 -2.93803 0
M  V30 1701 H 163.323 5.68702 -2.22284 0
M  V30 1702 H 164.737 4.18066 -3.92293 0
M  V30 1703 H 163.134 3.82075 -4.62751 0
M  V30 1704 H 164.204 2.48552 -4.16353 0
M  V30 1705 N 165.547 1.27147 0.931209 0
M  V30 1706 C 166.494 1.09568 2.03134 0
M  V30 1707 C 167.464 -0.00222433 1.661 0
M  V30 1708 O 168.649 0.159439 1.90133 0
M  V30 1709 C 165.789 0.745231 3.36957 0
M  V30 1710 C 164.902 1.92041 3.86968 0
M  V30 1711 C 164.037 1.51216 5.09222 0
M  V30 1712 C 163.076 2.65504 5.5152 0
M  V30 1713 N 162.213 2.25291 6.64972 0
M  V30 1714 H 167.053 2.03708 2.17502 0
M  V30 1715 H 164.59 1.01411 1.06556 0
M  V30 1716 H 166.548 0.522878 4.1391 0
M  V30 1717 H 165.178 -0.159202 3.22407 0
M  V30 1718 H 164.23 2.25541 3.06326 0
M  V30 1719 H 165.542 2.77787 4.1429 0
M  V30 1720 H 164.696 1.25084 5.93666 0
M  V30 1721 H 163.435 0.625749 4.83669 0
M  V30 1722 H 162.44 2.92354 4.65628 0
M  V30 1723 H 163.665 3.54761 5.7907 0
M  V30 1724 H 161.611 1.39098 6.41083 0
M  V30 1725 H 161.528 3.04577 6.91931 0
M  V30 1726 H 162.796 2.02398 7.52765 0
M  V30 1727 N 167.025 -1.13721 1.09112 0
M  V30 1728 C 167.972 -2.19031 0.727591 0
M  V30 1729 C 168.942 -1.63555 -0.289656 0
M  V30 1730 O 170.127 -1.90023 -0.172026 0
M  V30 1731 C 167.267 -3.4477 0.15082 0
M  V30 1732 C 166.38 -4.14365 1.22172 0
M  V30 1733 C 165.515 -5.27709 0.608042 0
M  V30 1734 C 164.554 -5.89147 1.66047 0
M  V30 1735 N 163.691 -6.93929 1.06806 0
M  V30 1736 H 168.531 -2.49475 1.62991 0
M  V30 1737 H 166.068 -1.22499 0.81439 0
M  V30 1738 H 168.026 -4.16714 -0.201358 0
M  V30 1739 H 166.656 -3.14787 -0.714783 0
M  V30 1740 H 165.708 -3.40737 1.69122 0
M  V30 1741 H 167.02 -4.56114 2.01895 0
M  V30 1742 H 166.174 -6.06355 0.204523 0
M  V30 1743 H 164.913 -4.872 -0.220769 0
M  V30 1744 H 163.918 -5.09198 2.07357 0
M  V30 1745 H 165.143 -6.31729 2.49189 0
M  V30 1746 H 163.089 -6.55483 0.260476 0
M  V30 1747 H 163.006 -7.34202 1.8023 0
M  V30 1748 H 164.274 -7.76434 0.690644 0
M  V30 1749 N 168.503 -0.877838 -1.30888 0
M  V30 1750 C 169.752 -0.488793 -1.95688 0
M  V30 1751 C 170.065 0.965485 -1.70111 0
M  V30 1752 O 171.271 1.46104 -2.28836 0
M  V30 1753 C 169.727 -0.823201 -3.50359 0
M  V30 1754 C 169.335 -2.29477 -3.84765 0
M  V30 1755 C 171.079 -0.503009 -4.21509 0
M  V30 1756 C 168.986 -2.57118 -5.32583 0
M  V30 1757 H 167.916 -0.179062 -0.732429 0
M  V30 1758 H 170.567 -1.07183 -1.48943 0
M  V30 1759 H 168.949 -0.169331 -3.95638 0
M  V30 1760 H 170.123 -2.99236 -3.5042 0
M  V30 1761 H 168.438 -2.58178 -3.267 0
M  V30 1762 H 171.035 -0.68665 -5.30273 0
M  V30 1763 H 171.378 0.557109 -4.12555 0
M  V30 1764 H 171.911 -1.11376 -3.8189 0
M  V30 1765 H 168.65 -3.61843 -5.4658 0
M  V30 1766 H 168.17 -1.91961 -5.68253 0
M  V30 1767 H 169.849 -2.42251 -5.99936 0
M  V30 1768 N 169.982 1.44106 -0.638065 0
M  V30 1769 C 170.914 2.28976 0.101205 0
M  V30 1770 C 171.927 1.4167 0.802088 0
M  V30 1771 O 173.116 1.65755 0.662375 0
M  V30 1772 C 170.216 3.18217 1.16581 0
M  V30 1773 C 169.389 4.33978 0.546066 0
M  V30 1774 C 168.448 5.04202 1.50554 0
M  V30 1775 O 167.474 5.59986 1.01999 0
M  V30 1776 N 168.676 5.06296 2.8398 0
M  V30 1777 H 171.441 2.93064 -0.627186 0
M  V30 1778 H 169.002 1.54629 -0.479731 0
M  V30 1779 H 170.994 3.62061 1.80815 0
M  V30 1780 H 169.564 2.55833 1.79634 0
M  V30 1781 H 168.784 3.93239 -0.275046 0
M  V30 1782 H 170.072 5.08675 0.112793 0
M  V30 1783 H 169.47 4.62319 3.26002 0
M  V30 1784 H 168.027 5.53907 3.43556 0
M  V30 1785 N 171.46 0.379036 1.52974 0
M  V30 1786 C 172.37 -0.468639 2.29872 0
M  V30 1787 C 173.386 -1.08067 1.36373 0
M  V30 1788 O 174.562 -1.08871 1.69438 0
M  V30 1789 C 171.627 -1.58594 3.083 0
M  V30 1790 C 170.688 -1.00007 4.17489 0
M  V30 1791 C 169.921 -2.06413 4.92168 0
M  V30 1792 O 170.144 -3.27751 4.66835 0
M  V30 1793 O 169.078 -1.68717 5.7777 0
M  V30 1794 H 172.904 0.157508 3.03291 0
M  V30 1795 H 170.489 0.143035 1.48714 0
M  V30 1796 H 172.371 -2.23525 3.57232 0
M  V30 1797 H 171.046 -2.19724 2.37703 0
M  V30 1798 H 169.953 -0.314299 3.72777 0
M  V30 1799 H 171.286 -0.433135 4.90291 0
M  V30 1800 N 172.938 -1.57226 0.108567 0
M  V30 1801 C 174.163 -1.99604 -0.563303 0
M  V30 1802 C 174.588 -0.987563 -1.6009 0
M  V30 1803 O 173.946 0.0421687 -1.81251 0
M  V30 1804 C 173.994 -3.40902 -1.17552 0
M  V30 1805 O 173.098 -3.42896 -2.2912 0
M  V30 1806 H 172.439 -0.648704 -0.1417 0
M  V30 1807 H 174.969 -2.03679 0.193961 0
M  V30 1808 H 174.979 -3.78886 -1.51357 0
M  V30 1809 H 173.654 -4.1382 -0.415445 0
M  V30 1810 H 172.231 -3.1672 -1.96832 0
M  V30 1811 N 174.416 0.165178 -1.56732 0
M  V30 1812 C 175.693 0.908443 -1.73224 0
M  V30 1813 C 176.073 2.0013 -0.67165 0
M  V30 1814 O 175.421 2.26353 0.31253 0
M  V30 1815 C 175.631 1.46756 -3.16644 0
M  V30 1816 C 176.979 1.93809 -3.77787 0
M  V30 1817 O 178.003 1.56537 -3.1996 0
M  V30 1818 O 176.862 2.62486 -4.79336 0
M  V30 1819 H 173.956 0.428025 -0.707618 0
M  V30 1820 H 176.502 0.152526 -1.69013 0
M  V30 1821 H 175.274 0.68129 -3.85323 0
M  V30 1822 H 174.897 2.28749 -3.25207 0
M  V30 1823 N 175.894 1.51508 0.433938 0
M  V30 1824 C 177.141 1.64345 1.18309 0
M  V30 1825 C 177.469 0.361315 1.91115 0
M  V30 1826 O 176.724 -0.654753 1.84422 0
M  V30 1827 C 177.023 2.79928 2.22205 0
M  V30 1828 C 176.689 4.19078 1.66387 0
M  V30 1829 C 175.351 4.56932 1.50887 0
M  V30 1830 C 177.703 5.05894 1.25381 0
M  V30 1831 C 175.031 5.79305 0.928608 0
M  V30 1832 C 177.383 6.2885 0.687823 0
M  V30 1833 C 176.047 6.65473 0.519755 0
M  V30 1834 H 175.317 0.601381 0.432923 0
M  V30 1835 H 177.964 1.85549 0.473676 0
M  V30 1836 H 176.269 2.52959 2.99197 0
M  V30 1837 H 177.966 2.87059 2.79997 0
M  V30 1838 H 174.556 3.89234 1.79428 0
M  V30 1839 H 178.74 4.77253 1.36175 0
M  V30 1840 H 173.996 6.06324 0.786186 0
M  V30 1841 H 178.17 6.95461 0.361581 0
M  V30 1842 H 175.797 7.6017 0.0679979 0
M  V30 1843 N 177.372 -0.689602 1.41712 0
M  V30 1844 C 178.597 -1.48329 1.44959 0
M  V30 1845 C 179.022 -1.8801 0.0581283 0
M  V30 1846 O 178.38 -1.55026 -0.940035 0
M  V30 1847 C 178.428 -2.71835 2.36935 0
M  V30 1848 O 177.532 -3.69549 1.8305 0
M  V30 1849 H 176.873 -0.446199 0.491734 0
M  V30 1850 H 179.403 -0.847127 1.86239 0
M  V30 1851 H 179.413 -3.20076 2.53013 0
M  V30 1852 H 178.088 -2.42291 3.38035 0
M  V30 1853 H 176.665 -3.2851 1.76452 0
M  V30 1854 N 178.85 -1.27639 -0.924453 0
M  V30 1855 C 180.098 -1.13941 -1.66918 0
M  V30 1856 C 180.419 0.314589 -1.92446 0
M  V30 1857 O 179.689 1.21964 -1.53303 0
M  V30 1858 H 178.269 -0.418678 -0.618642 0
M  V30 1859 H 180.931 -1.60213 -1.10985 0
M  V30 1860 H 180.027 -1.67094 -2.63602 0
M  V30 1861 N 180.328 1.1314 -1.09713 0
M  V30 1862 C 181.577 1.83838 -0.829851 0
M  V30 1863 C 181.89 1.84599 0.646728 0
M  V30 1864 O 183.096 2.51218 1.02965 0
M  V30 1865 C 181.552 3.30069 -1.43466 0
M  V30 1866 C 181.16 3.37688 -2.94399 0
M  V30 1867 C 182.904 4.05788 -1.24645 0
M  V30 1868 C 180.811 4.78209 -3.47952 0
M  V30 1869 H 179.741 0.68877 -0.306777 0
M  V30 1870 H 182.392 1.27448 -1.3202 0
M  V30 1871 H 180.774 3.8628 -0.871996 0
M  V30 1872 H 181.948 2.91456 -3.56918 0
M  V30 1873 H 180.263 2.75436 -3.12289 0
M  V30 1874 H 182.86 5.09535 -1.62107 0
M  V30 1875 H 183.203 4.15878 -0.187357 0
M  V30 1876 H 183.736 3.55915 -1.77678 0
M  V30 1877 H 180.475 4.73311 -4.53495 0
M  V30 1878 H 179.995 5.24924 -2.90198 0
M  V30 1879 H 181.674 5.47133 -3.45332 0
M  V30 1880 N 181.806 0.884767 1.30421 0
M  V30 1881 C 183.034 0.518044 2.0031 0
M  V30 1882 C 183.449 -0.893408 1.66324 0
M  V30 1883 O 182.806 -1.5875 0.900262 0
M  V30 1884 C 182.857 0.682997 3.54989 0
M  V30 1885 O 182.578 2.03888 3.87764 0
M  V30 1886 C 184.079 0.31924 4.42149 0
M  V30 1887 H 181.299 0.200265 0.640418 0
M  V30 1888 H 183.843 1.19001 1.6631 0
M  V30 1889 H 181.998 0.0584052 3.87356 0
M  V30 1890 H 182.412 2.05735 4.82466 0
M  V30 1891 H 183.886 0.485555 5.4986 0
M  V30 1892 H 184.363 -0.742717 4.32875 0
M  V30 1893 H 184.969 0.920147 4.15227 0
M  V30 1894 N 183.284 -1.43765 0.645699 0
M  V30 1895 C 184.194 -2.34544 -0.0512957 0
M  V30 1896 C 185.21 -1.53455 -0.82022 0
M  V30 1897 O 186.386 -1.86133 -0.769176 0
M  V30 1898 C 183.451 -3.31636 -1.01087 0
M  V30 1899 C 182.512 -4.2863 -0.239712 0
M  V30 1900 C 181.745 -5.21084 -1.15358 0
M  V30 1901 O 181.968 -5.1779 -2.39269 0
M  V30 1902 O 180.902 -5.98593 -0.630038 0
M  V30 1903 H 184.728 -2.95624 0.695718 0
M  V30 1904 H 182.313 -1.43781 0.405882 0
M  V30 1905 H 184.195 -3.9136 -1.56254 0
M  V30 1906 H 182.87 -2.73069 -1.73824 0
M  V30 1907 H 181.777 -3.72408 0.355356 0
M  V30 1908 H 183.11 -4.90157 0.447936 0
M  V30 1909 N 184.763 -0.387143 -1.52771 0
M  V30 1910 C 185.693 0.440551 -2.29306 0
M  V30 1911 C 186.674 1.06535 -1.32606 0
M  V30 1912 O 187.859 1.07853 -1.61497 0
M  V30 1913 C 184.989 1.56919 -3.09829 0
M  V30 1914 C 183.943 1.07054 -4.14395 0
M  V30 1915 C 183.269 2.29109 -4.83129 0
M  V30 1916 C 184.569 0.140015 -5.22112 0
M  V30 1917 H 186.263 -0.198026 -2.98744 0
M  V30 1918 H 183.809 -0.09668 -1.43675 0
M  V30 1919 H 185.762 2.15503 -3.62128 0
M  V30 1920 H 184.486 2.23532 -2.3812 0
M  V30 1921 H 183.145 0.507247 -3.63074 0
M  V30 1922 H 182.793 2.94227 -4.0797 0
M  V30 1923 H 182.493 1.96406 -5.53804 0
M  V30 1924 H 184.017 2.88339 -5.38231 0
M  V30 1925 H 185.431 0.633978 -5.69784 0
M  V30 1926 H 183.828 -0.0971485 -6.00021 0
M  V30 1927 H 184.898 -0.811711 -4.78058 0
M  V30 1928 N 186.241 1.57166 -0.116904 0
M  V30 1929 C 187.189 2.16457 0.851418 0
M  V30 1930 C 188.183 1.11323 1.27686 0
M  V30 1931 O 189.389 1.2963 1.24884 0
M  V30 1932 H 185.764 0.69271 0.292672 0
M  V30 1933 H 187.735 2.96605 0.32685 0
M  V30 1934 C 186.484 2.77689 2.09246 0
M  V30 1935 H 185.807 3.58285 1.77402 0
M  V30 1936 H 187.247 3.22716 2.7501 0
M  V30 1937 C 185.706 1.74667 2.88085 0
M  V30 1938 O 186.236 1.19877 3.83396 0
M  V30 1939 N 184.442 1.44656 2.52038 0
M  V30 1940 H 183.989 1.89402 1.74599 0
M  V30 1941 H 183.947 0.759675 3.05084 0
M  V30 1942 N 187.719 -0.156864 1.56817 0
M  V30 1943 C 188.649 -1.19589 2.00551 0
M  V30 1944 C 189.63 -1.4536 0.883426 0
M  V30 1945 O 190.815 -1.56449 1.15054 0
M  V30 1946 C 187.945 -2.53143 2.37773 0
M  V30 1947 C 186.899 -2.41913 3.53075 0
M  V30 1948 C 186.225 -3.80088 3.76081 0
M  V30 1949 C 187.525 -1.91157 4.86062 0
M  V30 1950 H 189.219 -0.832293 2.87599 0
M  V30 1951 H 186.765 -0.398918 1.38364 0
M  V30 1952 H 188.718 -3.26047 2.66967 0
M  V30 1953 H 187.442 -2.91319 1.4765 0
M  V30 1954 H 186.101 -1.71462 3.24031 0
M  V30 1955 H 185.749 -4.15683 2.83225 0
M  V30 1956 H 185.449 -3.73439 4.53671 0
M  V30 1957 H 186.973 -4.54556 4.0769 0
M  V30 1958 H 188.387 -2.53846 5.14038 0
M  V30 1959 H 186.784 -1.95422 5.67389 0
M  V30 1960 H 187.854 -0.866673 4.77092 0
M  V30 1961 N 189.197 -1.51736 -0.425897 0
M  V30 1962 C 190.422 -1.69082 -1.20108 0
M  V30 1963 C 190.847 -0.392398 -1.83962 0
M  V30 1964 O 190.205 0.64858 -1.69302 0
M  V30 1965 C 190.253 -2.81604 -2.25237 0
M  V30 1966 O 189.357 -2.46004 -3.30992 0
M  V30 1967 H 188.698 -0.563408 -0.35138 0
M  V30 1968 H 191.228 -1.98358 -0.501512 0
M  V30 1969 H 191.238 -3.06025 -2.69838 0
M  V30 1970 H 189.913 -3.75817 -1.78142 0
M  V30 1971 H 188.49 -2.32195 -2.91787 0
M  V30 1972 N 190.675 0.682077 -1.42076 0
M  V30 1973 C 191.915 1.45424 -1.43636 0
M  V30 1974 C 192.279 1.91939 -0.0484001 0
M  V30 1975 O 193.48 2.6873 0.0612514 0
M  V30 1976 C 191.751 2.62427 -2.42625 0
M  V30 1977 S 193.31 3.51379 -2.62827 0
M  V30 1978 H 190.128 0.496779 -0.508657 0
M  V30 1979 H 192.73 0.794645 -1.78621 0
M  V30 1980 H 191.434 2.26481 -3.42249 0
M  V30 1981 H 190.965 3.33266 -2.09039 0
M  V30 1982 H 192.98 4.58141 -1.9058 0
M  V30 1983 N 192.153 1.28127 0.917671 0
M  V30 1984 C 193.564 1.13622 1.48145 0
M  V30 1985 C 193.915 -0.275207 1.9426 0
M  V30 1986 O 193.04 -1.1691 1.82102 0
M  V30 1987 C 193.635 2.05648 2.69248 0
M  V30 1988 C 192.194 1.95219 3.21818 0
M  V30 1989 C 191.341 1.97618 1.94532 0
M  V30 1990 H 194.292 1.40874 0.730772 0
M  V30 1991 H 194.313 1.61818 3.44377 0
M  V30 1992 H 193.825 3.08365 2.35653 0
M  V30 1993 H 191.926 0.955244 3.60147 0
M  V30 1994 H 192.039 2.81976 3.87333 0
M  V30 1995 H 190.403 1.41973 2.11461 0
M  V30 1996 H 191.186 3.02007 1.63238 0
M  V30 1997 N 193.631 -1.12557 1.10312 0
M  V30 1998 C 194.579 -2.20325 0.745629 0
M  V30 1999 C 195.573 -1.67429 -0.25763 0
M  V30 2000 O 196.779 -1.79612 -0.118132 0
M  V30 2001 H 193.154 -0.718118 0.223182 0
M  V30 2002 H 195.125 -2.47733 1.66346 0
M  V30 2003 C 193.874 -3.47168 0.192262 0
M  V30 2004 H 193.197 -3.88215 0.955475 0
M  V30 2005 H 194.637 -4.23995 -0.0198274 0
M  V30 2006 C 193.096 -3.19298 -1.07472 0
M  V30 2007 O 193.626 -3.3891 -2.15645 0
M  V30 2008 N 191.832 -2.73113 -0.992847 0
M  V30 2009 H 191.379 -2.57354 -0.112474 0
M  V30 2010 H 191.337 -2.54842 -1.84127 0
M  V30 2011 N 195.109 -0.891671 -1.2995 0
M  V30 2012 C 196.355 -0.514261 -1.96171 0
M  V30 2013 C 196.688 0.935506 -1.70182 0
M  V30 2014 O 195.963 1.66204 -1.01028 0
M  V30 2015 C 196.246 -0.797719 -3.51153 0
M  V30 2016 C 196.099 -2.2986 -3.86632 0
M  V30 2017 C 197.418 -0.278749 -4.39216 0
M  V30 2018 H 194.537 -0.188314 -0.712535 0
M  V30 2019 H 197.179 -1.11689 -1.53706 0
M  V30 2020 H 195.329 -0.284826 -3.87455 0
M  V30 2021 H 197.001 -2.88042 -3.60319 0
M  V30 2022 H 195.244 -2.76257 -3.34462 0
M  V30 2023 H 195.915 -2.44753 -4.94773 0
M  V30 2024 H 198.391 -0.717825 -4.09862 0
M  V30 2025 H 197.267 -0.506353 -5.46559 0
M  V30 2026 H 197.528 0.820266 -4.34424 0
M  V30 2027 N 196.587 1.43421 -0.653314 0
M  V30 2028 C 197.998 1.85065 -0.246537 0
M  V30 2029 C 198.349 1.54688 1.2069 0
M  V30 2030 O 197.474 0.995896 1.92122 0
M  V30 2031 C 198.069 3.35922 -0.440666 0
M  V30 2032 C 196.628 3.76297 -0.0882064 0
M  V30 2033 C 195.775 2.67147 -0.743484 0
M  V30 2034 H 198.726 1.33572 -0.856979 0
M  V30 2035 H 198.747 3.79204 0.313798 0
M  V30 2036 H 198.259 3.58 -1.49858 0
M  V30 2037 H 196.36 3.5983 0.96711 0
M  V30 2038 H 196.473 4.76338 -0.513738 0
M  V30 2039 H 194.837 2.54086 -0.176712 0
M  V30 2040 H 195.62 2.92053 -1.80443 0
M  V30 2041 N 198.065 0.39524 1.52563 0
M  V30 2042 C 199.313 -0.184678 2.01254 0
M  V30 2043 C 199.634 -1.46822 1.28329 0
M  V30 2044 O 198.904 -1.91666 0.405094 0
M  V30 2045 H 197.484 -0.0712355 0.743596 0
M  V30 2046 H 200.146 0.528293 1.87603 0
M  V30 2047 H 199.242 -0.390681 3.09645 0
M  V30 2048 N 199.544 -1.57102 0.125237 0
M  V30 2049 C 200.491 -2.15641 -0.822655 0
M  V30 2050 C 201.461 -1.08313 -1.25927 0
M  V30 2051 O 202.646 -1.36251 -1.33567 0
M  V30 2052 C 199.786 -2.76504 -2.06494 0
M  V30 2053 C 198.899 -3.98158 -1.67612 0
M  V30 2054 C 198.034 -4.47088 -2.86854 0
M  V30 2055 C 197.073 -5.6126 -2.44242 0
M  V30 2056 N 196.21 -6.04905 -3.56419 0
M  V30 2057 H 201.05 -2.96313 -0.316625 0
M  V30 2058 H 198.587 -1.46388 -0.144588 0
M  V30 2059 H 200.545 -3.09925 -2.79289 0
M  V30 2060 H 199.175 -1.98512 -2.54545 0
M  V30 2061 H 198.227 -3.70858 -0.846661 0
M  V30 2062 H 199.539 -4.80934 -1.32301 0
M  V30 2063 H 198.693 -4.82451 -3.67867 0
M  V30 2064 H 197.432 -3.63275 -3.25396 0
M  V30 2065 H 196.437 -5.25495 -1.61663 0
M  V30 2066 H 197.662 -6.46843 -2.0681 0
M  V30 2067 H 195.608 -5.24032 -3.94623 0
M  V30 2068 H 195.525 -6.82552 -3.25051 0
M  V30 2069 H 196.793 -6.44907 -4.37853 0
M  V30 2070 N 201.022 0.148545 -1.56898 0
M  V30 2071 C 202.433 0.708766 -1.72723 0
M  V30 2072 C 202.784 1.81734 -0.739395 0
M  V30 2073 O 201.909 2.16194 0.0943169 0
M  V30 2074 C 202.504 1.29245 -3.13179 0
M  V30 2075 C 201.063 1.79925 -3.30611 0
M  V30 2076 C 200.21 0.687111 -2.68652 0
M  V30 2077 H 203.161 -0.0771063 -1.58513 0
M  V30 2078 H 203.182 2.16224 -3.13093 0
M  V30 2079 H 202.694 0.485382 -3.85053 0
M  V30 2080 H 200.795 2.63203 -2.63732 0
M  V30 2081 H 200.908 1.92903 -4.38549 0
M  V30 2082 H 199.272 1.11335 -2.29078 0
M  V30 2083 H 200.055 -0.108483 -3.43129 0
M  V30 2084 N 202.5 1.5196 0.417844 0
M  V30 2085 C 203.432 1.70895 1.52733 0
M  V30 2086 C 204.445 0.589405 1.51756 0
M  V30 2087 O 205.634 0.864312 1.56179 0
M  V30 2088 C 202.734 1.72627 2.91639 0
M  V30 2089 C 201.907 3.01479 3.16905 0
M  V30 2090 C 200.966 2.95139 4.35637 0
M  V30 2091 O 199.992 3.69059 4.3334 0
M  V30 2092 N 201.194 2.12328 5.40275 0
M  V30 2093 H 203.959 2.66612 1.36888 0
M  V30 2094 H 201.52 1.50089 0.607037 0
M  V30 2095 H 203.512 1.65928 3.6912 0
M  V30 2096 H 202.082 0.844216 3.00985 0
M  V30 2097 H 201.302 3.21895 2.27546 0
M  V30 2098 H 202.59 3.86736 3.30625 0
M  V30 2099 H 201.988 1.51685 5.44985 0
M  V30 2100 H 200.545 2.11494 6.16534 0
M  V30 2101 N 203.978 -0.674533 1.42435 0
M  V30 2102 C 204.908 -1.80009 1.48724 0
M  V30 2103 C 205.889 -1.6659 0.343793 0
M  V30 2104 O 207.074 -1.86007 0.558137 0
M  V30 2105 C 204.204 -3.18306 1.38919 0
M  V30 2106 C 203.158 -3.46461 2.51294 0
M  V30 2107 C 202.484 -4.84335 2.26547 0
M  V30 2108 C 203.784 -3.43328 3.93603 0
M  V30 2109 H 205.478 -1.75004 2.42928 0
M  V30 2110 H 203.024 -0.840533 1.16923 0
M  V30 2111 H 204.977 -3.9678 1.41927 0
M  V30 2112 H 203.701 -3.2399 0.412094 0
M  V30 2113 H 202.36 -2.70348 2.47604 0
M  V30 2114 H 202.008 -4.86669 1.2713 0
M  V30 2115 H 201.708 -5.04136 3.01861 0
M  V30 2116 H 203.232 -5.65094 2.31304 0
M  V30 2117 H 204.646 -4.11772 3.98894 0
M  V30 2118 H 203.043 -3.74664 4.68771 0
M  V30 2119 H 204.113 -2.41897 4.20255 0
M  V30 2120 N 205.456 -1.28612 -0.910864 0
M  V30 2121 C 206.419 -1.12803 -1.9952 0
M  V30 2122 C 207.419 -0.0668264 -1.60661 0
M  V30 2123 O 208.609 -0.312847 -1.71368 0
M  V30 2124 C 205.741 -0.72254 -3.33155 0
M  V30 2125 H 206.934 -2.09109 -2.14973 0
M  V30 2126 H 204.487 -1.11639 -1.09391 0
M  V30 2127 H 205.222 0.241152 -3.23402 0
M  V30 2128 H 205.007 -1.48916 -3.62721 0
M  V30 2129 H 206.497 -0.634666 -4.12749 0
M  V30 2130 N 206.934 1.1197 -1.10907 0
M  V30 2131 C 208.164 1.8713 -0.875553 0
M  V30 2132 C 208.572 1.8016 0.577843 0
M  V30 2133 O 207.915 1.17699 1.41042 0
M  V30 2134 C 207.977 3.37005 -1.2517 0
M  V30 2135 C 207.641 3.67748 -2.71313 0
M  V30 2136 C 208.638 3.65698 -3.69542 0
M  V30 2137 C 206.323 3.96928 -3.07821 0
M  V30 2138 C 208.317 3.92395 -5.023 0
M  V30 2139 C 206.004 4.23284 -4.40765 0
M  V30 2140 C 207.002 4.21005 -5.37814 0
M  V30 2141 O 206.69 4.46704 -6.68364 0
M  V30 2142 H 206.422 0.598786 -0.313737 0
M  V30 2143 H 208.976 1.42568 -1.47863 0
M  V30 2144 H 207.206 3.82146 -0.591741 0
M  V30 2145 H 208.895 3.93519 -0.994877 0
M  V30 2146 H 209.661 3.43211 -3.42682 0
M  V30 2147 H 205.54 3.97841 -2.32902 0
M  V30 2148 H 209.084 3.90531 -5.78041 0
M  V30 2149 H 204.981 4.45246 -4.67361 0
M  V30 2150 H 205.749 4.64299 -6.74069 0
M  V30 2151 N 208.412 0.89855 1.29475 0
M  V30 2152 C 209.689 0.443416 1.90508 0
M  V30 2153 C 210.069 -1.07685 1.81569 0
M  V30 2154 O 209.417 -1.9182 1.24166 0
M  V30 2155 C 209.627 0.956708 3.35631 0
M  V30 2156 C 210.975 0.999728 4.12663 0
M  V30 2157 O 211.999 0.904299 3.4453 0
M  V30 2158 O 210.858 1.14289 5.34416 0
M  V30 2159 H 207.952 0.138025 0.815401 0
M  V30 2160 H 210.498 0.98834 1.37949 0
M  V30 2161 H 209.27 2.00067 3.36287 0
M  V30 2162 H 208.893 0.391728 3.95666 0
M  V30 2163 N 209.89 -1.43072 0.660911 0
M  V30 2164 C 211.137 -2.01721 0.177445 0
M  V30 2165 C 211.465 -1.5218 -1.21126 0
M  V30 2166 O 210.72 -0.708659 -1.82419 0
M  V30 2167 C 211.019 -3.57103 0.145563 0
M  V30 2168 C 210.685 -4.26021 1.47705 0
M  V30 2169 C 209.347 -4.44563 1.84165 0
M  V30 2170 C 211.699 -4.64983 2.35458 0
M  V30 2171 C 209.027 -4.99334 3.0803 0
M  V30 2172 C 211.379 -5.21127 3.58622 0
M  V30 2173 C 210.043 -5.37884 3.95268 0
M  V30 2174 H 209.313 -0.73815 0.0649317 0
M  V30 2175 H 211.96 -1.71446 0.853144 0
M  V30 2176 H 210.265 -3.86965 -0.61361 0
M  V30 2177 H 211.962 -4.00248 -0.2455 0
M  V30 2178 H 208.552 -4.11939 1.18339 0
M  V30 2179 H 212.736 -4.50343 2.08579 0
M  V30 2180 H 207.992 -5.10493 3.36462 0
M  V30 2181 H 212.166 -5.50262 4.26831 0
M  V30 2182 H 209.793 -5.80089 4.91325 0
M  V30 2183 N 211.368 -0.403325 -1.52352 0
M  V30 2184 C 212.278 0.432009 -2.30588 0
M  V30 2185 C 213.294 1.05884 -1.38075 0
M  V30 2186 O 214.47 1.06161 -1.71148 0
M  V30 2187 C 211.535 1.53669 -3.10784 0
M  V30 2188 C 210.596 0.933525 -4.19027 0
M  V30 2189 C 209.829 1.98557 -4.9539 0
M  V30 2190 O 210.052 3.20283 -4.71991 0
M  V30 2191 O 208.986 1.59504 -5.80381 0
M  V30 2192 H 212.812 -0.205739 -3.03002 0
M  V30 2193 H 210.397 -0.166675 -1.48467 0
M  V30 2194 H 212.279 2.17814 -3.60742 0
M  V30 2195 H 210.954 2.15915 -2.41169 0
M  V30 2196 H 209.861 0.254954 -3.7323 0
M  V30 2197 H 211.194 0.35508 -4.90918 0
M  V30 2198 N 212.846 1.57033 -0.133567 0
M  V30 2199 C 213.809 2.14897 0.796995 0
M  V30 2200 C 214.809 1.0874 1.18458 0
M  V30 2201 O 215.999 1.34446 1.1077 0
M  V30 2202 C 213.131 2.70112 2.07973 0
M  V30 2203 H 214.324 2.98457 0.293873 0
M  V30 2204 H 211.877 1.55871 0.115787 0
M  V30 2205 H 212.612 1.9018 2.62682 0
M  V30 2206 H 212.397 3.47764 1.81115 0
M  V30 2207 H 213.887 3.14738 2.74462 0
M  V30 2208 N 214.325 -0.140222 1.56975 0
M  V30 2209 C 215.553 -0.866437 1.87884 0
M  V30 2210 C 215.968 -1.74428 0.722517 0
M  V30 2211 O 215.325 -1.79891 -0.30749 0
M  V30 2212 C 215.376 -1.71753 3.18093 0
M  V30 2213 O 215.097 -0.875056 4.29272 0
M  V30 2214 C 216.598 -2.55074 3.62563 0
M  V30 2215 H 213.818 -0.25019 0.622612 0
M  V30 2216 H 216.362 -0.130977 2.0408 0
M  V30 2217 H 214.517 -2.40598 3.03631 0
M  V30 2218 H 214.931 -1.46002 5.03769 0
M  V30 2219 H 216.405 -3.10356 4.5649 0
M  V30 2220 H 216.882 -3.31434 2.88181 0
M  V30 2221 H 217.488 -1.91509 3.79743 0
M  V30 2222 N 215.803 -1.52179 -0.40978 0
M  V30 2223 C 216.713 -1.78364 -1.52392 0
M  V30 2224 C 217.729 -0.669183 -1.60617 0
M  V30 2225 O 218.905 -0.954518 -1.77344 0
M  V30 2226 C 215.97 -1.92822 -2.88133 0
M  V30 2227 C 215.031 -3.16725 -2.898 0
M  V30 2228 C 214.264 -3.30483 -4.19067 0
M  V30 2229 O 214.487 -2.49522 -5.12928 0
M  V30 2230 O 213.421 -4.2363 -4.27576 0
M  V30 2231 H 217.247 -2.72931 -1.33201 0
M  V30 2232 H 214.832 -1.37016 -0.59557 0
M  V30 2233 H 216.714 -2.04157 -3.68643 0
M  V30 2234 H 215.389 -1.01444 -3.07393 0
M  V30 2235 H 214.296 -3.10848 -2.08146 0
M  V30 2236 H 215.629 -4.07881 -2.75489 0
M  V30 2237 N 217.281 0.66697 -1.42791 0
M  V30 2238 C 218.228 1.7803 -1.4688 0
M  V30 2239 C 219.198 1.6299 -0.319919 0
M  V30 2240 O 220.383 1.83432 -0.525118 0
M  V30 2241 C 217.523 3.1611 -1.38451 0
M  V30 2242 C 216.636 3.42381 -2.63437 0
M  V30 2243 C 215.771 4.70232 -2.47094 0
M  V30 2244 C 214.81 4.89564 -3.67415 0
M  V30 2245 N 213.947 6.08661 -3.49966 0
M  V30 2246 H 218.787 1.7387 -2.42019 0
M  V30 2247 H 216.324 0.84868 -1.20149 0
M  V30 2248 H 218.282 3.95914 -1.31561 0
M  V30 2249 H 216.912 3.19374 -0.469033 0
M  V30 2250 H 215.964 2.56774 -2.80662 0
M  V30 2251 H 217.276 3.52557 -3.52853 0
M  V30 2252 H 216.43 5.5814 -2.37834 0
M  V30 2253 H 215.169 4.62353 -1.5518 0
M  V30 2254 H 214.174 4.00096 -3.77099 0
M  V30 2255 H 215.399 4.99282 -4.6032 0
M  V30 2256 H 213.345 6.0194 -2.60776 0
M  V30 2257 H 213.262 6.19733 -4.32975 0
M  V30 2258 H 214.53 6.99226 -3.44532 0
M  V30 2259 N 218.759 1.29093 0.90403 0
M  V30 2260 C 219.689 1.16401 2.02418 0
M  V30 2261 C 220.67 0.0593085 1.69997 0
M  V30 2262 O 221.855 0.238021 1.92736 0
M  V30 2263 C 218.985 0.835233 3.37107 0
M  V30 2264 C 217.939 1.89578 3.83724 0
M  V30 2265 C 217.265 1.42041 5.15489 0
M  V30 2266 C 218.565 3.30394 4.04521 0
M  V30 2267 H 220.259 2.10109 2.13295 0
M  V30 2268 H 217.805 1.01157 1.02486 0
M  V30 2269 H 219.758 0.733169 4.14973 0
M  V30 2270 H 218.482 -0.137543 3.2631 0
M  V30 2271 H 217.141 1.98715 3.08071 0
M  V30 2272 H 216.789 0.436426 5.01103 0
M  V30 2273 H 216.489 2.12964 5.4765 0
M  V30 2274 H 218.013 1.33176 5.959 0
M  V30 2275 H 219.427 3.24123 4.72882 0
M  V30 2276 H 217.824 3.99237 4.48029 0
M  V30 2277 H 218.894 3.73692 3.09002 0
M  V30 2278 N 220.237 -1.11381 1.11499 0
M  V30 2279 C 221.167 -2.19509 0.796125 0
M  V30 2280 C 222.148 -1.68458 -0.235796 0
M  V30 2281 O 223.333 -1.93947 -0.0991344 0
M  V30 2282 C 220.463 -3.46475 0.239205 0
M  V30 2283 C 219.417 -4.10744 1.20307 0
M  V30 2284 C 218.743 -5.32293 0.50683 0
M  V30 2285 C 220.043 -4.55597 2.55399 0
M  V30 2286 H 221.737 -2.46439 1.70024 0
M  V30 2287 H 219.283 -1.18446 0.818935 0
M  V30 2288 H 221.236 -4.214 0.00392006 0
M  V30 2289 H 219.96 -3.19006 -0.700206 0
M  V30 2290 H 218.619 -3.37813 1.42399 0
M  V30 2291 H 218.267 -5.01095 -0.437408 0
M  V30 2292 H 217.967 -5.76243 1.1497 0
M  V30 2293 H 219.491 -6.09956 0.280351 0
M  V30 2294 H 220.905 -5.21841 2.37391 0
M  V30 2295 H 219.302 -5.10363 3.15673 0
M  V30 2296 H 220.372 -3.69013 3.14575 0
M  V30 2297 N 221.715 -0.905404 -1.28997 0
M  V30 2298 C 222.662 -0.385892 -2.27551 0
M  V30 2299 C 223.632 0.535113 -1.57244 0
M  V30 2300 O 224.817 0.459119 -1.85194 0
M  V30 2301 C 221.957 0.375461 -3.43051 0
M  V30 2302 C 221.07 -0.577092 -4.28128 0
M  V30 2303 C 220.205 0.201879 -5.30816 0
M  V30 2304 C 219.244 -0.744829 -6.07551 0
M  V30 2305 N 218.381 9.42587e-05 -7.021 0
M  V30 2306 H 223.221 -1.23139 -2.71368 0
M  V30 2307 H 220.758 -0.618542 -1.33463 0
M  V30 2308 H 222.716 0.832992 -4.088 0
M  V30 2309 H 221.346 1.18537 -3.00248 0
M  V30 2310 H 220.398 -1.15315 -3.62501 0
M  V30 2311 H 221.71 -1.30152 -4.8152 0
M  V30 2312 H 220.864 0.720351 -6.02408 0
M  V30 2313 H 219.603 0.959413 -4.7817 0
M  V30 2314 H 218.608 -1.27475 -5.34818 0
M  V30 2315 H 219.833 -1.50178 -6.62286 0
M  V30 2316 H 217.779 0.739791 -6.51815 0
M  V30 2317 H 217.696 -0.664321 -7.53076 0
M  V30 2318 H 218.964 0.498644 -7.77903 0
M  V30 2319 N 223.193 1.4272 -0.668489 0
M  V30 2320 C 224.103 2.34596 0.0139753 0
M  V30 2321 C 225.119 1.5474 0.795703 0
M  V30 2322 O 226.295 1.87334 0.739466 0
M  V30 2323 C 223.36 3.33202 0.957982 0
M  V30 2324 C 222.421 4.28957 0.17149 0
M  V30 2325 C 221.654 5.22853 1.07053 0
M  V30 2326 O 221.877 5.21531 2.31001 0
M  V30 2327 O 220.811 5.9952 0.534727 0
M  V30 2328 H 224.637 2.9448 -0.742661 0
M  V30 2329 H 222.222 1.43117 -0.428705 0
M  V30 2330 H 224.104 3.93796 1.50008 0
M  V30 2331 H 222.779 2.758 1.69458 0
M  V30 2332 H 221.686 3.71796 -0.414558 0
M  V30 2333 H 223.019 4.89383 -0.52586 0
M  V30 2334 N 224.671 0.411399 1.52136 0
M  V30 2335 C 225.917 -0.163888 2.02137 0
M  V30 2336 C 226.25 -1.44597 1.29636 0
M  V30 2337 O 225.525 -1.90272 0.403353 0
M  V30 2338 C 225.808 -0.40927 3.57767 0
M  V30 2339 C 225.661 0.889643 4.40914 0
M  V30 2340 C 226.98 -1.19042 4.23694 0
M  V30 2341 H 224.099 -0.0580896 0.734707 0
M  V30 2342 H 226.741 0.54531 1.82007 0
M  V30 2343 H 224.891 -1.0134 3.7505 0
M  V30 2344 H 226.563 1.52575 4.35337 0
M  V30 2345 H 224.806 1.50011 4.07037 0
M  V30 2346 H 225.477 0.672314 5.4789 0
M  V30 2347 H 227.953 -0.678942 4.10524 0
M  V30 2348 H 226.829 -1.33086 5.32522 0
M  V30 2349 H 227.09 -2.21166 3.82803 0
M  V30 2350 N 226.149 -1.5696 0.141893 0
M  V30 2351 C 227.396 -1.9596 -0.510492 0
M  V30 2352 C 227.724 -1.02648 -1.65208 0
M  V30 2353 O 226.979 -0.0546947 -1.95624 0
M  V30 2354 C 227.278 -3.41242 -1.06249 0
M  V30 2355 C 226.944 -4.50882 -0.0398791 0
M  V30 2356 C 225.606 -4.80595 0.241247 0
M  V30 2357 C 227.958 -5.17058 0.65578 0
M  V30 2358 C 225.286 -5.73792 1.22393 0
M  V30 2359 C 227.638 -6.11313 1.62724 0
M  V30 2360 C 226.302 -6.39407 1.91612 0
M  V30 2361 H 225.572 -0.717068 -0.186802 0
M  V30 2362 H 228.219 -1.90142 0.227643 0
M  V30 2363 H 226.524 -3.43866 -1.87785 0
M  V30 2364 H 228.221 -3.68742 -1.57576 0
M  V30 2365 H 224.811 -4.27754 -0.269174 0
M  V30 2366 H 228.995 -4.94239 0.451779 0
M  V30 2367 H 224.251 -5.93853 1.45424 0
M  V30 2368 H 228.425 -6.61668 2.17183 0
M  V30 2369 H 226.052 -7.11427 2.6791 0
M  V30 2370 N 227.627 0.131896 -1.57047 0
M  V30 2371 C 228.855 0.856461 -1.88341 0
M  V30 2372 C 229.27 1.74042 -0.731757 0
M  V30 2373 O 228.627 1.80051 0.297945 0
M  V30 2374 C 228.678 1.70064 -3.18999 0
M  V30 2375 O 228.399 0.852278 -4.2973 0
M  V30 2376 C 229.9 2.53148 -3.63911 0
M  V30 2377 H 227.12 0.246885 -0.62393 0
M  V30 2378 H 229.664 0.120152 -2.04147 0
M  V30 2379 H 227.819 2.38984 -3.04902 0
M  V30 2380 H 228.233 1.43329 -5.04537 0
M  V30 2381 H 229.707 3.07931 -4.58129 0
M  V30 2382 H 230.184 3.29901 -2.89935 0
M  V30 2383 H 230.79 1.89492 -3.80753 0
M  V30 2384 N 229.106 1.52395 0.401703 0
M  V30 2385 C 230.353 1.66817 1.14796 0
M  V30 2386 C 230.681 0.401772 1.90305 0
M  V30 2387 O 229.936 -0.615487 1.85769 0
M  V30 2388 C 230.235 2.84578 2.16217 0
M  V30 2389 C 229.901 4.22513 1.5746 0
M  V30 2390 C 228.563 4.60029 1.41161 0
M  V30 2391 C 230.915 5.0844 1.14622 0
M  V30 2392 C 228.243 5.81144 0.80552 0
M  V30 2393 C 230.595 6.30167 0.55428 0
M  V30 2394 C 229.259 6.66426 0.378482 0
M  V30 2395 H 228.529 0.610428 0.420069 0
M  V30 2396 H 231.176 1.86512 0.434212 0
M  V30 2397 H 229.481 2.59248 2.93764 0
M  V30 2398 H 231.178 2.92933 2.73845 0
M  V30 2399 H 227.768 3.92953 1.71132 0
M  V30 2400 H 231.952 4.80034 1.26021 0
M  V30 2401 H 227.208 6.07855 0.657399 0
M  V30 2402 H 231.382 6.96071 0.213983 0
M  V30 2403 H 229.009 7.60143 -0.0932606 0
M  V30 2404 N 230.584 -0.659388 1.43143 0
M  V30 2405 C 231.831 -1.41935 1.44433 0
M  V30 2406 C 232.159 -1.94387 0.0663522 0
M  V30 2407 O 231.414 -1.72314 -0.927706 0
M  V30 2408 C 231.713 -2.62206 2.42864 0
M  V30 2409 C 231.379 -2.28208 3.88886 0
M  V30 2410 C 230.041 -2.18647 4.28657 0
M  V30 2411 C 232.393 -2.00887 4.8093 0
M  V30 2412 C 229.721 -1.79914 5.58433 0
M  V30 2413 C 232.073 -1.63653 6.11065 0
M  V30 2414 C 230.737 -1.52614 6.49819 0
M  V30 2415 H 230.007 -0.519376 0.528517 0
M  V30 2416 H 232.654 -0.750453 1.76183 0
M  V30 2417 H 230.959 -3.34199 2.04495 0
M  V30 2418 H 232.656 -3.2041 2.41119 0
M  V30 2419 H 229.246 -2.36557 3.57406 0
M  V30 2420 H 233.43 -2.07198 4.5098 0
M  V30 2421 H 228.686 -1.69948 5.87305 0
M  V30 2422 H 232.86 -1.41543 6.81864 0
M  V30 2423 H 230.487 -1.22371 7.50286 0
M  V30 2424 N 232.062 -1.29571 -0.897171 0
M  V30 2425 C 233.29 -1.20583 -1.68129 0
M  V30 2426 C 233.705 0.233181 -1.87354 0
M  V30 2427 O 233.062 1.15579 -1.41236 0
M  V30 2428 C 233.113 -1.91772 -3.06441 0
M  V30 2429 O 232.834 -3.30053 -2.88091 0
M  V30 2430 C 234.335 -1.89291 -4.00854 0
M  V30 2431 H 231.555 -0.417826 -0.525036 0
M  V30 2432 H 234.099 -1.70987 -1.12177 0
M  V30 2433 H 232.254 -1.45196 -3.59161 0
M  V30 2434 H 232.668 -3.65942 -3.75748 0
M  V30 2435 H 234.142 -2.43662 -4.95311 0
M  V30 2436 H 234.619 -0.869014 -4.30517 0
M  V30 2437 H 235.225 -2.35622 -3.54066 0
M  V30 2438 N 233.54 1.10788 -1.12088 0
M  V30 2439 C 234.487 2.17025 -0.785407 0
M  V30 2440 C 235.457 1.64265 0.246191 0
M  V30 2441 O 236.642 1.90412 0.121584 0
M  V30 2442 C 233.782 3.44249 -0.242177 0
M  V30 2443 C 232.895 4.1098 -1.33115 0
M  V30 2444 C 232.03 5.25911 -0.747741 0
M  V30 2445 C 231.069 5.84538 -1.81609 0
M  V30 2446 N 230.206 6.90853 -1.25167 0
M  V30 2447 H 235.046 2.45066 -1.69548 0
M  V30 2448 H 232.583 1.20297 -0.846582 0
M  V30 2449 H 234.541 4.17101 0.0908026 0
M  V30 2450 H 233.171 3.16571 0.631072 0
M  V30 2451 H 232.223 3.36133 -1.78097 0
M  V30 2452 H 233.535 4.50601 -2.13917 0
M  V30 2453 H 232.689 6.056 -0.365216 0
M  V30 2454 H 231.428 4.87614 0.0915188 0
M  V30 2455 H 230.433 5.03522 -2.20785 0
M  V30 2456 H 231.658 6.249 -2.6585 0
M  V30 2457 H 229.604 6.54562 -0.434174 0
M  V30 2458 H 229.521 7.29166 -1.99633 0
M  V30 2459 H 230.789 7.7433 -0.896259 0
M  V30 2460 N 235.018 0.912232 1.28515 0
M  V30 2461 C 236.429 0.591352 1.77087 0
M  V30 2462 C 236.78 -0.8933 1.74684 0
M  V30 2463 O 235.905 -1.69876 1.34056 0
M  V30 2464 C 236.5 1.06668 3.2157 0
M  V30 2465 C 235.059 0.79675 3.67871 0
M  V30 2466 C 234.206 1.23427 2.48316 0
M  V30 2467 H 237.157 1.09365 1.15 0
M  V30 2468 H 237.178 0.407455 3.78312 0
M  V30 2469 H 236.69 2.14726 3.23287 0
M  V30 2470 H 234.791 -0.270679 3.71616 0
M  V30 2471 H 234.904 1.40343 4.58084 0
M  V30 2472 H 233.268 0.653036 2.46186 0
M  V30 2473 H 234.051 2.32316 2.52753 0
M  V30 2474 N 236.496 -1.42363 0.676048 0
M  V30 2475 C 237.426 -2.33497 0.0124832 0
M  V30 2476 C 238.407 -1.50748 -0.787981 0
M  V30 2477 O 239.592 -1.79346 -0.744884 0
M  V30 2478 C 236.722 -3.34377 -0.938582 0
M  V30 2479 C 235.676 -4.27289 -0.246622 0
M  V30 2480 C 235.002 -5.18386 -1.31071 0
M  V30 2481 C 236.302 -5.14916 0.875125 0
M  V30 2482 H 237.996 -2.89233 0.773593 0
M  V30 2483 H 235.542 -1.39073 0.37346 0
M  V30 2484 H 237.495 -3.97044 -1.41188 0
M  V30 2485 H 236.219 -2.76947 -1.73113 0
M  V30 2486 H 234.878 -3.66018 0.206456 0
M  V30 2487 H 234.526 -4.57282 -2.09528 0
M  V30 2488 H 234.226 -5.81378 -0.852839 0
M  V30 2489 H 235.75 -5.83929 -1.78492 0
M  V30 2490 H 237.164 -5.71262 0.482983 0
M  V30 2491 H 235.561 -5.86747 1.25887 0
M  V30 2492 H 236.631 -4.53242 1.72335 0
M  V30 2493 N 237.974 -0.419461 -1.51915 0
M  V30 2494 C 239.222 0.152637 -2.01523 0
M  V30 2495 C 239.543 1.44762 -1.30649 0
M  V30 2496 O 238.813 1.90997 -0.435535 0
M  V30 2497 H 237.393 0.0593966 -0.744635 0
M  V30 2498 H 240.055 -0.558073 -1.86739 0
M  V30 2499 H 239.151 0.341369 -3.10227 0
M  V30 2500 N 239.452 1.56882 -0.150215 0
M  V30 2501 C 240.698 1.96518 0.500834 0
M  V30 2502 C 241.031 1.03527 1.64304 0
M  V30 2503 O 240.306 0.0782751 1.94342 0
M  V30 2504 C 240.589 3.45822 1.00395 0
M  V30 2505 C 240.442 4.49591 -0.136983 0
M  V30 2506 C 241.761 3.97704 1.88467 0
M  V30 2507 H 238.88 0.714535 0.18058 0
M  V30 2508 H 241.522 1.88577 -0.232091 0
M  V30 2509 H 239.672 3.5272 1.62851 0
M  V30 2510 H 241.344 4.5477 -0.77343 0
M  V30 2511 H 239.587 4.26441 -0.795652 0
M  V30 2512 H 240.258 5.51402 0.256815 0
M  V30 2513 H 242.734 3.93304 1.35834 0
M  V30 2514 H 241.61 5.0263 2.20578 0
M  V30 2515 H 241.871 3.40252 2.82279 0
M  V30 2516 N 240.93 -0.123565 1.57115 0
M  V30 2517 C 241.877 -1.15177 2.00007 0
M  V30 2518 C 242.847 -1.41403 0.871454 0
M  V30 2519 O 244.032 -1.53346 1.13533 0
M  V30 2520 C 241.172 -2.47436 2.40561 0
M  V30 2521 C 240.285 -2.28184 3.66819 0
M  V30 2522 C 239.42 -3.53641 3.96373 0
M  V30 2523 C 238.459 -3.29528 5.15827 0
M  V30 2524 N 237.596 -4.47175 5.41275 0
M  V30 2525 H 242.436 -0.779008 2.87638 0
M  V30 2526 H 239.973 -0.373166 1.42288 0
M  V30 2527 H 241.931 -3.24584 2.62109 0
M  V30 2528 H 240.561 -2.82614 1.55978 0
M  V30 2529 H 239.613 -1.41976 3.52912 0
M  V30 2530 H 240.925 -2.0634 4.5412 0
M  V30 2531 H 240.079 -4.39209 4.18545 0
M  V30 2532 H 238.818 -3.78512 3.07538 0
M  V30 2533 H 237.823 -2.42349 4.93505 0
M  V30 2534 H 239.048 -3.06031 6.06236 0
M  V30 2535 H 236.994 -4.72175 4.55397 0
M  V30 2536 H 236.911 -4.28419 6.22891 0
M  V30 2537 H 238.179 -5.3389 5.67963 0
M  V30 2538 N 242.408 -1.52605 -0.393616 0
M  V30 2539 C 243.338 -1.80022 -1.48709 0
M  V30 2540 C 244.319 -0.651995 -1.57108 0
M  V30 2541 O 245.504 -0.89913 -1.72132 0
M  V30 2542 C 242.634 -1.96492 -2.86371 0
M  V30 2543 C 241.588 -3.12161 -2.92813 0
M  V30 2544 C 240.914 -3.13877 -4.3288 0
M  V30 2545 C 242.214 -4.51322 -2.6288 0
M  V30 2546 H 243.908 -2.71589 -1.26015 0
M  V30 2547 H 241.454 -1.30684 -0.604778 0
M  V30 2548 H 243.407 -2.14255 -3.62867 0
M  V30 2549 H 242.131 -1.01611 -3.10391 0
M  V30 2550 H 240.79 -2.94173 -2.18764 0
M  V30 2551 H 240.438 -2.16687 -4.53933 0
M  V30 2552 H 240.138 -3.91576 -4.38112 0
M  V30 2553 H 241.662 -3.33789 -5.1129 0
M  V30 2554 H 243.076 -4.69435 -3.29096 0
M  V30 2555 H 241.473 -5.31053 -2.79468 0
M  V30 2556 H 242.543 -4.58353 -1.58242 0
M  V30 2557 N 243.887 0.651787 -1.4349 0
M  V30 2558 C 245.298 1.233 -1.40193 0
M  V30 2559 C 245.649 1.9591 -0.106727 0
M  V30 2560 O 244.774 2.01316 0.793773 0
M  V30 2561 C 245.369 2.24257 -2.53957 0
M  V30 2562 C 243.928 2.77852 -2.5392 0
M  V30 2563 C 243.075 1.52517 -2.3159 0
M  V30 2564 H 246.026 0.443717 -1.52371 0
M  V30 2565 H 246.047 3.0646 -2.25528 0
M  V30 2566 H 245.559 1.71382 -3.4821 0
M  V30 2567 H 243.66 3.34786 -1.63551 0
M  V30 2568 H 243.773 3.25299 -3.51735 0
M  V30 2569 H 242.137 1.79915 -1.80285 0
M  V30 2570 H 242.92 1.01574 -3.27929 0
M  V30 2571 N 245.365 1.30045 0.890287 0
M  V30 2572 C 246.776 1.16738 1.45702 0
M  V30 2573 C 247.127 -0.233939 1.948 0
M  V30 2574 O 246.252 -1.13021 1.84541 0
M  V30 2575 C 246.847 2.11313 2.64825 0
M  V30 2576 C 245.406 2.02001 3.17604 0
M  V30 2577 C 244.553 2.01699 1.90296 0
M  V30 2578 H 247.504 1.42392 0.700726 0
M  V30 2579 H 247.525 1.69086 3.40867 0
M  V30 2580 H 247.037 3.13294 2.2906 0
M  V30 2581 H 245.138 1.03142 3.5804 0
M  V30 2582 H 245.251 2.90128 3.81264 0
M  V30 2583 H 243.615 1.46427 2.08402 0
M  V30 2584 H 244.398 3.05402 1.56795 0
M  V30 2585 N 246.843 -1.10192 1.12674 0
M  V30 2586 C 248.073 -1.85713 0.905213 0
M  V30 2587 C 248.481 -1.81056 -0.549108 0
M  V30 2588 O 247.824 -1.19927 -1.39151 0
M  V30 2589 C 247.886 -3.34972 1.30516 0
M  V30 2590 C 247.55 -3.63385 2.77129 0
M  V30 2591 C 248.547 -3.59772 3.75313 0
M  V30 2592 C 246.232 -3.91981 3.14096 0
M  V30 2593 C 248.226 -3.84354 5.08479 0
M  V30 2594 C 245.913 -4.16218 4.47443 0
M  V30 2595 C 246.911 -4.12395 5.44444 0
M  V30 2596 O 246.599 -4.36014 6.75387 0
M  V30 2597 H 246.331 -0.593719 0.323223 0
M  V30 2598 H 248.885 -1.40198 1.50112 0
M  V30 2599 H 247.115 -3.81156 0.652463 0
M  V30 2600 H 248.804 -3.91886 1.05736 0
M  V30 2601 H 249.57 -3.37716 3.48099 0
M  V30 2602 H 245.449 -3.94085 2.39202 0
M  V30 2603 H 248.993 -3.81285 5.84181 0
M  V30 2604 H 244.89 -4.37754 4.74386 0
M  V30 2605 H 245.658 -4.53516 6.8137 0
M  V30 2606 N 248.321 -0.919034 -1.28029 0
M  V30 2607 C 249.568 -0.554934 -1.94748 0
M  V30 2608 C 249.896 0.90231 -1.72304 0
M  V30 2609 O 249.151 1.65767 -1.04018 0
M  V30 2610 C 249.45 -0.816855 -3.4794 0
M  V30 2611 C 249.116 -2.25448 -3.90492 0
M  V30 2612 C 247.778 -2.64752 -4.01821 0
M  V30 2613 C 250.13 -3.18977 -4.12193 0
M  V30 2614 C 247.458 -3.96727 -4.32232 0
M  V30 2615 C 249.81 -4.50523 -4.44086 0
M  V30 2616 C 248.474 -4.89673 -4.53626 0
M  V30 2617 H 247.744 -0.203065 -0.712633 0
M  V30 2618 H 250.391 -1.16136 -1.52265 0
M  V30 2619 H 248.696 -0.127677 -3.91592 0
M  V30 2620 H 250.393 -0.514238 -3.97689 0
M  V30 2621 H 246.983 -1.93952 -3.82205 0
M  V30 2622 H 251.167 -2.89817 -4.02889 0
M  V30 2623 H 246.423 -4.26754 -4.37825 0
M  V30 2624 H 250.597 -5.23005 -4.59825 0
M  V30 2625 H 248.224 -5.91969 -4.76946 0
M  V30 2626 N 249.799 1.42003 -0.683588 0
M  V30 2627 C 251.076 1.95112 -0.138075 0
M  V30 2628 C 251.456 1.62359 1.34918 0
M  V30 2629 O 250.804 0.924311 2.08971 0
M  V30 2630 C 251.014 3.46505 -0.416581 0
M  V30 2631 C 252.362 4.23254 -0.337834 0
M  V30 2632 O 253.386 3.54468 -0.35082 0
M  V30 2633 O 252.245 5.45743 -0.287596 0
M  V30 2634 H 249.339 0.826961 -0.00797996 0
M  V30 2635 H 251.885 1.51784 -0.758924 0
M  V30 2636 H 250.657 3.63582 -1.4465 0
M  V30 2637 H 250.28 3.969 0.235839 0
M  V30 2638 N 251.277 0.427512 1.51691 0
M  V30 2639 C 252.207 -0.3796 2.30394 0
M  V30 2640 C 253.188 -1.02982 1.35384 0
M  V30 2641 O 254.373 -1.03534 1.643 0
M  V30 2642 C 251.503 -1.48649 3.1388 0
M  V30 2643 C 250.457 -0.960294 4.17088 0
M  V30 2644 C 249.783 -2.16219 4.89033 0
M  V30 2645 C 251.083 -0.00153679 5.223 0
M  V30 2646 H 252.777 0.277164 2.98114 0
M  V30 2647 H 250.323 0.134739 1.43368 0
M  V30 2648 H 252.276 -2.05826 3.67714 0
M  V30 2649 H 251 -2.1714 2.43962 0
M  V30 2650 H 249.659 -0.410806 3.64291 0
M  V30 2651 H 249.307 -2.83307 4.15628 0
M  V30 2652 H 249.007 -1.81654 5.58816 0
M  V30 2653 H 250.531 -2.73968 5.45687 0
M  V30 2654 H 251.945 -0.482687 5.71264 0
M  V30 2655 H 250.342 0.256199 5.99553 0
M  V30 2656 H 251.412 0.938174 4.75738 0
M  V30 2657 N 252.755 -1.56801 0.158532 0
M  V30 2658 C 254.001 -1.96781 -0.490405 0
M  V30 2659 C 254.334 -1.04397 -1.63753 0
M  V30 2660 O 253.609 -0.0885805 -1.94298 0
M  V30 2661 C 253.892 -3.4635 -0.985594 0
M  V30 2662 C 253.745 -4.49512 0.160824 0
M  V30 2663 C 255.064 -3.98697 -1.86355 0
M  V30 2664 H 252.183 -0.715482 -0.176788 0
M  V30 2665 H 254.825 -1.88451 0.242088 0
M  V30 2666 H 252.975 -3.53579 -1.60978 0
M  V30 2667 H 254.647 -4.54353 0.797537 0
M  V30 2668 H 252.89 -4.26013 0.818256 0
M  V30 2669 H 253.561 -5.51531 -0.227569 0
M  V30 2670 H 256.037 -3.94019 -1.33746 0
M  V30 2671 H 254.913 -5.03792 -2.17909 0
M  V30 2672 H 255.174 -3.41744 -2.8047 0
M  V30 2673 N 254.233 0.115231 -1.57178 0
M  V30 2674 C 255.183 1.14707 -1.97044 0
M  V30 2675 C 256.167 1.36866 -0.845957 0
M  V30 2676 O 257.359 1.37895 -1.10968 0
M  V30 2677 C 254.488 2.47266 -2.38148 0
M  V30 2678 C 253.574 2.28566 -3.57237 0
M  V30 2679 N 253.965 1.79685 -4.72807 0
M  V30 2680 C 252.263 2.59208 -3.62943 0
M  V30 2681 C 252.964 1.74781 -5.54821 0
M  V30 2682 N 251.94 2.19264 -4.97417 0
M  V30 2683 H 255.742 0.761754 -2.83857 0
M  V30 2684 H 253.256 0.322928 -1.59157 0
M  V30 2685 H 255.253 3.219 -2.64927 0
M  V30 2686 H 253.913 2.86552 -1.52702 0
M  V30 2687 H 254.924 1.49177 -4.9595 0
M  V30 2688 H 251.601 3.02154 -2.88113 0
M  V30 2689 H 252.991 1.38212 -6.57531 0
M  V30 2690 N 255.711 1.52812 0.385517 0
M  V30 2691 C 256.958 1.68026 1.1302 0
M  V30 2692 C 257.286 0.421934 1.89868 0
M  V30 2693 O 256.541 -0.595749 1.86412 0
M  V30 2694 C 256.84 2.86856 2.13187 0
M  V30 2695 C 256.506 4.24159 1.5297 0
M  V30 2696 C 255.168 4.61501 1.36274 0
M  V30 2697 C 257.52 5.09627 1.09223 0
M  V30 2698 C 254.848 5.81966 0.743837 0
M  V30 2699 C 257.2 6.30719 0.487411 0
M  V30 2700 C 255.864 6.6679 0.307777 0
M  V30 2701 H 255.134 0.614849 0.413571 0
M  V30 2702 H 257.781 1.86962 0.414405 0
M  V30 2703 H 256.086 2.6235 2.90998 0
M  V30 2704 H 257.783 2.95821 2.70722 0
M  V30 2705 H 254.373 3.94746 1.66954 0
M  V30 2706 H 258.557 4.81343 1.20922 0
M  V30 2707 H 253.813 6.08519 0.592891 0
M  V30 2708 H 257.987 6.96259 0.140143 0
M  V30 2709 H 255.614 7.60001 -0.173879 0
M  V30 2710 N 257.189 -0.644168 1.43834 0
M  V30 2711 C 258.466 -1.40188 1.36406 0
M  V30 2712 C 258.846 -2.11094 0.0163124 0
M  V30 2713 O 258.194 -2.05426 -1.00062 0
M  V30 2714 C 258.404 -2.3791 2.55343 0
M  V30 2715 C 259.752 -3.01637 2.98832 0
M  V30 2716 O 260.776 -2.48237 2.55455 0
M  V30 2717 O 259.635 -3.98477 3.74003 0
M  V30 2718 H 256.729 -0.626773 0.539523 0
M  V30 2719 H 259.275 -0.670317 1.559 0
M  V30 2720 H 258.047 -1.84525 3.4506 0
M  V30 2721 H 257.67 -3.18503 2.37995 0
M  V30 2722 N 258.668 -1.30515 -0.883378 0
M  V30 2723 C 259.917 -1.18795 -1.63005 0
M  V30 2724 C 260.23 0.255923 -1.93919 0
M  V30 2725 O 261.436 0.494654 -2.66956 0
M  V30 2726 C 259.892 -2.07878 -2.93794 0
M  V30 2727 C 259.5 -3.57184 -2.70414 0
M  V30 2728 C 261.244 -2.04924 -3.71761 0
M  V30 2729 C 259.151 -4.38317 -3.97029 0
M  V30 2730 H 258.081 -0.441031 -0.611562 0
M  V30 2731 H 260.732 -1.55275 -0.977854 0
M  V30 2732 H 259.114 -1.64283 -3.60315 0
M  V30 2733 H 260.288 -4.08937 -2.12384 0
M  V30 2734 H 258.603 -3.61976 -2.0582 0
M  V30 2735 H 261.2 -2.62792 -4.65665 0
M  V30 2736 H 261.543 -1.0331 -4.03277 0
M  V30 2737 H 262.076 -2.46649 -3.12104 0
M  V30 2738 H 258.815 -5.40632 -3.70671 0
M  V30 2739 H 258.335 -3.91326 -4.54559 0
M  V30 2740 H 260.014 -4.49834 -4.65036 0
M  V30 2741 N 260.146 1.09593 -1.13257 0
M  V30 2742 C 261.079 2.15451 -0.752061 0
M  V30 2743 C 262.057 1.60493 0.260913 0
M  V30 2744 O 263.241 1.8788 0.152819 0
M  V30 2745 C 260.368 3.38506 -0.114594 0
M  V30 2746 C 259.414 4.12183 -1.09579 0
M  V30 2747 S 260.247 4.6661 -2.62745 0
M  V30 2748 C 261.403 5.92966 -2.00354 0
M  V30 2749 H 261.636 2.47395 -1.64872 0
M  V30 2750 H 259.169 1.21515 -0.952545 0
M  V30 2751 H 261.127 4.09757 0.246808 0
M  V30 2752 H 259.788 3.04784 0.759309 0
M  V30 2753 H 258.981 5.00445 -0.597545 0
M  V30 2754 H 258.583 3.46785 -1.40057 0
M  V30 2755 H 260.875 6.63882 -1.35156 0
M  V30 2756 H 261.818 6.47467 -2.86691 0
M  V30 2757 H 262.226 5.45405 -1.4558 0
M  V30 2758 N 261.624 0.925811 1.2754 0
M  V30 2759 C 262.587 0.428129 2.25166 0
M  V30 2760 C 263.587 -0.452261 1.54309 0
M  V30 2761 O 264.777 -0.253608 1.72344 0
M  V30 2762 C 261.909 -0.384749 3.38722 0
M  V30 2763 H 263.102 1.29066 2.70706 0
M  V30 2764 H 260.655 0.706323 1.3943 0
M  V30 2765 H 261.39 -1.26618 2.98561 0
M  V30 2766 H 261.175 0.246454 3.91325 0
M  V30 2767 H 262.665 -0.723389 4.11287 0
M  V30 2768 N 263.102 -1.41638 0.69111 0
M  V30 2769 C 264.012 -2.34588 0.0233487 0
M  V30 2770 C 265.028 -1.55987 -0.770984 0
M  V30 2771 O 266.204 -1.88486 -0.709569 0
M  V30 2772 C 263.269 -3.34684 -0.904851 0
M  V30 2773 C 262.33 -4.29176 -0.103225 0
M  V30 2774 C 261.563 -5.2449 -0.987216 0
M  V30 2775 O 261.786 -5.2514 -2.22674 0
M  V30 2776 O 260.72 -6.00295 -0.439281 0
M  V30 2777 H 264.546 -2.93261 0.789416 0
M  V30 2778 H 262.131 -1.42417 0.45142 0
M  V30 2779 H 264.013 -3.96133 -1.43724 0
M  V30 2780 H 262.688 -2.78461 -1.65049 0
M  V30 2781 H 261.595 -3.71089 0.473655 0
M  V30 2782 H 262.928 -4.88484 0.60365 0
M  V30 2783 N 264.58 -0.43555 -1.51462 0
M  V30 2784 C 265.829 0.133007 -2.01261 0
M  V30 2785 C 266.142 1.43942 -1.32439 0
M  V30 2786 O 267.348 2.09081 -1.73198 0
M  V30 2787 C 265.804 0.287581 -3.58749 0
M  V30 2788 C 265.412 -1.00829 -4.36506 0
M  V30 2789 C 267.156 0.810004 -4.167 0
M  V30 2790 C 265.063 -0.819454 -5.85695 0
M  V30 2791 H 263.993 0.0534822 -0.752101 0
M  V30 2792 H 266.644 -0.565038 -1.74584 0
M  V30 2793 H 265.026 1.04859 -3.81865 0
M  V30 2794 H 266.2 -1.77749 -4.25138 0
M  V30 2795 H 264.515 -1.45911 -3.89999 0
M  V30 2796 H 267.112 0.967743 -5.2587 0
M  V30 2797 H 267.455 1.79196 -3.75758 0
M  V30 2798 H 267.988 0.107357 -3.97655 0
M  V30 2799 H 264.727 -1.77374 -6.31046 0
M  V30 2800 H 264.247 -0.0900208 -5.99732 0
M  V30 2801 H 265.926 -0.471949 -6.45276 0
M  V30 2802 N 266.058 1.56714 -0.166846 0
M  V30 2803 C 266.988 2.20754 0.760913 0
M  V30 2804 C 267.969 1.16178 1.24244 0
M  V30 2805 O 269.154 1.44592 1.29641 0
M  V30 2806 C 266.284 2.84478 1.99223 0
M  V30 2807 C 265.238 3.95053 1.64672 0
M  V30 2808 C 264.564 4.45805 2.95232 0
M  V30 2809 C 265.864 5.14865 0.878155 0
M  V30 2810 H 267.558 2.98537 0.22713 0
M  V30 2811 H 265.104 1.43596 0.107805 0
M  V30 2812 H 267.057 3.27951 2.64624 0
M  V30 2813 H 265.781 2.04056 2.55007 0
M  V30 2814 H 264.44 3.52228 1.01641 0
M  V30 2815 H 264.088 3.62181 3.49047 0
M  V30 2816 H 263.788 5.204 2.7287 0
M  V30 2817 H 265.312 4.91962 3.6167 0
M  V30 2818 H 266.726 5.55059 1.43466 0
M  V30 2819 H 265.123 5.95348 0.753738 0
M  V30 2820 H 266.193 4.84735 -0.126377 0
M  V30 2821 N 267.536 -0.106894 1.57237 0
M  V30 2822 C 268.484 -1.14944 2.02215 0
M  V30 2823 C 269.478 -1.42167 0.92114 0
M  V30 2824 O 270.684 -1.41987 1.10634 0
M  V30 2825 H 267.059 -0.387841 0.64427 0
M  V30 2826 H 269.03 -0.743683 2.88984 0
M  V30 2827 C 267.779 -2.4647 2.4525 0
M  V30 2828 H 267.102 -2.26363 3.29545 0
M  V30 2829 H 268.542 -3.17948 2.80508 0
M  V30 2830 C 267.001 -3.09921 1.321 0
M  V30 2831 O 267.531 -3.9651 0.643622 0
M  V30 2832 N 265.737 -2.69986 1.07497 0
M  V30 2833 H 265.284 -1.99667 1.62761 0
M  V30 2834 H 265.242 -3.12769 0.319876 0
M  V30 2835 N 269.014 -1.53014 -0.377408 0
M  V30 2836 C 269.946 -1.74884 -1.48149 0
M  V30 2837 C 270.959 -0.629433 -1.5014 0
M  V30 2838 O 272.148 -0.905416 -1.53833 0
M  V30 2839 C 269.248 -1.80299 -2.86959 0
M  V30 2840 C 268.421 -3.09776 -3.08801 0
M  V30 2841 C 267.48 -3.06586 -4.27658 0
M  V30 2842 O 266.506 -3.80419 -4.23403 0
M  V30 2843 N 267.708 -2.26578 -5.34455 0
M  V30 2844 H 270.473 -2.70147 -1.29771 0
M  V30 2845 H 268.034 -1.51646 -0.56703 0
M  V30 2846 H 270.026 -1.75657 -3.64591 0
M  V30 2847 H 268.596 -0.92372 -2.98641 0
M  V30 2848 H 267.816 -3.27815 -2.18931 0
M  V30 2849 H 269.104 -3.95366 -3.20255 0
M  V30 2850 H 268.502 -1.66081 -5.40771 0
M  V30 2851 H 267.059 -2.27766 -6.10709 0
M  V30 2852 N 270.492 0.636531 -1.44174 0
M  V30 2853 C 271.739 1.39619 -1.46672 0
M  V30 2854 C 272.067 1.94257 -0.0972691 0
M  V30 2855 O 271.322 1.73768 0.900175 0
M  V30 2856 C 271.621 2.58309 -2.47005 0
M  V30 2857 C 271.287 2.21992 -3.92467 0
M  V30 2858 C 269.949 2.118 -4.32081 0
M  V30 2859 C 272.301 1.9321 -4.84065 0
M  V30 2860 C 269.629 1.71007 -5.61225 0
M  V30 2861 C 271.981 1.53911 -6.13591 0
M  V30 2862 C 270.645 1.42257 -6.52165 0
M  V30 2863 H 269.915 0.510902 -0.536712 0
M  V30 2864 H 272.562 0.722328 -1.77355 0
M  V30 2865 H 270.867 3.30903 -2.09786 0
M  V30 2866 H 272.564 3.16533 -2.46186 0
M  V30 2867 H 269.154 2.30841 -3.61124 0
M  V30 2868 H 273.338 1.99997 -4.54219 0
M  V30 2869 H 268.594 1.60583 -5.89935 0
M  V30 2870 H 272.768 1.30677 -6.8403 0
M  V30 2871 H 270.395 1.10419 -7.52138 0
M  V30 2872 N 271.97 1.30982 0.876444 0
M  V30 2873 C 273.381 1.18277 1.44456 0
M  V30 2874 C 273.732 -0.213265 1.95037 0
M  V30 2875 O 272.857 -1.11057 1.85729 0
M  V30 2876 C 273.452 2.1411 2.62569 0
M  V30 2877 C 272.011 2.05358 3.15444 0
M  V30 2878 C 271.158 2.03706 1.88146 0
M  V30 2879 H 274.109 1.43127 0.685584 0
M  V30 2880 H 274.13 1.72692 3.39054 0
M  V30 2881 H 273.642 3.15706 2.25724 0
M  V30 2882 H 271.743 1.06934 3.56926 0
M  V30 2883 H 271.856 2.94156 3.78166 0
M  V30 2884 H 270.22 1.48629 2.06837 0
M  V30 2885 H 271.003 3.07047 1.53547 0
M  V30 2886 N 273.449 -1.08991 1.13837 0
M  V30 2887 C 274.379 -2.17771 0.842507 0
M  V30 2888 C 275.36 -1.6892 -0.20001 0
M  V30 2889 O 276.545 -1.94113 -0.0579731 0
M  V30 2890 C 273.675 -3.4589 0.312644 0
M  V30 2891 C 272.629 -4.08099 1.28992 0
M  V30 2892 C 271.955 -5.31098 0.619623 0
M  V30 2893 C 273.255 -4.50077 2.65005 0
M  V30 2894 H 274.949 -2.42777 1.75213 0
M  V30 2895 H 272.495 -1.16682 0.843875 0
M  V30 2896 H 274.448 -4.21297 0.0933043 0
M  V30 2897 H 273.172 -3.20419 -0.632382 0
M  V30 2898 H 271.831 -3.34717 1.49533 0
M  V30 2899 H 271.479 -5.0191 -0.33102 0
M  V30 2900 H 271.179 -5.73674 1.27167 0
M  V30 2901 H 272.703 -6.09224 0.409669 0
M  V30 2902 H 274.117 -5.16688 2.48407 0
M  V30 2903 H 272.514 -5.03553 3.26427 0
M  V30 2904 H 273.584 -3.62257 3.22332 0
M  V30 2905 N 274.927 -0.932562 -1.27047 0
M  V30 2906 C 276.155 -0.592031 -1.98249 0
M  V30 2907 C 276.57 0.831062 -1.69525 0
M  V30 2908 O 275.927 1.55299 -0.958561 0
M  V30 2909 C 275.978 -0.814279 -3.5221 0
M  V30 2910 O 275.699 -2.18139 -3.7993 0
M  V30 2911 C 277.2 -0.483121 -4.4066 0
M  V30 2912 H 274.42 -0.223896 -0.632544 0
M  V30 2913 H 276.964 -1.25091 -1.61779 0
M  V30 2914 H 275.119 -0.20213 -3.86872 0
M  V30 2915 H 275.533 -2.235 -4.74498 0
M  V30 2916 H 277.007 -0.689298 -5.47679 0
M  V30 2917 H 277.484 0.581546 -4.35333 0
M  V30 2918 H 278.09 -1.07362 -4.11526 0
M  V30 2919 N 276.405 1.4127 -0.698611 0
M  V30 2920 C 277.635 2.05205 -0.239644 0
M  V30 2921 C 278.043 1.52684 1.11733 0
M  V30 2922 O 277.386 0.671222 1.70998 0
M  V30 2923 C 277.448 3.59289 -0.123126 0
M  V30 2924 C 277.112 4.34619 -1.41263 0
M  V30 2925 C 278.109 4.63701 -2.35111 0
M  V30 2926 C 275.794 4.73837 -1.66684 0
M  V30 2927 C 277.788 5.30966 -3.52639 0
M  V30 2928 C 275.475 5.40837 -2.84498 0
M  V30 2929 C 276.473 5.69329 -3.77298 0
M  V30 2930 O 276.161 6.34949 -4.93047 0
M  V30 2931 H 275.893 0.66723 -0.108537 0
M  V30 2932 H 278.447 1.81974 -0.952602 0
M  V30 2933 H 276.677 3.81272 0.645628 0
M  V30 2934 H 278.366 4.04797 0.299056 0
M  V30 2935 H 279.132 4.33882 -2.16729 0
M  V30 2936 H 275.011 4.51039 -0.953135 0
M  V30 2937 H 278.555 5.53121 -4.25091 0
M  V30 2938 H 274.452 5.70075 -3.02795 0
M  V30 2939 H 275.22 6.53445 -4.92902 0
M  V30 2940 N 277.883 0.443576 1.51229 0
M  V30 2941 C 279.129 -0.120975 2.02439 0
M  V30 2942 C 279.462 -1.41815 1.32674 0
M  V30 2943 O 278.737 -1.89373 0.443622 0
M  V30 2944 C 279.02 -0.333291 3.58554 0
M  V30 2945 C 278.873 0.982968 4.38928 0
M  V30 2946 C 280.192 -1.10028 4.26124 0
M  V30 2947 H 277.311 -0.0424923 0.735774 0
M  V30 2948 H 279.953 0.583794 1.80809 0
M  V30 2949 H 278.103 -0.933614 3.77115 0
M  V30 2950 H 279.775 1.61775 4.32003 0
M  V30 2951 H 278.018 1.58611 4.03763 0
M  V30 2952 H 278.689 0.788379 5.46341 0
M  V30 2953 H 281.165 -0.591711 4.11871 0
M  V30 2954 H 280.041 -1.21761 5.35225 0
M  V30 2955 H 280.302 -2.12996 3.87408 0
M  V30 2956 N 279.361 -1.56624 0.175154 0
M  V30 2957 C 280.309 -2.19468 -0.770495 0
M  V30 2958 C 281.303 -1.15985 -1.23466 0
M  V30 2959 O 282.509 -1.34176 -1.19987 0
M  V30 2960 H 278.884 -0.703095 -0.266761 0
M  V30 2961 H 280.855 -2.97613 -0.216542 0
M  V30 2962 C 279.604 -2.85264 -1.98796 0
M  V30 2963 H 278.927 -3.64623 -1.63983 0
M  V30 2964 H 280.367 -3.327 -2.62843 0
M  V30 2965 C 278.826 -1.85239 -2.81404 0
M  V30 2966 O 279.356 -1.34024 -3.78682 0
M  V30 2967 N 277.562 -1.53911 -2.46495 0
M  V30 2968 H 277.109 -1.95751 -1.67449 0
M  V30 2969 H 277.067 -0.872382 -3.02054 0
M  V30 2970 N 280.839 0.0985539 -1.57292 0
M  V30 2971 C 282.064 0.820196 -1.90493 0
M  V30 2972 C 282.489 1.71658 -0.769094 0
M  V30 2973 O 281.847 1.79133 0.279495 0
M  V30 2974 C 281.895 1.61242 -3.22542 0
M  V30 2975 O 280.999 2.72108 -3.09888 0
M  V30 2976 H 280.34 0.225547 -0.62452 0
M  V30 2977 H 282.87 0.0748159 -2.04463 0
M  V30 2978 H 282.88 1.99737 -3.55766 0
M  V30 2979 H 281.555 0.954535 -4.04798 0
M  V30 2980 H 280.132 2.36667 -2.88172 0
M  V30 2981 N 282.317 1.53212 0.369288 0
M  V30 2982 C 283.563 1.69466 1.11397 0
M  V30 2983 C 283.896 0.443257 1.89074 0
M  V30 2984 O 283.171 -0.559386 1.86282 0
M  V30 2985 C 283.454 2.9422 2.07621 0
M  V30 2986 C 283.307 4.29508 1.33577 0
M  V30 2987 C 284.626 3.14565 3.07794 0
M  V30 2988 H 281.745 0.616667 0.403597 0
M  V30 2989 H 284.387 1.85845 0.395179 0
M  V30 2990 H 282.537 2.80387 2.68916 0
M  V30 2991 H 284.209 4.55147 0.750955 0
M  V30 2992 H 282.452 4.29088 0.637618 0
M  V30 2993 H 283.123 5.12926 2.03989 0
M  V30 2994 H 285.599 3.2756 2.56601 0
M  V30 2995 H 284.475 4.03297 3.72348 0
M  V30 2996 H 284.736 2.29675 3.77759 0
M  V30 2997 N 283.795 -0.628877 1.44509 0
M  V30 2998 C 284.743 -1.76193 1.51852 0
M  V30 2999 C 285.737 -1.64849 0.390042 0
M  V30 3000 O 286.943 -1.709 0.565082 0
M  V30 3001 H 283.318 -0.581728 0.476547 0
M  V30 3002 H 285.289 -1.67123 2.47209 0
M  V30 3003 C 284.038 -3.14533 1.48204 0
M  V30 3004 H 283.361 -3.23911 2.34354 0
M  V30 3005 H 284.801 -3.93701 1.57402 0
M  V30 3006 C 283.26 -3.36287 0.203142 0
M  V30 3007 O 283.79 -3.9509 -0.725745 0
M  V30 3008 N 281.996 -2.90408 0.105563 0
M  V30 3009 H 281.543 -2.42739 0.862301 0
M  V30 3010 H 281.501 -3.05339 -0.749371 0
M  V30 3011 N 285.273 -1.31445 -0.869486 0
M  V30 3012 C 286.498 -1.24256 -1.66058 0
M  V30 3013 C 286.923 0.188928 -1.87149 0
M  V30 3014 O 286.281 1.13522 -1.4136 0
M  V30 3015 C 286.329 -1.9924 -3.00559 0
M  V30 3016 O 285.433 -1.33007 -3.90362 0
M  V30 3017 H 284.774 -0.428973 -0.506831 0
M  V30 3018 H 287.304 -1.73521 -1.08404 0
M  V30 3019 H 287.314 -2.08854 -3.50491 0
M  V30 3020 H 285.989 -3.03342 -2.84528 0
M  V30 3021 H 284.566 -1.31848 -3.48813 0
M  V30 3022 N 286.751 1.08385 -1.14413 0
M  V30 3023 C 288 1.80153 -0.907076 0
M  V30 3024 C 288.313 1.87176 0.567851 0
M  V30 3025 O 289.519 2.55359 0.922172 0
M  V30 3026 C 287.975 3.23687 -1.57336 0
M  V30 3027 C 287.583 3.24897 -3.08457 0
M  V30 3028 C 289.327 4.00136 -1.41744 0
M  V30 3029 C 287.234 4.6302 -3.67921 0
M  V30 3030 H 286.164 0.675139 -0.335714 0
M  V30 3031 H 288.815 1.21733 -1.37307 0
M  V30 3032 H 287.197 3.82234 -1.03505 0
M  V30 3033 H 288.371 2.76055 -3.68958 0
M  V30 3034 H 286.686 2.61943 -3.2369 0
M  V30 3035 H 289.283 5.02201 -1.83572 0
M  V30 3036 H 289.626 4.14709 -0.363576 0
M  V30 3037 H 290.159 3.48058 -1.92614 0
M  V30 3038 H 286.898 4.5365 -4.73161 0
M  V30 3039 H 286.418 5.12143 -3.12201 0
M  V30 3040 H 288.097 5.31994 -3.68227 0
M  V30 3041 N 288.23 0.939286 1.26551 0
M  V30 3042 C 289.478 0.58469 1.93457 0
M  V30 3043 C 289.799 -0.878774 1.74076 0
M  V30 3044 O 289.069 -1.62421 1.09528 0
M  V30 3045 H 287.649 0.21325 0.715914 0
M  V30 3046 H 290.311 1.1942 1.54029 0
M  V30 3047 H 289.407 0.800849 3.0165 0
M  V30 3048 N 289.708 -1.40897 0.706093 0
M  V30 3049 C 290.656 -2.32572 0.0361893 0
M  V30 3050 C 291.65 -1.51532 -0.757266 0
M  V30 3051 O 292.856 -1.67396 -0.661703 0
M  V30 3052 H 289.231 -0.751966 -0.00709935 0
M  V30 3053 H 291.202 -2.86733 0.826249 0
M  V30 3054 C 289.951 -3.36418 -0.87854 0
M  V30 3055 H 289.274 -3.98836 -0.277401 0
M  V30 3056 H 290.714 -4.0308 -1.3154 0
M  V30 3057 C 289.173 -2.71141 -1.99961 0
M  V30 3058 O 289.703 -2.56735 -3.0895 0
M  V30 3059 N 287.909 -2.29671 -1.78043 0
M  V30 3060 H 287.456 -2.41588 -0.894042 0
M  V30 3061 H 287.414 -1.86332 -2.53235 0
M  V30 3062 N 291.186 -0.45159 -1.50991 0
M  V30 3063 C 292.434 0.109857 -2.01801 0
M  V30 3064 C 292.755 1.41958 -1.3369 0
M  V30 3065 O 292.025 1.9003 -0.475951 0
M  V30 3066 H 290.605 0.0435884 -0.745727 0
M  V30 3067 H 293.267 -0.597557 -1.85514 0
M  V30 3068 H 292.363 0.275489 -3.10882 0
M  V30 3069 N 292.664 1.56529 -0.183458 0
M  V30 3070 C 293.594 2.21549 0.737456 0
M  V30 3071 C 294.575 1.17489 1.23005 0
M  V30 3072 O 295.76 1.45959 1.281 0
M  V30 3073 C 292.89 2.86575 1.96194 0
M  V30 3074 C 291.844 3.96778 1.60473 0
M  V30 3075 C 291.17 4.48911 2.90487 0
M  V30 3076 C 292.47 5.15767 0.823497 0
M  V30 3077 H 294.164 2.98761 0.195453 0
M  V30 3078 H 291.71 1.43702 0.0925686 0
M  V30 3079 H 293.663 3.30739 2.61131 0
M  V30 3080 H 292.387 2.06749 2.52828 0
M  V30 3081 H 291.046 3.53286 0.978997 0
M  V30 3082 H 290.694 3.65862 3.45186 0
M  V30 3083 H 290.394 5.23265 2.67335 0
M  V30 3084 H 291.918 4.95771 3.56432 0
M  V30 3085 H 293.332 5.56549 1.37571 0
M  V30 3086 H 291.729 5.96114 0.690551 0
M  V30 3087 H 292.799 4.84574 -0.177782 0
M  V30 3088 N 294.142 -0.090211 1.57342 0
M  V30 3089 C 295.389 -0.792807 1.86335 0
M  V30 3090 C 295.717 -1.78494 0.772662 0
M  V30 3091 O 294.972 -1.94305 -0.233258 0
M  V30 3092 C 295.271 -1.55222 3.21933 0
M  V30 3093 C 294.937 -0.701765 4.45406 0
M  V30 3094 C 293.599 -0.467334 4.78925 0
M  V30 3095 C 295.951 -0.11086 5.21082 0
M  V30 3096 C 293.279 0.367785 5.85546 0
M  V30 3097 C 295.631 0.711609 6.28585 0
M  V30 3098 C 294.295 0.956086 6.60617 0
M  V30 3099 H 293.565 -0.290109 0.681849 0
M  V30 3100 H 296.212 -0.0541332 1.91423 0
M  V30 3101 H 294.517 -2.3626 3.12551 0
M  V30 3102 H 296.214 -2.10032 3.41595 0
M  V30 3103 H 292.804 -0.894598 4.1916 0
M  V30 3104 H 296.988 -0.279129 4.95514 0
M  V30 3105 H 292.244 0.566128 6.08773 0
M  V30 3106 H 296.418 1.17632 6.86393 0
M  V30 3107 H 294.045 1.60499 7.43064 0
M  V30 3108 N 295.62 -1.53406 -0.361157 0
M  V30 3109 C 296.869 -1.69022 -1.10066 0
M  V30 3110 C 297.182 -0.450838 -1.90333 0
M  V30 3111 O 298.388 -0.487617 -2.67085 0
M  V30 3112 C 296.844 -2.98812 -2.00598 0
M  V30 3113 C 296.452 -4.30027 -1.25621 0
M  V30 3114 C 298.196 -3.23795 -2.74513 0
M  V30 3115 C 296.103 -5.50903 -2.1508 0
M  V30 3116 H 295.033 -0.629776 -0.414606 0
M  V30 3117 H 297.684 -1.79907 -0.361348 0
M  V30 3118 H 296.066 -2.8174 -2.78278 0
M  V30 3119 H 297.24 -4.57745 -0.529739 0
M  V30 3120 H 295.555 -4.11522 -0.635496 0
M  V30 3121 H 298.152 -4.11289 -3.41681 0
M  V30 3122 H 298.495 -2.40045 -3.40123 0
M  V30 3123 H 299.028 -3.41561 -2.03914 0
M  V30 3124 H 295.767 -6.37143 -1.54041 0
M  V30 3125 H 295.287 -5.27459 -2.85565 0
M  V30 3126 H 296.966 -5.85865 -2.74538 0
M  V30 3127 N 297.098 0.621204 -1.44841 0
M  V30 3128 C 298.375 1.38 -1.38619 0
M  V30 3129 C 298.755 2.11041 -0.0498935 0
M  V30 3130 O 298.103 2.06992 0.967816 0
M  V30 3131 C 298.313 2.33817 -2.59096 0
M  V30 3132 C 299.661 2.96844 -3.03593 0
M  V30 3133 O 300.685 2.44141 -2.59371 0
M  V30 3134 O 299.544 3.92476 -3.80296 0
M  V30 3135 H 296.638 0.61811 -0.549426 0
M  V30 3136 H 299.184 0.645429 -1.56947 0
M  V30 3137 H 297.956 1.79012 -3.47952 0
M  V30 3138 H 297.579 3.14676 -2.43032 0
M  V30 3139 N 298.576 1.31904 0.862503 0
M  V30 3140 C 299.987 1.19803 1.43193 0
M  V30 3141 C 300.338 -0.192567 1.95253 0
M  V30 3142 O 299.463 -1.09081 1.86896 0
M  V30 3143 C 300.058 2.16883 2.60283 0
M  V30 3144 C 298.617 2.08692 3.13248 0
M  V30 3145 C 297.764 2.05691 1.85975 0
M  V30 3146 H 300.715 1.43846 0.670365 0
M  V30 3147 H 300.736 1.76278 3.37204 0
M  V30 3148 H 300.248 3.18083 2.22363 0
M  V30 3149 H 298.349 1.10713 3.55771 0
M  V30 3150 H 298.462 2.9815 3.75025 0
M  V30 3151 H 296.826 1.50814 2.05249 0
M  V30 3152 H 297.609 3.08659 1.50282 0
M  V30 3153 N 300.054 -1.07777 1.14986 0
M  V30 3154 C 300.964 -2.18404 0.856546 0
M  V30 3155 C 301.98 -1.73211 -0.165485 0
M  V30 3156 O 303.156 -2.01399 0.00755219 0
M  V30 3157 C 300.221 -3.44977 0.34526 0
M  V30 3158 C 299.282 -4.0476 1.43065 0
M  V30 3159 C 298.515 -5.25291 0.943663 0
M  V30 3160 O 298.738 -5.70004 -0.212426 0
M  V30 3161 O 297.672 -5.76638 1.72547 0
M  V30 3162 H 301.498 -2.45978 1.78125 0
M  V30 3163 H 299.083 -1.17033 0.928631 0
M  V30 3164 H 300.965 -4.21348 0.0663671 0
M  V30 3165 H 299.64 -3.18965 -0.551631 0
M  V30 3166 H 298.547 -3.29949 1.76309 0
M  V30 3167 H 299.88 -4.35035 2.30229 0
M  V30 3168 N 301.532 -0.945985 -1.26051 0
M  V30 3169 C 302.495 -0.463897 -2.24456 0
M  V30 3170 C 303.495 0.427655 -1.55009 0
M  V30 3171 O 304.685 0.226157 -1.72726 0
M  V30 3172 C 301.817 0.330812 -3.39291 0
M  V30 3173 H 303.01 -1.33357 -2.68619 0
M  V30 3174 H 300.563 -0.728416 -1.38289 0
M  V30 3175 H 301.298 1.21852 -3.00537 0
M  V30 3176 H 301.083 -0.308679 -3.90883 0
M  V30 3177 H 302.573 0.657865 -4.12386 0
M  V30 3178 N 303.011 1.40521 -0.713556 0
M  V30 3179 C 303.921 2.34522 -0.0606667 0
M  V30 3180 C 304.937 1.57193 0.74607 0
M  V30 3181 O 306.113 1.89591 0.679493 0
M  V30 3182 C 303.178 3.36081 0.851491 0
M  V30 3183 C 302.239 4.29286 0.0349339 0
M  V30 3184 C 301.472 5.25994 0.903649 0
M  V30 3185 O 301.695 5.28616 2.14292 0
M  V30 3186 O 300.629 6.00918 0.343723 0
M  V30 3187 H 304.455 2.91968 -0.835972 0
M  V30 3188 H 302.04 1.41681 -0.47402 0
M  V30 3189 H 303.922 3.98369 1.37404 0
M  V30 3190 H 302.597 2.81052 1.60598 0
M  V30 3191 H 301.504 3.70289 -0.532633 0
M  V30 3192 H 302.837 4.87462 -0.681287 0
M  V30 3193 N 304.489 0.459591 1.5075 0
M  V30 3194 C 305.714 -0.0996819 2.0716 0
M  V30 3195 C 306.139 -1.33761 1.32249 0
M  V30 3196 O 305.497 -1.77551 0.366786 0
M  V30 3197 C 305.545 -0.378226 3.58611 0
M  V30 3198 O 304.649 -1.46081 3.85661 0
M  V30 3199 H 303.99 0.00791392 0.663953 0
M  V30 3200 H 306.52 0.647329 1.9409 0
M  V30 3201 H 306.53 -0.622135 4.03229 0
M  V30 3202 H 305.205 0.526439 4.12555 0
M  V30 3203 H 303.782 -1.20511 3.5289 0
M  V30 3204 N 305.967 -1.56429 0.191757 0
M  V30 3205 C 307.213 -1.97777 -0.448554 0
M  V30 3206 C 307.546 -1.07847 -1.61501 0
M  V30 3207 O 306.821 -0.129774 -1.94067 0
M  V30 3208 C 307.104 -3.48362 -0.911906 0
M  V30 3209 C 306.957 -4.4907 0.256136 0
M  V30 3210 C 308.276 -4.02561 -1.77857 0
M  V30 3211 H 305.395 -0.719071 -0.161572 0
M  V30 3212 H 308.037 -1.87896 0.282007 0
M  V30 3213 H 306.187 -3.56914 -1.53442 0
M  V30 3214 H 307.859 -4.5256 0.893733 0
M  V30 3215 H 306.102 -4.24181 0.908436 0
M  V30 3216 H 306.773 -5.51889 -0.11053 0
M  V30 3217 H 309.249 -3.96767 -1.25359 0
M  V30 3218 H 308.125 -5.08301 -2.07174 0
M  V30 3219 H 308.386 -3.47616 -2.73158 0
M  V30 3220 N 307.445 0.0818655 -1.57387 0
M  V30 3221 C 308.691 0.784074 -1.8703 0
M  V30 3222 C 309.024 1.77729 -0.782689 0
M  V30 3223 O 308.299 1.93384 0.208051 0
M  V30 3224 C 308.582 1.50105 -3.27323 0
M  V30 3225 C 308.435 0.524925 -4.46727 0
M  V30 3226 C 309.754 2.44843 -3.65705 0
M  V30 3227 H 306.873 0.283582 -0.680257 0
M  V30 3228 H 309.515 0.0474352 -1.89941 0
M  V30 3229 H 307.665 2.12897 -3.24972 0
M  V30 3230 H 309.337 -0.0970111 -4.61198 0
M  V30 3231 H 307.58 -0.160606 -4.33503 0
M  V30 3232 H 308.251 1.064 -5.41648 0
M  V30 3233 H 310.727 1.92135 -3.69085 0
M  V30 3234 H 309.603 2.92018 -4.64776 0
M  V30 3235 H 309.864 3.29197 -2.95096 0
M  V30 3236 N 308.923 1.53595 0.353017 0
M  V30 3237 C 310.172 1.69603 1.09168 0
M  V30 3238 C 310.485 0.460925 1.90092 0
M  V30 3239 O 311.691 0.501774 2.66823 0
M  V30 3240 C 310.147 2.99872 1.9901 0
M  V30 3241 C 309.755 4.30687 1.23339 0
M  V30 3242 C 311.499 3.25246 2.72792 0
M  V30 3243 C 309.406 5.52036 2.12156 0
M  V30 3244 H 308.336 0.631966 0.411261 0
M  V30 3245 H 310.987 1.80096 0.351802 0
M  V30 3246 H 309.369 2.83212 2.7678 0
M  V30 3247 H 310.543 4.58019 0.505456 0
M  V30 3248 H 308.858 4.11853 0.613663 0
M  V30 3249 H 311.455 4.13095 3.39495 0
M  V30 3250 H 311.798 2.41846 3.38846 0
M  V30 3251 H 312.331 3.42638 2.021 0
M  V30 3252 H 309.07 6.37951 1.50659 0
M  V30 3253 H 308.59 5.28966 2.82764 0
M  V30 3254 H 310.269 5.87313 2.71427 0
M  V30 3255 N 310.401 -0.613514 1.45168 0
M  V30 3256 C 311.348 -1.72456 1.53387 0
M  V30 3257 C 312.318 -1.6169 0.380191 0
M  V30 3258 O 313.503 -1.81356 0.592836 0
M  V30 3259 C 310.643 -3.10753 1.50088 0
M  V30 3260 C 309.756 -3.32368 2.75963 0
M  V30 3261 C 308.891 -4.60737 2.64376 0
M  V30 3262 C 307.93 -4.7559 3.85332 0
M  V30 3263 N 307.067 -5.95253 3.72315 0
M  V30 3264 H 311.907 -1.64768 2.48305 0
M  V30 3265 H 309.444 -0.803503 1.23216 0
M  V30 3266 H 311.402 -3.90758 1.46164 0
M  V30 3267 H 310.032 -3.17413 0.587243 0
M  V30 3268 H 309.084 -2.4618 2.89999 0
M  V30 3269 H 310.396 -3.39218 3.65695 0
M  V30 3270 H 309.55 -5.48928 2.58385 0
M  V30 3271 H 308.289 -4.56275 1.72233 0
M  V30 3272 H 307.294 -3.85824 3.91688 0
M  V30 3273 H 308.519 -4.81854 4.78533 0
M  V30 3274 H 306.465 -5.91847 2.82937 0
M  V30 3275 H 306.382 -6.03236 4.55677 0
M  V30 3276 H 307.65 -6.85958 3.70246 0
M  V30 3277 N 311.879 -1.3236 -0.855495 0
M  V30 3278 C 313.29 -1.2056 -1.42556 0
M  V30 3279 C 313.641 0.182209 -1.95352 0
M  V30 3280 O 312.766 1.08088 -1.87472 0
M  V30 3281 C 313.361 -2.1826 -2.59129 0
M  V30 3282 C 311.92 -2.10351 -3.12137 0
M  V30 3283 C 311.067 -2.06674 -1.84882 0
M  V30 3284 H 314.018 -1.442 -0.662727 0
M  V30 3285 H 314.039 -1.78064 -3.36264 0
M  V30 3286 H 313.551 -3.19257 -2.20673 0
M  V30 3287 H 311.652 -1.12599 -3.55179 0
M  V30 3288 H 311.765 -3.00135 -3.73438 0
M  V30 3289 H 310.129 -1.51901 -2.04446 0
M  V30 3290 H 310.912 -3.09451 -1.48643 0
M  V30 3291 N 313.357 1.07166 -1.15556 0
M  V30 3292 C 314.304 2.14417 -0.854055 0
M  V30 3293 C 315.274 1.64965 0.193806 0
M  V30 3294 O 316.459 1.90703 0.0609443 0
M  V30 3295 C 313.599 3.43304 -0.351574 0
M  V30 3296 C 312.712 4.06537 -1.46123 0
M  V30 3297 C 311.847 5.23266 -0.914677 0
M  V30 3298 C 310.886 5.78464 -2.00114 0
M  V30 3299 N 310.023 6.86521 -1.47083 0
M  V30 3300 H 314.863 2.39548 -1.77259 0
M  V30 3301 H 312.4 1.17543 -0.884425 0
M  V30 3302 H 314.358 4.17179 -0.0419409 0
M  V30 3303 H 312.988 3.18419 0.530037 0
M  V30 3304 H 312.04 3.30297 -1.88701 0
M  V30 3305 H 313.352 4.43567 -2.28144 0
M  V30 3306 H 312.506 6.04131 -0.557698 0
M  V30 3307 H 311.245 4.87658 -0.0636583 0
M  V30 3308 H 310.25 4.96243 -2.36692 0
M  V30 3309 H 311.475 6.16126 -2.85597 0
M  V30 3310 H 309.421 6.52849 -0.642198 0
M  V30 3311 H 309.338 7.22446 -2.22729 0
M  V30 3312 H 310.606 7.71087 -1.14215 0
M  V30 3313 N 314.835 0.952656 1.25548 0
M  V30 3314 C 316.112 0.523818 1.88456 0
M  V30 3315 C 316.492 -0.998871 1.85973 0
M  V30 3316 O 315.84 -1.86381 1.3219 0
M  V30 3317 C 316.05 1.0982 3.31271 0
M  V30 3318 C 317.398 1.17385 4.08051 0
M  V30 3319 O 318.422 1.04961 3.40384 0
M  V30 3320 O 317.281 1.36852 5.29088 0
M  V30 3321 H 314.375 0.172485 0.808813 0
M  V30 3322 H 316.921 1.04596 1.33633 0
M  V30 3323 H 315.693 2.1415 3.27499 0
M  V30 3324 H 315.316 0.559191 3.93648 0
M  V30 3325 N 316.313 -1.40141 0.720998 0
M  V30 3326 C 317.561 -2.0039 0.262323 0
M  V30 3327 C 317.882 -1.57469 -1.15015 0
M  V30 3328 O 317.152 -0.816582 -1.78069 0
M  V30 3329 H 315.732 -0.741063 0.093996 0
M  V30 3330 H 318.394 -1.71398 0.927835 0
M  V30 3331 H 317.49 -3.10658 0.299671 0
M  V30 3332 N 317.792 -0.46758 -1.50504 0
M  V30 3333 C 319.039 0.0886219 -2.02306 0
M  V30 3334 C 319.367 1.40037 -1.34981 0
M  V30 3335 O 318.622 1.90136 -0.463318 0
M  V30 3336 C 318.921 0.323995 -3.55928 0
M  V30 3337 C 318.587 -0.905618 -4.41712 0
M  V30 3338 C 317.249 -1.24275 -4.64875 0
M  V30 3339 C 319.601 -1.72448 -4.91845 0
M  V30 3340 C 316.929 -2.39888 -5.35417 0
M  V30 3341 C 319.281 -2.87185 -5.63656 0
M  V30 3342 C 317.945 -3.21317 -5.85074 0
M  V30 3343 H 317.215 0.0324291 -0.74029 0
M  V30 3344 H 319.862 -0.620945 -1.81153 0
M  V30 3345 H 318.167 1.11577 -3.75577 0
M  V30 3346 H 319.864 0.76826 -3.93572 0
M  V30 3347 H 316.454 -0.632956 -4.239 0
M  V30 3348 H 320.638 -1.4772 -4.73806 0
M  V30 3349 H 315.894 -2.66611 -5.50208 0
M  V30 3350 H 320.068 -3.50985 -6.01484 0
M  V30 3351 H 317.695 -4.1101 -6.39511 0
M  V30 3352 N 319.27 1.56325 -0.20005 0
M  V30 3353 C 320.518 1.97329 0.436547 0
M  V30 3354 C 320.839 1.08826 1.61808 0
M  V30 3355 O 320.109 0.160604 1.95241 0
M  V30 3356 H 318.689 0.728714 0.164272 0
M  V30 3357 H 321.351 1.92761 -0.287937 0
M  V30 3358 H 320.447 3.02264 0.777353 0
M  V30 3359 N 320.748 -0.0735177 1.57428 0
M  V30 3360 C 321.996 -0.771472 1.86796 0
M  V30 3361 C 322.317 -1.78201 0.791804 0
M  V30 3362 O 321.587 -1.95074 -0.179718 0
M  V30 3363 H 320.167 -0.28791 0.689287 0
M  V30 3364 H 322.829 -0.0500161 1.94836 0
M  V30 3365 H 321.925 -1.28874 2.8425 0
M  V30 3366 N 322.226 -1.5378 -0.344866 0
M  V30 3367 C 323.475 -1.7018 -1.08267 0
M  V30 3368 C 323.788 -0.471 -1.89845 0
M  V30 3369 O 324.994 -0.515917 -2.66553 0
M  V30 3370 C 323.45 -3.00923 -1.97417 0
M  V30 3371 C 323.058 -4.31335 -1.21053 0
M  V30 3372 C 324.802 -3.26688 -2.71063 0
M  V30 3373 C 322.709 -5.53153 -2.09225 0
M  V30 3374 H 321.639 -0.634138 -0.407903 0
M  V30 3375 H 324.29 -1.8028 -0.342246 0
M  V30 3376 H 322.672 -2.84676 -2.75274 0
M  V30 3377 H 323.846 -4.58281 -0.481159 0
M  V30 3378 H 322.161 -4.12173 -0.591813 0
M  V30 3379 H 324.758 -4.1489 -3.37299 0
M  V30 3380 H 325.101 -2.43639 -3.37558 0
M  V30 3381 H 325.634 -3.43705 -2.0028 0
M  V30 3382 H 322.373 -6.38741 -1.47274 0
M  V30 3383 H 321.893 -5.30458 -2.79955 0
M  V30 3384 H 323.572 -5.88744 -2.68308 0
M  V30 3385 N 323.704 0.605807 -1.45491 0
M  V30 3386 C 324.952 1.36207 -1.49305 0
M  V30 3387 C 325.273 1.94519 -0.136863 0
M  V30 3388 O 324.543 1.77261 0.833983 0
M  V30 3389 H 323.123 0.50565 -0.549843 0
M  V30 3390 H 325.785 0.711239 -1.81459 0
M  V30 3391 H 324.881 2.18058 -2.23287 0
M  V30 3392 N 325.182 1.32811 0.848464 0
M  V30 3393 C 326.43 1.23479 1.59991 0
M  V30 3394 C 326.751 -0.201853 1.93952 0
M  V30 3395 O 326.021 -1.12818 1.60153 0
M  V30 3396 H 324.601 0.454034 0.593179 0
M  V30 3397 H 327.263 1.66412 1.01455 0
M  V30 3398 H 326.359 1.82178 2.53412 0
M  V30 3399 N 326.66 -1.06551 1.16123 0
M  V30 3400 C 327.623 -2.12132 0.867906 0
M  V30 3401 C 328.623 -1.60224 -0.135944 0
M  V30 3402 O 329.813 -1.73943 0.0946422 0
M  V30 3403 C 326.945 -3.396 0.297419 0
M  V30 3404 H 328.138 -2.39586 1.80385 0
M  V30 3405 H 325.691 -1.22574 0.969812 0
M  V30 3406 H 326.426 -3.17794 -0.64633 0
M  V30 3407 H 326.211 -3.78581 1.02073 0
M  V30 3408 H 327.701 -4.17455 0.110052 0
M  V30 3409 N 328.138 -0.959301 -1.25041 0
M  V30 3410 C 329.368 -0.63303 -1.96663 0
M  V30 3411 C 329.776 0.800031 -1.71453 0
M  V30 3412 O 329.119 1.54736 -0.99008 0
M  V30 3413 C 329.181 -0.817523 -3.50081 0
M  V30 3414 C 328.845 -2.22863 -3.98975 0
M  V30 3415 C 329.842 -3.20569 -4.09306 0
M  V30 3416 C 327.527 -2.55407 -4.32519 0
M  V30 3417 C 329.521 -4.4891 -4.52503 0
M  V30 3418 C 327.208 -3.83976 -4.754 0
M  V30 3419 C 328.206 -4.8054 -4.85356 0
M  V30 3420 O 327.894 -6.06817 -5.27284 0
M  V30 3421 H 327.626 -0.235866 -0.633516 0
M  V30 3422 H 330.18 -1.2874 -1.60047 0
M  V30 3423 H 328.41 -0.105992 -3.86555 0
M  V30 3424 H 330.099 -0.491604 -4.02912 0
M  V30 3425 H 330.865 -2.96753 -3.83618 0
M  V30 3426 H 326.744 -1.8097 -4.23994 0
M  V30 3427 H 330.288 -5.24283 -4.60188 0
M  V30 3428 H 326.185 -4.07596 -5.00535 0
M  V30 3429 H 326.953 -6.10262 -5.45457 0
M  V30 3430 N 329.616 1.39756 -0.72842 0
M  V30 3431 C 330.865 1.99879 -0.270407 0
M  V30 3432 C 331.178 1.58449 1.14688 0
M  V30 3433 O 332.384 2.11362 1.70407 0
M  V30 3434 C 330.84 3.57292 -0.43252 0
M  V30 3435 C 330.448 4.07688 -1.85727 0
M  V30 3436 C 332.192 4.24485 -0.0359507 0
M  V30 3437 C 330.099 5.5765 -1.96928 0
M  V30 3438 H 329.029 0.747689 -0.0973472 0
M  V30 3439 H 331.68 1.59837 -0.901355 0
M  V30 3440 H 330.062 3.95097 0.267219 0
M  V30 3441 H 331.236 3.81231 -2.58843 0
M  V30 3442 H 329.551 3.53135 -2.20646 0
M  V30 3443 H 332.148 5.34609 -0.0987484 0
M  V30 3444 H 332.491 4.03915 1.00787 0
M  V30 3445 H 333.024 3.9183 -0.686604 0
M  V30 3446 H 329.763 5.8309 -2.99476 0
M  V30 3447 H 329.283 5.8593 -1.28241 0
M  V30 3448 H 330.962 6.22957 -1.74737 0
M  V30 3449 N 331.094 0.475555 1.50254 0
M  V30 3450 C 332.041 -0.316293 2.28622 0
M  V30 3451 C 333.011 -0.983227 1.33873 0
M  V30 3452 O 334.196 -0.994805 1.62814 0
M  V30 3453 C 331.336 -1.38975 3.1588 0
M  V30 3454 C 330.449 -0.737146 4.25664 0
M  V30 3455 C 329.584 -1.78887 5.00173 0
M  V30 3456 C 328.623 -1.11676 6.01826 0
M  V30 3457 N 327.76 -2.11154 6.69596 0
M  V30 3458 H 332.6 0.358297 2.95838 0
M  V30 3459 H 330.137 0.188541 1.45887 0
M  V30 3460 H 332.095 -2.02383 3.64825 0
M  V30 3461 H 330.725 -2.03344 2.50701 0
M  V30 3462 H 329.777 0.0096065 3.80399 0
M  V30 3463 H 331.089 -0.206816 4.98371 0
M  V30 3464 H 330.243 -2.49865 5.52859 0
M  V30 3465 H 328.982 -2.35302 4.27182 0
M  V30 3466 H 327.987 -0.392633 5.48396 0
M  V30 3467 H 329.212 -0.55945 6.76792 0
M  V30 3468 H 327.158 -2.66577 5.99394 0
M  V30 3469 H 327.075 -1.63118 7.38193 0
M  V30 3470 H 328.343 -2.81497 7.26897 0
M  V30 3471 N 332.573 -1.56217 0.208337 0
M  V30 3472 C 333.984 -1.84243 -0.301904 0
M  V30 3473 C 334.335 -1.12939 -1.60434 0
M  V30 3474 O 333.46 -0.39461 -2.12772 0
M  V30 3475 C 334.055 -3.34231 -0.554543 0
M  V30 3476 C 332.614 -3.62621 -1.00912 0
M  V30 3477 C 331.761 -2.77224 -0.064933 0
M  V30 3478 H 334.712 -1.52712 0.431833 0
M  V30 3479 H 334.733 -3.5372 -1.40223 0
M  V30 3480 H 334.245 -3.86099 0.393561 0
M  V30 3481 H 332.346 -3.16197 -1.97104 0
M  V30 3482 H 332.459 -4.7071 -0.892674 0
M  V30 3483 H 330.823 -2.48256 -0.56929 0
M  V30 3484 H 331.606 -3.31887 0.877851 0
M  V30 3485 N 334.051 0.0651679 -1.57465 0
M  V30 3486 C 335.279 0.775808 -1.91804 0
M  V30 3487 C 335.694 1.70782 -0.804916 0
M  V30 3488 O 335.051 1.81153 0.221311 0
M  V30 3489 C 335.102 1.56381 -3.25925 0
M  V30 3490 O 334.823 0.669248 -4.32958 0
M  V30 3491 C 336.324 2.37485 -3.7432 0
M  V30 3492 H 333.544 0.2202 -0.63384 0
M  V30 3493 H 336.088 0.0334587 -2.04473 0
M  V30 3494 H 334.243 2.25837 -3.14764 0
M  V30 3495 H 334.657 1.21801 -5.10162 0
M  V30 3496 H 336.131 2.88223 -4.70778 0
M  V30 3497 H 336.608 3.17307 -3.03666 0
M  V30 3498 H 337.214 1.73173 -3.88447 0
M  V30 3499 N 335.529 1.53961 0.336706 0
M  V30 3500 C 336.492 1.81724 1.39675 0
M  V30 3501 C 337.492 0.688532 1.45313 0
M  V30 3502 O 338.682 0.956829 1.45569 0
M  V30 3503 C 335.814 1.96543 2.78538 0
M  V30 3504 H 337.007 2.76424 1.16318 0
M  V30 3505 H 334.56 1.45478 0.571474 0
M  V30 3506 H 335.295 1.0401 3.07168 0
M  V30 3507 H 335.08 2.78665 2.75841 0
M  V30 3508 H 336.57 2.19516 3.5525 0
M  V30 3509 N 337.007 -0.598083 1.45811 0
M  V30 3510 C 337.937 -1.71873 1.58057 0
M  V30 3511 C 338.918 -1.64533 0.431615 0
M  V30 3512 O 340.103 -1.82787 0.65595 0
M  V30 3513 C 337.233 -3.10495 1.55597 0
M  V30 3514 C 336.187 -3.32654 2.69305 0
M  V30 3515 C 335.513 -4.71646 2.51902 0
M  V30 3516 C 336.813 -3.21981 4.11248 0
M  V30 3517 H 338.507 -1.61881 2.51863 0
M  V30 3518 H 336.053 -0.777372 1.21214 0
M  V30 3519 H 338.006 -3.88699 1.6276 0
M  V30 3520 H 336.73 -3.2135 0.583255 0
M  V30 3521 H 335.389 -2.56843 2.61586 0
M  V30 3522 H 335.037 -4.79246 1.52748 0
M  V30 3523 H 334.737 -4.87426 3.2816 0
M  V30 3524 H 336.261 -5.52038 2.60933 0
M  V30 3525 H 337.675 -3.90049 4.20161 0
M  V30 3526 H 336.072 -3.49289 4.87972 0
M  V30 3527 H 337.142 -2.1928 4.32486 0
M  V30 3528 N 338.485 -1.33259 -0.841409 0
M  V30 3529 C 339.448 -1.23221 -1.9326 0
M  V30 3530 C 340.448 -0.151895 -1.60081 0
M  V30 3531 O 341.638 -0.403246 -1.69468 0
M  V30 3532 C 338.77 -0.898123 -3.28856 0
M  V30 3533 H 339.963 -2.2021 -2.03587 0
M  V30 3534 H 337.516 -1.17281 -1.03319 0
M  V30 3535 H 338.251 0.0693841 -3.24226 0
M  V30 3536 H 338.036 -1.67934 -3.54317 0
M  V30 3537 H 339.526 -0.852563 -4.08805 0
M  V30 3538 N 339.963 1.05934 -1.16686 0
M  V30 3539 C 340.911 2.15603 -0.872817 0
M  V30 3540 C 341.905 1.68647 0.159576 0
M  V30 3541 O 343.111 1.79995 0.0132125 0
M  V30 3542 H 339.486 0.703885 -0.264671 0
M  V30 3543 H 341.457 2.37613 -1.80507 0
M  V30 3544 C 340.206 3.45457 -0.394344 0
M  V30 3545 H 339.529 3.81984 -1.18019 0
M  V30 3546 H 340.969 4.2339 -0.227408 0
M  V30 3547 C 339.428 3.25021 0.88673 0
M  V30 3548 O 339.958 3.50906 1.95519 0
M  V30 3549 N 338.164 2.78437 0.831925 0
M  V30 3550 H 337.711 2.57572 -0.0377619 0
M  V30 3551 H 337.669 2.65144 1.68956 0
M  V30 3552 N 341.441 0.965919 1.2453 0
M  V30 3553 C 342.687 0.62776 1.92839 0
M  V30 3554 C 343.02 -0.834694 1.75347 0
M  V30 3555 O 342.295 -1.60031 1.10546 0
M  V30 3556 C 342.578 1.00109 3.45905 0
M  V30 3557 C 342.431 2.52011 3.72573 0
M  V30 3558 C 343.75 0.53435 4.36844 0
M  V30 3559 H 340.869 0.229537 0.700344 0
M  V30 3560 H 343.511 1.2046 1.46933 0
M  V30 3561 H 341.661 0.510238 3.85135 0
M  V30 3562 H 343.333 3.08559 3.42912 0
M  V30 3563 H 341.576 2.95287 3.17786 0
M  V30 3564 H 342.247 2.73183 4.79661 0
M  V30 3565 H 344.723 0.955565 4.04979 0
M  V30 3566 H 343.599 0.824152 5.42678 0
M  V30 3567 H 343.86 -0.565589 4.38467 0
M  V30 3568 N 342.919 -1.39368 0.735821 0
M  V30 3569 C 344.335 -1.54204 0.411492 0
M  V30 3570 C 344.535 -1.70268 -1.07755 0
M  V30 3571 O 343.591 -1.70364 -1.86366 0
M  V30 3572 C 344.904 -2.75925 1.19523 0
M  V30 3573 C 346.452 -2.89761 1.18354 0
M  V30 3574 C 346.927 -4.14421 1.94986 0
M  V30 3575 N 348.418 -4.21462 1.92156 0
M  V30 3576 C 349.153 -5.16871 2.48258 0
M  V30 3577 N 348.649 -6.18063 3.13001 0
M  V30 3578 N 350.442 -5.09093 2.38287 0
M  V30 3579 H 342.593 -1.27189 1.70108 0
M  V30 3580 H 344.856 -0.616517 0.720147 0
M  V30 3581 H 344.562 -2.70401 2.24892 0
M  V30 3582 H 344.436 -3.68614 0.800222 0
M  V30 3583 H 346.823 -2.94777 0.137975 0
M  V30 3584 H 346.904 -1.98133 1.61793 0
M  V30 3585 H 346.548 -4.10166 2.99543 0
M  V30 3586 H 346.478 -5.05095 1.48953 0
M  V30 3587 H 348.969 -3.48979 1.44991 0
M  V30 3588 H 349.282 -6.87326 3.53275 0
M  V30 3589 H 347.627 -6.18448 3.17091 0
M  V30 3590 H 350.818 -4.28973 1.8735 0
M  V30 3591 H 350.991 -5.83272 2.82308 0
M  V30 3592 N 344.397 -0.483516 -1.5 0
M  V30 3593 C 345.36 0.292965 -2.2732 0
M  V30 3594 C 346.36 0.909499 -1.32608 0
M  V30 3595 O 347.55 0.776745 -1.55924 0
M  V30 3596 C 344.682 1.41854 -3.09984 0
M  V30 3597 H 345.875 -0.385289 -2.97415 0
M  V30 3598 H 343.428 -0.237942 -1.54478 0
M  V30 3599 H 344.163 2.13148 -2.44414 0
M  V30 3600 H 343.948 0.982114 -3.79601 0
M  V30 3601 H 345.438 1.96597 -3.68429 0
M  V30 3602 N 345.875 1.56104 -0.216619 0
M  V30 3603 C 347.122 1.98172 0.416416 0
M  V30 3604 C 347.45 1.10413 1.60122 0
M  V30 3605 O 346.705 0.147967 1.9514 0
M  V30 3606 C 347.004 3.45923 0.898464 0
M  V30 3607 C 346.67 4.50559 -0.175288 0
M  V30 3608 C 345.332 4.78897 -0.470271 0
M  V30 3609 C 347.684 5.1334 -0.901728 0
M  V30 3610 C 345.012 5.67299 -1.4963 0
M  V30 3611 C 347.364 6.02853 -1.91705 0
M  V30 3612 C 346.028 6.29537 -2.21901 0
M  V30 3613 H 345.298 0.725164 0.152377 0
M  V30 3614 H 347.945 1.88839 -0.318103 0
M  V30 3615 H 346.25 3.52434 1.71165 0
M  V30 3616 H 347.947 3.75841 1.39803 0
M  V30 3617 H 344.537 4.28551 0.0647806 0
M  V30 3618 H 348.721 4.91521 -0.687072 0
M  V30 3619 H 343.977 5.86239 -1.73592 0
M  V30 3620 H 348.151 6.50552 -2.48505 0
M  V30 3621 H 345.778 6.97835 -3.01548 0
M  V30 3622 N 347.353 -0.0568162 1.57498 0
M  V30 3623 C 348.583 -0.764515 1.91934 0
M  V30 3624 C 348.991 -1.70877 0.81227 0
M  V30 3625 O 348.334 -1.82351 -0.222213 0
M  V30 3626 C 348.396 -1.5994 3.21962 0
M  V30 3627 C 348.06 -0.822925 4.4953 0
M  V30 3628 C 349.057 -0.135464 5.19723 0
M  V30 3629 C 346.742 -0.785666 4.96117 0
M  V30 3630 C 348.736 0.578861 6.34766 0
M  V30 3631 C 346.423 -0.0675784 6.11063 0
M  V30 3632 C 347.421 0.613471 6.80239 0
M  V30 3633 O 347.109 1.31996 7.92989 0
M  V30 3634 H 346.841 -0.221647 0.63863 0
M  V30 3635 H 349.395 -0.0268218 2.05382 0
M  V30 3636 H 347.625 -2.38026 3.04763 0
M  V30 3637 H 349.314 -2.18715 3.41934 0
M  V30 3638 H 350.08 -0.155458 4.84751 0
M  V30 3639 H 345.959 -1.30524 4.42136 0
M  V30 3640 H 349.503 1.111 6.88696 0
M  V30 3641 H 345.4 -0.0455636 6.45484 0
M  V30 3642 H 346.168 1.23077 8.09194 0
M  V30 3643 N 348.832 -1.54138 -0.328536 0
M  V30 3644 C 350.06 -1.76062 -1.08673 0
M  V30 3645 C 350.475 -0.506852 -1.81869 0
M  V30 3646 O 349.832 0.522223 -1.74869 0
M  V30 3647 C 349.883 -2.95054 -2.08866 0
M  V30 3648 O 349.604 -4.15583 -1.38644 0
M  V30 3649 C 351.105 -3.2915 -2.96943 0
M  V30 3650 H 348.325 -0.587889 -0.323461 0
M  V30 3651 H 350.869 -2.0101 -0.376175 0
M  V30 3652 H 349.024 -2.72394 -2.75464 0
M  V30 3653 H 349.438 -4.82481 -2.05699 0
M  V30 3654 H 350.912 -4.15723 -3.63151 0
M  V30 3655 H 351.389 -2.461 -3.63774 0
M  V30 3656 H 351.995 -3.53871 -2.35914 0
M  V30 3657 N 350.31 0.590341 -1.46126 0
M  V30 3658 C 351.726 0.912917 -1.30912 0
M  V30 3659 C 351.926 1.99616 -0.274893 0
M  V30 3660 O 350.982 2.50397 0.325197 0
M  V30 3661 C 352.295 1.3375 -2.69317 0
M  V30 3662 C 353.843 1.45077 -2.77348 0
M  V30 3663 C 354.318 1.90904 -4.16317 0
M  V30 3664 N 355.809 1.9811 -4.18696 0
M  V30 3665 C 356.544 2.34828 -5.23109 0
M  V30 3666 N 356.04 2.70393 -6.37856 0
M  V30 3667 N 357.833 2.35317 -5.10473 0
M  V30 3668 H 349.984 -0.125358 -2.1203 0
M  V30 3669 H 352.247 0.00658481 -0.947977 0
M  V30 3670 H 351.953 0.615614 -3.4627 0
M  V30 3671 H 351.827 2.30058 -2.9892 0
M  V30 3672 H 354.214 2.16353 -2.00687 0
M  V30 3673 H 354.295 0.4704 -2.51438 0
M  V30 3674 H 353.939 1.20209 -4.9347 0
M  V30 3675 H 353.869 2.89886 -4.39629 0
M  V30 3676 H 356.36 1.73146 -3.359 0
M  V30 3677 H 356.673 2.97341 -7.13308 0
M  V30 3678 H 355.018 2.68048 -6.41229 0
M  V30 3679 H 358.209 2.0695 -4.19868 0
M  V30 3680 H 358.382 2.63605 -5.9196 0
M  V30 3681 N 351.788 1.33704 0.83433 0
M  V30 3682 C 352.718 1.26967 1.95963 0
M  V30 3683 C 353.699 0.149337 1.69443 0
M  V30 3684 O 354.884 0.339852 1.91203 0
M  V30 3685 C 352.014 1.01275 3.32206 0
M  V30 3686 C 350.968 2.09652 3.73136 0
M  V30 3687 C 350.294 1.69166 5.07235 0
M  V30 3688 C 351.594 3.51372 3.86439 0
M  V30 3689 H 353.288 2.2112 2.01857 0
M  V30 3690 H 350.834 1.06447 0.969793 0
M  V30 3691 H 352.787 0.952106 4.10503 0
M  V30 3692 H 351.511 0.0356203 3.26581 0
M  V30 3693 H 350.17 2.14766 2.97104 0
M  V30 3694 H 349.818 0.701437 4.98085 0
M  V30 3695 H 349.518 2.41694 5.35591 0
M  V30 3696 H 351.042 1.64576 5.88003 0
M  V30 3697 H 352.456 3.48734 4.55036 0
M  V30 3698 H 350.853 4.22425 4.26236 0
M  V30 3699 H 351.923 3.89546 2.88759 0
M  V30 3700 N 353.266 -1.05314 1.17247 0
M  V30 3701 C 354.213 -2.13031 0.888058 0
M  V30 3702 C 355.183 -1.65253 -0.167537 0
M  V30 3703 O 356.368 -1.90775 -0.0305974 0
M  V30 3704 C 353.508 -3.42702 0.406147 0
M  V30 3705 C 352.621 -4.04161 1.52572 0
M  V30 3706 C 351.756 -5.21744 0.997808 0
M  V30 3707 C 350.795 -5.75207 2.09291 0
M  V30 3708 N 349.932 -6.84094 1.57986 0
M  V30 3709 H 354.772 -2.36698 1.81048 0
M  V30 3710 H 352.309 -1.16121 0.903013 0
M  V30 3711 H 354.267 -4.17059 0.108305 0
M  V30 3712 H 352.897 -3.19222 -0.479313 0
M  V30 3713 H 351.949 -3.27253 1.93931 0
M  V30 3714 H 353.261 -4.39881 2.35172 0
M  V30 3715 H 352.415 -6.03168 0.653739 0
M  V30 3716 H 351.154 -4.87495 0.141232 0
M  V30 3717 H 350.159 -4.92414 2.44557 0
M  V30 3718 H 351.384 -6.11505 2.95362 0
M  V30 3719 H 349.33 -6.51745 0.74598 0
M  V30 3720 H 349.247 -7.18811 2.34195 0
M  V30 3721 H 350.515 -7.69172 1.26468 0
M  V30 3722 N 354.744 -0.972509 -1.24016 0
M  V30 3723 C 356.155 -0.67517 -1.74064 0
M  V30 3724 C 356.506 0.808939 -1.78747 0
M  V30 3725 O 355.631 1.63286 -1.42009 0
M  V30 3726 C 356.226 -1.21889 -3.16115 0
M  V30 3727 C 354.785 -0.971358 -3.6365 0
M  V30 3728 C 353.932 -1.35134 -2.42145 0
M  V30 3729 H 356.883 -1.14727 -1.09651 0
M  V30 3730 H 356.904 -0.587489 -3.75937 0
M  V30 3731 H 356.416 -2.29906 -3.12674 0
M  V30 3732 H 354.517 0.0930686 -3.72484 0
M  V30 3733 H 354.63 -1.62039 -4.50866 0
M  V30 3734 H 352.994 -0.769751 -2.4279 0
M  V30 3735 H 353.777 -2.4411 -2.41381 0
M  V30 3736 N 356.222 1.38976 -0.743202 0
M  V30 3737 C 357.132 2.3434 -0.110399 0
M  V30 3738 C 358.148 1.58741 0.712559 0
M  V30 3739 O 359.324 1.9099 0.639125 0
M  V30 3740 C 356.389 3.37812 0.780012 0
M  V30 3741 C 355.45 4.29263 -0.0561319 0
M  V30 3742 C 354.683 5.27793 0.791875 0
M  V30 3743 O 354.906 5.33043 2.03031 0
M  V30 3744 O 353.84 6.01512 0.216183 0
M  V30 3745 H 357.666 2.90129 -0.897714 0
M  V30 3746 H 355.251 1.40643 -0.503966 0
M  V30 3747 H 357.133 4.01194 1.28923 0
M  V30 3748 H 355.808 2.84395 1.546 0
M  V30 3749 H 354.715 3.69076 -0.611056 0
M  V30 3750 H 356.048 4.85907 -0.784531 0
M  V30 3751 N 357.7 0.491464 1.49741 0
M  V30 3752 C 358.949 -0.0582189 2.01616 0
M  V30 3753 C 359.262 -1.38927 1.3769 0
M  V30 3754 O 360.468 -2.02509 1.80838 0
M  V30 3755 C 358.924 -0.154235 3.59569 0
M  V30 3756 C 358.532 1.1696 4.32463 0
M  V30 3757 C 360.276 -0.65479 4.1942 0
M  V30 3758 C 358.183 1.03627 5.8225 0
M  V30 3759 H 357.113 -0.0255317 0.753568 0
M  V30 3760 H 359.764 0.629445 1.72367 0
M  V30 3761 H 358.146 -0.906138 3.85493 0
M  V30 3762 H 359.32 1.93405 4.18248 0
M  V30 3763 H 357.635 1.60285 3.84315 0
M  V30 3764 H 360.232 -0.771903 5.29099 0
M  V30 3765 H 360.575 -1.65127 3.8215 0
M  V30 3766 H 361.108 0.040304 3.9778 0
M  V30 3767 H 357.847 2.00672 6.24028 0
M  V30 3768 H 357.367 0.312546 5.98985 0
M  V30 3769 H 359.046 0.711114 6.4308 0
M  V30 3770 N 359.178 -1.55987 0.224894 0
M  V30 3771 C 360.11 -2.17722 -0.716224 0
M  V30 3772 C 361.123 -1.14723 -1.15509 0
M  V30 3773 O 362.312 -1.41688 -1.08567 0
M  V30 3774 C 359.412 -2.74873 -1.98238 0
M  V30 3775 C 358.585 -4.03074 -1.69853 0
M  V30 3776 C 357.644 -4.44757 -2.81208 0
M  V30 3777 O 356.67 -5.11587 -2.49534 0
M  V30 3778 N 357.872 -4.10716 -4.10235 0
M  V30 3779 H 360.637 -2.99109 -0.188123 0
M  V30 3780 H 358.198 -1.6184 0.0440123 0
M  V30 3781 H 360.19 -2.99727 -2.7193 0
M  V30 3782 H 358.76 -1.9777 -2.42086 0
M  V30 3783 H 357.98 -3.86041 -0.797875 0
M  V30 3784 H 359.268 -4.86701 -1.48324 0
M  V30 3785 H 358.666 -3.57019 -4.38809 0
M  V30 3786 H 357.223 -4.40455 -4.80461 0
M  V30 3787 N 360.656 0.0484629 -1.57525 0
M  V30 3788 C 361.905 0.742065 -1.87553 0
M  V30 3789 C 362.218 1.77545 -0.820802 0
M  V30 3790 O 363.424 2.52027 -1.00967 0
M  V30 3791 C 361.88 1.37081 -3.32771 0
M  V30 3792 C 361.488 0.374786 -4.4643 0
M  V30 3793 C 363.232 2.04542 -3.71972 0
M  V30 3794 C 361.139 1.01077 -5.82698 0
M  V30 3795 H 360.069 0.280903 -0.699721 0
M  V30 3796 H 362.72 -0.00411877 -1.835 0
M  V30 3797 H 361.102 2.16605 -3.31509 0
M  V30 3798 H 362.276 -0.392331 -4.59127 0
M  V30 3799 H 360.591 -0.196653 -4.15935 0
M  V30 3800 H 363.188 2.52943 -4.71088 0
M  V30 3801 H 363.531 2.85515 -3.02964 0
M  V30 3802 H 364.064 1.31819 -3.75325 0
M  V30 3803 H 360.803 0.240878 -6.55057 0
M  V30 3804 H 360.323 1.74819 -5.73758 0
M  V30 3805 H 362.002 1.52383 -6.28799 0
M  V30 3806 N 362.134 1.5431 0.320358 0
M  V30 3807 C 363.383 1.7188 1.05546 0
M  V30 3808 C 363.696 0.501143 1.89071 0
M  V30 3809 O 364.902 0.558258 2.65699 0
M  V30 3810 C 363.358 3.04025 1.92605 0
M  V30 3811 C 362.966 4.33207 1.14176 0
M  V30 3812 C 364.71 3.30959 2.65832 0
M  V30 3813 C 362.617 5.56412 2.00399 0
M  V30 3814 H 361.547 0.640547 0.397763 0
M  V30 3815 H 364.198 1.80802 0.313522 0
M  V30 3816 H 362.58 2.89019 2.7071 0
M  V30 3817 H 363.754 4.58989 0.40819 0
M  V30 3818 H 362.069 4.13062 0.526165 0
M  V30 3819 H 364.666 4.20203 3.30656 0
M  V30 3820 H 365.009 2.48979 3.33639 0
M  V30 3821 H 365.542 3.46847 1.94787 0
M  V30 3822 H 362.281 6.41004 1.37094 0
M  V30 3823 H 361.801 5.34844 2.7148 0
M  V30 3824 H 363.48 5.92938 2.58908 0
M  V30 3825 N 363.613 -0.582584 1.46437 0
M  V30 3826 C 364.861 -1.33814 1.51453 0
M  V30 3827 C 365.182 -1.94277 0.167792 0
M  V30 3828 O 364.452 -1.78566 -0.805677 0
M  V30 3829 H 363.032 -0.496838 0.557818 0
M  V30 3830 H 365.694 -0.682281 1.82568 0
M  V30 3831 H 364.79 -2.14479 2.26728 0
M  V30 3832 N 365.091 -1.34144 -0.827227 0
M  V30 3833 C 366.319 -1.29325 -1.61501 0
M  V30 3834 C 366.734 0.13354 -1.88327 0
M  V30 3835 O 366.091 1.0793 -1.47164 0
M  V30 3836 C 366.142 -2.07746 -2.95844 0
M  V30 3837 O 365.863 -3.4486 -2.70191 0
M  V30 3838 C 367.364 -2.10273 -3.90256 0
M  V30 3839 H 364.584 -0.445069 -0.50215 0
M  V30 3840 H 367.128 -1.76693 -1.02955 0
M  V30 3841 H 365.283 -1.6403 -3.5096 0
M  V30 3842 H 365.697 -3.85345 -3.55822 0
M  V30 3843 H 367.171 -2.69575 -4.81698 0
M  V30 3844 H 367.648 -1.096 -4.25305 0
M  V30 3845 H 368.254 -2.54059 -3.41078 0
M  V30 3846 N 366.569 1.04691 -1.17803 0
M  V30 3847 C 367.817 1.7743 -0.967617 0
M  V30 3848 C 368.138 1.88359 0.504574 0
M  V30 3849 O 367.408 1.40402 1.36617 0
M  V30 3850 H 365.988 0.657242 -0.355024 0
M  V30 3851 H 368.65 1.2638 -1.48371 0
M  V30 3852 H 367.746 2.78924 -1.40027 0
M  V30 3853 N 368.047 0.979072 1.23499 0
M  V30 3854 C 369.295 0.645941 1.91499 0
M  V30 3855 C 369.616 -0.822948 1.76784 0
M  V30 3856 O 368.886 -1.58854 1.14639 0
M  V30 3857 H 367.466 0.235919 0.708767 0
M  V30 3858 H 370.128 1.2426 1.50152 0
M  V30 3859 H 369.224 0.896411 2.9895 0
M  V30 3860 N 369.525 -1.3858 0.750561 0
M  V30 3861 C 370.774 -1.99424 0.302172 0
M  V30 3862 C 371.087 -1.60254 -1.12152 0
M  V30 3863 O 372.293 -2.14046 -1.67023 0
M  V30 3864 C 370.749 -3.56558 0.489307 0
M  V30 3865 C 370.357 -4.04682 1.92189 0
M  V30 3866 C 372.101 -4.24374 0.103478 0
M  V30 3867 C 370.008 -5.54446 2.05775 0
M  V30 3868 H 368.938 -0.746046 0.10923 0
M  V30 3869 H 371.589 -1.58383 0.92667 0
M  V30 3870 H 369.971 -3.95472 -0.204329 0
M  V30 3871 H 371.145 -3.77065 2.64875 0
M  V30 3872 H 369.46 -3.4958 2.26236 0
M  V30 3873 H 372.057 -5.34384 0.183787 0
M  V30 3874 H 372.4 -4.05468 -0.943481 0
M  V30 3875 H 372.933 -3.90688 0.748854 0
M  V30 3876 H 369.672 -5.78252 3.08714 0
M  V30 3877 H 369.192 -5.83816 1.37546 0
M  V30 3878 H 370.871 -6.20099 1.84626 0
M  V30 3879 N 371.003 -0.499398 -1.49478 0
M  V30 3880 C 371.913 0.284489 -2.32869 0
M  V30 3881 C 372.929 0.968885 -1.44529 0
M  V30 3882 O 374.105 0.95062 -1.77553 0
M  V30 3883 C 371.17 1.33594 -3.19928 0
M  V30 3884 C 370.231 0.665149 -4.24116 0
M  V30 3885 C 369.464 1.6665 -5.07014 0
M  V30 3886 O 369.687 2.89618 -4.91404 0
M  V30 3887 O 368.621 1.22271 -5.8935 0
M  V30 3888 H 372.447 -0.39802 -3.01081 0
M  V30 3889 H 370.032 -0.260758 -1.47107 0
M  V30 3890 H 371.914 1.94431 -3.73864 0
M  V30 3891 H 370.589 2.0014 -2.54412 0
M  V30 3892 H 369.496 0.0170769 -3.74096 0
M  V30 3893 H 370.829 0.0421555 -4.92182 0
M  V30 3894 N 372.481 1.55866 -0.233164 0
M  V30 3895 C 373.709 2.02998 0.399905 0
M  V30 3896 C 374.124 1.11274 1.52524 0
M  V30 3897 O 373.481 0.124528 1.82075 0
M  V30 3898 C 373.532 3.4958 0.920639 0
M  V30 3899 O 373.253 4.37808 -0.159834 0
M  V30 3900 C 374.754 4.12411 1.62578 0
M  V30 3901 H 371.974 0.664006 0.0966281 0
M  V30 3902 H 374.518 2.0143 -0.353013 0
M  V30 3903 H 372.673 3.51727 1.62379 0
M  V30 3904 H 373.087 5.23981 0.23337 0
M  V30 3905 H 374.561 5.16711 1.94201 0
M  V30 3906 H 375.038 3.5809 2.54299 0
M  V30 3907 H 375.644 4.14148 0.967553 0
M  V30 3908 N 373.959 -0.0401083 1.57549 0
M  V30 3909 C 375.207 -0.731677 1.8839 0
M  V30 3910 C 375.528 -1.76481 0.829425 0
M  V30 3911 O 374.798 -1.95411 -0.1383 0
M  V30 3912 H 373.378 -0.273225 0.695239 0
M  V30 3913 H 376.04 -0.00867725 1.94898 0
M  V30 3914 H 375.136 -1.22816 2.86919 0
M  V30 3915 N 375.437 -1.54477 -0.31217 0
M  V30 3916 C 376.369 -1.81011 -1.40598 0
M  V30 3917 C 377.382 -0.692546 -1.47335 0
M  V30 3918 O 378.571 -0.969847 -1.49854 0
M  V30 3919 C 375.671 -1.92307 -2.79054 0
M  V30 3920 C 374.844 -3.22594 -2.95384 0
M  V30 3921 C 373.903 -3.24448 -4.1427 0
M  V30 3922 O 372.929 -3.98035 -4.06887 0
M  V30 3923 N 374.131 -2.49042 -5.24365 0
M  V30 3924 H 376.896 -2.75408 -1.18196 0
M  V30 3925 H 374.457 -1.53914 -0.502202 0
M  V30 3926 H 376.449 -1.90962 -3.56813 0
M  V30 3927 H 375.019 -1.04955 -2.94454 0
M  V30 3928 H 374.239 -3.36806 -2.04831 0
M  V30 3929 H 375.527 -4.08593 -3.03198 0
M  V30 3930 H 374.925 -1.88867 -5.33241 0
M  V30 3931 H 373.482 -2.53463 -6.005 0
M  V30 3932 N 376.915 0.57481 -1.46744 0
M  V30 3933 C 378.192 1.3352 -1.4294 0
M  V30 3934 C 378.572 2.10775 -0.117009 0
M  V30 3935 O 377.92 2.09966 0.901474 0
M  V30 3936 C 378.13 2.25456 -2.66403 0
M  V30 3937 C 379.478 2.87035 -3.12883 0
M  V30 3938 O 380.502 2.35766 -2.67007 0
M  V30 3939 O 379.361 3.80179 -3.92589 0
M  V30 3940 H 376.455 0.600318 -0.568812 0
M  V30 3941 H 379.001 0.595171 -1.58921 0
M  V30 3942 H 377.773 1.67851 -3.53471 0
M  V30 3943 H 377.396 3.06785 -2.52921 0
M  V30 3944 N 378.394 1.34581 0.820102 0
M  V30 3945 C 379.357 1.2628 1.91275 0
M  V30 3946 C 380.357 0.177344 1.59819 0
M  V30 3947 O 381.547 0.430156 1.68806 0
M  V30 3948 C 378.679 0.950327 3.27386 0
M  V30 3949 H 379.872 2.23421 2.00057 0
M  V30 3950 H 377.425 1.1891 1.0144 0
M  V30 3951 H 378.16 -0.0177938 3.24295 0
M  V30 3952 H 377.945 1.73549 3.51601 0
M  V30 3953 H 379.435 0.917492 4.07396 0
M  V30 3954 N 379.872 -1.04064 1.18357 0
M  V30 3955 C 381.119 -1.77265 0.978947 0
M  V30 3956 C 381.447 -1.88189 -0.491428 0
M  V30 3957 O 380.702 -1.38653 -1.38108 0
M  V30 3958 C 381.001 -3.20634 1.57888 0
M  V30 3959 C 380.667 -3.29743 3.07539 0
M  V30 3960 C 379.329 -3.31937 3.48384 0
M  V30 3961 C 381.681 -3.29841 4.03552 0
M  V30 3962 C 379.009 -3.3187 4.83818 0
M  V30 3963 C 381.361 -3.31313 5.38901 0
M  V30 3964 C 380.025 -3.31799 5.79194 0
M  V30 3965 H 379.295 -0.648659 0.358222 0
M  V30 3966 H 381.942 -1.22225 1.47422 0
M  V30 3967 H 380.247 -3.78675 1.00561 0
M  V30 3968 H 381.944 -3.75917 1.39598 0
M  V30 3969 H 378.534 -3.28757 2.74986 0
M  V30 3970 H 382.718 -3.27337 3.73047 0
M  V30 3971 H 377.974 -3.30562 5.14333 0
M  V30 3972 H 382.148 -3.30338 6.13066 0
M  V30 3973 H 379.775 -3.315 6.84114 0
M  V30 3974 N 381.35 -0.985608 -1.22978 0
M  V30 3975 C 382.26 -0.538548 -2.28335 0
M  V30 3976 C 383.276 0.409163 -1.69121 0
M  V30 3977 O 384.452 0.277797 -1.99475 0
M  V30 3978 C 381.517 0.146867 -3.46389 0
M  V30 3979 C 380.578 -0.842896 -4.20944 0
M  V30 3980 C 379.811 -0.190095 -5.33361 0
M  V30 3981 O 380.034 1.01767 -5.61248 0
M  V30 3982 O 378.968 -0.891289 -5.95264 0
M  V30 3983 H 382.794 -1.41487 -2.68729 0
M  V30 3984 H 380.379 -0.753495 -1.29007 0
M  V30 3985 H 382.261 0.531125 -4.1804 0
M  V30 3986 H 380.936 0.997871 -3.07935 0
M  V30 3987 H 379.843 -1.27795 -3.51595 0
M  V30 3988 H 381.176 -1.66287 -4.6326 0
M  V30 3989 N 382.828 1.3818 -0.7579 0
M  V30 3990 C 383.778 2.27741 -0.108674 0
M  V30 3991 C 384.762 1.45415 0.688709 0
M  V30 3992 O 385.954 1.68108 0.553956 0
M  V30 3993 C 383.083 3.34313 0.780367 0
M  V30 3994 C 382.169 4.24093 -0.0240977 0
M  V30 3995 N 382.56 4.9451 -1.06271 0
M  V30 3996 C 380.858 4.45542 0.202049 0
M  V30 3997 C 381.559 5.60675 -1.54979 0
M  V30 3998 N 380.535 5.36684 -0.864348 0
M  V30 3999 H 384.337 2.79649 -0.904071 0
M  V30 4000 H 381.851 1.51133 -0.594346 0
M  V30 4001 H 383.848 3.97368 1.26114 0
M  V30 4002 H 382.508 2.83962 1.57467 0
M  V30 4003 H 383.519 4.97345 -1.44459 0
M  V30 4004 H 380.196 4.06091 0.96935 0
M  V30 4005 H 381.586 6.26992 -2.41517 0
M  V30 4006 N 384.306 0.507319 1.49211 0
M  V30 4007 C 385.236 -0.256939 2.32082 0
M  V30 4008 C 386.217 -0.956609 1.40652 0
M  V30 4009 O 387.402 -0.946788 1.69557 0
M  V30 4010 C 384.532 -1.31802 3.21318 0
M  V30 4011 C 383.486 -0.737855 4.21592 0
M  V30 4012 C 382.812 -1.89992 4.99807 0
M  V30 4013 C 384.112 0.275325 5.21574 0
M  V30 4014 H 385.806 0.434798 2.96226 0
M  V30 4015 H 383.352 0.210546 1.42452 0
M  V30 4016 H 385.305 -1.86045 3.78107 0
M  V30 4017 H 384.029 -2.03903 2.5513 0
M  V30 4018 H 382.688 -0.217126 3.65956 0
M  V30 4019 H 382.336 -2.60877 4.30061 0
M  V30 4020 H 382.036 -1.51777 5.6766 0
M  V30 4021 H 383.56 -2.44657 5.59442 0
M  V30 4022 H 384.974 -0.179193 5.7302 0
M  V30 4023 H 383.371 0.573649 5.97352 0
M  V30 4024 H 384.441 1.18903 4.70096 0
M  V30 4025 N 385.784 -1.5574 0.241426 0
M  V30 4026 C 386.714 -2.24133 -0.654722 0
M  V30 4027 C 387.695 -1.21974 -1.1856 0
M  V30 4028 O 388.88 -1.50612 -1.22595 0
M  V30 4029 C 386.01 -2.93659 -1.85423 0
M  V30 4030 C 384.964 -4.0246 -1.45636 0
M  V30 4031 C 384.29 -4.59383 -2.73626 0
M  V30 4032 C 385.59 -5.18468 -0.631506 0
M  V30 4033 H 387.284 -2.99281 -0.0844353 0
M  V30 4034 H 384.83 -1.43947 -0.0391707 0
M  V30 4035 H 386.783 -3.40203 -2.48676 0
M  V30 4036 H 385.507 -2.15991 -2.44981 0
M  V30 4037 H 384.166 -3.56676 -0.847202 0
M  V30 4038 H 383.814 -3.78422 -3.3137 0
M  V30 4039 H 383.514 -5.32826 -2.4773 0
M  V30 4040 H 385.038 -5.08658 -3.37786 0
M  V30 4041 H 386.452 -5.61272 -1.1682 0
M  V30 4042 H 384.849 -5.98266 -0.468831 0
M  V30 4043 H 385.919 -4.8358 0.357506 0
M  V30 4044 N 387.262 0.0317525 -1.57568 0
M  V30 4045 C 388.502 0.727979 -1.90997 0
M  V30 4046 C 388.866 1.72664 -0.839708 0
M  V30 4047 O 390.067 2.47092 -1.05825 0
M  V30 4048 C 388.338 1.38239 -3.29583 0
M  V30 4049 S 389.897 2.10814 -3.84841 0
M  V30 4050 H 386.715 0.241226 -0.668828 0
M  V30 4051 H 389.317 -0.0173037 -1.95492 0
M  V30 4052 H 388.021 0.642288 -4.05343 0
M  V30 4053 H 387.552 2.16628 -3.28384 0
M  V30 4054 H 389.567 3.3792 -3.63352 0
M  V30 4055 N 388.74 1.54641 0.303973 0
M  V30 4056 C 389.988 1.73437 1.0375 0
M  V30 4057 C 390.309 0.521449 1.87899 0
M  V30 4058 O 389.579 -0.46432 1.90318 0
M  V30 4059 H 388.159 0.639518 0.386039 0
M  V30 4060 H 390.821 1.91988 0.335675 0
M  V30 4061 H 389.917 2.62235 1.69231 0
M  V30 4062 N 390.218 -0.567019 1.47046 0
M  V30 4063 C 391.181 -1.65696 1.58359 0
M  V30 4064 C 392.181 -1.54097 0.459441 0
M  V30 4065 O 393.371 -1.58432 0.724225 0
M  V30 4066 C 390.503 -3.05197 1.51879 0
M  V30 4067 H 391.696 -1.57019 2.5551 0
M  V30 4068 H 389.249 -0.786148 1.3509 0
M  V30 4069 H 389.984 -3.19417 0.560673 0
M  V30 4070 H 389.769 -3.15025 2.33455 0
M  V30 4071 H 391.259 -3.84511 1.62913 0
M  V30 4072 N 391.696 -1.35014 -0.812953 0
M  V30 4073 C 392.924 -1.31031 -1.6012 0
M  V30 4074 C 393.339 0.113558 -1.88458 0
M  V30 4075 O 392.696 1.06363 -1.48301 0
M  V30 4076 C 392.747 -2.10872 -2.93624 0
M  V30 4077 O 392.468 -3.47706 -2.66518 0
M  V30 4078 C 393.969 -2.14401 -3.88004 0
M  V30 4079 H 391.189 -0.45037 -0.497401 0
M  V30 4080 H 393.733 -1.77775 -1.01076 0
M  V30 4081 H 391.888 -1.67744 -3.492 0
M  V30 4082 H 392.302 -3.89097 -3.51715 0
M  V30 4083 H 393.776 -2.74669 -4.78812 0
M  V30 4084 H 394.253 -1.14105 -4.24119 0
M  V30 4085 H 394.859 -2.57662 -3.38364 0
M  V30 4086 N 393.175 1.03435 -1.18907 0
M  V30 4087 C 394.108 2.11162 -0.86521 0
M  V30 4088 C 395.086 1.6165 0.175473 0
M  V30 4089 O 396.27 1.88425 0.0530129 0
M  V30 4090 C 393.397 3.37423 -0.293868 0
M  V30 4091 C 392.443 4.05795 -1.31274 0
M  V30 4092 S 393.276 4.52027 -2.8711 0
M  V30 4093 C 394.432 5.81513 -2.31504 0
M  V30 4094 H 394.665 2.38308 -1.77754 0
M  V30 4095 H 392.198 1.16295 -1.01562 0
M  V30 4096 H 394.156 4.1049 0.0292572 0
M  V30 4097 H 392.817 3.0838 0.596682 0
M  V30 4098 H 392.01 4.96574 -0.86198 0
M  V30 4099 H 391.612 3.38874 -1.58242 0
M  V30 4100 H 393.904 6.55784 -1.70157 0
M  V30 4101 H 394.847 6.3136 -3.20608 0
M  V30 4102 H 395.255 5.36921 -1.74286 0
M  V30 4103 N 394.653 0.992116 1.22453 0
M  V30 4104 C 395.583 0.561677 2.26644 0
M  V30 4105 C 396.564 -0.411055 1.65059 0
M  V30 4106 O 397.749 -0.301861 1.9184 0
M  V30 4107 C 394.879 -0.125247 3.47074 0
M  V30 4108 C 393.833 0.765948 4.21091 0
M  V30 4109 C 393.159 -0.0538484 5.34673 0
M  V30 4110 C 394.459 2.06242 4.79856 0
M  V30 4111 H 396.153 1.43259 2.62902 0
M  V30 4112 H 393.699 0.690283 1.26377 0
M  V30 4113 H 395.652 -0.437764 4.1912 0
M  V30 4114 H 394.376 -1.03069 3.0991 0
M  V30 4115 H 393.035 1.0621 3.50878 0
M  V30 4116 H 392.683 -0.960188 4.9375 0
M  V30 4117 H 392.383 0.539415 5.85119 0
M  V30 4118 H 393.907 -0.360477 6.09535 0
M  V30 4119 H 395.321 1.8139 5.43848 0
M  V30 4120 H 393.718 2.60444 5.40638 0
M  V30 4121 H 394.788 2.74167 3.99951 0
M  V30 4122 N 396.131 -1.37776 0.765217 0
M  V30 4123 C 397.063 -2.28958 0.105361 0
M  V30 4124 C 398.076 -1.48316 -0.67128 0
M  V30 4125 O 399.265 -1.71046 -0.51045 0
M  V30 4126 C 396.365 -3.27421 -0.874569 0
M  V30 4127 C 395.538 -4.37132 -0.153123 0
M  V30 4128 C 394.597 -5.1571 -1.04547 0
M  V30 4129 O 393.623 -5.66896 -0.511672 0
M  V30 4130 N 394.825 -5.29808 -2.37243 0
M  V30 4131 H 397.59 -2.86227 0.888495 0
M  V30 4132 H 395.151 -1.49682 0.617 0
M  V30 4133 H 397.143 -3.7687 -1.47483 0
M  V30 4134 H 395.713 -2.70967 -1.55871 0
M  V30 4135 H 394.933 -3.89166 0.627975 0
M  V30 4136 H 396.221 -5.07625 0.345643 0
M  V30 4137 H 395.619 -4.89793 -2.83054 0
M  V30 4138 H 394.176 -5.82589 -2.9229 0
M  V30 4139 N 397.609 -0.515225 -1.4894 0
M  V30 4140 C 398.858 0.0261361 -2.01683 0
M  V30 4141 C 399.171 1.36719 -1.39883 0
M  V30 4142 O 400.377 1.99606 -1.84037 0
M  V30 4143 C 398.833 0.0970111 -3.59769 0
M  V30 4144 C 398.441 -1.23825 -4.30548 0
M  V30 4145 C 400.185 0.587981 -4.20408 0
M  V30 4146 C 398.092 -1.12877 -5.80528 0
M  V30 4147 H 397.022 0.0135398 -0.753878 0
M  V30 4148 H 399.673 -0.656787 -1.71343 0
M  V30 4149 H 398.055 0.844694 -3.86886 0
M  V30 4150 H 399.229 -2.00034 -4.15118 0
M  V30 4151 H 397.544 -1.66379 -3.81716 0
M  V30 4152 H 400.141 0.68763 -5.3026 0
M  V30 4153 H 400.484 1.59026 -3.84729 0
M  V30 4154 H 401.017 -0.103582 -3.97665 0
M  V30 4155 H 397.756 -2.10575 -6.20756 0
M  V30 4156 H 397.276 -0.407799 -5.98412 0
M  V30 4157 H 398.955 -0.813332 -6.41868 0
M  V30 4158 N 399.087 1.5561 -0.249682 0
M  V30 4159 C 400.335 1.98618 0.373548 0
M  V30 4160 C 400.656 1.13919 1.58264 0
M  V30 4161 O 399.926 0.222637 1.94631 0
M  V30 4162 H 398.506 0.733571 0.141006 0
M  V30 4163 H 401.168 1.91748 -0.349117 0
M  V30 4164 H 400.264 3.04584 0.680796 0
M  V30 4165 N 400.565 -0.0233959 1.57583 0
M  V30 4166 C 401.793 -0.724682 1.93794 0
M  V30 4167 C 402.208 -1.68588 0.849912 0
M  V30 4168 O 401.565 -1.81676 -0.173204 0
M  V30 4169 C 401.616 -1.47684 3.29957 0
M  V30 4170 O 401.337 -0.554222 4.3458 0
M  V30 4171 C 402.838 -2.27477 3.80485 0
M  V30 4172 H 400.058 -0.203317 0.639455 0
M  V30 4173 H 402.602 0.0207653 2.04489 0
M  V30 4174 H 400.757 -2.17412 3.20641 0
M  V30 4175 H 401.171 -1.08232 5.13212 0
M  V30 4176 H 402.645 -2.7564 4.78254 0
M  V30 4177 H 403.122 -3.09144 3.11972 0
M  V30 4178 H 403.728 -1.62813 3.92902 0
M  V30 4179 N 402.043 -1.548 -0.295768 0
M  V30 4180 C 403.006 -1.85363 -1.34808 0
M  V30 4181 C 404.006 -0.726817 -1.43436 0
M  V30 4182 O 405.196 -0.995088 -1.42981 0
M  V30 4183 C 402.328 -2.03859 -2.73229 0
M  V30 4184 H 403.521 -2.7941 -1.08949 0
M  V30 4185 H 401.074 -1.46942 -0.532702 0
M  V30 4186 H 401.809 -1.12117 -3.04303 0
M  V30 4187 H 401.594 -2.8588 -2.68356 0
M  V30 4188 H 403.084 -2.28857 -3.49305 0
M  V30 4189 N 403.521 0.559213 -1.47345 0
M  V30 4190 C 404.451 1.67622 -1.62558 0
M  V30 4191 C 405.432 1.63331 -0.475087 0
M  V30 4192 O 406.617 1.80983 -0.704182 0
M  V30 4193 C 403.747 3.0626 -1.63774 0
M  V30 4194 C 402.701 3.25397 -2.7803 0
M  V30 4195 C 402.027 4.64801 -2.64318 0
M  V30 4196 C 403.327 3.10965 -4.19641 0
M  V30 4197 H 405.021 1.55146 -2.56067 0
M  V30 4198 H 402.567 0.744961 -1.23233 0
M  V30 4199 H 404.52 3.84247 -1.73008 0
M  V30 4200 H 403.244 3.1969 -0.66825 0
M  V30 4201 H 401.903 2.49817 -2.68304 0
M  V30 4202 H 401.551 4.75028 -1.65401 0
M  V30 4203 H 401.251 4.78555 -3.40968 0
M  V30 4204 H 402.775 5.44926 -2.75478 0
M  V30 4205 H 404.189 3.78772 -4.30354 0
M  V30 4206 H 402.586 3.36229 -4.97062 0
M  V30 4207 H 403.656 2.07736 -4.38148 0
M  V30 4208 N 404.999 1.35443 0.805782 0
M  V30 4209 C 405.949 1.24972 1.90699 0
M  V30 4210 C 406.933 0.144806 1.60247 0
M  V30 4211 O 408.125 0.376102 1.72958 0
M  V30 4212 C 405.254 1.02475 3.27649 0
M  V30 4213 C 404.34 2.17361 3.64164 0
M  V30 4214 N 404.731 3.42591 3.72109 0
M  V30 4215 C 403.029 2.08765 3.94123 0
M  V30 4216 C 403.73 4.18144 4.04389 0
M  V30 4217 N 402.706 3.4691 4.18515 0
M  V30 4218 H 406.508 2.19852 1.95044 0
M  V30 4219 H 404.022 1.27928 1.00041 0
M  V30 4220 H 406.019 0.930617 4.06381 0
M  V30 4221 H 404.679 0.0848009 3.24589 0
M  V30 4222 H 405.69 3.76932 3.55166 0
M  V30 4223 H 402.367 1.22629 3.99084 0
M  V30 4224 H 403.757 5.26367 4.17597 0
M  V30 4225 N 406.477 -1.02803 1.19454 0
M  V30 4226 C 407.424 -2.11099 0.933046 0
M  V30 4227 C 408.394 -1.65571 -0.132447 0
M  V30 4228 O 409.579 -1.90797 0.00987576 0
M  V30 4229 C 406.719 -3.41763 0.478747 0
M  V30 4230 C 405.832 -4.00833 1.6111 0
M  V30 4231 C 404.967 -5.19511 1.10825 0
M  V30 4232 C 404.006 -5.70639 2.21445 0
M  V30 4233 N 403.143 -6.80589 1.72461 0
M  V30 4234 H 407.983 -2.32804 1.86028 0
M  V30 4235 H 405.52 -1.14179 0.927441 0
M  V30 4236 H 407.478 -4.16736 0.196745 0
M  V30 4237 H 406.108 -3.20166 -0.411493 0
M  V30 4238 H 405.16 -3.23066 2.00829 0
M  V30 4239 H 406.472 -4.34794 2.4445 0
M  V30 4240 H 405.626 -6.01645 0.781533 0
M  V30 4241 H 404.365 -4.87086 0.244606 0
M  V30 4242 H 403.37 -4.87116 2.54947 0
M  V30 4243 H 404.595 -6.05102 3.08267 0
M  V30 4244 H 402.541 -6.50016 0.884056 0
M  V30 4245 H 402.458 -7.13681 2.49389 0
M  V30 4246 H 403.726 -7.66317 1.42755 0
M  V30 4247 N 407.956 -0.998596 -1.21925 0
M  V30 4248 C 408.866 -0.562736 -2.27751 0
M  V30 4249 C 409.882 0.391203 -1.69545 0
M  V30 4250 O 411.058 0.256625 -1.99758 0
M  V30 4251 C 408.123 0.11012 -3.46525 0
M  V30 4252 C 407.184 -0.887495 -4.20026 0
M  V30 4253 C 406.417 -0.246654 -5.3313 0
M  V30 4254 O 406.64 0.958088 -5.62296 0
M  V30 4255 O 405.574 -0.954374 -5.94286 0
M  V30 4256 H 409.4 -1.44329 -2.67213 0
M  V30 4257 H 406.985 -0.767135 -1.28201 0
M  V30 4258 H 408.867 0.486756 -4.18579 0
M  V30 4259 H 407.542 0.965154 -3.08976 0
M  V30 4260 H 406.449 -1.31517 -3.5022 0
M  V30 4261 H 407.782 -1.71191 -4.6147 0
M  V30 4262 N 409.434 1.37368 -0.772513 0
M  V30 4263 C 410.682 1.99279 -0.336516 0
M  V30 4264 C 411.003 1.6163 1.09091 0
M  V30 4265 O 410.273 0.882109 1.74916 0
M  V30 4266 H 408.853 0.737063 -0.121435 0
M  V30 4267 H 411.515 1.67836 -0.990809 0
M  V30 4268 H 410.611 3.09332 -0.414763 0
M  V30 4269 N 410.912 0.523116 1.48665 0
M  V30 4270 C 412.323 0.0808997 1.86525 0
M  V30 4271 C 412.674 -1.33975 1.43336 0
M  V30 4272 O 411.799 -2.00221 0.821009 0
M  V30 4273 C 412.394 0.140037 3.3851 0
M  V30 4274 C 410.953 -0.246948 3.75589 0
M  V30 4275 C 410.1 0.502845 2.72703 0
M  V30 4276 H 413.051 0.734736 1.40667 0
M  V30 4277 H 413.072 -0.649945 3.74908 0
M  V30 4278 H 412.584 1.17412 3.69914 0
M  V30 4279 H 410.685 -1.28343 3.49798 0
M  V30 4280 H 410.798 0.0878859 4.79019 0
M  V30 4281 H 409.162 -0.0500581 2.54651 0
M  V30 4282 H 409.945 1.53743 3.0695 0
M  V30 4283 N 412.39 -1.55475 0.257931 0
M  V30 4284 C 413.353 -2.20551 -0.623706 0
M  V30 4285 C 414.353 -1.17809 -1.09443 0
M  V30 4286 O 415.543 -1.42823 -0.997362 0
M  V30 4287 C 412.675 -2.85784 -1.8585 0
M  V30 4288 H 413.868 -2.99848 -0.0557743 0
M  V30 4289 H 411.421 -1.56298 0.0084422 0
M  V30 4290 H 412.156 -2.10453 -2.46739 0
M  V30 4291 H 411.941 -3.61057 -1.52907 0
M  V30 4292 H 413.431 -3.35553 -2.48584 0
M  V30 4293 N 413.868 0.0150385 -1.57593 0
M  V30 4294 C 415.117 0.702115 -1.89085 0
M  V30 4295 C 415.43 1.75764 -0.858277 0
M  V30 4296 O 416.636 2.49829 -1.0629 0
M  V30 4297 C 415.092 1.29992 -3.35604 0
M  V30 4298 C 414.7 0.280007 -4.47124 0
M  V30 4299 C 416.444 1.96606 -3.76227 0
M  V30 4300 C 414.351 0.886949 -5.84711 0
M  V30 4301 H 413.281 0.265997 -0.705522 0
M  V30 4302 H 415.932 -0.0430408 -1.8345 0
M  V30 4303 H 414.314 2.09525 -3.36029 0
M  V30 4304 H 415.488 -0.489631 -4.58191 0
M  V30 4305 H 413.803 -0.284835 -4.15425 0
M  V30 4306 H 416.4 2.42893 -4.76347 0
M  V30 4307 H 416.743 2.79024 -3.08952 0
M  V30 4308 H 417.276 1.23828 -3.78036 0
M  V30 4309 H 414.015 0.101876 -6.55421 0
M  V30 4310 H 413.535 1.6261 -5.77337 0
M  V30 4311 H 415.214 1.39011 -6.3189 0
M  V30 4312 N 415.346 1.54954 0.287554 0
M  V30 4313 C 416.593 1.74873 1.02106 0
M  V30 4314 C 416.921 0.541829 1.86801 0
M  V30 4315 O 416.176 -0.475992 1.89823 0
M  V30 4316 C 416.475 2.99833 1.94512 0
M  V30 4317 C 416.141 4.33029 1.25686 0
M  V30 4318 C 414.803 4.69233 1.06649 0
M  V30 4319 C 417.155 5.15542 0.765913 0
M  V30 4320 C 414.483 5.85518 0.372222 0
M  V30 4321 C 416.835 6.32542 0.0853101 0
M  V30 4322 C 415.499 6.67398 -0.1169 0
M  V30 4323 H 414.769 0.639906 0.373632 0
M  V30 4324 H 417.416 1.89219 0.294665 0
M  V30 4325 H 415.721 2.80325 2.73725 0
M  V30 4326 H 417.418 3.1244 2.51361 0
M  V30 4327 H 414.008 4.04564 1.41512 0
M  V30 4328 H 418.192 4.88059 0.90066 0
M  V30 4329 H 413.448 6.11057 0.204695 0
M  V30 4330 H 417.622 6.95741 -0.302936 0
M  V30 4331 H 415.249 7.57357 -0.656859 0
M  V30 4332 N 416.824 -0.551391 1.4764 0
M  V30 4333 C 418.101 -1.31229 1.45046 0
M  V30 4334 C 418.481 -2.10563 0.150527 0
M  V30 4335 O 417.829 -2.11374 -0.867956 0
M  V30 4336 C 418.039 -2.21189 2.69956 0
M  V30 4337 C 419.387 -2.82021 3.1741 0
M  V30 4338 O 420.411 -2.31488 2.70724 0
M  V30 4339 O 419.27 -3.73885 3.98588 0
M  V30 4340 H 416.364 -0.591193 0.578291 0
M  V30 4341 H 418.91 -0.569813 1.59847 0
M  V30 4342 H 417.682 -1.62207 3.56096 0
M  V30 4343 H 417.305 -3.02722 2.57769 0
M  V30 4344 N 418.302 -1.35869 -0.798587 0
M  V30 4345 C 419.718 -1.16082 -1.09532 0
M  V30 4346 C 419.918 0.0213124 -2.01489 0
M  V30 4347 O 418.974 0.689488 -2.42904 0
M  V30 4348 C 420.287 -2.46748 -1.7186 0
M  V30 4349 C 421.835 -2.53028 -1.84244 0
M  V30 4350 C 422.31 -3.83758 -2.49988 0
M  V30 4351 N 423.801 -3.85053 -2.57465 0
M  V30 4352 C 424.536 -4.8294 -3.09122 0
M  V30 4353 N 424.032 -5.91217 -3.61157 0
M  V30 4354 N 425.825 -4.70369 -3.0775 0
M  V30 4355 H 417.976 -2.11571 -0.187461 0
M  V30 4356 H 420.239 -0.936726 -0.145765 0
M  V30 4357 H 419.945 -3.33471 -1.11759 0
M  V30 4358 H 419.819 -2.61883 -2.71472 0
M  V30 4359 H 422.206 -1.66729 -2.43486 0
M  V30 4360 H 422.287 -2.418 -0.834643 0
M  V30 4361 H 421.931 -4.70459 -1.91393 0
M  V30 4362 H 421.861 -3.92278 -3.5132 0
M  V30 4363 H 424.352 -3.06822 -2.20609 0
M  V30 4364 H 424.665 -6.61892 -3.98896 0
M  V30 4365 H 423.01 -5.94899 -3.59333 0
M  V30 4366 H 426.201 -3.84914 -2.66381 0
M  V30 4367 H 426.374 -5.46816 -3.47701 0
M  V30 4368 N 419.78 1.02168 -1.19998 0
M  V30 4369 C 421.029 1.75091 -1.0013 0
M  V30 4370 C 421.342 1.89923 0.467835 0
M  V30 4371 O 422.548 2.59888 0.785515 0
M  V30 4372 C 421.004 3.14892 -1.74273 0
M  V30 4373 C 420.612 3.0809 -3.25245 0
M  V30 4374 C 422.356 3.9206 -1.62755 0
M  V30 4375 C 420.263 4.42867 -3.91948 0
M  V30 4376 H 419.193 0.656394 -0.37103 0
M  V30 4377 H 421.844 1.14284 -1.43567 0
M  V30 4378 H 420.226 3.7621 -1.2362 0
M  V30 4379 H 421.4 2.5611 -3.83072 0
M  V30 4380 H 419.715 2.44416 -3.3712 0
M  V30 4381 H 422.312 4.91764 -2.09934 0
M  V30 4382 H 422.655 4.12199 -0.582894 0
M  V30 4383 H 423.188 3.37359 -2.10793 0
M  V30 4384 H 419.927 4.27931 -4.96543 0
M  V30 4385 H 419.447 4.94874 -3.3891 0
M  V30 4386 H 421.126 5.11728 -3.95909 0
M  V30 4387 N 421.258 1.00505 1.21394 0
M  V30 4388 C 422.507 0.683159 1.89778 0
M  V30 4389 C 422.82 -0.789471 1.7896 0
M  V30 4390 O 424.026 -1.22344 2.42372 0
M  V30 4391 C 422.482 1.17146 3.40301 0
M  V30 4392 C 422.09 2.67017 3.5973 0
M  V30 4393 C 423.834 0.924461 4.14311 0
M  V30 4394 C 421.741 3.09387 5.04017 0
M  V30 4395 H 420.671 0.25183 0.710702 0
M  V30 4396 H 423.322 1.21622 1.37406 0
M  V30 4397 H 421.704 0.566451 3.91928 0
M  V30 4398 H 422.878 3.32968 3.18542 0
M  V30 4399 H 421.193 2.89732 2.99073 0
M  V30 4400 H 423.79 1.21658 5.20676 0
M  V30 4401 H 424.133 -0.139286 4.16067 0
M  V30 4402 H 424.666 1.49226 3.6875 0
M  V30 4403 H 421.405 4.14989 5.07409 0
M  V30 4404 H 420.925 2.48149 5.46061 0
M  V30 4405 H 422.604 3.01371 5.72525 0
M  V30 4406 N 422.737 -1.36956 0.779787 0
M  V30 4407 C 423.684 -2.30175 0.169697 0
M  V30 4408 C 424.654 -1.51501 -0.68094 0
M  V30 4409 O 425.839 -1.80042 -0.631629 0
M  V30 4410 C 422.979 -3.37985 -0.697131 0
M  V30 4411 C 422.092 -4.31661 0.170992 0
M  V30 4412 C 421.227 -5.2655 -0.701298 0
M  V30 4413 C 420.266 -6.11867 0.168869 0
M  V30 4414 N 419.403 -6.98973 -0.661855 0
M  V30 4415 H 424.243 -2.81767 0.970135 0
M  V30 4416 H 421.78 -1.38699 0.489994 0
M  V30 4417 H 423.738 -3.99128 -1.2146 0
M  V30 4418 H 422.368 -2.87739 -1.46309 0
M  V30 4419 H 421.42 -3.71756 0.80634 0
M  V30 4420 H 422.732 -4.91644 0.841875 0
M  V30 4421 H 421.886 -5.92937 -1.28494 0
M  V30 4422 H 420.625 -4.66998 -1.40584 0
M  V30 4423 H 419.63 -5.44452 0.764986 0
M  V30 4424 H 420.855 -6.73493 0.870863 0
M  V30 4425 H 418.801 -6.41941 -1.35086 0
M  V30 4426 H 418.718 -7.55984 -0.0484447 0
M  V30 4427 H 419.986 -7.6974 -1.22963 0
M  V30 4428 N 424.215 -0.530993 -1.48385 0
M  V30 4429 C 425.125 0.23503 -2.3342 0
M  V30 4430 C 426.141 0.93801 -1.46552 0
M  V30 4431 O 427.317 0.912745 -1.7953 0
M  V30 4432 C 424.382 1.26778 -3.22689 0
M  V30 4433 C 423.443 0.575038 -4.25431 0
M  V30 4434 C 422.676 1.55858 -5.10435 0
M  V30 4435 O 422.899 2.79129 -4.97437 0
M  V30 4436 O 421.833 1.09742 -5.91811 0
M  V30 4437 H 425.659 -0.461794 -3.00169 0
M  V30 4438 H 423.244 -0.291903 -1.46521 0
M  V30 4439 H 425.126 1.86457 -3.77904 0
M  V30 4440 H 423.801 1.94699 -2.586 0
M  V30 4441 H 422.708 -0.0622782 -3.74048 0
M  V30 4442 H 424.041 -0.062253 -4.92161 0
M  V30 4443 N 425.693 1.55336 -0.266172 0
M  V30 4444 C 426.623 2.25146 0.618981 0
M  V30 4445 C 427.604 1.23845 1.16604 0
M  V30 4446 O 428.789 1.52544 1.20183 0
M  V30 4447 C 425.919 2.96572 1.80728 0
M  V30 4448 C 424.873 4.04726 1.39215 0
M  V30 4449 C 424.199 4.63678 2.66283 0
M  V30 4450 C 425.499 5.19407 0.548942 0
M  V30 4451 H 427.193 2.99377 0.0368116 0
M  V30 4452 H 424.739 1.43991 0.0162651 0
M  V30 4453 H 426.692 3.44116 2.43232 0
M  V30 4454 H 425.416 2.19861 2.41514 0
M  V30 4455 H 424.075 3.57979 0.790351 0
M  V30 4456 H 423.723 3.83646 3.25308 0
M  V30 4457 H 423.423 5.367 2.39222 0
M  V30 4458 H 424.947 5.13967 3.29651 0
M  V30 4459 H 426.361 5.63059 1.07876 0
M  V30 4460 H 424.758 5.98936 0.373593 0
M  V30 4461 H 425.828 4.8295 -0.434394 0
M  V30 4462 N 427.171 -0.0066808 1.57599 0
M  V30 4463 C 428.081 -1.01671 2.11424 0
M  V30 4464 C 429.097 -1.38143 1.05795 0
M  V30 4465 O 430.273 -1.47011 1.37658 0
M  V30 4466 C 427.338 -2.29192 2.60139 0
M  V30 4467 C 426.399 -1.99094 3.80342 0
M  V30 4468 C 425.632 -3.20535 4.26724 0
M  V30 4469 O 425.855 -4.3199 3.72479 0
M  V30 4470 O 424.789 -3.04924 5.18946 0
M  V30 4471 H 428.615 -0.589181 2.9793 0
M  V30 4472 H 426.2 -0.225091 1.47695 0
M  V30 4473 H 428.082 -3.0412 2.917 0
M  V30 4474 H 426.757 -2.71195 1.76733 0
M  V30 4475 H 425.664 -1.21663 3.53764 0
M  V30 4476 H 426.997 -1.61931 4.648 0
M  V30 4477 N 428.649 -1.55105 -0.279332 0
M  V30 4478 C 429.559 -1.90638 -1.36727 0
M  V30 4479 C 430.575 -0.802899 -1.54368 0
M  V30 4480 O 431.751 -1.10138 -1.68616 0
M  V30 4481 C 428.816 -2.16547 -2.70755 0
M  V30 4482 C 427.877 -3.40146 -2.61915 0
M  V30 4483 C 427.11 -3.6481 -3.8955 0
M  V30 4484 O 427.333 -2.92095 -4.89935 0
M  V30 4485 O 426.267 -4.58343 -3.90135 0
M  V30 4486 H 430.093 -2.83237 -1.09591 0
M  V30 4487 H 427.678 -1.4157 -0.477306 0
M  V30 4488 H 429.56 -2.34665 -3.50014 0
M  V30 4489 H 428.235 -1.27131 -2.9769 0
M  V30 4490 H 427.142 -3.2737 -1.81052 0
M  V30 4491 H 428.475 -4.29761 -2.3993 0
M  V30 4492 N 430.127 0.543554 -1.4793 0
M  V30 4493 C 431.376 1.29649 -1.54512 0
M  V30 4494 C 431.689 1.94382 -0.217973 0
M  V30 4495 O 432.895 2.71017 -0.161908 0
M  V30 4496 C 431.351 2.35175 -2.72435 0
M  V30 4497 C 430.959 1.76572 -4.11736 0
M  V30 4498 C 432.703 3.11564 -2.8832 0
M  V30 4499 C 430.61 2.79958 -5.20939 0
M  V30 4500 H 429.54 0.487541 -0.57517 0
M  V30 4501 H 432.191 0.575708 -1.74235 0
M  V30 4502 H 430.573 3.10229 -2.46118 0
M  V30 4503 H 431.747 1.07799 -4.48013 0
M  V30 4504 H 430.062 1.12722 -4.00852 0
M  V30 4505 H 432.659 3.88794 -3.67074 0
M  V30 4506 H 433.002 3.66594 -1.97268 0
M  V30 4507 H 433.535 2.43623 -3.14472 0
M  V30 4508 H 430.274 2.29766 -6.13912 0
M  V30 4509 H 429.794 3.47101 -4.89164 0
M  V30 4510 H 431.473 3.43198 -5.48474 0
M  V30 4511 N 431.605 1.3629 0.791371 0
M  V30 4512 C 432.538 1.24816 1.9104 0
M  V30 4513 C 433.516 0.132739 1.62057 0
M  V30 4514 O 434.7 0.303527 1.8604 0
M  V30 4515 C 431.827 0.925355 3.25814 0
M  V30 4516 C 430.873 2.05495 3.7373 0
M  V30 4517 S 431.706 3.67255 3.89723 0
M  V30 4518 C 432.862 3.37084 5.27376 0
M  V30 4519 H 433.095 2.19533 2.00481 0
M  V30 4520 H 430.628 1.21684 0.950393 0
M  V30 4521 H 432.586 0.745924 4.03666 0
M  V30 4522 H 431.247 -0.00400098 3.141 0
M  V30 4523 H 430.44 1.7836 4.71385 0
M  V30 4524 H 430.042 2.1935 3.02922 0
M  V30 4525 H 432.334 2.90856 6.1189 0
M  V30 4526 H 433.277 4.33995 5.59512 0
M  V30 4527 H 433.685 2.7248 4.94383 0
M  V30 4528 N 433.083 -1.0153 1.20538 0
M  V30 4529 C 434.031 -2.12215 0.952235 0
M  V30 4530 C 435.025 -1.69123 -0.0968735 0
M  V30 4531 O 436.231 -1.7992 0.0536006 0
M  V30 4532 H 432.606 -0.693576 0.290613 0
M  V30 4533 H 434.577 -2.3075 1.89201 0
M  V30 4534 C 433.326 -3.43755 0.522287 0
M  V30 4535 H 432.649 -3.7734 1.32115 0
M  V30 4536 H 434.089 -4.22254 0.384389 0
M  V30 4537 C 432.548 -3.28088 -0.765489 0
M  V30 4538 O 433.078 -3.57921 -1.8236 0
M  V30 4539 N 431.284 -2.81333 -0.728011 0
M  V30 4540 H 430.831 -2.57255 0.133332 0
M  V30 4541 H 430.789 -2.71232 -1.58999 0
M  V30 4542 N 434.561 -1.01147 -1.20859 0
M  V30 4543 C 435.493 -0.535546 -2.22855 0
M  V30 4544 C 436.506 0.379323 -1.58319 0
M  V30 4545 O 437.695 0.178489 -1.77605 0
M  V30 4546 C 434.795 0.240962 -3.38042 0
M  V30 4547 C 433.968 -0.674562 -4.32167 0
M  V30 4548 C 433.027 0.053467 -5.26173 0
M  V30 4549 O 432.053 -0.567339 -5.66366 0
M  V30 4550 N 433.255 1.32997 -5.65059 0
M  V30 4551 H 436.02 -1.41268 -2.64317 0
M  V30 4552 H 433.581 -0.888386 -1.35349 0
M  V30 4553 H 435.573 0.737115 -3.97931 0
M  V30 4554 H 434.143 1.01935 -2.95513 0
M  V30 4555 H 433.363 -1.35111 -3.70322 0
M  V30 4556 H 434.651 -1.2974 -4.91981 0
M  V30 4557 H 434.049 1.85536 -5.34409 0
M  V30 4558 H 432.606 1.77095 -6.2728 0
M  V30 4559 N 436.039 1.36541 -0.78704 0
M  V30 4560 C 436.986 2.30082 -0.181901 0
M  V30 4561 C 437.956 1.5186 0.672896 0
M  V30 4562 O 439.141 1.80374 0.622072 0
M  V30 4563 C 436.281 3.3835 0.679197 0
M  V30 4564 C 435.394 4.31565 -0.193882 0
M  V30 4565 C 434.529 5.26915 0.673364 0
M  V30 4566 C 433.568 6.11769 -0.201315 0
M  V30 4567 N 432.705 6.99315 0.624777 0
M  V30 4568 H 437.545 2.81248 -0.985064 0
M  V30 4569 H 435.082 1.38437 -0.497342 0
M  V30 4570 H 437.04 3.99767 1.19341 0
M  V30 4571 H 435.67 2.8851 1.44781 0
M  V30 4572 H 434.722 3.71323 -0.826044 0
M  V30 4573 H 436.034 4.91191 -0.867937 0
M  V30 4574 H 435.188 5.9361 1.25348 0
M  V30 4575 H 433.927 4.67737 1.38105 0
M  V30 4576 H 432.932 5.44039 -0.793849 0
M  V30 4577 H 434.157 6.73022 -0.906568 0
M  V30 4578 H 432.103 6.42648 1.3168 0
M  V30 4579 H 432.02 7.56 0.00835237 0
M  V30 4580 H 433.288 7.70382 1.18879 0
M  V30 4581 N 437.518 0.538854 1.48102 0
M  V30 4582 C 438.766 0.00798599 2.02098 0
M  V30 4583 C 439.087 -1.33922 1.41739 0
M  V30 4584 O 438.357 -1.86932 0.585934 0
M  V30 4585 H 436.937 -3.62179e-05 0.747 0
M  V30 4586 H 439.599 0.7047 1.81714 0
M  V30 4587 H 438.695 -0.0937672 3.11959 0
M  V30 4588 N 438.996 -1.55193 0.274407 0
M  V30 4589 C 440.226 -2.03692 -0.345442 0
M  V30 4590 C 440.634 -1.15224 -1.50067 0
M  V30 4591 O 439.977 -0.164749 -1.8296 0
M  V30 4592 C 440.039 -3.48325 -0.88939 0
M  V30 4593 C 439.703 -4.56794 0.137115 0
M  V30 4594 C 440.7 -5.11028 0.956378 0
M  V30 4595 C 438.385 -5.01568 0.27115 0
M  V30 4596 C 440.379 -6.08552 1.89587 0
M  V30 4597 C 438.066 -5.98918 1.21412 0
M  V30 4598 C 439.064 -6.52291 2.02498 0
M  V30 4599 O 438.752 -7.47738 2.952 0
M  V30 4600 H 438.484 -0.670893 -0.0829332 0
M  V30 4601 H 441.038 -2.01387 0.404056 0
M  V30 4602 H 439.268 -3.47867 -1.68895 0
M  V30 4603 H 440.957 -3.80167 -1.42225 0
M  V30 4604 H 441.723 -4.7725 0.863559 0
M  V30 4605 H 437.602 -4.5967 -0.349987 0
M  V30 4606 H 441.146 -6.50137 2.52918 0
M  V30 4607 H 437.043 -6.32114 1.30776 0
M  V30 4608 H 437.811 -7.65451 2.89874 0
M  V30 4609 N 440.474 -0.00167713 -1.576 0
M  V30 4610 C 441.406 1.0174 -2.05382 0
M  V30 4611 C 442.419 1.30595 -0.972052 0
M  V30 4612 O 443.608 1.27542 -1.24882 0
M  V30 4613 C 440.708 2.35174 -2.44022 0
M  V30 4614 C 439.881 2.25234 -3.74951 0
M  V30 4615 C 438.94 3.4137 -4.00441 0
M  V30 4616 O 437.966 3.19483 -4.71083 0
M  V30 4617 N 439.168 4.64275 -3.48467 0
M  V30 4618 H 441.933 0.609902 -2.93428 0
M  V30 4619 H 439.494 0.185672 -1.60832 0
M  V30 4620 H 441.486 3.11643 -2.58187 0
M  V30 4621 H 440.056 2.67659 -1.61485 0
M  V30 4622 H 439.276 1.33664 -3.70847 0
M  V30 4623 H 440.564 2.15767 -4.60784 0
M  V30 4624 H 439.962 4.84955 -2.91264 0
M  V30 4625 H 438.519 5.38005 -3.67959 0
M  V30 4626 N 441.952 1.55251 0.271103 0
M  V30 4627 C 443.177 1.80306 1.02491 0
M  V30 4628 C 443.602 0.575457 1.79081 0
M  V30 4629 O 442.96 -0.474987 1.74967 0
M  V30 4630 C 443.008 3.02832 1.95768 0
M  V30 4631 O 442.112 2.78051 3.04568 0
M  V30 4632 H 441.453 0.595896 0.292923 0
M  V30 4633 H 443.983 2.02397 0.299436 0
M  V30 4634 H 443.993 3.31616 2.37686 0
M  V30 4635 H 442.668 3.9183 1.39434 0
M  V30 4636 H 441.245 2.60369 2.66951 0
M  V30 4637 N 443.43 -0.535701 1.48216 0
M  V30 4638 C 444.679 -1.28828 1.55197 0
M  V30 4639 C 444.992 -1.94263 0.228278 0
M  V30 4640 O 446.198 -2.70927 0.176278 0
M  V30 4641 C 444.654 -2.33727 2.73678 0
M  V30 4642 C 444.262 -1.74386 4.12666 0
M  V30 4643 C 446.006 -3.1003 2.89968 0
M  V30 4644 C 443.913 -2.77192 5.22416 0
M  V30 4645 H 442.843 -0.484484 0.577747 0
M  V30 4646 H 445.494 -0.56646 1.74538 0
M  V30 4647 H 443.876 -3.08919 2.4776 0
M  V30 4648 H 445.05 -1.05421 4.48579 0
M  V30 4649 H 443.365 -1.10595 4.01445 0
M  V30 4650 H 445.962 -3.86842 3.6913 0
M  V30 4651 H 446.305 -3.65542 1.9921 0
M  V30 4652 H 446.838 -2.41952 3.15759 0
M  V30 4653 H 443.577 -2.26507 6.15122 0
M  V30 4654 H 443.097 -3.44502 4.90998 0
M  V30 4655 H 444.776 -3.40285 5.50286 0
M  V30 4656 N 444.908 -1.36708 -0.784132 0
M  V30 4657 C 445.871 -1.31307 -1.87859 0
M  V30 4658 C 446.871 -0.219654 -1.59293 0
M  V30 4659 O 448.061 -0.47476 -1.67606 0
M  V30 4660 C 445.193 -1.03679 -3.24751 0
M  V30 4661 H 446.386 -2.28647 -1.94064 0
M  V30 4662 H 443.939 -1.21558 -0.98252 0
M  V30 4663 H 444.674 -0.0681936 -3.24228 0
M  V30 4664 H 444.459 -1.82811 -3.46876 0
M  V30 4665 H 445.949 -1.02518 -4.04821 0
M  V30 4666 N 446.386 1.0089 -1.21074 0
M  V30 4667 C 447.663 1.71834 -0.934469 0
M  V30 4668 C 448.043 2.0368 0.554753 0
M  V30 4669 O 447.391 1.70742 1.51854 0
M  V30 4670 C 447.601 2.98061 -1.8155 0
M  V30 4671 C 448.949 3.7117 -2.06199 0
M  V30 4672 O 449.973 3.08034 -1.78867 0
M  V30 4673 O 448.832 4.84721 -2.52404 0
M  V30 4674 H 445.926 0.749253 -0.35007 0
M  V30 4675 H 448.472 1.06668 -1.31985 0
M  V30 4676 H 447.244 2.70908 -2.82355 0
M  V30 4677 H 446.867 3.70968 -1.43068 0
M  V30 4678 N 447.864 1.01787 1.20321 0
M  V30 4679 C 449.111 0.707936 1.89722 0
M  V30 4680 C 449.439 -0.762535 1.78929 0
M  V30 4681 O 448.694 -1.56977 1.16861 0
M  V30 4682 C 448.993 1.09076 3.40349 0
M  V30 4683 C 448.659 2.55765 3.71342 0
M  V30 4684 C 447.321 2.95845 3.79511 0
M  V30 4685 C 449.673 3.50723 3.85542 0
M  V30 4686 C 447.001 4.2982 3.99339 0
M  V30 4687 C 449.353 4.84387 4.06881 0
M  V30 4688 C 448.017 5.24172 4.1328 0
M  V30 4689 H 447.287 0.259052 0.694243 0
M  V30 4690 H 449.934 1.27868 1.42555 0
M  V30 4691 H 448.239 0.438453 3.89339 0
M  V30 4692 H 449.936 0.828636 3.92345 0
M  V30 4693 H 446.526 2.2371 3.65584 0
M  V30 4694 H 450.71 3.20916 3.78585 0
M  V30 4695 H 445.966 4.60196 4.02529 0
M  V30 4696 H 450.14 5.57891 4.1681 0
M  V30 4697 H 447.767 6.27997 4.28396 0
M  V30 4698 N 449.342 -1.36122 0.79427 0
M  V30 4699 C 450.292 -2.27373 0.169017 0
M  V30 4700 C 451.276 -1.4719 -0.649913 0
M  V30 4701 O 452.468 -1.69518 -0.50919 0
M  V30 4702 C 449.597 -3.36264 -0.691455 0
M  V30 4703 C 448.683 -4.2388 0.13653 0
M  V30 4704 N 449.074 -4.91519 1.19345 0
M  V30 4705 C 447.372 -4.45921 -0.0838499 0
M  V30 4706 C 448.073 -5.56369 1.6979 0
M  V30 4707 N 447.049 -5.34204 1.00634 0
M  V30 4708 H 450.851 -2.77154 0.977897 0
M  V30 4709 H 448.365 -1.49504 0.634208 0
M  V30 4710 H 450.362 -4.00572 -1.15534 0
M  V30 4711 H 449.022 -2.88037 -1.49883 0
M  V30 4712 H 450.033 -4.9334 1.57594 0
M  V30 4713 H 446.71 -4.08518 -0.861341 0
M  V30 4714 H 448.1 -6.20368 2.58055 0
M  V30 4715 N 450.82 -0.546701 -1.47814 0
M  V30 4716 C 452.068 -0.0187037 -2.02091 0
M  V30 4717 C 452.389 1.33168 -1.42447 0
M  V30 4718 O 451.659 1.86619 -0.595839 0
M  V30 4719 H 450.239 -0.00392531 -0.74699 0
M  V30 4720 H 452.901 -0.714327 -1.81338 0
M  V30 4721 H 451.997 0.0772219 -3.12004 0
M  V30 4722 N 452.299 1.55045 -0.282633 0
M  V30 4723 C 453.246 2.22822 0.601566 0
M  V30 4724 C 454.216 1.20431 1.14392 0
M  V30 4725 O 455.401 1.48996 1.19184 0
M  V30 4726 C 452.541 2.95873 1.77632 0
M  V30 4727 C 451.654 4.12999 1.26711 0
M  V30 4728 C 450.789 4.73676 2.40426 0
M  V30 4729 C 449.828 5.82981 1.86545 0
M  V30 4730 N 448.965 6.3769 2.93762 0
M  V30 4731 H 453.805 2.97995 0.0169528 0
M  V30 4732 H 451.342 1.471 -0.00339964 0
M  V30 4733 H 453.3 3.36447 2.46697 0
M  V30 4734 H 451.93 2.2311 2.33285 0
M  V30 4735 H 450.982 3.77494 0.469314 0
M  V30 4736 H 452.294 4.91803 0.832518 0
M  V30 4737 H 451.448 5.17008 3.17471 0
M  V30 4738 H 450.187 3.94164 2.87203 0
M  V30 4739 H 449.192 5.39092 1.07983 0
M  V30 4740 H 450.417 6.64366 1.40694 0
M  V30 4741 H 448.363 5.61069 3.39908 0
M  V30 4742 H 448.28 7.11788 2.54744 0
M  V30 4743 H 449.548 6.8568 3.7076 0
M  V30 4744 N 453.777 0.010035 1.57597 0
M  V30 4745 C 454.707 -0.976857 2.12084 0
M  V30 4746 C 455.688 -1.35191 1.03235 0
M  V30 4747 O 456.873 -1.43389 1.3097 0
M  V30 4748 C 454.003 -2.26548 2.63236 0
M  V30 4749 C 452.957 -2.03175 3.76701 0
M  V30 4750 C 452.283 -3.38138 4.14206 0
M  V30 4751 C 453.583 -1.38625 5.03568 0
M  V30 4752 H 455.277 -0.523145 2.94794 0
M  V30 4753 H 452.823 -0.250195 1.4181 0
M  V30 4754 H 454.776 -2.95952 2.99984 0
M  V30 4755 H 453.5 -2.74051 1.77661 0
M  V30 4756 H 452.159 -1.36195 3.40362 0
M  V30 4757 H 451.807 -3.83363 3.25641 0
M  V30 4758 H 451.507 -3.23312 4.90656 0
M  V30 4759 H 453.031 -4.08841 4.53521 0
M  V30 4760 H 454.445 -1.98 5.38023 0
M  V30 4761 H 452.842 -1.34256 5.84889 0
M  V30 4762 H 453.912 -0.356722 4.83586 0
M  V30 4763 N 455.255 -1.55392 -0.262866 0
M  V30 4764 C 456.202 -1.88966 -1.32516 0
M  V30 4765 C 457.172 -0.742187 -1.48596 0
M  V30 4766 O 458.357 -0.99439 -1.62839 0
M  V30 4767 C 455.497 -2.17592 -2.67858 0
M  V30 4768 C 454.61 -3.45061 -2.59917 0
M  V30 4769 C 453.745 -3.63336 -3.87505 0
M  V30 4770 C 452.784 -4.84462 -3.74116 0
M  V30 4771 N 451.921 -4.99342 -4.93561 0
M  V30 4772 H 456.761 -2.79566 -1.03184 0
M  V30 4773 H 454.298 -1.38404 -0.498285 0
M  V30 4774 H 456.256 -2.3219 -3.46617 0
M  V30 4775 H 454.886 -1.30215 -2.95371 0
M  V30 4776 H 453.938 -3.38881 -1.72812 0
M  V30 4777 H 455.25 -4.3396 -2.45926 0
M  V30 4778 H 454.404 -3.77807 -4.74707 0
M  V30 4779 H 453.143 -2.72641 -4.04374 0
M  V30 4780 H 452.148 -4.69985 -2.85297 0
M  V30 4781 H 453.373 -5.76603 -3.58757 0
M  V30 4782 H 451.319 -4.1158 -5.10821 0
M  V30 4783 H 451.236 -5.82303 -4.82141 0
M  V30 4784 H 452.504 -5.18208 -5.82306 0
M  V30 4785 N 456.733 0.527833 -1.48498 0
M  V30 4786 C 457.958 1.313 -1.60546 0
M  V30 4787 C 458.383 1.86199 -0.26672 0
M  V30 4788 O 457.741 1.64513 0.761918 0
M  V30 4789 C 457.789 2.43818 -2.65678 0
M  V30 4790 O 456.893 3.46916 -2.22987 0
M  V30 4791 H 456.234 0.388784 -0.538277 0
M  V30 4792 H 458.764 0.634896 -1.945 0
M  V30 4793 H 458.774 2.89973 -2.87018 0
M  V30 4794 H 457.449 2.03222 -3.62869 0
M  V30 4795 H 456.026 3.06864 -2.11869 0
M  V30 4796 N 458.211 1.37122 0.776871 0
M  V30 4797 C 459.141 1.35164 1.90402 0
M  V30 4798 C 460.122 0.221069 1.68657 0
M  V30 4799 O 461.307 0.420642 1.8959 0
M  V30 4800 C 458.437 1.15274 3.27611 0
M  V30 4801 C 457.391 2.25289 3.63908 0
M  V30 4802 C 456.717 1.90527 4.99603 0
M  V30 4803 C 458.017 3.67446 3.71188 0
M  V30 4804 H 459.711 2.29482 1.92297 0
M  V30 4805 H 457.257 1.10465 0.923773 0
M  V30 4806 H 459.21 1.12536 4.06096 0
M  V30 4807 H 457.934 0.174102 3.26136 0
M  V30 4808 H 456.593 2.27174 2.87728 0
M  V30 4809 H 456.241 0.91206 4.94662 0
M  V30 4810 H 455.941 2.64193 5.24858 0
M  V30 4811 H 457.465 1.89367 5.80493 0
M  V30 4812 H 458.879 3.67719 4.39836 0
M  V30 4813 H 457.276 4.40123 4.07936 0
M  V30 4814 H 458.346 4.01443 2.71977 0
M  V30 4815 O 459.728 -0.91678 1.32956 0
M  V30 4816 H 460.419 -1.55003 1.16162 0
M  V30 END ATOM
M  V30 BEGIN BOND
M  V30 END BOND
M  V30 END CTAB
M  END
$$$$
