drugbank_target|Q54468 Chitobiase (DB03013)
 OpenBabel12092119573D

  0  0  0     0  0            999 V3000
M  V30 BEGIN CTAB
M  V30 COUNTS 13736 13906 0 0 0
M  V30 BEGIN ATOM
M  V30 1 H -0.908 1.98254 -0.117106 0
M  V30 2 N 0 1.576 0 0
M  V30 3 C 0.933 2.03868 1.02534 0
M  V30 4 C 1.911 0.928543 1.3348 0
M  V30 5 O 3.095 1.19667 1.45644 0
M  V30 6 C 0.222 2.43627 2.35294 0
M  V30 7 C -0.732 3.65373 2.2001 0
M  V30 8 S 0.101 5.13292 1.52614 0
M  V30 9 C 1.257 5.56322 2.86805 0
M  V30 10 H 1.49 2.90518 0.631377 0
M  V30 11 H -0.977 1.52953 0.210867 0
M  V30 12 H 0.981 2.67203 3.11629 0
M  V30 13 H -0.358 1.57376 2.7183 0
M  V30 14 H -1.165 3.90944 3.18086 0
M  V30 15 H -1.563 3.418 1.51819 0
M  V30 16 H 0.729 5.58782 3.83104 0
M  V30 17 H 1.672 6.56266 2.65933 0
M  V30 18 H 2.08 4.83886 2.90714 0
M  V30 19 N 1.4781 -0.272755 1.55222 0
M  V30 20 C 2.4261 -1.35705 1.88909 0
M  V30 21 C 3.4201 -1.5112 0.765456 0
M  V30 22 O 4.6261 -1.52901 0.949802 0
M  V30 23 H 1.0011 -0.453868 0.59959 0
M  V30 24 H 2.9721 -1.04544 2.79487 0
M  V30 25 C 1.7211 -2.71049 2.17779 0
M  V30 26 H 1.0441 -2.59979 3.03728 0
M  V30 27 H 2.4841 -3.45858 2.45272 0
M  V30 28 C 0.9431 -3.22165 0.985473 0
M  V30 29 O 1.4731 -4.01096 0.220233 0
M  V30 30 N -0.3209 -2.7985 0.783108 0
M  V30 31 H -0.7739 -2.15775 1.40708 0
M  V30 32 H -0.8159 -3.14397 -0.0130392 0
M  V30 33 N 2.9562 -1.48159 -0.537278 0
M  V30 34 C 3.9192 -1.61665 -1.62472 0
M  V30 35 C 4.9192 -0.490395 -1.5314 0
M  V30 36 O 6.1092 -0.755998 -1.5694 0
M  V30 37 C 3.2412 -1.57997 -3.02076 0
M  V30 38 H 4.4342 -2.58621 -1.51839 0
M  V30 39 H 1.9872 -1.36647 -0.758771 0
M  V30 40 H 2.7222 -0.624913 -3.18222 0
M  V30 41 H 2.5072 -2.39755 -3.10258 0
M  V30 42 H 3.9972 -1.70627 -3.81151 0
M  V30 43 N 4.4343 0.785586 -1.36625 0
M  V30 44 C 5.6813 1.54362 -1.31067 0
M  V30 45 C 6.0093 1.94195 0.10893 0
M  V30 46 O 5.2643 1.63262 1.07908 0
M  V30 47 C 5.5633 2.83007 -2.1827 0
M  V30 48 C 5.2293 2.62294 -3.6676 0
M  V30 49 C 3.8913 2.56353 -4.0723 0
M  V30 50 C 6.2433 2.43371 -4.6089 0
M  V30 51 C 3.5713 2.29461 -5.39967 0
M  V30 52 C 5.9233 2.18005 -5.93849 0
M  V30 53 C 4.5873 2.105 -6.3344 0
M  V30 54 H 3.8573 0.564851 -0.479609 0
M  V30 55 H 6.5043 0.906028 -1.68711 0
M  V30 56 H 4.8093 3.51253 -1.73576 0
M  V30 57 H 6.5063 3.40817 -2.11292 0
M  V30 58 H 3.0963 2.67774 -3.34656 0
M  V30 59 H 7.2803 2.46959 -4.30494 0
M  V30 60 H 2.5363 2.22135 -5.69619 0
M  V30 61 H 6.7103 2.02359 -6.66351 0
M  V30 62 H 4.3373 1.89425 -7.36222 0
M  V30 63 N 5.9124 1.20967 1.01018 0
M  V30 64 C 6.8594 0.964281 2.09691 0
M  V30 65 C 7.8294 -0.107853 1.65749 0
M  V30 66 O 9.0144 0.0381987 1.90762 0
M  V30 67 C 6.1544 0.52943 3.41015 0
M  V30 68 C 5.2674 1.67043 3.98398 0
M  V30 69 C 4.4024 1.18525 5.17808 0
M  V30 70 C 3.4414 2.29892 5.67288 0
M  V30 71 N 2.5784 1.82546 6.77954 0
M  V30 72 H 7.4184 1.89463 2.30017 0
M  V30 73 H 4.9554 0.944289 1.1279 0
M  V30 74 H 6.9134 0.258588 4.16398 0
M  V30 75 H 5.5434 -0.363919 3.20742 0
M  V30 76 H 4.5954 2.05603 3.20049 0
M  V30 77 H 5.9074 2.50877 4.31117 0
M  V30 78 H 5.0614 0.870762 6.00419 0
M  V30 79 H 3.8004 0.316887 4.86669 0
M  V30 80 H 2.8054 2.6215 4.83278 0
M  V30 81 H 4.0304 3.17216 6.00459 0
M  V30 82 H 1.9764 0.980454 6.48632 0
M  V30 83 H 1.8934 2.59956 7.09901 0
M  V30 84 H 3.1614 1.54115 7.64113 0
M  V30 85 N 7.3905 -1.2043 1.01659 0
M  V30 86 C 8.3205 -2.25466 0.607226 0
M  V30 87 C 9.3015 -1.65853 -0.377716 0
M  V30 88 O 10.4865 -1.92409 -0.263149 0
M  V30 89 C 7.6165 -3.47256 -0.0552949 0
M  V30 90 C 6.5705 -4.19462 0.850632 0
M  V30 91 C 5.8965 -5.34673 0.0538859 0
M  V30 92 C 7.1965 -4.75603 2.15868 0
M  V30 93 H 8.8905 -2.59962 1.48526 0
M  V30 94 H 6.4365 -1.2496 0.715605 0
M  V30 95 H 8.3895 -4.19917 -0.353233 0
M  V30 96 H 7.1135 -3.11924 -0.968045 0
M  V30 97 H 5.7725 -3.48667 1.13257 0
M  V30 98 H 5.4205 -4.95585 -0.860514 0
M  V30 99 H 5.1205 -5.83913 0.657192 0
M  V30 100 H 6.6445 -6.10138 -0.237598 0
M  V30 101 H 8.0585 -5.40083 1.92311 0
M  V30 102 H 6.4555 -5.3528 2.71284 0
M  V30 103 H 7.5255 -3.94346 2.82169 0
M  V30 104 N 8.8686 -0.792821 -1.36206 0
M  V30 105 C 10.0936 -0.377701 -2.03932 0
M  V30 106 C 10.5186 0.998947 -1.59382 0
M  V30 107 O 9.8766 1.64421 -0.763903 0
M  V30 108 C 9.9246 -0.453635 -3.57735 0
M  V30 109 O 9.0286 0.538151 -4.08874 0
M  V30 110 H 8.3696 -0.159855 -0.644471 0
M  V30 111 H 10.8996 -1.07488 -1.7409 0
M  V30 112 H 10.9096 -0.318464 -4.06755 0
M  V30 113 H 9.5846 -1.45784 -3.89512 0
M  V30 114 H 8.1616 0.364359 -3.71116 0
M  V30 115 N 10.3467 1.47872 -0.545128 0
M  V30 116 C 11.3097 2.28337 0.198717 0
M  V30 117 C 12.3097 1.36255 0.853888 0
M  V30 118 O 13.4997 1.59003 0.711606 0
M  V30 119 C 10.6317 3.15585 1.28915 0
M  V30 120 H 11.8247 2.95567 -0.507941 0
M  V30 121 H 9.3777 1.53362 -0.301616 0
M  V30 122 H 10.1127 2.53019 2.02859 0
M  V30 123 H 9.8977 3.83337 0.824309 0
M  V30 124 H 11.3877 3.76243 1.81194 0
M  V30 125 N 11.8248 0.280983 1.55075 0
M  V30 126 C 12.7548 -0.597469 2.25727 0
M  V30 127 C 13.7358 -1.15417 1.24952 0
M  V30 128 O 14.9208 -1.18722 1.53684 0
M  V30 129 C 12.0508 -1.7789 2.98283 0
M  V30 130 C 11.0048 -1.35347 4.06036 0
M  V30 131 C 10.3308 -2.61846 4.66198 0
M  V30 132 C 11.6308 -0.499354 5.19907 0
M  V30 133 H 13.3248 -0.00824265 2.99399 0
M  V30 134 H 10.8708 -0.0025244 1.44 0
M  V30 135 H 12.8238 -2.39937 3.46422 0
M  V30 136 H 11.5478 -2.39405 2.22155 0
M  V30 137 H 10.2068 -0.756156 3.58717 0
M  V30 138 H 9.8548 -3.21632 3.86732 0
M  V30 139 H 9.5548 -2.3409 5.38958 0
M  V30 140 H 11.0788 -3.24732 5.1709 0
M  V30 141 H 12.4928 -1.02498 5.64063 0
M  V30 142 H 10.8898 -0.316424 5.99265 0
M  V30 143 H 11.9598 0.480459 4.82514 0
M  V30 144 N 13.3029 -1.57598 0.00835791 0
M  V30 145 C 14.2659 -2.07884 -0.965242 0
M  V30 146 C 15.2659 -0.989825 -1.26725 0
M  V30 147 O 16.4559 -1.25218 -1.21104 0
M  V30 148 C 13.5879 -2.52731 -2.28779 0
M  V30 149 H 14.7809 -2.95178 -0.530112 0
M  V30 150 H 12.3339 -1.54458 -0.239283 0
M  V30 151 H 13.0689 -1.68705 -2.76964 0
M  V30 152 H 12.8539 -3.32272 -2.08177 0
M  V30 153 H 14.3439 -2.91933 -2.98605 0
M  V30 154 N 14.781 0.264519 -1.55364 0
M  V30 155 C 16.197 0.61215 -1.47394 0
M  V30 156 C 16.397 1.89134 -0.695018 0
M  V30 157 O 15.453 2.51563 -0.217275 0
M  V30 158 C 16.766 0.731235 -2.91674 0
M  V30 159 C 18.314 0.82473 -3.01939 0
M  V30 160 C 18.789 0.975522 -4.4749 0
M  V30 161 N 20.28 1.04083 -4.51354 0
M  V30 162 C 21.015 1.17646 -5.61201 0
M  V30 163 N 20.511 1.27874 -6.80896 0
M  V30 164 N 22.304 1.20823 -5.48961 0
M  V30 165 H 14.455 -0.575456 -2.04456 0
M  V30 166 H 16.718 -0.196099 -0.927496 0
M  V30 167 H 16.424 -0.138392 -3.51428 0
M  V30 168 H 16.298 1.60883 -3.41169 0
M  V30 169 H 18.685 1.68482 -2.42276 0
M  V30 170 H 18.766 -0.0776479 -2.55682 0
M  V30 171 H 18.41 0.120058 -5.07758 0
M  V30 172 H 18.34 1.89268 -4.91412 0
M  V30 173 H 20.831 0.973846 -3.65136 0
M  V30 174 H 21.144 1.38081 -7.60364 0
M  V30 175 H 19.489 1.24863 -6.83692 0
M  V30 176 H 22.68 1.12469 -4.54388 0
M  V30 177 H 22.853 1.31049 -6.3461 0
M  V30 178 N 16.2591 1.48442 0.529413 0
M  V30 179 C 17.1891 1.65902 1.64313 0
M  V30 180 C 18.1701 0.507897 1.6234 0
M  V30 181 O 19.3551 0.740503 1.79528 0
M  V30 182 C 16.4851 1.69911 3.02898 0
M  V30 183 C 15.4391 2.8453 3.19729 0
M  V30 184 C 14.7651 2.73629 4.59381 0
M  V30 185 C 16.0651 4.25821 3.02447 0
M  V30 186 H 17.7591 2.5914 1.49955 0
M  V30 187 H 15.3051 1.24709 0.719982 0
M  V30 188 H 17.2581 1.80715 3.80684 0
M  V30 189 H 15.9821 0.732524 3.18279 0
M  V30 190 H 14.6411 2.73283 2.44361 0
M  V30 191 H 14.2891 1.74938 4.71599 0
M  V30 192 H 13.9891 3.50541 4.71588 0
M  V30 193 H 15.5131 2.86401 5.39265 0
M  V30 194 H 16.9271 4.37898 3.70024 0
M  V30 195 H 15.3241 5.03735 3.26146 0
M  V30 196 H 16.3941 4.42244 1.98867 0
M  V30 197 N 17.7372 -0.778329 1.37039 0
M  V30 198 C 18.9652 -1.56734 1.35063 0
M  V30 199 C 19.3802 -1.88686 -0.0655597 0
M  V30 200 O 18.7372 -1.5096 -1.02554 0
M  V30 201 C 18.7882 -2.88163 2.18276 0
M  V30 202 O 18.5092 -2.57583 3.54376 0
M  V30 203 C 20.0102 -3.82422 2.24206 0
M  V30 204 H 17.2302 -0.485778 0.462883 0
M  V30 205 H 19.7742 -0.965185 1.8029 0
M  V30 206 H 17.9292 -3.44818 1.76576 0
M  V30 207 H 18.3432 -3.41699 3.97922 0
M  V30 208 H 19.8172 -4.71667 2.86765 0
M  V30 209 H 20.2942 -4.21078 1.24861 0
M  V30 210 H 20.9002 -3.31697 2.6619 0
M  V30 211 N 19.2153 -1.21501 -1.00376 0
M  V30 212 C 20.1783 -0.976927 -2.07337 0
M  V30 213 C 21.1783 0.0525322 -1.60714 0
M  V30 214 O 22.3683 -0.184869 -1.73216 0
M  V30 215 C 19.5003 -0.473423 -3.37597 0
M  V30 216 H 20.6933 -1.92587 -2.29892 0
M  V30 217 H 18.2463 -1.03217 -1.17371 0
M  V30 218 H 18.9813 0.480379 -3.20722 0
M  V30 219 H 18.7663 -1.216 -3.72768 0
M  V30 220 H 20.2563 -0.32675 -4.1632 0
M  V30 221 N 20.6934 1.19889 -1.02296 0
M  V30 222 C 21.9214 1.9339 -0.735399 0
M  V30 223 C 22.3364 1.75148 0.704887 0
M  V30 224 O 21.6934 1.06954 1.47875 0
M  V30 225 C 21.7444 3.45313 -1.06962 0
M  V30 226 O 21.4654 3.62964 -2.45334 0
M  V30 227 C 22.9664 4.35948 -0.804021 0
M  V30 228 H 20.1864 0.61448 -0.269546 0
M  V30 229 H 22.7304 1.522 -1.36585 0
M  V30 230 H 20.8854 3.84359 -0.484455 0
M  V30 231 H 21.2994 4.56886 -2.57595 0
M  V30 232 H 22.7734 5.41174 -1.0879 0
M  V30 233 H 23.2504 4.3842 0.261691 0
M  V30 234 H 23.8564 4.02574 -1.37164 0
M  V30 235 N 22.1715 0.800033 1.35784 0
M  V30 236 C 23.1045 0.151499 2.27697 0
M  V30 237 C 24.0825 -0.678663 1.4776 0
M  V30 238 O 25.2665 -0.647358 1.77035 0
M  V30 239 C 22.3935 -0.790492 3.29346 0
M  V30 240 C 21.4395 -0.0407832 4.26481 0
M  V30 241 S 22.2725 1.29077 5.19711 0
M  V30 242 C 23.4285 0.353055 6.24903 0
M  V30 243 H 23.6615 0.930796 2.82353 0
M  V30 244 H 21.1945 0.594767 1.42485 0
M  V30 245 H 23.1525 -1.3285 3.88409 0
M  V30 246 H 21.8135 -1.54312 2.73581 0
M  V30 247 H 21.0065 -0.755971 4.98298 0
M  V30 248 H 20.6085 0.427063 3.71554 0
M  V30 249 H 22.9005 -0.464147 6.75908 0
M  V30 250 H 23.8435 1.04023 7.00418 0
M  V30 251 H 24.2515 -0.0483344 5.64479 0
M  V30 252 N 23.6496 -1.47581 0.552962 0
M  V30 253 C 24.8976 -2.02082 0.0272703 0
M  V30 254 C 25.2186 -1.4301 -1.32563 0
M  V30 255 O 24.4886 -0.603745 -1.86365 0
M  V30 256 H 23.0686 -0.746966 0.00709182 0
M  V30 257 H 25.7306 -1.81033 0.722008 0
M  V30 258 H 24.8266 -3.12034 -0.0639951 0
M  V30 259 N 25.1277 -0.289203 -1.54924 0
M  V30 260 C 26.3747 0.323519 -1.99899 0
M  V30 261 C 26.7027 1.54797 -1.17762 0
M  V30 262 O 25.9577 1.94237 -0.238835 0
M  V30 263 C 26.2567 0.736119 -3.49737 0
M  V30 264 C 25.9227 -0.385276 -4.49251 0
M  V30 265 C 24.5847 -0.693156 -4.76181 0
M  V30 266 C 26.9367 -1.14021 -5.08575 0
M  V30 267 C 24.2647 -1.7593 -5.59701 0
M  V30 268 C 26.6167 -2.19619 -5.93254 0
M  V30 269 C 25.2807 -2.51026 -6.185 0
M  V30 270 H 24.5507 0.118384 -0.731482 0
M  V30 271 H 27.1977 -0.405847 -1.8715 0
M  V30 272 H 25.5027 1.54539 -3.60035 0
M  V30 273 H 27.1997 1.22118 -3.81953 0
M  V30 274 H 23.7897 -0.135202 -4.28387 0
M  V30 275 H 27.9737 -0.915611 -4.87781 0
M  V30 276 H 23.2297 -2.0075 -5.77503 0
M  V30 277 H 27.4037 -2.78581 -6.38252 0
M  V30 278 H 25.0307 -3.33772 -6.83008 0
M  V30 279 N 26.6058 1.57591 -0.0167156 0
M  V30 280 C 27.5358 2.12496 0.967858 0
M  V30 281 C 28.5168 1.03807 1.34752 0
M  V30 282 O 29.7018 1.31577 1.42833 0
M  V30 283 C 26.8318 2.64194 2.25431 0
M  V30 284 C 25.7858 3.77559 2.01576 0
M  V30 285 C 25.1118 4.15636 3.36379 0
M  V30 286 C 26.4118 5.04151 1.36489 0
M  V30 287 H 28.1058 2.95013 0.510643 0
M  V30 288 H 25.6518 1.41915 0.244181 0
M  V30 289 H 27.6048 3.01236 2.94678 0
M  V30 290 H 26.3288 1.78821 2.73296 0
M  V30 291 H 24.9878 3.40937 1.34751 0
M  V30 292 H 24.6358 3.27263 3.81979 0
M  V30 293 H 24.3358 4.92022 3.21229 0
M  V30 294 H 25.8598 4.5525 4.06915 0
M  V30 295 H 27.2738 5.38857 1.95718 0
M  V30 296 H 25.6708 5.85453 1.31776 0
M  V30 297 H 26.7408 4.83733 0.336219 0
M  V30 298 N 28.0839 -0.256276 1.55502 0
M  V30 299 C 29.3319 -0.983672 1.76545 0
M  V30 300 C 29.6529 -1.86206 0.578982 0
M  V30 301 O 28.9229 -1.91656 -0.405577 0
M  V30 302 H 27.5029 -0.366191 0.651086 0
M  V30 303 H 30.1649 -0.276479 1.92929 0
M  V30 304 H 29.2609 -1.61087 2.67315 0
M  V30 305 N 29.562 -1.4872 -0.521534 0
M  V30 306 C 30.81 -1.56857 -1.27437 0
M  V30 307 C 31.131 -0.247982 -1.93417 0
M  V30 308 O 30.401 0.731151 -1.81744 0
M  V30 309 H 28.981 -0.577885 -0.473347 0
M  V30 310 H 31.643 -1.85233 -0.606205 0
M  V30 311 H 30.739 -2.35402 -2.0492 0
M  V30 312 N 31.0401 0.771051 -1.3745 0
M  V30 313 C 31.9731 1.89166 -1.27638 0
M  V30 314 C 32.9511 1.61842 -0.156782 0
M  V30 315 O 34.1351 1.85569 -0.331111 0
M  V30 316 C 31.2621 3.24405 -0.973621 0
M  V30 317 C 30.3081 3.70638 -2.1102 0
M  V30 318 S 31.1411 3.84228 -3.73 0
M  V30 319 C 32.2971 5.22313 -3.44876 0
M  V30 320 H 32.5301 1.972 -2.22485 0
M  V30 321 H 30.0631 0.932224 -1.23081 0
M  V30 322 H 32.0211 4.02514 -0.805766 0
M  V30 323 H 30.6821 3.14071 -0.0426279 0
M  V30 324 H 29.8751 4.68685 -1.85338 0
M  V30 325 H 29.4771 2.99632 -2.23822 0
M  V30 326 H 31.7691 6.07505 -2.99908 0
M  V30 327 H 32.7121 5.53008 -4.42253 0
M  V30 328 H 33.1201 4.90284 -2.79789 0
M  V30 329 N 32.5182 1.22032 0.997298 0
M  V30 330 C 33.7662 1.04016 1.73278 0
M  V30 331 C 34.0872 -0.426255 1.90284 0
M  V30 332 O 33.3572 -1.30694 1.45931 0
M  V30 333 H 31.9372 0.381897 0.642 0
M  V30 334 H 34.5992 1.5347 1.20137 0
M  V30 335 H 33.6952 1.51441 2.72896 0
M  V30 336 N 33.9963 -1.19345 1.0293 0
M  V30 337 C 35.2213 -1.93538 0.745511 0
M  V30 338 C 35.6463 -1.75007 -0.689511 0
M  V30 339 O 35.0043 -1.05265 -1.47611 0
M  V30 340 C 35.0523 -3.43336 1.10239 0
M  V30 341 O 34.1563 -4.11806 0.221289 0
M  V30 342 H 33.4973 -0.604193 0.275404 0
M  V30 343 H 36.0273 -1.5141 1.37609 0
M  V30 344 H 36.0373 -3.94004 1.05947 0
M  V30 345 H 34.7123 -3.56146 2.14786 0
M  V30 346 H 33.2893 -3.715 0.322842 0
M  V30 347 N 35.4744 -0.807222 -1.35358 0
M  V30 348 C 36.4374 -0.223665 -2.28106 0
M  V30 349 C 37.4374 0.589354 -1.4961 0
M  V30 350 O 38.6274 0.407745 -1.69361 0
M  V30 351 C 35.7594 0.688149 -3.33882 0
M  V30 352 H 36.9524 -1.04169 -2.81227 0
M  V30 353 H 34.5054 -0.577921 -1.45223 0
M  V30 354 H 35.2404 1.52984 -2.85948 0
M  V30 355 H 35.0254 0.10687 -3.91954 0
M  V30 356 H 36.5154 1.09075 -4.03104 0
M  V30 357 N 36.9525 1.47285 -0.560781 0
M  V30 358 C 37.8855 2.27009 0.232821 0
M  V30 359 C 38.8635 1.34273 0.917039 0
M  V30 360 O 40.0475 1.63659 0.935315 0
M  V30 361 C 37.1745 3.11406 1.33206 0
M  V30 362 C 36.2205 4.19746 0.756019 0
M  V30 363 S 37.0535 5.34003 -0.400165 0
M  V30 364 C 38.2095 6.21964 0.700805 0
M  V30 365 H 38.4425 2.93971 -0.443683 0
M  V30 366 H 35.9755 1.50446 -0.347181 0
M  V30 367 H 37.9335 3.60601 1.96156 0
M  V30 368 H 36.5945 2.438 1.98041 0
M  V30 369 H 35.7875 4.78541 1.5816 0
M  V30 370 H 35.3895 3.73451 0.202619 0
M  V30 371 H 37.6815 6.58529 1.59202 0
M  V30 372 H 38.6245 7.07941 0.150126 0
M  V30 373 H 39.0325 5.5566 0.995083 0
M  V30 374 N 38.4306 0.297415 1.54768 0
M  V30 375 C 39.3936 -0.567375 2.22066 0
M  V30 376 C 40.3936 -1.06409 1.20556 0
M  V30 377 O 41.5836 -0.960691 1.45315 0
M  V30 378 C 38.7156 -1.78517 2.90421 0
M  V30 379 H 39.9086 0.0205534 2.99893 0
M  V30 380 H 37.4616 0.0482163 1.56226 0
M  V30 381 H 38.1966 -2.41303 2.16664 0
M  V30 382 H 37.9816 -1.43669 3.64831 0
M  V30 383 H 39.4716 -2.39964 3.41771 0
M  V30 384 N 39.9087 -1.5758 0.0250728 0
M  V30 385 C 41.1857 -1.82917 -0.692873 0
M  V30 386 C 41.5657 -0.908137 -1.90568 0
M  V30 387 O 40.9137 0.0372298 -2.2847 0
M  V30 388 C 41.1237 -3.32034 -1.07492 0
M  V30 389 C 42.4717 -3.98406 -1.46826 0
M  V30 390 O 43.4957 -3.36505 -1.16801 0
M  V30 391 O 42.3547 -5.07497 -2.02754 0
M  V30 392 H 39.4487 -0.754079 -0.33955 0
M  V30 393 H 41.9947 -1.69619 0.0524456 0
M  V30 394 H 40.7667 -3.90728 -0.211552 0
M  V30 395 H 40.3897 -3.50424 -1.87854 0
M  V30 396 N 41.3868 0.248026 -1.55636 0
M  V30 397 C 42.3188 1.32993 -1.8667 0
M  V30 398 C 43.3318 1.44345 -0.752877 0
M  V30 399 O 44.5208 1.45715 -1.03098 0
M  V30 400 C 41.6208 2.70863 -2.03682 0
M  V30 401 C 40.7938 2.81792 -3.34532 0
M  V30 402 C 39.8528 4.005 -3.41301 0
M  V30 403 O 38.8788 3.9008 -4.14519 0
M  V30 404 N 40.0808 5.13618 -2.70512 0
M  V30 405 H 42.8458 1.06707 -2.8006 0
M  V30 406 H 40.4068 0.438129 -1.55859 0
M  V30 407 H 42.3988 3.48612 -2.05553 0
M  V30 408 H 40.9688 2.89862 -1.17041 0
M  V30 409 H 40.1888 1.90729 -3.44987 0
M  V30 410 H 41.4768 2.86043 -4.20781 0
M  V30 411 H 40.8748 5.24975 -2.10755 0
M  V30 412 H 39.4318 5.89505 -2.78077 0
M  V30 413 N 42.8649 1.48995 0.513639 0
M  V30 414 C 43.7969 1.60836 1.63293 0
M  V30 415 C 44.8099 0.491701 1.55197 0
M  V30 416 O 45.9989 0.763238 1.6136 0
M  V30 417 C 43.0989 1.53731 3.02027 0
M  V30 418 C 42.2719 2.80715 3.35437 0
M  V30 419 C 41.3309 2.66837 4.53525 0
M  V30 420 O 40.3569 3.40753 4.55934 0
M  V30 421 N 41.5589 1.77539 5.52684 0
M  V30 422 H 44.3239 2.57366 1.53566 0
M  V30 423 H 41.8849 1.45925 0.701259 0
M  V30 424 H 43.8769 1.42118 3.78926 0
M  V30 425 H 42.4469 0.651092 3.05744 0
M  V30 426 H 41.6669 3.06772 2.47557 0
M  V30 427 H 42.9549 3.64927 3.54551 0
M  V30 428 H 42.3529 1.16719 5.53528 0
M  V30 429 H 40.9099 1.71856 6.28736 0
M  V30 430 N 44.343 -0.763751 1.37857 0
M  V30 431 C 45.273 -1.89103 1.36975 0
M  V30 432 C 46.254 -1.68439 0.237152 0
M  V30 433 O 47.439 -1.8918 0.438713 0
M  V30 434 C 44.569 -3.26496 1.18395 0
M  V30 435 C 43.523 -3.61741 2.28751 0
M  V30 436 C 42.849 -4.97762 1.95286 0
M  V30 437 C 44.149 -3.67665 3.70972 0
M  V30 438 H 45.843 -1.90099 2.31307 0
M  V30 439 H 43.389 -0.91319 1.11341 0
M  V30 440 H 45.342 -4.05003 1.16406 0
M  V30 441 H 44.066 -3.25955 0.205215 0
M  V30 442 H 42.725 -2.85547 2.29909 0
M  V30 443 H 42.373 -4.93769 0.959221 0
M  V30 444 H 42.073 -5.22313 2.69189 0
M  V30 445 H 43.597 -5.7866 1.94898 0
M  V30 446 H 45.011 -4.36307 3.719 0
M  V30 447 H 43.408 -4.03718 4.43995 0
M  V30 448 H 44.478 -2.68134 4.0402 0
M  V30 449 N 45.8211 -1.22559 -0.990812 0
M  V30 450 C 47.0671 -1.05297 -1.73322 0
M  V30 451 C 47.4001 0.410655 -1.89808 0
M  V30 452 O 46.6751 1.30439 -1.44277 0
M  V30 453 C 46.9581 -1.76713 -3.13759 0
M  V30 454 C 46.8111 -3.30684 -3.04907 0
M  V30 455 C 48.1301 -1.52121 -4.12974 0
M  V30 456 H 45.2491 -0.38392 -0.629106 0
M  V30 457 H 47.8911 -1.50926 -1.15418 0
M  V30 458 H 46.0411 -1.37924 -3.63193 0
M  V30 459 H 47.7131 -3.7893 -2.63077 0
M  V30 460 H 45.9561 -3.60253 -2.41661 0
M  V30 461 H 46.6271 -3.75833 -4.04294 0
M  V30 462 H 49.1031 -1.85819 -3.72304 0
M  V30 463 H 47.9791 -2.04582 -5.0935 0
M  V30 464 H 48.2401 -0.454257 -4.3976 0
M  V30 465 N 47.2992 1.18797 -1.03562 0
M  V30 466 C 48.5762 1.84469 -0.650434 0
M  V30 467 C 48.9562 1.92319 0.870433 0
M  V30 468 O 48.3042 1.44528 1.76986 0
M  V30 469 C 48.5142 3.2306 -1.32036 0
M  V30 470 C 49.8622 3.9915 -1.44792 0
M  V30 471 O 50.8862 3.32481 -1.27806 0
M  V30 472 O 49.7452 5.18587 -1.72423 0
M  V30 473 H 46.8392 0.795251 -0.226946 0
M  V30 474 H 49.3852 1.26231 -1.13419 0
M  V30 475 H 48.1572 3.1222 -2.3587 0
M  V30 476 H 47.7802 3.88949 -0.8249 0
M  V30 477 N 48.7773 0.814389 1.34928 0
M  V30 478 C 49.7093 0.187834 2.28429 0
M  V30 479 C 50.7223 -0.617374 1.5064 0
M  V30 480 O 51.9113 -0.448454 1.72775 0
M  V30 481 C 49.0113 -0.755962 3.30361 0
M  V30 482 C 48.1843 0.00456686 4.374 0
M  V30 483 C 47.2433 -0.858876 5.19143 0
M  V30 484 O 46.2693 -0.306968 5.68372 0
M  V30 485 N 47.4713 -2.17988 5.38016 0
M  V30 486 H 50.2363 0.991105 2.82838 0
M  V30 487 H 47.7973 0.670561 1.4736 0
M  V30 488 H 49.7893 -1.338 3.81942 0
M  V30 489 H 48.3593 -1.46001 2.7641 0
M  V30 490 H 47.5793 0.767865 3.86649 0
M  V30 491 H 48.8673 0.528422 5.06049 0
M  V30 492 H 48.2653 -2.65212 4.99679 0
M  V30 493 H 46.8223 -2.71098 5.92747 0
M  V30 494 N 50.2554 -1.46986 0.568584 0
M  V30 495 C 51.1854 -2.32946 -0.160753 0
M  V30 496 C 52.1664 -1.44487 -0.897631 0
M  V30 497 O 53.3514 -1.73327 -0.875867 0
M  V30 498 C 50.4814 -3.26494 -1.18403 0
M  V30 499 C 49.4354 -4.24282 -0.562895 0
M  V30 500 C 48.7614 -5.07236 -1.69163 0
M  V30 501 C 50.0614 -5.19989 0.490761 0
M  V30 502 H 51.7554 -2.94175 0.556916 0
M  V30 503 H 49.3014 -1.4146 0.26927 0
M  V30 504 H 51.2544 -3.85477 -1.70251 0
M  V30 505 H 49.9784 -2.63343 -1.93179 0
M  V30 506 H 48.6374 -3.66541 -0.0656164 0
M  V30 507 H 48.2854 -4.4048 -2.42871 0
M  V30 508 H 47.9854 -5.7345 -1.28174 0
M  V30 509 H 49.5094 -5.6908 -2.21314 0
M  V30 510 H 50.9234 -5.73271 0.0579047 0
M  V30 511 H 49.3204 -5.94469 0.820165 0
M  V30 512 H 50.3904 -4.64777 1.3824 0
M  V30 513 N 51.7335 -0.305618 -1.54608 0
M  V30 514 C 52.9585 0.307562 -2.05107 0
M  V30 515 C 53.3835 1.46385 -1.18123 0
M  V30 516 O 52.7415 1.8034 -0.186324 0
M  V30 517 C 52.7895 0.73704 -3.52987 0
M  V30 518 O 51.8935 1.84134 -3.6901 0
M  V30 519 H 51.2345 0.0589143 -0.661381 0
M  V30 520 H 53.7645 -0.448807 -1.99617 0
M  V30 521 H 53.7745 1.02459 -3.94925 0
M  V30 522 H 52.4495 -0.108773 -4.15758 0
M  V30 523 H 51.0265 1.55398 -3.38978 0
M  V30 524 N 53.2116 1.57565 -0.0334293 0
M  V30 525 C 54.1436 2.0739 0.975811 0
M  V30 526 C 55.1566 0.998166 1.2861 0
M  V30 527 O 56.3456 1.27426 1.25 0
M  V30 528 C 53.4456 2.4871 2.30209 0
M  V30 529 C 52.6186 3.79413 2.17634 0
M  V30 530 C 51.6776 4.07237 3.33233 0
M  V30 531 O 50.7036 4.77425 3.09927 0
M  V30 532 N 51.9056 3.5775 4.5716 0
M  V30 533 H 54.6706 2.94598 0.55066 0
M  V30 534 H 52.2316 1.61173 0.15323 0
M  V30 535 H 54.2236 2.64413 3.06378 0
M  V30 536 H 52.7936 1.66845 2.64351 0
M  V30 537 H 52.0136 3.73465 1.26165 0
M  V30 538 H 53.3016 4.65038 2.0644 0
M  V30 539 H 52.6996 3.00976 4.78989 0
M  V30 540 H 51.2566 3.78724 5.30482 0
M  V30 541 N 54.6897 -0.239769 1.55765 0
M  V30 542 C 55.6197 -1.30052 1.9393 0
M  V30 543 C 56.6007 -1.49839 0.805132 0
M  V30 544 O 57.7857 -1.62328 1.06599 0
M  V30 545 C 54.9157 -2.65391 2.2402 0
M  V30 546 C 53.8697 -2.60289 3.39755 0
M  V30 547 C 53.1957 -3.99489 3.55405 0
M  V30 548 C 54.4957 -2.16654 4.75246 0
M  V30 549 H 56.1897 -0.983573 2.82783 0
M  V30 550 H 53.7357 -0.471701 1.36055 0
M  V30 551 H 55.6887 -3.3974 2.49308 0
M  V30 552 H 54.4127 -2.98736 1.32 0
M  V30 553 H 53.0717 -1.88398 3.14487 0
M  V30 554 H 52.7197 -4.30112 2.60793 0
M  V30 555 H 52.4197 -3.96962 4.33238 0
M  V30 556 H 53.9437 -4.75528 3.83022 0
M  V30 557 H 55.3577 -2.80737 4.99859 0
M  V30 558 H 53.7547 -2.25223 5.56232 0
M  V30 559 H 54.8247 -1.11835 4.71827 0
M  V30 560 N 56.1678 -1.49265 -0.50573 0
M  V30 561 C 57.1148 -1.65585 -1.6078 0
M  V30 562 C 58.0848 -0.497396 -1.58478 0
M  V30 563 O 59.2698 -0.72385 -1.76536 0
M  V30 564 C 56.4098 -1.72408 -2.98948 0
M  V30 565 C 55.5228 -2.99525 -3.11301 0
M  V30 566 C 54.6578 -2.97356 -4.40174 0
M  V30 567 C 53.6968 -4.19074 -4.46143 0
M  V30 568 N 52.8338 -4.14841 -5.66437 0
M  V30 569 H 57.6738 -2.59688 -1.46172 0
M  V30 570 H 55.2108 -1.28761 -0.711261 0
M  V30 571 H 57.1688 -1.74344 -3.79025 0
M  V30 572 H 55.7988 -0.817753 -3.1227 0
M  V30 573 H 54.8508 -3.07222 -2.24318 0
M  V30 574 H 56.1628 -3.89518 -3.11572 0
M  V30 575 H 55.3168 -2.97829 -5.28567 0
M  V30 576 H 54.0558 -2.05133 -4.42461 0
M  V30 577 H 53.0608 -4.1885 -3.56153 0
M  V30 578 H 54.2858 -5.12483 -4.45575 0
M  V30 579 H 52.2318 -3.25453 -5.69575 0
M  V30 580 H 52.1488 -4.98564 -5.68304 0
M  V30 581 H 53.4168 -4.1941 -6.57051 0
M  V30 582 N 57.6459 0.756429 -1.3826 0
M  V30 583 C 58.5759 1.88374 -1.37976 0
M  V30 584 C 59.5569 1.68311 -0.246082 0
M  V30 585 O 60.7419 1.88944 -0.44874 0
M  V30 586 C 57.8719 3.25864 -1.20125 0
M  V30 587 C 56.8259 3.60523 -2.30666 0
M  V30 588 C 56.1519 4.9672 -1.97923 0
M  V30 589 C 57.4519 3.65692 -3.72916 0
M  V30 590 H 59.1459 1.88869 -2.32312 0
M  V30 591 H 56.6919 0.907272 -1.11824 0
M  V30 592 H 58.6449 4.0438 -1.18552 0
M  V30 593 H 57.3689 3.25841 -0.222498 0
M  V30 594 H 56.0279 2.84324 -2.3142 0
M  V30 595 H 55.6759 4.93253 -0.985393 0
M  V30 596 H 55.3759 5.20878 -2.71955 0
M  V30 597 H 56.8999 5.77618 -1.97964 0
M  V30 598 H 58.3139 4.34328 -3.74208 0
M  V30 599 H 56.7109 4.01358 -4.4613 0
M  V30 600 H 57.7809 2.65987 -4.05436 0
M  V30 601 N 59.124 1.23083 0.984299 0
M  V30 602 C 60.072 1.00593 2.09723 0
M  V30 603 C 61.066 -0.0538014 1.69315 0
M  V30 604 O 62.272 0.0993719 1.79725 0
M  V30 605 H 58.647 0.30817 0.685956 0
M  V30 606 H 60.618 1.95012 2.2586 0
M  V30 607 C 59.367 0.609601 3.42314 0
M  V30 608 H 58.69 1.41675 3.73856 0
M  V30 609 H 60.13 0.491726 4.21139 0
M  V30 610 C 58.589 -0.681745 3.2993 0
M  V30 611 O 59.119 -1.73192 3.62446 0
M  V30 612 N 57.325 -0.656178 2.83095 0
M  V30 613 H 56.872 0.198759 2.56832 0
M  V30 614 H 56.83 -1.52044 2.75191 0
M  V30 615 N 60.6021 -1.18246 1.0419 0
M  V30 616 C 61.8481 -1.88536 0.747122 0
M  V30 617 C 62.1811 -1.80223 -0.723409 0
M  V30 618 O 61.4561 -1.20337 -1.52804 0
M  V30 619 C 61.7391 -3.38968 1.21544 0
M  V30 620 C 61.5921 -3.56084 2.74816 0
M  V30 621 C 62.9111 -4.32648 0.806482 0
M  V30 622 H 60.0301 -0.684619 0.272883 0
M  V30 623 H 62.6721 -1.39113 1.29413 0
M  V30 624 H 60.8221 -3.8119 0.750081 0
M  V30 625 H 62.4941 -3.22946 3.29399 0
M  V30 626 H 60.7371 -2.98699 3.14582 0
M  V30 627 H 61.4081 -4.61639 3.02644 0
M  V30 628 H 63.8841 -3.98211 1.20695 0
M  V30 629 H 62.7601 -5.36462 1.1619 0
M  V30 630 H 63.0211 -4.41146 -0.29029 0
M  V30 631 N 62.0802 -0.821533 -1.34494 0
M  V30 632 C 63.0272 -0.240397 -2.29545 0
M  V30 633 C 63.9972 0.634031 -1.53523 0
M  V30 634 O 65.1822 0.575966 -1.81899 0
M  V30 635 C 62.3222 0.592869 -3.39969 0
M  V30 636 C 61.4352 -0.30365 -4.30932 0
M  V30 637 C 60.5702 0.539049 -5.28458 0
M  V30 638 C 59.6092 -0.356942 -6.11058 0
M  V30 639 N 58.7462 0.446603 -7.00678 0
M  V30 640 H 63.5862 -1.05632 -2.7865 0
M  V30 641 H 61.1232 -0.532413 -1.37127 0
M  V30 642 H 63.0812 1.09129 -4.02675 0
M  V30 643 H 61.7112 1.37392 -2.92102 0
M  V30 644 H 60.7632 -0.920276 -3.691 0
M  V30 645 H 62.0752 -0.992661 -4.88823 0
M  V30 646 H 61.2292 1.102 -5.96608 0
M  V30 647 H 59.9682 1.26157 -4.71101 0
M  V30 648 H 58.9732 -0.932047 -5.41842 0
M  V30 649 H 60.1982 -1.07755 -6.70497 0
M  V30 650 H 58.1442 1.15282 -6.45791 0
M  V30 651 H 58.0612 -0.184048 -7.55776 0
M  V30 652 H 59.3292 0.992352 -7.73158 0
M  V30 653 N 63.5583 1.46682 -0.576371 0
M  V30 654 C 64.4913 2.27243 0.208731 0
M  V30 655 C 65.4693 1.35238 0.902746 0
M  V30 656 O 66.6533 1.64641 0.917904 0
M  V30 657 C 63.7803 3.12802 1.29896 0
M  V30 658 C 62.8263 4.20524 0.711457 0
M  V30 659 S 63.6593 5.33548 -0.456781 0
M  V30 660 C 64.8153 6.22673 0.634798 0
M  V30 661 H 65.0483 2.93484 -0.474838 0
M  V30 662 H 62.5813 1.50069 -0.363118 0
M  V30 663 H 64.5393 3.62661 1.92321 0
M  V30 664 H 63.2003 2.45887 1.95444 0
M  V30 665 H 62.3933 4.80191 1.53076 0
M  V30 666 H 61.9953 3.73645 0.162999 0
M  V30 667 H 64.2873 6.60181 1.52209 0
M  V30 668 H 65.2303 7.0806 0.0750311 0
M  V30 669 H 65.6383 5.56684 0.936092 0
M  V30 670 N 65.0364 0.313813 1.54444 0
M  V30 671 C 65.9664 -0.549454 2.26943 0
M  V30 672 C 66.9474 -1.12741 1.27372 0
M  V30 673 O 68.1324 -1.15436 1.56167 0
M  V30 674 C 65.2624 -1.71523 3.01989 0
M  V30 675 C 64.2164 -1.26703 4.08816 0
M  V30 676 C 63.5424 -2.51898 4.71647 0
M  V30 677 C 64.8424 -0.388962 5.2085 0
M  V30 678 H 66.5364 0.0552661 2.99349 0
M  V30 679 H 64.0824 0.0280207 1.43973 0
M  V30 680 H 66.0354 -2.32535 3.51433 0
M  V30 681 H 64.7594 -2.34639 2.27183 0
M  V30 682 H 63.4184 -0.679896 3.6024 0
M  V30 683 H 63.0664 -3.13356 3.93468 0
M  V30 684 H 62.7664 -2.22605 5.43802 0
M  V30 685 H 64.2904 -3.1369 5.23861 0
M  V30 686 H 65.7044 -0.905107 5.6611 0
M  V30 687 H 64.1014 -0.18924 5.99802 0
M  V30 688 H 65.1714 0.582699 4.81386 0
M  V30 689 N 66.5145 -1.57545 0.0417849 0
M  V30 690 C 67.7915 -1.83642 -0.673433 0
M  V30 691 C 68.1715 -0.928298 -1.89594 0
M  V30 692 O 67.5195 0.0129955 -2.28496 0
M  V30 693 C 67.7295 -3.33155 -1.03964 0
M  V30 694 C 69.0775 -3.99941 -1.42592 0
M  V30 695 O 70.1015 -3.37725 -1.13226 0
M  V30 696 O 68.9605 -5.09619 -1.9736 0
M  V30 697 H 66.0545 -0.757638 -0.331533 0
M  V30 698 H 68.6005 -1.69554 0.070433 0
M  V30 699 H 67.3725 -3.9093 -0.170098 0
M  V30 700 H 66.9955 -3.52396 -1.84126 0
M  V30 701 N 67.9926 0.231505 -1.5589 0
M  V30 702 C 68.9406 1.30649 -1.92441 0
M  V30 703 C 69.9346 1.49037 -0.805254 0
M  V30 704 O 71.1406 1.50329 -0.990007 0
M  V30 705 H 67.5156 0.437812 -0.611412 0
M  V30 706 H 69.4866 0.970973 -2.82161 0
M  V30 707 C 68.2356 2.65179 -2.24889 0
M  V30 708 H 67.5586 2.51835 -3.10514 0
M  V30 709 H 68.9986 3.39234 -2.54355 0
M  V30 710 C 67.4576 3.19439 -1.07054 0
M  V30 711 O 67.9876 4.00371 -0.326499 0
M  V30 712 N 66.1936 2.77675 -0.85703 0
M  V30 713 H 65.7406 2.11969 -1.46379 0
M  V30 714 H 65.6986 3.14321 -0.0703223 0
M  V30 715 N 69.4707 1.49531 0.497807 0
M  V30 716 C 70.8867 1.36365 0.829266 0
M  V30 717 C 71.0867 0.399184 1.97506 0
M  V30 718 O 70.1427 -0.167977 2.51941 0
M  V30 719 C 71.4557 2.77153 1.16647 0
M  V30 720 C 73.0037 2.85877 1.27449 0
M  V30 721 C 73.4787 4.2744 1.64497 0
M  V30 722 N 74.9697 4.30265 1.7154 0
M  V30 723 C 75.7047 5.3677 2.01656 0
M  V30 724 N 75.2007 6.53516 2.29976 0
M  V30 725 N 76.9937 5.24189 2.02934 0
M  V30 726 H 69.1447 2.10831 -0.257703 0
M  V30 727 H 71.4077 0.946534 -0.0527091 0
M  V30 728 H 71.1137 3.49442 0.397872 0
M  V30 729 H 70.9877 3.12722 2.10915 0
M  V30 730 H 73.3747 2.13824 2.0338 0
M  V30 731 H 73.4557 2.53887 0.312244 0
M  V30 732 H 73.0997 5.00021 0.891151 0
M  V30 733 H 73.0297 4.56896 2.61827 0
M  V30 734 H 75.5207 3.4607 1.51802 0
M  V30 735 H 75.8337 7.30506 2.52153 0
M  V30 736 H 74.1787 6.56737 2.27425 0
M  V30 737 H 77.3697 4.31988 1.80289 0
M  V30 738 H 77.5427 6.07286 2.26071 0
M  V30 739 N 70.9488 -0.749086 1.3866 0
M  V30 740 C 71.9118 -1.84457 1.36045 0
M  V30 741 C 72.9118 -1.58682 0.260122 0
M  V30 742 O 74.1018 -1.66343 0.517261 0
M  V30 743 C 71.2338 -3.22008 1.11911 0
M  V30 744 H 72.4268 -1.88182 2.33512 0
M  V30 745 H 69.9798 -0.951266 1.24019 0
M  V30 746 H 70.7148 -3.2395 0.150686 0
M  V30 747 H 70.4998 -3.42111 1.91579 0
M  V30 748 H 71.9898 -4.0208 1.12788 0
M  V30 749 N 72.4269 -1.23603 -0.977757 0
M  V30 750 C 73.6749 -1.06759 -1.71601 0
M  V30 751 C 73.9959 0.395929 -1.90938 0
M  V30 752 O 73.2659 1.28356 -1.47992 0
M  V30 753 H 71.8459 -0.392062 -0.635843 0
M  V30 754 H 74.5079 -1.55362 -1.1768 0
M  V30 755 H 73.6039 -1.55763 -2.70452 0
M  V30 756 N 73.905 1.17692 -1.04816 0
M  V30 757 C 74.815 2.25229 -0.65643 0
M  V30 758 C 75.831 1.71018 0.320761 0
M  V30 759 O 77.007 2.00649 0.173805 0
M  V30 760 C 74.072 3.46684 -0.0332629 0
M  V30 761 C 73.133 4.15997 -1.06042 0
M  V30 762 C 72.366 5.31654 -0.466893 0
M  V30 763 O 72.589 5.65777 0.724758 0
M  V30 764 O 71.523 5.89831 -1.1993 0
M  V30 765 H 75.349 2.61016 -1.55255 0
M  V30 766 H 72.934 1.24919 -0.81949 0
M  V30 767 H 74.816 4.20234 0.313256 0
M  V30 768 H 73.491 3.12703 0.836566 0
M  V30 769 H 72.398 3.44482 -1.45886 0
M  V30 770 H 73.731 4.53996 -1.90127 0
M  V30 771 N 75.3831 0.828654 1.34056 0
M  V30 772 C 76.3311 0.242973 2.31327 0
M  V30 773 C 77.3251 -0.61944 1.57668 0
M  V30 774 O 78.5311 -0.51014 1.7262 0
M  V30 775 H 74.9061 0.059834 0.749616 0
M  V30 776 H 76.8771 1.07809 2.78244 0
M  V30 777 C 75.6261 -0.575733 3.429 0
M  V30 778 H 74.9491 0.0785582 3.99723 0
M  V30 779 H 76.3891 -0.951547 4.13185 0
M  V30 780 C 74.8481 -1.75044 2.87856 0
M  V30 781 O 75.3781 -2.84882 2.83205 0
M  V30 782 N 73.5841 -1.56903 2.44602 0
M  V30 783 H 73.1311 -0.675547 2.48584 0
M  V30 784 H 73.0891 -2.35652 2.08124 0
M  V30 785 N 76.8612 -1.46375 0.584142 0
M  V30 786 C 78.1092 -2.01978 0.0701287 0
M  V30 787 C 78.4302 -1.4579 -1.295 0
M  V30 788 O 77.7002 -0.64314 -1.85042 0
M  V30 789 H 76.2802 -0.746648 0.0229345 0
M  V30 790 H 78.9422 -1.79461 0.760245 0
M  V30 791 H 78.0382 -3.121 0.0022064 0
M  V30 792 N 78.3393 -0.321999 -1.54275 0
M  V30 793 C 79.5853 0.281461 -2.00837 0
M  V30 794 C 79.9183 1.51909 -1.20985 0
M  V30 795 O 79.1933 1.923 -0.291733 0
M  V30 796 C 79.4763 0.617162 -3.54772 0
M  V30 797 C 79.3293 -0.631064 -4.45351 0
M  V30 798 C 80.6483 1.43542 -4.16033 0
M  V30 799 H 77.7673 0.100826 -0.730071 0
M  V30 800 H 80.4093 -0.438268 -1.84876 0
M  V30 801 H 78.5593 1.23034 -3.68504 0
M  V30 802 H 80.2313 -1.26934 -4.43492 0
M  V30 803 H 78.4743 -1.26025 -4.15091 0
M  V30 804 H 79.1453 -0.351735 -5.50878 0
M  V30 805 H 81.6213 0.917134 -4.05867 0
M  V30 806 H 80.4973 1.63907 -5.23856 0
M  V30 807 H 80.7583 2.43108 -3.69257 0
M  V30 808 N 79.8174 1.5752 -0.0501392 0
M  V30 809 C 81.0944 1.83996 0.663685 0
M  V30 810 C 81.4744 0.938339 1.89099 0
M  V30 811 O 80.8224 -0.00087759 2.285 0
M  V30 812 C 81.0324 3.33702 1.02196 0
M  V30 813 C 82.3804 4.00691 1.40469 0
M  V30 814 O 83.4044 3.38321 1.11433 0
M  V30 815 O 82.2634 5.10658 1.94654 0
M  V30 816 H 79.3574 0.759385 0.32751 0
M  V30 817 H 81.9034 1.69514 -0.0794238 0
M  V30 818 H 80.6754 3.91015 0.149364 0
M  V30 819 H 80.2984 3.53368 1.82255 0
M  V30 820 N 81.2955 -0.223234 1.56011 0
M  V30 821 C 82.5355 -0.954962 1.8072 0
M  V30 822 C 82.8995 -1.81598 0.623384 0
M  V30 823 O 84.1005 -2.58132 0.749745 0
M  V30 824 C 82.3715 -1.77313 3.10314 0
M  V30 825 S 83.9305 -2.56073 3.56332 0
M  V30 826 H 80.7485 -0.320812 0.634508 0
M  V30 827 H 83.3505 -0.220686 1.9425 0
M  V30 828 H 82.0545 -1.13071 3.94516 0
M  V30 829 H 81.5855 -2.54974 2.99586 0
M  V30 830 H 83.6005 -3.79619 3.19536 0
M  V30 831 N 82.7736 -1.49793 -0.48987 0
M  V30 832 C 83.7366 -1.66752 -1.57246 0
M  V30 833 C 84.7366 -0.538867 -1.51502 0
M  V30 834 O 85.9266 -0.805545 -1.54456 0
M  V30 835 C 83.0586 -1.67528 -2.96896 0
M  V30 836 H 84.2516 -2.63321 -1.43534 0
M  V30 837 H 81.8046 -1.38992 -0.714914 0
M  V30 838 H 82.5396 -0.725837 -3.16073 0
M  V30 839 H 82.3246 -2.49504 -3.02473 0
M  V30 840 H 83.8146 -1.82667 -3.7553 0
M  V30 841 N 84.2517 0.741722 -1.39055 0
M  V30 842 C 85.2147 1.83733 -1.37021 0
M  V30 843 C 86.2147 1.58542 -0.268534 0
M  V30 844 O 87.4047 1.66067 -0.526076 0
M  V30 845 C 84.5367 3.2141 -1.13617 0
M  V30 846 H 85.7297 1.86941 -2.34506 0
M  V30 847 H 83.2827 0.944676 -1.24521 0
M  V30 848 H 84.0177 3.23865 -0.167863 0
M  V30 849 H 83.8027 3.4109 -1.93391 0
M  V30 850 H 85.2927 4.01477 -1.14918 0
M  V30 851 N 85.7298 1.2412 0.971189 0
M  V30 852 C 86.6598 1.05508 2.08304 0
M  V30 853 C 87.6408 -0.0308864 1.70072 0
M  V30 854 O 88.8258 0.135521 1.93727 0
M  V30 855 C 85.9558 0.655365 3.4106 0
M  V30 856 C 84.9098 1.68971 3.93234 0
M  V30 857 C 84.2358 1.14516 5.22293 0
M  V30 858 C 85.5358 3.08487 4.21465 0
M  V30 859 H 87.2298 1.98507 2.24132 0
M  V30 860 H 84.7758 0.955821 1.07704 0
M  V30 861 H 86.7288 0.51217 4.18276 0
M  V30 862 H 85.4528 -0.31032 3.25122 0
M  V30 863 H 84.1118 1.82106 3.18171 0
M  V30 864 H 83.7598 0.170189 5.02712 0
M  V30 865 H 83.4598 1.83635 5.58168 0
M  V30 866 H 84.9838 1.01401 6.02121 0
M  V30 867 H 86.3978 2.98601 4.89398 0
M  V30 868 H 84.7948 3.74926 4.68562 0
M  V30 869 H 85.8648 3.56787 3.28376 0
M  V30 870 N 87.2079 -1.17134 1.05439 0
M  V30 871 C 88.4559 -1.87085 0.764429 0
M  V30 872 C 88.7769 -1.81584 -0.710787 0
M  V30 873 O 88.0469 -1.24349 -1.51374 0
M  V30 874 H 86.6269 -0.692627 0.279779 0
M  V30 875 H 89.2889 -1.42087 1.33406 0
M  V30 876 H 88.3849 -2.92759 1.0816 0
M  V30 877 N 88.686 -0.835752 -1.33615 0
M  V30 878 C 89.649 -0.272 -2.2758 0
M  V30 879 C 90.649 0.557487 -1.50827 0
M  V30 880 O 91.839 0.37173 -1.70188 0
M  V30 881 C 88.971 0.617173 -3.35267 0
M  V30 882 H 90.164 -1.10111 -2.78954 0
M  V30 883 H 87.717 -0.608594 -1.43965 0
M  V30 884 H 88.452 1.46884 -2.89129 0
M  V30 885 H 88.237 0.0237066 -3.92093 0
M  V30 886 H 89.727 1.005 -4.05326 0
M  V30 887 N 90.1641 1.46063 -0.591896 0
M  V30 888 C 91.4411 1.95595 -0.0137119 0
M  V30 889 C 91.8211 1.5345 1.4497 0
M  V30 890 O 91.1691 0.789543 2.14426 0
M  V30 891 C 91.3791 3.48453 -0.195373 0
M  V30 892 C 92.7271 4.24546 -0.0679765 0
M  V30 893 O 93.7511 3.55982 -0.124681 0
M  V30 894 O 92.6101 5.46467 0.0600579 0
M  V30 895 H 89.7041 0.825795 0.0446279 0
M  V30 896 H 92.2501 1.56303 -0.660859 0
M  V30 897 H 91.0221 3.72045 -1.21235 0
M  V30 898 H 90.6451 3.94597 0.487775 0
M  V30 899 N 91.6422 0.330177 1.54103 0
M  V30 900 C 92.8882 -0.263542 2.01685 0
M  V30 901 C 93.2432 -1.49258 1.21408 0
M  V30 902 O 92.5362 -1.89395 0.289852 0
M  V30 903 C 92.7302 -0.643134 3.51566 0
M  V30 904 C 92.5592 0.547571 4.46354 0
M  V30 905 C 91.3292 1.04873 4.94297 0
M  V30 906 C 93.5272 1.40184 4.94826 0
M  V30 907 N 91.5092 2.20316 5.73005 0
M  V30 908 C 92.8802 2.40335 5.71524 0
M  V30 909 C 94.9352 1.42884 4.76958 0
M  V30 910 C 93.6382 3.42998 6.32254 0
M  V30 911 C 95.6642 2.44421 5.38528 0
M  V30 912 C 95.0262 3.43298 6.15082 0
M  V30 913 H 91.1252 -0.0601026 0.779687 0
M  V30 914 H 93.7092 0.466714 1.89023 0
M  V30 915 H 91.8802 -1.34251 3.6446 0
M  V30 916 H 93.6122 -1.21889 3.85908 0
M  V30 917 H 90.3672 0.618956 4.69538 0
M  V30 918 H 90.7912 2.78565 6.17034 0
M  V30 919 H 95.4332 0.678049 4.17328 0
M  V30 920 H 93.1512 4.1898 6.91 0
M  V30 921 H 96.7372 2.4732 5.26616 0
M  V30 922 H 95.6172 4.20579 6.61878 0
M  V30 923 N 93.1203 -1.57491 0.0584922 0
M  V30 924 C 94.0833 -2.1085 -0.898617 0
M  V30 925 C 95.0833 -1.02964 -1.23511 0
M  V30 926 O 96.2733 -1.29007 -1.17059 0
M  V30 927 C 93.4053 -2.59881 -2.20623 0
M  V30 928 H 94.5983 -2.96715 -0.435936 0
M  V30 929 H 92.1513 -1.55141 -0.190023 0
M  V30 930 H 92.8863 -1.77431 -2.71457 0
M  V30 931 H 92.6713 -3.38727 -1.97501 0
M  V30 932 H 94.1613 -3.01285 -2.89166 0
M  V30 933 N 94.5984 0.214957 -1.56127 0
M  V30 934 C 95.8234 0.95924 -1.83884 0
M  V30 935 C 96.2484 1.7689 -0.639644 0
M  V30 936 O 95.6064 1.76566 0.411601 0
M  V30 937 C 95.6544 1.84723 -3.09693 0
M  V30 938 O 94.7584 2.94346 -2.8885 0
M  V30 939 H 94.0994 0.27125 -0.606069 0
M  V30 940 H 96.6294 0.226276 -2.03345 0
M  V30 941 H 96.6394 2.25576 -3.39969 0
M  V30 942 H 95.3144 1.25218 -3.96602 0
M  V30 943 H 93.8914 2.57391 -2.69823 0
M  V30 944 N 96.0765 1.50051 0.48192 0
M  V30 945 C 97.3165 1.62128 1.24474 0
M  V30 946 C 97.6805 0.309742 1.89485 0
M  V30 947 O 98.8815 0.305854 2.67054 0
M  V30 948 C 97.1525 2.76151 2.26882 0
M  V30 949 S 98.7115 3.08297 3.12247 0
M  V30 950 H 95.5295 0.571661 0.422759 0
M  V30 951 H 98.1315 1.87791 0.54359 0
M  V30 952 H 96.8355 3.69942 1.77683 0
M  V30 953 H 96.3665 2.52541 3.0164 0
M  V30 954 H 98.3815 2.51287 4.27866 0
M  V30 955 N 97.5546 -0.734337 1.39446 0
M  V30 956 C 98.5026 -1.86971 1.38364 0
M  V30 957 C 99.4966 -1.67288 0.266687 0
M  V30 958 O 100.703 -1.74621 0.436755 0
M  V30 959 H 97.0776 -0.615474 0.432082 0
M  V30 960 H 99.0486 -1.85 2.34132 0
M  V30 961 C 97.7976 -3.2466 1.24465 0
M  V30 962 H 97.1206 -3.40402 2.09682 0
M  V30 963 H 98.5606 -4.04292 1.27764 0
M  V30 964 C 97.0196 -3.36867 -0.0468674 0
M  V30 965 O 97.5496 -3.88618 -1.01681 0
M  V30 966 N 95.7556 -2.90391 -0.110145 0
M  V30 967 H 95.3026 -2.48466 0.679868 0
M  V30 968 H 95.2606 -2.98939 -0.973799 0
M  V30 969 N 99.0327 -1.24633 -0.964593 0
M  V30 970 C 100.449 -1.01239 -1.2338 0
M  V30 971 C 100.649 0.2769 -1.99588 0
M  V30 972 O 99.7047 0.992241 -2.32187 0
M  V30 973 C 101.018 -2.22937 -2.01791 0
M  V30 974 C 102.566 -2.27594 -2.14872 0
M  V30 975 C 103.041 -3.48921 -2.96678 0
M  V30 976 N 104.532 -3.49257 -3.04259 0
M  V30 977 C 105.267 -4.39795 -3.67924 0
M  V30 978 N 104.763 -5.40591 -4.33281 0
M  V30 979 N 106.556 -4.275 -3.64966 0
M  V30 980 H 98.7067 -2.0748 -0.454502 0
M  V30 981 H 100.97 -0.910647 -0.26349 0
M  V30 982 H 100.676 -3.16587 -1.53184 0
M  V30 983 H 100.55 -2.25306 -3.02518 0
M  V30 984 H 102.937 -1.34473 -2.6268 0
M  V30 985 H 103.018 -2.2925 -1.13482 0
M  V30 986 H 102.662 -4.42359 -2.49562 0
M  V30 987 H 102.592 -3.4451 -3.98272 0
M  V30 988 H 105.083 -2.76337 -2.57771 0
M  V30 989 H 105.396 -6.05904 -4.79687 0
M  V30 990 H 103.741 -5.44475 -4.3194 0
M  V30 991 H 106.932 -3.47987 -3.13086 0
M  V30 992 H 107.105 -4.98258 -4.14298 0
M  V30 993 N 100.511 1.16574 -1.06058 0
M  V30 994 C 101.757 1.87324 -0.777022 0
M  V30 995 C 102.09 1.81351 0.694645 0
M  V30 996 O 101.365 1.22753 1.50871 0
M  V30 997 C 101.648 3.36991 -1.26922 0
M  V30 998 C 101.501 3.51667 -2.80447 0
M  V30 999 C 102.82 4.3131 -0.87521 0
M  V30 1000 H 99.9388 0.680191 -0.28374 0
M  V30 1001 H 102.581 1.37036 -1.3161 0
M  V30 1002 H 100.731 3.79949 -0.81063 0
M  V30 1003 H 102.403 3.17664 -3.34495 0
M  V30 1004 H 100.646 2.93656 -3.19294 0
M  V30 1005 H 101.317 4.56766 -3.0995 0
M  V30 1006 H 103.793 3.9624 -1.27014 0
M  V30 1007 H 102.669 5.34545 -1.2471 0
M  V30 1008 H 102.93 4.41552 0.220071 0
M  V30 1009 N 101.989 0.842826 1.3317 0
M  V30 1010 C 102.919 0.294028 2.31641 0
M  V30 1011 C 103.9 -0.600401 1.59151 0
M  V30 1012 O 105.085 -0.523124 1.87022 0
M  V30 1013 C 102.215 -0.528416 3.43257 0
M  V30 1014 C 101.169 0.27056 4.27144 0
M  V30 1015 C 100.495 -0.675881 5.30411 0
M  V30 1016 C 101.795 1.48981 5.00602 0
M  V30 1017 H 103.489 1.11681 2.77791 0
M  V30 1018 H 101.035 0.538478 1.33553 0
M  V30 1019 H 102.988 -0.922674 4.11175 0
M  V30 1020 H 101.712 -1.38445 2.95805 0
M  V30 1021 H 100.371 0.646427 3.60856 0
M  V30 1022 H 100.019 -1.52842 4.79216 0
M  V30 1023 H 99.7189 -0.145374 5.8742 0
M  V30 1024 H 101.243 -1.06757 6.01195 0
M  V30 1025 H 102.657 1.16849 5.61266 0
M  V30 1026 H 101.054 1.95739 5.6728 0
M  V30 1027 H 102.124 2.25746 4.29147 0
M  V30 1028 N 103.467 -1.45747 0.599634 0
M  V30 1029 C 104.714 -2.02292 0.0917284 0
M  V30 1030 C 105.042 -1.46906 -1.27472 0
M  V30 1031 O 104.297 -0.630652 -1.8526 0
M  V30 1032 C 104.596 -3.57399 -0.00602758 0
M  V30 1033 C 104.262 -4.31902 1.29503 0
M  V30 1034 C 102.924 -4.51974 1.65144 0
M  V30 1035 C 105.276 -4.74551 2.15525 0
M  V30 1036 C 102.604 -5.11949 2.86574 0
M  V30 1037 C 104.956 -5.35868 3.36196 0
M  V30 1038 C 103.62 -5.54165 3.72099 0
M  V30 1039 H 102.89 -0.740239 0.0335658 0
M  V30 1040 H 105.537 -1.7491 0.779661 0
M  V30 1041 H 103.842 -3.84014 -0.777183 0
M  V30 1042 H 105.539 -3.98846 -0.415038 0
M  V30 1043 H 102.129 -4.16588 1.00761 0
M  V30 1044 H 106.313 -4.58784 1.8929 0
M  V30 1045 H 101.569 -5.24305 3.14507 0
M  V30 1046 H 105.743 -5.6787 4.03109 0
M  V30 1047 H 103.37 -6.00406 4.6628 0
M  V30 1048 N 104.945 -0.338344 -1.53925 0
M  V30 1049 C 106.173 0.261298 -2.05243 0
M  V30 1050 C 106.588 1.44625 -1.21363 0
M  V30 1051 O 105.945 1.80811 -0.247736 0
M  V30 1052 C 105.996 0.681412 -3.5502 0
M  V30 1053 O 105.717 -0.456414 -4.35716 0
M  V30 1054 C 107.218 1.34232 -4.22489 0
M  V30 1055 H 104.438 0.0513685 -0.669031 0
M  V30 1056 H 106.982 -0.488822 -1.98572 0
M  V30 1057 H 105.137 1.38148 -3.61931 0
M  V30 1058 H 105.551 -0.122564 -5.24357 0
M  V30 1059 H 107.025 1.58708 -5.28693 0
M  V30 1060 H 107.502 2.29426 -3.74514 0
M  V30 1061 H 108.108 0.684424 -4.19757 0
M  V30 1062 N 106.423 1.57458 -0.0668435 0
M  V30 1063 C 107.353 2.15468 0.899764 0
M  V30 1064 C 108.334 1.08042 1.31381 0
M  V30 1065 O 109.519 1.36054 1.38574 0
M  V30 1066 C 106.649 2.71232 2.16911 0
M  V30 1067 C 105.603 3.83781 1.89463 0
M  V30 1068 C 104.929 4.26127 3.22986 0
M  V30 1069 C 106.229 5.08238 1.20381 0
M  V30 1070 H 107.923 2.96488 0.416529 0
M  V30 1071 H 105.469 1.4262 0.198908 0
M  V30 1072 H 107.422 3.10458 2.84945 0
M  V30 1073 H 106.146 1.87426 2.67468 0
M  V30 1074 H 104.805 3.45051 1.23836 0
M  V30 1075 H 104.453 3.39249 3.71374 0
M  V30 1076 H 104.153 5.01993 3.05413 0
M  V30 1077 H 105.677 4.67966 3.92225 0
M  V30 1078 H 107.091 5.44811 1.78475 0
M  V30 1079 H 105.488 5.89349 1.13083 0
M  V30 1080 H 106.558 4.84558 0.182153 0
M  V30 1081 N 107.901 -0.206675 1.56239 0
M  V30 1082 C 109.126 -0.949474 1.8439 0
M  V30 1083 C 109.551 -1.76549 0.649016 0
M  V30 1084 O 108.909 -1.76782 -0.402231 0
M  V30 1085 C 108.957 -1.83078 3.10668 0
M  V30 1086 O 108.061 -2.9281 2.90407 0
M  V30 1087 H 107.402 -0.268033 0.607499 0
M  V30 1088 H 109.932 -0.215488 2.03462 0
M  V30 1089 H 109.942 -2.2377 3.41161 0
M  V30 1090 H 108.617 -1.23112 3.97261 0
M  V30 1091 H 107.194 -2.55956 2.71184 0
M  V30 1092 N 109.379 -1.50304 -0.473955 0
M  V30 1093 C 110.327 -1.69482 -1.59307 0
M  V30 1094 C 111.321 -0.560669 -1.59853 0
M  V30 1095 O 112.527 -0.741087 -1.64036 0
M  V30 1096 H 108.902 -0.534892 -0.528578 0
M  V30 1097 H 110.873 -2.63364 -1.40293 0
M  V30 1098 C 109.622 -1.80354 -2.97267 0
M  V30 1099 H 108.945 -2.67012 -2.97564 0
M  V30 1100 H 110.385 -1.97798 -3.75036 0
M  V30 1101 C 108.844 -0.55448 -3.32306 0
M  V30 1102 O 109.374 0.307661 -4.0052 0
M  V30 1103 N 107.58 -0.409354 -2.87702 0
M  V30 1104 H 107.127 -1.11196 -2.32364 0
M  V30 1105 H 107.085 0.425223 -3.11511 0
M  V30 1106 N 110.857 0.726932 -1.39834 0
M  V30 1107 C 112.134 1.47902 -1.28001 0
M  V30 1108 C 112.514 2.1083 0.106789 0
M  V30 1109 O 111.862 1.99242 1.11869 0
M  V30 1110 C 112.072 2.52392 -2.41038 0
M  V30 1111 C 113.42 3.18546 -2.80737 0
M  V30 1112 O 114.444 2.62708 -2.40547 0
M  V30 1113 O 113.303 4.19604 -3.50135 0
M  V30 1114 H 110.397 0.657163 -0.502062 0
M  V30 1115 H 112.943 0.760071 -1.51727 0
M  V30 1116 H 111.715 2.04329 -3.33715 0
M  V30 1117 H 111.338 3.31837 -2.19021 0
M  V30 1118 N 112.336 1.25143 0.95797 0
M  V30 1119 C 113.584 1.09476 1.69881 0
M  V30 1120 C 113.905 -0.365502 1.91544 0
M  V30 1121 O 113.175 -1.25985 1.50015 0
M  V30 1122 H 111.755 0.402128 0.629525 0
M  V30 1123 H 114.417 1.57214 1.15194 0
M  V30 1124 H 113.513 1.60046 2.6794 0
M  V30 1125 N 113.814 -1.1601 1.06675 0
M  V30 1126 C 114.746 -2.20115 0.638921 0
M  V30 1127 C 115.759 -1.59916 -0.305057 0
M  V30 1128 O 116.948 -1.78245 -0.0954446 0
M  V30 1129 C 114.048 -3.38798 -0.0830083 0
M  V30 1130 C 113.221 -4.2855 0.875426 0
M  V30 1131 C 112.28 -5.25849 0.192042 0
M  V30 1132 O 111.306 -5.63102 0.830921 0
M  V30 1133 N 112.508 -5.70648 -1.06493 0
M  V30 1134 H 115.273 -2.57439 1.53444 0
M  V30 1135 H 112.834 -1.31057 0.950557 0
M  V30 1136 H 114.826 -4.00936 -0.550685 0
M  V30 1137 H 113.396 -2.99947 -0.880386 0
M  V30 1138 H 112.616 -3.63617 1.52238 0
M  V30 1139 H 113.904 -4.85393 1.52548 0
M  V30 1140 H 113.302 -5.42482 -1.60405 0
M  V30 1141 H 111.859 -6.34859 -1.47641 0
M  V30 1142 N 115.292 -0.849877 -1.32721 0
M  V30 1143 C 116.255 -0.296122 -2.27279 0
M  V30 1144 C 117.255 0.541458 -1.5141 0
M  V30 1145 O 118.445 0.353658 -1.70572 0
M  V30 1146 C 115.577 0.581579 -3.35902 0
M  V30 1147 H 116.77 -1.13064 -2.77771 0
M  V30 1148 H 114.323 -0.62383 -1.43311 0
M  V30 1149 H 115.058 1.43809 -2.9067 0
M  V30 1150 H 114.843 -0.0178814 -3.92096 0
M  V30 1151 H 116.333 0.961951 -4.0637 0
M  V30 1152 N 116.77 1.45427 -0.607355 0
M  V30 1153 C 118.019 2.01452 -0.100036 0
M  V30 1154 C 118.332 1.48159 1.27704 0
M  V30 1155 O 119.538 1.96159 1.87707 0
M  V30 1156 C 117.994 3.59672 -0.128158 0
M  V30 1157 C 117.602 4.21962 -1.50507 0
M  V30 1158 C 119.346 4.23262 0.323932 0
M  V30 1159 C 117.253 5.72333 -1.48959 0
M  V30 1160 H 116.183 0.75325 -0.0336299 0
M  V30 1161 H 118.834 1.66901 -0.76265 0
M  V30 1162 H 117.216 3.91411 0.601105 0
M  V30 1163 H 118.39 4.01796 -2.25602 0
M  V30 1164 H 116.705 3.70565 -1.89923 0
M  V30 1165 H 119.302 5.33522 0.354691 0
M  V30 1166 H 119.645 3.93921 1.34656 0
M  V30 1167 H 120.178 3.96239 -0.352056 0
M  V30 1168 H 116.917 6.06373 -2.48981 0
M  V30 1169 H 116.437 5.94691 -0.781214 0
M  V30 1170 H 118.116 6.35525 -1.21313 0
M  V30 1171 N 118.248 0.346503 1.53744 0
M  V30 1172 C 119.525 -0.304532 1.93215 0
M  V30 1173 C 119.905 -1.67993 1.27834 0
M  V30 1174 O 119.253 -2.24411 0.430352 0
M  V30 1175 C 119.463 -0.373852 3.46992 0
M  V30 1176 C 120.811 -0.62329 4.2 0
M  V30 1177 O 121.835 -0.455847 3.53271 0
M  V30 1178 O 120.694 -0.947879 5.38217 0
M  V30 1179 H 117.788 -0.178318 0.807547 0
M  V30 1180 H 120.334 0.397895 1.64969 0
M  V30 1181 H 119.106 0.591224 3.86808 0
M  V30 1182 H 118.729 -1.12294 3.81413 0
M  V30 1183 N 119.726 -1.57421 0.075193 0
M  V30 1184 C 120.974 -1.93236 -0.591974 0
M  V30 1185 C 121.295 -0.956241 -1.69944 0
M  V30 1186 O 120.565 -0.00494792 -1.95899 0
M  V30 1187 H 119.145 -0.713355 -0.22166 0
M  V30 1188 H 121.807 -1.9444 0.133848 0
M  V30 1189 H 120.903 -2.95131 -1.01509 0
M  V30 1190 N 121.204 0.198386 -1.56346 0
M  V30 1191 C 122.151 1.24589 -1.94284 0
M  V30 1192 C 123.121 1.454 -0.802997 0
M  V30 1193 O 124.306 1.58588 -1.06087 0
M  V30 1194 C 121.446 2.58631 -2.28482 0
M  V30 1195 C 120.559 2.45426 -3.55514 0
M  V30 1196 C 119.694 3.7215 -3.79049 0
M  V30 1197 C 118.733 3.53763 -4.99518 0
M  V30 1198 N 117.87 4.72491 -5.19323 0
M  V30 1199 H 122.71 0.915356 -2.83593 0
M  V30 1200 H 120.247 0.440629 -1.40346 0
M  V30 1201 H 122.205 3.3672 -2.46324 0
M  V30 1202 H 120.835 2.89734 -1.42317 0
M  V30 1203 H 119.887 1.58652 -3.45737 0
M  V30 1204 H 121.199 2.27772 -4.43758 0
M  V30 1205 H 120.353 4.58679 -3.97113 0
M  V30 1206 H 119.092 3.92754 -2.89129 0
M  V30 1207 H 118.097 2.65619 -4.8138 0
M  V30 1208 H 119.322 3.34607 -5.90944 0
M  V30 1209 H 117.268 4.93365 -4.3235 0
M  V30 1210 H 117.185 4.5765 -6.01741 0
M  V30 1211 H 118.453 5.6038 -5.41843 0
M  V30 1212 N 122.682 1.50554 0.465978 0
M  V30 1213 C 123.959 1.5232 1.22712 0
M  V30 1214 C 124.339 0.270807 2.09356 0
M  V30 1215 O 123.687 -0.745541 2.15995 0
M  V30 1216 C 123.897 2.82175 2.05374 0
M  V30 1217 C 125.245 3.33033 2.6339 0
M  V30 1218 O 126.269 2.83531 2.15612 0
M  V30 1219 O 125.128 4.19336 3.50456 0
M  V30 1220 H 122.222 0.611183 0.557122 0
M  V30 1221 H 124.768 1.62847 0.477381 0
M  V30 1222 H 123.54 3.64797 1.41558 0
M  V30 1223 H 123.163 2.74675 2.87471 0
M  V30 1224 N 124.16 -0.719506 1.40217 0
M  V30 1225 C 125.406 -1.48034 1.39491 0
M  V30 1226 C 125.761 -1.92399 -0.00443536 0
M  V30 1227 O 125.054 -1.64993 -0.974061 0
M  V30 1228 C 125.248 -2.72271 2.31524 0
M  V30 1229 C 125.077 -2.40055 3.80268 0
M  V30 1230 C 123.847 -2.31588 4.49105 0
M  V30 1231 C 126.045 -2.04581 4.71859 0
M  V30 1232 N 124.027 -1.92006 5.83101 0
M  V30 1233 C 125.398 -1.75568 5.94623 0
M  V30 1234 C 127.453 -1.91183 4.59732 0
M  V30 1235 C 126.156 -1.34505 7.06612 0
M  V30 1236 C 128.182 -1.51524 5.71659 0
M  V30 1237 C 127.544 -1.23406 6.93506 0
M  V30 1238 H 123.643 -0.539927 0.565688 0
M  V30 1239 H 126.227 -0.834764 1.75897 0
M  V30 1240 H 124.398 -3.34584 1.97251 0
M  V30 1241 H 126.13 -3.38584 2.21682 0
M  V30 1242 H 122.885 -2.49199 4.02737 0
M  V30 1243 H 123.309 -1.74764 6.54054 0
M  V30 1244 H 127.951 -2.11584 3.66049 0
M  V30 1245 H 125.669 -1.12846 8.00182 0
M  V30 1246 H 129.255 -1.41741 5.6427 0
M  V30 1247 H 128.135 -0.931788 7.78645 0
M  V30 1248 N 125.638 -1.25649 -0.95132 0
M  V30 1249 C 126.884 -1.10757 -1.69884 0
M  V30 1250 C 127.217 0.350061 -1.91019 0
M  V30 1251 O 126.492 1.25783 -1.48354 0
M  V30 1252 C 126.775 -1.86606 -3.07978 0
M  V30 1253 C 126.628 -3.40217 -2.94232 0
M  V30 1254 C 127.947 -1.65182 -4.07925 0
M  V30 1255 H 125.066 -0.40374 -0.616574 0
M  V30 1256 H 127.708 -1.54521 -1.10558 0
M  V30 1257 H 125.858 -1.49409 -3.58621 0
M  V30 1258 H 127.53 -3.87108 -2.50889 0
M  V30 1259 H 125.773 -3.67759 -2.30078 0
M  V30 1260 H 126.444 -3.88505 -3.92133 0
M  V30 1261 H 128.92 -1.9757 -3.66204 0
M  V30 1262 H 127.796 -2.20683 -5.02583 0
M  V30 1263 H 128.057 -0.593933 -4.38092 0
M  V30 1264 N 127.117 1.15442 -1.07289 0
M  V30 1265 C 128.366 1.85557 -0.790669 0
M  V30 1266 C 128.679 1.83186 0.685739 0
M  V30 1267 O 129.885 2.48977 1.0827 0
M  V30 1268 C 128.341 3.33038 -1.36433 0
M  V30 1269 C 127.949 3.43856 -2.8717 0
M  V30 1270 C 129.693 4.0834 -1.1601 0
M  V30 1271 C 127.6 4.85482 -3.3773 0
M  V30 1272 H 126.53 0.695122 -0.292098 0
M  V30 1273 H 129.181 1.30219 -1.29287 0
M  V30 1274 H 127.563 3.88043 -0.789864 0
M  V30 1275 H 128.737 2.98961 -3.50655 0
M  V30 1276 H 127.052 2.81998 -3.06376 0
M  V30 1277 H 129.649 5.12859 -1.51262 0
M  V30 1278 H 129.992 4.16182 -0.0991007 0
M  V30 1279 H 130.525 3.59603 -1.70089 0
M  V30 1280 H 127.264 4.82823 -4.43353 0
M  V30 1281 H 126.784 5.30961 -2.78999 0
M  V30 1282 H 128.463 5.54335 -3.33648 0
M  V30 1283 N 128.595 0.856903 1.32268 0
M  V30 1284 C 129.825 0.47475 2.01071 0
M  V30 1285 C 130.233 -0.933746 1.64553 0
M  V30 1286 O 129.576 -1.62114 0.863989 0
M  V30 1287 C 129.638 0.536746 3.55471 0
M  V30 1288 C 129.302 1.90453 4.15423 0
M  V30 1289 C 130.299 2.87029 4.33486 0
M  V30 1290 C 127.984 2.20229 4.51447 0
M  V30 1291 C 129.978 4.11532 4.86744 0
M  V30 1292 C 127.665 3.44984 5.0441 0
M  V30 1293 C 128.663 4.40452 5.22007 0
M  V30 1294 O 128.351 5.62998 5.73837 0
M  V30 1295 H 128.083 0.184778 0.650256 0
M  V30 1296 H 130.637 1.15615 1.69771 0
M  V30 1297 H 128.867 -0.20152 3.86175 0
M  V30 1298 H 130.556 0.169875 4.05544 0
M  V30 1299 H 131.322 2.6533 4.05986 0
M  V30 1300 H 127.201 1.46705 4.37034 0
M  V30 1301 H 130.745 4.86056 5.00395 0
M  V30 1302 H 126.642 3.66532 5.31342 0
M  V30 1303 H 127.41 5.64987 5.92226 0
M  V30 1304 N 130.073 -1.45103 0.615059 0
M  V30 1305 C 131.32 -2.02183 0.113179 0
M  V30 1306 C 131.648 -1.48249 -1.25906 0
M  V30 1307 O 130.903 -0.650265 -1.84581 0
M  V30 1308 C 131.202 -3.57386 0.0318797 0
M  V30 1309 C 130.868 -4.30505 1.34077 0
M  V30 1310 C 129.53 -4.50197 1.69929 0
M  V30 1311 C 131.882 -4.72238 2.20546 0
M  V30 1312 C 129.21 -5.08881 2.91988 0
M  V30 1313 C 131.562 -5.32272 3.41861 0
M  V30 1314 C 130.226 -5.50187 3.77956 0
M  V30 1315 H 129.496 -0.739842 0.0414151 0
M  V30 1316 H 132.143 -1.74073 0.798168 0
M  V30 1317 H 130.448 -3.84817 -0.736409 0
M  V30 1318 H 132.145 -3.99264 -0.372712 0
M  V30 1319 H 128.735 -4.15496 1.05173 0
M  V30 1320 H 132.919 -4.56751 1.94146 0
M  V30 1321 H 128.175 -5.20939 3.2005 0
M  V30 1322 H 132.349 -5.63563 4.09109 0
M  V30 1323 H 129.976 -5.95427 4.72622 0
M  V30 1324 N 131.551 -0.354651 -1.53558 0
M  V30 1325 C 132.501 0.513179 -2.2215 0
M  V30 1326 C 133.485 1.05734 -1.21281 0
M  V30 1327 O 134.677 0.989202 -1.46778 0
M  V30 1328 C 131.806 1.65798 -3.00609 0
M  V30 1329 C 130.892 1.12722 -4.08845 0
M  V30 1330 N 131.283 0.318563 -5.04796 0
M  V30 1331 C 129.581 1.40307 -4.23356 0
M  V30 1332 C 130.282 0.0292224 -5.81693 0
M  V30 1333 N 129.258 0.623891 -5.40008 0
M  V30 1334 H 133.06 -0.111586 -2.93688 0
M  V30 1335 H 130.574 -0.162091 -1.61589 0
M  V30 1336 H 132.571 2.29176 -3.48258 0
M  V30 1337 H 131.231 2.28591 -2.306 0
M  V30 1338 H 132.242 -0.0413091 -5.17884 0
M  V30 1339 H 128.919 2.03458 -3.6457 0
M  V30 1340 H 130.309 -0.623808 -6.68998 0
M  V30 1341 N 133.029 1.57378 -0.0835403 0
M  V30 1342 C 134.254 1.98682 0.594987 0
M  V30 1343 C 134.679 0.961969 1.61641 0
M  V30 1344 O 134.037 -0.0709989 1.81161 0
M  V30 1345 C 134.085 3.38988 1.2296 0
M  V30 1346 O 133.189 3.39208 2.34546 0
M  V30 1347 H 132.53 0.646368 0.152002 0
M  V30 1348 H 135.06 2.03961 -0.161533 0
M  V30 1349 H 135.07 3.76431 1.57366 0
M  V30 1350 H 133.745 4.13107 0.481228 0
M  V30 1351 H 132.322 3.13548 2.01846 0
M  V30 1352 N 134.507 -0.190092 1.56449 0
M  V30 1353 C 135.918 -0.754312 1.70784 0
M  V30 1354 C 136.269 -1.83631 0.690951 0
M  V30 1355 O 135.394 -2.15868 -0.151604 0
M  V30 1356 C 135.989 -1.37503 3.09642 0
M  V30 1357 C 134.548 -1.88628 3.25725 0
M  V30 1358 C 133.695 -0.758098 2.66736 0
M  V30 1359 H 136.646 0.0350524 1.58661 0
M  V30 1360 H 136.667 -2.2445 3.0725 0
M  V30 1361 H 136.179 -0.587302 3.83631 0
M  V30 1362 H 134.28 -2.70103 2.56661 0
M  V30 1363 H 134.393 -2.04462 4.3328 0
M  V30 1364 H 132.757 -1.17369 2.26046 0
M  V30 1365 H 133.54 0.0174705 3.43296 0
M  V30 1366 N 135.985 -1.50799 -0.457987 0
M  V30 1367 C 137.401 -1.38515 -0.792819 0
M  V30 1368 C 137.601 -0.451409 -1.96379 0
M  V30 1369 O 136.657 0.10112 -2.52297 0
M  V30 1370 C 137.97 -2.80149 -1.09258 0
M  V30 1371 C 139.518 -2.89156 -1.19825 0
M  V30 1372 C 139.993 -4.31651 -1.53106 0
M  V30 1373 N 141.484 -4.34662 -1.60072 0
M  V30 1374 C 142.219 -5.41928 -1.87354 0
M  V30 1375 N 141.715 -6.59384 -2.12568 0
M  V30 1376 N 143.508 -5.29385 -1.88965 0
M  V30 1377 H 135.659 -2.10073 0.313511 0
M  V30 1378 H 137.922 -0.944803 0.0777862 0
M  V30 1379 H 137.628 -3.50374 -0.305084 0
M  V30 1380 H 137.502 -3.18204 -2.02549 0
M  V30 1381 H 139.889 -2.19141 -1.97639 0
M  V30 1382 H 139.97 -2.54626 -0.244821 0
M  V30 1383 H 139.614 -5.02208 -0.758266 0
M  V30 1384 H 139.544 -4.63678 -2.49621 0
M  V30 1385 H 142.035 -3.49973 -1.42573 0
M  V30 1386 H 142.348 -7.36934 -2.32696 0
M  V30 1387 H 140.693 -6.62535 -2.09933 0
M  V30 1388 H 143.884 -4.36616 -1.68772 0
M  V30 1389 H 144.057 -6.13066 -2.09891 0
M  V30 1390 N 137.463 0.71206 -1.40597 0
M  V30 1391 C 138.395 1.83704 -1.37061 0
M  V30 1392 C 139.408 1.60453 -0.275426 0
M  V30 1393 O 140.597 1.70262 -0.53602 0
M  V30 1394 C 137.697 3.20172 -1.11099 0
M  V30 1395 C 136.87 3.7059 -2.3234 0
M  V30 1396 C 135.929 4.85681 -2.02485 0
M  V30 1397 O 134.955 4.9815 -2.75382 0
M  V30 1398 N 136.157 5.71735 -1.00497 0
M  V30 1399 H 138.922 1.87235 -2.34016 0
M  V30 1400 H 136.483 0.893739 -1.34996 0
M  V30 1401 H 138.475 3.94768 -0.891064 0
M  V30 1402 H 137.045 3.11767 -0.227989 0
M  V30 1403 H 136.265 2.87085 -2.7014 0
M  V30 1404 H 137.553 4.01011 -3.13157 0
M  V30 1405 H 136.951 5.64275 -0.401298 0
M  V30 1406 H 135.508 6.463 -0.844942 0
M  V30 1407 N 138.941 1.26152 0.944643 0
M  V30 1408 C 140.169 1.14259 1.72489 0
M  V30 1409 C 140.584 -0.302555 1.8636 0
M  V30 1410 O 139.941 -1.20741 1.36849 0
M  V30 1411 C 139.992 1.80266 3.13347 0
M  V30 1412 O 139.713 3.19133 3.00143 0
M  V30 1413 C 141.214 1.74283 4.07603 0
M  V30 1414 H 138.434 0.398051 0.540181 0
M  V30 1415 H 140.978 1.66706 1.18446 0
M  V30 1416 H 139.133 1.31766 3.64303 0
M  V30 1417 H 139.547 3.51744 3.89071 0
M  V30 1418 H 141.021 2.25111 5.04013 0
M  V30 1419 H 141.498 0.708631 4.33446 0
M  V30 1420 H 142.104 2.22319 3.62567 0
M  V30 1421 N 140.419 -1.14872 1.07899 0
M  V30 1422 C 141.349 -2.2193 0.725887 0
M  V30 1423 C 142.33 -1.67622 -0.28927 0
M  V30 1424 O 143.515 -1.93533 -0.160787 0
M  V30 1425 C 140.645 -3.47061 0.128856 0
M  V30 1426 C 139.599 -4.14363 1.07178 0
M  V30 1427 C 138.925 -5.33636 0.337229 0
M  V30 1428 C 140.225 -4.63492 2.40775 0
M  V30 1429 H 141.919 -2.51724 1.62097 0
M  V30 1430 H 139.465 -1.20991 0.780838 0
M  V30 1431 H 141.418 -4.21199 -0.130147 0
M  V30 1432 H 140.142 -3.16617 -0.80134 0
M  V30 1433 H 138.801 -3.42173 1.3158 0
M  V30 1434 H 138.449 -4.99449 -0.596606 0
M  V30 1435 H 138.149 -5.79609 0.965788 0
M  V30 1436 H 139.673 -6.10539 0.0861567 0
M  V30 1437 H 141.087 -5.2913 2.20669 0
M  V30 1438 H 139.484 -5.20148 2.99276 0
M  V30 1439 H 140.554 -3.78834 3.02676 0
M  V30 1440 N 141.898 -0.863906 -1.31812 0
M  V30 1441 C 143.314 -0.555004 -1.49639 0
M  V30 1442 C 143.514 0.912266 -1.79666 0
M  V30 1443 O 142.57 1.69479 -1.87171 0
M  V30 1444 C 143.883 -1.44998 -2.63431 0
M  V30 1445 C 145.431 -1.45138 -2.77316 0
M  V30 1446 C 145.906 -2.33179 -3.94197 0
M  V30 1447 N 147.397 -2.31025 -4.01474 0
M  V30 1448 C 148.132 -2.95871 -4.9117 0
M  V30 1449 N 147.628 -3.69863 -5.8581 0
M  V30 1450 N 149.421 -2.85211 -4.84367 0
M  V30 1451 H 141.572 -1.81339 -1.10589 0
M  V30 1452 H 143.835 -0.77505 -0.545895 0
M  V30 1453 H 143.541 -2.49377 -2.48 0
M  V30 1454 H 143.415 -1.14409 -3.59431 0
M  V30 1455 H 145.802 -0.415201 -2.92164 0
M  V30 1456 H 145.883 -1.79747 -1.82001 0
M  V30 1457 H 145.527 -3.3687 -3.80107 0
M  V30 1458 H 145.457 -1.95897 -4.88807 0
M  V30 1459 H 147.948 -1.77238 -3.33759 0
M  V30 1460 H 148.261 -4.16486 -6.50968 0
M  V30 1461 H 146.606 -3.73971 -5.85808 0
M  V30 1462 H 149.797 -2.26948 -4.09405 0
M  V30 1463 H 149.97 -3.36027 -5.54066 0
M  V30 1464 N 143.376 1.44774 -0.622745 0
M  V30 1465 C 144.622 2.0242 -0.124083 0
M  V30 1466 C 144.955 1.4881 1.24777 0
M  V30 1467 O 144.23 0.668799 1.8264 0
M  V30 1468 C 144.513 3.59957 -0.101619 0
M  V30 1469 C 144.366 4.23867 -1.50521 0
M  V30 1470 C 145.685 4.36284 0.578272 0
M  V30 1471 H 142.804 0.735528 -0.0465645 0
M  V30 1472 H 145.446 1.72447 -0.797617 0
M  V30 1473 H 143.596 3.85623 0.471934 0
M  V30 1474 H 145.268 4.09336 -2.12701 0
M  V30 1475 H 143.511 3.81684 -2.06154 0
M  V30 1476 H 144.182 5.32843 -1.4416 0
M  V30 1477 H 146.658 4.16001 0.0906057 0
M  V30 1478 H 145.534 5.46004 0.563149 0
M  V30 1479 H 145.795 4.10271 1.64713 0
M  V30 1480 N 144.854 0.36279 1.53368 0
M  V30 1481 C 146.131 -0.284021 1.93527 0
M  V30 1482 C 146.511 -1.66628 1.29608 0
M  V30 1483 O 145.859 -2.23942 0.45413 0
M  V30 1484 C 146.069 -0.337028 3.47369 0
M  V30 1485 C 147.417 -0.578708 4.20638 0
M  V30 1486 O 148.441 -0.418352 3.53735 0
M  V30 1487 O 147.3 -0.89074 5.39192 0
M  V30 1488 H 144.394 -0.169743 0.809393 0
M  V30 1489 H 146.94 0.41537 1.64538 0
M  V30 1490 H 145.712 0.632217 3.86159 0
M  V30 1491 H 145.335 -1.08243 3.82582 0
M  V30 1492 N 146.332 -1.57332 0.0918853 0
M  V30 1493 C 147.28 -2.15075 -0.885747 0
M  V30 1494 C 148.274 -1.09277 -1.29441 0
M  V30 1495 O 149.48 -1.27627 -1.26931 0
M  V30 1496 H 145.855 -0.687966 -0.303656 0
M  V30 1497 H 147.826 -2.96047 -0.373995 0
M  V30 1498 C 146.575 -2.74325 -2.13638 0
M  V30 1499 H 145.898 -3.55418 -1.8308 0
M  V30 1500 H 147.338 -3.183 -2.80109 0
M  V30 1501 C 145.797 -1.70062 -2.90827 0
M  V30 1502 O 146.327 -1.13763 -3.85254 0
M  V30 1503 N 144.533 -1.40628 -2.54307 0
M  V30 1504 H 144.08 -1.866 -1.7759 0
M  V30 1505 H 144.038 -0.711043 -3.06254 0
M  V30 1506 N 147.81 0.181792 -1.56548 0
M  V30 1507 C 149.087 0.926765 -1.72251 0
M  V30 1508 C 149.467 2.00831 -0.650386 0
M  V30 1509 O 148.815 2.26008 0.336521 0
M  V30 1510 C 149.025 1.50106 -3.1507 0
M  V30 1511 C 150.373 1.97805 -3.75711 0
M  V30 1512 O 151.397 1.59922 -3.18282 0
M  V30 1513 O 150.256 2.67555 -4.76525 0
M  V30 1514 H 147.35 0.435506 -0.703039 0
M  V30 1515 H 149.896 0.170443 -1.68842 0
M  V30 1516 H 148.668 0.72212 -3.84579 0
M  V30 1517 H 148.291 2.32186 -3.22763 0
M  V30 1518 N 149.288 1.51039 0.449983 0
M  V30 1519 C 150.22 1.67617 1.56324 0
M  V30 1520 C 151.233 0.557083 1.52972 0
M  V30 1521 O 152.422 0.830989 1.57977 0
M  V30 1522 C 149.522 1.66402 2.95235 0
M  V30 1523 C 148.695 2.9469 3.23229 0
M  V30 1524 C 147.754 2.85832 4.41799 0
M  V30 1525 O 146.78 3.59785 4.41071 0
M  V30 1526 N 147.982 2.00821 5.44657 0
M  V30 1527 H 150.747 2.63648 1.42512 0
M  V30 1528 H 148.308 1.48767 0.638737 0
M  V30 1529 H 150.3 1.58062 3.72557 0
M  V30 1530 H 148.87 0.780182 3.02708 0
M  V30 1531 H 148.09 3.16996 2.34323 0
M  V30 1532 H 149.378 3.79636 3.38754 0
M  V30 1533 H 148.776 1.40091 5.48079 0
M  V30 1534 H 147.333 1.98368 6.20881 0
M  V30 1535 N 150.766 -0.704594 1.40972 0
M  V30 1536 C 152.013 -1.46458 1.39844 0
M  V30 1537 C 152.341 -1.94499 0.00447594 0
M  V30 1538 O 151.596 -1.69275 -0.982057 0
M  V30 1539 C 151.895 -2.698 2.34399 0
M  V30 1540 C 151.561 -2.40464 3.81429 0
M  V30 1541 C 150.223 -2.32174 4.21484 0
M  V30 1542 C 152.575 -2.16086 4.74296 0
M  V30 1543 C 149.903 -1.97589 5.52427 0
M  V30 1544 C 152.255 -1.83011 6.05549 0
M  V30 1545 C 150.919 -1.7321 6.44635 0
M  V30 1546 H 150.189 -0.535927 0.511725 0
M  V30 1547 H 152.836 -0.806124 1.73706 0
M  V30 1548 H 151.141 -3.40536 1.93759 0
M  V30 1549 H 152.838 -3.27919 2.30804 0
M  V30 1550 H 149.428 -2.47808 3.49699 0
M  V30 1551 H 153.612 -2.2144 4.4416 0
M  V30 1552 H 148.868 -1.88547 5.81601 0
M  V30 1553 H 153.042 -1.63164 6.77016 0
M  V30 1554 H 150.669 -1.46179 7.46013 0
M  V30 1555 N 152.244 -1.26651 -0.937939 0
M  V30 1556 C 153.191 -1.0849 -2.03712 0
M  V30 1557 C 154.161 0.011033 -1.66096 0
M  V30 1558 O 155.346 -0.149353 -1.90215 0
M  V30 1559 C 152.486 -0.72735 -3.37348 0
M  V30 1560 C 151.599 -1.89986 -3.87981 0
M  V30 1561 C 150.734 -1.48513 -5.10017 0
M  V30 1562 C 149.773 -2.62575 -5.5292 0
M  V30 1563 N 148.91 -2.21762 -6.66158 0
M  V30 1564 H 153.75 -2.02551 -2.18579 0
M  V30 1565 H 151.287 -1.00844 -1.07093 0
M  V30 1566 H 153.245 -0.50092 -4.14182 0
M  V30 1567 H 151.875 0.176298 -3.22318 0
M  V30 1568 H 150.927 -2.23913 -3.07518 0
M  V30 1569 H 152.239 -2.75586 -4.15757 0
M  V30 1570 H 151.393 -1.21934 -5.94321 0
M  V30 1571 H 150.132 -0.60009 -4.83994 0
M  V30 1572 H 149.137 -2.8988 -4.67172 0
M  V30 1573 H 150.362 -3.51685 -5.80943 0
M  V30 1574 H 148.308 -1.35696 -6.41812 0
M  V30 1575 H 148.225 -3.00903 -6.93537 0
M  V30 1576 H 149.493 -1.98403 -7.53828 0
M  V30 1577 N 153.722 1.14298 -1.08507 0
M  V30 1578 C 154.971 1.84708 -0.810305 0
M  V30 1579 C 155.284 1.83903 0.666271 0
M  V30 1580 O 156.49 2.50112 1.05624 0
M  V30 1581 C 154.946 3.31572 -1.39957 0
M  V30 1582 C 154.554 3.40791 -2.90801 0
M  V30 1583 C 156.298 4.07087 -1.20334 0
M  V30 1584 C 154.205 4.81872 -3.4286 0
M  V30 1585 H 153.135 0.691985 -0.299454 0
M  V30 1586 H 155.786 1.28841 -1.30661 0
M  V30 1587 H 154.168 3.87183 -0.830976 0
M  V30 1588 H 155.342 2.95225 -3.53806 0
M  V30 1589 H 153.657 2.78732 -3.0935 0
M  V30 1590 H 156.254 5.11225 -1.56693 0
M  V30 1591 H 156.597 4.16054 -0.143237 0
M  V30 1592 H 157.13 3.57779 -1.73893 0
M  V30 1593 H 153.869 4.78094 -4.48449 0
M  V30 1594 H 153.389 5.27972 -2.84615 0
M  V30 1595 H 155.068 5.50765 -3.39509 0
M  V30 1596 N 155.201 0.870884 1.31352 0
M  V30 1597 C 156.164 0.332243 2.26779 0
M  V30 1598 C 157.164 -0.517302 1.52252 0
M  V30 1599 O 158.354 -0.326477 1.71113 0
M  V30 1600 C 155.486 -0.528066 3.36785 0
M  V30 1601 H 156.679 1.17469 2.75937 0
M  V30 1602 H 154.232 0.64655 1.423 0
M  V30 1603 H 154.967 -1.39167 2.92922 0
M  V30 1604 H 154.752 0.0802582 3.92018 0
M  V30 1605 H 156.242 -0.897179 4.07849 0
M  V30 1606 N 156.679 -1.44442 0.630414 0
M  V30 1607 C 157.629 -2.27794 -0.0968103 0
M  V30 1608 C 158.613 -1.38624 -0.816834 0
M  V30 1609 O 159.805 -1.62438 -0.70306 0
M  V30 1610 C 156.934 -3.25929 -1.07819 0
M  V30 1611 C 156.02 -4.22588 -0.357826 0
M  V30 1612 N 156.411 -5.0207 0.613169 0
M  V30 1613 C 154.709 -4.41914 -0.602365 0
M  V30 1614 C 155.41 -5.72351 1.03871 0
M  V30 1615 N 154.386 -5.42287 0.377642 0
M  V30 1616 H 158.188 -2.86653 0.648621 0
M  V30 1617 H 155.702 -1.55871 0.455862 0
M  V30 1618 H 157.699 -3.84399 -1.61378 0
M  V30 1619 H 156.359 -2.68631 -1.82393 0
M  V30 1620 H 157.37 -5.08331 0.990947 0
M  V30 1621 H 154.047 -3.95714 -1.33103 0
M  V30 1622 H 155.437 -6.4619 1.84086 0
M  V30 1623 N 158.157 -0.370918 -1.53173 0
M  V30 1624 C 159.087 0.464847 -2.28826 0
M  V30 1625 C 160.068 1.07936 -1.31468 0
M  V30 1626 O 161.253 1.0956 -1.60344 0
M  V30 1627 C 158.383 1.60196 -3.08147 0
M  V30 1628 C 157.337 1.11443 -4.13237 0
M  V30 1629 C 156.663 2.3422 -4.80672 0
M  V30 1630 C 157.963 0.195384 -5.21934 0
M  V30 1631 H 159.657 -0.166329 -2.98938 0
M  V30 1632 H 157.203 -0.0814359 -1.4377 0
M  V30 1633 H 159.156 2.19332 -3.59822 0
M  V30 1634 H 157.88 2.26045 -2.35735 0
M  V30 1635 H 156.539 0.545727 -3.62515 0
M  V30 1636 H 156.187 2.98537 -4.04827 0
M  V30 1637 H 155.887 2.02269 -5.51689 0
M  V30 1638 H 157.411 2.94032 -5.35143 0
M  V30 1639 H 158.825 0.694375 -5.69079 0
M  V30 1640 H 157.222 -0.0335027 -6.00091 0
M  V30 1641 H 158.292 -0.760961 -4.78892 0
M  V30 1642 N 159.635 1.57281 -0.100228 0
M  V30 1643 C 160.863 1.98879 0.570509 0
M  V30 1644 C 161.278 0.979476 1.61405 0
M  V30 1645 O 160.635 -0.0302288 1.82475 0
M  V30 1646 C 160.686 3.4052 1.2136 0
M  V30 1647 O 160.407 4.37588 0.211786 0
M  V30 1648 C 161.908 3.97149 1.96945 0
M  V30 1649 H 159.128 0.653428 0.152555 0
M  V30 1650 H 161.672 2.03697 -0.18103 0
M  V30 1651 H 159.827 3.367 1.91603 0
M  V30 1652 H 160.241 5.20118 0.676607 0
M  V30 1653 H 161.715 4.98393 2.37294 0
M  V30 1654 H 162.192 3.3525 2.83733 0
M  V30 1655 H 162.798 4.04458 1.31506 0
M  V30 1656 N 161.113 -0.173488 1.56642 0
M  V30 1657 C 162.361 -0.888706 1.81512 0
M  V30 1658 C 162.682 -1.82875 0.676872 0
M  V30 1659 O 161.952 -1.93536 -0.303414 0
M  V30 1660 H 160.532 -0.331164 0.669582 0
M  V30 1661 H 163.194 -0.173823 1.94123 0
M  V30 1662 H 162.29 -1.46691 2.75478 0
M  V30 1663 N 162.591 -1.51276 -0.441967 0
M  V30 1664 C 163.868 -1.54252 -1.20273 0
M  V30 1665 C 164.248 -0.30408 -2.08898 0
M  V30 1666 O 163.596 0.711084 -2.17154 0
M  V30 1667 C 163.806 -2.85406 -2.00859 0
M  V30 1668 C 165.154 -3.37181 -2.58059 0
M  V30 1669 O 166.178 -2.86925 -2.11074 0
M  V30 1670 O 165.037 -4.24858 -3.43741 0
M  V30 1671 H 162.131 -0.619969 -0.547328 0
M  V30 1672 H 164.677 -1.63586 -0.451413 0
M  V30 1673 H 163.449 -3.67003 -1.35736 0
M  V30 1674 H 163.072 -2.79213 -2.83065 0
M  V30 1675 N 164.069 0.697108 -1.41344 0
M  V30 1676 C 164.999 1.82353 -1.45841 0
M  V30 1677 C 165.98 1.67115 -0.317247 0
M  V30 1678 O 167.165 1.86871 -0.528474 0
M  V30 1679 C 164.295 3.20476 -1.33838 0
M  V30 1680 C 163.249 3.50415 -2.4575 0
M  V30 1681 C 162.575 4.87878 -2.18813 0
M  V30 1682 C 163.875 3.49546 -3.88091 0
M  V30 1683 H 165.569 1.78846 -2.40113 0
M  V30 1684 H 163.115 0.859028 -1.15571 0
M  V30 1685 H 165.068 3.98988 -1.35596 0
M  V30 1686 H 163.792 3.24604 -0.360498 0
M  V30 1687 H 162.451 2.74253 -2.43271 0
M  V30 1688 H 162.099 4.8863 -1.19371 0
M  V30 1689 H 161.799 5.08875 -2.93803 0
M  V30 1690 H 163.323 5.68702 -2.22284 0
M  V30 1691 H 164.737 4.18066 -3.92293 0
M  V30 1692 H 163.134 3.82075 -4.62751 0
M  V30 1693 H 164.204 2.48552 -4.16353 0
M  V30 1694 N 165.547 1.27147 0.931209 0
M  V30 1695 C 166.777 1.15914 1.71019 0
M  V30 1696 C 167.185 -0.287112 1.87009 0
M  V30 1697 O 166.528 -1.20761 1.38429 0
M  V30 1698 C 166.59 1.76647 3.13107 0
M  V30 1699 C 166.254 3.25807 3.20467 0
M  V30 1700 C 167.251 4.22489 3.02983 0
M  V30 1701 C 164.936 3.66452 3.43538 0
M  V30 1702 C 166.93 5.57794 3.08454 0
M  V30 1703 C 164.617 5.01888 3.48643 0
M  V30 1704 C 165.615 5.97369 3.31119 0
M  V30 1705 O 165.303 7.30337 3.35952 0
M  V30 1706 H 165.035 0.404062 0.54195 0
M  V30 1707 H 167.589 1.68457 1.17521 0
M  V30 1708 H 165.819 1.18578 3.68071 0
M  V30 1709 H 167.508 1.60179 3.72958 0
M  V30 1710 H 168.274 3.92425 2.85004 0
M  V30 1711 H 164.153 2.92611 3.5623 0
M  V30 1712 H 167.697 6.32298 2.94694 0
M  V30 1713 H 163.594 5.31609 3.66145 0
M  V30 1714 H 164.362 7.38739 3.5243 0
M  V30 1715 N 167.025 -1.13721 1.09112 0
M  V30 1716 C 167.972 -2.19031 0.727591 0
M  V30 1717 C 168.942 -1.63555 -0.289656 0
M  V30 1718 O 170.127 -1.90023 -0.172026 0
M  V30 1719 C 167.267 -3.4477 0.15082 0
M  V30 1720 C 166.38 -4.14365 1.22172 0
M  V30 1721 C 165.515 -5.27709 0.608042 0
M  V30 1722 C 164.554 -5.89147 1.66047 0
M  V30 1723 N 163.691 -6.93929 1.06806 0
M  V30 1724 H 168.531 -2.49475 1.62991 0
M  V30 1725 H 166.068 -1.22499 0.81439 0
M  V30 1726 H 168.026 -4.16714 -0.201358 0
M  V30 1727 H 166.656 -3.14787 -0.714783 0
M  V30 1728 H 165.708 -3.40737 1.69122 0
M  V30 1729 H 167.02 -4.56114 2.01895 0
M  V30 1730 H 166.174 -6.06355 0.204523 0
M  V30 1731 H 164.913 -4.872 -0.220769 0
M  V30 1732 H 163.918 -5.09198 2.07357 0
M  V30 1733 H 165.143 -6.31729 2.49189 0
M  V30 1734 H 163.089 -6.55483 0.260476 0
M  V30 1735 H 163.006 -7.34202 1.8023 0
M  V30 1736 H 164.274 -7.76434 0.690644 0
M  V30 1737 N 168.503 -0.877838 -1.30888 0
M  V30 1738 C 169.433 -0.35534 -2.3078 0
M  V30 1739 C 170.414 0.557994 -1.60687 0
M  V30 1740 O 171.599 0.473355 -1.88343 0
M  V30 1741 C 168.729 0.437221 -3.44537 0
M  V30 1742 C 167.683 -0.383715 -4.26276 0
M  V30 1743 C 167.009 0.535014 -5.32017 0
M  V30 1744 C 168.309 -1.62201 -4.96476 0
M  V30 1745 H 170.003 -1.19007 -2.74732 0
M  V30 1746 H 167.549 -0.573698 -1.32078 0
M  V30 1747 H 169.502 0.813334 -4.13477 0
M  V30 1748 H 168.226 1.30553 -2.99372 0
M  V30 1749 H 166.885 -0.741874 -3.59015 0
M  V30 1750 H 166.533 1.40083 -4.831 0
M  V30 1751 H 166.233 -0.0104211 -5.87599 0
M  V30 1752 H 167.757 0.907799 -6.03814 0
M  V30 1753 H 169.171 -1.31689 -5.5797 0
M  V30 1754 H 167.568 -2.10711 -5.61891 0
M  V30 1755 H 168.638 -2.37044 -4.23011 0
M  V30 1756 N 169.982 1.44106 -0.638065 0
M  V30 1757 C 170.892 2.34513 0.0637334 0
M  V30 1758 C 171.908 1.53018 0.828346 0
M  V30 1759 O 173.084 1.85723 0.779036 0
M  V30 1760 C 170.149 3.31095 1.02844 0
M  V30 1761 C 169.21 4.28497 0.26244 0
M  V30 1762 C 168.443 5.20465 1.1812 0
M  V30 1763 O 168.666 5.16514 2.42011 0
M  V30 1764 O 167.6 5.98251 0.661774 0
M  V30 1765 H 171.426 2.95989 -0.68003 0
M  V30 1766 H 169.011 1.43994 -0.398252 0
M  V30 1767 H 170.893 3.90526 1.58327 0
M  V30 1768 H 169.568 2.72144 1.7527 0
M  V30 1769 H 168.475 3.72592 -0.335602 0
M  V30 1770 H 169.808 4.90388 -0.421936 0
M  V30 1771 N 171.46 0.379036 1.52974 0
M  V30 1772 C 172.871 -0.0972525 1.86447 0
M  V30 1773 C 173.222 -1.47027 1.29914 0
M  V30 1774 O 172.347 -2.07135 0.626433 0
M  V30 1775 C 172.942 -0.183248 3.38304 0
M  V30 1776 C 171.501 -0.603812 3.71525 0
M  V30 1777 C 170.648 0.240632 2.76254 0
M  V30 1778 H 173.599 0.597316 1.4703 0
M  V30 1779 H 173.62 -1.00432 3.67006 0
M  V30 1780 H 173.132 0.816191 3.79421 0
M  V30 1781 H 171.233 -1.61099 3.35973 0
M  V30 1782 H 171.346 -0.369086 4.77676 0
M  V30 1783 H 169.71 -0.292548 2.53014 0
M  V30 1784 H 170.493 1.23786 3.20206 0
M  V30 1785 N 172.938 -1.57226 0.108567 0
M  V30 1786 C 174.166 -1.99179 -0.559954 0
M  V30 1787 C 174.581 -0.988022 -1.60884 0
M  V30 1788 O 173.938 0.0205512 -1.82488 0
M  V30 1789 C 173.989 -3.41159 -1.19552 0
M  V30 1790 O 173.71 -4.37694 -0.188577 0
M  V30 1791 C 175.211 -3.98188 -1.94837 0
M  V30 1792 H 172.431 -0.654228 -0.149088 0
M  V30 1793 H 174.975 -2.03598 0.19183 0
M  V30 1794 H 173.13 -3.37711 -1.89815 0
M  V30 1795 H 173.544 -5.20469 -0.649014 0
M  V30 1796 H 175.018 -4.99644 -2.34648 0
M  V30 1797 H 175.495 -3.3675 -2.81951 0
M  V30 1798 H 176.101 -4.0515 -1.2936 0
M  V30 1799 N 174.416 0.165178 -1.56732 0
M  V30 1800 C 175.379 1.18822 -1.95995 0
M  V30 1801 C 176.379 1.3685 -0.84431 0
M  V30 1802 O 177.569 1.34152 -1.11126 0
M  V30 1803 C 174.701 2.5521 -2.26011 0
M  V30 1804 H 175.894 0.851825 -2.87548 0
M  V30 1805 H 173.447 0.407857 -1.50885 0
M  V30 1806 H 174.182 2.93852 -1.37191 0
M  V30 1807 H 173.967 2.43489 -3.07336 0
M  V30 1808 H 175.457 3.28927 -2.57288 0
M  V30 1809 N 175.894 1.51508 0.433938 0
M  V30 1810 C 176.841 1.73068 1.52696 0
M  V30 1811 C 177.811 0.572441 1.55924 0
M  V30 1812 O 178.996 0.807253 1.72882 0
M  V30 1813 C 176.136 1.86474 2.90381 0
M  V30 1814 C 175.249 3.14037 2.96656 0
M  V30 1815 C 174.384 3.18019 4.25485 0
M  V30 1816 C 173.423 4.39882 4.2564 0
M  V30 1817 N 172.56 4.41394 5.45999 0
M  V30 1818 H 177.4 2.66366 1.33615 0
M  V30 1819 H 174.937 1.32008 0.649018 0
M  V30 1820 H 176.895 1.92229 3.70275 0
M  V30 1821 H 175.525 0.965809 3.08013 0
M  V30 1822 H 174.577 3.17575 2.09404 0
M  V30 1823 H 175.889 4.0394 2.92633 0
M  V30 1824 H 175.043 3.22708 5.13755 0
M  V30 1825 H 173.782 2.2601 4.3217 0
M  V30 1826 H 172.787 4.35366 3.35763 0
M  V30 1827 H 174.012 5.33159 4.20617 0
M  V30 1828 H 171.958 3.52258 5.53399 0
M  V30 1829 H 171.875 5.25111 5.4387 0
M  V30 1830 H 173.143 4.50281 6.36292 0
M  V30 1831 N 177.372 -0.689602 1.41712 0
M  V30 1832 C 178.619 -1.44966 1.4139 0
M  V30 1833 C 178.947 -1.94484 0.025105 0
M  V30 1834 O 178.202 -1.70307 -0.964048 0
M  V30 1835 C 178.501 -2.67298 2.37247 0
M  V30 1836 C 178.167 -2.36405 3.83958 0
M  V30 1837 C 176.829 -2.27691 4.23923 0
M  V30 1838 C 179.181 -2.11043 4.76561 0
M  V30 1839 C 176.509 -1.91719 5.54492 0
M  V30 1840 C 178.861 -1.76578 6.07456 0
M  V30 1841 C 177.525 -1.66363 6.46436 0
M  V30 1842 H 176.795 -0.53047 0.517381 0
M  V30 1843 H 179.442 -0.787655 1.74552 0
M  V30 1844 H 177.747 -3.38461 1.9736 0
M  V30 1845 H 179.444 -3.25452 2.34269 0
M  V30 1846 H 176.034 -2.44085 3.52308 0
M  V30 1847 H 180.218 -2.16717 4.46483 0
M  V30 1848 H 175.474 -1.82367 5.83568 0
M  V30 1849 H 179.648 -1.55974 6.78708 0
M  V30 1850 H 177.275 -1.38258 7.47522 0
M  V30 1851 N 178.85 -1.27639 -0.924453 0
M  V30 1852 C 180.075 -1.17101 -1.71179 0
M  V30 1853 C 180.5 0.268134 -1.86179 0
M  V30 1854 O 179.858 1.19415 -1.36418 0
M  V30 1855 C 179.906 -1.86313 -3.08739 0
M  V30 1856 O 179.01 -1.16331 -3.95652 0
M  V30 1857 H 178.351 -0.407091 -0.524569 0
M  V30 1858 H 180.881 -1.68767 -1.15666 0
M  V30 1859 H 180.891 -1.938 -3.59034 0
M  V30 1860 H 179.566 -2.91001 -2.97138 0
M  V30 1861 H 178.143 -1.16935 -3.54091 0
M  V30 1862 N 180.328 1.1314 -1.09713 0
M  V30 1863 C 181.576 1.84119 -0.833338 0
M  V30 1864 C 181.897 1.84097 0.642904 0
M  V30 1865 O 181.167 1.29881 1.46655 0
M  V30 1866 H 179.747 0.681766 -0.305293 0
M  V30 1867 H 182.409 1.37038 -1.38588 0
M  V30 1868 H 181.505 2.88543 -1.18951 0
M  V30 1869 N 181.806 0.884767 1.30421 0
M  V30 1870 C 183.053 0.503105 1.96151 0
M  V30 1871 C 183.381 -0.947676 1.69851 0
M  V30 1872 O 182.636 -1.68467 0.995861 0
M  V30 1873 C 182.935 0.724318 3.49983 0
M  V30 1874 C 182.601 2.15015 3.96332 0
M  V30 1875 C 181.263 2.54005 4.08699 0
M  V30 1876 C 183.615 3.07936 4.20505 0
M  V30 1877 C 180.943 3.85128 4.42599 0
M  V30 1878 C 183.295 4.3859 4.55874 0
M  V30 1879 C 181.959 4.77474 4.66449 0
M  V30 1880 H 181.229 0.184099 0.717766 0
M  V30 1881 H 183.876 1.12058 1.55291 0
M  V30 1882 H 182.181 0.0238086 3.91793 0
M  V30 1883 H 183.878 0.408617 3.98913 0
M  V30 1884 H 180.468 1.8375 3.87213 0
M  V30 1885 H 184.652 2.79033 4.10431 0
M  V30 1886 H 179.908 4.14996 4.48986 0
M  V30 1887 H 184.082 5.10629 4.7353 0
M  V30 1888 H 181.709 5.79115 4.92473 0
M  V30 1889 N 183.284 -1.43765 0.645699 0
M  V30 1890 C 184.695 -1.85193 0.236719 0
M  V30 1891 C 185.046 -1.54045 -1.21509 0
M  V30 1892 O 184.171 -0.985694 -1.92647 0
M  V30 1893 C 184.766 -3.36151 0.422845 0
M  V30 1894 C 183.325 -3.76338 0.0682492 0
M  V30 1895 C 182.472 -2.67538 0.729306 0
M  V30 1896 H 185.423 -1.34025 0.849883 0
M  V30 1897 H 185.444 -3.79032 -0.333904 0
M  V30 1898 H 184.956 -3.5879 1.47958 0
M  V30 1899 H 183.057 -3.59312 -0.986179 0
M  V30 1900 H 183.17 -4.76603 0.488469 0
M  V30 1901 H 181.534 -2.54176 0.163235 0
M  V30 1902 H 182.317 -2.93006 1.78892 0
M  V30 1903 N 184.763 -0.387143 -1.52771 0
M  V30 1904 C 185.726 0.436939 -2.24997 0
M  V30 1905 C 186.726 0.991991 -1.26555 0
M  V30 1906 O 187.916 0.874335 -1.50669 0
M  V30 1907 C 185.048 1.61281 -3.00335 0
M  V30 1908 H 186.241 -0.195365 -2.99263 0
M  V30 1909 H 183.794 -0.139218 -1.55679 0
M  V30 1910 H 184.529 2.2826 -2.30364 0
M  V30 1911 H 184.314 1.22154 -3.72587 0
M  V30 1912 H 185.804 2.19629 -3.5518 0
M  V30 1913 N 186.241 1.57166 -0.116904 0
M  V30 1914 C 187.489 1.94737 0.540533 0
M  V30 1915 C 187.81 1.00096 1.67349 0
M  V30 1916 O 187.08 0.0568854 1.95817 0
M  V30 1917 H 185.66 0.718981 0.202669 0
M  V30 1918 H 188.322 1.94017 -0.185353 0
M  V30 1919 H 187.418 2.97719 0.936483 0
M  V30 1920 N 187.719 -0.156864 1.56817 0
M  V30 1921 C 188.666 -1.19394 1.97519 0
M  V30 1922 C 189.636 -1.4322 0.841265 0
M  V30 1923 O 190.821 -1.55719 1.10255 0
M  V30 1924 C 187.961 -2.52483 2.35258 0
M  V30 1925 C 187.074 -2.35914 3.61896 0
M  V30 1926 C 186.209 -3.61969 3.88782 0
M  V30 1927 C 185.248 -3.40395 5.08722 0
M  V30 1928 N 184.385 -4.58556 5.31668 0
M  V30 1929 H 189.225 -0.839845 2.85921 0
M  V30 1930 H 186.762 -0.403264 1.41464 0
M  V30 1931 H 188.72 -3.30071 2.55165 0
M  V30 1932 H 187.35 -2.85859 1.49949 0
M  V30 1933 H 186.402 -1.49429 3.49821 0
M  V30 1934 H 187.714 -2.15926 4.49641 0
M  V30 1935 H 186.868 -4.47989 4.09135 0
M  V30 1936 H 185.607 -3.84951 2.9944 0
M  V30 1937 H 184.612 -2.52763 4.88253 0
M  V30 1938 H 185.837 -3.18822 5.99608 0
M  V30 1939 H 183.783 -4.81729 4.45279 0
M  V30 1940 H 183.7 -4.41535 6.13664 0
M  V30 1941 H 184.968 -5.45817 5.5651 0
M  V30 1942 N 189.197 -1.51736 -0.425897 0
M  V30 1943 C 190.16 -1.73271 -1.50032 0
M  V30 1944 C 191.16 -0.602639 -1.4908 0
M  V30 1945 O 192.35 -0.87033 -1.509 0
M  V30 1946 C 189.482 -1.79969 -2.89523 0
M  V30 1947 H 190.675 -2.69172 -1.32237 0
M  V30 1948 H 188.228 -1.41899 -0.65532 0
M  V30 1949 H 188.963 -0.859241 -3.1271 0
M  V30 1950 H 188.748 -2.62109 -2.91619 0
M  V30 1951 H 190.238 -1.9843 -3.67444 0
M  V30 1952 N 190.675 0.682077 -1.42076 0
M  V30 1953 C 191.921 1.44428 -1.42367 0
M  V30 1954 C 192.254 1.94164 -0.0373056 0
M  V30 1955 O 191.529 1.70429 0.937239 0
M  V30 1956 C 191.812 2.64654 -2.44194 0
M  V30 1957 C 191.665 2.20596 -3.91991 0
M  V30 1958 C 192.984 3.66865 -2.431 0
M  V30 1959 H 190.103 0.523834 -0.518428 0
M  V30 1960 H 192.745 0.77576 -1.73442 0
M  V30 1961 H 190.895 3.2169 -2.17826 0
M  V30 1962 H 192.567 1.68783 -4.29313 0
M  V30 1963 H 190.81 1.52242 -4.06208 0
M  V30 1964 H 191.481 3.06921 -4.58807 0
M  V30 1965 H 193.957 3.19531 -2.66532 0
M  V30 1966 H 192.833 4.48577 -3.16339 0
M  V30 1967 H 193.094 4.17493 -1.45437 0
M  V30 1968 N 192.153 1.28127 0.917671 0
M  V30 1969 C 193.063 1.13556 2.05286 0
M  V30 1970 C 194.079 0.0630914 1.73886 0
M  V30 1971 O 195.255 0.271598 1.9956 0
M  V30 1972 C 192.32 0.794676 3.3747 0
M  V30 1973 C 191.381 1.94909 3.82504 0
M  V30 1974 C 190.614 1.62437 5.0838 0
M  V30 1975 O 190.837 0.536905 5.67867 0
M  V30 1976 O 189.771 2.46677 5.4903 0
M  V30 1977 H 193.597 2.08844 2.20495 0
M  V30 1978 H 191.182 1.07409 1.03845 0
M  V30 1979 H 193.064 0.618344 4.16839 0
M  V30 1980 H 191.739 -0.128581 3.23445 0
M  V30 1981 H 190.646 2.18055 3.03978 0
M  V30 1982 H 191.979 2.85291 4.01086 0
M  V30 1983 N 193.631 -1.12557 1.10312 0
M  V30 1984 C 194.88 -1.83395 0.839588 0
M  V30 1985 C 195.193 -1.84939 -0.636929 0
M  V30 1986 O 196.399 -2.51761 -1.01631 0
M  V30 1987 C 194.855 -3.29303 1.45215 0
M  V30 1988 C 194.463 -3.36122 2.96186 0
M  V30 1989 C 196.207 -4.05121 1.26796 0
M  V30 1990 C 194.114 -4.76357 3.50483 0
M  V30 1991 H 193.044 -0.687133 0.310425 0
M  V30 1992 H 195.695 -1.26746 1.32694 0
M  V30 1993 H 194.077 -3.85812 0.892469 0
M  V30 1994 H 195.251 -2.89559 3.58458 0
M  V30 1995 H 193.566 -2.73776 3.13745 0
M  V30 1996 H 196.163 -5.08668 1.64806 0
M  V30 1997 H 196.506 -4.15773 0.209409 0
M  V30 1998 H 197.039 -3.54967 1.79563 0
M  V30 1999 H 193.778 -4.70899 4.55998 0
M  V30 2000 H 193.298 -5.23377 2.92978 0
M  V30 2001 H 194.977 -5.45294 3.48228 0
M  V30 2002 N 195.109 -0.891671 -1.2995 0
M  V30 2003 C 196.52 -0.563104 -1.78006 0
M  V30 2004 C 196.871 0.920978 -1.73241 0
M  V30 2005 O 195.996 1.71987 -1.31337 0
M  V30 2006 C 196.591 -1.01539 -3.23226 0
M  V30 2007 C 195.15 -0.738124 -3.69092 0
M  V30 2008 C 194.297 -1.19461 -2.50249 0
M  V30 2009 H 197.248 -1.07522 -1.16725 0
M  V30 2010 H 197.269 -0.347217 -3.78912 0
M  V30 2011 H 196.781 -2.09555 -3.26662 0
M  V30 2012 H 194.882 0.329766 -3.71138 0
M  V30 2013 H 194.995 -1.33037 -4.60259 0
M  V30 2014 H 193.359 -0.613787 -2.47194 0
M  V30 2015 H 194.142 -2.28265 -2.56417 0
M  V30 2016 N 196.587 1.43421 -0.653314 0
M  V30 2017 C 197.833 2.02111 -0.166992 0
M  V30 2018 C 198.166 1.51423 1.21592 0
M  V30 2019 O 197.441 0.707389 1.8118 0
M  V30 2020 C 197.724 3.5966 -0.177948 0
M  V30 2021 C 197.577 4.20579 -1.59478 0
M  V30 2022 C 198.896 4.37413 0.4856 0
M  V30 2023 H 196.015 0.734374 -0.0621557 0
M  V30 2024 H 198.657 1.70717 -0.834016 0
M  V30 2025 H 196.807 3.86537 0.390032 0
M  V30 2026 H 198.479 4.04732 -2.21336 0
M  V30 2027 H 196.722 3.77226 -2.14204 0
M  V30 2028 H 197.393 5.29665 -1.5543 0
M  V30 2029 H 199.869 4.161 0.00234528 0
M  V30 2030 H 198.745 5.47075 0.447207 0
M  V30 2031 H 199.006 4.13672 1.55974 0
M  V30 2032 N 198.065 0.39524 1.52563 0
M  V30 2033 C 199.311 -0.185318 2.01952 0
M  V30 2034 C 199.644 -1.45964 1.28095 0
M  V30 2035 O 198.919 -1.90689 0.38315 0
M  V30 2036 C 199.202 -0.447193 3.57312 0
M  V30 2037 C 199.055 0.842828 4.41833 0
M  V30 2038 C 200.374 -1.23529 4.22408 0
M  V30 2039 H 197.493 -0.0658788 0.73405 0
M  V30 2040 H 200.135 0.525975 1.82575 0
M  V30 2041 H 198.285 -1.05312 3.73954 0
M  V30 2042 H 199.957 1.4795 4.36931 0
M  V30 2043 H 198.2 1.45686 4.08605 0
M  V30 2044 H 198.871 0.614165 5.48573 0
M  V30 2045 H 201.347 -0.722445 4.0978 0
M  V30 2046 H 200.223 -1.38727 5.3108 0
M  V30 2047 H 200.484 -2.25213 3.80436 0
M  V30 2048 N 199.544 -1.57102 0.125237 0
M  V30 2049 C 200.507 -2.14471 -0.80838 0
M  V30 2050 C 201.507 -1.0811 -1.19033 0
M  V30 2051 O 202.697 -1.33856 -1.11482 0
M  V30 2052 C 199.829 -2.69005 -2.09402 0
M  V30 2053 H 201.022 -2.98297 -0.309696 0
M  V30 2054 H 198.575 -1.55807 -0.124051 0
M  V30 2055 H 199.31 -1.88785 -2.63687 0
M  V30 2056 H 199.095 -3.46799 -1.82957 0
M  V30 2057 H 200.585 -3.13278 -2.76128 0
M  V30 2058 N 201.022 0.148545 -1.56898 0
M  V30 2059 C 201.932 1.20293 -2.01412 0
M  V30 2060 C 202.948 1.47107 -0.929273 0
M  V30 2061 O 204.124 1.58807 -1.23863 0
M  V30 2062 C 201.189 2.51682 -2.38447 0
M  V30 2063 C 200.25 2.32529 -3.60872 0
M  V30 2064 C 199.483 3.57653 -3.96132 0
M  V30 2065 O 199.706 4.63771 -3.32073 0
M  V30 2066 O 198.64 3.50408 -4.89385 0
M  V30 2067 H 202.466 0.855025 -2.91416 0
M  V30 2068 H 200.051 0.357151 -1.45068 0
M  V30 2069 H 201.933 3.29147 -2.63135 0
M  V30 2070 H 200.608 2.86006 -1.51599 0
M  V30 2071 H 199.515 1.53019 -3.41373 0
M  V30 2072 H 200.848 2.03121 -4.48333 0
M  V30 2073 N 202.5 1.5196 0.417844 0
M  V30 2074 C 203.73 1.69181 1.18581 0
M  V30 2075 C 204.138 0.397104 1.84986 0
M  V30 2076 O 203.481 -0.636011 1.72339 0
M  V30 2077 C 203.543 2.76497 2.29759 0
M  V30 2078 C 203.207 4.18514 1.83563 0
M  V30 2079 C 204.204 5.02648 1.32821 0
M  V30 2080 C 201.889 4.64708 1.90661 0
M  V30 2081 C 203.883 6.31044 0.897894 0
M  V30 2082 C 201.57 5.93096 1.47241 0
M  V30 2083 C 202.568 6.76093 0.968891 0
M  V30 2084 O 202.256 8.02078 0.540924 0
M  V30 2085 H 201.988 0.570457 0.362705 0
M  V30 2086 H 204.542 1.99249 0.498885 0
M  V30 2087 H 202.772 2.41786 3.01789 0
M  V30 2088 H 204.461 2.82403 2.91553 0
M  V30 2089 H 205.227 4.68154 1.26716 0
M  V30 2090 H 201.106 4.00216 2.28797 0
M  V30 2091 H 204.65 6.95776 0.504192 0
M  V30 2092 H 200.547 6.271 1.53022 0
M  V30 2093 H 201.315 8.15794 0.66502 0
M  V30 2094 N 203.978 -0.674533 1.42435 0
M  V30 2095 C 205.224 -1.43521 1.4413 0
M  V30 2096 C 205.579 -1.92316 0.0567773 0
M  V30 2097 O 204.872 -1.68008 -0.921076 0
M  V30 2098 C 205.066 -2.64767 2.40069 0
M  V30 2099 C 204.895 -2.27836 3.87713 0
M  V30 2100 C 203.665 -2.17183 4.56245 0
M  V30 2101 C 205.863 -1.89466 4.78129 0
M  V30 2102 N 203.845 -1.73358 5.88915 0
M  V30 2103 C 205.216 -1.56561 5.99907 0
M  V30 2104 C 207.271 -1.7646 4.65582 0
M  V30 2105 C 205.974 -1.11957 7.10534 0
M  V30 2106 C 208 -1.3326 5.76191 0
M  V30 2107 C 207.362 -1.0128 6.97081 0
M  V30 2108 H 203.461 -0.521656 0.582579 0
M  V30 2109 H 206.045 -0.778381 1.78464 0
M  V30 2110 H 204.216 -3.28139 2.07796 0
M  V30 2111 H 205.948 -3.3136 2.32342 0
M  V30 2112 H 202.703 -2.3626 4.10461 0
M  V30 2113 H 203.127 -1.53867 6.59283 0
M  V30 2114 H 207.769 -1.99831 3.72595 0
M  V30 2115 H 205.487 -0.873318 8.03367 0
M  V30 2116 H 209.073 -1.23717 5.68494 0
M  V30 2117 H 207.953 -0.683597 7.81215 0
M  V30 2118 N 205.456 -1.28612 -0.910864 0
M  V30 2119 C 206.388 -1.08589 -2.01844 0
M  V30 2120 C 207.401 -0.0367419 -1.62759 0
M  V30 2121 O 208.59 -0.280101 -1.76289 0
M  V30 2122 C 205.69 -0.628626 -3.33019 0
M  V30 2123 C 204.863 -1.75382 -4.00699 0
M  V30 2124 C 203.922 -1.28945 -5.10156 0
M  V30 2125 O 202.948 -1.9922 -5.33198 0
M  V30 2126 N 204.15 -0.154224 -5.80295 0
M  V30 2127 H 206.915 -2.03973 -2.19579 0
M  V30 2128 H 204.476 -1.20403 -1.08234 0
M  V30 2129 H 206.468 -0.301508 -4.03575 0
M  V30 2130 H 205.038 0.232451 -3.11735 0
M  V30 2131 H 204.258 -2.25039 -3.23653 0
M  V30 2132 H 205.546 -2.50854 -4.42662 0
M  V30 2133 H 204.944 0.43194 -5.64049 0
M  V30 2134 H 203.501 0.113599 -6.51701 0
M  V30 2135 N 206.934 1.1197 -1.10907 0
M  V30 2136 C 207.864 2.19928 -0.784473 0
M  V30 2137 C 208.845 1.6833 0.244726 0
M  V30 2138 O 210.03 1.93892 0.109418 0
M  V30 2139 C 207.16 3.46597 -0.220827 0
M  V30 2140 C 206.114 4.11376 -1.18127 0
M  V30 2141 C 205.44 5.32554 -0.478594 0
M  V30 2142 C 206.74 4.56945 -2.52979 0
M  V30 2143 H 208.434 2.47337 -1.68715 0
M  V30 2144 H 205.98 1.18879 -0.812642 0
M  V30 2145 H 207.933 4.21396 0.0184278 0
M  V30 2146 H 206.657 3.1863 0.717113 0
M  V30 2147 H 205.316 3.38564 -1.40606 0
M  V30 2148 H 204.964 5.00856 0.463976 0
M  V30 2149 H 204.664 5.76844 -1.11912 0
M  V30 2150 H 206.188 6.10096 -0.248 0
M  V30 2151 H 207.602 5.23093 -2.3462 0
M  V30 2152 H 205.999 5.1203 -3.12962 0
M  V30 2153 H 207.069 3.70676 -3.12614 0
M  V30 2154 N 208.412 0.89855 1.29475 0
M  V30 2155 C 209.659 0.523882 1.95606 0
M  V30 2156 C 209.987 -0.929608 1.70847 0
M  V30 2157 O 209.242 -1.67401 1.01367 0
M  V30 2158 C 209.541 0.761398 3.49195 0
M  V30 2159 C 209.207 2.19207 3.94029 0
M  V30 2160 C 207.869 2.58326 4.05982 0
M  V30 2161 C 210.221 3.12379 4.17216 0
M  V30 2162 C 207.549 3.898 4.38489 0
M  V30 2163 C 209.901 4.43401 4.51197 0
M  V30 2164 C 208.565 4.82394 4.61359 0
M  V30 2165 H 207.835 0.191702 0.715773 0
M  V30 2166 H 210.482 1.13699 1.54094 0
M  V30 2167 H 208.787 0.0653622 3.91745 0
M  V30 2168 H 210.484 0.450904 3.98457 0
M  V30 2169 H 207.074 1.87846 3.85242 0
M  V30 2170 H 211.258 2.83371 4.07449 0
M  V30 2171 H 206.514 4.19734 4.44559 0
M  V30 2172 H 210.688 5.15623 4.68087 0
M  V30 2173 H 208.315 5.84306 4.86303 0
M  V30 2174 N 209.89 -1.43072 0.660911 0
M  V30 2175 C 211.306 -1.56169 0.329173 0
M  V30 2176 C 211.506 -1.64317 -1.16629 0
M  V30 2177 O 210.562 -1.60245 -1.95135 0
M  V30 2178 C 211.875 -2.81873 1.04729 0
M  V30 2179 C 213.423 -2.95627 1.02828 0
M  V30 2180 C 213.898 -4.24174 1.72744 0
M  V30 2181 N 215.389 -4.31055 1.69545 0
M  V30 2182 C 216.124 -5.29304 2.20511 0
M  V30 2183 N 215.62 -6.33786 2.79799 0
M  V30 2184 N 217.413 -5.21008 2.10966 0
M  V30 2185 H 209.564 -1.36027 1.63127 0
M  V30 2186 H 211.827 -0.653823 0.686454 0
M  V30 2187 H 211.533 -2.81942 2.10242 0
M  V30 2188 H 211.407 -3.72338 0.603702 0
M  V30 2189 H 213.794 -2.95094 -0.0184742 0
M  V30 2190 H 213.875 -2.06431 1.51063 0
M  V30 2191 H 213.519 -4.25467 2.7738 0
M  V30 2192 H 213.449 -5.1228 1.2197 0
M  V30 2193 H 215.94 -3.56174 1.26288 0
M  V30 2194 H 216.253 -7.05086 3.16344 0
M  V30 2195 H 214.598 -6.34387 2.83863 0
M  V30 2196 H 217.789 -4.38301 1.64347 0
M  V30 2197 H 217.962 -5.97416 2.50993 0
M  V30 2198 N 211.368 -0.403325 -1.52352 0
M  V30 2199 C 212.316 0.439752 -2.28405 0
M  V30 2200 C 213.31 1.05089 -1.32863 0
M  V30 2201 O 214.516 0.989759 -1.50345 0
M  V30 2202 H 210.891 0.160587 -0.734653 0
M  V30 2203 H 212.862 -0.222983 -2.97566 0
M  V30 2204 C 211.611 1.54736 -3.11371 0
M  V30 2205 H 210.934 1.08643 -3.84755 0
M  V30 2206 H 212.374 2.1112 -3.67701 0
M  V30 2207 C 210.833 2.51141 -2.24566 0
M  V30 2208 O 211.363 3.54887 -1.88196 0
M  V30 2209 N 209.569 2.21213 -1.8845 0
M  V30 2210 H 209.116 1.36878 -2.18225 0
M  V30 2211 H 209.074 2.85963 -1.30662 0
M  V30 2212 N 212.846 1.57033 -0.133567 0
M  V30 2213 C 214.123 1.87256 0.56522 0
M  V30 2214 C 214.503 1.03726 1.83859 0
M  V30 2215 O 213.851 0.120247 2.28183 0
M  V30 2216 C 214.061 3.3865 0.843636 0
M  V30 2217 C 215.409 4.07574 1.19032 0
M  V30 2218 O 216.433 3.43752 0.933429 0
M  V30 2219 O 215.292 5.20259 1.67312 0
M  V30 2220 H 212.386 0.775678 0.286796 0
M  V30 2221 H 214.932 1.68855 -0.169168 0
M  V30 2222 H 213.704 3.91257 -0.0581149 0
M  V30 2223 H 213.327 3.62532 1.63268 0
M  V30 2224 N 214.325 -0.140222 1.56975 0
M  V30 2225 C 215.572 -0.851687 1.83719 0
M  V30 2226 C 215.9 -1.80862 0.715485 0
M  V30 2227 O 215.155 -1.93464 -0.294956 0
M  V30 2228 C 215.454 -1.65386 3.16832 0
M  V30 2229 C 215.12 -0.843112 4.42947 0
M  V30 2230 C 213.782 -0.619464 4.77196 0
M  V30 2231 C 216.134 -0.276582 5.20466 0
M  V30 2232 C 213.462 0.181312 5.8642 0
M  V30 2233 C 215.814 0.51127 6.30531 0
M  V30 2234 C 214.478 0.745432 6.63325 0
M  V30 2235 H 213.748 -0.311654 0.672274 0
M  V30 2236 H 216.395 -0.115006 1.91154 0
M  V30 2237 H 214.7 -2.46084 3.04877 0
M  V30 2238 H 216.397 -2.20793 3.34741 0
M  V30 2239 H 212.987 -1.0275 4.16101 0
M  V30 2240 H 217.171 -0.436632 4.94376 0
M  V30 2241 H 212.427 0.372165 6.10266 0
M  V30 2242 H 216.601 0.957354 6.89788 0
M  V30 2243 H 214.228 1.36778 7.47794 0
M  V30 2244 N 215.803 -1.52179 -0.40978 0
M  V30 2245 C 216.733 -1.78435 -1.5061 0
M  V30 2246 C 217.714 -0.635295 -1.57791 0
M  V30 2247 O 218.899 -0.880823 -1.73076 0
M  V30 2248 C 216.029 -1.93444 -2.88439 0
M  V30 2249 C 214.983 -3.09038 -2.96108 0
M  V30 2250 C 214.309 -3.09268 -4.36185 0
M  V30 2251 C 215.609 -4.48508 -2.67652 0
M  V30 2252 H 217.303 -2.70237 -1.28889 0
M  V30 2253 H 214.849 -1.30036 -0.618605 0
M  V30 2254 H 216.802 -2.10394 -3.65119 0
M  V30 2255 H 215.526 -0.983129 -3.11452 0
M  V30 2256 H 214.185 -2.91837 -2.21872 0
M  V30 2257 H 213.833 -2.11861 -4.56206 0
M  V30 2258 H 213.533 -3.86907 -4.42241 0
M  V30 2259 H 215.057 -3.28348 -5.14801 0
M  V30 2260 H 216.471 -4.65918 -3.34056 0
M  V30 2261 H 214.868 -5.28059 -2.85085 0
M  V30 2262 H 215.938 -4.56649 -1.63095 0
M  V30 2263 N 217.281 0.66697 -1.42791 0
M  V30 2264 C 218.692 1.2478 -1.38877 0
M  V30 2265 C 219.043 1.96012 -0.0859426 0
M  V30 2266 O 218.168 2.00463 0.815081 0
M  V30 2267 C 218.763 2.26938 -2.51564 0
M  V30 2268 C 217.322 2.80529 -2.50959 0
M  V30 2269 C 216.469 1.54965 -2.29959 0
M  V30 2270 H 219.42 0.459853 -1.51892 0
M  V30 2271 H 219.441 3.08834 -2.22265 0
M  V30 2272 H 218.953 1.75065 -3.46372 0
M  V30 2273 H 217.054 3.36502 -1.59991 0
M  V30 2274 H 217.167 3.29012 -3.48265 0
M  V30 2275 H 215.531 1.81817 -1.78366 0
M  V30 2276 H 216.314 1.05047 -3.26833 0
M  V30 2277 N 218.759 1.29093 0.90403 0
M  V30 2278 C 220.175 1.07011 1.1841 0
M  V30 2279 C 220.375 -0.181358 2.00682 0
M  V30 2280 O 219.431 -0.880331 2.36657 0
M  V30 2281 C 220.744 2.32311 1.90924 0
M  V30 2282 C 222.292 2.37587 2.03768 0
M  V30 2283 C 222.767 3.62679 2.79693 0
M  V30 2284 N 224.258 3.63376 2.87249 0
M  V30 2285 C 224.993 4.56848 3.46522 0
M  V30 2286 N 224.489 5.60648 4.06996 0
M  V30 2287 N 226.282 4.44426 3.44154 0
M  V30 2288 H 218.433 2.09412 0.354993 0
M  V30 2289 H 220.696 0.922181 0.219742 0
M  V30 2290 H 220.402 3.23536 1.37905 0
M  V30 2291 H 220.276 2.39483 2.91424 0
M  V30 2292 H 222.663 1.46853 2.55965 0
M  V30 2293 H 222.744 2.34403 1.02415 0
M  V30 2294 H 222.388 4.53762 2.28173 0
M  V30 2295 H 222.318 3.63119 3.81381 0
M  V30 2296 H 224.809 2.88321 2.44293 0
M  V30 2297 H 225.122 6.28101 4.50232 0
M  V30 2298 H 223.467 5.64463 4.05471 0
M  V30 2299 H 226.658 3.62529 2.96126 0
M  V30 2300 H 226.831 5.17457 3.90054 0
M  V30 2301 N 220.237 -1.11381 1.11499 0
M  V30 2302 C 221.483 -1.83597 0.875423 0
M  V30 2303 C 221.838 -1.83048 -0.592555 0
M  V30 2304 O 221.131 -1.27304 -1.43193 0
M  V30 2305 C 221.325 -3.30026 1.37177 0
M  V30 2306 C 221.154 -3.44837 2.88647 0
M  V30 2307 C 219.924 -3.57825 3.56776 0
M  V30 2308 C 222.122 -3.3907 3.86699 0
M  V30 2309 N 220.104 -3.61113 4.96458 0
M  V30 2310 C 221.475 -3.48986 5.12454 0
M  V30 2311 C 223.53 -3.22605 3.7925 0
M  V30 2312 C 222.233 -3.44135 6.31636 0
M  V30 2313 C 224.259 -3.19072 4.97943 0
M  V30 2314 C 223.621 -3.29559 6.22551 0
M  V30 2315 H 219.72 -0.687044 0.37349 0
M  V30 2316 H 222.304 -1.33265 1.41946 0
M  V30 2317 H 220.475 -3.78874 0.854919 0
M  V30 2318 H 222.207 -3.90153 1.07529 0
M  V30 2319 H 218.962 -3.60414 3.07244 0
M  V30 2320 H 219.386 -3.66394 5.69284 0
M  V30 2321 H 224.028 -3.13382 2.83816 0
M  V30 2322 H 221.746 -3.52126 7.27347 0
M  V30 2323 H 225.332 -3.07498 4.93899 0
M  V30 2324 H 224.212 -3.26815 7.12855 0
M  V30 2325 N 221.715 -0.905404 -1.28997 0
M  V30 2326 C 222.945 -0.549049 -1.99171 0
M  V30 2327 C 223.353 0.87203 -1.67906 0
M  V30 2328 O 222.696 1.58796 -0.923561 0
M  V30 2329 C 222.758 -0.668306 -3.53234 0
M  V30 2330 C 222.422 -2.0574 -4.08069 0
M  V30 2331 C 223.419 -3.0292 -4.22534 0
M  V30 2332 C 221.104 -2.36833 -4.42962 0
M  V30 2333 C 223.098 -4.29314 -4.71135 0
M  V30 2334 C 220.785 -3.63467 -4.91258 0
M  V30 2335 C 221.783 -4.59522 -5.053 0
M  V30 2336 O 221.471 -5.83907 -5.52546 0
M  V30 2337 H 221.203 -0.208784 -0.64295 0
M  V30 2338 H 223.757 -1.21836 -1.65363 0
M  V30 2339 H 221.987 0.0580547 -3.86656 0
M  V30 2340 H 223.676 -0.320273 -4.04634 0
M  V30 2341 H 224.442 -2.80216 -3.95859 0
M  V30 2342 H 220.321 -1.62824 -4.31288 0
M  V30 2343 H 223.865 -5.04293 -4.8201 0
M  V30 2344 H 219.762 -3.86 -5.17372 0
M  V30 2345 H 220.53 -5.86578 -5.70849 0
M  V30 2346 N 223.193 1.4272 -0.668489 0
M  V30 2347 C 224.156 2.292 0.00448567 0
M  V30 2348 C 225.156 1.43001 0.735339 0
M  V30 2349 O 226.346 1.64461 0.57429 0
M  V30 2350 C 223.478 3.25375 1.01705 0
M  V30 2351 H 224.671 2.90199 -0.756608 0
M  V30 2352 H 222.224 1.50254 -0.430506 0
M  V30 2353 H 222.959 2.69301 1.80686 0
M  V30 2354 H 222.744 3.88944 0.496463 0
M  V30 2355 H 224.234 3.90245 1.48655 0
M  V30 2356 N 224.671 0.411399 1.52136 0
M  V30 2357 C 225.899 -0.163076 2.06256 0
M  V30 2358 C 226.314 -1.3867 1.28125 0
M  V30 2359 O 225.671 -1.79423 0.333721 0
M  V30 2360 C 225.722 -0.511252 3.57867 0
M  V30 2361 O 225.443 0.66378 4.33042 0
M  V30 2362 C 226.944 -1.13921 4.28412 0
M  V30 2363 H 224.164 -0.0193897 0.67072 0
M  V30 2364 H 226.708 0.583007 1.96013 0
M  V30 2365 H 224.863 -1.20723 3.6811 0
M  V30 2366 H 225.277 0.372601 5.23175 0
M  V30 2367 H 226.751 -1.33302 5.35663 0
M  V30 2368 H 227.228 -2.11296 3.85033 0
M  V30 2369 H 227.834 -0.483373 4.22544 0
M  V30 2370 N 226.149 -1.5696 0.141893 0
M  V30 2371 C 227.374 -2.00754 -0.520838 0
M  V30 2372 C 227.799 -1.0213 -1.57959 0
M  V30 2373 O 227.157 0.00371324 -1.813 0
M  V30 2374 C 227.205 -3.43318 -1.10294 0
M  V30 2375 O 226.309 -3.47679 -2.21795 0
M  V30 2376 H 225.65 -0.651564 -0.127908 0
M  V30 2377 H 228.18 -2.03221 0.23712 0
M  V30 2378 H 228.19 -3.82012 -1.43287 0
M  V30 2379 H 226.865 -4.14608 -0.327574 0
M  V30 2380 H 225.442 -3.20824 -1.9007 0
M  V30 2381 N 227.627 0.131896 -1.57047 0
M  V30 2382 C 228.875 0.840269 -1.83804 0
M  V30 2383 C 229.196 1.81017 -0.72512 0
M  V30 2384 O 228.466 1.94272 0.251995 0
M  V30 2385 H 227.046 0.313294 -0.678127 0
M  V30 2386 H 229.708 0.122294 -1.94516 0
M  V30 2387 H 228.804 1.39335 -2.79271 0
M  V30 2388 N 229.106 1.52395 0.401703 0
M  V30 2389 C 230.383 1.57387 1.16141 0
M  V30 2390 C 230.763 0.359359 2.08019 0
M  V30 2391 O 230.111 -0.65326 2.18963 0
M  V30 2392 C 230.321 2.90631 1.93221 0
M  V30 2393 C 231.669 3.43904 2.49028 0
M  V30 2394 O 232.693 2.92421 2.03393 0
M  V30 2395 O 231.552 4.33823 3.32356 0
M  V30 2396 H 228.646 0.634262 0.530698 0
M  V30 2397 H 231.192 1.64725 0.407883 0
M  V30 2398 H 229.964 3.70473 1.25958 0
M  V30 2399 H 229.587 2.8662 2.75563 0
M  V30 2400 N 230.584 -0.659388 1.43143 0
M  V30 2401 C 231.547 -1.75432 1.47501 0
M  V30 2402 C 232.547 -1.56707 0.360512 0
M  V30 2403 O 233.737 -1.62717 0.622002 0
M  V30 2404 C 230.869 -3.14239 1.32162 0
M  V30 2405 H 232.062 -1.7295 2.45006 0
M  V30 2406 H 229.615 -0.870469 1.29817 0
M  V30 2407 H 230.35 -3.22336 0.356401 0
M  V30 2408 H 230.135 -3.29235 2.12948 0
M  V30 2409 H 231.625 -3.94094 1.3813 0
M  V30 2410 N 232.062 -1.29571 -0.897171 0
M  V30 2411 C 233.009 -1.14916 -2.00158 0
M  V30 2412 C 233.979 -0.0418149 -1.66047 0
M  V30 2413 O 235.164 -0.209793 -1.89643 0
M  V30 2414 C 232.304 -0.834307 -3.34863 0
M  V30 2415 C 231.417 -2.02234 -3.8174 0
M  V30 2416 C 230.552 -1.64664 -5.05034 0
M  V30 2417 C 229.591 -2.80033 -5.44286 0
M  V30 2418 N 228.728 -2.42843 -6.58765 0
M  V30 2419 H 233.568 -2.09403 -2.12025 0
M  V30 2420 H 231.105 -1.042 -1.0383 0
M  V30 2421 H 233.063 -0.632436 -4.12379 0
M  V30 2422 H 231.693 0.0736656 -3.22716 0
M  V30 2423 H 230.745 -2.33583 -3.00238 0
M  V30 2424 H 232.057 -2.88673 -4.06779 0
M  V30 2425 H 231.211 -1.4078 -5.9014 0
M  V30 2426 H 229.95 -0.753766 -4.8184 0
M  V30 2427 H 228.955 -3.04596 -4.57713 0
M  V30 2428 H 230.18 -3.69989 -5.6946 0
M  V30 2429 H 228.126 -1.56046 -6.3717 0
M  V30 2430 H 228.043 -3.22815 -6.83613 0
M  V30 2431 H 229.311 -2.22285 -7.47134 0
M  V30 2432 N 233.54 1.10788 -1.12088 0
M  V30 2433 C 234.951 1.64181 -0.88891 0
M  V30 2434 C 235.302 1.87508 0.577498 0
M  V30 2435 O 234.427 1.61434 1.44112 0
M  V30 2436 C 235.022 2.98257 -1.60712 0
M  V30 2437 C 233.581 3.4853 -1.42139 0
M  V30 2438 C 232.728 2.23208 -1.6454 0
M  V30 2439 H 235.679 0.943368 -1.27618 0
M  V30 2440 H 235.7 3.65552 -1.05604 0
M  V30 2441 H 235.212 2.81246 -2.67436 0
M  V30 2442 H 233.313 3.70692 -0.376552 0
M  V30 2443 H 233.426 4.26882 -2.17505 0
M  V30 2444 H 231.79 2.31169 -1.06925 0
M  V30 2445 H 232.573 2.08733 -2.72554 0
M  V30 2446 N 235.018 0.912232 1.28515 0
M  V30 2447 C 235.965 0.397954 2.27343 0
M  V30 2448 C 236.935 -0.526766 1.57526 0
M  V30 2449 O 238.12 -0.449292 1.85435 0
M  V30 2450 C 235.26 -0.357263 3.43246 0
M  V30 2451 C 234.373 0.599788 4.27816 0
M  V30 2452 C 233.508 -0.173725 5.30916 0
M  V30 2453 C 232.547 0.777039 6.07148 0
M  V30 2454 N 231.684 0.0371398 7.0209 0
M  V30 2455 H 236.524 1.24577 2.70711 0
M  V30 2456 H 234.061 0.625612 1.33133 0
M  V30 2457 H 236.019 -0.8113 4.09236 0
M  V30 2458 H 234.649 -1.16943 3.00872 0
M  V30 2459 H 233.701 1.17235 3.61884 0
M  V30 2460 H 235.013 1.32704 4.80823 0
M  V30 2461 H 234.167 -0.688394 6.02782 0
M  V30 2462 H 232.906 -0.934041 4.78672 0
M  V30 2463 H 231.911 1.3031 5.34134 0
M  V30 2464 H 233.136 1.53689 6.61481 0
M  V30 2465 H 231.082 -0.705213 6.52198 0
M  V30 2466 H 230.999 0.704249 7.52713 0
M  V30 2467 H 232.267 -0.457383 7.78157 0
M  V30 2468 N 236.496 -1.42363 0.676048 0
M  V30 2469 C 237.429 -2.28141 -0.0516916 0
M  V30 2470 C 238.407 -1.41135 -0.807439 0
M  V30 2471 O 239.591 -1.70573 -0.802305 0
M  V30 2472 C 236.718 -3.21007 -1.08039 0
M  V30 2473 C 235.764 -4.24426 -0.420076 0
M  V30 2474 S 236.597 -5.29134 0.823246 0
M  V30 2475 C 237.753 -6.25566 -0.204344 0
M  V30 2476 H 237.986 -2.89515 0.675884 0
M  V30 2477 H 235.519 -1.47211 0.465635 0
M  V30 2478 H 237.477 -3.75048 -1.66881 0
M  V30 2479 H 236.138 -2.58766 -1.78042 0
M  V30 2480 H 235.331 -4.89596 -1.19633 0
M  V30 2481 H 234.933 -3.7388 0.0947845 0
M  V30 2482 H 237.225 -6.69098 -1.06369 0
M  V30 2483 H 238.168 -7.06895 0.412915 0
M  V30 2484 H 238.576 -5.61811 -0.55038 0
M  V30 2485 N 237.974 -0.419461 -1.51915 0
M  V30 2486 C 238.904 0.391813 -2.30189 0
M  V30 2487 C 239.885 1.03699 -1.34836 0
M  V30 2488 O 241.07 1.04403 -1.63748 0
M  V30 2489 C 238.2 1.50312 -3.13087 0
M  V30 2490 C 237.154 0.9824 -4.16573 0
M  V30 2491 C 236.48 2.18809 -4.8788 0
M  V30 2492 C 237.78 0.0292356 -5.22292 0
M  V30 2493 H 239.474 -0.26135 -2.98257 0
M  V30 2494 H 237.02 -0.127134 -1.43438 0
M  V30 2495 H 238.973 2.07773 -3.66617 0
M  V30 2496 H 237.697 2.18431 -2.42807 0
M  V30 2497 H 236.356 0.430119 -3.64068 0
M  V30 2498 H 236.004 2.85507 -4.14119 0
M  V30 2499 H 235.704 1.84615 -5.57845 0
M  V30 2500 H 237.228 2.76858 -5.44226 0
M  V30 2501 H 238.642 0.512976 -5.71 0
M  V30 2502 H 237.039 -0.2244 -5.9968 0
M  V30 2503 H 238.109 -0.912931 -4.76228 0
M  V30 2504 N 239.452 1.56882 -0.150215 0
M  V30 2505 C 240.415 2.1573 0.774157 0
M  V30 2506 C 241.415 1.0999 1.17298 0
M  V30 2507 O 242.605 1.35613 1.09338 0
M  V30 2508 C 239.737 2.72302 2.05096 0
M  V30 2509 H 240.93 2.98752 0.262201 0
M  V30 2510 H 238.483 1.55985 0.099248 0
M  V30 2511 H 239.218 1.92956 2.6065 0
M  V30 2512 H 239.003 3.49665 1.77416 0
M  V30 2513 H 240.493 3.17632 2.71109 0
M  V30 2514 N 240.93 -0.123565 1.57115 0
M  V30 2515 C 241.878 -1.17082 2.00984 0
M  V30 2516 C 242.872 -1.43136 0.906009 0
M  V30 2517 O 244.078 -1.43152 1.09121 0
M  V30 2518 H 240.453 -0.394653 0.64012 0
M  V30 2519 H 242.424 -0.774292 2.88179 0
M  V30 2520 C 241.173 -2.49057 2.42623 0
M  V30 2521 H 240.496 -2.29846 3.27125 0
M  V30 2522 H 241.936 -3.20906 2.7712 0
M  V30 2523 C 240.395 -3.11305 1.28805 0
M  V30 2524 O 240.925 -3.97171 0.60153 0
M  V30 2525 N 239.131 -2.71111 1.04628 0
M  V30 2526 H 238.678 -2.01382 1.60634 0
M  V30 2527 H 238.636 -3.1309 0.286685 0
M  V30 2528 N 242.408 -1.52605 -0.393616 0
M  V30 2529 C 243.636 -1.71294 -1.16043 0
M  V30 2530 C 244.051 -0.429259 -1.83855 0
M  V30 2531 O 243.408 0.595921 -1.72496 0
M  V30 2532 C 243.459 -2.8593 -2.21193 0
M  V30 2533 O 243.18 -4.09329 -1.56146 0
M  V30 2534 C 244.681 -3.16259 -3.10636 0
M  V30 2535 H 241.901 -0.573641 -0.348104 0
M  V30 2536 H 244.445 -1.99234 -0.461092 0
M  V30 2537 H 242.6 -2.60465 -2.86769 0
M  V30 2538 H 243.014 -4.73323 -2.25978 0
M  V30 2539 H 244.488 -3.99946 -3.80456 0
M  V30 2540 H 244.965 -2.3045 -3.73884 0
M  V30 2541 H 245.571 -3.43547 -2.50711 0
M  V30 2542 N 243.887 0.651787 -1.4349 0
M  V30 2543 C 245.164 1.40909 -1.35661 0
M  V30 2544 C 245.544 2.11099 -0.00511733 0
M  V30 2545 O 244.892 2.04892 1.0115 0
M  V30 2546 C 245.102 2.3926 -2.54078 0
M  V30 2547 C 246.45 3.03217 -2.97228 0
M  V30 2548 O 247.474 2.49588 -2.54135 0
M  V30 2549 O 246.333 4.00455 -3.71885 0
M  V30 2550 H 243.427 0.629625 -0.536191 0
M  V30 2551 H 245.973 0.678575 -1.55542 0
M  V30 2552 H 244.745 1.86352 -3.44076 0
M  V30 2553 H 244.368 3.1976 -2.36303 0
M  V30 2554 N 245.365 1.30045 0.890287 0
M  V30 2555 C 246.593 1.21472 1.67487 0
M  V30 2556 C 247.008 -0.223241 1.87476 0
M  V30 2557 O 246.365 -1.14828 1.41847 0
M  V30 2558 C 246.416 1.93394 3.05419 0
M  V30 2559 O 246.137 3.31576 2.86337 0
M  V30 2560 C 247.638 1.91414 3.99844 0
M  V30 2561 H 244.858 0.420604 0.522813 0
M  V30 2562 H 247.402 1.7158 1.11268 0
M  V30 2563 H 245.557 1.47099 3.58386 0
M  V30 2564 H 245.971 3.67929 3.73802 0
M  V30 2565 H 247.445 2.46285 4.94012 0
M  V30 2566 H 247.922 0.891833 4.3005 0
M  V30 2567 H 248.528 2.37496 3.52811 0
M  V30 2568 N 246.843 -1.10192 1.12674 0
M  V30 2569 C 247.753 -2.20172 0.810026 0
M  V30 2570 C 248.769 -1.72821 -0.202188 0
M  V30 2571 O 249.945 -2.01369 -0.0351691 0
M  V30 2572 C 247.01 -3.45631 0.272007 0
M  V30 2573 C 246.071 -4.07704 1.34447 0
M  V30 2574 C 245.304 -5.27175 0.832029 0
M  V30 2575 O 245.527 -5.69425 -0.333284 0
M  V30 2576 O 244.461 -5.80168 1.60277 0
M  V30 2577 H 248.287 -2.49701 1.72867 0
M  V30 2578 H 245.872 -1.18977 0.903597 0
M  V30 2579 H 247.754 -4.21394 -0.0230219 0
M  V30 2580 H 246.429 -3.17723 -0.619164 0
M  V30 2581 H 245.336 -3.33614 1.6927 0
M  V30 2582 H 246.669 -4.3982 2.2095 0
M  V30 2583 N 248.321 -0.919034 -1.28029 0
M  V30 2584 C 249.269 -0.401753 -2.29104 0
M  V30 2585 C 250.263 0.509354 -1.61561 0
M  V30 2586 O 251.469 0.390014 -1.75724 0
M  V30 2587 H 247.844 -0.111331 -0.743713 0
M  V30 2588 H 249.815 -1.2672 -2.70156 0
M  V30 2589 C 248.564 0.338148 -3.46052 0
M  V30 2590 H 247.887 -0.353732 -3.98232 0
M  V30 2591 H 249.327 0.664653 -4.18758 0
M  V30 2592 C 247.786 1.54798 -2.99231 0
M  V30 2593 O 248.316 2.64696 -3.02157 0
M  V30 2594 N 246.522 1.3968 -2.54829 0
M  V30 2595 H 246.069 0.502698 -2.52647 0
M  V30 2596 H 246.027 2.20755 -2.23863 0
M  V30 2597 N 249.799 1.42003 -0.683588 0
M  V30 2598 C 250.729 2.33487 -0.024866 0
M  V30 2599 C 251.71 1.51163 0.779975 0
M  V30 2600 O 252.895 1.79739 0.735362 0
M  V30 2601 C 250.025 3.3487 0.920836 0
M  V30 2602 C 248.979 4.27414 0.223958 0
M  V30 2603 C 248.305 5.19074 1.2832 0
M  V30 2604 C 249.605 5.14445 -0.90242 0
M  V30 2605 H 251.299 2.88819 -0.788921 0
M  V30 2606 H 248.845 1.38873 -0.38083 0
M  V30 2607 H 250.798 3.97787 1.39081 0
M  V30 2608 H 249.522 2.77861 1.71642 0
M  V30 2609 H 248.181 3.65904 -0.225864 0
M  V30 2610 H 247.829 4.58387 2.071 0
M  V30 2611 H 247.529 5.81822 0.821995 0
M  V30 2612 H 249.053 5.84867 1.75392 0
M  V30 2613 H 250.467 5.70998 -0.513272 0
M  V30 2614 H 248.864 5.86072 -1.28997 0
M  V30 2615 H 249.934 4.52322 -1.74737 0
M  V30 2616 N 251.277 0.427512 1.51691 0
M  V30 2617 C 252.554 -0.201684 1.94557 0
M  V30 2618 C 252.934 -1.60981 1.36559 0
M  V30 2619 O 252.282 -2.21814 0.548702 0
M  V30 2620 C 252.492 -0.189394 3.48486 0
M  V30 2621 C 253.84 -0.39978 4.22714 0
M  V30 2622 O 254.864 -0.267945 3.55191 0
M  V30 2623 O 253.723 -0.661249 5.42485 0
M  V30 2624 H 250.817 -0.135261 0.815864 0
M  V30 2625 H 253.363 0.484782 1.62628 0
M  V30 2626 H 252.135 0.795431 3.8313 0
M  V30 2627 H 251.758 -0.919187 3.86829 0
M  V30 2628 N 252.755 -1.56801 0.158532 0
M  V30 2629 C 253.687 -2.14488 -0.807923 0
M  V30 2630 C 254.7 -1.09721 -1.20271 0
M  V30 2631 O 255.889 -1.36956 -1.14478 0
M  V30 2632 C 252.989 -2.66217 -2.09718 0
M  V30 2633 C 252.162 -3.95507 -1.86796 0
M  V30 2634 C 251.221 -4.3243 -2.99818 0
M  V30 2635 O 250.247 -5.00543 -2.71008 0
M  V30 2636 N 251.449 -3.92947 -4.27285 0
M  V30 2637 H 254.214 -2.98042 -0.314816 0
M  V30 2638 H 251.775 -1.61881 -0.0246692 0
M  V30 2639 H 253.767 -2.87924 -2.84398 0
M  V30 2640 H 252.337 -1.87324 -2.50257 0
M  V30 2641 H 251.557 -3.82309 -0.96089 0
M  V30 2642 H 252.845 -4.79972 -1.68833 0
M  V30 2643 H 252.243 -3.38087 -4.53557 0
M  V30 2644 H 250.8 -4.19681 -4.9871 0
M  V30 2645 N 254.233 0.115231 -1.57178 0
M  V30 2646 C 255.48 0.822351 -1.8505 0
M  V30 2647 C 255.808 1.79701 -0.744168 0
M  V30 2648 O 255.063 1.93909 0.26414 0
M  V30 2649 C 255.362 1.60324 -3.19423 0
M  V30 2650 C 255.028 0.772536 -4.44233 0
M  V30 2651 C 253.69 0.543468 -4.78121 0
M  V30 2652 C 256.042 0.193746 -5.2084 0
M  V30 2653 C 253.37 -0.274583 -5.86057 0
M  V30 2654 C 255.722 -0.611517 -6.29637 0
M  V30 2655 C 254.386 -0.850867 -6.62055 0
M  V30 2656 H 253.656 0.30092 -0.677147 0
M  V30 2657 H 256.303 0.0845802 -1.91313 0
M  V30 2658 H 254.608 2.41203 -3.08753 0
M  V30 2659 H 256.305 2.1544 -3.38211 0
M  V30 2660 H 252.895 0.96117 -4.17683 0
M  V30 2661 H 257.079 0.357926 -4.95008 0
M  V30 2662 H 252.335 -0.469206 -6.09597 0
M  V30 2663 H 256.509 -1.06697 -6.88178 0
M  V30 2664 H 254.136 -1.48657 -7.45523 0
M  V30 2665 N 255.711 1.52812 0.385517 0
M  V30 2666 C 256.957 1.68275 1.13188 0
M  V30 2667 C 257.29 0.423179 1.89533 0
M  V30 2668 O 256.565 -0.579113 1.85679 0
M  V30 2669 C 256.848 2.92001 2.1073 0
M  V30 2670 C 256.701 4.28067 1.38125 0
M  V30 2671 C 258.02 3.11283 3.11113 0
M  V30 2672 H 255.139 0.612352 0.410115 0
M  V30 2673 H 257.781 1.85415 0.414869 0
M  V30 2674 H 255.931 2.77519 2.71874 0
M  V30 2675 H 257.603 4.54324 0.799187 0
M  V30 2676 H 255.846 4.28388 0.683092 0
M  V30 2677 H 256.517 5.10733 2.09417 0
M  V30 2678 H 258.993 3.2482 2.6006 0
M  V30 2679 H 257.869 3.99325 3.76605 0
M  V30 2680 H 258.13 2.25656 3.80173 0
M  V30 2681 N 257.189 -0.644168 1.43834 0
M  V30 2682 C 258.152 -1.73857 1.49353 0
M  V30 2683 C 259.152 -1.56315 0.377112 0
M  V30 2684 O 260.342 -1.62048 0.639226 0
M  V30 2685 C 257.474 -3.12819 1.35488 0
M  V30 2686 H 258.667 -1.70342 2.46827 0
M  V30 2687 H 256.22 -0.856652 1.30733 0
M  V30 2688 H 256.955 -3.2194 0.390569 0
M  V30 2689 H 256.74 -3.26958 2.16428 0
M  V30 2690 H 258.23 -3.92606 1.42302 0
M  V30 2691 N 258.668 -1.30515 -0.883378 0
M  V30 2692 C 260.079 -1.17509 -1.45081 0
M  V30 2693 C 260.43 0.223605 -1.94922 0
M  V30 2694 O 259.555 1.12041 -1.85137 0
M  V30 2695 C 260.15 -2.12715 -2.63701 0
M  V30 2696 C 258.709 -2.03682 -3.16529 0
M  V30 2697 C 257.856 -2.02706 -1.89224 0
M  V30 2698 H 260.807 -1.42762 -0.693165 0
M  V30 2699 H 260.828 -1.70891 -3.39965 0
M  V30 2700 H 260.34 -3.14505 -2.27395 0
M  V30 2701 H 258.441 -1.05039 -3.57488 0
M  V30 2702 H 258.554 -2.92146 -3.7972 0
M  V30 2703 H 256.918 -1.4753 -2.07622 0
M  V30 2704 H 257.701 -3.06229 -1.55174 0
M  V30 2705 N 260.146 1.09593 -1.13257 0
M  V30 2706 C 261.393 1.81734 -0.893257 0
M  V30 2707 C 261.721 1.8563 0.580656 0
M  V30 2708 O 260.976 1.31906 1.44566 0
M  V30 2709 C 261.275 3.27802 -1.42411 0
M  V30 2710 C 260.941 3.44041 -2.91456 0
M  V30 2711 C 259.603 3.48181 -3.3215 0
M  V30 2712 C 261.955 3.48719 -3.87356 0
M  V30 2713 C 259.283 3.54575 -4.67433 0
M  V30 2714 C 261.635 3.56648 -5.2248 0
M  V30 2715 C 260.299 3.59055 -5.62704 0
M  V30 2716 H 259.569 0.665011 -0.326866 0
M  V30 2717 H 262.216 1.2912 -1.41422 0
M  V30 2718 H 260.521 3.83042 -0.823795 0
M  V30 2719 H 262.218 3.82149 -1.21503 0
M  V30 2720 H 258.808 3.41502 -2.58987 0
M  V30 2721 H 262.992 3.44763 -3.57004 0
M  V30 2722 H 258.248 3.54725 -4.97976 0
M  V30 2723 H 262.422 3.59212 -5.96607 0
M  V30 2724 H 260.049 3.63763 -6.67518 0
M  V30 2725 N 261.624 0.925811 1.2754 0
M  V30 2726 C 262.852 0.581509 1.9856 0
M  V30 2727 C 263.267 -0.840041 1.69082 0
M  V30 2728 O 262.624 -1.55805 0.950312 0
M  V30 2729 C 262.675 0.795589 3.52637 0
M  V30 2730 O 262.396 2.16121 3.81082 0
M  V30 2731 C 263.897 0.459744 4.4091 0
M  V30 2732 H 261.117 0.220538 0.633722 0
M  V30 2733 H 263.661 1.24232 1.6244 0
M  V30 2734 H 261.816 0.18161 3.86974 0
M  V30 2735 H 262.23 2.2098 4.75676 0
M  V30 2736 H 263.704 0.660244 5.48037 0
M  V30 2737 H 264.181 -0.604625 4.35018 0
M  V30 2738 H 264.787 1.05178 4.12089 0
M  V30 2739 N 263.102 -1.41638 0.69111 0
M  V30 2740 C 264.35 -2.00902 0.219758 0
M  V30 2741 C 264.671 -1.54994 -1.18329 0
M  V30 2742 O 263.941 -0.778628 -1.79762 0
M  V30 2743 H 262.521 -0.74289 0.0782558 0
M  V30 2744 H 265.183 -1.73327 0.891271 0
M  V30 2745 H 264.279 -3.11224 0.233708 0
M  V30 2746 N 264.58 -0.43555 -1.51462 0
M  V30 2747 C 265.857 0.191364 -1.94662 0
M  V30 2748 C 266.237 1.60254 -1.37411 0
M  V30 2749 O 265.585 2.2152 -0.560458 0
M  V30 2750 C 265.795 0.17091 -3.48581 0
M  V30 2751 C 267.143 0.377357 -4.2292 0
M  V30 2752 O 268.167 0.249104 -3.55328 0
M  V30 2753 O 267.026 0.63247 -5.42828 0
M  V30 2754 H 264.12 0.130932 -0.816569 0
M  V30 2755 H 266.666 -0.4934 -1.62369 0
M  V30 2756 H 265.438 -0.815738 -3.82703 0
M  V30 2757 H 265.061 0.898659 -3.87311 0
M  V30 2758 N 266.058 1.56714 -0.166846 0
M  V30 2759 C 266.99 2.14914 0.796537 0
M  V30 2760 C 268.003 1.10357 1.19688 0
M  V30 2761 O 269.192 1.37561 1.13751 0
M  V30 2762 C 266.292 2.67326 2.08303 0
M  V30 2763 C 265.465 3.96493 1.84696 0
M  V30 2764 C 264.524 4.34014 2.97521 0
M  V30 2765 O 263.55 5.01973 2.6835 0
M  V30 2766 N 264.752 3.95208 4.25196 0
M  V30 2767 H 267.517 2.98205 0.299006 0
M  V30 2768 H 265.078 1.61892 0.0160839 0
M  V30 2769 H 267.07 2.89428 2.82867 0
M  V30 2770 H 265.64 1.88649 2.4926 0
M  V30 2771 H 264.86 3.82814 0.940602 0
M  V30 2772 H 266.148 4.8086 1.66285 0
M  V30 2773 H 265.546 3.40487 4.51758 0
M  V30 2774 H 264.103 4.2232 4.96477 0
M  V30 2775 N 267.536 -0.106894 1.57237 0
M  V30 2776 C 268.782 -0.808678 1.86633 0
M  V30 2777 C 269.137 -1.76917 0.756178 0
M  V30 2778 O 268.43 -1.90055 -0.242834 0
M  V30 2779 C 268.624 -1.58628 3.20268 0
M  V30 2780 C 268.453 -0.702592 4.44178 0
M  V30 2781 C 267.223 -0.352808 5.04067 0
M  V30 2782 C 269.421 -0.0148031 5.14298 0
M  V30 2783 N 267.403 0.540279 6.11518 0
M  V30 2784 C 268.774 0.736809 6.15606 0
M  V30 2785 C 270.829 0.0603524 4.97863 0
M  V30 2786 C 269.532 1.55654 7.02257 0
M  V30 2787 C 271.558 0.866942 5.85011 0
M  V30 2788 C 270.92 1.60671 6.85831 0
M  V30 2789 H 267.019 -0.27246 0.733001 0
M  V30 2790 H 269.603 -0.0717858 1.94568 0
M  V30 2791 H 267.774 -2.29413 3.13408 0
M  V30 2792 H 269.506 -2.23434 3.3743 0
M  V30 2793 H 266.261 -0.697802 4.68431 0
M  V30 2794 H 266.685 0.979029 6.69884 0
M  V30 2795 H 271.327 -0.497236 4.19866 0
M  V30 2796 H 269.045 2.12524 7.79653 0
M  V30 2797 H 272.631 0.927612 5.74358 0
M  V30 2798 H 271.511 2.2208 7.52097 0
M  V30 2799 N 269.014 -1.53014 -0.377408 0
M  V30 2800 C 269.961 -1.78616 -1.46168 0
M  V30 2801 C 270.931 -0.629917 -1.53692 0
M  V30 2802 O 272.116 -0.870861 -1.69766 0
M  V30 2803 C 269.256 -1.97123 -2.8326 0
M  V30 2804 C 268.369 -3.24831 -2.84796 0
M  V30 2805 C 267.504 -3.33591 -4.13389 0
M  V30 2806 C 266.543 -4.55377 -4.09021 0
M  V30 2807 N 265.68 -4.61355 -5.29241 0
M  V30 2808 H 270.52 -2.71142 -1.23637 0
M  V30 2809 H 268.057 -1.34326 -0.599577 0
M  V30 2810 H 270.015 -2.05839 -3.62886 0
M  V30 2811 H 268.645 -1.07946 -3.04216 0
M  V30 2812 H 267.697 -3.25128 -1.97474 0
M  V30 2813 H 269.009 -4.14523 -2.77439 0
M  V30 2814 H 268.163 -3.41554 -5.01424 0
M  V30 2815 H 266.902 -2.41894 -4.23484 0
M  V30 2816 H 265.907 -4.47527 -3.19373 0
M  V30 2817 H 267.132 -5.48402 -4.00539 0
M  V30 2818 H 265.078 -3.72554 -5.39944 0
M  V30 2819 H 264.995 -5.44935 -5.24006 0
M  V30 2820 H 266.263 -4.73586 -6.19141 0
M  V30 2821 N 270.492 0.636531 -1.44174 0
M  V30 2822 C 271.908 0.954104 -1.27941 0
M  V30 2823 C 272.108 2.0039 -0.211248 0
M  V30 2824 O 271.164 2.49236 0.404695 0
M  V30 2825 C 272.477 1.4225 -2.64925 0
M  V30 2826 C 274.025 1.53827 -2.72592 0
M  V30 2827 C 274.5 2.04053 -4.10032 0
M  V30 2828 N 275.991 2.11331 -4.12182 0
M  V30 2829 C 276.726 2.51352 -5.15374 0
M  V30 2830 N 276.222 2.90549 -6.2893 0
M  V30 2831 N 278.015 2.51438 -5.02728 0
M  V30 2832 H 270.166 -0.0578386 -2.12321 0
M  V30 2833 H 272.429 0.0367406 -0.947288 0
M  V30 2834 H 272.135 0.725466 -3.44136 0
M  V30 2835 H 272.009 2.39451 -2.9145 0
M  V30 2836 H 274.396 2.22628 -1.93702 0
M  V30 2837 H 274.477 0.550154 -2.49814 0
M  V30 2838 H 274.121 1.35848 -4.89395 0
M  V30 2839 H 274.051 3.03726 -4.30184 0
M  V30 2840 H 276.542 1.83745 -3.30222 0
M  V30 2841 H 276.855 3.19884 -7.03487 0
M  V30 2842 H 275.2 2.88313 -6.32377 0
M  V30 2843 H 278.391 2.20203 -4.13072 0
M  V30 2844 H 278.564 2.82304 -5.83274 0
M  V30 2845 N 271.97 1.30982 0.876444 0
M  V30 2846 C 273.198 1.23242 1.6619 0
M  V30 2847 C 273.613 -0.203345 1.87702 0
M  V30 2848 O 272.97 -1.13317 1.43057 0
M  V30 2849 C 273.021 1.96623 3.03351 0
M  V30 2850 O 272.742 3.34594 2.82804 0
M  V30 2851 C 274.243 1.95644 3.97792 0
M  V30 2852 H 271.463 0.426126 0.518322 0
M  V30 2853 H 274.007 1.7275 1.09442 0
M  V30 2854 H 272.162 1.50892 3.56806 0
M  V30 2855 H 272.576 3.71873 3.69879 0
M  V30 2856 H 274.05 2.51511 4.91372 0
M  V30 2857 H 274.527 0.937395 4.2908 0
M  V30 2858 H 275.133 2.41225 3.50272 0
M  V30 2859 N 273.449 -1.08991 1.13837 0
M  V30 2860 C 274.396 -2.15748 0.819835 0
M  V30 2861 C 275.366 -1.64636 -0.220026 0
M  V30 2862 O 276.551 -1.90582 -0.0912757 0
M  V30 2863 C 273.691 -3.4382 0.296913 0
M  V30 2864 C 272.804 -4.0881 1.39636 0
M  V30 2865 C 271.939 -5.24655 0.831314 0
M  V30 2866 C 270.978 -5.81575 1.90886 0
M  V30 2867 N 270.115 -6.88774 1.36142 0
M  V30 2868 H 274.955 -2.42338 1.73426 0
M  V30 2869 H 272.492 -1.18935 0.865613 0
M  V30 2870 H 274.45 -4.17193 -0.0244339 0
M  V30 2871 H 273.08 -3.17535 -0.580628 0
M  V30 2872 H 272.132 -3.33258 1.83422 0
M  V30 2873 H 273.444 -4.47141 2.21058 0
M  V30 2874 H 272.598 -6.04942 0.461515 0
M  V30 2875 H 271.337 -4.87698 -0.013932 0
M  V30 2876 H 270.342 -4.99946 2.28767 0
M  V30 2877 H 271.567 -6.20592 2.75758 0
M  V30 2878 H 269.513 -6.53788 0.538254 0
M  V30 2879 H 269.43 -7.25898 2.11208 0
M  V30 2880 H 270.698 -7.72806 1.01933 0
M  V30 2881 N 274.927 -0.932562 -1.27047 0
M  V30 2882 C 276.204 -0.49377 -1.89265 0
M  V30 2883 C 276.584 1.02833 -1.8436 0
M  V30 2884 O 275.932 1.88461 -1.29209 0
M  V30 2885 C 276.142 -1.04536 -3.32976 0
M  V30 2886 C 277.49 -1.10879 -4.09867 0
M  V30 2887 O 278.514 -0.995327 -3.42011 0
M  V30 2888 O 277.373 -1.28417 -5.31198 0
M  V30 2889 H 274.467 -0.159596 -0.811454 0
M  V30 2890 H 277.013 -1.02457 -1.3528 0
M  V30 2891 H 275.785 -2.08913 -3.30864 0
M  V30 2892 H 275.408 -0.496494 -3.94488 0
M  V30 2893 N 276.405 1.4127 -0.698611 0
M  V30 2894 C 277.682 1.94955 -0.158762 0
M  V30 2895 C 278.062 1.63781 1.33188 0
M  V30 2896 O 277.41 0.946423 2.07979 0
M  V30 2897 C 277.62 3.46044 -0.453309 0
M  V30 2898 C 278.968 4.22872 -0.382707 0
M  V30 2899 O 279.992 3.54076 -0.388396 0
M  V30 2900 O 278.851 5.45407 -0.345463 0
M  V30 2901 H 275.945 0.82683 -0.0167505 0
M  V30 2902 H 278.491 1.50971 -0.77498 0
M  V30 2903 H 277.263 3.62028 -1.48498 0
M  V30 2904 H 276.886 3.97128 0.19373 0
M  V30 2905 N 277.883 0.443576 1.51229 0
M  V30 2906 C 278.83 -0.364716 2.279 0
M  V30 2907 C 279.8 -1.0114 1.31757 0
M  V30 2908 O 280.985 -1.02912 1.60667 0
M  V30 2909 C 278.125 -1.45644 3.12861 0
M  V30 2910 C 277.238 -0.827269 4.24005 0
M  V30 2911 C 276.373 -1.89456 4.96266 0
M  V30 2912 C 275.412 -1.24416 5.99322 0
M  V30 2913 N 274.549 -2.25309 6.64966 0
M  V30 2914 H 279.389 0.295464 2.96532 0
M  V30 2915 H 276.926 0.157554 1.46254 0
M  V30 2916 H 278.884 -2.10076 3.6045 0
M  V30 2917 H 277.514 -2.08616 2.46331 0
M  V30 2918 H 276.566 -0.0710839 3.80334 0
M  V30 2919 H 277.878 -0.312481 4.9782 0
M  V30 2920 H 277.032 -2.61535 5.47434 0
M  V30 2921 H 275.771 -2.4431 4.22095 0
M  V30 2922 H 274.776 -0.508868 5.4744 0
M  V30 2923 H 276.001 -0.702882 6.75453 0
M  V30 2924 H 273.947 -2.79231 5.93604 0
M  V30 2925 H 273.864 -1.78739 7.34567 0
M  V30 2926 H 275.132 -2.96853 7.20763 0
M  V30 2927 N 279.361 -1.56624 0.175154 0
M  V30 2928 C 280.309 -2.19468 -0.770495 0
M  V30 2929 C 281.303 -1.15985 -1.23466 0
M  V30 2930 O 282.509 -1.34176 -1.19987 0
M  V30 2931 H 278.884 -0.703095 -0.266761 0
M  V30 2932 H 280.855 -2.97613 -0.216542 0
M  V30 2933 C 279.604 -2.85264 -1.98796 0
M  V30 2934 H 278.927 -3.64623 -1.63983 0
M  V30 2935 H 280.367 -3.327 -2.62843 0
M  V30 2936 C 278.826 -1.85239 -2.81404 0
M  V30 2937 O 279.356 -1.34024 -3.78682 0
M  V30 2938 N 277.562 -1.53911 -2.46495 0
M  V30 2939 H 277.109 -1.95751 -1.67449 0
M  V30 2940 H 277.067 -0.872382 -3.02054 0
M  V30 2941 N 280.839 0.0985539 -1.57292 0
M  V30 2942 C 282.088 0.801358 -1.85098 0
M  V30 2943 C 282.401 1.80066 -0.763902 0
M  V30 2944 O 283.607 2.55112 -0.928981 0
M  V30 2945 C 282.063 1.47599 -3.28242 0
M  V30 2946 C 281.671 0.516624 -4.45011 0
M  V30 2947 C 283.415 2.16272 -3.65276 0
M  V30 2948 C 281.322 1.19564 -5.79188 0
M  V30 2949 H 280.252 0.303022 -0.69043 0
M  V30 2950 H 282.903 0.0542623 -1.8342 0
M  V30 2951 H 281.285 2.27042 -3.2445 0
M  V30 2952 H 282.459 -0.246065 -4.60143 0
M  V30 2953 H 280.774 -0.064227 -4.1635 0
M  V30 2954 H 283.371 2.67802 -4.62803 0
M  V30 2955 H 283.714 2.95009 -2.93727 0
M  V30 2956 H 284.247 1.43693 -3.70941 0
M  V30 2957 H 280.986 0.449157 -6.53959 0
M  V30 2958 H 280.506 1.92984 -5.67906 0
M  V30 2959 H 282.185 1.7231 -6.23633 0
M  V30 2960 N 282.317 1.53212 0.369288 0
M  V30 2961 C 283.247 1.82365 1.45826 0
M  V30 2962 C 284.228 0.676907 1.56051 0
M  V30 2963 O 285.413 0.926401 1.70679 0
M  V30 2964 C 282.543 2.01023 2.83208 0
M  V30 2965 C 281.497 3.1678 2.8781 0
M  V30 2966 C 280.823 3.20724 4.27832 0
M  V30 2967 C 282.123 4.55447 2.55667 0
M  V30 2968 H 283.817 2.73559 1.21678 0
M  V30 2969 H 281.363 1.3163 0.583911 0
M  V30 2970 H 283.316 2.20001 3.59413 0
M  V30 2971 H 282.04 1.06536 3.08736 0
M  V30 2972 H 280.699 2.97616 2.14056 0
M  V30 2973 H 280.347 2.23882 4.50429 0
M  V30 2974 H 280.047 3.98496 4.31827 0
M  V30 2975 H 281.571 3.41881 5.05915 0
M  V30 2976 H 282.985 4.74611 3.21586 0
M  V30 2977 H 281.382 5.35432 2.70984 0
M  V30 2978 H 282.452 4.60812 1.5093 0
M  V30 2979 N 283.795 -0.628877 1.44509 0
M  V30 2980 C 284.728 -1.75367 1.46019 0
M  V30 2981 C 285.706 -1.59444 0.318787 0
M  V30 2982 O 286.89 -1.81297 0.516099 0
M  V30 2983 C 284.017 -3.12965 1.29501 0
M  V30 2984 C 283.063 -3.47532 2.47233 0
M  V30 2985 S 283.896 -3.44758 4.09758 0
M  V30 2986 C 285.052 -4.84973 3.95667 0
M  V30 2987 H 285.285 -1.7382 2.41193 0
M  V30 2988 H 282.818 -0.803686 1.31834 0
M  V30 2989 H 284.776 -3.92367 1.20658 0
M  V30 2990 H 283.437 -3.12049 0.358341 0
M  V30 2991 H 282.63 -4.47664 2.31544 0
M  V30 2992 H 282.232 -2.75598 2.52828 0
M  V30 2993 H 284.524 -5.74255 3.59496 0
M  V30 2994 H 285.467 -5.05716 4.95638 0
M  V30 2995 H 285.875 -4.59653 3.27688 0
M  V30 2996 N 285.273 -1.31445 -0.869486 0
M  V30 2997 C 286.501 -1.24122 -1.65534 0
M  V30 2998 C 286.916 0.193387 -1.87807 0
M  V30 2999 O 286.273 1.12557 -1.43656 0
M  V30 3000 C 286.324 -1.98229 -3.02304 0
M  V30 3001 O 286.045 -3.3609 -2.81026 0
M  V30 3002 C 287.546 -1.97751 -3.96749 0
M  V30 3003 H 284.766 -0.428868 -0.516055 0
M  V30 3004 H 287.31 -1.73328 -1.08525 0
M  V30 3005 H 285.465 -1.52782 -3.56001 0
M  V30 3006 H 285.879 -3.7383 -3.67902 0
M  V30 3007 H 287.353 -2.54114 -4.90031 0
M  V30 3008 H 287.83 -0.960137 -4.28577 0
M  V30 3009 H 288.436 -2.43079 -3.48988 0
M  V30 3010 N 286.751 1.08385 -1.14413 0
M  V30 3011 C 288.162 1.62258 -0.923535 0
M  V30 3012 C 288.513 1.88691 0.537595 0
M  V30 3013 O 287.638 1.64454 1.40655 0
M  V30 3014 C 288.233 2.94781 -1.67002 0
M  V30 3015 C 286.792 3.45437 -1.495 0
M  V30 3016 C 285.939 2.19668 -1.69238 0
M  V30 3017 H 288.89 0.916086 -1.2959 0
M  V30 3018 H 288.911 3.63229 -1.13334 0
M  V30 3019 H 288.423 2.7551 -2.73342 0
M  V30 3020 H 286.524 3.6981 -0.455097 0
M  V30 3021 H 286.637 4.22173 -2.2651 0
M  V30 3022 H 285.001 2.28849 -1.11804 0
M  V30 3023 H 285.784 2.02905 -2.7692 0
M  V30 3024 N 288.23 0.939286 1.26551 0
M  V30 3025 C 289.193 0.451987 2.24699 0
M  V30 3026 C 290.193 -0.435869 1.5478 0
M  V30 3027 O 291.383 -0.235314 1.72603 0
M  V30 3028 C 288.515 -0.348801 3.39111 0
M  V30 3029 H 289.708 1.3193 2.69322 0
M  V30 3030 H 287.261 0.721072 1.38673 0
M  V30 3031 H 287.996 -1.23444 2.99887 0
M  V30 3032 H 287.781 0.287945 3.91041 0
M  V30 3033 H 289.271 -0.679726 4.12031 0
M  V30 3034 N 289.708 -1.40897 0.706093 0
M  V30 3035 C 290.933 -2.05895 0.249435 0
M  V30 3036 C 291.358 -1.52823 -1.09666 0
M  V30 3037 O 290.716 -0.659589 -1.68876 0
M  V30 3038 C 290.764 -3.59872 0.22904 0
M  V30 3039 O 289.868 -4.04708 -0.792784 0
M  V30 3040 H 289.209 -0.653206 0.119241 0
M  V30 3041 H 291.739 -1.80471 0.96391 0
M  V30 3042 H 291.749 -4.07951 0.0634791 0
M  V30 3043 H 290.424 -3.97866 1.21141 0
M  V30 3044 H 289.001 -3.68111 -0.59572 0
M  V30 3045 N 291.186 -0.45159 -1.50991 0
M  V30 3046 C 292.602 -0.104647 -1.59257 0
M  V30 3047 C 292.802 1.38728 -1.4614 0
M  V30 3048 O 291.858 2.15866 -1.30989 0
M  V30 3049 C 293.171 -0.637468 -2.93865 0
M  V30 3050 C 294.719 -0.599166 -3.07212 0
M  V30 3051 C 295.194 -1.1092 -4.44366 0
M  V30 3052 N 296.685 -1.06778 -4.50725 0
M  V30 3053 C 297.42 -1.43314 -5.55201 0
M  V30 3054 N 296.916 -1.87204 -6.67028 0
M  V30 3055 N 298.709 -1.3504 -5.45638 0
M  V30 3056 H 290.86 -1.42214 -1.57762 0
M  V30 3057 H 293.123 -0.586921 -0.744465 0
M  V30 3058 H 292.829 -1.68187 -3.08879 0
M  V30 3059 H 292.703 -0.0702139 -3.77135 0
M  V30 3060 H 295.09 0.436277 -2.91857 0
M  V30 3061 H 295.171 -1.20299 -2.25747 0
M  V30 3062 H 294.815 -2.14318 -4.60467 0
M  V30 3063 H 294.745 -0.481773 -5.24392 0
M  V30 3064 H 297.236 -0.745643 -3.70471 0
M  V30 3065 H 297.549 -2.13282 -7.42786 0
M  V30 3066 H 295.894 -1.91142 -6.68199 0
M  V30 3067 H 299.085 -1.00607 -4.57161 0
M  V30 3068 H 299.258 -1.63841 -6.26945 0
M  V30 3069 N 292.664 1.56529 -0.183458 0
M  V30 3070 C 293.911 1.97244 0.458357 0
M  V30 3071 C 294.239 1.06992 1.62428 0
M  V30 3072 O 293.494 0.106542 1.9541 0
M  V30 3073 C 293.793 3.43939 0.971637 0
M  V30 3074 C 293.459 4.5083 -0.0796784 0
M  V30 3075 C 292.121 4.79786 -0.368584 0
M  V30 3076 C 294.473 5.15138 -0.792638 0
M  V30 3077 C 291.801 5.70345 -1.37563 0
M  V30 3078 C 294.153 6.06784 -1.78875 0
M  V30 3079 C 292.817 6.34102 -2.08497 0
M  V30 3080 H 292.087 0.721768 0.167725 0
M  V30 3081 H 294.734 1.89472 -0.277976 0
M  V30 3082 H 293.039 3.48724 1.78602 0
M  V30 3083 H 294.736 3.72791 1.47744 0
M  V30 3084 H 291.326 4.28317 0.155668 0
M  V30 3085 H 295.51 4.92868 -0.582659 0
M  V30 3086 H 290.766 5.89789 -1.61118 0
M  V30 3087 H 294.94 6.55677 -2.3465 0
M  V30 3088 H 292.567 7.04074 -2.86678 0
M  V30 3089 N 294.142 -0.090211 1.57342 0
M  V30 3090 C 295.388 -0.793982 1.86611 0
M  V30 3091 C 295.721 -1.78142 0.773252 0
M  V30 3092 O 294.996 -1.93271 -0.218304 0
M  V30 3093 C 295.279 -1.51839 3.26523 0
M  V30 3094 C 295.132 -0.548609 4.46442 0
M  V30 3095 C 296.451 -2.46779 3.64401 0
M  V30 3096 H 293.57 -0.287186 0.678744 0
M  V30 3097 H 296.212 -0.0575076 1.89913 0
M  V30 3098 H 294.362 -2.14617 3.23839 0
M  V30 3099 H 296.034 0.0725513 4.61243 0
M  V30 3100 H 294.277 0.137614 4.33582 0
M  V30 3101 H 294.948 -1.09271 5.41076 0
M  V30 3102 H 297.424 -1.94089 3.68061 0
M  V30 3103 H 296.3 -2.94479 4.63221 0
M  V30 3104 H 296.561 -3.30758 2.93346 0
M  V30 3105 N 295.62 -1.53406 -0.361157 0
M  V30 3106 C 296.845 -1.74024 -1.12829 0
M  V30 3107 C 297.27 -0.470069 -1.82132 0
M  V30 3108 O 296.628 0.57619 -1.719 0
M  V30 3109 C 296.676 -2.90903 -2.13091 0
M  V30 3110 O 295.78 -2.59821 -3.20261 0
M  V30 3111 H 295.121 -0.577804 -0.327168 0
M  V30 3112 H 297.651 -2.00307 -0.41693 0
M  V30 3113 H 297.661 -3.17194 -2.56616 0
M  V30 3114 H 296.336 -3.83034 -1.62042 0
M  V30 3115 H 294.913 -2.44362 -2.81677 0
M  V30 3116 N 297.098 0.621204 -1.44841 0
M  V30 3117 C 298.046 1.75385 -1.52784 0
M  V30 3118 C 299.04 1.64639 -0.398779 0
M  V30 3119 O 300.246 1.70598 -0.574137 0
M  V30 3120 H 296.621 0.579193 -0.479625 0
M  V30 3121 H 298.592 1.6581 -2.48092 0
M  V30 3122 C 297.341 3.13742 -1.4987 0
M  V30 3123 H 296.664 3.22663 -2.36069 0
M  V30 3124 H 298.104 3.92861 -1.59487 0
M  V30 3125 C 296.563 3.36175 -0.220973 0
M  V30 3126 O 297.093 3.95469 0.704782 0
M  V30 3127 N 295.299 2.90348 -0.120963 0
M  V30 3128 H 294.846 2.42278 -0.875162 0
M  V30 3129 H 294.804 3.05732 0.733168 0
M  V30 3130 N 298.576 1.31904 0.862503 0
M  V30 3131 C 299.539 1.20131 1.95195 0
M  V30 3132 C 300.539 0.126409 1.60302 0
M  V30 3133 O 301.729 0.376234 1.70089 0
M  V30 3134 C 298.861 0.845691 3.30244 0
M  V30 3135 H 300.054 2.16943 2.07064 0
M  V30 3136 H 297.607 1.15622 1.05172 0
M  V30 3137 H 298.342 -0.120957 3.24074 0
M  V30 3138 H 298.127 1.62276 3.56944 0
M  V30 3139 H 299.617 0.787418 4.10109 0
M  V30 3140 N 300.054 -1.07777 1.14986 0
M  V30 3141 C 301.331 -1.7699 0.832695 0
M  V30 3142 C 301.711 -2.001 -0.672561 0
M  V30 3143 O 301.059 -1.61598 -1.6155 0
M  V30 3144 C 301.269 -3.08139 1.63863 0
M  V30 3145 C 302.617 -3.8256 1.84208 0
M  V30 3146 O 303.641 -3.17939 1.60603 0
M  V30 3147 O 302.5 -4.98612 2.23714 0
M  V30 3148 H 299.594 -0.768389 0.305791 0
M  V30 3149 H 302.14 -1.14182 1.25541 0
M  V30 3150 H 300.912 -2.86909 2.6608 0
M  V30 3151 H 300.535 -3.78678 1.21197 0
M  V30 3152 N 301.532 -0.945985 -1.26051 0
M  V30 3153 C 302.462 -0.477172 -2.28572 0
M  V30 3154 C 303.443 0.472032 -1.63419 0
M  V30 3155 O 304.628 0.372853 -1.90587 0
M  V30 3156 C 301.758 0.253975 -3.4637 0
M  V30 3157 C 300.712 -0.609135 -4.23643 0
M  V30 3158 C 300.038 0.252252 -5.34105 0
M  V30 3159 C 301.338 -1.8829 -4.8718 0
M  V30 3160 H 303.032 -1.33402 -2.68038 0
M  V30 3161 H 300.578 -0.642904 -1.28852 0
M  V30 3162 H 302.531 0.593016 -4.17207 0
M  V30 3163 H 301.255 1.145 -3.05871 0
M  V30 3164 H 299.914 -0.931138 -3.54578 0
M  V30 3165 H 299.562 1.14278 -4.89846 0
M  V30 3166 H 299.262 -0.32188 -5.86718 0
M  V30 3167 H 300.786 0.586454 -6.07777 0
M  V30 3168 H 302.2 -1.61081 -5.50205 0
M  V30 3169 H 300.597 -2.40199 -5.49931 0
M  V30 3170 H 301.667 -2.59134 -4.09851 0
M  V30 3171 N 303.011 1.40521 -0.713556 0
M  V30 3172 C 303.943 2.29191 -0.0203126 0
M  V30 3173 C 304.956 1.45723 0.725864 0
M  V30 3174 O 306.145 1.69033 0.573581 0
M  V30 3175 C 303.245 3.2395 0.995486 0
M  V30 3176 C 302.418 4.36262 0.315256 0
M  V30 3177 C 301.477 5.11474 1.23616 0
M  V30 3178 O 300.503 5.64606 0.721719 0
M  V30 3179 N 301.705 5.20638 2.56743 0
M  V30 3180 H 304.47 2.89327 -0.781652 0
M  V30 3181 H 302.031 1.51869 -0.561022 0
M  V30 3182 H 304.023 3.71137 1.61368 0
M  V30 3183 H 302.593 2.64995 1.6582 0
M  V30 3184 H 301.813 3.91228 -0.483106 0
M  V30 3185 H 303.101 5.08558 -0.157004 0
M  V30 3186 H 302.499 4.7895 3.01037 0
M  V30 3187 H 301.056 5.71339 3.13712 0
M  V30 3188 N 304.489 0.459591 1.5075 0
M  V30 3189 C 305.717 -0.0973749 2.06671 0
M  V30 3190 C 306.132 -1.34524 1.32472 0
M  V30 3191 O 305.489 -1.7827 0.390634 0
M  V30 3192 C 305.54 -0.39714 3.59312 0
M  V30 3193 O 305.261 0.801214 4.30711 0
M  V30 3194 C 306.762 -1.00234 4.31819 0
M  V30 3195 H 303.982 0.00195854 0.670997 0
M  V30 3196 H 306.526 0.645072 1.94059 0
M  V30 3197 H 304.681 -1.08951 3.71764 0
M  V30 3198 H 305.095 0.538857 5.21725 0
M  V30 3199 H 306.569 -1.16193 5.39632 0
M  V30 3200 H 307.046 -1.98939 3.91561 0
M  V30 3201 H 307.652 -0.348699 4.23868 0
M  V30 3202 N 305.967 -1.56429 0.191757 0
M  V30 3203 C 306.897 -2.21937 -0.725696 0
M  V30 3204 C 307.878 -1.1814 -1.2238 0
M  V30 3205 O 309.063 -1.46636 -1.27325 0
M  V30 3206 C 306.193 -2.87611 -1.94672 0
M  V30 3207 C 305.147 -3.97623 -1.58366 0
M  V30 3208 C 304.473 -4.50446 -2.88102 0
M  V30 3209 C 305.773 -5.16197 -0.796133 0
M  V30 3210 H 307.467 -2.98861 -0.179606 0
M  V30 3211 H 305.013 -1.43749 -0.0849464 0
M  V30 3212 H 306.966 -3.3212 -2.59373 0
M  V30 3213 H 305.69 -2.08087 -2.51728 0
M  V30 3214 H 304.349 -3.53801 -0.960247 0
M  V30 3215 H 303.997 -3.67688 -3.43241 0
M  V30 3216 H 303.697 -5.24675 -2.64556 0
M  V30 3217 H 305.221 -4.97654 -3.53798 0
M  V30 3218 H 306.635 -5.57271 -1.34618 0
M  V30 3219 H 305.032 -5.96471 -0.658928 0
M  V30 3220 H 306.102 -4.84473 0.203478 0
M  V30 3221 N 307.445 0.0818655 -1.57387 0
M  V30 3222 C 308.856 0.634871 -1.75574 0
M  V30 3223 C 309.207 1.78435 -0.815809 0
M  V30 3224 O 308.332 2.164 0.0025366 0
M  V30 3225 C 308.927 1.15845 -3.18379 0
M  V30 3226 C 307.486 1.65741 -3.37945 0
M  V30 3227 C 306.633 0.572549 -2.71325 0
M  V30 3228 H 309.584 -0.144268 -1.58043 0
M  V30 3229 H 309.605 2.02751 -3.21982 0
M  V30 3230 H 309.117 0.321631 -3.86765 0
M  V30 3231 H 307.218 2.51781 -2.74658 0
M  V30 3232 H 307.331 1.74129 -4.46336 0
M  V30 3233 H 305.695 1.01518 -2.33594 0
M  V30 3234 H 306.478 -0.253918 -3.4236 0
M  V30 3235 N 308.923 1.53595 0.353017 0
M  V30 3236 C 309.886 1.80232 1.41594 0
M  V30 3237 C 310.886 0.673081 1.46035 0
M  V30 3238 O 312.076 0.941335 1.46576 0
M  V30 3239 C 309.208 1.93578 2.80607 0
M  V30 3240 H 310.401 2.75174 1.19244 0
M  V30 3241 H 307.954 1.44864 0.586872 0
M  V30 3242 H 308.689 1.00746 3.08254 0
M  V30 3243 H 308.474 2.75724 2.78781 0
M  V30 3244 H 309.964 2.15735 3.57558 0
M  V30 3245 N 310.401 -0.613514 1.45168 0
M  V30 3246 C 311.649 -1.36997 1.48581 0
M  V30 3247 C 311.97 -1.94589 0.126545 0
M  V30 3248 O 311.24 -1.76816 -0.843372 0
M  V30 3249 H 309.82 -0.508558 0.547154 0
M  V30 3250 H 312.482 -0.720853 1.81079 0
M  V30 3251 H 311.578 -2.1924 2.22127 0
M  V30 3252 N 311.879 -1.3236 -0.855495 0
M  V30 3253 C 312.842 -1.21164 -1.94556 0
M  V30 3254 C 313.842 -0.134908 -1.60233 0
M  V30 3255 O 315.032 -0.385249 -1.69887 0
M  V30 3256 C 312.164 -0.863192 -3.29791 0
M  V30 3257 H 313.357 -2.18038 -2.05911 0
M  V30 3258 H 310.91 -1.16179 -1.04557 0
M  V30 3259 H 311.645 0.103769 -3.24134 0
M  V30 3260 H 311.43 -1.64166 -3.56078 0
M  V30 3261 H 312.92 -0.809156 -4.09686 0
M  V30 3262 N 313.357 1.07166 -1.15556 0
M  V30 3263 C 314.287 2.16403 -0.877046 0
M  V30 3264 C 315.268 1.69217 0.173111 0
M  V30 3265 O 316.453 1.94181 0.027084 0
M  V30 3266 C 313.583 3.45349 -0.367632 0
M  V30 3267 C 312.537 4.05995 -1.35468 0
M  V30 3268 C 311.863 5.30045 -0.704038 0
M  V30 3269 C 313.163 4.45804 -2.72132 0
M  V30 3270 H 314.857 2.39959 -1.79053 0
M  V30 3271 H 312.403 1.15325 -0.862331 0
M  V30 3272 H 314.356 4.21095 -0.160317 0
M  V30 3273 H 313.08 3.21385 0.581326 0
M  V30 3274 H 311.739 3.32296 -1.54839 0
M  V30 3275 H 311.387 5.02373 0.251128 0
M  V30 3276 H 311.087 5.71579 -1.36277 0
M  V30 3277 H 312.611 6.08495 -0.50654 0
M  V30 3278 H 314.025 5.12671 -2.56595 0
M  V30 3279 H 312.422 4.98296 -3.34397 0
M  V30 3280 H 313.492 3.57083 -3.28054 0
M  V30 3281 N 314.835 0.952656 1.25548 0
M  V30 3282 C 316.251 0.656769 1.4546 0
M  V30 3283 C 316.451 -0.78633 1.85524 0
M  V30 3284 O 315.507 -1.56183 1.98402 0
M  V30 3285 C 316.82 1.62801 2.52817 0
M  V30 3286 C 318.368 1.63897 2.66659 0
M  V30 3287 C 318.843 2.5978 3.77198 0
M  V30 3288 N 320.334 2.58133 3.84606 0
M  V30 3289 C 321.069 3.29003 4.69621 0
M  V30 3290 N 320.565 4.09339 5.58939 0
M  V30 3291 N 322.358 3.179 4.63569 0
M  V30 3292 H 314.509 1.88526 0.978344 0
M  V30 3293 H 316.772 0.810815 0.491206 0
M  V30 3294 H 316.478 2.65869 2.30232 0
M  V30 3295 H 316.352 1.38898 3.50695 0
M  V30 3296 H 318.739 0.615481 2.8861 0
M  V30 3297 H 318.82 1.91858 1.69187 0
M  V30 3298 H 318.464 3.62254 3.55997 0
M  V30 3299 H 318.394 2.29105 4.7415 0
M  V30 3300 H 320.885 1.99809 3.20757 0
M  V30 3301 H 321.198 4.6034 6.20731 0
M  V30 3302 H 319.543 4.13438 5.58654 0
M  V30 3303 H 322.734 2.54612 3.92798 0
M  V30 3304 H 322.907 3.73398 5.29602 0
M  V30 3305 N 316.313 -1.40141 0.720998 0
M  V30 3306 C 317.561 -2.0039 0.262323 0
M  V30 3307 C 317.882 -1.57469 -1.15015 0
M  V30 3308 O 317.152 -0.816582 -1.78069 0
M  V30 3309 H 315.732 -0.741063 0.093996 0
M  V30 3310 H 318.394 -1.71398 0.927835 0
M  V30 3311 H 317.49 -3.10658 0.299671 0
M  V30 3312 N 317.792 -0.46758 -1.50504 0
M  V30 3313 C 318.739 0.328413 -2.28452 0
M  V30 3314 C 319.709 0.990313 -1.33349 0
M  V30 3315 O 320.894 1.00343 -1.62284 0
M  V30 3316 C 318.034 1.40648 -3.15138 0
M  V30 3317 C 317.147 0.759709 -4.25267 0
M  V30 3318 C 316.282 1.81537 -4.99217 0
M  V30 3319 C 315.321 1.14866 -6.01226 0
M  V30 3320 N 314.458 2.14702 -6.68467 0
M  V30 3321 H 319.298 -0.342603 -2.96024 0
M  V30 3322 H 316.835 -0.180801 -1.45985 0
M  V30 3323 H 318.793 2.04315 -3.63746 0
M  V30 3324 H 317.423 2.04671 -2.49619 0
M  V30 3325 H 316.475 0.0105671 -3.80399 0
M  V30 3326 H 317.787 0.233243 -4.98254 0
M  V30 3327 H 316.941 2.52793 -5.51526 0
M  V30 3328 H 315.68 2.37564 -4.25928 0
M  V30 3329 H 314.685 0.42171 -5.4818 0
M  V30 3330 H 315.91 0.595334 -6.76485 0
M  V30 3331 H 313.856 2.69752 -5.97972 0
M  V30 3332 H 313.773 1.6703 -7.37317 0
M  V30 3333 H 315.041 2.85348 -7.25394 0
M  V30 3334 N 319.27 1.56325 -0.20005 0
M  V30 3335 C 320.519 1.96895 0.437652 0
M  V30 3336 C 320.832 1.08999 1.62415 0
M  V30 3337 O 322.038 1.39372 2.32997 0
M  V30 3338 C 320.494 3.50198 0.830025 0
M  V30 3339 C 320.102 4.46765 -0.332461 0
M  V30 3340 C 321.846 3.99526 1.43453 0
M  V30 3341 C 319.753 5.91344 0.0811468 0
M  V30 3342 H 318.683 0.735209 0.167282 0
M  V30 3343 H 321.334 1.81148 -0.292853 0
M  V30 3344 H 319.716 3.61467 1.61734 0
M  V30 3345 H 320.89 4.47231 -1.11 0
M  V30 3346 H 319.205 4.07657 -0.848789 0
M  V30 3347 H 321.802 5.05025 1.75652 0
M  V30 3348 H 322.145 3.44122 2.34277 0
M  V30 3349 H 322.678 3.91393 0.71109 0
M  V30 3350 H 319.417 6.50685 -0.793033 0
M  V30 3351 H 318.937 5.94121 0.823445 0
M  V30 3352 H 320.616 6.44945 0.515252 0
M  V30 3353 N 320.748 -0.0735177 1.57428 0
M  V30 3354 C 321.994 -0.774145 1.87443 0
M  V30 3355 C 322.327 -1.77311 0.792103 0
M  V30 3356 O 321.602 -1.93492 -0.197793 0
M  V30 3357 C 321.885 -1.48367 3.28115 0
M  V30 3358 C 321.738 -0.501227 4.46999 0
M  V30 3359 C 323.057 -2.429 3.66998 0
M  V30 3360 H 320.176 -0.279971 0.681752 0
M  V30 3361 H 322.818 -0.0373616 1.89963 0
M  V30 3362 H 320.968 -2.11171 3.26097 0
M  V30 3363 H 322.64 0.121468 4.6114 0
M  V30 3364 H 320.883 0.183593 4.33411 0
M  V30 3365 H 321.554 -1.03526 5.42205 0
M  V30 3366 H 324.03 -1.90175 3.70098 0
M  V30 3367 H 322.906 -2.89549 4.66318 0
M  V30 3368 H 323.167 -3.27628 2.96837 0
M  V30 3369 N 322.226 -1.5378 -0.344866 0
M  V30 3370 C 323.637 -1.62428 -0.920552 0
M  V30 3371 C 323.988 -0.504747 -1.89596 0
M  V30 3372 O 323.113 0.365711 -2.13287 0
M  V30 3373 C 323.708 -2.94419 -1.67639 0
M  V30 3374 C 322.267 -3.05333 -2.20111 0
M  V30 3375 C 321.414 -2.57866 -1.01982 0
M  V30 3376 H 324.365 -1.58222 -0.123042 0
M  V30 3377 H 324.386 -2.83384 -2.53917 0
M  V30 3378 H 323.898 -3.7588 -0.966224 0
M  V30 3379 H 321.999 -2.28502 -2.94308 0
M  V30 3380 H 322.112 -4.10778 -2.46573 0
M  V30 3381 H 320.476 -2.13241 -1.39285 0
M  V30 3382 H 321.259 -3.41765 -0.324308 0
M  V30 3383 N 323.704 0.605807 -1.45491 0
M  V30 3384 C 324.932 1.39136 -1.5313 0
M  V30 3385 C 325.347 1.88082 -0.164507 0
M  V30 3386 O 324.704 1.62316 0.834247 0
M  V30 3387 C 324.755 2.59463 -2.51716 0
M  V30 3388 O 324.476 2.12551 -3.83084 0
M  V30 3389 C 325.977 3.52301 -2.6907 0
M  V30 3390 H 323.197 0.425849 -0.51855 0
M  V30 3391 H 325.741 0.73865 -1.90694 0
M  V30 3392 H 323.896 3.20772 -2.17219 0
M  V30 3393 H 324.31 2.90744 -4.36541 0
M  V30 3394 H 325.784 4.33271 -3.42024 0
M  V30 3395 H 326.261 4.02757 -1.75167 0
M  V30 3396 H 326.867 2.96845 -3.04571 0
M  V30 3397 N 325.182 1.32811 0.848464 0
M  V30 3398 C 326.593 1.21315 1.41914 0
M  V30 3399 C 326.944 -0.171847 1.95446 0
M  V30 3400 O 326.069 -1.07093 1.88043 0
M  V30 3401 C 326.664 2.19631 2.57968 0
M  V30 3402 C 325.223 2.12003 3.11017 0
M  V30 3403 C 324.37 2.07651 1.83783 0
M  V30 3404 H 327.321 1.44549 0.655071 0
M  V30 3405 H 327.342 1.79845 3.35315 0
M  V30 3406 H 326.854 3.20423 2.18976 0
M  V30 3407 H 324.955 1.14481 3.54577 0
M  V30 3408 H 325.068 3.02111 3.71841 0
M  V30 3409 H 323.432 1.52983 2.03638 0
M  V30 3410 H 324.215 3.10235 1.47 0
M  V30 3411 N 326.66 -1.06551 1.16123 0
M  V30 3412 C 327.593 -2.13382 0.80892 0
M  V30 3413 C 328.571 -1.61128 -0.21827 0
M  V30 3414 O 329.755 -1.88219 -0.102952 0
M  V30 3415 C 326.882 -3.38083 0.204303 0
M  V30 3416 C 325.928 -4.09133 1.20469 0
M  V30 3417 S 326.761 -4.5948 2.75024 0
M  V30 3418 C 327.917 -5.87446 2.16005 0
M  V30 3419 H 328.15 -2.42937 1.71373 0
M  V30 3420 H 325.683 -1.18947 0.984428 0
M  V30 3421 H 327.641 -4.10268 -0.138081 0
M  V30 3422 H 326.302 -3.0669 -0.678234 0
M  V30 3423 H 325.495 -4.98685 0.730019 0
M  V30 3424 H 325.097 -3.4295 1.49202 0
M  V30 3425 H 327.389 -6.60065 1.5271 0
M  V30 3426 H 328.332 -6.39639 3.03756 0
M  V30 3427 H 328.74 -5.41354 1.59989 0
M  V30 3428 N 328.138 -0.959301 -1.25041 0
M  V30 3429 C 329.07 -0.440543 -2.24926 0
M  V30 3430 C 330.083 0.446131 -1.56568 0
M  V30 3431 O 331.272 0.253657 -1.76689 0
M  V30 3432 C 328.372 0.38412 -3.36716 0
M  V30 3433 C 327.545 -0.490658 -4.34639 0
M  V30 3434 C 326.604 0.276587 -5.25473 0
M  V30 3435 O 325.63 -0.326614 -5.68262 0
M  V30 3436 N 326.832 1.56844 -5.5891 0
M  V30 3437 H 329.597 -1.29931 -2.70071 0
M  V30 3438 H 327.158 -0.830181 -1.38995 0
M  V30 3439 H 329.15 0.905228 -3.94446 0
M  V30 3440 H 327.72 1.14377 -2.90924 0
M  V30 3441 H 326.94 -1.19282 -3.7572 0
M  V30 3442 H 328.228 -1.08756 -4.97041 0
M  V30 3443 H 327.626 2.08036 -5.26059 0
M  V30 3444 H 326.183 2.03541 -6.19205 0
M  V30 3445 N 329.616 1.39756 -0.72842 0
M  V30 3446 C 330.862 2.00942 -0.273892 0
M  V30 3447 C 331.195 1.57656 1.13394 0
M  V30 3448 O 330.47 0.802434 1.77176 0
M  V30 3449 C 330.753 3.58211 -0.368346 0
M  V30 3450 C 330.606 4.11534 -1.81548 0
M  V30 3451 C 331.925 4.39372 0.253054 0
M  V30 3452 H 329.044 0.730047 -0.100996 0
M  V30 3453 H 331.686 1.66056 -0.923337 0
M  V30 3454 H 329.836 3.88061 0.184588 0
M  V30 3455 H 331.508 3.92431 -2.42478 0
M  V30 3456 H 329.751 3.65341 -2.33898 0
M  V30 3457 H 330.422 5.20682 -1.83288 0
M  V30 3458 H 332.898 4.15527 -0.218224 0
M  V30 3459 H 331.774 5.48677 0.156585 0
M  V30 3460 H 332.035 4.21358 1.33826 0
M  V30 3461 N 331.094 0.475555 1.50254 0
M  V30 3462 C 332.041 -0.316293 2.28622 0
M  V30 3463 C 333.011 -0.983227 1.33873 0
M  V30 3464 O 334.196 -0.994805 1.62814 0
M  V30 3465 C 331.336 -1.38975 3.1588 0
M  V30 3466 C 330.449 -0.737146 4.25664 0
M  V30 3467 C 329.584 -1.78887 5.00173 0
M  V30 3468 C 328.623 -1.11676 6.01826 0
M  V30 3469 N 327.76 -2.11154 6.69596 0
M  V30 3470 H 332.6 0.358297 2.95838 0
M  V30 3471 H 330.137 0.188541 1.45887 0
M  V30 3472 H 332.095 -2.02383 3.64825 0
M  V30 3473 H 330.725 -2.03344 2.50701 0
M  V30 3474 H 329.777 0.0096065 3.80399 0
M  V30 3475 H 331.089 -0.206816 4.98371 0
M  V30 3476 H 330.243 -2.49865 5.52859 0
M  V30 3477 H 328.982 -2.35302 4.27182 0
M  V30 3478 H 327.987 -0.392633 5.48396 0
M  V30 3479 H 329.212 -0.55945 6.76792 0
M  V30 3480 H 327.158 -2.66577 5.99394 0
M  V30 3481 H 327.075 -1.63118 7.38193 0
M  V30 3482 H 328.343 -2.81497 7.26897 0
M  V30 3483 N 332.573 -1.56217 0.208337 0
M  V30 3484 C 333.819 -1.98242 -0.427552 0
M  V30 3485 C 334.152 -1.09554 -1.60348 0
M  V30 3486 O 333.427 -0.15035 -1.93918 0
M  V30 3487 C 333.71 -3.4931 -0.874907 0
M  V30 3488 C 333.563 -4.48773 0.303751 0
M  V30 3489 C 334.882 -4.04424 -1.73577 0
M  V30 3490 H 332.001 -0.720744 -0.153936 0
M  V30 3491 H 334.643 -1.87586 0.30192 0
M  V30 3492 H 332.793 -3.58522 -1.49648 0
M  V30 3493 H 334.465 -4.51586 0.941682 0
M  V30 3494 H 332.708 -4.23194 0.953375 0
M  V30 3495 H 333.379 -5.51976 -0.0519883 0
M  V30 3496 H 335.855 -3.98075 -1.21143 0
M  V30 3497 H 334.731 -5.1047 -2.01771 0
M  V30 3498 H 334.992 -3.50494 -2.69456 0
M  V30 3499 N 334.051 0.0651679 -1.57465 0
M  V30 3500 C 335.001 1.0838 -2.00594 0
M  V30 3501 C 335.985 1.34106 -0.889071 0
M  V30 3502 O 337.177 1.34295 -1.15299 0
M  V30 3503 C 334.306 2.39565 -2.45894 0
M  V30 3504 C 333.392 2.17085 -3.64328 0
M  V30 3505 N 333.783 1.64553 -4.78285 0
M  V30 3506 C 332.081 2.4753 -3.71006 0
M  V30 3507 C 332.782 1.57042 -5.60101 0
M  V30 3508 N 331.758 2.03328 -5.04141 0
M  V30 3509 H 335.56 0.671062 -2.86136 0
M  V30 3510 H 333.074 0.27213 -1.60104 0
M  V30 3511 H 335.071 3.13308 -2.75034 0
M  V30 3512 H 333.731 2.81549 -1.61741 0
M  V30 3513 H 334.742 1.33323 -5.00445 0
M  V30 3514 H 331.419 2.92835 -2.9758 0
M  V30 3515 H 332.809 1.17223 -6.61595 0
M  V30 3516 N 335.529 1.53961 0.336706 0
M  V30 3517 C 336.492 1.81724 1.39675 0
M  V30 3518 C 337.492 0.688532 1.45313 0
M  V30 3519 O 338.682 0.956829 1.45569 0
M  V30 3520 C 335.814 1.96543 2.78538 0
M  V30 3521 H 337.007 2.76424 1.16318 0
M  V30 3522 H 334.56 1.45478 0.571474 0
M  V30 3523 H 335.295 1.0401 3.07168 0
M  V30 3524 H 335.08 2.78665 2.75841 0
M  V30 3525 H 336.57 2.19516 3.5525 0
M  V30 3526 N 337.007 -0.598083 1.45811 0
M  V30 3527 C 337.939 -1.72231 1.51225 0
M  V30 3528 C 338.952 -1.57757 0.402059 0
M  V30 3529 O 340.141 -1.65464 0.669624 0
M  V30 3530 C 337.241 -3.10331 1.3619 0
M  V30 3531 C 336.414 -3.50955 2.61054 0
M  V30 3532 C 335.473 -4.68055 2.40439 0
M  V30 3533 O 334.499 -4.74691 3.14097 0
M  V30 3534 N 335.701 -5.61941 1.45612 0
M  V30 3535 H 338.466 -1.68046 2.48154 0
M  V30 3536 H 336.027 -0.783637 1.41671 0
M  V30 3537 H 338.019 -3.86439 1.20195 0
M  V30 3538 H 336.589 -3.0897 0.475015 0
M  V30 3539 H 335.809 -2.64711 2.92099 0
M  V30 3540 H 337.097 -3.74858 3.44034 0
M  V30 3541 H 336.495 -5.59301 0.848431 0
M  V30 3542 H 335.052 -6.37542 1.35585 0
M  V30 3543 N 338.485 -1.33259 -0.841409 0
M  V30 3544 C 339.762 -1.15174 -1.58096 0
M  V30 3545 C 340.142 0.282858 -2.09196 0
M  V30 3546 O 339.49 1.28151 -1.89181 0
M  V30 3547 C 339.7 -2.1907 -2.71679 0
M  V30 3548 C 341.048 -2.53093 -3.40924 0
M  V30 3549 O 342.072 -2.17717 -2.81918 0
M  V30 3550 O 340.931 -3.1379 -4.47435 0
M  V30 3551 H 338.025 -0.445303 -0.696875 0
M  V30 3552 H 340.571 -1.44833 -0.884385 0
M  V30 3553 H 339.343 -3.15443 -2.31541 0
M  V30 3554 H 338.966 -1.90481 -3.49002 0
M  V30 3555 N 339.963 1.05934 -1.16686 0
M  V30 3556 C 340.926 2.11669 -0.879144 0
M  V30 3557 C 341.926 1.60294 0.127445 0
M  V30 3558 O 343.116 1.7389 -0.103865 0
M  V30 3559 C 340.248 3.39438 -0.315425 0
M  V30 3560 H 341.441 2.38626 -1.81653 0
M  V30 3561 H 338.994 1.22058 -0.976299 0
M  V30 3562 H 339.729 3.18132 0.629468 0
M  V30 3563 H 339.514 3.78034 -1.04079 0
M  V30 3564 H 341.004 4.17391 -0.132189 0
M  V30 3565 N 341.441 0.965919 1.2453 0
M  V30 3566 C 342.718 0.543777 1.87889 0
M  V30 3567 C 343.098 -0.97909 1.87021 0
M  V30 3568 O 342.446 -1.84969 1.3416 0
M  V30 3569 C 342.656 1.13327 3.30088 0
M  V30 3570 C 344.004 1.21707 4.06783 0
M  V30 3571 O 345.028 1.08566 3.39252 0
M  V30 3572 O 343.887 1.42456 5.27606 0
M  V30 3573 H 340.981 0.181054 0.806938 0
M  V30 3574 H 343.527 1.06007 1.32516 0
M  V30 3575 H 342.299 2.17612 3.25209 0
M  V30 3576 H 341.922 0.600911 3.93033 0
M  V30 3577 N 342.919 -1.39368 0.735821 0
M  V30 3578 C 343.849 -2.33234 0.111506 0
M  V30 3579 C 344.83 -1.53954 -0.723334 0
M  V30 3580 O 346.015 -1.82344 -0.668147 0
M  V30 3581 C 343.145 -3.38057 -0.795917 0
M  V30 3582 C 342.099 -4.2795 -0.065172 0
M  V30 3583 C 341.425 -5.23479 -1.08967 0
M  V30 3584 C 342.725 -5.10741 1.09273 0
M  V30 3585 H 344.419 -2.85692 0.895571 0
M  V30 3586 H 341.965 -1.37364 0.432109 0
M  V30 3587 H 343.918 -4.02675 -1.24221 0
M  V30 3588 H 342.642 -2.8404 -1.61211 0
M  V30 3589 H 341.301 -3.64813 0.361511 0
M  V30 3590 H 340.949 -4.65758 -1.89944 0
M  V30 3591 H 340.649 -5.84472 -0.605489 0
M  V30 3592 H 342.173 -5.90974 -1.53565 0
M  V30 3593 H 343.587 -5.68699 0.724841 0
M  V30 3594 H 341.984 -5.8088 1.50659 0
M  V30 3595 H 343.054 -4.45525 1.91404 0
M  V30 3596 N 344.397 -0.483516 -1.5 0
M  V30 3597 C 345.813 -0.138404 -1.58999 0
M  V30 3598 C 346.013 1.35597 -1.4905 0
M  V30 3599 O 345.069 2.13039 -1.35539 0
M  V30 3600 C 346.382 -0.699658 -2.92447 0
M  V30 3601 C 347.93 -0.664195 -3.05872 0
M  V30 3602 C 348.405 -1.20321 -4.41913 0
M  V30 3603 N 349.896 -1.16315 -4.48358 0
M  V30 3604 C 350.631 -1.55058 -5.52037 0
M  V30 3605 N 350.127 -2.01311 -6.62907 0
M  V30 3606 N 351.92 -1.46584 -5.42651 0
M  V30 3607 H 344.071 -1.45529 -1.5471 0
M  V30 3608 H 346.334 -0.60258 -0.731848 0
M  V30 3609 H 346.04 -1.747 -3.05242 0
M  V30 3610 H 345.914 -0.150194 -3.76901 0
M  V30 3611 H 348.301 0.374272 -2.92717 0
M  V30 3612 H 348.382 -1.25061 -2.23144 0
M  V30 3613 H 348.026 -2.24037 -4.55818 0
M  V30 3614 H 347.956 -0.592896 -5.23252 0
M  V30 3615 H 350.447 -0.824058 -3.68806 0
M  V30 3616 H 350.76 -2.2899 -7.38095 0
M  V30 3617 H 349.105 -2.05273 -6.63994 0
M  V30 3618 H 352.296 -1.10281 -4.54924 0
M  V30 3619 H 352.469 -1.77103 -6.23329 0
M  V30 3620 N 345.875 1.56104 -0.216619 0
M  V30 3621 C 346.822 2.2007 0.695531 0
M  V30 3622 C 347.792 1.15471 1.19397 0
M  V30 3623 O 348.977 1.43807 1.25396 0
M  V30 3624 C 346.117 2.88073 1.90021 0
M  V30 3625 C 345.23 4.07253 1.44113 0
M  V30 3626 C 344.365 4.63052 2.603 0
M  V30 3627 C 343.404 5.74545 2.11103 0
M  V30 3628 N 342.541 6.24656 3.20545 0
M  V30 3629 H 347.381 2.97655 0.143327 0
M  V30 3630 H 344.918 1.46982 0.0589934 0
M  V30 3631 H 346.876 3.25681 2.60745 0
M  V30 3632 H 345.506 2.13015 2.42538 0
M  V30 3633 H 344.558 3.75164 0.628999 0
M  V30 3634 H 345.87 4.8783 1.04036 0
M  V30 3635 H 345.024 5.03078 3.39113 0
M  V30 3636 H 343.763 3.81628 3.03663 0
M  V30 3637 H 342.768 5.34027 1.3075 0
M  V30 3638 H 343.993 6.57801 1.68746 0
M  V30 3639 H 341.939 5.46148 3.63399 0
M  V30 3640 H 341.856 7.00343 2.84704 0
M  V30 3641 H 343.124 6.69338 3.99508 0
M  V30 3642 N 347.353 -0.0568162 1.57498 0
M  V30 3643 C 348.601 -0.751617 1.87604 0
M  V30 3644 C 348.922 -1.77351 0.81066 0
M  V30 3645 O 348.192 -1.95254 -0.159018 0
M  V30 3646 H 346.772 -0.280583 0.692302 0
M  V30 3647 H 349.434 -0.0293483 1.94878 0
M  V30 3648 H 348.53 -1.25852 2.856 0
M  V30 3649 N 348.832 -1.54138 -0.328536 0
M  V30 3650 C 350.078 -1.7236 -1.06865 0
M  V30 3651 C 350.411 -0.493231 -1.87832 0
M  V30 3652 O 349.686 0.5098 -1.877 0
M  V30 3653 C 349.969 -2.99621 -1.99747 0
M  V30 3654 C 349.822 -4.32899 -1.22143 0
M  V30 3655 C 351.141 -3.22615 -2.99345 0
M  V30 3656 H 348.26 -0.627151 -0.387105 0
M  V30 3657 H 350.902 -1.86827 -0.345767 0
M  V30 3658 H 349.052 -2.87418 -2.61387 0
M  V30 3659 H 350.724 -4.56978 -0.630017 0
M  V30 3660 H 348.967 -4.30628 -0.523628 0
M  V30 3661 H 349.638 -5.18154 -1.90318 0
M  V30 3662 H 352.114 -3.34248 -2.47826 0
M  V30 3663 H 350.99 -4.13027 -3.61524 0
M  V30 3664 H 351.251 -2.3961 -3.71536 0
M  V30 3665 N 350.31 0.590341 -1.46126 0
M  V30 3666 C 351.273 1.68194 -1.55703 0
M  V30 3667 C 352.273 1.54808 -0.434868 0
M  V30 3668 O 353.463 1.59564 -0.698928 0
M  V30 3669 C 350.595 3.07575 -1.47005 0
M  V30 3670 H 351.788 1.61064 -2.52979 0
M  V30 3671 H 349.341 0.807541 -1.33823 0
M  V30 3672 H 350.076 3.20268 -0.509785 0
M  V30 3673 H 349.861 3.187 -2.28414 0
M  V30 3674 H 351.351 3.87055 -1.56776 0
M  V30 3675 N 351.788 1.33704 0.83433 0
M  V30 3676 C 352.718 1.26967 1.95963 0
M  V30 3677 C 353.699 0.149337 1.69443 0
M  V30 3678 O 354.884 0.339852 1.91203 0
M  V30 3679 C 352.014 1.01275 3.32206 0
M  V30 3680 C 350.968 2.09652 3.73136 0
M  V30 3681 C 350.294 1.69166 5.07235 0
M  V30 3682 C 351.594 3.51372 3.86439 0
M  V30 3683 H 353.288 2.2112 2.01857 0
M  V30 3684 H 350.834 1.06447 0.969793 0
M  V30 3685 H 352.787 0.952106 4.10503 0
M  V30 3686 H 351.511 0.0356203 3.26581 0
M  V30 3687 H 350.17 2.14766 2.97104 0
M  V30 3688 H 349.818 0.701437 4.98085 0
M  V30 3689 H 349.518 2.41694 5.35591 0
M  V30 3690 H 351.042 1.64576 5.88003 0
M  V30 3691 H 352.456 3.48734 4.55036 0
M  V30 3692 H 350.853 4.22425 4.26236 0
M  V30 3693 H 351.923 3.89546 2.88759 0
M  V30 3694 N 353.266 -1.05314 1.17247 0
M  V30 3695 C 354.543 -1.75184 0.87005 0
M  V30 3696 C 354.923 -2.01481 -0.629965 0
M  V30 3697 O 354.271 -1.64988 -1.58086 0
M  V30 3698 C 354.481 -3.04594 1.70363 0
M  V30 3699 C 355.829 -3.78567 1.92281 0
M  V30 3700 O 356.853 -3.14461 1.67311 0
M  V30 3701 O 355.712 -4.93755 2.3424 0
M  V30 3702 H 352.806 -0.761729 0.322021 0
M  V30 3703 H 355.352 -1.11493 1.27935 0
M  V30 3704 H 354.124 -2.81201 2.72106 0
M  V30 3705 H 353.747 -3.76022 1.29202 0
M  V30 3706 N 354.744 -0.972509 -1.24016 0
M  V30 3707 C 355.674 -0.525548 -2.27509 0
M  V30 3708 C 356.655 0.437262 -1.64384 0
M  V30 3709 O 357.84 0.332343 -1.91335 0
M  V30 3710 C 354.97 0.180448 -3.46831 0
M  V30 3711 C 353.924 -0.698859 -4.22256 0
M  V30 3712 C 353.25 0.138903 -5.3452 0
M  V30 3713 C 354.55 -1.98582 -4.83076 0
M  V30 3714 H 356.244 -1.39058 -2.65148 0
M  V30 3715 H 353.79 -0.67009 -1.27459 0
M  V30 3716 H 355.743 0.504387 -4.18371 0
M  V30 3717 H 354.467 1.07987 -3.08231 0
M  V30 3718 H 353.126 -1.00614 -3.52523 0
M  V30 3719 H 352.774 1.03862 -4.9216 0
M  V30 3720 H 352.474 -0.446259 -5.85903 0
M  V30 3721 H 353.998 0.457404 -6.08884 0
M  V30 3722 H 355.412 -1.72715 -5.46665 0
M  V30 3723 H 353.809 -2.5181 -5.44713 0
M  V30 3724 H 354.879 -2.67769 -4.04262 0
M  V30 3725 N 356.222 1.38976 -0.743202 0
M  V30 3726 C 357.447 2.05161 -0.303936 0
M  V30 3727 C 357.872 1.55677 1.05576 0
M  V30 3728 O 357.23 0.704131 1.67068 0
M  V30 3729 C 357.278 3.59138 -0.324373 0
M  V30 3730 O 356.382 4.06668 0.685204 0
M  V30 3731 H 355.723 0.649815 -0.136518 0
M  V30 3732 H 358.253 1.77852 -1.01142 0
M  V30 3733 H 358.263 4.07639 -0.171618 0
M  V30 3734 H 356.938 3.94515 -1.31647 0
M  V30 3735 H 355.515 3.69561 0.497913 0
M  V30 3736 N 357.7 0.491464 1.49741 0
M  V30 3737 C 358.928 -0.0535151 2.06831 0
M  V30 3738 C 359.343 -1.31683 1.35296 0
M  V30 3739 O 358.7 -1.77402 0.42836 0
M  V30 3740 C 358.751 -0.320835 3.60073 0
M  V30 3741 O 358.472 0.892394 4.28915 0
M  V30 3742 C 359.973 -0.910519 4.33848 0
M  V30 3743 H 357.193 0.0161909 0.670805 0
M  V30 3744 H 359.737 0.68609 1.92647 0
M  V30 3745 H 357.892 -1.0104 3.73991 0
M  V30 3746 H 358.306 0.649401 5.20464 0
M  V30 3747 H 359.78 -1.04721 5.41976 0
M  V30 3748 H 360.257 -1.90589 3.95692 0
M  V30 3749 H 360.863 -0.258712 4.24512 0
M  V30 3750 N 359.178 -1.55987 0.224894 0
M  V30 3751 C 360.108 -2.23426 -0.678457 0
M  V30 3752 C 361.089 -1.20709 -1.19847 0
M  V30 3753 O 362.274 -1.49304 -1.24186 0
M  V30 3754 C 359.404 -2.91676 -1.88527 0
M  V30 3755 C 358.358 -4.00893 -1.49896 0
M  V30 3756 C 357.684 -4.56455 -2.78483 0
M  V30 3757 C 358.984 -5.17769 -0.686461 0
M  V30 3758 H 360.678 -2.99175 -0.116173 0
M  V30 3759 H 358.224 -1.43897 -0.054436 0
M  V30 3760 H 360.177 -3.37547 -2.5227 0
M  V30 3761 H 358.901 -2.1338 -2.47258 0
M  V30 3762 H 357.56 -3.55758 -0.884985 0
M  V30 3763 H 357.208 -3.74886 -3.35365 0
M  V30 3764 H 356.908 -5.30169 -2.53368 0
M  V30 3765 H 358.432 -5.05047 -3.43162 0
M  V30 3766 H 359.846 -5.60001 -1.22767 0
M  V30 3767 H 358.243 -5.97735 -0.532259 0
M  V30 3768 H 359.313 -4.83932 0.306196 0
M  V30 3769 N 360.656 0.0484629 -1.57525 0
M  V30 3770 C 361.902 0.744226 -1.88651 0
M  V30 3771 C 362.235 1.76029 -0.820212 0
M  V30 3772 O 361.51 1.93782 0.166985 0
M  V30 3773 C 361.793 1.43128 -3.30434 0
M  V30 3774 C 361.646 0.43005 -4.47739 0
M  V30 3775 C 362.965 2.37031 -3.70816 0
M  V30 3776 H 360.084 0.269089 -0.68612 0
M  V30 3777 H 362.726 0.00713532 -1.89999 0
M  V30 3778 H 360.876 2.05956 -3.29415 0
M  V30 3779 H 362.548 -0.194816 -4.60888 0
M  V30 3780 H 360.791 -0.252522 -4.33064 0
M  V30 3781 H 361.462 0.948874 -5.43783 0
M  V30 3782 H 363.938 1.84263 -3.73077 0
M  V30 3783 H 362.814 2.82094 -4.70865 0
M  V30 3784 H 363.075 3.22864 -3.02012 0
M  V30 3785 N 362.134 1.5431 0.320358 0
M  V30 3786 C 363.081 1.83918 1.39438 0
M  V30 3787 C 364.051 0.686525 1.51248 0
M  V30 3788 O 365.236 0.933269 1.66417 0
M  V30 3789 C 362.376 2.075 2.75749 0
M  V30 3790 C 361.489 3.35177 2.72544 0
M  V30 3791 C 360.624 3.48704 4.00723 0
M  V30 3792 C 359.663 4.70244 3.91838 0
M  V30 3793 N 358.8 4.80679 5.11754 0
M  V30 3794 H 363.64 2.75544 1.13489 0
M  V30 3795 H 361.177 1.36459 0.549309 0
M  V30 3796 H 363.135 2.19166 3.54996 0
M  V30 3797 H 361.765 1.19163 3 0
M  V30 3798 H 360.817 3.32233 1.85271 0
M  V30 3799 H 362.129 4.24534 2.61863 0
M  V30 3800 H 361.283 3.59928 4.88402 0
M  V30 3801 H 360.022 2.57445 4.14214 0
M  V30 3802 H 359.027 4.59072 3.02544 0
M  V30 3803 H 360.252 5.6289 3.7991 0
M  V30 3804 H 358.198 3.92337 5.25745 0
M  V30 3805 H 358.115 5.64007 5.0342 0
M  V30 3806 H 359.383 4.96239 6.01138 0
M  V30 3807 N 363.613 -0.582584 1.46437 0
M  V30 3808 C 365.024 -1.1647 1.45916 0
M  V30 3809 C 365.375 -1.95177 0.200077 0
M  V30 3810 O 364.5 -2.04874 -0.696819 0
M  V30 3811 C 365.095 -2.11885 2.64367 0
M  V30 3812 C 363.654 -2.65421 2.66887 0
M  V30 3813 C 362.801 -1.41294 2.38603 0
M  V30 3814 H 365.752 -0.370514 1.54314 0
M  V30 3815 H 365.773 -2.9535 2.39892 0
M  V30 3816 H 365.285 -1.54573 3.5599 0
M  V30 3817 H 363.386 -3.26602 1.79338 0
M  V30 3818 H 363.499 -3.08147 3.66854 0
M  V30 3819 H 361.863 -1.71109 1.88663 0
M  V30 3820 H 362.646 -0.858125 3.32402 0
M  V30 3821 N 365.091 -1.34144 -0.827227 0
M  V30 3822 C 366.054 -1.25264 -1.91942 0
M  V30 3823 C 367.054 -0.168866 -1.59911 0
M  V30 3824 O 368.244 -0.421198 -1.69031 0
M  V30 3825 C 365.376 -0.932952 -3.27885 0
M  V30 3826 H 366.569 -2.22357 -2.0124 0
M  V30 3827 H 364.122 -1.1837 -1.0207 0
M  V30 3828 H 364.857 0.0349917 -3.24281 0
M  V30 3829 H 364.642 -1.71682 -3.52516 0
M  V30 3830 H 366.132 -0.895874 -4.07877 0
M  V30 3831 N 366.569 1.04691 -1.17803 0
M  V30 3832 C 367.532 2.10724 -0.901545 0
M  V30 3833 C 368.532 1.6042 0.110437 0
M  V30 3834 O 369.722 1.7377 -0.122303 0
M  V30 3835 C 366.854 3.39084 -0.351409 0
M  V30 3836 H 368.047 2.36686 -1.84174 0
M  V30 3837 H 365.6 1.21015 -0.98919 0
M  V30 3838 H 366.335 3.18782 0.59569 0
M  V30 3839 H 366.12 3.76909 -1.08083 0
M  V30 3840 H 367.61 4.17227 -0.176451 0
M  V30 3841 N 368.047 0.979072 1.23499 0
M  V30 3842 C 369.324 0.563674 1.87302 0
M  V30 3843 C 369.704 -0.959199 1.88049 0
M  V30 3844 O 369.052 -1.83535 1.36114 0
M  V30 3845 C 369.262 1.16822 3.28867 0
M  V30 3846 C 370.61 1.26014 4.0547 0
M  V30 3847 O 371.634 1.12158 3.38082 0
M  V30 3848 O 370.493 1.48044 5.26066 0
M  V30 3849 H 367.587 0.189602 0.804972 0
M  V30 3850 H 370.133 1.07407 1.31384 0
M  V30 3851 H 368.905 2.21049 3.22883 0
M  V30 3852 H 368.528 0.642564 3.92373 0
M  V30 3853 N 369.525 -1.3858 0.750561 0
M  V30 3854 C 370.771 -2.00481 0.305825 0
M  V30 3855 C 371.104 -1.5944 -1.10872 0
M  V30 3856 O 370.379 -0.83052 -1.75877 0
M  V30 3857 C 370.662 -3.5758 0.425287 0
M  V30 3858 C 370.515 -4.08594 1.88072 0
M  V30 3859 C 371.834 -4.39719 -0.183122 0
M  V30 3860 H 368.953 -0.728348 0.112598 0
M  V30 3861 H 371.595 -1.64566 0.949638 0
M  V30 3862 H 369.745 -3.88306 -0.122828 0
M  V30 3863 H 371.417 -3.88523 2.48691 0
M  V30 3864 H 369.66 -3.61574 2.39681 0
M  V30 3865 H 370.331 -5.177 1.91548 0
M  V30 3866 H 372.807 -4.15128 0.284303 0
M  V30 3867 H 371.683 -5.48856 -0.0692757 0
M  V30 3868 H 371.944 -4.23434 -1.27106 0
M  V30 3869 N 371.003 -0.499398 -1.49478 0
M  V30 3870 C 372.249 0.0457576 -2.02748 0
M  V30 3871 C 372.582 1.36793 -1.37846 0
M  V30 3872 O 371.857 1.87596 -0.513601 0
M  V30 3873 C 372.14 0.199986 -3.59544 0
M  V30 3874 C 371.993 -1.1452 -4.34977 0
M  V30 3875 C 373.312 0.94137 -4.29914 0
M  V30 3876 H 370.431 0.0151552 -0.736844 0
M  V30 3877 H 373.073 -0.650498 -1.78518 0
M  V30 3878 H 371.223 0.793007 -3.8032 0
M  V30 3879 H 372.895 -1.77697 -4.25701 0
M  V30 3880 H 371.138 -1.73488 -3.97598 0
M  V30 3881 H 371.809 -0.990607 -5.43039 0
M  V30 3882 H 374.285 0.43844 -4.13784 0
M  V30 3883 H 373.161 1.01812 -5.39375 0
M  V30 3884 H 373.422 1.98471 -3.95046 0
M  V30 3885 N 372.481 1.55866 -0.233164 0
M  V30 3886 C 373.706 2.03449 0.402906 0
M  V30 3887 C 374.131 1.11166 1.51736 0
M  V30 3888 O 373.489 0.101996 1.81013 0
M  V30 3889 C 373.537 3.49165 0.9009 0
M  V30 3890 O 372.641 3.60019 2.01147 0
M  V30 3891 H 371.982 0.657913 0.0897025 0
M  V30 3892 H 374.512 2.01493 -0.355201 0
M  V30 3893 H 374.522 3.89716 1.2077 0
M  V30 3894 H 373.197 4.15813 0.0852889 0
M  V30 3895 H 371.774 3.3136 1.71042 0
M  V30 3896 N 373.959 -0.0401083 1.57549 0
M  V30 3897 C 374.891 -1.07149 2.02612 0
M  V30 3898 C 375.904 -1.33126 0.937085 0
M  V30 3899 O 377.093 -1.30808 1.21456 0
M  V30 3900 C 374.193 -2.41561 2.37701 0
M  V30 3901 C 373.366 -2.35096 3.68848 0
M  V30 3902 C 372.425 -3.51867 3.91249 0
M  V30 3903 O 371.451 -3.3186 4.62447 0
M  V30 3904 N 372.653 -4.73351 3.36035 0
M  V30 3905 H 375.418 -0.687485 2.91708 0
M  V30 3906 H 372.979 -0.228248 1.60283 0
M  V30 3907 H 374.971 -3.18379 2.49833 0
M  V30 3908 H 373.541 -2.71846 1.54332 0
M  V30 3909 H 372.761 -1.4345 3.67173 0
M  V30 3910 H 374.049 -2.27908 4.54901 0
M  V30 3911 H 373.447 -4.92507 2.78304 0
M  V30 3912 H 372.004 -5.47572 3.53565 0
M  V30 3913 N 375.437 -1.54477 -0.31217 0
M  V30 3914 C 376.853 -1.45442 -0.657185 0
M  V30 3915 C 377.053 -0.63653 -1.91182 0
M  V30 3916 O 376.109 -0.139815 -2.52113 0
M  V30 3917 C 377.422 -2.89287 -0.82058 0
M  V30 3918 C 378.97 -2.9926 -0.917188 0
M  V30 3919 C 379.445 -4.44279 -1.11267 0
M  V30 3920 N 380.936 -4.4794 -1.17914 0
M  V30 3921 C 381.671 -5.57318 -1.34848 0
M  V30 3922 N 381.167 -6.76642 -1.48752 0
M  V30 3923 N 382.96 -5.44986 -1.37647 0
M  V30 3924 H 375.111 -2.06129 0.512313 0
M  V30 3925 H 377.374 -0.933088 0.167485 0
M  V30 3926 H 377.08 -3.51687 0.0302604 0
M  V30 3927 H 376.954 -3.36061 -1.71298 0
M  V30 3928 H 379.341 -2.36981 -1.75852 0
M  V30 3929 H 379.422 -2.558 -0.00101257 0
M  V30 3930 H 379.066 -5.07149 -0.27614 0
M  V30 3931 H 378.996 -4.85359 -2.04289 0
M  V30 3932 H 381.487 -3.61969 -1.08567 0
M  V30 3933 H 381.8 -7.55758 -1.61397 0
M  V30 3934 H 380.145 -6.79529 -1.45828 0
M  V30 3935 H 383.336 -4.50715 -1.26388 0
M  V30 3936 H 383.509 -6.3028 -1.50501 0
M  V30 3937 N 376.915 0.57481 -1.46744 0
M  V30 3938 C 378.162 1.33272 -1.52462 0
M  V30 3939 C 378.49 1.93669 -0.179572 0
M  V30 3940 O 377.745 1.7743 0.825664 0
M  V30 3941 C 378.044 2.476 -2.57738 0
M  V30 3942 C 377.71 2.05146 -4.01529 0
M  V30 3943 C 376.372 1.93284 -4.40676 0
M  V30 3944 C 378.724 1.72506 -4.91824 0
M  V30 3945 C 376.052 1.47049 -5.67973 0
M  V30 3946 C 378.404 1.27748 -6.19567 0
M  V30 3947 C 377.068 1.14468 -6.57612 0
M  V30 3948 H 376.338 0.487678 -0.557899 0
M  V30 3949 H 378.985 0.646456 -1.80259 0
M  V30 3950 H 377.29 3.21708 -2.23632 0
M  V30 3951 H 378.987 3.05807 -2.5939 0
M  V30 3952 H 375.577 2.15316 -3.7059 0
M  V30 3953 H 379.761 1.80552 -4.62293 0
M  V30 3954 H 375.017 1.35417 -5.96215 0
M  V30 3955 H 379.191 1.01547 -6.88957 0
M  V30 3956 H 376.818 0.78419 -7.56145 0
M  V30 3957 N 378.394 1.34581 0.820102 0
M  V30 3958 C 379.357 1.2628 1.91275 0
M  V30 3959 C 380.357 0.177344 1.59819 0
M  V30 3960 O 381.547 0.430156 1.68806 0
M  V30 3961 C 378.679 0.950327 3.27386 0
M  V30 3962 H 379.872 2.23421 2.00057 0
M  V30 3963 H 377.425 1.1891 1.0144 0
M  V30 3964 H 378.16 -0.0177938 3.24295 0
M  V30 3965 H 377.945 1.73549 3.51601 0
M  V30 3966 H 379.435 0.917492 4.07396 0
M  V30 3967 N 379.872 -1.04064 1.18357 0
M  V30 3968 C 380.802 -2.14001 0.934113 0
M  V30 3969 C 381.783 -1.69616 -0.128186 0
M  V30 3970 O 382.968 -1.94185 0.0244093 0
M  V30 3971 C 380.098 -3.44253 0.459066 0
M  V30 3972 C 379.052 -4.02261 1.46185 0
M  V30 3973 C 378.378 -5.27992 0.844322 0
M  V30 3974 C 379.678 -4.38432 2.83856 0
M  V30 3975 H 381.372 -2.35127 1.85352 0
M  V30 3976 H 378.918 -1.12998 0.892604 0
M  V30 3977 H 380.871 -4.20522 0.271907 0
M  V30 3978 H 379.595 -3.22813 -0.495912 0
M  V30 3979 H 378.254 -3.28074 1.63595 0
M  V30 3980 H 377.902 -5.02862 -0.117845 0
M  V30 3981 H 377.602 -5.67765 1.51384 0
M  V30 3982 H 379.126 -6.06938 0.667693 0
M  V30 3983 H 380.54 -5.05688 2.70098 0
M  V30 3984 H 378.937 -4.89254 3.47491 0
M  V30 3985 H 380.007 -3.4826 3.37406 0
M  V30 3986 N 381.35 -0.985608 -1.22978 0
M  V30 3987 C 382.28 -0.549649 -2.26939 0
M  V30 3988 C 383.261 0.419803 -1.64838 0
M  V30 3989 O 384.446 0.31203 -1.91677 0
M  V30 3990 C 381.576 0.143652 -3.47003 0
M  V30 3991 C 380.53 -0.743606 -4.21491 0
M  V30 3992 C 379.856 0.0822027 -5.34637 0
M  V30 3993 C 381.156 -2.03694 -4.80943 0
M  V30 3994 H 382.85 -1.41862 -2.63658 0
M  V30 3995 H 380.396 -0.683571 -1.26741 0
M  V30 3996 H 382.349 0.459985 -4.18882 0
M  V30 3997 H 381.073 1.04711 -3.09359 0
M  V30 3998 H 379.732 -1.04347 -3.51436 0
M  V30 3999 H 379.38 0.986359 -4.93234 0
M  V30 4000 H 379.08 -0.508377 -5.85397 0
M  V30 4001 H 380.604 0.392797 -6.09335 0
M  V30 4002 H 382.018 -1.78504 -5.44802 0
M  V30 4003 H 380.415 -2.57573 -5.42011 0
M  V30 4004 H 381.485 -2.72042 -4.01399 0
M  V30 4005 N 382.828 1.3818 -0.7579 0
M  V30 4006 C 384.076 1.99624 -0.315361 0
M  V30 4007 C 384.397 1.60464 1.10799 0
M  V30 4008 O 383.667 0.863507 1.75842 0
M  V30 4009 H 382.247 0.73831 -0.113611 0
M  V30 4010 H 384.909 1.68878 -0.972952 0
M  V30 4011 H 384.005 3.09754 -0.381931 0
M  V30 4012 N 384.306 0.507319 1.49211 0
M  V30 4013 C 385.552 -0.0350047 2.0277 0
M  V30 4014 C 385.885 -1.3606 1.38569 0
M  V30 4015 O 385.16 -1.87321 0.523542 0
M  V30 4016 C 385.443 -0.180916 3.59645 0
M  V30 4017 C 385.296 1.16825 4.34364 0
M  V30 4018 C 386.615 -0.918558 4.30407 0
M  V30 4019 H 383.734 -0.0112473 0.736914 0
M  V30 4020 H 386.376 0.659956 1.7817 0
M  V30 4021 H 384.526 -0.772826 3.80736 0
M  V30 4022 H 386.198 1.79952 4.24753 0
M  V30 4023 H 384.441 1.75594 3.96673 0
M  V30 4024 H 385.112 1.01939 5.42506 0
M  V30 4025 H 387.588 -0.41649 4.1401 0
M  V30 4026 H 386.464 -0.989505 5.39907 0
M  V30 4027 H 386.725 -1.96373 3.96093 0
M  V30 4028 N 385.784 -1.5574 0.241426 0
M  V30 4029 C 387.195 -1.84842 -0.262755 0
M  V30 4030 C 387.546 -1.16317 -1.58003 0
M  V30 4031 O 386.671 -0.439653 -2.11887 0
M  V30 4032 C 387.266 -3.35332 -0.483523 0
M  V30 4033 C 385.825 -3.6468 -0.931977 0
M  V30 4034 C 384.972 -2.77299 -0.0061151 0
M  V30 4035 H 387.923 -1.51761 0.464129 0
M  V30 4036 H 387.944 -3.56615 -1.32688 0
M  V30 4037 H 387.456 -3.85178 0.47537 0
M  V30 4038 H 385.557 -3.20307 -1.90353 0
M  V30 4039 H 385.67 -4.72498 -0.792628 0
M  V30 4040 H 384.034 -2.49408 -0.516503 0
M  V30 4041 H 384.817 -3.2995 0.948052 0
M  V30 4042 N 387.262 0.0317525 -1.57568 0
M  V30 4043 C 388.508 0.724175 -1.8943 0
M  V30 4044 C 388.841 1.75149 -0.838836 0
M  V30 4045 O 388.116 1.93948 0.146422 0
M  V30 4046 C 388.399 1.39615 -3.31933 0
M  V30 4047 C 388.252 0.382537 -4.4817 0
M  V30 4048 C 389.571 2.33084 -3.73309 0
M  V30 4049 H 386.69 0.261797 -0.688935 0
M  V30 4050 H 389.332 -0.013017 -1.89996 0
M  V30 4051 H 387.482 2.02451 -3.31581 0
M  V30 4052 H 389.154 -0.243689 -4.60656 0
M  V30 4053 H 387.397 -0.29844 -4.32772 0
M  V30 4054 H 388.068 0.891145 -5.44759 0
M  V30 4055 H 390.544 1.80295 -3.7501 0
M  V30 4056 H 389.42 2.77084 -4.73831 0
M  V30 4057 H 389.681 3.19643 -3.05419 0
M  V30 4058 N 388.74 1.54641 0.303973 0
M  V30 4059 C 389.672 1.81754 1.39636 0
M  V30 4060 C 390.685 0.70035 1.46966 0
M  V30 4061 O 391.874 0.97778 1.49338 0
M  V30 4062 C 388.974 1.93785 2.7803 0
M  V30 4063 C 388.147 3.24156 2.93669 0
M  V30 4064 C 387.206 3.26641 4.12544 0
M  V30 4065 O 386.232 4.00187 4.04771 0
M  V30 4066 N 387.434 2.5182 5.23036 0
M  V30 4067 H 390.199 2.76031 1.16734 0
M  V30 4068 H 387.76 1.54178 0.494033 0
M  V30 4069 H 389.752 1.92852 3.55795 0
M  V30 4070 H 388.322 1.06515 2.93893 0
M  V30 4071 H 387.542 3.37887 2.03042 0
M  V30 4072 H 388.83 4.10195 3.01027 0
M  V30 4073 H 388.228 1.91692 5.32232 0
M  V30 4074 H 386.785 2.56644 5.99147 0
M  V30 4075 N 390.218 -0.567019 1.47046 0
M  V30 4076 C 391.446 -1.35027 1.56765 0
M  V30 4077 C 391.861 -1.8758 0.214316 0
M  V30 4078 O 391.218 -1.64471 -0.790919 0
M  V30 4079 C 391.269 -2.52698 2.58507 0
M  V30 4080 O 390.99 -2.0232 3.88585 0
M  V30 4081 C 392.491 -3.45043 2.78316 0
M  V30 4082 H 389.711 -0.41195 0.529658 0
M  V30 4083 H 392.255 -0.687832 1.92585 0
M  V30 4084 H 390.41 -3.149 2.25648 0
M  V30 4085 H 390.824 -2.79068 4.44096 0
M  V30 4086 H 392.298 -4.2405 3.53391 0
M  V30 4087 H 392.775 -3.97971 1.85784 0
M  V30 4088 H 393.381 -2.88665 3.12334 0
M  V30 4089 N 391.696 -1.35014 -0.812953 0
M  V30 4090 C 392.644 -1.27435 -1.94585 0
M  V30 4091 C 393.638 -0.170494 -1.6854 0
M  V30 4092 O 394.844 -0.336085 -1.76835 0
M  V30 4093 H 391.219 -0.396144 -0.639198 0
M  V30 4094 H 393.19 -2.23158 -1.98098 0
M  V30 4095 C 391.939 -1.05677 -3.31252 0
M  V30 4096 H 391.262 -1.89853 -3.51846 0
M  V30 4097 H 392.702 -1.04413 -4.10943 0
M  V30 4098 C 391.161 0.239615 -3.36047 0
M  V30 4099 O 391.691 1.23759 -3.8216 0
M  V30 4100 N 389.897 0.276186 -2.89285 0
M  V30 4101 H 389.444 -0.53653 -2.51951 0
M  V30 4102 H 389.402 1.14332 -2.92875 0
M  V30 4103 N 393.175 1.03435 -1.18907 0
M  V30 4104 C 394.423 1.76394 -0.986382 0
M  V30 4105 C 394.744 1.88883 0.484567 0
M  V30 4106 O 394.014 1.41843 1.3512 0
M  V30 4107 H 392.594 0.65344 -0.361975 0
M  V30 4108 H 395.256 1.248 -1.49703 0
M  V30 4109 H 394.352 2.77424 -1.42978 0
M  V30 4110 N 394.653 0.992116 1.22453 0
M  V30 4111 C 395.883 0.684949 1.94915 0
M  V30 4112 C 396.291 -0.754292 1.73514 0
M  V30 4113 O 395.634 -1.52056 1.03076 0
M  V30 4114 C 395.696 0.910054 3.47791 0
M  V30 4115 C 395.36 2.33363 3.92926 0
M  V30 4116 C 396.357 3.31308 4.00663 0
M  V30 4117 C 394.042 2.66785 4.25595 0
M  V30 4118 C 396.036 4.6075 4.40441 0
M  V30 4119 C 393.723 3.96446 4.65053 0
M  V30 4120 C 394.721 4.9324 4.72444 0
M  V30 4121 O 394.409 6.20584 5.1101 0
M  V30 4122 H 394.141 0.25258 0.62704 0
M  V30 4123 H 396.695 1.32939 1.56577 0
M  V30 4124 H 394.925 0.208443 3.86138 0
M  V30 4125 H 396.614 0.598257 4.01467 0
M  V30 4126 H 397.38 3.0682 3.75615 0
M  V30 4127 H 393.259 1.92148 4.19047 0
M  V30 4128 H 396.803 5.363 4.46126 0
M  V30 4129 H 392.7 4.20724 4.89552 0
M  V30 4130 H 393.468 6.24509 5.29085 0
M  V30 4131 N 396.131 -1.37776 0.765217 0
M  V30 4132 C 397.542 -1.82521 0.392819 0
M  V30 4133 C 397.893 -1.63789 -1.08017 0
M  V30 4134 O 397.018 -1.14542 -1.83601 0
M  V30 4135 C 397.613 -3.31358 0.706214 0
M  V30 4136 C 396.172 -3.74406 0.386952 0
M  V30 4137 C 395.319 -2.60394 0.953422 0
M  V30 4138 H 398.27 -1.2634 0.960412 0
M  V30 4139 H 398.291 -3.80498 -0.0114706 0
M  V30 4140 H 397.803 -3.44959 1.77833 0
M  V30 4141 H 395.904 -3.66377 -0.678112 0
M  V30 4142 H 396.017 -4.70749 0.890636 0
M  V30 4143 H 394.381 -2.51878 0.378064 0
M  V30 4144 H 395.164 -2.76791 2.03081 0
M  V30 4145 N 397.609 -0.515225 -1.4894 0
M  V30 4146 C 398.858 0.0261361 -2.01683 0
M  V30 4147 C 399.171 1.36719 -1.39883 0
M  V30 4148 O 400.377 1.99606 -1.84037 0
M  V30 4149 C 398.833 0.0970111 -3.59769 0
M  V30 4150 C 398.441 -1.23825 -4.30548 0
M  V30 4151 C 400.185 0.587981 -4.20408 0
M  V30 4152 C 398.092 -1.12877 -5.80528 0
M  V30 4153 H 397.022 0.0135398 -0.753878 0
M  V30 4154 H 399.673 -0.656787 -1.71343 0
M  V30 4155 H 398.055 0.844694 -3.86886 0
M  V30 4156 H 399.229 -2.00034 -4.15118 0
M  V30 4157 H 397.544 -1.66379 -3.81716 0
M  V30 4158 H 400.141 0.68763 -5.3026 0
M  V30 4159 H 400.484 1.59026 -3.84729 0
M  V30 4160 H 401.017 -0.103582 -3.97665 0
M  V30 4161 H 397.756 -2.10575 -6.20756 0
M  V30 4162 H 397.276 -0.407799 -5.98412 0
M  V30 4163 H 398.955 -0.813332 -6.41868 0
M  V30 4164 N 399.087 1.5561 -0.249682 0
M  V30 4165 C 400.034 2.21496 0.648694 0
M  V30 4166 C 401.004 1.17977 1.16921 0
M  V30 4167 O 402.189 1.46434 1.22318 0
M  V30 4168 C 399.329 2.92039 1.83868 0
M  V30 4169 C 398.442 4.10219 1.35442 0
M  V30 4170 C 397.577 4.6847 2.50419 0
M  V30 4171 C 396.616 5.78893 1.98869 0
M  V30 4172 N 395.753 6.31315 3.07223 0
M  V30 4173 H 400.593 2.97892 0.0801582 0
M  V30 4174 H 398.13 1.47074 0.0278031 0
M  V30 4175 H 400.088 3.31138 2.53778 0
M  V30 4176 H 398.718 2.18111 2.37965 0
M  V30 4177 H 397.77 3.76413 0.54928 0
M  V30 4178 H 399.082 4.89927 0.936649 0
M  V30 4179 H 398.236 5.10158 3.28366 0
M  V30 4180 H 396.975 3.87984 2.95499 0
M  V30 4181 H 395.98 5.3668 1.19393 0
M  V30 4182 H 397.205 6.61232 1.54755 0
M  V30 4183 H 395.151 5.53733 3.51732 0
M  V30 4184 H 395.068 7.06224 2.69784 0
M  V30 4185 H 396.336 6.77662 3.8522 0
M  V30 4186 N 400.565 -0.0233959 1.57583 0
M  V30 4187 C 401.793 -0.724682 1.93794 0
M  V30 4188 C 402.208 -1.68588 0.849912 0
M  V30 4189 O 401.565 -1.81676 -0.173204 0
M  V30 4190 C 401.616 -1.47684 3.29957 0
M  V30 4191 O 401.337 -0.554222 4.3458 0
M  V30 4192 C 402.838 -2.27477 3.80485 0
M  V30 4193 H 400.058 -0.203317 0.639455 0
M  V30 4194 H 402.602 0.0207653 2.04489 0
M  V30 4195 H 400.757 -2.17412 3.20641 0
M  V30 4196 H 401.171 -1.08232 5.13212 0
M  V30 4197 H 402.645 -2.7564 4.78254 0
M  V30 4198 H 403.122 -3.09144 3.11972 0
M  V30 4199 H 403.728 -1.62813 3.92902 0
M  V30 4200 N 402.043 -1.548 -0.295768 0
M  V30 4201 C 403.32 -1.65014 -1.05023 0
M  V30 4202 C 403.7 -0.501805 -2.05049 0
M  V30 4203 O 403.048 0.500869 -2.22943 0
M  V30 4204 C 403.258 -3.03252 -1.72741 0
M  V30 4205 C 404.606 -3.60242 -2.24746 0
M  V30 4206 O 405.63 -3.05737 -1.82765 0
M  V30 4207 O 404.489 -4.55687 -3.01681 0
M  V30 4208 H 401.583 -0.669314 -0.485744 0
M  V30 4209 H 404.129 -1.67144 -0.293438 0
M  V30 4210 H 402.901 -3.7827 -1.00138 0
M  V30 4211 H 402.524 -3.04922 -2.55163 0
M  V30 4212 N 403.521 0.559213 -1.47345 0
M  V30 4213 C 404.77 1.31281 -1.53128 0
M  V30 4214 C 405.083 1.94602 -0.197344 0
M  V30 4215 O 406.289 2.71173 -0.133154 0
M  V30 4216 C 404.745 2.38051 -2.69925 0
M  V30 4217 C 404.353 1.8093 -4.0984 0
M  V30 4218 C 406.097 3.14604 -2.84999 0
M  V30 4219 C 404.004 2.85468 -5.1794 0
M  V30 4220 H 402.934 0.493614 -0.569966 0
M  V30 4221 H 405.585 0.594155 -1.73615 0
M  V30 4222 H 403.967 3.12822 -2.42814 0
M  V30 4223 H 405.141 1.12544 -4.46845 0
M  V30 4224 H 403.456 1.16967 -3.99634 0
M  V30 4225 H 406.053 3.92666 -3.62929 0
M  V30 4226 H 406.396 3.68665 -1.93369 0
M  V30 4227 H 406.929 2.46945 -3.1187 0
M  V30 4228 H 403.668 2.36264 -6.1144 0
M  V30 4229 H 403.188 3.52269 -4.85455 0
M  V30 4230 H 404.867 3.48996 -5.44803 0
M  V30 4231 N 404.999 1.35443 0.805782 0
M  V30 4232 C 405.931 1.24285 1.92577 0
M  V30 4233 C 406.944 0.165962 1.61952 0
M  V30 4234 O 408.133 0.419303 1.73505 0
M  V30 4235 C 405.233 0.891272 3.2697 0
M  V30 4236 C 404.406 2.06669 3.85495 0
M  V30 4237 C 403.465 1.69077 4.98297 0
M  V30 4238 O 402.491 2.4096 5.15681 0
M  V30 4239 N 403.693 0.614869 5.77234 0
M  V30 4240 H 406.458 2.20777 2.02676 0
M  V30 4241 H 404.019 1.28623 0.983243 0
M  V30 4242 H 406.011 0.621256 3.99903 0
M  V30 4243 H 404.581 0.016004 3.12596 0
M  V30 4244 H 403.801 2.50046 3.04747 0
M  V30 4245 H 405.089 2.85237 4.21328 0
M  V30 4246 H 404.487 0.017648 5.65697 0
M  V30 4247 H 403.044 0.404636 6.50543 0
M  V30 4248 N 406.477 -1.02803 1.19454 0
M  V30 4249 C 407.888 -1.57667 0.999899 0
M  V30 4250 C 408.239 -1.91041 -0.446956 0
M  V30 4251 O 407.364 -1.70978 -1.32648 0
M  V30 4252 C 407.959 -2.86477 1.80877 0
M  V30 4253 C 406.518 -3.37911 1.65811 0
M  V30 4254 C 405.665 -2.11343 1.79526 0
M  V30 4255 H 408.616 -0.853214 1.33813 0
M  V30 4256 H 408.637 -3.57408 1.30536 0
M  V30 4257 H 408.149 -2.62155 2.86175 0
M  V30 4258 H 406.25 -3.67218 0.63102 0
M  V30 4259 H 406.363 -4.10885 2.46395 0
M  V30 4260 H 404.727 -2.23254 1.22596 0
M  V30 4261 H 405.51 -1.89461 2.86285 0
M  V30 4262 N 407.956 -0.998596 -1.21925 0
M  V30 4263 C 409.204 -0.676325 -1.90448 0
M  V30 4264 C 409.525 0.794719 -1.78071 0
M  V30 4265 O 408.795 1.5701 -1.17152 0
M  V30 4266 H 407.375 -0.247165 -0.704925 0
M  V30 4267 H 410.037 -1.26633 -1.48156 0
M  V30 4268 H 409.133 -0.943858 -2.97486 0
M  V30 4269 N 409.434 1.37368 -0.772513 0
M  V30 4270 C 410.381 2.30262 -0.157488 0
M  V30 4271 C 411.351 1.51137 0.688965 0
M  V30 4272 O 412.536 1.79704 0.641168 0
M  V30 4273 C 409.676 3.37611 0.715045 0
M  V30 4274 C 408.789 4.31746 -0.148098 0
M  V30 4275 C 407.924 5.26171 0.729213 0
M  V30 4276 C 406.963 6.11948 -0.136418 0
M  V30 4277 N 406.1 6.98613 0.698914 0
M  V30 4278 H 410.94 2.82277 -0.955179 0
M  V30 4279 H 408.477 1.38957 -0.482631 0
M  V30 4280 H 410.435 3.98479 1.23575 0
M  V30 4281 H 409.065 2.86959 1.47833 0
M  V30 4282 H 408.117 3.72178 -0.786613 0
M  V30 4283 H 409.429 4.92084 -0.81579 0
M  V30 4284 H 408.583 5.92247 1.31637 0
M  V30 4285 H 407.322 4.66246 1.43059 0
M  V30 4286 H 406.327 5.4485 -0.736102 0
M  V30 4287 H 407.552 6.73945 -0.835134 0
M  V30 4288 H 405.498 6.41215 1.38489 0
M  V30 4289 H 405.415 7.55948 0.0885358 0
M  V30 4290 H 406.683 7.69077 1.27044 0
M  V30 4291 N 410.912 0.523116 1.48665 0
M  V30 4292 C 412.159 -0.0134763 2.02496 0
M  V30 4293 C 412.487 -1.3493 1.40086 0
M  V30 4294 O 411.742 -1.88286 0.533567 0
M  V30 4295 C 412.041 -0.191671 3.56886 0
M  V30 4296 C 411.707 1.06893 4.38046 0
M  V30 4297 C 410.369 1.41443 4.59943 0
M  V30 4298 C 412.721 1.90584 4.85106 0
M  V30 4299 C 410.049 2.59594 5.26144 0
M  V30 4300 C 412.401 3.07907 5.52609 0
M  V30 4301 C 411.065 3.42811 5.72745 0
M  V30 4302 H 410.335 -0.00493133 0.740984 0
M  V30 4303 H 412.982 0.687751 1.78724 0
M  V30 4304 H 411.287 -0.97561 3.79459 0
M  V30 4305 H 412.984 -0.621659 3.96152 0
M  V30 4306 H 409.574 0.789848 4.21259 0
M  V30 4307 H 413.758 1.65203 4.67997 0
M  V30 4308 H 409.014 2.86847 5.39934 0
M  V30 4309 H 413.188 3.73066 5.88043 0
M  V30 4310 H 410.815 4.34462 6.23816 0
M  V30 4311 N 412.39 -1.55475 0.257931 0
M  V30 4312 C 413.337 -2.21837 -0.636939 0
M  V30 4313 C 414.307 -1.18596 -1.16294 0
M  V30 4314 O 415.492 -1.47081 -1.21539 0
M  V30 4315 C 412.632 -2.9301 -1.82317 0
M  V30 4316 C 411.745 -4.10931 -1.33265 0
M  V30 4317 C 410.88 -4.69791 -2.47931 0
M  V30 4318 C 409.919 -5.7994 -1.95796 0
M  V30 4319 N 409.056 -6.32935 -3.0387 0
M  V30 4320 H 413.896 -2.9793 -0.0643591 0
M  V30 4321 H 411.433 -1.47086 -0.0200031 0
M  V30 4322 H 413.391 -3.3248 -2.52018 0
M  V30 4323 H 412.021 -2.1937 -2.36805 0
M  V30 4324 H 411.073 -3.76699 -0.52931 0
M  V30 4325 H 412.385 -4.90417 -0.910654 0
M  V30 4326 H 411.539 -5.11892 -3.25656 0
M  V30 4327 H 410.278 -3.89545 -2.93438 0
M  V30 4328 H 409.283 -5.37305 -1.16546 0
M  V30 4329 H 410.508 -6.62043 -1.51246 0
M  V30 4330 H 408.454 -5.55591 -3.48791 0
M  V30 4331 H 408.371 -7.07645 -2.66035 0
M  V30 4332 H 409.639 -6.79695 -3.81621 0
M  V30 4333 N 413.868 0.0150385 -1.57593 0
M  V30 4334 C 415.116 0.701613 -1.8953 0
M  V30 4335 C 415.437 1.75139 -0.857396 0
M  V30 4336 O 414.707 1.95607 0.107194 0
M  V30 4337 H 413.287 0.26213 -0.699498 0
M  V30 4338 H 415.949 -0.0223304 -1.94887 0
M  V30 4339 H 415.045 1.18236 -2.88837 0
M  V30 4340 N 415.346 1.54954 0.287554 0
M  V30 4341 C 416.309 1.86076 1.33823 0
M  V30 4342 C 417.309 0.734414 1.43049 0
M  V30 4343 O 418.499 1.00266 1.42452 0
M  V30 4344 C 415.631 2.05305 2.72144 0
M  V30 4345 H 416.824 2.79984 1.07465 0
M  V30 4346 H 414.377 1.47223 0.524902 0
M  V30 4347 H 415.112 1.1373 3.03704 0
M  V30 4348 H 414.897 2.873 2.66836 0
M  V30 4349 H 416.387 2.30706 3.48087 0
M  V30 4350 N 416.824 -0.551391 1.4764 0
M  V30 4351 C 417.757 -1.6738 1.5511 0
M  V30 4352 C 418.735 -1.5753 0.402856 0
M  V30 4353 O 419.919 -1.78307 0.611475 0
M  V30 4354 C 417.046 -3.05661 1.45908 0
M  V30 4355 C 416.092 -3.33938 2.65307 0
M  V30 4356 S 416.925 -3.22553 4.27457 0
M  V30 4357 C 418.081 -4.63317 4.20818 0
M  V30 4358 H 418.314 -1.6079 2.50068 0
M  V30 4359 H 415.847 -0.732674 1.35909 0
M  V30 4360 H 417.805 -3.8542 1.41286 0
M  V30 4361 H 416.466 -3.09711 0.523248 0
M  V30 4362 H 415.659 -4.34761 2.54948 0
M  V30 4363 H 415.261 -2.61809 2.67081 0
M  V30 4364 H 417.553 -5.54391 3.89431 0
M  V30 4365 H 418.496 -4.78732 5.21748 0
M  V30 4366 H 418.904 -4.41636 3.51593 0
M  V30 4367 N 418.302 -1.35869 -0.798587 0
M  V30 4368 C 419.265 -1.29307 -1.89242 0
M  V30 4369 C 420.265 -0.202747 -1.59517 0
M  V30 4370 O 421.455 -0.456957 -1.681 0
M  V30 4371 C 418.587 -1.00229 -3.25833 0
M  V30 4372 H 419.78 -2.26576 -1.96478 0
M  V30 4373 H 417.333 -1.20509 -0.995358 0
M  V30 4374 H 418.068 -0.033801 -3.24282 0
M  V30 4375 H 417.853 -1.79121 -3.48795 0
M  V30 4376 H 419.343 -0.98219 -4.05885 0
M  V30 4377 N 419.78 1.02168 -1.19998 0
M  V30 4378 C 421.026 1.75945 -1.00852 0
M  V30 4379 C 421.359 1.88702 0.458828 0
M  V30 4380 O 420.634 1.40911 1.34069 0
M  V30 4381 C 420.917 3.18154 -1.68671 0
M  V30 4382 C 420.77 3.13224 -3.22817 0
M  V30 4383 C 422.089 4.16711 -1.41561 0
M  V30 4384 H 419.208 0.638673 -0.367785 0
M  V30 4385 H 421.85 1.19222 -1.4794 0
M  V30 4386 H 420 3.66586 -1.28636 0
M  V30 4387 H 421.672 2.72635 -3.72112 0
M  V30 4388 H 419.915 2.50751 -3.53986 0
M  V30 4389 H 420.586 4.13728 -3.65422 0
M  V30 4390 H 423.062 3.76913 -1.76284 0
M  V30 4391 H 421.938 5.14391 -1.91553 0
M  V30 4392 H 422.199 4.40774 -0.342193 0
M  V30 4393 N 421.258 1.00505 1.21394 0
M  V30 4394 C 422.483 0.706367 1.95001 0
M  V30 4395 C 422.908 -0.72463 1.73582 0
M  V30 4396 O 422.266 -1.49702 1.0227 0
M  V30 4397 C 422.314 1.03299 3.45487 0
M  V30 4398 O 421.418 0.138275 4.12168 0
M  V30 4399 H 420.759 0.263175 0.609619 0
M  V30 4400 H 423.289 1.34531 1.54151 0
M  V30 4401 H 423.299 0.979872 3.96059 0
M  V30 4402 H 421.974 2.07567 3.60401 0
M  V30 4403 H 420.551 0.247928 3.72075 0
M  V30 4404 N 422.737 -1.36956 0.779787 0
M  V30 4405 C 423.985 -1.99097 0.347079 0
M  V30 4406 C 424.306 -1.62206 -1.08232 0
M  V30 4407 O 423.576 -0.891373 -1.74446 0
M  V30 4408 H 422.156 -0.736409 0.125342 0
M  V30 4409 H 424.818 -1.67308 0.999696 0
M  V30 4410 H 423.914 -3.09107 0.431162 0
M  V30 4411 N 424.215 -0.530993 -1.48385 0
M  V30 4412 C 425.178 0.220497 -2.28137 0
M  V30 4413 C 426.178 0.866851 -1.35434 0
M  V30 4414 O 427.368 0.726746 -1.58316 0
M  V30 4415 C 424.5 1.31921 -3.1434 0
M  V30 4416 H 425.693 -0.479714 -2.96038 0
M  V30 4417 H 423.246 -0.286968 -1.53643 0
M  V30 4418 H 423.981 2.05264 -2.51072 0
M  V30 4419 H 423.766 0.86085 -3.82533 0
M  V30 4420 H 425.256 1.84776 -3.74497 0
M  V30 4421 N 425.693 1.55336 -0.266172 0
M  V30 4422 C 426.923 2.03506 0.356239 0
M  V30 4423 C 427.331 1.14426 1.50676 0
M  V30 4424 O 426.674 0.155043 1.83045 0
M  V30 4425 C 426.736 3.47848 0.90785 0
M  V30 4426 C 426.4 4.56861 -0.112888 0
M  V30 4427 C 427.397 5.11528 -0.929264 0
M  V30 4428 C 425.082 5.01704 -0.244546 0
M  V30 4429 C 427.076 6.09549 -1.86357 0
M  V30 4430 C 424.763 5.99553 -1.18234 0
M  V30 4431 C 425.761 6.53356 -1.99036 0
M  V30 4432 O 425.449 7.49293 -2.91231 0
M  V30 4433 H 425.181 0.670444 0.08649 0
M  V30 4434 H 427.735 2.01598 -0.39337 0
M  V30 4435 H 425.965 3.46967 1.70737 0
M  V30 4436 H 427.654 3.79407 1.44239 0
M  V30 4437 H 428.42 4.77701 -0.838237 0
M  V30 4438 H 424.299 4.59477 0.374359 0
M  V30 4439 H 427.843 6.51469 -2.49467 0
M  V30 4440 H 423.74 6.32799 -1.27421 0
M  V30 4441 H 424.508 7.66978 -2.8581 0
M  V30 4442 N 427.171 -0.0066808 1.57599 0
M  V30 4443 C 428.081 -1.01671 2.11424 0
M  V30 4444 C 429.097 -1.38143 1.05795 0
M  V30 4445 O 430.273 -1.47011 1.37658 0
M  V30 4446 C 427.338 -2.29192 2.60139 0
M  V30 4447 C 426.399 -1.99094 3.80342 0
M  V30 4448 C 425.632 -3.20535 4.26724 0
M  V30 4449 O 425.855 -4.3199 3.72479 0
M  V30 4450 O 424.789 -3.04924 5.18946 0
M  V30 4451 H 428.615 -0.589181 2.9793 0
M  V30 4452 H 426.2 -0.225091 1.47695 0
M  V30 4453 H 428.082 -3.0412 2.917 0
M  V30 4454 H 426.757 -2.71195 1.76733 0
M  V30 4455 H 425.664 -1.21663 3.53764 0
M  V30 4456 H 426.997 -1.61931 4.648 0
M  V30 4457 N 428.649 -1.55105 -0.279332 0
M  V30 4458 C 429.579 -1.90557 -1.34945 0
M  V30 4459 C 430.56 -0.766738 -1.51839 0
M  V30 4460 O 431.745 -1.02434 -1.64988 0
M  V30 4461 C 428.875 -2.17193 -2.71006 0
M  V30 4462 C 427.829 -3.33021 -2.68851 0
M  V30 4463 C 427.155 -3.45123 -4.08405 0
M  V30 4464 C 428.455 -4.69578 -2.28678 0
M  V30 4465 H 430.149 -2.80188 -1.05522 0
M  V30 4466 H 427.695 -1.34811 -0.506173 0
M  V30 4467 H 429.648 -2.40581 -3.45975 0
M  V30 4468 H 428.372 -1.24355 -3.01999 0
M  V30 4469 H 427.031 -3.0959 -1.9634 0
M  V30 4470 H 426.679 -2.49762 -4.3661 0
M  V30 4471 H 426.379 -4.22995 -4.07859 0
M  V30 4472 H 427.903 -3.70796 -4.85121 0
M  V30 4473 H 429.317 -4.92553 -2.93368 0
M  V30 4474 H 427.714 -5.5032 -2.39306 0
M  V30 4475 H 428.784 -4.68828 -1.23807 0
M  V30 4476 N 430.127 0.543554 -1.4793 0
M  V30 4477 C 431.074 1.64942 -1.6144 0
M  V30 4478 C 432.044 1.59692 -0.456903 0
M  V30 4479 O 433.229 1.78321 -0.678688 0
M  V30 4480 C 430.369 3.03238 -1.64744 0
M  V30 4481 C 429.482 3.18823 -2.91506 0
M  V30 4482 C 428.617 4.47599 -2.86057 0
M  V30 4483 C 427.656 4.56664 -4.07584 0
M  V30 4484 N 426.793 5.76811 -4.00292 0
M  V30 4485 H 431.633 1.52733 -2.55884 0
M  V30 4486 H 429.17 0.7438 -1.2691 0
M  V30 4487 H 431.128 3.83339 -1.64641 0
M  V30 4488 H 429.758 3.1425 -0.738017 0
M  V30 4489 H 428.81 2.32064 -3.01414 0
M  V30 4490 H 430.122 3.21384 -3.81463 0
M  V30 4491 H 429.276 5.35975 -2.84281 0
M  V30 4492 H 428.015 4.47538 -1.93807 0
M  V30 4493 H 427.02 3.66697 -4.09651 0
M  V30 4494 H 428.245 4.58474 -5.00978 0
M  V30 4495 H 426.191 5.77673 -3.10853 0
M  V30 4496 H 426.108 5.80808 -4.8394 0
M  V30 4497 H 427.376 6.67512 -4.02553 0
M  V30 4498 N 431.605 1.3629 0.791371 0
M  V30 4499 C 432.854 1.29742 1.54434 0
M  V30 4500 C 433.167 -0.121729 1.95221 0
M  V30 4501 O 434.373 -0.309579 2.69729 0
M  V30 4502 C 432.829 2.27623 2.78776 0
M  V30 4503 C 432.437 3.74963 2.45166 0
M  V30 4504 C 434.181 2.30047 3.56761 0
M  V30 4505 C 432.088 4.64626 3.65891 0
M  V30 4506 H 431.018 0.482113 0.579727 0
M  V30 4507 H 433.669 1.61642 0.868565 0
M  V30 4508 H 432.051 1.88714 3.48142 0
M  V30 4509 H 433.225 4.22596 1.83709 0
M  V30 4510 H 431.54 3.75295 1.80396 0
M  V30 4511 H 434.137 2.94247 4.46456 0
M  V30 4512 H 434.48 1.30846 3.95203 0
M  V30 4513 H 435.013 2.67563 2.94372 0
M  V30 4514 H 431.752 5.64883 3.32547 0
M  V30 4515 H 431.272 4.2171 4.26521 0
M  V30 4516 H 432.951 4.80801 4.32943 0
M  V30 4517 N 433.083 -1.0153 1.20538 0
M  V30 4518 C 434.331 -1.74803 1.01432 0
M  V30 4519 C 434.652 -1.8963 -0.454456 0
M  V30 4520 O 433.922 -1.43975 -1.32846 0
M  V30 4521 H 432.502 -0.647598 0.372324 0
M  V30 4522 H 435.164 -1.22402 1.5167 0
M  V30 4523 H 434.26 -2.75114 1.47373 0
M  V30 4524 N 434.561 -1.01147 -1.20859 0
M  V30 4525 C 435.508 -0.577354 -2.23462 0
M  V30 4526 C 436.478 0.399922 -1.61214 0
M  V30 4527 O 437.663 0.300515 -1.88419 0
M  V30 4528 C 434.803 0.083372 -3.44999 0
M  V30 4529 C 433.916 -0.937856 -4.21697 0
M  V30 4530 C 433.051 -0.248717 -5.30617 0
M  V30 4531 C 432.09 -1.25705 -5.99053 0
M  V30 4532 N 431.227 -0.594939 -6.99575 0
M  V30 4533 H 436.067 -1.45695 -2.59956 0
M  V30 4534 H 433.604 -0.729428 -1.27741 0
M  V30 4535 H 435.562 0.483535 -4.14388 0
M  V30 4536 H 434.192 0.926645 -3.09214 0
M  V30 4537 H 433.244 -1.45622 -3.51423 0
M  V30 4538 H 434.556 -1.70493 -4.68757 0
M  V30 4539 H 433.71 0.207215 -6.06346 0
M  V30 4540 H 432.449 0.55071 -4.84581 0
M  V30 4541 H 431.454 -1.72343 -5.2209 0
M  V30 4542 H 432.679 -2.05767 -6.47176 0
M  V30 4543 H 430.625 0.184713 -6.5574 0
M  V30 4544 H 430.542 -1.30017 -7.44736 0
M  V30 4545 H 431.81 -0.162427 -7.79331 0
M  V30 4546 N 436.039 1.36541 -0.78704 0
M  V30 4547 C 436.986 2.30082 -0.181901 0
M  V30 4548 C 437.956 1.5186 0.672896 0
M  V30 4549 O 439.141 1.80374 0.622072 0
M  V30 4550 C 436.281 3.3835 0.679197 0
M  V30 4551 C 435.394 4.31565 -0.193882 0
M  V30 4552 C 434.529 5.26915 0.673364 0
M  V30 4553 C 433.568 6.11769 -0.201315 0
M  V30 4554 N 432.705 6.99315 0.624777 0
M  V30 4555 H 437.545 2.81248 -0.985064 0
M  V30 4556 H 435.082 1.38437 -0.497342 0
M  V30 4557 H 437.04 3.99767 1.19341 0
M  V30 4558 H 435.67 2.8851 1.44781 0
M  V30 4559 H 434.722 3.71323 -0.826044 0
M  V30 4560 H 436.034 4.91191 -0.867937 0
M  V30 4561 H 435.188 5.9361 1.25348 0
M  V30 4562 H 433.927 4.67737 1.38105 0
M  V30 4563 H 432.932 5.44039 -0.793849 0
M  V30 4564 H 434.157 6.73022 -0.906568 0
M  V30 4565 H 432.103 6.42648 1.3168 0
M  V30 4566 H 432.02 7.56 0.00835237 0
M  V30 4567 H 433.288 7.70382 1.18879 0
M  V30 4568 N 437.518 0.538854 1.48102 0
M  V30 4569 C 438.428 -0.222648 2.33541 0
M  V30 4570 C 439.444 -0.930225 1.47047 0
M  V30 4571 O 440.62 -0.903211 1.80011 0
M  V30 4572 C 437.685 -1.25064 3.23357 0
M  V30 4573 C 436.746 -0.552469 4.2573 0
M  V30 4574 C 435.979 -1.53149 5.11254 0
M  V30 4575 O 436.202 -2.76487 4.9891 0
M  V30 4576 O 435.136 -1.06602 5.92385 0
M  V30 4577 H 438.962 0.477707 2.99919 0
M  V30 4578 H 436.547 0.299669 1.46364 0
M  V30 4579 H 438.429 -1.8445 3.78888 0
M  V30 4580 H 437.104 -1.93325 2.59629 0
M  V30 4581 H 436.011 0.082114 3.7401 0
M  V30 4582 H 437.344 0.0883526 4.92121 0
M  V30 4583 N 438.996 -1.55193 0.274407 0
M  V30 4584 C 439.959 -2.212 -0.600279 0
M  V30 4585 C 440.959 -1.18963 -1.08187 0
M  V30 4586 O 442.149 -1.43873 -0.982158 0
M  V30 4587 C 439.281 -2.87739 -1.82809 0
M  V30 4588 H 440.474 -2.9989 -0.0239682 0
M  V30 4589 H 438.027 -1.5628 0.0250192 0
M  V30 4590 H 438.762 -2.13058 -2.44493 0
M  V30 4591 H 438.547 -3.62658 -1.49069 0
M  V30 4592 H 440.037 -3.38171 -2.45011 0
M  V30 4593 N 440.474 -0.00167713 -1.576 0
M  V30 4594 C 441.406 1.0174 -2.05382 0
M  V30 4595 C 442.419 1.30595 -0.972052 0
M  V30 4596 O 443.608 1.27542 -1.24882 0
M  V30 4597 C 440.708 2.35174 -2.44022 0
M  V30 4598 C 439.881 2.25234 -3.74951 0
M  V30 4599 C 438.94 3.4137 -4.00441 0
M  V30 4600 O 437.966 3.19483 -4.71083 0
M  V30 4601 N 439.168 4.64275 -3.48467 0
M  V30 4602 H 441.933 0.609902 -2.93428 0
M  V30 4603 H 439.494 0.185672 -1.60832 0
M  V30 4604 H 441.486 3.11643 -2.58187 0
M  V30 4605 H 440.056 2.67659 -1.61485 0
M  V30 4606 H 439.276 1.33664 -3.70847 0
M  V30 4607 H 440.564 2.15767 -4.60784 0
M  V30 4608 H 439.962 4.84955 -2.91264 0
M  V30 4609 H 438.519 5.38005 -3.67959 0
M  V30 4610 N 441.952 1.55251 0.271103 0
M  V30 4611 C 443.198 1.76207 1.00394 0
M  V30 4612 C 443.531 0.562604 1.85872 0
M  V30 4613 O 442.806 -0.439785 1.89463 0
M  V30 4614 C 443.089 3.06828 1.8849 0
M  V30 4615 C 442.942 4.37134 1.05992 0
M  V30 4616 C 444.261 3.33503 2.87165 0
M  V30 4617 H 441.38 0.641086 0.363562 0
M  V30 4618 H 444.022 1.87982 0.276189 0
M  V30 4619 H 442.172 2.96921 2.5054 0
M  V30 4620 H 443.844 4.59001 0.459978 0
M  V30 4621 H 442.087 4.32275 0.363443 0
M  V30 4622 H 442.758 5.2486 1.70955 0
M  V30 4623 H 445.234 3.43215 2.3525 0
M  V30 4624 H 444.11 4.2616 3.45946 0
M  V30 4625 H 444.371 2.53235 3.62387 0
M  V30 4626 N 443.43 -0.535701 1.48216 0
M  V30 4627 C 444.679 -1.28828 1.55197 0
M  V30 4628 C 444.992 -1.94263 0.228278 0
M  V30 4629 O 446.198 -2.70927 0.176278 0
M  V30 4630 C 444.654 -2.33727 2.73678 0
M  V30 4631 C 444.262 -1.74386 4.12666 0
M  V30 4632 C 446.006 -3.1003 2.89968 0
M  V30 4633 C 443.913 -2.77192 5.22416 0
M  V30 4634 H 442.843 -0.484484 0.577747 0
M  V30 4635 H 445.494 -0.56646 1.74538 0
M  V30 4636 H 443.876 -3.08919 2.4776 0
M  V30 4637 H 445.05 -1.05421 4.48579 0
M  V30 4638 H 443.365 -1.10595 4.01445 0
M  V30 4639 H 445.962 -3.86842 3.6913 0
M  V30 4640 H 446.305 -3.65542 1.9921 0
M  V30 4641 H 446.838 -2.41952 3.15759 0
M  V30 4642 H 443.577 -2.26507 6.15122 0
M  V30 4643 H 443.097 -3.44502 4.90998 0
M  V30 4644 H 444.776 -3.40285 5.50286 0
M  V30 4645 N 444.908 -1.36708 -0.784132 0
M  V30 4646 C 446.156 -1.30972 -1.53918 0
M  V30 4647 C 446.477 0.109086 -1.94695 0
M  V30 4648 O 445.747 1.05048 -1.65353 0
M  V30 4649 H 444.327 -0.481819 -0.570841 0
M  V30 4650 H 446.989 -1.71063 -0.934002 0
M  V30 4651 H 446.085 -1.94061 -2.44431 0
M  V30 4652 N 446.386 1.0089 -1.21074 0
M  V30 4653 C 447.633 1.74607 -1.0256 0
M  V30 4654 C 447.961 1.89426 0.44136 0
M  V30 4655 O 447.216 1.42266 1.34384 0
M  V30 4656 C 447.515 3.16335 -1.66334 0
M  V30 4657 C 447.181 3.21474 -3.16173 0
M  V30 4658 C 445.843 3.22583 -3.57062 0
M  V30 4659 C 448.195 3.19025 -4.12156 0
M  V30 4660 C 445.523 3.18925 -4.92446 0
M  V30 4661 C 447.875 3.16909 -5.47496 0
M  V30 4662 C 446.539 3.16326 -5.87787 0
M  V30 4663 H 445.809 0.638933 -0.375294 0
M  V30 4664 H 448.456 1.18274 -1.50611 0
M  V30 4665 H 446.761 3.75876 -1.10566 0
M  V30 4666 H 448.458 3.72083 -1.49516 0
M  V30 4667 H 445.048 3.2135 -2.83605 0
M  V30 4668 H 449.232 3.17332 -3.81595 0
M  V30 4669 H 444.488 3.16809 -5.22917 0
M  V30 4670 H 448.662 3.13968 -6.21609 0
M  V30 4671 H 446.289 3.13246 -6.92662 0
M  V30 4672 N 447.864 1.01787 1.20321 0
M  V30 4673 C 449.141 0.622978 1.85414 0
M  V30 4674 C 449.521 -0.898887 1.91006 0
M  V30 4675 O 448.869 -1.79112 1.41884 0
M  V30 4676 C 449.079 1.27226 3.24984 0
M  V30 4677 C 450.427 1.3885 4.01255 0
M  V30 4678 O 451.451 1.22857 3.34342 0
M  V30 4679 O 450.31 1.64705 5.2109 0
M  V30 4680 H 447.404 0.215116 0.798533 0
M  V30 4681 H 449.95 1.11533 1.27901 0
M  V30 4682 H 448.722 2.31209 3.15687 0
M  V30 4683 H 448.345 0.767069 3.90131 0
M  V30 4684 N 449.342 -1.36122 0.79427 0
M  V30 4685 C 450.274 -2.28683 0.153903 0
M  V30 4686 C 451.287 -1.49707 -0.639669 0
M  V30 4687 O 452.476 -1.7209 -0.474054 0
M  V30 4688 C 449.576 -3.29202 -0.804921 0
M  V30 4689 C 448.749 -4.37358 -0.060366 0
M  V30 4690 C 447.808 -5.17811 -0.935849 0
M  V30 4691 O 446.834 -5.67853 -0.391309 0
M  V30 4692 N 448.036 -5.34721 -2.25951 0
M  V30 4693 H 450.801 -2.84278 0.949008 0
M  V30 4694 H 448.362 -1.4834 0.648611 0
M  V30 4695 H 450.354 -3.79914 -1.39455 0
M  V30 4696 H 448.924 -2.74212 -1.50088 0
M  V30 4697 H 448.144 -3.87746 0.710382 0
M  V30 4698 H 449.432 -5.06777 0.45324 0
M  V30 4699 H 448.83 -4.95687 -2.72601 0
M  V30 4700 H 447.387 -5.88657 -2.79867 0
M  V30 4701 N 450.82 -0.546701 -1.47814 0
M  V30 4702 C 451.783 0.196287 -2.28358 0
M  V30 4703 C 452.783 0.852437 -1.36346 0
M  V30 4704 O 453.973 0.709913 -1.59078 0
M  V30 4705 C 451.105 1.28579 -3.15722 0
M  V30 4706 H 452.298 -0.511086 -2.95513 0
M  V30 4707 H 449.851 -0.303248 -1.5333 0
M  V30 4708 H 450.586 2.0259 -2.53235 0
M  V30 4709 H 450.371 0.820229 -3.83425 0
M  V30 4710 H 451.861 1.80793 -3.76435 0
M  V30 4711 N 452.299 1.55045 -0.282633 0
M  V30 4712 C 453.547 1.99365 0.331334 0
M  V30 4713 C 453.868 1.1725 1.55812 0
M  V30 4714 O 453.138 0.263871 1.94115 0
M  V30 4715 H 451.718 0.736397 0.125414 0
M  V30 4716 H 454.38 1.90964 -0.389711 0
M  V30 4717 H 453.476 3.0596 0.616036 0
M  V30 4718 N 453.777 0.010035 1.57597 0
M  V30 4719 C 455.023 -0.673697 1.91283 0
M  V30 4720 C 455.356 -1.72863 0.884979 0
M  V30 4721 O 454.631 -1.94268 -0.0949487 0
M  V30 4722 C 454.914 -1.30766 3.35518 0
M  V30 4723 C 454.767 -0.263578 4.49027 0
M  V30 4724 C 456.086 -2.23105 3.79358 0
M  V30 4725 H 453.205 -0.243439 0.695634 0
M  V30 4726 H 455.847 0.0633864 1.89894 0
M  V30 4727 H 453.997 -1.93588 3.36832 0
M  V30 4728 H 455.669 0.365738 4.59848 0
M  V30 4729 H 453.912 0.413077 4.31829 0
M  V30 4730 H 454.583 -0.746398 5.4693 0
M  V30 4731 H 457.059 -1.70289 3.79659 0
M  V30 4732 H 455.935 -2.64424 4.81011 0
M  V30 4733 H 456.196 -3.11433 3.13787 0
M  V30 4734 N 455.255 -1.55392 -0.262866 0
M  V30 4735 C 456.502 -1.76476 -0.993109 0
M  V30 4736 C 456.83 -0.571479 -1.85915 0
M  V30 4737 O 456.085 0.445733 -1.90556 0
M  V30 4738 C 456.384 -3.02889 -1.89718 0
M  V30 4739 C 456.05 -4.34974 -1.18781 0
M  V30 4740 C 454.712 -4.7087 -0.991699 0
M  V30 4741 C 457.064 -5.16695 -0.683798 0
M  V30 4742 C 454.392 -5.86036 -0.279024 0
M  V30 4743 C 456.744 -6.32598 0.0153327 0
M  V30 4744 C 455.408 -6.67127 0.223062 0
M  V30 4745 H 454.678 -0.64577 -0.363404 0
M  V30 4746 H 457.325 -1.89664 -0.264525 0
M  V30 4747 H 455.63 -2.84644 -2.6923 0
M  V30 4748 H 457.327 -3.16399 -2.46359 0
M  V30 4749 H 453.917 -4.06765 -1.35058 0
M  V30 4750 H 458.101 -4.8943 -0.8229 0
M  V30 4751 H 453.357 -6.11306 -0.107456 0
M  V30 4752 H 457.531 -6.95171 0.413584 0
M  V30 4753 H 455.158 -7.56216 0.777265 0
M  V30 4754 N 456.733 0.527833 -1.48498 0
M  V30 4755 C 457.963 1.30633 -1.60058 0
M  V30 4756 C 458.371 1.87394 -0.260786 0
M  V30 4757 O 457.714 1.67227 0.760317 0
M  V30 4758 C 457.776 2.49361 -2.58958 0
M  V30 4759 C 457.44 2.13671 -4.03972 0
M  V30 4760 C 458.437 1.69217 -4.91591 0
M  V30 4761 C 456.122 2.24129 -4.49524 0
M  V30 4762 C 458.116 1.35689 -6.2279 0
M  V30 4763 C 455.803 1.90212 -5.80743 0
M  V30 4764 C 456.801 1.46063 -6.67199 0
M  V30 4765 O 456.489 1.12593 -7.95976 0
M  V30 4766 H 456.221 0.403444 -0.54241 0
M  V30 4767 H 458.775 0.643233 -1.95068 0
M  V30 4768 H 457.005 3.18659 -2.19073 0
M  V30 4769 H 458.694 3.11421 -2.6033 0
M  V30 4770 H 459.46 1.60607 -4.57636 0
M  V30 4771 H 455.339 2.57447 -3.82416 0
M  V30 4772 H 458.883 1.01157 -6.90227 0
M  V30 4773 H 454.78 1.98464 -6.14233 0
M  V30 4774 H 455.548 1.25972 -8.08748 0
M  V30 4775 N 458.211 1.37122 0.776871 0
M  V30 4776 C 459.459 1.31787 1.53221 0
M  V30 4777 C 459.78 -0.0987589 1.9475 0
M  V30 4778 O 459.05 -1.0417 1.65908 0
M  V30 4779 H 457.63 0.484839 0.568278 0
M  V30 4780 H 460.292 1.71556 0.924917 0
M  V30 4781 H 459.388 1.95355 2.43398 0
M  V30 4782 N 459.689 -1.00246 1.21608 0
M  V30 4783 C 460.619 -2.10921 1.00172 0
M  V30 4784 C 461.6 -1.69938 -0.0741587 0
M  V30 4785 O 462.785 -1.94009 0.0861753 0
M  V30 4786 C 459.915 -3.42618 0.568355 0
M  V30 4787 C 458.869 -3.97407 1.58909 0
M  V30 4788 C 458.195 -5.25038 1.01187 0
M  V30 4789 C 459.495 -4.2918 2.97661 0
M  V30 4790 H 461.189 -2.29112 1.92739 0
M  V30 4791 H 458.735 -1.10101 0.928102 0
M  V30 4792 H 460.688 -4.19444 0.405555 0
M  V30 4793 H 459.412 -3.24227 -0.392961 0
M  V30 4794 H 458.071 -3.22703 1.73949 0
M  V30 4795 H 457.719 -5.02982 0.0421965 0
M  V30 4796 H 457.419 -5.62661 1.6937 0
M  V30 4797 H 458.943 -6.04507 0.860448 0
M  V30 4798 H 460.357 -4.96839 2.86049 0
M  V30 4799 H 458.754 -4.77952 3.6288 0
M  V30 4800 H 459.824 -3.3735 3.48315 0
M  V30 4801 N 461.167 -1.02423 -1.1978 0
M  V30 4802 C 462.099 -0.559152 -2.22275 0
M  V30 4803 C 463.112 0.36251 -1.58713 0
M  V30 4804 O 464.301 0.159641 -1.77785 0
M  V30 4805 C 461.401 0.205094 -3.38279 0
M  V30 4806 C 460.574 -0.720361 -4.31427 0
M  V30 4807 C 459.633 -0.00234368 -5.262 0
M  V30 4808 O 458.659 -0.627378 -5.65732 0
M  V30 4809 N 459.861 1.26996 -5.66438 0
M  V30 4810 H 462.626 -1.44064 -2.62804 0
M  V30 4811 H 460.187 -0.902692 -1.34399 0
M  V30 4812 H 462.179 0.694868 -3.9869 0
M  V30 4813 H 460.749 0.987947 -2.96578 0
M  V30 4814 H 459.969 -1.39031 -3.68869 0
M  V30 4815 H 461.257 -1.3495 -4.90577 0
M  V30 4816 H 460.655 1.79858 -5.36347 0
M  V30 4817 H 459.212 1.70432 -6.29123 0
M  V30 4818 N 462.645 1.35699 -0.801477 0
M  V30 4819 C 463.87 2.03687 -0.390678 0
M  V30 4820 C 464.295 1.60015 0.988778 0
M  V30 4821 O 463.653 0.774357 1.63931 0
M  V30 4822 C 463.701 3.57439 -0.476404 0
M  V30 4823 O 462.805 4.09208 0.512106 0
M  V30 4824 H 462.146 0.64344 -0.163956 0
M  V30 4825 H 464.676 1.73403 -1.08594 0
M  V30 4826 H 464.686 4.06544 -0.344357 0
M  V30 4827 H 463.361 3.88576 -1.48262 0
M  V30 4828 H 461.938 3.7134 0.340721 0
M  V30 4829 N 464.123 0.554532 1.47522 0
M  V30 4830 C 465.372 0.0273458 2.01681 0
M  V30 4831 C 465.685 -1.32962 1.43459 0
M  V30 4832 O 466.891 -1.94657 1.89265 0
M  V30 4833 C 465.347 -0.00159057 3.599 0
M  V30 4834 C 464.955 1.35197 4.27113 0
M  V30 4835 C 466.699 -0.476311 4.21819 0
M  V30 4836 C 464.606 1.28229 5.77331 0
M  V30 4837 H 463.536 0.00645269 0.753972 0
M  V30 4838 H 466.187 0.701985 1.69542 0
M  V30 4839 H 464.569 -0.741821 3.8899 0
M  V30 4840 H 465.743 2.1097 4.09668 0
M  V30 4841 H 464.058 1.76441 3.77171 0
M  V30 4842 H 466.655 -0.5468 5.31897 0
M  V30 4843 H 466.998 -1.4877 3.8881 0
M  V30 4844 H 467.531 0.20898 3.97251 0
M  V30 4845 H 464.27 2.26959 6.14955 0
M  V30 4846 H 463.79 0.566314 5.97121 0
M  V30 4847 H 465.469 0.983226 6.39485 0
M  V30 4848 N 465.601 -1.54893 0.290851 0
M  V30 4849 C 466.531 -2.26103 -0.583084 0
M  V30 4850 C 467.512 -1.25684 -1.14619 0
M  V30 4851 O 468.697 -1.54436 -1.17741 0
M  V30 4852 C 465.827 -2.99409 -1.75987 0
M  V30 4853 C 464.781 -4.0689 -1.32758 0
M  V30 4854 C 464.107 -4.67856 -2.58872 0
M  V30 4855 C 465.407 -5.20215 -0.46624 0
M  V30 4856 H 467.101 -2.99398 0.0108214 0
M  V30 4857 H 464.647 -1.43998 0.00664468 0
M  V30 4858 H 466.6 -3.47943 -2.37727 0
M  V30 4859 H 465.324 -2.23675 -2.37985 0
M  V30 4860 H 463.983 -3.59191 -0.733299 0
M  V30 4861 H 463.631 -3.88772 -3.19163 0
M  V30 4862 H 463.331 -5.40438 -2.30653 0
M  V30 4863 H 464.855 -5.19147 -3.21433 0
M  V30 4864 H 466.269 -5.64704 -0.989047 0
M  V30 4865 H 464.666 -5.99455 -0.27826 0
M  V30 4866 H 465.736 -4.82198 0.511173 0
M  V30 4867 N 467.08 -0.0183926 -1.57589 0
M  V30 4868 C 468.305 0.676634 -1.96052 0
M  V30 4869 C 468.73 1.6548 -0.894307 0
M  V30 4870 O 468.088 1.80712 0.145849 0
M  V30 4871 C 468.136 1.36872 -3.33614 0
M  V30 4872 O 467.24 2.48372 -3.29219 0
M  V30 4873 H 466.581 0.1786 -0.63953 0
M  V30 4874 H 469.111 -0.077056 -2.04455 0
M  V30 4875 H 469.121 1.72797 -3.69601 0
M  V30 4876 H 467.796 0.651636 -4.10763 0
M  V30 4877 H 466.373 2.14639 -3.04934 0
M  V30 4878 N 468.558 1.5553 0.254621 0
M  V30 4879 C 469.488 1.9268 1.31897 0
M  V30 4880 C 470.469 0.790797 1.506 0
M  V30 4881 O 471.654 1.05045 1.63337 0
M  V30 4882 C 468.784 2.21477 2.67517 0
M  V30 4883 C 467.738 3.37256 2.63519 0
M  V30 4884 C 467.064 3.51576 4.02862 0
M  V30 4885 C 468.364 4.73157 2.21179 0
M  V30 4886 H 470.058 2.81832 1.01051 0
M  V30 4887 H 467.604 1.35599 0.484662 0
M  V30 4888 H 469.557 2.46055 3.42104 0
M  V30 4889 H 468.281 1.29144 2.99982 0
M  V30 4890 H 466.94 3.12675 1.9139 0
M  V30 4891 H 466.588 2.56676 4.32581 0
M  V30 4892 H 466.288 4.2943 4.01078 0
M  V30 4893 H 467.812 3.78467 4.79161 0
M  V30 4894 H 469.226 4.97158 2.85494 0
M  V30 4895 H 467.623 5.54058 2.30521 0
M  V30 4896 H 468.693 4.70739 1.16332 0
M  V30 4897 N 470.036 -0.519951 1.48776 0
M  V30 4898 C 471.282 -1.27711 1.57536 0
M  V30 4899 C 471.615 -1.92547 0.252866 0
M  V30 4900 O 470.89 -1.7979 -0.742021 0
M  V30 4901 C 471.173 -2.35875 2.72094 0
M  V30 4902 C 471.026 -1.75664 4.1408 0
M  V30 4903 C 472.345 -3.37575 2.82367 0
M  V30 4904 H 469.464 -0.462971 0.573434 0
M  V30 4905 H 472.106 -0.578194 1.80989 0
M  V30 4906 H 470.256 -2.95488 2.52228 0
M  V30 4907 H 471.928 -1.20025 4.45412 0
M  V30 4908 H 470.171 -1.06154 4.20611 0
M  V30 4909 H 470.842 -2.54029 4.90075 0
M  V30 4910 H 473.318 -2.87929 3.00393 0
M  V30 4911 H 472.194 -4.1064 3.64233 0
M  V30 4912 H 472.455 -3.98743 1.90936 0
M  V30 4913 N 471.514 -1.37532 -0.769588 0
M  V30 4914 C 472.925 -1.29382 -1.346 0
M  V30 4915 C 473.276 0.0576039 -1.96115 0
M  V30 4916 O 472.401 0.95947 -1.93967 0
M  V30 4917 C 472.996 -2.34298 -2.44724 0
M  V30 4918 C 471.555 -2.29776 -2.98128 0
M  V30 4919 C 470.702 -2.18013 -1.71364 0
M  V30 4920 H 473.653 -1.48123 -0.56968 0
M  V30 4921 H 473.674 -1.99089 -3.24259 0
M  V30 4922 H 473.186 -3.32645 -1.99922 0
M  V30 4923 H 471.287 -1.34959 -3.47299 0
M  V30 4924 H 471.4 -3.23276 -3.53595 0
M  V30 4925 H 469.764 -1.64595 -1.94372 0
M  V30 4926 H 470.547 -3.18278 -1.28662 0
M  V30 4927 N 472.992 0.995999 -1.22138 0
M  V30 4928 C 474.217 1.77601 -1.0711 0
M  V30 4929 C 474.642 1.84339 0.374264 0
M  V30 4930 O 474 1.29359 1.27028 0
M  V30 4931 C 474.048 3.18897 -1.68336 0
M  V30 4932 O 473.152 4.01663 -0.934928 0
M  V30 4933 H 472.493 0.547011 -0.376397 0
M  V30 4934 H 475.023 1.25137 -1.6187 0
M  V30 4935 H 475.033 3.69539 -1.72931 0
M  V30 4936 H 473.708 3.13308 -2.73516 0
M  V30 4937 H 472.285 3.60204 -0.964751 0
M  V30 4938 N 474.47 1.03057 1.19235 0
M  V30 4939 C 475.747 0.642608 1.84743 0
M  V30 4940 C 476.127 -0.878577 1.91948 0
M  V30 4941 O 475.475 -1.77597 1.43776 0
M  V30 4942 C 475.685 1.30665 3.23616 0
M  V30 4943 C 477.033 1.43098 3.9976 0
M  V30 4944 O 478.057 1.26396 3.3302 0
M  V30 4945 O 476.916 1.70223 5.19313 0
M  V30 4946 H 474.01 0.223573 0.796206 0
M  V30 4947 H 476.556 1.12883 1.26711 0
M  V30 4948 H 475.328 2.34544 3.13217 0
M  V30 4949 H 474.951 0.808405 3.89295 0
M  V30 4950 N 475.948 -1.35272 0.808662 0
M  V30 4951 C 477.196 -1.98316 0.389233 0
M  V30 4952 C 477.517 -1.64465 -1.04767 0
M  V30 4953 O 476.787 -0.928175 -1.72516 0
M  V30 4954 H 475.367 -0.733585 0.140935 0
M  V30 4955 H 478.029 -1.6515 1.03496 0
M  V30 4956 H 477.125 -3.08123 0.496631 0
M  V30 4957 N 477.426 -0.562348 -1.47226 0
M  V30 4958 C 478.651 -0.0432632 -2.07355 0
M  V30 4959 C 479.076 1.24332 -1.41149 0
M  V30 4960 O 478.434 1.74603 -0.488226 0
M  V30 4961 C 478.482 0.130288 -3.60365 0
M  V30 4962 O 477.586 1.19166 -3.94808 0
M  V30 4963 H 476.927 -0.0536334 -0.66183 0
M  V30 4964 H 479.457 -0.779495 -1.89169 0
M  V30 4965 H 479.467 0.342881 -4.06557 0
M  V30 4966 H 478.142 -0.809389 -4.07948 0
M  V30 4967 H 476.719 0.959153 -3.60354 0
M  V30 4968 N 478.904 1.54736 -0.299062 0
M  V30 4969 C 480.152 1.99706 0.31017 0
M  V30 4970 C 480.473 1.18896 1.54559 0
M  V30 4971 O 479.743 0.284445 1.93824 0
M  V30 4972 H 478.323 0.737686 0.117596 0
M  V30 4973 H 480.985 1.9054 -0.409943 0
M  V30 4974 H 480.081 3.06596 0.58355 0
M  V30 4975 N 480.382 0.0267497 1.57577 0
M  V30 4976 C 481.329 -0.955894 2.10075 0
M  V30 4977 C 482.299 -1.32453 1.00226 0
M  V30 4978 O 483.484 -1.41826 1.27632 0
M  V30 4979 C 480.624 -2.2338 2.6305 0
M  V30 4980 C 479.737 -1.92183 3.86898 0
M  V30 4981 C 478.872 -3.14251 4.28275 0
M  V30 4982 C 477.911 -2.78862 5.44888 0
M  V30 4983 N 477.048 -3.93548 5.81433 0
M  V30 4984 H 481.888 -0.501303 2.93753 0
M  V30 4985 H 479.425 -0.235847 1.45197 0
M  V30 4986 H 481.383 -2.98124 2.91853 0
M  V30 4987 H 480.013 -2.6646 1.82205 0
M  V30 4988 H 479.065 -1.07692 3.64838 0
M  V30 4989 H 480.377 -1.62117 4.7172 0
M  V30 4990 H 479.531 -3.97317 4.58502 0
M  V30 4991 H 478.27 -3.47476 3.42215 0
M  V30 4992 H 477.275 -1.94208 5.14357 0
M  V30 4993 H 478.5 -2.46855 6.32645 0
M  V30 4994 H 476.446 -4.2662 4.98328 0
M  V30 4995 H 476.363 -3.67098 6.6089 0
M  V30 4996 H 477.631 -4.77325 6.16264 0
M  V30 4997 N 481.861 -1.55662 -0.24637 0
M  V30 4998 C 483.11 -1.7672 -0.972254 0
M  V30 4999 C 483.423 -0.59078 -1.86465 0
M  V30 5000 O 484.629 -0.684391 -2.62732 0
M  V30 5001 C 483.085 -3.12869 -1.7788 0
M  V30 5002 C 482.693 -4.38161 -0.933768 0
M  V30 5003 C 484.437 -3.43265 -2.49738 0
M  V30 5004 C 482.344 -5.6534 -1.73623 0
M  V30 5005 H 481.274 -0.658795 -0.366749 0
M  V30 5006 H 483.925 -1.82092 -0.226902 0
M  V30 5007 H 482.307 -3.01606 -2.56612 0
M  V30 5008 H 483.481 -4.60413 -0.188736 0
M  V30 5009 H 481.796 -4.15102 -0.328488 0
M  V30 5010 H 484.393 -4.35501 -3.10231 0
M  V30 5011 H 484.736 -2.64614 -3.2138 0
M  V30 5012 H 485.269 -3.55746 -1.78016 0
M  V30 5013 H 482.008 -6.46814 -1.06354 0
M  V30 5014 H 481.528 -5.47188 -2.45653 0
M  V30 5015 H 483.207 -6.04616 -2.30323 0
M  V30 5016 N 483.339 0.512053 -1.4905 0
M  V30 5017 C 484.302 1.59704 -1.64399 0
M  V30 5018 C 485.302 1.52285 -0.516317 0
M  V30 5019 O 486.492 1.55635 -0.782527 0
M  V30 5020 C 483.624 2.9935 -1.63102 0
M  V30 5021 H 484.817 1.47428 -2.61161 0
M  V30 5022 H 482.37 0.735469 -1.37915 0
M  V30 5023 H 483.105 3.17116 -0.678836 0
M  V30 5024 H 482.89 3.06144 -2.44986 0
M  V30 5025 H 484.38 3.782 -1.77072 0
M  V30 5026 N 484.817 1.37938 0.762283 0
M  V30 5027 C 486.045 1.36883 1.55147 0
M  V30 5028 C 486.46 -0.0435348 1.8875 0
M  V30 5029 O 485.817 -1.00786 1.52146 0
M  V30 5030 C 485.868 2.21624 2.85596 0
M  V30 5031 O 485.589 3.57358 2.5343 0
M  V30 5032 C 487.09 2.28653 3.7978 0
M  V30 5033 H 484.31 0.468521 0.480343 0
M  V30 5034 H 486.854 1.81404 0.944079 0
M  V30 5035 H 485.009 1.80588 3.42734 0
M  V30 5036 H 485.423 4.01883 3.37032 0
M  V30 5037 H 486.897 2.9225 4.68288 0
M  V30 5038 H 487.374 1.29767 4.19592 0
M  V30 5039 H 487.98 2.70043 3.28568 0
M  V30 5040 N 486.295 -0.989507 1.22664 0
M  V30 5041 C 487.225 -2.09847 1.02404 0
M  V30 5042 C 488.206 -1.70007 -0.0561303 0
M  V30 5043 O 489.391 -1.93906 0.106748 0
M  V30 5044 C 486.521 -3.41996 0.604663 0
M  V30 5045 C 485.475 -3.95699 1.63115 0
M  V30 5046 C 484.801 -5.23936 1.0675 0
M  V30 5047 C 486.101 -4.25999 3.02196 0
M  V30 5048 H 487.795 -2.27054 1.95158 0
M  V30 5049 H 485.341 -1.09111 0.939727 0
M  V30 5050 H 487.294 -4.1899 0.45002 0
M  V30 5051 H 486.018 -3.24626 -0.35855 0
M  V30 5052 H 484.677 -3.2084 1.77362 0
M  V30 5053 H 484.325 -5.02909 0.0955422 0
M  V30 5054 H 484.025 -5.60833 1.75328 0
M  V30 5055 H 485.549 -6.0356 0.924516 0
M  V30 5056 H 486.963 -4.93777 2.91303 0
M  V30 5057 H 485.36 -4.74076 3.67929 0
M  V30 5058 H 486.43 -3.33636 3.51873 0
M  V30 5059 N 487.773 -1.03688 -1.18687 0
M  V30 5060 C 489.05 -0.652397 -1.84399 0
M  V30 5061 C 489.43 0.868386 -1.92412 0
M  V30 5062 O 488.778 1.76832 -1.44716 0
M  V30 5063 C 488.988 -1.3238 -3.22919 0
M  V30 5064 C 490.336 -1.45216 -3.98996 0
M  V30 5065 O 491.36 -1.2816 -3.32345 0
M  V30 5066 O 490.219 -1.72975 -5.18403 0
M  V30 5067 H 487.313 -0.227793 -0.795009 0
M  V30 5068 H 489.859 -1.13553 -1.2611 0
M  V30 5069 H 488.631 -2.36202 -3.11968 0
M  V30 5070 H 488.254 -0.829039 -3.88861 0
M  V30 5071 N 489.251 1.34841 -0.815825 0
M  V30 5072 C 490.214 2.27959 -0.238185 0
M  V30 5073 C 491.214 1.49983 0.579816 0
M  V30 5074 O 492.404 1.69617 0.396953 0
M  V30 5075 C 489.536 3.34314 0.666876 0
M  V30 5076 H 490.729 2.80558 -1.05958 0
M  V30 5077 H 488.282 1.44852 -0.587156 0
M  V30 5078 H 489.017 2.86916 1.5116 0
M  V30 5079 H 488.802 3.92014 0.0819106 0
M  V30 5080 H 490.292 4.0379 1.06506 0
M  V30 5081 N 490.729 0.570148 1.46925 0
M  V30 5082 C 491.954 0.0542592 2.07329 0
M  V30 5083 C 492.379 -1.23582 1.41806 0
M  V30 5084 O 491.737 -1.74341 0.497479 0
M  V30 5085 C 491.785 -0.111175 3.60429 0
M  V30 5086 O 490.889 -1.17071 3.95434 0
M  V30 5087 H 490.23 0.0571425 0.661537 0
M  V30 5088 H 492.76 0.789516 1.88753 0
M  V30 5089 H 492.77 -0.321315 4.06733 0
M  V30 5090 H 491.445 0.831012 4.07513 0
M  V30 5091 H 490.022 -0.940029 3.60857 0
M  V30 5092 N 492.207 -1.54576 0.307264 0
M  V30 5093 C 493.484 -1.92377 -0.353605 0
M  V30 5094 C 493.864 -1.23517 -1.71192 0
M  V30 5095 O 493.212 -0.373101 -2.25433 0
M  V30 5096 C 493.422 -3.45928 -0.462039 0
M  V30 5097 C 494.77 -4.18278 -0.729975 0
M  V30 5098 O 495.794 -3.51997 -0.545605 0
M  V30 5099 O 494.653 -5.3563 -1.08454 0
M  V30 5100 H 491.747 -0.802747 -0.198812 0
M  V30 5101 H 494.293 -1.65929 0.355783 0
M  V30 5102 H 493.065 -3.88187 0.492592 0
M  V30 5103 H 492.688 -3.78431 -1.21965 0
M  V30 5104 N 493.685 -0.035106 -1.57561 0
M  V30 5105 C 494.648 0.929819 -2.09492 0
M  V30 5106 C 495.648 1.25026 -1.01119 0
M  V30 5107 O 496.838 1.18961 -1.27255 0
M  V30 5108 C 493.97 2.24457 -2.56577 0
M  V30 5109 H 495.163 0.479935 -2.96035 0
M  V30 5110 H 492.716 0.213033 -1.54841 0
M  V30 5111 H 493.451 2.74061 -1.73382 0
M  V30 5112 H 493.236 2.02508 -3.35757 0
M  V30 5113 H 494.726 2.93607 -2.96959 0
M  V30 5114 N 495.163 1.55791 0.238111 0
M  V30 5115 C 496.574 1.68383 0.806472 0
M  V30 5116 C 496.925 0.634157 1.85669 0
M  V30 5117 O 496.05 -0.217913 2.153 0
M  V30 5118 C 496.645 3.05268 1.46959 0
M  V30 5119 C 495.204 3.1977 1.98555 0
M  V30 5120 C 494.351 2.64279 0.839763 0
M  V30 5121 H 497.302 1.58694 0.0137535 0
M  V30 5122 H 497.323 3.00203 2.33792 0
M  V30 5123 H 496.835 3.81643 0.704993 0
M  V30 5124 H 494.936 2.48234 2.77868 0
M  V30 5125 H 495.049 4.26788 2.17689 0
M  V30 5126 H 493.413 2.22329 1.24265 0
M  V30 5127 H 494.196 3.43187 0.0881032 0
M  V30 5128 N 496.642 -0.504142 1.49319 0
M  V30 5129 C 498.058 -0.835039 1.36012 0
M  V30 5130 C 498.258 -1.97674 0.390808 0
M  V30 5131 O 497.314 -2.51867 -0.178655 0
M  V30 5132 C 498.627 -1.17821 2.76656 0
M  V30 5133 C 500.175 -1.2866 2.85334 0
M  V30 5134 C 500.65 -1.66307 4.26739 0
M  V30 5135 N 502.141 -1.73362 4.29534 0
M  V30 5136 C 502.876 -2.0393 5.35911 0
M  V30 5137 N 502.372 -2.32744 6.52535 0
M  V30 5138 N 504.165 -2.05155 5.23324 0
M  V30 5139 H 496.316 0.248764 2.10938 0
M  V30 5140 H 498.579 0.0486962 0.946748 0
M  V30 5141 H 498.285 -0.412682 3.4927 0
M  V30 5142 H 498.159 -2.12239 3.11825 0
M  V30 5143 H 500.546 -2.04285 2.1296 0
M  V30 5144 H 500.627 -0.323004 2.53752 0
M  V30 5145 H 500.271 -0.91234 4.99639 0
M  V30 5146 H 500.201 -2.63761 4.55782 0
M  V30 5147 H 502.692 -1.53268 3.45424 0
M  V30 5148 H 503.005 -2.55248 7.2943 0
M  V30 5149 H 501.35 -2.30207 6.55767 0
M  V30 5150 H 504.541 -1.82119 4.3122 0
M  V30 5151 H 504.714 -2.28644 6.06322 0
M  V30 5152 N 498.12 -1.38341 -0.754957 0
M  V30 5153 C 499.367 -1.34473 -1.51404 0
M  V30 5154 C 499.695 0.0656458 -1.94389 0
M  V30 5155 O 498.95 1.04244 -1.65625 0
M  V30 5156 C 499.249 -2.2452 -2.78075 0
M  V30 5157 C 498.915 -3.72512 -2.54059 0
M  V30 5158 C 497.577 -4.1284 -2.47218 0
M  V30 5159 C 499.929 -4.66197 -2.33044 0
M  V30 5160 C 497.257 -5.44945 -2.17376 0
M  V30 5161 C 499.609 -5.98558 -2.04723 0
M  V30 5162 C 498.273 -6.37972 -1.96337 0
M  V30 5163 H 497.543 -0.492072 -0.554027 0
M  V30 5164 H 500.19 -1.70687 -0.868223 0
M  V30 5165 H 498.495 -1.81357 -3.473 0
M  V30 5166 H 500.192 -2.18832 -3.36026 0
M  V30 5167 H 496.782 -3.40538 -2.60253 0
M  V30 5168 H 500.966 -4.35888 -2.37309 0
M  V30 5169 H 496.222 -5.74426 -2.09391 0
M  V30 5170 H 500.396 -6.70693 -1.87465 0
M  V30 5171 H 498.023 -7.40258 -1.72978 0
M  V30 5172 N 499.598 0.982988 -1.23187 0
M  V30 5173 C 501.009 1.53847 -1.05773 0
M  V30 5174 C 501.36 1.92568 0.375744 0
M  V30 5175 O 500.485 1.75783 1.26211 0
M  V30 5176 C 501.08 2.79567 -1.91384 0
M  V30 5177 C 499.639 3.31524 -1.78238 0
M  V30 5178 C 498.786 2.04534 -1.87246 0
M  V30 5179 H 501.737 0.802962 -1.36888 0
M  V30 5180 H 501.758 3.52317 -1.43711 0
M  V30 5181 H 501.27 2.51353 -2.95708 0
M  V30 5182 H 499.371 3.64623 -0.766875 0
M  V30 5183 H 499.484 4.01457 -2.61475 0
M  V30 5184 H 497.848 2.1855 -1.30797 0
M  V30 5185 H 498.631 1.78706 -2.9312 0
M  V30 5186 N 501.076 1.04316 1.18135 0
M  V30 5187 C 502.306 0.767003 1.91835 0
M  V30 5188 C 502.714 -0.68002 1.76557 0
M  V30 5189 O 502.057 -1.47548 1.09432 0
M  V30 5190 C 502.119 1.05674 3.43618 0
M  V30 5191 C 501.783 2.49818 3.82675 0
M  V30 5192 C 502.78 3.48003 3.86251 0
M  V30 5193 C 500.465 2.84596 4.13897 0
M  V30 5194 C 502.459 4.79016 4.20503 0
M  V30 5195 C 500.146 4.15813 4.4782 0
M  V30 5196 C 501.144 5.12834 4.51099 0
M  V30 5197 O 500.832 6.41699 4.84229 0
M  V30 5198 H 500.564 0.278948 0.615763 0
M  V30 5199 H 503.118 1.3946 1.50798 0
M  V30 5200 H 501.348 0.372029 3.84906 0
M  V30 5201 H 503.037 0.767994 3.98568 0
M  V30 5202 H 503.803 3.22475 3.62264 0
M  V30 5203 H 499.682 2.09748 4.1052 0
M  V30 5204 H 503.226 5.54739 4.22978 0
M  V30 5205 H 499.123 4.41109 4.71268 0
M  V30 5206 H 499.891 6.46387 5.02121 0
M  V30 5207 N 502.554 -1.34406 0.822964 0
M  V30 5208 C 503.97 -1.51275 0.508727 0
M  V30 5209 C 504.17 -1.76776 -0.967083 0
M  V30 5210 O 503.226 -1.81871 -1.75155 0
M  V30 5211 C 504.539 -2.67765 1.36829 0
M  V30 5212 C 506.087 -2.81647 1.36542 0
M  V30 5213 C 506.562 -4.01181 2.20947 0
M  V30 5214 N 508.053 -4.08388 2.18571 0
M  V30 5215 C 508.788 -5.00036 2.80627 0
M  V30 5216 N 508.284 -5.96906 3.51674 0
M  V30 5217 N 510.077 -4.92908 2.70181 0
M  V30 5218 H 502.228 -1.16113 1.77852 0
M  V30 5219 H 504.491 -0.56947 0.757897 0
M  V30 5220 H 504.197 -2.55551 2.41633 0
M  V30 5221 H 504.071 -3.62779 1.03303 0
M  V30 5222 H 506.458 -2.93303 0.325163 0
M  V30 5223 H 506.539 -1.87443 1.74066 0
M  V30 5224 H 506.183 -3.90286 3.25022 0
M  V30 5225 H 506.113 -4.94599 1.80774 0
M  V30 5226 H 508.604 -3.39051 1.66891 0
M  V30 5227 H 508.917 -6.63468 3.96271 0
M  V30 5228 H 507.262 -5.9703 3.5578 0
M  V30 5229 H 510.453 -4.1619 2.14251 0
M  V30 5230 H 510.626 -5.64137 3.18831 0
M  V30 5231 N 504.032 -0.577932 -1.46621 0
M  V30 5232 C 505.28 -0.061566 -2.02006 0
M  V30 5233 C 505.601 1.30117 -1.4524 0
M  V30 5234 O 504.871 1.85313 -0.63529 0
M  V30 5235 H 503.451 -0.0197692 -0.746738 0
M  V30 5236 H 506.113 -0.752631 -1.79782 0
M  V30 5237 H 505.209 0.0110238 -3.12098 0
M  V30 5238 N 505.51 1.54411 -0.315457 0
M  V30 5239 C 506.759 1.99599 0.290395 0
M  V30 5240 C 507.072 1.20746 1.53882 0
M  V30 5241 O 508.278 1.56272 2.22017 0
M  V30 5242 C 506.734 3.5539 0.56797 0
M  V30 5243 C 506.342 4.43068 -0.662945 0
M  V30 5244 C 508.086 4.09067 1.13422 0
M  V30 5245 C 505.993 5.90317 -0.357722 0
M  V30 5246 H 504.923 0.745592 0.112286 0
M  V30 5247 H 507.574 1.78477 -0.426418 0
M  V30 5248 H 505.956 3.72468 1.34476 0
M  V30 5249 H 507.13 4.37765 -1.43869 0
M  V30 5250 H 505.445 4.00238 -1.14884 0
M  V30 5251 H 508.042 5.16663 1.37707 0
M  V30 5252 H 508.385 3.60552 2.08106 0
M  V30 5253 H 508.918 3.95589 0.418805 0
M  V30 5254 H 505.657 6.4301 -1.27351 0
M  V30 5255 H 505.177 5.98592 0.380472 0
M  V30 5256 H 506.856 6.4699 0.0354284 0
M  V30 5257 N 506.988 0.0434614 1.5754 0
M  V30 5258 C 508.235 -0.632035 1.92384 0
M  V30 5259 C 508.563 -1.71304 0.921157 0
M  V30 5260 O 507.818 -1.95583 -0.067744 0
M  V30 5261 C 508.117 -1.2738 3.3393 0
M  V30 5262 C 507.783 -0.321757 4.49751 0
M  V30 5263 C 506.445 -0.0597611 4.81163 0
M  V30 5264 C 508.797 0.331158 5.20147 0
M  V30 5265 C 506.125 0.862715 5.80322 0
M  V30 5266 C 508.477 1.24178 6.20292 0
M  V30 5267 C 507.141 1.51252 6.50138 0
M  V30 5268 H 506.411 -0.231278 0.703983 0
M  V30 5269 H 509.058 0.108294 1.91194 0
M  V30 5270 H 507.363 -2.08921 3.3145 0
M  V30 5271 H 509.06 -1.80326 3.58167 0
M  V30 5272 H 505.65 -0.53614 4.25233 0
M  V30 5273 H 509.834 0.141826 4.96097 0
M  V30 5274 H 505.09 1.08003 6.01785 0
M  V30 5275 H 509.264 1.75381 6.73954 0
M  V30 5276 H 506.891 2.22897 7.26788 0
M  V30 5277 N 508.466 -1.55915 -0.229846 0
M  V30 5278 C 509.396 -1.94754 -1.28815 0
M  V30 5279 C 510.377 -0.814657 -1.49323 0
M  V30 5280 O 511.562 -1.07631 -1.61645 0
M  V30 5281 C 508.692 -2.25705 -2.63959 0
M  V30 5282 C 507.646 -3.41406 -2.5812 0
M  V30 5283 C 506.972 -3.57941 -3.97218 0
M  V30 5284 C 508.272 -4.76616 -2.13623 0
M  V30 5285 H 509.966 -2.83404 -0.965547 0
M  V30 5286 H 507.512 -1.36353 -0.463028 0
M  V30 5287 H 509.465 -2.51467 -3.38146 0
M  V30 5288 H 508.189 -1.339 -2.9789 0
M  V30 5289 H 506.848 -3.1568 -1.86391 0
M  V30 5290 H 506.496 -2.63526 -4.28443 0
M  V30 5291 H 506.196 -4.35757 -3.94195 0
M  V30 5292 H 507.72 -3.86042 -4.73079 0
M  V30 5293 H 509.134 -5.01637 -2.77549 0
M  V30 5294 H 507.531 -5.57655 -2.21677 0
M  V30 5295 H 508.601 -4.7253 -1.08829 0
M  V30 5296 N 509.944 0.496216 -1.49584 0
M  V30 5297 C 511.221 1.25755 -1.49816 0
M  V30 5298 C 511.601 2.09859 -0.228572 0
M  V30 5299 O 510.949 2.14449 0.788908 0
M  V30 5300 C 511.159 2.11017 -2.7798 0
M  V30 5301 C 512.507 2.70047 -3.27658 0
M  V30 5302 O 513.531 2.21281 -2.79129 0
M  V30 5303 O 512.39 3.58834 -4.1219 0
M  V30 5304 H 509.484 0.569322 -0.599834 0
M  V30 5305 H 512.03 0.510094 -1.61852 0
M  V30 5306 H 510.802 1.48879 -3.61871 0
M  V30 5307 H 510.425 2.92947 -2.68827 0
M  V30 5308 N 511.423 1.38739 0.74761 0
M  V30 5309 C 512.669 1.35475 1.50912 0
M  V30 5310 C 513.002 -0.0533093 1.94127 0
M  V30 5311 O 512.277 -1.01572 1.65871 0
M  V30 5312 C 512.56 2.31582 2.75757 0
M  V30 5313 C 512.413 3.81274 2.38642 0
M  V30 5314 C 513.732 2.25722 3.77806 0
M  V30 5315 H 510.851 0.493427 0.547447 0
M  V30 5316 H 513.493 1.69634 0.855823 0
M  V30 5317 H 511.643 2.02582 3.31501 0
M  V30 5318 H 513.315 4.20972 1.88626 0
M  V30 5319 H 511.558 3.98664 1.71025 0
M  V30 5320 H 512.229 4.4399 3.27989 0
M  V30 5321 H 514.705 2.51336 3.31616 0
M  V30 5322 H 513.581 2.95069 4.62845 0
M  V30 5323 H 513.842 1.25803 4.23823 0
M  V30 5324 N 512.901 -0.976442 1.23707 0
M  V30 5325 C 513.864 -2.0511 1.02287 0
M  V30 5326 C 514.864 -1.60791 -0.0167195 0
M  V30 5327 O 516.054 -1.72761 0.223408 0
M  V30 5328 C 513.186 -3.36458 0.548507 0
M  V30 5329 H 514.379 -2.25545 1.9766 0
M  V30 5330 H 511.932 -1.15042 1.05806 0
M  V30 5331 H 512.667 -3.21713 -0.408818 0
M  V30 5332 H 512.452 -3.69967 1.29874 0
M  V30 5333 H 513.942 -4.15489 0.419406 0
M  V30 5334 N 514.379 -1.04941 -1.1758 0
M  V30 5335 C 515.795 -0.770282 -1.39781 0
M  V30 5336 C 515.995 0.636417 -1.91186 0
M  V30 5337 O 515.051 1.39923 -2.10185 0
M  V30 5338 C 516.364 -1.82376 -2.3908 0
M  V30 5339 C 517.912 -1.84569 -2.52791 0
M  V30 5340 C 518.387 -2.88933 -3.55361 0
M  V30 5341 N 519.878 -2.8788 -3.62877 0
M  V30 5342 C 520.613 -3.65282 -4.41992 0
M  V30 5343 N 520.109 -4.52461 -5.24643 0
M  V30 5344 N 521.902 -3.53732 -4.36841 0
M  V30 5345 H 514.053 -1.95705 -0.825438 0
M  V30 5346 H 516.316 -0.847284 -0.425222 0
M  V30 5347 H 516.022 -2.83323 -2.08376 0
M  V30 5348 H 515.896 -1.66327 -3.38549 0
M  V30 5349 H 518.283 -0.842879 -2.82807 0
M  V30 5350 H 518.364 -2.04696 -1.53406 0
M  V30 5351 H 518.008 -3.89398 -3.26085 0
M  V30 5352 H 517.938 -2.66059 -4.54445 0
M  V30 5353 H 520.429 -2.24666 -3.03864 0
M  V30 5354 H 520.742 -5.08211 -5.82187 0
M  V30 5355 H 519.087 -4.56524 -5.24033 0
M  V30 5356 H 522.278 -2.85021 -3.71323 0
M  V30 5357 H 522.451 -4.14302 -4.98255 0
M  V30 5358 N 515.857 1.33968 -0.830081 0
M  V30 5359 C 516.805 2.31301 -0.245435 0
M  V30 5360 C 517.799 1.57734 0.617762 0
M  V30 5361 O 519.005 1.72674 0.508303 0
M  V30 5362 H 515.38 0.749552 -0.0606316 0
M  V30 5363 H 517.351 2.78129 -1.08105 0
M  V30 5364 C 516.1 3.42961 0.572084 0
M  V30 5365 H 515.423 3.99714 -0.0828118 0
M  V30 5366 H 516.863 4.13286 0.94715 0
M  V30 5367 C 515.322 2.88043 1.74737 0
M  V30 5368 O 515.852 2.83508 2.8458 0
M  V30 5369 N 514.058 2.44768 1.56642 0
M  V30 5370 H 513.605 2.48656 0.672901 0
M  V30 5371 H 513.563 2.08375 2.3543 0
M  V30 5372 N 517.335 0.585699 1.46312 0
M  V30 5373 C 518.582 0.0724211 2.0237 0
M  V30 5374 C 518.91 -1.28868 1.45683 0
M  V30 5375 O 518.165 -1.85853 0.612945 0
M  V30 5376 C 518.464 -0.0401312 3.57377 0
M  V30 5377 C 518.13 1.25376 4.33119 0
M  V30 5378 C 516.792 1.60824 4.5353 0
M  V30 5379 C 519.144 2.10987 4.76586 0
M  V30 5380 C 516.472 2.81676 5.14661 0
M  V30 5381 C 518.824 3.31068 5.39052 0
M  V30 5382 C 517.488 3.66794 5.5769 0
M  V30 5383 H 516.758 0.0265007 0.740526 0
M  V30 5384 H 519.405 0.762935 1.75646 0
M  V30 5385 H 517.71 -0.813791 3.83255 0
M  V30 5386 H 519.407 -0.453078 3.98432 0
M  V30 5387 H 515.997 0.967808 4.1753 0
M  V30 5388 H 520.181 1.84904 4.60569 0
M  V30 5389 H 515.437 3.0949 5.27282 0
M  V30 5390 H 519.611 3.97672 5.71691 0
M  V30 5391 H 517.238 4.60529 6.04828 0
M  V30 5392 N 518.813 -1.54241 0.323641 0
M  V30 5393 C 519.763 -2.21071 -0.557833 0
M  V30 5394 C 520.747 -1.19126 -1.08157 0
M  V30 5395 O 521.939 -1.44755 -1.01857 0
M  V30 5396 C 519.068 -2.97208 -1.71821 0
M  V30 5397 C 518.154 -4.06491 -1.20936 0
M  V30 5398 N 518.545 -5.04052 -0.420202 0
M  V30 5399 C 516.843 -4.20443 -1.48808 0
M  V30 5400 C 517.544 -5.81516 -0.146413 0
M  V30 5401 N 516.52 -5.38641 -0.732562 0
M  V30 5402 H 520.322 -2.93853 0.0523921 0
M  V30 5403 H 517.836 -1.61883 0.129502 0
M  V30 5404 H 519.833 -3.4357 -2.36146 0
M  V30 5405 H 518.493 -2.25947 -2.33191 0
M  V30 5406 H 519.504 -5.17862 -0.0630401 0
M  V30 5407 H 516.181 -3.60396 -2.10762 0
M  V30 5408 H 517.571 -6.70119 0.488895 0
M  V30 5409 N 520.291 -0.0518155 -1.57515 0
M  V30 5410 C 521.238 0.922352 -2.11569 0
M  V30 5411 C 522.208 1.30842 -1.02321 0
M  V30 5412 O 523.393 1.39778 -1.29872 0
M  V30 5413 C 520.533 2.19167 -2.6657 0
M  V30 5414 C 519.646 1.86003 -3.89906 0
M  V30 5415 C 518.781 3.07398 -4.33221 0
M  V30 5416 C 517.82 2.70158 -5.49255 0
M  V30 5417 N 516.957 3.84248 -5.8762 0
M  V30 5418 H 521.797 0.454506 -2.94514 0
M  V30 5419 H 519.334 0.212718 -1.45554 0
M  V30 5420 H 521.292 2.93443 -2.96559 0
M  V30 5421 H 519.922 2.63528 -1.86421 0
M  V30 5422 H 518.974 1.01874 -3.66505 0
M  V30 5423 H 520.286 1.54592 -4.74239 0
M  V30 5424 H 519.44 3.89972 -4.64765 0
M  V30 5425 H 518.179 3.41988 -3.477 0
M  V30 5426 H 517.184 1.86001 -5.17382 0
M  V30 5427 H 518.409 2.36759 -6.36492 0
M  V30 5428 H 516.355 4.18638 -5.05053 0
M  V30 5429 H 516.272 3.56538 -6.66646 0
M  V30 5430 H 517.54 4.6746 -6.2378 0
M  V30 5431 N 521.769 1.56035 0.221574 0
M  V30 5432 C 522.716 1.92413 1.27459 0
M  V30 5433 C 523.686 0.781323 1.46576 0
M  V30 5434 O 524.871 1.03721 1.60145 0
M  V30 5435 C 522.011 2.24617 2.61995 0
M  V30 5436 C 521.124 3.51831 2.50677 0
M  V30 5437 C 520.259 3.73482 3.77736 0
M  V30 5438 C 519.298 4.94211 3.6114 0
M  V30 5439 N 518.435 5.12252 4.80148 0
M  V30 5440 H 523.275 2.82203 0.957355 0
M  V30 5441 H 520.812 1.39676 0.461415 0
M  V30 5442 H 522.77 2.41298 3.40339 0
M  V30 5443 H 521.4 1.38 2.91815 0
M  V30 5444 H 520.452 3.43343 1.63767 0
M  V30 5445 H 521.764 4.40328 2.34334 0
M  V30 5446 H 520.918 3.9026 4.64523 0
M  V30 5447 H 519.657 2.83266 3.97003 0
M  V30 5448 H 518.662 4.77384 2.72736 0
M  V30 5449 H 519.887 5.85912 3.43343 0
M  V30 5450 H 517.833 4.24978 4.99729 0
M  V30 5451 H 517.75 5.94881 4.66532 0
M  V30 5452 H 519.018 5.33465 5.68362 0
M  V30 5453 N 523.247 -0.488276 1.49845 0
M  V30 5454 C 524.524 -1.24959 1.50481 0
M  V30 5455 C 524.904 -2.09735 0.239698 0
M  V30 5456 O 524.252 -2.14865 -0.777524 0
M  V30 5457 C 524.462 -2.0954 2.79095 0
M  V30 5458 C 525.81 -2.68305 3.29086 0
M  V30 5459 O 526.834 -2.19797 2.80299 0
M  V30 5460 O 525.693 -3.56643 4.14087 0
M  V30 5461 H 522.787 -0.566133 0.602845 0
M  V30 5462 H 525.333 -0.501504 1.6212 0
M  V30 5463 H 524.105 -1.46958 3.62656 0
M  V30 5464 H 523.728 -2.91517 2.70377 0
M  V30 5465 N 524.725 -1.39134 -0.740242 0
M  V30 5466 C 525.688 -1.37217 -1.83587 0
M  V30 5467 C 526.688 -0.270221 -1.58513 0
M  V30 5468 O 527.878 -0.527843 -1.6601 0
M  V30 5469 C 525.01 -1.13959 -3.21288 0
M  V30 5470 H 526.203 -2.34705 -1.86691 0
M  V30 5471 H 523.756 -1.24622 -0.94335 0
M  V30 5472 H 524.491 -0.17131 -3.23847 0
M  V30 5473 H 524.276 -1.93754 -3.40884 0
M  V30 5474 H 525.766 -1.15346 -4.01354 0
M  V30 5475 N 526.204 0.969867 -1.24223 0
M  V30 5476 C 527.45 1.7151 -1.08223 0
M  V30 5477 C 527.783 1.90478 0.37838 0
M  V30 5478 O 527.058 1.4647 1.27971 0
M  V30 5479 C 527.341 3.10714 -1.82013 0
M  V30 5480 C 527.194 2.9925 -3.35811 0
M  V30 5481 C 528.513 4.10332 -1.59108 0
M  V30 5482 H 525.632 0.622499 -0.394543 0
M  V30 5483 H 528.274 1.1284 -1.52863 0
M  V30 5484 H 526.424 3.608 -1.44068 0
M  V30 5485 H 528.096 2.56608 -3.83341 0
M  V30 5486 H 526.339 2.35512 -3.64303 0
M  V30 5487 H 527.01 3.97857 -3.82641 0
M  V30 5488 H 529.486 3.69097 -1.92111 0
M  V30 5489 H 528.362 5.05804 -2.13198 0
M  V30 5490 H 528.623 4.38926 -0.528832 0
M  V30 5491 N 527.682 1.05563 1.17022 0
M  V30 5492 C 528.612 0.681026 2.23348 0
M  V30 5493 C 529.593 -0.322983 1.67005 0
M  V30 5494 O 530.778 -0.199746 1.9317 0
M  V30 5495 C 527.908 0.0589053 3.4725 0
M  V30 5496 C 526.862 0.988082 4.16438 0
M  V30 5497 C 526.188 0.229646 5.34207 0
M  V30 5498 C 527.488 2.31388 4.68249 0
M  V30 5499 H 529.182 1.56993 2.54938 0
M  V30 5500 H 526.728 0.756302 1.2254 0
M  V30 5501 H 528.681 -0.214982 4.20851 0
M  V30 5502 H 527.405 -0.864968 3.14938 0
M  V30 5503 H 526.064 1.24659 3.44754 0
M  V30 5504 H 525.712 -0.697111 4.98146 0
M  V30 5505 H 525.412 0.848815 5.81437 0
M  V30 5506 H 526.936 -0.0368694 6.10589 0
M  V30 5507 H 528.35 2.09964 5.33468 0
M  V30 5508 H 526.747 2.88736 5.26072 0
M  V30 5509 H 527.817 2.94982 3.84855 0
M  V30 5510 N 529.16 -1.33526 0.837174 0
M  V30 5511 C 530.576 -1.50727 0.524743 0
M  V30 5512 C 530.776 -1.77792 -0.948279 0
M  V30 5513 O 529.832 -1.83719 -1.73216 0
M  V30 5514 C 531.145 -2.66299 1.39661 0
M  V30 5515 C 532.693 -2.80183 1.39521 0
M  V30 5516 C 533.168 -3.98815 2.25189 0
M  V30 5517 N 534.659 -4.06047 2.2289 0
M  V30 5518 C 535.394 -4.97032 2.85915 0
M  V30 5519 N 534.89 -5.93143 3.57985 0
M  V30 5520 N 536.683 -4.90015 2.75394 0
M  V30 5521 H 528.834 -1.1422 1.79074 0
M  V30 5522 H 531.097 -0.561399 0.763894 0
M  V30 5523 H 530.803 -2.52974 2.4433 0
M  V30 5524 H 530.677 -3.61663 1.07145 0
M  V30 5525 H 533.064 -2.92942 0.356253 0
M  V30 5526 H 533.145 -1.85586 1.76044 0
M  V30 5527 H 532.789 -3.86817 3.29143 0
M  V30 5528 H 532.719 -4.92654 1.86009 0
M  V30 5529 H 535.21 -3.37262 1.70478 0
M  V30 5530 H 535.523 -6.59227 4.03286 0
M  V30 5531 H 533.868 -5.93223 3.62093 0
M  V30 5532 H 537.059 -4.13894 2.18654 0
M  V30 5533 H 537.232 -5.60724 3.24796 0
M  V30 5534 N 530.638 -0.59345 -1.46 0
M  V30 5535 C 531.568 0.121192 -2.33185 0
M  V30 5536 C 532.549 0.872977 -1.4599 0
M  V30 5537 O 533.734 0.846321 -1.74789 0
M  V30 5538 C 530.864 1.12844 -3.28456 0
M  V30 5539 C 529.818 0.4908 -4.25177 0
M  V30 5540 C 529.144 1.60529 -5.10034 0
M  V30 5541 C 530.444 -0.578949 -5.19081 0
M  V30 5542 H 532.138 -0.606767 -2.93187 0
M  V30 5543 H 529.684 -0.293242 -1.40983 0
M  V30 5544 H 531.637 1.63684 -3.88311 0
M  V30 5545 H 530.361 1.88681 -2.66584 0
M  V30 5546 H 529.02 0.00339328 -3.666 0
M  V30 5547 H 528.668 2.35359 -4.44539 0
M  V30 5548 H 528.368 1.18422 -5.75543 0
M  V30 5549 H 529.892 2.11623 -5.72755 0
M  V30 5550 H 531.306 -0.155199 -5.7309 0
M  V30 5551 H 529.703 -0.920947 -5.92991 0
M  V30 5552 H 530.773 -1.46109 -4.62364 0
M  V30 5553 N 532.116 1.54067 -0.331816 0
M  V30 5554 C 533.046 2.27569 0.522932 0
M  V30 5555 C 534.027 1.28679 1.11247 0
M  V30 5556 O 535.212 1.57504 1.13605 0
M  V30 5557 C 532.342 3.0397 1.67987 0
M  V30 5558 C 531.296 4.10267 1.21924 0
M  V30 5559 C 530.622 4.74555 2.46377 0
M  V30 5560 C 531.922 5.21268 0.32815 0
M  V30 5561 H 533.616 2.99264 -0.0901977 0
M  V30 5562 H 531.162 1.4393 -0.044821 0
M  V30 5563 H 533.115 3.54123 2.28418 0
M  V30 5564 H 531.839 2.29906 2.31971 0
M  V30 5565 H 530.498 3.61009 0.637809 0
M  V30 5566 H 530.146 3.97098 3.08743 0
M  V30 5567 H 529.846 5.46363 2.16243 0
M  V30 5568 H 531.37 5.27487 3.07555 0
M  V30 5569 H 532.784 5.67128 0.838978 0
M  V30 5570 H 531.181 5.99982 0.119228 0
M  V30 5571 H 532.251 4.80673 -0.638839 0
M  V30 5572 N 533.594 0.0601682 1.57485 0
M  V30 5573 C 534.871 -0.651956 1.84415 0
M  V30 5574 C 535.251 -1.88498 0.950361 0
M  V30 5575 O 534.599 -2.28496 0.0136719 0
M  V30 5576 C 534.809 -1.00069 3.34346 0
M  V30 5577 C 536.157 -1.37915 4.01578 0
M  V30 5578 O 537.181 -1.09277 3.39024 0
M  V30 5579 O 536.04 -1.91399 5.11887 0
M  V30 5580 H 533.134 -0.322668 0.761455 0
M  V30 5581 H 535.68 0.0902159 1.6946 0
M  V30 5582 H 534.452 -0.124463 3.91102 0
M  V30 5583 H 534.075 -1.80001 3.54521 0
M  V30 5584 N 535.072 -1.5615 -0.213296 0
M  V30 5585 C 536.004 -1.89586 -1.28802 0
M  V30 5586 C 537.017 -0.784844 -1.42633 0
M  V30 5587 O 538.206 -1.06319 -1.43383 0
M  V30 5588 C 535.306 -2.09665 -2.66259 0
M  V30 5589 C 534.479 -3.40726 -2.7427 0
M  V30 5590 C 533.538 -3.50137 -3.92798 0
M  V30 5591 O 532.564 -4.23105 -3.8075 0
M  V30 5592 N 533.766 -2.81886 -5.07465 0
M  V30 5593 H 536.531 -2.82368 -1.00442 0
M  V30 5594 H 534.092 -1.56796 -0.403302 0
M  V30 5595 H 536.084 -2.13268 -3.43946 0
M  V30 5596 H 534.654 -1.23469 -2.87183 0
M  V30 5597 H 533.874 -3.4915 -1.82997 0
M  V30 5598 H 535.162 -4.27048 -2.76599 0
M  V30 5599 H 534.56 -2.22397 -5.2015 0
M  V30 5600 H 533.117 -2.91139 -5.83165 0
M  V30 5601 N 536.55 0.480323 -1.50102 0
M  V30 5602 C 537.483 1.59789 -1.62919 0
M  V30 5603 C 538.461 1.55429 -0.477557 0
M  V30 5604 O 539.645 1.75186 -0.695851 0
M  V30 5605 C 536.772 2.98351 -1.60325 0
M  V30 5606 C 535.818 3.20899 -2.80938 0
M  V30 5607 S 536.651 3.01791 -4.4236 0
M  V30 5608 C 537.807 4.42712 -4.42444 0
M  V30 5609 H 538.04 1.48676 -2.57454 0
M  V30 5610 H 535.573 0.666996 -1.3925 0
M  V30 5611 H 537.531 3.7824 -1.59514 0
M  V30 5612 H 536.192 3.06862 -0.670419 0
M  V30 5613 H 535.385 4.22102 -2.75401 0
M  V30 5614 H 534.987 2.48768 -2.79268 0
M  V30 5615 H 537.279 5.3518 -4.15438 0
M  V30 5616 H 538.222 4.53294 -5.43995 0
M  V30 5617 H 538.63 4.24359 -3.72263 0
M  V30 5618 N 538.028 1.39524 0.732853 0
M  V30 5619 C 538.991 1.38189 1.82857 0
M  V30 5620 C 539.991 0.278624 1.58368 0
M  V30 5621 O 541.181 0.536639 1.65728 0
M  V30 5622 C 538.313 1.15661 3.2068 0
M  V30 5623 H 539.506 2.35692 1.85444 0
M  V30 5624 H 537.059 1.2512 0.936728 0
M  V30 5625 H 537.794 0.188482 3.23752 0
M  V30 5626 H 537.579 1.95559 3.39852 0
M  V30 5627 H 539.069 1.17472 4.00737 0
M  V30 5628 N 539.506 -0.963266 1.24736 0
M  V30 5629 C 540.469 -2.04013 1.04457 0
M  V30 5630 C 541.469 -1.608 0.000335555 0
M  V30 5631 O 542.659 -1.72515 0.241719 0
M  V30 5632 C 539.791 -3.35858 0.584162 0
M  V30 5633 H 540.984 -2.23436 2.00041 0
M  V30 5634 H 538.537 -1.13914 1.07021 0
M  V30 5635 H 539.272 -3.22128 -0.374673 0
M  V30 5636 H 539.057 -3.68568 1.3379 0
M  V30 5637 H 540.547 -4.1502 0.463451 0
M  V30 5638 N 540.985 -1.06182 -1.16461 0
M  V30 5639 C 542.215 -0.797425 -1.9059 0
M  V30 5640 C 542.623 0.651845 -1.77616 0
M  V30 5641 O 541.966 1.45788 -1.11766 0
M  V30 5642 C 542.028 -1.11128 -3.41893 0
M  V30 5643 C 541.692 -2.55874 -3.78652 0
M  V30 5644 C 542.689 -3.54104 -3.80665 0
M  V30 5645 C 540.374 -2.91144 -4.09317 0
M  V30 5646 C 542.368 -4.85645 -4.12829 0
M  V30 5647 C 540.055 -4.22885 -4.41148 0
M  V30 5648 C 541.053 -5.19945 -4.42883 0
M  V30 5649 O 540.741 -6.49322 -4.73959 0
M  V30 5650 H 540.473 -0.288709 -0.611247 0
M  V30 5651 H 543.027 -1.41841 -1.4856 0
M  V30 5652 H 541.257 -0.433217 -3.84266 0
M  V30 5653 H 542.946 -0.831306 -3.97296 0
M  V30 5654 H 543.712 -3.28197 -3.57088 0
M  V30 5655 H 539.591 -2.16252 -4.07131 0
M  V30 5656 H 543.135 -5.61398 -4.14099 0
M  V30 5657 H 539.032 -4.48551 -4.6419 0
M  V30 5658 H 539.8 -6.54294 -4.91774 0
M  V30 5659 N 542.463 1.3308 -0.844243 0
M  V30 5660 C 543.41 2.29104 -0.279323 0
M  V30 5661 C 544.38 1.54577 0.607882 0
M  V30 5662 O 545.565 1.8285 0.545009 0
M  V30 5663 C 542.705 3.40927 0.53508 0
M  V30 5664 C 541.818 4.30354 -0.376749 0
M  V30 5665 C 540.953 5.29297 0.449276 0
M  V30 5666 C 539.992 6.10365 -0.460606 0
M  V30 5667 N 539.129 7.01335 0.327612 0
M  V30 5668 H 543.969 2.76817 -1.10346 0
M  V30 5669 H 541.506 1.36203 -0.555611 0
M  V30 5670 H 543.464 4.04469 1.02278 0
M  V30 5671 H 542.094 2.94391 1.32414 0
M  V30 5672 H 541.146 3.67485 -0.982791 0
M  V30 5673 H 542.458 4.87067 -1.07549 0
M  V30 5674 H 541.612 5.98392 1.00058 0
M  V30 5675 H 540.351 4.73174 1.18143 0
M  V30 5676 H 539.356 5.40182 -1.02388 0
M  V30 5677 H 540.581 6.68571 -1.1912 0
M  V30 5678 H 538.527 6.47655 1.04305 0
M  V30 5679 H 538.444 7.55355 -0.3123 0
M  V30 5680 H 539.712 7.74731 0.86098 0
M  V30 5681 N 543.941 0.601185 1.45683 0
M  V30 5682 C 544.871 -0.108824 2.33246 0
M  V30 5683 C 545.852 -0.865223 1.46451 0
M  V30 5684 O 547.037 -0.83704 1.75235 0
M  V30 5685 C 544.167 -1.11101 3.2905 0
M  V30 5686 C 543.121 -0.468244 4.25431 0
M  V30 5687 C 542.447 -1.57822 5.10878 0
M  V30 5688 C 543.747 0.606469 5.18767 0
M  V30 5689 H 545.441 0.622306 2.92861 0
M  V30 5690 H 542.987 0.300714 1.40825 0
M  V30 5691 H 544.94 -1.61622 3.89174 0
M  V30 5692 H 543.664 -1.87265 2.67581 0
M  V30 5693 H 542.323 0.0160484 3.66596 0
M  V30 5694 H 541.971 -2.32998 4.45781 0
M  V30 5695 H 541.671 -1.15369 5.76163 0
M  V30 5696 H 543.195 -2.08583 5.73869 0
M  V30 5697 H 544.609 0.185589 5.73 0
M  V30 5698 H 543.006 0.952381 5.92494 0
M  V30 5699 H 544.076 1.48559 4.61582 0
M  V30 5700 N 545.419 -1.53889 0.339982 0
M  V30 5701 C 546.367 -2.26391 -0.533822 0
M  V30 5702 C 547.361 -1.28404 -1.10493 0
M  V30 5703 O 548.567 -1.46124 -1.05108 0
M  V30 5704 H 544.942 -0.727385 -0.190828 0
M  V30 5705 H 546.913 -2.98233 0.0997484 0
M  V30 5706 C 545.662 -3.04707 -1.67479 0
M  V30 5707 H 544.985 -3.79934 -1.2446 0
M  V30 5708 H 546.425 -3.58657 -2.26144 0
M  V30 5709 C 544.884 -2.13989 -2.60212 0
M  V30 5710 O 545.414 -1.73361 -3.62366 0
M  V30 5711 N 543.62 -1.79141 -2.28816 0
M  V30 5712 H 543.167 -2.12378 -1.45785 0
M  V30 5713 H 543.125 -1.18725 -2.91121 0
M  V30 5714 N 546.897 -0.0685191 -1.57451 0
M  V30 5715 C 547.844 0.899861 -2.12535 0
M  V30 5716 C 548.814 1.29749 -1.03703 0
M  V30 5717 O 549.999 1.38392 -1.31348 0
M  V30 5718 C 547.139 2.16328 -2.6888 0
M  V30 5719 C 546.252 1.81857 -3.91857 0
M  V30 5720 C 545.387 3.02786 -4.36457 0
M  V30 5721 C 544.426 2.64317 -5.5209 0
M  V30 5722 N 543.563 3.77994 -5.91663 0
M  V30 5723 H 548.403 0.423243 -2.94979 0
M  V30 5724 H 545.94 0.197268 -1.45771 0
M  V30 5725 H 547.898 2.90281 -2.99655 0
M  V30 5726 H 546.528 2.61536 -1.89206 0
M  V30 5727 H 545.58 0.979808 -3.67565 0
M  V30 5728 H 546.892 1.49553 -4.75852 0
M  V30 5729 H 546.046 3.85021 -4.68875 0
M  V30 5730 H 544.785 3.38281 -3.51308 0
M  V30 5731 H 543.79 1.80503 -5.19325 0
M  V30 5732 H 545.015 2.29995 -6.38967 0
M  V30 5733 H 542.961 4.13258 -5.09464 0
M  V30 5734 H 542.878 3.49447 -6.7039 0
M  V30 5735 H 544.146 4.60818 -6.28703 0
M  V30 5736 N 548.375 1.56261 0.205012 0
M  V30 5737 C 549.622 1.8004 0.926927 0
M  V30 5738 C 549.95 0.640086 1.83666 0
M  V30 5739 O 549.205 -0.374702 1.92079 0
M  V30 5740 C 549.504 3.09722 1.78345 0
M  V30 5741 C 549.17 4.39082 1.02555 0
M  V30 5742 C 547.832 4.74226 0.816256 0
M  V30 5743 C 550.184 5.18877 0.491559 0
M  V30 5744 C 547.512 5.86668 0.0613287 0
M  V30 5745 C 549.864 6.32105 -0.250107 0
M  V30 5746 C 548.528 6.6584 -0.470508 0
M  V30 5747 H 547.798 0.658812 0.339187 0
M  V30 5748 H 550.445 1.90515 0.19395 0
M  V30 5749 H 548.75 2.9444 2.5848 0
M  V30 5750 H 550.447 3.25324 2.34446 0
M  V30 5751 H 547.037 4.11497 1.19868 0
M  V30 5752 H 551.221 4.92147 0.640684 0
M  V30 5753 H 546.477 6.11283 -0.119501 0
M  V30 5754 H 550.651 6.93157 -0.671307 0
M  V30 5755 H 548.278 7.5281 -1.05739 0
M  V30 5756 N 549.853 -0.472356 1.50355 0
M  V30 5757 C 550.803 -1.56809 1.65514 0
M  V30 5758 C 551.787 -1.5261 0.509801 0
M  V30 5759 O 552.979 -1.59655 0.764145 0
M  V30 5760 C 550.108 -2.9526 1.75146 0
M  V30 5761 C 549.194 -3.04348 2.95353 0
M  V30 5762 N 549.585 -2.83253 4.19048 0
M  V30 5763 C 547.883 -3.35482 2.93884 0
M  V30 5764 C 548.584 -2.97273 5.00003 0
M  V30 5765 N 547.56 -3.27418 4.33934 0
M  V30 5766 H 551.362 -1.39197 2.58846 0
M  V30 5767 H 548.876 -0.67906 1.47521 0
M  V30 5768 H 550.873 -3.74044 1.8411 0
M  V30 5769 H 549.533 -3.1392 0.829717 0
M  V30 5770 H 550.544 -2.5886 4.48567 0
M  V30 5771 H 547.221 -3.60138 2.11204 0
M  V30 5772 H 548.611 -2.85214 6.08361 0
M  V30 5773 N 551.331 -1.39911 -0.725443 0
M  V30 5774 C 552.578 -1.37654 -1.48518 0
M  V30 5775 C 552.906 0.0243982 -1.94485 0
M  V30 5776 O 552.161 1.00708 -1.67799 0
M  V30 5777 C 552.46 -2.30368 -2.7325 0
M  V30 5778 C 552.126 -3.77817 -2.461 0
M  V30 5779 C 550.788 -4.17991 -2.38405 0
M  V30 5780 C 553.14 -4.71036 -2.23103 0
M  V30 5781 C 550.468 -5.49433 -2.05768 0
M  V30 5782 C 552.82 -6.02766 -1.9198 0
M  V30 5783 C 551.484 -6.41993 -1.82761 0
M  V30 5784 H 550.754 -0.503713 -0.543465 0
M  V30 5785 H 553.401 -1.7249 -0.831822 0
M  V30 5786 H 551.706 -1.88683 -3.43375 0
M  V30 5787 H 553.403 -2.2591 -3.31309 0
M  V30 5788 H 549.993 -3.45982 -2.52972 0
M  V30 5789 H 554.177 -4.40823 -2.2801 0
M  V30 5790 H 549.433 -5.78738 -1.9716 0
M  V30 5791 H 553.607 -6.74519 -1.73197 0
M  V30 5792 H 551.234 -7.43761 -1.57237 0
M  V30 5793 N 552.809 0.956637 -1.25245 0
M  V30 5794 C 553.759 2.03841 -1.02141 0
M  V30 5795 C 554.743 1.60848 0.0410058 0
M  V30 5796 O 555.935 1.76142 -0.174084 0
M  V30 5797 C 553.064 3.37282 -0.639963 0
M  V30 5798 C 552.15 3.86805 -1.73903 0
M  V30 5799 N 552.541 4.09143 -2.97381 0
M  V30 5800 C 550.839 4.15574 -1.61909 0
M  V30 5801 C 551.54 4.49923 -3.68707 0
M  V30 5802 N 550.516 4.55737 -2.96318 0
M  V30 5803 H 554.318 2.19102 -1.95886 0
M  V30 5804 H 551.832 1.1413 -1.15534 0
M  V30 5805 H 553.829 4.14403 -0.455643 0
M  V30 5806 H 552.489 3.23401 0.29018 0
M  V30 5807 H 553.5 3.96275 -3.33447 0
M  V30 5808 H 550.177 4.10566 -0.757764 0
M  V30 5809 H 551.567 4.75526 -4.74684 0
M  V30 5810 N 554.287 1.06798 1.15896 0
M  V30 5811 C 555.217 0.704677 2.22613 0
M  V30 5812 C 556.198 -0.305252 1.67339 0
M  V30 5813 O 557.383 -0.179247 1.93371 0
M  V30 5814 C 554.513 0.0957325 3.47168 0
M  V30 5815 C 553.467 1.0322 4.15367 0
M  V30 5816 C 552.793 0.286293 5.33933 0
M  V30 5817 C 554.093 2.36341 4.65768 0
M  V30 5818 H 555.787 1.59688 2.53259 0
M  V30 5819 H 553.333 0.769257 1.21731 0
M  V30 5820 H 555.286 -0.170333 4.21056 0
M  V30 5821 H 554.01 -0.831516 3.15838 0
M  V30 5822 H 552.669 1.28309 3.43413 0
M  V30 5823 H 552.317 -0.644237 4.98857 0
M  V30 5824 H 552.017 0.910436 5.80504 0
M  V30 5825 H 553.541 0.0278938 6.10594 0
M  V30 5826 H 554.955 2.1561 5.31211 0
M  V30 5827 H 553.352 2.94299 5.2298 0
M  V30 5828 H 554.422 2.99047 3.81705 0
M  V30 5829 N 555.766 -1.3263 0.851289 0
M  V30 5830 C 556.991 -2.02097 0.466006 0
M  V30 5831 C 557.416 -1.63574 -0.928709 0
M  V30 5832 O 556.774 -0.834665 -1.60944 0
M  V30 5833 C 556.822 -3.55425 0.608737 0
M  V30 5834 O 555.926 -4.10827 -0.359878 0
M  V30 5835 H 555.267 -0.636911 0.187724 0
M  V30 5836 H 557.797 -1.69253 1.14955 0
M  V30 5837 H 557.807 -4.04986 0.495006 0
M  V30 5838 H 556.482 -3.82806 1.62581 0
M  V30 5839 H 555.059 -3.72349 -0.202666 0
M  V30 5840 N 557.244 -0.608902 -1.45362 0
M  V30 5841 C 558.521 -0.0365378 -1.95566 0
M  V30 5842 C 558.901 1.43169 -1.55131 0
M  V30 5843 O 558.249 2.1349 -0.814513 0
M  V30 5844 C 558.459 -0.236026 -3.48201 0
M  V30 5845 C 559.807 -0.117518 -4.24437 0
M  V30 5846 O 560.831 -0.166217 -3.55812 0
M  V30 5847 O 559.69 -0.00372127 -5.465 0
M  V30 5848 H 556.784 0.0349874 -0.82626 0
M  V30 5849 H 559.33 -0.679055 -1.55521 0
M  V30 5850 H 558.102 -1.25569 -3.70605 0
M  V30 5851 H 557.725 0.441691 -3.95139 0
M  V30 5852 N 558.722 1.53707 -0.348139 0
M  V30 5853 C 559.999 1.93247 0.302475 0
M  V30 5854 C 560.379 1.28012 1.67857 0
M  V30 5855 O 559.727 0.43274 2.24365 0
M  V30 5856 C 559.937 3.47031 0.370159 0
M  V30 5857 C 561.285 4.20066 0.61882 0
M  V30 5858 O 562.309 3.53319 0.452087 0
M  V30 5859 O 561.168 5.38318 0.94215 0
M  V30 5860 H 558.262 0.807736 0.177458 0
M  V30 5861 H 560.808 1.64927 -0.399651 0
M  V30 5862 H 559.58 3.86745 -0.59534 0
M  V30 5863 H 559.203 3.81532 1.11888 0
M  V30 5864 N 560.2 0.0768682 1.57412 0
M  V30 5865 C 561.11 -0.903207 2.16516 0
M  V30 5866 C 562.126 -1.32341 1.12968 0
M  V30 5867 O 563.302 -1.39507 1.45258 0
M  V30 5868 C 560.367 -2.1508 2.71922 0
M  V30 5869 C 559.428 -1.78653 3.90361 0
M  V30 5870 C 558.661 -2.97465 4.43114 0
M  V30 5871 O 558.884 -4.11638 3.94854 0
M  V30 5872 O 557.818 -2.76987 5.3438 0
M  V30 5873 H 561.644 -0.430427 3.00634 0
M  V30 5874 H 559.229 -0.146485 1.4868 0
M  V30 5875 H 561.111 -2.8823 3.07411 0
M  V30 5876 H 559.786 -2.61446 1.9086 0
M  V30 5877 H 558.693 -1.0274 3.59716 0
M  V30 5878 H 560.026 -1.37066 4.7273 0
M  V30 5879 N 561.678 -1.56367 -0.196722 0
M  V30 5880 C 562.926 -1.80172 -0.915554 0
M  V30 5881 C 563.247 -0.649649 -1.8386 0
M  V30 5882 O 562.517 0.332111 -1.93064 0
M  V30 5883 H 561.097 -0.664592 -0.341067 0
M  V30 5884 H 563.759 -1.93844 -0.202622 0
M  V30 5885 H 562.855 -2.7327 -1.50764 0
M  V30 5886 N 563.156 0.464375 -1.50603 0
M  V30 5887 C 564.402 1.21485 -1.63135 0
M  V30 5888 C 564.757 1.89538 -0.33063 0
M  V30 5889 O 564.05 1.79432 0.671903 0
M  V30 5890 C 564.244 2.278 -2.75394 0
M  V30 5891 C 564.073 1.70178 -4.16257 0
M  V30 5892 C 562.843 1.49854 -4.82568 0
M  V30 5893 C 565.041 1.19298 -5.00272 0
M  V30 5894 N 563.023 0.875458 -6.07626 0
M  V30 5895 C 564.394 0.693527 -6.16109 0
M  V30 5896 C 566.449 1.08216 -4.85998 0
M  V30 5897 C 565.152 0.0941808 -7.19238 0
M  V30 5898 C 567.178 0.496745 -5.8931 0
M  V30 5899 C 566.54 0.00770448 -7.044 0
M  V30 5900 H 562.639 0.433184 -0.651057 0
M  V30 5901 H 565.223 0.515748 -1.87745 0
M  V30 5902 H 563.394 2.95129 -2.52495 0
M  V30 5903 H 565.126 2.94814 -2.77249 0
M  V30 5904 H 561.881 1.75269 -4.39975 0
M  V30 5905 H 562.305 0.582135 -6.74493 0
M  V30 5906 H 566.947 1.44617 -3.97298 0
M  V30 5907 H 564.665 -0.28202 -8.07608 0
M  V30 5908 H 568.251 0.413275 -5.8033 0
M  V30 5909 H 567.131 -0.438188 -7.82975 0
M  V30 5910 N 564.634 1.40294 0.718013 0
M  V30 5911 C 566.05 1.2227 1.02577 0
M  V30 5912 C 566.25 0.0961976 2.0127 0
M  V30 5913 O 565.306 -0.546695 2.46511 0
M  V30 5914 C 566.619 2.56348 1.57182 0
M  V30 5915 C 568.167 2.6334 1.69178 0
M  V30 5916 C 568.642 3.9768 2.27188 0
M  V30 5917 N 570.133 3.99409 2.34578 0
M  V30 5918 C 570.868 5.00141 2.8044 0
M  V30 5919 N 570.364 6.11268 3.26073 0
M  V30 5920 N 572.157 4.87511 2.79802 0
M  V30 5921 H 564.308 2.12304 0.0637899 0
M  V30 5922 H 566.571 0.943632 0.0909036 0
M  V30 5923 H 566.277 3.3942 0.921262 0
M  V30 5924 H 566.151 2.77266 2.55741 0
M  V30 5925 H 568.538 1.80641 2.33351 0
M  V30 5926 H 568.619 2.46255 0.692247 0
M  V30 5927 H 568.263 4.80817 1.63638 0
M  V30 5928 H 568.193 4.12093 3.27852 0
M  V30 5929 H 570.684 3.19162 2.02346 0
M  V30 5930 H 570.997 6.84023 3.59628 0
M  V30 5931 H 569.342 6.14837 3.24038 0
M  V30 5932 H 572.533 3.9979 2.43487 0
M  V30 5933 H 572.706 5.66158 3.15228 0
M  V30 5934 N 566.112 -0.949982 1.2575 0
M  V30 5935 C 567.361 -1.68956 1.10168 0
M  V30 5936 C 567.674 -1.92327 -0.356309 0
M  V30 5937 O 568.88 -2.64026 -0.632657 0
M  V30 5938 C 567.336 -3.04196 1.92336 0
M  V30 5939 C 566.944 -2.88603 3.42655 0
M  V30 5940 C 568.688 -3.81904 1.85336 0
M  V30 5941 C 566.595 -4.19262 4.17101 0
M  V30 5942 H 565.525 -0.633645 0.408668 0
M  V30 5943 H 568.176 -1.05719 1.49986 0
M  V30 5944 H 566.558 -3.68363 1.45344 0
M  V30 5945 H 567.732 -2.3334 3.97353 0
M  V30 5946 H 566.047 -2.24345 3.50796 0
M  V30 5947 H 568.644 -4.78688 2.38248 0
M  V30 5948 H 568.987 -4.08099 0.822226 0
M  V30 5949 H 569.52 -3.24495 2.30104 0
M  V30 5950 H 566.259 -3.98254 5.20648 0
M  V30 5951 H 565.779 -4.74273 3.67186 0
M  V30 5952 H 567.458 -4.87775 4.25071 0
M  V30 5953 N 567.59 -1.07411 -1.15328 0
M  V30 5954 C 568.5 -0.706438 -2.23711 0
M  V30 5955 C 569.516 0.282586 -1.7169 0
M  V30 5956 O 570.692 0.129066 -2.00986 0
M  V30 5957 C 567.757 -0.11048 -3.46524 0
M  V30 5958 C 566.818 -1.15282 -4.13532 0
M  V30 5959 C 566.051 -0.585205 -5.30482 0
M  V30 5960 O 566.274 0.598549 -5.67251 0
M  V30 5961 O 565.208 -1.33039 -5.87013 0
M  V30 5962 H 569.034 -1.61031 -2.57493 0
M  V30 5963 H 566.619 -0.847113 -1.23062 0
M  V30 5964 H 568.501 0.21957 -4.20828 0
M  V30 5965 H 567.176 0.766703 -3.14489 0
M  V30 5966 H 566.083 -1.53523 -3.41147 0
M  V30 5967 H 567.416 -2.00192 -4.49649 0
M  V30 5968 N 569.068 1.32177 -0.85831 0
M  V30 5969 C 570.317 1.96392 -0.459689 0
M  V30 5970 C 570.63 1.68659 0.990632 0
M  V30 5971 O 571.836 2.26641 1.49485 0
M  V30 5972 C 570.292 3.51542 -0.7711 0
M  V30 5973 C 569.9 3.8813 -2.2374 0
M  V30 5974 C 571.644 4.2221 -0.44038 0
M  V30 5975 C 569.551 5.36341 -2.49183 0
M  V30 5976 H 568.481 0.735007 -0.168169 0
M  V30 5977 H 571.132 1.50518 -1.0496 0
M  V30 5978 H 569.514 3.95846 -0.11058 0
M  V30 5979 H 570.688 3.54824 -2.94001 0
M  V30 5980 H 569.003 3.30497 -2.533 0
M  V30 5981 H 571.6 5.31234 -0.607855 0
M  V30 5982 H 571.943 4.11683 0.618291 0
M  V30 5983 H 572.476 3.83502 -1.05695 0
M  V30 5984 H 569.215 5.51892 -3.53689 0
M  V30 5985 H 568.735 5.7104 -1.83504 0
M  V30 5986 H 570.414 6.03466 -2.33318 0
M  V30 5987 N 570.547 0.616602 1.45037 0
M  V30 5988 C 571.958 0.199359 1.85633 0
M  V30 5989 C 572.309 -1.24588 1.51566 0
M  V30 5990 O 571.434 -1.94594 0.94668 0
M  V30 5991 C 572.029 0.355033 3.36935 0
M  V30 5992 C 570.588 -0.00758748 3.76399 0
M  V30 5993 C 569.735 0.675256 2.68953 0
M  V30 5994 H 572.686 0.822708 1.3571 0
M  V30 5995 H 572.707 -0.410201 3.78282 0
M  V30 5996 H 572.219 1.40699 3.61698 0
M  V30 5997 H 570.32 -1.05837 3.57252 0
M  V30 5998 H 570.433 0.392346 4.77491 0
M  V30 5999 H 568.797 0.111992 2.54454 0
M  V30 6000 H 569.58 1.72952 2.96551 0
M  V30 6001 N 572.025 -1.5352 0.356285 0
M  V30 6002 C 573.273 -2.00719 -0.235837 0
M  V30 6003 C 573.594 -1.24551 -1.5004 0
M  V30 6004 O 572.864 -0.356185 -1.92635 0
M  V30 6005 H 571.444 -0.741542 -0.0901366 0
M  V30 6006 H 574.106 -1.88887 0.480378 0
M  V30 6007 H 573.202 -3.08551 -0.469357 0
M  V30 6008 N 573.503 -0.0852151 -1.57369 0
M  V30 6009 C 574.433 0.874556 -2.16503 0
M  V30 6010 C 575.414 1.30111 -1.09568 0
M  V30 6011 O 576.599 1.36977 -1.37662 0
M  V30 6012 C 573.729 2.13731 -2.73745 0
M  V30 6013 C 572.683 1.84971 -3.85966 0
M  V30 6014 C 572.009 3.17991 -4.29867 0
M  V30 6015 C 573.309 1.14442 -5.09608 0
M  V30 6016 H 575.003 0.381899 -2.96954 0
M  V30 6017 H 572.549 0.18225 -1.42842 0
M  V30 6018 H 574.502 2.81302 -3.13763 0
M  V30 6019 H 573.226 2.65263 -1.90534 0
M  V30 6020 H 571.885 1.19801 -3.46473 0
M  V30 6021 H 571.533 3.6739 -3.4356 0
M  V30 6022 H 571.233 2.99534 -5.05523 0
M  V30 6023 H 572.757 3.86737 -4.72511 0
M  V30 6024 H 574.171 1.72105 -5.46857 0
M  V30 6025 H 572.568 1.06197 -5.90629 0
M  V30 6026 H 573.638 0.12559 -4.84737 0
M  V30 6027 N 574.981 1.5647 0.188427 0
M  V30 6028 C 576.392 1.70864 0.752494 0
M  V30 6029 C 576.743 0.692905 1.83557 0
M  V30 6030 O 575.868 -0.149307 2.15884 0
M  V30 6031 C 576.463 3.09789 1.37173 0
M  V30 6032 C 575.022 3.25925 1.88281 0
M  V30 6033 C 574.169 2.66817 0.755259 0
M  V30 6034 H 577.12 1.58657 -0.0367408 0
M  V30 6035 H 577.141 3.07489 2.24122 0
M  V30 6036 H 576.653 3.83693 0.583219 0
M  V30 6037 H 574.754 2.56948 2.6983 0
M  V30 6038 H 574.867 4.33498 2.04001 0
M  V30 6039 H 573.231 2.2617 1.17128 0
M  V30 6040 H 574.014 3.43294 -0.0211237 0
M  V30 6041 N 576.459 -0.456382 1.50847 0
M  V30 6042 C 577.369 -1.57805 1.73594 0
M  V30 6043 C 578.385 -1.62599 0.619476 0
M  V30 6044 O 579.561 -1.80195 0.899532 0
M  V30 6045 C 576.626 -2.93926 1.8387 0
M  V30 6046 C 575.687 -2.99402 3.07663 0
M  V30 6047 C 574.92 -4.29031 3.1744 0
M  V30 6048 O 575.143 -5.20358 2.33631 0
M  V30 6049 O 574.077 -4.40401 4.10281 0
M  V30 6050 H 577.903 -1.41531 2.68705 0
M  V30 6051 H 575.488 -0.637422 1.3512 0
M  V30 6052 H 577.37 -3.74747 1.92725 0
M  V30 6053 H 576.045 -3.10368 0.91944 0
M  V30 6054 H 574.952 -2.17606 3.043 0
M  V30 6055 H 576.285 -2.87901 3.99216 0
M  V30 6056 N 577.937 -1.40673 -0.710563 0
M  V30 6057 C 578.867 -1.44095 -1.83736 0
M  V30 6058 C 579.848 -0.301286 -1.67411 0
M  V30 6059 O 581.033 -0.510618 -1.87367 0
M  V30 6060 C 578.163 -1.30773 -3.21738 0
M  V30 6061 C 577.117 -2.42395 -3.52745 0
M  V30 6062 C 576.443 -2.14147 -4.89944 0
M  V30 6063 C 577.743 -3.84738 -3.53234 0
M  V30 6064 H 579.437 -2.38396 -1.81129 0
M  V30 6065 H 576.983 -1.14746 -0.870017 0
M  V30 6066 H 578.936 -1.31783 -4.00264 0
M  V30 6067 H 577.66 -0.329507 -3.24934 0
M  V30 6068 H 576.319 -2.40643 -2.76562 0
M  V30 6069 H 575.967 -1.14703 -4.89747 0
M  V30 6070 H 575.667 -2.88934 -5.11655 0
M  V30 6071 H 577.191 -2.16848 -5.70797 0
M  V30 6072 H 578.605 -3.88286 -4.2179 0
M  V30 6073 H 577.002 -4.59085 -3.86473 0
M  V30 6074 H 578.072 -4.13962 -2.52514 0
M  V30 6075 N 579.415 0.9433 -1.26252 0
M  V30 6076 C 580.643 1.72367 -1.14443 0
M  V30 6077 C 581.058 1.86392 0.300572 0
M  V30 6078 O 580.415 1.36978 1.20596 0
M  V30 6079 C 580.466 3.13155 -1.806 0
M  V30 6080 O 580.187 2.99803 -3.19452 0
M  V30 6081 C 581.688 4.07417 -1.74717 0
M  V30 6082 H 578.908 0.539758 -0.398626 0
M  V30 6083 H 581.452 1.18268 -1.66832 0
M  V30 6084 H 579.607 3.64162 -1.32154 0
M  V30 6085 H 580.021 3.88697 -3.52158 0
M  V30 6086 H 581.495 5.03773 -2.25647 0
M  V30 6087 H 581.972 4.3337 -0.713244 0
M  V30 6088 H 582.578 3.6233 -2.22704 0
M  V30 6089 N 580.893 1.08022 1.14757 0
M  V30 6090 C 581.803 0.718292 2.23333 0
M  V30 6091 C 582.819 -0.273477 1.71837 0
M  V30 6092 O 583.995 -0.118406 2.01052 0
M  V30 6093 C 581.06 0.128855 3.4646 0
M  V30 6094 C 580.121 1.17473 4.12915 0
M  V30 6095 C 579.354 0.61333 5.30164 0
M  V30 6096 O 579.577 -0.568458 5.6756 0
M  V30 6097 O 578.511 1.3615 5.86299 0
M  V30 6098 H 582.337 1.62394 2.56636 0
M  V30 6099 H 579.922 0.853628 1.22611 0
M  V30 6100 H 581.804 -0.197249 4.20938 0
M  V30 6101 H 580.479 -0.750014 3.14891 0
M  V30 6102 H 579.386 1.5533 3.40328 0
M  V30 6103 H 580.719 2.02574 4.48581 0
M  V30 6104 N 582.371 -1.3172 0.865308 0
M  V30 6105 C 583.617 -1.97168 0.474633 0
M  V30 6106 C 583.95 -1.68263 -0.969604 0
M  V30 6107 O 583.225 -0.976588 -1.68205 0
M  V30 6108 C 583.508 -3.52689 0.726808 0
M  V30 6109 C 583.361 -3.91185 2.22024 0
M  V30 6110 C 584.68 -4.39689 0.190201 0
M  V30 6111 H 581.799 -0.716185 0.17392 0
M  V30 6112 H 584.441 -1.55925 1.08569 0
M  V30 6113 H 582.591 -3.8795 0.206705 0
M  V30 6114 H 584.263 -3.66049 2.80724 0
M  V30 6115 H 582.506 -3.3996 2.69462 0
M  V30 6116 H 583.177 -4.99604 2.34735 0
M  V30 6117 H 585.653 -4.11225 0.635103 0
M  V30 6118 H 584.529 -5.47469 0.396132 0
M  V30 6119 H 584.79 -4.32683 -0.907625 0
M  V30 6120 N 583.85 -0.624285 -1.44708 0
M  V30 6121 C 585.098 -0.125802 -2.01708 0
M  V30 6122 C 585.418 1.2543 -1.49306 0
M  V30 6123 O 584.689 1.83198 -0.693924 0
M  V30 6124 H 583.269 -0.0435161 -0.745731 0
M  V30 6125 H 585.931 -0.809446 -1.77296 0
M  V30 6126 H 585.027 -0.0882734 -3.11975 0
M  V30 6127 N 585.328 1.53329 -0.364422 0
M  V30 6128 C 586.576 2.00842 0.225189 0
M  V30 6129 C 586.897 1.25345 1.49378 0
M  V30 6130 O 586.167 0.366396 1.92443 0
M  V30 6131 H 584.747 0.742009 0.0862027 0
M  V30 6132 H 587.409 1.8863 -0.490389 0
M  V30 6133 H 586.505 3.08795 0.452987 0
M  V30 6134 N 586.806 0.0935595 1.57322 0
M  V30 6135 C 587.738 -0.895923 2.10964 0
M  V30 6136 C 588.751 -1.24705 1.04654 0
M  V30 6137 O 589.94 -1.20044 1.32105 0
M  V30 6138 C 587.04 -2.20546 2.57318 0
M  V30 6139 C 586.213 -2.0299 3.87445 0
M  V30 6140 C 585.272 -3.17443 4.19662 0
M  V30 6141 O 584.298 -2.91474 4.88909 0
M  V30 6142 N 585.5 -4.43168 3.74943 0
M  V30 6143 H 588.265 -0.437788 2.96485 0
M  V30 6144 H 585.826 -0.0915863 1.61641 0
M  V30 6145 H 587.818 -2.9606 2.75917 0
M  V30 6146 H 586.388 -2.57789 1.76816 0
M  V30 6147 H 585.608 -1.11815 3.78009 0
M  V30 6148 H 586.896 -1.88535 4.7258 0
M  V30 6149 H 586.294 -4.67149 3.19043 0
M  V30 6150 H 584.851 -5.15637 3.987 0
M  V30 6151 N 588.284 -1.56567 -0.180126 0
M  V30 6152 C 589.7 -1.50488 -0.531559 0
M  V30 6153 C 589.9 -0.796267 -1.851 0
M  V30 6154 O 588.956 -0.352978 -2.50021 0
M  V30 6155 C 590.269 -2.95201 -0.572456 0
M  V30 6156 C 591.817 -3.05957 -0.660264 0
M  V30 6157 C 592.292 -4.5211 -0.732135 0
M  V30 6158 N 593.783 -4.56322 -0.795262 0
M  V30 6159 C 594.518 -5.66742 -0.871296 0
M  V30 6160 N 594.014 -6.86815 -0.908708 0
M  V30 6161 N 595.807 -5.54691 -0.909639 0
M  V30 6162 H 587.958 -2.01045 0.685165 0
M  V30 6163 H 590.221 -0.915536 0.245962 0
M  V30 6164 H 589.927 -3.50165 0.328208 0
M  V30 6165 H 589.801 -3.49369 -1.422 0
M  V30 6166 H 592.188 -2.51032 -1.55136 0
M  V30 6167 H 592.269 -2.54888 0.215783 0
M  V30 6168 H 591.913 -5.07664 0.154664 0
M  V30 6169 H 591.843 -5.00926 -1.6242 0
M  V30 6170 H 594.334 -3.69868 -0.77499 0
M  V30 6171 H 594.647 -7.66718 -0.967654 0
M  V30 6172 H 592.992 -6.89443 -0.877132 0
M  V30 6173 H 596.183 -4.59804 -0.877353 0
M  V30 6174 H 596.356 -6.40768 -0.965434 0
M  V30 6175 N 589.762 0.448376 -1.51087 0
M  V30 6176 C 591.002 1.20832 -1.64861 0
M  V30 6177 C 591.366 1.88748 -0.351873 0
M  V30 6178 O 592.567 2.66307 -0.365265 0
M  V30 6179 C 590.838 2.20674 -2.81137 0
M  V30 6180 S 592.397 3.05303 -3.15176 0
M  V30 6181 H 589.215 0.40992 -0.580936 0
M  V30 6182 H 591.817 0.501624 -1.88955 0
M  V30 6183 H 590.521 1.69399 -3.73808 0
M  V30 6184 H 590.052 2.9594 -2.59198 0
M  V30 6185 H 592.067 4.22162 -2.60756 0
M  V30 6186 N 591.24 1.41047 0.703093 0
M  V30 6187 C 592.19 1.38774 1.80903 0
M  V30 6188 C 593.174 0.263275 1.58731 0
M  V30 6189 O 594.366 0.503362 1.69692 0
M  V30 6190 C 591.495 1.26497 3.19145 0
M  V30 6191 C 590.581 2.43775 3.47037 0
M  V30 6192 N 590.972 3.69249 3.45672 0
M  V30 6193 C 589.27 2.37425 3.77552 0
M  V30 6194 C 589.971 4.46989 3.72258 0
M  V30 6195 N 588.947 3.76998 3.91629 0
M  V30 6196 H 592.749 2.33714 1.78199 0
M  V30 6197 H 590.263 1.34996 0.902762 0
M  V30 6198 H 592.26 1.2295 3.98358 0
M  V30 6199 H 590.92 0.32534 3.23066 0
M  V30 6200 H 591.931 4.02239 3.26228 0
M  V30 6201 H 588.608 1.51895 3.88888 0
M  V30 6202 H 589.998 5.55894 3.77402 0
M  V30 6203 N 592.718 -0.936591 1.26751 0
M  V30 6204 C 593.995 -1.66094 1.03306 0
M  V30 6205 C 594.375 -2.06568 -0.435058 0
M  V30 6206 O 593.723 -1.79305 -1.41641 0
M  V30 6207 C 593.933 -2.86969 1.98619 0
M  V30 6208 C 595.281 -3.58516 2.27489 0
M  V30 6209 O 596.305 -2.97082 1.96522 0
M  V30 6210 O 595.164 -4.69181 2.80235 0
M  V30 6211 H 592.258 -0.727568 0.393158 0
M  V30 6212 H 594.804 -0.987914 1.3798 0
M  V30 6213 H 593.576 -2.53985 2.9767 0
M  V30 6214 H 593.199 -3.61996 1.64454 0
M  V30 6215 N 594.196 -1.08629 -1.14182 0
M  V30 6216 C 595.126 -0.740003 -2.21464 0
M  V30 6217 C 596.107 0.278591 -1.67803 0
M  V30 6218 O 597.292 0.148461 -1.93632 0
M  V30 6219 C 594.422 -0.150952 -3.46972 0
M  V30 6220 C 593.376 -1.09815 -4.13672 0
M  V30 6221 C 592.702 -0.3712 -5.3341 0
M  V30 6222 C 594.002 -2.43722 -4.61949 0
M  V30 6223 H 595.696 -1.63697 -2.50686 0
M  V30 6224 H 593.242 -0.788526 -1.20492 0
M  V30 6225 H 595.195 0.103325 -4.21273 0
M  V30 6226 H 593.919 0.781164 -3.1712 0
M  V30 6227 H 592.578 -1.33756 -3.41328 0
M  V30 6228 H 592.226 0.564792 -4.99819 0
M  V30 6229 H 591.926 -1.00267 -5.78982 0
M  V30 6230 H 593.45 -0.12503 -6.10472 0
M  V30 6231 H 594.864 -2.24034 -5.27714 0
M  V30 6232 H 593.261 -3.02582 -5.18232 0
M  V30 6233 H 594.331 -3.05082 -3.76899 0
M  V30 6234 N 595.674 1.31259 -0.872281 0
M  V30 6235 C 596.899 2.0133 -0.498099 0
M  V30 6236 C 597.324 1.65031 0.902568 0
M  V30 6237 O 596.682 0.860164 1.59596 0
M  V30 6238 C 596.73 3.54411 -0.665205 0
M  V30 6239 O 595.834 4.11347 0.294473 0
M  V30 6240 H 595.175 0.633844 -0.197832 0
M  V30 6241 H 597.705 1.67402 -1.17633 0
M  V30 6242 H 597.715 4.04147 -0.559373 0
M  V30 6243 H 596.39 3.80171 -1.68651 0
M  V30 6244 H 594.967 3.72624 0.143403 0
M  V30 6245 N 597.152 0.631951 1.44375 0
M  V30 6246 C 598.062 -0.073674 2.34484 0
M  V30 6247 C 599.078 -0.834825 1.52665 0
M  V30 6248 O 600.254 -0.786902 1.85391 0
M  V30 6249 C 597.319 -1.04247 3.30656 0
M  V30 6250 C 596.38 -0.280602 4.28382 0
M  V30 6251 C 595.613 -1.20325 5.19959 0
M  V30 6252 O 595.836 -2.44199 5.15484 0
M  V30 6253 O 594.77 -0.687128 5.97965 0
M  V30 6254 H 598.596 0.667477 2.96274 0
M  V30 6255 H 596.181 0.392144 1.44162 0
M  V30 6256 H 598.063 -1.59981 3.89851 0
M  V30 6257 H 596.738 -1.76422 2.71398 0
M  V30 6258 H 595.645 0.319804 3.72731 0
M  V30 6259 H 596.978 0.401144 4.90563 0
M  V30 6260 N 598.631 -1.53133 0.372548 0
M  V30 6261 C 599.859 -2.05774 -0.215515 0
M  V30 6262 C 600.274 -1.24555 -1.41886 0
M  V30 6263 O 599.631 -0.287951 -1.80214 0
M  V30 6264 C 599.682 -3.5645 -0.602161 0
M  V30 6265 O 599.403 -4.34591 0.553359 0
M  V30 6266 C 600.904 -4.25374 -1.24787 0
M  V30 6267 H 598.124 -0.670009 -0.0364529 0
M  V30 6268 H 600.668 -1.97434 0.532934 0
M  V30 6269 H 598.823 -3.64918 -1.30052 0
M  V30 6270 H 599.237 -5.23954 0.239336 0
M  V30 6271 H 600.711 -5.32097 -1.46891 0
M  V30 6272 H 601.188 -3.79531 -2.21026 0
M  V30 6273 H 601.794 -4.21177 -0.590752 0
M  V30 6274 N 600.109 -0.101901 -1.5727 0
M  V30 6275 C 601.337 0.568392 -1.98939 0
M  V30 6276 C 601.752 1.61301 -0.981194 0
M  V30 6277 O 601.109 1.82478 0.0282869 0
M  V30 6278 C 601.16 1.20997 -3.40649 0
M  V30 6279 O 600.881 0.207129 -4.3761 0
M  V30 6280 C 602.382 1.96523 -3.97358 0
M  V30 6281 H 599.602 0.15186 -0.65359 0
M  V30 6282 H 602.146 -0.183198 -2.03678 0
M  V30 6283 H 600.301 1.91245 -3.36904 0
M  V30 6284 H 600.715 0.671071 -5.20189 0
M  V30 6285 H 602.189 2.36764 -4.98645 0
M  V30 6286 H 602.666 2.83376 -3.35552 0
M  V30 6287 H 603.272 1.31076 -4.04598 0
M  V30 6288 N 601.587 1.56661 0.17182 0
M  V30 6289 C 602.827 1.83762 0.895029 0
M  V30 6290 C 603.191 0.682752 1.79451 0
M  V30 6291 O 604.392 0.834208 2.55528 0
M  V30 6292 C 602.663 3.15976 1.67015 0
M  V30 6293 S 604.222 3.64558 2.44219 0
M  V30 6294 H 601.04 0.644713 0.299778 0
M  V30 6295 H 603.642 1.94871 0.156701 0
M  V30 6296 H 602.346 3.98021 1.00039 0
M  V30 6297 H 601.877 3.07807 2.44986 0
M  V30 6298 H 603.892 3.31845 3.68909 0
M  V30 6299 N 603.065 -0.440357 1.51323 0
M  V30 6300 C 603.995 -1.54174 1.75364 0
M  V30 6301 C 604.976 -1.59039 0.603375 0
M  V30 6302 O 606.161 -1.74815 0.845774 0
M  V30 6303 C 603.291 -2.92277 1.87593 0
M  V30 6304 C 602.245 -3.02274 3.03009 0
M  V30 6305 C 601.571 -4.42327 3.00418 0
M  V30 6306 C 602.871 -2.76634 4.43024 0
M  V30 6307 H 604.565 -1.34307 2.67585 0
M  V30 6308 H 602.111 -0.644678 1.28763 0
M  V30 6309 H 604.064 -3.69284 2.02995 0
M  V30 6310 H 602.788 -3.13369 0.920179 0
M  V30 6311 H 601.447 -2.27706 2.87307 0
M  V30 6312 H 601.095 -4.60382 2.02626 0
M  V30 6313 H 600.795 -4.49946 3.77918 0
M  V30 6314 H 602.319 -5.21312 3.17909 0
M  V30 6315 H 603.733 -3.43376 4.59093 0
M  V30 6316 H 602.13 -2.95666 5.22208 0
M  V30 6317 H 603.2 -1.72262 4.5327 0
M  V30 6318 N 604.543 -1.41418 -0.695603 0
M  V30 6319 C 605.473 -1.46035 -1.82197 0
M  V30 6320 C 606.454 -0.319025 -1.67082 0
M  V30 6321 O 607.639 -0.530462 -1.86815 0
M  V30 6322 C 604.769 -1.34179 -3.20333 0
M  V30 6323 C 603.723 -2.46123 -3.50154 0
M  V30 6324 C 603.049 -2.19332 -4.87645 0
M  V30 6325 C 604.349 -3.88463 -3.49133 0
M  V30 6326 H 606.043 -2.40303 -1.78591 0
M  V30 6327 H 603.589 -1.15663 -0.857797 0
M  V30 6328 H 605.542 -1.36021 -3.98844 0
M  V30 6329 H 604.266 -0.363952 -3.24566 0
M  V30 6330 H 602.925 -2.43563 -2.73994 0
M  V30 6331 H 602.573 -1.19891 -4.88503 0
M  V30 6332 H 602.273 -2.94344 -5.08562 0
M  V30 6333 H 603.797 -2.22889 -5.68465 0
M  V30 6334 H 605.211 -3.92738 -4.17648 0
M  V30 6335 H 603.608 -4.63158 -3.81582 0
M  V30 6336 H 604.678 -4.16617 -2.48109 0
M  V30 6337 N 606.021 0.929856 -1.27246 0
M  V30 6338 C 607.432 1.49223 -1.12203 0
M  V30 6339 C 607.783 1.93989 0.293731 0
M  V30 6340 O 606.908 1.80978 1.18642 0
M  V30 6341 C 607.503 2.71198 -2.0307 0
M  V30 6342 C 606.062 3.23666 -1.92139 0
M  V30 6343 C 605.209 1.96409 -1.95752 0
M  V30 6344 H 608.16 0.744181 -1.4017 0
M  V30 6345 H 608.181 3.45905 -1.58524 0
M  V30 6346 H 607.693 2.38585 -3.06102 0
M  V30 6347 H 605.794 3.61042 -0.920834 0
M  V30 6348 H 605.907 3.90006 -2.78267 0
M  V30 6349 H 604.271 2.12806 -1.39949 0
M  V30 6350 H 605.054 1.66113 -3.00436 0
M  V30 6351 N 607.499 1.09233 1.13605 0
M  V30 6352 C 608.431 0.687794 2.18637 0
M  V30 6353 C 609.444 -0.26936 1.60556 0
M  V30 6354 O 610.633 -0.0557162 1.78413 0
M  V30 6355 C 607.733 -0.00751901 3.38899 0
M  V30 6356 C 606.906 0.97067 4.26494 0
M  V30 6357 C 605.965 0.309129 5.25291 0
M  V30 6358 O 604.991 0.956149 5.61112 0
M  V30 6359 N 606.193 -0.937555 5.72879 0
M  V30 6360 H 608.958 1.59141 2.53957 0
M  V30 6361 H 606.519 0.979515 1.28907 0
M  V30 6362 H 608.511 -0.461238 4.02063 0
M  V30 6363 H 607.081 -0.813353 3.01833 0
M  V30 6364 H 606.301 1.603 3.60135 0
M  V30 6365 H 607.589 1.63323 4.81875 0
M  V30 6366 H 606.987 -1.48281 5.4592 0
M  V30 6367 H 605.544 -1.33463 6.3799 0
M  V30 6368 N 608.977 -1.30795 0.87923 0
M  V30 6369 C 610.207 -2.00237 0.50881 0
M  V30 6370 C 610.615 -1.66115 -0.905682 0
M  V30 6371 O 609.958 -0.89138 -1.60624 0
M  V30 6372 C 610.02 -3.54508 0.597003 0
M  V30 6373 C 609.684 -4.12131 1.97477 0
M  V30 6374 C 610.681 -4.28552 2.94346 0
M  V30 6375 C 608.366 -4.47644 2.2786 0
M  V30 6376 C 610.36 -4.79689 4.19735 0
M  V30 6377 C 608.047 -4.98481 3.53496 0
M  V30 6378 C 609.045 -5.14456 4.49248 0
M  V30 6379 O 608.733 -5.64199 5.72656 0
M  V30 6380 H 608.465 -0.647026 0.195788 0
M  V30 6381 H 611.019 -1.67785 1.1848 0
M  V30 6382 H 609.249 -3.86461 -0.135945 0
M  V30 6383 H 610.938 -4.05198 0.238684 0
M  V30 6384 H 611.704 -4.01424 2.72183 0
M  V30 6385 H 607.583 -4.34481 1.54102 0
M  V30 6386 H 611.127 -4.92073 4.9448 0
M  V30 6387 H 607.024 -5.25044 3.75498 0
M  V30 6388 H 607.792 -5.82551 5.74957 0
M  V30 6389 N 610.455 -0.639598 -1.44038 0
M  V30 6390 C 611.703 -0.147188 -2.01563 0
M  V30 6391 C 612.024 1.2384 -1.50628 0
M  V30 6392 O 611.294 1.82452 -0.713316 0
M  V30 6393 H 609.874 -0.0514231 -0.745228 0
M  V30 6394 H 612.536 -0.828205 -1.76428 0
M  V30 6395 H 611.632 -0.121358 -3.11864 0
M  V30 6396 N 611.933 1.52934 -0.380664 0
M  V30 6397 C 612.865 2.23822 0.493581 0
M  V30 6398 C 613.878 1.25761 1.03383 0
M  V30 6399 O 615.067 1.5189 0.937633 0
M  V30 6400 C 612.167 2.9342 1.69582 0
M  V30 6401 C 611.34 4.18115 1.28445 0
M  V30 6402 C 610.399 4.70788 2.35042 0
M  V30 6403 O 609.425 5.34093 1.96807 0
M  V30 6404 N 610.627 4.49899 3.66839 0
M  V30 6405 H 613.392 2.99484 -0.11371 0
M  V30 6406 H 610.953 1.60577 -0.206587 0
M  V30 6407 H 612.945 3.2556 2.40401 0
M  V30 6408 H 611.515 2.21119 2.20965 0
M  V30 6409 H 610.735 3.92109 0.405503 0
M  V30 6410 H 612.023 4.99152 0.986132 0
M  V30 6411 H 611.421 3.99349 4.0067 0
M  V30 6412 H 609.978 4.86551 4.33718 0
M  V30 6413 N 613.412 0.11024 1.57214 0
M  V30 6414 C 614.66 -0.548783 1.94506 0
M  V30 6415 C 614.981 -1.67772 0.99386 0
M  V30 6416 O 614.251 -1.9584 0.0485841 0
M  V30 6417 H 612.831 -0.205715 0.718116 0
M  V30 6418 H 615.493 0.177127 1.94093 0
M  V30 6419 H 614.589 -0.949096 2.97319 0
M  V30 6420 N 614.89 -1.56749 -0.16351 0
M  V30 6421 C 616.301 -1.72039 -0.725216 0
M  V30 6422 C 616.652 -0.72202 -1.82432 0
M  V30 6423 O 615.777 0.114942 -2.16095 0
M  V30 6424 C 616.372 -3.11932 -1.32227 0
M  V30 6425 C 614.931 -3.28879 -1.83072 0
M  V30 6426 C 614.078 -2.67984 -0.712716 0
M  V30 6427 H 617.029 -1.58579 0.0619772 0
M  V30 6428 H 617.05 -3.11015 -2.19202 0
M  V30 6429 H 616.562 -3.84572 -0.522103 0
M  V30 6430 H 614.663 -2.61209 -2.65708 0
M  V30 6431 H 614.776 -4.36688 -1.97079 0
M  V30 6432 H 613.14 -2.28005 -1.13515 0
M  V30 6433 H 613.923 -3.43216 0.0757361 0
M  V30 6434 N 616.368 0.432326 -1.51554 0
M  V30 6435 C 617.645 1.19288 -1.55015 0
M  V30 6436 C 618.025 2.08701 -0.317375 0
M  V30 6437 O 617.373 2.17602 0.697243 0
M  V30 6438 C 617.583 1.99037 -2.86679 0
M  V30 6439 C 618.931 2.55907 -3.38817 0
M  V30 6440 O 619.955 2.09243 -2.88263 0
M  V30 6441 O 618.814 3.41029 -4.27038 0
M  V30 6442 H 615.908 0.543369 -0.623441 0
M  V30 6443 H 618.454 0.440988 -1.6387 0
M  V30 6444 H 617.226 1.33397 -3.6786 0
M  V30 6445 H 616.849 2.81281 -2.8101 0
M  V30 6446 N 617.846 1.41785 0.688094 0
M  V30 6447 C 619.092 1.41753 1.4503 0
M  V30 6448 C 619.425 0.0290745 1.94178 0
M  V30 6449 O 618.7 -0.944456 1.7003 0
M  V30 6450 C 618.983 2.43069 2.65686 0
M  V30 6451 C 618.836 3.91053 2.22256 0
M  V30 6452 C 620.155 2.41543 3.67893 0
M  V30 6453 H 617.274 0.516202 0.526027 0
M  V30 6454 H 619.916 1.73111 0.783105 0
M  V30 6455 H 618.066 2.1646 3.2261 0
M  V30 6456 H 619.738 4.28594 1.70602 0
M  V30 6457 H 617.981 4.05559 1.53963 0
M  V30 6458 H 618.652 4.57501 3.08863 0
M  V30 6459 H 621.128 2.65175 3.20658 0
M  V30 6460 H 620.004 3.14434 4.49914 0
M  V30 6461 H 620.265 1.43666 4.18106 0
M  V30 6462 N 619.324 -0.923095 1.27737 0
M  V30 6463 C 620.554 -1.70277 1.17001 0
M  V30 6464 C 620.962 -1.87188 -0.275199 0
M  V30 6465 O 620.305 -1.39195 -1.19877 0
M  V30 6466 C 620.367 -3.11976 1.78637 0
M  V30 6467 C 620.031 -3.18386 3.27841 0
M  V30 6468 C 621.028 -3.00287 4.2441 0
M  V30 6469 C 618.713 -3.41198 3.68632 0
M  V30 6470 C 620.707 -3.04896 5.59747 0
M  V30 6471 C 618.394 -3.4544 5.04097 0
M  V30 6472 C 619.392 -3.27309 5.99465 0
M  V30 6473 O 619.08 -3.31295 7.32461 0
M  V30 6474 H 618.812 -0.539366 0.407505 0
M  V30 6475 H 621.366 -1.16446 1.69202 0
M  V30 6476 H 619.596 -3.67308 1.20919 0
M  V30 6477 H 621.285 -3.7193 1.6255 0
M  V30 6478 H 622.051 -2.825 3.94232 0
M  V30 6479 H 617.93 -3.54359 2.94873 0
M  V30 6480 H 621.474 -2.90662 6.34162 0
M  V30 6481 H 617.371 -3.62753 5.33929 0
M  V30 6482 H 618.139 -3.47719 7.40968 0
M  V30 6483 N 620.802 -1.09834 -1.13024 0
M  V30 6484 C 622.05 -0.835297 -1.8403 0
M  V30 6485 C 622.371 0.640944 -1.84165 0
M  V30 6486 O 621.641 1.46517 -1.30037 0
M  V30 6487 H 620.221 -0.306018 -0.681441 0
M  V30 6488 H 622.883 -1.38734 -1.36891 0
M  V30 6489 H 621.979 -1.19258 -2.88416 0
M  V30 6490 N 622.28 1.30327 -0.886154 0
M  V30 6491 C 623.528 1.9571 -0.504195 0
M  V30 6492 C 623.849 1.70294 0.950003 0
M  V30 6493 O 623.119 1.02718 1.66811 0
M  V30 6494 H 621.699 0.72412 -0.183465 0
M  V30 6495 H 624.361 1.58835 -1.12949 0
M  V30 6496 H 623.457 3.04704 -0.675431 0
M  V30 6497 N 623.758 0.647228 1.43697 0
M  V30 6498 C 625.005 0.158188 2.01881 0
M  V30 6499 C 625.333 -1.22573 1.51017 0
M  V30 6500 O 624.588 -1.83086 0.69122 0
M  V30 6501 C 624.887 0.111481 3.57226 0
M  V30 6502 C 624.553 1.43633 4.27411 0
M  V30 6503 C 623.215 1.79915 4.463 0
M  V30 6504 C 625.567 2.31011 4.67208 0
M  V30 6505 C 622.895 3.03251 5.02251 0
M  V30 6506 C 625.247 3.53633 5.24525 0
M  V30 6507 C 623.911 3.90118 5.41631 0
M  V30 6508 H 623.181 0.0578851 0.738736 0
M  V30 6509 H 625.828 0.836746 1.72252 0
M  V30 6510 H 624.133 -0.650507 3.86362 0
M  V30 6511 H 625.83 -0.283682 3.99995 0
M  V30 6512 H 622.42 1.14403 4.1305 0
M  V30 6513 H 626.604 2.04272 4.52313 0
M  V30 6514 H 621.86 3.31575 5.13681 0
M  V30 6515 H 626.034 4.21561 5.5431 0
M  V30 6516 H 623.661 4.85768 5.84751 0
M  V30 6517 N 625.236 -1.5273 0.388769 0
M  V30 6518 C 626.483 -2.01573 -0.19359 0
M  V30 6519 C 626.811 -1.27525 -1.46859 0
M  V30 6520 O 626.066 -0.363926 -1.92286 0
M  V30 6521 C 626.365 -3.53765 -0.508445 0
M  V30 6522 C 626.031 -4.4582 0.674947 0
M  V30 6523 C 624.693 -4.70703 0.999596 0
M  V30 6524 C 627.045 -5.00138 1.46666 0
M  V30 6525 C 624.373 -5.47155 2.11751 0
M  V30 6526 C 626.725 -5.77812 2.57518 0
M  V30 6527 C 625.389 -6.00975 2.90492 0
M  V30 6528 H 624.659 -0.737606 -0.0708397 0
M  V30 6529 H 627.306 -1.84134 0.526006 0
M  V30 6530 H 625.611 -3.69274 -1.30936 0
M  V30 6531 H 627.308 -3.8905 -0.971664 0
M  V30 6532 H 623.898 -4.26616 0.411906 0
M  V30 6533 H 628.082 -4.8084 1.22909 0
M  V30 6534 H 623.338 -5.63314 2.3767 0
M  V30 6535 H 627.512 -6.18904 3.19267 0
M  V30 6536 H 625.139 -6.59998 3.77236 0
M  V30 6537 N 626.714 -0.118576 -1.57153 0
M  V30 6538 C 627.939 0.550582 -1.99958 0
M  V30 6539 C 628.364 1.59458 -0.997736 0
M  V30 6540 O 627.722 1.81274 0.0306269 0
M  V30 6541 C 627.77 1.15379 -3.41643 0
M  V30 6542 O 626.874 2.26932 -3.44348 0
M  V30 6543 H 626.215 0.137567 -0.649593 0
M  V30 6544 H 628.745 -0.206926 -2.03551 0
M  V30 6545 H 628.755 1.48942 -3.79843 0
M  V30 6546 H 627.43 0.389087 -4.14076 0
M  V30 6547 H 626.007 1.94812 -3.17967 0
M  V30 6548 N 628.193 1.56834 0.155195 0
M  V30 6549 C 629.609 1.51315 0.50755 0
M  V30 6550 C 629.809 0.825614 1.83809 0
M  V30 6551 O 628.865 0.39271 2.49427 0
M  V30 6552 C 630.178 2.96074 0.52542 0
M  V30 6553 C 631.726 3.06968 0.611505 0
M  V30 6554 C 632.201 4.53218 0.660115 0
M  V30 6555 N 633.692 4.5753 0.722564 0
M  V30 6556 C 634.427 5.68056 0.781023 0
M  V30 6557 N 633.923 6.88173 0.799327 0
M  V30 6558 N 635.716 5.56068 0.821278 0
M  V30 6559 H 627.867 1.9993 -0.717063 0
M  V30 6560 H 630.13 0.911507 -0.260496 0
M  V30 6561 H 629.836 3.49599 -0.383875 0
M  V30 6562 H 629.71 3.51587 1.36624 0
M  V30 6563 H 632.097 2.53468 1.51122 0
M  V30 6564 H 632.178 2.54513 -0.256306 0
M  V30 6565 H 631.822 5.07354 -0.23541 0
M  V30 6566 H 631.752 5.03447 1.5443 0
M  V30 6567 H 634.243 3.71054 0.716049 0
M  V30 6568 H 634.556 7.6816 0.845553 0
M  V30 6569 H 632.901 6.90751 0.767337 0
M  V30 6570 H 636.092 4.61142 0.804091 0
M  V30 6571 H 636.265 6.42223 0.863372 0
M  V30 6572 N 629.671 -0.424282 1.51781 0
M  V30 6573 C 630.603 -1.53457 1.70246 0
M  V30 6574 C 631.616 -1.52004 0.582967 0
M  V30 6575 O 632.805 -1.56544 0.857683 0
M  V30 6576 C 629.905 -2.92368 1.71389 0
M  V30 6577 C 629.078 -3.1818 3.00133 0
M  V30 6578 C 628.137 -4.36884 2.9329 0
M  V30 6579 O 627.163 -4.34901 3.67219 0
M  V30 6580 N 628.365 -5.4117 2.10036 0
M  V30 6581 H 631.13 -1.38017 2.66029 0
M  V30 6582 H 628.691 -0.613394 1.4983 0
M  V30 6583 H 630.683 -3.6982 1.64362 0
M  V30 6584 H 629.253 -3.0134 0.831449 0
M  V30 6585 H 628.473 -2.28908 3.20928 0
M  V30 6586 H 629.761 -3.32261 3.85331 0
M  V30 6587 H 629.159 -5.45623 1.49373 0
M  V30 6588 H 627.716 -6.17425 2.08878 0
M  V30 6589 N 631.149 -1.42148 -0.680565 0
M  V30 6590 C 632.426 -1.32795 -1.43614 0
M  V30 6591 C 632.806 0.037415 -2.11067 0
M  V30 6592 O 632.154 1.05258 -2.02813 0
M  V30 6593 C 632.364 -2.49206 -2.44331 0
M  V30 6594 C 633.712 -2.91059 -3.09144 0
M  V30 6595 O 634.736 -2.49054 -2.54657 0
M  V30 6596 O 633.595 -3.63741 -4.07866 0
M  V30 6597 H 630.689 -0.523397 -0.640301 0
M  V30 6598 H 633.235 -1.54144 -0.709775 0
M  V30 6599 H 632.007 -3.40252 -1.93247 0
M  V30 6600 H 631.63 -2.29813 -3.24456 0
M  V30 6601 N 632.627 0.916307 -1.28225 0
M  V30 6602 C 633.857 1.69654 -1.17902 0
M  V30 6603 C 634.265 1.87331 0.265268 0
M  V30 6604 O 633.608 1.39828 1.19137 0
M  V30 6605 C 633.67 3.11024 -1.80289 0
M  V30 6606 C 633.334 3.16643 -3.29525 0
M  V30 6607 C 634.331 2.98032 -4.25997 0
M  V30 6608 C 632.016 3.39238 -3.70436 0
M  V30 6609 C 634.01 3.01924 -5.61356 0
M  V30 6610 C 631.697 3.42762 -5.05922 0
M  V30 6611 C 632.695 3.24125 -6.01192 0
M  V30 6612 O 632.383 3.27406 -7.34208 0
M  V30 6613 H 632.115 0.537197 -0.41036 0
M  V30 6614 H 634.669 1.15547 -1.69817 0
M  V30 6615 H 632.899 3.66662 -1.22865 0
M  V30 6616 H 634.588 3.71063 -1.6452 0
M  V30 6617 H 635.354 2.80405 -3.95725 0
M  V30 6618 H 631.233 3.52791 -2.96749 0
M  V30 6619 H 634.777 2.87295 -6.35694 0
M  V30 6620 H 630.674 3.59916 -5.35846 0
M  V30 6621 H 631.442 3.43784 -7.42802 0
M  V30 6622 N 634.105 1.10431 1.1244 0
M  V30 6623 C 635.354 0.841539 1.83306 0
M  V30 6624 C 635.667 -0.634961 1.85007 0
M  V30 6625 O 636.873 -1.01363 2.51869 0
M  V30 6626 C 635.329 1.45565 3.29149 0
M  V30 6627 C 634.937 2.96544 3.35806 0
M  V30 6628 C 636.681 1.27227 4.04986 0
M  V30 6629 C 634.588 3.5099 4.75983 0
M  V30 6630 H 633.518 0.311156 0.686803 0
M  V30 6631 H 636.169 1.32829 1.26604 0
M  V30 6632 H 634.551 0.896574 3.85717 0
M  V30 6633 H 635.725 3.58766 2.89177 0
M  V30 6634 H 634.04 3.14036 2.73442 0
M  V30 6635 H 636.637 1.65348 5.08492 0
M  V30 6636 H 636.98 0.213834 4.1575 0
M  V30 6637 H 637.513 1.79941 3.54776 0
M  V30 6638 H 634.252 4.56499 4.70413 0
M  V30 6639 H 633.772 2.93535 5.23065 0
M  V30 6640 H 635.451 3.48808 5.44924 0
M  V30 6641 N 635.583 -1.29855 0.893053 0
M  V30 6642 C 636.86 -1.90694 0.435336 0
M  V30 6643 C 637.24 -1.8111 -1.08454 0
M  V30 6644 O 636.588 -1.23352 -1.92345 0
M  V30 6645 C 636.798 -3.36033 0.942472 0
M  V30 6646 C 638.146 -4.13083 0.982226 0
M  V30 6647 O 639.17 -3.4491 0.889686 0
M  V30 6648 O 638.029 -5.34896 1.12022 0
M  V30 6649 H 635.123 -0.815978 0.134567 0
M  V30 6650 H 637.669 -1.38367 0.982484 0
M  V30 6651 H 636.441 -3.37132 1.9864 0
M  V30 6652 H 636.064 -3.95828 0.374952 0
M  V30 6653 N 637.061 -0.65484 -1.43351 0
M  V30 6654 C 638.31 -0.166215 -2.01014 0
M  V30 6655 C 638.623 1.22764 -1.52278 0
M  V30 6656 O 639.829 1.81156 -2.02224 0
M  V30 6657 C 638.285 -0.246341 -3.59056 0
M  V30 6658 C 637.893 -1.64299 -4.16785 0
M  V30 6659 C 639.637 0.184597 -4.24098 0
M  V30 6660 C 637.544 -1.67695 -5.67126 0
M  V30 6661 H 636.474 -0.0583769 -0.751737 0
M  V30 6662 H 639.125 -0.817111 -1.64303 0
M  V30 6663 H 637.507 0.472092 -3.93176 0
M  V30 6664 H 638.681 -2.3869 -3.94162 0
M  V30 6665 H 636.996 -2.02004 -3.6412 0
M  V30 6666 H 639.593 0.179088 -5.344 0
M  V30 6667 H 639.936 1.21632 -3.98135 0
M  V30 6668 H 640.469 -0.482141 -3.94867 0
M  V30 6669 H 637.208 -2.68783 -5.9786 0
M  V30 6670 H 636.728 -0.976313 -5.91801 0
M  V30 6671 H 638.407 -1.42142 -6.31193 0
M  V30 6672 N 638.539 1.52521 -0.396863 0
M  V30 6673 C 639.788 2.00857 0.184184 0
M  V30 6674 C 640.101 1.28733 1.47265 0
M  V30 6675 O 641.307 1.67821 2.13421 0
M  V30 6676 C 639.763 3.57901 0.378787 0
M  V30 6677 C 639.371 4.38931 -0.896873 0
M  V30 6678 C 641.115 4.14504 0.915789 0
M  V30 6679 C 639.022 5.87591 -0.670133 0
M  V30 6680 H 637.952 0.750496 0.0726055 0
M  V30 6681 H 640.603 1.75965 -0.520425 0
M  V30 6682 H 638.985 3.79072 1.14543 0
M  V30 6683 H 640.159 4.29524 -1.66872 0
M  V30 6684 H 638.474 3.93586 -1.35938 0
M  V30 6685 H 641.071 5.23236 1.10126 0
M  V30 6686 H 641.414 3.71076 1.88701 0
M  V30 6687 H 641.947 3.97253 0.208523 0
M  V30 6688 H 638.686 6.35355 -1.61257 0
M  V30 6689 H 638.206 5.99767 0.0626368 0
M  V30 6690 H 639.885 6.46268 -0.307577 0
M  V30 6691 N 640.017 0.126909 1.57088 0
M  V30 6692 C 640.964 -0.82036 2.15728 0
M  V30 6693 C 641.934 -1.25811 1.08447 0
M  V30 6694 O 643.119 -1.33422 1.36393 0
M  V30 6695 C 640.259 -2.06199 2.76724 0
M  V30 6696 C 639.372 -1.67188 3.98337 0
M  V30 6697 C 638.507 -2.86378 4.47393 0
M  V30 6698 C 637.546 -2.43644 5.61519 0
M  V30 6699 N 636.683 -3.55775 6.05284 0
M  V30 6700 H 641.523 -0.313472 2.96347 0
M  V30 6701 H 639.06 -0.14303 1.46403 0
M  V30 6702 H 641.018 -2.78959 3.10222 0
M  V30 6703 H 639.648 -2.54333 1.98782 0
M  V30 6704 H 638.7 -0.842714 3.70948 0
M  V30 6705 H 640.012 -1.31789 4.81075 0
M  V30 6706 H 639.166 -3.67353 4.82842 0
M  V30 6707 H 637.905 -3.25009 3.63621 0
M  V30 6708 H 636.91 -1.61104 5.25667 0
M  V30 6709 H 638.135 -2.06122 6.47063 0
M  V30 6710 H 636.081 -3.94065 5.24451 0
M  V30 6711 H 635.998 -3.24325 6.82898 0
M  V30 6712 H 637.266 -4.37166 6.45373 0
M  V30 6713 N 641.495 -1.56914 -0.146875 0
M  V30 6714 C 642.725 -1.87243 -0.873126 0
M  V30 6715 C 643.133 -0.713127 -1.75246 0
M  V30 6716 O 642.476 0.326228 -1.8078 0
M  V30 6717 C 642.538 -3.12279 -1.78107 0
M  V30 6718 C 642.202 -4.44082 -1.07889 0
M  V30 6719 C 643.199 -5.18096 -0.432734 0
M  V30 6720 C 640.884 -4.90807 -1.06836 0
M  V30 6721 C 642.878 -6.37039 0.214569 0
M  V30 6722 C 640.565 -6.09674 -0.417243 0
M  V30 6723 C 641.563 -6.82636 0.223093 0
M  V30 6724 O 641.251 -7.99245 0.863884 0
M  V30 6725 H 640.983 -0.624896 -0.257839 0
M  V30 6726 H 643.537 -2.04892 -0.14434 0
M  V30 6727 H 641.767 -2.90639 -2.5508 0
M  V30 6728 H 643.456 -3.28854 -2.37929 0
M  V30 6729 H 644.222 -4.83066 -0.432677 0
M  V30 6730 H 640.101 -4.3394 -1.55618 0
M  V30 6731 H 643.645 -6.93927 0.714965 0
M  V30 6732 H 639.542 -6.44165 -0.414967 0
M  V30 6733 H 640.31 -8.14912 0.765564 0
M  V30 6734 N 642.974 0.416227 -1.52004 0
M  V30 6735 C 643.937 1.48926 -1.74223 0
M  V30 6736 C 644.937 1.48693 -0.612119 0
M  V30 6737 O 646.127 1.50343 -0.879921 0
M  V30 6738 C 643.259 2.88372 -1.81809 0
M  V30 6739 H 644.452 1.3052 -2.70008 0
M  V30 6740 H 642.005 0.646271 -1.42313 0
M  V30 6741 H 642.74 3.12157 -0.879135 0
M  V30 6742 H 642.525 2.89944 -2.6396 0
M  V30 6743 H 644.015 3.66173 -2.00766 0
M  V30 6744 N 644.452 1.42507 0.673017 0
M  V30 6745 C 645.384 1.42074 1.79854 0
M  V30 6746 C 646.397 0.319569 1.59633 0
M  V30 6747 O 647.586 0.582769 1.68719 0
M  V30 6748 C 644.686 1.19886 3.16987 0
M  V30 6749 C 643.859 2.42471 3.64042 0
M  V30 6750 C 642.918 2.15802 4.79913 0
M  V30 6751 O 641.944 2.89015 4.90366 0
M  V30 6752 N 643.146 1.16225 5.68746 0
M  V30 6753 H 645.911 2.3909 1.8071 0
M  V30 6754 H 643.472 1.37409 0.856171 0
M  V30 6755 H 645.464 0.999591 3.92161 0
M  V30 6756 H 644.034 0.313879 3.1102 0
M  V30 6757 H 643.254 2.77954 2.79526 0
M  V30 6758 H 644.542 3.24097 3.92223 0
M  V30 6759 H 643.94 0.556756 5.62954 0
M  V30 6760 H 642.497 1.02285 6.43724 0
M  V30 6761 N 645.93 -0.909495 1.28709 0
M  V30 6762 C 646.893 -1.99399 1.13016 0
M  V30 6763 C 647.893 -1.60654 0.068536 0
M  V30 6764 O 649.083 -1.71334 0.314671 0
M  V30 6765 C 646.215 -3.33078 0.726085 0
M  V30 6766 H 647.408 -2.14751 2.09338 0
M  V30 6767 H 644.961 -1.09272 1.11756 0
M  V30 6768 H 645.696 -3.23428 -0.23771 0
M  V30 6769 H 645.481 -3.62562 1.49302 0
M  V30 6770 H 646.971 -4.12681 0.639058 0
M  V30 6771 N 647.408 -1.11026 -1.11852 0
M  V30 6772 C 648.824 -0.843294 -1.35502 0
M  V30 6773 C 649.024 0.534179 -1.9429 0
M  V30 6774 O 648.08 1.28585 -2.17307 0
M  V30 6775 C 649.393 -1.94793 -2.29077 0
M  V30 6776 C 650.941 -1.97709 -2.42652 0
M  V30 6777 C 651.416 -3.07364 -3.39546 0
M  V30 6778 N 652.907 -3.0671 -3.47107 0
M  V30 6779 C 653.642 -3.88197 -4.22008 0
M  V30 6780 N 653.138 -4.79635 -4.99922 0
M  V30 6781 N 654.931 -3.76391 -4.17476 0
M  V30 6782 H 647.082 -1.99805 -0.720538 0
M  V30 6783 H 649.345 -0.868633 -0.379711 0
M  V30 6784 H 649.051 -2.93971 -1.93065 0
M  V30 6785 H 648.925 -1.84039 -3.29256 0
M  V30 6786 H 651.312 -0.991604 -2.77941 0
M  V30 6787 H 651.393 -2.1254 -1.4234 0
M  V30 6788 H 651.037 -4.06136 -3.04985 0
M  V30 6789 H 650.967 -2.89774 -4.39703 0
M  V30 6790 H 653.458 -2.40457 -2.91528 0
M  V30 6791 H 653.771 -5.38357 -5.54429 0
M  V30 6792 H 652.116 -4.8366 -4.99097 0
M  V30 6793 H 655.307 -3.04303 -3.55693 0
M  V30 6794 H 655.48 -4.40131 -4.75593 0
M  V30 6795 N 648.886 1.2938 -0.899927 0
M  V30 6796 C 649.818 2.26737 -0.335139 0
M  V30 6797 C 650.831 1.54316 0.518681 0
M  V30 6798 O 652.02 1.75313 0.335803 0
M  V30 6799 C 649.12 3.34558 0.540774 0
M  V30 6800 C 648.293 4.36455 -0.287372 0
M  V30 6801 C 647.352 5.2361 0.52141 0
M  V30 6802 O 646.378 5.69167 -0.0611735 0
M  V30 6803 N 647.58 5.50985 1.82745 0
M  V30 6804 H 650.345 2.75838 -1.17191 0
M  V30 6805 H 647.906 1.42716 -0.764438 0
M  V30 6806 H 649.898 3.89794 1.08825 0
M  V30 6807 H 648.468 2.85272 1.27823 0
M  V30 6808 H 647.688 3.80875 -1.01626 0
M  V30 6809 H 648.976 5.01573 -0.854518 0
M  V30 6810 H 648.374 5.15781 2.32349 0
M  V30 6811 H 646.931 6.09036 2.32204 0
M  V30 6812 N 650.364 0.662433 1.43002 0
M  V30 6813 C 651.613 0.176873 2.00923 0
M  V30 6814 C 651.926 -1.21954 1.52927 0
M  V30 6815 O 653.132 -1.80081 2.03182 0
M  V30 6816 C 651.588 0.265379 3.5892 0
M  V30 6817 C 651.196 1.66507 4.15908 0
M  V30 6818 C 652.94 -0.162103 4.2419 0
M  V30 6819 C 650.847 1.707 5.66229 0
M  V30 6820 H 649.777 0.0623627 0.751417 0
M  V30 6821 H 652.428 0.825813 1.63868 0
M  V30 6822 H 650.81 -0.451235 3.93421 0
M  V30 6823 H 651.984 2.40777 3.92891 0
M  V30 6824 H 650.299 2.03932 3.63044 0
M  V30 6825 H 652.896 -0.150745 5.34487 0
M  V30 6826 H 653.239 -1.19519 3.98774 0
M  V30 6827 H 653.772 0.503075 3.94606 0
M  V30 6828 H 650.511 2.7195 5.96426 0
M  V30 6829 H 650.031 1.00768 5.91275 0
M  V30 6830 H 651.71 1.45487 6.3043 0
M  V30 6831 N 651.842 -1.52309 0.404946 0
M  V30 6832 C 652.752 -2.30634 -0.429555 0
M  V30 6833 C 653.768 -1.38187 -1.05737 0
M  V30 6834 O 654.944 -1.71261 -1.05979 0
M  V30 6835 C 652.009 -3.10947 -1.53339 0
M  V30 6836 C 651.07 -4.19126 -0.929065 0
M  V30 6837 C 650.303 -4.95601 -1.9803 0
M  V30 6838 O 650.526 -4.72331 -3.1978 0
M  V30 6839 O 649.46 -5.80551 -1.58886 0
M  V30 6840 H 653.286 -3.0298 0.208963 0
M  V30 6841 H 650.871 -1.4845 0.168255 0
M  V30 6842 H 652.753 -3.60974 -2.1743 0
M  V30 6843 H 651.428 -2.41399 -2.15658 0
M  V30 6844 H 650.335 -3.73257 -0.250982 0
M  V30 6845 H 651.668 -4.90955 -0.349855 0
M  V30 6846 N 653.32 -0.135238 -1.57019 0
M  V30 6847 C 654.566 0.519563 -1.96032 0
M  V30 6848 C 654.899 1.65284 -1.01955 0
M  V30 6849 O 654.174 1.94408 -0.059727 0
M  V30 6850 C 654.457 1.0369 -3.44848 0
M  V30 6851 C 654.31 -0.0940754 -4.49702 0
M  V30 6852 C 655.629 1.92254 -3.95887 0
M  V30 6853 H 652.748 0.18739 -0.712779 0
M  V30 6854 H 655.39 -0.214086 -1.8879 0
M  V30 6855 H 653.54 1.66209 -3.5115 0
M  V30 6856 H 655.212 -0.73 -4.55487 0
M  V30 6857 H 653.455 -0.754924 -4.27181 0
M  V30 6858 H 654.126 0.309419 -5.51132 0
M  V30 6859 H 656.602 1.39581 -3.9199 0
M  V30 6860 H 655.478 2.25364 -5.00502 0
M  V30 6861 H 655.739 2.85513 -3.37543 0
M  V30 6862 N 654.798 1.5699 0.138552 0
M  V30 6863 C 656.047 1.82998 0.848205 0
M  V30 6864 C 656.36 0.717829 1.81952 0
M  V30 6865 O 657.566 0.863756 2.57394 0
M  V30 6866 C 656.022 3.24379 1.55904 0
M  V30 6867 C 655.63 4.43552 0.62971 0
M  V30 6868 C 657.374 3.59654 2.25498 0
M  V30 6869 C 655.281 5.75957 1.34266 0
M  V30 6870 H 654.211 0.682495 0.320495 0
M  V30 6871 H 656.862 1.83222 0.100924 0
M  V30 6872 H 655.244 3.18567 2.35226 0
M  V30 6873 H 656.418 4.6062 -0.128882 0
M  V30 6874 H 654.733 4.16379 0.0417526 0
M  V30 6875 H 657.33 4.55837 2.79493 0
M  V30 6876 H 657.673 2.86124 3.02388 0
M  V30 6877 H 658.206 3.67164 1.53087 0
M  V30 6878 H 654.945 6.52604 0.615441 0
M  V30 6879 H 654.465 5.62811 2.07375 0
M  V30 6880 H 656.144 6.19046 1.88126 0
M  V30 6881 N 656.276 -0.40816 1.52223 0
M  V30 6882 C 657.687 -0.986929 1.58482 0
M  V30 6883 C 658.038 -1.91521 0.425917 0
M  V30 6884 O 657.163 -2.11593 -0.453593 0
M  V30 6885 C 657.758 -1.7967 2.87235 0
M  V30 6886 C 656.317 -2.32549 2.9597 0
M  V30 6887 C 655.464 -1.12558 2.53428 0
M  V30 6888 H 658.415 -0.188362 1.57578 0
M  V30 6889 H 658.436 -2.65417 2.72642 0
M  V30 6890 H 657.948 -1.12082 3.71563 0
M  V30 6891 H 656.049 -3.03505 2.16137 0
M  V30 6892 H 656.162 -2.63348 4.00231 0
M  V30 6893 H 654.526 -1.47984 2.07299 0
M  V30 6894 H 655.309 -0.465351 3.40131 0
M  V30 6895 N 657.755 -1.42862 -0.66545 0
M  V30 6896 C 658.665 -1.49491 -1.80803 0
M  V30 6897 C 659.681 -0.382914 -1.69734 0
M  V30 6898 O 660.857 -0.635223 -1.9112 0
M  V30 6899 C 657.922 -1.40383 -3.17007 0
M  V30 6900 C 656.983 -2.62152 -3.39963 0
M  V30 6901 C 656.216 -2.53469 -4.69669 0
M  V30 6902 O 656.439 -1.57568 -5.48205 0
M  V30 6903 O 655.373 -3.43763 -4.94075 0
M  V30 6904 H 659.199 -2.45949 -1.78165 0
M  V30 6905 H 656.784 -1.24728 -0.822387 0
M  V30 6906 H 658.666 -1.377 -3.98267 0
M  V30 6907 H 657.341 -0.470546 -3.20262 0
M  V30 6908 H 656.248 -2.70409 -2.58515 0
M  V30 6909 H 657.581 -3.54411 -3.41546 0
M  V30 6910 N 659.233 0.902656 -1.29189 0
M  V30 6911 C 660.482 1.6475 -1.16362 0
M  V30 6912 C 660.795 1.93517 0.284682 0
M  V30 6913 O 662.001 2.66192 0.534229 0
M  V30 6914 C 660.457 2.96848 -2.03493 0
M  V30 6915 C 660.065 2.75687 -3.5313 0
M  V30 6916 C 661.809 3.74762 -1.99383 0
M  V30 6917 C 659.716 4.03492 -4.32375 0
M  V30 6918 H 658.646 0.618041 -0.431904 0
M  V30 6919 H 661.297 1.0008 -1.53806 0
M  V30 6920 H 659.679 3.62715 -1.58916 0
M  V30 6921 H 660.853 2.18431 -4.05739 0
M  V30 6922 H 659.168 2.11171 -3.58881 0
M  V30 6923 H 661.765 4.69515 -2.5585 0
M  V30 6924 H 662.108 4.04767 -0.973123 0
M  V30 6925 H 662.641 3.15732 -2.41988 0
M  V30 6926 H 659.38 3.78656 -5.3507 0
M  V30 6927 H 658.9 4.60318 -3.84535 0
M  V30 6928 H 660.579 4.71662 -4.42881 0
M  V30 6929 N 660.711 1.11618 1.11262 0
M  V30 6930 C 661.988 0.777876 1.79467 0
M  V30 6931 C 662.368 -0.733774 1.97937 0
M  V30 6932 O 661.716 -1.66443 1.56554 0
M  V30 6933 C 661.926 1.5431 3.13032 0
M  V30 6934 C 663.274 1.72357 3.88044 0
M  V30 6935 O 664.298 1.5075 3.22727 0
M  V30 6936 O 663.157 2.08276 5.05256 0
M  V30 6937 H 660.251 0.282018 0.777428 0
M  V30 6938 H 662.797 1.21971 1.17988 0
M  V30 6939 H 661.569 2.57132 2.94956 0
M  V30 6940 H 661.192 1.09495 3.82226 0
M  V30 6941 N 662.189 -1.289 0.906776 0
M  V30 6942 C 663.122 -2.25737 0.334362 0
M  V30 6943 C 664.1 -1.52745 -0.557474 0
M  V30 6944 O 665.284 -1.81673 -0.502697 0
M  V30 6945 C 662.411 -3.34642 -0.522716 0
M  V30 6946 C 661.457 -4.25424 0.302777 0
M  V30 6947 S 662.29 -5.07629 1.70508 0
M  V30 6948 C 663.446 -6.20031 0.855118 0
M  V30 6949 H 663.679 -2.73941 1.15514 0
M  V30 6950 H 661.212 -1.37233 0.707573 0
M  V30 6951 H 663.17 -3.97845 -1.01141 0
M  V30 6952 H 661.831 -2.85119 -1.31781 0
M  V30 6953 H 661.024 -5.02767 -0.352257 0
M  V30 6954 H 660.626 -3.66908 0.724873 0
M  V30 6955 H 662.918 -6.77451 0.0816418 0
M  V30 6956 H 663.861 -6.89767 1.60087 0
M  V30 6957 H 664.269 -5.63035 0.406375 0
M  V30 6958 N 663.667 -0.670007 -1.42649 0
M  V30 6959 C 665.078 -0.268118 -1.84765 0
M  V30 6960 C 665.429 1.18877 -1.56086 0
M  V30 6961 O 664.554 1.90947 -1.01825 0
M  V30 6962 C 665.149 -0.47984 -3.35385 0
M  V30 6963 C 663.708 -0.132116 -3.76168 0
M  V30 6964 C 662.855 -0.774611 -2.66261 0
M  V30 6965 H 665.806 -0.872509 -1.32563 0
M  V30 6966 H 665.827 0.269522 -3.79544 0
M  V30 6967 H 665.339 -1.54026 -3.56227 0
M  V30 6968 H 663.44 0.92505 -3.60934 0
M  V30 6969 H 663.553 -0.569294 -4.75706 0
M  V30 6970 H 661.917 -0.206353 -2.53863 0
M  V30 6971 H 662.7 -1.83839 -2.89928 0
M  V30 6972 N 665.145 1.52092 -0.413018 0
M  V30 6973 C 666.108 2.25706 0.398687 0
M  V30 6974 C 667.108 1.28221 0.970368 0
M  V30 6975 O 668.298 1.52131 0.848635 0
M  V30 6976 C 665.43 3.03029 1.5616 0
M  V30 6977 H 666.623 2.98888 -0.246131 0
M  V30 6978 H 664.176 1.5542 -0.165622 0
M  V30 6979 H 664.911 2.34205 2.24317 0
M  V30 6980 H 664.696 3.74606 1.15812 0
M  V30 6981 H 666.186 3.58857 2.13569 0
M  V30 6982 N 666.623 0.143563 1.56945 0
M  V30 6983 C 667.573 -0.809115 2.1316 0
M  V30 6984 C 668.557 -1.21176 1.05855 0
M  V30 6985 O 669.749 -1.17875 1.3204 0
M  V30 6986 C 666.878 -2.04957 2.75405 0
M  V30 6987 C 665.964 -1.67018 3.89828 0
M  V30 6988 N 666.355 -0.998822 4.9584 0
M  V30 6989 C 664.653 -1.96313 4.00471 0
M  V30 6990 C 665.354 -0.816217 5.75945 0
M  V30 6991 N 664.33 -1.349 5.26596 0
M  V30 6992 H 668.132 -0.286919 2.92496 0
M  V30 6993 H 665.646 -0.0580948 1.62296 0
M  V30 6994 H 667.643 -2.74201 3.14037 0
M  V30 6995 H 666.303 -2.57697 1.97541 0
M  V30 6996 H 667.314 -0.659975 5.13678 0
M  V30 6997 H 663.991 -2.50927 3.33679 0
M  V30 6998 H 665.381 -0.287353 6.71285 0
M  V30 6999 N 668.101 -1.57061 -0.130224 0
M  V30 7000 C 669.064 -1.98593 -1.14426 0
M  V30 7001 C 670.064 -0.874584 -1.34936 0
M  V30 7002 O 671.254 -1.14086 -1.31643 0
M  V30 7003 C 668.386 -2.31639 -2.50112 0
M  V30 7004 H 669.579 -2.89374 -0.787561 0
M  V30 7005 H 667.132 -1.51756 -0.374146 0
M  V30 7006 H 667.867 -1.43703 -2.90723 0
M  V30 7007 H 667.652 -3.12684 -2.36583 0
M  V30 7008 H 669.142 -2.64551 -3.23114 0
M  V30 7009 N 669.579 0.400081 -1.52437 0
M  V30 7010 C 670.995 0.739359 -1.41441 0
M  V30 7011 C 671.195 1.94512 -0.526053 0
M  V30 7012 O 670.251 2.525 0.00472502 0
M  V30 7013 C 671.564 0.984824 -2.84116 0
M  V30 7014 C 673.112 1.08698 -2.93519 0
M  V30 7015 C 673.587 1.36515 -4.37181 0
M  V30 7016 N 675.078 1.43361 -4.40457 0
M  V30 7017 C 675.813 1.66528 -5.48686 0
M  V30 7018 N 675.309 1.87239 -6.67018 0
M  V30 7019 N 677.102 1.68617 -5.36213 0
M  V30 7020 H 669.253 -0.393484 -2.08723 0
M  V30 7021 H 671.516 -0.1138 -0.941145 0
M  V30 7022 H 671.222 0.171096 -3.51284 0
M  V30 7023 H 671.096 1.90253 -3.25705 0
M  V30 7024 H 673.483 1.89129 -2.26526 0
M  V30 7025 H 673.564 0.147432 -2.55375 0
M  V30 7026 H 673.208 0.565982 -5.04737 0
M  V30 7027 H 673.138 2.31737 -4.7287 0
M  V30 7028 H 675.629 1.29108 -3.55161 0
M  V30 7029 H 675.942 2.04392 -7.45281 0
M  V30 7030 H 674.287 1.84486 -6.70067 0
M  V30 7031 H 677.478 1.5198 -4.42741 0
M  V30 7032 H 677.651 1.86332 -6.20632 0
M  V30 7033 N 671.057 1.43213 0.657864 0
M  V30 7034 C 672.02 1.47687 1.75275 0
M  V30 7035 C 673.02 0.362179 1.56668 0
M  V30 7036 O 674.21 0.623734 1.62651 0
M  V30 7037 C 671.342 1.32497 3.14098 0
M  V30 7038 H 672.535 2.4519 1.7269 0
M  V30 7039 H 670.088 1.2991 0.869087 0
M  V30 7040 H 670.823 0.359831 3.22298 0
M  V30 7041 H 670.608 2.13299 3.29008 0
M  V30 7042 H 672.098 1.38549 3.93946 0
M  V30 7043 N 672.536 -0.895792 1.29666 0
M  V30 7044 C 673.499 -1.98189 1.15124 0
M  V30 7045 C 674.499 -1.60572 0.0855717 0
M  V30 7046 O 675.689 -1.70991 0.332826 0
M  V30 7047 C 672.821 -3.32289 0.761372 0
M  V30 7048 H 674.014 -2.12518 2.11603 0
M  V30 7049 H 671.567 -1.0808 1.12908 0
M  V30 7050 H 672.302 -3.23662 -0.203393 0
M  V30 7051 H 672.087 -3.60958 1.53139 0
M  V30 7052 H 673.577 -4.1198 0.682792 0
M  V30 7053 N 674.014 -1.12206 -1.10668 0
M  V30 7054 C 675.26 -0.877172 -1.82848 0
M  V30 7055 C 675.593 0.595571 -1.84842 0
M  V30 7056 O 674.868 1.44013 -1.30731 0
M  V30 7057 C 675.151 -1.44957 -3.29635 0
M  V30 7058 C 675.004 -2.99051 -3.35989 0
M  V30 7059 C 676.323 -1.10714 -4.25946 0
M  V30 7060 H 673.442 -0.320103 -0.663854 0
M  V30 7061 H 676.084 -1.38827 -1.2972 0
M  V30 7062 H 674.234 -1.01488 -3.7501 0
M  V30 7063 H 675.906 -3.51182 -2.99113 0
M  V30 7064 H 674.149 -3.34705 -2.75962 0
M  V30 7065 H 674.82 -3.34194 -4.39339 0
M  V30 7066 H 677.296 -1.48254 -3.88793 0
M  V30 7067 H 676.172 -1.5343 -5.2702 0
M  V30 7068 H 676.433 -0.019 -4.42096 0
M  V30 7069 N 675.492 1.28418 -0.913599 0
M  V30 7070 C 676.738 1.9527 -0.547484 0
M  V30 7071 C 677.071 1.71745 0.906486 0
M  V30 7072 O 676.346 1.03834 1.64465 0
M  V30 7073 C 676.629 3.49748 -0.857205 0
M  V30 7074 C 676.482 3.82675 -2.3639 0
M  V30 7075 C 677.801 4.3868 -0.353258 0
M  V30 7076 H 674.92 0.709236 -0.200381 0
M  V30 7077 H 677.562 1.51789 -1.14281 0
M  V30 7078 H 675.712 3.86915 -0.350548 0
M  V30 7079 H 677.384 3.55378 -2.94116 0
M  V30 7080 H 675.627 3.29724 -2.81894 0
M  V30 7081 H 676.298 4.90547 -2.53115 0
M  V30 7082 H 678.774 4.08584 -0.787288 0
M  V30 7083 H 677.65 5.45621 -0.599049 0
M  V30 7084 H 677.911 4.35753 0.746413 0
M  V30 7085 N 676.97 0.677563 1.42291 0
M  V30 7086 C 678.195 0.207901 2.06355 0
M  V30 7087 C 678.62 -1.12723 1.50583 0
M  V30 7088 O 677.978 -1.70171 0.62543 0
M  V30 7089 C 678.026 0.156489 3.6026 0
M  V30 7090 O 677.13 -0.874162 4.03029 0
M  V30 7091 H 676.471 0.106056 0.655475 0
M  V30 7092 H 679.001 0.927354 1.82377 0
M  V30 7093 H 679.011 -0.0187258 4.07996 0
M  V30 7094 H 677.686 1.13101 4.00226 0
M  V30 7095 H 676.263 -0.669764 3.66836 0
M  V30 7096 N 678.448 -1.51871 0.421078 0
M  V30 7097 C 679.381 -2.23851 -0.443369 0
M  V30 7098 C 680.359 -1.25142 -1.03818 0
M  V30 7099 O 681.543 -1.5423 -1.08377 0
M  V30 7100 C 678.67 -2.97637 -1.61648 0
M  V30 7101 C 677.716 -4.10873 -1.14391 0
M  V30 7102 S 678.549 -5.35408 -0.0992403 0
M  V30 7103 C 679.705 -6.12726 -1.27739 0
M  V30 7104 H 679.938 -2.96826 0.167786 0
M  V30 7105 H 677.471 -1.53027 0.205461 0
M  V30 7106 H 679.429 -3.40751 -2.28909 0
M  V30 7107 H 678.09 -2.24282 -2.199 0
M  V30 7108 H 677.283 -4.61718 -2.02069 0
M  V30 7109 H 676.885 -3.69937 -0.549775 0
M  V30 7110 H 679.177 -6.40827 -2.19881 0
M  V30 7111 H 680.12 -7.03461 -0.809239 0
M  V30 7112 H 680.528 -5.43968 -1.5086 0
M  V30 7113 N 679.926 -0.151884 -1.56866 0
M  V30 7114 C 680.836 0.798876 -2.20579 0
M  V30 7115 C 681.852 1.268 -1.19154 0
M  V30 7116 O 683.028 1.32418 -1.51748 0
M  V30 7117 C 680.093 2.01861 -2.81874 0
M  V30 7118 C 679.154 1.59825 -3.9844 0
M  V30 7119 C 678.387 2.75984 -4.56802 0
M  V30 7120 O 678.61 3.92331 -4.14044 0
M  V30 7121 O 677.544 2.51175 -5.46987 0
M  V30 7122 H 681.37 0.2865 -3.02346 0
M  V30 7123 H 678.955 0.0753806 -1.4921 0
M  V30 7124 H 680.837 2.73235 -3.20813 0
M  V30 7125 H 679.512 2.52042 -2.03117 0
M  V30 7126 H 678.419 0.854601 -3.64208 0
M  V30 7127 H 679.752 1.14355 -4.78731 0
M  V30 7128 N 681.404 1.57128 0.121893 0
M  V30 7129 C 682.367 1.99197 1.13372 0
M  V30 7130 C 683.367 0.881728 1.3447 0
M  V30 7131 O 684.557 1.14783 1.31036 0
M  V30 7132 C 681.689 2.32963 2.4888 0
M  V30 7133 H 682.882 2.89788 0.772204 0
M  V30 7134 H 680.435 1.51952 0.366093 0
M  V30 7135 H 681.17 1.45243 2.89957 0
M  V30 7136 H 680.955 3.13934 2.34921 0
M  V30 7137 H 682.445 2.66261 3.21706 0
M  V30 7138 N 682.882 -0.391992 1.52647 0
M  V30 7139 C 684.298 -0.731848 1.41831 0
M  V30 7140 C 684.498 -1.9423 0.536361 0
M  V30 7141 O 683.554 -2.52499 0.00866571 0
M  V30 7142 C 684.867 -0.969743 2.84634 0
M  V30 7143 C 686.415 -1.0714 2.94092 0
M  V30 7144 C 686.89 -1.34195 4.37899 0
M  V30 7145 N 688.381 -1.41023 4.41211 0
M  V30 7146 C 689.116 -1.63616 5.49561 0
M  V30 7147 N 688.612 -1.83699 6.68002 0
M  V30 7148 N 690.405 -1.65771 5.371 0
M  V30 7149 H 682.556 0.404547 2.08512 0
M  V30 7150 H 684.819 0.11879 0.940528 0
M  V30 7151 H 684.525 -0.152465 3.51369 0
M  V30 7152 H 684.399 -1.88523 3.26709 0
M  V30 7153 H 686.786 -1.87925 2.27526 0
M  V30 7154 H 686.867 -0.133887 2.55449 0
M  V30 7155 H 686.511 -0.539207 5.0503 0
M  V30 7156 H 686.441 -2.29226 4.74092 0
M  V30 7157 H 688.932 -1.27223 3.55841 0
M  V30 7158 H 689.245 -2.00437 7.46354 0
M  V30 7159 H 687.59 -1.8093 6.71036 0
M  V30 7160 H 690.781 -1.4963 4.43541 0
M  V30 7161 H 690.954 -1.83038 6.21612 0
M  V30 7162 N 684.36 -1.4356 -0.65026 0
M  V30 7163 C 685.59 -1.48563 -1.4357 0
M  V30 7164 C 685.998 -0.103041 -1.88919 0
M  V30 7165 O 685.341 0.897602 -1.60277 0
M  V30 7166 C 685.403 -2.37181 -2.70158 0
M  V30 7167 C 685.067 -3.84673 -2.4673 0
M  V30 7168 C 686.064 -4.75704 -2.09765 0
M  V30 7169 C 683.749 -4.29189 -2.60963 0
M  V30 7170 C 685.743 -6.09249 -1.87334 0
M  V30 7171 C 683.43 -5.62787 -2.38147 0
M  V30 7172 C 684.428 -6.52634 -2.01389 0
M  V30 7173 O 684.116 -7.83761 -1.78813 0
M  V30 7174 H 683.848 -0.506743 -0.447423 0
M  V30 7175 H 686.402 -1.89001 -0.80423 0
M  V30 7176 H 684.632 -1.91636 -3.35876 0
M  V30 7177 H 686.321 -2.33354 -3.32116 0
M  V30 7178 H 687.087 -4.42589 -1.98343 0
M  V30 7179 H 682.966 -3.59529 -2.88548 0
M  V30 7180 H 686.51 -6.7934 -1.58567 0
M  V30 7181 H 682.407 -5.95469 -2.49173 0
M  V30 7182 H 683.175 -7.95368 -1.93214 0
M  V30 7183 N 685.838 0.888903 -1.30139 0
M  V30 7184 C 686.785 1.99422 -1.16188 0
M  V30 7185 C 687.755 1.66017 -0.0523869 0
M  V30 7186 O 688.94 1.89506 -0.221864 0
M  V30 7187 C 686.08 3.34325 -0.855612 0
M  V30 7188 C 685.193 3.80445 -2.0466 0
M  V30 7189 C 684.328 5.03975 -1.67876 0
M  V30 7190 C 683.367 5.42492 -2.83493 0
M  V30 7191 N 682.504 6.57206 -2.47032 0
M  V30 7192 H 687.344 2.10687 -2.10749 0
M  V30 7193 H 684.881 1.03165 -1.04859 0
M  V30 7194 H 686.839 4.11968 -0.658681 0
M  V30 7195 H 685.469 3.22756 0.0531155 0
M  V30 7196 H 684.521 2.98745 -2.3549 0
M  V30 7197 H 685.833 4.04933 -2.91257 0
M  V30 7198 H 684.987 5.89232 -1.44535 0
M  V30 7199 H 683.726 4.8135 -0.784431 0
M  V30 7200 H 682.731 4.55764 -3.07505 0
M  V30 7201 H 683.956 5.67093 -3.73607 0
M  V30 7202 H 681.902 6.36164 -1.601 0
M  V30 7203 H 681.819 6.81543 -3.27161 0
M  V30 7204 H 683.087 7.45704 -2.27038 0
M  V30 7205 N 687.317 1.12792 1.10072 0
M  V30 7206 C 688.264 0.79921 2.16521 0
M  V30 7207 C 689.234 -0.235726 1.64419 0
M  V30 7208 O 690.419 -0.109457 1.90486 0
M  V30 7209 C 687.559 0.264091 3.44088 0
M  V30 7210 C 686.672 1.35729 4.10124 0
M  V30 7211 C 685.807 0.781212 5.25424 0
M  V30 7212 C 684.846 1.85327 5.8337 0
M  V30 7213 N 683.983 1.29564 6.90042 0
M  V30 7214 H 688.823 1.71105 2.43981 0
M  V30 7215 H 686.36 0.854225 1.19756 0
M  V30 7216 H 688.318 -0.0642423 4.17151 0
M  V30 7217 H 686.948 -0.610901 3.16967 0
M  V30 7218 H 686 1.80234 3.34993 0
M  V30 7219 H 687.312 2.16782 4.4923 0
M  V30 7220 H 686.466 0.403769 6.05355 0
M  V30 7221 H 685.205 -0.0604686 4.87663 0
M  V30 7222 H 684.21 2.23986 5.02106 0
M  V30 7223 H 685.435 2.69824 6.23195 0
M  V30 7224 H 683.381 0.475844 6.54272 0
M  V30 7225 H 683.298 2.04271 7.2788 0
M  V30 7226 H 684.566 0.945545 7.73744 0
M  V30 7227 N 688.795 -1.27931 0.920396 0
M  V30 7228 C 689.725 -2.29487 0.431024 0
M  V30 7229 C 690.706 -1.62435 -0.504861 0
M  V30 7230 O 691.891 -1.89797 -0.411176 0
M  V30 7231 C 689.021 -3.45788 -0.323709 0
M  V30 7232 C 687.975 -4.24784 0.523658 0
M  V30 7233 C 687.301 -5.33488 -0.359809 0
M  V30 7234 C 688.601 -4.90874 1.78437 0
M  V30 7235 H 690.295 -2.70671 1.27975 0
M  V30 7236 H 687.841 -1.30121 0.616813 0
M  V30 7237 H 689.794 -4.15927 -0.676952 0
M  V30 7238 H 688.518 -3.03502 -1.2064 0
M  V30 7239 H 687.177 -3.56382 0.85951 0
M  V30 7240 H 686.825 -4.87445 -1.24124 0
M  V30 7241 H 686.525 -5.87247 0.203605 0
M  V30 7242 H 688.049 -6.06472 -0.708787 0
M  V30 7243 H 689.463 -5.53339 1.49963 0
M  V30 7244 H 687.86 -5.54659 2.29071 0
M  V30 7245 H 688.93 -4.14988 2.50824 0
M  V30 7246 N 690.273 -0.685099 -1.4193 0
M  V30 7247 C 691.223 0.00977295 -2.27998 0
M  V30 7248 C 692.207 0.763315 -1.41641 0
M  V30 7249 O 693.399 0.640532 -1.65004 0
M  V30 7250 C 690.528 0.952972 -3.29808 0
M  V30 7251 C 689.614 0.196231 -4.23646 0
M  V30 7252 N 690.005 -0.804401 -4.99363 0
M  V30 7253 C 688.303 0.433213 -4.43891 0
M  V30 7254 C 689.004 -1.25646 -5.67968 0
M  V30 7255 N 687.98 -0.5844 -5.4045 0
M  V30 7256 H 691.782 -0.757586 -2.83968 0
M  V30 7257 H 689.296 -0.515037 -1.54017 0
M  V30 7258 H 691.293 1.46585 -3.9028 0
M  V30 7259 H 689.953 1.72004 -2.75399 0
M  V30 7260 H 690.964 -1.18429 -5.04177 0
M  V30 7261 H 687.641 1.17899 -4.00507 0
M  V30 7262 H 689.031 -2.08622 -6.38691 0
M  V30 7263 N 691.751 1.51645 -0.429126 0
M  V30 7264 C 692.714 2.26116 0.374726 0
M  V30 7265 C 693.714 1.29242 0.956714 0
M  V30 7266 O 694.904 1.53022 0.832452 0
M  V30 7267 C 692.036 3.04669 1.52937 0
M  V30 7268 H 693.229 2.9861 -0.277818 0
M  V30 7269 H 690.782 1.55236 -0.182097 0
M  V30 7270 H 691.517 2.36571 2.21821 0
M  V30 7271 H 691.302 3.75814 1.11833 0
M  V30 7272 H 692.792 3.61102 2.09751 0
M  V30 7273 N 693.229 0.160201 1.56784 0
M  V30 7274 C 694.192 -0.760405 2.16219 0
M  V30 7275 C 695.192 -1.16595 1.10735 0
M  V30 7276 O 696.382 -1.08472 1.36306 0
M  V30 7277 C 693.514 -2.03358 2.73603 0
M  V30 7278 H 694.707 -0.243173 2.98912 0
M  V30 7279 H 692.26 -0.0893139 1.56045 0
M  V30 7280 H 692.995 -2.59416 1.94612 0
M  V30 7281 H 692.78 -1.75186 3.50788 0
M  V30 7282 H 694.27 -2.69081 3.19351 0
M  V30 7283 N 694.707 -1.5719 -0.113559 0
M  V30 7284 C 695.955 -1.84772 -0.818761 0
M  V30 7285 C 696.276 -0.746196 -1.80158 0
M  V30 7286 O 695.546 0.229305 -1.94553 0
M  V30 7287 H 694.126 -0.681737 -0.305359 0
M  V30 7288 H 696.788 -1.94645 -0.0995845 0
M  V30 7289 H 695.884 -2.80878 -1.36067 0
M  V30 7290 N 696.185 0.383891 -1.52853 0
M  V30 7291 C 697.132 1.46924 -1.77995 0
M  V30 7292 C 698.102 1.53958 -0.623396 0
M  V30 7293 O 699.287 1.70134 -0.863657 0
M  V30 7294 C 696.427 2.84093 -1.95921 0
M  V30 7295 C 695.54 2.86171 -3.23621 0
M  V30 7296 C 694.675 4.14799 -3.31836 0
M  V30 7297 C 693.714 4.10948 -4.53639 0
M  V30 7298 N 692.851 5.31192 -4.59107 0
M  V30 7299 H 697.691 1.24786 -2.70615 0
M  V30 7300 H 695.228 0.605265 -1.34071 0
M  V30 7301 H 697.186 3.63755 -2.04299 0
M  V30 7302 H 695.816 3.04671 -1.06656 0
M  V30 7303 H 694.868 1.9885 -3.24288 0
M  V30 7304 H 696.18 2.79194 -4.13343 0
M  V30 7305 H 695.334 5.02867 -3.39425 0
M  V30 7306 H 694.073 4.24505 -2.40097 0
M  V30 7307 H 693.078 3.21268 -4.46169 0
M  V30 7308 H 694.303 4.0286 -5.467 0
M  V30 7309 H 692.249 5.41518 -3.70262 0
M  V30 7310 H 692.166 5.26311 -5.42708 0
M  V30 7311 H 693.434 6.21143 -4.70958 0
M  V30 7312 N 697.663 1.43903 0.642637 0
M  V30 7313 C 698.573 1.52349 1.78401 0
M  V30 7314 C 699.589 0.409869 1.69104 0
M  V30 7315 O 700.765 0.665548 1.90085 0
M  V30 7316 C 697.83 1.45408 3.14734 0
M  V30 7317 C 696.891 2.67528 3.35749 0
M  V30 7318 C 696.124 2.60909 4.65577 0
M  V30 7319 O 696.347 1.6627 5.45628 0
M  V30 7320 O 695.281 3.5158 4.88544 0
M  V30 7321 H 699.107 2.48752 1.7423 0
M  V30 7322 H 696.692 1.26021 0.802439 0
M  V30 7323 H 698.574 1.44019 3.96026 0
M  V30 7324 H 697.249 0.521437 3.19473 0
M  V30 7325 H 696.156 2.74487 2.5418 0
M  V30 7326 H 697.489 3.598 3.35864 0
M  V30 7327 N 699.141 -0.881989 1.30609 0
M  V30 7328 C 700.073 -1.99375 1.13058 0
M  V30 7329 C 701.086 -1.62636 0.0729879 0
M  V30 7330 O 702.275 -1.75621 0.319301 0
M  V30 7331 C 699.375 -3.31536 0.702651 0
M  V30 7332 C 698.548 -3.96693 1.84265 0
M  V30 7333 C 697.607 -5.07158 1.40277 0
M  V30 7334 O 696.633 -5.28628 2.11048 0
M  V30 7335 N 697.835 -5.79808 0.283449 0
M  V30 7336 H 700.6 -2.14981 2.08814 0
M  V30 7337 H 698.161 -1.05526 1.22784 0
M  V30 7338 H 700.153 -4.02804 0.391331 0
M  V30 7339 H 698.723 -3.12175 -0.162954 0
M  V30 7340 H 697.943 -3.1856 2.32192 0
M  V30 7341 H 699.231 -4.36964 2.60653 0
M  V30 7342 H 698.629 -5.64871 -0.306189 0
M  V30 7343 H 697.186 -6.51792 0.0315985 0
M  V30 7344 N 700.619 -1.13374 -1.09472 0
M  V30 7345 C 701.529 -0.824029 -2.19652 0
M  V30 7346 C 702.545 0.19118 -1.72947 0
M  V30 7347 O 703.721 0.0223464 -2.01388 0
M  V30 7348 C 700.786 -0.294009 -3.45451 0
M  V30 7349 C 699.847 -1.3704 -4.0684 0
M  V30 7350 C 699.08 -0.86558 -5.26634 0
M  V30 7351 O 699.303 0.29702 -5.69626 0
M  V30 7352 O 698.237 -1.63968 -5.79136 0
M  V30 7353 H 702.063 -1.74454 -2.48595 0
M  V30 7354 H 699.648 -0.911155 -1.18399 0
M  V30 7355 H 701.53 -0.00381039 -4.214 0
M  V30 7356 H 700.205 0.598921 -3.18111 0
M  V30 7357 H 699.112 -1.71391 -3.3253 0
M  V30 7358 H 700.445 -2.23746 -4.38405 0
M  V30 7359 N 702.098 1.27442 -0.927168 0
M  V30 7360 C 703.061 2.2512 -0.430525 0
M  V30 7361 C 704.061 1.54357 0.450619 0
M  V30 7362 O 705.251 1.72371 0.251774 0
M  V30 7363 C 702.383 3.38763 0.381144 0
M  V30 7364 H 703.576 2.70569 -1.29354 0
M  V30 7365 H 701.129 1.39355 -0.707806 0
M  V30 7366 H 701.864 2.98695 1.263 0
M  V30 7367 H 701.649 3.91298 -0.250618 0
M  V30 7368 H 703.139 4.11364 0.719012 0
M  V30 7369 N 703.576 0.692616 1.41565 0
M  V30 7370 C 704.524 0.0139952 2.32596 0
M  V30 7371 C 705.518 -0.771691 1.50802 0
M  V30 7372 O 706.724 -0.677646 1.66757 0
M  V30 7373 H 703.099 -0.0142745 0.751865 0
M  V30 7374 H 705.07 0.798851 2.87508 0
M  V30 7375 C 703.819 -0.910602 3.35564 0
M  V30 7376 H 703.142 -0.315446 3.98554 0
M  V30 7377 H 704.582 -1.3538 4.01806 0
M  V30 7378 C 703.041 -2.02539 2.6922 0
M  V30 7379 O 703.571 -3.11386 2.53775 0
M  V30 7380 N 701.777 -1.80227 2.27962 0
M  V30 7381 H 701.324 -0.917054 2.40724 0
M  V30 7382 H 701.282 -2.55001 1.83907 0
M  V30 7383 N 705.054 -1.51416 0.437162 0
M  V30 7384 C 705.964 -2.31493 -0.380537 0
M  V30 7385 C 706.98 -1.40399 -1.02782 0
M  V30 7386 O 708.156 -1.73471 -1.02323 0
M  V30 7387 C 705.221 -3.1413 -1.46709 0
M  V30 7388 C 704.282 -4.21003 -0.839953 0
M  V30 7389 C 703.515 -4.9969 -1.87473 0
M  V30 7390 O 703.738 -4.79008 -3.09689 0
M  V30 7391 O 702.672 -5.8379 -1.46536 0
M  V30 7392 H 706.498 -3.02469 0.273183 0
M  V30 7393 H 704.083 -1.48059 0.199706 0
M  V30 7394 H 705.965 -3.65505 -2.09724 0
M  V30 7395 H 704.64 -2.45919 -2.10489 0
M  V30 7396 H 703.547 -3.73706 -0.171752 0
M  V30 7397 H 704.88 -4.91587 -0.245638 0
M  V30 7398 N 706.532 -0.168513 -1.56696 0
M  V30 7399 C 707.779 0.477158 -1.96798 0
M  V30 7400 C 708.107 1.63442 -1.05437 0
M  V30 7401 O 707.362 1.95503 -0.0878903 0
M  V30 7402 C 707.661 1.00441 -3.42996 0
M  V30 7403 C 707.327 -0.0366556 -4.50885 0
M  V30 7404 C 705.989 -0.322785 -4.80116 0
M  V30 7405 C 708.341 -0.743447 -5.1587 0
M  V30 7406 C 705.669 -1.32114 -5.71632 0
M  V30 7407 C 708.021 -1.73077 -6.08463 0
M  V30 7408 C 706.685 -2.02437 -6.36062 0
M  V30 7409 H 705.955 0.174604 -0.720135 0
M  V30 7410 H 708.602 -0.259884 -1.89728 0
M  V30 7411 H 706.907 1.81922 -3.47004 0
M  V30 7412 H 708.604 1.51294 -3.71364 0
M  V30 7413 H 705.194 0.196532 -4.28149 0
M  V30 7414 H 709.378 -0.535602 -4.93401 0
M  V30 7415 H 704.634 -1.55482 -5.913 0
M  V30 7416 H 708.808 -2.28382 -6.57886 0
M  V30 7417 H 706.435 -2.79946 -7.06777 0
M  V30 7418 N 708.01 1.57248 0.105221 0
M  V30 7419 C 709.426 1.52853 0.459153 0
M  V30 7420 C 709.626 0.883674 1.8109 0
M  V30 7421 O 708.682 0.471864 2.48052 0
M  V30 7422 C 709.995 2.97596 0.43096 0
M  V30 7423 C 711.543 3.08758 0.513536 0
M  V30 7424 C 712.018 4.55089 0.515593 0
M  V30 7425 N 713.509 4.59597 0.576639 0
M  V30 7426 C 714.244 5.70253 0.599904 0
M  V30 7427 N 713.74 6.90368 0.579985 0
M  V30 7428 N 715.533 5.58399 0.643953 0
M  V30 7429 H 707.684 1.97547 -0.780306 0
M  V30 7430 H 709.947 0.902758 -0.289363 0
M  V30 7431 H 709.653 3.48201 -0.494903 0
M  V30 7432 H 709.527 3.55756 1.2537 0
M  V30 7433 H 711.914 2.58148 1.42982 0
M  V30 7434 H 711.995 2.53568 -0.337148 0
M  V30 7435 H 711.639 5.06348 -0.396701 0
M  V30 7436 H 711.569 5.08105 1.38335 0
M  V30 7437 H 714.06 3.73144 0.597639 0
M  V30 7438 H 714.373 7.70462 0.600741 0
M  V30 7439 H 712.718 6.92843 0.547191 0
M  V30 7440 H 715.909 4.63467 0.656975 0
M  V30 7441 H 716.082 6.44644 0.658616 0
M  V30 7442 N 709.488 -0.375779 1.53054 0
M  V30 7443 C 710.418 -1.46598 1.81745 0
M  V30 7444 C 711.399 -1.56337 0.670286 0
M  V30 7445 O 712.584 -1.71071 0.919158 0
M  V30 7446 C 709.714 -2.84058 1.99821 0
M  V30 7447 C 708.668 -2.8915 3.15557 0
M  V30 7448 C 707.994 -4.29187 3.18908 0
M  V30 7449 C 709.294 -2.57595 4.54359 0
M  V30 7450 H 710.988 -1.22837 2.73041 0
M  V30 7451 H 708.534 -0.589485 1.31381 0
M  V30 7452 H 710.487 -3.60342 2.18475 0
M  V30 7453 H 709.211 -3.09184 1.05226 0
M  V30 7454 H 707.87 -2.15316 2.96706 0
M  V30 7455 H 707.518 -4.51374 2.2197 0
M  V30 7456 H 707.218 -4.33512 3.96662 0
M  V30 7457 H 708.742 -5.07359 3.39734 0
M  V30 7458 H 710.156 -3.23595 4.73243 0
M  V30 7459 H 708.553 -2.73252 5.34279 0
M  V30 7460 H 709.623 -1.52882 4.60169 0
M  V30 7461 N 710.966 -1.44241 -0.634997 0
M  V30 7462 C 712.212 -1.47038 -1.39669 0
M  V30 7463 C 712.545 -0.101122 -1.93937 0
M  V30 7464 O 711.82 0.880699 -1.73418 0
M  V30 7465 C 712.103 -2.52763 -2.56482 0
M  V30 7466 C 711.956 -3.99032 -2.07589 0
M  V30 7467 C 713.275 -2.55031 -3.58674 0
M  V30 7468 H 710.394 -0.53537 -0.506506 0
M  V30 7469 H 713.036 -1.75898 -0.718317 0
M  V30 7470 H 711.186 -2.28284 -3.14354 0
M  V30 7471 H 712.858 -4.3463 -1.54577 0
M  V30 7472 H 711.101 -4.10994 -1.38804 0
M  V30 7473 H 711.772 -4.68649 -2.91671 0
M  V30 7474 H 714.248 -2.76893 -3.10595 0
M  V30 7475 H 713.124 -3.30916 -4.37934 0
M  V30 7476 H 713.385 -1.59085 -4.12486 0
M  V30 7477 N 712.444 0.87505 -1.31075 0
M  V30 7478 C 713.721 1.60976 -1.11113 0
M  V30 7479 C 714.101 2.08409 0.336006 0
M  V30 7480 O 713.449 1.85858 1.32924 0
M  V30 7481 C 713.659 2.77166 -2.12085 0
M  V30 7482 C 715.007 3.47254 -2.44335 0
M  V30 7483 O 716.031 2.87367 -2.10472 0
M  V30 7484 O 714.89 4.55276 -3.02301 0
M  V30 7485 H 711.984 0.707982 -0.427424 0
M  V30 7486 H 714.53 0.920957 -1.42536 0
M  V30 7487 H 713.302 2.39494 -3.09449 0
M  V30 7488 H 712.925 3.53737 -1.81538 0
M  V30 7489 N 713.922 1.13953 1.08869 0
M  V30 7490 C 715.333 0.916649 1.62648 0
M  V30 7491 C 715.684 -0.545589 1.88462 0
M  V30 7492 O 714.809 -1.41351 1.63856 0
M  V30 7493 C 715.404 1.65751 2.95486 0
M  V30 7494 C 713.963 1.48034 3.46068 0
M  V30 7495 C 713.11 1.68305 2.20383 0
M  V30 7496 H 716.061 1.292 0.921572 0
M  V30 7497 H 716.082 1.11794 3.63707 0
M  V30 7498 H 715.594 2.72171 2.76667 0
M  V30 7499 H 713.695 0.439416 3.7 0
M  V30 7500 H 713.808 2.24719 4.23129 0
M  V30 7501 H 712.172 1.10833 2.29321 0
M  V30 7502 H 712.955 2.76057 2.04077 0
M  V30 7503 N 715.4 -1.26948 0.933913 0
M  V30 7504 C 716.628 -1.98186 0.59414 0
M  V30 7505 C 717.043 -1.69614 -0.829257 0
M  V30 7506 O 716.4 -0.960213 -1.55197 0
M  V30 7507 C 716.451 -3.52123 0.818026 0
M  V30 7508 O 716.172 -3.79698 2.18543 0
M  V30 7509 C 717.673 -4.40608 0.48781 0
M  V30 7510 H 714.893 -0.632305 0.224569 0
M  V30 7511 H 717.437 -1.61646 1.25263 0
M  V30 7512 H 715.592 -3.86851 0.206246 0
M  V30 7513 H 716.006 -4.7426 2.24005 0
M  V30 7514 H 717.48 -5.47606 0.695126 0
M  V30 7515 H 717.957 -4.35394 -0.576913 0
M  V30 7516 H 718.563 -4.11411 1.078 0
M  V30 7517 N 716.879 -0.700114 -1.41195 0
M  V30 7518 C 718.156 -0.160836 -1.94938 0
M  V30 7519 C 718.536 1.33014 -1.63922 0
M  V30 7520 O 717.884 2.07878 -0.948636 0
M  V30 7521 C 718.094 -0.456991 -3.45995 0
M  V30 7522 C 719.442 -0.387207 -4.22831 0
M  V30 7523 O 720.466 -0.392164 -3.54035 0
M  V30 7524 O 719.325 -0.351267 -5.4537 0
M  V30 7525 H 716.419 -0.0176304 -0.826812 0
M  V30 7526 H 718.965 -0.776586 -1.50888 0
M  V30 7527 H 717.737 -1.48884 -3.61869 0
M  V30 7528 H 717.36 0.189503 -3.97148 0
M  V30 7529 N 718.357 1.51182 -0.445186 0
M  V30 7530 C 719.585 2.06568 0.117091 0
M  V30 7531 C 720 1.31182 1.35781 0
M  V30 7532 O 719.357 0.373605 1.78635 0
M  V30 7533 C 719.408 3.58917 0.431408 0
M  V30 7534 O 719.129 4.31456 -0.760078 0
M  V30 7535 C 720.63 4.30843 1.0435 0
M  V30 7536 H 717.85 0.670985 0.00444436 0
M  V30 7537 H 720.394 1.94666 -0.626525 0
M  V30 7538 H 718.549 3.70708 1.12493 0
M  V30 7539 H 718.963 5.22215 -0.489048 0
M  V30 7540 H 720.437 5.38499 1.21337 0
M  V30 7541 H 720.914 3.89644 2.02667 0
M  V30 7542 H 721.52 4.23516 0.38913 0
M  V30 7543 N 719.835 0.176821 1.56605 0
M  V30 7544 C 721.06 -0.47599 2.01864 0
M  V30 7545 C 721.485 -1.55645 1.05623 0
M  V30 7546 O 720.843 -1.81263 0.0366729 0
M  V30 7547 C 720.891 -1.02619 3.4569 0
M  V30 7548 O 719.995 -2.13996 3.52533 0
M  V30 7549 H 719.336 -0.113363 0.654251 0
M  V30 7550 H 721.866 0.28233 2.02643 0
M  V30 7551 H 721.876 -1.34742 3.85109 0
M  V30 7552 H 720.551 -0.235138 4.15235 0
M  V30 7553 H 719.128 -1.82876 3.24978 0
M  V30 7554 N 721.313 -1.57302 -0.09688 0
M  V30 7555 C 722.261 -2.02942 -1.13654 0
M  V30 7556 C 723.255 -0.930173 -1.41577 0
M  V30 7557 O 724.461 -1.11535 -1.41279 0
M  V30 7558 H 720.836 -0.646726 -0.383731 0
M  V30 7559 H 722.807 -2.89452 -0.725267 0
M  V30 7560 C 721.556 -2.46815 -2.44903 0
M  V30 7561 H 720.879 -3.30979 -2.24261 0
M  V30 7562 H 722.319 -2.82527 -3.16156 0
M  V30 7563 C 720.778 -1.34071 -3.09074 0
M  V30 7564 O 721.308 -0.668856 -3.96092 0
M  V30 7565 N 719.514 -1.09214 -2.69296 0
M  V30 7566 H 719.061 -1.64029 -1.98626 0
M  V30 7567 H 719.019 -0.339785 -3.12559 0
M  V30 7568 N 722.791 0.367657 -1.53252 0
M  V30 7569 C 724.019 1.13119 -1.73239 0
M  V30 7570 C 724.434 1.831 -0.460404 0
M  V30 7571 O 723.791 1.73483 0.566557 0
M  V30 7572 C 723.842 2.16308 -2.89643 0
M  V30 7573 O 723.563 1.49175 -4.1192 0
M  V30 7574 C 725.064 3.05224 -3.21486 0
M  V30 7575 H 722.284 0.338318 -0.579467 0
M  V30 7576 H 724.828 0.42721 -1.99988 0
M  V30 7577 H 722.983 2.82307 -2.65295 0
M  V30 7578 H 723.397 2.17912 -4.7709 0
M  V30 7579 H 724.871 3.73613 -4.06346 0
M  V30 7580 H 725.348 3.69919 -2.36763 0
M  V30 7581 H 725.954 2.44843 -3.47753 0
M  V30 7582 N 724.269 1.44576 0.627338 0
M  V30 7583 C 725.497 1.51048 1.41394 0
M  V30 7584 C 725.912 0.136568 1.88305 0
M  V30 7585 O 725.269 -0.858251 1.6106 0
M  V30 7586 C 725.32 2.47837 2.63172 0
M  V30 7587 O 725.041 3.79887 2.18215 0
M  V30 7588 C 726.542 2.63811 3.56257 0
M  V30 7589 H 723.762 0.512171 0.4335 0
M  V30 7590 H 726.306 1.89576 0.766878 0
M  V30 7591 H 724.461 2.12433 3.23961 0
M  V30 7592 H 724.875 4.32177 2.97192 0
M  V30 7593 H 726.349 3.35554 4.38301 0
M  V30 7594 H 726.826 1.69169 4.05313 0
M  V30 7595 H 727.432 3.0013 3.01333 0
M  V30 7596 N 725.747 -0.868086 1.31537 0
M  V30 7597 C 726.972 -1.65926 1.24432 0
M  V30 7598 C 727.397 -1.87169 -0.186936 0
M  V30 7599 O 726.755 -1.4148 -1.13371 0
M  V30 7600 C 726.803 -3.00347 1.9956 0
M  V30 7601 O 725.907 -3.90221 1.33422 0
M  V30 7602 H 725.248 -0.506375 0.429512 0
M  V30 7603 H 727.778 -1.0822 1.73637 0
M  V30 7604 H 727.788 -3.50269 2.09226 0
M  V30 7605 H 726.463 -2.84205 3.03645 0
M  V30 7606 H 725.04 -3.48672 1.32219 0
M  V30 7607 N 727.225 -1.14528 -1.08264 0
M  V30 7608 C 728.471 -0.91576 -1.80947 0
M  V30 7609 C 728.804 0.55623 -1.86064 0
M  V30 7610 O 728.079 1.41207 -1.33756 0
M  V30 7611 C 728.362 -1.51917 -3.26486 0
M  V30 7612 C 728.215 -3.06111 -3.2957 0
M  V30 7613 C 729.534 -1.19724 -4.23502 0
M  V30 7614 H 726.653 -0.334113 -0.656915 0
M  V30 7615 H 729.295 -1.41547 -1.26746 0
M  V30 7616 H 727.445 -1.0942 -3.72773 0
M  V30 7617 H 729.117 -3.57448 -2.91597 0
M  V30 7618 H 727.36 -3.40483 -2.688 0
M  V30 7619 H 728.031 -3.43438 -4.32151 0
M  V30 7620 H 730.507 -1.56467 -3.85561 0
M  V30 7621 H 729.383 -1.64575 -5.23647 0
M  V30 7622 H 729.644 -0.112771 -4.41956 0
M  V30 7623 N 728.703 1.26451 -0.940633 0
M  V30 7624 C 729.635 2.25556 -0.407104 0
M  V30 7625 C 730.648 1.55888 0.469324 0
M  V30 7626 O 731.837 1.76292 0.279858 0
M  V30 7627 C 728.937 3.36109 0.434064 0
M  V30 7628 C 728.11 4.3532 -0.426082 0
M  V30 7629 C 727.169 5.25004 0.354563 0
M  V30 7630 O 726.195 5.68684 -0.242219 0
M  V30 7631 N 727.397 5.5652 1.65123 0
M  V30 7632 H 730.162 2.7197 -1.25907 0
M  V30 7633 H 727.723 1.40212 -0.809456 0
M  V30 7634 H 729.715 3.93059 0.963684 0
M  V30 7635 H 728.285 2.89194 1.18683 0
M  V30 7636 H 727.505 3.77449 -1.13692 0
M  V30 7637 H 728.793 4.986 -1.01366 0
M  V30 7638 H 728.191 5.22912 2.15822 0
M  V30 7639 H 726.748 6.16115 2.12711 0
M  V30 7640 N 730.181 0.707592 1.40822 0
M  V30 7641 C 731.428 0.243671 2.01029 0
M  V30 7642 C 731.756 -1.16057 1.5608 0
M  V30 7643 O 731.011 -1.7999 0.768251 0
M  V30 7644 C 731.31 0.262892 3.56432 0
M  V30 7645 C 730.976 1.61632 4.20935 0
M  V30 7646 C 729.638 1.98682 4.38268 0
M  V30 7647 C 731.99 2.50619 4.5699 0
M  V30 7648 C 729.318 3.2428 4.88937 0
M  V30 7649 C 731.67 3.75562 5.09054 0
M  V30 7650 C 730.334 4.12739 5.24598 0
M  V30 7651 H 729.604 0.0891654 0.735616 0
M  V30 7652 H 732.251 0.909051 1.68548 0
M  V30 7653 H 730.556 -0.486052 3.88773 0
M  V30 7654 H 732.253 -0.113775 4.00839 0
M  V30 7655 H 728.843 1.31818 4.07826 0
M  V30 7656 H 733.027 2.23272 4.43242 0
M  V30 7657 H 728.283 3.53064 4.99155 0
M  V30 7658 H 732.457 4.44692 5.35931 0
M  V30 7659 H 730.084 5.10132 5.63622 0
M  V30 7660 N 731.66 -1.50943 0.453197 0
M  V30 7661 C 732.907 -2.02212 -0.107922 0
M  V30 7662 C 733.235 -1.33639 -1.41318 0
M  V30 7663 O 732.49 -0.445154 -1.9057 0
M  V30 7664 C 732.789 -3.55603 -0.357944 0
M  V30 7665 C 732.455 -4.42556 0.863427 0
M  V30 7666 C 731.117 -4.6604 1.19834 0
M  V30 7667 C 733.469 -4.93468 1.67747 0
M  V30 7668 C 730.797 -5.37681 2.34768 0
M  V30 7669 C 733.149 -5.6637 2.81793 0
M  V30 7670 C 731.813 -5.88113 3.1572 0
M  V30 7671 H 731.083 -0.739947 -0.0394916 0
M  V30 7672 H 733.73 -1.81738 0.60363 0
M  V30 7673 H 732.035 -3.74495 -1.15156 0
M  V30 7674 H 733.732 -3.92821 -0.805781 0
M  V30 7675 H 730.322 -4.24485 0.592478 0
M  V30 7676 H 734.506 -4.75194 1.43192 0
M  V30 7677 H 729.762 -5.52727 2.61348 0
M  V30 7678 H 733.936 -6.04806 3.45229 0
M  V30 7679 H 731.563 -6.43404 4.04889 0
M  V30 7680 N 733.138 -0.185124 -1.56509 0
M  V30 7681 C 734.086 0.756505 -2.19954 0
M  V30 7682 C 735.08 1.22725 -1.16769 0
M  V30 7683 O 736.286 1.1913 -1.34937 0
M  V30 7684 H 732.661 0.262279 -0.704779 0
M  V30 7685 H 734.632 0.197587 -2.97745 0
M  V30 7686 C 733.381 1.96975 -2.86524 0
M  V30 7687 H 732.704 1.61658 -3.65659 0
M  V30 7688 H 734.144 2.60719 -3.34367 0
M  V30 7689 C 732.603 2.80219 -1.87027 0
M  V30 7690 O 733.133 3.77821 -1.36433 0
M  V30 7691 N 731.339 2.4551 -1.55477 0
M  V30 7692 H 730.886 1.66199 -1.96813 0
M  V30 7693 H 730.844 3.01493 -0.891597 0
M  V30 7694 N 734.616 1.57351 0.0885366 0
M  V30 7695 C 736.032 1.53331 0.442916 0
M  V30 7696 C 736.232 0.902831 1.80142 0
M  V30 7697 O 735.288 0.498147 2.47537 0
M  V30 7698 C 736.601 2.98036 0.399372 0
M  V30 7699 C 738.149 3.09286 0.480759 0
M  V30 7700 C 738.624 4.5561 0.467296 0
M  V30 7701 N 740.115 4.60182 0.52786 0
M  V30 7702 C 740.85 5.70857 0.539388 0
M  V30 7703 N 740.346 6.90944 0.506729 0
M  V30 7704 N 742.139 5.59051 0.584691 0
M  V30 7705 H 734.29 1.96709 -0.801215 0
M  V30 7706 H 736.553 0.899639 -0.298922 0
M  V30 7707 H 736.259 3.47656 -0.531806 0
M  V30 7708 H 736.133 3.57066 1.21589 0
M  V30 7709 H 738.52 2.5965 1.40236 0
M  V30 7710 H 738.601 2.53197 -0.364023 0
M  V30 7711 H 738.245 5.05899 -0.450384 0
M  V30 7712 H 738.175 5.09544 1.32938 0
M  V30 7713 H 740.666 3.73757 0.558028 0
M  V30 7714 H 740.979 7.71055 0.518989 0
M  V30 7715 H 739.324 6.93384 0.473675 0
M  V30 7716 H 742.515 4.64138 0.607781 0
M  V30 7717 H 742.688 6.45307 0.590206 0
M  V30 7718 N 736.094 -0.359525 1.53444 0
M  V30 7719 C 737.026 -1.46098 1.76602 0
M  V30 7720 C 738.039 -1.49395 0.646912 0
M  V30 7721 O 739.228 -1.52765 0.923307 0
M  V30 7722 C 736.328 -2.84836 1.83635 0
M  V30 7723 C 735.501 -3.05164 3.13358 0
M  V30 7724 C 734.56 -4.24051 3.11556 0
M  V30 7725 O 733.586 -4.18935 3.85334 0
M  V30 7726 N 734.788 -5.31775 2.328 0
M  V30 7727 H 737.553 -1.2661 2.71643 0
M  V30 7728 H 735.114 -0.549294 1.52297 0
M  V30 7729 H 737.106 -3.62516 1.799 0
M  V30 7730 H 735.676 -2.97542 0.958509 0
M  V30 7731 H 734.896 -2.15091 3.30348 0
M  V30 7732 H 736.184 -3.15619 3.99076 0
M  V30 7733 H 735.582 -5.38796 1.7238 0
M  V30 7734 H 734.139 -6.0801 2.34877 0
M  V30 7735 N 737.572 -1.44907 -0.619662 0
M  V30 7736 C 738.797 -1.52021 -1.41083 0
M  V30 7737 C 739.222 -0.14976 -1.87503 0
M  V30 7738 O 738.58 0.863303 -1.59426 0
M  V30 7739 C 738.628 -2.49911 -2.59955 0
M  V30 7740 O 737.732 -2.00857 -3.60181 0
M  V30 7741 H 737.073 -0.512912 -0.421684 0
M  V30 7742 H 739.603 -1.90149 -0.755282 0
M  V30 7743 H 739.613 -2.68323 -3.07354 0
M  V30 7744 H 738.288 -3.4945 -2.25516 0
M  V30 7745 H 736.865 -1.92265 -3.19513 0
M  V30 7746 N 739.05 0.861098 -1.31996 0
M  V30 7747 C 740.28 1.64501 -1.24992 0
M  V30 7748 C 740.688 1.88288 0.185576 0
M  V30 7749 O 740.031 1.44756 1.131 0
M  V30 7750 C 740.093 3.03098 -1.93319 0
M  V30 7751 C 739.757 3.02381 -3.42658 0
M  V30 7752 C 740.754 2.79696 -4.38254 0
M  V30 7753 C 738.439 3.23221 -3.84491 0
M  V30 7754 C 740.433 2.77843 -5.73657 0
M  V30 7755 C 738.12 3.20996 -5.20005 0
M  V30 7756 C 739.118 2.98335 -6.14398 0
M  V30 7757 O 738.806 2.95971 -7.47433 0
M  V30 7758 H 738.538 0.519309 -0.432775 0
M  V30 7759 H 741.092 1.08241 -1.74565 0
M  V30 7760 H 739.322 3.61121 -1.38306 0
M  V30 7761 H 741.011 3.63751 -1.8011 0
M  V30 7762 H 741.777 2.63368 -4.07262 0
M  V30 7763 H 737.656 3.39887 -3.11445 0
M  V30 7764 H 741.2 2.60074 -6.47308 0
M  V30 7765 H 737.097 3.36865 -5.50629 0
M  V30 7766 H 737.865 3.1197 -7.56714 0
M  V30 7767 N 740.528 1.15101 1.07655 0
M  V30 7768 C 741.458 0.867864 2.16773 0
M  V30 7769 C 742.439 -0.180283 1.69142 0
M  V30 7770 O 743.624 -0.0353152 1.94168 0
M  V30 7771 C 740.754 0.35299 3.45501 0
M  V30 7772 C 739.708 1.33746 4.06566 0
M  V30 7773 C 739.034 0.681562 5.30338 0
M  V30 7774 C 740.334 2.7024 4.46954 0
M  V30 7775 H 742.028 1.78034 2.40716 0
M  V30 7776 H 739.574 0.857435 1.15689 0
M  V30 7777 H 741.527 0.142465 4.21159 0
M  V30 7778 H 740.251 -0.594945 3.21135 0
M  V30 7779 H 738.91 1.53429 3.32949 0
M  V30 7780 H 738.558 -0.272422 5.02262 0
M  V30 7781 H 738.258 1.33853 5.72151 0
M  V30 7782 H 739.782 0.48074 6.08705 0
M  V30 7783 H 741.196 2.5442 5.13754 0
M  V30 7784 H 739.593 3.32282 4.99709 0
M  V30 7785 H 740.663 3.26537 3.58471 0
M  V30 7786 N 742.006 -1.2595 0.947325 0
M  V30 7787 C 742.954 -2.28152 0.452687 0
M  V30 7788 C 743.948 -1.62655 -0.473239 0
M  V30 7789 O 745.154 -1.76549 -0.350774 0
M  V30 7790 H 741.529 -0.741049 0.12787 0
M  V30 7791 H 743.5 -2.67267 1.32707 0
M  V30 7792 C 742.249 -3.46719 -0.26098 0
M  V30 7793 H 741.572 -3.97345 0.442352 0
M  V30 7794 H 743.012 -4.20135 -0.571208 0
M  V30 7795 C 741.471 -3.02605 -1.48094 0
M  V30 7796 O 742.001 -3.07979 -2.57899 0
M  V30 7797 N 740.207 -2.57877 -1.33969 0
M  V30 7798 H 739.754 -2.53704 -0.446295 0
M  V30 7799 H 739.712 -2.28725 -2.15713 0
M  V30 7800 N 743.484 -0.715051 -1.40445 0
M  V30 7801 C 744.895 -0.326763 -1.83818 0
M  V30 7802 C 745.246 1.13851 -1.59789 0
M  V30 7803 O 744.371 1.87611 -1.07848 0
M  V30 7804 C 744.966 -0.586297 -3.33688 0
M  V30 7805 C 743.525 -0.251724 -3.75557 0
M  V30 7806 C 742.672 -0.858928 -2.63662 0
M  V30 7807 H 745.623 -0.914241 -1.2972 0
M  V30 7808 H 745.644 0.148636 -3.8021 0
M  V30 7809 H 745.156 -1.65281 -3.51146 0
M  V30 7810 H 743.257 0.809754 -3.63695 0
M  V30 7811 H 743.37 -0.720348 -4.73654 0
M  V30 7812 H 741.734 -0.287013 -2.53078 0
M  V30 7813 H 742.517 -1.9297 -2.83932 0
M  V30 7814 N 744.962 1.50701 -0.461195 0
M  V30 7815 C 746.202 2.04174 0.0960673 0
M  V30 7816 C 746.566 1.33628 1.37868 0
M  V30 7817 O 747.767 1.77602 2.0177 0
M  V30 7818 C 746.038 3.56256 0.285676 0
M  V30 7819 S 747.597 4.31392 0.802917 0
M  V30 7820 H 744.415 0.710701 0.0206282 0
M  V30 7821 H 747.017 1.85204 -0.62607 0
M  V30 7822 H 745.721 4.05159 -0.653773 0
M  V30 7823 H 745.252 3.79562 1.03421 0
M  V30 7824 H 747.267 4.50611 2.07761 0
M  V30 7825 N 746.441 0.193421 1.56409 0
M  V30 7826 C 747.371 -0.723334 2.22014 0
M  V30 7827 C 748.352 -1.22254 1.1827 0
M  V30 7828 O 749.537 -1.27168 1.46771 0
M  V30 7829 C 746.667 -1.94366 2.87818 0
M  V30 7830 C 745.621 -1.57943 3.97791 0
M  V30 7831 C 744.947 -2.87623 4.50752 0
M  V30 7832 C 746.247 -0.790639 5.16281 0
M  V30 7833 H 747.941 -0.176426 2.9888 0
M  V30 7834 H 745.487 -0.0834166 1.43758 0
M  V30 7835 H 747.44 -2.5902 3.32396 0
M  V30 7836 H 746.164 -2.51507 2.08355 0
M  V30 7837 H 744.823 -0.956482 3.53903 0
M  V30 7838 H 744.471 -3.4285 3.68053 0
M  V30 7839 H 744.171 -2.63998 5.24956 0
M  V30 7840 H 745.695 -3.53268 4.9803 0
M  V30 7841 H 747.109 -1.34024 5.57414 0
M  V30 7842 H 745.506 -0.65258 5.96541 0
M  V30 7843 H 746.576 0.208633 4.84451 0
M  V30 7844 N 747.919 -1.57396 -0.0801906 0
M  V30 7845 C 749.196 -1.77883 -0.813451 0
M  V30 7846 C 749.576 -0.778879 -1.96206 0
M  V30 7847 O 748.924 0.189683 -2.27711 0
M  V30 7848 C 749.134 -3.24116 -1.2942 0
M  V30 7849 C 750.482 -3.87714 -1.73098 0
M  V30 7850 O 751.506 -3.27956 -1.39007 0
M  V30 7851 O 750.365 -4.92828 -2.36184 0
M  V30 7852 H 747.459 -0.729727 -0.389138 0
M  V30 7853 H 750.005 -1.69591 -0.0609166 0
M  V30 7854 H 748.777 -3.88443 -0.471947 0
M  V30 7855 H 748.4 -3.371 -2.1083 0
M  V30 7856 N 749.397 0.351382 -1.53633 0
M  V30 7857 C 750.622 1.11718 -1.74739 0
M  V30 7858 C 751.047 1.81829 -0.481657 0
M  V30 7859 O 750.405 1.72264 0.565233 0
M  V30 7860 C 750.453 2.11234 -2.92254 0
M  V30 7861 O 749.557 3.186 -2.61855 0
M  V30 7862 H 748.898 0.323482 -0.579875 0
M  V30 7863 H 751.428 0.404167 -2.00568 0
M  V30 7864 H 751.438 2.54591 -3.18822 0
M  V30 7865 H 750.113 1.59599 -3.84058 0
M  V30 7866 H 748.69 2.80115 -2.4615 0
M  V30 7867 N 750.875 1.45233 0.611969 0
M  V30 7868 C 752.1 1.52767 1.40274 0
M  V30 7869 C 752.525 0.159701 1.87421 0
M  V30 7870 O 751.883 -0.854837 1.59882 0
M  V30 7871 C 751.931 2.51286 2.58626 0
M  V30 7872 O 751.035 2.02764 3.59111 0
M  V30 7873 H 750.376 0.515141 0.418958 0
M  V30 7874 H 752.906 1.90547 0.745188 0
M  V30 7875 H 752.916 2.69949 3.05927 0
M  V30 7876 H 751.591 3.50641 2.23659 0
M  V30 7877 H 750.168 1.93957 3.18489 0
M  V30 7878 N 752.353 -0.854086 1.3245 0
M  V30 7879 C 753.285 -1.96932 1.17262 0
M  V30 7880 C 754.298 -1.62445 0.107469 0
M  V30 7881 O 755.487 -1.74904 0.356481 0
M  V30 7882 C 752.587 -3.29971 0.772817 0
M  V30 7883 C 751.76 -3.92695 1.92638 0
M  V30 7884 C 750.819 -5.04068 1.51003 0
M  V30 7885 O 749.845 -5.24032 2.22213 0
M  V30 7886 N 751.047 -5.79076 0.406371 0
M  V30 7887 H 753.812 -2.10503 2.13327 0
M  V30 7888 H 751.373 -1.02897 1.24995 0
M  V30 7889 H 753.365 -4.01883 0.476684 0
M  V30 7890 H 751.935 -3.1245 -0.0967 0
M  V30 7891 H 751.155 -3.13563 2.38897 0
M  V30 7892 H 752.443 -4.31337 2.69863 0
M  V30 7893 H 751.841 -5.65393 -0.186302 0
M  V30 7894 H 750.398 -6.51579 0.169846 0
M  V30 7895 N 753.831 -1.1567 -1.07043 0
M  V30 7896 C 755.247 -0.900006 -1.31803 0
M  V30 7897 C 755.447 0.451293 -1.96381 0
M  V30 7898 O 754.503 1.19252 -2.22565 0
M  V30 7899 C 755.816 -2.04334 -2.20609 0
M  V30 7900 C 757.364 -2.07823 -2.34048 0
M  V30 7901 C 757.839 -3.21488 -3.26204 0
M  V30 7902 N 759.33 -3.21156 -3.33786 0
M  V30 7903 C 760.065 -4.05746 -4.05163 0
M  V30 7904 N 759.561 -5.00407 -4.79129 0
M  V30 7905 N 761.354 -3.93759 -4.01136 0
M  V30 7906 H 753.505 -2.02681 -0.635146 0
M  V30 7907 H 755.768 -0.883956 -0.342528 0
M  V30 7908 H 755.474 -3.01895 -1.80423 0
M  V30 7909 H 755.348 -1.97838 -3.21154 0
M  V30 7910 H 757.735 -1.1086 -2.73485 0
M  V30 7911 H 757.816 -2.18386 -1.33197 0
M  V30 7912 H 757.46 -4.18706 -2.87485 0
M  V30 7913 H 757.39 -3.08162 -4.27017 0
M  V30 7914 H 759.881 -2.52606 -2.81067 0
M  V30 7915 H 760.194 -5.61387 -5.31097 0
M  V30 7916 H 758.539 -5.04393 -4.78135 0
M  V30 7917 H 761.73 -3.19115 -3.42466 0
M  V30 7918 H 761.903 -4.59906 -4.56498 0
M  V30 7919 N 755.309 1.25446 -0.953992 0
M  V30 7920 C 756.556 1.93143 -0.608429 0
M  V30 7921 C 756.884 1.74727 0.854451 0
M  V30 7922 O 756.139 1.0855 1.62836 0
M  V30 7923 C 756.438 3.45555 -0.912496 0
M  V30 7924 C 756.104 3.84126 -2.36131 0
M  V30 7925 C 754.766 3.94367 -2.75732 0
M  V30 7926 C 757.118 4.0324 -3.30223 0
M  V30 7927 C 754.446 4.21127 -4.08496 0
M  V30 7928 C 756.798 4.31493 -4.62598 0
M  V30 7929 C 755.462 4.3995 -5.01996 0
M  V30 7930 H 754.732 0.706762 -0.22264 0
M  V30 7931 H 757.379 1.49005 -1.20291 0
M  V30 7932 H 755.684 3.91091 -0.235618 0
M  V30 7933 H 757.381 3.9612 -0.623714 0
M  V30 7934 H 753.971 3.76711 -2.04418 0
M  V30 7935 H 758.155 3.94744 -3.00817 0
M  V30 7936 H 753.411 4.2589 -4.38665 0
M  V30 7937 H 757.585 4.45227 -5.35486 0
M  V30 7938 H 755.212 4.60439 -6.04896 0
M  V30 7939 N 756.787 0.722489 1.40064 0
M  V30 7940 C 758.033 0.265371 2.01056 0
M  V30 7941 C 758.366 -1.14062 1.57174 0
M  V30 7942 O 757.641 -1.77514 0.794916 0
M  V30 7943 C 757.924 0.353157 3.58364 0
M  V30 7944 C 757.777 1.79802 4.123 0
M  V30 7945 C 759.096 -0.271677 4.39261 0
M  V30 7946 H 756.215 0.0979002 0.730469 0
M  V30 7947 H 758.857 0.916289 1.66446 0
M  V30 7948 H 757.007 -0.201037 3.87979 0
M  V30 7949 H 758.679 2.40813 3.93455 0
M  V30 7950 H 756.922 2.32348 3.66329 0
M  V30 7951 H 757.593 1.81079 5.21454 0
M  V30 7952 H 760.069 0.200607 4.15616 0
M  V30 7953 H 758.945 -0.179843 5.48605 0
M  V30 7954 H 759.206 -1.35611 4.20787 0
M  V30 7955 N 758.265 -1.50454 0.469181 0
M  V30 7956 C 759.542 -1.9504 -0.147955 0
M  V30 7957 C 759.922 -1.40946 -1.57154 0
M  V30 7958 O 759.27 -0.609663 -2.20217 0
M  V30 7959 C 759.48 -3.48875 -0.0932198 0
M  V30 7960 C 760.828 -4.23655 -0.283056 0
M  V30 7961 O 761.852 -3.55795 -0.169892 0
M  V30 7962 O 760.711 -5.44102 -0.511396 0
M  V30 7963 H 757.805 -0.819283 -0.11271 0
M  V30 7964 H 760.351 -1.6123 0.529446 0
M  V30 7965 H 759.123 -3.80791 0.900784 0
M  V30 7966 H 758.746 -3.89217 -0.812161 0
M  V30 7967 N 759.743 -0.201713 -1.56304 0
M  V30 7968 C 760.69 0.716499 -2.19397 0
M  V30 7969 C 761.66 1.20494 -1.14326 0
M  V30 7970 O 762.845 1.26763 -1.42604 0
M  V30 7971 C 759.985 1.92762 -2.86246 0
M  V30 7972 C 759.098 1.47993 -4.0586 0
M  V30 7973 C 758.233 2.64706 -4.60547 0
M  V30 7974 C 757.272 2.16576 -5.72504 0
M  V30 7975 N 756.409 3.26491 -6.21569 0
M  V30 7976 H 761.249 0.171724 -2.97505 0
M  V30 7977 H 758.786 0.073016 -1.46919 0
M  V30 7978 H 760.744 2.6384 -3.23178 0
M  V30 7979 H 759.374 2.44559 -2.10691 0
M  V30 7980 H 758.426 0.66477 -3.74546 0
M  V30 7981 H 759.738 1.08686 -4.86815 0
M  V30 7982 H 758.892 3.43898 -4.99819 0
M  V30 7983 H 757.631 3.0729 -3.78713 0
M  V30 7984 H 756.636 1.3584 -5.32755 0
M  V30 7985 H 757.861 1.75015 -6.56161 0
M  V30 7986 H 755.807 3.68594 -5.42655 0
M  V30 7987 H 755.724 2.91374 -6.97594 0
M  V30 7988 H 756.992 4.05877 -6.65495 0
M  V30 7989 N 761.222 1.57436 0.0718424 0
M  V30 7990 C 762.468 1.87525 0.772149 0
M  V30 7991 C 762.801 0.79399 1.77227 0
M  V30 7992 O 762.076 -0.195733 1.93513 0
M  V30 7993 C 762.359 3.28272 1.48018 0
M  V30 7994 C 762.212 4.47052 0.49647 0
M  V30 7995 C 763.531 3.67256 2.42509 0
M  V30 7996 H 760.65 0.682049 0.279245 0
M  V30 7997 H 763.292 1.89967 0.03534 0
M  V30 7998 H 761.442 3.26321 2.10824 0
M  V30 7999 H 763.114 4.61127 -0.126375 0
M  V30 8000 H 761.357 4.33392 -0.188205 0
M  V30 8001 H 762.028 5.42315 1.02949 0
M  V30 8002 H 764.504 3.70301 1.89781 0
M  V30 8003 H 763.38 4.66626 2.89053 0
M  V30 8004 H 763.641 2.97186 3.27312 0
M  V30 8005 N 762.7 -0.34323 1.53817 0
M  V30 8006 C 763.949 -1.08086 1.70295 0
M  V30 8007 C 764.262 -1.89794 0.47302 0
M  V30 8008 O 765.468 -2.66498 0.518754 0
M  V30 8009 C 763.924 -1.97097 3.01133 0
M  V30 8010 C 763.532 -1.20594 4.31464 0
M  V30 8011 C 765.276 -2.70715 3.26976 0
M  V30 8012 C 763.183 -2.08636 5.53376 0
M  V30 8013 H 762.113 -0.407228 0.634572 0
M  V30 8014 H 764.764 -0.340328 1.80316 0
M  V30 8015 H 763.146 -2.74971 2.84969 0
M  V30 8016 H 764.32 -0.476282 4.58332 0
M  V30 8017 H 762.635 -0.587426 4.12236 0
M  V30 8018 H 765.232 -3.36857 4.15248 0
M  V30 8019 H 765.575 -3.37299 2.43998 0
M  V30 8020 H 766.108 -1.99914 3.43917 0
M  V30 8021 H 762.847 -1.46594 6.38898 0
M  V30 8022 H 762.367 -2.7939 5.30755 0
M  V30 8023 H 764.046 -2.67682 5.89029 0
M  V30 8024 N 764.178 -1.45556 -0.604258 0
M  V30 8025 C 765.426 -1.4945 -1.36048 0
M  V30 8026 C 765.747 -0.138933 -1.94504 0
M  V30 8027 O 765.017 0.832097 -1.7735 0
M  V30 8028 H 763.597 -0.550381 -0.505064 0
M  V30 8029 H 766.259 -1.81535 -0.709308 0
M  V30 8030 H 765.355 -2.23519 -2.17821 0
M  V30 8031 N 765.656 0.84705 -1.32902 0
M  V30 8032 C 766.566 1.98845 -1.2449 0
M  V30 8033 C 767.582 1.7329 -0.15702 0
M  V30 8034 O 768.758 1.978 -0.379104 0
M  V30 8035 C 765.823 3.32679 -0.975985 0
M  V30 8036 C 764.884 3.71405 -2.15306 0
M  V30 8037 C 764.117 4.98853 -1.89688 0
M  V30 8038 O 764.34 5.64134 -0.843168 0
M  V30 8039 O 763.274 5.34889 -2.76002 0
M  V30 8040 H 767.1 2.0888 -2.2046 0
M  V30 8041 H 764.685 0.978852 -1.12867 0
M  V30 8042 H 766.567 4.12885 -0.842826 0
M  V30 8043 H 765.242 3.23667 -0.0464954 0
M  V30 8044 H 764.149 2.91743 -2.34172 0
M  V30 8045 H 765.482 3.85073 -3.06561 0
M  V30 8046 N 767.134 1.16236 1.06428 0
M  V30 8047 C 768.383 0.937523 1.78587 0
M  V30 8048 C 768.696 -0.536 1.88113 0
M  V30 8049 O 769.902 -0.878697 2.56887 0
M  V30 8050 C 768.358 1.62808 3.2097 0
M  V30 8051 C 767.966 3.13927 3.19615 0
M  V30 8052 C 769.71 1.48515 3.97673 0
M  V30 8053 C 767.617 3.75727 4.56709 0
M  V30 8054 H 766.547 0.347125 0.669343 0
M  V30 8055 H 769.198 1.39353 1.19385 0
M  V30 8056 H 767.58 1.09977 3.80422 0
M  V30 8057 H 768.754 3.7359 2.69753 0
M  V30 8058 H 767.069 3.28089 2.56411 0
M  V30 8059 H 769.666 1.92069 4.99013 0
M  V30 8060 H 770.009 0.433913 4.14032 0
M  V30 8061 H 770.542 1.98494 3.44739 0
M  V30 8062 H 767.281 4.80793 4.45554 0
M  V30 8063 H 766.801 3.20849 5.0677 0
M  V30 8064 H 768.48 3.77203 5.25668 0
M  V30 8065 N 768.612 -1.24939 0.960631 0
M  V30 8066 C 769.575 -2.239 0.49006 0
M  V30 8067 C 770.575 -1.55497 -0.409535 0
M  V30 8068 O 771.765 -1.72978 -0.205984 0
M  V30 8069 C 768.897 -3.39654 -0.291193 0
M  V30 8070 H 770.09 -2.67044 1.36482 0
M  V30 8071 H 767.643 -1.37429 0.744505 0
M  V30 8072 H 768.378 -3.01939 -1.18336 0
M  V30 8073 H 768.163 -3.90496 0.354276 0
M  V30 8074 H 769.653 -4.13125 -0.609693 0
M  V30 8075 N 770.09 -0.729906 -1.39679 0
M  V30 8076 C 771.022 -0.0470588 -2.29152 0
M  V30 8077 C 772.035 0.708808 -1.4656 0
M  V30 8078 O 773.224 0.553815 -1.69691 0
M  V30 8079 C 770.324 0.957612 -3.25089 0
M  V30 8080 C 769.497 0.264321 -4.36601 0
M  V30 8081 C 768.556 1.17638 -5.12882 0
M  V30 8082 O 767.582 0.655777 -5.6541 0
M  V30 8083 N 768.784 2.50649 -5.23598 0
M  V30 8084 H 771.549 -0.815364 -2.88395 0
M  V30 8085 H 769.11 -0.578707 -1.51204 0
M  V30 8086 H 771.102 1.57026 -3.72995 0
M  V30 8087 H 769.672 1.62716 -2.66912 0
M  V30 8088 H 768.892 -0.528732 -3.90638 0
M  V30 8089 H 770.18 -0.216344 -5.0834 0
M  V30 8090 H 769.578 2.95427 -4.82431 0
M  V30 8091 H 768.135 3.07022 -5.74961 0
M  V30 8092 N 771.568 1.50203 -0.477153 0
M  V30 8093 C 772.501 2.25343 0.359983 0
M  V30 8094 C 773.479 1.28909 0.991022 0
M  V30 8095 O 774.663 1.58146 1.02578 0
M  V30 8096 C 771.79 3.03431 1.5049 0
M  V30 8097 C 770.836 4.14836 0.99063 0
M  V30 8098 S 771.669 5.35407 -0.0995413 0
M  V30 8099 C 772.825 6.17045 1.04911 0
M  V30 8100 H 773.058 2.95999 -0.277836 0
M  V30 8101 H 770.591 1.52159 -0.262115 0
M  V30 8102 H 772.549 3.49012 2.16105 0
M  V30 8103 H 771.21 2.32289 2.11425 0
M  V30 8104 H 770.403 4.689 1.84794 0
M  V30 8105 H 770.005 3.71723 0.412097 0
M  V30 8106 H 772.297 6.48546 1.95946 0
M  V30 8107 H 773.24 7.05979 0.547596 0
M  V30 8108 H 773.648 5.49193 1.30567 0
M  V30 8109 N 773.046 0.209999 1.56195 0
M  V30 8110 C 773.996 -0.717978 2.164 0
M  V30 8111 C 774.98 -1.16577 1.10899 0
M  V30 8112 O 776.172 -1.12169 1.3692 0
M  V30 8113 C 773.301 -1.93091 2.8385 0
M  V30 8114 C 772.387 -1.50333 3.96561 0
M  V30 8115 N 772.778 -0.787621 4.9963 0
M  V30 8116 C 771.076 -1.79151 4.08437 0
M  V30 8117 C 771.777 -0.571204 5.78889 0
M  V30 8118 N 770.753 -1.12444 5.31843 0
M  V30 8119 H 774.555 -0.162603 2.9345 0
M  V30 8120 H 772.069 0.0107928 1.62396 0
M  V30 8121 H 774.066 -2.60635 3.25384 0
M  V30 8122 H 772.726 -2.49087 2.08293 0
M  V30 8123 H 773.737 -0.441513 5.16015 0
M  V30 8124 H 770.414 -2.36549 3.44022 0
M  V30 8125 H 771.804 -0.00237941 6.719 0
M  V30 8126 N 774.524 -1.57472 -0.0634922 0
M  V30 8127 C 775.471 -2.04258 -1.07457 0
M  V30 8128 C 776.441 -0.924804 -1.37973 0
M  V30 8129 O 777.626 -1.19305 -1.48899 0
M  V30 8130 C 774.766 -2.49832 -2.38071 0
M  V30 8131 C 773.879 -3.75263 -2.14014 0
M  V30 8132 C 773.014 -4.09585 -3.38251 0
M  V30 8133 C 772.053 -5.28032 -3.09594 0
M  V30 8134 N 771.19 -5.57953 -4.26185 0
M  V30 8135 H 776.03 -2.90402 -0.668626 0
M  V30 8136 H 773.567 -1.43609 -0.318572 0
M  V30 8137 H 775.525 -2.7431 -3.14341 0
M  V30 8138 H 774.155 -1.66654 -2.76453 0
M  V30 8139 H 773.207 -3.58075 -1.28399 0
M  V30 8140 H 774.519 -4.61667 -1.88852 0
M  V30 8141 H 773.673 -4.35008 -4.2291 0
M  V30 8142 H 772.412 -3.21765 -3.66495 0
M  V30 8143 H 771.417 -5.02397 -2.23332 0
M  V30 8144 H 772.642 -6.17477 -2.82663 0
M  V30 8145 H 770.588 -4.73092 -4.54445 0
M  V30 8146 H 770.505 -6.38793 -4.04326 0
M  V30 8147 H 771.773 -5.87931 -5.11817 0
M  V30 8148 N 776.003 0.335068 -1.53997 0
M  V30 8149 C 776.913 1.43511 -1.85585 0
M  V30 8150 C 777.929 1.57162 -0.746726 0
M  V30 8151 O 779.105 1.72477 -1.03988 0
M  V30 8152 C 776.17 2.78386 -2.06646 0
M  V30 8153 C 775.231 2.74007 -3.30483 0
M  V30 8154 C 774.464 4.02449 -3.50529 0
M  V30 8155 O 774.687 5.00147 -2.74242 0
M  V30 8156 O 773.621 4.06405 -4.4398 0
M  V30 8157 H 777.447 1.19731 -2.79102 0
M  V30 8158 H 775.032 0.528033 -1.39758 0
M  V30 8159 H 776.914 3.58247 -2.21894 0
M  V30 8160 H 775.589 3.0208 -1.16317 0
M  V30 8161 H 774.496 1.92736 -3.2063 0
M  V30 8162 H 775.829 2.55267 -4.20832 0
M  V30 8163 N 777.481 1.45874 0.596531 0
M  V30 8164 C 778.444 1.54988 1.68853 0
M  V30 8165 C 779.444 0.428302 1.54991 0
M  V30 8166 O 780.634 0.692158 1.59859 0
M  V30 8167 C 777.766 1.457 3.08195 0
M  V30 8168 H 778.959 2.52294 1.62135 0
M  V30 8169 H 776.512 1.33479 0.813206 0
M  V30 8170 H 777.247 0.496204 3.20481 0
M  V30 8171 H 777.032 2.27061 3.19665 0
M  V30 8172 H 778.522 1.55133 3.87716 0
M  V30 8173 N 778.959 -0.83999 1.33349 0
M  V30 8174 C 780.207 -1.59202 1.24496 0
M  V30 8175 C 780.528 -1.94077 -0.189499 0
M  V30 8176 O 779.798 -1.60868 -1.11796 0
M  V30 8177 H 778.378 -0.590276 0.457802 0
M  V30 8178 H 781.04 -1.00394 1.67054 0
M  V30 8179 H 780.136 -2.52247 1.83788 0
M  V30 8180 N 780.437 -1.16799 -1.0581 0
M  V30 8181 C 781.369 -0.836774 -2.13379 0
M  V30 8182 C 782.382 0.158116 -1.6203 0
M  V30 8183 O 783.571 -0.0673211 -1.78373 0
M  V30 8184 C 780.671 -0.225959 -3.38146 0
M  V30 8185 C 779.844 -1.26217 -4.18794 0
M  V30 8186 C 778.903 -0.670257 -5.21914 0
M  V30 8187 O 777.929 -1.34042 -5.53192 0
M  V30 8188 N 779.131 0.540683 -5.77977 0
M  V30 8189 H 781.896 -1.76257 -2.42391 0
M  V30 8190 H 779.457 -1.06599 -1.21853 0
M  V30 8191 H 781.449 0.18317 -4.04285 0
M  V30 8192 H 780.019 0.603494 -3.06719 0
M  V30 8193 H 779.239 -1.84729 -3.48237 0
M  V30 8194 H 780.527 -1.9613 -4.69479 0
M  V30 8195 H 779.925 1.10322 -5.54838 0
M  V30 8196 H 778.482 0.891958 -6.45668 0
M  V30 8197 N 781.915 1.24427 -0.967243 0
M  V30 8198 C 783.326 1.74349 -0.667785 0
M  V30 8199 C 783.677 1.78403 0.816509 0
M  V30 8200 O 782.802 1.41315 1.63887 0
M  V30 8201 C 783.397 3.16628 -1.20548 0
M  V30 8202 C 781.956 3.64059 -0.955934 0
M  V30 8203 C 781.103 2.42715 -1.34106 0
M  V30 8204 H 784.054 1.10136 -1.14262 0
M  V30 8205 H 784.075 3.76183 -0.571547 0
M  V30 8206 H 783.587 3.13646 -2.28578 0
M  V30 8207 H 781.688 3.72441 0.108858 0
M  V30 8208 H 781.801 4.51549 -1.60126 0
M  V30 8209 H 780.165 2.43114 -0.759452 0
M  V30 8210 H 780.948 2.42414 -2.43085 0
M  V30 8211 N 783.393 0.737304 1.3929 0
M  V30 8212 C 784.642 0.283129 1.99703 0
M  V30 8213 C 784.955 -1.13677 1.59176 0
M  V30 8214 O 786.161 -1.69058 2.12442 0
M  V30 8215 C 784.617 0.455262 3.57009 0
M  V30 8216 C 784.225 1.88319 4.06497 0
M  V30 8217 C 785.969 0.0629786 4.24453 0
M  V30 8218 C 783.876 2.00475 5.56385 0
M  V30 8219 H 782.806 0.102106 0.747054 0
M  V30 8220 H 785.457 0.911515 1.5926 0
M  V30 8221 H 783.839 -0.242057 3.9526 0
M  V30 8222 H 785.013 2.61265 3.79575 0
M  V30 8223 H 783.328 2.2289 3.51723 0
M  V30 8224 H 785.925 0.132787 5.34535 0
M  V30 8225 H 786.268 -0.982128 4.04549 0
M  V30 8226 H 786.801 0.71154 3.91385 0
M  V30 8227 H 783.54 3.03182 5.81172 0
M  V30 8228 H 783.06 1.31969 5.85102 0
M  V30 8229 H 784.739 1.787 6.21832 0
M  V30 8230 N 784.871 -1.49948 0.485112 0
M  V30 8231 C 785.818 -2.28819 -0.301729 0
M  V30 8232 C 786.788 -1.34496 -0.974683 0
M  V30 8233 O 787.973 -1.63444 -0.984418 0
M  V30 8234 C 785.113 -3.16758 -1.36961 0
M  V30 8235 C 784.226 -4.26125 -0.710027 0
M  V30 8236 C 783.361 -5.01302 -1.75699 0
M  V30 8237 C 782.4 -6.02525 -1.07841 0
M  V30 8238 N 781.537 -6.70927 -2.06886 0
M  V30 8239 H 786.377 -2.95604 0.377127 0
M  V30 8240 H 783.914 -1.45764 0.197826 0
M  V30 8241 H 785.872 -3.66106 -2.00056 0
M  V30 8242 H 784.502 -2.51991 -2.01744 0
M  V30 8243 H 783.554 -3.80385 0.0338278 0
M  V30 8244 H 784.866 -4.98493 -0.175079 0
M  V30 8245 H 784.02 -5.54438 -2.46339 0
M  V30 8246 H 782.759 -4.28672 -2.32577 0
M  V30 8247 H 781.764 -5.48635 -0.357706 0
M  V30 8248 H 782.989 -6.77134 -0.516345 0
M  V30 8249 H 780.935 -6.01079 -2.62755 0
M  V30 8250 H 780.852 -7.39216 -1.58414 0
M  V30 8251 H 782.12 -7.28675 -2.76863 0
M  V30 8252 N 786.349 -0.21828 -1.56081 0
M  V30 8253 C 787.577 0.419258 -2.02608 0
M  V30 8254 C 787.992 1.53578 -1.09814 0
M  V30 8255 O 787.349 1.82185 -0.107149 0
M  V30 8256 C 787.4 0.953955 -3.48686 0
M  V30 8257 O 787.121 -0.11805 -4.37941 0
M  V30 8258 C 788.622 1.66506 -4.10841 0
M  V30 8259 H 785.842 0.10296 -0.663054 0
M  V30 8260 H 788.386 -0.333776 -2.01758 0
M  V30 8261 H 786.541 1.65727 -3.50162 0
M  V30 8262 H 786.955 0.283359 -5.23734 0
M  V30 8263 H 788.429 1.99123 -5.14834 0
M  V30 8264 H 788.906 2.57705 -3.55647 0
M  V30 8265 H 789.512 1.00703 -4.13206 0
M  V30 8266 N 787.827 1.57504 0.0551401 0
M  V30 8267 C 789.073 1.89191 0.74688 0
M  V30 8268 C 789.428 0.813936 1.74335 0
M  V30 8269 O 788.721 -0.180217 1.90751 0
M  V30 8270 C 788.915 3.25311 1.48013 0
M  V30 8271 C 788.744 4.46247 0.556176 0
M  V30 8272 C 787.514 5.04954 0.186891 0
M  V30 8273 C 789.712 5.14068 -0.154295 0
M  V30 8274 N 787.694 6.09411 -0.741041 0
M  V30 8275 C 789.065 6.12851 -0.938809 0
M  V30 8276 C 791.12 4.97396 -0.224007 0
M  V30 8277 C 789.823 6.96759 -1.78658 0
M  V30 8278 C 791.849 5.81845 -1.05881 0
M  V30 8279 C 791.211 6.80178 -1.83133 0
M  V30 8280 H 787.31 0.741562 0.248213 0
M  V30 8281 H 789.894 1.94698 0.00777734 0
M  V30 8282 H 788.065 3.20781 2.18985 0
M  V30 8283 H 789.797 3.44594 2.12219 0
M  V30 8284 H 786.552 4.70472 0.543415 0
M  V30 8285 H 786.976 6.66303 -1.19874 0
M  V30 8286 H 791.618 4.21274 0.358924 0
M  V30 8287 H 789.336 7.72245 -2.38042 0
M  V30 8288 H 792.922 5.70997 -1.11595 0
M  V30 8289 H 791.802 7.44389 -2.46687 0
M  V30 8290 N 789.305 -0.326896 1.54172 0
M  V30 8291 C 790.255 -1.40319 1.79707 0
M  V30 8292 C 791.239 -1.47056 0.652938 0
M  V30 8293 O 792.431 -1.51645 0.91284 0
M  V30 8294 C 789.56 -2.77222 2.02491 0
M  V30 8295 C 788.646 -2.74811 3.23016 0
M  V30 8296 N 789.037 -2.42022 4.44138 0
M  V30 8297 C 787.335 -3.05943 3.24522 0
M  V30 8298 C 788.036 -2.48263 5.26061 0
M  V30 8299 N 787.012 -2.84567 4.63166 0
M  V30 8300 H 790.814 -1.13892 2.70935 0
M  V30 8301 H 788.328 -0.53536 1.53322 0
M  V30 8302 H 790.325 -3.54793 2.18923 0
M  V30 8303 H 788.985 -3.04582 1.12515 0
M  V30 8304 H 789.996 -2.14926 4.71197 0
M  V30 8305 H 786.673 -3.38367 2.44569 0
M  V30 8306 H 788.063 -2.2593 6.32776 0
M  V30 8307 N 790.784 -1.46188 -0.588786 0
M  V30 8308 C 792.031 -1.51184 -1.34721 0
M  V30 8309 C 792.359 -0.161084 -1.93832 0
M  V30 8310 O 791.614 0.842557 -1.76634 0
M  V30 8311 C 791.913 -2.55364 -2.50048 0
M  V30 8312 C 791.579 -3.99553 -2.08969 0
M  V30 8313 C 790.241 -4.38811 -1.9748 0
M  V30 8314 C 792.593 -4.90156 -1.77191 0
M  V30 8315 C 789.921 -5.66544 -1.52463 0
M  V30 8316 C 792.273 -6.1832 -1.33654 0
M  V30 8317 C 790.937 -6.5649 -1.20738 0
M  V30 8318 H 790.207 -0.55322 -0.49298 0
M  V30 8319 H 792.854 -1.79634 -0.663627 0
M  V30 8320 H 791.159 -2.20552 -3.23827 0
M  V30 8321 H 792.856 -2.5646 -3.08268 0
M  V30 8322 H 789.446 -3.68518 -2.18843 0
M  V30 8323 H 793.63 -4.60549 -1.84955 0
M  V30 8324 H 788.886 -5.94895 -1.411 0
M  V30 8325 H 793.06 -6.87956 -1.08117 0
M  V30 8326 H 790.687 -7.55362 -0.856307 0
M  V30 8327 N 792.262 0.832906 -1.33792 0
M  V30 8328 C 793.51 1.58539 -1.25338 0
M  V30 8329 C 793.831 1.94175 0.179204 0
M  V30 8330 O 793.101 1.61458 1.10941 0
M  V30 8331 H 791.681 0.58784 -0.460926 0
M  V30 8332 H 794.343 0.995064 -1.67584 0
M  V30 8333 H 793.439 2.51268 -1.85123 0
M  V30 8334 N 793.74 1.17359 1.05189 0
M  V30 8335 C 794.988 0.960087 1.77839 0
M  V30 8336 C 795.309 -0.512554 1.88143 0
M  V30 8337 O 794.579 -1.3721 1.39822 0
M  V30 8338 H 793.159 0.352234 0.658741 0
M  V30 8339 H 795.821 1.47834 1.27008 0
M  V30 8340 H 794.917 1.38843 2.79516 0
M  V30 8341 N 795.218 -1.23913 0.973828 0
M  V30 8342 C 796.495 -1.87539 0.555729 0
M  V30 8343 C 796.875 -1.87641 -0.967162 0
M  V30 8344 O 796.223 -1.35335 -1.84111 0
M  V30 8345 C 796.433 -3.29359 1.15427 0
M  V30 8346 C 797.781 -4.06 1.24294 0
M  V30 8347 O 798.805 -3.38554 1.10723 0
M  V30 8348 O 797.664 -5.26689 1.45813 0
M  V30 8349 H 794.758 -0.805769 0.186188 0
M  V30 8350 H 797.304 -1.31838 1.06849 0
M  V30 8351 H 796.076 -3.23817 2.19678 0
M  V30 8352 H 795.699 -3.92642 0.625925 0
M  V30 8353 N 796.696 -0.74468 -1.38897 0
M  V30 8354 C 797.606 -0.112892 -2.34328 0
M  V30 8355 C 798.622 0.71087 -1.58816 0
M  V30 8356 O 799.798 0.637092 -1.91058 0
M  V30 8357 C 796.863 0.776417 -3.37894 0
M  V30 8358 C 795.924 -0.0606999 -4.29257 0
M  V30 8359 C 795.157 0.786258 -5.27877 0
M  V30 8360 O 795.38 2.02463 -5.33259 0
M  V30 8361 O 794.314 0.209781 -6.01534 0
M  V30 8362 H 798.14 -0.900801 -2.90033 0
M  V30 8363 H 795.725 -0.505462 -1.4059 0
M  V30 8364 H 797.607 1.28496 -4.01331 0
M  V30 8365 H 796.282 1.54297 -2.84559 0
M  V30 8366 H 795.189 -0.614984 -3.69011 0
M  V30 8367 H 796.522 -0.789702 -4.85824 0
M  V30 8368 N 798.174 1.49689 -0.493057 0
M  V30 8369 C 799.137 2.27502 0.278485 0
M  V30 8370 C 800.137 1.33184 0.901037 0
M  V30 8371 O 801.327 1.56415 0.766801 0
M  V30 8372 C 798.459 3.10881 1.39878 0
M  V30 8373 H 799.652 2.97163 -0.404219 0
M  V30 8374 H 797.205 1.54324 -0.247774 0
M  V30 8375 H 797.94 2.45767 2.11587 0
M  V30 8376 H 797.725 3.80219 0.957924 0
M  V30 8377 H 799.215 3.69673 1.94247 0
M  V30 8378 N 799.652 0.226554 1.55963 0
M  V30 8379 C 800.599 -0.681504 2.20509 0
M  V30 8380 C 801.569 -1.1866 1.16229 0
M  V30 8381 O 802.754 -1.24478 1.44602 0
M  V30 8382 C 799.894 -1.88183 2.89277 0
M  V30 8383 C 799.007 -1.41517 4.08163 0
M  V30 8384 C 798.142 -2.57346 4.647 0
M  V30 8385 C 797.181 -2.07441 5.75877 0
M  V30 8386 N 796.318 -3.16561 6.26685 0
M  V30 8387 H 801.158 -0.124372 2.9774 0
M  V30 8388 H 798.695 -0.0496333 1.47016 0
M  V30 8389 H 800.653 -2.58666 3.27335 0
M  V30 8390 H 799.283 -2.41177 2.14555 0
M  V30 8391 H 798.335 -0.605099 3.75557 0
M  V30 8392 H 799.647 -1.00928 4.88482 0
M  V30 8393 H 798.801 -3.35903 5.05227 0
M  V30 8394 H 797.54 -3.01227 3.83554 0
M  V30 8395 H 796.545 -1.27347 5.34848 0
M  V30 8396 H 797.77 -1.64554 6.58862 0
M  V30 8397 H 795.716 -3.59914 5.48451 0
M  V30 8398 H 795.633 -2.80239 7.02141 0
M  V30 8399 H 796.901 -3.95238 6.71868 0
M  V30 8400 N 801.13 -1.57531 -0.0467866 0
M  V30 8401 C 802.078 -2.06455 -1.0714 0
M  V30 8402 C 803.072 -0.974744 -1.38546 0
M  V30 8403 O 804.278 -1.15974 -1.37659 0
M  V30 8404 H 800.653 -0.658607 -0.362962 0
M  V30 8405 H 802.624 -2.91613 -0.632813 0
M  V30 8406 C 801.373 -2.54481 -2.36927 0
M  V30 8407 H 800.696 -3.37946 -2.13617 0
M  V30 8408 H 802.136 -2.92442 -3.07007 0
M  V30 8409 C 800.595 -1.43836 -3.04652 0
M  V30 8410 O 801.125 -0.794531 -3.93764 0
M  V30 8411 N 799.331 -1.17727 -2.65686 0
M  V30 8412 H 798.878 -1.70265 -1.93307 0
M  V30 8413 H 798.836 -0.439051 -3.11319 0
M  V30 8414 N 802.608 0.318715 -1.54344 0
M  V30 8415 C 803.857 1.05363 -1.71993 0
M  V30 8416 C 804.17 1.89018 -0.503155 0
M  V30 8417 O 805.376 2.65639 -0.561085 0
M  V30 8418 C 803.832 1.92281 -3.0423 0
M  V30 8419 C 803.44 1.13715 -4.33328 0
M  V30 8420 C 805.184 2.65479 -3.31242 0
M  V30 8421 C 803.091 1.99806 -5.56625 0
M  V30 8422 H 802.021 0.397081 -0.64097 0
M  V30 8423 H 804.672 0.311598 -1.80835 0
M  V30 8424 H 803.054 2.70402 -2.89307 0
M  V30 8425 H 804.228 0.403305 -4.59032 0
M  V30 8426 H 802.543 0.521769 -4.13118 0
M  V30 8427 H 805.14 3.30209 -4.20555 0
M  V30 8428 H 805.483 3.33374 -2.49334 0
M  V30 8429 H 806.016 1.94417 -3.47054 0
M  V30 8430 H 802.755 1.36411 -6.41149 0
M  V30 8431 H 802.275 2.70911 -5.35133 0
M  V30 8432 H 803.954 2.58277 -5.93213 0
M  V30 8433 N 804.086 1.46499 0.581025 0
M  V30 8434 C 805.502 1.31491 0.904563 0
M  V30 8435 C 805.702 0.287598 1.99437 0
M  V30 8436 O 804.758 -0.309247 2.50599 0
M  V30 8437 C 806.071 2.70163 1.32032 0
M  V30 8438 C 807.619 2.78266 1.43308 0
M  V30 8439 C 808.094 4.17524 1.8825 0
M  V30 8440 N 809.585 4.19949 1.9544 0
M  V30 8441 C 810.32 5.24594 2.31493 0
M  V30 8442 N 809.816 6.39564 2.66326 0
M  V30 8443 N 811.609 5.11961 2.32062 0
M  V30 8444 H 803.76 2.11946 -0.138856 0
M  V30 8445 H 806.023 0.948 0.000548528 0
M  V30 8446 H 805.729 3.46655 0.593554 0
M  V30 8447 H 805.603 3.00379 2.2815 0
M  V30 8448 H 807.99 2.02061 2.15071 0
M  V30 8449 H 808.071 2.51732 0.45438 0
M  V30 8450 H 807.715 4.94225 1.17065 0
M  V30 8451 H 807.645 4.41466 2.87081 0
M  V30 8452 H 810.136 3.36996 1.71004 0
M  V30 8453 H 810.449 7.15187 2.92793 0
M  V30 8454 H 808.794 6.42923 2.6396 0
M  V30 8455 H 811.985 4.21177 2.04272 0
M  V30 8456 H 812.158 5.93626 2.5983 0
M  V30 8457 N 805.565 -0.825799 1.34232 0
M  V30 8458 C 806.495 -1.95151 1.28212 0
M  V30 8459 C 807.476 -1.69345 0.160123 0
M  V30 8460 O 808.661 -1.90983 0.352019 0
M  V30 8461 C 805.791 -3.31554 1.03388 0
M  V30 8462 C 804.745 -3.71793 2.12023 0
M  V30 8463 C 804.071 -5.06147 1.72392 0
M  V30 8464 C 805.371 -3.84193 3.53826 0
M  V30 8465 H 807.065 -2.00445 2.22401 0
M  V30 8466 H 804.611 -0.962996 1.07063 0
M  V30 8467 H 806.564 -4.09889 0.978225 0
M  V30 8468 H 805.288 -3.26551 0.0564142 0
M  V30 8469 H 803.947 -2.95731 2.16654 0
M  V30 8470 H 803.595 -4.97628 0.733137 0
M  V30 8471 H 803.295 -5.34041 2.451 0
M  V30 8472 H 804.819 -5.86943 1.68317 0
M  V30 8473 H 806.233 -4.52806 3.51624 0
M  V30 8474 H 804.63 -4.23538 4.2513 0
M  V30 8475 H 805.7 -2.86272 3.91377 0
M  V30 8476 N 807.043 -1.17915 -1.04565 0
M  V30 8477 C 808.291 -0.969505 -1.77327 0
M  V30 8478 C 808.612 0.502569 -1.88412 0
M  V30 8479 O 807.882 1.36467 -1.40547 0
M  V30 8480 H 806.462 -0.355723 -0.656864 0
M  V30 8481 H 809.124 -1.48506 -1.26223 0
M  V30 8482 H 808.22 -1.40324 -2.78775 0
M  V30 8483 N 808.521 1.23394 -0.980386 0
M  V30 8484 C 809.484 2.23092 -0.525619 0
M  V30 8485 C 810.484 1.56129 0.384745 0
M  V30 8486 O 811.674 1.73284 0.178439 0
M  V30 8487 C 808.806 3.40074 0.23712 0
M  V30 8488 H 809.999 2.64839 -1.40714 0
M  V30 8489 H 807.552 1.36227 -0.766275 0
M  V30 8490 H 808.287 3.03783 1.13518 0
M  V30 8491 H 808.072 3.89883 -0.416356 0
M  V30 8492 H 809.562 4.14043 0.543892 0
M  V30 8493 N 809.999 0.752036 1.385 0
M  V30 8494 C 811.247 0.306895 1.99756 0
M  V30 8495 C 811.568 -1.11478 1.59992 0
M  V30 8496 O 810.838 -1.76206 0.856045 0
M  V30 8497 H 809.418 0.11048 0.738785 0
M  V30 8498 H 812.08 0.965785 1.69289 0
M  V30 8499 H 811.176 0.368797 3.09913 0
M  V30 8500 N 811.477 -1.49425 0.500989 0
M  V30 8501 C 812.707 -2.06561 -0.0402858 0
M  V30 8502 C 813.115 -1.36157 -1.31369 0
M  V30 8503 O 812.458 -0.433618 -1.78509 0
M  V30 8504 C 812.52 -3.5765 -0.364269 0
M  V30 8505 C 812.184 -4.49739 0.811417 0
M  V30 8506 C 813.181 -4.91255 1.7019 0
M  V30 8507 C 810.866 -4.92036 1.01022 0
M  V30 8508 C 812.86 -5.73806 2.77534 0
M  V30 8509 C 810.547 -5.74364 2.08683 0
M  V30 8510 C 811.545 -6.15154 2.96774 0
M  V30 8511 O 811.233 -6.95836 4.02577 0
M  V30 8512 H 810.965 -0.67578 0.0172357 0
M  V30 8513 H 813.519 -1.93193 0.697553 0
M  V30 8514 H 811.749 -3.69026 -1.1557 0
M  V30 8515 H 813.438 -3.97025 -0.844156 0
M  V30 8516 H 814.204 -4.59222 1.56013 0
M  V30 8517 H 810.083 -4.59789 0.333929 0
M  V30 8518 H 813.627 -6.05564 3.4632 0
M  V30 8519 H 809.524 -6.0581 2.22855 0
M  V30 8520 H 810.292 -7.14142 3.9993 0
M  V30 8521 N 812.955 -0.234822 -1.55841 0
M  V30 8522 C 814.183 0.397745 -2.03041 0
M  V30 8523 C 814.598 1.52405 -1.11437 0
M  V30 8524 O 813.955 1.82061 -0.126466 0
M  V30 8525 C 814.006 0.916919 -3.49678 0
M  V30 8526 O 813.727 -0.164493 -4.37791 0
M  V30 8527 C 815.228 1.62139 -4.12584 0
M  V30 8528 H 812.448 0.0959214 -0.664108 0
M  V30 8529 H 814.992 -0.355156 -2.01392 0
M  V30 8530 H 813.147 1.62004 -3.519 0
M  V30 8531 H 813.561 0.227794 -5.24005 0
M  V30 8532 H 815.035 1.93651 -5.16917 0
M  V30 8533 H 815.512 2.53918 -3.58361 0
M  V30 8534 H 816.118 0.963145 -4.14251 0
M  V30 8535 N 814.433 1.57553 0.0384317 0
M  V30 8536 C 815.71 1.79977 0.766002 0
M  V30 8537 C 816.09 0.830625 1.94072 0
M  V30 8538 O 815.438 -0.129243 2.28134 0
M  V30 8539 C 815.648 3.27434 1.20781 0
M  V30 8540 C 816.996 3.92167 1.62758 0
M  V30 8541 O 818.02 3.31527 1.30263 0
M  V30 8542 O 816.879 4.98917 2.23035 0
M  V30 8543 H 813.973 0.739787 0.369654 0
M  V30 8544 H 816.519 1.69693 0.0159312 0
M  V30 8545 H 815.291 3.89558 0.368792 0
M  V30 8546 H 814.914 3.42571 2.01819 0
M  V30 8547 N 815.911 -0.310526 1.54511 0
M  V30 8548 C 816.858 -1.38264 1.84802 0
M  V30 8549 C 817.828 -1.50808 0.696141 0
M  V30 8550 O 819.013 -1.6582 0.943846 0
M  V30 8551 C 816.153 -2.74422 2.09252 0
M  V30 8552 C 815.266 -2.70405 3.36906 0
M  V30 8553 C 814.401 -3.98495 3.51248 0
M  V30 8554 C 813.44 -3.88836 4.72729 0
M  V30 8555 N 812.577 -5.08683 4.83928 0
M  V30 8556 H 817.417 -1.11732 2.76261 0
M  V30 8557 H 814.954 -0.540609 1.36806 0
M  V30 8558 H 816.912 -3.53593 2.21422 0
M  V30 8559 H 815.542 -2.99235 1.2107 0
M  V30 8560 H 814.594 -1.83151 3.33406 0
M  V30 8561 H 815.906 -2.59155 4.26193 0
M  V30 8562 H 815.06 -4.861 3.63031 0
M  V30 8563 H 813.799 -4.12567 2.60077 0
M  V30 8564 H 812.804 -2.99615 4.60989 0
M  V30 8565 H 814.029 -3.76318 5.65298 0
M  V30 8566 H 811.975 -5.23236 3.95677 0
M  V30 8567 H 811.892 -4.99819 5.67201 0
M  V30 8568 H 813.16 -5.97966 5.00057 0
M  V30 8569 N 817.389 -1.46805 -0.573248 0
M  V30 8570 C 818.352 -1.57655 -1.66366 0
M  V30 8571 C 819.352 -0.452905 -1.5429 0
M  V30 8572 O 820.542 -0.717502 -1.58737 0
M  V30 8573 C 817.674 -1.50584 -3.05839 0
M  V30 8574 H 818.867 -2.54842 -1.581 0
M  V30 8575 H 816.42 -1.34756 -0.791868 0
M  V30 8576 H 817.155 -0.547127 -3.19651 0
M  V30 8577 H 816.94 -2.32118 -3.16012 0
M  V30 8578 H 818.43 -1.61282 -3.85199 0
M  V30 8579 N 818.867 0.818669 -1.34668 0
M  V30 8580 C 819.814 1.92983 -1.26595 0
M  V30 8581 C 820.784 1.65506 -0.140315 0
M  V30 8582 O 821.969 1.88063 -0.322005 0
M  V30 8583 C 819.109 3.2932 -1.03163 0
M  V30 8584 C 818.222 3.69061 -2.24539 0
M  V30 8585 C 817.357 4.94368 -1.94355 0
M  V30 8586 C 816.396 5.26702 -3.11851 0
M  V30 8587 N 815.533 6.43187 -2.81522 0
M  V30 8588 H 820.373 1.99219 -2.2162 0
M  V30 8589 H 817.91 0.974612 -1.1018 0
M  V30 8590 H 819.868 4.07897 -0.87613 0
M  V30 8591 H 818.498 3.22584 -0.118045 0
M  V30 8592 H 817.55 2.85842 -2.50995 0
M  V30 8593 H 818.862 3.88924 -3.12313 0
M  V30 8594 H 818.016 5.80742 -1.75566 0
M  V30 8595 H 816.755 4.76515 -1.03848 0
M  V30 8596 H 815.76 4.38823 -3.31231 0
M  V30 8597 H 816.985 5.46492 -4.03142 0
M  V30 8598 H 814.931 6.26783 -1.93596 0
M  V30 8599 H 814.848 6.63243 -3.62829 0
M  V30 8600 H 816.116 7.32621 -2.66247 0
M  V30 8601 N 820.346 1.18468 1.03938 0
M  V30 8602 C 821.757 0.984808 1.58614 0
M  V30 8603 C 822.108 -0.465165 1.90606 0
M  V30 8604 O 821.233 -1.34274 1.69704 0
M  V30 8605 C 821.828 1.78135 2.8819 0
M  V30 8606 C 820.387 1.62579 3.39478 0
M  V30 8607 C 819.534 1.77501 2.13046 0
M  V30 8608 H 822.485 1.32993 0.865944 0
M  V30 8609 H 822.506 1.27119 3.58638 0
M  V30 8610 H 822.018 2.83661 2.64874 0
M  V30 8611 H 820.119 0.59595 3.67803 0
M  V30 8612 H 820.232 2.42463 4.13217 0
M  V30 8613 H 818.596 1.2046 2.24414 0
M  V30 8614 H 819.379 2.84464 1.92185 0
M  V30 8615 N 821.824 -1.22873 0.986916 0
M  V30 8616 C 822.734 -2.28277 0.540978 0
M  V30 8617 C 823.75 -1.69164 -0.407363 0
M  V30 8618 O 824.926 -1.99504 -0.275674 0
M  V30 8619 C 821.991 -3.46404 -0.143181 0
M  V30 8620 C 821.052 -4.20854 0.847375 0
M  V30 8621 C 820.285 -5.33341 0.19577 0
M  V30 8622 O 820.508 -5.61356 -1.0117 0
M  V30 8623 O 819.442 -5.95169 0.897623 0
M  V30 8624 H 823.268 -2.68578 1.41773 0
M  V30 8625 H 820.853 -1.28927 0.754867 0
M  V30 8626 H 822.735 -4.18096 -0.526676 0
M  V30 8627 H 821.41 -3.08041 -0.994593 0
M  V30 8628 H 820.317 -3.51459 1.28169 0
M  V30 8629 H 821.65 -4.63082 1.6678 0
M  V30 8630 N 823.302 -0.75937 -1.38099 0
M  V30 8631 C 824.713 -0.385078 -1.82686 0
M  V30 8632 C 825.064 1.0871 -1.6333 0
M  V30 8633 O 824.189 1.84084 -1.13762 0
M  V30 8634 C 824.784 -0.692161 -3.31654 0
M  V30 8635 C 823.343 -0.371077 -3.74566 0
M  V30 8636 C 822.49 -0.942375 -2.60796 0
M  V30 8637 H 825.441 -0.955048 -1.26746 0
M  V30 8638 H 825.462 0.0276001 -3.8049 0
M  V30 8639 H 824.974 -1.76369 -3.4571 0
M  V30 8640 H 823.075 0.693637 -3.66087 0
M  V30 8641 H 823.188 -0.870672 -4.71122 0
M  V30 8642 H 821.552 -0.367383 -2.52036 0
M  V30 8643 H 822.335 -2.01905 -2.77649 0
M  V30 8644 N 824.78 1.49157 -0.508906 0
M  V30 8645 C 826.028 2.02073 0.0327335 0
M  V30 8646 C 826.349 1.39012 1.3675 0
M  V30 8647 O 825.619 0.548153 1.88075 0
M  V30 8648 H 824.199 0.746848 0.0150864 0
M  V30 8649 H 826.861 1.83097 -0.667946 0
M  V30 8650 H 825.957 3.11707 0.1566 0
M  V30 8651 N 826.258 0.243083 1.55714 0
M  V30 8652 C 827.205 -0.658078 2.21219 0
M  V30 8653 C 828.175 -1.1742 1.17481 0
M  V30 8654 O 829.36 -1.22937 1.45915 0
M  V30 8655 C 826.5 -1.85104 2.91257 0
M  V30 8656 C 825.613 -1.3718 4.09641 0
M  V30 8657 C 824.748 -2.52403 4.67404 0
M  V30 8658 C 823.787 -2.01321 5.78045 0
M  V30 8659 N 822.924 -3.09896 6.30007 0
M  V30 8660 H 827.764 -0.0927854 2.97856 0
M  V30 8661 H 825.301 -0.0340375 1.47061 0
M  V30 8662 H 827.259 -2.55179 3.3006 0
M  V30 8663 H 825.889 -2.38887 2.17101 0
M  V30 8664 H 824.941 -0.565232 3.76177 0
M  V30 8665 H 826.253 -0.957409 4.89525 0
M  V30 8666 H 825.407 -3.30525 5.08761 0
M  V30 8667 H 824.146 -2.97142 3.86728 0
M  V30 8668 H 823.151 -1.21667 5.36169 0
M  V30 8669 H 824.376 -1.57556 6.6057 0
M  V30 8670 H 822.322 -3.54077 5.52237 0
M  V30 8671 H 822.239 -2.72776 7.05074 0
M  V30 8672 H 823.507 -3.8809 6.76023 0
M  V30 8673 N 827.736 -1.57571 -0.0300757 0
M  V30 8674 C 828.984 -1.88852 -0.719666 0
M  V30 8675 C 829.305 -0.840645 -1.75949 0
M  V30 8676 O 828.575 0.125854 -1.95495 0
M  V30 8677 H 827.155 -0.696965 -0.268792 0
M  V30 8678 H 829.817 -1.949 0.00373285 0
M  V30 8679 H 828.913 -2.87695 -1.20987 0
M  V30 8680 N 829.214 0.302327 -1.54673 0
M  V30 8681 C 830.463 1.03533 -1.73101 0
M  V30 8682 C 830.776 1.88473 -0.523174 0
M  V30 8683 O 831.982 2.65029 -0.589229 0
M  V30 8684 C 830.438 1.89043 -3.06252 0
M  V30 8685 C 830.046 1.09112 -4.3451 0
M  V30 8686 C 831.79 2.61951 -3.34039 0
M  V30 8687 C 829.697 1.93891 -5.58713 0
M  V30 8688 H 828.627 0.390261 -0.645145 0
M  V30 8689 H 831.278 0.2924 -1.81155 0
M  V30 8690 H 829.66 2.67319 -2.92159 0
M  V30 8691 H 830.834 0.354596 -4.59434 0
M  V30 8692 H 829.149 0.477923 -4.13648 0
M  V30 8693 H 831.746 3.25729 -4.24033 0
M  V30 8694 H 832.089 3.30711 -2.52855 0
M  V30 8695 H 832.622 1.90725 -3.49097 0
M  V30 8696 H 829.361 1.29604 -6.4256 0
M  V30 8697 H 828.881 2.6522 -5.37976 0
M  V30 8698 H 830.56 2.51971 -5.95919 0
M  V30 8699 N 830.692 1.47107 0.565454 0
M  V30 8700 C 831.941 1.5257 1.31929 0
M  V30 8701 C 832.254 0.189092 1.94684 0
M  V30 8702 O 833.46 0.121657 2.71227 0
M  V30 8703 C 831.916 2.68914 2.39193 0
M  V30 8704 C 831.524 4.09069 1.82665 0
M  V30 8705 C 833.268 2.83663 3.1581 0
M  V30 8706 C 831.175 5.16726 2.87661 0
M  V30 8707 H 830.105 0.567869 0.496025 0
M  V30 8708 H 832.756 1.73361 0.60151 0
M  V30 8709 H 831.138 2.41486 3.13848 0
M  V30 8710 H 832.312 4.46364 1.14438 0
M  V30 8711 H 830.627 3.99135 1.1866 0
M  V30 8712 H 833.224 3.61261 3.94201 0
M  V30 8713 H 833.567 1.91804 3.69482 0
M  V30 8714 H 834.1 3.10821 2.48265 0
M  V30 8715 H 830.839 6.10433 2.38854 0
M  V30 8716 H 830.359 4.83957 3.54324 0
M  V30 8717 H 832.038 5.43319 3.51303 0
M  V30 8718 N 832.17 -0.811516 1.35101 0
M  V30 8719 C 833.447 -1.55491 1.18667 0
M  V30 8720 C 833.827 -2.09775 -0.236189 0
M  V30 8721 O 833.175 -1.91989 -1.23905 0
M  V30 8722 C 833.385 -2.66732 2.25067 0
M  V30 8723 C 834.733 -3.35201 2.60625 0
M  V30 8724 O 835.757 -2.76998 2.23943 0
M  V30 8725 O 834.616 -4.40334 3.23679 0
M  V30 8726 H 831.71 -0.686783 0.460716 0
M  V30 8727 H 834.256 -0.851903 1.46768 0
M  V30 8728 H 833.028 -2.24457 3.20523 0
M  V30 8729 H 832.651 -3.44673 1.98208 0
M  V30 8730 N 833.648 -1.19017 -1.03309 0
M  V30 8731 C 834.58 -0.881847 -2.11556 0
M  V30 8732 C 835.593 0.123711 -1.62329 0
M  V30 8733 O 836.782 -0.105141 -1.7819 0
M  V30 8734 C 833.882 -0.297634 -3.37591 0
M  V30 8735 C 833.055 -1.35072 -4.16022 0
M  V30 8736 C 832.114 -0.780812 -5.20375 0
M  V30 8737 O 831.14 -1.45745 -5.50224 0
M  V30 8738 N 832.342 0.417964 -5.78993 0
M  V30 8739 H 835.107 -1.81359 -2.38598 0
M  V30 8740 H 832.668 -1.0916 -1.19565 0
M  V30 8741 H 834.66 0.097374 -4.04583 0
M  V30 8742 H 833.23 0.538299 -3.0793 0
M  V30 8743 H 832.45 -1.92074 -3.4424 0
M  V30 8744 H 833.738 -2.06044 -4.65213 0
M  V30 8745 H 833.136 0.985281 -5.57054 0
M  V30 8746 H 831.693 0.754802 -6.47415 0
M  V30 8747 N 835.127 1.22348 -0.993418 0
M  V30 8748 C 836.352 1.95666 -0.687727 0
M  V30 8749 C 836.777 1.72883 0.741161 0
M  V30 8750 O 836.135 1.00837 1.50671 0
M  V30 8751 C 836.183 3.46457 -0.99998 0
M  V30 8752 O 835.287 4.12281 -0.0989386 0
M  V30 8753 H 834.628 0.612102 -0.257346 0
M  V30 8754 H 837.158 1.55428 -1.33054 0
M  V30 8755 H 837.168 3.96976 -0.942035 0
M  V30 8756 H 835.843 3.62365 -2.04118 0
M  V30 8757 H 834.42 3.72295 -0.212413 0
M  V30 8758 N 836.605 0.766683 1.37694 0
M  V30 8759 C 837.553 0.137269 2.32195 0
M  V30 8760 C 838.547 -0.69067 1.54681 0
M  V30 8761 O 839.753 -0.588299 1.70115 0
M  V30 8762 H 836.128 0.0256003 0.751564 0
M  V30 8763 H 838.099 0.950129 2.82869 0
M  V30 8764 C 836.848 -0.731446 3.39919 0
M  V30 8765 H 836.171 -0.103738 3.99665 0
M  V30 8766 H 837.611 -1.13891 4.08417 0
M  V30 8767 C 836.07 -1.87984 2.79578 0
M  V30 8768 O 836.6 -2.97496 2.69924 0
M  V30 8769 N 834.806 -1.6789 2.37195 0
M  V30 8770 H 834.353 -0.788162 2.45246 0
M  V30 8771 H 834.311 -2.44894 1.97165 0
M  V30 8772 N 838.083 -1.48885 0.516809 0
M  V30 8773 C 838.993 -2.33185 -0.257293 0
M  V30 8774 C 840.009 -1.4565 -0.951952 0
M  V30 8775 O 841.185 -1.78651 -0.929834 0
M  V30 8776 C 838.25 -3.21465 -1.29851 0
M  V30 8777 C 837.311 -4.24863 -0.615608 0
M  V30 8778 C 836.544 -5.08925 -1.60722 0
M  V30 8779 O 836.767 -4.9475 -2.83863 0
M  V30 8780 O 835.701 -5.90737 -1.15384 0
M  V30 8781 H 839.527 -3.00596 0.433131 0
M  V30 8782 H 837.112 -1.46792 0.277908 0
M  V30 8783 H 838.994 -3.76108 -1.90055 0
M  V30 8784 H 837.669 -2.5673 -1.97158 0
M  V30 8785 H 836.576 -3.74091 0.0265829 0
M  V30 8786 H 837.909 -4.92198 0.0152871 0
M  V30 8787 N 839.561 -0.251338 -1.55583 0
M  V30 8788 C 840.838 0.422729 -1.90977 0
M  V30 8789 C 841.218 1.75534 -1.17265 0
M  V30 8790 O 840.566 2.26632 -0.291588 0
M  V30 8791 C 840.776 0.586448 -3.44037 0
M  V30 8792 C 842.124 0.880294 -4.15375 0
M  V30 8793 O 843.148 0.672148 -3.49801 0
M  V30 8794 O 842.007 1.27694 -5.31372 0
M  V30 8795 H 839.101 0.227622 -0.795058 0
M  V30 8796 H 841.647 -0.295733 -1.67103 0
M  V30 8797 H 840.419 -0.352327 -3.89711 0
M  V30 8798 H 840.042 1.35528 -3.73789 0
M  V30 8799 N 841.039 1.57585 0.0217189 0
M  V30 8800 C 841.986 2.07036 1.02004 0
M  V30 8801 C 842.956 0.96106 1.35473 0
M  V30 8802 O 844.141 1.23211 1.45684 0
M  V30 8803 C 841.281 2.56056 2.31364 0
M  V30 8804 C 840.394 3.80805 2.03989 0
M  V30 8805 C 839.529 4.18409 3.27272 0
M  V30 8806 C 838.568 5.36055 2.95486 0
M  V30 8807 N 837.705 5.69056 4.11242 0
M  V30 8808 H 842.545 2.92073 0.591396 0
M  V30 8809 H 840.082 1.44403 0.280384 0
M  V30 8810 H 842.04 2.82548 3.06957 0
M  V30 8811 H 840.67 1.73925 2.71937 0
M  V30 8812 H 839.722 3.61354 1.1886 0
M  V30 8813 H 841.034 4.66512 1.76546 0
M  V30 8814 H 840.188 4.46068 4.11228 0
M  V30 8815 H 838.927 3.31369 3.57835 0
M  V30 8816 H 837.932 5.08142 2.09933 0
M  V30 8817 H 839.157 6.24755 2.66193 0
M  V30 8818 H 837.103 4.84974 4.41742 0
M  V30 8819 H 837.02 6.49288 3.87247 0
M  V30 8820 H 838.288 6.01295 4.96049 0
M  V30 8821 N 842.517 -0.29412 1.54831 0
M  V30 8822 C 843.928 -0.866651 1.65366 0
M  V30 8823 C 844.279 -1.87834 0.56681 0
M  V30 8824 O 843.404 -2.14374 -0.295389 0
M  V30 8825 C 843.999 -1.57869 2.99771 0
M  V30 8826 C 842.558 -2.09954 3.12404 0
M  V30 8827 C 841.705 -0.934492 2.6108 0
M  V30 8828 H 844.656 -0.0709551 1.58541 0
M  V30 8829 H 844.677 -2.44462 2.91579 0
M  V30 8830 H 844.189 -0.84212 3.78853 0
M  V30 8831 H 842.29 -2.86637 2.38055 0
M  V30 8832 H 842.403 -2.32934 4.18663 0
M  V30 8833 H 840.767 -1.32199 2.17705 0
M  V30 8834 H 841.55 -0.211768 3.42646 0
M  V30 8835 N 843.995 -1.47404 -0.557645 0
M  V30 8836 C 845.241 -1.55219 -1.31449 0
M  V30 8837 C 845.596 -0.211457 -1.91234 0
M  V30 8838 O 844.889 0.782795 -1.7488 0
M  V30 8839 C 845.083 -2.6061 -2.44575 0
M  V30 8840 C 844.912 -4.048 -1.95875 0
M  V30 8841 C 843.682 -4.72252 -1.79738 0
M  V30 8842 C 845.88 -4.91833 -1.50348 0
M  V30 8843 N 843.862 -6.00962 -1.25372 0
M  V30 8844 C 845.233 -6.10566 -1.07745 0
M  V30 8845 C 847.288 -4.78279 -1.38396 0
M  V30 8846 C 845.991 -7.17242 -0.543767 0
M  V30 8847 C 848.017 -5.8505 -0.864293 0
M  V30 8848 C 847.379 -7.02973 -0.44818 0
M  V30 8849 H 843.478 -0.622694 -0.47305 0
M  V30 8850 H 846.062 -1.84152 -0.632144 0
M  V30 8851 H 844.233 -2.33545 -3.10341 0
M  V30 8852 H 845.965 -2.5827 -3.11574 0
M  V30 8853 H 842.72 -4.28153 -2.0244 0
M  V30 8854 H 843.144 -6.69532 -1.00278 0
M  V30 8855 H 847.786 -3.87477 -1.69179 0
M  V30 8856 H 845.504 -8.07791 -0.223563 0
M  V30 8857 H 849.09 -5.7661 -0.775371 0
M  V30 8858 H 847.97 -7.84183 -0.0522964 0
M  V30 8859 N 845.473 0.80434 -1.35529 0
M  V30 8860 C 846.436 1.89788 -1.28503 0
M  V30 8861 C 847.436 1.59601 -0.195983 0
M  V30 8862 O 848.626 1.68292 -0.449827 0
M  V30 8863 C 845.758 3.26255 -0.98847 0
M  V30 8864 H 846.951 1.97436 -2.25741 0
M  V30 8865 H 844.504 1.00046 -1.20086 0
M  V30 8866 H 845.239 3.24294 -0.0200541 0
M  V30 8867 H 845.024 3.49551 -1.77641 0
M  V30 8868 H 846.514 4.06298 -0.964975 0
M  V30 8869 N 846.951 1.19563 1.02676 0
M  V30 8870 C 847.898 0.935291 2.11 0
M  V30 8871 C 848.868 -0.130685 1.65585 0
M  V30 8872 O 850.053 0.0119062 1.90796 0
M  V30 8873 C 847.193 0.482384 3.41712 0
M  V30 8874 C 846.306 1.61537 4.00662 0
M  V30 8875 C 845.441 1.11378 5.19392 0
M  V30 8876 C 844.48 2.22052 5.70403 0
M  V30 8877 N 843.617 1.73185 6.80405 0
M  V30 8878 H 848.457 1.86275 2.32606 0
M  V30 8879 H 845.994 0.928656 1.14081 0
M  V30 8880 H 847.952 0.20118 4.16715 0
M  V30 8881 H 846.582 -0.408086 3.2021 0
M  V30 8882 H 845.634 2.01173 3.22852 0
M  V30 8883 H 846.946 2.44912 4.34534 0
M  V30 8884 H 846.1 0.787935 6.01562 0
M  V30 8885 H 844.839 0.249789 4.8706 0
M  V30 8886 H 843.844 2.55465 4.86845 0
M  V30 8887 H 845.069 3.08911 6.04774 0
M  V30 8888 H 843.015 0.890973 6.49921 0
M  V30 8889 H 842.932 2.50148 7.13416 0
M  V30 8890 H 844.2 1.4357 7.66164 0
M  V30 8891 N 848.429 -1.21819 0.999893 0
M  V30 8892 C 849.654 -1.95298 0.698094 0
M  V30 8893 C 850.079 -1.73273 -0.731982 0
M  V30 8894 O 849.437 -1.01634 -1.50134 0
M  V30 8895 C 849.485 -3.45922 1.01834 0
M  V30 8896 O 848.589 -4.12223 0.120801 0
M  V30 8897 H 847.93 -0.610729 0.260588 0
M  V30 8898 H 850.46 -1.5472 1.33876 0
M  V30 8899 H 850.47 -3.96471 0.963074 0
M  V30 8900 H 849.145 -3.61278 2.06037 0
M  V30 8901 H 847.722 -3.72177 0.232153 0
M  V30 8902 N 849.908 -0.773975 -1.37286 0
M  V30 8903 C 850.84 -0.119938 -2.28886 0
M  V30 8904 C 851.853 0.661822 -1.48741 0
M  V30 8905 O 853.042 0.499548 -1.71367 0
M  V30 8906 C 850.142 0.853703 -3.27971 0
M  V30 8907 C 849.315 0.125286 -4.37221 0
M  V30 8908 C 848.374 1.01261 -5.16365 0
M  V30 8909 O 847.4 0.475565 -5.6721 0
M  V30 8910 N 848.602 2.33864 -5.31308 0
M  V30 8911 H 851.367 -0.906702 -2.85655 0
M  V30 8912 H 848.928 -0.626519 -1.49286 0
M  V30 8913 H 850.92 1.4508 -3.77801 0
M  V30 8914 H 849.49 1.54142 -2.71954 0
M  V30 8915 H 848.71 -0.652742 -3.88758 0
M  V30 8916 H 849.998 -0.377959 -5.07394 0
M  V30 8917 H 849.396 2.79929 -4.91585 0
M  V30 8918 H 847.953 2.88575 -5.84438 0
M  V30 8919 N 851.386 1.48609 -0.524698 0
M  V30 8920 C 852.632 2.02797 0.0113382 0
M  V30 8921 C 852.965 1.40147 1.34433 0
M  V30 8922 O 852.24 0.545368 1.86698 0
M  V30 8923 C 852.523 3.59832 0.138931 0
M  V30 8924 C 852.376 4.32971 -1.21886 0
M  V30 8925 C 853.695 4.3145 0.868265 0
M  V30 8926 H 850.814 0.736995 0.00264645 0
M  V30 8927 H 853.456 1.77388 -0.680704 0
M  V30 8928 H 851.606 3.81612 0.72834 0
M  V30 8929 H 853.278 4.22624 -1.84897 0
M  V30 8930 H 851.521 3.94597 -1.80211 0
M  V30 8931 H 852.192 5.41279 -1.08263 0
M  V30 8932 H 854.668 4.14468 0.368145 0
M  V30 8933 H 853.544 5.41025 0.926428 0
M  V30 8934 H 853.805 3.98358 1.91737 0
M  V30 8935 N 852.864 0.259585 1.55447 0
M  V30 8936 C 854.104 -0.362989 2.01151 0
M  V30 8937 C 854.468 -1.54201 1.14394 0
M  V30 8938 O 855.669 -2.23318 1.49608 0
M  V30 8939 C 853.94 -0.750399 3.49434 0
M  V30 8940 S 855.499 -1.3617 4.17137 0
M  V30 8941 H 852.317 -0.11365 0.701858 0
M  V30 8942 H 854.919 0.377788 1.91815 0
M  V30 8943 H 853.623 0.116807 4.10234 0
M  V30 8944 H 853.154 -1.52303 3.62722 0
M  V30 8945 H 855.169 -2.65059 4.19474 0
M  V30 8946 N 854.342 -1.57594 -0.0133615 0
M  V30 8947 C 855.274 -2.04402 -1.03695 0
M  V30 8948 C 856.287 -0.959546 -1.31516 0
M  V30 8949 O 857.476 -1.23659 -1.28727 0
M  V30 8950 C 854.576 -2.41766 -2.37491 0
M  V30 8951 C 853.749 -3.72785 -2.28802 0
M  V30 8952 C 852.808 -3.97165 -3.45176 0
M  V30 8953 O 851.834 -4.68013 -3.23963 0
M  V30 8954 N 853.036 -3.44021 -4.67579 0
M  V30 8955 H 855.801 -2.92833 -0.637874 0
M  V30 8956 H 853.362 -1.60647 -0.20101 0
M  V30 8957 H 855.354 -2.55201 -3.14093 0
M  V30 8958 H 853.924 -1.58924 -2.69188 0
M  V30 8959 H 853.144 -3.69555 -1.37197 0
M  V30 8960 H 854.432 -4.58704 -2.20154 0
M  V30 8961 H 853.83 -2.86623 -4.87713 0
M  V30 8962 H 852.387 -3.62808 -5.41492 0
M  V30 8963 N 855.82 0.285905 -1.54985 0
M  V30 8964 C 857.048 1.03776 -1.78992 0
M  V30 8965 C 857.463 1.80402 -0.556814 0
M  V30 8966 O 856.82 1.76242 0.473801 0
M  V30 8967 C 856.871 2.0065 -3.00702 0
M  V30 8968 O 856.592 1.27131 -4.19249 0
M  V30 8969 C 858.093 2.87753 -3.37214 0
M  V30 8970 H 855.313 0.307126 -0.596586 0
M  V30 8971 H 857.857 0.3206 -2.01971 0
M  V30 8972 H 856.012 2.67847 -2.79887 0
M  V30 8973 H 856.426 1.92316 -4.8797 0
M  V30 8974 H 857.9 3.51548 -4.2558 0
M  V30 8975 H 858.377 3.56848 -2.56039 0
M  V30 8976 H 858.983 2.26065 -3.60242 0
M  V30 8977 N 857.298 1.47698 0.54982 0
M  V30 8978 C 858.231 1.55288 1.67215 0
M  V30 8979 C 859.209 0.404533 1.57487 0
M  V30 8980 O 860.393 0.613372 1.78241 0
M  V30 8981 C 857.52 1.46233 3.05505 0
M  V30 8982 C 856.566 2.65662 3.33655 0
M  V30 8983 S 857.399 4.278 3.22098 0
M  V30 8984 C 858.555 4.21311 4.62869 0
M  V30 8985 H 858.788 2.50238 1.60524 0
M  V30 8986 H 856.321 1.35987 0.731227 0
M  V30 8987 H 858.279 1.41696 3.85269 0
M  V30 8988 H 856.94 0.526543 3.09655 0
M  V30 8989 H 856.133 2.55411 4.3449 0
M  V30 8990 H 855.735 2.67359 2.61524 0
M  V30 8991 H 858.027 3.90021 5.53977 0
M  V30 8992 H 858.97 5.22257 4.78177 0
M  V30 8993 H 859.378 3.52063 4.41262 0
M  V30 8994 N 858.776 -0.797141 1.35954 0
M  V30 8995 C 860.025 -1.54983 1.29086 0
M  V30 8996 C 860.338 -1.95167 -0.130003 0
M  V30 8997 O 861.544 -2.69596 -0.32101 0
M  V30 8998 C 860 -2.79738 2.26439 0
M  V30 8999 C 859.608 -2.46753 3.73921 0
M  V30 9000 C 861.352 -3.57733 2.28533 0
M  V30 9001 C 859.259 -3.67858 4.63071 0
M  V30 9002 H 858.189 -0.581766 0.479651 0
M  V30 9003 H 860.84 -0.87541 1.61273 0
M  V30 9004 H 859.222 -3.48939 1.87236 0
M  V30 9005 H 860.396 -1.85499 4.21814 0
M  V30 9006 H 858.711 -1.81985 3.74527 0
M  V30 9007 H 861.308 -4.47699 2.92351 0
M  V30 9008 H 861.651 -3.95754 1.29169 0
M  V30 9009 H 862.184 -2.95504 2.66313 0
M  V30 9010 H 858.923 -3.34939 5.63468 0
M  V30 9011 H 858.443 -4.28305 4.19898 0
M  V30 9012 H 860.122 -4.34977 4.78961 0
M  V30 9013 N 860.254 -1.20106 -1.0204 0
M  V30 9014 C 861.201 -0.946468 -2.10501 0
M  V30 9015 C 862.171 0.121902 -1.65652 0
M  V30 9016 O 863.356 -0.0220244 -1.90787 0
M  V30 9017 C 860.496 -0.500499 -3.41451 0
M  V30 9018 C 859.609 -1.63659 -3.998 0
M  V30 9019 C 858.744 -1.14131 -5.18794 0
M  V30 9020 C 857.783 -2.25074 -5.69217 0
M  V30 9021 N 856.92 -1.76791 -6.79477 0
M  V30 9022 H 861.76 -1.87506 -2.31615 0
M  V30 9023 H 859.297 -0.934693 -1.13587 0
M  V30 9024 H 861.255 -0.223276 -4.16602 0
M  V30 9025 H 859.885 0.391099 -3.20422 0
M  V30 9026 H 858.937 -2.02882 -3.21781 0
M  V30 9027 H 860.249 -2.47213 -4.33229 0
M  V30 9028 H 859.403 -0.819826 -6.01135 0
M  V30 9029 H 858.142 -0.275615 -4.86921 0
M  V30 9030 H 857.147 -2.58043 -4.85483 0
M  V30 9031 H 858.372 -3.12114 -6.03127 0
M  V30 9032 H 856.318 -0.925428 -6.4944 0
M  V30 9033 H 856.235 -2.53928 -7.12079 0
M  V30 9034 H 857.503 -1.47631 -7.65392 0
M  V30 9035 N 861.732 1.21287 -1.00634 0
M  V30 9036 C 862.642 2.27388 -0.577226 0
M  V30 9037 C 863.658 1.69791 0.380399 0
M  V30 9038 O 864.834 1.99918 0.2439 0
M  V30 9039 C 861.899 3.46588 0.0880532 0
M  V30 9040 C 860.96 4.19453 -0.914222 0
M  V30 9041 C 860.193 5.32962 -0.280596 0
M  V30 9042 O 860.416 5.62895 0.922265 0
M  V30 9043 O 859.35 5.93666 -0.992196 0
M  V30 9044 H 863.176 2.66289 -1.46028 0
M  V30 9045 H 860.761 1.2771 -0.775283 0
M  V30 9046 H 862.643 4.18881 0.460094 0
M  V30 9047 H 861.318 3.09585 0.945461 0
M  V30 9048 H 860.225 3.49376 -1.33744 0
M  V30 9049 H 861.558 4.6037 -1.74126 0
M  V30 9050 N 863.21 0.781244 1.36873 0
M  V30 9051 C 864.458 0.349198 1.9906 0
M  V30 9052 C 864.779 -1.0806 1.62321 0
M  V30 9053 O 864.049 -1.74351 0.893229 0
M  V30 9054 H 862.629 0.126126 0.736275 0
M  V30 9055 H 865.291 1.00148 1.67202 0
M  V30 9056 H 864.387 0.434451 3.09061 0
M  V30 9057 N 864.689 -1.48329 0.532571 0
M  V30 9058 C 865.636 -2.29663 -0.228779 0
M  V30 9059 C 866.606 -1.37529 -0.931401 0
M  V30 9060 O 867.791 -1.66493 -0.931921 0
M  V30 9061 C 864.931 -3.20955 -1.26814 0
M  V30 9062 C 864.044 -4.28168 -0.574099 0
M  V30 9063 C 863.179 -5.06638 -1.59661 0
M  V30 9064 C 862.218 -6.05651 -0.88618 0
M  V30 9065 N 861.355 -6.77169 -1.85436 0
M  V30 9066 H 866.195 -2.94255 0.47098 0
M  V30 9067 H 863.732 -1.45061 0.2441 0
M  V30 9068 H 865.69 -3.72285 -1.88307 0
M  V30 9069 H 864.32 -2.58281 -1.93625 0
M  V30 9070 H 863.372 -3.80085 0.154827 0
M  V30 9071 H 864.684 -4.98797 -0.0163984 0
M  V30 9072 H 863.838 -5.61995 -2.28576 0
M  V30 9073 H 862.577 -4.35854 -2.18821 0
M  V30 9074 H 861.582 -5.49495 -0.182981 0
M  V30 9075 H 862.807 -6.78434 -0.300659 0
M  V30 9076 H 860.753 -6.09134 -2.43499 0
M  V30 9077 H 860.67 -7.43882 -1.34816 0
M  V30 9078 H 861.938 -7.37114 -2.53541 0
M  V30 9079 N 866.167 -0.267825 -1.55308 0
M  V30 9080 C 867.413 0.351556 -1.9973 0
M  V30 9081 C 867.746 1.56049 -1.15596 0
M  V30 9082 O 867.021 1.93203 -0.224274 0
M  V30 9083 C 867.304 0.74091 -3.52395 0
M  V30 9084 C 867.157 -0.474861 -4.47286 0
M  V30 9085 C 868.476 1.5801 -4.10756 0
M  V30 9086 H 865.595 0.126308 -0.726096 0
M  V30 9087 H 868.237 -0.373316 -1.86296 0
M  V30 9088 H 866.387 1.35851 -3.63973 0
M  V30 9089 H 868.059 -1.1134 -4.47662 0
M  V30 9090 H 866.302 -1.11425 -4.19246 0
M  V30 9091 H 866.973 -0.158782 -5.51772 0
M  V30 9092 H 869.449 1.05857 -4.0241 0
M  V30 9093 H 868.325 1.82135 -5.17801 0
M  V30 9094 H 868.586 2.55878 -3.60526 0
M  V30 9095 N 867.645 1.57599 0.00500368 0
M  V30 9096 C 868.608 2.07058 0.982832 0
M  V30 9097 C 869.608 0.979045 1.27559 0
M  V30 9098 O 870.798 1.24187 1.22161 0
M  V30 9099 C 867.93 2.50782 2.30914 0
M  V30 9100 H 869.123 2.94718 0.555119 0
M  V30 9101 H 866.676 1.54249 0.25237 0
M  V30 9102 H 867.411 1.66351 2.78385 0
M  V30 9103 H 867.196 3.30495 2.10987 0
M  V30 9104 H 868.686 2.89391 3.0107 0
M  V30 9105 N 869.123 -0.277682 1.55134 0
M  V30 9106 C 870.4 -1.0309 1.66228 0
M  V30 9107 C 870.78 -2.0445 0.525701 0
M  V30 9108 O 870.128 -2.23512 -0.474816 0
M  V30 9109 C 870.338 -1.6919 3.05247 0
M  V30 9110 C 871.686 -2.20526 3.62841 0
M  V30 9111 O 872.71 -1.79185 3.07849 0
M  V30 9112 O 871.569 -2.96342 4.59177 0
M  V30 9113 H 868.663 -0.4779 0.674937 0
M  V30 9114 H 871.209 -0.273912 1.67475 0
M  V30 9115 H 869.981 -0.957163 3.79413 0
M  V30 9116 H 869.604 -2.51587 3.07879 0
M  V30 9117 N 870.601 -1.47988 -0.541979 0
M  V30 9118 C 871.534 -1.56172 -1.66389 0
M  V30 9119 C 872.512 -0.412879 -1.57271 0
M  V30 9120 O 873.696 -0.622816 -1.77914 0
M  V30 9121 C 870.823 -1.47851 -3.04726 0
M  V30 9122 C 869.869 -2.67428 -3.32242 0
M  V30 9123 S 870.702 -4.29502 -3.19825 0
M  V30 9124 C 871.858 -4.2376 -4.60628 0
M  V30 9125 H 872.091 -2.51086 -1.59195 0
M  V30 9126 H 869.624 -1.36373 -0.724005 0
M  V30 9127 H 871.582 -1.43738 -3.84512 0
M  V30 9128 H 870.243 -0.542958 -3.09372 0
M  V30 9129 H 869.436 -2.57711 -4.33129 0
M  V30 9130 H 869.038 -2.68743 -2.60103 0
M  V30 9131 H 871.33 -3.92953 -5.51901 0
M  V30 9132 H 872.273 -5.24786 -4.75401 0
M  V30 9133 H 872.681 -3.54398 -4.39389 0
M  V30 9134 N 872.079 0.78992 -1.36375 0
M  V30 9135 C 872.989 1.93386 -1.32812 0
M  V30 9136 C 874.005 1.72468 -0.230377 0
M  V30 9137 O 875.181 1.96014 -0.462657 0
M  V30 9138 C 872.246 3.2824 -1.11621 0
M  V30 9139 C 871.307 3.61939 -2.30865 0
M  V30 9140 C 870.54 4.90359 -2.10675 0
M  V30 9141 O 870.763 5.6005 -1.08168 0
M  V30 9142 O 869.697 5.22702 -2.9844 0
M  V30 9143 H 873.523 1.99342 -2.29121 0
M  V30 9144 H 871.108 0.9301 -1.16917 0
M  V30 9145 H 872.99 4.08939 -1.01719 0
M  V30 9146 H 871.665 3.23178 -0.183732 0
M  V30 9147 H 870.572 2.81549 -2.46335 0
M  V30 9148 H 871.905 3.71725 -3.22617 0
M  V30 9149 N 873.557 1.20646 1.01402 0
M  V30 9150 C 874.507 0.925209 2.08384 0
M  V30 9151 C 875.491 -0.115994 1.60481 0
M  V30 9152 O 876.683 0.0917276 1.76762 0
M  V30 9153 C 873.812 0.48193 3.399 0
M  V30 9154 C 872.898 1.5567 3.94497 0
M  V30 9155 N 873.289 2.77971 4.2257 0
M  V30 9156 C 871.587 1.42347 4.22674 0
M  V30 9157 C 872.288 3.47317 4.66632 0
M  V30 9158 N 871.264 2.74736 4.69064 0
M  V30 9159 H 875.066 1.85452 2.28002 0
M  V30 9160 H 872.58 1.10084 1.19395 0
M  V30 9161 H 874.577 0.261835 4.16077 0
M  V30 9162 H 873.237 -0.440725 3.21695 0
M  V30 9163 H 874.248 3.14598 4.11398 0
M  V30 9164 H 870.925 0.565417 4.13654 0
M  V30 9165 H 872.315 4.51985 4.97151 0
M  V30 9166 N 875.035 -1.20752 1.01276 0
M  V30 9167 C 875.965 -2.25658 0.600064 0
M  V30 9168 C 876.946 -1.65733 -0.38298 0
M  V30 9169 O 878.131 -1.92324 -0.269256 0
M  V30 9170 C 875.261 -3.47237 -0.0663197 0
M  V30 9171 C 874.215 -4.1973 0.83731 0
M  V30 9172 C 873.541 -5.34687 0.0369102 0
M  V30 9173 C 874.841 -4.76286 2.14357 0
M  V30 9174 H 876.535 -2.60432 1.477 0
M  V30 9175 H 874.081 -1.25187 0.711634 0
M  V30 9176 H 876.034 -4.19803 -0.366563 0
M  V30 9177 H 874.758 -3.11615 -0.977944 0
M  V30 9178 H 873.417 -3.49024 1.1215 0
M  V30 9179 H 873.065 -4.95309 -0.876244 0
M  V30 9180 H 872.765 -5.84119 0.63865 0
M  V30 9181 H 874.289 -6.10059 -0.256968 0
M  V30 9182 H 875.703 -5.40691 1.90595 0
M  V30 9183 H 874.1 -5.36139 2.69583 0
M  V30 9184 H 875.17 -3.9524 2.80916 0
M  V30 9185 N 876.513 -0.788492 -1.36457 0
M  V30 9186 C 877.924 -0.423742 -1.81828 0
M  V30 9187 C 878.275 1.05221 -1.65599 0
M  V30 9188 O 877.4 1.8163 -1.17641 0
M  V30 9189 C 877.995 -0.762354 -3.30112 0
M  V30 9190 C 876.554 -0.450445 -3.73695 0
M  V30 9191 C 875.701 -0.997482 -2.58738 0
M  V30 9192 H 878.652 -0.981718 -1.24692 0
M  V30 9193 H 878.673 -0.0531136 -3.80463 0
M  V30 9194 H 878.185 -1.83662 -3.41891 0
M  V30 9195 H 876.286 0.615829 -3.67476 0
M  V30 9196 H 876.399 -0.970408 -4.69169 0
M  V30 9197 H 874.763 -0.420761 -2.51201 0
M  V30 9198 H 875.546 -2.07749 -2.73304 0
M  V30 9199 N 877.991 1.48044 -0.54043 0
M  V30 9200 C 879.216 2.07396 -0.0124765 0
M  V30 9201 C 879.641 1.39288 1.26414 0
M  V30 9202 O 878.999 0.462252 1.75308 0
M  V30 9203 C 879.047 3.60131 0.18377 0
M  V30 9204 O 878.151 3.92995 1.25014 0
M  V30 9205 H 877.492 0.662554 -0.0438026 0
M  V30 9206 H 880.022 1.90306 -0.751327 0
M  V30 9207 H 880.032 4.06003 0.403197 0
M  V30 9208 H 878.707 4.09105 -0.74874 0
M  V30 9209 H 877.284 3.5889 1.01254 0
M  V30 9210 N 879.47 0.276058 1.55163 0
M  V30 9211 C 880.7 -0.343274 2.03728 0
M  V30 9212 C 881.108 -1.49945 1.15383 0
M  V30 9213 O 880.451 -1.82942 0.166696 0
M  V30 9214 C 880.513 -0.885683 3.48419 0
M  V30 9215 C 880.177 0.141976 4.56779 0
M  V30 9216 C 881.174 0.961816 5.10926 0
M  V30 9217 C 878.859 0.276487 5.01538 0
M  V30 9218 C 880.853 1.90234 6.0835 0
M  V30 9219 C 878.54 1.22049 5.98788 0
M  V30 9220 C 879.538 2.03192 6.52075 0
M  V30 9221 O 879.226 2.95996 7.47423 0
M  V30 9222 H 878.958 -0.0822192 0.670981 0
M  V30 9223 H 881.512 0.406199 2.01343 0
M  V30 9224 H 879.742 -1.68524 3.48047 0
M  V30 9225 H 881.431 -1.4182 3.80318 0
M  V30 9226 H 882.197 0.868637 4.77158 0
M  V30 9227 H 878.076 -0.345095 4.59707 0
M  V30 9228 H 881.62 2.5361 6.49867 0
M  V30 9229 H 877.517 1.31448 6.31974 0
M  V30 9230 H 878.285 2.90688 7.65142 0
M  V30 9231 N 880.948 -1.576 0.00335426 0
M  V30 9232 C 882.195 -1.90713 -0.680791 0
M  V30 9233 C 882.523 -0.877263 -1.73592 0
M  V30 9234 O 881.778 0.117497 -1.95347 0
M  V30 9235 C 882.077 -3.3058 -1.35837 0
M  V30 9236 C 881.743 -4.48786 -0.436111 0
M  V30 9237 C 880.405 -4.80855 -0.182195 0
M  V30 9238 C 882.757 -5.20821 0.198677 0
M  V30 9239 C 880.085 -5.8233 0.714747 0
M  V30 9240 C 882.437 -6.23252 1.08351 0
M  V30 9241 C 881.101 -6.53776 1.34658 0
M  V30 9242 H 880.371 -0.697869 -0.249119 0
M  V30 9243 H 883.018 -1.91407 0.0596011 0
M  V30 9244 H 881.323 -3.26026 -2.17289 0
M  V30 9245 H 883.02 -3.53462 -1.89383 0
M  V30 9246 H 879.61 -4.23731 -0.644186 0
M  V30 9247 H 883.794 -4.96298 0.0155259 0
M  V30 9248 H 879.05 -6.04339 0.926529 0
M  V30 9249 H 883.224 -6.78199 1.58172 0
M  V30 9250 H 880.851 -7.32225 2.04328 0
M  V30 9251 N 882.426 0.269451 -1.5528 0
M  V30 9252 C 883.674 0.998604 -1.75705 0
M  V30 9253 C 883.995 1.86691 -0.563175 0
M  V30 9254 O 883.265 1.91305 0.421811 0
M  V30 9255 H 881.845 0.371698 -0.647958 0
M  V30 9256 H 884.507 0.292826 -1.92688 0
M  V30 9257 H 883.603 1.63348 -2.6594 0
M  V30 9258 N 883.904 1.48273 0.534124 0
M  V30 9259 C 884.836 1.5857 1.65494 0
M  V30 9260 C 885.849 0.470266 1.5586 0
M  V30 9261 O 887.038 0.740928 1.62396 0
M  V30 9262 C 884.138 1.49554 3.04117 0
M  V30 9263 C 883.311 2.76066 3.39273 0
M  V30 9264 C 882.37 2.60562 4.57159 0
M  V30 9265 O 881.396 3.34438 4.60587 0
M  V30 9266 N 882.598 1.69906 5.55079 0
M  V30 9267 H 885.363 2.55226 1.57099 0
M  V30 9268 H 882.924 1.44944 0.721303 0
M  V30 9269 H 884.916 1.36882 3.80848 0
M  V30 9270 H 883.486 0.608895 3.06613 0
M  V30 9271 H 882.706 3.03332 2.51761 0
M  V30 9272 H 883.994 3.60006 3.59546 0
M  V30 9273 H 883.392 1.09079 5.55084 0
M  V30 9274 H 881.949 1.63175 6.31044 0
M  V30 9275 N 885.382 -0.782676 1.36792 0
M  V30 9276 C 886.292 -1.92679 1.33835 0
M  V30 9277 C 887.308 -1.72344 0.23952 0
M  V30 9278 O 888.484 -1.95766 0.473045 0
M  V30 9279 C 885.549 -3.27644 1.1336 0
M  V30 9280 C 884.61 -3.6071 2.32781 0
M  V30 9281 C 883.843 -4.89234 2.13273 0
M  V30 9282 O 884.066 -5.59468 1.11136 0
M  V30 9283 O 883 -5.21112 3.01208 0
M  V30 9284 H 886.826 -1.98124 2.30175 0
M  V30 9285 H 884.411 -0.923887 1.17408 0
M  V30 9286 H 886.293 -4.08394 1.03886 0
M  V30 9287 H 884.968 -3.23076 0.200868 0
M  V30 9288 H 883.875 -2.80238 2.47825 0
M  V30 9289 H 885.208 -3.70008 3.24584 0
M  V30 9290 N 886.86 -1.21182 -1.00761 0
M  V30 9291 C 888.106 -1.02898 -1.74756 0
M  V30 9292 C 888.439 0.436774 -1.89225 0
M  V30 9293 O 887.714 1.32415 -1.42466 0
M  V30 9294 C 887.997 -1.72372 -3.16164 0
M  V30 9295 C 887.85 -3.2645 -3.09435 0
M  V30 9296 C 889.169 -1.46415 -4.15031 0
M  V30 9297 H 886.288 -0.375214 -0.634337 0
M  V30 9298 H 888.93 -1.49321 -1.17487 0
M  V30 9299 H 887.08 -1.32906 -3.65059 0
M  V30 9300 H 888.752 -3.75269 -2.68274 0
M  V30 9301 H 886.995 -3.56889 -2.46603 0
M  V30 9302 H 887.666 -3.70226 -4.09435 0
M  V30 9303 H 890.142 -1.80671 -3.7483 0
M  V30 9304 H 889.018 -1.97544 -5.12121 0
M  V30 9305 H 889.279 -0.39361 -4.40344 0
M  V30 9306 N 888.338 1.20213 -1.01915 0
M  V30 9307 C 889.563 1.94163 -0.729076 0
M  V30 9308 C 889.988 1.74416 0.704323 0
M  V30 9309 O 889.346 1.0401 1.48498 0
M  V30 9310 C 889.394 3.44258 -1.07324 0
M  V30 9311 O 888.498 4.11979 -0.186367 0
M  V30 9312 H 887.839 0.606506 -0.270272 0
M  V30 9313 H 890.369 1.52571 -1.3632 0
M  V30 9314 H 890.379 3.94888 -1.02603 0
M  V30 9315 H 889.054 3.57954 -2.11759 0
M  V30 9316 H 887.631 3.7176 -0.291334 0
M  V30 9317 N 889.816 0.795718 1.36037 0
M  V30 9318 C 890.763 0.196548 2.29962 0
M  V30 9319 C 891.733 -0.663213 1.52285 0
M  V30 9320 O 892.918 -0.610574 1.80767 0
M  V30 9321 C 890.058 -0.657639 3.38776 0
M  V30 9322 C 889.171 0.221358 4.31433 0
M  V30 9323 C 888.306 -0.6398 5.27333 0
M  V30 9324 C 887.345 0.240265 6.11628 0
M  V30 9325 N 886.482 -0.580237 6.99698 0
M  V30 9326 H 891.322 1.00295 2.80615 0
M  V30 9327 H 888.859 0.506147 1.38118 0
M  V30 9328 H 890.817 -1.16793 4.00519 0
M  V30 9329 H 889.447 -1.42941 2.89426 0
M  V30 9330 H 888.499 0.84967 3.70789 0
M  V30 9331 H 889.811 0.899195 4.90628 0
M  V30 9332 H 888.965 -1.21566 5.94396 0
M  V30 9333 H 887.704 -1.35124 4.68607 0
M  V30 9334 H 886.709 0.828474 5.43522 0
M  V30 9335 H 887.934 0.949403 6.72431 0
M  V30 9336 H 885.88 -1.27585 6.43473 0
M  V30 9337 H 885.797 0.0397853 7.5599 0
M  V30 9338 H 887.065 -1.13972 7.71123 0
M  V30 9339 N 891.294 -1.47756 0.548274 0
M  V30 9340 C 892.224 -2.32702 -0.19284 0
M  V30 9341 C 893.205 -1.43237 -0.917457 0
M  V30 9342 O 894.39 -1.72103 -0.89967 0
M  V30 9343 C 891.52 -3.24831 -1.22891 0
M  V30 9344 C 890.474 -4.23466 -0.621312 0
M  V30 9345 C 889.8 -5.04856 -1.76137 0
M  V30 9346 C 891.1 -5.20616 0.419055 0
M  V30 9347 H 892.794 -2.94914 0.516323 0
M  V30 9348 H 890.34 -1.41818 0.24975 0
M  V30 9349 H 892.293 -3.83094 -1.75547 0
M  V30 9350 H 891.017 -2.60656 -1.9679 0
M  V30 9351 H 889.676 -3.66416 -0.116123 0
M  V30 9352 H 889.324 -4.37091 -2.48918 0
M  V30 9353 H 889.024 -5.71629 -1.36065 0
M  V30 9354 H 890.548 -5.65976 -2.29136 0
M  V30 9355 H 891.962 -5.73296 -0.0211034 0
M  V30 9356 H 890.359 -5.95543 0.738163 0
M  V30 9357 H 891.429 -4.66638 1.31822 0
M  V30 9358 N 892.772 -0.284283 -1.55015 0
M  V30 9359 C 894.018 0.330352 -2.00091 0
M  V30 9360 C 894.351 1.54814 -1.17244 0
M  V30 9361 O 893.626 1.92954 -0.244753 0
M  V30 9362 C 893.909 0.703492 -3.53161 0
M  V30 9363 C 893.762 -0.522275 -4.46758 0
M  V30 9364 C 895.081 1.53645 -4.12409 0
M  V30 9365 H 892.2 0.118599 -0.727395 0
M  V30 9366 H 894.842 -0.393054 -1.8589 0
M  V30 9367 H 892.992 1.31983 -3.65394 0
M  V30 9368 H 894.664 -1.16082 -4.46456 0
M  V30 9369 H 892.907 -1.15865 -4.1804 0
M  V30 9370 H 893.578 -0.217295 -5.51572 0
M  V30 9371 H 896.054 1.01583 -4.0351 0
M  V30 9372 H 894.93 1.76633 -5.19704 0
M  V30 9373 H 895.191 2.5204 -3.63219 0
M  V30 9374 N 894.251 1.57596 -0.0117121 0
M  V30 9375 C 895.198 2.09153 0.975897 0
M  V30 9376 C 896.168 0.989579 1.33404 0
M  V30 9377 O 897.353 1.26273 1.43038 0
M  V30 9378 C 894.493 2.60906 2.2588 0
M  V30 9379 C 893.606 3.85046 1.95866 0
M  V30 9380 C 892.741 4.25257 3.18323 0
M  V30 9381 C 891.78 5.42202 2.84049 0
M  V30 9382 N 890.917 5.77651 3.99079 0
M  V30 9383 H 895.757 2.93261 0.52931 0
M  V30 9384 H 893.294 1.44965 0.249691 0
M  V30 9385 H 895.252 2.88995 3.00895 0
M  V30 9386 H 893.882 1.79654 2.68187 0
M  V30 9387 H 892.934 3.63794 1.11168 0
M  V30 9388 H 894.246 4.70151 1.66611 0
M  V30 9389 H 893.4 4.5469 4.01674 0
M  V30 9390 H 892.139 3.38884 3.50726 0
M  V30 9391 H 891.144 5.1248 1.99107 0
M  V30 9392 H 892.369 6.3026 2.52881 0
M  V30 9393 H 890.315 4.94235 4.31356 0
M  V30 9394 H 890.232 6.57356 3.73388 0
M  V30 9395 H 891.5 6.11681 4.83183 0
M  V30 9396 N 895.729 -0.261212 1.5542 0
M  V30 9397 C 896.692 -1.30645 1.8832 0
M  V30 9398 C 897.692 -1.41782 0.758588 0
M  V30 9399 O 898.882 -1.40729 1.02669 0
M  V30 9400 C 896.014 -2.6862 2.09895 0
M  V30 9401 H 897.207 -1.02698 2.81768 0
M  V30 9402 H 894.76 -0.499838 1.48092 0
M  V30 9403 H 895.495 -3.0173 1.18868 0
M  V30 9404 H 895.28 -2.61921 2.91787 0
M  V30 9405 H 896.77 -3.44121 2.36581 0
M  V30 9406 N 897.207 -1.48554 -0.526253 0
M  V30 9407 C 898.157 -1.59753 -1.62674 0
M  V30 9408 C 899.141 -0.454452 -1.54349 0
M  V30 9409 O 900.333 -0.706091 -1.62306 0
M  V30 9410 C 897.462 -1.64388 -3.01383 0
M  V30 9411 C 896.548 -2.84188 -3.14798 0
M  V30 9412 N 896.939 -4.08564 -2.98176 0
M  V30 9413 C 895.237 -2.81599 -3.45859 0
M  V30 9414 C 895.938 -4.88961 -3.15106 0
M  V30 9415 N 894.914 -4.21848 -3.42849 0
M  V30 9416 H 898.716 -2.5366 -1.48438 0
M  V30 9417 H 896.23 -1.44977 -0.731801 0
M  V30 9418 H 898.227 -1.70505 -3.80439 0
M  V30 9419 H 896.887 -0.716006 -3.16707 0
M  V30 9420 H 897.898 -4.38943 -2.74862 0
M  V30 9421 H 894.575 -1.98083 -3.67518 0
M  V30 9422 H 895.965 -5.97683 -3.0696 0
M  V30 9423 N 898.685 0.775411 -1.37205 0
M  V30 9424 C 899.933 1.53081 -1.3195 0
M  V30 9425 C 900.254 1.9476 0.0966864 0
M  V30 9426 O 899.524 1.66019 1.03993 0
M  V30 9427 H 898.104 0.567762 -0.485444 0
M  V30 9428 H 900.766 0.92309 -1.71654 0
M  V30 9429 H 899.862 2.4319 -1.95614 0
M  V30 9430 N 900.163 1.21714 1.00117 0
M  V30 9431 C 901.412 1.03087 1.73367 0
M  V30 9432 C 901.725 -0.435532 1.90689 0
M  V30 9433 O 902.931 -0.741291 2.61184 0
M  V30 9434 C 901.387 1.79593 3.11888 0
M  V30 9435 C 900.995 3.30428 3.02525 0
M  V30 9436 C 902.739 1.69386 3.89241 0
M  V30 9437 C 900.646 3.99408 4.3615 0
M  V30 9438 H 899.576 0.382117 0.650002 0
M  V30 9439 H 902.227 1.45486 1.11831 0
M  V30 9440 H 900.609 1.29988 3.74058 0
M  V30 9441 H 901.783 3.87364 2.49571 0
M  V30 9442 H 900.098 3.4122 2.38659 0
M  V30 9443 H 902.695 2.18251 4.8813 0
M  V30 9444 H 903.038 0.652773 4.1115 0
M  V30 9445 H 903.571 2.16489 3.33733 0
M  V30 9446 H 900.31 5.03735 4.19442 0
M  V30 9447 H 899.83 3.47261 4.8905 0
M  V30 9448 H 901.509 4.04537 5.04934 0
M  V30 9449 N 901.641 -1.19671 1.02551 0
M  V30 9450 C 902.918 -1.85014 0.634771 0
M  V30 9451 C 903.298 -1.91574 -0.886706 0
M  V30 9452 O 902.646 -1.43022 -1.78205 0
M  V30 9453 C 902.856 -3.24167 1.29292 0
M  V30 9454 C 904.204 -4.00363 1.41402 0
M  V30 9455 O 905.228 -3.33553 1.24983 0
M  V30 9456 O 904.087 -5.2003 1.6802 0
M  V30 9457 H 901.181 -0.797147 0.220196 0
M  V30 9458 H 903.727 -1.27188 1.12345 0
M  V30 9459 H 902.499 -3.14208 2.33215 0
M  V30 9460 H 902.122 -3.89634 0.791895 0
M  V30 9461 N 903.119 -0.802921 -1.35613 0
M  V30 9462 C 904.535 -0.486214 -1.52014 0
M  V30 9463 C 904.735 0.993219 -1.75321 0
M  V30 9464 O 903.791 1.77835 -1.79251 0
M  V30 9465 C 905.104 -1.32839 -2.69767 0
M  V30 9466 C 906.652 -1.32346 -2.83643 0
M  V30 9467 C 907.127 -2.14967 -4.04417 0
M  V30 9468 N 908.618 -2.12484 -4.11588 0
M  V30 9469 C 909.353 -2.73173 -5.04147 0
M  V30 9470 N 908.849 -3.42774 -6.02061 0
M  V30 9471 N 910.642 -2.62834 -4.96865 0
M  V30 9472 H 902.793 -1.76109 -1.18741 0
M  V30 9473 H 905.056 -0.74936 -0.580658 0
M  V30 9474 H 904.762 -2.37813 -2.5911 0
M  V30 9475 H 904.636 -0.979058 -3.64272 0
M  V30 9476 H 907.023 -0.281586 -2.93753 0
M  V30 9477 H 907.104 -1.71264 -1.90006 0
M  V30 9478 H 906.748 -3.19193 -3.95068 0
M  V30 9479 H 906.678 -1.73411 -4.97228 0
M  V30 9480 H 909.169 -1.61839 -3.41492 0
M  V30 9481 H 909.482 -3.86378 -6.69277 0
M  V30 9482 H 907.827 -3.46878 -6.02246 0
M  V30 9483 H 911.018 -2.08049 -4.19325 0
M  V30 9484 H 911.191 -3.10421 -5.68808 0
M  V30 9485 N 904.597 1.47463 -0.556102 0
M  V30 9486 C 905.53 2.26934 0.240027 0
M  V30 9487 C 906.508 1.33981 0.921297 0
M  V30 9488 O 907.692 1.63361 0.940506 0
M  V30 9489 C 904.819 3.10982 1.34194 0
M  V30 9490 C 903.865 4.19504 0.769342 0
M  V30 9491 S 904.698 5.34127 -0.383209 0
M  V30 9492 C 905.854 6.21739 0.720548 0
M  V30 9493 H 906.087 2.9411 -0.434348 0
M  V30 9494 H 903.62 1.50556 -0.342402 0
M  V30 9495 H 905.578 3.59976 1.973 0
M  V30 9496 H 904.239 2.4317 1.98814 0
M  V30 9497 H 903.432 4.78036 1.59679 0
M  V30 9498 H 903.034 3.73385 0.214475 0
M  V30 9499 H 905.326 6.58021 1.61292 0
M  V30 9500 H 906.269 7.0789 0.172602 0
M  V30 9501 H 906.677 5.55342 1.01272 0
M  V30 9502 N 906.075 0.2925 1.54862 0
M  V30 9503 C 907.007 -0.620889 2.2063 0
M  V30 9504 C 908.02 -1.10412 1.19637 0
M  V30 9505 O 909.209 -1.02304 1.46274 0
M  V30 9506 C 906.309 -1.861 2.83232 0
M  V30 9507 C 905.482 -1.52168 4.10078 0
M  V30 9508 C 904.541 -2.61605 4.56562 0
M  V30 9509 O 903.567 -2.27056 5.21952 0
M  V30 9510 N 904.769 -3.9199 4.28163 0
M  V30 9511 H 907.534 -0.0579028 2.99644 0
M  V30 9512 H 905.095 0.114333 1.61496 0
M  V30 9513 H 907.087 -2.58642 3.11266 0
M  V30 9514 H 905.657 -2.33259 2.08108 0
M  V30 9515 H 904.877 -0.629283 3.89145 0
M  V30 9516 H 906.165 -1.27023 4.92689 0
M  V30 9517 H 905.563 -4.22872 3.7576 0
M  V30 9518 H 904.12 -4.60857 4.60928 0
M  V30 9519 N 907.553 -1.57587 0.0200696 0
M  V30 9520 C 908.516 -2.08595 -0.949767 0
M  V30 9521 C 909.516 -0.999215 -1.25985 0
M  V30 9522 O 910.706 -1.26115 -1.2017 0
M  V30 9523 C 907.838 -2.54424 -2.26895 0
M  V30 9524 H 909.031 -2.95563 -0.508161 0
M  V30 9525 H 906.584 -1.54631 -0.227798 0
M  V30 9526 H 907.319 -1.70758 -2.75703 0
M  V30 9527 H 907.104 -3.3381 -2.05702 0
M  V30 9528 H 908.594 -2.94144 -2.96427 0
M  V30 9529 N 909.032 0.252966 -1.55557 0
M  V30 9530 C 910.278 0.979092 -1.78284 0
M  V30 9531 C 910.633 1.83194 -0.588009 0
M  V30 9532 O 909.926 1.86965 0.418899 0
M  V30 9533 C 910.12 1.87785 -3.04091 0
M  V30 9534 C 909.949 1.11349 -4.35697 0
M  V30 9535 C 908.719 0.821038 -4.98585 0
M  V30 9536 C 910.917 0.494039 -5.11922 0
M  V30 9537 N 908.899 0.0319767 -6.13892 0
M  V30 9538 C 910.27 -0.159888 -6.19794 0
M  V30 9539 C 912.325 0.403894 -4.96259 0
M  V30 9540 C 911.028 -0.895295 -7.13706 0
M  V30 9541 C 913.054 -0.317968 -5.90545 0
M  V30 9542 C 912.416 -0.960555 -6.9782 0
M  V30 9543 H 908.515 0.339586 -0.704419 0
M  V30 9544 H 911.099 0.252801 -1.93052 0
M  V30 9545 H 909.27 2.57623 -2.90663 0
M  V30 9546 H 911.002 2.53908 -3.15139 0
M  V30 9547 H 907.757 1.13132 -4.59889 0
M  V30 9548 H 908.181 -0.35047 -6.76092 0
M  V30 9549 H 912.823 0.886366 -4.13405 0
M  V30 9550 H 910.541 -1.38939 -7.96066 0
M  V30 9551 H 914.127 -0.388302 -5.80503 0
M  V30 9552 H 913.007 -1.51022 -7.69521 0
M  V30 9553 N 910.51 1.48831 0.518367 0
M  V30 9554 C 911.442 1.60317 1.63802 0
M  V30 9555 C 912.455 0.486771 1.55352 0
M  V30 9556 O 913.644 0.758111 1.61601 0
M  V30 9557 C 910.744 1.52771 3.02513 0
M  V30 9558 C 909.917 2.79649 3.36326 0
M  V30 9559 C 908.976 2.65396 4.54369 0
M  V30 9560 O 908.002 3.39304 4.57013 0
M  V30 9561 N 909.204 1.75784 5.53245 0
M  V30 9562 H 911.969 2.56878 1.54383 0
M  V30 9563 H 909.53 1.45701 0.705889 0
M  V30 9564 H 911.522 1.40914 3.79375 0
M  V30 9565 H 910.092 0.641381 3.05949 0
M  V30 9566 H 909.312 3.05985 2.48529 0
M  V30 9567 H 910.6 3.63799 3.55707 0
M  V30 9568 H 909.998 1.14961 5.53896 0
M  V30 9569 H 908.555 1.69859 6.29278 0
M  V30 9570 N 911.988 -0.768124 1.37614 0
M  V30 9571 C 913.265 -1.51637 1.23554 0
M  V30 9572 C 913.645 -2.1042 -0.169331 0
M  V30 9573 O 912.993 -1.95834 -1.17735 0
M  V30 9574 C 913.203 -2.59436 2.33439 0
M  V30 9575 C 914.551 -3.2674 2.71157 0
M  V30 9576 O 915.575 -2.69733 2.32642 0
M  V30 9577 O 914.434 -4.29814 3.37524 0
M  V30 9578 H 911.528 -0.671778 0.482332 0
M  V30 9579 H 914.074 -0.804779 1.49403 0
M  V30 9580 H 912.846 -2.14146 3.27502 0
M  V30 9581 H 912.469 -3.38192 2.09073 0
M  V30 9582 N 913.466 -1.22244 -0.994698 0
M  V30 9583 C 914.714 -1.04384 -1.73056 0
M  V30 9584 C 915.035 0.422204 -1.90374 0
M  V30 9585 O 914.305 1.30383 -1.46209 0
M  V30 9586 H 912.885 -0.383263 -0.641185 0
M  V30 9587 H 915.547 -1.53725 -1.1981 0
M  V30 9588 H 914.643 -1.52021 -2.72573 0
M  V30 9589 N 914.944 1.19125 -1.03184 0
M  V30 9590 C 915.874 2.24675 -0.635889 0
M  V30 9591 C 916.855 1.66321 0.356565 0
M  V30 9592 O 918.04 1.92728 0.238625 0
M  V30 9593 C 915.17 3.47298 0.011069 0
M  V30 9594 C 914.124 4.18345 -0.903979 0
M  V30 9595 C 913.45 5.34561 -0.12197 0
M  V30 9596 C 914.75 4.72816 -2.21907 0
M  V30 9597 H 916.444 2.5805 -1.51825 0
M  V30 9598 H 913.99 1.24039 -0.73146 0
M  V30 9599 H 915.943 4.20333 0.299729 0
M  V30 9600 H 914.667 3.13131 0.928245 0
M  V30 9601 H 913.326 3.47196 -1.17688 0
M  V30 9602 H 912.974 4.9664 0.797334 0
M  V30 9603 H 912.674 5.83029 -0.731498 0
M  V30 9604 H 914.198 6.10391 0.159881 0
M  V30 9605 H 915.612 5.3759 -1.99173 0
M  V30 9606 H 914.009 5.31782 -2.78078 0
M  V30 9607 H 915.079 3.9072 -2.87168 0
M  V30 9608 N 916.422 0.810101 1.35185 0
M  V30 9609 C 917.369 0.220927 2.2974 0
M  V30 9610 C 918.339 -0.647024 1.5298 0
M  V30 9611 O 919.524 -0.591367 1.81404 0
M  V30 9612 C 916.664 -0.62167 3.39454 0
M  V30 9613 C 915.777 0.267104 4.31173 0
M  V30 9614 C 914.912 -0.583833 5.27982 0
M  V30 9615 C 913.951 0.305123 6.11339 0
M  V30 9616 N 913.088 -0.505992 7.00274 0
M  V30 9617 H 917.928 1.03266 2.79536 0
M  V30 9618 H 915.465 0.520768 1.37573 0
M  V30 9619 H 917.423 -1.12539 4.01735 0
M  V30 9620 H 916.053 -1.39863 2.90926 0
M  V30 9621 H 915.105 0.88895 3.69867 0
M  V30 9622 H 916.417 0.951182 4.89647 0
M  V30 9623 H 915.571 -1.15254 5.95652 0
M  V30 9624 H 914.31 -1.30146 4.70014 0
M  V30 9625 H 913.315 0.886075 5.42613 0
M  V30 9626 H 914.54 1.02067 6.71386 0
M  V30 9627 H 912.486 -1.20753 6.4479 0
M  V30 9628 H 912.403 0.119966 7.55905 0
M  V30 9629 H 913.671 -1.05787 7.72288 0
M  V30 9630 N 917.9 -1.47166 0.563914 0
M  V30 9631 C 919.177 -1.95586 -0.0236172 0
M  V30 9632 C 919.557 -1.50655 -1.47872 0
M  V30 9633 O 918.905 -0.748479 -2.15894 0
M  V30 9634 C 919.115 -3.48762 0.128841 0
M  V30 9635 C 920.463 -4.24598 -0.0130544 0
M  V30 9636 O 921.487 -3.56155 0.0567242 0
M  V30 9637 O 920.346 -5.46253 -0.164332 0
M  V30 9638 H 917.44 -0.824793 -0.0603789 0
M  V30 9639 H 919.986 -1.57536 0.63091 0
M  V30 9640 H 918.758 -3.74291 1.14113 0
M  V30 9641 H 918.381 -3.93594 -0.56299 0
M  V30 9642 N 919.378 -0.300708 -1.54705 0
M  V30 9643 C 920.341 0.562648 -2.22187 0
M  V30 9644 C 921.341 1.06152 -1.20782 0
M  V30 9645 O 922.531 0.957596 -1.45519 0
M  V30 9646 C 919.663 1.77899 -2.908 0
M  V30 9647 H 920.856 -0.0269361 -2.99888 0
M  V30 9648 H 918.409 -0.0515412 -1.56215 0
M  V30 9649 H 919.144 2.40841 -2.17177 0
M  V30 9650 H 918.929 1.42892 -3.65136 0
M  V30 9651 H 920.419 2.39236 -3.42281 0
M  V30 9652 N 920.856 1.57574 -0.0284266 0
M  V30 9653 C 921.766 2.13637 0.96936 0
M  V30 9654 C 922.782 1.08845 1.35752 0
M  V30 9655 O 923.958 1.40899 1.43908 0
M  V30 9656 C 921.023 2.65179 2.2334 0
M  V30 9657 C 920.084 3.84683 1.90572 0
M  V30 9658 C 919.317 4.33758 3.1095 0
M  V30 9659 O 919.54 3.82009 4.23586 0
M  V30 9660 O 918.474 5.2561 2.93288 0
M  V30 9661 H 922.3 2.99169 0.52267 0
M  V30 9662 H 919.885 1.48159 0.192135 0
M  V30 9663 H 921.767 2.98402 2.97547 0
M  V30 9664 H 920.442 1.82731 2.67191 0
M  V30 9665 H 919.349 3.56386 1.13753 0
M  V30 9666 H 920.682 4.68292 1.51538 0
M  V30 9667 N 922.334 -0.244713 1.55689 0
M  V30 9668 C 923.559 -0.994157 1.8202 0
M  V30 9669 C 923.984 -1.78079 0.60577 0
M  V30 9670 O 923.342 -1.75748 -0.445221 0
M  V30 9671 C 923.39 -1.90599 3.06111 0
M  V30 9672 O 922.494 -2.99804 2.8318 0
M  V30 9673 H 921.835 -0.282767 0.600782 0
M  V30 9674 H 924.365 -0.26504 2.02876 0
M  V30 9675 H 924.375 -2.32023 3.35603 0
M  V30 9676 H 923.05 -1.32763 3.9414 0
M  V30 9677 H 921.627 -2.62493 2.64862 0
M  V30 9678 N 923.813 -1.49104 -0.510467 0
M  V30 9679 C 925.038 -1.62068 -1.29417 0
M  V30 9680 C 925.463 -0.288432 -1.85875 0
M  V30 9681 O 924.821 0.742667 -1.65391 0
M  V30 9682 C 924.869 -2.68506 -2.40701 0
M  V30 9683 O 923.973 -2.27021 -3.4429 0
M  V30 9684 H 923.314 -0.542778 -0.382476 0
M  V30 9685 H 925.844 -1.95228 -0.612154 0
M  V30 9686 H 925.854 -2.90383 -2.86604 0
M  V30 9687 H 924.529 -3.65216 -1.98973 0
M  V30 9688 H 923.106 -2.15436 -3.04371 0
M  V30 9689 N 925.291 0.760815 -1.38019 0
M  V30 9690 C 926.238 1.8744 -1.34666 0
M  V30 9691 C 927.208 1.64762 -0.210386 0
M  V30 9692 O 928.393 1.86528 -0.401479 0
M  V30 9693 C 925.533 3.24648 -1.17037 0
M  V30 9694 C 924.646 3.59206 -2.3999 0
M  V30 9695 C 923.781 4.8568 -2.15148 0
M  V30 9696 C 922.82 5.13002 -3.3391 0
M  V30 9697 N 921.957 6.30668 -3.08549 0
M  V30 9698 H 926.797 1.8964 -2.29871 0
M  V30 9699 H 924.334 0.927004 -1.14215 0
M  V30 9700 H 926.292 4.03814 -1.04834 0
M  V30 9701 H 924.922 3.21793 -0.254758 0
M  V30 9702 H 923.974 2.74939 -2.62893 0
M  V30 9703 H 925.286 3.75328 -3.28527 0
M  V30 9704 H 924.44 5.72773 -2.00039 0
M  V30 9705 H 923.179 4.71682 -1.23965 0
M  V30 9706 H 922.184 4.2438 -3.49545 0
M  V30 9707 H 923.409 5.28901 -4.25958 0
M  V30 9708 H 921.355 6.18008 -2.20006 0
M  V30 9709 H 921.272 6.47257 -3.90633 0
M  V30 9710 H 922.54 7.20669 -2.9708 0
M  V30 9711 N 926.769 1.22769 0.988202 0
M  V30 9712 C 927.732 1.00325 2.06076 0
M  V30 9713 C 928.732 -0.0320618 1.60768 0
M  V30 9714 O 929.922 0.206912 1.72967 0
M  V30 9715 C 927.054 0.516376 3.36966 0
M  V30 9716 H 928.247 1.95499 2.27421 0
M  V30 9717 H 925.8 1.04704 1.16047 0
M  V30 9718 H 926.535 -0.439498 3.21308 0
M  V30 9719 H 926.32 1.26337 3.71189 0
M  V30 9720 H 927.81 0.37974 4.1587 0
M  V30 9721 N 928.247 -1.18576 1.03814 0
M  V30 9722 C 929.494 -1.88493 0.740036 0
M  V30 9723 C 929.822 -1.80198 -0.732056 0
M  V30 9724 O 929.077 -1.19509 -1.54971 0
M  V30 9725 C 929.376 -3.38448 1.14837 0
M  V30 9726 C 929.042 -3.66947 2.62031 0
M  V30 9727 C 927.704 -3.74435 3.02244 0
M  V30 9728 C 930.056 -3.79534 3.57217 0
M  V30 9729 C 927.384 -3.91986 4.36536 0
M  V30 9730 C 929.736 -3.986 4.91223 0
M  V30 9731 C 928.4 -4.04323 5.31111 0
M  V30 9732 H 927.67 -0.689746 0.270798 0
M  V30 9733 H 930.317 -1.40364 1.3027 0
M  V30 9734 H 928.622 -3.88539 0.504472 0
M  V30 9735 H 930.319 -3.90882 0.89511 0
M  V30 9736 H 926.909 -3.61734 2.29883 0
M  V30 9737 H 931.093 -3.73083 3.27296 0
M  V30 9738 H 926.349 -3.9466 4.66962 0
M  V30 9739 H 930.523 -4.07281 5.64885 0
M  V30 9740 H 928.15 -4.17676 6.35178 0
M  V30 9741 N 929.725 -0.817259 -1.34754 0
M  V30 9742 C 930.688 -0.240611 -2.27934 0
M  V30 9743 C 931.688 0.578219 -1.50044 0
M  V30 9744 O 932.878 0.395148 -1.69659 0
M  V30 9745 C 930.01 0.663318 -3.34384 0
M  V30 9746 H 931.203 -1.06257 -2.80445 0
M  V30 9747 H 928.756 -0.588697 -1.4479 0
M  V30 9748 H 929.491 1.50855 -2.87077 0
M  V30 9749 H 929.276 0.0777388 -3.92023 0
M  V30 9750 H 930.766 1.06076 -4.03903 0
M  V30 9751 N 931.203 1.46865 -0.571711 0
M  V30 9752 C 932.431 2.06818 -0.0583975 0
M  V30 9753 C 932.846 1.42218 1.24175 0
M  V30 9754 O 932.203 0.523655 1.74826 0
M  V30 9755 C 932.254 3.61281 0.125673 0
M  V30 9756 O 931.975 4.23462 -1.123 0
M  V30 9757 C 933.476 4.38137 0.674604 0
M  V30 9758 H 930.696 0.668948 -0.052438 0
M  V30 9759 H 933.24 1.88656 -0.789251 0
M  V30 9760 H 931.395 3.78908 0.806707 0
M  V30 9761 H 931.809 5.16192 -0.929869 0
M  V30 9762 H 933.283 5.46845 0.752626 0
M  V30 9763 H 933.76 4.05419 1.68915 0
M  V30 9764 H 934.366 4.2529 0.0287979 0
M  V30 9765 N 932.681 0.308908 1.54543 0
M  V30 9766 C 933.906 -0.303196 2.05172 0
M  V30 9767 C 934.331 -1.46133 1.18434 0
M  V30 9768 O 933.689 -1.803 0.190162 0
M  V30 9769 C 933.737 -0.729526 3.53143 0
M  V30 9770 O 932.841 -1.83348 3.69401 0
M  V30 9771 H 932.182 -0.0575066 0.661505 0
M  V30 9772 H 934.712 0.453055 1.99521 0
M  V30 9773 H 934.722 -1.01619 3.95143 0
M  V30 9774 H 933.397 0.117622 4.15734 0
M  V30 9775 H 931.974 -1.54676 3.39308 0
M  V30 9776 N 934.159 -1.57557 0.0367827 0
M  V30 9777 C 935.575 -1.56366 -0.31967 0
M  V30 9778 C 935.775 -1.04313 -1.72398 0
M  V30 9779 O 934.831 -0.693278 -2.42796 0
M  V30 9780 C 936.144 -3.00267 -0.161274 0
M  V30 9781 C 937.692 -3.12128 -0.233464 0
M  V30 9782 C 938.167 -4.57882 -0.103767 0
M  V30 9783 N 939.658 -4.62922 -0.160506 0
M  V30 9784 C 940.393 -5.73338 -0.0840493 0
M  V30 9785 N 939.889 -6.92786 0.043933 0
M  V30 9786 N 941.682 -5.61929 -0.138592 0
M  V30 9787 H 933.833 -1.8972 0.954996 0
M  V30 9788 H 936.096 -0.87304 0.369467 0
M  V30 9789 H 935.802 -3.42331 0.80639 0
M  V30 9790 H 935.676 -3.65599 -0.928304 0
M  V30 9791 H 938.063 -2.69972 -1.19159 0
M  V30 9792 H 938.144 -2.49503 0.564075 0
M  V30 9793 H 937.788 -5.0072 0.850973 0
M  V30 9794 H 937.718 -5.18496 -0.920268 0
M  V30 9795 H 940.209 -3.7701 -0.259257 0
M  V30 9796 H 940.522 -7.72741 0.095372 0
M  V30 9797 H 938.867 -6.94955 0.0788211 0
M  V30 9798 H 942.058 -4.67499 -0.237031 0
M  V30 9799 H 942.231 -6.47956 -0.075546 0
M  V30 9800 N 935.637 0.236453 -1.55816 0
M  V30 9801 C 936.883 0.964439 -1.784 0
M  V30 9802 C 937.216 1.84573 -0.603868 0
M  V30 9803 O 936.491 1.90395 0.397473 0
M  V30 9804 C 936.774 1.81608 -3.10951 0
M  V30 9805 C 936.627 0.962283 -4.39386 0
M  V30 9806 C 937.946 2.79665 -3.39817 0
M  V30 9807 H 935.065 0.349192 -0.649026 0
M  V30 9808 H 937.707 0.234247 -1.8855 0
M  V30 9809 H 935.857 2.43864 -3.02428 0
M  V30 9810 H 937.529 0.35762 -4.59912 0
M  V30 9811 H 935.772 0.267062 -4.32977 0
M  V30 9812 H 936.443 1.59222 -5.28538 0
M  V30 9813 H 938.919 2.27546 -3.4837 0
M  V30 9814 H 937.795 3.36367 -4.33761 0
M  V30 9815 H 938.056 3.56657 -2.61244 0
M  V30 9816 N 937.115 1.49373 0.502552 0
M  V30 9817 C 938.363 1.58467 1.25429 0
M  V30 9818 C 938.684 0.272593 1.93085 0
M  V30 9819 O 937.954 -0.707947 1.82661 0
M  V30 9820 H 936.534 0.583866 0.46595 0
M  V30 9821 H 939.196 1.8599 0.582568 0
M  V30 9822 H 938.292 2.37993 2.01906 0
M  V30 9823 N 938.594 -0.753485 1.38421 0
M  V30 9824 C 939.84 -1.51485 1.34834 0
M  V30 9825 C 940.173 -1.94102 -0.0615381 0
M  V30 9826 O 939.448 -1.65439 -1.02274 0
M  V30 9827 C 939.731 -2.76736 2.30411 0
M  V30 9828 C 939.584 -2.40256 3.80259 0
M  V30 9829 C 940.903 -3.7876 2.24119 0
M  V30 9830 H 938.022 -0.549534 0.491102 0
M  V30 9831 H 940.664 -0.863006 1.6927 0
M  V30 9832 H 938.814 -3.32357 2.01175 0
M  V30 9833 H 940.486 -1.90409 4.20169 0
M  V30 9834 H 938.729 -1.72714 3.97935 0
M  V30 9835 H 939.4 -3.29869 4.42595 0
M  V30 9836 H 941.876 -3.32679 2.49928 0
M  V30 9837 H 940.752 -4.64092 2.93104 0
M  V30 9838 H 941.013 -4.24352 1.24006 0
M  V30 9839 N 940.072 -1.23292 -0.981677 0
M  V30 9840 C 941.02 -1.0104 -2.09508 0
M  V30 9841 C 942.014 0.0501977 -1.69326 0
M  V30 9842 O 943.22 -0.103197 -1.79704 0
M  V30 9843 H 939.595 -0.309629 -0.685298 0
M  V30 9844 H 941.566 -1.95493 -2.25444 0
M  V30 9845 C 940.315 -0.616885 -3.42184 0
M  V30 9846 H 939.638 -1.4247 -3.73554 0
M  V30 9847 H 941.078 -0.500688 -4.21033 0
M  V30 9848 C 939.537 0.674721 -3.30074 0
M  V30 9849 O 940.067 1.72421 -3.62814 0
M  V30 9850 N 938.273 0.650151 -2.83234 0
M  V30 9851 H 937.82 -0.204225 -2.56789 0
M  V30 9852 H 937.778 1.51458 -2.75514 0
M  V30 9853 N 941.55 1.18024 -1.04442 0
M  V30 9854 C 942.797 1.88098 -0.750022 0
M  V30 9855 C 943.125 1.80583 0.722489 0
M  V30 9856 O 942.38 1.20329 1.54335 0
M  V30 9857 C 942.679 3.37834 -1.16631 0
M  V30 9858 C 942.345 3.65553 -2.63974 0
M  V30 9859 C 941.007 3.72827 -3.04226 0
M  V30 9860 C 943.359 3.77634 -3.59224 0
M  V30 9861 C 940.687 3.89666 -4.38608 0
M  V30 9862 C 943.039 3.9599 -4.9333 0
M  V30 9863 C 941.703 4.01501 -5.33248 0
M  V30 9864 H 940.973 0.6883 -0.274452 0
M  V30 9865 H 943.62 1.39671 -1.31012 0
M  V30 9866 H 941.925 3.88266 -0.525071 0
M  V30 9867 H 943.622 3.90402 -0.915827 0
M  V30 9868 H 940.212 3.6051 -2.31798 0
M  V30 9869 H 944.396 3.71342 -3.2927 0
M  V30 9870 H 939.652 3.92178 -4.69048 0
M  V30 9871 H 943.826 4.0428 -5.67037 0
M  V30 9872 H 941.453 4.14301 -6.37384 0
M  V30 9873 N 943.028 0.824394 1.34319 0
M  V30 9874 C 944.274 0.422964 1.98954 0
M  V30 9875 C 944.629 -1.00323 1.64174 0
M  V30 9876 O 943.922 -1.6894 0.903869 0
M  V30 9877 C 944.116 0.564024 3.52921 0
M  V30 9878 C 943.945 2.00238 4.0266 0
M  V30 9879 C 942.715 2.63457 4.31183 0
M  V30 9880 C 944.913 2.9693 4.19925 0
M  V30 9881 N 942.895 3.98518 4.66966 0
M  V30 9882 C 944.266 4.16901 4.58904 0
M  V30 9883 C 946.321 2.93527 4.02177 0
M  V30 9884 C 945.024 5.33926 4.81991 0
M  V30 9885 C 947.05 4.09769 4.26431 0
M  V30 9886 C 946.412 5.28493 4.65698 0
M  V30 9887 H 942.511 0.202907 0.755217 0
M  V30 9888 H 945.095 1.0694 1.62702 0
M  V30 9889 H 943.266 -0.0525268 3.88364 0
M  V30 9890 H 944.998 0.135451 4.04473 0
M  V30 9891 H 941.753 2.14688 4.22145 0
M  V30 9892 H 942.177 4.68103 4.8909 0
M  V30 9893 H 946.819 2.02878 3.70945 0
M  V30 9894 H 944.537 6.25132 5.12089 0
M  V30 9895 H 948.123 4.08537 4.14233 0
M  V30 9896 H 947.003 6.16945 4.84096 0
M  V30 9897 N 944.506 -1.46559 0.579492 0
M  V30 9898 C 945.783 -1.956 -0.00287136 0
M  V30 9899 C 946.163 -1.52215 -1.46266 0
M  V30 9900 O 945.511 -0.771335 -2.15088 0
M  V30 9901 C 945.721 -3.48606 0.165824 0
M  V30 9902 C 947.069 -4.24588 0.0319807 0
M  V30 9903 O 948.093 -3.56075 0.094496 0
M  V30 9904 O 946.952 -5.46396 -0.106386 0
M  V30 9905 H 944.046 -0.825387 -0.0516274 0
M  V30 9906 H 946.592 -1.56858 0.647584 0
M  V30 9907 H 945.364 -3.7306 1.18076 0
M  V30 9908 H 944.987 -3.94169 -0.521212 0
M  V30 9909 N 945.984 -0.3171 -1.54377 0
M  V30 9910 C 947.212 0.289558 -2.04864 0
M  V30 9911 C 947.627 1.46284 -1.19359 0
M  V30 9912 O 946.984 1.81135 -0.222795 0
M  V30 9913 C 947.035 0.730273 -3.54047 0
M  V30 9914 O 946.756 -0.396325 -4.36304 0
M  V30 9915 C 948.257 1.40041 -4.20599 0
M  V30 9916 H 945.477 0.0605836 -0.668259 0
M  V30 9917 H 948.021 -0.461411 -1.99227 0
M  V30 9918 H 946.176 1.43123 -3.59992 0
M  V30 9919 H 946.59 -0.0502901 -5.24476 0
M  V30 9920 H 948.064 1.65979 -5.26455 0
M  V30 9921 H 948.541 2.34565 -3.71316 0
M  V30 9922 H 949.147 0.742206 -4.18774 0
M  V30 9923 N 947.462 1.57535 -0.0451378 0
M  V30 9924 C 948.392 2.14208 0.929372 0
M  V30 9925 C 949.373 1.06221 1.32858 0
M  V30 9926 O 950.558 1.34132 1.40436 0
M  V30 9927 C 947.688 2.68217 2.20629 0
M  V30 9928 C 946.642 3.81134 1.94734 0
M  V30 9929 C 945.968 4.21636 3.28828 0
M  V30 9930 C 947.268 5.06531 1.27374 0
M  V30 9931 H 948.962 2.95886 0.457348 0
M  V30 9932 H 946.508 1.42332 0.218544 0
M  V30 9933 H 948.461 3.06502 2.89196 0
M  V30 9934 H 947.185 1.83722 2.70026 0
M  V30 9935 H 945.844 3.43312 1.28579 0
M  V30 9936 H 945.492 3.34099 3.76014 0
M  V30 9937 H 945.192 4.97736 3.12302 0
M  V30 9938 H 946.716 4.62516 3.98637 0
M  V30 9939 H 948.13 5.423 1.85967 0
M  V30 9940 H 946.527 5.87735 1.21194 0
M  V30 9941 H 947.597 4.84261 0.248913 0
M  V30 9942 N 948.94 -0.228186 1.55939 0
M  V30 9943 C 950.17 -0.969211 1.82455 0
M  V30 9944 C 950.578 -1.78714 0.621133 0
M  V30 9945 O 949.921 -1.78841 -0.419694 0
M  V30 9946 C 949.983 -1.94088 3.02605 0
M  V30 9947 C 949.647 -1.30811 4.37878 0
M  V30 9948 C 950.644 -0.701275 5.15149 0
M  V30 9949 C 948.329 -1.32187 4.84595 0
M  V30 9950 C 950.323 -0.116631 6.37293 0
M  V30 9951 C 948.01 -0.733375 6.06683 0
M  V30 9952 C 949.008 -0.131804 6.82873 0
M  V30 9953 O 948.696 0.447549 8.02653 0
M  V30 9954 H 948.428 -0.289951 0.610659 0
M  V30 9955 H 950.982 -0.250576 2.03866 0
M  V30 9956 H 949.212 -2.69833 2.76996 0
M  V30 9957 H 950.901 -2.5469 3.1605 0
M  V30 9958 H 951.667 -0.683022 4.80166 0
M  V30 9959 H 947.546 -1.77949 4.25271 0
M  V30 9960 H 951.09 0.353539 6.96704 0
M  V30 9961 H 946.987 -0.749019 6.4114 0
M  V30 9962 H 947.755 0.341224 8.17788 0
M  V30 9963 N 950.418 -1.49637 -0.494624 0
M  V30 9964 C 951.664 -1.60654 -1.24747 0
M  V30 9965 C 952.019 -0.292376 -1.90166 0
M  V30 9966 O 951.312 0.707918 -1.78042 0
M  V30 9967 C 951.506 -2.70749 -2.33302 0
M  V30 9968 C 951.335 -4.12744 -1.7853 0
M  V30 9969 C 950.105 -4.79451 -1.59546 0
M  V30 9970 C 952.303 -4.97767 -1.29353 0
M  V30 9971 N 950.285 -6.05738 -0.997702 0
M  V30 9972 C 951.656 -6.14587 -0.817517 0
M  V30 9973 C 953.711 -4.83719 -1.17986 0
M  V30 9974 C 952.414 -7.18903 -0.23907 0
M  V30 9975 C 954.44 -5.8819 -0.615375 0
M  V30 9976 C 953.802 -7.04241 -0.149622 0
M  V30 9977 H 949.901 -0.642198 -0.446213 0
M  V30 9978 H 952.485 -1.86668 -0.553469 0
M  V30 9979 H 950.656 -2.46497 -3.00156 0
M  V30 9980 H 952.388 -2.71253 -3.0034 0
M  V30 9981 H 949.143 -4.36354 -1.84098 0
M  V30 9982 H 949.567 -6.73183 -0.717911 0
M  V30 9983 H 954.209 -3.94304 -1.52592 0
M  V30 9984 H 951.927 -8.08012 0.11925 0
M  V30 9985 H 955.513 -5.7938 -0.530114 0
M  V30 9986 H 954.393 -7.83699 0.280349 0
M  V30 9987 N 951.896 0.746133 -1.38819 0
M  V30 9988 C 953.144 1.50247 -1.35167 0
M  V30 9989 C 953.465 1.94921 0.0553531 0
M  V30 9990 O 952.735 1.68187 1.00449 0
M  V30 9991 H 951.315 0.557337 -0.497377 0
M  V30 9992 H 953.977 0.886472 -1.73573 0
M  V30 9993 H 953.073 2.38986 -2.00728 0
M  V30 9994 N 953.375 1.23811 0.975125 0
M  V30 9995 C 954.623 1.07124 1.71373 0
M  V30 9996 C 954.944 -0.391864 1.91022 0
M  V30 9997 O 954.214 -1.28041 1.48265 0
M  V30 9998 H 952.794 0.393415 0.635007 0
M  V30 9999 H 955.456 1.55612 1.17349 0
M  V30 10000 H 954.552 1.56338 2.7012 0
M  V30 10001 N 954.853 -1.17469 1.05066 0
M  V30 10002 C 956.1 -1.87698 0.759987 0
M  V30 10003 C 956.428 -1.80964 -0.712902 0
M  V30 10004 O 955.683 -1.21146 -1.53695 0
M  V30 10005 C 955.982 -3.37211 1.18421 0
M  V30 10006 C 955.648 -3.64148 2.65909 0
M  V30 10007 C 954.31 -3.71209 3.06199 0
M  V30 10008 C 956.662 -3.75724 3.61222 0
M  V30 10009 C 953.99 -3.87334 4.40669 0
M  V30 10010 C 956.342 -3.93368 4.95424 0
M  V30 10011 C 955.006 -3.98667 5.3537 0
M  V30 10012 H 954.276 -0.686835 0.278099 0
M  V30 10013 H 956.923 -1.38975 1.31751 0
M  V30 10014 H 955.228 -3.87982 0.545654 0
M  V30 10015 H 956.925 -3.89911 0.936518 0
M  V30 10016 H 953.515 -3.59276 2.33707 0
M  V30 10017 H 957.699 -3.69591 3.31235 0
M  V30 10018 H 952.955 -3.89685 4.71122 0
M  V30 10019 H 957.129 -4.01267 5.69173 0
M  V30 10020 H 954.756 -4.10915 6.39572 0
M  V30 10021 N 956.331 -0.831506 -1.3388 0
M  V30 10022 C 957.608 -0.345907 -1.92517 0
M  V30 10023 C 957.988 1.16784 -1.75854 0
M  V30 10024 O 957.336 1.97889 -1.14245 0
M  V30 10025 C 957.546 -0.784692 -3.40064 0
M  V30 10026 C 958.894 -0.78846 -4.17215 0
M  V30 10027 O 959.918 -0.727823 -3.48685 0
M  V30 10028 O 958.777 -0.869481 -5.39539 0
M  V30 10029 H 955.871 -0.0963568 -0.821367 0
M  V30 10030 H 958.417 -0.916868 -1.42799 0
M  V30 10031 H 957.189 -1.82697 -3.46031 0
M  V30 10032 H 956.812 -0.189897 -3.97146 0
M  V30 10033 N 957.809 1.4625 -0.587256 0
M  V30 10034 C 959.034 2.07252 -0.0784517 0
M  V30 10035 C 959.459 1.43239 1.21919 0
M  V30 10036 O 958.817 0.517791 1.73749 0
M  V30 10037 C 958.865 3.60534 0.0691037 0
M  V30 10038 O 957.969 3.96773 1.12448 0
M  V30 10039 H 957.31 0.660825 -0.064859 0
M  V30 10040 H 959.84 1.87819 -0.811491 0
M  V30 10041 H 959.85 4.0708 0.273826 0
M  V30 10042 H 958.525 4.06516 -0.878514 0
M  V30 10043 H 957.102 3.6193 0.897852 0
M  V30 10044 N 959.287 0.325282 1.54207 0
M  V30 10045 C 960.533 -0.277185 2.00897 0
M  V30 10046 C 960.866 -1.51651 1.21308 0
M  V30 10047 O 960.141 -1.92237 0.295825 0
M  V30 10048 C 960.424 -0.60961 3.54902 0
M  V30 10049 C 960.277 0.640542 4.45216 0
M  V30 10050 C 961.596 -1.42656 4.16338 0
M  V30 10051 H 958.715 -0.0992722 0.730284 0
M  V30 10052 H 961.357 0.442201 1.84783 0
M  V30 10053 H 959.507 -1.22249 3.68765 0
M  V30 10054 H 961.179 1.27878 4.43221 0
M  V30 10055 H 959.422 1.26908 4.14821 0
M  V30 10056 H 960.093 0.363459 5.50802 0
M  V30 10057 H 962.569 -0.908494 4.06061 0
M  V30 10058 H 961.445 -1.62792 5.24204 0
M  V30 10059 H 961.706 -2.42321 3.69774 0
M  V30 10060 N 960.765 -1.57509 0.0534917 0
M  V30 10061 C 961.713 -2.12851 -0.937931 0
M  V30 10062 C 962.707 -1.06088 -1.32067 0
M  V30 10063 O 963.913 -1.24494 -1.30005 0
M  V30 10064 H 960.288 -0.680357 -0.320342 0
M  V30 10065 H 962.259 -2.95047 -0.446077 0
M  V30 10066 C 961.008 -2.69034 -2.20264 0
M  V30 10067 H 960.331 -3.50848 -1.91693 0
M  V30 10068 H 961.771 -3.11375 -2.87788 0
M  V30 10069 C 960.23 -1.62919 -2.94888 0
M  V30 10070 O 960.76 -1.04334 -3.87914 0
M  V30 10071 N 958.966 -1.34385 -2.57661 0
M  V30 10072 H 958.513 -1.82214 -1.82088 0
M  V30 10073 H 958.471 -0.636149 -3.07897 0
M  V30 10074 N 962.243 0.219913 -1.56058 0
M  V30 10075 C 963.52 0.968493 -1.6994 0
M  V30 10076 C 963.9 2.02358 -0.601219 0
M  V30 10077 O 963.248 2.25121 0.391534 0
M  V30 10078 C 963.458 1.57745 -3.11316 0
M  V30 10079 C 964.806 2.06908 -3.70775 0
M  V30 10080 O 965.83 1.67636 -3.14288 0
M  V30 10081 O 964.689 2.79096 -4.69859 0
M  V30 10082 H 961.783 0.452521 -0.692209 0
M  V30 10083 H 964.329 0.211566 -1.68376 0
M  V30 10084 H 963.101 0.815687 -3.82704 0
M  V30 10085 H 962.724 2.39987 -3.17005 0
M  V30 10086 N 963.721 1.49897 0.486681 0
M  V30 10087 C 964.967 1.61313 1.23893 0
M  V30 10088 C 965.322 0.302457 1.90008 0
M  V30 10089 O 964.615 -0.698466 1.78415 0
M  V30 10090 C 964.809 2.71982 2.31863 0
M  V30 10091 C 964.638 4.13685 1.76338 0
M  V30 10092 C 963.408 4.8029 1.57002 0
M  V30 10093 C 965.606 4.98446 1.26711 0
M  V30 10094 N 963.588 6.06259 0.965564 0
M  V30 10095 C 964.959 6.15011 0.784912 0
M  V30 10096 C 967.014 4.84338 1.15419 0
M  V30 10097 C 965.717 7.19019 0.200942 0
M  V30 10098 C 967.743 5.88508 0.584173 0
M  V30 10099 C 967.105 7.04311 0.112272 0
M  V30 10100 H 963.204 0.644555 0.442801 0
M  V30 10101 H 965.788 1.86959 0.543562 0
M  V30 10102 H 963.959 2.48086 2.98844 0
M  V30 10103 H 965.691 2.72842 2.98897 0
M  V30 10104 H 962.446 4.37324 1.81781 0
M  V30 10105 H 962.87 6.73554 0.6822 0
M  V30 10106 H 967.512 3.95107 1.50499 0
M  V30 10107 H 965.23 8.07937 -0.162099 0
M  V30 10108 H 968.816 5.79653 0.49938 0
M  V30 10109 H 967.696 7.83539 -0.321907 0
M  V30 10110 N 965.199 -0.738761 1.39212 0
M  V30 10111 C 966.162 -1.83441 1.37412 0
M  V30 10112 C 967.162 -1.58484 0.271908 0
M  V30 10113 O 968.352 -1.65954 0.529609 0
M  V30 10114 C 965.484 -3.21167 1.143 0
M  V30 10115 H 966.677 -1.86441 2.34904 0
M  V30 10116 H 964.23 -0.942023 1.24722 0
M  V30 10117 H 964.965 -3.23829 0.174756 0
M  V30 10118 H 964.75 -3.40678 1.94116 0
M  V30 10119 H 966.24 -4.01231 1.15773 0
M  V30 10120 N 966.677 -1.24326 -0.968545 0
M  V30 10121 C 967.625 -1.03256 -2.08425 0
M  V30 10122 C 968.619 0.0322356 -1.69369 0
M  V30 10123 O 969.825 -0.122251 -1.79584 0
M  V30 10124 H 966.2 -0.31688 -0.681976 0
M  V30 10125 H 968.171 -1.97873 -2.23358 0
M  V30 10126 C 966.92 -0.653144 -3.4151 0
M  V30 10127 H 966.243 -1.46424 -3.72021 0
M  V30 10128 H 967.683 -0.545316 -4.20479 0
M  V30 10129 C 966.142 0.639674 -3.30771 0
M  V30 10130 O 966.672 1.68563 -3.64622 0
M  V30 10131 N 964.878 0.620074 -2.83907 0
M  V30 10132 H 964.425 -0.231449 -2.56558 0
M  V30 10133 H 964.383 1.48528 -2.77104 0
M  V30 10134 N 968.156 1.1691 -1.05688 0
M  V30 10135 C 969.103 2.21095 -0.662246 0
M  V30 10136 C 970.073 1.62623 0.338083 0
M  V30 10137 O 971.258 1.89428 0.228362 0
M  V30 10138 C 968.398 3.45066 -0.0484018 0
M  V30 10139 C 967.511 4.17809 -1.09817 0
M  V30 10140 C 966.646 5.29281 -0.451114 0
M  V30 10141 C 965.685 5.93817 -1.48484 0
M  V30 10142 N 964.822 6.96793 -0.861588 0
M  V30 10143 H 969.662 2.54204 -1.55513 0
M  V30 10144 H 967.199 1.24863 -0.777665 0
M  V30 10145 H 969.157 4.15932 0.324978 0
M  V30 10146 H 967.787 3.12526 0.807918 0
M  V30 10147 H 966.839 3.45608 -1.58932 0
M  V30 10148 H 968.151 4.61907 -1.88265 0
M  V30 10149 H 967.305 6.06695 -0.0244251 0
M  V30 10150 H 966.044 4.8633 0.365306 0
M  V30 10151 H 965.049 5.1513 -1.92149 0
M  V30 10152 H 966.274 6.38848 -2.30325 0
M  V30 10153 H 964.22 6.55967 -0.0657688 0
M  V30 10154 H 964.137 7.39229 -1.58354 0
M  V30 10155 H 965.405 7.78142 -0.45984 0
M  V30 10156 N 969.634 0.838594 1.33437 0
M  V30 10157 C 970.882 0.433312 1.974 0
M  V30 10158 C 971.203 -1.01078 1.66758 0
M  V30 10159 O 970.473 -1.70406 0.966373 0
M  V30 10160 H 969.053 0.15724 0.730263 0
M  V30 10161 H 971.715 1.07149 1.62804 0
M  V30 10162 H 970.811 0.565144 3.06941 0
M  V30 10163 N 971.112 -1.45937 0.595003 0
M  V30 10164 C 972.342 -2.06399 0.0911607 0
M  V30 10165 C 972.75 -1.44236 -1.22444 0
M  V30 10166 O 972.093 -0.546265 -1.7539 0
M  V30 10167 C 972.155 -3.59242 -0.136079 0
M  V30 10168 C 971.819 -4.43668 1.09579 0
M  V30 10169 C 972.816 -4.79437 2.01088 0
M  V30 10170 C 970.501 -4.84616 1.32109 0
M  V30 10171 C 972.495 -5.54995 3.13464 0
M  V30 10172 C 970.182 -5.5993 2.44788 0
M  V30 10173 C 971.18 -5.95035 3.35294 0
M  V30 10174 O 970.868 -6.68825 4.46014 0
M  V30 10175 H 970.6 -0.673316 0.0601779 0
M  V30 10176 H 973.154 -1.88365 0.819005 0
M  V30 10177 H 971.384 -3.75629 -0.918676 0
M  V30 10178 H 973.073 -4.0159 -0.589954 0
M  V30 10179 H 973.839 -4.48371 1.84902 0
M  V30 10180 H 969.718 -4.56735 0.625662 0
M  V30 10181 H 973.262 -5.82314 3.84131 0
M  V30 10182 H 969.159 -5.90411 2.60931 0
M  V30 10183 H 969.927 -6.87262 4.44537 0
M  V30 10184 N 972.59 -0.333456 -1.54032 0
M  V30 10185 C 973.5 0.536674 -2.28379 0
M  V30 10186 C 974.516 1.12068 -1.33104 0
M  V30 10187 O 975.692 1.13853 -1.66131 0
M  V30 10188 C 972.757 1.67677 -3.03456 0
M  V30 10189 C 971.818 1.12357 -4.14336 0
M  V30 10190 C 971.051 2.20933 -4.85823 0
M  V30 10191 O 971.274 3.41466 -4.569 0
M  V30 10192 O 970.208 1.85795 -5.72507 0
M  V30 10193 H 974.034 -0.0674003 -3.03625 0
M  V30 10194 H 971.619 -0.098823 -1.49073 0
M  V30 10195 H 973.501 2.34032 -3.50438 0
M  V30 10196 H 972.176 2.26684 -2.31076 0
M  V30 10197 H 971.083 0.424827 -3.7168 0
M  V30 10198 H 972.416 0.578497 -4.88789 0
M  V30 10199 N 974.068 1.57479 -0.061844 0
M  V30 10200 C 975.314 1.93395 0.610443 0
M  V30 10201 C 975.647 0.941334 1.6986 0
M  V30 10202 O 974.922 -0.0310262 1.94475 0
M  V30 10203 C 975.205 3.39636 1.19664 0
M  V30 10204 C 975.058 4.49651 0.115805 0
M  V30 10205 C 976.377 3.86488 2.10512 0
M  V30 10206 H 973.496 0.703262 0.220436 0
M  V30 10207 H 976.138 1.89583 -0.125785 0
M  V30 10208 H 974.288 3.43015 1.82409 0
M  V30 10209 H 975.96 4.58397 -0.516728 0
M  V30 10210 H 974.203 4.30237 -0.55483 0
M  V30 10211 H 974.874 5.49089 0.566176 0
M  V30 10212 H 977.35 3.85052 1.57715 0
M  V30 10213 H 976.226 4.89444 2.48466 0
M  V30 10214 H 976.487 3.23856 3.00948 0
M  V30 10215 N 975.546 -0.211634 1.56173 0
M  V30 10216 C 976.792 -0.935935 1.79911 0
M  V30 10217 C 977.125 -1.83589 0.633155 0
M  V30 10218 O 976.4 -1.91004 -0.367132 0
M  V30 10219 C 976.683 -1.76638 3.13801 0
M  V30 10220 C 976.536 -0.892259 4.40861 0
M  V30 10221 C 977.855 -2.74224 3.44223 0
M  V30 10222 H 974.974 -0.338822 0.654499 0
M  V30 10223 H 977.616 -0.20422 1.88899 0
M  V30 10224 H 975.766 -2.39021 3.0627 0
M  V30 10225 H 977.438 -0.284407 4.60422 0
M  V30 10226 H 975.681 -0.198145 4.33347 0
M  V30 10227 H 976.352 -1.50793 5.31004 0
M  V30 10228 H 978.828 -2.21975 3.51946 0
M  V30 10229 H 977.704 -3.29424 4.39057 0
M  V30 10230 H 977.965 -3.52455 2.66885 0
M  V30 10231 N 977.024 -1.50153 -0.478725 0
M  V30 10232 C 978.27 -1.60998 -1.23318 0
M  V30 10233 C 978.603 -0.305868 -1.91776 0
M  V30 10234 O 977.878 0.692158 -1.81767 0
M  V30 10235 C 978.161 -2.78495 -2.28282 0
M  V30 10236 C 978.014 -4.18767 -1.64178 0
M  V30 10237 C 979.333 -2.91569 -3.2966 0
M  V30 10238 H 976.452 -0.585983 -0.446982 0
M  V30 10239 H 979.094 -1.82514 -0.528063 0
M  V30 10240 H 977.244 -2.60281 -2.8842 0
M  V30 10241 H 978.916 -4.48552 -1.07696 0
M  V30 10242 H 977.159 -4.23379 -0.94514 0
M  V30 10243 H 977.83 -4.96894 -2.40417 0
M  V30 10244 H 980.306 -3.08219 -2.79536 0
M  V30 10245 H 979.182 -3.75419 -4.0044 0
M  V30 10246 H 979.443 -2.01859 -3.93326 0
M  V30 10247 N 978.502 0.731368 -1.39602 0
M  V30 10248 C 979.727 1.52567 -1.40492 0
M  V30 10249 C 980.152 1.881 -0.00228828 0
M  V30 10250 O 979.51 1.52167 0.985643 0
M  V30 10251 C 979.558 2.78749 -2.2876 0
M  V30 10252 O 978.662 3.7482 -1.71999 0
M  V30 10253 H 978.003 0.460601 -0.478271 0
M  V30 10254 H 980.533 0.902042 -1.83642 0
M  V30 10255 H 980.543 3.27446 -2.43399 0
M  V30 10256 H 979.218 2.5222 -3.30693 0
M  V30 10257 H 977.795 3.33604 -1.66622 0
M  V30 10258 N 979.98 1.24838 0.961938 0
M  V30 10259 C 980.928 1.0436 2.07874 0
M  V30 10260 C 981.922 -0.0232531 1.69384 0
M  V30 10261 O 983.128 0.131773 1.79517 0
M  V30 10262 H 979.503 0.320492 0.680286 0
M  V30 10263 H 981.474 1.99055 2.22306 0
M  V30 10264 C 980.223 0.671246 3.41159 0
M  V30 10265 H 979.546 1.48395 3.7124 0
M  V30 10266 H 980.986 0.567608 4.20184 0
M  V30 10267 C 979.445 -0.622124 3.31106 0
M  V30 10268 O 979.975 -1.66627 3.65511 0
M  V30 10269 N 978.181 -0.605009 2.84232 0
M  V30 10270 H 977.728 0.245052 2.56432 0
M  V30 10271 H 977.686 -1.47056 2.77888 0
M  V30 10272 N 981.458 -1.16348 1.06306 0
M  V30 10273 C 982.869 -1.68491 0.80422 0
M  V30 10274 C 983.22 -1.84327 -0.672159 0
M  V30 10275 O 982.345 -1.53892 -1.52139 0
M  V30 10276 C 982.94 -3.06048 1.45328 0
M  V30 10277 C 981.499 -3.55311 1.24221 0
M  V30 10278 C 980.646 -2.31291 1.5297 0
M  V30 10279 H 983.597 -1.00708 1.22652 0
M  V30 10280 H 983.618 -3.70451 0.868674 0
M  V30 10281 H 983.13 -2.9449 2.52779 0
M  V30 10282 H 981.231 -3.72128 0.187447 0
M  V30 10283 H 981.344 -4.37397 1.95502 0
M  V30 10284 H 979.708 -2.3631 0.950241 0
M  V30 10285 H 980.491 -2.22331 2.6158 0
M  V30 10286 N 982.937 -0.845659 -1.3299 0
M  V30 10287 C 984.214 -0.366306 -1.92139 0
M  V30 10288 C 984.594 1.14912 -1.77083 0
M  V30 10289 O 983.942 1.96667 -1.16338 0
M  V30 10290 C 984.152 -0.820716 -3.39213 0
M  V30 10291 C 985.5 -0.832667 -4.16355 0
M  V30 10292 O 986.524 -0.764764 -3.47893 0
M  V30 10293 O 985.383 -0.926658 -5.38586 0
M  V30 10294 H 982.477 -0.105063 -0.820299 0
M  V30 10295 H 985.023 -0.931962 -1.41819 0
M  V30 10296 H 983.795 -1.86357 -3.44074 0
M  V30 10297 H 983.418 -0.232009 -3.96923 0
M  V30 10298 N 984.415 1.45619 -0.602734 0
M  V30 10299 C 985.645 2.06348 -0.102105 0
M  V30 10300 C 986.053 1.44884 1.21677 0
M  V30 10301 O 985.396 0.555559 1.75098 0
M  V30 10302 C 985.458 3.59309 0.117026 0
M  V30 10303 C 985.122 4.43081 -1.11931 0
M  V30 10304 C 986.119 4.78364 -2.03627 0
M  V30 10305 C 983.804 4.83908 -1.34677 0
M  V30 10306 C 985.798 5.53325 -3.16403 0
M  V30 10307 C 983.485 5.58624 -2.47754 0
M  V30 10308 C 984.483 5.93249 -3.38445 0
M  V30 10309 O 984.171 6.6645 -4.49555 0
M  V30 10310 H 983.903 0.672988 -0.0637478 0
M  V30 10311 H 986.457 1.87928 -0.828983 0
M  V30 10312 H 984.687 3.76111 0.898742 0
M  V30 10313 H 986.376 4.01897 0.568649 0
M  V30 10314 H 987.142 4.47384 -1.87277 0
M  V30 10315 H 983.021 4.56396 -0.649875 0
M  V30 10316 H 986.565 5.80268 -3.87214 0
M  V30 10317 H 982.462 5.89019 -2.64059 0
M  V30 10318 H 983.23 6.84895 -4.48175 0
M  V30 10319 N 985.893 0.34162 1.53853 0
M  V30 10320 C 987.139 -0.255862 2.01179 0
M  V30 10321 C 987.472 -1.50356 1.22909 0
M  V30 10322 O 986.747 -1.91913 0.316198 0
M  V30 10323 C 987.03 -0.571934 3.55529 0
M  V30 10324 C 986.883 0.687727 4.44511 0
M  V30 10325 C 988.202 -1.38233 4.17827 0
M  V30 10326 H 985.321 -0.091521 0.731295 0
M  V30 10327 H 987.963 0.461775 1.84303 0
M  V30 10328 H 986.113 -1.18331 3.70041 0
M  V30 10329 H 987.785 1.32572 4.4184 0
M  V30 10330 H 986.028 1.313 4.13452 0
M  V30 10331 H 986.699 0.421858 5.50386 0
M  V30 10332 H 989.175 -0.865374 4.07002 0
M  V30 10333 H 988.051 -1.57223 5.25901 0
M  V30 10334 H 988.312 -2.38386 3.72323 0
M  V30 10335 N 987.371 -1.57444 0.0701946 0
M  V30 10336 C 988.601 -1.97467 -0.607476 0
M  V30 10337 C 989.009 -0.947232 -1.63781 0
M  V30 10338 O 988.352 0.074652 -1.83548 0
M  V30 10339 C 988.414 -3.33795 -1.33495 0
M  V30 10340 C 988.078 -4.54697 -0.458265 0
M  V30 10341 C 989.075 -5.19127 0.283488 0
M  V30 10342 C 986.76 -5.00833 -0.383612 0
M  V30 10343 C 988.754 -6.28043 1.08813 0
M  V30 10344 C 986.441 -6.09622 0.424705 0
M  V30 10345 C 987.439 -6.7309 1.15925 0
M  V30 10346 O 987.127 -7.79785 1.95423 0
M  V30 10347 H 986.859 -0.654405 -0.169501 0
M  V30 10348 H 989.413 -2.04931 0.138651 0
M  V30 10349 H 987.643 -3.22941 -2.12711 0
M  V30 10350 H 989.332 -3.58435 -1.9047 0
M  V30 10351 H 990.098 -4.84428 0.235397 0
M  V30 10352 H 985.977 -4.51211 -0.944968 0
M  V30 10353 H 989.521 -6.77513 1.66197 0
M  V30 10354 H 985.418 -6.43755 0.474366 0
M  V30 10355 H 986.186 -7.96655 1.87838 0
M  V30 10356 N 988.849 0.203349 -1.56283 0
M  V30 10357 C 989.782 1.27982 -1.88934 0
M  V30 10358 C 990.76 1.44345 -0.748555 0
M  V30 10359 O 991.944 1.59867 -0.998741 0
M  V30 10360 C 989.071 2.64762 -2.11231 0
M  V30 10361 C 988.117 2.65315 -3.33932 0
M  V30 10362 S 988.95 2.17568 -4.8931 0
M  V30 10363 C 990.106 3.56189 -5.14665 0
M  V30 10364 H 990.339 1.00095 -2.79943 0
M  V30 10365 H 987.872 0.406458 -1.48954 0
M  V30 10366 H 989.83 3.43501 -2.2476 0
M  V30 10367 H 988.491 2.89864 -1.20986 0
M  V30 10368 H 987.684 3.6587 -3.46634 0
M  V30 10369 H 987.286 1.94652 -3.19353 0
M  V30 10370 H 989.578 4.52001 -5.0468 0
M  V30 10371 H 990.521 3.48387 -6.16467 0
M  V30 10372 H 990.929 3.50719 -4.42331 0
M  V30 10373 N 990.327 1.50405 0.470755 0
M  V30 10374 C 991.604 1.51929 1.23195 0
M  V30 10375 C 991.984 0.264159 2.09441 0
M  V30 10376 O 991.332 -0.752395 2.15757 0
M  V30 10377 C 991.542 2.81521 2.06269 0
M  V30 10378 C 992.89 3.32195 2.64446 0
M  V30 10379 O 993.914 2.82845 2.16511 0
M  V30 10380 O 992.773 4.18221 3.51786 0
M  V30 10381 H 989.867 0.609411 0.559059 0
M  V30 10382 H 992.413 1.62695 0.482549 0
M  V30 10383 H 991.185 3.64346 1.42715 0
M  V30 10384 H 990.808 2.7376 2.88342 0
M  V30 10385 N 991.805 -0.723954 1.39988 0
M  V30 10386 C 993.052 -1.48371 1.37812 0
M  V30 10387 C 993.38 -1.94487 -0.0223285 0
M  V30 10388 O 992.635 -1.67906 -1.00529 0
M  V30 10389 C 992.934 -2.73004 2.30659 0
M  V30 10390 C 992.6 -2.45698 3.78078 0
M  V30 10391 C 991.262 -2.37961 4.18244 0
M  V30 10392 C 993.614 -2.22601 4.71273 0
M  V30 10393 C 990.942 -2.05183 5.49652 0
M  V30 10394 C 993.294 -1.91339 6.0297 0
M  V30 10395 C 991.958 -1.82078 6.42187 0
M  V30 10396 H 991.228 -0.542929 0.504291 0
M  V30 10397 H 993.875 -0.829986 1.72579 0
M  V30 10398 H 992.18 -3.43174 1.89048 0
M  V30 10399 H 993.877 -3.31068 2.26263 0
M  V30 10400 H 990.467 -2.52603 3.46251 0
M  V30 10401 H 994.651 -2.2754 4.41066 0
M  V30 10402 H 989.907 -1.96544 5.78948 0
M  V30 10403 H 994.081 -1.72479 6.74703 0
M  V30 10404 H 991.708 -1.56446 7.43928 0
M  V30 10405 N 993.283 -1.25346 -0.955304 0
M  V30 10406 C 994.694 -1.09173 -1.51453 0
M  V30 10407 C 995.045 0.332755 -1.93358 0
M  V30 10408 O 994.17 1.22264 -1.78551 0
M  V30 10409 C 994.765 -1.97564 -2.75234 0
M  V30 10410 C 993.324 -1.85579 -3.27471 0
M  V30 10411 C 992.471 -1.91755 -2.00313 0
M  V30 10412 H 995.422 -1.38642 -0.772271 0
M  V30 10413 H 995.443 -1.51523 -3.49029 0
M  V30 10414 H 994.955 -3.01233 -2.44704 0
M  V30 10415 H 993.056 -0.847906 -3.62824 0
M  V30 10416 H 993.169 -2.70353 -3.95533 0
M  V30 10417 H 991.533 -1.35633 -2.15582 0
M  V30 10418 H 992.316 -2.97028 -1.72132 0
M  V30 10419 N 994.761 1.15782 -1.06922 0
M  V30 10420 C 995.991 1.90079 -0.809545 0
M  V30 10421 C 996.399 1.78028 0.640523 0
M  V30 10422 O 995.742 1.12692 1.45073 0
M  V30 10423 C 995.804 3.41179 -1.13302 0
M  V30 10424 C 995.468 3.77015 -2.5828 0
M  V30 10425 C 996.465 3.78403 -3.56521 0
M  V30 10426 C 994.15 4.07455 -2.93745 0
M  V30 10427 C 996.144 4.09729 -4.88264 0
M  V30 10428 C 993.831 4.38446 -4.25686 0
M  V30 10429 C 994.829 4.39564 -5.22755 0
M  V30 10430 O 994.517 4.69814 -6.52326 0
M  V30 10431 H 994.249 0.609397 -0.292595 0
M  V30 10432 H 996.803 1.47654 -1.42784 0
M  V30 10433 H 995.033 3.83982 -0.457676 0
M  V30 10434 H 996.722 3.96759 -0.856586 0
M  V30 10435 H 997.488 3.54991 -3.30464 0
M  V30 10436 H 993.367 4.05746 -2.1884 0
M  V30 10437 H 996.911 4.10516 -5.64023 0
M  V30 10438 H 992.808 4.61325 -4.51497 0
M  V30 10439 H 993.576 4.87598 -6.57412 0
M  V30 10440 N 996.239 0.8527 1.3254 0
M  V30 10441 C 997.149 0.298744 2.3269 0
M  V30 10442 C 998.165 -0.582418 1.63963 0
M  V30 10443 O 999.341 -0.483253 1.95516 0
M  V30 10444 C 996.406 -0.505453 3.42996 0
M  V30 10445 C 995.467 0.401618 4.27417 0
M  V30 10446 C 994.7 -0.364294 5.32455 0
M  V30 10447 O 994.923 -1.59448 5.47661 0
M  V30 10448 O 993.857 0.268892 6.01299 0
M  V30 10449 H 997.683 1.12843 2.81958 0
M  V30 10450 H 995.268 0.615584 1.36128 0
M  V30 10451 H 997.15 -0.961974 4.10273 0
M  V30 10452 H 995.825 -1.31197 2.95921 0
M  V30 10453 H 994.732 0.906274 3.62957 0
M  V30 10454 H 996.065 1.17327 4.78012 0
M  V30 10455 N 997.718 -1.45297 0.610449 0
M  V30 10456 C 998.964 -2.02518 0.106917 0
M  V30 10457 C 999.297 -1.47747 -1.26034 0
M  V30 10458 O 998.572 -0.65329 -1.832 0
M  V30 10459 C 998.855 -3.6003 0.0710975 0
M  V30 10460 C 998.708 -4.25128 1.46922 0
M  V30 10461 C 1000.03 -4.35778 -0.61524 0
M  V30 10462 H 997.146 -0.735896 0.040327 0
M  V30 10463 H 999.788 -1.73117 0.782968 0
M  V30 10464 H 997.938 -3.85209 -0.504611 0
M  V30 10465 H 999.61 -4.11125 2.09223 0
M  V30 10466 H 997.853 -3.83418 2.02911 0
M  V30 10467 H 998.524 -5.34046 1.39637 0
M  V30 10468 H 1001 -4.1591 -0.125871 0
M  V30 10469 H 999.876 -5.45506 -0.609419 0
M  V30 10470 H 1000.14 -4.08859 -1.68186 0
M  V30 10471 N 999.196 -0.349774 -1.5367 0
M  V30 10472 C 1000.14 0.519396 -2.26727 0
M  V30 10473 C 1001.14 1.09673 -1.29105 0
M  V30 10474 O 1002.34 1.04176 -1.46791 0
M  V30 10475 H 998.719 0.186192 -0.728585 0
M  V30 10476 H 1000.69 -0.118736 -2.98164 0
M  V30 10477 C 999.439 1.65535 -3.05767 0
M  V30 10478 H 998.762 1.22038 -3.80719 0
M  V30 10479 H 1000.2 2.23856 -3.6009 0
M  V30 10480 C 998.661 2.58844 -2.15642 0
M  V30 10481 O 999.191 3.61254 -1.75665 0
M  V30 10482 N 997.397 2.27671 -1.80595 0
M  V30 10483 H 996.944 1.44429 -2.13302 0
M  V30 10484 H 996.902 2.90359 -1.20577 0
M  V30 10485 N 1000.67 1.57404 -0.0785433 0
M  V30 10486 C 1002.08 1.81118 0.45311 0
M  V30 10487 C 1002.44 0.992963 1.69218 0
M  V30 10488 O 1001.56 0.217448 2.15305 0
M  V30 10489 C 1002.16 3.28506 0.82882 0
M  V30 10490 C 1000.71 3.53042 1.3053 0
M  V30 10491 C 999.862 2.75739 0.29378 0
M  V30 10492 H 1002.81 1.55758 -0.304171 0
M  V30 10493 H 1002.83 3.40924 1.68971 0
M  V30 10494 H 1002.35 3.88031 -0.0731826 0
M  V30 10495 H 1000.45 2.98829 2.22558 0
M  V30 10496 H 1000.56 4.61724 1.27857 0
M  V30 10497 H 998.924 2.42703 0.772477 0
M  V30 10498 H 999.707 3.38005 -0.600613 0
M  V30 10499 N 1002.15 -0.195058 1.56388 0
M  V30 10500 C 1003.43 -0.941335 1.71459 0
M  V30 10501 C 1003.81 -2.01375 0.633336 0
M  V30 10502 O 1003.16 -2.25715 -0.35567 0
M  V30 10503 C 1003.37 -1.52772 3.13786 0
M  V30 10504 C 1004.71 -2.00983 3.7402 0
M  V30 10505 O 1005.74 -1.62614 3.16915 0
M  V30 10506 O 1004.6 -2.71586 4.7424 0
M  V30 10507 H 1001.69 -0.441451 0.699321 0
M  V30 10508 H 1004.24 -0.184752 1.68691 0
M  V30 10509 H 1003.01 -0.754699 3.83953 0
M  V30 10510 H 1002.63 -2.34914 3.20782 0
M  V30 10511 N 1003.63 -1.50653 -0.462772 0
M  V30 10512 C 1004.54 -1.72923 -1.58539 0
M  V30 10513 C 1005.56 -0.612577 -1.6286 0
M  V30 10514 O 1006.73 -0.891885 -1.80575 0
M  V30 10515 C 1003.8 -1.82623 -2.94703 0
M  V30 10516 C 1002.86 -3.06392 -3.00704 0
M  V30 10517 C 1002.09 -3.15618 -4.30373 0
M  V30 10518 O 1002.31 -2.31423 -5.21344 0
M  V30 10519 O 1001.25 -4.0841 -4.42136 0
M  V30 10520 H 1005.07 -2.68103 -1.42669 0
M  V30 10521 H 1002.66 -1.34848 -0.643144 0
M  V30 10522 H 1004.54 -1.91134 -3.7556 0
M  V30 10523 H 1003.22 -0.906275 -3.10754 0
M  V30 10524 H 1002.12 -3.03375 -2.18894 0
M  V30 10525 H 1003.46 -3.97992 -2.89591 0
M  V30 10526 N 1005.11 0.71652 -1.4037 0
M  V30 10527 C 1006.52 1.02447 -1.22379 0
M  V30 10528 C 1006.72 2.0126 -0.0983394 0
M  V30 10529 O 1005.78 2.46569 0.544071 0
M  V30 10530 C 1007.09 1.56909 -2.56515 0
M  V30 10531 C 1008.64 1.68898 -2.6352 0
M  V30 10532 C 1009.12 2.26765 -3.97922 0
M  V30 10533 N 1010.61 2.34152 -3.99658 0
M  V30 10534 C 1011.34 2.79907 -5.00439 0
M  V30 10535 N 1010.84 3.25422 -6.11615 0
M  V30 10536 N 1012.63 2.79283 -4.87809 0
M  V30 10537 H 1004.78 0.0615306 -2.12311 0
M  V30 10538 H 1007.05 0.0898994 -0.943728 0
M  V30 10539 H 1006.75 0.917649 -3.39517 0
M  V30 10540 H 1006.63 2.55446 -2.77538 0
M  V30 10541 H 1009.01 2.33159 -1.8089 0
M  V30 10542 H 1009.09 0.689626 -2.46329 0
M  V30 10543 H 1008.74 1.63126 -4.80991 0
M  V30 10544 H 1008.67 3.27413 -4.12442 0
M  V30 10545 H 1011.16 2.02006 -3.19378 0
M  V30 10546 H 1011.47 3.58899 -6.84406 0
M  V30 10547 H 1009.82 3.23383 -6.15181 0
M  V30 10548 H 1013.01 2.43061 -4.00049 0
M  V30 10549 H 1013.18 3.14626 -5.66493 0
M  V30 10550 N 1006.59 1.25851 0.948643 0
M  V30 10551 C 1007.83 1.10735 1.69062 0
M  V30 10552 C 1008.16 -0.351257 1.9181 0
M  V30 10553 O 1007.43 -1.24867 1.50947 0
M  V30 10554 H 1006.01 0.406796 0.626519 0
M  V30 10555 H 1008.67 1.58066 1.14022 0
M  V30 10556 H 1007.76 1.62033 2.66743 0
M  V30 10557 N 1008.06 -1.15214 1.07534 0
M  V30 10558 C 1009.29 -1.89647 0.819614 0
M  V30 10559 C 1009.7 -1.78365 -0.631072 0
M  V30 10560 O 1009.05 -1.1346 -1.44474 0
M  V30 10561 C 1009.11 -3.40573 1.1511 0
M  V30 10562 C 1008.77 -3.7564 2.60276 0
M  V30 10563 C 1009.77 -3.76507 3.58523 0
M  V30 10564 C 1007.45 -4.05891 2.95901 0
M  V30 10565 C 1009.45 -4.07133 4.9043 0
M  V30 10566 C 1007.13 -4.36182 4.28005 0
M  V30 10567 C 1008.13 -4.36785 5.25079 0
M  V30 10568 O 1007.82 -4.66348 6.54809 0
M  V30 10569 H 1007.55 -0.607836 0.295822 0
M  V30 10570 H 1010.11 -1.46895 1.43565 0
M  V30 10571 H 1008.34 -3.83734 0.478033 0
M  V30 10572 H 1010.03 -3.96299 0.877615 0
M  V30 10573 H 1010.79 -3.53233 3.32342 0
M  V30 10574 H 1006.67 -4.0458 2.20989 0
M  V30 10575 H 1010.21 -4.07519 5.66193 0
M  V30 10576 H 1006.11 -4.58924 4.53937 0
M  V30 10577 H 1006.88 -4.84105 6.59988 0
M  V30 10578 N 1009.54 -0.859717 -1.32086 0
M  V30 10579 C 1010.77 -0.479028 -2.0097 0
M  V30 10580 C 1011.18 0.930242 -1.64752 0
M  V30 10581 O 1010.52 1.6193 -0.867437 0
M  V30 10582 C 1010.59 -0.54431 -3.55355 0
M  V30 10583 C 1010.25 -1.91337 -4.15017 0
M  V30 10584 C 1011.25 -2.87951 -4.32874 0
M  V30 10585 C 1008.93 -2.21189 -4.50977 0
M  V30 10586 C 1010.93 -4.12567 -4.85867 0
M  V30 10587 C 1008.61 -3.46057 -5.03674 0
M  V30 10588 C 1009.61 -4.41562 -5.21068 0
M  V30 10589 O 1009.3 -5.64218 -5.72637 0
M  V30 10590 H 1009.03 -0.186161 -0.649861 0
M  V30 10591 H 1011.58 -1.15976 -1.69525 0
M  V30 10592 H 1009.81 0.1933 -3.86217 0
M  V30 10593 H 1011.5 -0.178506 -4.05507 0
M  V30 10594 H 1012.27 -2.66194 -4.05421 0
M  V30 10595 H 1008.15 -1.47635 -4.36721 0
M  V30 10596 H 1011.69 -4.8712 -4.99359 0
M  V30 10597 H 1007.59 -3.67662 -5.30561 0
M  V30 10598 H 1008.36 -5.66246 -5.91023 0
M  V30 10599 N 1011.02 1.44971 -0.618145 0
M  V30 10600 C 1012.27 2.03009 -0.126125 0
M  V30 10601 C 1012.62 1.47656 1.23351 0
M  V30 10602 O 1011.91 0.645901 1.80385 0
M  V30 10603 C 1012.11 3.57378 -0.0394861 0
M  V30 10604 C 1011.94 4.27706 -1.38918 0
M  V30 10605 C 1010.71 4.65206 -1.97261 0
M  V30 10606 C 1012.91 4.58987 -2.32024 0
M  V30 10607 N 1010.89 5.2044 -3.256 0
M  V30 10608 C 1012.26 5.15167 -3.44969 0
M  V30 10609 C 1014.31 4.40932 -2.31265 0
M  V30 10610 C 1013.02 5.55193 -4.57333 0
M  V30 10611 C 1015.04 4.81997 -3.42684 0
M  V30 10612 C 1014.4 5.38279 -4.54352 0
M  V30 10613 H 1010.5 0.77683 -0.0897695 0
M  V30 10614 H 1013.09 1.76646 -0.818805 0
M  V30 10615 H 1011.26 3.8338 0.622441 0
M  V30 10616 H 1012.99 4.02075 0.460165 0
M  V30 10617 H 1009.75 4.49102 -1.50348 0
M  V30 10618 H 1010.17 5.52546 -3.9118 0
M  V30 10619 H 1014.81 3.96723 -1.46187 0
M  V30 10620 H 1012.53 5.98362 -5.43128 0
M  V30 10621 H 1016.12 4.69751 -3.43257 0
M  V30 10622 H 1015 5.6947 -5.39142 0
M  V30 10623 N 1012.5 0.357919 1.53482 0
M  V30 10624 C 1013.75 -0.2337 2.00744 0
M  V30 10625 C 1014.07 -1.49908 1.2471 0
M  V30 10626 O 1013.34 -1.92597 0.358235 0
M  V30 10627 H 1011.92 -0.0893474 0.741637 0
M  V30 10628 H 1014.58 0.482388 1.88836 0
M  V30 10629 H 1013.68 -0.466073 3.086 0
M  V30 10630 N 1013.98 -1.5736 0.0868897 0
M  V30 10631 C 1015.2 -1.98388 -0.587349 0
M  V30 10632 C 1015.62 -0.965757 -1.6223 0
M  V30 10633 O 1014.98 0.0456981 -1.82443 0
M  V30 10634 C 1015.03 -3.39479 -1.24242 0
M  V30 10635 O 1014.75 -4.37393 -0.248878 0
M  V30 10636 C 1016.25 -3.95465 -2.00305 0
M  V30 10637 H 1013.47 -0.652111 -0.15809 0
M  V30 10638 H 1016.01 -2.03843 0.163754 0
M  V30 10639 H 1014.17 -3.35063 -1.94451 0
M  V30 10640 H 1014.58 -5.19525 -0.720678 0
M  V30 10641 H 1016.06 -4.96363 -2.41511 0
M  V30 10642 H 1016.53 -3.32832 -2.86565 0
M  V30 10643 H 1017.14 -4.03328 -1.34931 0
M  V30 10644 N 1015.45 0.186762 -1.56489 0
M  V30 10645 C 1016.87 0.537933 -1.50261 0
M  V30 10646 C 1017.07 1.85435 -0.788414 0
M  V30 10647 O 1016.13 2.50168 -0.342377 0
M  V30 10648 C 1017.44 0.584965 -2.94955 0
M  V30 10649 C 1018.99 0.673228 -3.05674 0
M  V30 10650 C 1019.46 0.751294 -4.51796 0
M  V30 10651 N 1020.95 0.814599 -4.55981 0
M  V30 10652 C 1021.69 0.895313 -5.66367 0
M  V30 10653 N 1021.18 0.937814 -6.86423 0
M  V30 10654 N 1022.98 0.933145 -5.543 0
M  V30 10655 H 1015.13 -0.676636 -2.01334 0
M  V30 10656 H 1017.39 -0.242079 -0.916571 0
M  V30 10657 H 1017.1 -0.313361 -3.50301 0
M  V30 10658 H 1016.97 1.4368 -3.48763 0
M  V30 10659 H 1019.36 1.56198 -2.50372 0
M  V30 10660 H 1019.44 -0.204976 -2.54977 0
M  V30 10661 H 1019.08 -0.133143 -5.07725 0
M  V30 10662 H 1019.01 1.64542 -5.00233 0
M  V30 10663 H 1021.5 0.790662 -3.69536 0
M  V30 10664 H 1021.82 1.00015 -7.66301 0
M  V30 10665 H 1020.16 0.906351 -6.89065 0
M  V30 10666 H 1023.35 0.896836 -4.59428 0
M  V30 10667 H 1023.53 0.992588 -6.40353 0
M  V30 10668 N 1016.93 1.50896 0.454776 0
M  V30 10669 C 1018.18 1.62699 1.20562 0
M  V30 10670 C 1018.51 0.334943 1.91594 0
M  V30 10671 O 1017.76 -0.680106 1.83502 0
M  V30 10672 C 1018.06 2.76839 2.26042 0
M  V30 10673 C 1017.73 4.16745 1.72147 0
M  V30 10674 C 1016.39 4.54809 1.5717 0
M  V30 10675 C 1018.74 5.04118 1.32341 0
M  V30 10676 C 1016.07 5.7797 1.00835 0
M  V30 10677 C 1018.42 6.27842 0.774419 0
M  V30 10678 C 1017.09 6.64694 0.611415 0
M  V30 10679 H 1016.36 0.595358 0.441169 0
M  V30 10680 H 1019 1.84879 0.499202 0
M  V30 10681 H 1017.31 2.48812 3.02655 0
M  V30 10682 H 1019 2.83173 2.83926 0
M  V30 10683 H 1015.59 3.86725 1.84775 0
M  V30 10684 H 1019.78 4.75331 1.42739 0
M  V30 10685 H 1015.03 6.05183 0.869669 0
M  V30 10686 H 1019.21 6.94896 0.457389 0
M  V30 10687 H 1016.84 7.60004 0.172751 0
M  V30 10688 N 1018.41 -0.709066 1.40748 0
M  V30 10689 C 1019.64 -1.50313 1.42901 0
M  V30 10690 C 1020.06 -1.88072 0.032213 0
M  V30 10691 O 1019.42 -1.53716 -0.96131 0
M  V30 10692 C 1019.47 -2.75074 2.33166 0
M  V30 10693 O 1018.57 -3.72036 1.7794 0
M  V30 10694 H 1017.91 -0.452934 0.485538 0
M  V30 10695 H 1020.44 -0.872712 1.85054 0
M  V30 10696 H 1020.45 -3.23532 2.48578 0
M  V30 10697 H 1019.13 -2.46927 3.34664 0
M  V30 10698 H 1017.7 -3.30911 1.71908 0
M  V30 10699 N 1019.89 -1.26353 -0.941956 0
M  V30 10700 C 1021.17 -1.02601 -1.6653 0
M  V30 10701 C 1021.55 0.44381 -2.06382 0
M  V30 10702 O 1020.89 1.42399 -1.78703 0
M  V30 10703 C 1021.1 -1.97401 -2.87809 0
M  V30 10704 C 1022.45 -2.25967 -3.59478 0
M  V30 10705 O 1023.48 -1.95261 -2.97912 0
M  V30 10706 O 1022.34 -2.78244 -4.70364 0
M  V30 10707 H 1019.43 -0.39007 -0.729228 0
M  V30 10708 H 1021.98 -1.37559 -0.993754 0
M  V30 10709 H 1020.75 -2.9659 -2.55245 0
M  V30 10710 H 1020.37 -1.62918 -3.62689 0
M  V30 10711 N 1021.37 1.14642 -1.08144 0
M  V30 10712 C 1022.28 2.23257 -0.720668 0
M  V30 10713 C 1023.29 1.71866 0.271648 0
M  V30 10714 O 1024.47 2.01064 0.116266 0
M  V30 10715 C 1021.53 3.46447 -0.132542 0
M  V30 10716 C 1020.6 4.12789 -1.17913 0
M  V30 10717 C 1019.83 5.30099 -0.618971 0
M  V30 10718 O 1020.05 5.6762 0.562418 0
M  V30 10719 O 1018.99 5.86154 -1.36774 0
M  V30 10720 H 1022.81 2.56463 -1.62667 0
M  V30 10721 H 1020.4 1.22521 -0.854932 0
M  V30 10722 H 1022.28 4.20959 0.19277 0
M  V30 10723 H 1020.95 3.14971 0.746662 0
M  V30 10724 H 1019.86 3.40163 -1.55693 0
M  V30 10725 H 1021.19 4.48365 -2.03051 0
M  V30 10726 N 1022.85 0.866709 1.31628 0
M  V30 10727 C 1024.26 0.558188 1.49521 0
M  V30 10728 C 1024.46 -0.90844 1.7986 0
M  V30 10729 O 1023.52 -1.6908 1.87531 0
M  V30 10730 C 1024.83 1.45559 2.63122 0
M  V30 10731 C 1026.38 1.45728 2.77006 0
M  V30 10732 C 1026.85 2.34017 3.937 0
M  V30 10733 N 1028.34 2.31879 4.00982 0
M  V30 10734 C 1029.08 2.96915 4.90539 0
M  V30 10735 N 1028.58 3.71109 5.85021 0
M  V30 10736 N 1030.37 2.86241 4.83759 0
M  V30 10737 H 1022.52 1.81574 1.10203 0
M  V30 10738 H 1024.78 0.77621 0.544244 0
M  V30 10739 H 1024.49 2.49904 2.47469 0
M  V30 10740 H 1024.36 1.15174 3.59186 0
M  V30 10741 H 1026.75 0.421419 2.92075 0
M  V30 10742 H 1026.83 1.80134 1.81619 0
M  V30 10743 H 1026.47 3.37678 3.79389 0
M  V30 10744 H 1026.4 1.96937 4.88388 0
M  V30 10745 H 1028.9 1.77948 3.33381 0
M  V30 10746 H 1029.21 4.1787 6.5008 0
M  V30 10747 H 1027.55 3.75217 5.8501 0
M  V30 10748 H 1030.74 2.27819 4.08921 0
M  V30 10749 H 1030.92 3.37206 5.5335 0
M  V30 10750 N 1024.32 -1.44642 0.625825 0
M  V30 10751 C 1025.27 -2.30653 -0.082259 0
M  V30 10752 C 1026.24 -1.43174 -0.842052 0
M  V30 10753 O 1027.43 -1.72082 -0.824151 0
M  V30 10754 C 1024.57 -3.2837 -1.06146 0
M  V30 10755 C 1023.68 -4.30953 -0.300638 0
M  V30 10756 C 1022.81 -5.15766 -1.27118 0
M  V30 10757 C 1021.85 -6.10061 -0.499215 0
M  V30 10758 N 1020.99 -6.87591 -1.41995 0
M  V30 10759 H 1025.83 -2.90664 0.657161 0
M  V30 10760 H 1023.37 -1.43215 0.335859 0
M  V30 10761 H 1025.32 -3.83507 -1.6425 0
M  V30 10762 H 1023.95 -2.70072 -1.76807 0
M  V30 10763 H 1023.01 -3.78331 0.396234 0
M  V30 10764 H 1024.32 -4.97892 0.300851 0
M  V30 10765 H 1023.47 -5.75394 -1.92372 0
M  V30 10766 H 1022.21 -4.48888 -1.9066 0
M  V30 10767 H 1021.22 -5.49547 0.166848 0
M  V30 10768 H 1022.44 -6.78973 0.131409 0
M  V30 10769 H 1020.39 -6.23387 -2.04267 0
M  V30 10770 H 1020.3 -7.5095 -0.872354 0
M  V30 10771 H 1021.57 -7.51746 -2.0615 0
M  V30 10772 N 1025.8 -0.366053 -1.5329 0
M  V30 10773 C 1027.05 0.223824 -2.01561 0
M  V30 10774 C 1027.38 1.48382 -1.25286 0
M  V30 10775 O 1026.66 1.91385 -0.34669 0
M  V30 10776 C 1026.94 0.5153 -3.56394 0
M  V30 10777 C 1026.79 -0.758357 -4.43361 0
M  V30 10778 C 1028.11 1.31568 -4.19974 0
M  V30 10779 H 1025.23 0.0798751 -0.732659 0
M  V30 10780 H 1027.87 -0.491038 -1.83545 0
M  V30 10781 H 1026.02 1.12429 -3.71876 0
M  V30 10782 H 1027.69 -1.39584 -4.39675 0
M  V30 10783 H 1025.94 -1.37862 -4.11311 0
M  V30 10784 H 1026.61 -0.509366 -5.49645 0
M  V30 10785 H 1029.08 0.800514 -4.08327 0
M  V30 10786 H 1027.96 1.48837 -5.28336 0
M  V30 10787 H 1028.22 2.32432 -3.76069 0
M  V30 10788 N 1027.28 1.57312 -0.0952337 0
M  V30 10789 C 1028.53 1.94358 0.568442 0
M  V30 10790 C 1028.85 0.97698 1.68182 0
M  V30 10791 O 1028.11 -0.00340398 1.957 0
M  V30 10792 C 1028.41 3.37937 1.16332 0
M  V30 10793 C 1028.07 4.50565 0.173715 0
M  V30 10794 C 1026.74 4.81099 -0.0984673 0
M  V30 10795 C 1029.09 5.18777 -0.501992 0
M  V30 10796 C 1026.42 5.77172 -1.05305 0
M  V30 10797 C 1028.77 6.15874 -1.44505 0
M  V30 10798 C 1027.43 6.44813 -1.72546 0
M  V30 10799 H 1026.7 0.711206 0.208007 0
M  V30 10800 H 1029.35 1.90734 -0.171096 0
M  V30 10801 H 1027.65 3.3814 1.97911 0
M  V30 10802 H 1029.35 3.63902 1.68453 0
M  V30 10803 H 1025.94 4.26766 0.396042 0
M  V30 10804 H 1030.13 4.95363 -0.304855 0
M  V30 10805 H 1025.38 5.97909 -1.2773 0
M  V30 10806 H 1029.56 6.67824 -1.97444 0
M  V30 10807 H 1027.18 7.19067 -2.46671 0
M  V30 10808 N 1028.76 -0.17846 1.56586 0
M  V30 10809 C 1029.98 -0.916061 1.86073 0
M  V30 10810 C 1030.41 -1.75349 0.680754 0
M  V30 10811 O 1029.77 -1.77479 -0.37028 0
M  V30 10812 C 1029.81 -1.77445 3.1392 0
M  V30 10813 O 1028.92 -2.87524 2.95641 0
M  V30 10814 H 1028.26 -0.257031 0.612234 0
M  V30 10815 H 1030.79 -0.178755 2.03818 0
M  V30 10816 H 1030.8 -2.1758 3.45142 0
M  V30 10817 H 1029.47 -1.15927 3.99417 0
M  V30 10818 H 1028.05 -2.51023 2.75757 0
M  V30 10819 N 1030.24 -1.51135 -0.446768 0
M  V30 10820 C 1031.48 -1.63336 -1.19698 0
M  V30 10821 C 1031.81 -0.345099 -1.91414 0
M  V30 10822 O 1031.07 0.670365 -1.8386 0
M  V30 10823 C 1031.36 -2.78034 -2.2457 0
M  V30 10824 C 1031.03 -4.17652 -1.69934 0
M  V30 10825 C 1029.69 -4.55636 -1.54756 0
M  V30 10826 C 1032.04 -5.04813 -1.29665 0
M  V30 10827 C 1029.37 -5.78496 -0.977689 0
M  V30 10828 C 1031.72 -6.28244 -0.741112 0
M  V30 10829 C 1030.39 -6.65009 -0.576156 0
M  V30 10830 H 1029.66 -0.597689 -0.438006 0
M  V30 10831 H 1032.31 -1.85141 -0.48939 0
M  V30 10832 H 1030.61 -2.50413 -3.01331 0
M  V30 10833 H 1032.31 -2.84675 -2.8242 0
M  V30 10834 H 1028.9 -3.87699 -1.82722 0
M  V30 10835 H 1033.08 -4.76081 -1.40216 0
M  V30 10836 H 1028.34 -6.05636 -0.837563 0
M  V30 10837 H 1032.51 -6.95129 -0.42053 0
M  V30 10838 H 1030.14 -7.60085 -0.132443 0
M  V30 10839 N 1031.71 0.701592 -1.41122 0
M  V30 10840 C 1032.68 1.79733 -1.42227 0
M  V30 10841 C 1033.68 1.57708 -0.313831 0
M  V30 10842 O 1034.87 1.64492 -0.573423 0
M  V30 10843 C 1032 3.18024 -1.22775 0
M  V30 10844 H 1033.19 1.80148 -2.39764 0
M  V30 10845 H 1030.74 0.908624 -1.27176 0
M  V30 10846 H 1031.48 3.23252 -0.260552 0
M  V30 10847 H 1031.26 3.35411 -2.0308 0
M  V30 10848 H 1032.75 3.98021 -1.2637 0
M  V30 10849 N 1033.19 1.2685 0.935242 0
M  V30 10850 C 1034.6 1.11569 1.49697 0
M  V30 10851 C 1034.95 -0.301952 1.93863 0
M  V30 10852 O 1034.08 -1.19408 1.80473 0
M  V30 10853 C 1034.67 2.01918 2.72056 0
M  V30 10854 C 1033.23 1.90765 3.24477 0
M  V30 10855 C 1032.38 1.94918 1.97237 0
M  V30 10856 H 1035.33 1.39853 0.750116 0
M  V30 10857 H 1035.35 1.57056 3.46574 0
M  V30 10858 H 1034.86 3.05088 2.39881 0
M  V30 10859 H 1032.96 0.905521 3.61429 0
M  V30 10860 H 1033.08 2.76611 3.91182 0
M  V30 10861 H 1031.44 1.39046 2.13397 0
M  V30 10862 H 1032.22 2.99729 1.67385 0
M  V30 10863 N 1034.67 -1.14067 1.0875 0
M  V30 10864 C 1035.95 -1.81389 0.73195 0
M  V30 10865 C 1036.33 -1.96005 -0.78391 0
M  V30 10866 O 1035.68 -1.52267 -1.70373 0
M  V30 10867 C 1035.89 -3.16858 1.46294 0
M  V30 10868 C 1037.23 -3.92305 1.62426 0
M  V30 10869 O 1038.26 -3.26459 1.42488 0
M  V30 10870 O 1037.12 -5.10393 1.9535 0
M  V30 10871 H 1034.21 -0.784354 0.262141 0
M  V30 10872 H 1036.76 -1.21054 1.18929 0
M  V30 10873 H 1035.53 -3.01404 2.49542 0
M  V30 10874 H 1035.15 -3.84889 0.997318 0
M  V30 10875 N 1036.15 -0.873678 -1.31166 0
M  V30 10876 C 1037.1 -0.321349 -2.3037 0
M  V30 10877 C 1038.09 0.565568 -1.5968 0
M  V30 10878 O 1039.3 0.451257 -1.74252 0
M  V30 10879 H 1035.67 -0.0852425 -0.747153 0
M  V30 10880 H 1037.64 -1.17191 -2.74425 0
M  V30 10881 C 1036.39 0.459016 -3.44657 0
M  V30 10882 H 1035.71 -0.214185 -3.99226 0
M  V30 10883 H 1037.15 0.810758 -4.16176 0
M  V30 10884 C 1035.61 1.65173 -2.93632 0
M  V30 10885 O 1036.14 2.75105 -2.92711 0
M  V30 10886 N 1034.35 1.4851 -2.49786 0
M  V30 10887 H 1033.9 0.590785 -2.50734 0
M  V30 10888 H 1033.85 2.28452 -2.16002 0
M  V30 10889 N 1037.63 1.44308 -0.633487 0
M  V30 10890 C 1038.56 2.27887 0.119397 0
M  V30 10891 C 1039.54 1.38676 0.848981 0
M  V30 10892 O 1040.72 1.68116 0.85259 0
M  V30 10893 C 1037.85 3.17658 1.17521 0
M  V30 10894 C 1036.89 4.22992 0.54589 0
M  V30 10895 S 1037.73 5.31345 -0.6658 0
M  V30 10896 C 1038.88 6.24684 0.389965 0
M  V30 10897 H 1039.12 2.91394 -0.589638 0
M  V30 10898 H 1036.65 1.48529 -0.421727 0
M  V30 10899 H 1038.61 3.69929 1.77941 0
M  V30 10900 H 1037.27 2.53367 1.85645 0
M  V30 10901 H 1036.46 4.85828 1.34115 0
M  V30 10902 H 1036.06 3.73996 0.0162506 0
M  V30 10903 H 1038.36 6.65645 1.26185 0
M  V30 10904 H 1039.3 7.07809 -0.202878 0
M  V30 10905 H 1039.71 5.59929 0.716922 0
M  V30 10906 N 1039.1 0.374177 1.53094 0
M  V30 10907 C 1040.52 -0.103172 1.86415 0
M  V30 10908 C 1040.87 -1.47439 1.29446 0
M  V30 10909 O 1039.99 -2.07333 0.619853 0
M  V30 10910 C 1040.59 -0.193988 3.38244 0
M  V30 10911 C 1039.15 -0.615605 3.71332 0
M  V30 10912 C 1038.29 0.23186 2.76329 0
M  V30 10913 H 1041.24 0.592644 1.47219 0
M  V30 10914 H 1041.26 -1.01597 3.66686 0
M  V30 10915 H 1040.78 0.80414 3.79678 0
M  V30 10916 H 1038.88 -1.62165 3.3546 0
M  V30 10917 H 1038.99 -0.38425 4.77557 0
M  V30 10918 H 1037.35 -0.300579 2.5292 0
M  V30 10919 H 1038.14 1.22769 3.20597 0
M  V30 10920 N 1040.58 -1.57259 0.103575 0
M  V30 10921 C 1041.51 -2.1153 -0.882472 0
M  V30 10922 C 1042.53 -1.05446 -1.24036 0
M  V30 10923 O 1043.72 -1.32867 -1.192 0
M  V30 10924 C 1040.82 -2.58717 -2.18903 0
M  V30 10925 C 1039.99 -3.8873 -2.00519 0
M  V30 10926 C 1039.05 -4.21675 -3.14764 0
M  V30 10927 O 1038.07 -4.90755 -2.88355 0
M  V30 10928 N 1039.28 -3.77757 -4.40772 0
M  V30 10929 H 1042.04 -2.96758 -0.418901 0
M  V30 10930 H 1039.6 -1.61696 -0.0812921 0
M  V30 10931 H 1041.59 -2.77797 -2.94297 0
M  V30 10932 H 1040.16 -1.78454 -2.56657 0
M  V30 10933 H 1039.38 -3.78714 -1.09406 0
M  V30 10934 H 1040.67 -4.73771 -1.85522 0
M  V30 10935 H 1040.07 -3.22011 -4.65108 0
M  V30 10936 H 1038.63 -4.01975 -5.13088 0
M  V30 10937 N 1042.06 0.170153 -1.56679 0
M  V30 10938 C 1043.01 1.22997 -1.9742 0
M  V30 10939 C 1044 1.45762 -0.863117 0
M  V30 10940 O 1045.21 1.46328 -1.04824 0
M  V30 10941 H 1041.58 0.413482 -0.628122 0
M  V30 10942 H 1043.55 0.859502 -2.85754 0
M  V30 10943 C 1042.3 2.5615 -2.35122 0
M  V30 10944 H 1041.63 2.39456 -3.20158 0
M  V30 10945 H 1043.07 3.28991 -2.67471 0
M  V30 10946 C 1041.53 3.14992 -1.19507 0
M  V30 10947 O 1042.06 3.98781 -0.483357 0
M  V30 10948 N 1040.26 2.74098 -0.965332 0
M  V30 10949 H 1039.81 2.06062 -1.54585 0
M  V30 10950 H 1039.77 3.13803 -0.193611 0
M  V30 10951 N 1043.54 1.5137 0.438746 0
M  V30 10952 C 1044.5 1.71993 1.51496 0
M  V30 10953 C 1045.5 0.589978 1.49586 0
M  V30 10954 O 1046.69 0.857505 1.51633 0
M  V30 10955 C 1043.82 1.77508 2.91039 0
M  V30 10956 H 1045.02 2.68041 1.34514 0
M  V30 10957 H 1042.57 1.41338 0.667326 0
M  V30 10958 H 1043.3 0.832698 3.13427 0
M  V30 10959 H 1043.09 2.59627 2.9383 0
M  V30 10960 H 1044.58 1.95308 3.69113 0
M  V30 10961 N 1045.02 -0.694098 1.41492 0
M  V30 10962 C 1045.93 -1.83778 1.45818 0
M  V30 10963 C 1046.94 -1.70471 0.348639 0
M  V30 10964 O 1048.12 -1.92361 0.596588 0
M  V30 10965 C 1045.18 -3.19771 1.33967 0
M  V30 10966 C 1044.24 -3.45175 2.5525 0
M  V30 10967 C 1043.48 -4.74681 2.43955 0
M  V30 10968 O 1043.7 -5.51268 1.46491 0
M  V30 10969 O 1042.63 -5.00901 3.33739 0
M  V30 10970 H 1046.46 -1.83084 2.42309 0
M  V30 10971 H 1044.05 -0.847349 1.23046 0
M  V30 10972 H 1045.93 -4.00961 1.29648 0
M  V30 10973 H 1044.6 -3.21145 0.405926 0
M  V30 10974 H 1043.51 -2.6391 2.65146 0
M  V30 10975 H 1044.84 -3.48617 3.47458 0
M  V30 10976 N 1046.49 -1.27344 -0.928501 0
M  V30 10977 C 1047.72 -1.16447 -1.7102 0
M  V30 10978 C 1048.14 0.278799 -1.8673 0
M  V30 10979 O 1047.49 1.18989 -1.38376 0
M  V30 10980 C 1047.55 -1.84242 -3.11026 0
M  V30 10981 O 1047.27 -3.2293 -2.96054 0
M  V30 10982 C 1048.77 -1.7946 -4.05351 0
M  V30 10983 H 1045.99 -0.404898 -0.535069 0
M  V30 10984 H 1048.53 -1.68201 -1.16313 0
M  V30 10985 H 1046.69 -1.36395 -3.62595 0
M  V30 10986 H 1047.1 -3.5667 -3.8456 0
M  V30 10987 H 1048.57 -2.31511 -5.01105 0
M  V30 10988 H 1049.05 -0.763771 -4.32508 0
M  V30 10989 H 1049.66 -2.26918 -3.59706 0
M  V30 10990 N 1047.97 1.13488 -1.09353 0
M  V30 10991 C 1049.2 1.89133 -0.85108 0
M  V30 10992 C 1049.62 1.78542 0.591976 0
M  V30 10993 O 1048.98 1.13243 1.41583 0
M  V30 10994 C 1049.03 3.36736 -1.29001 0
M  V30 10995 O 1048.13 4.09959 -0.447993 0
M  V30 10996 H 1047.47 0.58809 -0.308296 0
M  V30 10997 H 1050 1.43593 -1.45747 0
M  V30 10998 H 1050.01 3.87564 -1.27508 0
M  V30 10999 H 1048.69 3.43762 -2.34095 0
M  V30 11000 H 1047.27 3.69155 -0.52717 0
M  V30 11001 N 1049.45 0.880621 1.30701 0
M  V30 11002 C 1050.7 0.497611 1.966 0
M  V30 11003 C 1051.03 -0.949901 1.69383 0
M  V30 11004 O 1050.31 -1.67054 0.996152 0
M  V30 11005 C 1050.59 0.767919 3.51817 0
M  V30 11006 C 1050.44 2.26574 3.88567 0
M  V30 11007 C 1051.76 0.241502 4.39437 0
M  V30 11008 H 1048.88 0.182267 0.714106 0
M  V30 11009 H 1051.52 1.10382 1.54648 0
M  V30 11010 H 1049.67 0.251967 3.87682 0
M  V30 11011 H 1051.34 2.84977 3.62748 0
M  V30 11012 H 1049.59 2.73411 3.36792 0
M  V30 11013 H 1050.26 2.40549 4.9683 0
M  V30 11014 H 1052.73 0.683051 4.10455 0
M  V30 11015 H 1051.61 0.459997 5.46969 0
M  V30 11016 H 1051.87 -0.857068 4.33713 0
M  V30 11017 N 1050.93 -1.4397 0.641131 0
M  V30 11018 C 1052.21 -1.95436 0.0800918 0
M  V30 11019 C 1052.59 -1.58282 -1.39678 0
M  V30 11020 O 1051.93 -0.861867 -2.11623 0
M  V30 11021 C 1052.14 -3.47589 0.313531 0
M  V30 11022 C 1053.49 -4.2407 0.212034 0
M  V30 11023 O 1054.52 -3.55353 0.245434 0
M  V30 11024 O 1053.38 -5.46356 0.125455 0
M  V30 11025 H 1050.47 -0.826834 -0.0165735 0
M  V30 11026 H 1053.02 -1.5397 0.71353 0
M  V30 11027 H 1051.79 -3.67716 1.33793 0
M  V30 11028 H 1051.41 -3.96025 -0.353563 0
M  V30 11029 N 1052.41 -0.382291 -1.52893 0
M  V30 11030 C 1053.82 -0.031941 -1.59568 0
M  V30 11031 C 1054.02 1.45245 -1.39664 0
M  V30 11032 O 1053.08 2.21612 -1.21013 0
M  V30 11033 C 1054.39 -0.502846 -2.96466 0
M  V30 11034 C 1055.94 -0.4585 -3.09624 0
M  V30 11035 C 1056.42 -0.905481 -4.4896 0
M  V30 11036 N 1057.91 -0.861211 -4.55124 0
M  V30 11037 C 1058.64 -1.17856 -5.61157 0
M  V30 11038 N 1058.14 -1.56603 -6.74868 0
M  V30 11039 N 1059.93 -1.10027 -5.51226 0
M  V30 11040 H 1052.08 -1.34875 -1.64081 0
M  V30 11041 H 1054.34 -0.552375 -0.770446 0
M  V30 11042 H 1054.05 -1.53931 -3.16225 0
M  V30 11043 H 1053.92 0.101777 -3.77063 0
M  V30 11044 H 1056.31 0.568868 -2.89565 0
M  V30 11045 H 1056.39 -1.09884 -2.30996 0
M  V30 11046 H 1056.04 -1.93105 -4.69759 0
M  V30 11047 H 1055.97 -0.242227 -5.26043 0
M  V30 11048 H 1058.46 -0.575988 -3.73485 0
M  V30 11049 H 1058.77 -1.792 -7.51736 0
M  V30 11050 H 1057.12 -1.60484 -6.76217 0
M  V30 11051 H 1060.31 -0.796623 -4.61272 0
M  V30 11052 H 1060.48 -1.35091 -6.33762 0
M  V30 11053 N 1053.89 1.57202 -0.111913 0
M  V30 11054 C 1055.16 1.86459 0.590972 0
M  V30 11055 C 1055.54 1.01182 1.85271 0
M  V30 11056 O 1054.89 0.0887891 2.28327 0
M  V30 11057 C 1055.1 3.37455 0.890225 0
M  V30 11058 C 1056.45 4.05895 1.24638 0
M  V30 11059 O 1057.47 3.42433 0.980713 0
M  V30 11060 O 1056.33 5.17903 1.74466 0
M  V30 11061 H 1053.43 0.771652 0.297459 0
M  V30 11062 H 1055.97 1.69072 -0.145882 0
M  V30 11063 H 1054.74 3.913 -0.00419012 0
M  V30 11064 H 1054.37 3.60248 1.68248 0
M  V30 11065 N 1055.36 -0.161842 1.56767 0
M  V30 11066 C 1056.61 -0.875192 1.82167 0
M  V30 11067 C 1056.93 -1.82367 0.690444 0
M  V30 11068 O 1056.2 -1.93756 -0.289023 0
M  V30 11069 H 1054.78 -0.326178 0.672024 0
M  V30 11070 H 1057.44 -0.159392 1.94247 0
M  V30 11071 H 1056.54 -1.44639 2.76561 0
M  V30 11072 N 1056.84 -1.516 -0.430713 0
M  V30 11073 C 1057.79 -1.73975 -1.54387 0
M  V30 11074 C 1058.78 -0.606222 -1.58181 0
M  V30 11075 O 1059.99 -0.787764 -1.61846 0
M  V30 11076 H 1056.36 -0.549811 -0.513041 0
M  V30 11077 H 1058.34 -2.67274 -1.32692 0
M  V30 11078 C 1057.08 -1.88794 -2.9198 0
M  V30 11079 H 1056.41 -2.75425 -2.89795 0
M  V30 11080 H 1057.85 -2.08458 -3.69217 0
M  V30 11081 C 1056.31 -0.649427 -3.30581 0
M  V30 11082 O 1056.84 0.192823 -4.01237 0
M  V30 11083 N 1055.04 -0.491586 -2.86412 0
M  V30 11084 H 1054.59 -1.17806 -2.29084 0
M  V30 11085 H 1054.55 0.33583 -3.12601 0
M  V30 11086 N 1058.32 0.686584 -1.41858 0
M  V30 11087 C 1059.27 1.79271 -1.40875 0
M  V30 11088 C 1060.25 1.58413 -0.281782 0
M  V30 11089 O 1061.45 1.69093 -0.523132 0
M  V30 11090 C 1058.57 3.17647 -1.30213 0
M  V30 11091 C 1057.66 3.44168 -2.47808 0
M  V30 11092 N 1058.05 3.41339 -3.73258 0
M  V30 11093 C 1056.35 3.74755 -2.41815 0
M  V30 11094 C 1057.05 3.67016 -4.51303 0
M  V30 11095 N 1056.03 3.87203 -3.81543 0
M  V30 11096 H 1059.83 1.75459 -2.35778 0
M  V30 11097 H 1057.34 0.886946 -1.36041 0
M  V30 11098 H 1059.34 3.96896 -1.2759 0
M  V30 11099 H 1058 3.22664 -0.363021 0
M  V30 11100 H 1059.01 3.21511 -4.06018 0
M  V30 11101 H 1055.69 3.87089 -1.56423 0
M  V30 11102 H 1057.08 3.70888 -5.6026 0
M  V30 11103 N 1059.8 1.27835 0.921735 0
M  V30 11104 C 1061.04 1.14523 1.67005 0
M  V30 11105 C 1061.37 -0.307776 1.92049 0
M  V30 11106 O 1060.63 -1.24103 1.51317 0
M  V30 11107 C 1060.93 1.88054 3.03925 0
M  V30 11108 C 1060.59 3.37886 2.9857 0
M  V30 11109 C 1059.25 3.78752 2.96817 0
M  V30 11110 C 1061.61 4.33462 2.89414 0
M  V30 11111 C 1058.93 5.13549 2.83698 0
M  V30 11112 C 1061.29 5.68322 2.77836 0
M  V30 11113 C 1059.95 6.08475 2.74436 0
M  V30 11114 H 1059.22 0.419068 0.611116 0
M  V30 11115 H 1061.87 1.58515 1.07449 0
M  V30 11116 H 1060.17 1.36587 3.67221 0
M  V30 11117 H 1061.87 1.75176 3.60714 0
M  V30 11118 H 1058.46 3.05389 3.00725 0
M  V30 11119 H 1062.64 4.02857 2.89862 0
M  V30 11120 H 1057.9 5.43796 2.79456 0
M  V30 11121 H 1062.07 6.42048 2.69717 0
M  V30 11122 H 1059.7 7.12877 2.64027 0
M  V30 11123 N 1061.28 -1.12907 1.09954 0
M  V30 11124 C 1062.22 -2.20561 0.73863 0
M  V30 11125 C 1063.22 -1.67347 -0.262944 0
M  V30 11126 O 1064.42 -1.79574 -0.123834 0
M  V30 11127 H 1060.8 -0.718823 0.220901 0
M  V30 11128 H 1062.77 -2.4826 1.65559 0
M  V30 11129 C 1061.52 -3.47227 0.181239 0
M  V30 11130 H 1060.84 -3.88516 0.943144 0
M  V30 11131 H 1062.28 -4.23987 -0.0332888 0
M  V30 11132 C 1060.74 -3.18956 -1.08485 0
M  V30 11133 O 1061.27 -3.38224 -2.1672 0
M  V30 11134 N 1059.48 -2.72797 -1.00151 0
M  V30 11135 H 1059.02 -2.57317 -0.120645 0
M  V30 11136 H 1058.98 -2.54256 -1.84935 0
M  V30 11137 N 1062.75 -0.88754 -1.30232 0
M  V30 11138 C 1063.72 -0.361095 -2.26338 0
M  V30 11139 C 1064.72 0.497871 -1.52898 0
M  V30 11140 O 1065.91 0.30466 -1.71515 0
M  V30 11141 C 1063.04 0.485135 -3.3743 0
M  V30 11142 H 1064.23 -1.20973 -2.74419 0
M  V30 11143 H 1061.78 -0.664619 -1.41466 0
M  V30 11144 H 1062.52 1.35425 -2.9467 0
M  V30 11145 H 1062.3 -0.130173 -3.91884 0
M  V30 11146 H 1063.79 0.845169 -4.08958 0
M  V30 11147 N 1064.23 1.43628 -0.648757 0
M  V30 11148 C 1065.18 2.30755 0.0455536 0
M  V30 11149 C 1066.15 1.44495 0.819168 0
M  V30 11150 O 1067.33 1.73372 0.79667 0
M  V30 11151 C 1064.47 3.30017 1.00908 0
M  V30 11152 C 1063.59 4.31376 0.232039 0
M  V30 11153 C 1062.72 5.17723 1.18897 0
M  V30 11154 C 1061.76 6.10778 0.402096 0
M  V30 11155 N 1060.9 6.89763 1.31038 0
M  V30 11156 H 1065.74 2.89581 -0.70332 0
M  V30 11157 H 1063.28 1.42662 -0.3586 0
M  V30 11158 H 1065.23 3.86072 1.58128 0
M  V30 11159 H 1063.86 2.72851 1.72488 0
M  V30 11160 H 1062.92 3.77652 -0.456373 0
M  V30 11161 H 1064.23 4.9735 -0.380023 0
M  V30 11162 H 1063.38 5.78381 1.83194 0
M  V30 11163 H 1062.12 4.51864 1.83494 0
M  V30 11164 H 1061.13 5.49212 -0.254255 0
M  V30 11165 H 1062.35 6.78678 -0.239411 0
M  V30 11166 H 1060.3 6.26557 1.94324 0
M  V30 11167 H 1060.21 7.52243 0.752774 0
M  V30 11168 H 1061.48 7.54931 1.94164 0
M  V30 11169 N 1065.71 0.390394 1.52688 0
M  V30 11170 C 1066.94 -0.194013 2.06491 0
M  V30 11171 C 1067.36 -1.3965 1.26014 0
M  V30 11172 O 1066.72 -1.79038 0.285468 0
M  V30 11173 C 1066.77 -0.541306 3.56514 0
M  V30 11174 O 1065.87 -1.63509 3.78601 0
M  V30 11175 H 1065.21 -0.0223608 0.663623 0
M  V30 11176 H 1067.74 0.558179 1.96839 0
M  V30 11177 H 1067.75 -0.805301 3.99974 0
M  V30 11178 H 1066.43 0.337828 4.14526 0
M  V30 11179 H 1065 -1.36473 3.4703 0
M  V30 11180 N 1067.19 -1.57141 0.120249 0
M  V30 11181 C 1068.47 -1.8677 -0.581075 0
M  V30 11182 C 1068.85 -1.02163 -1.84732 0
M  V30 11183 O 1068.19 -0.100897 -2.28277 0
M  V30 11184 C 1068.4 -3.37923 -0.872316 0
M  V30 11185 C 1069.75 -4.0655 -1.22483 0
M  V30 11186 O 1070.78 -3.42948 -0.962539 0
M  V30 11187 O 1069.63 -5.18821 -1.71717 0
M  V30 11188 H 1066.73 -0.773219 -0.293362 0
M  V30 11189 H 1069.27 -1.68992 0.154846 0
M  V30 11190 H 1068.05 -3.91292 0.0249416 0
M  V30 11191 H 1067.67 -3.61135 -1.66335 0
M  V30 11192 N 1068.67 0.153526 -1.5685 0
M  V30 11193 C 1069.61 1.18973 -1.97773 0
M  V30 11194 C 1070.58 1.43041 -0.844311 0
M  V30 11195 O 1071.77 1.55484 -1.10586 0
M  V30 11196 C 1068.91 2.51981 -2.35795 0
M  V30 11197 C 1068.02 2.35143 -3.62397 0
M  V30 11198 C 1067.16 3.61141 -3.89552 0
M  V30 11199 C 1066.2 3.39311 -5.09445 0
M  V30 11200 N 1065.33 4.57423 -5.32643 0
M  V30 11201 H 1070.17 0.833758 -2.86099 0
M  V30 11202 H 1067.71 0.400252 -1.4155 0
M  V30 11203 H 1069.67 3.29527 -2.55867 0
M  V30 11204 H 1068.3 2.85539 -1.50557 0
M  V30 11205 H 1067.35 1.48684 -3.50139 0
M  V30 11206 H 1068.66 2.14969 -4.501 0
M  V30 11207 H 1067.82 4.47117 -4.10087 0
M  V30 11208 H 1066.55 3.84312 -3.00259 0
M  V30 11209 H 1065.56 2.51723 -4.8879 0
M  V30 11210 H 1066.78 3.17545 -6.00285 0
M  V30 11211 H 1064.73 4.8078 -4.46303 0
M  V30 11212 H 1064.65 4.40228 -6.14602 0
M  V30 11213 H 1065.92 5.44632 -5.57671 0
M  V30 11214 N 1070.14 1.51827 0.422667 0
M  V30 11215 C 1071.56 1.57533 1.00201 0
M  V30 11216 C 1071.91 0.407623 1.91919 0
M  V30 11217 O 1071.03 -0.473763 2.1115 0
M  V30 11218 C 1071.63 2.85508 1.82403 0
M  V30 11219 C 1070.19 2.93737 2.35362 0
M  V30 11220 C 1069.33 2.52343 1.14971 0
M  V30 11221 H 1072.28 1.57391 0.20339 0
M  V30 11222 H 1072.3 2.70097 2.68007 0
M  V30 11223 H 1071.82 3.70477 1.15623 0
M  V30 11224 H 1069.92 2.13231 3.05554 0
M  V30 11225 H 1070.03 3.977 2.67155 0
M  V30 11226 H 1068.39 2.05878 1.49955 0
M  V30 11227 H 1069.18 3.39672 0.497786 0
M  V30 11228 N 1071.62 -0.679052 1.4222 0
M  V30 11229 C 1072.87 -1.43978 1.43673 0
M  V30 11230 C 1073.22 -1.92333 0.0506711 0
M  V30 11231 O 1072.52 -1.67715 -0.926406 0
M  V30 11232 C 1072.71 -2.65528 2.39227 0
M  V30 11233 C 1072.54 -2.29065 3.86987 0
M  V30 11234 C 1071.31 -2.1863 4.55553 0
M  V30 11235 C 1073.51 -1.90983 4.77525 0
M  V30 11236 N 1071.49 -1.75227 5.88361 0
M  V30 11237 C 1072.86 -1.58465 5.99407 0
M  V30 11238 C 1074.92 -1.77938 4.65019 0
M  V30 11239 C 1073.62 -1.14212 7.10175 0
M  V30 11240 C 1075.64 -1.35089 5.75765 0
M  V30 11241 C 1075.01 -1.03493 6.96756 0
M  V30 11242 H 1071.11 -0.523503 0.58092 0
M  V30 11243 H 1073.69 -0.784043 1.78216 0
M  V30 11244 H 1071.86 -3.28797 2.06753 0
M  V30 11245 H 1073.59 -3.32096 2.31288 0
M  V30 11246 H 1070.35 -2.37562 4.09709 0
M  V30 11247 H 1070.77 -1.5596 6.58791 0
M  V30 11248 H 1075.41 -2.01013 3.71959 0
M  V30 11249 H 1073.13 -0.89882 8.03086 0
M  V30 11250 H 1076.72 -1.25522 5.68098 0
M  V30 11251 H 1075.6 -0.708396 7.80994 0
M  V30 11252 N 1073.1 -1.28322 -0.914942 0
M  V30 11253 C 1074.51 -1.13937 -1.47903 0
M  V30 11254 C 1074.86 0.271072 -1.94318 0
M  V30 11255 O 1073.99 1.16522 -1.8235 0
M  V30 11256 C 1074.58 -2.06221 -2.68809 0
M  V30 11257 C 1073.14 -1.95903 -3.21402 0
M  V30 11258 C 1072.29 -1.98031 -1.94111 0
M  V30 11259 H 1075.24 -1.41029 -0.727772 0
M  V30 11260 H 1075.26 -1.6255 -3.44031 0
M  V30 11261 H 1074.77 -3.08866 -2.34997 0
M  V30 11262 H 1072.87 -0.962907 -3.59943 0
M  V30 11263 H 1072.99 -2.82799 -3.86732 0
M  V30 11264 H 1071.35 -1.42423 -2.11158 0
M  V30 11265 H 1072.13 -3.02354 -1.62595 0
M  V30 11266 N 1074.58 1.12322 -1.10551 0
M  V30 11267 C 1075.83 1.83495 -0.846998 0
M  V30 11268 C 1076.15 1.8457 0.629205 0
M  V30 11269 O 1075.42 1.30968 1.45686 0
M  V30 11270 H 1074 0.679479 -0.310351 0
M  V30 11271 H 1076.66 1.36004 -1.39602 0
M  V30 11272 H 1075.76 2.87651 -1.21092 0
M  V30 11273 N 1076.06 0.894434 1.2976 0
M  V30 11274 C 1077.02 0.373094 2.26143 0
M  V30 11275 C 1078.02 -0.489756 1.5316 0
M  V30 11276 O 1079.21 -0.29556 1.71674 0
M  V30 11277 C 1076.34 -0.467234 3.37683 0
M  V30 11278 H 1077.53 1.22427 2.73773 0
M  V30 11279 H 1075.09 0.672112 1.41111 0
M  V30 11280 H 1075.82 -1.33861 2.95384 0
M  V30 11281 H 1075.61 0.150954 3.91809 0
M  V30 11282 H 1077.1 -0.823469 4.094 0
M  V30 11283 N 1077.53 -1.43282 0.656365 0
M  V30 11284 C 1078.76 -2.05826 0.178619 0
M  V30 11285 C 1079.17 -1.493 -1.16216 0
M  V30 11286 O 1078.52 -0.620163 -1.72915 0
M  V30 11287 C 1078.58 -3.59496 0.0164101 0
M  V30 11288 C 1078.24 -4.38621 1.28298 0
M  V30 11289 C 1079.24 -4.70477 2.21241 0
M  V30 11290 C 1076.92 -4.78577 1.52544 0
M  V30 11291 C 1078.92 -5.412 3.36721 0
M  V30 11292 C 1076.6 -5.49044 2.68316 0
M  V30 11293 C 1077.6 -5.80279 3.6023 0
M  V30 11294 O 1077.29 -6.49306 4.7398 0
M  V30 11295 H 1077.02 -0.670158 0.0886814 0
M  V30 11296 H 1079.58 -1.84722 0.89816 0
M  V30 11297 H 1077.81 -3.79188 -0.758532 0
M  V30 11298 H 1079.5 -4.03731 -0.419096 0
M  V30 11299 H 1080.26 -4.40125 2.03753 0
M  V30 11300 H 1076.14 -4.5367 0.818816 0
M  V30 11301 H 1079.68 -5.65497 4.08483 0
M  V30 11302 H 1075.58 -5.78813 2.85738 0
M  V30 11303 H 1076.35 -6.67789 4.73286 0
M  V30 11304 N 1079.01 -0.398486 -1.52479 0
M  V30 11305 C 1080.26 0.180394 -2.01293 0
M  V30 11306 C 1080.58 1.46548 -1.28641 0
M  V30 11307 O 1079.85 1.91579 -0.409173 0
M  V30 11308 H 1078.43 0.0696528 -0.743746 0
M  V30 11309 H 1081.09 -0.532285 -1.87491 0
M  V30 11310 H 1080.19 0.38409 -3.09728 0
M  V30 11311 N 1080.49 1.57075 -0.12858 0
M  V30 11312 C 1081.42 2.18833 0.814519 0
M  V30 11313 C 1082.4 1.13114 1.2704 0
M  V30 11314 O 1083.59 1.41387 1.33129 0
M  V30 11315 C 1080.72 2.79535 2.06101 0
M  V30 11316 C 1079.67 3.9092 1.74257 0
M  V30 11317 C 1079 4.38473 3.06015 0
M  V30 11318 C 1080.3 5.1257 1.00345 0
M  V30 11319 H 1081.99 2.97895 0.299862 0
M  V30 11320 H 1079.54 1.4329 0.14279 0
M  V30 11321 H 1081.49 3.21401 2.72543 0
M  V30 11322 H 1080.21 1.97777 2.59907 0
M  V30 11323 H 1078.87 3.49645 1.102 0
M  V30 11324 H 1078.52 3.53561 3.57776 0
M  V30 11325 H 1078.22 5.13591 2.85479 0
M  V30 11326 H 1079.75 4.82997 3.7356 0
M  V30 11327 H 1081.16 5.51395 1.56959 0
M  V30 11328 H 1079.56 5.93333 0.898693 0
M  V30 11329 H 1080.63 4.84899 -0.0081335 0
M  V30 11330 N 1081.97 -0.145205 1.5693 0
M  V30 11331 C 1083.19 -0.876386 1.87974 0
M  V30 11332 C 1083.62 -1.73866 0.717795 0
M  V30 11333 O 1082.98 -1.78224 -0.332551 0
M  V30 11334 C 1083.03 -1.70746 3.17613 0
M  V30 11335 O 1082.13 -2.81188 3.01674 0
M  V30 11336 H 1081.47 -0.243987 0.617549 0
M  V30 11337 H 1084 -0.135482 2.04151 0
M  V30 11338 H 1084.01 -2.1021 3.49679 0
M  V30 11339 H 1082.69 -1.07429 4.01786 0
M  V30 11340 H 1081.26 -2.45117 2.81019 0
M  V30 11341 N 1083.45 -1.52049 -0.414609 0
M  V30 11342 C 1084.41 -1.74382 -1.4874 0
M  V30 11343 C 1085.41 -0.613701 -1.48628 0
M  V30 11344 O 1086.6 -0.88152 -1.50249 0
M  V30 11345 C 1083.73 -1.82116 -2.88178 0
M  V30 11346 H 1084.93 -2.70147 -1.30233 0
M  V30 11347 H 1082.48 -1.42382 -0.644756 0
M  V30 11348 H 1083.21 -0.882457 -3.12063 0
M  V30 11349 H 1083 -2.64268 -2.89663 0
M  V30 11350 H 1084.49 -2.01155 -3.65959 0
M  V30 11351 N 1084.93 0.6715 -1.42579 0
M  V30 11352 C 1085.86 1.79703 -1.42266 0
M  V30 11353 C 1086.87 1.59599 -0.321268 0
M  V30 11354 O 1088.06 1.68657 -0.584564 0
M  V30 11355 C 1085.16 3.16859 -1.20224 0
M  V30 11356 C 1084.33 3.63783 -2.42859 0
M  V30 11357 C 1083.39 4.79683 -2.16312 0
M  V30 11358 O 1082.42 4.90058 -2.89537 0
M  V30 11359 N 1083.62 5.68622 -1.16831 0
M  V30 11360 H 1086.38 1.80455 -2.39282 0
M  V30 11361 H 1083.95 0.854708 -1.375 0
M  V30 11362 H 1085.94 3.92054 -1.00376 0
M  V30 11363 H 1084.51 3.10987 -0.317188 0
M  V30 11364 H 1083.73 2.7923 -2.78252 0
M  V30 11365 H 1085.02 3.91877 -3.24514 0
M  V30 11366 H 1084.41 5.62894 -0.562746 0
M  V30 11367 H 1082.97 6.43615 -1.0297 0
M  V30 11368 N 1086.4 1.28806 0.908124 0
M  V30 11369 C 1087.33 1.15758 2.02787 0
M  V30 11370 C 1088.31 0.053911 1.70015 0
M  V30 11371 O 1089.5 0.231901 1.9281 0
M  V30 11372 C 1086.63 0.824526 3.37371 0
M  V30 11373 C 1085.58 1.88359 3.84324 0
M  V30 11374 C 1084.91 1.40404 5.15937 0
M  V30 11375 C 1086.21 3.29108 4.05568 0
M  V30 11376 H 1087.9 2.09431 2.13961 0
M  V30 11377 H 1085.45 1.00831 1.02806 0
M  V30 11378 H 1087.4 0.71999 4.15204 0
M  V30 11379 H 1086.13 -0.147902 3.26265 0
M  V30 11380 H 1084.79 1.97736 3.087 0
M  V30 11381 H 1084.43 0.420515 5.01239 0
M  V30 11382 H 1084.13 2.11224 5.48323 0
M  V30 11383 H 1085.66 1.31283 5.9632 0
M  V30 11384 H 1087.07 3.2262 4.73909 0
M  V30 11385 H 1085.47 3.97812 4.49294 0
M  V30 11386 H 1086.54 3.72709 3.10187 0
M  V30 11387 N 1087.88 -1.11734 1.11145 0
M  V30 11388 C 1089.13 -1.83874 0.86959 0
M  V30 11389 C 1089.48 -1.82859 -0.598363 0
M  V30 11390 O 1088.78 -1.26849 -1.43596 0
M  V30 11391 C 1088.97 -3.3046 1.36129 0
M  V30 11392 C 1088.8 -3.45752 2.87551 0
M  V30 11393 C 1087.57 -3.58956 3.55638 0
M  V30 11394 C 1089.77 -3.40296 3.85621 0
M  V30 11395 N 1087.75 -3.62688 4.95309 0
M  V30 11396 C 1089.12 -3.50611 5.11343 0
M  V30 11397 C 1091.17 -3.23808 3.78223 0
M  V30 11398 C 1089.88 -3.46138 6.3054 0
M  V30 11399 C 1091.9 -3.20651 4.96927 0
M  V30 11400 C 1091.27 -3.31534 6.21502 0
M  V30 11401 H 1087.36 -0.688226 0.371306 0
M  V30 11402 H 1089.95 -1.33715 1.41522 0
M  V30 11403 H 1088.12 -3.79144 0.842885 0
M  V30 11404 H 1089.85 -3.90493 1.0629 0
M  V30 11405 H 1086.61 -3.61387 3.06098 0
M  V30 11406 H 1087.03 -3.68199 5.68118 0
M  V30 11407 H 1091.67 -3.14282 2.8282 0
M  V30 11408 H 1089.39 -3.54433 7.26225 0
M  V30 11409 H 1092.98 -3.09064 4.9292 0
M  V30 11410 H 1091.86 -3.29076 7.11814 0
M  V30 11411 N 1089.36 -0.901303 -1.29284 0
M  V30 11412 C 1090.58 -0.542823 -2.0017 0
M  V30 11413 C 1091.01 0.865583 -1.67001 0
M  V30 11414 O 1090.37 1.5764 -0.895502 0
M  V30 11415 C 1090.42 -0.743987 -3.52842 0
M  V30 11416 O 1089.52 0.202771 -4.11901 0
M  V30 11417 H 1088.86 -0.211903 -0.62928 0
M  V30 11418 H 1091.39 -1.21333 -1.64741 0
M  V30 11419 H 1091.4 -0.64926 -4.02801 0
M  V30 11420 H 1090.08 -1.77077 -3.7632 0
M  V30 11421 H 1088.65 0.0603637 -3.72851 0
M  V30 11422 N 1090.84 1.42931 -0.663954 0
M  V30 11423 C 1091.75 2.3459 0.0214234 0
M  V30 11424 C 1092.76 1.54487 0.800611 0
M  V30 11425 O 1093.94 1.87098 0.74541 0
M  V30 11426 C 1091 3.32896 0.968556 0
M  V30 11427 C 1090.07 4.28901 0.185108 0
M  V30 11428 C 1089.3 5.2251 1.08713 0
M  V30 11429 O 1089.52 5.20795 2.32655 0
M  V30 11430 O 1088.46 5.99347 0.553758 0
M  V30 11431 H 1092.28 2.94714 -0.733308 0
M  V30 11432 H 1089.87 1.43252 -0.424159 0
M  V30 11433 H 1091.75 3.93318 1.51257 0
M  V30 11434 H 1090.42 2.75261 1.70333 0
M  V30 11435 H 1089.33 3.71926 -0.402752 0
M  V30 11436 H 1090.66 4.89547 -0.510319 0
M  V30 11437 N 1092.32 0.406567 1.52266 0
M  V30 11438 C 1093.54 -0.169624 2.06204 0
M  V30 11439 C 1093.96 -1.39076 1.27684 0
M  V30 11440 O 1093.32 -1.79528 0.328023 0
M  V30 11441 C 1093.37 -0.522611 3.57702 0
M  V30 11442 O 1093.09 0.650028 4.33251 0
M  V30 11443 C 1094.59 -1.15281 4.28048 0
M  V30 11444 H 1091.81 -0.0215191 0.670655 0
M  V30 11445 H 1094.35 0.576781 1.96198 0
M  V30 11446 H 1092.51 -1.21891 3.67725 0
M  V30 11447 H 1092.92 0.355989 5.23291 0
M  V30 11448 H 1094.4 -1.35002 5.35237 0
M  V30 11449 H 1094.87 -2.12517 3.84361 0
M  V30 11450 H 1095.48 -0.496786 4.22389 0
M  V30 11451 N 1093.79 -1.57004 0.136909 0
M  V30 11452 C 1094.73 -2.13355 -0.837405 0
M  V30 11453 C 1095.74 -1.08053 -1.21772 0
M  V30 11454 O 1096.93 -1.35365 -1.16355 0
M  V30 11455 C 1094.03 -2.63302 -2.13366 0
M  V30 11456 C 1093.2 -3.92896 -1.92228 0
M  V30 11457 C 1092.26 -4.28257 -3.05749 0
M  V30 11458 O 1091.29 -4.96761 -2.7788 0
M  V30 11459 N 1092.49 -3.87021 -4.3266 0
M  V30 11460 H 1095.25 -2.9758 -0.35586 0
M  V30 11461 H 1092.81 -1.61832 -0.0469758 0
M  V30 11462 H 1094.81 -2.83977 -2.88339 0
M  V30 11463 H 1093.38 -1.83858 -2.52814 0
M  V30 11464 H 1092.6 -3.80949 -1.01349 0
M  V30 11465 H 1093.88 -4.776 -1.75431 0
M  V30 11466 H 1093.28 -3.31804 -4.58173 0
M  V30 11467 H 1091.84 -4.12768 -5.04446 0
M  V30 11468 N 1095.27 0.136881 -1.57004 0
M  V30 11469 C 1096.69 0.489856 -1.51897 0
M  V30 11470 C 1096.89 1.82833 -0.847009 0
M  V30 11471 O 1095.94 2.48952 -0.421792 0
M  V30 11472 C 1097.26 0.490831 -2.96667 0
M  V30 11473 C 1098.81 0.575639 -3.07661 0
M  V30 11474 C 1099.28 0.607178 -4.53957 0
M  V30 11475 N 1100.77 0.66912 -4.58342 0
M  V30 11476 C 1101.51 0.714675 -5.68929 0
M  V30 11477 N 1101 0.718959 -6.89059 0
M  V30 11478 N 1102.8 0.756326 -5.56988 0
M  V30 11479 H 1094.95 -0.740347 -1.99079 0
M  V30 11480 H 1097.21 -0.271116 -0.908405 0
M  V30 11481 H 1096.92 -0.424648 -3.49127 0
M  V30 11482 H 1096.79 1.32512 -3.53158 0
M  V30 11483 H 1099.18 1.48154 -2.55215 0
M  V30 11484 H 1099.26 -0.285991 -2.54196 0
M  V30 11485 H 1098.9 -0.294604 -5.07045 0
M  V30 11486 H 1098.83 1.48544 -5.05215 0
M  V30 11487 H 1101.32 0.672697 -3.71864 0
M  V30 11488 H 1101.64 0.755848 -7.69095 0
M  V30 11489 H 1099.98 0.686671 -6.91599 0
M  V30 11490 H 1103.17 0.750219 -4.62049 0
M  V30 11491 H 1103.34 0.788363 -6.43186 0
M  V30 11492 N 1096.75 1.52266 0.40654 0
M  V30 11493 C 1097.98 1.70304 1.17491 0
M  V30 11494 C 1098.39 0.413656 1.84213 0
M  V30 11495 O 1097.75 -0.610524 1.71985 0
M  V30 11496 C 1097.8 2.84045 2.23609 0
M  V30 11497 O 1097.52 4.0799 1.5961 0
M  V30 11498 C 1099.02 3.13614 3.13306 0
M  V30 11499 H 1096.24 0.570669 0.352955 0
M  V30 11500 H 1098.79 1.98836 0.477967 0
M  V30 11501 H 1096.94 2.58025 2.88967 0
M  V30 11502 H 1097.36 4.7139 2.29983 0
M  V30 11503 H 1098.83 3.96707 3.83833 0
M  V30 11504 H 1099.31 2.27272 3.75824 0
M  V30 11505 H 1099.91 3.41409 2.53614 0
M  V30 11506 N 1098.23 -0.663929 1.42933 0
M  V30 11507 C 1099.51 -1.42054 1.34462 0
M  V30 11508 C 1099.89 -2.11096 -0.0127801 0
M  V30 11509 O 1099.23 -2.04027 -1.02884 0
M  V30 11510 C 1099.44 -2.41406 2.5204 0
M  V30 11511 C 1100.79 -3.05726 2.94647 0
M  V30 11512 O 1101.82 -2.51733 2.52009 0
M  V30 11513 O 1100.67 -4.03593 3.68477 0
M  V30 11514 H 1097.77 -0.634149 0.530834 0
M  V30 11515 H 1100.31 -0.691738 1.54962 0
M  V30 11516 H 1099.09 -1.89263 3.42484 0
M  V30 11517 H 1098.71 -3.21752 2.33584 0
M  V30 11518 N 1099.71 -1.29285 -0.901281 0
M  V30 11519 C 1101.12 -1.15499 -1.46686 0
M  V30 11520 C 1101.47 0.250446 -1.94595 0
M  V30 11521 O 1100.59 1.14581 -1.83576 0
M  V30 11522 C 1101.19 -2.0906 -2.66607 0
M  V30 11523 C 1099.75 -1.99301 -3.19306 0
M  V30 11524 C 1098.89 -2.00079 -1.91999 0
M  V30 11525 H 1101.85 -1.41793 -0.712773 0
M  V30 11526 H 1101.87 -1.6619 -3.42288 0
M  V30 11527 H 1101.38 -3.11341 -2.31707 0
M  V30 11528 H 1099.48 -1.00103 -3.58901 0
M  V30 11529 H 1099.59 -2.86885 -3.8371 0
M  V30 11530 H 1097.96 -1.44655 -2.09636 0
M  V30 11531 H 1098.74 -3.04061 -1.59379 0
M  V30 11532 N 1101.18 1.11143 -1.11736 0
M  V30 11533 C 1102.12 2.1705 -0.736325 0
M  V30 11534 C 1103.13 1.61116 0.233528 0
M  V30 11535 O 1104.32 1.78493 0.0159602 0
M  V30 11536 C 1101.42 3.38832 -0.067974 0
M  V30 11537 C 1100.59 4.24226 -1.06543 0
M  V30 11538 C 1099.65 5.24472 -0.426063 0
M  V30 11539 O 1098.68 5.58843 -1.0809 0
M  V30 11540 N 1099.88 5.74825 0.809711 0
M  V30 11541 H 1102.64 2.50349 -1.64758 0
M  V30 11542 H 1100.2 1.26693 -1.00799 0
M  V30 11543 H 1102.2 4.02991 0.371563 0
M  V30 11544 H 1100.77 3.0357 0.745917 0
M  V30 11545 H 1099.99 3.56475 -1.68283 0
M  V30 11546 H 1101.27 4.78117 -1.74016 0
M  V30 11547 H 1100.67 5.49088 1.36084 0
M  V30 11548 H 1099.23 6.40804 1.19218 0
M  V30 11549 N 1102.66 0.908147 1.28804 0
M  V30 11550 C 1103.6 0.336764 2.25701 0
M  V30 11551 C 1104.57 -0.555849 1.52804 0
M  V30 11552 O 1105.76 -0.500763 1.81727 0
M  V30 11553 C 1102.88 -0.519154 3.34698 0
M  V30 11554 C 1101.93 0.307304 4.25391 0
M  V30 11555 S 1102.76 1.71048 5.07447 0
M  V30 11556 C 1103.92 0.861715 6.1994 0
M  V30 11557 H 1104.15 1.15806 2.73818 0
M  V30 11558 H 1101.69 0.709033 1.37157 0
M  V30 11559 H 1103.64 -1.00718 3.97952 0
M  V30 11560 H 1102.3 -1.31477 2.85259 0
M  V30 11561 H 1101.5 -0.346906 5.02805 0
M  V30 11562 H 1101.1 0.728777 3.66831 0
M  V30 11563 H 1103.39 0.088851 6.77442 0
M  V30 11564 H 1104.33 1.60821 6.89596 0
M  V30 11565 H 1104.74 0.412366 5.62992 0
M  V30 11566 N 1104.14 -1.42577 0.671525 0
M  V30 11567 C 1105.05 -2.34598 -0.00898225 0
M  V30 11568 C 1106.07 -1.54909 -0.792407 0
M  V30 11569 O 1107.24 -1.87491 -0.735477 0
M  V30 11570 C 1104.31 -3.33405 -0.950888 0
M  V30 11571 C 1103.37 -4.28993 -0.16236 0
M  V30 11572 C 1102.6 -5.2308 -1.0594 0
M  V30 11573 O 1102.82 -5.22022 -2.2989 0
M  V30 11574 O 1101.76 -5.99632 -0.521966 0
M  V30 11575 H 1105.58 -2.94321 0.748927 0
M  V30 11576 H 1103.17 -1.43025 0.43175 0
M  V30 11577 H 1105.05 -3.94115 -1.49169 0
M  V30 11578 H 1103.73 -2.7616 -1.68871 0
M  V30 11579 H 1102.63 -3.71707 0.42247 0
M  V30 11580 H 1103.97 -4.8927 0.536274 0
M  V30 11581 N 1105.62 -0.414636 -1.52048 0
M  V30 11582 C 1106.85 0.158456 -2.05991 0
M  V30 11583 C 1107.26 1.38947 -1.28415 0
M  V30 11584 O 1106.6 1.80698 -0.330728 0
M  V30 11585 C 1106.66 0.568392 -3.54978 0
M  V30 11586 C 1106.33 -0.552654 -4.53646 0
M  V30 11587 C 1107.32 -1.41791 -5.00191 0
M  V30 11588 C 1105.01 -0.726917 -4.97012 0
M  V30 11589 C 1107 -2.44234 -5.88752 0
M  V30 11590 C 1104.69 -1.75464 -5.85368 0
M  V30 11591 C 1105.69 -2.61075 -6.31133 0
M  V30 11592 O 1105.37 -3.62087 -7.17738 0
M  V30 11593 H 1105.11 0.0214746 -0.675659 0
M  V30 11594 H 1107.66 -0.585825 -1.96869 0
M  V30 11595 H 1105.89 1.36504 -3.61806 0
M  V30 11596 H 1107.58 1.07003 -3.91542 0
M  V30 11597 H 1108.35 -1.29471 -4.67399 0
M  V30 11598 H 1104.22 -0.0701964 -4.60947 0
M  V30 11599 H 1107.77 -3.1109 -6.24395 0
M  V30 11600 H 1103.67 -1.87813 -6.17573 0
M  V30 11601 H 1104.43 -3.58396 -7.35863 0
M  V30 11602 N 1107.1 1.56929 -0.145233 0
M  V30 11603 C 1108.03 2.12449 0.833107 0
M  V30 11604 C 1109.01 1.0476 1.24355 0
M  V30 11605 O 1110.19 1.32579 1.33997 0
M  V30 11606 C 1107.32 2.64274 2.11842 0
M  V30 11607 C 1106.36 3.84093 1.85404 0
M  V30 11608 S 1107.2 5.25172 1.04663 0
M  V30 11609 C 1108.35 5.80384 2.34318 0
M  V30 11610 H 1108.59 2.951 0.360969 0
M  V30 11611 H 1106.12 1.54246 0.0690187 0
M  V30 11612 H 1108.08 2.94783 2.8568 0
M  V30 11613 H 1106.74 1.81756 2.56171 0
M  V30 11614 H 1105.93 4.18593 2.80706 0
M  V30 11615 H 1105.53 3.54336 1.19675 0
M  V30 11616 H 1107.83 5.91709 3.29981 0
M  V30 11617 H 1108.77 6.7798 2.04325 0
M  V30 11618 H 1109.18 5.08617 2.44885 0
M  V30 11619 N 1108.58 -0.128553 1.57075 0
M  V30 11620 C 1109.82 -0.836536 1.83535 0
M  V30 11621 C 1110.14 -1.81491 0.7294 0
M  V30 11622 O 1111.34 -2.56838 0.880128 0
M  V30 11623 C 1109.8 -1.53836 3.25365 0
M  V30 11624 C 1109.41 -0.601454 4.43944 0
M  V30 11625 C 1111.15 -2.23204 3.61082 0
M  V30 11626 C 1109.06 -1.30596 5.768 0
M  V30 11627 H 1107.99 -0.316142 0.684522 0
M  V30 11628 H 1110.64 -0.0892555 1.83283 0
M  V30 11629 H 1109.02 -2.33192 3.20058 0
M  V30 11630 H 1110.2 0.158209 4.60528 0
M  V30 11631 H 1108.51 -0.0152393 4.16397 0
M  V30 11632 H 1111.11 -2.76585 4.57608 0
M  V30 11633 H 1111.45 -3.0056 2.88044 0
M  V30 11634 H 1111.98 -1.50746 3.68131 0
M  V30 11635 H 1108.72 -0.573874 6.52983 0
M  V30 11636 H 1108.24 -2.03787 5.6412 0
M  V30 11637 H 1109.92 -1.8418 6.20231 0
M  V30 11638 N 1110.05 -1.5248 -0.398459 0
M  V30 11639 C 1111.3 -1.67061 -1.14441 0
M  V30 11640 C 1111.63 -0.405821 -1.90219 0
M  V30 11641 O 1110.88 0.611532 -1.859 0
M  V30 11642 C 1111.18 -2.85038 -2.15611 0
M  V30 11643 C 1110.85 -4.22847 -1.56561 0
M  V30 11644 C 1109.51 -4.60329 -1.40182 0
M  V30 11645 C 1111.86 -5.08683 -1.1354 0
M  V30 11646 C 1109.19 -5.81314 -0.793149 0
M  V30 11647 C 1111.54 -6.30284 -0.540866 0
M  V30 11648 C 1110.21 -6.66505 -0.364297 0
M  V30 11649 H 1109.48 -0.611321 -0.418769 0
M  V30 11650 H 1112.12 -1.86604 -0.430241 0
M  V30 11651 H 1110.43 -2.59873 -2.93212 0
M  V30 11652 H 1112.13 -2.93516 -2.73221 0
M  V30 11653 H 1108.72 -3.93316 -1.70295 0
M  V30 11654 H 1112.9 -4.80301 -1.24999 0
M  V30 11655 H 1108.16 -6.07994 -0.64446 0
M  V30 11656 H 1112.33 -6.96115 -0.199167 0
M  V30 11657 H 1109.96 -7.60121 0.109439 0
M  V30 11658 N 1111.53 0.65634 -1.43283 0
M  V30 11659 C 1112.94 1.23744 -1.39801 0
M  V30 11660 C 1113.29 1.95942 -0.100507 0
M  V30 11661 O 1112.42 2.01063 0.800161 0
M  V30 11662 C 1113.01 2.25062 -2.53244 0
M  V30 11663 C 1111.57 2.78657 -2.53036 0
M  V30 11664 C 1110.72 1.53251 -2.31105 0
M  V30 11665 H 1113.67 0.448553 -1.52229 0
M  V30 11666 H 1113.69 3.07174 -2.24553 0
M  V30 11667 H 1113.2 1.72487 -3.47664 0
M  V30 11668 H 1111.3 3.35304 -1.62487 0
M  V30 11669 H 1111.42 3.26414 -3.507 0
M  V30 11670 H 1109.78 1.80487 -1.79713 0
M  V30 11671 H 1110.56 1.02615 -3.27605 0
M  V30 11672 N 1113.01 1.29761 0.894412 0
M  V30 11673 C 1114.43 1.07888 1.17611 0
M  V30 11674 C 1114.63 -0.16644 2.00811 0
M  V30 11675 O 1113.68 -0.86272 2.37304 0
M  V30 11676 C 1114.99 2.33723 1.89193 0
M  V30 11677 C 1116.54 2.39095 2.01997 0
M  V30 11678 C 1117.02 3.64747 2.7699 0
M  V30 11679 N 1118.51 3.65501 2.84541 0
M  V30 11680 C 1119.24 4.59411 3.43117 0
M  V30 11681 N 1118.74 5.63657 4.02818 0
M  V30 11682 N 1120.53 4.46971 3.40842 0
M  V30 11683 H 1112.68 2.0967 0.339421 0
M  V30 11684 H 1114.95 0.923788 0.212882 0
M  V30 11685 H 1114.65 3.24551 1.35496 0
M  V30 11686 H 1114.53 2.41642 2.89636 0
M  V30 11687 H 1116.91 1.48751 2.54867 0
M  V30 11688 H 1116.99 2.35158 1.0067 0
M  V30 11689 H 1116.64 4.55445 2.24794 0
M  V30 11690 H 1116.57 3.65944 3.78672 0
M  V30 11691 H 1119.06 2.90129 2.42144 0
M  V30 11692 H 1119.37 6.31429 4.45552 0
M  V30 11693 H 1117.72 5.67461 4.01265 0
M  V30 11694 H 1120.91 3.64719 2.93424 0
M  V30 11695 H 1121.08 5.20341 3.86198 0
M  V30 11696 N 1114.49 -1.10549 1.12324 0
M  V30 11697 C 1115.45 -2.15039 0.793156 0
M  V30 11698 C 1116.45 -1.59651 -0.19192 0
M  V30 11699 O 1117.64 -1.74167 0.0337262 0
M  V30 11700 C 1114.77 -3.40433 0.17842 0
M  V30 11701 H 1115.97 -2.4575 1.71892 0
M  V30 11702 H 1113.52 -1.25892 0.926333 0
M  V30 11703 H 1114.25 -3.15338 -0.757122 0
M  V30 11704 H 1114.04 -3.81921 0.887645 0
M  V30 11705 H 1115.53 -4.17584 -0.0360724 0
M  V30 11706 N 1115.97 -0.914965 -1.28321 0
M  V30 11707 C 1116.9 -0.421292 -2.29668 0
M  V30 11708 C 1117.88 0.511743 -1.6222 0
M  V30 11709 O 1119.06 0.419218 -1.89621 0
M  V30 11710 C 1116.19 0.338364 -3.45648 0
M  V30 11711 C 1115.15 -0.505646 -4.25003 0
M  V30 11712 C 1114.47 0.382421 -5.33331 0
M  V30 11713 C 1115.77 -1.76354 -4.91626 0
M  V30 11714 H 1117.47 -1.26826 -2.71211 0
M  V30 11715 H 1115.01 -0.611291 -1.30381 0
M  V30 11716 H 1116.96 0.694578 -4.15636 0
M  V30 11717 H 1115.69 1.21925 -3.02988 0
M  V30 11718 H 1114.35 -0.844395 -3.56743 0
M  V30 11719 H 1114 1.26189 -4.86914 0
M  V30 11720 H 1113.7 -0.17871 -5.87328 0
M  V30 11721 H 1115.22 0.73449 -6.06166 0
M  V30 11722 H 1116.63 -1.47616 -5.5397 0
M  V30 11723 H 1115.03 -2.26717 -5.55625 0
M  V30 11724 H 1116.1 -2.49063 -4.16048 0
M  V30 11725 N 1117.44 1.42219 -0.679077 0
M  V30 11726 C 1118.67 2.06333 -0.210097 0
M  V30 11727 C 1119.09 1.50703 1.12562 0
M  V30 11728 O 1118.45 0.627241 1.70104 0
M  V30 11729 C 1118.5 3.60243 -0.160322 0
M  V30 11730 O 1117.6 4.03122 0.869872 0
M  V30 11731 H 1116.94 0.655362 -0.106754 0
M  V30 11732 H 1119.47 1.82278 -0.929294 0
M  V30 11733 H 1119.48 4.07997 0.014384 0
M  V30 11734 H 1118.16 4.00106 -1.13526 0
M  V30 11735 H 1116.74 3.66907 0.66586 0
M  V30 11736 N 1118.92 0.422693 1.51826 0
M  V30 11737 C 1120.17 -0.148861 2.02253 0
M  V30 11738 C 1120.5 -1.43629 1.30707 0
M  V30 11739 O 1119.78 -1.89967 0.417482 0
M  V30 11740 C 1120.06 -0.382672 3.58061 0
M  V30 11741 C 1119.91 0.922386 4.40241 0
M  V30 11742 C 1121.23 -1.1589 4.24567 0
M  V30 11743 H 1118.35 -0.0526279 0.735119 0
M  V30 11744 H 1120.99 0.558821 1.81596 0
M  V30 11745 H 1119.14 -0.985495 3.75793 0
M  V30 11746 H 1120.81 1.55806 4.34191 0
M  V30 11747 H 1119.06 1.53032 4.05911 0
M  V30 11748 H 1119.73 0.713012 5.47376 0
M  V30 11749 H 1122.2 -0.648415 4.11017 0
M  V30 11750 H 1121.08 -1.29125 5.33496 0
M  V30 11751 H 1121.34 -2.18315 3.84436 0
M  V30 11752 N 1120.4 -1.5685 0.153553 0
M  V30 11753 C 1121.36 -2.15894 -0.769564 0
M  V30 11754 C 1122.36 -1.10239 -1.17064 0
M  V30 11755 O 1123.55 -1.35845 -1.09049 0
M  V30 11756 C 1120.68 -2.72738 -2.04516 0
M  V30 11757 H 1121.88 -2.98807 -0.255842 0
M  V30 11758 H 1119.43 -1.56005 -0.0959279 0
M  V30 11759 H 1120.17 -1.9351 -2.60239 0
M  V30 11760 H 1119.95 -3.50042 -1.76672 0
M  V30 11761 H 1121.44 -3.18208 -2.70432 0
M  V30 11762 N 1121.88 0.120221 -1.57141 0
M  V30 11763 C 1122.79 1.16641 -2.03549 0
M  V30 11764 C 1123.8 1.45407 -0.955656 0
M  V30 11765 O 1124.98 1.56547 -1.26708 0
M  V30 11766 C 1122.04 2.4734 -2.42948 0
M  V30 11767 C 1121.11 2.25982 -3.65008 0
M  V30 11768 C 1120.34 3.50449 -4.02518 0
M  V30 11769 O 1120.56 4.57706 -3.40384 0
M  V30 11770 O 1119.5 3.41524 -4.95626 0
M  V30 11771 H 1123.32 0.802323 -2.9291 0
M  V30 11772 H 1120.91 0.330927 -1.45689 0
M  V30 11773 H 1122.79 3.24348 -2.69029 0
M  V30 11774 H 1121.46 2.83225 -1.56733 0
M  V30 11775 H 1120.37 1.46837 -3.44078 0
M  V30 11776 H 1121.7 1.95002 -4.51924 0
M  V30 11777 N 1123.36 1.52689 0.390367 0
M  V30 11778 C 1124.77 1.41909 0.730338 0
M  V30 11779 C 1124.97 0.538427 1.94173 0
M  V30 11780 O 1124.03 0.0113527 2.52497 0
M  V30 11781 C 1125.34 2.84737 0.966714 0
M  V30 11782 C 1126.89 2.94206 1.06827 0
M  V30 11783 C 1127.36 4.38042 1.33728 0
M  V30 11784 N 1128.86 4.4136 1.40553 0
M  V30 11785 C 1129.59 5.49735 1.63031 0
M  V30 11786 N 1129.09 6.68197 1.82988 0
M  V30 11787 N 1130.88 5.37276 1.65199 0
M  V30 11788 H 1123.03 2.08469 -0.406766 0
M  V30 11789 H 1125.29 0.940401 -0.11979 0
M  V30 11790 H 1125 3.51385 0.148725 0
M  V30 11791 H 1124.87 3.26909 1.88176 0
M  V30 11792 H 1127.26 2.27726 1.87683 0
M  V30 11793 H 1127.34 2.55463 0.131168 0
M  V30 11794 H 1126.99 5.05087 0.533832 0
M  V30 11795 H 1126.92 4.74336 2.28721 0
M  V30 11796 H 1129.41 3.55976 1.26844 0
M  V30 11797 H 1129.72 7.46567 1.99643 0
M  V30 11798 H 1128.06 6.71228 1.80215 0
M  V30 11799 H 1131.26 4.437 1.49158 0
M  V30 11800 H 1131.43 6.21806 1.82377 0
M  V30 11801 N 1124.83 -0.648732 1.43629 0
M  V30 11802 C 1126.06 -1.44117 1.49148 0
M  V30 11803 C 1126.48 -1.87767 0.111952 0
M  V30 11804 O 1125.84 -1.57655 -0.895249 0
M  V30 11805 C 1125.89 -2.64938 2.44623 0
M  V30 11806 O 1124.99 -3.64155 1.93559 0
M  V30 11807 H 1124.34 -0.431933 0.504312 0
M  V30 11808 H 1126.87 -0.793439 1.88589 0
M  V30 11809 H 1126.88 -3.12698 2.62076 0
M  V30 11810 H 1125.55 -2.3251 3.44836 0
M  V30 11811 H 1124.13 -3.23322 1.85789 0
M  V30 11812 N 1126.31 -1.30234 -0.887518 0
M  V30 11813 C 1127.56 -1.20096 -1.6416 0
M  V30 11814 C 1127.91 0.24253 -1.90865 0
M  V30 11815 O 1127.21 1.17078 -1.51668 0
M  V30 11816 C 1127.4 -1.96046 -2.98832 0
M  V30 11817 C 1127.23 -3.47633 -2.85274 0
M  V30 11818 C 1126 -4.16989 -2.85392 0
M  V30 11819 C 1128.2 -4.42911 -2.61409 0
M  V30 11820 N 1126.18 -5.54854 -2.62699 0
M  V30 11821 C 1127.55 -5.68321 -2.47813 0
M  V30 11822 C 1129.61 -4.32535 -2.46613 0
M  V30 11823 C 1128.31 -6.84532 -2.20927 0
M  V30 11824 C 1130.33 -5.4851 -2.21112 0
M  V30 11825 C 1129.7 -6.729 -2.08291 0
M  V30 11826 H 1125.8 -0.494513 -0.605789 0
M  V30 11827 H 1128.38 -1.64213 -1.04605 0
M  V30 11828 H 1126.55 -1.54324 -3.56425 0
M  V30 11829 H 1128.28 -1.78072 -3.63418 0
M  V30 11830 H 1125.04 -3.68798 -2.97128 0
M  V30 11831 H 1125.46 -6.27395 -2.54371 0
M  V30 11832 H 1130.1 -3.37047 -2.55262 0
M  V30 11833 H 1127.82 -7.80063 -2.11015 0
M  V30 11834 H 1131.41 -5.42389 -2.1049 0
M  V30 11835 H 1130.29 -7.61125 -1.88833 0
M  V30 11836 N 1127.79 1.09952 -1.12909 0
M  V30 11837 C 1128.74 2.14591 -0.77037 0
M  V30 11838 C 1129.72 1.59204 0.233021 0
M  V30 11839 O 1130.92 1.7696 0.0377599 0
M  V30 11840 C 1128.05 3.42514 -0.232117 0
M  V30 11841 C 1127.13 4.04823 -1.26409 0
M  V30 11842 N 1127.52 4.41763 -2.46331 0
M  V30 11843 C 1125.82 4.31951 -1.11062 0
M  V30 11844 C 1126.52 4.90778 -3.12269 0
M  V30 11845 N 1125.5 4.87896 -2.39704 0
M  V30 11846 H 1129.3 2.40951 -1.68285 0
M  V30 11847 H 1126.81 1.27125 -1.0106 0
M  V30 11848 H 1128.81 4.16878 0.0430853 0
M  V30 11849 H 1127.47 3.17612 0.674757 0
M  V30 11850 H 1128.48 4.33299 -2.83677 0
M  V30 11851 H 1125.16 4.16681 -0.261456 0
M  V30 11852 H 1126.55 5.28868 -4.14425 0
M  V30 11853 N 1129.27 0.921757 1.27833 0
M  V30 11854 C 1130.68 0.621102 1.47019 0
M  V30 11855 C 1130.88 -0.831338 1.83551 0
M  V30 11856 O 1129.94 -1.60974 1.94534 0
M  V30 11857 C 1131.25 1.56588 2.56712 0
M  V30 11858 C 1132.8 1.57346 2.70576 0
M  V30 11859 C 1133.28 2.50505 3.8342 0
M  V30 11860 N 1134.77 2.48678 3.90786 0
M  V30 11861 C 1135.5 3.17454 4.77505 0
M  V30 11862 N 1135 3.95588 5.68755 0
M  V30 11863 N 1136.79 3.06501 4.71183 0
M  V30 11864 H 1128.94 1.86085 1.02403 0
M  V30 11865 H 1131.21 0.798595 0.510833 0
M  V30 11866 H 1130.91 2.60175 2.36647 0
M  V30 11867 H 1130.79 1.30305 3.53978 0
M  V30 11868 H 1133.17 0.544919 2.90025 0
M  V30 11869 H 1133.25 1.87675 1.73815 0
M  V30 11870 H 1132.9 3.53466 3.64725 0
M  V30 11871 H 1132.83 2.17474 4.79596 0
M  V30 11872 H 1135.32 1.91928 3.25534 0
M  V30 11873 H 1135.63 4.45066 6.31772 0
M  V30 11874 H 1133.98 3.99692 5.6857 0
M  V30 11875 H 1137.17 2.44958 3.9889 0
M  V30 11876 H 1137.34 3.60372 5.3855 0
M  V30 11877 N 1130.75 -1.41857 0.686609 0
M  V30 11878 C 1131.71 -2.29187 0.0247022 0
M  V30 11879 C 1132.71 -1.43926 -0.717069 0
M  V30 11880 O 1133.9 -1.65179 -0.5533 0
M  V30 11881 C 1131.03 -3.26644 -0.975537 0
M  V30 11882 H 1132.22 -2.89212 0.793503 0
M  V30 11883 H 1129.78 -1.49694 0.449605 0
M  V30 11884 H 1130.51 -2.7158 -1.77242 0
M  V30 11885 H 1130.3 -3.89545 -0.446892 0
M  V30 11886 H 1131.79 -3.92107 -1.43673 0
M  V30 11887 N 1132.22 -0.430739 -1.51599 0
M  V30 11888 C 1133.47 0.137657 -2.01631 0
M  V30 11889 C 1133.79 1.43787 -1.31721 0
M  V30 11890 O 1133.06 1.90668 -0.449717 0
M  V30 11891 H 1131.64 0.0538611 -0.745056 0
M  V30 11892 H 1134.31 -0.571935 -1.86319 0
M  V30 11893 H 1133.4 0.318305 -3.10473 0
M  V30 11894 N 1133.7 1.56767 -0.161869 0
M  V30 11895 C 1134.95 1.97661 0.479751 0
M  V30 11896 C 1135.3 1.04583 1.61493 0
M  V30 11897 O 1134.6 0.0836772 1.91417 0
M  V30 11898 C 1134.79 3.42567 1.01894 0
M  V30 11899 C 1134.62 4.49657 -0.0624633 0
M  V30 11900 C 1133.39 5.0273 -0.508935 0
M  V30 11901 C 1135.59 5.07069 -0.85941 0
M  V30 11902 N 1133.57 5.93442 -1.57163 0
M  V30 11903 C 1134.94 5.94131 -1.77225 0
M  V30 11904 C 1137 4.89596 -0.905543 0
M  V30 11905 C 1135.7 6.6559 -2.72731 0
M  V30 11906 C 1137.72 5.61769 -1.8485 0
M  V30 11907 C 1137.09 6.48551 -2.74884 0
M  V30 11908 H 1133.19 0.76864 0.14393 0
M  V30 11909 H 1135.77 1.92957 -0.259906 0
M  V30 11910 H 1133.94 3.47835 1.72815 0
M  V30 11911 H 1135.67 3.70493 1.62841 0
M  V30 11912 H 1132.43 4.73476 -0.1084 0
M  V30 11913 H 1132.85 6.43502 -2.10319 0
M  V30 11914 H 1137.49 4.22209 -0.223516 0
M  V30 11915 H 1135.21 7.32197 -3.41927 0
M  V30 11916 H 1138.8 5.50239 -1.89018 0
M  V30 11917 H 1137.68 7.03417 -3.46661 0
M  V30 11918 N 1135.18 -0.111886 1.57202 0
M  V30 11919 C 1136.09 -1.1556 2.04165 0
M  V30 11920 C 1137.11 -1.44898 0.963354 0
M  V30 11921 O 1138.28 -1.55873 1.27536 0
M  V30 11922 C 1135.35 -2.46048 2.44256 0
M  V30 11923 C 1134.41 -2.24043 3.66201 0
M  V30 11924 C 1133.64 -3.4831 4.04371 0
M  V30 11925 O 1133.86 -4.55895 3.42806 0
M  V30 11926 O 1132.8 -3.38891 4.9743 0
M  V30 11927 H 1136.62 -0.786778 2.93332 0
M  V30 11928 H 1134.21 -0.323196 1.45862 0
M  V30 11929 H 1136.09 -3.22916 2.70745 0
M  V30 11930 H 1134.77 -2.8239 1.58233 0
M  V30 11931 H 1133.67 -1.4501 3.44852 0
M  V30 11932 H 1135.01 -1.92602 4.52952 0
M  V30 11933 N 1136.66 -1.52894 -0.382264 0
M  V30 11934 C 1137.59 -1.74413 -1.48703 0
M  V30 11935 C 1138.6 -0.624663 -1.50339 0
M  V30 11936 O 1139.79 -0.900527 -1.54119 0
M  V30 11937 C 1136.89 -1.79387 -2.8753 0
M  V30 11938 C 1136.07 -3.08794 -3.09783 0
M  V30 11939 C 1135.12 -3.05226 -4.2863 0
M  V30 11940 O 1134.15 -3.79073 -4.24609 0
M  V30 11941 N 1135.35 -2.2488 -5.35172 0
M  V30 11942 H 1138.12 -2.69734 -1.30628 0
M  V30 11943 H 1135.68 -1.51465 -0.571842 0
M  V30 11944 H 1137.67 -1.74498 -3.65147 0
M  V30 11945 H 1136.24 -0.914233 -2.98932 0
M  V30 11946 H 1135.46 -3.27118 -2.19971 0
M  V30 11947 H 1136.75 -3.94347 -3.21509 0
M  V30 11948 H 1136.15 -1.64363 -5.41296 0
M  V30 11949 H 1134.7 -2.25825 -6.1143 0
M  V30 11950 N 1138.14 0.641106 -1.43971 0
M  V30 11951 C 1139.41 1.39897 -1.36704 0
M  V30 11952 C 1139.79 2.1109 -0.0208051 0
M  V30 11953 O 1139.14 2.05638 0.99625 0
M  V30 11954 C 1139.35 2.37366 -2.55849 0
M  V30 11955 C 1140.7 3.01 -2.99473 0
M  V30 11956 O 1141.72 2.47692 -2.55982 0
M  V30 11957 O 1140.58 3.9768 -3.74851 0
M  V30 11958 H 1137.68 0.625623 -0.540855 0
M  V30 11959 H 1140.22 0.666997 -1.56042 0
M  V30 11960 H 1139 1.8379 -3.45452 0
M  V30 11961 H 1138.62 3.17995 -2.38673 0
M  V30 11962 N 1139.62 1.30703 0.880598 0
M  V30 11963 C 1140.85 1.22536 1.66339 0
M  V30 11964 C 1141.25 -0.213507 1.87991 0
M  V30 11965 O 1140.6 -1.15236 1.43061 0
M  V30 11966 C 1140.66 1.88798 3.05934 0
M  V30 11967 C 1140.32 3.38131 3.07435 0
M  V30 11968 C 1141.32 4.34053 2.86171 0
M  V30 11969 C 1139 3.79651 3.28893 0
M  V30 11970 C 1141 5.69469 2.86328 0
M  V30 11971 C 1138.69 5.15182 3.2868 0
M  V30 11972 C 1139.68 6.09902 3.07423 0
M  V30 11973 O 1139.37 7.42957 3.07034 0
M  V30 11974 H 1139.1 0.425018 0.525677 0
M  V30 11975 H 1141.66 1.72939 1.1082 0
M  V30 11976 H 1139.89 1.3293 3.63134 0
M  V30 11977 H 1141.58 1.74691 3.66385 0
M  V30 11978 H 1142.34 4.03307 2.69385 0
M  V30 11979 H 1138.22 3.06365 3.44473 0
M  V30 11980 H 1141.77 6.43375 2.69655 0
M  V30 11981 H 1137.66 5.45567 3.45002 0
M  V30 11982 H 1138.43 7.52 3.23169 0
M  V30 11983 N 1141.09 -1.09351 1.1349 0
M  V30 11984 C 1142.51 -1.3359 0.873269 0
M  V30 11985 C 1142.71 -1.95432 -0.490767 0
M  V30 11986 O 1141.77 -2.20117 -1.23712 0
M  V30 11987 C 1143.08 -2.24681 1.99847 0
M  V30 11988 C 1144.63 -2.38188 2.03065 0
M  V30 11989 C 1145.1 -3.32615 3.14851 0
M  V30 11990 N 1146.59 -3.40188 3.14366 0
M  V30 11991 C 1147.33 -4.13256 3.97501 0
M  V30 11992 N 1146.82 -4.89114 4.90652 0
M  V30 11993 N 1148.62 -4.08988 3.85597 0
M  V30 11994 H 1140.77 -0.675852 2.0136 0
M  V30 11995 H 1143.03 -0.360268 0.876876 0
M  V30 11996 H 1142.74 -1.86469 2.98198 0
M  V30 11997 H 1142.61 -3.25075 1.91327 0
M  V30 11998 H 1145 -2.75663 1.05327 0
M  V30 11999 H 1145.08 -1.3757 2.15658 0
M  V30 12000 H 1144.72 -2.95863 4.12829 0
M  V30 12001 H 1144.65 -4.33139 2.99496 0
M  V30 12002 H 1147.14 -2.861 2.46892 0
M  V30 12003 H 1147.46 -5.423 5.50573 0
M  V30 12004 H 1145.8 -4.882 4.94657 0
M  V30 12005 H 1148.99 -3.48826 3.12151 0
M  V30 12006 H 1149.17 -4.65671 4.50615 0
M  V30 12007 N 1142.57 -0.928524 -1.27343 0
M  V30 12008 C 1143.53 -0.43292 -2.25074 0
M  V30 12009 C 1144.53 0.448976 -1.54405 0
M  V30 12010 O 1145.72 0.249939 -1.72398 0
M  V30 12011 C 1142.86 0.377539 -3.38803 0
M  V30 12012 H 1144.05 -1.29642 -2.70431 0
M  V30 12013 H 1141.6 -0.709289 -1.3928 0
M  V30 12014 H 1142.34 1.25982 -2.98829 0
M  V30 12015 H 1142.12 -0.254782 -3.91271 0
M  V30 12016 H 1143.61 0.714634 -4.1144 0
M  V30 12017 N 1144.05 1.41491 -0.694123 0
M  V30 12018 C 1145.3 2.00854 -0.224033 0
M  V30 12019 C 1145.62 1.55246 1.17999 0
M  V30 12020 O 1144.89 0.782452 1.79595 0
M  V30 12021 H 1143.47 0.742721 -0.0798368 0
M  V30 12022 H 1146.13 1.73137 -0.894958 0
M  V30 12023 H 1145.23 3.11173 -0.240332 0
M  V30 12024 N 1145.53 0.438773 1.51369 0
M  V30 12025 C 1146.94 0.0911416 1.5934 0
M  V30 12026 C 1147.14 -1.39962 1.44958 0
M  V30 12027 O 1146.2 -2.16968 1.29155 0
M  V30 12028 C 1147.51 0.612531 2.94395 0
M  V30 12029 C 1149.06 0.573098 3.07709 0
M  V30 12030 C 1149.54 1.07149 4.4529 0
M  V30 12031 N 1151.03 1.02953 4.51614 0
M  V30 12032 C 1151.76 1.38602 5.56397 0
M  V30 12033 N 1151.26 1.81543 6.68591 0
M  V30 12034 N 1153.05 1.30409 5.46763 0
M  V30 12035 H 1145.2 1.40872 1.58962 0
M  V30 12036 H 1147.46 0.580589 0.749414 0
M  V30 12037 H 1147.17 1.65562 3.10294 0
M  V30 12038 H 1147.04 0.0382375 3.77181 0
M  V30 12039 H 1149.43 -0.461006 2.91477 0
M  V30 12040 H 1149.51 1.18381 2.26759 0
M  V30 12041 H 1149.16 2.10406 4.62268 0
M  V30 12042 H 1149.09 0.437297 5.24781 0
M  V30 12043 H 1151.58 0.714208 3.7109 0
M  V30 12044 H 1151.89 2.06977 7.44567 0
M  V30 12045 H 1150.24 1.8547 6.69795 0
M  V30 12046 H 1153.43 0.967272 4.57997 0
M  V30 12047 H 1153.6 1.5852 6.28312 0
M  V30 12048 N 1147.01 -1.56678 0.170181 0
M  V30 12049 C 1147.92 -2.21496 -0.773079 0
M  V30 12050 C 1148.93 -1.20626 -1.25401 0
M  V30 12051 O 1150.11 -1.53283 -1.30638 0
M  V30 12052 C 1147.17 -2.8421 -1.98558 0
M  V30 12053 C 1146.23 -4.00278 -1.55164 0
M  V30 12054 C 1145.47 -4.59992 -2.70634 0
M  V30 12055 O 1145.69 -4.18595 -3.87472 0
M  V30 12056 O 1144.62 -5.49881 -2.44775 0
M  V30 12057 H 1148.45 -3.02659 -0.251195 0
M  V30 12058 H 1146.03 -1.49288 -0.0579621 0
M  V30 12059 H 1147.92 -3.2398 -2.69472 0
M  V30 12060 H 1146.59 -2.06045 -2.49654 0
M  V30 12061 H 1145.5 -3.6518 -0.812038 0
M  V30 12062 H 1146.83 -4.80033 -1.0876 0
M  V30 12063 N 1148.48 0.103547 -1.57259 0
M  V30 12064 C 1149.71 0.821158 -1.8958 0
M  V30 12065 C 1150.12 1.73213 -0.761184 0
M  V30 12066 O 1149.46 1.81611 0.27625 0
M  V30 12067 C 1149.53 1.69428 -3.17072 0
M  V30 12068 C 1149.19 0.956014 -4.46889 0
M  V30 12069 C 1150.19 0.289694 -5.19092 0
M  V30 12070 C 1147.87 0.932602 -4.93566 0
M  V30 12071 C 1149.87 -0.390164 -6.36205 0
M  V30 12072 C 1147.55 0.248954 -6.10593 0
M  V30 12073 C 1148.55 -0.411259 -6.81761 0
M  V30 12074 O 1148.24 -1.08396 -7.96559 0
M  V30 12075 H 1147.97 0.240508 -0.631769 0
M  V30 12076 H 1150.53 0.0877817 -2.05212 0
M  V30 12077 H 1148.76 2.46968 -2.97563 0
M  V30 12078 H 1150.44 2.28769 -3.3529 0
M  V30 12079 H 1151.21 0.299297 -4.84076 0
M  V30 12080 H 1147.09 1.43592 -4.38067 0
M  V30 12081 H 1150.63 -0.906057 -6.91691 0
M  V30 12082 H 1146.53 0.237168 -6.45064 0
M  V30 12083 H 1147.3 -0.990002 -8.12491 0
M  V30 12084 N 1149.96 1.53094 0.37415 0
M  V30 12085 C 1150.91 1.78927 1.45787 0
M  V30 12086 C 1151.88 0.633187 1.53558 0
M  V30 12087 O 1153.06 0.874472 1.69581 0
M  V30 12088 C 1150.2 1.97726 2.8284 0
M  V30 12089 C 1149.32 3.25436 2.84104 0
M  V30 12090 C 1148.45 3.3447 4.12678 0
M  V30 12091 C 1147.49 4.56246 4.08051 0
M  V30 12092 N 1146.63 4.6248 5.28258 0
M  V30 12093 H 1151.47 2.71404 1.2306 0
M  V30 12094 H 1149 1.34453 0.596716 0
M  V30 12095 H 1150.96 2.06611 3.62447 0
M  V30 12096 H 1149.59 1.08593 3.03986 0
M  V30 12097 H 1148.64 3.25548 1.96781 0
M  V30 12098 H 1149.96 4.15112 2.76556 0
M  V30 12099 H 1149.11 3.4262 5.00696 0
M  V30 12100 H 1147.85 2.42795 4.22968 0
M  V30 12101 H 1146.85 4.48206 3.1842 0
M  V30 12102 H 1148.08 5.49254 3.99371 0
M  V30 12103 H 1146.03 3.73703 5.3915 0
M  V30 12104 H 1145.94 5.46049 5.22845 0
M  V30 12105 H 1147.21 4.74903 6.18132 0
M  V30 12106 N 1151.44 -0.633461 1.44309 0
M  V30 12107 C 1152.69 -1.39031 1.46679 0
M  V30 12108 C 1153.01 -1.94745 0.0997165 0
M  V30 12109 O 1152.28 -1.75637 -0.867659 0
M  V30 12110 H 1150.86 -0.516051 0.540093 0
M  V30 12111 H 1153.52 -0.745739 1.80069 0
M  V30 12112 H 1152.62 -2.2228 2.19085 0
M  V30 12113 N 1152.92 -1.31168 -0.873655 0
M  V30 12114 C 1154.17 -1.20404 -1.62319 0
M  V30 12115 C 1154.49 0.238829 -1.93532 0
M  V30 12116 O 1153.76 1.15854 -1.57971 0
M  V30 12117 H 1152.34 -0.442632 -0.601736 0
M  V30 12118 H 1155 -1.64445 -1.04613 0
M  V30 12119 H 1154.1 -1.77309 -2.56842 0
M  V30 12120 N 1154.4 1.08748 -1.14068 0
M  V30 12121 C 1155.31 2.19123 -0.837998 0
M  V30 12122 C 1156.32 1.73065 0.180164 0
M  V30 12123 O 1157.5 2.01398 0.00952285 0
M  V30 12124 C 1154.56 3.45257 -0.316 0
M  V30 12125 C 1153.62 4.05959 -1.39628 0
M  V30 12126 C 1152.86 5.26072 -0.899095 0
M  V30 12127 O 1153.08 5.69804 0.260744 0
M  V30 12128 O 1152.01 5.7808 -1.67652 0
M  V30 12129 H 1155.84 2.4748 -1.76033 0
M  V30 12130 H 1153.43 1.17816 -0.918675 0
M  V30 12131 H 1155.31 4.21389 -0.0306425 0
M  V30 12132 H 1153.98 3.18486 0.578654 0
M  V30 12133 H 1152.89 3.31432 -1.73505 0
M  V30 12134 H 1154.22 4.36971 -2.26533 0
M  V30 12135 N 1155.87 0.935264 1.26849 0
M  V30 12136 C 1157.1 0.596249 1.98122 0
M  V30 12137 C 1157.52 -0.827452 1.69702 0
M  V30 12138 O 1156.87 -1.55095 0.961864 0
M  V30 12139 C 1156.93 0.821773 3.52036 0
M  V30 12140 O 1156.65 2.18947 3.79465 0
M  V30 12141 C 1158.15 0.492498 4.40556 0
M  V30 12142 H 1155.37 0.225242 0.632066 0
M  V30 12143 H 1157.91 1.25435 1.61512 0
M  V30 12144 H 1156.07 0.210363 3.86828 0
M  V30 12145 H 1156.48 2.24509 4.74021 0
M  V30 12146 H 1157.95 0.700953 5.47531 0
M  V30 12147 H 1158.43 -0.57228 4.35456 0
M  V30 12148 H 1159.04 1.08238 4.11296 0
M  V30 12149 N 1157.35 -1.41121 0.701616 0
M  V30 12150 C 1158.3 -2.27994 0.0168361 0
M  V30 12151 C 1159.29 -1.42523 -0.746733 0
M  V30 12152 O 1160.48 -1.6574 -0.621232 0
M  V30 12153 C 1157.61 -3.30898 -0.914417 0
M  V30 12154 C 1156.69 -4.23846 -0.146776 0
M  V30 12155 N 1157.08 -4.9839 0.862624 0
M  V30 12156 C 1155.38 -4.44366 -0.38138 0
M  V30 12157 C 1156.08 -5.66463 1.32266 0
M  V30 12158 N 1155.06 -5.39731 0.647433 0
M  V30 12159 H 1158.86 -2.83065 0.790675 0
M  V30 12160 H 1156.38 -1.53405 0.532977 0
M  V30 12161 H 1158.37 -3.91964 -1.4202 0
M  V30 12162 H 1157.03 -2.77387 -1.68779 0
M  V30 12163 H 1158.04 -5.02761 1.24305 0
M  V30 12164 H 1154.72 -4.01856 -1.13216 0
M  V30 12165 H 1156.11 -6.36213 2.16061 0
M  V30 12166 N 1158.83 -0.446794 -1.51134 0
M  V30 12167 C 1160.08 0.116493 -2.02165 0
M  V30 12168 C 1160.41 1.41884 -1.33039 0
M  V30 12169 O 1159.66 1.90757 -0.437071 0
M  V30 12170 C 1159.96 0.373015 -3.55448 0
M  V30 12171 C 1159.63 -0.844659 -4.42918 0
M  V30 12172 C 1158.29 -1.17857 -4.66544 0
M  V30 12173 C 1160.64 -1.65653 -4.94174 0
M  V30 12174 C 1157.97 -2.32486 -5.38672 0
M  V30 12175 C 1160.32 -2.7939 -5.6756 0
M  V30 12176 C 1158.98 -3.13224 -5.89446 0
M  V30 12177 H 1158.25 0.0426279 -0.739773 0
M  V30 12178 H 1160.9 -0.595921 -1.81992 0
M  V30 12179 H 1159.21 1.16742 -3.74003 0
M  V30 12180 H 1160.9 0.822425 -3.92476 0
M  V30 12181 H 1157.49 -0.574478 -4.24733 0
M  V30 12182 H 1161.68 -1.41176 -4.75797 0
M  V30 12183 H 1156.93 -2.59003 -5.5383 0
M  V30 12184 H 1161.11 -3.42662 -6.06264 0
M  V30 12185 H 1158.73 -4.02158 -6.45115 0
M  V30 12186 N 1160.31 1.56586 -0.178487 0
M  V30 12187 C 1161.55 1.9739 0.465306 0
M  V30 12188 C 1161.89 1.06474 1.6241 0
M  V30 12189 O 1161.16 0.113316 1.9417 0
M  V30 12190 C 1161.45 3.47577 0.941408 0
M  V30 12191 C 1161.3 4.49271 -0.218054 0
M  V30 12192 C 1162.62 4.01038 1.81263 0
M  V30 12193 H 1159.74 0.717676 0.167663 0
M  V30 12194 H 1162.38 1.88128 -0.266067 0
M  V30 12195 H 1160.53 3.556 1.56463 0
M  V30 12196 H 1162.2 4.53301 -0.855332 0
M  V30 12197 H 1160.44 4.24936 -0.872441 0
M  V30 12198 H 1161.11 5.51776 0.157315 0
M  V30 12199 H 1163.59 3.9569 1.28718 0
M  V30 12200 H 1162.47 5.06526 2.11476 0
M  V30 12201 H 1162.73 3.45288 2.76096 0
M  V30 12202 N 1161.79 -0.095206 1.57312 0
M  V30 12203 C 1163.06 -0.830388 1.77099 0
M  V30 12204 C 1163.44 -1.9694 0.760121 0
M  V30 12205 O 1162.79 -2.2752 -0.211403 0
M  V30 12206 C 1163 -1.32507 3.22867 0
M  V30 12207 C 1164.35 -1.7679 3.86045 0
M  V30 12208 O 1165.37 -1.42131 3.26615 0
M  V30 12209 O 1164.23 -2.40876 4.90552 0
M  V30 12210 H 1161.33 -0.396083 0.72598 0
M  V30 12211 H 1163.87 -0.0770965 1.69525 0
M  V30 12212 H 1162.64 -0.508992 3.87975 0
M  V30 12213 H 1162.27 -2.14037 3.35073 0
M  V30 12214 N 1163.26 -1.53291 -0.366026 0
M  V30 12215 C 1164.49 -1.73359 -1.12934 0
M  V30 12216 C 1164.91 -0.462352 -1.83051 0
M  V30 12217 O 1164.26 0.564711 -1.73543 0
M  V30 12218 C 1164.32 -2.89873 -2.15999 0
M  V30 12219 O 1164.04 -4.12079 -1.48737 0
M  V30 12220 C 1165.54 -3.21811 -3.04881 0
M  V30 12221 H 1162.76 -0.579827 -0.337701 0
M  V30 12222 H 1165.3 -2.00033 -0.425081 0
M  V30 12223 H 1163.46 -2.65595 -2.82025 0
M  V30 12224 H 1163.87 -4.77322 -2.17404 0
M  V30 12225 H 1165.34 -4.06744 -3.7318 0
M  V30 12226 H 1165.82 -2.37156 -3.69667 0
M  V30 12227 H 1166.43 -3.48013 -2.44473 0
M  V30 12228 N 1164.74 0.6258 -1.44643 0
M  V30 12229 C 1165.67 1.75086 -1.47911 0
M  V30 12230 C 1166.69 1.58496 -0.37188 0
M  V30 12231 O 1167.88 1.66712 -0.637925 0
M  V30 12232 C 1164.98 3.12874 -1.30243 0
M  V30 12233 C 1164.15 3.55873 -2.54309 0
M  V30 12234 C 1163.21 4.72558 -2.31464 0
M  V30 12235 O 1162.23 4.80599 -3.04981 0
M  V30 12236 N 1163.44 5.64617 -1.34862 0
M  V30 12237 H 1166.2 1.72751 -2.44902 0
M  V30 12238 H 1163.76 0.810531 -1.4015 0
M  V30 12239 H 1165.75 3.88663 -1.12798 0
M  V30 12240 H 1164.32 3.0982 -0.415966 0
M  V30 12241 H 1163.54 2.70237 -2.86994 0
M  V30 12242 H 1164.83 3.81355 -3.36817 0
M  V30 12243 H 1164.23 5.60819 -0.741542 0
M  V30 12244 H 1162.79 6.40013 -1.23394 0
M  V30 12245 N 1166.22 1.31629 0.866686 0
M  V30 12246 C 1167.18 1.1951 1.95576 0
M  V30 12247 C 1168.18 0.121319 1.60342 0
M  V30 12248 O 1169.37 0.370832 1.70207 0
M  V30 12249 C 1166.51 0.835201 3.30511 0
M  V30 12250 H 1167.7 2.16285 2.07752 0
M  V30 12251 H 1165.25 1.15288 1.05539 0
M  V30 12252 H 1165.99 -0.131245 3.24034 0
M  V30 12253 H 1165.77 1.61142 3.57457 0
M  V30 12254 H 1167.26 0.774393 4.10357 0
M  V30 12255 N 1167.7 -1.08142 1.14644 0
M  V30 12256 C 1168.63 -2.17139 0.858667 0
M  V30 12257 C 1169.61 -1.69064 -0.187452 0
M  V30 12258 O 1170.8 -1.94151 -0.0435458 0
M  V30 12259 C 1167.93 -3.45648 0.33834 0
M  V30 12260 C 1166.88 -4.07129 1.32021 0
M  V30 12261 C 1166.21 -5.30623 0.659075 0
M  V30 12262 C 1167.51 -4.48095 2.68343 0
M  V30 12263 H 1169.2 -2.41468 1.77012 0
M  V30 12264 H 1166.75 -1.16052 0.852523 0
M  V30 12265 H 1168.7 -4.21216 0.124611 0
M  V30 12266 H 1167.42 -3.2088 -0.608553 0
M  V30 12267 H 1166.08 -3.33596 1.52016 0
M  V30 12268 H 1165.73 -5.02142 -0.293711 0
M  V30 12269 H 1165.43 -5.72714 1.31427 0
M  V30 12270 H 1166.95 -6.08903 0.454933 0
M  V30 12271 H 1168.37 -5.14828 2.5224 0
M  V30 12272 H 1166.76 -5.01113 3.30161 0
M  V30 12273 H 1167.83 -3.59852 3.25015 0
M  V30 12274 N 1169.18 -0.941978 -1.26351 0
M  V30 12275 C 1170.09 -0.45833 -2.30079 0
M  V30 12276 C 1171.1 0.468084 -1.67586 0
M  V30 12277 O 1172.28 0.347418 -1.98381 0
M  V30 12278 C 1169.34 0.26797 -3.45663 0
M  V30 12279 C 1168.41 -0.695102 -4.23635 0
M  V30 12280 C 1167.64 -0.003369 -5.337 0
M  V30 12281 O 1167.86 1.21342 -5.57344 0
M  V30 12282 O 1166.8 -0.682476 -5.98018 0
M  V30 12283 H 1170.62 -1.31998 -2.73514 0
M  V30 12284 H 1168.21 -0.707897 -1.31564 0
M  V30 12285 H 1170.09 0.677061 -4.15925 0
M  V30 12286 H 1168.76 1.105 -3.04256 0
M  V30 12287 H 1167.67 -1.15415 -3.55851 0
M  V30 12288 H 1169 -1.49977 -4.68794 0
M  V30 12289 N 1170.66 1.40747 -0.709091 0
M  V30 12290 C 1171.6 2.30741 -0.0523584 0
M  V30 12291 C 1172.57 1.4784 0.757145 0
M  V30 12292 O 1173.76 1.76595 0.72242 0
M  V30 12293 C 1170.9 3.34 0.868203 0
M  V30 12294 C 1170.01 4.31972 0.0488686 0
M  V30 12295 C 1169.15 5.223 0.968311 0
M  V30 12296 C 1168.18 6.11934 0.142682 0
M  V30 12297 N 1167.32 6.947 1.01665 0
M  V30 12298 H 1172.16 2.86338 -0.825509 0
M  V30 12299 H 1169.7 1.41013 -0.418785 0
M  V30 12300 H 1171.66 3.92431 1.41611 0
M  V30 12301 H 1170.29 2.79921 1.6076 0
M  V30 12302 H 1169.34 3.75377 -0.616137 0
M  V30 12303 H 1170.65 4.95291 -0.590625 0
M  V30 12304 H 1169.8 5.85631 1.58498 0
M  V30 12305 H 1168.54 4.5924 1.64164 0
M  V30 12306 H 1167.55 5.47639 -0.486965 0
M  V30 12307 H 1168.77 6.77052 -0.527046 0
M  V30 12308 H 1166.72 6.34236 1.67575 0
M  V30 12309 H 1166.64 7.54759 0.433045 0
M  V30 12310 H 1167.9 7.62487 1.6197 0
M  V30 12311 N 1172.13 0.454803 1.50895 0
M  V30 12312 C 1173.41 -0.166559 1.9489 0
M  V30 12313 C 1173.79 -1.58492 1.3944 0
M  V30 12314 O 1173.14 -2.20788 0.588622 0
M  V30 12315 C 1173.35 -0.126506 3.48771 0
M  V30 12316 C 1174.7 -0.32347 4.23366 0
M  V30 12317 O 1175.72 -0.203835 3.55616 0
M  V30 12318 O 1174.58 -0.563292 5.43589 0
M  V30 12319 H 1171.67 -0.120523 0.818171 0
M  V30 12320 H 1174.22 0.514037 1.61727 0
M  V30 12321 H 1172.99 0.864407 3.81633 0
M  V30 12322 H 1172.61 -0.849264 3.88424 0
M  V30 12323 N 1173.61 -1.56489 0.186789 0
M  V30 12324 C 1174.86 -1.98399 -0.448244 0
M  V30 12325 C 1175.21 -1.07139 -1.59809 0
M  V30 12326 O 1174.51 -0.114119 -1.9126 0
M  V30 12327 C 1174.7 -3.44145 -0.964315 0
M  V30 12328 C 1174.53 -4.495 0.133992 0
M  V30 12329 C 1173.3 -5.01857 0.588851 0
M  V30 12330 C 1175.5 -5.05637 0.939971 0
M  V30 12331 N 1173.48 -5.90866 1.66585 0
M  V30 12332 C 1174.85 -5.91236 1.86655 0
M  V30 12333 C 1176.9 -4.88093 0.983319 0
M  V30 12334 C 1175.61 -6.61167 2.83286 0
M  V30 12335 C 1177.63 -5.58757 1.93764 0
M  V30 12336 C 1177 -6.44096 2.85167 0
M  V30 12337 H 1173.09 -0.770833 -0.131684 0
M  V30 12338 H 1175.68 -1.9252 0.290571 0
M  V30 12339 H 1173.85 -3.50541 -1.6726 0
M  V30 12340 H 1175.58 -3.73036 -1.56926 0
M  V30 12341 H 1172.34 -4.73244 0.183712 0
M  V30 12342 H 1172.76 -6.40075 2.2053 0
M  V30 12343 H 1177.4 -4.218 0.290658 0
M  V30 12344 H 1175.12 -7.26664 3.53532 0
M  V30 12345 H 1178.71 -5.47163 1.97748 0
M  V30 12346 H 1177.59 -6.97813 3.57808 0
M  V30 12347 N 1175.09 0.086862 -1.5736 0
M  V30 12348 C 1176.02 1.10538 -2.05678 0
M  V30 12349 C 1177 1.41281 -0.947293 0
M  V30 12350 O 1178.19 1.51169 -1.21908 0
M  V30 12351 C 1175.32 2.42302 -2.48812 0
M  V30 12352 C 1174.27 2.25948 -3.63499 0
M  V30 12353 C 1173.6 3.62961 -3.92637 0
M  V30 12354 C 1174.9 1.69319 -4.94094 0
M  V30 12355 H 1176.59 0.703371 -2.91021 0
M  V30 12356 H 1174.14 0.336895 -1.40004 0
M  V30 12357 H 1176.09 3.13833 -2.81224 0
M  V30 12358 H 1174.81 2.84454 -1.60479 0
M  V30 12359 H 1173.47 1.5686 -3.31347 0
M  V30 12360 H 1173.12 4.02656 -3.01459 0
M  V30 12361 H 1172.82 3.52862 -4.69853 0
M  V30 12362 H 1174.34 4.35946 -4.27531 0
M  V30 12363 H 1175.76 2.30699 -5.24834 0
M  V30 12364 H 1174.15 1.69957 -5.7553 0
M  V30 12365 H 1175.22 0.653318 -4.80479 0
M  V30 12366 N 1176.57 1.53483 0.357892 0
M  V30 12367 C 1177.98 1.43426 0.700073 0
M  V30 12368 C 1178.18 0.579493 1.92987 0
M  V30 12369 O 1177.24 0.0649086 2.52417 0
M  V30 12370 C 1178.55 2.86723 0.906099 0
M  V30 12371 C 1180.1 2.96405 1.00563 0
M  V30 12372 C 1180.58 4.4078 1.24407 0
M  V30 12373 N 1182.07 4.44243 1.3116 0
M  V30 12374 C 1182.8 5.53069 1.51333 0
M  V30 12375 N 1182.3 6.71928 1.68774 0
M  V30 12376 N 1184.09 5.40659 1.53765 0
M  V30 12377 H 1176.24 2.07559 -0.450894 0
M  V30 12378 H 1178.5 0.937649 -0.139711 0
M  V30 12379 H 1178.21 3.51622 0.0741579 0
M  V30 12380 H 1178.08 3.30827 1.81199 0
M  V30 12381 H 1180.47 2.31656 1.8281 0
M  V30 12382 H 1180.55 2.55684 0.0769512 0
M  V30 12383 H 1180.2 5.06105 0.426575 0
M  V30 12384 H 1180.13 4.7908 2.18608 0
M  V30 12385 H 1182.62 3.58587 1.19265 0
M  V30 12386 H 1182.93 7.50634 1.83762 0
M  V30 12387 H 1181.28 6.749 1.65937 0
M  V30 12388 H 1184.47 4.46764 1.39713 0
M  V30 12389 H 1184.64 6.25535 1.69146 0
M  V30 12390 N 1178.05 -0.61812 1.44973 0
M  V30 12391 C 1179.29 -1.3774 1.48439 0
M  V30 12392 C 1179.62 -1.94117 0.121999 0
M  V30 12393 O 1178.88 -1.749 -0.877974 0
M  V30 12394 C 1179.17 -2.55143 2.50274 0
M  V30 12395 C 1178.84 -2.16976 3.95262 0
M  V30 12396 C 1177.5 -2.06281 4.34743 0
M  V30 12397 C 1179.85 -1.8703 4.86486 0
M  V30 12398 C 1177.18 -1.63846 5.63357 0
M  V30 12399 C 1179.53 -1.46085 6.15501 0
M  V30 12400 C 1178.2 -1.3394 6.53924 0
M  V30 12401 H 1177.47 -0.504026 0.543175 0
M  V30 12402 H 1180.12 -0.699685 1.7826 0
M  V30 12403 H 1178.42 -3.28205 2.13983 0
M  V30 12404 H 1180.12 -3.13373 2.50197 0
M  V30 12405 H 1176.71 -2.26223 3.64034 0
M  V30 12406 H 1180.89 -1.94196 4.56729 0
M  V30 12407 H 1176.15 -1.53058 5.91932 0
M  V30 12408 H 1180.32 -1.21956 6.85638 0
M  V30 12409 H 1177.95 -1.00832 7.53483 0
M  V30 12410 N 1179.52 -1.32087 -0.859693 0
M  V30 12411 C 1180.49 -1.20546 -1.94939 0
M  V30 12412 C 1181.49 -0.12982 -1.60275 0
M  V30 12413 O 1182.68 -0.379853 -1.70008 0
M  V30 12414 C 1179.81 -0.852717 -3.30063 0
M  V30 12415 H 1181 -2.17384 -2.06602 0
M  V30 12416 H 1178.55 -1.15846 -1.04926 0
M  V30 12417 H 1179.29 0.114059 -3.24099 0
M  V30 12418 H 1179.07 -1.63035 -3.56598 0
M  V30 12419 H 1180.56 -0.796145 -4.09941 0
M  V30 12420 N 1181 1.07532 -1.15215 0
M  V30 12421 C 1181.95 2.16785 -0.843022 0
M  V30 12422 C 1182.94 1.68411 0.182802 0
M  V30 12423 O 1184.15 1.7996 0.0380164 0
M  V30 12424 H 1180.52 0.707465 -0.254945 0
M  V30 12425 H 1182.5 2.40078 -1.77215 0
M  V30 12426 C 1181.24 3.45967 -0.346699 0
M  V30 12427 H 1180.57 3.83574 -1.12744 0
M  V30 12428 H 1182.01 4.23663 -0.169039 0
M  V30 12429 C 1180.47 3.23768 0.931437 0
M  V30 12430 O 1181 3.48179 2.00336 0
M  V30 12431 N 1179.2 2.77264 0.870217 0
M  V30 12432 H 1178.75 2.576 -0.00226223 0
M  V30 12433 H 1178.71 2.6279 1.72594 0
M  V30 12434 N 1182.48 0.948665 1.2585 0
M  V30 12435 C 1183.73 0.595938 1.92695 0
M  V30 12436 C 1184.04 -0.870229 1.75175 0
M  V30 12437 O 1185.25 -1.33266 2.36543 0
M  V30 12438 C 1183.7 1.01511 3.45288 0
M  V30 12439 C 1183.31 2.50341 3.71528 0
M  V30 12440 C 1185.06 0.734635 4.18095 0
M  V30 12441 C 1182.96 2.8609 5.17597 0
M  V30 12442 H 1181.89 0.219171 0.721443 0
M  V30 12443 H 1184.54 1.15231 1.42807 0
M  V30 12444 H 1182.93 0.387201 3.94102 0
M  V30 12445 H 1184.1 3.18101 3.3339 0
M  V30 12446 H 1182.42 2.75797 3.11969 0
M  V30 12447 H 1185.01 0.977962 5.25681 0
M  V30 12448 H 1185.36 -0.328807 4.14999 0
M  V30 12449 H 1185.89 1.32262 3.75169 0
M  V30 12450 H 1182.63 3.91427 5.25799 0
M  V30 12451 H 1182.15 2.22999 5.56805 0
M  V30 12452 H 1183.83 2.74959 5.85668 0
M  V30 12453 N 1183.96 -1.40369 0.716545 0
M  V30 12454 C 1184.89 -2.33365 0.0793533 0
M  V30 12455 C 1185.87 -1.52943 -0.744482 0
M  V30 12456 O 1187.05 -1.81406 -0.693212 0
M  V30 12457 C 1184.18 -3.36928 -0.842429 0
M  V30 12458 C 1183.14 -4.2782 -0.124142 0
M  V30 12459 C 1182.46 -5.21928 -1.1617 0
M  V30 12460 C 1183.76 -5.12199 1.02224 0
M  V30 12461 H 1185.46 -2.86899 0.856115 0
M  V30 12462 H 1183 -1.37946 0.413138 0
M  V30 12463 H 1184.96 -4.00925 -1.29759 0
M  V30 12464 H 1183.68 -2.81791 -1.6511 0
M  V30 12465 H 1182.34 -3.65277 0.311201 0
M  V30 12466 H 1181.99 -4.63096 -1.96345 0
M  V30 12467 H 1181.69 -5.83582 -0.685978 0
M  V30 12468 H 1183.21 -5.88802 -1.61694 0
M  V30 12469 H 1184.63 -5.69644 0.646399 0
M  V30 12470 H 1183.02 -5.82901 1.4264 0
M  V30 12471 H 1184.09 -4.4812 1.85246 0
M  V30 12472 N 1185.44 -0.462799 -1.50652 0
M  V30 12473 C 1186.68 0.0948568 -2.01877 0
M  V30 12474 C 1187.01 1.4096 -1.34741 0
M  V30 12475 O 1186.28 1.89671 -0.49006 0
M  V30 12476 H 1184.86 0.0380453 -0.746031 0
M  V30 12477 H 1187.52 -0.611327 -1.85064 0
M  V30 12478 H 1186.61 0.252378 -3.11078 0
M  V30 12479 N 1186.91 1.56388 -0.195085 0
M  V30 12480 C 1187.85 2.16316 0.757643 0
M  V30 12481 C 1188.86 1.12498 1.17678 0
M  V30 12482 O 1190.05 1.39591 1.11251 0
M  V30 12483 C 1187.15 2.7104 2.03447 0
M  V30 12484 C 1186.32 3.99759 1.77514 0
M  V30 12485 C 1185.38 4.3931 2.89644 0
M  V30 12486 O 1184.41 5.06732 2.59252 0
M  V30 12487 N 1185.61 4.02813 4.17998 0
M  V30 12488 H 1188.37 2.98696 0.24517 0
M  V30 12489 H 1185.93 1.61895 -0.0131194 0
M  V30 12490 H 1187.93 2.94483 2.776 0
M  V30 12491 H 1186.5 1.93114 2.45817 0
M  V30 12492 H 1185.72 3.84448 0.8714 0
M  V30 12493 H 1187 4.83782 1.57585 0
M  V30 12494 H 1186.4 3.4858 4.45543 0
M  V30 12495 H 1184.96 4.31206 4.88779 0
M  V30 12496 N 1188.39 -0.0785156 1.57404 0
M  V30 12497 C 1189.81 -0.433143 1.5361 0
M  V30 12498 C 1190.01 -1.79564 0.914283 0
M  V30 12499 O 1189.06 -2.47215 0.513899 0
M  V30 12500 C 1190.38 -0.380387 2.98284 0
M  V30 12501 C 1191.93 -0.461056 3.09586 0
M  V30 12502 C 1192.4 -0.438276 4.55898 0
M  V30 12503 N 1193.89 -0.498548 4.60509 0
M  V30 12504 C 1194.63 -0.503028 5.71189 0
M  V30 12505 N 1194.12 -0.462724 6.91253 0
M  V30 12506 N 1195.92 -0.549083 5.59412 0
M  V30 12507 H 1188.07 0.813724 1.96195 0
M  V30 12508 H 1190.33 0.304644 0.897717 0
M  V30 12509 H 1190.04 0.553932 3.4731 0
M  V30 12510 H 1189.91 -1.19313 3.57833 0
M  V30 12511 H 1192.3 -1.3858 2.60537 0
M  V30 12512 H 1192.38 0.380138 2.5296 0
M  V30 12513 H 1192.02 0.482588 5.05602 0
M  V30 12514 H 1191.95 -1.29691 5.1038 0
M  V30 12515 H 1194.44 -0.534219 3.74105 0
M  V30 12516 H 1194.76 -0.469883 7.7137 0
M  V30 12517 H 1193.1 -0.429515 6.93672 0
M  V30 12518 H 1196.29 -0.578215 4.64515 0
M  V30 12519 H 1196.46 -0.549105 6.45669 0
M  V30 12520 N 1189.87 -1.5367 -0.349747 0
M  V30 12521 C 1190.78 -1.84207 -1.45275 0
M  V30 12522 C 1191.8 -0.731695 -1.57868 0
M  V30 12523 O 1192.97 -1.02337 -1.73462 0
M  V30 12524 C 1190.04 -2.0398 -2.80345 0
M  V30 12525 C 1189.1 -3.27853 -2.77148 0
M  V30 12526 C 1188.33 -3.46673 -4.05775 0
M  V30 12527 O 1188.55 -2.69457 -5.02741 0
M  V30 12528 O 1187.49 -4.40082 -4.10623 0
M  V30 12529 H 1191.31 -2.77947 -1.22389 0
M  V30 12530 H 1188.9 -1.39247 -0.541345 0
M  V30 12531 H 1190.78 -2.18466 -3.60348 0
M  V30 12532 H 1189.46 -1.13429 -3.03176 0
M  V30 12533 H 1188.36 -3.18776 -1.95787 0
M  V30 12534 H 1189.7 -4.18377 -2.59271 0
M  V30 12535 N 1191.35 0.610423 -1.45298 0
M  V30 12536 C 1192.28 1.73207 -1.56594 0
M  V30 12537 C 1193.26 1.64893 -0.417651 0
M  V30 12538 O 1194.44 1.83336 -0.64043 0
M  V30 12539 C 1191.57 3.11803 -1.52959 0
M  V30 12540 C 1190.53 3.34925 -2.66475 0
M  V30 12541 C 1189.85 4.73764 -2.47894 0
M  V30 12542 C 1191.15 3.25456 -4.08504 0
M  V30 12543 H 1192.85 1.6401 -2.50482 0
M  V30 12544 H 1190.39 0.787621 -1.20551 0
M  V30 12545 H 1192.35 3.90065 -1.59458 0
M  V30 12546 H 1191.07 3.21833 -0.55599 0
M  V30 12547 H 1189.73 2.59051 -2.59399 0
M  V30 12548 H 1189.38 4.80524 -1.4868 0
M  V30 12549 H 1189.08 4.90191 -3.24016 0
M  V30 12550 H 1190.6 5.54231 -2.56243 0
M  V30 12551 H 1192.02 3.93597 -4.16839 0
M  V30 12552 H 1190.41 3.53414 -4.84994 0
M  V30 12553 H 1191.48 2.22939 -4.30612 0
M  V30 12554 N 1192.83 1.32541 0.852676 0
M  V30 12555 C 1193.79 1.21578 1.94297 0
M  V30 12556 C 1194.79 0.138318 1.60204 0
M  V30 12557 O 1195.98 0.388864 1.69804 0
M  V30 12558 C 1193.11 0.870209 3.29606 0
M  V30 12559 H 1194.3 2.18476 2.05446 0
M  V30 12560 H 1191.86 1.16401 1.0431 0
M  V30 12561 H 1192.59 -0.0968698 3.24155 0
M  V30 12562 H 1192.38 1.64924 3.55728 0
M  V30 12563 H 1193.87 0.817874 4.09513 0
M  V30 12564 N 1194.3 -1.0692 1.15784 0
M  V30 12565 C 1195.25 -2.14235 0.858616 0
M  V30 12566 C 1196.22 -1.65006 -0.190295 0
M  V30 12567 O 1197.41 -1.90715 -0.0568853 0
M  V30 12568 C 1194.55 -3.43229 0.35888 0
M  V30 12569 C 1193.66 -4.06225 1.46987 0
M  V30 12570 C 1192.79 -5.2307 0.925812 0
M  V30 12571 C 1191.83 -5.78037 2.01345 0
M  V30 12572 N 1190.97 -6.86206 1.48544 0
M  V30 12573 H 1195.81 -2.3917 1.77769 0
M  V30 12574 H 1193.35 -1.17354 0.886925 0
M  V30 12575 H 1195.31 -4.17169 0.0508198 0
M  V30 12576 H 1193.94 -3.18531 -0.523259 0
M  V30 12577 H 1192.99 -3.29895 1.89403 0
M  V30 12578 H 1194.3 -4.43081 2.29088 0
M  V30 12579 H 1193.45 -6.04011 0.570555 0
M  V30 12580 H 1192.19 -4.87644 0.0740371 0
M  V30 12581 H 1191.2 -4.95738 2.37748 0
M  V30 12582 H 1192.42 -6.15517 2.86907 0
M  V30 12583 H 1190.37 -6.52711 0.656092 0
M  V30 12584 H 1190.29 -7.2197 2.24266 0
M  V30 12585 H 1191.55 -7.70842 1.15856 0
M  V30 12586 N 1195.78 -0.955326 -1.25345 0
M  V30 12587 C 1196.71 -0.494145 -2.28211 0
M  V30 12588 C 1197.69 0.459875 -1.63766 0
M  V30 12589 O 1198.88 0.358679 -1.90859 0
M  V30 12590 C 1196.01 0.228228 -3.46549 0
M  V30 12591 C 1194.96 -0.640601 -4.23179 0
M  V30 12592 C 1194.29 0.212553 -5.34277 0
M  V30 12593 C 1195.59 -1.91906 -4.85767 0
M  V30 12594 H 1197.28 -1.35391 -2.67039 0
M  V30 12595 H 1194.83 -0.652462 -1.2837 0
M  V30 12596 H 1196.78 0.561995 -4.17636 0
M  V30 12597 H 1195.51 1.12224 -3.06714 0
M  V30 12598 H 1194.16 -0.957462 -3.53876 0
M  V30 12599 H 1193.81 1.10634 -4.90682 0
M  V30 12600 H 1193.51 -0.365473 -5.86462 0
M  V30 12601 H 1195.04 0.541271 -6.08196 0
M  V30 12602 H 1196.45 -1.65165 -5.48993 0
M  V30 12603 H 1194.85 -2.44279 -5.48131 0
M  V30 12604 H 1195.92 -2.62173 -4.07914 0
M  V30 12605 N 1197.26 1.39987 -0.723979 0
M  V30 12606 C 1198.54 1.94637 -0.1939 0
M  V30 12607 C 1198.92 1.66156 1.30212 0
M  V30 12608 O 1198.27 0.983783 2.06238 0
M  V30 12609 C 1198.48 3.4517 -0.515652 0
M  V30 12610 C 1199.82 4.22113 -0.458919 0
M  V30 12611 O 1200.85 3.53318 -0.452198 0
M  V30 12612 O 1199.71 5.44695 -0.443783 0
M  V30 12613 H 1196.8 0.826394 -0.0316615 0
M  V30 12614 H 1199.35 1.49548 -0.802085 0
M  V30 12615 H 1198.12 3.5929 -1.55004 0
M  V30 12616 H 1197.74 3.97413 0.122067 0
M  V30 12617 N 1198.74 0.470782 1.50404 0
M  V30 12618 C 1199.69 -0.32355 2.28521 0
M  V30 12619 C 1200.66 -0.987472 1.3356 0
M  V30 12620 O 1201.84 -0.999969 1.62497 0
M  V30 12621 C 1198.98 -1.39977 3.15437 0
M  V30 12622 C 1198.09 -0.750656 4.25428 0
M  V30 12623 C 1197.23 -1.80474 4.99602 0
M  V30 12624 C 1196.27 -1.13586 6.01469 0
M  V30 12625 N 1195.41 -2.13279 6.68922 0
M  V30 12626 H 1200.25 0.348902 2.9595 0
M  V30 12627 H 1197.78 0.183908 1.45946 0
M  V30 12628 H 1199.74 -2.0354 3.6418 0
M  V30 12629 H 1198.37 -2.04139 2.50054 0
M  V30 12630 H 1197.42 -0.00247092 3.804 0
M  V30 12631 H 1198.73 -0.222638 4.98303 0
M  V30 12632 H 1197.89 -2.51619 5.52062 0
M  V30 12633 H 1196.63 -2.36657 4.26433 0
M  V30 12634 H 1195.63 -0.410042 5.48269 0
M  V30 12635 H 1196.86 -0.580935 6.76611 0
M  V30 12636 H 1194.8 -2.68479 5.98544 0
M  V30 12637 H 1194.72 -1.65461 7.37671 0
M  V30 12638 H 1195.99 -2.83804 7.26 0
M  V30 12639 N 1200.22 -1.56282 0.203376 0
M  V30 12640 C 1201.47 -1.97421 -0.432346 0
M  V30 12641 C 1201.79 -1.0917 -1.61576 0
M  V30 12642 O 1201.06 -0.164759 -1.95206 0
M  V30 12643 H 1199.64 -0.729062 -0.162721 0
M  V30 12644 H 1202.3 -1.927 0.292039 0
M  V30 12645 H 1201.39 -3.02429 -0.770918 0
M  V30 12646 N 1201.7 0.070167 -1.57444 0
M  V30 12647 C 1202.94 0.767495 -1.8696 0
M  V30 12648 C 1203.26 1.78032 -0.795595 0
M  V30 12649 O 1202.53 1.95112 0.175566 0
M  V30 12650 H 1201.11 0.286443 -0.689898 0
M  V30 12651 H 1203.78 0.0458692 -1.94846 0
M  V30 12652 H 1202.87 1.28269 -2.84523 0
M  V30 12653 N 1203.17 1.53854 0.341593 0
M  V30 12654 C 1204.42 1.71447 1.08322 0
M  V30 12655 C 1204.75 0.477289 1.88243 0
M  V30 12656 O 1204.03 -0.525695 1.87261 0
M  V30 12657 C 1204.31 2.97917 2.02281 0
M  V30 12658 C 1204.16 4.31847 1.25809 0
M  V30 12659 C 1205.48 3.20065 3.0207 0
M  V30 12660 H 1202.6 0.623847 0.392408 0
M  V30 12661 H 1205.24 1.86527 0.361594 0
M  V30 12662 H 1203.39 2.85191 2.63815 0
M  V30 12663 H 1205.07 4.56427 0.668737 0
M  V30 12664 H 1203.31 4.30169 0.560119 0
M  V30 12665 H 1203.98 5.16522 1.94704 0
M  V30 12666 H 1206.46 3.32135 2.50651 0
M  V30 12667 H 1205.33 4.09947 3.65013 0
M  V30 12668 H 1205.59 2.36452 3.73554 0
M  V30 12669 N 1204.65 -0.602709 1.4562 0
M  V30 12670 C 1205.61 -1.69508 1.54271 0
M  V30 12671 C 1206.61 -1.55171 0.421727 0
M  V30 12672 O 1207.8 -1.60151 0.685375 0
M  V30 12673 C 1204.94 -3.0881 1.44392 0
M  V30 12674 H 1206.13 -1.63203 2.51605 0
M  V30 12675 H 1203.68 -0.818857 1.33133 0
M  V30 12676 H 1204.42 -3.20689 0.482614 0
M  V30 12677 H 1204.2 -3.20625 2.25704 0
M  V30 12678 H 1205.69 -3.8837 1.53488 0
M  V30 12679 N 1206.13 -1.32992 -0.845635 0
M  V30 12680 C 1207.36 -1.26903 -1.63031 0
M  V30 12681 C 1207.77 0.163589 -1.88491 0
M  V30 12682 O 1207.11 1.11402 -1.46066 0
M  V30 12683 C 1207.17 -1.96843 -3.00821 0
M  V30 12684 C 1206.84 -3.46164 -2.98362 0
M  V30 12685 C 1207.83 -4.41488 -2.74562 0
M  V30 12686 C 1205.52 -3.88237 -3.18712 0
M  V30 12687 C 1207.51 -5.7686 -2.71129 0
M  V30 12688 C 1205.2 -5.23715 -3.14905 0
M  V30 12689 C 1206.2 -6.17838 -2.91144 0
M  V30 12690 O 1205.89 -7.50836 -2.87228 0
M  V30 12691 H 1205.62 -0.438806 -0.514223 0
M  V30 12692 H 1208.17 -1.75817 -1.06196 0
M  V30 12693 H 1206.4 -1.42511 -3.59482 0
M  V30 12694 H 1208.09 -1.84343 -3.61625 0
M  V30 12695 H 1208.86 -4.10308 -2.58598 0
M  V30 12696 H 1204.74 -3.1539 -3.36229 0
M  V30 12697 H 1208.28 -6.50299 -2.52502 0
M  V30 12698 H 1204.18 -5.54523 -3.30416 0
M  V30 12699 H 1204.94 -7.60304 -3.03118 0
M  V30 12700 N 1207.61 1.06304 -1.1635 0
M  V30 12701 C 1209.02 1.31227 -0.90838 0
M  V30 12702 C 1209.22 1.96665 0.438779 0
M  V30 12703 O 1208.28 2.2332 1.17833 0
M  V30 12704 C 1209.59 2.19303 -2.05734 0
M  V30 12705 C 1211.14 2.3272 -2.09309 0
M  V30 12706 C 1211.62 3.24151 -3.23559 0
M  V30 12707 N 1213.11 3.31734 -3.23275 0
M  V30 12708 C 1213.84 4.02572 -4.08318 0
M  V30 12709 N 1213.34 4.75933 -5.03448 0
M  V30 12710 N 1215.13 3.98621 -3.96305 0
M  V30 12711 H 1207.28 0.622228 -2.03081 0
M  V30 12712 H 1209.54 0.336892 -0.886119 0
M  V30 12713 H 1209.25 1.78497 -3.03037 0
M  V30 12714 H 1209.12 3.19888 -1.99879 0
M  V30 12715 H 1211.51 2.72774 -1.12599 0
M  V30 12716 H 1211.59 1.31804 -2.19229 0
M  V30 12717 H 1211.24 2.84813 -4.20528 0
M  V30 12718 H 1211.17 4.25046 -3.10875 0
M  V30 12719 H 1213.66 2.79453 -2.5439 0
M  V30 12720 H 1213.97 5.27512 -5.64758 0
M  V30 12721 H 1212.32 4.74913 -5.07427 0
M  V30 12722 H 1215.51 3.40427 -3.21289 0
M  V30 12723 H 1215.68 4.5356 -4.62804 0
M  V30 12724 N 1209.09 0.96196 1.24836 0
M  V30 12725 C 1210.02 0.506241 2.27946 0
M  V30 12726 C 1211 -0.451183 1.64007 0
M  V30 12727 O 1212.18 -0.348552 1.91046 0
M  V30 12728 C 1209.31 -0.209846 3.46665 0
M  V30 12729 C 1208.27 0.663035 4.22833 0
M  V30 12730 C 1207.59 -0.184216 5.34383 0
M  V30 12731 C 1208.89 1.94479 4.84742 0
M  V30 12732 H 1210.59 1.36805 2.66317 0
M  V30 12733 H 1208.13 0.65926 1.28023 0
M  V30 12734 H 1210.08 -0.539838 4.17928 0
M  V30 12735 H 1208.81 -1.10596 3.07305 0
M  V30 12736 H 1207.47 0.976216 3.53363 0
M  V30 12737 H 1207.12 -1.08031 4.91262 0
M  V30 12738 H 1206.82 0.39657 5.8626 0
M  V30 12739 H 1208.34 -0.509009 6.08475 0
M  V30 12740 H 1209.75 1.68074 5.48109 0
M  V30 12741 H 1208.15 2.47183 5.46828 0
M  V30 12742 H 1209.22 2.64332 4.06517 0
M  V30 12743 N 1210.56 -1.39601 0.731392 0
M  V30 12744 C 1211.97 -1.83424 0.348194 0
M  V30 12745 C 1212.33 -1.61106 -1.11979 0
M  V30 12746 O 1211.45 -1.1003 -1.86339 0
M  V30 12747 C 1212.05 -3.32982 0.6252 0
M  V30 12748 C 1210.6 -3.75238 0.295536 0
M  V30 12749 C 1209.75 -2.62642 0.88964 0
M  V30 12750 H 1212.7 -1.28644 0.929318 0
M  V30 12751 H 1212.72 -3.80357 -0.104254 0
M  V30 12752 H 1212.24 -3.49193 1.69368 0
M  V30 12753 H 1210.34 -3.64615 -0.767254 0
M  V30 12754 H 1210.45 -4.72781 0.775576 0
M  V30 12755 H 1208.81 -2.52726 0.316529 0
M  V30 12756 H 1209.6 -2.81661 1.96271 0
M  V30 12757 N 1212.04 -0.478751 -1.50152 0
M  V30 12758 C 1213.29 0.073694 -2.02666 0
M  V30 12759 C 1213.62 1.38679 -1.35947 0
M  V30 12760 O 1212.9 1.88286 -0.4877 0
M  V30 12761 C 1213.18 0.249516 -3.59235 0
M  V30 12762 C 1213.03 -1.08514 -4.36514 0
M  V30 12763 C 1214.35 1.00053 -4.28576 0
M  V30 12764 H 1211.47 0.0253082 -0.736565 0
M  V30 12765 H 1214.11 -0.625834 -1.79397 0
M  V30 12766 H 1212.26 0.845343 -3.79192 0
M  V30 12767 H 1213.93 -1.71814 -4.28109 0
M  V30 12768 H 1212.18 -1.67992 -3.99952 0
M  V30 12769 H 1212.85 -0.915676 -5.44352 0
M  V30 12770 H 1215.32 0.495422 -4.1314 0
M  V30 12771 H 1214.2 1.09236 -5.37921 0
M  V30 12772 H 1214.46 2.03896 -3.92274 0
M  V30 12773 N 1213.52 1.56172 -0.211661 0
M  V30 12774 C 1214.93 1.84307 0.297982 0
M  V30 12775 C 1215.28 1.1328 1.60194 0
M  V30 12776 O 1214.41 0.399137 2.12687 0
M  V30 12777 C 1215 3.34348 0.547428 0
M  V30 12778 C 1213.56 3.62835 1.0014 0
M  V30 12779 C 1212.71 2.77237 0.0590326 0
M  V30 12780 H 1215.66 1.5262 -0.435083 0
M  V30 12781 H 1215.68 3.54018 1.39469 0
M  V30 12782 H 1215.19 3.86015 -0.401778 0
M  V30 12783 H 1213.29 3.16616 1.96431 0
M  V30 12784 H 1213.41 4.70899 0.882653 0
M  V30 12785 H 1211.77 2.48377 0.564005 0
M  V30 12786 H 1212.55 3.31699 -0.884913 0
M  V30 12787 N 1215 -0.0618163 1.57479 0
M  V30 12788 C 1216.25 -0.757569 1.87364 0
M  V30 12789 C 1216.57 -1.77607 0.805025 0
M  V30 12790 O 1215.84 -1.95202 -0.165216 0
M  V30 12791 H 1214.42 -0.28278 0.691408 0
M  V30 12792 H 1217.08 -0.0355354 1.94868 0
M  V30 12793 H 1216.18 -1.26758 2.85199 0
M  V30 12794 N 1216.48 -1.54033 -0.333429 0
M  V30 12795 C 1217.44 -1.82021 -1.39288 0
M  V30 12796 C 1218.44 -0.691623 -1.45166 0
M  V30 12797 O 1219.63 -0.959925 -1.45365 0
M  V30 12798 C 1216.76 -1.97136 -2.78119 0
M  V30 12799 H 1217.95 -2.76671 -1.1573 0
M  V30 12800 H 1215.51 -1.45599 -0.568376 0
M  V30 12801 H 1216.24 -1.04663 -3.06946 0
M  V30 12802 H 1216.03 -2.79251 -2.75247 0
M  V30 12803 H 1217.52 -2.20271 -3.54782 0
M  V30 12804 N 1217.95 0.594978 -1.45938 0
M  V30 12805 C 1219.37 0.917069 -1.30622 0
M  V30 12806 C 1219.57 1.99702 -0.268554 0
M  V30 12807 O 1218.63 2.50293 0.333146 0
M  V30 12808 C 1219.94 1.34604 -2.68891 0
M  V30 12809 C 1221.49 1.45957 -2.76886 0
M  V30 12810 C 1221.96 1.92225 -4.15708 0
M  V30 12811 N 1223.45 1.99439 -4.18065 0
M  V30 12812 C 1224.19 2.36488 -5.22361 0
M  V30 12813 N 1223.68 2.72416 -6.36994 0
M  V30 12814 N 1225.48 2.36936 -5.09723 0
M  V30 12815 H 1217.63 -0.118625 -2.12068 0
M  V30 12816 H 1219.89 0.00959453 -0.947951 0
M  V30 12817 H 1219.6 0.626605 -3.46073 0
M  V30 12818 H 1219.47 2.31006 -2.98188 0
M  V30 12819 H 1221.86 2.16989 -1.99999 0
M  V30 12820 H 1221.94 0.47838 -2.51287 0
M  V30 12821 H 1221.58 1.21775 -4.93085 0
M  V30 12822 H 1221.51 2.9128 -4.38707 0
M  V30 12823 H 1224 1.74212 -3.35349 0
M  V30 12824 H 1224.32 2.99604 -7.1236 0
M  V30 12825 H 1222.66 2.70083 -6.40375 0
M  V30 12826 H 1225.85 2.08282 -4.19209 0
M  V30 12827 H 1226.03 2.65483 -5.9112 0
M  V30 12828 N 1219.43 1.33438 0.838571 0
M  V30 12829 C 1220.68 1.25097 1.5962 0
M  V30 12830 C 1221.01 -0.182798 1.93338 0
M  V30 12831 O 1220.29 -1.1242 1.5872 0
M  V30 12832 C 1220.57 2.12655 2.90603 0
M  V30 12833 C 1220.42 3.64491 2.63565 0
M  V30 12834 C 1221.74 1.99994 3.92033 0
M  V30 12835 H 1218.86 0.455776 0.579169 0
M  V30 12836 H 1221.5 1.63542 0.967169 0
M  V30 12837 H 1219.65 1.79998 3.44286 0
M  V30 12838 H 1221.32 4.0744 2.16312 0
M  V30 12839 H 1219.57 3.86356 1.9726 0
M  V30 12840 H 1220.24 4.21101 3.569 0
M  V30 12841 H 1222.71 2.28635 3.47657 0
M  V30 12842 H 1221.59 2.63509 4.81512 0
M  V30 12843 H 1221.85 0.972263 4.31277 0
M  V30 12844 N 1220.91 -1.05686 1.16912 0
M  V30 12845 C 1221.87 -2.11481 0.883647 0
M  V30 12846 C 1222.87 -1.60321 -0.124034 0
M  V30 12847 O 1224.06 -1.73868 0.107566 0
M  V30 12848 C 1221.2 -3.3937 0.322649 0
M  V30 12849 H 1222.39 -2.38239 1.8216 0
M  V30 12850 H 1219.94 -1.2185 0.978895 0
M  V30 12851 H 1220.68 -3.18266 -0.622695 0
M  V30 12852 H 1220.46 -3.77812 1.04883 0
M  V30 12853 H 1221.95 -4.17362 0.141072 0
M  V30 12854 N 1222.39 -0.968567 -1.24324 0
M  V30 12855 C 1223.35 -0.504307 -2.23583 0
M  V30 12856 C 1224.35 0.399626 -1.55755 0
M  V30 12857 O 1225.54 0.194966 -1.73106 0
M  V30 12858 C 1222.67 0.26956 -3.39833 0
M  V30 12859 H 1223.87 -1.3818 -2.6617 0
M  V30 12860 H 1221.42 -0.753241 -1.36952 0
M  V30 12861 H 1222.15 1.16411 -3.02686 0
M  V30 12862 H 1221.94 -0.379133 -3.90263 0
M  V30 12863 H 1223.43 0.583376 -4.13505 0
M  V30 12864 N 1223.87 1.39211 -0.738786 0
M  V30 12865 C 1225.11 2.0004 -0.28782 0
M  V30 12866 C 1225.44 1.58921 1.13 0
M  V30 12867 O 1224.71 0.839193 1.77015 0
M  V30 12868 H 1223.29 0.739805 -0.103425 0
M  V30 12869 H 1225.95 1.70202 -0.949587 0
M  V30 12870 H 1225.04 3.10251 -0.339208 0
M  V30 12871 N 1225.34 0.486708 1.49896 0
M  V30 12872 C 1226.29 -0.299294 2.28851 0
M  V30 12873 C 1227.26 -0.973251 1.346 0
M  V30 12874 O 1228.45 -0.982678 1.63548 0
M  V30 12875 C 1225.59 -1.36624 3.16904 0
M  V30 12876 C 1224.7 -0.705492 4.262 0
M  V30 12877 C 1223.83 -1.75165 5.01488 0
M  V30 12878 C 1222.87 -1.072 6.0264 0
M  V30 12879 N 1222.01 -2.06172 6.71147 0
M  V30 12880 H 1226.85 0.380272 2.95564 0
M  V30 12881 H 1224.39 0.199377 1.45743 0
M  V30 12882 H 1226.35 -1.99666 3.66319 0
M  V30 12883 H 1224.98 -2.01476 2.52205 0
M  V30 12884 H 1224.03 0.0378757 3.80381 0
M  V30 12885 H 1225.34 -0.169774 4.98511 0
M  V30 12886 H 1224.49 -2.45749 5.547 0
M  V30 12887 H 1223.23 -2.3212 4.28919 0
M  V30 12888 H 1222.24 -0.351868 5.48673 0
M  V30 12889 H 1223.46 -0.509139 6.77189 0
M  V30 12890 H 1221.41 -2.62115 6.01358 0
M  V30 12891 H 1221.33 -1.57627 7.39385 0
M  V30 12892 H 1222.59 -2.76088 7.28969 0
M  V30 12893 N 1226.82 -1.56058 0.219941 0
M  V30 12894 C 1227.75 -2.2321 -0.685547 0
M  V30 12895 C 1228.73 -1.20328 -1.20229 0
M  V30 12896 O 1229.92 -1.48909 -1.24659 0
M  V30 12897 C 1227.05 -2.91076 -1.89452 0
M  V30 12898 C 1226 -4.00415 -1.51169 0
M  V30 12899 C 1225.33 -4.55569 -2.79931 0
M  V30 12900 C 1226.63 -5.17549 -0.702896 0
M  V30 12901 H 1228.32 -2.99136 -0.125671 0
M  V30 12902 H 1225.87 -1.43879 -0.0590043 0
M  V30 12903 H 1227.82 -3.36744 -2.53341 0
M  V30 12904 H 1226.55 -2.12594 -2.47934 0
M  V30 12905 H 1225.21 -3.55475 -0.896275 0
M  V30 12906 H 1224.85 -3.73819 -3.36553 0
M  V30 12907 H 1224.55 -5.29361 -2.55049 0
M  V30 12908 H 1226.08 -5.03955 -3.44764 0
M  V30 12909 H 1227.49 -5.59608 -1.24544 0
M  V30 12910 H 1225.89 -5.97563 -0.551234 0
M  V30 12911 H 1226.96 -4.84027 0.29083 0
M  V30 12912 N 1228.3 0.053464 -1.57509 0
M  V30 12913 C 1229.21 1.07902 -2.08313 0
M  V30 12914 C 1230.23 1.41223 -1.01647 0
M  V30 12915 O 1231.4 1.51032 -1.33233 0
M  V30 12916 C 1228.47 2.36813 -2.5322 0
M  V30 12917 C 1227.53 2.10297 -3.74264 0
M  V30 12918 C 1226.76 3.33062 -4.1702 0
M  V30 12919 O 1226.99 4.42857 -3.59491 0
M  V30 12920 O 1225.92 3.20195 -5.09665 0
M  V30 12921 H 1229.75 0.677368 -2.9605 0
M  V30 12922 H 1227.33 0.268838 -1.46961 0
M  V30 12923 H 1229.21 3.12645 -2.82544 0
M  V30 12924 H 1227.89 2.76323 -1.68605 0
M  V30 12925 H 1226.79 1.32111 -3.49996 0
M  V30 12926 H 1228.13 1.75658 -4.59788 0
M  V30 12927 N 1229.78 1.54207 0.325255 0
M  V30 12928 C 1230.74 1.82757 1.38321 0
M  V30 12929 C 1231.74 0.699312 1.44797 0
M  V30 12930 O 1232.93 0.96762 1.44854 0
M  V30 12931 C 1230.06 1.98608 2.7707 0
M  V30 12932 H 1231.26 2.7728 1.14261 0
M  V30 12933 H 1228.81 1.45899 0.560647 0
M  V30 12934 H 1229.55 1.0629 3.06387 0
M  V30 12935 H 1229.33 2.80707 2.73763 0
M  V30 12936 H 1230.82 2.2215 3.53609 0
M  V30 12937 N 1231.26 -0.58723 1.46251 0
M  V30 12938 C 1232.21 -1.71771 1.56836 0
M  V30 12939 C 1233.2 -1.63664 0.437096 0
M  V30 12940 O 1234.41 -1.69212 0.613797 0
M  V30 12941 H 1230.78 -0.567841 0.493012 0
M  V30 12942 H 1232.75 -1.59974 2.51895 0
M  V30 12943 C 1231.5 -3.10159 1.57152 0
M  V30 12944 H 1230.82 -3.17066 2.43535 0
M  V30 12945 H 1232.26 -3.89032 1.68613 0
M  V30 12946 C 1230.72 -3.35567 0.299374 0
M  V30 12947 O 1231.25 -3.97006 -0.612291 0
M  V30 12948 N 1229.46 -2.89987 0.188695 0
M  V30 12949 H 1229.01 -2.4017 0.93147 0
M  V30 12950 H 1228.96 -3.0736 -0.661612 0
M  V30 12951 N 1232.74 -1.33881 -0.831482 0
M  V30 12952 C 1233.98 -1.251 -1.58218 0
M  V30 12953 C 1234.3 0.17963 -1.94773 0
M  V30 12954 O 1235.5 0.389516 -2.68691 0
M  V30 12955 C 1233.96 -2.19246 -2.8541 0
M  V30 12956 C 1233.57 -3.6752 -2.5619 0
M  V30 12957 C 1235.31 -2.19355 -3.63433 0
M  V30 12958 C 1233.22 -4.53559 -3.79523 0
M  V30 12959 H 1232.15 -0.46469 -0.593784 0
M  V30 12960 H 1234.8 -1.58992 -0.916169 0
M  V30 12961 H 1233.18 -1.78295 -3.53591 0
M  V30 12962 H 1234.36 -4.16956 -1.96173 0
M  V30 12963 H 1232.67 -3.69774 -1.91458 0
M  V30 12964 H 1235.27 -2.80863 -4.54995 0
M  V30 12965 H 1235.61 -1.19056 -3.98913 0
M  V30 12966 H 1236.14 -2.58706 -3.02185 0
M  V30 12967 H 1232.88 -5.54762 -3.4917 0
M  V30 12968 H 1232.4 -4.08862 -4.38853 0
M  V30 12969 H 1234.08 -4.67736 -4.47025 0
M  V30 12970 N 1234.21 1.05064 -1.1747 0
M  V30 12971 C 1235.18 2.1101 -0.89485 0
M  V30 12972 C 1236.18 1.60384 0.11553 0
M  V30 12973 O 1237.37 1.73808 -0.116785 0
M  V30 12974 C 1234.5 3.39194 -0.340642 0
M  V30 12975 H 1235.69 2.37269 -1.83421 0
M  V30 12976 H 1233.24 1.21329 -0.985343 0
M  V30 12977 H 1233.98 3.18591 0.605808 0
M  V30 12978 H 1233.76 3.77251 -1.06885 0
M  V30 12979 H 1235.25 4.17281 -0.163204 0
M  V30 12980 N 1235.69 0.975146 1.23809 0
M  V30 12981 C 1236.62 0.530389 2.27396 0
M  V30 12982 C 1237.6 -0.433763 1.64476 0
M  V30 12983 O 1238.79 -0.32827 1.91405 0
M  V30 12984 C 1235.92 -0.173066 3.46869 0
M  V30 12985 C 1234.87 0.707844 4.22106 0
M  V30 12986 C 1234.2 -0.127527 5.34548 0
M  V30 12987 C 1235.5 1.99609 4.82652 0
M  V30 12988 H 1237.19 1.39622 2.64851 0
M  V30 12989 H 1234.74 0.672802 1.27316 0
M  V30 12990 H 1236.69 -0.495481 4.18477 0
M  V30 12991 H 1235.41 -1.0733 3.0846 0
M  V30 12992 H 1234.07 1.01364 3.52308 0
M  V30 12993 H 1233.72 -1.02814 4.9238 0
M  V30 12994 H 1233.42 0.458728 5.85807 0
M  V30 12995 H 1234.95 -0.444443 6.0898 0
M  V30 12996 H 1236.36 1.73878 5.46296 0
M  V30 12997 H 1234.76 2.52969 5.44175 0
M  V30 12998 H 1235.83 2.68629 4.03691 0
M  V30 12999 N 1237.17 -1.38817 0.746158 0
M  V30 13000 C 1238.58 -1.83045 0.367629 0
M  V30 13001 C 1238.93 -1.62285 -1.10263 0
M  V30 13002 O 1238.06 -1.12001 -1.85162 0
M  V30 13003 C 1238.65 -3.323 0.660482 0
M  V30 13004 C 1237.21 -3.74903 0.335318 0
M  V30 13005 C 1236.36 -2.61683 0.917446 0
M  V30 13006 H 1239.31 -1.27651 0.94291 0
M  V30 13007 H 1239.33 -3.80446 -0.0639061 0
M  V30 13008 H 1238.84 -3.47377 1.73062 0
M  V30 13009 H 1236.94 -3.65408 -0.728538 0
M  V30 13010 H 1237.06 -4.71932 0.825677 0
M  V30 13011 H 1235.42 -2.52376 0.343316 0
M  V30 13012 H 1236.2 -2.79563 1.99247 0
M  V30 13013 N 1238.65 -0.49465 -1.49636 0
M  V30 13014 C 1239.9 0.0520143 -2.02033 0
M  V30 13015 C 1240.22 1.38071 -1.37701 0
M  V30 13016 O 1239.49 1.88589 -0.530181 0
M  V30 13017 H 1238.07 0.0222123 -0.74667 0
M  V30 13018 H 1240.73 -0.650445 -1.83726 0
M  V30 13019 H 1239.82 0.186337 -3.11543 0
M  V30 13020 N 1240.13 1.55939 -0.228214 0
M  V30 13021 C 1241.06 2.2357 0.6737 0
M  V30 13022 C 1242.04 1.20964 1.1959 0
M  V30 13023 O 1243.22 1.49568 1.23867 0
M  V30 13024 C 1240.35 2.92076 1.87906 0
M  V30 13025 C 1239.31 4.01211 1.49043 0
M  V30 13026 C 1238.63 4.57047 2.77511 0
M  V30 13027 C 1239.93 5.17914 0.67544 0
M  V30 13028 H 1241.63 2.99199 0.109806 0
M  V30 13029 H 1239.17 1.43908 0.0513732 0
M  V30 13030 H 1241.12 3.38083 2.51551 0
M  V30 13031 H 1239.85 2.13906 2.46803 0
M  V30 13032 H 1238.51 3.55945 0.877411 0
M  V30 13033 H 1238.16 3.75599 3.34566 0
M  V30 13034 H 1237.86 5.30707 2.52239 0
M  V30 13035 H 1239.38 5.05776 3.42087 0
M  V30 13036 H 1240.79 5.60261 1.21575 0
M  V30 13037 H 1239.19 5.97847 0.519536 0
M  V30 13038 H 1240.26 4.83866 -0.316495 0
M  V30 13039 N 1241.6 -0.0451101 1.57535 0
M  V30 13040 C 1242.85 -0.737654 1.88157 0
M  V30 13041 C 1243.17 -1.76743 0.823817 0
M  V30 13042 O 1242.44 -1.95366 -0.144503 0
M  V30 13043 H 1241.02 -0.275431 0.694368 0
M  V30 13044 H 1243.69 -0.0148651 1.94894 0
M  V30 13045 H 1242.78 -1.23726 2.86528 0
M  V30 13046 N 1243.08 -1.54377 -0.317073 0
M  V30 13047 C 1244.33 -1.72105 -1.0518 0
M  V30 13048 C 1244.64 -0.505166 -1.88964 0
M  V30 13049 O 1245.85 -0.563912 -2.65579 0
M  V30 13050 C 1244.31 -3.04435 -1.91957 0
M  V30 13051 C 1243.91 -4.33449 -1.13253 0
M  V30 13052 C 1245.66 -3.31524 -2.65127 0
M  V30 13053 C 1243.57 -5.56837 -1.99214 0
M  V30 13054 H 1242.5 -0.641392 -0.396399 0
M  V30 13055 H 1245.15 -1.80868 -0.309673 0
M  V30 13056 H 1243.53 -2.89595 -2.70094 0
M  V30 13057 H 1244.7 -4.59074 -0.39842 0
M  V30 13058 H 1243.02 -4.13173 -0.517372 0
M  V30 13059 H 1245.61 -4.20906 -3.29761 0
M  V30 13060 H 1245.96 -2.49688 -3.33109 0
M  V30 13061 H 1246.49 -3.47261 -1.94048 0
M  V30 13062 H 1243.23 -6.41294 -1.35729 0
M  V30 13063 H 1242.75 -5.35421 -2.70341 0
M  V30 13064 H 1244.43 -5.93488 -2.57646 0
M  V30 13065 N 1244.56 0.579466 -1.4656 0
M  V30 13066 C 1245.47 1.71609 -1.59961 0
M  V30 13067 C 1246.49 1.67162 -0.483002 0
M  V30 13068 O 1247.66 1.87012 -0.747561 0
M  V30 13069 C 1244.73 3.08114 -1.58954 0
M  V30 13070 C 1243.79 3.238 -2.81872 0
M  V30 13071 C 1243.02 4.53794 -2.80904 0
M  V30 13072 O 1243.24 5.37884 -1.89835 0
M  V30 13073 O 1242.18 4.72796 -3.72488 0
M  V30 13074 H 1246 1.6325 -2.56092 0
M  V30 13075 H 1243.59 0.746891 -1.2939 0
M  V30 13076 H 1245.47 3.8939 -1.611 0
M  V30 13077 H 1244.15 3.16903 -0.65984 0
M  V30 13078 H 1243.05 2.42006 -2.85279 0
M  V30 13079 H 1244.39 3.19904 -3.74062 0
M  V30 13080 N 1246.04 1.3432 0.824371 0
M  V30 13081 C 1247.27 1.29481 1.60992 0
M  V30 13082 C 1247.68 -0.133581 1.88728 0
M  V30 13083 O 1247.02 -1.09065 1.4782 0
M  V30 13084 C 1247.08 2.01604 2.97651 0
M  V30 13085 C 1246.75 3.50866 2.92817 0
M  V30 13086 C 1247.74 4.458 2.67504 0
M  V30 13087 C 1245.43 3.93258 3.12495 0
M  V30 13088 C 1247.42 5.81101 2.61918 0
M  V30 13089 C 1245.11 5.28659 3.06533 0
M  V30 13090 C 1246.11 6.22392 2.81278 0
M  V30 13091 O 1245.79 7.55311 2.75246 0
M  V30 13092 H 1245.53 0.446931 0.507177 0
M  V30 13093 H 1248.08 1.77484 1.03386 0
M  V30 13094 H 1246.31 1.48212 3.5717 0
M  V30 13095 H 1248 1.90073 3.58646 0
M  V30 13096 H 1248.77 4.1437 2.52037 0
M  V30 13097 H 1244.64 3.20699 3.31169 0
M  V30 13098 H 1248.19 6.54233 2.42125 0
M  V30 13099 H 1244.09 5.59709 3.21553 0
M  V30 13100 H 1244.85 7.6503 2.90984 0
M  V30 13101 N 1247.52 -1.0444 1.18026 0
M  V30 13102 C 1248.74 -1.81772 0.998684 0
M  V30 13103 C 1249.17 -1.82682 -0.448225 0
M  V30 13104 O 1248.52 -1.24136 -1.32136 0
M  V30 13105 C 1248.57 -3.2542 1.55352 0
M  V30 13106 O 1247.68 -4.05103 0.772351 0
M  V30 13107 H 1247.02 -0.561731 0.354054 0
M  V30 13108 H 1249.55 -1.31557 1.56697 0
M  V30 13109 H 1249.56 -3.76206 1.57903 0
M  V30 13110 H 1248.23 -3.24073 2.60672 0
M  V30 13111 H 1246.81 -3.63798 0.818852 0
M  V30 13112 N 1248.99 -0.981699 -1.2329 0
M  V30 13113 C 1250.22 -0.66937 -1.95773 0
M  V30 13114 C 1250.64 0.763898 -1.72656 0
M  V30 13115 O 1249.99 1.51418 -1.01876 0
M  V30 13116 C 1250.05 -0.951863 -3.48743 0
M  V30 13117 O 1249.77 -2.3288 -3.71078 0
M  V30 13118 C 1251.27 -0.655668 -4.38424 0
M  V30 13119 H 1248.49 -0.248545 -0.623271 0
M  V30 13120 H 1251.03 -1.31343 -1.56746 0
M  V30 13121 H 1249.19 -0.353787 -3.85781 0
M  V30 13122 H 1249.6 -2.41948 -4.65362 0
M  V30 13123 H 1251.07 -0.903683 -5.44553 0
M  V30 13124 H 1251.55 0.410269 -4.3728 0
M  V30 13125 H 1252.16 -1.23428 -4.06996 0
M  V30 13126 N 1250.47 1.3842 -0.753509 0
M  V30 13127 C 1251.75 1.94181 -0.235142 0
M  V30 13128 C 1252.13 1.68881 1.26659 0
M  V30 13129 O 1251.48 1.02731 2.04104 0
M  V30 13130 C 1251.69 3.43998 -0.588751 0
M  V30 13131 C 1253.04 4.21044 -0.548352 0
M  V30 13132 O 1254.06 3.52279 -0.52704 0
M  V30 13133 O 1252.92 5.43631 -0.559221 0
M  V30 13134 H 1250.01 0.825536 -0.0491834 0
M  V30 13135 H 1252.56 1.47813 -0.833626 0
M  V30 13136 H 1251.33 3.55921 -1.6259 0
M  V30 13137 H 1250.95 3.97582 0.0377429 0
M  V30 13138 N 1251.95 0.502579 1.49372 0
M  V30 13139 C 1253.2 -0.0412993 2.02058 0
M  V30 13140 C 1253.52 -1.37338 1.38431 0
M  V30 13141 O 1252.79 -1.88305 0.540175 0
M  V30 13142 H 1251.37 -0.0182522 0.746777 0
M  V30 13143 H 1254.03 0.660179 1.83378 0
M  V30 13144 H 1253.13 -0.169812 3.11638 0
M  V30 13145 N 1253.43 -1.55816 0.23648 0
M  V30 13146 C 1254.68 -1.98294 -0.390373 0
M  V30 13147 C 1255 -1.12573 -1.59224 0
M  V30 13148 O 1254.27 -0.206128 -1.94813 0
M  V30 13149 H 1252.85 -0.732349 -0.14722 0
M  V30 13150 H 1255.51 -1.92037 0.332848 0
M  V30 13151 H 1254.61 -3.03996 -0.706595 0
M  V30 13152 N 1254.91 0.036755 -1.57557 0
M  V30 13153 C 1255.85 1.03975 -2.06053 0
M  V30 13154 C 1256.82 1.36384 -0.948089 0
M  V30 13155 O 1258.01 1.46853 -1.21815 0
M  V30 13156 C 1255.15 2.33796 -2.53837 0
M  V30 13157 C 1254.26 2.07614 -3.78841 0
M  V30 13158 C 1253.4 3.3125 -4.15267 0
M  V30 13159 C 1252.44 3.00587 -5.33211 0
M  V30 13160 N 1251.57 4.16653 -5.65106 0
M  V30 13161 H 1256.41 0.61924 -2.91495 0
M  V30 13162 H 1253.95 0.294151 -1.44129 0
M  V30 13163 H 1255.91 3.09639 -2.79606 0
M  V30 13164 H 1254.54 2.73584 -1.71323 0
M  V30 13165 H 1253.59 1.22302 -3.60203 0
M  V30 13166 H 1254.9 1.80989 -4.64806 0
M  V30 13167 H 1254.06 4.15466 -4.42123 0
M  V30 13168 H 1252.79 3.60981 -3.27939 0
M  V30 13169 H 1251.8 2.14772 -5.06115 0
M  V30 13170 H 1253.02 2.72142 -6.22186 0
M  V30 13171 H 1250.97 4.4635 -4.80737 0
M  V30 13172 H 1250.89 3.93425 -6.45564 0
M  V30 13173 H 1252.16 5.01764 -5.96534 0
M  V30 13174 N 1256.39 1.54543 0.308881 0
M  V30 13175 C 1257.32 1.81309 1.40212 0
M  V30 13176 C 1258.33 0.69568 1.47187 0
M  V30 13177 O 1259.52 0.973034 1.49647 0
M  V30 13178 C 1256.62 1.92901 2.78644 0
M  V30 13179 C 1255.79 3.23222 2.94697 0
M  V30 13180 C 1254.85 3.25329 4.13579 0
M  V30 13181 O 1253.88 3.989 4.06039 0
M  V30 13182 N 1255.08 2.50158 5.23833 0
M  V30 13183 H 1257.84 2.75659 1.1761 0
M  V30 13184 H 1255.41 1.54021 0.498925 0
M  V30 13185 H 1257.4 1.91721 3.56406 0
M  V30 13186 H 1255.97 1.05582 2.9423 0
M  V30 13187 H 1255.19 3.37241 2.04113 0
M  V30 13188 H 1256.48 4.09238 3.02328 0
M  V30 13189 H 1255.87 1.90002 5.32838 0
M  V30 13190 H 1254.43 2.5474 5.99959 0
M  V30 13191 N 1257.86 -0.571685 1.46866 0
M  V30 13192 C 1259.11 -1.32924 1.53957 0
M  V30 13193 C 1259.46 -1.91428 0.1932 0
M  V30 13194 O 1258.76 -1.74125 -0.799447 0
M  V30 13195 C 1258.95 -2.47051 2.58264 0
M  V30 13196 C 1258.78 -1.99729 4.02913 0
M  V30 13197 C 1257.55 -1.84236 4.70516 0
M  V30 13198 C 1259.75 -1.55035 4.90376 0
M  V30 13199 N 1257.73 -1.31101 5.99738 0
M  V30 13200 C 1259.1 -1.13566 6.0951 0
M  V30 13201 C 1261.16 -1.42953 4.76937 0
M  V30 13202 C 1259.86 -0.612183 7.1669 0
M  V30 13203 C 1261.89 -0.92008 5.84199 0
M  V30 13204 C 1261.25 -0.515239 7.02513 0
M  V30 13205 H 1257.35 -0.47897 0.618152 0
M  V30 13206 H 1259.93 -0.649687 1.83541 0
M  V30 13207 H 1258.1 -3.12555 2.30573 0
M  V30 13208 H 1259.83 -3.14025 2.55285 0
M  V30 13209 H 1256.59 -2.06516 4.26202 0
M  V30 13210 H 1257.01 -1.06663 6.68545 0
M  V30 13211 H 1261.65 -1.72869 3.85845 0
M  V30 13212 H 1259.37 -0.300634 8.07541 0
M  V30 13213 H 1262.96 -0.830357 5.75844 0
M  V30 13214 H 1261.84 -0.127122 7.84097 0
M  V30 13215 N 1259.34 -1.34755 -0.817236 0
M  V30 13216 C 1260.27 -1.22648 -1.93624 0
M  V30 13217 C 1261.29 -0.152226 -1.62087 0
M  V30 13218 O 1262.48 -0.404578 -1.73855 0
M  V30 13219 C 1259.58 -0.863519 -3.27714 0
M  V30 13220 C 1258.75 -2.03394 -3.87233 0
M  V30 13221 C 1257.81 -1.64846 -4.99712 0
M  V30 13222 O 1256.83 -2.3658 -5.17705 0
M  V30 13223 N 1258.04 -0.565909 -5.77735 0
M  V30 13224 H 1260.8 -2.19051 -2.0454 0
M  V30 13225 H 1258.36 -1.27785 -0.994113 0
M  V30 13226 H 1260.35 -0.58733 -4.00415 0
M  V30 13227 H 1258.92 0.0104987 -3.12598 0
M  V30 13228 H 1258.14 -2.47454 -3.06856 0
M  V30 13229 H 1259.43 -2.81655 -4.23731 0
M  V30 13230 H 1258.83 0.030313 -5.65692 0
M  V30 13231 H 1257.39 -0.349467 -6.50862 0
M  V30 13232 N 1260.82 1.03812 -1.18578 0
M  V30 13233 C 1262.24 1.29271 -0.936011 0
M  V30 13234 C 1262.44 1.97551 0.396965 0
M  V30 13235 O 1261.49 2.25769 1.13069 0
M  V30 13236 C 1262.8 2.1489 -2.1034 0
M  V30 13237 C 1264.35 2.28228 -2.14198 0
M  V30 13238 C 1264.83 3.17214 -3.30362 0
M  V30 13239 N 1266.32 3.24802 -3.30239 0
M  V30 13240 C 1267.05 3.9382 -4.16765 0
M  V30 13241 N 1266.55 4.65147 -5.1343 0
M  V30 13242 N 1268.34 3.90125 -4.04671 0
M  V30 13243 H 1260.49 0.579011 -2.04356 0
M  V30 13244 H 1262.76 0.318021 -0.893066 0
M  V30 13245 H 1262.46 1.72029 -3.06755 0
M  V30 13246 H 1262.34 3.15576 -2.06619 0
M  V30 13247 H 1264.72 2.70324 -1.18359 0
M  V30 13248 H 1264.8 1.27124 -2.21976 0
M  V30 13249 H 1264.45 2.75829 -4.26475 0
M  V30 13250 H 1264.38 4.18356 -3.19821 0
M  V30 13251 H 1266.87 2.73994 -2.60261 0
M  V30 13252 H 1267.18 5.15414 -5.7582 0
M  V30 13253 H 1265.53 4.64043 -5.17387 0
M  V30 13254 H 1268.72 3.33536 -3.28438 0
M  V30 13255 H 1268.89 4.43641 -4.7232 0
M  V30 13256 N 1262.3 0.988223 1.22768 0
M  V30 13257 C 1263.53 0.678757 1.95132 0
M  V30 13258 C 1263.94 -0.759797 1.73274 0
M  V30 13259 O 1263.28 -1.52383 1.02592 0
M  V30 13260 C 1263.34 0.899007 3.48078 0
M  V30 13261 C 1263 2.32114 3.93665 0
M  V30 13262 C 1264 3.30034 4.01713 0
M  V30 13263 C 1261.69 2.65432 4.2644 0
M  V30 13264 C 1263.68 4.59349 4.41902 0
M  V30 13265 C 1261.37 3.94967 4.66309 0
M  V30 13266 C 1262.37 4.91737 4.74008 0
M  V30 13267 O 1262.05 6.18958 5.12977 0
M  V30 13268 H 1261.79 0.250588 0.627839 0
M  V30 13269 H 1264.34 1.32441 1.56999 0
M  V30 13270 H 1262.57 0.196182 3.86202 0
M  V30 13271 H 1264.26 0.585507 4.01655 0
M  V30 13272 H 1265.02 3.05626 3.76587 0
M  V30 13273 H 1260.9 1.90816 4.19655 0
M  V30 13274 H 1264.45 5.34881 4.47826 0
M  V30 13275 H 1260.34 4.19168 4.90886 0
M  V30 13276 H 1261.11 6.22826 5.31065 0
M  V30 13277 N 1263.78 -1.38018 0.760839 0
M  V30 13278 C 1265.05 -1.94054 0.245437 0
M  V30 13279 C 1265.43 -1.6955 -1.25761 0
M  V30 13280 O 1264.78 -1.03812 -2.03557 0
M  V30 13281 C 1264.99 -3.43681 0.606986 0
M  V30 13282 C 1266.34 -4.20748 0.570673 0
M  V30 13283 O 1267.36 -3.51995 0.545715 0
M  V30 13284 O 1266.22 -5.43327 0.588043 0
M  V30 13285 H 1263.32 -0.825264 0.0535607 0
M  V30 13286 H 1265.86 -1.47369 0.841453 0
M  V30 13287 H 1264.63 -3.55054 1.64476 0
M  V30 13288 H 1264.26 -3.97597 -0.0166576 0
M  V30 13289 N 1265.25 -0.510493 -1.49103 0
M  V30 13290 C 1266.22 0.251915 -2.27811 0
M  V30 13291 C 1267.22 0.885432 -1.34226 0
M  V30 13292 O 1268.41 0.748494 -1.573 0
M  V30 13293 C 1265.54 1.3624 -3.12492 0
M  V30 13294 H 1266.73 -0.438872 -2.96671 0
M  V30 13295 H 1264.28 -0.265767 -1.54024 0
M  V30 13296 H 1265.02 2.08705 -2.48219 0
M  V30 13297 H 1264.8 0.913485 -3.81311 0
M  V30 13298 H 1266.29 1.89919 -3.71915 0
M  V30 13299 N 1266.73 1.55688 -0.24474 0
M  V30 13300 C 1267.68 2.21289 0.655723 0
M  V30 13301 C 1268.65 1.17606 1.17295 0
M  V30 13302 O 1269.83 1.46045 1.22782 0
M  V30 13303 C 1266.97 2.91453 1.84794 0
M  V30 13304 C 1266.09 4.09787 1.36744 0
M  V30 13305 C 1265.22 4.67672 2.51905 0
M  V30 13306 C 1264.26 5.78259 2.00706 0
M  V30 13307 N 1263.4 6.30336 3.09225 0
M  V30 13308 H 1268.24 2.97865 0.0896156 0
M  V30 13309 H 1265.77 1.47064 0.0324725 0
M  V30 13310 H 1267.73 3.30331 2.54828 0
M  V30 13311 H 1266.36 2.17355 2.38656 0
M  V30 13312 H 1265.41 3.76237 0.561228 0
M  V30 13313 H 1266.73 4.89627 0.952199 0
M  V30 13314 H 1265.88 5.09113 3.29984 0
M  V30 13315 H 1264.62 3.87044 2.9673 0
M  V30 13316 H 1263.62 5.36298 1.21097 0
M  V30 13317 H 1264.85 6.60737 1.56853 0
M  V30 13318 H 1262.8 5.52614 3.53489 0
M  V30 13319 H 1262.71 7.05364 2.72025 0
M  V30 13320 H 1263.98 6.76435 3.8737 0
M  V30 13321 N 1268.21 -0.0283989 1.57574 0
M  V30 13322 C 1269.17 -1.01346 2.05576 0
M  V30 13323 C 1270.17 -1.28999 0.960001 0
M  V30 13324 O 1271.36 -1.23991 1.2236 0
M  V30 13325 C 1268.49 -2.34611 2.47327 0
M  V30 13326 H 1269.69 -0.598809 2.93861 0
M  V30 13327 H 1267.24 -0.27524 1.53857 0
M  V30 13328 H 1267.98 -2.80823 1.622 0
M  V30 13329 H 1267.76 -2.1587 3.27326 0
M  V30 13330 H 1269.25 -3.05332 2.84889 0
M  V30 13331 N 1269.69 -1.54705 -0.300681 0
M  V30 13332 C 1270.63 -1.85678 -1.37084 0
M  V30 13333 C 1271.6 -0.70573 -1.50362 0
M  V30 13334 O 1272.79 -0.954385 -1.65215 0
M  V30 13335 C 1269.93 -2.10995 -2.73084 0
M  V30 13336 C 1269.04 -3.38621 -2.68254 0
M  V30 13337 C 1268.18 -3.53779 -3.9625 0
M  V30 13338 C 1267.22 -4.75195 -3.85818 0
M  V30 13339 N 1266.35 -4.87157 -5.05591 0
M  V30 13340 H 1271.19 -2.76967 -1.09971 0
M  V30 13341 H 1268.73 -1.37147 -0.531887 0
M  V30 13342 H 1270.69 -2.23669 -3.52176 0
M  V30 13343 H 1269.32 -1.22973 -2.98458 0
M  V30 13344 H 1268.37 -3.34566 -1.81025 0
M  V30 13345 H 1269.68 -4.27834 -2.56436 0
M  V30 13346 H 1268.84 -3.66119 -4.83779 0
M  V30 13347 H 1267.58 -2.62699 -4.10902 0
M  V30 13348 H 1266.58 -4.62888 -2.96673 0
M  V30 13349 H 1267.81 -5.67683 -3.72711 0
M  V30 13350 H 1265.75 -3.99001 -5.20706 0
M  V30 13351 H 1265.67 -5.70372 -4.96197 0
M  V30 13352 H 1266.94 -5.03854 -5.9477 0
M  V30 13353 N 1271.17 0.563888 -1.47167 0
M  V30 13354 C 1272.58 1.14603 -1.47388 0
M  V30 13355 C 1272.93 1.94907 -0.224916 0
M  V30 13356 O 1272.05 2.05745 0.670672 0
M  V30 13357 C 1272.65 2.08501 -2.67044 0
M  V30 13358 C 1271.21 2.62 -2.70246 0
M  V30 13359 C 1270.35 1.38244 -2.40383 0
M  V30 13360 H 1273.31 0.350833 -1.54774 0
M  V30 13361 H 1273.33 2.92272 -2.43634 0
M  V30 13362 H 1272.84 1.50027 -3.57929 0
M  V30 13363 H 1270.94 3.24292 -1.83482 0
M  V30 13364 H 1271.05 3.0345 -3.70749 0
M  V30 13365 H 1269.42 1.68692 -1.90827 0
M  V30 13366 H 1270.2 0.815726 -3.33468 0
M  V30 13367 N 1272.64 1.35187 0.810078 0
M  V30 13368 C 1273.61 1.27698 1.90331 0
M  V30 13369 C 1274.61 0.189216 1.59683 0
M  V30 13370 O 1275.8 0.442689 1.68481 0
M  V30 13371 C 1272.93 0.974631 3.26671 0
M  V30 13372 H 1274.12 2.24902 1.98392 0
M  V30 13373 H 1271.68 1.1966 1.00554 0
M  V30 13374 H 1272.41 0.0063068 3.24299 0
M  V30 13375 H 1272.2 1.76158 3.50301 0
M  V30 13376 H 1273.69 0.947743 4.06703 0
M  V30 13377 N 1274.12 -1.03182 1.19127 0
M  V30 13378 C 1275.37 -1.76794 0.993563 0
M  V30 13379 C 1275.7 -1.88306 -0.474809 0
M  V30 13380 O 1274.98 -1.39769 -1.35258 0
M  V30 13381 C 1275.26 -3.19573 1.65968 0
M  V30 13382 C 1275.11 -3.1595 3.2015 0
M  V30 13383 C 1276.43 -4.17897 1.38023 0
M  V30 13384 H 1273.55 -0.641768 0.362357 0
M  V30 13385 H 1276.19 -1.20472 1.46924 0
M  V30 13386 H 1274.34 -3.67663 1.25524 0
M  V30 13387 H 1276.01 -2.7578 3.69788 0
M  V30 13388 H 1274.26 -2.53743 3.51848 0
M  V30 13389 H 1274.93 -4.16811 3.61901 0
M  V30 13390 H 1277.4 -3.78394 1.73082 0
M  V30 13391 H 1276.28 -5.15997 1.87186 0
M  V30 13392 H 1276.54 -4.41048 0.304812 0
M  V30 13393 N 1275.6 -0.99472 -1.22242 0
M  V30 13394 C 1276.83 -0.689809 -1.95592 0
M  V30 13395 C 1277.25 0.739321 -1.72961 0
M  V30 13396 O 1276.61 1.50563 -1.00997 0
M  V30 13397 C 1276.66 -1.00367 -3.46351 0
M  V30 13398 O 1275.76 -0.103326 -4.12271 0
M  V30 13399 H 1275.1 -0.257997 -0.611828 0
M  V30 13400 H 1277.63 -1.33219 -1.55286 0
M  V30 13401 H 1277.64 -0.946259 -3.96875 0
M  V30 13402 H 1276.32 -2.04504 -3.62148 0
M  V30 13403 H 1274.89 -0.216374 -3.72272 0
M  V30 13404 N 1277.08 1.37613 -0.768148 0
M  V30 13405 C 1278.33 1.99384 -0.330187 0
M  V30 13406 C 1278.65 1.61283 1.09604 0
M  V30 13407 O 1277.92 0.876551 1.75195 0
M  V30 13408 H 1276.5 0.737445 -0.119095 0
M  V30 13409 H 1279.16 1.6815 -0.985476 0
M  V30 13410 H 1278.26 3.09462 -0.40494 0
M  V30 13411 N 1278.56 0.518393 1.4883 0
M  V30 13412 C 1279.47 -0.254811 2.33212 0
M  V30 13413 C 1280.48 -0.950401 1.45751 0
M  V30 13414 O 1281.66 -0.927932 1.78749 0
M  V30 13415 C 1278.72 -1.29509 3.21603 0
M  V30 13416 C 1277.78 -0.611086 4.24928 0
M  V30 13417 C 1277.02 -1.6018 5.09095 0
M  V30 13418 O 1277.24 -2.83336 4.95052 0
M  V30 13419 O 1276.17 -1.14756 5.90859 0
M  V30 13420 H 1280 0.436329 3.00549 0
M  V30 13421 H 1277.59 0.27947 1.46763 0
M  V30 13422 H 1279.47 -1.89654 3.7631 0
M  V30 13423 H 1278.14 -1.96884 2.5694 0
M  V30 13424 H 1277.05 0.0305638 3.74088 0
M  V30 13425 H 1278.38 0.0205249 4.92196 0
M  V30 13426 N 1280.03 -1.55556 0.252993 0
M  V30 13427 C 1281.28 -1.99385 -0.370599 0
M  V30 13428 C 1281.61 -1.14101 -1.57145 0
M  V30 13429 O 1280.89 -0.205828 -1.93408 0
M  V30 13430 C 1281.17 -3.51672 -0.774503 0
M  V30 13431 C 1281.02 -4.47719 0.432159 0
M  V30 13432 C 1282.34 -4.0923 -1.61923 0
M  V30 13433 H 1279.46 -0.724858 -0.133231 0
M  V30 13434 H 1282.1 -1.86644 0.355522 0
M  V30 13435 H 1280.25 -3.62661 -1.39318 0
M  V30 13436 H 1281.93 -4.48704 1.07063 0
M  V30 13437 H 1280.17 -4.2029 1.07419 0
M  V30 13438 H 1280.84 -5.51898 0.106123 0
M  V30 13439 H 1283.32 -4.01381 -1.09693 0
M  V30 13440 H 1282.19 -5.16039 -1.87068 0
M  V30 13441 H 1282.45 -3.58067 -2.59307 0
M  V30 13442 N 1281.51 0.0200419 -1.57587 0
M  V30 13443 C 1282.44 1.0456 -2.0396 0
M  V30 13444 C 1283.46 1.31922 -0.953962 0
M  V30 13445 O 1284.65 1.2925 -1.23112 0
M  V30 13446 C 1281.75 2.38514 -2.40758 0
M  V30 13447 C 1280.92 2.3038 -3.71812 0
M  V30 13448 C 1279.98 3.46856 -3.95698 0
M  V30 13449 O 1279 3.25944 -4.66636 0
M  V30 13450 N 1280.21 4.69033 -3.42036 0
M  V30 13451 H 1282.97 0.650282 -2.9256 0
M  V30 13452 H 1280.53 0.207818 -1.60561 0
M  V30 13453 H 1282.52 3.15172 -2.53868 0
M  V30 13454 H 1281.09 2.69859 -1.57781 0
M  V30 13455 H 1280.31 1.38762 -3.6897 0
M  V30 13456 H 1281.6 2.22097 -4.57767 0
M  V30 13457 H 1281 4.88923 -2.84553 0
M  V30 13458 H 1279.56 5.43025 -3.6051 0
M  V30 13459 N 1282.99 1.54862 0.292472 0
M  V30 13460 C 1284.24 1.74807 1.02813 0
M  V30 13461 C 1284.57 0.536935 1.8663 0
M  V30 13462 O 1283.84 -0.465854 1.88839 0
M  V30 13463 C 1284.13 3.04202 1.927 0
M  V30 13464 C 1283.98 4.35631 1.12006 0
M  V30 13465 C 1285.3 3.29514 2.91734 0
M  V30 13466 H 1282.42 0.636015 0.372362 0
M  V30 13467 H 1285.06 1.87583 0.302069 0
M  V30 13468 H 1283.21 2.9344 2.54608 0
M  V30 13469 H 1284.88 4.58323 0.52319 0
M  V30 13470 H 1283.13 4.31733 0.42298 0
M  V30 13471 H 1283.8 5.22454 1.78172 0
M  V30 13472 H 1286.27 3.39941 2.39957 0
M  V30 13473 H 1285.15 4.21352 3.51786 0
M  V30 13474 H 1285.41 2.48216 3.65843 0
M  V30 13475 N 1284.47 -0.556076 1.47464 0
M  V30 13476 C 1285.88 -0.882115 1.33007 0
M  V30 13477 C 1286.08 -1.9892 0.321407 0
M  V30 13478 O 1285.14 -2.51088 -0.266668 0
M  V30 13479 C 1286.45 -1.27428 2.72365 0
M  V30 13480 C 1288 -1.38564 2.80658 0
M  V30 13481 C 1288.48 -1.81136 4.20659 0
M  V30 13482 N 1289.97 -1.88284 4.23206 0
M  V30 13483 C 1290.7 -2.22555 5.28447 0
M  V30 13484 N 1290.2 -2.55432 6.43993 0
M  V30 13485 N 1291.99 -2.23339 5.15826 0
M  V30 13486 H 1284.14 0.17481 2.11679 0
M  V30 13487 H 1286.41 0.0155421 0.947873 0
M  V30 13488 H 1286.11 -0.53463 3.47613 0
M  V30 13489 H 1285.99 -2.23019 3.04208 0
M  V30 13490 H 1288.37 -2.1161 2.05682 0
M  V30 13491 H 1288.45 -0.411588 2.52467 0
M  V30 13492 H 1288.1 -1.08659 4.96141 0
M  V30 13493 H 1288.03 -2.79546 4.46275 0
M  V30 13494 H 1290.52 -1.65259 3.3985 0
M  V30 13495 H 1290.83 -2.80612 7.20053 0
M  V30 13496 H 1289.18 -2.5301 6.47311 0
M  V30 13497 H 1292.37 -1.97094 4.24584 0
M  V30 13498 H 1292.54 -2.49717 5.97951 0
M  V30 13499 N 1285.95 -1.35615 -0.802897 0
M  V30 13500 C 1287.17 -1.32377 -1.59659 0
M  V30 13501 C 1287.6 0.0954235 -1.87858 0
M  V30 13502 O 1286.96 1.06336 -1.46842 0
M  V30 13503 C 1287 -2.13972 -2.90256 0
M  V30 13504 O 1286.11 -1.52296 -3.83249 0
M  V30 13505 H 1285.45 -0.453699 -0.484823 0
M  V30 13506 H 1287.98 -1.78708 -0.996217 0
M  V30 13507 H 1287.99 -2.26061 -3.39647 0
M  V30 13508 H 1286.66 -3.17145 -2.69057 0
M  V30 13509 H 1285.24 -1.49068 -3.41809 0
M  V30 13510 N 1287.43 1.02549 -1.19673 0
M  V30 13511 C 1288.67 1.76265 -1.00293 0
M  V30 13512 C 1289 1.88555 0.464816 0
M  V30 13513 O 1288.28 1.40484 1.34515 0
M  V30 13514 C 1288.56 3.18688 -1.6766 0
M  V30 13515 C 1288.42 3.14247 -3.21821 0
M  V30 13516 C 1289.73 4.17159 -1.40238 0
M  V30 13517 H 1286.85 0.639837 -0.365756 0
M  V30 13518 H 1289.5 1.19691 -1.4756 0
M  V30 13519 H 1287.65 3.66992 -1.27472 0
M  V30 13520 H 1289.32 2.73815 -3.71245 0
M  V30 13521 H 1287.56 2.51874 -3.53188 0
M  V30 13522 H 1288.23 4.14886 -3.64107 0
M  V30 13523 H 1290.71 3.77471 -1.75086 0
M  V30 13524 H 1289.58 5.14997 -1.89919 0
M  V30 13525 H 1289.84 4.4088 -0.328197 0
M  V30 13526 N 1288.9 1.00119 1.21713 0
M  V30 13527 C 1290.13 0.700172 1.95224 0
M  V30 13528 C 1290.55 -0.730138 1.73351 0
M  V30 13529 O 1289.91 -1.50026 1.01794 0
M  V30 13530 C 1289.96 1.02202 3.45814 0
M  V30 13531 O 1289.06 0.125188 4.1221 0
M  V30 13532 H 1288.4 0.261238 0.610451 0
M  V30 13533 H 1290.93 1.34041 1.54578 0
M  V30 13534 H 1290.94 0.967293 3.96368 0
M  V30 13535 H 1289.62 2.06422 3.61058 0
M  V30 13536 H 1288.2 0.236114 3.72152 0
M  V30 13537 N 1290.38 -1.37203 0.775435 0
M  V30 13538 C 1291.79 -1.82224 0.406372 0
M  V30 13539 C 1292.14 -1.64587 -1.06796 0
M  V30 13540 O 1291.27 -1.15903 -1.82744 0
M  V30 13541 C 1291.86 -3.30824 0.730819 0
M  V30 13542 C 1290.42 -3.74108 0.414766 0
M  V30 13543 C 1289.57 -2.59679 0.972747 0
M  V30 13544 H 1292.52 -1.25623 0.969775 0
M  V30 13545 H 1292.54 -3.80496 0.0168066 0
M  V30 13546 H 1292.05 -3.43628 1.80392 0
M  V30 13547 H 1290.15 -3.66871 -0.650866 0
M  V30 13548 H 1290.27 -4.70074 0.925595 0
M  V30 13549 H 1288.63 -2.51591 0.396772 0
M  V30 13550 H 1289.41 -2.75274 2.05132 0
M  V30 13551 N 1291.86 -0.526279 -1.48553 0
M  V30 13552 C 1293.14 0.073385 -1.95462 0
M  V30 13553 C 1293.52 1.51658 -1.46843 0
M  V30 13554 O 1292.86 2.17729 -0.693293 0
M  V30 13555 C 1293.07 -0.040041 -3.48977 0
M  V30 13556 C 1294.42 0.121108 -4.24427 0
M  V30 13557 O 1295.45 0.0339335 -3.56184 0
M  V30 13558 O 1294.31 0.303297 -5.45658 0
M  V30 13559 H 1291.4 0.0813498 -0.822989 0
M  V30 13560 H 1293.95 -0.590614 -1.59091 0
M  V30 13561 H 1292.72 -1.0455 -3.77074 0
M  V30 13562 H 1292.34 0.662975 -3.92034 0
M  V30 13563 N 1293.34 1.5542 -0.261239 0
M  V30 13564 C 1294.59 1.9889 0.358777 0
M  V30 13565 C 1294.91 1.15092 1.57413 0
M  V30 13566 O 1294.18 0.237095 1.9446 0
M  V30 13567 H 1292.76 0.734599 0.13555 0
M  V30 13568 H 1295.42 1.91483 -0.363357 0
M  V30 13569 H 1294.51 3.05082 0.658142 0
M  V30 13570 N 1294.82 -0.0116844 1.57596 0
M  V30 13571 C 1295.76 -1.00684 2.07681 0
M  V30 13572 C 1296.73 -1.34858 0.969666 0
M  V30 13573 O 1297.92 -1.44896 1.24136 0
M  V30 13574 C 1295.06 -2.29729 2.57524 0
M  V30 13575 C 1294.17 -2.0156 3.82096 0
M  V30 13576 C 1293.31 -3.24601 4.20485 0
M  V30 13577 C 1292.34 -2.92066 5.37925 0
M  V30 13578 N 1291.48 -4.0761 5.71663 0
M  V30 13579 H 1296.32 -0.572787 2.92443 0
M  V30 13580 H 1293.86 -0.271184 1.44579 0
M  V30 13581 H 1295.82 -3.05152 2.84496 0
M  V30 13582 H 1294.45 -2.70824 1.75653 0
M  V30 13583 H 1293.5 -1.16556 3.62103 0
M  V30 13584 H 1294.81 -1.73572 4.67626 0
M  V30 13585 H 1293.96 -4.08379 4.48677 0
M  V30 13586 H 1292.7 -3.55718 3.3364 0
M  V30 13587 H 1291.71 -2.06693 5.09468 0
M  V30 13588 H 1292.93 -2.62209 6.26437 0
M  V30 13589 H 1290.88 -4.38645 4.87777 0
M  V30 13590 H 1290.8 -3.83105 6.51741 0
M  V30 13591 H 1292.06 -4.92211 6.04441 0
M  V30 13592 N 1296.29 -1.55015 -0.284256 0
M  V30 13593 C 1297.71 -1.46603 -0.630845 0
M  V30 13594 C 1297.91 -0.67091 -1.90003 0
M  V30 13595 O 1296.97 -0.185266 -2.51819 0
M  V30 13596 C 1298.28 -2.9072 -0.768268 0
M  V30 13597 C 1299.83 -3.00866 -0.863061 0
M  V30 13598 C 1300.3 -4.46214 -1.03235 0
M  V30 13599 N 1301.79 -4.49994 -1.09815 0
M  V30 13600 C 1302.53 -5.5966 -1.24773 0
M  V30 13601 N 1302.02 -6.79215 -1.36523 0
M  V30 13602 N 1303.82 -5.4738 -1.27795 0
M  V30 13603 H 1295.97 -2.05171 0.549409 0
M  V30 13604 H 1298.23 -0.929915 0.184288 0
M  V30 13605 H 1297.94 -3.51575 0.0936899 0
M  V30 13606 H 1297.81 -3.39096 -1.65209 0
M  V30 13607 H 1300.2 -2.40114 -1.71549 0
M  V30 13608 H 1300.28 -2.5576 0.0451267 0
M  V30 13609 H 1299.92 -5.07564 -0.18462 0
M  V30 13610 H 1299.85 -4.88965 -1.95502 0
M  V30 13611 H 1302.34 -3.63869 -1.0202 0
M  V30 13612 H 1302.66 -7.58547 -1.47739 0
M  V30 13613 H 1301 -6.82048 -1.33548 0
M  V30 13614 H 1304.19 -4.52921 -1.18238 0
M  V30 13615 H 1304.37 -6.32892 -1.39109 0
M  V30 13616 N 1297.77 0.548248 -1.47757 0
M  V30 13617 C 1299 1.32827 -1.58242 0
M  V30 13618 C 1299.41 1.87736 -0.234936 0
M  V30 13619 O 1298.75 1.66163 0.78329 0
M  V30 13620 C 1298.81 2.52906 -2.55497 0
M  V30 13621 C 1298.48 2.19218 -4.00989 0
M  V30 13622 C 1299.48 1.75976 -4.89212 0
M  V30 13623 C 1297.16 2.30302 -4.46392 0
M  V30 13624 C 1299.15 1.44258 -6.20861 0
M  V30 13625 C 1296.84 1.98197 -5.78067 0
M  V30 13626 C 1297.84 1.55244 -6.65123 0
M  V30 13627 O 1297.53 1.23551 -7.94349 0
M  V30 13628 H 1297.26 0.41088 -0.536799 0
M  V30 13629 H 1299.81 0.670055 -1.94163 0
M  V30 13630 H 1298.04 3.21648 -2.14661 0
M  V30 13631 H 1299.73 3.14979 -2.56014 0
M  V30 13632 H 1300.5 1.66898 -4.55379 0
M  V30 13633 H 1296.38 2.62693 -3.78832 0
M  V30 13634 H 1299.92 1.10659 -6.88767 0
M  V30 13635 H 1295.82 2.0691 -6.1144 0
M  V30 13636 H 1296.59 1.37105 -8.06935 0
M  V30 13637 N 1299.25 1.36039 0.795694 0
M  V30 13638 C 1300.47 1.33222 1.58955 0
M  V30 13639 C 1300.9 -0.0854596 1.87906 0
M  V30 13640 O 1300.26 -1.05555 1.47403 0
M  V30 13641 C 1300.31 2.15508 2.89117 0
M  V30 13642 O 1299.41 1.54327 3.82436 0
M  V30 13643 H 1298.75 0.456264 0.48241 0
M  V30 13644 H 1301.28 1.79234 0.986726 0
M  V30 13645 H 1301.29 2.2786 3.38444 0
M  V30 13646 H 1299.97 3.18568 2.67371 0
M  V30 13647 H 1298.54 1.50879 3.41013 0
M  V30 13648 N 1300.73 -1.01913 1.20215 0
M  V30 13649 C 1302.14 -1.27766 0.956459 0
M  V30 13650 C 1302.34 -1.98158 -0.365486 0
M  V30 13651 O 1301.4 -2.27539 -1.09463 0
M  V30 13652 C 1302.71 -2.11516 2.13732 0
M  V30 13653 C 1304.26 -2.24792 2.17802 0
M  V30 13654 C 1304.74 -3.11919 3.35367 0
M  V30 13655 N 1306.23 -3.19507 3.35364 0
M  V30 13656 C 1306.96 -3.8714 4.22978 0
M  V30 13657 N 1306.46 -4.5692 5.20765 0
M  V30 13658 N 1308.25 -3.83638 4.10827 0
M  V30 13659 H 1300.4 -0.546426 2.05251 0
M  V30 13660 H 1302.67 -0.303772 0.898012 0
M  V30 13661 H 1302.37 -1.67127 3.09453 0
M  V30 13662 H 1302.25 -3.12249 2.11614 0
M  V30 13663 H 1304.63 -2.68407 1.22645 0
M  V30 13664 H 1304.71 -1.23576 2.2397 0
M  V30 13665 H 1304.36 -2.6901 4.30809 0
M  V30 13666 H 1304.29 -4.13215 3.26436 0
M  V30 13667 H 1306.78 -2.69819 2.64587 0
M  V30 13668 H 1307.09 -5.06188 5.83947 0
M  V30 13669 H 1305.44 -4.55753 5.24704 0
M  V30 13670 H 1308.63 -3.28268 3.33703 0
M  V30 13671 H 1308.8 -4.36071 4.79318 0
M  V30 13672 N 1302.21 -1.00763 -1.2118 0
M  V30 13673 C 1303.17 -0.575183 -2.21865 0
M  V30 13674 C 1304.17 0.349871 -1.56948 0
M  V30 13675 O 1305.36 0.139795 -1.73638 0
M  V30 13676 C 1302.49 0.161308 -3.40518 0
M  V30 13677 H 1303.68 -1.46578 -2.61639 0
M  V30 13678 H 1301.24 -0.79643 -1.34487 0
M  V30 13679 H 1301.97 1.06723 -3.06236 0
M  V30 13680 H 1301.76 -0.503101 -3.88859 0
M  V30 13681 H 1303.25 0.451527 -4.15152 0
M  V30 13682 N 1303.68 1.3679 -0.7827 0
M  V30 13683 C 1304.59 2.33928 -0.17747 0
M  V30 13684 C 1305.61 1.60716 0.666802 0
M  V30 13685 O 1306.79 1.92742 0.584162 0
M  V30 13686 C 1303.85 3.39907 0.68294 0
M  V30 13687 C 1302.91 4.28926 -0.179053 0
M  V30 13688 C 1302.15 5.29844 0.640386 0
M  V30 13689 O 1302.37 5.38639 1.87681 0
M  V30 13690 O 1301.3 6.01884 0.0438164 0
M  V30 13691 H 1305.13 2.87439 -0.980441 0
M  V30 13692 H 1302.71 1.39142 -0.54404 0
M  V30 13693 H 1304.6 4.04722 1.17379 0
M  V30 13694 H 1303.27 2.88706 1.46391 0
M  V30 13695 H 1302.18 3.67174 -0.716512 0
M  V30 13696 H 1303.51 4.83461 -0.923377 0
M  V30 13697 N 1305.16 0.53415 1.48272 0
M  V30 13698 C 1306.11 -0.226335 2.29688 0
M  V30 13699 C 1307.08 -0.929937 1.37628 0
M  V30 13700 O 1308.26 -0.930149 1.66592 0
M  V30 13701 C 1305.4 -1.26472 3.2109 0
M  V30 13702 C 1304.52 -0.569542 4.28229 0
M  V30 13703 C 1303.65 -1.59122 5.06807 0
M  V30 13704 C 1302.69 -0.879734 6.05745 0
M  V30 13705 N 1301.83 -1.84715 6.77366 0
M  V30 13706 H 1306.67 0.474111 2.94204 0
M  V30 13707 H 1304.21 0.245643 1.45034 0
M  V30 13708 H 1306.16 -1.87911 3.72485 0
M  V30 13709 H 1304.79 -1.9335 2.58487 0
M  V30 13710 H 1303.85 0.158872 3.80068 0
M  V30 13711 H 1305.16 -0.0110904 4.98799 0
M  V30 13712 H 1304.31 -2.27977 5.62238 0
M  V30 13713 H 1303.05 -2.18357 4.36086 0
M  V30 13714 H 1302.06 -0.177134 5.49515 0
M  V30 13715 H 1303.28 -0.293439 6.78466 0
M  V30 13716 H 1301.23 -2.42851 6.09393 0
M  V30 13717 H 1301.14 -1.34025 7.44025 0
M  V30 13718 H 1302.41 -2.52756 7.37384 0
M  V30 13719 N 1306.64 -1.55279 0.269478 0
M  V30 13720 C 1307.89 -1.99767 -0.34943 0
M  V30 13721 C 1308.22 -1.15762 -1.55926 0
M  V30 13722 O 1307.49 -0.22633 -1.93179 0
M  V30 13723 C 1307.78 -3.52474 -0.73716 0
M  V30 13724 C 1307.63 -4.47236 0.479621 0
M  V30 13725 C 1308.95 -4.10924 -1.57573 0
M  V30 13726 H 1306.07 -0.72623 -0.125535 0
M  V30 13727 H 1308.71 -1.86257 0.375298 0
M  V30 13728 H 1306.86 -3.64118 -1.35464 0
M  V30 13729 H 1308.53 -4.47543 1.11816 0
M  V30 13730 H 1306.78 -4.19127 1.11871 0
M  V30 13731 H 1307.45 -5.51754 0.164653 0
M  V30 13732 H 1309.92 -4.02522 -1.05429 0
M  V30 13733 H 1308.8 -5.17995 -1.81584 0
M  V30 13734 H 1309.06 -3.60798 -2.55495 0
M  V30 13735 O 1308.16 -0.134904 -1.60936 0
M  V30 13736 H 1308.85 0.461128 -1.88131 0
M  V30 END ATOM
M  V30 BEGIN BOND
M  V30 END BOND
M  V30 END CTAB
M  END
$$$$
