drugbank_target|Q54873 Hyaluronate lyase (DB00126; DB01872; DB02186; DB03156; DB04548; DB08438; DB11195)
 OpenBabel12092119533D

  0  0  0     0  0            999 V3000
M  V30 BEGIN CTAB
M  V30 COUNTS 16865 17027 0 0 0
M  V30 BEGIN ATOM
M  V30 1 H -0.908 1.98254 -0.117106 0
M  V30 2 N 0 1.576 0 0
M  V30 3 C 0.933 2.03868 1.02534 0
M  V30 4 C 1.911 0.928543 1.3348 0
M  V30 5 O 3.095 1.19667 1.45644 0
M  V30 6 C 0.222 2.43627 2.35294 0
M  V30 7 C -0.732 3.65373 2.2001 0
M  V30 8 S 0.101 5.13292 1.52614 0
M  V30 9 C 1.257 5.56322 2.86805 0
M  V30 10 H 1.49 2.90518 0.631377 0
M  V30 11 H -0.977 1.52953 0.210867 0
M  V30 12 H 0.981 2.67203 3.11629 0
M  V30 13 H -0.358 1.57376 2.7183 0
M  V30 14 H -1.165 3.90944 3.18086 0
M  V30 15 H -1.563 3.418 1.51819 0
M  V30 16 H 0.729 5.58782 3.83104 0
M  V30 17 H 1.672 6.56266 2.65933 0
M  V30 18 H 2.08 4.83886 2.90714 0
M  V30 19 N 1.4781 -0.272755 1.55222 0
M  V30 20 C 2.4101 -1.35946 1.8453 0
M  V30 21 C 3.4231 -1.45525 0.729818 0
M  V30 22 O 4.6121 -1.47337 1.00767 0
M  V30 23 C 1.7121 -2.74069 1.99347 0
M  V30 24 C 0.8851 -2.87079 3.30007 0
M  V30 25 C -0.0559 -4.05879 3.34886 0
M  V30 26 O -1.0299 -3.96626 4.08261 0
M  V30 27 N 0.1721 -5.17857 2.62307 0
M  V30 28 H 2.9371 -1.11149 2.78327 0
M  V30 29 H 0.4981 -0.462869 1.55142 0
M  V30 30 H 2.4901 -3.51838 1.99981 0
M  V30 31 H 1.0601 -2.91688 1.12415 0
M  V30 32 H 0.2801 -1.96193 3.41909 0
M  V30 33 H 1.5681 -2.92701 4.16177 0
M  V30 34 H 0.9661 -5.28261 2.02377 0
M  V30 35 H -0.4769 -5.93855 2.68663 0
M  V30 36 N 2.9562 -1.48159 -0.537278 0
M  V30 37 C 4.1842 -1.59454 -1.31841 0
M  V30 38 C 4.5992 -0.252065 -1.8711 0
M  V30 39 O 3.9562 0.757621 -1.66031 0
M  V30 40 C 4.0072 -2.63546 -2.47439 0
M  V30 41 O 3.7282 -3.92583 -1.94449 0
M  V30 42 C 5.2292 -2.85212 -3.39366 0
M  V30 43 H 2.4492 -0.53785 -0.401196 0
M  V30 44 H 4.9932 -1.93932 -0.648891 0
M  V30 45 H 3.1482 -2.31946 -3.1029 0
M  V30 46 H 3.5622 -4.49629 -2.70063 0
M  V30 47 H 5.0362 -3.61863 -4.16844 0
M  V30 48 H 5.5132 -1.93765 -3.94147 0
M  V30 49 H 6.1192 -3.18086 -2.82314 0
M  V30 50 N 4.4343 0.785586 -1.36625 0
M  V30 51 C 5.3813 1.89838 -1.31264 0
M  V30 52 C 6.3513 1.65115 -0.180633 0
M  V30 53 O 7.5363 1.87222 -0.36777 0
M  V30 54 C 4.6763 3.26706 -1.11163 0
M  V30 55 C 3.7893 3.63476 -2.33472 0
M  V30 56 C 2.9243 4.89481 -2.06353 0
M  V30 57 C 1.9633 5.18941 -3.24602 0
M  V30 58 N 1.1003 6.36131 -2.97123 0
M  V30 59 H 5.9403 1.93756 -2.26413 0
M  V30 60 H 3.4773 0.947454 -1.12524 0
M  V30 61 H 5.4353 4.05639 -0.975337 0
M  V30 62 H 4.0653 3.222 -0.196674 0
M  V30 63 H 3.1173 2.79636 -2.57891 0
M  V30 64 H 4.4293 3.81193 -3.21704 0
M  V30 65 H 3.5833 5.76288 -1.89675 0
M  V30 66 H 2.3223 4.73841 -1.15437 0
M  V30 67 H 1.3273 4.30615 -3.41834 0
M  V30 68 H 2.5523 5.36498 -4.16349 0
M  V30 69 H 0.4983 6.21875 -2.08823 0
M  V30 70 H 0.4153 6.54198 -3.78894 0
M  V30 71 H 1.6833 7.2591 -2.84033 0
M  V30 72 N 5.9124 1.20967 1.01018 0
M  V30 73 C 7.1404 1.04956 1.78303 0
M  V30 74 C 7.5554 -0.400915 1.84494 0
M  V30 75 O 6.9124 -1.27826 1.30257 0
M  V30 76 C 6.9634 1.63403 3.22462 0
M  V30 77 O 6.6844 3.02775 3.16637 0
M  V30 78 C 8.1854 1.52432 4.16268 0
M  V30 79 H 5.4054 0.368858 0.560522 0
M  V30 80 H 7.9494 1.60193 1.27116 0
M  V30 81 H 6.1044 1.1227 3.70775 0
M  V30 82 H 6.5184 3.30626 4.07169 0
M  V30 83 H 7.9924 1.98078 5.15237 0
M  V30 84 H 8.4694 0.477875 4.36592 0
M  V30 85 H 9.0754 2.02787 3.73841 0
M  V30 86 N 7.3905 -1.2043 1.01659 0
M  V30 87 C 8.3375 -2.23215 0.586822 0
M  V30 88 C 9.3075 -1.61382 -0.393085 0
M  V30 89 O 10.4925 -1.88544 -0.292525 0
M  V30 90 C 7.6325 -3.45032 -0.0687464 0
M  V30 91 C 6.7455 -4.21296 0.955724 0
M  V30 92 C 5.8805 -5.30507 0.271208 0
M  V30 93 C 4.9195 -5.98515 1.28244 0
M  V30 94 N 4.0565 -6.99316 0.62459 0
M  V30 95 H 8.8965 -2.59336 1.46796 0
M  V30 96 H 6.4335 -1.27431 0.734836 0
M  V30 97 H 8.3915 -4.1459 -0.465965 0
M  V30 98 H 7.0215 -3.09604 -0.913529 0
M  V30 99 H 6.0735 -3.50803 1.4711 0
M  V30 100 H 7.3855 -4.6803 1.72479 0
M  V30 101 H 6.5395 -6.06428 -0.18151 0
M  V30 102 H 5.2785 -4.8481 -0.530163 0
M  V30 103 H 4.2835 -5.21355 1.74554 0
M  V30 104 H 5.5085 -6.46298 2.08509 0
M  V30 105 H 3.4545 -6.55812 -0.156914 0
M  V30 106 H 3.3715 -7.44178 1.33172 0
M  V30 107 H 4.6395 -7.79255 0.195462 0
M  V30 108 N 8.8686 -0.792821 -1.36206 0
M  V30 109 C 9.8156 -0.191653 -2.30003 0
M  V30 110 C 10.7856 0.666453 -1.52143 0
M  V30 111 O 11.9706 0.61442 -1.80636 0
M  V30 112 C 9.1106 0.664848 -3.38635 0
M  V30 113 C 8.2236 -0.212175 -4.31479 0
M  V30 114 C 7.3586 0.651022 -5.27196 0
M  V30 115 C 6.3976 -0.227247 -6.11678 0
M  V30 116 N 5.5346 0.595127 -6.99573 0
M  V30 117 H 10.3746 -0.996978 -2.80828 0
M  V30 118 H 7.9116 -0.503206 -1.38225 0
M  V30 119 H 9.8696 1.17645 -4.00269 0
M  V30 120 H 8.4996 1.43557 -2.89122 0
M  V30 121 H 7.5516 -0.841777 -3.70969 0
M  V30 122 H 8.8636 -0.888751 -4.90818 0
M  V30 123 H 8.0176 1.2283 -5.94136 0
M  V30 124 H 6.7566 1.36121 -4.68319 0
M  V30 125 H 5.7616 -0.816904 -5.43697 0
M  V30 126 H 6.9866 -0.93509 -6.72631 0
M  V30 127 H 4.9326 1.28955 -6.432 0
M  V30 128 H 4.8496 -0.0236952 -7.55996 0
M  V30 129 H 6.1176 1.15613 -7.70879 0
M  V30 130 N 10.3467 1.47872 -0.545128 0
M  V30 131 C 11.2767 2.32661 0.197793 0
M  V30 132 C 12.2577 1.43041 0.920504 0
M  V30 133 O 13.4427 1.71912 0.90333 0
M  V30 134 C 10.5727 3.24569 1.23582 0
M  V30 135 C 9.5267 4.23333 0.630323 0
M  V30 136 C 8.8527 5.0448 1.77211 0
M  V30 137 C 10.1527 5.20704 -0.407974 0
M  V30 138 H 11.8467 2.95024 -0.510045 0
M  V30 139 H 9.3927 1.4187 -0.246731 0
M  V30 140 H 11.3457 3.8272 1.76362 0
M  V30 141 H 10.0697 2.60236 1.97344 0
M  V30 142 H 8.7287 3.6639 0.123922 0
M  V30 143 H 8.3767 4.36561 2.49847 0
M  V30 144 H 8.0767 5.71339 1.37281 0
M  V30 145 H 9.6007 5.65487 2.3034 0
M  V30 146 H 11.0147 5.7329 0.033305 0
M  V30 147 H 9.4117 5.95699 -0.725486 0
M  V30 148 H 10.4817 4.66917 -1.30828 0
M  V30 149 N 11.8248 0.280983 1.55075 0
M  V30 150 C 13.0738 -0.334784 1.98902 0
M  V30 151 C 13.3868 -1.56534 1.17288 0
M  V30 152 O 14.5928 -2.25443 1.51287 0
M  V30 153 C 13.0488 -0.646994 3.54037 0
M  V30 154 C 12.6568 0.564085 4.44435 0
M  V30 155 C 14.4008 -1.22506 4.06439 0
M  V30 156 C 12.3078 0.226137 5.90967 0
M  V30 157 H 11.2378 -0.128866 0.742906 0
M  V30 158 H 13.8888 0.386556 1.79382 0
M  V30 159 H 12.2708 -1.42739 3.6938 0
M  V30 160 H 13.4448 1.34082 4.40861 0
M  V30 161 H 11.7598 1.0594 4.02698 0
M  V30 162 H 14.3568 -1.49182 5.13468 0
M  V30 163 H 14.6998 -2.16085 3.55827 0
M  V30 164 H 15.2328 -0.50682 3.94558 0
M  V30 165 H 11.9718 1.12996 6.45687 0
M  V30 166 H 11.4918 -0.513717 5.97596 0
M  V30 167 H 13.1708 -0.179539 6.46751 0
M  V30 168 N 13.3029 -1.57598 0.00835791 0
M  V30 169 C 14.5489 -1.91211 -0.675732 0
M  V30 170 C 14.8819 -0.883139 -1.72958 0
M  V30 171 O 14.1569 0.097016 -1.94258 0
M  V30 172 C 14.4399 -3.35379 -1.31123 0
M  V30 173 C 14.2929 -4.48999 -0.268356 0
M  V30 174 C 15.6119 -3.7912 -2.23508 0
M  V30 175 H 12.7309 -0.695374 -0.244179 0
M  V30 176 H 15.3729 -1.89901 0.0613655 0
M  V30 177 H 13.5229 -3.36626 -1.93946 0
M  V30 178 H 15.1949 -4.59887 0.360844 0
M  V30 179 H 13.4379 -4.31873 0.408482 0
M  V30 180 H 14.1089 -5.46851 -0.752218 0
M  V30 181 H 16.5849 -3.79477 -1.70693 0
M  V30 182 H 15.4609 -4.80729 -2.64936 0
M  V30 183 H 15.7219 -3.13455 -3.11766 0
M  V30 184 N 14.781 0.264519 -1.55364 0
M  V30 185 C 16.006 1.01726 -1.80739 0
M  V30 186 C 16.431 1.78836 -0.583044 0
M  V30 187 O 15.789 1.75167 0.467566 0
M  V30 188 C 15.837 1.94482 -3.03659 0
M  V30 189 O 14.941 3.03386 -2.7934 0
M  V30 190 H 14.282 0.290395 -0.597132 0
M  V30 191 H 16.812 0.290854 -2.02522 0
M  V30 192 H 16.822 2.36278 -3.32621 0
M  V30 193 H 15.497 1.37772 -3.92418 0
M  V30 194 H 14.074 2.65844 -2.61498 0
M  V30 195 N 16.2591 1.48442 0.529413 0
M  V30 196 C 17.1891 1.65902 1.64313 0
M  V30 197 C 18.1701 0.507897 1.6234 0
M  V30 198 O 19.3551 0.740503 1.79528 0
M  V30 199 C 16.4851 1.69911 3.02898 0
M  V30 200 C 15.4391 2.8453 3.19729 0
M  V30 201 C 14.7651 2.73629 4.59381 0
M  V30 202 C 16.0651 4.25821 3.02447 0
M  V30 203 H 17.7591 2.5914 1.49955 0
M  V30 204 H 15.3051 1.24709 0.719982 0
M  V30 205 H 17.2581 1.80715 3.80684 0
M  V30 206 H 15.9821 0.732524 3.18279 0
M  V30 207 H 14.6411 2.73283 2.44361 0
M  V30 208 H 14.2891 1.74938 4.71599 0
M  V30 209 H 13.9891 3.50541 4.71588 0
M  V30 210 H 15.5131 2.86401 5.39265 0
M  V30 211 H 16.9271 4.37898 3.70024 0
M  V30 212 H 15.3241 5.03735 3.26146 0
M  V30 213 H 16.3941 4.42244 1.98867 0
M  V30 214 N 17.7372 -0.778329 1.37039 0
M  V30 215 C 18.9622 -1.57248 1.35233 0
M  V30 216 C 19.3872 -1.87999 -0.0615568 0
M  V30 217 O 18.7452 -1.48734 -1.03672 0
M  V30 218 C 18.7932 -2.86353 2.19167 0
M  V30 219 O 17.8972 -3.80442 1.59178 0
M  V30 220 H 17.2382 -0.476569 0.462362 0
M  V30 221 H 19.7682 -0.963853 1.80474 0
M  V30 222 H 19.7782 -3.35519 2.32145 0
M  V30 223 H 18.4532 -2.63299 3.21942 0
M  V30 224 H 17.0302 -3.39067 1.55203 0
M  V30 225 N 19.2153 -1.21501 -1.00376 0
M  V30 226 C 20.4403 -1.05977 -1.78279 0
M  V30 227 C 20.8653 0.385994 -1.84097 0
M  V30 228 O 20.2233 1.27849 -1.28547 0
M  V30 229 C 20.2713 -1.66302 -3.19963 0
M  V30 230 O 19.3753 -0.909333 -4.0225 0
M  V30 231 H 18.7163 -0.372906 -0.549397 0
M  V30 232 H 21.2463 -1.6107 -1.26165 0
M  V30 233 H 21.2563 -1.70574 -3.70632 0
M  V30 234 H 19.9313 -2.71515 -3.15043 0
M  V30 235 H 18.5083 -0.941795 -3.60811 0
M  V30 236 N 20.6934 1.19889 -1.02296 0
M  V30 237 C 21.6234 2.25141 -0.619174 0
M  V30 238 C 22.6044 1.66051 0.368915 0
M  V30 239 O 23.7894 1.92546 0.252941 0
M  V30 240 C 20.9194 3.4728 0.0368783 0
M  V30 241 C 19.8734 4.19005 -0.872865 0
M  V30 242 C 19.1994 5.34637 -0.0822402 0
M  V30 243 C 20.4994 4.74452 -2.18387 0
M  V30 244 H 22.1934 2.59171 -1.49903 0
M  V30 245 H 19.7394 1.24579 -0.722222 0
M  V30 246 H 21.6924 4.20098 0.330958 0
M  V30 247 H 20.4164 3.12433 0.95149 0
M  V30 248 H 19.0754 3.48061 -1.15105 0
M  V30 249 H 18.7234 4.96034 0.83422 0
M  V30 250 H 18.4234 5.83557 -0.688149 0
M  V30 251 H 19.9474 6.10255 0.205238 0
M  V30 252 H 21.3614 5.39055 -1.95172 0
M  V30 253 H 19.7584 5.33834 -2.74119 0
M  V30 254 H 20.8284 3.92844 -2.84257 0
M  V30 255 N 22.1715 0.800033 1.35784 0
M  V30 256 C 23.4175 0.377901 1.99248 0
M  V30 257 C 23.7505 -1.05052 1.63333 0
M  V30 258 O 23.0255 -1.72768 0.893385 0
M  V30 259 C 23.3085 0.553922 3.55814 0
M  V30 260 C 23.1615 2.0268 4.01548 0
M  V30 261 C 24.4805 -0.0244802 4.40093 0
M  V30 262 H 21.5995 0.138782 0.723815 0
M  V30 263 H 24.2415 1.00835 1.61035 0
M  V30 264 H 22.3915 0.0172398 3.88496 0
M  V30 265 H 24.0635 2.62536 3.79305 0
M  V30 266 H 22.3065 2.5256 3.52698 0
M  V30 267 H 22.9775 2.10087 5.10458 0
M  V30 268 H 25.4535 0.433775 4.13833 0
M  V30 269 H 24.3295 0.128637 5.48749 0
M  V30 270 H 24.5905 -1.11758 4.27741 0
M  V30 271 N 23.6496 -1.47581 0.552962 0
M  V30 272 C 24.5796 -2.32762 -0.185451 0
M  V30 273 C 25.5606 -1.43527 -0.912905 0
M  V30 274 O 26.7456 -1.72388 -0.894201 0
M  V30 275 C 23.8756 -3.25219 -1.21859 0
M  V30 276 C 22.8296 -4.23661 -0.607864 0
M  V30 277 C 22.1556 -5.05413 -1.74533 0
M  V30 278 C 23.4556 -5.20481 0.435582 0
M  V30 279 H 25.1496 -2.94749 0.525684 0
M  V30 280 H 22.6956 -1.41738 0.254251 0
M  V30 281 H 24.6486 -3.8365 -1.7433 0
M  V30 282 H 23.3726 -2.61279 -1.95961 0
M  V30 283 H 22.0316 -3.66451 -0.104489 0
M  V30 284 H 21.6796 -4.3788 -2.47529 0
M  V30 285 H 21.3796 -5.72059 -1.34249 0
M  V30 286 H 22.9036 -5.66701 -2.27338 0
M  V30 287 H 24.3176 -5.733 -0.00290157 0
M  V30 288 H 22.7146 -5.95305 0.757067 0
M  V30 289 H 23.7846 -4.66217 1.33303 0
M  V30 290 N 25.1277 -0.289203 -1.54924 0
M  V30 291 C 26.3527 0.329299 -2.04769 0
M  V30 292 C 26.7777 1.4763 -1.16564 0
M  V30 293 O 26.1357 1.80527 -0.167186 0
M  V30 294 C 26.1837 0.774438 -3.52186 0
M  V30 295 O 25.2877 1.88038 -3.67036 0
M  V30 296 H 24.6287 0.0659259 -0.660719 0
M  V30 297 H 27.1587 -0.42761 -2.00082 0
M  V30 298 H 27.1687 1.06642 -3.93816 0
M  V30 299 H 25.8437 -0.0646707 -4.1585 0
M  V30 300 H 24.4207 1.58985 -3.3731 0
M  V30 301 N 26.6058 1.57591 -0.0167156 0
M  V30 302 C 27.8538 1.90906 0.663285 0
M  V30 303 C 28.1748 0.892509 1.73376 0
M  V30 304 O 27.4448 -0.0677623 1.95783 0
M  V30 305 H 26.0248 0.704637 0.247983 0
M  V30 306 H 28.6868 1.94803 -0.0615909 0
M  V30 307 H 27.7828 2.9116 1.12393 0
M  V30 308 N 28.0839 -0.256276 1.55502 0
M  V30 309 C 29.3309 -0.985619 1.76895 0
M  V30 310 C 29.6589 -1.85671 0.579355 0
M  V30 311 O 28.9139 -1.90744 -0.437651 0
M  V30 312 C 29.2129 -1.88432 3.03691 0
M  V30 313 C 28.8789 -1.16936 4.35473 0
M  V30 314 C 27.5409 -0.97173 4.71286 0
M  V30 315 C 29.8929 -0.661889 5.1698 0
M  V30 316 C 27.2209 -0.254179 5.86149 0
M  V30 317 C 29.5729 0.042149 6.32586 0
M  V30 318 C 28.2369 0.25134 6.67027 0
M  V30 319 H 27.5069 -0.360663 0.647304 0
M  V30 320 H 30.1539 -0.256483 1.89775 0
M  V30 321 H 28.4589 -2.68021 2.85783 0
M  V30 322 H 30.1559 -2.45015 3.1744 0
M  V30 323 H 26.7459 -1.33332 4.07333 0
M  V30 324 H 30.9299 -0.802145 4.89775 0
M  V30 325 H 26.1859 -0.0815408 6.11346 0
M  V30 326 H 30.3599 0.443049 6.94989 0
M  V30 327 H 27.9869 0.809314 7.5588 0
M  V30 328 N 29.562 -1.4872 -0.521534 0
M  V30 329 C 30.492 -1.66771 -1.63431 0
M  V30 330 C 31.473 -0.516499 -1.62069 0
M  V30 331 O 32.658 -0.750013 -1.79132 0
M  V30 332 C 29.788 -1.71515 -3.01993 0
M  V30 333 C 28.742 -2.86222 -3.18216 0
M  V30 334 C 28.068 -2.76061 -4.57924 0
M  V30 335 C 29.368 -4.27419 -3.00184 0
M  V30 336 H 31.062 -2.59932 -1.48579 0
M  V30 337 H 28.608 -1.25089 -0.713358 0
M  V30 338 H 30.561 -1.82731 -3.7972 0
M  V30 339 H 29.285 -0.749393 -3.17886 0
M  V30 340 H 27.944 -2.74575 -2.42908 0
M  V30 341 H 27.592 -1.77437 -4.70665 0
M  V30 342 H 27.292 -3.53037 -4.69722 0
M  V30 343 H 28.816 -2.89256 -5.37739 0
M  V30 344 H 30.23 -4.39855 -3.67697 0
M  V30 345 H 28.627 -5.05458 -3.2347 0
M  V30 346 H 29.697 -4.43293 -1.96518 0
M  V30 347 N 31.0401 0.771051 -1.3745 0
M  V30 348 C 31.9701 1.89827 -1.3597 0
M  V30 349 C 32.9511 1.68562 -0.228216 0
M  V30 350 O 34.1361 1.8941 -0.428675 0
M  V30 351 C 31.2661 3.2712 -1.16662 0
M  V30 352 C 30.2201 3.6295 -2.2683 0
M  V30 353 C 29.5461 4.98791 -1.92644 0
M  V30 354 C 30.8461 3.69627 -3.69017 0
M  V30 355 H 32.5401 1.91323 -2.30295 0
M  V30 356 H 30.0861 0.919082 -1.10855 0
M  V30 357 H 32.0391 4.05615 -1.14256 0
M  V30 358 H 30.7631 3.26059 -0.187926 0
M  V30 359 H 29.4221 2.86763 -2.28392 0
M  V30 360 H 29.0701 4.94271 -0.933021 0
M  V30 361 H 28.7701 5.23733 -2.66416 0
M  V30 362 H 30.2941 5.79685 -1.91826 0
M  V30 363 H 31.7081 4.38273 -3.69581 0
M  V30 364 H 30.1051 4.06067 -4.41848 0
M  V30 365 H 31.1751 2.70273 -4.02592 0
M  V30 366 N 32.5182 1.22032 0.997298 0
M  V30 367 C 33.4662 0.983634 2.10778 0
M  V30 368 C 34.4602 -0.0717564 1.69248 0
M  V30 369 O 35.6662 0.080304 1.79821 0
M  V30 370 H 32.0412 0.300877 0.689186 0
M  V30 371 H 34.0122 1.92606 2.27916 0
M  V30 372 C 32.7612 0.57326 3.42942 0
M  V30 373 H 32.0842 1.37702 3.75338 0
M  V30 374 H 33.5242 0.447031 4.21637 0
M  V30 375 C 31.9832 -0.7167 3.29188 0
M  V30 376 O 32.5132 -1.77027 3.60589 0
M  V30 377 N 30.7192 -0.686167 2.82383 0
M  V30 378 H 30.2662 0.171507 2.57028 0
M  V30 379 H 30.2242 -1.54955 2.73562 0
M  V30 380 N 33.9963 -1.19345 1.0293 0
M  V30 381 C 34.9463 -2.20472 0.58104 0
M  V30 382 C 35.9303 -1.56578 -0.370442 0
M  V30 383 O 37.1223 -1.75963 -0.191344 0
M  V30 384 C 34.2513 -3.43236 -0.066306 0
M  V30 385 C 33.3373 -4.14274 0.907642 0
M  V30 386 N 33.7283 -4.61492 2.07023 0
M  V30 387 C 32.0263 -4.39966 0.731177 0
M  V30 388 C 32.7273 -5.1605 2.68454 0
M  V30 389 N 31.7033 -5.06875 1.96414 0
M  V30 390 H 35.5053 -2.54659 1.46717 0
M  V30 391 H 33.0193 -1.35423 0.896345 0
M  V30 392 H 35.0163 -4.14927 -0.405068 0
M  V30 393 H 33.6763 -3.10549 -0.948118 0
M  V30 394 H 34.6873 -4.56304 2.44963 0
M  V30 395 H 31.3643 -4.17377 -0.101507 0
M  V30 396 H 32.7543 -5.6287 3.66915 0
M  V30 397 N 35.4744 -0.807222 -1.35358 0
M  V30 398 C 36.7044 -0.399796 -2.02695 0
M  V30 399 C 37.1124 0.994176 -1.60974 0
M  V30 400 O 36.4554 1.65209 -0.803226 0
M  V30 401 C 36.5174 -0.404445 -3.57218 0
M  V30 402 C 36.1814 -1.74904 -4.22206 0
M  V30 403 C 37.1784 -2.70743 -4.4384 0
M  V30 404 C 34.8634 -2.03322 -4.5931 0
M  V30 405 C 36.8574 -3.93183 -5.01683 0
M  V30 406 C 34.5444 -3.26026 -5.16866 0
M  V30 407 C 35.5424 -4.20774 -5.37994 0
M  V30 408 O 35.2304 -5.41312 -5.94337 0
M  V30 409 H 34.9624 -0.160517 -0.656666 0
M  V30 410 H 37.5164 -1.09235 -1.73945 0
M  V30 411 H 35.7464 0.344707 -3.85161 0
M  V30 412 H 37.4354 -0.0192429 -4.05895 0
M  V30 413 H 38.2014 -2.5008 -4.15554 0
M  V30 414 H 34.0804 -1.30384 -4.42178 0
M  V30 415 H 37.6244 -4.6715 -5.1809 0
M  V30 416 H 33.5214 -3.46559 -5.44579 0
M  V30 417 H 34.2894 -5.42618 -6.12787 0
M  V30 418 N 36.9525 1.47285 -0.560781 0
M  V30 419 C 37.8855 2.27009 0.232821 0
M  V30 420 C 38.8635 1.34273 0.917039 0
M  V30 421 O 40.0475 1.63659 0.935315 0
M  V30 422 C 37.1745 3.11406 1.33206 0
M  V30 423 C 36.2205 4.19746 0.756019 0
M  V30 424 S 37.0535 5.34003 -0.400165 0
M  V30 425 C 38.2095 6.21964 0.700805 0
M  V30 426 H 38.4425 2.93971 -0.443683 0
M  V30 427 H 35.9755 1.50446 -0.347181 0
M  V30 428 H 37.9335 3.60601 1.96156 0
M  V30 429 H 36.5945 2.438 1.98041 0
M  V30 430 H 35.7875 4.78541 1.5816 0
M  V30 431 H 35.3895 3.73451 0.202619 0
M  V30 432 H 37.6815 6.58529 1.59202 0
M  V30 433 H 38.6245 7.07941 0.150126 0
M  V30 434 H 39.0325 5.5566 0.995083 0
M  V30 435 N 38.4306 0.297415 1.54768 0
M  V30 436 C 39.6586 -0.315623 2.04478 0
M  V30 437 C 40.0736 -1.47792 1.17486 0
M  V30 438 O 39.4306 -1.81404 0.19971 0
M  V30 439 C 39.4816 -0.7753 3.53088 0
M  V30 440 O 39.2026 0.340732 4.36773 0
M  V30 441 C 40.7036 -1.45386 4.18781 0
M  V30 442 H 37.9236 -0.0690887 0.667434 0
M  V30 443 H 40.4676 0.436003 1.99798 0
M  V30 444 H 38.6226 -1.47696 3.58141 0
M  V30 445 H 39.0366 -0.0165035 5.24497 0
M  V30 446 H 40.5106 -1.72669 5.24299 0
M  V30 447 H 40.9876 -2.39275 3.68299 0
M  V30 448 H 41.5936 -0.795475 4.17795 0
M  V30 449 N 39.9087 -1.5758 0.0250728 0
M  V30 450 C 41.1577 -1.90811 -0.653767 0
M  V30 451 C 41.4707 -0.90273 -1.73523 0
M  V30 452 O 42.6767 -1.12614 -2.47043 0
M  V30 453 C 41.1327 -3.38804 -1.21409 0
M  V30 454 C 40.7407 -4.47692 -0.166126 0
M  V30 455 C 42.4847 -3.81108 -1.86967 0
M  V30 456 C 40.3917 -5.86779 -0.737856 0
M  V30 457 H 39.3217 -0.712063 -0.247956 0
M  V30 458 H 41.9727 -1.83281 0.0897137 0
M  V30 459 H 40.3547 -3.41252 -2.00905 0
M  V30 460 H 41.5287 -4.56797 0.606079 0
M  V30 461 H 39.8437 -4.14565 0.390466 0
M  V30 462 H 42.4407 -4.82375 -2.30692 0
M  V30 463 H 42.7837 -3.15953 -2.71071 0
M  V30 464 H 43.3167 -3.81065 -1.14167 0
M  V30 465 H 40.0557 -6.55468 0.0649577 0
M  V30 466 H 39.5757 -5.81288 -1.47864 0
M  V30 467 H 41.2547 -6.35223 -1.22884 0
M  V30 468 N 41.3868 0.248026 -1.55636 0
M  V30 469 C 42.6348 0.974295 -1.77065 0
M  V30 470 C 42.9558 1.85897 -0.588849 0
M  V30 471 O 42.2258 1.91868 0.395407 0
M  V30 472 H 40.8058 0.362733 -0.653019 0
M  V30 473 H 43.4678 0.266244 -1.93073 0
M  V30 474 H 42.5638 1.59667 -2.68166 0
M  V30 475 N 42.8649 1.48995 0.513639 0
M  V30 476 C 43.8279 1.64229 1.59879 0
M  V30 477 C 44.8279 0.514696 1.5234 0
M  V30 478 O 46.0179 0.78087 1.55718 0
M  V30 479 C 43.1499 1.62783 2.99524 0
M  V30 480 H 44.3429 2.61004 1.47705 0
M  V30 481 H 41.8959 1.37837 0.736936 0
M  V30 482 H 42.6309 0.675461 3.17188 0
M  V30 483 H 42.4159 2.4466 3.06404 0
M  V30 484 H 43.9059 1.76669 3.78388 0
M  V30 485 N 44.343 -0.763751 1.37857 0
M  V30 486 C 45.253 -1.90817 1.36478 0
M  V30 487 C 46.269 -1.71997 0.263248 0
M  V30 488 O 47.445 -1.95095 0.499979 0
M  V30 489 C 44.51 -3.2605 1.17864 0
M  V30 490 C 43.571 -3.57467 2.3773 0
M  V30 491 C 42.804 -4.86249 2.19995 0
M  V30 492 O 43.027 -5.57884 1.18836 0
M  V30 493 O 41.961 -5.16911 3.08361 0
M  V30 494 H 45.787 -1.94933 2.32884 0
M  V30 495 H 43.372 -0.907619 1.1867 0
M  V30 496 H 45.254 -4.06924 1.09504 0
M  V30 497 H 43.929 -3.22769 0.245372 0
M  V30 498 H 42.836 -2.76796 2.51664 0
M  V30 499 H 44.169 -3.655 3.29652 0
M  V30 500 N 45.8211 -1.22559 -0.990812 0
M  V30 501 C 46.7311 -1.01394 -2.11557 0
M  V30 502 C 47.7471 0.0383962 -1.73958 0
M  V30 503 O 48.9231 -0.154787 -2.00804 0
M  V30 504 C 45.9881 -0.596569 -3.41529 0
M  V30 505 C 45.0491 -1.72276 -3.93217 0
M  V30 506 C 44.2821 -1.32521 -5.16985 0
M  V30 507 O 44.5051 -0.204909 -5.70032 0
M  V30 508 O 43.4391 -2.14247 -5.62478 0
M  V30 509 H 47.2651 -1.95633 -2.32296 0
M  V30 510 H 44.8501 -1.01172 -1.0993 0
M  V30 511 H 46.7321 -0.374263 -4.19735 0
M  V30 512 H 45.4071 0.316939 -3.22145 0
M  V30 513 H 44.3141 -1.99961 -3.16174 0
M  V30 514 H 45.6471 -2.61421 -4.17037 0
M  V30 515 N 47.2992 1.18797 -1.03562 0
M  V30 516 C 48.5272 1.92599 -0.755869 0
M  V30 517 C 48.9422 1.75886 0.686271 0
M  V30 518 O 48.2992 1.08517 1.46732 0
M  V30 519 C 48.3502 3.44159 -1.10619 0
M  V30 520 O 48.0712 3.60341 -2.4917 0
M  V30 521 C 49.5722 4.3507 -0.850214 0
M  V30 522 H 46.7922 0.611587 -0.276048 0
M  V30 523 H 49.3362 1.50742 -1.38192 0
M  V30 524 H 47.4912 3.83823 -0.525194 0
M  V30 525 H 47.9052 4.54128 -2.62427 0
M  V30 526 H 49.3792 5.39989 -1.14523 0
M  V30 527 H 49.8562 4.38673 0.215176 0
M  V30 528 H 50.4622 4.01097 -1.41426 0
M  V30 529 N 48.7773 0.814389 1.34928 0
M  V30 530 C 50.0053 0.411136 2.02774 0
M  V30 531 C 50.4203 -0.980316 1.61354 0
M  V30 532 O 49.7773 -1.63299 0.814847 0
M  V30 533 C 49.8283 0.493865 3.58111 0
M  V30 534 O 49.5493 1.83047 3.98027 0
M  V30 535 C 51.0503 0.0844174 4.4322 0
M  V30 536 H 48.2703 0.166037 0.650133 0
M  V30 537 H 50.8143 1.10018 1.72384 0
M  V30 538 H 48.9693 -0.147006 3.87121 0
M  V30 539 H 49.3833 1.79872 4.92693 0
M  V30 540 H 50.8573 0.193404 5.51661 0
M  V30 541 H 51.3343 -0.97113 4.28329 0
M  V30 542 H 51.9403 0.69875 4.19521 0
M  V30 543 N 50.2554 -1.46986 0.568584 0
M  V30 544 C 51.4834 -2.0683 0.0539956 0
M  V30 545 C 51.8984 -1.41953 -1.24478 0
M  V30 546 O 51.2554 -0.519933 -1.74937 0
M  V30 547 C 51.3064 -3.61254 -0.133362 0
M  V30 548 O 51.0274 -4.237 1.11399 0
M  V30 549 C 52.5284 -4.37992 -0.683927 0
M  V30 550 H 49.7484 -0.669058 0.0510141 0
M  V30 551 H 52.2924 -1.88824 0.785234 0
M  V30 552 H 50.4474 -3.78735 -0.81477 0
M  V30 553 H 50.8614 -5.16388 0.91888 0
M  V30 554 H 52.3354 -5.46684 -0.764263 0
M  V30 555 H 52.8124 -4.05058 -1.69778 0
M  V30 556 H 53.4184 -4.25283 -0.0378494 0
M  V30 557 N 51.7335 -0.305618 -1.54608 0
M  V30 558 C 52.6815 0.584119 -2.25146 0
M  V30 559 C 53.6755 1.13326 -1.25911 0
M  V30 560 O 54.8815 1.08337 -1.43747 0
M  V30 561 H 51.2565 0.206983 -0.722954 0
M  V30 562 H 53.2275 -0.033291 -2.98381 0
M  V30 563 C 51.9765 1.74225 -3.009 0
M  V30 564 H 51.2995 1.32892 -3.77067 0
M  V30 565 H 52.7395 2.34077 -3.53531 0
M  V30 566 C 51.1985 2.64914 -2.0814 0
M  V30 567 O 51.7285 3.66137 -1.65246 0
M  V30 568 N 49.9345 2.3275 -1.74 0
M  V30 569 H 49.4815 1.50479 -2.09078 0
M  V30 570 H 49.4395 2.93694 -1.12211 0
M  V30 571 N 53.2116 1.57565 -0.0334293 0
M  V30 572 C 54.4396 1.9628 0.654347 0
M  V30 573 C 54.8546 0.910138 1.65414 0
M  V30 574 O 54.2116 -0.107595 1.82183 0
M  V30 575 C 54.2626 3.35067 1.35693 0
M  V30 576 O 53.9836 4.36296 0.397191 0
M  V30 577 C 55.4846 3.88439 2.13613 0
M  V30 578 H 52.7046 0.646369 0.180132 0
M  V30 579 H 55.2486 2.04282 -0.0944721 0
M  V30 580 H 53.4036 3.2827 2.05712 0
M  V30 581 H 53.8176 5.1678 0.896597 0
M  V30 582 H 55.2916 4.8788 2.58219 0
M  V30 583 H 55.7686 3.22914 2.97696 0
M  V30 584 H 56.3746 3.98516 1.48543 0
M  V30 585 N 54.6897 -0.239769 1.55765 0
M  V30 586 C 55.9387 -0.964754 1.77131 0
M  V30 587 C 56.2517 -1.86213 0.59868 0
M  V30 588 O 57.4577 -2.6244 0.695522 0
M  V30 589 C 55.9137 -1.76552 3.1362 0
M  V30 590 C 55.5217 -0.915185 4.38553 0
M  V30 591 C 57.2657 -2.48281 3.44321 0
M  V30 592 C 55.1727 -1.71225 5.66071 0
M  V30 593 H 54.1027 -0.363953 0.660344 0
M  V30 594 H 56.7537 -0.219181 1.82186 0
M  V30 595 H 55.1357 -2.55331 3.02691 0
M  V30 596 H 56.3097 -0.169217 4.60489 0
M  V30 597 H 54.6247 -0.310889 4.15238 0
M  V30 598 H 57.2217 -3.08382 4.36812 0
M  V30 599 H 57.5647 -3.20256 2.65973 0
M  V30 600 H 58.0977 -1.76507 3.56497 0
M  V30 601 H 54.8367 -1.03612 6.4726 0
M  V30 602 H 54.3567 -2.43331 5.48224 0
M  V30 603 H 56.0357 -2.27758 6.05587 0
M  V30 604 N 56.1678 -1.49265 -0.50573 0
M  V30 605 C 57.0998 -1.617 -1.62437 0
M  V30 606 C 58.1128 -0.499924 -1.54934 0
M  V30 607 O 59.3018 -0.771785 -1.60953 0
M  V30 608 C 56.4018 -1.5533 -3.01207 0
M  V30 609 C 55.5748 -2.8249 -3.33943 0
M  V30 610 C 54.6338 -2.69238 -4.52103 0
M  V30 611 O 53.6598 -3.43167 -4.5412 0
M  V30 612 N 54.8618 -1.80468 -5.51735 0
M  V30 613 H 57.6268 -2.58177 -1.52199 0
M  V30 614 H 55.1878 -1.46294 -0.693511 0
M  V30 615 H 57.1798 -1.44125 -3.78167 0
M  V30 616 H 55.7498 -0.667297 -3.05395 0
M  V30 617 H 54.9698 -3.08081 -2.45926 0
M  V30 618 H 56.2578 -3.66802 -3.5261 0
M  V30 619 H 55.6558 -1.19653 -5.52901 0
M  V30 620 H 54.2128 -1.75188 -6.27816 0
M  V30 621 N 57.6459 0.756429 -1.3826 0
M  V30 622 C 58.5779 1.87971 -1.31147 0
M  V30 623 C 59.5909 1.61248 -0.224239 0
M  V30 624 O 60.7799 1.71881 -0.481581 0
M  V30 625 C 57.8799 3.23545 -1.00857 0
M  V30 626 C 57.0529 3.77794 -2.20432 0
M  V30 627 C 56.1119 4.91877 -1.86931 0
M  V30 628 O 55.1379 5.06659 -2.59395 0
M  V30 629 N 56.3399 5.74643 -0.822568 0
M  V30 630 H 59.1049 1.94585 -2.2794 0
M  V30 631 H 56.6659 0.936234 -1.32084 0
M  V30 632 H 58.6579 3.97403 -0.765021 0
M  V30 633 H 57.2279 3.12335 -0.128687 0
M  V30 634 H 56.4479 2.95534 -2.6087 0
M  V30 635 H 57.7359 4.10771 -3.00241 0
M  V30 636 H 57.1339 5.65266 -0.221575 0
M  V30 637 H 55.6909 6.48661 -0.638899 0
M  V30 638 N 59.124 1.23083 0.984299 0
M  V30 639 C 60.349 1.088 1.76571 0
M  V30 640 C 60.774 -0.356657 1.84688 0
M  V30 641 O 60.132 -1.25788 1.30565 0
M  V30 642 C 60.18 1.71371 3.17277 0
M  V30 643 O 59.284 0.973213 4.00752 0
M  V30 644 H 58.625 0.381599 0.543395 0
M  V30 645 H 61.155 1.63057 1.23587 0
M  V30 646 H 61.165 1.76449 3.67872 0
M  V30 647 H 59.84 2.76493 3.10684 0
M  V30 648 H 58.417 0.999078 3.59267 0
M  V30 649 N 60.6021 -1.18246 1.0419 0
M  V30 650 C 61.5341 -2.2142 0.592088 0
M  V30 651 C 62.5471 -1.59233 -0.338909 0
M  V30 652 O 63.7361 -1.78002 -0.133231 0
M  V30 653 C 60.8361 -3.38546 -0.154854 0
M  V30 654 C 60.0091 -4.3031 0.784328 0
M  V30 655 C 59.0681 -5.26138 0.0804583 0
M  V30 656 O 58.0941 -5.64738 0.711292 0
M  V30 657 N 59.2961 -5.68261 -1.18574 0
M  V30 658 H 62.0611 -2.60636 1.47949 0
M  V30 659 H 59.6221 -1.33044 0.922544 0
M  V30 660 H 61.6141 -3.99678 -0.635606 0
M  V30 661 H 60.1841 -2.98012 -0.943811 0
M  V30 662 H 59.4041 -3.66764 1.44491 0
M  V30 663 H 60.6921 -4.8852 1.42218 0
M  V30 664 H 60.0901 -5.38957 -1.71876 0
M  V30 665 H 58.6471 -6.31584 -1.61074 0
M  V30 666 N 62.0802 -0.821533 -1.34494 0
M  V30 667 C 63.0272 -0.240397 -2.29545 0
M  V30 668 C 63.9972 0.634031 -1.53523 0
M  V30 669 O 65.1822 0.575966 -1.81899 0
M  V30 670 C 62.3222 0.592869 -3.39969 0
M  V30 671 C 61.4352 -0.30365 -4.30932 0
M  V30 672 C 60.5702 0.539049 -5.28458 0
M  V30 673 C 59.6092 -0.356942 -6.11058 0
M  V30 674 N 58.7462 0.446603 -7.00678 0
M  V30 675 H 63.5862 -1.05632 -2.7865 0
M  V30 676 H 61.1232 -0.532413 -1.37127 0
M  V30 677 H 63.0812 1.09129 -4.02675 0
M  V30 678 H 61.7112 1.37392 -2.92102 0
M  V30 679 H 60.7632 -0.920276 -3.691 0
M  V30 680 H 62.0752 -0.992661 -4.88823 0
M  V30 681 H 61.2292 1.102 -5.96608 0
M  V30 682 H 59.9682 1.26157 -4.71101 0
M  V30 683 H 58.9732 -0.932047 -5.41842 0
M  V30 684 H 60.1982 -1.07755 -6.70497 0
M  V30 685 H 58.1442 1.15282 -6.45791 0
M  V30 686 H 58.0612 -0.184048 -7.55776 0
M  V30 687 H 59.3292 0.992352 -7.73158 0
M  V30 688 N 63.5583 1.46682 -0.576371 0
M  V30 689 C 64.4683 2.34032 0.163141 0
M  V30 690 C 65.4843 1.49367 0.892501 0
M  V30 691 O 66.6603 1.82252 0.857106 0
M  V30 692 C 63.7253 3.26435 1.16795 0
M  V30 693 C 62.7863 4.26998 0.443944 0
M  V30 694 C 62.0193 5.14986 1.40088 0
M  V30 695 O 62.2423 5.05785 2.637 0
M  V30 696 O 61.1763 5.94906 0.914917 0
M  V30 697 H 65.0023 2.98607 -0.55388 0
M  V30 698 H 62.5873 1.45554 -0.336821 0
M  V30 699 H 64.4693 3.83459 1.74748 0
M  V30 700 H 63.1443 2.64465 1.86655 0
M  V30 701 H 62.0513 3.7368 -0.177271 0
M  V30 702 H 63.3843 4.91736 -0.213566 0
M  V30 703 N 65.0364 0.313813 1.54444 0
M  V30 704 C 66.2824 -0.292108 2.00685 0
M  V30 705 C 66.6154 -1.52548 1.20177 0
M  V30 706 O 65.8904 -1.92452 0.281531 0
M  V30 707 C 66.1734 -0.635968 3.5444 0
M  V30 708 C 66.0264 0.607437 4.4568 0
M  V30 709 C 67.3454 -1.45747 4.15266 0
M  V30 710 H 64.4644 -0.104697 0.729526 0
M  V30 711 H 67.1064 0.428457 1.85106 0
M  V30 712 H 65.2564 -1.24986 3.67846 0
M  V30 713 H 66.9284 1.24581 4.44159 0
M  V30 714 H 65.1714 1.23822 4.15753 0
M  V30 715 H 65.8424 0.322515 5.51057 0
M  V30 716 H 68.3184 -0.938645 4.05375 0
M  V30 717 H 67.1944 -1.66683 5.2298 0
M  V30 718 H 67.4554 -2.45063 3.67963 0
M  V30 719 N 66.5145 -1.57545 0.0417849 0
M  V30 720 C 67.4465 -2.07904 -0.964799 0
M  V30 721 C 68.4595 -1.00497 -1.28079 0
M  V30 722 O 69.6485 -1.28087 -1.24322 0
M  V30 723 C 66.7485 -2.49928 -2.28887 0
M  V30 724 C 65.9215 -3.80562 -2.15619 0
M  V30 725 C 64.9805 -4.08999 -3.31069 0
M  V30 726 O 64.0065 -4.79061 -3.0739 0
M  V30 727 N 65.2085 -3.6017 -4.55256 0
M  V30 728 H 67.9735 -2.94886 -0.535029 0
M  V30 729 H 65.5345 -1.61252 -0.144681 0
M  V30 730 H 67.5265 -2.66034 -3.04972 0
M  V30 731 H 66.0965 -1.68245 -2.63463 0
M  V30 732 H 65.3165 -3.74129 -1.24183 0
M  V30 733 H 66.6045 -4.66126 -2.03971 0
M  V30 734 H 66.0025 -3.03512 -4.77386 0
M  V30 735 H 64.5595 -3.81532 -5.28466 0
M  V30 736 N 67.9926 0.231505 -1.5589 0
M  V30 737 C 69.2226 0.973092 -1.82248 0
M  V30 738 C 69.6306 1.78845 -0.617328 0
M  V30 739 O 68.9736 1.78752 0.423499 0
M  V30 740 C 69.0356 1.94732 -3.02192 0
M  V30 741 C 68.6996 1.31743 -4.37599 0
M  V30 742 C 69.6966 0.712238 -5.14998 0
M  V30 743 C 67.3816 1.33218 -4.84312 0
M  V30 744 C 69.3756 0.130195 -6.37267 0
M  V30 745 C 67.0626 0.746286 -6.06526 0
M  V30 746 C 68.0606 0.146337 -6.82843 0
M  V30 747 O 67.7486 -0.430465 -8.02747 0
M  V30 748 H 67.4806 0.29125 -0.61004 0
M  V30 749 H 70.0346 0.254915 -2.03812 0
M  V30 750 H 68.2646 2.70422 -2.76422 0
M  V30 751 H 69.9536 2.55362 -3.15508 0
M  V30 752 H 70.7196 0.69324 -4.8002 0
M  V30 753 H 66.5986 1.78854 -4.24891 0
M  V30 754 H 70.1426 -0.33871 -6.96777 0
M  V30 755 H 66.0396 0.762663 -6.40979 0
M  V30 756 H 66.8076 -0.323818 -8.17859 0
M  V30 757 N 69.4707 1.49531 0.497807 0
M  V30 758 C 70.4027 1.62559 1.61578 0
M  V30 759 C 71.4157 0.508134 1.54667 0
M  V30 760 O 72.6047 0.780309 1.60541 0
M  V30 761 C 69.7047 1.56925 3.00379 0
M  V30 762 C 68.8777 2.84257 3.3244 0
M  V30 763 C 67.9367 2.71632 4.50669 0
M  V30 764 O 66.9627 3.4557 4.52294 0
M  V30 765 N 68.1647 1.83391 5.5077 0
M  V30 766 H 70.9297 2.58981 1.50828 0
M  V30 767 H 68.4907 1.4666 0.685743 0
M  V30 768 H 70.4827 1.46129 3.77397 0
M  V30 769 H 69.0527 0.683483 3.05037 0
M  V30 770 H 68.2727 3.09381 2.44289 0
M  V30 771 H 69.5607 3.68666 3.5066 0
M  V30 772 H 68.9587 1.22583 5.52259 0
M  V30 773 H 67.5157 1.78515 6.26878 0
M  V30 774 N 70.9488 -0.749086 1.3866 0
M  V30 775 C 71.8808 -1.87273 1.32142 0
M  V30 776 C 72.8938 -1.61127 0.232787 0
M  V30 777 O 74.0828 -1.71623 0.49069 0
M  V30 778 C 71.1828 -3.23005 1.02571 0
M  V30 779 C 70.3558 -3.7662 2.22433 0
M  V30 780 C 69.4148 -4.90879 1.89537 0
M  V30 781 O 68.4408 -5.05276 2.62078 0
M  V30 782 N 69.6428 -5.74198 0.853031 0
M  V30 783 H 72.4078 -1.93373 2.28969 0
M  V30 784 H 69.9688 -0.929216 1.32579 0
M  V30 785 H 71.9608 -3.96992 0.786085 0
M  V30 786 H 70.5308 -3.12262 0.145249 0
M  V30 787 H 69.7508 -2.94147 2.62434 0
M  V30 788 H 71.0388 -4.09173 3.02415 0
M  V30 789 H 70.4368 -5.6514 0.25155 0
M  V30 790 H 68.9938 -6.48313 0.67329 0
M  V30 791 N 72.4269 -1.23603 -0.977757 0
M  V30 792 C 73.8429 -0.999251 -1.24447 0
M  V30 793 C 74.0429 0.298053 -1.99283 0
M  V30 794 O 73.0989 1.01681 -2.31122 0
M  V30 795 C 74.4119 -2.20784 -2.04144 0
M  V30 796 C 75.9599 -2.25303 -2.17273 0
M  V30 797 C 76.4349 -3.45755 -3.00362 0
M  V30 798 N 77.9259 -3.4601 -3.07947 0
M  V30 799 C 78.6609 -4.35868 -3.72568 0
M  V30 800 N 78.1569 -5.35966 -4.38991 0
M  V30 801 N 79.9499 -4.23605 -3.6948 0
M  V30 802 H 72.1009 -2.06986 -0.476483 0
M  V30 803 H 74.3639 -0.907801 -0.273134 0
M  V30 804 H 74.0699 -3.14945 -1.56533 0
M  V30 805 H 73.9439 -2.22085 -3.04891 0
M  V30 806 H 76.3309 -1.3168 -2.64092 0
M  V30 807 H 76.4119 -2.28033 -1.15907 0
M  V30 808 H 76.0559 -4.39687 -2.5424 0
M  V30 809 H 75.9859 -3.40266 -4.01904 0
M  V30 810 H 78.4769 -2.73588 -2.60688 0
M  V30 811 H 78.7899 -6.00783 -4.86086 0
M  V30 812 H 77.1349 -5.39863 -4.37691 0
M  V30 813 H 80.3259 -3.44647 -3.16759 0
M  V30 814 H 80.4989 -4.93836 -4.1956 0
M  V30 815 N 73.905 1.17692 -1.04816 0
M  V30 816 C 75.182 1.83768 -0.669963 0
M  V30 817 C 75.562 1.93232 0.849986 0
M  V30 818 O 74.91 1.46397 1.75443 0
M  V30 819 C 75.12 3.21641 -1.35455 0
M  V30 820 C 76.468 3.97592 -1.49017 0
M  V30 821 O 77.492 3.31107 -1.31326 0
M  V30 822 O 76.351 5.16729 -1.77914 0
M  V30 823 H 73.445 0.792799 -0.235368 0
M  V30 824 H 75.991 1.25021 -1.14751 0
M  V30 825 H 74.763 3.097 -2.39168 0
M  V30 826 H 74.386 3.88052 -0.866107 0
M  V30 827 N 75.3831 0.828654 1.34056 0
M  V30 828 C 76.6111 0.43262 2.02326 0
M  V30 829 C 77.0261 -0.963147 1.62385 0
M  V30 830 O 76.3831 -1.62425 0.832121 0
M  V30 831 C 76.4341 0.53182 3.57567 0
M  V30 832 O 76.1551 1.87258 3.96063 0
M  V30 833 C 77.6561 0.131422 4.43105 0
M  V30 834 H 74.8761 0.172923 0.648335 0
M  V30 835 H 77.4201 1.1184 1.71208 0
M  V30 836 H 75.5751 -0.105938 3.87255 0
M  V30 837 H 75.9891 1.85087 4.90758 0
M  V30 838 H 77.4631 0.251904 5.51425 0
M  V30 839 H 77.9401 -0.925645 4.29335 0
M  V30 840 H 78.5461 0.743207 4.18756 0
M  V30 841 N 76.8612 -1.46375 0.584142 0
M  V30 842 C 77.8082 -2.30323 -0.148286 0
M  V30 843 C 78.7782 -1.40703 -0.882713 0
M  V30 844 O 79.9632 -1.69651 -0.873099 0
M  V30 845 C 77.1032 -3.25196 -1.15507 0
M  V30 846 C 76.2162 -4.29915 -0.423943 0
M  V30 847 C 75.3512 -5.11914 -1.41838 0
M  V30 848 C 74.3902 -6.08381 -0.673736 0
M  V30 849 N 73.5272 -6.83242 -1.6163 0
M  V30 850 H 78.3672 -2.92427 0.573644 0
M  V30 851 H 75.9042 -1.44118 0.294703 0
M  V30 852 H 77.8622 -3.78646 -1.75166 0
M  V30 853 H 76.4922 -2.64898 -1.8447 0
M  V30 854 H 75.5442 -3.7931 0.287714 0
M  V30 855 H 76.8562 -4.98549 0.158128 0
M  V30 856 H 76.0102 -5.69648 -2.08773 0
M  V30 857 H 74.7492 -4.43243 -2.03438 0
M  V30 858 H 73.7542 -5.49799 0.00938483 0
M  V30 859 H 74.9792 -6.79071 -0.0631082 0
M  V30 860 H 72.9252 -6.1728 -2.22038 0
M  V30 861 H 72.8422 -7.48144 -1.08707 0
M  V30 862 H 74.1102 -7.45534 -2.27596 0
M  V30 863 N 78.3393 -0.321999 -1.54275 0
M  V30 864 C 79.2873 0.560206 -2.25753 0
M  V30 865 C 80.2813 1.11984 -1.27106 0
M  V30 866 O 81.4873 1.06806 -1.44888 0
M  V30 867 H 77.8623 0.199304 -0.725108 0
M  V30 868 H 79.8333 -0.0649365 -2.98329 0
M  V30 869 C 78.5823 1.71023 -3.02731 0
M  V30 870 H 77.9053 1.28885 -3.78456 0
M  V30 871 H 79.3453 2.30314 -3.55993 0
M  V30 872 C 77.8043 2.62692 -2.10938 0
M  V30 873 O 78.3343 3.64364 -1.6912 0
M  V30 874 N 76.5403 2.30891 -1.76459 0
M  V30 875 H 76.0873 1.48253 -2.10663 0
M  V30 876 H 76.0453 2.92487 -1.1532 0
M  V30 877 N 79.8174 1.5752 -0.0501392 0
M  V30 878 C 80.7474 2.14502 0.922566 0
M  V30 879 C 81.7284 1.06642 1.3252 0
M  V30 880 O 82.9134 1.34577 1.4001 0
M  V30 881 C 80.0434 2.68916 2.19776 0
M  V30 882 C 78.9974 3.8175 1.93523 0
M  V30 883 C 78.3234 4.22677 3.27487 0
M  V30 884 C 79.6234 5.06932 1.25765 0
M  V30 885 H 81.3174 2.9603 0.447952 0
M  V30 886 H 78.8634 1.42401 0.214024 0
M  V30 887 H 80.8164 3.07419 2.88222 0
M  V30 888 H 79.5404 1.84578 2.69441 0
M  V30 889 H 78.1994 3.43718 1.27489 0
M  V30 890 H 77.8474 3.35291 3.74952 0
M  V30 891 H 77.5474 4.98725 3.1072 0
M  V30 892 H 79.0714 4.63779 3.97166 0
M  V30 893 H 80.4854 5.42888 1.84244 0
M  V30 894 H 78.8824 5.88116 1.19328 0
M  V30 895 H 79.9524 4.84337 0.233536 0
M  V30 896 N 81.2955 -0.223234 1.56011 0
M  V30 897 C 82.5415 -0.949279 1.79211 0
M  V30 898 C 82.8745 -1.84054 0.619494 0
M  V30 899 O 82.1495 -1.90726 -0.381317 0
M  V30 900 C 82.4325 -1.78965 3.12479 0
M  V30 901 C 82.2855 -0.924997 4.40186 0
M  V30 902 C 83.6045 -2.76774 3.42175 0
M  V30 903 H 80.7235 -0.343676 0.651963 0
M  V30 904 H 83.3655 -0.218253 1.88742 0
M  V30 905 H 81.5155 -2.41291 3.04485 0
M  V30 906 H 83.1875 -0.318615 4.60198 0
M  V30 907 H 81.4305 -0.230344 4.33188 0
M  V30 908 H 82.1015 -1.54735 5.29869 0
M  V30 909 H 84.5775 -2.24584 3.50287 0
M  V30 910 H 83.4535 -3.32678 4.36597 0
M  V30 911 H 83.7145 -3.54429 2.64258 0
M  V30 912 N 82.7736 -1.49793 -0.48987 0
M  V30 913 C 83.6836 -1.70036 -1.61632 0
M  V30 914 C 84.6996 -0.583102 -1.63939 0
M  V30 915 O 85.8756 -0.859169 -1.82154 0
M  V30 916 C 82.9406 -1.77277 -2.97949 0
M  V30 917 C 82.0016 -3.00918 -3.06181 0
M  V30 918 C 81.2346 -3.07804 -4.35996 0
M  V30 919 O 81.4576 -2.21982 -5.25433 0
M  V30 920 O 80.3916 -4.00369 -4.49431 0
M  V30 921 H 84.2176 -2.65486 -1.47482 0
M  V30 922 H 81.8026 -1.33666 -0.667362 0
M  V30 923 H 83.6846 -1.84329 -3.78947 0
M  V30 924 H 82.3596 -0.850076 -3.12339 0
M  V30 925 H 81.2666 -2.99377 -2.2433 0
M  V30 926 H 82.5996 -3.92704 -2.96723 0
M  V30 927 N 84.2517 0.741722 -1.39055 0
M  V30 928 C 85.1997 1.87702 -1.3737 0
M  V30 929 C 86.1937 1.67427 -0.257812 0
M  V30 930 O 87.3997 1.7485 -0.427489 0
M  V30 931 H 83.7747 0.617757 -0.428812 0
M  V30 932 H 85.7457 1.86239 -2.33147 0
M  V30 933 C 84.4947 3.25315 -1.22741 0
M  V30 934 H 83.8177 3.41509 -2.07873 0
M  V30 935 H 85.2577 4.04964 -1.25618 0
M  V30 936 C 83.7167 3.36838 0.0647316 0
M  V30 937 O 84.2467 3.88073 1.03741 0
M  V30 938 N 82.4527 2.90329 0.125544 0
M  V30 939 H 81.9997 2.48823 -0.666682 0
M  V30 940 H 81.9577 2.98418 0.989639 0
M  V30 941 N 85.7298 1.2412 0.971189 0
M  V30 942 C 86.9778 1.07668 1.71032 0
M  V30 943 C 87.2988 -0.385797 1.91146 0
M  V30 944 O 86.5688 -1.27569 1.4867 0
M  V30 945 H 85.1488 0.395429 0.633755 0
M  V30 946 H 87.8108 1.55984 1.16855 0
M  V30 947 H 86.9068 1.57195 2.69622 0
M  V30 948 N 87.2079 -1.17134 1.05439 0
M  V30 949 C 88.4849 -1.83411 0.679699 0
M  V30 950 C 88.8649 -1.9368 -0.839726 0
M  V30 951 O 88.2129 -1.47325 -1.74664 0
M  V30 952 C 88.4229 -3.20918 1.37159 0
M  V30 953 C 89.7709 -3.96796 1.51123 0
M  V30 954 O 90.7949 -3.30406 1.3308 0
M  V30 955 O 89.6539 -5.15778 1.80651 0
M  V30 956 H 86.7479 -0.79154 0.239569 0
M  V30 957 H 89.2939 -1.24411 1.15413 0
M  V30 958 H 88.0659 -3.08428 2.40807 0
M  V30 959 H 87.6889 -3.87587 0.886674 0
M  V30 960 N 88.686 -0.835752 -1.33615 0
M  V30 961 C 89.933 -0.429959 -1.97883 0
M  V30 962 C 90.261 1.01006 -1.66217 0
M  V30 963 O 89.516 1.72047 -0.93265 0
M  V30 964 C 89.815 -0.593925 -3.52431 0
M  V30 965 C 89.481 -2.00158 -4.04039 0
M  V30 966 C 88.143 -2.38662 -4.17844 0
M  V30 967 C 90.495 -2.92117 -4.31644 0
M  V30 968 C 87.823 -3.68435 -4.56588 0
M  V30 969 C 90.175 -4.21368 -4.71838 0
M  V30 970 C 88.839 -4.59833 -4.83849 0
M  V30 971 H 88.109 -0.157333 -0.724104 0
M  V30 972 H 90.756 -1.06217 -1.59343 0
M  V30 973 H 89.061 0.121619 -3.91611 0
M  V30 974 H 90.758 -0.260282 -4.00154 0
M  V30 975 H 87.348 -1.69252 -3.93766 0
M  V30 976 H 91.532 -2.63608 -4.20505 0
M  V30 977 H 86.788 -3.98046 -4.64079 0
M  V30 978 H 90.962 -4.92703 -4.92155 0
M  V30 979 H 88.589 -5.60438 -5.13627 0
M  V30 980 N 90.1641 1.46063 -0.591896 0
M  V30 981 C 91.4121 2.01938 -0.0808391 0
M  V30 982 C 91.7331 1.46475 1.28725 0
M  V30 983 O 91.0031 0.652944 1.84698 0
M  V30 984 H 89.5831 0.746516 -0.0268938 0
M  V30 985 H 92.2451 1.79055 -0.769752 0
M  V30 986 H 91.3411 3.12094 -0.0187578 0
M  V30 987 N 91.6422 0.330177 1.54103 0
M  V30 988 C 92.5742 -0.566902 2.22079 0
M  V30 989 C 93.5872 -1.07462 1.22294 0
M  V30 990 O 94.7762 -0.987065 1.48726 0
M  V30 991 C 91.8762 -1.79138 2.87685 0
M  V30 992 C 91.0492 -1.42123 4.13666 0
M  V30 993 C 90.1082 -2.50394 4.62806 0
M  V30 994 O 89.1342 -2.14261 5.27334 0
M  V30 995 N 90.3362 -3.81433 4.37595 0
M  V30 996 H 93.1012 0.0151844 2.99696 0
M  V30 997 H 90.6622 0.153681 1.61169 0
M  V30 998 H 92.6542 -2.50975 3.1748 0
M  V30 999 H 91.2242 -2.28115 2.13734 0
M  V30 1000 H 90.4442 -0.534201 3.90564 0
M  V30 1001 H 91.7322 -1.14971 4.9564 0
M  V30 1002 H 91.1302 -4.13584 3.8596 0
M  V30 1003 H 89.6872 -4.4948 4.72029 0
M  V30 1004 N 93.1203 -1.57491 0.0584922 0
M  V30 1005 C 94.3483 -1.97296 -0.623037 0
M  V30 1006 C 94.7633 -0.936338 -1.63946 0
M  V30 1007 O 94.1203 0.0785981 -1.82331 0
M  V30 1008 C 94.1713 -3.37183 -1.30345 0
M  V30 1009 O 93.8923 -4.36872 -0.32773 0
M  V30 1010 C 95.3933 -3.91788 -2.07406 0
M  V30 1011 H 92.6133 -0.649153 -0.169826 0
M  V30 1012 H 95.1573 -2.04106 0.12696 0
M  V30 1013 H 93.3123 -3.31502 -2.00463 0
M  V30 1014 H 93.7263 -5.18141 -0.814269 0
M  V30 1015 H 95.2003 -4.91926 -2.50425 0
M  V30 1016 H 95.6773 -3.27609 -2.92521 0
M  V30 1017 H 96.2833 -4.00829 -1.42184 0
M  V30 1018 N 94.5984 0.214957 -1.56127 0
M  V30 1019 C 95.5084 1.28727 -1.96129 0
M  V30 1020 C 96.5244 1.50916 -0.866044 0
M  V30 1021 O 97.7004 1.63918 -1.17016 0
M  V30 1022 C 94.7654 2.61569 -2.27558 0
M  V30 1023 C 93.8264 2.47625 -3.50685 0
M  V30 1024 C 93.0594 3.74132 -3.80606 0
M  V30 1025 O 93.2824 4.77438 -3.12104 0
M  V30 1026 O 92.2164 3.70849 -4.74083 0
M  V30 1027 H 96.0424 0.977855 -2.87527 0
M  V30 1028 H 93.6274 0.418358 -1.43423 0
M  V30 1029 H 95.5094 3.40012 -2.48938 0
M  V30 1030 H 94.1844 2.92178 -1.39332 0
M  V30 1031 H 93.0914 1.67361 -3.34576 0
M  V30 1032 H 94.4244 2.21954 -4.39315 0
M  V30 1033 N 96.0765 1.50051 0.48192 0
M  V30 1034 C 97.3535 1.51009 1.2432 0
M  V30 1035 C 97.7335 0.248587 2.09631 0
M  V30 1036 O 97.0815 -0.768409 2.15192 0
M  V30 1037 C 97.2915 2.79981 2.08355 0
M  V30 1038 C 98.6395 3.3022 2.66908 0
M  V30 1039 O 99.6635 2.81228 2.18607 0
M  V30 1040 O 98.5225 4.15595 3.54884 0
M  V30 1041 H 95.6165 0.605239 0.563573 0
M  V30 1042 H 98.1625 1.62332 0.494627 0
M  V30 1043 H 96.9345 3.63275 1.45419 0
M  V30 1044 H 96.5575 2.7161 2.90368 0
M  V30 1045 N 97.5546 -0.734337 1.39446 0
M  V30 1046 C 98.8026 -1.49096 1.36436 0
M  V30 1047 C 99.1236 -1.94961 -0.0388255 0
M  V30 1048 O 98.3936 -1.69033 -0.990191 0
M  V30 1049 H 96.9736 -0.5531 0.502085 0
M  V30 1050 H 99.6356 -0.871725 1.74319 0
M  V30 1051 H 98.7316 -2.37276 2.02747 0
M  V30 1052 N 99.0327 -1.24633 -0.964593 0
M  V30 1053 C 100.258 -1.11596 -1.74818 0
M  V30 1054 C 100.683 0.32723 -1.85232 0
M  V30 1055 O 100.041 1.23695 -1.32549 0
M  V30 1056 C 100.089 -1.76397 -3.1451 0
M  V30 1057 O 99.1927 -1.03685 -3.99153 0
M  V30 1058 H 98.5337 -0.390196 -0.537255 0
M  V30 1059 H 101.064 -1.65002 -1.20977 0
M  V30 1060 H 101.074 -1.8228 -3.65018 0
M  V30 1061 H 99.7487 -2.81401 -3.06246 0
M  V30 1062 H 98.3257 -1.05611 -3.57632 0
M  V30 1063 N 100.511 1.16574 -1.06058 0
M  V30 1064 C 101.736 1.91493 -0.796562 0
M  V30 1065 C 102.161 1.76773 0.642868 0
M  V30 1066 O 101.519 1.09142 1.44768 0
M  V30 1067 C 101.567 3.40293 -1.19303 0
M  V30 1068 O 100.671 4.11074 -0.330394 0
M  V30 1069 H 100.012 0.596678 -0.291326 0
M  V30 1070 H 102.542 1.47708 -1.41575 0
M  V30 1071 H 102.552 3.91057 -1.16356 0
M  V30 1072 H 101.227 3.50326 -2.24153 0
M  V30 1073 H 99.8038 3.70513 -0.421225 0
M  V30 1074 N 101.989 0.842826 1.3317 0
M  V30 1075 C 103.4 0.496651 1.79973 0
M  V30 1076 C 103.751 -0.984641 1.69703 0
M  V30 1077 O 102.876 -1.76743 1.24863 0
M  V30 1078 C 103.471 0.894727 3.26772 0
M  V30 1079 C 102.03 0.600629 3.71577 0
M  V30 1080 C 101.177 1.10091 2.5451 0
M  V30 1081 H 104.128 1.03116 1.20635 0
M  V30 1082 H 104.149 0.206347 3.7994 0
M  V30 1083 H 103.661 1.97287 3.34215 0
M  V30 1084 H 101.762 -0.467284 3.69658 0
M  V30 1085 H 101.875 1.15863 4.64879 0
M  V30 1086 H 100.239 0.52162 2.49301 0
M  V30 1087 H 101.022 2.18591 2.64713 0
M  V30 1088 N 103.467 -1.45747 0.599634 0
M  V30 1089 C 104.713 -2.03153 0.100263 0
M  V30 1090 C 105.068 -1.46073 -1.25221 0
M  V30 1091 O 104.361 -0.622878 -1.81193 0
M  V30 1092 C 104.555 -3.57399 -0.00602758 0
M  V30 1093 C 104.384 -4.2944 1.3346 0
M  V30 1094 C 103.154 -4.6768 1.91321 0
M  V30 1095 C 105.352 -4.61905 2.2616 0
M  V30 1096 N 103.334 -5.24544 3.18946 0
M  V30 1097 C 104.705 -5.19518 3.3838 0
M  V30 1098 C 106.76 -4.43841 2.25631 0
M  V30 1099 C 105.463 -5.60972 4.50226 0
M  V30 1100 C 107.489 -4.86322 3.36518 0
M  V30 1101 C 106.851 -5.44021 4.4746 0
M  V30 1102 H 102.95 -0.777911 0.0798696 0
M  V30 1103 H 105.534 -1.77674 0.796244 0
M  V30 1104 H 103.705 -3.82556 -0.671212 0
M  V30 1105 H 105.437 -4.01457 -0.51133 0
M  V30 1106 H 102.192 -4.5098 1.44617 0
M  V30 1107 H 102.616 -5.57483 3.84112 0
M  V30 1108 H 107.258 -3.98552 1.41123 0
M  V30 1109 H 104.976 -6.0523 5.35464 0
M  V30 1110 H 108.562 -4.74084 3.37247 0
M  V30 1111 H 107.442 -5.76289 5.31846 0
M  V30 1112 N 104.945 -0.338344 -1.53925 0
M  V30 1113 C 106.173 0.261298 -2.05243 0
M  V30 1114 C 106.588 1.44625 -1.21363 0
M  V30 1115 O 105.945 1.80811 -0.247736 0
M  V30 1116 C 105.996 0.681412 -3.5502 0
M  V30 1117 O 105.717 -0.456414 -4.35716 0
M  V30 1118 C 107.218 1.34232 -4.22489 0
M  V30 1119 H 104.438 0.0513685 -0.669031 0
M  V30 1120 H 106.982 -0.488822 -1.98572 0
M  V30 1121 H 105.137 1.38148 -3.61931 0
M  V30 1122 H 105.551 -0.122564 -5.24357 0
M  V30 1123 H 107.025 1.58708 -5.28693 0
M  V30 1124 H 107.502 2.29426 -3.74514 0
M  V30 1125 H 108.108 0.684424 -4.19757 0
M  V30 1126 N 106.423 1.57458 -0.0668435 0
M  V30 1127 C 107.671 1.92919 0.602214 0
M  V30 1128 C 107.992 0.947215 1.70449 0
M  V30 1129 O 107.262 -0.00544117 1.95899 0
M  V30 1130 H 105.842 0.71217 0.22544 0
M  V30 1131 H 108.504 1.94508 -0.123535 0
M  V30 1132 H 107.6 2.94589 1.03073 0
M  V30 1133 N 107.901 -0.206675 1.56239 0
M  V30 1134 C 109.126 -0.949474 1.8439 0
M  V30 1135 C 109.551 -1.76549 0.649016 0
M  V30 1136 O 108.909 -1.76782 -0.402231 0
M  V30 1137 C 108.957 -1.83078 3.10668 0
M  V30 1138 O 108.061 -2.9281 2.90407 0
M  V30 1139 H 107.402 -0.268033 0.607499 0
M  V30 1140 H 109.932 -0.215488 2.03462 0
M  V30 1141 H 109.942 -2.2377 3.41161 0
M  V30 1142 H 108.617 -1.23112 3.97261 0
M  V30 1143 H 107.194 -2.55956 2.71184 0
M  V30 1144 N 109.379 -1.50304 -0.473955 0
M  V30 1145 C 110.326 -1.68959 -1.57231 0
M  V30 1146 C 111.296 -0.530899 -1.57387 0
M  V30 1147 O 112.481 -0.761133 -1.74961 0
M  V30 1148 C 109.621 -1.7871 -2.95223 0
M  V30 1149 C 108.734 -3.06061 -3.04878 0
M  V30 1150 C 107.869 -3.06626 -4.33767 0
M  V30 1151 C 106.908 -4.28443 -4.37154 0
M  V30 1152 N 106.045 -4.26763 -5.5751 0
M  V30 1153 H 110.885 -2.6273 -1.40631 0
M  V30 1154 H 108.422 -1.30241 -0.683789 0
M  V30 1155 H 110.38 -1.82344 -3.75242 0
M  V30 1156 H 109.01 -0.883806 -3.10465 0
M  V30 1157 H 108.062 -3.11911 -2.17751 0
M  V30 1158 H 109.374 -3.96039 -3.0324 0
M  V30 1159 H 108.528 -3.08973 -5.22131 0
M  V30 1160 H 107.267 -2.14473 -4.3801 0
M  V30 1161 H 106.272 -4.2631 -3.47188 0
M  V30 1162 H 107.497 -5.2182 -4.34605 0
M  V30 1163 H 105.443 -3.37462 -5.62544 0
M  V30 1164 H 105.36 -5.10507 -5.57601 0
M  V30 1165 H 106.628 -4.33253 -6.48006 0
M  V30 1166 N 110.857 0.726932 -1.39834 0
M  V30 1167 C 111.82 1.82269 -1.38962 0
M  V30 1168 C 112.82 1.58248 -0.285334 0
M  V30 1169 O 114.01 1.65499 -0.54366 0
M  V30 1170 C 111.142 3.20186 -1.17019 0
M  V30 1171 H 112.335 1.84443 -2.36476 0
M  V30 1172 H 109.888 0.931416 -1.25516 0
M  V30 1173 H 110.623 3.23669 -0.202204 0
M  V30 1174 H 110.408 3.3902 -1.96998 0
M  V30 1175 H 111.898 4.00235 -1.1917 0
M  V30 1176 N 112.336 1.25143 0.95797 0
M  V30 1177 C 113.268 1.01023 2.05735 0
M  V30 1178 C 114.281 -0.0236902 1.62783 0
M  V30 1179 O 115.47 0.21448 1.77207 0
M  V30 1180 C 112.57 0.504595 3.35122 0
M  V30 1181 C 111.743 1.6039 4.06932 0
M  V30 1182 C 110.802 1.09922 5.14591 0
M  V30 1183 O 109.828 1.79293 5.40225 0
M  V30 1184 N 111.03 -0.0612545 5.80468 0
M  V30 1185 H 113.795 1.95683 2.26998 0
M  V30 1186 H 111.356 1.16303 1.12629 0
M  V30 1187 H 113.348 0.151516 4.04416 0
M  V30 1188 H 111.918 -0.347989 3.10657 0
M  V30 1189 H 111.138 2.12872 3.31782 0
M  V30 1190 H 112.426 2.34252 4.51667 0
M  V30 1191 H 111.824 -0.640985 5.62057 0
M  V30 1192 H 110.381 -0.355395 6.5083 0
M  V30 1193 N 113.814 -1.1601 1.06675 0
M  V30 1194 C 115.062 -1.86264 0.784229 0
M  V30 1195 C 115.383 -1.82328 -0.691488 0
M  V30 1196 O 114.653 -1.25947 -1.50047 0
M  V30 1197 H 113.233 -0.689621 0.28711 0
M  V30 1198 H 115.895 -1.40664 1.34906 0
M  V30 1199 H 114.991 -2.91595 1.11259 0
M  V30 1200 N 115.292 -0.849877 -1.32721 0
M  V30 1201 C 116.538 -0.460855 -1.9811 0
M  V30 1202 C 116.893 0.971716 -1.66059 0
M  V30 1203 O 116.186 1.67184 -0.935944 0
M  V30 1204 C 116.38 -0.631272 -3.51781 0
M  V30 1205 C 116.209 -2.07886 -3.98765 0
M  V30 1206 C 114.979 -2.71637 -4.26077 0
M  V30 1207 C 117.177 -3.04889 -4.14182 0
M  V30 1208 N 115.159 -4.07356 -4.59276 0
M  V30 1209 C 116.53 -4.25583 -4.50865 0
M  V30 1210 C 118.585 -3.01148 -3.96503 0
M  V30 1211 C 117.288 -5.43027 -4.71714 0
M  V30 1212 C 119.314 -4.17832 -4.18533 0
M  V30 1213 C 118.676 -5.37284 -4.55528 0
M  V30 1214 H 114.775 -0.217283 -0.751207 0
M  V30 1215 H 117.359 -1.10026 -1.60631 0
M  V30 1216 H 115.53 -0.0215966 -3.88394 0
M  V30 1217 H 117.262 -0.212614 -4.04141 0
M  V30 1218 H 114.017 -2.22705 -4.17971 0
M  V30 1219 H 114.441 -4.77351 -4.80068 0
M  V30 1220 H 119.083 -2.0992 -3.67006 0
M  V30 1221 H 116.801 -6.34791 -5.00066 0
M  V30 1222 H 120.387 -4.16368 -4.06361 0
M  V30 1223 H 119.267 -6.26071 -4.72234 0
M  V30 1224 N 116.77 1.45427 -0.607355 0
M  V30 1225 C 117.995 2.07124 -0.107006 0
M  V30 1226 C 118.42 1.44906 1.19933 0
M  V30 1227 O 117.778 0.541687 1.73019 0
M  V30 1228 C 117.826 3.60595 0.0194119 0
M  V30 1229 O 116.93 3.98285 1.0697 0
M  V30 1230 H 116.271 0.659868 -0.0739597 0
M  V30 1231 H 118.801 1.86683 -0.837297 0
M  V30 1232 H 118.811 4.07419 0.2177 0
M  V30 1233 H 117.486 4.05266 -0.934453 0
M  V30 1234 H 116.063 3.63133 0.847889 0
M  V30 1235 N 118.248 0.346503 1.53744 0
M  V30 1236 C 119.211 -0.496439 2.23759 0
M  V30 1237 C 120.211 -1.0252 1.2388 0
M  V30 1238 O 121.401 -0.913974 1.48297 0
M  V30 1239 C 118.533 -1.69187 2.95954 0
M  V30 1240 H 119.726 0.115952 2.99676 0
M  V30 1241 H 117.279 0.0978939 1.55993 0
M  V30 1242 H 118.014 -2.34288 2.24231 0
M  V30 1243 H 117.799 -1.31989 3.69217 0
M  V30 1244 H 119.289 -2.28969 3.49232 0
M  V30 1245 N 119.726 -1.57421 0.075193 0
M  V30 1246 C 120.972 -1.94716 -0.587998 0
M  V30 1247 C 121.327 -0.955205 -1.67014 0
M  V30 1248 O 120.62 0.0219842 -1.91587 0
M  V30 1249 C 120.814 -3.36428 -1.20626 0
M  V30 1250 C 120.643 -4.49317 -0.185541 0
M  V30 1251 C 119.413 -5.04772 0.23099 0
M  V30 1252 C 121.611 -5.11036 0.57854 0
M  V30 1253 N 119.593 -6.01204 1.24206 0
M  V30 1254 C 120.964 -6.02998 1.44199 0
M  V30 1255 C 123.019 -4.93844 0.634237 0
M  V30 1256 C 121.722 -6.79614 2.3562 0
M  V30 1257 C 123.748 -5.71106 1.53597 0
M  V30 1258 C 123.11 -6.6272 2.38709 0
M  V30 1259 H 119.209 -0.759536 -0.186089 0
M  V30 1260 H 121.793 -1.94097 0.153128 0
M  V30 1261 H 119.964 -3.37778 -1.9173 0
M  V30 1262 H 121.696 -3.60951 -1.8302 0
M  V30 1263 H 118.451 -4.73353 -0.152807 0
M  V30 1264 H 118.875 -6.54119 1.74521 0
M  V30 1265 H 123.517 -4.22799 -0.00960004 0
M  V30 1266 H 121.235 -7.49934 3.01038 0
M  V30 1267 H 124.821 -5.59824 1.58394 0
M  V30 1268 H 123.701 -7.2146 3.07352 0
M  V30 1269 N 121.204 0.198386 -1.56346 0
M  V30 1270 C 122.45 0.920648 -1.80698 0
M  V30 1271 C 122.783 1.83045 -0.648697 0
M  V30 1272 O 122.058 1.91308 0.350925 0
M  V30 1273 C 122.341 1.73971 -3.15287 0
M  V30 1274 C 122.194 0.85485 -4.41602 0
M  V30 1275 C 123.513 2.71296 -3.46535 0
M  V30 1276 H 120.632 0.333261 -0.657348 0
M  V30 1277 H 123.274 0.188198 -1.89066 0
M  V30 1278 H 121.424 2.36416 -3.08285 0
M  V30 1279 H 123.096 0.245362 -4.60647 0
M  V30 1280 H 121.339 0.161398 -4.335 0
M  V30 1281 H 122.01 1.46286 -5.32264 0
M  V30 1282 H 124.486 2.18983 -3.53816 0
M  V30 1283 H 123.362 3.2569 -4.41834 0
M  V30 1284 H 123.623 3.5018 -2.69864 0
M  V30 1285 N 122.682 1.50554 0.465978 0
M  V30 1286 C 123.959 1.5232 1.22712 0
M  V30 1287 C 124.339 0.270807 2.09356 0
M  V30 1288 O 123.687 -0.745541 2.15995 0
M  V30 1289 C 123.897 2.82175 2.05374 0
M  V30 1290 C 125.245 3.33033 2.6339 0
M  V30 1291 O 126.269 2.83531 2.15612 0
M  V30 1292 O 125.128 4.19336 3.50456 0
M  V30 1293 H 122.222 0.611183 0.557122 0
M  V30 1294 H 124.768 1.62847 0.477381 0
M  V30 1295 H 123.54 3.64797 1.41558 0
M  V30 1296 H 123.163 2.74675 2.87471 0
M  V30 1297 N 124.16 -0.719506 1.40217 0
M  V30 1298 C 125.092 -1.84428 1.36084 0
M  V30 1299 C 126.105 -1.60597 0.266913 0
M  V30 1300 O 127.294 -1.70544 0.526983 0
M  V30 1301 C 124.394 -3.20757 1.094 0
M  V30 1302 C 123.567 -3.71817 2.30372 0
M  V30 1303 C 122.626 -4.86748 1.99907 0
M  V30 1304 O 121.652 -4.99603 2.72737 0
M  V30 1305 N 122.854 -5.7226 0.974635 0
M  V30 1306 H 125.619 -1.88473 2.33019 0
M  V30 1307 H 123.18 -0.900885 1.3452 0
M  V30 1308 H 125.172 -3.95235 0.870116 0
M  V30 1309 H 123.742 -3.11884 0.211452 0
M  V30 1310 H 122.962 -2.88514 2.68614 0
M  V30 1311 H 124.25 -4.02666 3.11026 0
M  V30 1312 H 123.648 -5.6448 0.371368 0
M  V30 1313 H 122.205 -6.46739 0.810656 0
M  V30 1314 N 125.638 -1.25649 -0.95132 0
M  V30 1315 C 126.585 -1.06323 -2.04851 0
M  V30 1316 C 127.555 0.0286491 -1.66075 0
M  V30 1317 O 128.74 -0.12917 -1.90362 0
M  V30 1318 C 125.88 -0.691529 -3.381 0
M  V30 1319 C 124.993 -1.85861 -3.89974 0
M  V30 1320 C 124.128 -1.43096 -5.11563 0
M  V30 1321 C 123.167 -2.56696 -5.55674 0
M  V30 1322 N 122.304 -2.14684 -6.68472 0
M  V30 1323 H 127.144 -2.00222 -2.20715 0
M  V30 1324 H 124.681 -0.997027 -1.08156 0
M  V30 1325 H 126.639 -0.456963 -4.1469 0
M  V30 1326 H 125.269 0.210474 -3.22113 0
M  V30 1327 H 124.321 -2.20639 -3.09875 0
M  V30 1328 H 125.633 -2.71161 -4.18657 0
M  V30 1329 H 124.787 -1.15624 -5.9558 0
M  V30 1330 H 123.526 -0.548722 -4.84603 0
M  V30 1331 H 122.531 -2.84909 -4.7022 0
M  V30 1332 H 123.756 -3.45503 -5.8464 0
M  V30 1333 H 121.702 -1.28881 -6.43215 0
M  V30 1334 H 121.619 -2.9353 -6.96689 0
M  V30 1335 H 122.887 -1.90397 -7.5589 0
M  V30 1336 N 127.117 1.15442 -1.07289 0
M  V30 1337 C 128.065 2.22225 -0.686952 0
M  V30 1338 C 129.059 1.66688 0.30193 0
M  V30 1339 O 130.265 1.79236 0.165712 0
M  V30 1340 H 126.64 0.723783 -0.204064 0
M  V30 1341 H 128.611 2.52056 -1.5972 0
M  V30 1342 C 127.36 3.47556 -0.100149 0
M  V30 1343 H 126.683 3.90612 -0.852211 0
M  V30 1344 H 128.123 4.23794 0.132235 0
M  V30 1345 C 126.582 3.16337 1.159 0
M  V30 1346 O 127.112 3.33074 2.24555 0
M  V30 1347 N 125.318 2.70385 1.06491 0
M  V30 1348 H 124.865 2.56966 0.180668 0
M  V30 1349 H 124.823 2.49871 1.90819 0
M  V30 1350 N 128.595 0.856903 1.32268 0
M  V30 1351 C 129.82 0.474569 2.01897 0
M  V30 1352 C 130.245 -0.921766 1.63967 0
M  V30 1353 O 129.603 -1.60589 0.84148 0
M  V30 1354 C 129.651 0.623799 3.55164 0
M  V30 1355 O 128.755 -0.342459 4.10976 0
M  V30 1356 H 128.096 0.190422 0.63611 0
M  V30 1357 H 130.626 1.15672 1.68764 0
M  V30 1358 H 130.636 0.512169 4.04773 0
M  V30 1359 H 129.311 1.64202 3.82113 0
M  V30 1360 H 127.888 -0.18688 3.72431 0
M  V30 1361 N 130.073 -1.45103 0.615059 0
M  V30 1362 C 131.036 -2.29025 -0.0895485 0
M  V30 1363 C 132.036 -1.40174 -0.787906 0
M  V30 1364 O 133.226 -1.62217 -0.634933 0
M  V30 1365 C 130.358 -3.21376 -1.13711 0
M  V30 1366 H 131.551 -2.92807 0.648382 0
M  V30 1367 H 129.104 -1.51749 0.374444 0
M  V30 1368 H 129.839 -2.6241 -1.90556 0
M  V30 1369 H 129.624 -3.86834 -0.640475 0
M  V30 1370 H 131.114 -3.84459 -1.63036 0
M  V30 1371 N 131.551 -0.354651 -1.53558 0
M  V30 1372 C 132.828 0.294281 -1.93374 0
M  V30 1373 C 133.208 1.67313 -1.28723 0
M  V30 1374 O 132.556 2.24179 -0.442247 0
M  V30 1375 C 132.766 0.355445 -3.47185 0
M  V30 1376 C 134.114 0.601007 -4.20325 0
M  V30 1377 O 135.138 0.437106 -3.53508 0
M  V30 1378 O 133.997 0.919322 -5.38712 0
M  V30 1379 H 131.091 0.174033 -0.808481 0
M  V30 1380 H 133.637 -0.406638 -1.64756 0
M  V30 1381 H 132.409 -0.611729 -3.86489 0
M  V30 1382 H 132.032 1.1027 -3.82003 0
M  V30 1383 N 133.029 1.57378 -0.0835403 0
M  V30 1384 C 133.992 2.12252 0.864959 0
M  V30 1385 C 134.992 1.04916 1.21858 0
M  V30 1386 O 136.182 1.30853 1.14991 0
M  V30 1387 C 133.314 2.63358 2.16461 0
M  V30 1388 H 134.507 2.97371 0.388676 0
M  V30 1389 H 132.06 1.55423 0.165317 0
M  V30 1390 H 132.795 1.81727 2.686 0
M  V30 1391 H 132.58 3.41826 1.92087 0
M  V30 1392 H 134.07 3.05847 2.84337 0
M  V30 1393 N 134.507 -0.190092 1.56449 0
M  V30 1394 C 135.732 -0.929864 1.85387 0
M  V30 1395 C 136.157 -1.7585 0.667704 0
M  V30 1396 O 135.515 -1.77198 -0.383459 0
M  V30 1397 C 135.563 -1.79773 3.12593 0
M  V30 1398 O 134.667 -2.89713 2.93496 0
M  V30 1399 H 134.008 -0.261574 0.610307 0
M  V30 1400 H 136.538 -0.193896 2.03679 0
M  V30 1401 H 136.548 -2.20139 3.43515 0
M  V30 1402 H 135.223 -1.18892 3.98544 0
M  V30 1403 H 133.8 -2.53065 2.73884 0
M  V30 1404 N 135.985 -1.50799 -0.457987 0
M  V30 1405 C 137.213 -1.66218 -1.23203 0
M  V30 1406 C 137.628 -0.350894 -1.85511 0
M  V30 1407 O 136.985 0.668546 -1.69814 0
M  V30 1408 C 137.036 -2.76291 -2.33121 0
M  V30 1409 O 136.757 -4.02338 -1.73366 0
M  V30 1410 C 138.258 -3.028 -3.2377 0
M  V30 1411 H 135.478 -0.558361 -0.372121 0
M  V30 1412 H 138.022 -1.97099 -0.545179 0
M  V30 1413 H 136.177 -2.48068 -2.97558 0
M  V30 1414 H 136.591 -4.63312 -2.4585 0
M  V30 1415 H 138.065 -3.8345 -3.97077 0
M  V30 1416 H 138.542 -2.14385 -3.83322 0
M  V30 1417 H 139.148 -3.32604 -2.65056 0
M  V30 1418 N 137.463 0.71206 -1.40597 0
M  V30 1419 C 138.879 1.02058 -1.22704 0
M  V30 1420 C 139.079 2.01228 -0.104729 0
M  V30 1421 O 138.135 2.4674 0.53624 0
M  V30 1422 C 139.448 1.56094 -2.57012 0
M  V30 1423 C 140.996 1.6806 -2.64054 0
M  V30 1424 C 141.471 2.25501 -3.9864 0
M  V30 1425 N 142.962 2.32882 -4.004 0
M  V30 1426 C 143.697 2.78317 -5.01325 0
M  V30 1427 N 143.193 3.23478 -6.12645 0
M  V30 1428 N 144.986 2.77733 -4.88693 0
M  V30 1429 H 137.137 0.0547896 -2.12329 0
M  V30 1430 H 139.4 0.0869027 -0.944008 0
M  V30 1431 H 139.106 0.906865 -3.39807 0
M  V30 1432 H 138.98 2.54564 -2.78347 0
M  V30 1433 H 141.367 2.32583 -1.81629 0
M  V30 1434 H 141.448 0.681802 -2.46546 0
M  V30 1435 H 141.092 1.61598 -4.81506 0
M  V30 1436 H 141.022 3.26102 -4.13479 0
M  V30 1437 H 143.513 2.00991 -3.20017 0
M  V30 1438 H 143.826 3.56725 -6.85542 0
M  V30 1439 H 142.171 3.21429 -6.16205 0
M  V30 1440 H 145.362 2.4179 -4.00818 0
M  V30 1441 H 145.535 3.12826 -5.67489 0
M  V30 1442 N 138.941 1.26152 0.944643 0
M  V30 1443 C 140.187 1.11657 1.69294 0
M  V30 1444 C 140.52 -0.339926 1.91202 0
M  V30 1445 O 139.795 -1.24994 1.49019 0
M  V30 1446 C 140.078 1.88236 3.06984 0
M  V30 1447 C 139.931 3.41772 2.92424 0
M  V30 1448 C 141.25 1.67343 4.07043 0
M  V30 1449 H 138.369 0.407004 0.614424 0
M  V30 1450 H 141.011 1.55106 1.09737 0
M  V30 1451 H 139.161 1.51308 3.57824 0
M  V30 1452 H 140.833 3.88433 2.48832 0
M  V30 1453 H 139.076 3.68974 2.28124 0
M  V30 1454 H 139.747 3.90579 3.90067 0
M  V30 1455 H 142.223 1.99509 3.65151 0
M  V30 1456 H 141.099 2.23346 5.01406 0
M  V30 1457 H 141.36 0.617158 4.37771 0
M  V30 1458 N 140.419 -1.14872 1.07899 0
M  V30 1459 C 141.668 -1.85135 0.800499 0
M  V30 1460 C 141.981 -1.83547 -0.676014 0
M  V30 1461 O 143.187 -2.49548 -1.06948 0
M  V30 1462 C 141.643 -3.3231 1.38197 0
M  V30 1463 C 141.251 -3.42329 2.8899 0
M  V30 1464 C 142.995 -4.0772 1.18174 0
M  V30 1465 C 140.902 -4.83684 3.403 0
M  V30 1466 H 139.832 -0.693563 0.29578 0
M  V30 1467 H 142.483 -1.29532 1.29976 0
M  V30 1468 H 140.865 -3.87618 0.810431 0
M  V30 1469 H 142.039 -2.97097 3.52236 0
M  V30 1470 H 140.354 -2.80369 3.07867 0
M  V30 1471 H 142.951 -5.12049 1.5398 0
M  V30 1472 H 143.294 -4.16124 0.12117 0
M  V30 1473 H 143.827 -3.58696 1.71994 0
M  V30 1474 H 140.566 -4.80465 4.45907 0
M  V30 1475 H 140.086 -5.29474 2.81811 0
M  V30 1476 H 141.765 -5.52558 3.36584 0
M  V30 1477 N 141.898 -0.863906 -1.31812 0
M  V30 1478 C 142.808 -0.318461 -2.32428 0
M  V30 1479 C 143.824 0.568496 -1.64451 0
M  V30 1480 O 145 0.46666 -1.95919 0
M  V30 1481 C 142.065 0.476355 -3.43412 0
M  V30 1482 C 141.126 -0.43784 -4.27061 0
M  V30 1483 C 140.359 0.319138 -5.32745 0
M  V30 1484 O 140.582 1.54799 -5.48993 0
M  V30 1485 O 139.516 -0.319861 -6.01049 0
M  V30 1486 H 143.342 -1.15229 -2.80991 0
M  V30 1487 H 140.927 -0.627103 -1.35602 0
M  V30 1488 H 142.809 0.927156 -4.11074 0
M  V30 1489 H 141.484 1.28683 -2.97022 0
M  V30 1490 H 140.391 -0.937013 -3.62175 0
M  V30 1491 H 141.724 -1.21375 -4.77 0
M  V30 1492 N 143.376 1.44774 -0.622745 0
M  V30 1493 C 144.339 2.29069 0.0774015 0
M  V30 1494 C 145.339 1.4059 0.780461 0
M  V30 1495 O 146.529 1.62551 0.626322 0
M  V30 1496 C 143.661 3.21974 1.12006 0
M  V30 1497 H 144.854 2.92459 -0.663901 0
M  V30 1498 H 142.407 1.51548 -0.382486 0
M  V30 1499 H 143.142 2.63417 1.89162 0
M  V30 1500 H 142.927 3.87168 0.619951 0
M  V30 1501 H 144.417 3.85318 1.60995 0
M  V30 1502 N 144.854 0.36279 1.53368 0
M  V30 1503 C 145.801 -0.485008 2.25646 0
M  V30 1504 C 146.771 -1.07982 1.2621 0
M  V30 1505 O 147.956 -1.11284 1.54986 0
M  V30 1506 C 145.096 -1.62023 3.04701 0
M  V30 1507 C 144.209 -1.05086 4.19024 0
M  V30 1508 C 143.344 -2.15496 4.85525 0
M  V30 1509 C 142.383 -1.5601 5.91884 0
M  V30 1510 N 141.52 -2.60241 6.52088 0
M  V30 1511 H 146.36 0.137864 2.97681 0
M  V30 1512 H 143.897 0.0798061 1.46883 0
M  V30 1513 H 145.855 -2.28887 3.48807 0
M  V30 1514 H 144.485 -2.2138 2.34927 0
M  V30 1515 H 143.537 -0.27259 3.79422 0
M  V30 1516 H 144.849 -0.575926 4.95464 0
M  V30 1517 H 144.003 -2.90186 5.32801 0
M  V30 1518 H 142.742 -2.66341 4.08551 0
M  V30 1519 H 141.747 -0.798338 5.43973 0
M  V30 1520 H 142.972 -1.05994 6.70777 0
M  V30 1521 H 140.918 -3.10304 5.77968 0
M  V30 1522 H 140.835 -2.17426 7.24059 0
M  V30 1523 H 142.103 -3.34641 7.04014 0
M  V30 1524 N 146.332 -1.57332 0.0918853 0
M  V30 1525 C 147.609 -1.85691 -0.614668 0
M  V30 1526 C 147.989 -0.988146 -1.86545 0
M  V30 1527 O 147.337 -0.0597055 -2.28422 0
M  V30 1528 C 147.547 -3.36294 -0.933126 0
M  V30 1529 C 148.895 -4.04275 -1.29796 0
M  V30 1530 O 149.919 -3.41157 -1.02424 0
M  V30 1531 O 148.778 -5.1564 -1.81047 0
M  V30 1532 H 145.872 -0.767802 -0.307261 0
M  V30 1533 H 148.418 -1.69244 0.12434 0
M  V30 1534 H 147.19 -3.91273 -0.0456404 0
M  V30 1535 H 146.813 -3.58076 -1.72822 0
M  V30 1536 N 147.81 0.181792 -1.56548 0
M  V30 1537 C 149.058 0.89832 -1.81038 0
M  V30 1538 C 149.379 1.83232 -0.667164 0
M  V30 1539 O 148.649 1.93372 0.313673 0
M  V30 1540 H 147.229 0.33471 -0.667816 0
M  V30 1541 H 149.891 0.184116 -1.94028 0
M  V30 1542 H 148.987 1.4815 -2.74696 0
M  V30 1543 N 149.288 1.51039 0.449983 0
M  V30 1544 C 150.251 1.70863 1.5277 0
M  V30 1545 C 151.251 0.578846 1.5002 0
M  V30 1546 O 152.441 0.846213 1.52266 0
M  V30 1547 C 149.573 1.75341 2.9235 0
M  V30 1548 H 150.766 2.67034 1.36502 0
M  V30 1549 H 148.319 1.40838 0.677812 0
M  V30 1550 H 149.054 0.809383 3.14037 0
M  V30 1551 H 148.839 2.57436 2.95752 0
M  V30 1552 H 150.329 1.92559 3.70555 0
M  V30 1553 N 150.766 -0.704594 1.40972 0
M  V30 1554 C 152.015 -1.46018 1.39146 0
M  V30 1555 C 152.328 -1.956 0.000589254 0
M  V30 1556 O 153.534 -2.71137 -0.1403 0
M  V30 1557 C 151.99 -2.63996 2.4461 0
M  V30 1558 C 151.598 -2.21238 3.89561 0
M  V30 1559 C 153.342 -3.41677 2.51907 0
M  V30 1560 C 151.249 -3.3612 4.86598 0
M  V30 1561 H 150.179 -0.548444 0.517422 0
M  V30 1562 H 152.83 -0.765784 1.66757 0
M  V30 1563 H 151.212 -3.3566 2.10115 0
M  V30 1564 H 152.386 -1.56923 4.33257 0
M  V30 1565 H 150.701 -1.56574 3.85841 0
M  V30 1566 H 153.298 -4.27182 3.2159 0
M  V30 1567 H 153.641 -3.86247 1.55303 0
M  V30 1568 H 154.174 -2.77064 2.85448 0
M  V30 1569 H 150.913 -2.96572 5.84573 0
M  V30 1570 H 150.433 -3.99315 4.47557 0
M  V30 1571 H 152.112 -4.02029 5.06934 0
M  V30 1572 N 152.244 -1.26651 -0.937939 0
M  V30 1573 C 153.472 -1.15173 -1.7188 0
M  V30 1574 C 153.887 0.292668 -1.86518 0
M  V30 1575 O 153.244 1.20014 -1.37488 0
M  V30 1576 C 153.295 -1.81925 -3.12387 0
M  V30 1577 O 153.016 -3.2072 -2.98446 0
M  V30 1578 C 154.517 -1.76442 -4.06673 0
M  V30 1579 H 151.737 -0.400911 -0.538063 0
M  V30 1580 H 154.281 -1.67332 -1.1756 0
M  V30 1581 H 152.436 -1.33696 -3.63599 0
M  V30 1582 H 152.85 -3.53802 -3.872 0
M  V30 1583 H 154.324 -2.27781 -5.02812 0
M  V30 1584 H 154.801 -0.731608 -4.33064 0
M  V30 1585 H 155.407 -2.24238 -3.61382 0
M  V30 1586 N 153.722 1.14298 -1.08507 0
M  V30 1587 C 154.971 1.84708 -0.810305 0
M  V30 1588 C 155.284 1.83903 0.666271 0
M  V30 1589 O 156.49 2.50112 1.05624 0
M  V30 1590 C 154.946 3.31572 -1.39957 0
M  V30 1591 C 154.554 3.40791 -2.90801 0
M  V30 1592 C 156.298 4.07087 -1.20334 0
M  V30 1593 C 154.205 4.81872 -3.4286 0
M  V30 1594 H 153.135 0.691985 -0.299454 0
M  V30 1595 H 155.786 1.28841 -1.30661 0
M  V30 1596 H 154.168 3.87183 -0.830976 0
M  V30 1597 H 155.342 2.95225 -3.53806 0
M  V30 1598 H 153.657 2.78732 -3.0935 0
M  V30 1599 H 156.254 5.11225 -1.56693 0
M  V30 1600 H 156.597 4.16054 -0.143237 0
M  V30 1601 H 157.13 3.57779 -1.73893 0
M  V30 1602 H 153.869 4.78094 -4.48449 0
M  V30 1603 H 153.389 5.27972 -2.84615 0
M  V30 1604 H 155.068 5.50765 -3.39509 0
M  V30 1605 N 155.201 0.870884 1.31352 0
M  V30 1606 C 156.426 0.495957 2.01383 0
M  V30 1607 C 156.851 -0.904324 1.64935 0
M  V30 1608 O 156.209 -1.59687 0.858466 0
M  V30 1609 C 156.257 0.661433 3.54482 0
M  V30 1610 O 155.361 -0.298851 4.11316 0
M  V30 1611 H 154.702 0.197158 0.634054 0
M  V30 1612 H 157.232 1.17455 1.67527 0
M  V30 1613 H 157.242 0.555072 4.04207 0
M  V30 1614 H 155.917 1.68246 3.8035 0
M  V30 1615 H 154.494 -0.147368 3.72609 0
M  V30 1616 N 156.679 -1.44442 0.630414 0
M  V30 1617 C 157.904 -2.06927 0.139944 0
M  V30 1618 C 158.329 -1.46795 -1.17613 0
M  V30 1619 O 157.687 -0.569144 -1.72135 0
M  V30 1620 C 157.735 -3.6058 0.0379581 0
M  V30 1621 O 156.839 -3.99937 -1.0062 0
M  V30 1622 H 156.18 -0.658608 0.0844483 0
M  V30 1623 H 158.71 -1.85327 0.866891 0
M  V30 1624 H 158.72 -4.07714 -0.152856 0
M  V30 1625 H 157.395 -4.03728 0.998809 0
M  V30 1626 H 155.972 -3.64436 -0.79001 0
M  V30 1627 N 158.157 -0.370918 -1.53173 0
M  V30 1628 C 159.107 0.489588 -2.22681 0
M  V30 1629 C 160.091 1.04442 -1.22395 0
M  V30 1630 O 161.283 0.973578 -1.47819 0
M  V30 1631 C 158.412 1.626 -3.02351 0
M  V30 1632 C 157.498 1.08379 -4.10018 0
M  V30 1633 N 157.889 0.265004 -5.05105 0
M  V30 1634 C 156.187 1.35809 -4.2482 0
M  V30 1635 C 156.888 -0.0324755 -5.81691 0
M  V30 1636 N 155.864 0.566581 -5.40639 0
M  V30 1637 H 159.666 -0.142729 -2.93553 0
M  V30 1638 H 157.18 -0.179221 -1.61408 0
M  V30 1639 H 159.177 2.2547 -3.50669 0
M  V30 1640 H 157.837 2.26132 -2.33011 0
M  V30 1641 H 158.848 -0.0962352 -5.17811 0
M  V30 1642 H 155.525 1.9958 -3.66707 0
M  V30 1643 H 156.915 -0.69473 -6.68299 0
M  V30 1644 N 159.635 1.57281 -0.100228 0
M  V30 1645 C 160.545 2.17833 0.870965 0
M  V30 1646 C 161.561 1.14921 1.30649 0
M  V30 1647 O 162.737 1.47313 1.37335 0
M  V30 1648 C 159.802 2.75085 2.1102 0
M  V30 1649 C 158.863 3.9297 1.72838 0
M  V30 1650 C 158.096 4.47482 2.90854 0
M  V30 1651 O 158.319 4.00922 4.05731 0
M  V30 1652 O 157.253 5.38433 2.69023 0
M  V30 1653 H 161.079 3.0124 0.38575 0
M  V30 1654 H 158.664 1.48881 0.124397 0
M  V30 1655 H 160.546 3.11656 2.83634 0
M  V30 1656 H 159.221 1.94721 2.58584 0
M  V30 1657 H 158.128 3.61201 0.973883 0
M  V30 1658 H 159.461 4.74713 1.30033 0
M  V30 1659 N 161.113 -0.173488 1.56642 0
M  V30 1660 C 162.06 -1.21482 1.96242 0
M  V30 1661 C 163.03 -1.44104 0.826027 0
M  V30 1662 O 164.215 -1.5688 1.08597 0
M  V30 1663 C 161.355 -2.54964 2.32567 0
M  V30 1664 C 160.468 -2.39739 3.59373 0
M  V30 1665 C 159.603 -3.66072 3.84921 0
M  V30 1666 C 158.642 -3.45771 5.05083 0
M  V30 1667 N 157.779 -4.64169 5.26775 0
M  V30 1668 H 162.619 -0.870123 2.85014 0
M  V30 1669 H 160.156 -0.418245 1.41029 0
M  V30 1670 H 162.114 -3.32758 2.5165 0
M  V30 1671 H 160.744 -2.87433 1.46908 0
M  V30 1672 H 159.796 -1.53131 3.48217 0
M  V30 1673 H 161.108 -2.20683 4.47326 0
M  V30 1674 H 160.262 -4.52303 4.0436 0
M  V30 1675 H 159.001 -3.88105 2.9534 0
M  V30 1676 H 158.006 -2.57927 4.85545 0
M  V30 1677 H 159.231 -3.25163 5.96193 0
M  V30 1678 H 157.177 -4.86425 4.40144 0
M  V30 1679 H 157.094 -4.48019 6.08946 0
M  V30 1680 H 158.362 -5.51689 5.5069 0
M  V30 1681 N 162.591 -1.51276 -0.441967 0
M  V30 1682 C 163.521 -1.752 -1.54361 0
M  V30 1683 C 164.502 -0.601682 -1.59103 0
M  V30 1684 O 165.687 -0.843913 -1.74905 0
M  V30 1685 C 162.817 -1.87282 -2.92477 0
M  V30 1686 C 161.771 -3.02687 -3.02596 0
M  V30 1687 C 161.097 -2.99947 -4.42647 0
M  V30 1688 C 162.397 -4.4273 -2.77106 0
M  V30 1689 H 164.091 -2.67442 -1.34592 0
M  V30 1690 H 161.637 -1.28694 -0.646048 0
M  V30 1691 H 163.59 -2.02602 -3.695 0
M  V30 1692 H 162.314 -0.916844 -3.13467 0
M  V30 1693 H 160.973 -2.87065 -2.28012 0
M  V30 1694 H 160.621 -2.02136 -4.60597 0
M  V30 1695 H 160.321 -3.77439 -4.50348 0
M  V30 1696 H 161.845 -3.17354 -5.2165 0
M  V30 1697 H 163.259 -4.58727 -3.43864 0
M  V30 1698 H 161.656 -5.21893 -2.96222 0
M  V30 1699 H 162.726 -4.53087 -1.72744 0
M  V30 1700 N 164.069 0.697108 -1.41344 0
M  V30 1701 C 165.485 1.00751 -1.2378 0
M  V30 1702 C 165.685 2.01105 -0.126066 0
M  V30 1703 O 164.741 2.47295 0.51004 0
M  V30 1704 C 166.054 1.53359 -2.58653 0
M  V30 1705 C 167.602 1.6525 -2.65822 0
M  V30 1706 C 168.077 2.2126 -4.01009 0
M  V30 1707 N 169.568 2.28622 -4.02847 0
M  V30 1708 C 170.303 2.72984 -5.04249 0
M  V30 1709 N 169.799 3.16962 -6.16041 0
M  V30 1710 N 171.592 2.72534 -4.91611 0
M  V30 1711 H 163.743 0.0322662 -2.12375 0
M  V30 1712 H 166.006 0.0768853 -0.944877 0
M  V30 1713 H 165.712 0.870773 -3.4075 0
M  V30 1714 H 165.586 2.51597 -2.81032 0
M  V30 1715 H 167.973 2.30644 -1.84086 0
M  V30 1716 H 168.054 0.655614 -2.47256 0
M  V30 1717 H 167.698 1.56482 -4.83193 0
M  V30 1718 H 167.628 3.21698 -4.16915 0
M  V30 1719 H 170.119 1.97585 -3.22131 0
M  V30 1720 H 170.432 3.49434 -6.89287 0
M  V30 1721 H 168.777 3.14875 -6.1958 0
M  V30 1722 H 171.968 2.37525 -4.0336 0
M  V30 1723 H 172.141 3.06789 -5.70775 0
M  V30 1724 N 165.547 1.27147 0.931209 0
M  V30 1725 C 166.51 1.09615 2.01289 0
M  V30 1726 C 167.51 0.0412581 1.60747 0
M  V30 1727 O 168.7 0.285545 1.71844 0
M  V30 1728 C 165.832 0.669447 3.34262 0
M  V30 1729 H 167.025 2.05662 2.18273 0
M  V30 1730 H 164.578 1.09885 1.11153 0
M  V30 1731 H 165.313 -0.292572 3.22978 0
M  V30 1732 H 165.098 1.43127 3.65044 0
M  V30 1733 H 166.588 0.568921 4.13706 0
M  V30 1734 N 167.025 -1.13721 1.09112 0
M  V30 1735 C 167.988 -2.17222 0.731241 0
M  V30 1736 C 168.988 -1.59035 -0.237566 0
M  V30 1737 O 170.178 -1.74192 -0.0161704 0
M  V30 1738 C 167.31 -3.40804 0.0808443 0
M  V30 1739 H 168.503 -2.50573 1.64783 0
M  V30 1740 H 166.056 -1.28493 0.889897 0
M  V30 1741 H 166.791 -3.1304 -0.847127 0
M  V30 1742 H 166.576 -3.84306 0.777896 0
M  V30 1743 H 168.066 -4.1731 -0.155657 0
M  V30 1744 N 168.503 -0.877838 -1.30888 0
M  V30 1745 C 169.433 -0.35534 -2.3078 0
M  V30 1746 C 170.414 0.557994 -1.60687 0
M  V30 1747 O 171.599 0.473355 -1.88343 0
M  V30 1748 C 168.729 0.437221 -3.44537 0
M  V30 1749 C 167.683 -0.383715 -4.26276 0
M  V30 1750 C 167.009 0.535014 -5.32017 0
M  V30 1751 C 168.309 -1.62201 -4.96476 0
M  V30 1752 H 170.003 -1.19007 -2.74732 0
M  V30 1753 H 167.549 -0.573698 -1.32078 0
M  V30 1754 H 169.502 0.813334 -4.13477 0
M  V30 1755 H 168.226 1.30553 -2.99372 0
M  V30 1756 H 166.885 -0.741874 -3.59015 0
M  V30 1757 H 166.533 1.40083 -4.831 0
M  V30 1758 H 166.233 -0.0104211 -5.87599 0
M  V30 1759 H 167.757 0.907799 -6.03814 0
M  V30 1760 H 169.171 -1.31689 -5.5797 0
M  V30 1761 H 167.568 -2.10711 -5.61891 0
M  V30 1762 H 168.638 -2.37044 -4.23011 0
M  V30 1763 N 169.982 1.44106 -0.638065 0
M  V30 1764 C 170.932 2.27843 0.0847285 0
M  V30 1765 C 171.916 1.39055 0.809471 0
M  V30 1766 O 173.108 1.62808 0.694435 0
M  V30 1767 C 170.237 3.26497 1.06089 0
M  V30 1768 C 169.323 4.22772 0.33541 0
M  V30 1769 N 169.714 5.01737 -0.639787 0
M  V30 1770 C 168.012 4.42227 0.578921 0
M  V30 1771 C 168.713 5.71792 -1.06904 0
M  V30 1772 N 167.689 5.42079 -0.406395 0
M  V30 1773 H 171.491 2.86305 -0.663814 0
M  V30 1774 H 169.005 1.55627 -0.464122 0
M  V30 1775 H 171.002 3.8525 1.59337 0
M  V30 1776 H 169.662 2.69595 1.80966 0
M  V30 1777 H 170.673 5.07799 -1.01789 0
M  V30 1778 H 167.35 3.96415 1.31003 0
M  V30 1779 H 168.74 6.45205 -1.8751 0
M  V30 1780 N 171.46 0.379036 1.52974 0
M  V30 1781 C 172.876 0.0285448 1.59574 0
M  V30 1782 C 173.076 -1.45542 1.39355 0
M  V30 1783 O 172.132 -2.2187 1.20541 0
M  V30 1784 C 173.445 0.496535 2.96572 0
M  V30 1785 C 174.993 0.451909 3.0972 0
M  V30 1786 C 175.468 0.895924 4.49152 0
M  V30 1787 N 176.959 0.851522 4.55306 0
M  V30 1788 C 177.694 1.16661 5.61407 0
M  V30 1789 N 177.19 1.55166 6.752 0
M  V30 1790 N 178.983 1.08853 5.51459 0
M  V30 1791 H 171.134 1.34525 1.64367 0
M  V30 1792 H 173.397 0.550733 0.771619 0
M  V30 1793 H 173.103 1.53258 3.16552 0
M  V30 1794 H 172.977 -0.109802 3.7704 0
M  V30 1795 H 175.364 -0.575029 2.89443 0
M  V30 1796 H 175.445 1.09392 2.3123 0
M  V30 1797 H 175.089 1.92104 4.70168 0
M  V30 1798 H 175.019 0.23103 5.26093 0
M  V30 1799 H 177.51 0.568038 3.73606 0
M  V30 1800 H 177.823 1.776 7.52116 0
M  V30 1801 H 176.168 1.59044 6.76557 0
M  V30 1802 H 179.359 0.786803 4.6144 0
M  V30 1803 H 179.532 1.33742 6.34048 0
M  V30 1804 N 172.938 -1.57226 0.108567 0
M  V30 1805 C 173.871 -2.10447 -0.882464 0
M  V30 1806 C 174.849 -1.01829 -1.26766 0
M  V30 1807 O 176.033 -1.29415 -1.37054 0
M  V30 1808 C 173.16 -2.59258 -2.17952 0
M  V30 1809 C 172.206 -3.79662 -1.94318 0
M  V30 1810 S 173.039 -5.22586 -1.16892 0
M  V30 1811 C 174.195 -5.74758 -2.47799 0
M  V30 1812 H 174.428 -2.94178 -0.429745 0
M  V30 1813 H 171.961 -1.54043 -0.105 0
M  V30 1814 H 173.919 -2.88036 -2.92482 0
M  V30 1815 H 172.58 -1.75728 -2.60343 0
M  V30 1816 H 171.773 -4.11928 -2.90399 0
M  V30 1817 H 171.375 -3.51446 -1.27913 0
M  V30 1818 H 173.667 -5.83846 -3.43701 0
M  V30 1819 H 174.61 -6.73027 -2.20093 0
M  V30 1820 H 175.018 -5.02763 -2.56689 0
M  V30 1821 N 174.416 0.165178 -1.56732 0
M  V30 1822 C 175.662 0.882112 -1.82611 0
M  V30 1823 C 175.995 1.81628 -0.687378 0
M  V30 1824 O 175.27 1.92009 0.310267 0
M  V30 1825 C 175.553 1.67245 -3.18906 0
M  V30 1826 C 175.406 0.760987 -4.43316 0
M  V30 1827 C 176.725 2.63884 -3.52212 0
M  V30 1828 H 173.844 0.319242 -0.664269 0
M  V30 1829 H 176.486 0.148052 -1.89422 0
M  V30 1830 H 174.636 2.29824 -3.1323 0
M  V30 1831 H 176.308 0.147596 -4.61064 0
M  V30 1832 H 174.551 0.0694102 -4.33744 0
M  V30 1833 H 175.222 1.34962 -5.35247 0
M  V30 1834 H 177.698 2.11429 -3.58381 0
M  V30 1835 H 176.574 3.16245 -4.48643 0
M  V30 1836 H 176.835 3.44377 -2.77231 0
M  V30 1837 N 175.894 1.51508 0.433938 0
M  V30 1838 C 177.305 1.56784 1.01369 0
M  V30 1839 C 177.656 0.393349 1.92217 0
M  V30 1840 O 176.781 -0.489441 2.10792 0
M  V30 1841 C 177.376 2.84144 1.8452 0
M  V30 1842 C 175.935 2.9198 2.37539 0
M  V30 1843 C 175.082 2.51482 1.16843 0
M  V30 1844 H 178.033 1.57236 0.215081 0
M  V30 1845 H 178.054 2.68098 2.70007 0
M  V30 1846 H 177.566 3.69607 1.18373 0
M  V30 1847 H 175.667 2.10955 3.0713 0
M  V30 1848 H 175.78 3.95704 2.70103 0
M  V30 1849 H 174.144 2.04758 1.51481 0
M  V30 1850 H 174.927 3.39293 0.523015 0
M  V30 1851 N 177.372 -0.689602 1.41712 0
M  V30 1852 C 178.621 -1.44534 1.40686 0
M  V30 1853 C 178.934 -1.95588 0.0213352 0
M  V30 1854 O 180.14 -2.71271 -0.111534 0
M  V30 1855 C 178.596 -2.61387 2.47396 0
M  V30 1856 C 178.204 -2.17094 3.91885 0
M  V30 1857 C 179.948 -3.38986 2.55517 0
M  V30 1858 C 177.855 -3.3094 4.90135 0
M  V30 1859 H 176.785 -0.542925 0.52321 0
M  V30 1860 H 179.436 -0.748054 1.6756 0
M  V30 1861 H 177.818 -3.33412 2.13664 0
M  V30 1862 H 178.992 -1.52318 4.34897 0
M  V30 1863 H 177.307 -1.52473 3.8748 0
M  V30 1864 H 179.904 -4.23747 3.26102 0
M  V30 1865 H 180.247 -3.84578 1.59391 0
M  V30 1866 H 180.78 -2.74021 2.8837 0
M  V30 1867 H 177.519 -2.90355 5.87685 0
M  V30 1868 H 177.039 -3.94546 4.51767 0
M  V30 1869 H 178.718 -3.9663 5.11169 0
M  V30 1870 N 178.85 -1.27639 -0.924453 0
M  V30 1871 C 179.76 -1.12466 -2.05885 0
M  V30 1872 C 180.776 -0.053869 -1.73917 0
M  V30 1873 O 181.952 -0.261012 -1.99702 0
M  V30 1874 C 179.017 -0.776768 -3.37886 0
M  V30 1875 C 178.078 -1.92878 -3.83532 0
M  V30 1876 C 177.311 -1.59739 -5.09234 0
M  V30 1877 O 177.534 -0.506782 -5.68144 0
M  V30 1878 O 176.468 -2.43761 -5.50331 0
M  V30 1879 H 180.294 -2.07671 -2.21599 0
M  V30 1880 H 177.879 -1.06857 -1.04413 0
M  V30 1881 H 179.761 -0.596229 -4.17161 0
M  V30 1882 H 178.436 0.145732 -3.23372 0
M  V30 1883 H 177.343 -2.1644 -3.0513 0
M  V30 1884 H 178.676 -2.8316 -4.02593 0
M  V30 1885 N 180.328 1.1314 -1.09713 0
M  V30 1886 C 181.291 2.16831 -0.742751 0
M  V30 1887 C 182.291 1.59159 0.229129 0
M  V30 1888 O 183.481 1.74199 0.00693237 0
M  V30 1889 C 180.613 3.40756 -0.0989168 0
M  V30 1890 H 181.806 2.49695 -1.66109 0
M  V30 1891 H 179.359 1.2802 -0.896699 0
M  V30 1892 H 180.094 3.13485 0.830514 0
M  V30 1893 H 179.879 3.83888 -0.798265 0
M  V30 1894 H 181.369 4.17386 0.133524 0
M  V30 1895 N 181.806 0.884767 1.30421 0
M  V30 1896 C 182.753 0.349642 2.28136 0
M  V30 1897 C 183.723 -0.560061 1.56373 0
M  V30 1898 O 184.908 -0.488524 1.8444 0
M  V30 1899 C 182.048 -0.42999 3.42411 0
M  V30 1900 C 181.161 0.508907 4.28992 0
M  V30 1901 C 180.296 -0.286301 5.30428 0
M  V30 1902 C 179.335 0.648079 6.08659 0
M  V30 1903 N 178.472 -0.111792 7.02011 0
M  V30 1904 H 183.312 1.18807 2.73293 0
M  V30 1905 H 180.849 0.597231 1.3443 0
M  V30 1906 H 182.807 -0.897923 4.07423 0
M  V30 1907 H 181.437 -1.23299 2.98324 0
M  V30 1908 H 180.489 1.09533 3.64289 0
M  V30 1909 H 181.801 1.22475 4.8353 0
M  V30 1910 H 180.955 -0.816098 6.01186 0
M  V30 1911 H 179.694 -1.03536 4.76583 0
M  V30 1912 H 178.699 1.18951 5.36778 0
M  V30 1913 H 179.924 1.39623 6.64592 0
M  V30 1914 H 177.87 -0.843395 6.50556 0
M  V30 1915 H 177.787 0.544429 7.54037 0
M  V30 1916 H 179.055 -0.622339 7.77012 0
M  V30 1917 N 183.284 -1.43765 0.645699 0
M  V30 1918 C 184.231 -2.30745 -0.0504648 0
M  V30 1919 C 185.201 -1.4432 -0.822241 0
M  V30 1920 O 186.386 -1.73202 -0.800358 0
M  V30 1921 C 183.526 -3.29802 -1.0161 0
M  V30 1922 C 182.639 -4.31326 -0.241219 0
M  V30 1923 C 181.774 -5.17469 -1.19998 0
M  V30 1924 C 180.813 -6.10691 -0.415094 0
M  V30 1925 N 179.95 -6.89483 -1.32506 0
M  V30 1926 H 184.79 -2.8973 0.697155 0
M  V30 1927 H 182.327 -1.42738 0.355563 0
M  V30 1928 H 184.285 -3.85734 -1.58949 0
M  V30 1929 H 182.915 -2.72483 -1.73069 0
M  V30 1930 H 181.967 -3.77749 0.448334 0
M  V30 1931 H 183.279 -4.9743 0.369437 0
M  V30 1932 H 182.433 -5.7799 -1.84424 0
M  V30 1933 H 181.172 -4.51473 -1.84455 0
M  V30 1934 H 180.177 -5.49265 0.242565 0
M  V30 1935 H 181.402 -6.78727 0.224966 0
M  V30 1936 H 179.348 -6.26142 -1.95657 0
M  V30 1937 H 179.265 -7.52081 -0.768783 0
M  V30 1938 H 180.533 -7.54516 -1.9577 0
M  V30 1939 N 184.763 -0.387143 -1.52771 0
M  V30 1940 C 185.71 0.449048 -2.26389 0
M  V30 1941 C 186.68 1.05961 -1.27912 0
M  V30 1942 O 187.865 1.08804 -1.56737 0
M  V30 1943 C 185.005 1.57155 -3.0724 0
M  V30 1944 C 184.118 0.984066 -4.20643 0
M  V30 1945 C 183.253 2.07745 -4.88892 0
M  V30 1946 C 182.292 1.46574 -5.94292 0
M  V30 1947 N 181.429 2.49834 -6.56146 0
M  V30 1948 H 186.269 -0.185205 -2.97424 0
M  V30 1949 H 183.806 -0.103164 -1.46738 0
M  V30 1950 H 185.764 2.23309 -3.52405 0
M  V30 1951 H 184.394 2.17615 -2.38419 0
M  V30 1952 H 183.446 0.212193 -3.79808 0
M  V30 1953 H 184.758 0.497029 -4.96318 0
M  V30 1954 H 183.912 2.81673 -5.3735 0
M  V30 1955 H 182.651 2.59807 -4.12737 0
M  V30 1956 H 181.656 0.711696 -5.45174 0
M  V30 1957 H 182.881 0.953088 -6.72379 0
M  V30 1958 H 180.827 3.0107 -5.82832 0
M  V30 1959 H 180.744 2.05879 -7.27427 0
M  V30 1960 H 182.012 3.23399 -7.09249 0
M  V30 1961 N 186.241 1.57166 -0.116904 0
M  V30 1962 C 187.471 1.99184 0.548586 0
M  V30 1963 C 187.879 0.995436 1.60897 0
M  V30 1964 O 187.222 -0.0201293 1.83689 0
M  V30 1965 C 187.284 3.37611 1.23526 0
M  V30 1966 C 186.948 4.55857 0.323077 0
M  V30 1967 C 187.945 5.18056 -0.437476 0
M  V30 1968 C 185.63 5.01751 0.234761 0
M  V30 1969 C 187.624 6.24536 -1.2741 0
M  V30 1970 C 185.311 6.08093 -0.605496 0
M  V30 1971 C 186.309 6.69352 -1.35856 0
M  V30 1972 O 185.997 7.7364 -2.18487 0
M  V30 1973 H 185.729 0.659148 0.149999 0
M  V30 1974 H 188.283 2.0443 -0.199428 0
M  V30 1975 H 186.513 3.29113 2.0303 0
M  V30 1976 H 188.202 3.63932 1.79745 0
M  V30 1977 H 188.968 4.83516 -0.379105 0
M  V30 1978 H 184.847 4.53817 0.810601 0
M  V30 1979 H 188.391 6.72281 -1.86237 0
M  V30 1980 H 184.288 6.42063 -0.665268 0
M  V30 1981 H 185.056 7.90727 -2.11406 0
M  V30 1982 N 187.719 -0.156864 1.56817 0
M  V30 1983 C 188.666 -1.19394 1.97519 0
M  V30 1984 C 189.636 -1.4322 0.841265 0
M  V30 1985 O 190.821 -1.55719 1.10255 0
M  V30 1986 C 187.961 -2.52483 2.35258 0
M  V30 1987 C 187.074 -2.35914 3.61896 0
M  V30 1988 C 186.209 -3.61969 3.88782 0
M  V30 1989 C 185.248 -3.40395 5.08722 0
M  V30 1990 N 184.385 -4.58556 5.31668 0
M  V30 1991 H 189.225 -0.839845 2.85921 0
M  V30 1992 H 186.762 -0.403264 1.41464 0
M  V30 1993 H 188.72 -3.30071 2.55165 0
M  V30 1994 H 187.35 -2.85859 1.49949 0
M  V30 1995 H 186.402 -1.49429 3.49821 0
M  V30 1996 H 187.714 -2.15926 4.49641 0
M  V30 1997 H 186.868 -4.47989 4.09135 0
M  V30 1998 H 185.607 -3.84951 2.9944 0
M  V30 1999 H 184.612 -2.52763 4.88253 0
M  V30 2000 H 185.837 -3.18822 5.99608 0
M  V30 2001 H 183.783 -4.81729 4.45279 0
M  V30 2002 H 183.7 -4.41535 6.13664 0
M  V30 2003 H 184.968 -5.45817 5.5651 0
M  V30 2004 N 189.197 -1.51736 -0.425897 0
M  V30 2005 C 190.127 -1.76827 -1.52494 0
M  V30 2006 C 191.108 -0.618524 -1.58456 0
M  V30 2007 O 192.293 -0.862416 -1.74 0
M  V30 2008 C 189.423 -1.90374 -2.90474 0
M  V30 2009 C 188.377 -3.0588 -2.99369 0
M  V30 2010 C 187.703 -3.04625 -4.3944 0
M  V30 2011 C 189.003 -4.45644 -2.72394 0
M  V30 2012 H 190.697 -2.68855 -1.31748 0
M  V30 2013 H 188.243 -1.29372 -0.632362 0
M  V30 2014 H 190.196 -2.0651 -3.6733 0
M  V30 2015 H 188.92 -0.95004 -3.12477 0
M  V30 2016 H 187.579 -2.89467 -2.24954 0
M  V30 2017 H 187.227 -2.0701 -4.58428 0
M  V30 2018 H 186.927 -3.82195 -4.46319 0
M  V30 2019 H 188.451 -3.22869 -5.18255 0
M  V30 2020 H 189.865 -4.62348 -3.38979 0
M  V30 2021 H 188.262 -5.25006 -2.9067 0
M  V30 2022 H 189.332 -4.54893 -1.67929 0
M  V30 2023 N 190.675 0.682077 -1.42076 0
M  V30 2024 C 192.091 0.994324 -1.24841 0
M  V30 2025 C 192.291 2.0096 -0.147389 0
M  V30 2026 O 191.347 2.47822 0.483782 0
M  V30 2027 C 192.66 1.50607 -2.60265 0
M  V30 2028 C 194.208 1.62421 -2.6756 0
M  V30 2029 C 194.683 2.16994 -4.03333 0
M  V30 2030 N 196.174 2.24337 -4.0525 0
M  V30 2031 C 196.909 2.67621 -5.07116 0
M  V30 2032 N 196.405 3.1041 -6.19368 0
M  V30 2033 N 198.198 2.67305 -4.94474 0
M  V30 2034 H 190.349 0.00973908 -2.12398 0
M  V30 2035 H 192.612 0.0668593 -0.945639 0
M  V30 2036 H 192.318 0.834583 -3.41654 0
M  V30 2037 H 192.192 2.48602 -2.83684 0
M  V30 2038 H 194.579 2.28678 -1.86521 0
M  V30 2039 H 194.66 0.629352 -2.47937 0
M  V30 2040 H 194.304 1.51349 -4.84826 0
M  V30 2041 H 194.234 3.17258 -4.20304 0
M  V30 2042 H 196.725 1.94158 -3.24209 0
M  V30 2043 H 197.038 3.42103 -6.92954 0
M  V30 2044 H 195.383 3.08286 -6.22884 0
M  V30 2045 H 198.574 2.33233 -4.05857 0
M  V30 2046 H 198.747 3.00718 -5.73997 0
M  V30 2047 N 192.153 1.28127 0.917671 0
M  V30 2048 C 193.4 1.15052 1.66641 0
M  V30 2049 C 193.728 -0.301677 1.92146 0
M  V30 2050 O 192.983 -1.23622 1.51711 0
M  V30 2051 C 193.282 1.89018 3.03327 0
M  V30 2052 C 192.948 3.38832 2.97496 0
M  V30 2053 C 191.61 3.79693 2.95613 0
M  V30 2054 C 193.962 4.34378 2.88036 0
M  V30 2055 C 191.29 5.14447 2.82066 0
M  V30 2056 C 193.642 5.69201 2.7603 0
M  V30 2057 C 192.306 6.09343 2.72502 0
M  V30 2058 H 191.576 0.421006 0.609783 0
M  V30 2059 H 194.223 1.58855 1.06945 0
M  V30 2060 H 192.528 1.37752 3.66785 0
M  V30 2061 H 194.225 1.76321 3.60156 0
M  V30 2062 H 190.815 3.06342 2.99754 0
M  V30 2063 H 194.999 4.03775 2.88581 0
M  V30 2064 H 190.255 5.44681 2.77728 0
M  V30 2065 H 194.429 6.42901 2.67678 0
M  V30 2066 H 192.056 7.13712 2.61762 0
M  V30 2067 N 193.631 -1.12557 1.10312 0
M  V30 2068 C 194.578 -2.18247 0.750781 0
M  V30 2069 C 195.548 -1.63853 -0.272293 0
M  V30 2070 O 196.733 -1.90195 -0.151862 0
M  V30 2071 C 193.873 -3.44591 0.187379 0
M  V30 2072 C 192.986 -4.13046 1.2656 0
M  V30 2073 C 192.121 -5.27034 0.663978 0
M  V30 2074 C 191.16 -5.87353 1.72287 0
M  V30 2075 N 190.297 -6.92757 1.1416 0
M  V30 2076 H 195.137 -2.47732 1.65628 0
M  V30 2077 H 192.674 -1.21629 0.827337 0
M  V30 2078 H 194.632 -4.16904 -0.157148 0
M  V30 2079 H 193.262 -3.15527 -0.681355 0
M  V30 2080 H 192.314 -3.38924 1.72727 0
M  V30 2081 H 193.626 -4.53947 2.06721 0
M  V30 2082 H 192.78 -6.06104 0.268824 0
M  V30 2083 H 191.519 -4.87407 -0.169082 0
M  V30 2084 H 190.524 -5.06971 2.12746 0
M  V30 2085 H 191.749 -6.29051 2.55875 0
M  V30 2086 H 189.695 -6.5517 0.329984 0
M  V30 2087 H 189.612 -7.3225 1.88007 0
M  V30 2088 H 190.88 -7.75658 0.772956 0
M  V30 2089 N 195.109 -0.891671 -1.2995 0
M  V30 2090 C 196.358 -0.509521 -1.95158 0
M  V30 2091 C 196.671 0.947388 -1.71125 0
M  V30 2092 O 197.877 1.43669 -2.30372 0
M  V30 2093 C 196.333 -0.860315 -3.49466 0
M  V30 2094 C 195.941 -2.33545 -3.8231 0
M  V30 2095 C 197.685 -0.547687 -4.20952 0
M  V30 2096 C 195.592 -2.62752 -5.29826 0
M  V30 2097 H 194.522 -0.18682 -0.730489 0
M  V30 2098 H 197.173 -1.08756 -1.47798 0
M  V30 2099 H 195.555 -0.211285 -3.95436 0
M  V30 2100 H 196.729 -3.02936 -3.47227 0
M  V30 2101 H 195.044 -2.61629 -3.23944 0
M  V30 2102 H 197.641 -0.742854 -5.29515 0
M  V30 2103 H 197.984 0.51332 -4.13123 0
M  V30 2104 H 198.517 -1.1542 -3.80688 0
M  V30 2105 H 195.256 -3.6762 -5.42712 0
M  V30 2106 H 194.776 -1.97977 -5.66185 0
M  V30 2107 H 196.455 -2.48601 -5.97333 0
M  V30 2108 N 196.587 1.43421 -0.653314 0
M  V30 2109 C 197.534 2.30768 0.0382271 0
M  V30 2110 C 198.504 1.44755 0.814576 0
M  V30 2111 O 199.689 1.73624 0.791162 0
M  V30 2112 C 196.829 3.30336 0.998599 0
M  V30 2113 C 195.942 4.31448 0.218342 0
M  V30 2114 C 195.077 5.18098 1.17252 0
M  V30 2115 C 194.116 6.10902 0.382702 0
M  V30 2116 N 193.253 6.90176 1.28848 0
M  V30 2117 H 198.093 2.89357 -0.712511 0
M  V30 2118 H 195.63 1.42548 -0.363128 0
M  V30 2119 H 197.588 3.86572 1.56901 0
M  V30 2120 H 196.218 2.73397 1.71621 0
M  V30 2121 H 195.27 3.77506 -0.46836 0
M  V30 2122 H 196.582 4.97227 -0.395812 0
M  V30 2123 H 195.736 5.7896 1.81356 0
M  V30 2124 H 194.475 4.52444 1.82058 0
M  V30 2125 H 193.48 5.49128 -0.27169 0
M  V30 2126 H 194.705 6.78598 -0.260957 0
M  V30 2127 H 192.651 6.27171 1.92334 0
M  V30 2128 H 192.568 7.52478 0.728887 0
M  V30 2129 H 193.836 7.55543 1.91766 0
M  V30 2130 N 198.065 0.39524 1.52563 0
M  V30 2131 C 199.293 -0.184943 2.06072 0
M  V30 2132 C 199.708 -1.40021 1.26647 0
M  V30 2133 O 199.065 -1.79767 0.314672 0
M  V30 2134 C 199.116 -0.549179 3.57304 0
M  V30 2135 O 198.837 0.617813 4.33722 0
M  V30 2136 C 200.338 -1.18459 4.2718 0
M  V30 2137 H 197.558 -0.0265025 0.670476 0
M  V30 2138 H 200.102 0.562184 1.96621 0
M  V30 2139 H 198.257 -1.2462 3.66809 0
M  V30 2140 H 198.671 0.317091 5.23541 0
M  V30 2141 H 200.145 -1.38976 5.34219 0
M  V30 2142 H 200.622 -2.15368 3.82771 0
M  V30 2143 H 201.228 -0.528163 4.22008 0
M  V30 2144 N 199.544 -1.57102 0.125237 0
M  V30 2145 C 200.821 -1.86953 -0.575142 0
M  V30 2146 C 201.201 -1.02749 -1.84407 0
M  V30 2147 O 200.549 -0.108144 -2.28244 0
M  V30 2148 C 200.759 -3.38198 -0.861583 0
M  V30 2149 C 202.107 -4.06937 -1.21192 0
M  V30 2150 O 203.131 -3.43252 -0.951645 0
M  V30 2151 O 201.99 -5.19364 -1.70068 0
M  V30 2152 H 199.084 -0.774147 -0.290906 0
M  V30 2153 H 201.63 -1.68942 0.160211 0
M  V30 2154 H 200.402 -3.91282 0.0373647 0
M  V30 2155 H 200.025 -3.61661 -1.65188 0
M  V30 2156 N 201.022 0.148545 -1.56898 0
M  V30 2157 C 201.97 1.20265 -1.99096 0
M  V30 2158 C 202.964 1.44559 -0.883123 0
M  V30 2159 O 204.17 1.4487 -1.0683 0
M  V30 2160 H 200.545 0.404786 -0.63376 0
M  V30 2161 H 202.516 0.82004 -2.86911 0
M  V30 2162 C 201.265 2.52886 -2.3863 0
M  V30 2163 H 200.588 2.35021 -3.23427 0
M  V30 2164 H 202.028 3.25274 -2.7198 0
M  V30 2165 C 200.487 3.13315 -1.23837 0
M  V30 2166 O 201.017 3.98077 -0.538268 0
M  V30 2167 N 199.223 2.72742 -1.00301 0
M  V30 2168 H 198.77 2.03912 -1.5741 0
M  V30 2169 H 198.728 3.13507 -0.236838 0
M  V30 2170 N 202.5 1.5196 0.417844 0
M  V30 2171 C 203.447 1.74678 1.50852 0
M  V30 2172 C 204.417 0.588947 1.55308 0
M  V30 2173 O 205.602 0.825544 1.72016 0
M  V30 2174 C 202.742 1.89544 2.88387 0
M  V30 2175 C 201.855 3.17166 2.93309 0
M  V30 2176 C 200.99 3.22513 4.22088 0
M  V30 2177 C 200.029 4.44372 4.20951 0
M  V30 2178 N 199.166 4.47161 5.41287 0
M  V30 2179 H 204.006 2.67768 1.30783 0
M  V30 2180 H 201.543 1.32689 0.63498 0
M  V30 2181 H 203.501 1.96146 3.68216 0
M  V30 2182 H 202.131 0.998424 3.06971 0
M  V30 2183 H 201.183 3.19778 2.06024 0
M  V30 2184 H 202.495 4.07021 2.88332 0
M  V30 2185 H 201.649 3.28139 5.10303 0
M  V30 2186 H 200.388 2.30581 4.29748 0
M  V30 2187 H 199.393 4.38902 3.31127 0
M  V30 2188 H 200.618 5.3759 4.14938 0
M  V30 2189 H 198.564 3.58108 5.49632 0
M  V30 2190 H 198.481 5.3085 5.3827 0
M  V30 2191 H 199.749 4.57005 6.3148 0
M  V30 2192 N 203.978 -0.674533 1.42435 0
M  V30 2193 C 205.227 -1.43034 1.42212 0
M  V30 2194 C 205.54 -1.95555 0.0420788 0
M  V30 2195 O 206.746 -2.71374 -0.0827558 0
M  V30 2196 C 205.202 -2.58748 2.50155 0
M  V30 2197 C 204.81 -2.12925 3.94166 0
M  V30 2198 C 206.554 -3.36257 2.59098 0
M  V30 2199 C 204.461 -3.25723 4.93618 0
M  V30 2200 H 203.391 -0.537345 0.528939 0
M  V30 2201 H 206.042 -0.73024 1.68344 0
M  V30 2202 H 204.424 -3.31128 2.17188 0
M  V30 2203 H 205.598 -1.47697 4.36488 0
M  V30 2204 H 203.913 -1.48354 3.89076 0
M  V30 2205 H 206.51 -4.20264 3.30578 0
M  V30 2206 H 206.853 -3.82866 1.63461 0
M  V30 2207 H 207.386 -2.70947 2.9126 0
M  V30 2208 H 204.125 -2.84105 5.90732 0
M  V30 2209 H 203.645 -3.89732 4.55926 0
M  V30 2210 H 205.324 -3.91186 5.15347 0
M  V30 2211 N 205.456 -1.28612 -0.910864 0
M  V30 2212 C 206.704 -1.15705 -1.65701 0
M  V30 2213 C 207.025 0.29416 -1.92769 0
M  V30 2214 O 206.295 1.20331 -1.54588 0
M  V30 2215 H 204.875 -0.425216 -0.614167 0
M  V30 2216 H 207.537 -1.61381 -1.0928 0
M  V30 2217 H 206.633 -1.6988 -2.61815 0
M  V30 2218 N 206.934 1.1197 -1.10907 0
M  V30 2219 C 208.183 1.82947 -0.849302 0
M  V30 2220 C 208.496 1.85275 0.627112 0
M  V30 2221 O 209.702 2.52296 1.00295 0
M  V30 2222 C 208.158 3.28529 -1.46959 0
M  V30 2223 C 207.766 3.34546 -2.97965 0
M  V30 2224 C 209.51 4.04443 -1.28942 0
M  V30 2225 C 207.417 4.74491 -3.53004 0
M  V30 2226 H 206.347 0.685477 -0.314065 0
M  V30 2227 H 208.998 1.2604 -1.33365 0
M  V30 2228 H 207.38 3.85333 -0.912917 0
M  V30 2229 H 208.554 2.87654 -3.59989 0
M  V30 2230 H 206.869 2.72108 -3.15192 0
M  V30 2231 H 209.466 5.07787 -1.67502 0
M  V30 2232 H 209.809 4.15656 -0.231456 0
M  V30 2233 H 210.342 3.5401 -1.81443 0
M  V30 2234 H 207.081 4.68474 -4.58489 0
M  V30 2235 H 206.601 5.21816 -2.9575 0
M  V30 2236 H 208.28 5.4344 -3.51115 0
M  V30 2237 N 208.412 0.89855 1.29475 0
M  V30 2238 C 209.375 0.380272 2.26023 0
M  V30 2239 C 210.375 -0.484891 1.53315 0
M  V30 2240 O 211.565 -0.290108 1.71767 0
M  V30 2241 C 208.697 -0.45651 3.3783 0
M  V30 2242 H 209.89 1.23295 2.73383 0
M  V30 2243 H 207.443 0.676589 1.40897 0
M  V30 2244 H 208.178 -1.32922 2.95808 0
M  V30 2245 H 207.963 0.163393 3.91759 0
M  V30 2246 H 209.453 -0.810466 4.0966 0
M  V30 2247 N 209.89 -1.43072 0.660911 0
M  V30 2248 C 210.837 -2.30785 -0.0259884 0
M  V30 2249 C 211.807 -1.45184 -0.806888 0
M  V30 2250 O 212.992 -1.74041 -0.781943 0
M  V30 2251 C 210.132 -3.30861 -0.981067 0
M  V30 2252 C 209.245 -4.31558 -0.195458 0
M  V30 2253 C 208.38 -5.18712 -1.14503 0
M  V30 2254 C 207.419 -6.11097 -0.350299 0
M  V30 2255 N 206.556 -6.90849 -1.25186 0
M  V30 2256 H 211.396 -2.88975 0.727846 0
M  V30 2257 H 208.933 -1.42353 0.370682 0
M  V30 2258 H 210.891 -3.87399 -1.54849 0
M  V30 2259 H 209.521 -2.74304 -1.70169 0
M  V30 2260 H 208.573 -3.77252 0.488374 0
M  V30 2261 H 209.885 -4.9701 0.422176 0
M  V30 2262 H 209.039 -5.79914 -1.78284 0
M  V30 2263 H 207.778 -4.53404 -1.79656 0
M  V30 2264 H 206.783 -5.48976 0.300808 0
M  V30 2265 H 208.008 -6.7845 0.296941 0
M  V30 2266 H 205.954 -6.28182 -1.89005 0
M  V30 2267 H 205.871 -7.52854 -0.688971 0
M  V30 2268 H 207.139 -7.5655 -1.87757 0
M  V30 2269 N 211.368 -0.403325 -1.52352 0
M  V30 2270 C 212.614 0.174605 -2.02047 0
M  V30 2271 C 212.947 1.45282 -1.28867 0
M  V30 2272 O 212.222 1.90483 -0.393257 0
M  V30 2273 C 212.505 0.428238 -3.57545 0
M  V30 2274 C 212.358 -0.866248 -4.4138 0
M  V30 2275 C 213.677 1.21287 -4.23057 0
M  V30 2276 H 210.796 0.0619851 -0.734389 0
M  V30 2277 H 213.438 -0.53565 -1.82293 0
M  V30 2278 H 211.588 1.03327 -3.74507 0
M  V30 2279 H 213.26 -1.50265 -4.3614 0
M  V30 2280 H 211.503 -1.47851 -4.07827 0
M  V30 2281 H 212.174 -0.643249 -5.48239 0
M  V30 2282 H 214.65 0.700703 -4.10158 0
M  V30 2283 H 213.526 1.35909 -5.31808 0
M  V30 2284 H 213.787 2.23193 -3.81625 0
M  V30 2285 N 212.846 1.57033 -0.133567 0
M  V30 2286 C 214.262 1.58035 0.222944 0
M  V30 2287 C 214.462 1.14713 1.6566 0
M  V30 2288 O 213.518 0.841218 2.38075 0
M  V30 2289 C 214.831 3.00691 -0.0236116 0
M  V30 2290 C 216.379 3.12973 0.0411512 0
M  V30 2291 C 216.854 4.57654 -0.177899 0
M  V30 2292 N 218.345 4.63033 -0.124365 0
M  V30 2293 C 219.08 5.72771 -0.268553 0
M  V30 2294 N 218.576 6.91206 -0.46972 0
M  V30 2295 N 220.369 5.61718 -0.2071 0
M  V30 2296 H 212.52 1.8349 -1.06981 0
M  V30 2297 H 214.783 0.848677 -0.422436 0
M  V30 2298 H 214.489 3.36726 -1.0153 0
M  V30 2299 H 214.363 3.70614 0.701808 0
M  V30 2300 H 216.75 2.76787 1.02338 0
M  V30 2301 H 216.831 2.45564 -0.716383 0
M  V30 2302 H 216.475 4.94542 -1.15717 0
M  V30 2303 H 216.405 5.23173 0.599797 0
M  V30 2304 H 218.896 3.7789 0.027011 0
M  V30 2305 H 219.209 7.70693 -0.570212 0
M  V30 2306 H 217.554 6.93156 -0.505876 0
M  V30 2307 H 220.745 4.68072 -0.0507986 0
M  V30 2308 H 220.918 6.47195 -0.322909 0
M  V30 2309 N 214.325 -0.140222 1.56975 0
M  V30 2310 C 215.574 -0.850152 1.82908 0
M  V30 2311 C 215.887 -1.82028 0.715892 0
M  V30 2312 O 217.093 -2.57485 0.861016 0
M  V30 2313 C 215.549 -1.5625 3.24213 0
M  V30 2314 C 215.157 -0.63443 4.43485 0
M  V30 2315 C 216.901 -2.25881 3.59413 0
M  V30 2316 C 214.808 -1.34879 5.75814 0
M  V30 2317 H 213.738 -0.321221 0.682153 0
M  V30 2318 H 216.389 -0.102874 1.83211 0
M  V30 2319 H 214.771 -2.35565 3.18316 0
M  V30 2320 H 215.945 0.12398 4.60633 0
M  V30 2321 H 214.26 -0.0461836 4.16374 0
M  V30 2322 H 216.857 -2.79978 4.5554 0
M  V30 2323 H 217.2 -3.02693 2.85802 0
M  V30 2324 H 217.733 -1.53477 3.67001 0
M  V30 2325 H 214.472 -0.622385 6.52539 0
M  V30 2326 H 213.992 -2.07974 5.6259 0
M  V30 2327 H 215.671 -1.88784 6.18845 0
M  V30 2328 N 215.803 -1.52179 -0.40978 0
M  V30 2329 C 217.052 -1.65434 -1.15388 0
M  V30 2330 C 217.365 -0.390056 -1.91671 0
M  V30 2331 O 218.571 -0.402399 -2.68501 0
M  V30 2332 C 217.027 -2.92279 -2.10003 0
M  V30 2333 C 216.635 -4.25813 -1.39239 0
M  V30 2334 C 218.379 -3.14897 -2.84675 0
M  V30 2335 C 216.286 -5.43782 -2.32498 0
M  V30 2336 H 215.216 -0.616267 -0.434432 0
M  V30 2337 H 217.867 -1.78666 -0.418401 0
M  V30 2338 H 216.249 -2.72744 -2.871 0
M  V30 2339 H 217.423 -4.55828 -0.675099 0
M  V30 2340 H 215.738 -4.09292 -0.766097 0
M  V30 2341 H 218.335 -4.0021 -3.54593 0
M  V30 2342 H 218.678 -2.29103 -3.47588 0
M  V30 2343 H 219.211 -3.34901 -2.14677 0
M  V30 2344 H 215.95 -6.3192 -1.74233 0
M  V30 2345 H 215.47 -5.18106 -3.02201 0
M  V30 2346 H 217.149 -5.76834 -2.93038 0
M  V30 2347 N 217.281 0.66697 -1.42791 0
M  V30 2348 C 218.191 1.80962 -1.49299 0
M  V30 2349 C 219.207 1.69775 -0.381108 0
M  V30 2350 O 220.383 1.91188 -0.633188 0
M  V30 2351 C 217.448 3.17156 -1.40045 0
M  V30 2352 C 216.509 3.40242 -2.6179 0
M  V30 2353 C 215.742 4.69939 -2.52969 0
M  V30 2354 O 215.965 5.48372 -1.56985 0
M  V30 2355 O 214.899 4.94441 -3.43237 0
M  V30 2356 H 218.725 1.78427 -2.45759 0
M  V30 2357 H 216.31 0.823713 -1.24641 0
M  V30 2358 H 218.192 3.98413 -1.37276 0
M  V30 2359 H 216.867 3.20312 -0.467138 0
M  V30 2360 H 215.774 2.58802 -2.70134 0
M  V30 2361 H 217.107 3.41923 -3.54047 0
M  V30 2362 N 218.759 1.29093 0.90403 0
M  V30 2363 C 219.669 1.15727 2.0407 0
M  V30 2364 C 220.685 0.0815308 1.73809 0
M  V30 2365 O 221.861 0.292749 1.99261 0
M  V30 2366 C 218.926 0.830424 3.36608 0
M  V30 2367 C 217.987 1.98955 3.80415 0
M  V30 2368 C 217.22 1.6782 5.06628 0
M  V30 2369 O 217.443 0.597105 5.67266 0
M  V30 2370 O 216.377 2.52486 5.46383 0
M  V30 2371 H 220.203 2.11171 2.18267 0
M  V30 2372 H 217.788 1.08504 1.027 0
M  V30 2373 H 219.67 0.662521 4.16159 0
M  V30 2374 H 218.345 -0.0942678 3.23563 0
M  V30 2375 H 217.252 2.21267 3.01648 0
M  V30 2376 H 218.585 2.89529 3.98037 0
M  V30 2377 N 220.237 -1.11381 1.11499 0
M  V30 2378 C 221.462 -1.87475 0.887019 0
M  V30 2379 C 221.887 -1.79639 -0.557796 0
M  V30 2380 O 221.245 -1.15924 -1.39396 0
M  V30 2381 C 221.293 -3.34213 1.35403 0
M  V30 2382 O 220.397 -4.0903 0.526146 0
M  V30 2383 H 219.738 -0.582099 0.319463 0
M  V30 2384 H 222.268 -1.40785 1.48461 0
M  V30 2385 H 222.278 -3.8506 1.34881 0
M  V30 2386 H 220.953 -3.39232 2.40612 0
M  V30 2387 H 219.53 -3.68082 0.597522 0
M  V30 2388 N 221.715 -0.905404 -1.28997 0
M  V30 2389 C 222.963 -0.533192 -1.9494 0
M  V30 2390 C 223.284 0.924618 -1.71685 0
M  V30 2391 O 222.554 1.65268 -1.05183 0
M  V30 2392 H 221.134 -0.194194 -0.721317 0
M  V30 2393 H 223.796 -1.15294 -1.57141 0
M  V30 2394 H 222.892 -0.72059 -3.03667 0
M  V30 2395 N 223.193 1.4272 -0.668489 0
M  V30 2396 C 224.14 2.30796 0.0137489 0
M  V30 2397 C 225.11 1.4561 0.799177 0
M  V30 2398 O 226.295 1.74453 0.772702 0
M  V30 2399 C 223.435 3.31377 0.963507 0
M  V30 2400 C 222.548 4.31655 0.172569 0
M  V30 2401 C 221.683 5.19312 1.1175 0
M  V30 2402 C 220.722 6.11274 0.317886 0
M  V30 2403 N 219.859 6.91504 1.2152 0
M  V30 2404 H 224.699 2.88585 -0.743161 0
M  V30 2405 H 222.236 1.42154 -0.378226 0
M  V30 2406 H 224.194 3.88214 1.52792 0
M  V30 2407 H 222.824 2.75202 1.68712 0
M  V30 2408 H 221.876 3.76988 -0.508374 0
M  V30 2409 H 223.188 4.96779 -0.448527 0
M  V30 2410 H 222.342 5.80851 1.75206 0
M  V30 2411 H 221.081 4.5435 1.77249 0
M  V30 2412 H 220.086 5.48809 -0.329918 0
M  V30 2413 H 221.311 6.78283 -0.332917 0
M  V30 2414 H 219.257 6.29176 1.85671 0
M  V30 2415 H 219.174 7.53209 0.649036 0
M  V30 2416 H 220.442 7.57535 1.83742 0
M  V30 2417 N 224.671 0.411399 1.52136 0
M  V30 2418 C 225.948 -0.222308 1.94333 0
M  V30 2419 C 226.328 -1.6242 1.34844 0
M  V30 2420 O 225.676 -2.22384 0.525145 0
M  V30 2421 C 225.886 -0.226345 3.48265 0
M  V30 2422 C 227.234 -0.444592 4.22266 0
M  V30 2423 O 228.258 -0.305602 3.54887 0
M  V30 2424 O 227.117 -0.718749 5.41753 0
M  V30 2425 H 224.211 -0.143907 0.814383 0
M  V30 2426 H 226.757 0.467506 1.63133 0
M  V30 2427 H 225.529 0.75475 3.83952 0
M  V30 2428 H 225.152 -0.960163 3.85832 0
M  V30 2429 N 226.149 -1.5696 0.141893 0
M  V30 2430 C 227.096 -2.16501 -0.799737 0
M  V30 2431 C 228.066 -1.09643 -1.24771 0
M  V30 2432 O 229.251 -1.3766 -1.32115 0
M  V30 2433 C 226.391 -2.78679 -2.03549 0
M  V30 2434 C 225.504 -3.99914 -1.6338 0
M  V30 2435 C 224.639 -4.50106 -2.82096 0
M  V30 2436 C 223.678 -5.63819 -2.38275 0
M  V30 2437 N 222.815 -6.08651 -3.49983 0
M  V30 2438 H 227.655 -2.96632 -0.285179 0
M  V30 2439 H 225.192 -1.46533 -0.129053 0
M  V30 2440 H 227.15 -3.1287 -2.75986 0
M  V30 2441 H 225.78 -2.012 -2.52425 0
M  V30 2442 H 224.832 -3.71735 -0.807279 0
M  V30 2443 H 226.144 -4.82311 -1.27192 0
M  V30 2444 H 225.298 -4.86325 -3.62729 0
M  V30 2445 H 224.037 -3.66706 -3.21525 0
M  V30 2446 H 223.042 -5.2718 -1.56081 0
M  V30 2447 H 224.267 -6.49 -1.99938 0
M  V30 2448 H 222.213 -5.28188 -3.89042 0
M  V30 2449 H 222.13 -6.85961 -3.17794 0
M  V30 2450 H 223.398 -6.49515 -4.30988 0
M  V30 2451 N 227.627 0.131896 -1.57047 0
M  V30 2452 C 229.043 0.485031 -1.52051 0
M  V30 2453 C 229.243 1.82563 -0.85281 0
M  V30 2454 O 228.299 2.48817 -0.429694 0
M  V30 2455 C 229.612 0.481409 -2.96821 0
M  V30 2456 C 231.16 0.565868 -3.07842 0
M  V30 2457 C 231.635 0.592762 -4.54148 0
M  V30 2458 N 233.126 0.654564 -4.58552 0
M  V30 2459 C 233.861 0.696608 -5.69153 0
M  V30 2460 N 233.357 0.697078 -6.89284 0
M  V30 2461 N 235.15 0.738639 -5.57226 0
M  V30 2462 H 227.301 -0.746664 -1.98843 0
M  V30 2463 H 229.564 -0.273999 -0.90754 0
M  V30 2464 H 229.27 -0.435731 -3.4899 0
M  V30 2465 H 229.144 1.3139 -3.53577 0
M  V30 2466 H 231.531 1.47343 -2.55684 0
M  V30 2467 H 231.612 -0.29406 -2.54104 0
M  V30 2468 H 231.256 -0.310701 -5.06949 0
M  V30 2469 H 231.186 1.46939 -5.05684 0
M  V30 2470 H 233.677 0.660887 -3.72076 0
M  V30 2471 H 233.99 0.731426 -7.69331 0
M  V30 2472 H 232.335 0.66471 -6.91814 0
M  V30 2473 H 235.526 0.735545 -4.62285 0
M  V30 2474 H 235.699 0.767938 -6.43434 0
M  V30 2475 N 229.106 1.52395 0.401703 0
M  V30 2476 C 230.036 1.79231 1.49661 0
M  V30 2477 C 231.017 0.643654 1.57452 0
M  V30 2478 O 232.202 0.889989 1.72606 0
M  V30 2479 C 229.332 1.94971 2.87409 0
M  V30 2480 C 228.286 3.10604 2.94465 0
M  V30 2481 C 227.612 3.11577 4.34538 0
M  V30 2482 C 228.912 4.49921 2.6527 0
M  V30 2483 H 230.606 2.70917 1.27454 0
M  V30 2484 H 228.152 1.30362 0.6117 0
M  V30 2485 H 230.105 2.12328 3.63999 0
M  V30 2486 H 228.829 0.999632 3.10926 0
M  V30 2487 H 227.488 2.93009 2.20321 0
M  V30 2488 H 227.136 2.14277 4.55076 0
M  V30 2489 H 226.836 3.89247 4.40183 0
M  V30 2490 H 228.36 3.31073 5.13053 0
M  V30 2491 H 229.774 4.67683 3.31581 0
M  V30 2492 H 228.171 5.29564 2.82281 0
M  V30 2493 H 229.241 4.57507 1.60671 0
M  V30 2494 N 230.584 -0.659388 1.43143 0
M  V30 2495 C 231.83 -1.41984 1.45644 0
M  V30 2496 C 232.185 -1.92245 0.0771718 0
M  V30 2497 O 231.478 -1.68976 -0.903205 0
M  V30 2498 C 231.672 -2.62206 2.42864 0
M  V30 2499 C 231.501 -2.23711 3.90107 0
M  V30 2500 C 230.271 -2.12332 4.58523 0
M  V30 2501 C 232.469 -1.84384 4.80112 0
M  V30 2502 N 230.451 -1.67102 5.9072 0
M  V30 2503 C 231.822 -1.5019 6.01534 0
M  V30 2504 C 233.877 -1.71512 4.67427 0
M  V30 2505 C 232.58 -1.04414 7.11681 0
M  V30 2506 C 234.606 -1.27142 5.77572 0
M  V30 2507 C 233.968 -0.938808 6.98116 0
M  V30 2508 H 230.067 -0.515448 0.588079 0
M  V30 2509 H 232.651 -0.759409 1.79279 0
M  V30 2510 H 230.822 -3.25917 2.11265 0
M  V30 2511 H 232.554 -3.28877 2.35843 0
M  V30 2512 H 229.309 -2.31893 4.12944 0
M  V30 2513 H 229.733 -1.46866 6.60878 0
M  V30 2514 H 234.375 -1.95868 3.74694 0
M  V30 2515 H 232.093 -0.788061 8.04248 0
M  V30 2516 H 235.679 -1.17681 5.69774 0
M  V30 2517 H 234.559 -0.6007 7.81896 0
M  V30 2518 N 232.062 -1.29571 -0.897171 0
M  V30 2519 C 233.01 -1.14802 -2.02295 0
M  V30 2520 C 234.004 -0.0629637 -1.69283 0
M  V30 2521 O 235.21 -0.222945 -1.78614 0
M  V30 2522 H 231.585 -0.354692 -0.663097 0
M  V30 2523 H 233.556 -2.10108 -2.11889 0
M  V30 2524 C 232.305 -0.843966 -3.37302 0
M  V30 2525 H 231.628 -1.67093 -3.63208 0
M  V30 2526 H 233.068 -0.780672 -4.16751 0
M  V30 2527 C 231.527 0.452843 -3.33843 0
M  V30 2528 O 232.057 1.47813 -3.73516 0
M  V30 2529 N 230.263 0.459601 -2.86943 0
M  V30 2530 H 229.81 -0.375213 -2.54853 0
M  V30 2531 H 229.768 1.32726 -2.85011 0
M  V30 2532 N 233.54 1.10788 -1.12088 0
M  V30 2533 C 234.765 1.87002 -0.896949 0
M  V30 2534 C 235.19 1.79933 0.548261 0
M  V30 2535 O 234.548 1.16662 1.38779 0
M  V30 2536 C 234.596 3.3349 -1.37174 0
M  V30 2537 O 233.7 4.08745 -0.547831 0
M  V30 2538 H 233.041 0.580397 -0.322545 0
M  V30 2539 H 235.571 1.39996 -1.49206 0
M  V30 2540 H 235.581 3.84339 -1.36922 0
M  V30 2541 H 234.256 3.37951 -2.42408 0
M  V30 2542 H 232.833 3.6776 -0.617034 0
M  V30 2543 N 235.018 0.912232 1.28515 0
M  V30 2544 C 235.981 0.404223 2.25607 0
M  V30 2545 C 236.981 -0.468602 1.53821 0
M  V30 2546 O 238.171 -0.271873 1.72065 0
M  V30 2547 C 235.303 -0.420653 3.38295 0
M  V30 2548 H 236.496 1.26188 2.7206 0
M  V30 2549 H 234.049 0.691495 1.40171 0
M  V30 2550 H 234.784 -1.29777 2.97201 0
M  V30 2551 H 234.569 0.204935 3.91564 0
M  V30 2552 H 236.059 -0.766971 4.10496 0
M  V30 2553 N 236.496 -1.42363 0.676048 0
M  V30 2554 C 237.724 -2.05859 0.207268 0
M  V30 2555 C 238.139 -1.50796 -1.13605 0
M  V30 2556 O 237.496 -0.648265 -1.70598 0
M  V30 2557 C 237.547 -3.61248 0.134975 0
M  V30 2558 O 237.268 -4.1427 1.42521 0
M  V30 2559 C 238.769 -4.41859 -0.357151 0
M  V30 2560 H 235.989 -0.663431 0.100503 0
M  V30 2561 H 238.533 -1.82479 0.923136 0
M  V30 2562 H 236.688 -3.83735 -0.531588 0
M  V30 2563 H 237.102 -5.0815 1.29939 0
M  V30 2564 H 238.576 -5.50847 -0.356641 0
M  V30 2565 H 239.053 -4.16536 -1.39264 0
M  V30 2566 H 239.659 -4.24392 0.27772 0
M  V30 2567 N 237.974 -0.419461 -1.51915 0
M  V30 2568 C 239.202 0.152136 -2.0634 0
M  V30 2569 C 239.617 1.37988 -1.28859 0
M  V30 2570 O 238.974 1.79243 -0.343232 0
M  V30 2571 C 239.025 0.492266 -3.58133 0
M  V30 2572 O 238.746 -0.686736 -4.32684 0
M  V30 2573 C 240.247 1.11648 -4.2901 0
M  V30 2574 H 237.467 0.0158325 -0.670813 0
M  V30 2575 H 240.011 -0.593394 -1.95702 0
M  V30 2576 H 238.166 1.18769 -3.68745 0
M  V30 2577 H 238.58 -0.400341 -5.2297 0
M  V30 2578 H 240.054 1.3046 -5.36362 0
M  V30 2579 H 240.531 2.09251 -3.86148 0
M  V30 2580 H 241.137 0.460958 -4.22795 0
M  V30 2581 N 239.452 1.56882 -0.150215 0
M  V30 2582 C 240.677 2.01027 0.510184 0
M  V30 2583 C 241.102 1.02966 1.57415 0
M  V30 2584 O 240.46 0.00590158 1.81299 0
M  V30 2585 C 240.508 3.43899 1.08472 0
M  V30 2586 O 239.612 3.4885 2.19948 0
M  V30 2587 H 238.953 0.652233 0.124451 0
M  V30 2588 H 241.483 2.03093 -0.247894 0
M  V30 2589 H 241.493 3.82766 1.41259 0
M  V30 2590 H 240.168 4.14776 0.305582 0
M  V30 2591 H 238.745 3.21827 1.88366 0
M  V30 2592 N 240.93 -0.123565 1.57115 0
M  V30 2593 C 242.178 -0.83051 1.84247 0
M  V30 2594 C 242.499 -1.80629 0.73471 0
M  V30 2595 O 241.769 -1.94403 -0.241688 0
M  V30 2596 H 240.349 -0.309694 0.679778 0
M  V30 2597 H 243.011 -0.111976 1.94578 0
M  V30 2598 H 242.107 -1.37852 2.80006 0
M  V30 2599 N 242.408 -1.52605 -0.393616 0
M  V30 2600 C 243.636 -1.71294 -1.16043 0
M  V30 2601 C 244.051 -0.429259 -1.83855 0
M  V30 2602 O 243.408 0.595921 -1.72496 0
M  V30 2603 C 243.459 -2.8593 -2.21193 0
M  V30 2604 O 243.18 -4.09329 -1.56146 0
M  V30 2605 C 244.681 -3.16259 -3.10636 0
M  V30 2606 H 241.901 -0.573641 -0.348104 0
M  V30 2607 H 244.445 -1.99234 -0.461092 0
M  V30 2608 H 242.6 -2.60465 -2.86769 0
M  V30 2609 H 243.014 -4.73323 -2.25978 0
M  V30 2610 H 244.488 -3.99946 -3.80456 0
M  V30 2611 H 244.965 -2.3045 -3.73884 0
M  V30 2612 H 245.571 -3.43547 -2.50711 0
M  V30 2613 N 243.887 0.651787 -1.4349 0
M  V30 2614 C 244.834 1.76462 -1.4876 0
M  V30 2615 C 245.804 1.62641 -0.337189 0
M  V30 2616 O 246.989 1.82864 -0.544544 0
M  V30 2617 C 244.129 3.14623 -1.41796 0
M  V30 2618 C 243.242 3.39568 -2.67053 0
M  V30 2619 C 242.377 4.67585 -2.52068 0
M  V30 2620 C 241.416 4.85639 -3.72587 0
M  V30 2621 N 240.553 6.04915 -3.56402 0
M  V30 2622 H 245.393 1.71293 -2.43849 0
M  V30 2623 H 242.93 0.835889 -1.21043 0
M  V30 2624 H 244.888 3.94496 -1.35753 0
M  V30 2625 H 243.518 3.18859 -0.50288 0
M  V30 2626 H 242.57 2.53783 -2.8337 0
M  V30 2627 H 243.882 3.48795 -3.56572 0
M  V30 2628 H 243.036 5.55586 -2.4374 0
M  V30 2629 H 241.775 4.60681 -1.60075 0
M  V30 2630 H 240.78 3.96073 -3.81321 0
M  V30 2631 H 242.005 4.94372 -4.65589 0
M  V30 2632 H 239.951 5.9914 -2.67146 0
M  V30 2633 H 239.868 6.15106 -4.39524 0
M  V30 2634 H 241.136 6.95533 -3.51929 0
M  V30 2635 N 245.365 1.30045 0.890287 0
M  V30 2636 C 246.642 1.09227 1.62262 0
M  V30 2637 C 247.022 -0.360305 2.08002 0
M  V30 2638 O 246.37 -1.35084 1.84295 0
M  V30 2639 C 246.58 2.08835 2.79623 0
M  V30 2640 C 247.928 2.40266 3.50082 0
M  V30 2641 O 248.952 2.07104 2.89804 0
M  V30 2642 O 247.811 2.96967 4.58773 0
M  V30 2643 H 244.905 0.419132 0.712922 0
M  V30 2644 H 247.451 1.41451 0.937529 0
M  V30 2645 H 246.223 3.06633 2.43089 0
M  V30 2646 H 245.846 1.77397 3.55832 0
M  V30 2647 N 246.843 -1.10192 1.12674 0
M  V30 2648 C 248.089 -1.82658 0.894847 0
M  V30 2649 C 248.444 -1.83666 -0.573107 0
M  V30 2650 O 247.737 -1.28816 -1.41835 0
M  V30 2651 C 247.931 -3.28552 1.4067 0
M  V30 2652 C 247.76 -3.41756 2.92289 0
M  V30 2653 C 246.53 -3.54021 3.60551 0
M  V30 2654 C 248.728 -3.34949 3.90274 0
M  V30 2655 N 246.71 -3.55827 5.0026 0
M  V30 2656 C 248.081 -3.43531 5.16127 0
M  V30 2657 C 250.136 -3.18565 3.8265 0
M  V30 2658 C 248.839 -3.37416 6.3525 0
M  V30 2659 C 250.865 -3.13772 5.01299 0
M  V30 2660 C 250.227 -3.22938 6.26012 0
M  V30 2661 H 246.326 -0.683044 0.380756 0
M  V30 2662 H 248.91 -1.31752 1.43351 0
M  V30 2663 H 247.081 -3.77946 0.895055 0
M  V30 2664 H 248.813 -3.88991 1.11661 0
M  V30 2665 H 245.568 -3.57135 3.1105 0
M  V30 2666 H 245.992 -3.60335 5.73138 0
M  V30 2667 H 250.634 -3.10354 2.87124 0
M  V30 2668 H 248.352 -3.44391 7.3104 0
M  V30 2669 H 251.938 -3.02242 4.97133 0
M  V30 2670 H 250.818 -3.19235 7.16281 0
M  V30 2671 N 248.321 -0.919034 -1.28029 0
M  V30 2672 C 249.253 -0.368762 -2.26214 0
M  V30 2673 C 250.266 0.495716 -1.55069 0
M  V30 2674 O 251.455 0.30974 -1.75792 0
M  V30 2675 C 248.555 0.491049 -3.35324 0
M  V30 2676 C 247.728 -0.352133 -4.3598 0
M  V30 2677 C 246.787 0.443622 -5.24327 0
M  V30 2678 O 245.813 -0.14566 -5.69014 0
M  V30 2679 N 247.015 1.74545 -5.53637 0
M  V30 2680 H 249.78 -1.21273 -2.74068 0
M  V30 2681 H 247.341 -0.785541 -1.41566 0
M  V30 2682 H 249.333 1.03026 -3.91366 0
M  V30 2683 H 247.903 1.23574 -2.87138 0
M  V30 2684 H 247.123 -1.07269 -3.79324 0
M  V30 2685 H 248.411 -0.928883 -5.00249 0
M  V30 2686 H 247.809 2.24666 -5.19174 0
M  V30 2687 H 246.366 2.23138 -6.12416 0
M  V30 2688 N 249.799 1.42003 -0.683588 0
M  V30 2689 C 251.027 2.05746 -0.218182 0
M  V30 2690 C 251.442 1.51396 1.12804 0
M  V30 2691 O 250.799 0.657303 1.70252 0
M  V30 2692 C 250.85 3.61171 -0.154131 0
M  V30 2693 O 250.571 4.13508 -1.44716 0
M  V30 2694 C 252.072 4.42042 0.333713 0
M  V30 2695 H 249.292 0.662888 -0.10402 0
M  V30 2696 H 251.836 1.81987 -0.9328 0
M  V30 2697 H 249.991 3.84012 0.511231 0
M  V30 2698 H 250.405 5.07453 -1.32632 0
M  V30 2699 H 251.879 5.51028 0.327423 0
M  V30 2700 H 252.356 4.17269 1.37053 0
M  V30 2701 H 252.962 4.24239 -0.300222 0
M  V30 2702 N 251.277 0.427512 1.51691 0
M  V30 2703 C 252.526 -0.143679 2.01188 0
M  V30 2704 C 252.839 -1.44642 1.31674 0
M  V30 2705 O 254.045 -2.09997 1.72086 0
M  V30 2706 C 252.501 -0.306602 3.58592 0
M  V30 2707 C 252.109 0.985125 4.37035 0
M  V30 2708 C 253.853 -0.832091 4.16265 0
M  V30 2709 C 251.76 0.788382 5.86122 0
M  V30 2710 H 250.69 -0.0574701 0.751807 0
M  V30 2711 H 253.341 0.555772 1.74881 0
M  V30 2712 H 251.723 -1.06882 3.81303 0
M  V30 2713 H 252.897 1.75492 4.26074 0
M  V30 2714 H 251.212 1.4384 3.90767 0
M  V30 2715 H 253.809 -0.995617 5.25349 0
M  V30 2716 H 254.152 -1.81186 3.74803 0
M  V30 2717 H 254.685 -0.128444 3.97593 0
M  V30 2718 H 251.424 1.74025 6.31978 0
M  V30 2719 H 250.944 0.0582143 5.99772 0
M  V30 2720 H 252.623 0.437722 6.45518 0
M  V30 2721 N 252.755 -1.56801 0.158532 0
M  V30 2722 C 253.665 -2.20916 -0.789518 0
M  V30 2723 C 254.681 -1.1969 -1.26294 0
M  V30 2724 O 255.857 -1.52308 -1.31773 0
M  V30 2725 C 252.922 -2.82727 -2.00665 0
M  V30 2726 C 251.983 -3.99114 -1.58134 0
M  V30 2727 C 251.216 -4.57968 -2.74045 0
M  V30 2728 O 251.439 -4.15704 -3.90572 0
M  V30 2729 O 250.373 -5.48047 -2.48855 0
M  V30 2730 H 254.199 -3.02464 -0.273681 0
M  V30 2731 H 251.784 -1.4924 -0.0690548 0
M  V30 2732 H 253.666 -3.21968 -2.71872 0
M  V30 2733 H 252.341 -2.04184 -2.51179 0
M  V30 2734 H 251.248 -3.64567 -0.839155 0
M  V30 2735 H 252.581 -4.79212 -1.12325 0
M  V30 2736 N 254.233 0.115231 -1.57178 0
M  V30 2737 C 255.196 1.12526 -1.99676 0
M  V30 2738 C 256.196 1.34095 -0.88742 0
M  V30 2739 O 257.386 1.30548 -1.15337 0
M  V30 2740 C 254.518 2.4789 -2.34015 0
M  V30 2741 H 255.711 0.759912 -2.90113 0
M  V30 2742 H 253.264 0.359648 -1.52106 0
M  V30 2743 H 253.999 2.89339 -1.4647 0
M  V30 2744 H 253.784 2.33588 -3.14927 0
M  V30 2745 H 255.274 3.20575 -2.67622 0
M  V30 2746 N 255.711 1.52812 0.385517 0
M  V30 2747 C 256.988 1.5861 1.14465 0
M  V30 2748 C 257.368 0.381402 2.07626 0
M  V30 2749 O 256.716 -0.629999 2.19643 0
M  V30 2750 C 256.926 2.92664 1.90128 0
M  V30 2751 C 258.274 3.46526 2.45367 0
M  V30 2752 O 259.298 2.94562 2.0028 0
M  V30 2753 O 258.157 4.37323 3.27736 0
M  V30 2754 H 255.251 0.639855 0.523941 0
M  V30 2755 H 257.797 1.65149 0.390389 0
M  V30 2756 H 256.569 3.71788 1.22022 0
M  V30 2757 H 256.192 2.89527 2.72507 0
M  V30 2758 N 257.189 -0.644168 1.43834 0
M  V30 2759 C 258.419 -1.42939 1.49171 0
M  V30 2760 C 258.827 -1.88874 0.111048 0
M  V30 2761 O 258.17 -1.60656 -0.8908 0
M  V30 2762 C 258.232 -2.69151 2.38324 0
M  V30 2763 C 257.896 -2.45097 3.85715 0
M  V30 2764 C 258.893 -2.07747 4.76589 0
M  V30 2765 C 256.578 -2.59141 4.30292 0
M  V30 2766 C 258.572 -1.8475 6.10038 0
M  V30 2767 C 256.259 -2.35759 5.63792 0
M  V30 2768 C 257.257 -1.9862 6.53482 0
M  V30 2769 O 256.945 -1.75489 7.84512 0
M  V30 2770 H 256.677 -0.445271 0.508635 0
M  V30 2771 H 259.231 -0.79621 1.8934 0
M  V30 2772 H 257.461 -3.3506 1.93058 0
M  V30 2773 H 259.15 -3.31123 2.3476 0
M  V30 2774 H 259.916 -1.96465 4.43426 0
M  V30 2775 H 255.795 -2.87022 3.60749 0
M  V30 2776 H 259.339 -1.55686 6.80006 0
M  V30 2777 H 255.236 -2.46646 5.9652 0
M  V30 2778 H 256.004 -1.89841 7.9618 0
M  V30 2779 N 258.668 -1.30515 -0.883378 0
M  V30 2780 C 259.893 -1.22487 -1.67367 0
M  V30 2781 C 260.318 0.208767 -1.86938 0
M  V30 2782 O 259.676 1.15015 -1.40148 0
M  V30 2783 C 259.724 -1.96041 -3.02655 0
M  V30 2784 O 258.828 -1.28859 -3.91751 0
M  V30 2785 H 258.169 -0.423573 -0.511353 0
M  V30 2786 H 260.699 -1.72362 -1.10239 0
M  V30 2787 H 260.709 -2.05124 -3.52687 0
M  V30 2788 H 259.384 -3.00307 -2.8773 0
M  V30 2789 H 257.961 -1.28141 -3.50192 0
M  V30 2790 N 260.146 1.09593 -1.13257 0
M  V30 2791 C 261.557 1.63229 -0.906274 0
M  V30 2792 C 261.908 1.8811 0.557578 0
M  V30 2793 O 261.033 1.62953 1.42391 0
M  V30 2794 C 261.628 2.96535 -1.63867 0
M  V30 2795 C 260.187 3.47003 -1.45828 0
M  V30 2796 C 259.334 2.2145 -1.66898 0
M  V30 2797 H 262.285 0.92978 -1.28611 0
M  V30 2798 H 262.306 3.64411 -1.09476 0
M  V30 2799 H 261.818 2.78394 -2.70404 0
M  V30 2800 H 259.919 3.70272 -0.415848 0
M  V30 2801 H 260.032 4.24551 -2.2202 0
M  V30 2802 H 258.396 2.30022 -1.09371 0
M  V30 2803 H 259.179 2.0583 -2.74752 0
M  V30 2804 N 261.624 0.925811 1.2754 0
M  V30 2805 C 262.852 0.581509 1.9856 0
M  V30 2806 C 263.267 -0.840041 1.69082 0
M  V30 2807 O 262.624 -1.55805 0.950312 0
M  V30 2808 C 262.675 0.795589 3.52637 0
M  V30 2809 O 262.396 2.16121 3.81082 0
M  V30 2810 C 263.897 0.459744 4.4091 0
M  V30 2811 H 261.117 0.220538 0.633722 0
M  V30 2812 H 263.661 1.24232 1.6244 0
M  V30 2813 H 261.816 0.18161 3.86974 0
M  V30 2814 H 262.23 2.2098 4.75676 0
M  V30 2815 H 263.704 0.660244 5.48037 0
M  V30 2816 H 264.181 -0.604625 4.35018 0
M  V30 2817 H 264.787 1.05178 4.12089 0
M  V30 2818 N 263.102 -1.41638 0.69111 0
M  V30 2819 C 264.032 -2.3347 0.037248 0
M  V30 2820 C 265.013 -1.51575 -0.771947 0
M  V30 2821 O 266.198 -1.80126 -0.72582 0
M  V30 2822 C 263.328 -3.35354 -0.903064 0
M  V30 2823 C 262.282 -4.27526 -0.201288 0
M  V30 2824 C 261.608 -5.19747 -1.25565 0
M  V30 2825 C 262.908 -5.13959 0.929689 0
M  V30 2826 H 264.602 -2.88397 0.804227 0
M  V30 2827 H 262.148 -1.38669 0.388189 0
M  V30 2828 H 264.101 -3.98519 -1.36969 0
M  V30 2829 H 262.825 -2.78767 -1.70166 0
M  V30 2830 H 261.484 -3.65779 0.245265 0
M  V30 2831 H 261.132 -4.59479 -2.04666 0
M  V30 2832 H 260.832 -5.8225 -0.791128 0
M  V30 2833 H 262.356 -5.85789 -1.72288 0
M  V30 2834 H 263.77 -5.70718 0.543546 0
M  V30 2835 H 262.167 -5.85379 1.32103 0
M  V30 2836 H 263.237 -4.51389 1.77133 0
M  V30 2837 N 264.58 -0.43555 -1.51462 0
M  V30 2838 C 265.857 0.191364 -1.94662 0
M  V30 2839 C 266.237 1.60254 -1.37411 0
M  V30 2840 O 265.585 2.2152 -0.560458 0
M  V30 2841 C 265.795 0.17091 -3.48581 0
M  V30 2842 C 267.143 0.377357 -4.2292 0
M  V30 2843 O 268.167 0.249104 -3.55328 0
M  V30 2844 O 267.026 0.63247 -5.42828 0
M  V30 2845 H 264.12 0.130932 -0.816569 0
M  V30 2846 H 266.666 -0.4934 -1.62369 0
M  V30 2847 H 265.438 -0.815738 -3.82703 0
M  V30 2848 H 265.061 0.898659 -3.87311 0
M  V30 2849 N 266.058 1.56714 -0.166846 0
M  V30 2850 C 267.304 1.97039 0.479962 0
M  V30 2851 C 267.637 1.05264 1.63197 0
M  V30 2852 O 266.912 0.0988833 1.94248 0
M  V30 2853 C 267.195 3.46867 0.967212 0
M  V30 2854 C 267.048 4.49421 -0.18466 0
M  V30 2855 C 268.367 3.9968 1.84238 0
M  V30 2856 H 265.486 0.71641 0.172992 0
M  V30 2857 H 268.128 1.8832 -0.252079 0
M  V30 2858 H 266.278 3.54428 1.59101 0
M  V30 2859 H 267.95 4.53924 -0.821621 0
M  V30 2860 H 266.193 4.25573 -0.840837 0
M  V30 2861 H 266.864 5.51644 0.198317 0
M  V30 2862 H 269.34 3.94723 1.31655 0
M  V30 2863 H 268.216 5.04941 2.15234 0
M  V30 2864 H 268.477 3.43226 2.78654 0
M  V30 2865 N 267.536 -0.106894 1.57237 0
M  V30 2866 C 268.813 -0.843526 1.76477 0
M  V30 2867 C 269.193 -1.97499 0.745464 0
M  V30 2868 O 268.541 -2.27357 -0.228306 0
M  V30 2869 C 268.751 -1.34903 3.21873 0
M  V30 2870 C 270.099 -1.79654 3.8472 0
M  V30 2871 O 271.123 -1.44554 3.2555 0
M  V30 2872 O 269.982 -2.44515 4.88748 0
M  V30 2873 H 267.076 -0.401468 0.723016 0
M  V30 2874 H 269.622 -0.0896927 1.69463 0
M  V30 2875 H 268.394 -0.53781 3.87586 0
M  V30 2876 H 268.017 -2.16522 3.33473 0
M  V30 2877 N 269.014 -1.53014 -0.377408 0
M  V30 2878 C 269.961 -1.78616 -1.46168 0
M  V30 2879 C 270.931 -0.629917 -1.53692 0
M  V30 2880 O 272.116 -0.870861 -1.69766 0
M  V30 2881 C 269.256 -1.97123 -2.8326 0
M  V30 2882 C 268.369 -3.24831 -2.84796 0
M  V30 2883 C 267.504 -3.33591 -4.13389 0
M  V30 2884 C 266.543 -4.55377 -4.09021 0
M  V30 2885 N 265.68 -4.61355 -5.29241 0
M  V30 2886 H 270.52 -2.71142 -1.23637 0
M  V30 2887 H 268.057 -1.34326 -0.599577 0
M  V30 2888 H 270.015 -2.05839 -3.62886 0
M  V30 2889 H 268.645 -1.07946 -3.04216 0
M  V30 2890 H 267.697 -3.25128 -1.97474 0
M  V30 2891 H 269.009 -4.14523 -2.77439 0
M  V30 2892 H 268.163 -3.41554 -5.01424 0
M  V30 2893 H 266.902 -2.41894 -4.23484 0
M  V30 2894 H 265.907 -4.47527 -3.19373 0
M  V30 2895 H 267.132 -5.48402 -4.00539 0
M  V30 2896 H 265.078 -3.72554 -5.39944 0
M  V30 2897 H 264.995 -5.44935 -5.24006 0
M  V30 2898 H 266.263 -4.73586 -6.19141 0
M  V30 2899 N 270.492 0.636531 -1.44174 0
M  V30 2900 C 271.741 1.39213 -1.45954 0
M  V30 2901 C 272.054 1.95374 -0.0939119 0
M  V30 2902 O 273.26 2.71498 0.0107767 0
M  V30 2903 C 271.716 2.52025 -2.56927 0
M  V30 2904 C 271.324 2.024 -3.99673 0
M  V30 2905 C 273.068 3.29269 -2.67922 0
M  V30 2906 C 270.975 3.12521 -5.0208 0
M  V30 2907 H 269.905 0.523132 -0.542999 0
M  V30 2908 H 272.556 0.685349 -1.70221 0
M  V30 2909 H 270.938 3.25253 -2.25891 0
M  V30 2910 H 272.112 1.36073 -4.40251 0
M  V30 2911 H 270.427 1.37987 -3.92872 0
M  V30 2912 H 273.024 4.11352 -3.41605 0
M  V30 2913 H 273.367 3.78397 -1.73555 0
M  V30 2914 H 273.9 2.63129 -2.98342 0
M  V30 2915 H 270.639 2.68343 -5.98057 0
M  V30 2916 H 270.159 3.77507 -4.66099 0
M  V30 2917 H 271.838 3.77385 -5.25538 0
M  V30 2918 N 271.97 1.30982 0.876444 0
M  V30 2919 C 272.917 1.18085 1.98304 0
M  V30 2920 C 273.887 0.0682263 1.6596 0
M  V30 2921 O 275.072 0.239937 1.89285 0
M  V30 2922 C 272.212 0.887475 3.33493 0
M  V30 2923 C 271.325 2.08281 3.78475 0
M  V30 2924 C 270.46 1.72678 5.0235 0
M  V30 2925 C 269.499 2.88657 5.39762 0
M  V30 2926 N 268.636 2.53292 6.54819 0
M  V30 2927 H 273.476 2.1275 2.08666 0
M  V30 2928 H 271.013 1.05839 1.02159 0
M  V30 2929 H 272.971 0.697961 4.1132 0
M  V30 2930 H 271.601 -0.022315 3.22792 0
M  V30 2931 H 270.653 2.3833 2.96484 0
M  V30 2932 H 271.965 2.95108 4.02135 0
M  V30 2933 H 271.119 1.50151 5.87826 0
M  V30 2934 H 269.858 0.830327 4.8058 0
M  V30 2935 H 268.863 3.1184 4.52809 0
M  V30 2936 H 270.088 3.79002 5.63502 0
M  V30 2937 H 268.034 1.66163 6.34607 0
M  V30 2938 H 267.951 3.3365 6.7839 0
M  V30 2939 H 269.219 2.34143 7.43503 0
M  V30 2940 N 273.449 -1.08991 1.13837 0
M  V30 2941 C 274.379 -2.17771 0.842507 0
M  V30 2942 C 275.36 -1.6892 -0.20001 0
M  V30 2943 O 276.545 -1.94113 -0.0579731 0
M  V30 2944 C 273.675 -3.4589 0.312644 0
M  V30 2945 C 272.629 -4.08099 1.28992 0
M  V30 2946 C 271.955 -5.31098 0.619623 0
M  V30 2947 C 273.255 -4.50077 2.65005 0
M  V30 2948 H 274.949 -2.42777 1.75213 0
M  V30 2949 H 272.495 -1.16682 0.843875 0
M  V30 2950 H 274.448 -4.21297 0.0933043 0
M  V30 2951 H 273.172 -3.20419 -0.632382 0
M  V30 2952 H 271.831 -3.34717 1.49533 0
M  V30 2953 H 271.479 -5.0191 -0.33102 0
M  V30 2954 H 271.179 -5.73674 1.27167 0
M  V30 2955 H 272.703 -6.09224 0.409669 0
M  V30 2956 H 274.117 -5.16688 2.48407 0
M  V30 2957 H 272.514 -5.03553 3.26427 0
M  V30 2958 H 273.584 -3.62257 3.22332 0
M  V30 2959 N 274.927 -0.932562 -1.27047 0
M  V30 2960 C 275.837 -0.441219 -2.30414 0
M  V30 2961 C 276.853 0.480525 -1.67233 0
M  V30 2962 O 278.029 0.362151 -1.98117 0
M  V30 2963 C 275.094 0.293651 -3.45454 0
M  V30 2964 C 274.155 -0.663601 -4.2414 0
M  V30 2965 C 273.388 0.0362932 -5.33688 0
M  V30 2966 O 273.611 1.2548 -5.56427 0
M  V30 2967 O 272.545 -0.638015 -5.98509 0
M  V30 2968 H 276.371 -1.29962 -2.74488 0
M  V30 2969 H 273.956 -0.6981 -1.32087 0
M  V30 2970 H 275.838 0.707951 -4.15411 0
M  V30 2971 H 274.513 1.12758 -3.03426 0
M  V30 2972 H 273.42 -1.12768 -3.56699 0
M  V30 2973 H 274.753 -1.46489 -4.69896 0
M  V30 2974 N 276.405 1.4127 -0.698611 0
M  V30 2975 C 277.335 2.33447 -0.049629 0
M  V30 2976 C 278.316 1.51982 0.763898 0
M  V30 2977 O 279.501 1.80509 0.716257 0
M  V30 2978 C 276.631 3.35828 0.885267 0
M  V30 2979 C 275.585 4.27627 0.178613 0
M  V30 2980 C 274.911 5.20406 1.22807 0
M  V30 2981 C 276.211 5.13459 -0.956933 0
M  V30 2982 H 277.905 2.87966 -0.81951 0
M  V30 2983 H 275.451 1.38461 -0.395538 0
M  V30 2984 H 277.404 3.9924 1.34854 0
M  V30 2985 H 276.128 2.79666 1.68685 0
M  V30 2986 H 274.787 3.65643 -0.26466 0
M  V30 2987 H 274.435 4.60558 2.02226 0
M  V30 2988 H 274.135 5.82661 0.760239 0
M  V30 2989 H 275.659 5.86695 1.69179 0
M  V30 2990 H 277.073 5.70421 -0.573805 0
M  V30 2991 H 275.47 5.8467 -1.35205 0
M  V30 2992 H 276.54 4.50443 -1.79524 0
M  V30 2993 N 277.883 0.443576 1.51229 0
M  V30 2994 C 279.13 -0.120796 2.02139 0
M  V30 2995 C 279.458 -1.42166 1.32736 0
M  V30 2996 O 278.713 -1.90849 0.43301 0
M  V30 2997 C 279.012 -0.380579 3.55368 0
M  V30 2998 C 278.678 0.83523 4.43097 0
M  V30 2999 C 277.34 1.16864 4.66794 0
M  V30 3000 C 279.692 1.64601 4.94526 0
M  V30 3001 C 277.02 2.31339 5.39165 0
M  V30 3002 C 279.372 2.78181 5.68153 0
M  V30 3003 C 278.036 3.11969 5.90112 0
M  V30 3004 H 277.306 -0.0442023 0.73968 0
M  V30 3005 H 279.953 0.592046 1.82118 0
M  V30 3006 H 278.258 -1.17538 3.73754 0
M  V30 3007 H 279.955 -0.830777 3.923 0
M  V30 3008 H 276.545 0.565437 4.24854 0
M  V30 3009 H 280.729 1.40163 4.76097 0
M  V30 3010 H 275.985 2.57823 5.5438 0
M  V30 3011 H 280.159 3.41371 6.06992 0
M  V30 3012 H 277.786 4.00784 6.45969 0
M  V30 3013 N 279.361 -1.56624 0.175154 0
M  V30 3014 C 280.591 -2.01082 -0.474283 0
M  V30 3015 C 280.999 -1.05447 -1.57091 0
M  V30 3016 O 280.342 -0.0480595 -1.83637 0
M  V30 3017 C 280.404 -3.41963 -1.10911 0
M  V30 3018 C 280.068 -4.56742 -0.153666 0
M  V30 3019 C 281.065 -5.16076 0.629448 0
M  V30 3020 C 278.75 -5.02277 -0.0483776 0
M  V30 3021 C 280.744 -6.19377 1.50501 0
M  V30 3022 C 278.431 -6.05427 0.830768 0
M  V30 3023 C 279.429 -6.63849 1.60605 0
M  V30 3024 O 279.117 -7.64998 2.47049 0
M  V30 3025 H 278.849 -0.664261 -0.125432 0
M  V30 3026 H 281.403 -2.03549 0.275163 0
M  V30 3027 H 279.633 -3.36422 -1.90676 0
M  V30 3028 H 281.322 -3.70352 -1.66114 0
M  V30 3029 H 282.088 -4.81776 0.558297 0
M  V30 3030 H 277.967 -4.56513 -0.641611 0
M  V30 3031 H 281.511 -6.64906 2.1106 0
M  V30 3032 H 277.408 -6.39151 0.903107 0
M  V30 3033 H 278.176 -7.82336 2.40607 0
M  V30 3034 N 280.839 0.0985539 -1.57292 0
M  V30 3035 C 281.749 1.13824 -2.05137 0
M  V30 3036 C 282.765 1.44076 -0.975604 0
M  V30 3037 O 283.941 1.54786 -1.28853 0
M  V30 3038 C 281.006 2.43969 -2.46333 0
M  V30 3039 C 280.067 2.2093 -3.68087 0
M  V30 3040 C 279.3 3.44869 -4.0731 0
M  V30 3041 O 279.523 4.52972 -3.46659 0
M  V30 3042 O 278.457 3.34661 -5.00285 0
M  V30 3043 H 282.283 0.761881 -2.93988 0
M  V30 3044 H 279.868 0.310818 -1.46131 0
M  V30 3045 H 281.75 3.20609 -2.73473 0
M  V30 3046 H 280.425 2.81038 -1.60621 0
M  V30 3047 H 279.332 1.42081 -3.46069 0
M  V30 3048 H 280.665 1.88755 -4.54568 0
M  V30 3049 N 282.317 1.53212 0.369288 0
M  V30 3050 C 283.545 1.73119 1.13303 0
M  V30 3051 C 283.96 0.458455 1.83149 0
M  V30 3052 O 283.317 -0.568403 1.73423 0
M  V30 3053 C 283.368 2.89413 2.16616 0
M  V30 3054 O 283.089 4.11761 1.49614 0
M  V30 3055 C 284.59 3.21161 3.05566 0
M  V30 3056 H 281.81 0.579107 0.338934 0
M  V30 3057 H 284.354 1.99942 0.429338 0
M  V30 3058 H 282.509 2.64994 2.82589 0
M  V30 3059 H 282.923 4.76858 2.18419 0
M  V30 3060 H 284.397 4.05949 3.74045 0
M  V30 3061 H 284.874 2.36369 3.70171 0
M  V30 3062 H 285.48 3.47492 2.45213 0
M  V30 3063 N 283.795 -0.628877 1.44509 0
M  V30 3064 C 285.043 -1.38565 1.4712 0
M  V30 3065 C 285.364 -1.94712 0.105899 0
M  V30 3066 O 284.634 -1.75912 -0.862079 0
M  V30 3067 H 283.214 -0.514333 0.541729 0
M  V30 3068 H 285.876 -0.740018 1.80305 0
M  V30 3069 H 284.972 -2.21583 2.19789 0
M  V30 3070 N 285.273 -1.31445 -0.869486 0
M  V30 3071 C 286.501 -1.24122 -1.65534 0
M  V30 3072 C 286.916 0.193387 -1.87807 0
M  V30 3073 O 286.273 1.12557 -1.43656 0
M  V30 3074 C 286.324 -1.98229 -3.02304 0
M  V30 3075 O 286.045 -3.3609 -2.81026 0
M  V30 3076 C 287.546 -1.97751 -3.96749 0
M  V30 3077 H 284.766 -0.428868 -0.516055 0
M  V30 3078 H 287.31 -1.73328 -1.08525 0
M  V30 3079 H 285.465 -1.52782 -3.56001 0
M  V30 3080 H 285.879 -3.7383 -3.67902 0
M  V30 3081 H 287.353 -2.54114 -4.90031 0
M  V30 3082 H 287.83 -0.960137 -4.28577 0
M  V30 3083 H 288.436 -2.43079 -3.48988 0
M  V30 3084 N 286.751 1.08385 -1.14413 0
M  V30 3085 C 287.999 1.80419 -0.910679 0
M  V30 3086 C 288.32 1.86658 0.564243 0
M  V30 3087 O 287.59 1.35985 1.41014 0
M  V30 3088 H 286.17 0.668204 -0.333934 0
M  V30 3089 H 288.832 1.31037 -1.44275 0
M  V30 3090 H 287.928 2.83238 -1.31082 0
M  V30 3091 N 288.23 0.939286 1.26551 0
M  V30 3092 C 289.458 0.602536 1.97932 0
M  V30 3093 C 289.873 -0.82206 1.69964 0
M  V30 3094 O 289.23 -1.54789 0.966784 0
M  V30 3095 C 289.281 0.832946 3.51773 0
M  V30 3096 O 289.002 2.20151 3.78768 0
M  V30 3097 C 290.503 0.506483 4.40397 0
M  V30 3098 H 287.723 0.227248 0.631347 0
M  V30 3099 H 290.267 1.25948 1.61113 0
M  V30 3100 H 288.422 0.222644 3.8676 0
M  V30 3101 H 288.836 2.26013 4.73306 0
M  V30 3102 H 290.31 0.718333 5.47306 0
M  V30 3103 H 290.787 -0.558451 4.35635 0
M  V30 3104 H 291.393 1.09543 4.10951 0
M  V30 3105 N 289.708 -1.40897 0.706093 0
M  V30 3106 C 290.954 -2.01352 0.241889 0
M  V30 3107 C 291.287 -1.55832 -1.15888 0
M  V30 3108 O 290.562 -0.774145 -1.7843 0
M  V30 3109 C 290.845 -3.58752 0.311311 0
M  V30 3110 C 290.698 -4.1437 1.74978 0
M  V30 3111 C 292.017 -4.38914 -0.322922 0
M  V30 3112 H 289.136 -0.731562 0.0893687 0
M  V30 3113 H 291.778 -1.67504 0.896802 0
M  V30 3114 H 289.928 -3.87718 -0.246302 0
M  V30 3115 H 291.6 -3.96239 2.36205 0
M  V30 3116 H 289.843 -3.69016 2.28057 0
M  V30 3117 H 290.514 -5.23532 1.74981 0
M  V30 3118 H 292.99 -4.15822 0.152089 0
M  V30 3119 H 291.866 -5.48358 -0.243855 0
M  V30 3120 H 292.127 -4.19176 -1.40513 0
M  V30 3121 N 291.186 -0.45159 -1.50991 0
M  V30 3122 C 292.411 0.110667 -2.07105 0
M  V30 3123 C 292.836 1.3446 -1.31538 0
M  V30 3124 O 292.194 1.77743 -0.357365 0
M  V30 3125 C 292.242 0.397238 -3.58405 0
M  V30 3126 O 291.346 1.48124 -3.84881 0
M  V30 3127 H 290.687 -0.00439271 -0.663985 0
M  V30 3128 H 293.217 -0.637026 -1.9443 0
M  V30 3129 H 293.227 0.64351 -4.02893 0
M  V30 3130 H 291.902 -0.504553 -4.12828 0
M  V30 3131 H 290.479 1.22381 -3.52246 0
M  V30 3132 N 292.664 1.56529 -0.183458 0
M  V30 3133 C 293.911 1.97244 0.458357 0
M  V30 3134 C 294.239 1.06992 1.62428 0
M  V30 3135 O 293.494 0.106542 1.9541 0
M  V30 3136 C 293.793 3.43939 0.971637 0
M  V30 3137 C 293.459 4.5083 -0.0796784 0
M  V30 3138 C 292.121 4.79786 -0.368584 0
M  V30 3139 C 294.473 5.15138 -0.792638 0
M  V30 3140 C 291.801 5.70345 -1.37563 0
M  V30 3141 C 294.153 6.06784 -1.78875 0
M  V30 3142 C 292.817 6.34102 -2.08497 0
M  V30 3143 H 292.087 0.721768 0.167725 0
M  V30 3144 H 294.734 1.89472 -0.277976 0
M  V30 3145 H 293.039 3.48724 1.78602 0
M  V30 3146 H 294.736 3.72791 1.47744 0
M  V30 3147 H 291.326 4.28317 0.155668 0
M  V30 3148 H 295.51 4.92868 -0.582659 0
M  V30 3149 H 290.766 5.89789 -1.61118 0
M  V30 3150 H 294.94 6.55677 -2.3465 0
M  V30 3151 H 292.567 7.04074 -2.86678 0
M  V30 3152 N 294.142 -0.090211 1.57342 0
M  V30 3153 C 295.089 -1.10909 2.02405 0
M  V30 3154 C 296.059 -1.39523 0.901252 0
M  V30 3155 O 297.244 -1.50903 1.1676 0
M  V30 3156 C 294.384 -2.42277 2.45755 0
M  V30 3157 C 293.497 -2.20352 3.71576 0
M  V30 3158 C 292.632 -3.45154 4.03785 0
M  V30 3159 C 291.671 -3.18512 5.22701 0
M  V30 3160 N 290.808 -4.35593 5.50639 0
M  V30 3161 H 295.648 -0.71782 2.89225 0
M  V30 3162 H 293.185 -0.342901 1.43048 0
M  V30 3163 H 295.143 -3.18951 2.68935 0
M  V30 3164 H 293.773 -2.79242 1.61938 0
M  V30 3165 H 292.825 -1.34458 3.55844 0
M  V30 3166 H 294.137 -1.96661 4.58395 0
M  V30 3167 H 293.291 -4.30233 4.27767 0
M  V30 3168 H 292.03 -3.71904 3.15498 0
M  V30 3169 H 291.035 -2.31827 4.98534 0
M  V30 3170 H 292.26 -2.93103 6.12591 0
M  V30 3171 H 290.206 -4.6241 4.6531 0
M  V30 3172 H 290.123 -4.1511 6.31838 0
M  V30 3173 H 291.391 -5.21723 5.7916 0
M  V30 3174 N 295.62 -1.53406 -0.361157 0
M  V30 3175 C 296.897 -1.60411 -1.11927 0
M  V30 3176 C 297.277 -0.414385 -2.06993 0
M  V30 3177 O 296.625 0.594976 -2.20618 0
M  V30 3178 C 296.835 -2.95652 -1.85448 0
M  V30 3179 C 298.183 -3.50386 -2.39823 0
M  V30 3180 O 299.207 -2.97711 -1.95568 0
M  V30 3181 O 298.066 -4.42482 -3.20737 0
M  V30 3182 H 295.16 -0.64811 -0.513695 0
M  V30 3183 H 297.706 -1.65749 -0.364065 0
M  V30 3184 H 296.478 -3.73682 -1.16091 0
M  V30 3185 H 296.101 -2.93825 -2.67866 0
M  V30 3186 N 297.098 0.621204 -1.44841 0
M  V30 3187 C 298.347 1.37658 -1.47422 0
M  V30 3188 C 298.66 1.95264 -0.114629 0
M  V30 3189 O 299.866 2.71494 -0.0180199 0
M  V30 3190 C 298.322 2.49285 -2.59586 0
M  V30 3191 C 297.93 1.98149 -4.01797 0
M  V30 3192 C 299.674 3.26409 -2.71399 0
M  V30 3193 C 297.581 3.07178 -5.05367 0
M  V30 3194 H 296.511 0.517344 -0.548517 0
M  V30 3195 H 299.162 0.667257 -1.70938 0
M  V30 3196 H 297.544 3.22839 -2.29328 0
M  V30 3197 H 298.718 1.31395 -4.41669 0
M  V30 3198 H 297.033 1.33812 -3.94314 0
M  V30 3199 H 299.63 4.07706 -3.45948 0
M  V30 3200 H 299.973 3.76535 -1.77559 0
M  V30 3201 H 300.506 2.5995 -3.01116 0
M  V30 3202 H 297.245 2.61985 -6.00869 0
M  V30 3203 H 296.765 3.72542 -4.70077 0
M  V30 3204 H 298.444 3.71789 -5.29511 0
M  V30 3205 N 298.576 1.31904 0.862503 0
M  V30 3206 C 299.486 1.22161 2.00285 0
M  V30 3207 C 300.502 0.136785 1.73462 0
M  V30 3208 O 301.678 0.355994 1.98229 0
M  V30 3209 C 298.743 0.937093 3.33796 0
M  V30 3210 C 297.804 2.10957 3.73893 0
M  V30 3211 C 297.037 1.83853 5.01033 0
M  V30 3212 O 297.26 0.777274 5.65079 0
M  V30 3213 O 296.194 2.69741 5.38074 0
M  V30 3214 H 300.02 2.18008 2.11439 0
M  V30 3215 H 297.605 1.11716 0.991957 0
M  V30 3216 H 299.487 0.794583 4.13841 0
M  V30 3217 H 298.162 0.00871894 3.23699 0
M  V30 3218 H 297.069 2.30752 2.94456 0
M  V30 3219 H 298.402 3.02046 3.88625 0
M  V30 3220 N 300.054 -1.07777 1.14986 0
M  V30 3221 C 300.984 -2.16865 0.865557 0
M  V30 3222 C 301.965 -1.69123 -0.182083 0
M  V30 3223 O 303.15 -1.94164 -0.0373815 0
M  V30 3224 C 300.28 -3.45539 0.349313 0
M  V30 3225 C 299.234 -4.06708 1.33313 0
M  V30 3226 C 298.56 -5.30411 0.675918 0
M  V30 3227 C 299.86 -4.47241 2.69764 0
M  V30 3228 H 301.554 -2.40905 1.77778 0
M  V30 3229 H 299.1 -1.15781 0.856203 0
M  V30 3230 H 301.053 -4.21174 0.137983 0
M  V30 3231 H 299.777 -3.21072 -0.598362 0
M  V30 3232 H 298.436 -3.33112 1.53075 0
M  V30 3233 H 298.084 -5.02232 -0.277767 0
M  V30 3234 H 297.784 -5.72293 1.33244 0
M  V30 3235 H 299.308 -6.08755 0.474262 0
M  V30 3236 H 300.722 -5.14025 2.53873 0
M  V30 3237 H 299.119 -5.00062 3.3175 0
M  V30 3238 H 300.189 -3.58818 3.26156 0
M  V30 3239 N 301.532 -0.945985 -1.26051 0
M  V30 3240 C 302.778 -0.597002 -1.93814 0
M  V30 3241 C 303.111 0.862484 -1.73997 0
M  V30 3242 O 302.386 1.61769 -1.07986 0
M  V30 3243 C 302.669 -0.945937 -3.47454 0
M  V30 3244 C 302.522 -2.46052 -3.76535 0
M  V30 3245 C 303.841 -0.464785 -4.37639 0
M  V30 3246 H 300.96 -0.218366 -0.703907 0
M  V30 3247 H 303.602 -1.18107 -1.48831 0
M  V30 3248 H 301.752 -0.448902 -3.85898 0
M  V30 3249 H 303.424 -3.03065 -3.47778 0
M  V30 3250 H 301.667 -2.90194 -3.22444 0
M  V30 3251 H 302.338 -2.65517 -4.83947 0
M  V30 3252 H 304.814 -0.891016 -4.06448 0
M  V30 3253 H 303.69 -0.737712 -5.4392 0
M  V30 3254 H 303.951 0.635274 -4.37512 0
M  V30 3255 N 303.011 1.40521 -0.713556 0
M  V30 3256 C 303.921 2.34522 -0.0606667 0
M  V30 3257 C 304.937 1.57193 0.74607 0
M  V30 3258 O 306.113 1.89591 0.679493 0
M  V30 3259 C 303.178 3.36081 0.851491 0
M  V30 3260 C 302.239 4.29286 0.0349339 0
M  V30 3261 C 301.472 5.25994 0.903649 0
M  V30 3262 O 301.695 5.28616 2.14292 0
M  V30 3263 O 300.629 6.00918 0.343723 0
M  V30 3264 H 304.455 2.91968 -0.835972 0
M  V30 3265 H 302.04 1.41681 -0.47402 0
M  V30 3266 H 303.922 3.98369 1.37404 0
M  V30 3267 H 302.597 2.81052 1.60598 0
M  V30 3268 H 301.504 3.70289 -0.532633 0
M  V30 3269 H 302.837 4.87462 -0.681287 0
M  V30 3270 N 304.489 0.459591 1.5075 0
M  V30 3271 C 305.735 -0.0994966 2.02556 0
M  V30 3272 C 306.068 -1.40399 1.3417 0
M  V30 3273 O 305.343 -1.88892 0.463683 0
M  V30 3274 C 305.626 -0.295242 3.58888 0
M  V30 3275 C 305.479 1.02947 4.37861 0
M  V30 3276 C 306.798 -1.05502 4.27267 0
M  V30 3277 H 303.917 -0.034686 0.736183 0
M  V30 3278 H 306.559 0.602938 1.8018 0
M  V30 3279 H 304.709 -0.893563 3.78084 0
M  V30 3280 H 306.381 1.66348 4.30263 0
M  V30 3281 H 304.624 1.62885 4.02058 0
M  V30 3282 H 305.295 0.846281 5.45474 0
M  V30 3283 H 307.771 -0.547993 4.12476 0
M  V30 3284 H 306.647 -1.16077 5.36486 0
M  V30 3285 H 306.908 -2.08875 3.89645 0
M  V30 3286 N 305.967 -1.56429 0.191757 0
M  V30 3287 C 306.93 -2.17707 -0.716688 0
M  V30 3288 C 307.93 -1.13061 -1.14341 0
M  V30 3289 O 309.12 -1.38464 -1.05704 0
M  V30 3290 C 306.252 -2.77644 -1.97804 0
M  V30 3291 H 307.445 -2.99342 -0.1829 0
M  V30 3292 H 304.998 -1.56193 -0.0578566 0
M  V30 3293 H 305.733 -1.99799 -2.55443 0
M  V30 3294 H 305.518 -3.54246 -1.68083 0
M  V30 3295 H 307.008 -3.24708 -2.62592 0
M  V30 3296 N 307.445 0.0818655 -1.57387 0
M  V30 3297 C 308.722 0.815343 -1.77796 0
M  V30 3298 C 309.102 1.96289 -0.77679 0
M  V30 3299 O 308.45 2.27691 0.192106 0
M  V30 3300 C 308.66 1.29765 -3.23978 0
M  V30 3301 C 310.008 1.7351 -3.8753 0
M  V30 3302 O 311.032 1.39356 -3.27808 0
M  V30 3303 O 309.891 2.36708 -4.92576 0
M  V30 3304 H 306.985 0.389914 -0.729312 0
M  V30 3305 H 309.531 0.0627213 -1.69584 0
M  V30 3306 H 308.303 0.47608 -3.88393 0
M  V30 3307 H 307.926 2.11189 -3.36875 0
M  V30 3308 N 308.923 1.53595 0.353017 0
M  V30 3309 C 309.855 1.77219 1.45348 0
M  V30 3310 C 310.868 0.65324 1.49119 0
M  V30 3311 O 312.057 0.929775 1.52373 0
M  V30 3312 C 309.157 1.84841 2.84055 0
M  V30 3313 C 308.33 3.14649 3.03833 0
M  V30 3314 C 307.389 3.13351 4.22727 0
M  V30 3315 O 306.415 3.87107 4.17297 0
M  V30 3316 N 307.617 2.35052 5.30783 0
M  V30 3317 H 310.382 2.72178 1.25457 0
M  V30 3318 H 307.943 1.52528 0.542833 0
M  V30 3319 H 309.935 1.81435 3.61751 0
M  V30 3320 H 308.505 0.971114 2.97133 0
M  V30 3321 H 307.725 3.31256 2.13689 0
M  V30 3322 H 309.013 4.00411 3.13925 0
M  V30 3323 H 308.411 1.74663 5.38061 0
M  V30 3324 H 306.968 2.37453 6.07009 0
M  V30 3325 N 310.401 -0.613514 1.45168 0
M  V30 3326 C 311.331 -1.7354 1.56225 0
M  V30 3327 C 312.312 -1.64981 0.41414 0
M  V30 3328 O 313.497 -1.83472 0.636526 0
M  V30 3329 C 310.627 -3.12128 1.52295 0
M  V30 3330 C 309.581 -3.35491 2.65762 0
M  V30 3331 C 308.907 -4.74291 2.46885 0
M  V30 3332 C 310.207 -3.26325 4.0781 0
M  V30 3333 H 311.901 -1.64543 2.50132 0
M  V30 3334 H 309.447 -0.790185 1.20383 0
M  V30 3335 H 311.4 -3.90404 1.58628 0
M  V30 3336 H 310.124 -3.2195 0.549139 0
M  V30 3337 H 308.783 -2.59603 2.58847 0
M  V30 3338 H 308.431 -4.80839 1.47657 0
M  V30 3339 H 308.131 -4.9088 3.22972 0
M  V30 3340 H 309.655 -5.54775 2.55063 0
M  V30 3341 H 311.069 -3.94483 4.16 0
M  V30 3342 H 309.466 -3.54445 4.8424 0
M  V30 3343 H 310.536 -2.23855 4.30136 0
M  V30 3344 N 311.879 -1.3236 -0.855495 0
M  V30 3345 C 313.104 -1.2601 -1.64731 0
M  V30 3346 C 313.529 0.169068 -1.87339 0
M  V30 3347 O 312.887 1.12016 -1.42556 0
M  V30 3348 C 312.935 -2.02417 -2.98429 0
M  V30 3349 O 312.039 -1.3714 -3.8893 0
M  V30 3350 H 311.38 -0.434325 -0.502253 0
M  V30 3351 H 313.91 -1.74661 -1.06558 0
M  V30 3352 H 313.92 -2.12559 -3.48257 0
M  V30 3353 H 312.595 -3.06343 -2.81295 0
M  V30 3354 H 311.172 -1.3554 -3.47395 0
M  V30 3355 N 313.357 1.07166 -1.15556 0
M  V30 3356 C 314.267 2.17947 -0.868116 0
M  V30 3357 C 315.283 1.73297 0.156297 0
M  V30 3358 O 316.459 2.01392 -0.0182327 0
M  V30 3359 C 313.524 3.44789 -0.36355 0
M  V30 3360 C 312.585 4.03996 -1.45209 0
M  V30 3361 C 311.818 5.24783 -0.971508 0
M  V30 3362 O 312.041 5.70109 0.182194 0
M  V30 3363 O 310.975 5.75715 -1.75603 0
M  V30 3364 H 314.801 2.4503 -1.79427 0
M  V30 3365 H 312.386 1.16539 -0.934824 0
M  V30 3366 H 314.268 4.21307 -0.0887113 0
M  V30 3367 H 312.943 3.19253 0.534708 0
M  V30 3368 H 311.85 3.29009 -1.78056 0
M  V30 3369 H 313.183 4.33808 -2.32533 0
M  V30 3370 N 314.835 0.952656 1.25548 0
M  V30 3371 C 316.112 0.523818 1.88456 0
M  V30 3372 C 316.492 -0.998871 1.85973 0
M  V30 3373 O 315.84 -1.86381 1.3219 0
M  V30 3374 C 316.05 1.0982 3.31271 0
M  V30 3375 C 317.398 1.17385 4.08051 0
M  V30 3376 O 318.422 1.04961 3.40384 0
M  V30 3377 O 317.281 1.36852 5.29088 0
M  V30 3378 H 314.375 0.172485 0.808813 0
M  V30 3379 H 316.921 1.04596 1.33633 0
M  V30 3380 H 315.693 2.1415 3.27499 0
M  V30 3381 H 315.316 0.559191 3.93648 0
M  V30 3382 N 316.313 -1.40141 0.720998 0
M  V30 3383 C 317.538 -2.05618 0.271258 0
M  V30 3384 C 317.963 -1.53978 -1.08039 0
M  V30 3385 O 317.321 -0.677463 -1.68167 0
M  V30 3386 C 317.369 -3.59609 0.267197 0
M  V30 3387 O 316.473 -4.05526 -0.749814 0
M  V30 3388 H 315.814 -0.651904 0.126162 0
M  V30 3389 H 318.344 -1.79439 0.982997 0
M  V30 3390 H 318.354 -4.0786 0.106744 0
M  V30 3391 H 317.029 -3.96559 1.25354 0
M  V30 3392 H 315.606 -3.68722 -0.556644 0
M  V30 3393 N 317.792 -0.46758 -1.50504 0
M  V30 3394 C 318.724 0.364655 -2.26281 0
M  V30 3395 C 319.737 0.960151 -1.31472 0
M  V30 3396 O 320.926 0.849153 -1.57008 0
M  V30 3397 C 318.026 1.52509 -3.02645 0
M  V30 3398 C 317.199 1.04302 -4.24782 0
M  V30 3399 C 316.258 2.07709 -4.8347 0
M  V30 3400 O 315.284 1.65913 -5.44483 0
M  V30 3401 N 316.486 3.40485 -4.70159 0
M  V30 3402 H 319.251 -0.28495 -2.98342 0
M  V30 3403 H 316.812 -0.298163 -1.59131 0
M  V30 3404 H 318.804 2.21371 -3.38787 0
M  V30 3405 H 317.374 2.07945 -2.33404 0
M  V30 3406 H 316.594 0.180393 -3.93787 0
M  V30 3407 H 317.882 0.698798 -5.03978 0
M  V30 3408 H 317.28 3.77155 -4.21629 0
M  V30 3409 H 315.837 4.05156 -5.1058 0
M  V30 3410 N 319.27 1.56325 -0.20005 0
M  V30 3411 C 320.498 2.02105 0.442874 0
M  V30 3412 C 320.913 1.08014 1.5485 0
M  V30 3413 O 320.27 0.0858797 1.82298 0
M  V30 3414 C 320.321 3.47549 0.994583 0
M  V30 3415 O 320.042 4.38049 -0.0669322 0
M  V30 3416 C 321.543 4.0887 1.7129 0
M  V30 3417 H 318.763 0.661807 0.110691 0
M  V30 3418 H 321.307 2.02134 -0.310207 0
M  V30 3419 H 319.462 3.48204 1.69803 0
M  V30 3420 H 319.876 5.23368 0.344462 0
M  V30 3421 H 321.35 5.12475 2.05118 0
M  V30 3422 H 321.827 3.52615 2.61838 0
M  V30 3423 H 322.433 4.12002 1.05518 0
M  V30 3424 N 320.748 -0.0735177 1.57428 0
M  V30 3425 C 322.025 -0.805903 1.78226 0
M  V30 3426 C 322.405 -1.95874 0.787189 0
M  V30 3427 O 321.753 -2.2779 -0.180029 0
M  V30 3428 C 321.963 -1.28045 3.24662 0
M  V30 3429 C 323.311 -1.71453 3.88444 0
M  V30 3430 O 324.335 -1.37616 3.28543 0
M  V30 3431 O 323.194 -2.34093 4.93825 0
M  V30 3432 H 320.288 -0.386041 0.73137 0
M  V30 3433 H 322.834 -0.0537269 1.69615 0
M  V30 3434 H 321.606 -0.455476 3.8864 0
M  V30 3435 H 321.229 -2.094 3.37991 0
M  V30 3436 N 322.226 -1.5378 -0.344866 0
M  V30 3437 C 323.173 -1.81676 -1.42346 0
M  V30 3438 C 324.143 -0.662376 -1.52321 0
M  V30 3439 O 325.328 -0.906675 -1.67881 0
M  V30 3440 C 322.468 -2.03087 -2.79015 0
M  V30 3441 C 321.581 -3.30799 -2.77842 0
M  V30 3442 C 320.716 -3.42285 -4.0622 0
M  V30 3443 C 319.755 -4.6395 -3.9927 0
M  V30 3444 N 318.892 -4.72477 -5.19336 0
M  V30 3445 H 323.732 -2.73703 -1.17858 0
M  V30 3446 H 321.269 -1.35568 -0.570949 0
M  V30 3447 H 323.227 -2.1349 -3.58438 0
M  V30 3448 H 321.857 -1.14375 -3.01858 0
M  V30 3449 H 320.909 -3.29244 -1.90533 0
M  V30 3450 H 322.221 -4.20314 -2.68584 0
M  V30 3451 H 321.375 -3.52113 -4.94066 0
M  V30 3452 H 320.114 -2.50823 -4.18258 0
M  V30 3453 H 319.119 -4.54201 -3.09809 0
M  V30 3454 H 320.344 -5.56775 -3.88817 0
M  V30 3455 H 318.29 -3.83924 -5.3192 0
M  V30 3456 H 318.207 -5.55927 -5.12329 0
M  V30 3457 H 319.475 -4.86613 -6.08957 0
M  V30 3458 N 323.704 0.605807 -1.45491 0
M  V30 3459 C 324.636 1.73031 -1.5031 0
M  V30 3460 C 325.649 1.57968 -0.393687 0
M  V30 3461 O 326.838 1.65817 -0.660839 0
M  V30 3462 C 323.938 3.11049 -1.34543 0
M  V30 3463 C 323.111 3.52334 -2.59189 0
M  V30 3464 C 322.17 4.69323 -2.37954 0
M  V30 3465 O 321.196 4.7635 -3.11575 0
M  V30 3466 N 322.398 5.62705 -1.4263 0
M  V30 3467 H 325.163 1.6936 -2.4726 0
M  V30 3468 H 322.724 0.79114 -1.41254 0
M  V30 3469 H 324.716 3.87071 -1.18144 0
M  V30 3470 H 323.286 3.09217 -0.458623 0
M  V30 3471 H 322.506 2.66256 -2.90691 0
M  V30 3472 H 323.794 3.76677 -3.42041 0
M  V30 3473 H 323.192 5.59744 -0.818758 0
M  V30 3474 H 321.749 6.38252 -1.32202 0
M  V30 3475 N 325.182 1.32811 0.848464 0
M  V30 3476 C 326.112 1.24882 1.97299 0
M  V30 3477 C 327.093 0.131357 1.69592 0
M  V30 3478 O 328.278 0.319553 1.91553 0
M  V30 3479 C 325.408 0.97746 3.33261 0
M  V30 3480 C 324.362 2.05682 3.75338 0
M  V30 3481 C 323.688 1.63777 5.09 0
M  V30 3482 C 324.988 3.47254 3.90144 0
M  V30 3483 H 326.682 2.18966 2.04191 0
M  V30 3484 H 324.228 1.05413 0.981029 0
M  V30 3485 H 326.181 0.908513 4.1149 0
M  V30 3486 H 324.905 0.000980011 3.266 0
M  V30 3487 H 323.564 2.11603 2.99366 0
M  V30 3488 H 323.212 0.648569 4.98801 0
M  V30 3489 H 322.912 2.36 5.38124 0
M  V30 3490 H 324.436 1.5833 5.89715 0
M  V30 3491 H 325.85 3.43888 4.58709 0
M  V30 3492 H 324.247 4.1788 4.30693 0
M  V30 3493 H 325.317 3.86462 2.92874 0
M  V30 3494 N 326.66 -1.06551 1.16123 0
M  V30 3495 C 327.57 -2.17484 0.879662 0
M  V30 3496 C 328.586 -1.73377 -0.147104 0
M  V30 3497 O 329.762 -2.01379 0.0289128 0
M  V30 3498 C 326.827 -3.44591 0.381829 0
M  V30 3499 C 325.888 -4.0322 1.4735 0
M  V30 3500 C 325.121 -5.24261 0.999324 0
M  V30 3501 O 325.344 -5.70198 -0.151957 0
M  V30 3502 O 324.278 -5.74775 1.78653 0
M  V30 3503 H 328.104 -2.44075 1.80724 0
M  V30 3504 H 325.689 -1.16042 0.940992 0
M  V30 3505 H 327.571 -4.21254 0.111053 0
M  V30 3506 H 326.246 -3.19532 -0.51777 0
M  V30 3507 H 325.153 -3.2806 1.79798 0
M  V30 3508 H 326.486 -4.32568 2.34831 0
M  V30 3509 N 328.138 -0.959301 -1.25041 0
M  V30 3510 C 329.048 -0.489994 -2.29426 0
M  V30 3511 C 330.064 0.444944 -1.68215 0
M  V30 3512 O 331.24 0.320046 -1.98841 0
M  V30 3513 C 328.305 0.220309 -3.45999 0
M  V30 3514 C 327.366 -0.753418 -4.22637 0
M  V30 3515 C 326.599 -0.076918 -5.33645 0
M  V30 3516 O 326.822 1.13649 -5.58963 0
M  V30 3517 O 325.756 -0.764824 -5.97021 0
M  V30 3518 H 329.582 -1.35755 -2.71669 0
M  V30 3519 H 327.167 -0.725961 -1.30576 0
M  V30 3520 H 329.049 0.619677 -4.16819 0
M  V30 3521 H 327.724 1.06296 -3.0575 0
M  V30 3522 H 326.631 -1.20308 -3.54227 0
M  V30 3523 H 327.964 -1.56423 -4.66683 0
M  V30 3524 N 329.616 1.39756 -0.72842 0
M  V30 3525 C 330.563 2.30647 -0.0841519 0
M  V30 3526 C 331.533 1.48869 0.7367 0
M  V30 3527 O 332.718 1.77574 0.698015 0
M  V30 3528 C 329.858 3.35165 0.822091 0
M  V30 3529 C 328.971 4.31999 -0.0106663 0
M  V30 3530 C 328.106 5.23585 0.896241 0
M  V30 3531 C 327.145 6.12072 0.0583381 0
M  V30 3532 N 326.282 6.96035 0.920818 0
M  V30 3533 H 331.122 2.85173 -0.864891 0
M  V30 3534 H 328.659 1.40422 -0.438179 0
M  V30 3535 H 330.617 3.94345 1.36189 0
M  V30 3536 H 329.247 2.8211 1.56888 0
M  V30 3537 H 328.299 3.74492 -0.66781 0
M  V30 3538 H 329.611 4.9443 -0.658825 0
M  V30 3539 H 328.765 5.87759 1.50412 0
M  V30 3540 H 327.504 4.61459 1.57819 0
M  V30 3541 H 326.509 5.46916 -0.562389 0
M  V30 3542 H 327.734 6.76261 -0.6203 0
M  V30 3543 H 325.68 6.36485 1.58818 0
M  V30 3544 H 325.597 7.55284 0.32899 0
M  V30 3545 H 326.865 7.64646 1.51447 0
M  V30 3546 N 331.094 0.475555 1.50254 0
M  V30 3547 C 332.343 -0.0795996 2.01543 0
M  V30 3548 C 332.656 -1.4038 1.36209 0
M  V30 3549 O 333.862 -2.04415 1.7868 0
M  V30 3550 C 332.318 -0.192363 3.59386 0
M  V30 3551 C 331.926 1.12367 4.33679 0
M  V30 3552 C 333.67 -0.699238 4.18701 0
M  V30 3553 C 331.577 0.974453 5.83317 0
M  V30 3554 H 330.507 -0.0335228 0.753254 0
M  V30 3555 H 333.158 0.611128 1.73025 0
M  V30 3556 H 331.54 -0.946974 3.84511 0
M  V30 3557 H 332.714 1.88958 4.20276 0
M  V30 3558 H 331.029 1.562 3.85993 0
M  V30 3559 H 333.626 -0.827978 5.28251 0
M  V30 3560 H 333.969 -1.69171 3.80377 0
M  V30 3561 H 334.502 -0.00188807 3.978 0
M  V30 3562 H 331.241 1.94042 6.26121 0
M  V30 3563 H 330.761 0.248998 5.99283 0
M  V30 3564 H 332.44 0.642867 6.43798 0
M  V30 3565 N 332.573 -1.56217 0.208337 0
M  V30 3566 C 333.85 -1.89739 -0.475234 0
M  V30 3567 C 334.23 -1.1238 -1.78701 0
M  V30 3568 O 333.578 -0.228979 -2.2735 0
M  V30 3569 C 333.788 -3.42289 -0.681101 0
M  V30 3570 C 335.136 -4.12789 -0.994507 0
M  V30 3571 O 336.16 -3.47814 -0.768357 0
M  V30 3572 O 335.019 -5.27649 -1.42299 0
M  V30 3573 H 332.113 -0.788478 -0.249461 0
M  V30 3574 H 334.659 -1.67855 0.249538 0
M  V30 3575 H 333.431 -3.90534 0.244722 0
M  V30 3576 H 333.054 -3.69909 -1.45785 0
M  V30 3577 N 334.051 0.0651679 -1.57465 0
M  V30 3578 C 334.981 1.07693 -2.07182 0
M  V30 3579 C 335.962 1.39962 -0.966673 0
M  V30 3580 O 337.147 1.49475 -1.2398 0
M  V30 3581 C 334.277 2.3885 -2.52127 0
M  V30 3582 C 333.231 2.20917 -3.66579 0
M  V30 3583 C 332.557 3.57515 -3.97601 0
M  V30 3584 C 333.857 1.62493 -4.9638 0
M  V30 3585 H 335.551 0.663199 -2.91962 0
M  V30 3586 H 333.097 0.317569 -1.40455 0
M  V30 3587 H 335.05 3.09928 -2.85522 0
M  V30 3588 H 333.774 2.82215 -1.64384 0
M  V30 3589 H 332.433 1.52279 -3.33477 0
M  V30 3590 H 332.081 3.98463 -3.06979 0
M  V30 3591 H 331.781 3.46353 -4.74672 0
M  V30 3592 H 333.305 4.30013 -4.33499 0
M  V30 3593 H 334.719 2.23445 -5.27963 0
M  V30 3594 H 333.116 1.62009 -5.77818 0
M  V30 3595 H 334.186 0.587041 -4.81333 0
M  V30 3596 N 335.529 1.53961 0.336706 0
M  V30 3597 C 336.94 1.62914 0.911925 0
M  V30 3598 C 337.291 0.514795 1.89326 0
M  V30 3599 O 336.416 -0.354395 2.13478 0
M  V30 3600 C 337.011 2.95304 1.66076 0
M  V30 3601 C 335.57 3.06496 2.18489 0
M  V30 3602 C 334.717 2.58403 1.00613 0
M  V30 3603 H 337.668 1.58285 0.114649 0
M  V30 3604 H 337.689 2.84727 2.5241 0
M  V30 3605 H 337.201 3.76387 0.946276 0
M  V30 3606 H 335.302 2.3006 2.93092 0
M  V30 3607 H 335.415 4.1208 2.44391 0
M  V30 3608 H 333.779 2.13977 1.38152 0
M  V30 3609 H 334.562 3.41932 0.306179 0
M  V30 3610 N 337.007 -0.598083 1.45811 0
M  V30 3611 C 338.256 -1.35295 1.49594 0
M  V30 3612 C 338.569 -1.95057 0.145679 0
M  V30 3613 O 339.775 -2.71431 0.0612099 0
M  V30 3614 C 338.231 -2.45124 2.63519 0
M  V30 3615 C 337.839 -1.91732 4.04899 0
M  V30 3616 C 339.583 -3.2205 2.76558 0
M  V30 3617 C 337.49 -2.991 5.1019 0
M  V30 3618 H 336.42 -0.508552 0.556679 0
M  V30 3619 H 339.071 -0.639977 1.71978 0
M  V30 3620 H 337.453 -3.19149 2.34435 0
M  V30 3621 H 338.627 -1.24352 4.43704 0
M  V30 3622 H 336.942 -1.27522 3.96393 0
M  V30 3623 H 339.539 -4.0215 3.52391 0
M  V30 3624 H 339.882 -3.73663 1.83526 0
M  V30 3625 H 340.415 -2.55127 3.05213 0
M  V30 3626 H 337.154 -2.52393 6.04961 0
M  V30 3627 H 336.674 -3.65017 4.75944 0
M  V30 3628 H 338.353 -3.63318 5.35359 0
M  V30 3629 N 338.485 -1.33259 -0.841409 0
M  V30 3630 C 339.733 -1.24326 -1.59334 0
M  V30 3631 C 340.054 0.191564 -1.94057 0
M  V30 3632 O 339.324 1.11967 -1.60749 0
M  V30 3633 H 337.904 -0.457174 -0.590763 0
M  V30 3634 H 340.566 -1.66947 -1.00571 0
M  V30 3635 H 339.662 -1.8352 -2.52442 0
M  V30 3636 N 339.963 1.05934 -1.16686 0
M  V30 3637 C 340.91 2.13499 -0.876748 0
M  V30 3638 C 341.88 1.65162 0.176299 0
M  V30 3639 O 343.065 1.90757 0.0407143 0
M  V30 3640 C 340.205 3.42912 -0.387967 0
M  V30 3641 C 339.318 4.04964 -1.50426 0
M  V30 3642 C 338.453 5.22266 -0.970125 0
M  V30 3643 C 337.492 5.76309 -2.06238 0
M  V30 3644 N 336.629 6.84922 -1.54356 0
M  V30 3645 H 341.469 2.37654 -1.7979 0
M  V30 3646 H 339.006 1.16598 -0.896843 0
M  V30 3647 H 340.964 4.17111 -0.086186 0
M  V30 3648 H 339.594 3.18963 0.496235 0
M  V30 3649 H 338.646 3.28277 -1.92193 0
M  V30 3650 H 339.958 4.41122 -2.32836 0
M  V30 3651 H 339.112 6.03506 -0.621743 0
M  V30 3652 H 337.851 4.87564 -0.115377 0
M  V30 3653 H 336.856 4.93704 -2.41942 0
M  V30 3654 H 338.081 6.13062 -2.92115 0
M  V30 3655 H 336.027 6.52131 -0.711406 0
M  V30 3656 H 335.944 7.20043 -2.30379 0
M  V30 3657 H 337.212 7.69832 -1.22387 0
M  V30 3658 N 341.441 0.965919 1.2453 0
M  V30 3659 C 342.388 0.49402 2.25451 0
M  V30 3660 C 343.358 -0.45948 1.59618 0
M  V30 3661 O 344.543 -0.370238 1.87173 0
M  V30 3662 C 341.683 -0.211359 3.44452 0
M  V30 3663 C 340.796 0.7807 4.24887 0
M  V30 3664 C 339.931 0.0516105 5.31175 0
M  V30 3665 C 338.97 1.03385 6.03306 0
M  V30 3666 N 338.107 0.334887 7.01301 0
M  V30 3667 H 342.947 1.35946 2.65184 0
M  V30 3668 H 340.484 0.681515 1.3036 0
M  V30 3669 H 342.442 -0.637 4.12308 0
M  V30 3670 H 341.072 -1.04077 3.05562 0
M  V30 3671 H 340.124 1.32479 3.56586 0
M  V30 3672 H 341.436 1.52978 4.74762 0
M  V30 3673 H 340.59 -0.432114 6.05159 0
M  V30 3674 H 339.329 -0.730179 4.82203 0
M  V30 3675 H 338.334 1.52847 5.28127 0
M  V30 3676 H 339.559 1.81606 6.54367 0
M  V30 3677 H 337.505 -0.427959 6.54603 0
M  V30 3678 H 337.422 1.02287 7.49048 0
M  V30 3679 H 338.69 -0.126928 7.79397 0
M  V30 3680 N 342.919 -1.39368 0.735821 0
M  V30 3681 C 343.869 -2.27885 0.0724287 0
M  V30 3682 C 344.853 -1.44301 -0.711756 0
M  V30 3683 O 346.045 -1.67206 -0.58063 0
M  V30 3684 C 343.174 -3.33029 -0.833454 0
M  V30 3685 C 342.26 -4.24078 -0.0433749 0
M  V30 3686 N 342.651 -4.96138 0.983903 0
M  V30 3687 C 340.949 -4.45164 -0.272905 0
M  V30 3688 C 341.65 -5.63069 1.4604 0
M  V30 3689 N 340.626 -5.37991 0.778857 0
M  V30 3690 H 344.428 -2.81052 0.859467 0
M  V30 3691 H 341.942 -1.5206 0.570227 0
M  V30 3692 H 343.939 -3.95311 -1.32419 0
M  V30 3693 H 342.599 -2.81421 -1.61964 0
M  V30 3694 H 343.61 -4.9958 1.36528 0
M  V30 3695 H 340.287 -4.04497 -1.03383 0
M  V30 3696 H 341.677 -6.30755 2.31511 0
M  V30 3697 N 344.397 -0.483516 -1.5 0
M  V30 3698 C 345.643 0.0672592 -2.02688 0
M  V30 3699 C 345.976 1.38247 -1.36387 0
M  V30 3700 O 345.251 1.88131 -0.493675 0
M  V30 3701 C 345.534 0.238109 -3.59312 0
M  V30 3702 C 345.387 -1.099 -4.36168 0
M  V30 3703 C 346.706 0.986916 -4.28892 0
M  V30 3704 H 343.825 0.0229696 -0.736642 0
M  V30 3705 H 346.467 -0.631527 -1.79197 0
M  V30 3706 H 344.617 0.8333 -3.79458 0
M  V30 3707 H 346.289 -1.73172 -4.27562 0
M  V30 3708 H 344.532 -1.69261 -3.99416 0
M  V30 3709 H 345.203 -0.932954 -5.44059 0
M  V30 3710 H 347.679 0.482302 -4.13295 0
M  V30 3711 H 346.555 1.07527 -5.38265 0
M  V30 3712 H 346.816 2.0265 -3.92919 0
M  V30 3713 N 345.875 1.56104 -0.216619 0
M  V30 3714 C 347.122 1.98172 0.416416 0
M  V30 3715 C 347.45 1.10413 1.60122 0
M  V30 3716 O 346.705 0.147967 1.9514 0
M  V30 3717 C 347.004 3.45923 0.898464 0
M  V30 3718 C 346.67 4.50559 -0.175288 0
M  V30 3719 C 345.332 4.78897 -0.470271 0
M  V30 3720 C 347.684 5.1334 -0.901728 0
M  V30 3721 C 345.012 5.67299 -1.4963 0
M  V30 3722 C 347.364 6.02853 -1.91705 0
M  V30 3723 C 346.028 6.29537 -2.21901 0
M  V30 3724 H 345.298 0.725164 0.152377 0
M  V30 3725 H 347.945 1.88839 -0.318103 0
M  V30 3726 H 346.25 3.52434 1.71165 0
M  V30 3727 H 347.947 3.75841 1.39803 0
M  V30 3728 H 344.537 4.28551 0.0647806 0
M  V30 3729 H 348.721 4.91521 -0.687072 0
M  V30 3730 H 343.977 5.86239 -1.73592 0
M  V30 3731 H 348.151 6.50552 -2.48505 0
M  V30 3732 H 345.778 6.97835 -3.01548 0
M  V30 3733 N 347.353 -0.0568162 1.57498 0
M  V30 3734 C 348.578 -0.769402 1.92601 0
M  V30 3735 C 349.003 -1.69559 0.814336 0
M  V30 3736 O 348.361 -1.79811 -0.231903 0
M  V30 3737 C 348.409 -1.52634 3.26704 0
M  V30 3738 O 347.513 -2.63797 3.16994 0
M  V30 3739 H 346.854 -0.208909 0.63028 0
M  V30 3740 H 349.384 -0.0205798 2.0459 0
M  V30 3741 H 349.394 -1.90234 3.60936 0
M  V30 3742 H 348.069 -0.846875 4.07186 0
M  V30 3743 H 346.646 -2.28943 2.94346 0
M  V30 3744 N 348.832 -1.54138 -0.328536 0
M  V30 3745 C 349.762 -1.86167 -1.40939 0
M  V30 3746 C 350.743 -0.718044 -1.54202 0
M  V30 3747 O 351.928 -0.971328 -1.68163 0
M  V30 3748 C 349.058 -2.08461 -2.77779 0
M  V30 3749 C 348.012 -3.24299 -2.7931 0
M  V30 3750 C 347.338 -3.31955 -4.19178 0
M  V30 3751 C 348.638 -4.62065 -2.43502 0
M  V30 3752 H 350.332 -2.76689 -1.14383 0
M  V30 3753 H 347.878 -1.33132 -0.548806 0
M  V30 3754 H 349.831 -2.29453 -3.53454 0
M  V30 3755 H 348.555 -1.14684 -3.05802 0
M  V30 3756 H 347.214 -3.03187 -2.0609 0
M  V30 3757 H 346.862 -2.35745 -4.44335 0
M  V30 3758 H 346.562 -4.09805 -4.2111 0
M  V30 3759 H 348.086 -3.55175 -4.96672 0
M  V30 3760 H 349.5 -4.8297 -3.08889 0
M  V30 3761 H 347.897 -5.42429 -2.56693 0
M  V30 3762 H 348.967 -4.64652 -1.38659 0
M  V30 3763 N 350.31 0.590341 -1.46126 0
M  V30 3764 C 351.273 1.68194 -1.55703 0
M  V30 3765 C 352.273 1.54808 -0.434868 0
M  V30 3766 O 353.463 1.59564 -0.698928 0
M  V30 3767 C 350.595 3.07575 -1.47005 0
M  V30 3768 H 351.788 1.61064 -2.52979 0
M  V30 3769 H 349.341 0.807541 -1.33823 0
M  V30 3770 H 350.076 3.20268 -0.509785 0
M  V30 3771 H 349.861 3.187 -2.28414 0
M  V30 3772 H 351.351 3.87055 -1.56776 0
M  V30 3773 N 351.788 1.33704 0.83433 0
M  V30 3774 C 353.065 1.16011 1.57483 0
M  V30 3775 C 353.445 -0.27176 2.09343 0
M  V30 3776 O 352.793 -1.27146 1.89858 0
M  V30 3777 C 353.003 2.20507 2.70514 0
M  V30 3778 C 354.351 2.54898 3.39577 0
M  V30 3779 O 355.375 2.19209 2.80759 0
M  V30 3780 O 354.234 3.16158 4.45765 0
M  V30 3781 H 351.328 0.448992 0.694503 0
M  V30 3782 H 353.874 1.453 0.876691 0
M  V30 3783 H 352.646 3.16667 2.29865 0
M  V30 3784 H 352.269 1.92329 3.47987 0
M  V30 3785 N 353.266 -1.05314 1.17247 0
M  V30 3786 C 354.496 -1.81707 0.983166 0
M  V30 3787 C 354.904 -1.83222 -0.471822 0
M  V30 3788 O 354.247 -1.25721 -1.3394 0
M  V30 3789 C 354.309 -3.29134 1.44606 0
M  V30 3790 C 353.973 -3.51304 2.92292 0
M  V30 3791 C 354.97 -3.4353 3.90235 0
M  V30 3792 C 352.655 -3.78306 3.30439 0
M  V30 3793 C 354.649 -3.62442 5.24323 0
M  V30 3794 C 352.336 -3.96866 4.64694 0
M  V30 3795 C 353.334 -3.88933 5.61445 0
M  V30 3796 O 353.022 -4.06976 6.93272 0
M  V30 3797 H 352.754 -0.579476 0.348114 0
M  V30 3798 H 355.308 -1.33705 1.55924 0
M  V30 3799 H 353.538 -3.78046 0.813537 0
M  V30 3800 H 355.227 -3.87049 1.22262 0
M  V30 3801 H 355.993 -3.22648 3.62109 0
M  V30 3802 H 351.872 -3.83585 2.55702 0
M  V30 3803 H 355.416 -3.56165 5.99827 0
M  V30 3804 H 351.313 -4.1724 4.92525 0
M  V30 3805 H 352.081 -4.24209 6.99992 0
M  V30 3806 N 354.744 -0.972509 -1.24016 0
M  V30 3807 C 355.972 -0.654803 -1.96265 0
M  V30 3808 C 356.387 0.776708 -1.72083 0
M  V30 3809 O 355.744 1.52171 -1.00748 0
M  V30 3810 C 355.795 -0.92592 -3.49441 0
M  V30 3811 O 355.516 -2.30116 -3.72798 0
M  V30 3812 C 357.017 -0.623068 -4.38899 0
M  V30 3813 H 354.237 -0.243907 -0.6251 0
M  V30 3814 H 356.781 -1.30175 -1.57717 0
M  V30 3815 H 354.936 -0.325108 -3.86033 0
M  V30 3816 H 355.35 -2.38483 -4.67147 0
M  V30 3817 H 356.824 -0.863189 -5.45209 0
M  V30 3818 H 357.301 0.442754 -4.36963 0
M  V30 3819 H 357.907 -1.204 -4.07902 0
M  V30 3820 N 356.222 1.38976 -0.743202 0
M  V30 3821 C 357.452 2.04339 -0.304807 0
M  V30 3822 C 357.86 1.56162 1.06819 0
M  V30 3823 O 357.203 0.725284 1.68776 0
M  V30 3824 C 357.265 3.58716 -0.237369 0
M  V30 3825 C 356.929 4.29905 -1.55018 0
M  V30 3826 C 357.926 4.55987 -2.49744 0
M  V30 3827 C 355.611 4.68294 -1.81675 0
M  V30 3828 C 357.605 5.19478 -3.69353 0
M  V30 3829 C 355.292 5.31512 -3.0156 0
M  V30 3830 C 356.29 5.57037 -3.9522 0
M  V30 3831 O 355.978 6.18941 -5.12998 0
M  V30 3832 H 355.71 0.663439 -0.12971 0
M  V30 3833 H 358.264 1.78852 -1.01001 0
M  V30 3834 H 356.494 3.83133 0.524003 0
M  V30 3835 H 358.183 4.05543 0.170121 0
M  V30 3836 H 358.949 4.26767 -2.30423 0
M  V30 3837 H 354.828 4.47779 -1.09615 0
M  V30 3838 H 358.372 5.39318 -4.42473 0
M  V30 3839 H 354.269 5.60153 -3.20778 0
M  V30 3840 H 355.037 6.37433 -5.13441 0
M  V30 3841 N 357.7 0.491464 1.49741 0
M  V30 3842 C 358.647 -0.292027 2.28945 0
M  V30 3843 C 359.617 -0.968973 1.34908 0
M  V30 3844 O 360.802 -0.97748 1.6386 0
M  V30 3845 C 357.942 -1.35617 3.17336 0
M  V30 3846 C 357.055 -0.691957 4.26422 0
M  V30 3847 C 356.19 -1.73572 5.02042 0
M  V30 3848 C 355.229 -1.05286 6.02977 0
M  V30 3849 N 354.366 -2.0404 6.71798 0
M  V30 3850 H 359.206 0.389654 2.95442 0
M  V30 3851 H 356.743 0.204003 1.45679 0
M  V30 3852 H 358.701 -1.98502 3.66951 0
M  V30 3853 H 357.331 -2.00674 2.52844 0
M  V30 3854 H 356.383 0.0499523 3.80367 0
M  V30 3855 H 357.695 -0.153946 4.98562 0
M  V30 3856 H 356.849 -2.43987 5.55478 0
M  V30 3857 H 355.588 -2.30757 4.29654 0
M  V30 3858 H 354.593 -0.334446 5.48782 0
M  V30 3859 H 355.818 -0.487636 6.77347 0
M  V30 3860 H 353.764 -2.60205 6.02187 0
M  V30 3861 H 353.681 -1.55279 7.39881 0
M  V30 3862 H 354.949 -2.73772 7.29842 0
M  V30 3863 N 359.178 -1.55987 0.224894 0
M  V30 3864 C 360.424 -1.98684 -0.406502 0
M  V30 3865 C 360.757 -1.11248 -1.59177 0
M  V30 3866 O 360.032 -0.170909 -1.93748 0
M  V30 3867 C 360.315 -3.50218 -0.837808 0
M  V30 3868 C 360.168 -4.48426 0.351332 0
M  V30 3869 C 361.487 -4.06243 -1.69278 0
M  V30 3870 H 358.606 -0.722337 -0.146283 0
M  V30 3871 H 361.248 -1.87255 0.321799 0
M  V30 3872 H 359.398 -3.60089 -1.45837 0
M  V30 3873 H 361.07 -4.50562 0.989526 0
M  V30 3874 H 359.313 -4.22159 0.998207 0
M  V30 3875 H 359.984 -5.52 0.00655905 0
M  V30 3876 H 362.46 -3.99337 -1.16914 0
M  V30 3877 H 361.336 -5.12581 -1.96346 0
M  V30 3878 H 361.597 -3.53332 -2.65723 0
M  V30 3879 N 360.656 0.0484629 -1.57525 0
M  V30 3880 C 361.566 1.07241 -2.08654 0
M  V30 3881 C 362.582 1.409 -1.02095 0
M  V30 3882 O 363.758 1.50609 -1.33712 0
M  V30 3883 C 360.823 2.36008 -2.5397 0
M  V30 3884 C 359.884 2.09108 -3.7493 0
M  V30 3885 C 359.117 3.31736 -4.18075 0
M  V30 3886 O 359.34 4.41714 -3.60895 0
M  V30 3887 O 358.274 3.18576 -5.10679 0
M  V30 3888 H 362.1 0.667965 -2.96263 0
M  V30 3889 H 359.685 0.26417 -1.47046 0
M  V30 3890 H 361.567 3.11747 -2.83535 0
M  V30 3891 H 360.242 2.75786 -1.69481 0
M  V30 3892 H 359.149 1.31 -3.50414 0
M  V30 3893 H 360.482 1.74198 -4.60343 0
M  V30 3894 N 362.134 1.5431 0.320358 0
M  V30 3895 C 363.082 1.84647 1.4145 0
M  V30 3896 C 364.076 0.718624 1.53402 0
M  V30 3897 O 365.282 0.902335 1.5575 0
M  V30 3898 H 361.657 0.585349 0.472091 0
M  V30 3899 H 363.628 2.7614 1.13089 0
M  V30 3900 C 362.377 2.09341 2.77617 0
M  V30 3901 H 361.7 2.9559 2.69196 0
M  V30 3902 H 363.14 2.3452 3.53237 0
M  V30 3903 C 361.599 0.885939 3.25043 0
M  V30 3904 O 362.129 0.0967891 4.01583 0
M  V30 3905 N 360.335 0.696682 2.82125 0
M  V30 3906 H 359.882 1.34006 2.2 0
M  V30 3907 H 359.84 -0.109712 3.14209 0
M  V30 3908 N 363.613 -0.582584 1.46437 0
M  V30 3909 C 365.024 -1.1647 1.45916 0
M  V30 3910 C 365.375 -1.95177 0.200077 0
M  V30 3911 O 364.5 -2.04874 -0.696819 0
M  V30 3912 C 365.095 -2.11885 2.64367 0
M  V30 3913 C 363.654 -2.65421 2.66887 0
M  V30 3914 C 362.801 -1.41294 2.38603 0
M  V30 3915 H 365.752 -0.370514 1.54314 0
M  V30 3916 H 365.773 -2.9535 2.39892 0
M  V30 3917 H 365.285 -1.54573 3.5599 0
M  V30 3918 H 363.386 -3.26602 1.79338 0
M  V30 3919 H 363.499 -3.08147 3.66854 0
M  V30 3920 H 361.863 -1.71109 1.88663 0
M  V30 3921 H 362.646 -0.858125 3.32402 0
M  V30 3922 N 365.091 -1.34144 -0.827227 0
M  V30 3923 C 366.368 -1.16844 -1.56865 0
M  V30 3924 C 366.748 0.260654 -2.09485 0
M  V30 3925 O 366.096 1.26138 -1.9053 0
M  V30 3926 C 366.306 -2.21939 -2.6934 0
M  V30 3927 C 367.654 -2.56695 -3.3822 0
M  V30 3928 O 368.678 -2.20695 -2.79593 0
M  V30 3929 O 367.537 -3.18518 -4.44082 0
M  V30 3930 H 364.631 -0.452669 -0.692112 0
M  V30 3931 H 367.177 -1.45763 -0.868973 0
M  V30 3932 H 365.949 -3.17882 -2.28182 0
M  V30 3933 H 365.572 -1.94172 -3.46962 0
M  V30 3934 N 366.569 1.04691 -1.17803 0
M  V30 3935 C 367.815 1.78045 -0.970969 0
M  V30 3936 C 368.148 1.87686 0.498751 0
M  V30 3937 O 367.423 1.38035 1.37027 0
M  V30 3938 C 367.706 3.2166 -1.61884 0
M  V30 3939 C 367.559 3.20001 -3.161 0
M  V30 3940 C 368.878 4.1962 -1.3269 0
M  V30 3941 H 365.997 0.64633 -0.354155 0
M  V30 3942 H 368.639 1.22333 -1.45378 0
M  V30 3943 H 366.789 3.69232 -1.20831 0
M  V30 3944 H 368.461 2.80467 -3.66246 0
M  V30 3945 H 366.704 2.58203 -3.48588 0
M  V30 3946 H 367.375 4.21386 -3.56564 0
M  V30 3947 H 369.851 3.80567 -1.68249 0
M  V30 3948 H 368.727 5.18339 -1.80599 0
M  V30 3949 H 368.988 4.414 -0.248622 0
M  V30 3950 N 368.047 0.979072 1.23499 0
M  V30 3951 C 369.01 0.523244 2.23147 0
M  V30 3952 C 370.01 -0.386406 1.56088 0
M  V30 3953 O 371.2 -0.180283 1.73265 0
M  V30 3954 C 368.332 -0.240739 3.40049 0
M  V30 3955 H 369.525 1.40432 2.64989 0
M  V30 3956 H 367.078 0.764824 1.36309 0
M  V30 3957 H 367.813 -1.13841 3.03662 0
M  V30 3958 H 367.598 0.412207 3.89927 0
M  V30 3959 H 369.088 -0.548297 4.13985 0
M  V30 3960 N 369.525 -1.3858 0.750561 0
M  V30 3961 C 370.75 -2.04997 0.314812 0
M  V30 3962 C 371.175 -1.56235 -1.04749 0
M  V30 3963 O 370.533 -0.712981 -1.66692 0
M  V30 3964 C 370.581 -3.58961 0.343415 0
M  V30 3965 O 369.685 -4.07025 -0.663628 0
M  V30 3966 H 369.026 -0.649081 0.139962 0
M  V30 3967 H 371.556 -1.77313 1.02084 0
M  V30 3968 H 371.566 -4.07542 0.193233 0
M  V30 3969 H 370.241 -3.93811 1.33738 0
M  V30 3970 H 368.818 -3.6982 -0.478307 0
M  V30 3971 N 371.003 -0.499398 -1.49478 0
M  V30 3972 C 372.249 0.0457576 -2.02748 0
M  V30 3973 C 372.582 1.36793 -1.37846 0
M  V30 3974 O 371.857 1.87596 -0.513601 0
M  V30 3975 C 372.14 0.199986 -3.59544 0
M  V30 3976 C 371.993 -1.1452 -4.34977 0
M  V30 3977 C 373.312 0.94137 -4.29914 0
M  V30 3978 H 370.431 0.0151552 -0.736844 0
M  V30 3979 H 373.073 -0.650498 -1.78518 0
M  V30 3980 H 371.223 0.793007 -3.8032 0
M  V30 3981 H 372.895 -1.77697 -4.25701 0
M  V30 3982 H 371.138 -1.73488 -3.97598 0
M  V30 3983 H 371.809 -0.990607 -5.43039 0
M  V30 3984 H 374.285 0.43844 -4.13784 0
M  V30 3985 H 373.161 1.01812 -5.39375 0
M  V30 3986 H 373.422 1.98471 -3.95046 0
M  V30 3987 N 372.481 1.55866 -0.233164 0
M  V30 3988 C 373.428 2.20796 0.67215 0
M  V30 3989 C 374.398 1.16731 1.18166 0
M  V30 3990 O 375.583 1.45129 1.23864 0
M  V30 3991 C 372.723 2.90072 1.86955 0
M  V30 3992 C 371.836 4.08759 1.39786 0
M  V30 3993 C 370.971 4.65787 2.55374 0
M  V30 3994 C 370.01 5.76752 2.04998 0
M  V30 3995 N 369.147 6.28021 3.13901 0
M  V30 3996 H 373.987 2.9779 0.111749 0
M  V30 3997 H 371.524 1.47036 0.0434007 0
M  V30 3998 H 373.482 3.28428 2.57276 0
M  V30 3999 H 372.112 2.15575 2.40265 0
M  V30 4000 H 371.164 3.7581 0.589173 0
M  V30 4001 H 372.476 4.88906 0.98856 0
M  V30 4002 H 371.63 5.06646 3.33758 0
M  V30 4003 H 370.369 3.84828 2.99598 0
M  V30 4004 H 369.374 5.35383 1.25079 0
M  V30 4005 H 370.599 6.59553 1.61759 0
M  V30 4006 H 368.545 5.49971 3.57586 0
M  V30 4007 H 368.462 7.03323 2.7726 0
M  V30 4008 H 369.73 6.73538 3.92386 0
M  V30 4009 N 373.959 -0.0401083 1.57549 0
M  V30 4010 C 374.907 -1.06264 2.06908 0
M  V30 4011 C 375.901 -1.38132 0.980608 0
M  V30 4012 O 377.107 -1.37167 1.16556 0
M  V30 4013 H 373.482 -0.360166 0.660139 0
M  V30 4014 H 375.453 -0.620445 2.91878 0
M  V30 4015 C 374.202 -2.35846 2.55483 0
M  V30 4016 H 373.525 -2.12183 3.38849 0
M  V30 4017 H 374.965 -3.05765 2.93741 0
M  V30 4018 C 373.424 -3.0404 1.45126 0
M  V30 4019 O 373.954 -3.93424 0.811216 0
M  V30 4020 N 372.16 -2.65184 1.18852 0
M  V30 4021 H 371.707 -1.92584 1.71083 0
M  V30 4022 H 371.665 -3.1113 0.452244 0
M  V30 4023 N 375.437 -1.54477 -0.31217 0
M  V30 4024 C 376.685 -1.72884 -1.04668 0
M  V30 4025 C 377.006 -0.511477 -1.88173 0
M  V30 4026 O 376.276 0.474407 -1.90069 0
M  V30 4027 H 374.856 -0.637461 -0.389425 0
M  V30 4028 H 377.518 -1.91807 -0.345852 0
M  V30 4029 H 376.614 -2.61334 -1.70619 0
M  V30 4030 N 376.915 0.57481 -1.46744 0
M  V30 4031 C 378.164 1.32898 -1.51727 0
M  V30 4032 C 378.477 1.948 -0.176692 0
M  V30 4033 O 379.683 2.71299 -0.104385 0
M  V30 4034 C 378.139 2.40901 -2.67385 0
M  V30 4035 C 377.747 1.85266 -4.07898 0
M  V30 4036 C 379.491 3.17609 -2.81646 0
M  V30 4037 C 377.398 2.90945 -5.14883 0
M  V30 4038 H 376.328 0.499631 -0.564699 0
M  V30 4039 H 378.979 0.612536 -1.72975 0
M  V30 4040 H 377.361 3.15379 -2.39483 0
M  V30 4041 H 378.535 1.17278 -4.45626 0
M  V30 4042 H 376.85 1.21199 -3.98371 0
M  V30 4043 H 379.447 3.96493 -3.58744 0
M  V30 4044 H 379.79 3.70696 -1.89448 0
M  V30 4045 H 380.323 2.50239 -3.09233 0
M  V30 4046 H 377.062 2.42736 -6.089 0
M  V30 4047 H 376.582 3.57398 -4.81691 0
M  V30 4048 H 378.261 3.54755 -5.41071 0
M  V30 4049 N 378.394 1.34581 0.820102 0
M  V30 4050 C 379.324 1.29038 1.94606 0
M  V30 4051 C 380.305 0.1673 1.69275 0
M  V30 4052 O 381.49 0.360112 1.90832 0
M  V30 4053 C 378.62 1.04793 3.31113 0
M  V30 4054 C 377.574 2.13597 3.70891 0
M  V30 4055 C 376.9 1.74537 5.05412 0
M  V30 4056 C 378.2 3.55451 3.8269 0
M  V30 4057 H 379.894 2.23248 1.99501 0
M  V30 4058 H 377.44 1.0747 0.958449 0
M  V30 4059 H 379.393 0.995592 4.0947 0
M  V30 4060 H 378.117 0.0702565 3.26524 0
M  V30 4061 H 376.776 2.17905 2.9481 0
M  V30 4062 H 376.424 0.754226 4.97313 0
M  V30 4063 H 376.124 2.47361 5.32997 0
M  V30 4064 H 377.648 1.70803 5.86224 0
M  V30 4065 H 379.062 3.5354 4.51312 0
M  V30 4066 H 377.459 4.26922 4.21732 0
M  V30 4067 H 378.529 3.92587 2.84611 0
M  V30 4068 N 379.872 -1.04064 1.18357 0
M  V30 4069 C 380.782 -2.15569 0.925596 0
M  V30 4070 C 381.798 -1.7365 -0.110295 0
M  V30 4071 O 382.974 -2.01273 0.0716218 0
M  V30 4072 C 380.039 -3.43704 0.454836 0
M  V30 4073 C 379.1 -4.00004 1.55869 0
M  V30 4074 C 378.333 -5.22023 1.1103 0
M  V30 4075 O 378.556 -5.70392 -0.0309756 0
M  V30 4076 O 377.49 -5.70856 1.90805 0
M  V30 4077 H 381.316 -2.40187 1.8586 0
M  V30 4078 H 378.901 -1.1402 0.965394 0
M  V30 4079 H 380.783 -4.20923 0.200382 0
M  V30 4080 H 379.458 -3.20559 -0.449876 0
M  V30 4081 H 378.365 -3.24172 1.86716 0
M  V30 4082 H 379.698 -4.2749 2.43953 0
M  V30 4083 N 381.35 -0.985608 -1.22978 0
M  V30 4084 C 382.761 -0.693593 -1.73338 0
M  V30 4085 C 383.112 0.789935 -1.79595 0
M  V30 4086 O 382.237 1.61771 -1.43733 0
M  V30 4087 C 382.832 -1.25235 -3.14804 0
M  V30 4088 C 381.391 -1.00987 -3.626 0
M  V30 4089 C 380.538 -1.37695 -2.40698 0
M  V30 4090 H 383.489 -1.15884 -1.08428 0
M  V30 4091 H 383.51 -0.627329 -3.75293 0
M  V30 4092 H 383.022 -2.33209 -3.10218 0
M  V30 4093 H 381.123 0.0535565 -3.72562 0
M  V30 4094 H 381.236 -1.66812 -4.49122 0
M  V30 4095 H 379.6 -0.795459 -2.4196 0
M  V30 4096 H 380.383 -2.46657 -2.38779 0
M  V30 4097 N 382.828 1.3818 -0.7579 0
M  V30 4098 C 383.758 2.33027 -0.148597 0
M  V30 4099 C 384.739 1.55085 0.69875 0
M  V30 4100 O 385.924 1.83384 0.639053 0
M  V30 4101 C 383.054 3.3928 0.742034 0
M  V30 4102 C 382.008 4.28 -0.00291946 0
M  V30 4103 C 381.334 5.25146 1.00625 0
M  V30 4104 C 382.634 5.08938 -1.17385 0
M  V30 4105 H 384.328 2.84231 -0.940909 0
M  V30 4106 H 381.874 1.36659 -0.453908 0
M  V30 4107 H 383.827 4.046 1.17799 0
M  V30 4108 H 382.551 2.86569 1.56671 0
M  V30 4109 H 381.21 3.64192 -0.419504 0
M  V30 4110 H 380.858 4.68721 1.8251 0
M  V30 4111 H 380.558 5.85361 0.512428 0
M  V30 4112 H 382.082 5.93342 1.44143 0
M  V30 4113 H 383.496 5.67474 -0.815224 0
M  V30 4114 H 381.893 5.7841 -1.59882 0
M  V30 4115 H 382.963 4.42424 -1.98468 0
M  V30 4116 N 384.306 0.507319 1.49211 0
M  V30 4117 C 385.253 -0.267728 2.29242 0
M  V30 4118 C 386.223 -0.954609 1.35928 0
M  V30 4119 O 387.408 -0.960046 1.64887 0
M  V30 4120 C 384.548 -1.32243 3.18756 0
M  V30 4121 C 383.661 -0.64669 4.27132 0
M  V30 4122 C 382.796 -1.68238 5.03855 0
M  V30 4123 C 381.835 -0.98885 6.0406 0
M  V30 4124 N 380.972 -1.96903 6.73924 0
M  V30 4125 H 385.812 0.420968 2.95012 0
M  V30 4126 H 383.349 0.219443 1.45454 0
M  V30 4127 H 385.307 -1.94599 3.69036 0
M  V30 4128 H 383.937 -1.97981 2.54958 0
M  V30 4129 H 382.989 0.0902926 3.80293 0
M  V30 4130 H 384.301 -0.101058 4.98698 0
M  V30 4131 H 383.455 -2.38081 5.58034 0
M  V30 4132 H 382.194 -2.26187 4.32077 0
M  V30 4133 H 381.199 -0.276222 5.49106 0
M  V30 4134 H 382.424 -0.415767 6.77826 0
M  V30 4135 H 380.37 -2.53803 6.04913 0
M  V30 4136 H 380.287 -1.47423 7.41487 0
M  V30 4137 H 381.555 -2.66015 7.32705 0
M  V30 4138 N 385.784 -1.5574 0.241426 0
M  V30 4139 C 386.694 -2.2479 -0.671305 0
M  V30 4140 C 387.71 -1.26217 -1.19772 0
M  V30 4141 O 388.886 -1.59079 -1.23514 0
M  V30 4142 C 385.951 -2.92966 -1.85396 0
M  V30 4143 C 385.012 -4.06935 -1.36756 0
M  V30 4144 C 384.245 -4.71851 -2.49384 0
M  V30 4145 O 384.468 -4.35823 -3.67987 0
M  V30 4146 O 383.402 -5.60467 -2.19454 0
M  V30 4147 H 387.228 -3.0349 -0.112966 0
M  V30 4148 H 384.813 -1.49397 0.0101513 0
M  V30 4149 H 386.695 -3.35927 -2.54423 0
M  V30 4150 H 385.37 -2.17211 -2.40002 0
M  V30 4151 H 384.277 -3.68503 -0.644726 0
M  V30 4152 H 385.61 -4.84492 -0.867647 0
M  V30 4153 N 387.262 0.0317525 -1.57568 0
M  V30 4154 C 388.51 0.721676 -1.88776 0
M  V30 4155 C 388.831 1.76039 -0.838772 0
M  V30 4156 O 388.101 1.95482 0.127935 0
M  V30 4157 H 386.681 0.269534 -0.696678 0
M  V30 4158 H 389.343 -0.00165879 -1.949 0
M  V30 4159 H 388.439 1.21293 -2.87566 0
M  V30 4160 N 388.74 1.54641 0.303973 0
M  V30 4161 C 389.968 1.77768 1.05858 0
M  V30 4162 C 390.383 0.535722 1.8104 0
M  V30 4163 O 389.74 -0.494337 1.75677 0
M  V30 4164 C 389.791 2.9834 2.04146 0
M  V30 4165 O 389.512 4.17736 1.32015 0
M  V30 4166 C 391.013 3.33832 2.91669 0
M  V30 4167 H 388.233 0.592961 0.314067 0
M  V30 4168 H 390.777 2.01583 0.344149 0
M  V30 4169 H 388.932 2.76742 2.71096 0
M  V30 4170 H 389.346 4.85693 1.97998 0
M  V30 4171 H 390.82 4.21448 3.56491 0
M  V30 4172 H 391.297 2.51857 3.59812 0
M  V30 4173 H 391.903 3.57579 2.30254 0
M  V30 4174 N 390.218 -0.567019 1.47046 0
M  V30 4175 C 391.446 -1.35027 1.56765 0
M  V30 4176 C 391.861 -1.8758 0.214316 0
M  V30 4177 O 391.218 -1.64471 -0.790919 0
M  V30 4178 C 391.269 -2.52698 2.58507 0
M  V30 4179 O 390.99 -2.0232 3.88585 0
M  V30 4180 C 392.491 -3.45043 2.78316 0
M  V30 4181 H 389.711 -0.41195 0.529658 0
M  V30 4182 H 392.255 -0.687832 1.92585 0
M  V30 4183 H 390.41 -3.149 2.25648 0
M  V30 4184 H 390.824 -2.79068 4.44096 0
M  V30 4185 H 392.298 -4.2405 3.53391 0
M  V30 4186 H 392.775 -3.97971 1.85784 0
M  V30 4187 H 393.381 -2.88665 3.12334 0
M  V30 4188 N 391.696 -1.35014 -0.812953 0
M  V30 4189 C 392.644 -1.27435 -1.94585 0
M  V30 4190 C 393.638 -0.170494 -1.6854 0
M  V30 4191 O 394.844 -0.336085 -1.76835 0
M  V30 4192 H 391.219 -0.396144 -0.639198 0
M  V30 4193 H 393.19 -2.23158 -1.98098 0
M  V30 4194 C 391.939 -1.05677 -3.31252 0
M  V30 4195 H 391.262 -1.89853 -3.51846 0
M  V30 4196 H 392.702 -1.04413 -4.10943 0
M  V30 4197 C 391.161 0.239615 -3.36047 0
M  V30 4198 O 391.691 1.23759 -3.8216 0
M  V30 4199 N 389.897 0.276186 -2.89285 0
M  V30 4200 H 389.444 -0.53653 -2.51951 0
M  V30 4201 H 389.402 1.14332 -2.92875 0
M  V30 4202 N 393.175 1.03435 -1.18907 0
M  V30 4203 C 394.421 1.77005 -0.989798 0
M  V30 4204 C 394.754 1.88205 0.478816 0
M  V30 4205 O 394.029 1.39481 1.35556 0
M  V30 4206 C 394.312 3.19925 -1.65287 0
M  V30 4207 C 394.165 3.1663 -3.19477 0
M  V30 4208 C 395.484 4.18189 -1.37134 0
M  V30 4209 H 392.603 0.642538 -0.360991 0
M  V30 4210 H 395.245 1.20784 -1.46667 0
M  V30 4211 H 393.395 3.67929 -1.24741 0
M  V30 4212 H 395.067 2.76567 -3.692 0
M  V30 4213 H 393.31 2.54491 -3.51307 0
M  V30 4214 H 393.981 4.1758 -3.61013 0
M  V30 4215 H 396.457 3.78761 -1.72276 0
M  V30 4216 H 395.333 5.16394 -1.86087 0
M  V30 4217 H 395.594 4.41112 -0.295424 0
M  V30 4218 N 394.653 0.992116 1.22453 0
M  V30 4219 C 395.902 0.662992 1.90492 0
M  V30 4220 C 396.215 -0.808407 1.78113 0
M  V30 4221 O 397.421 -1.24908 2.41061 0
M  V30 4222 C 395.877 1.1353 3.41524 0
M  V30 4223 C 395.485 2.63187 3.62542 0
M  V30 4224 C 397.229 0.880465 4.15269 0
M  V30 4225 C 395.136 3.04024 5.0727 0
M  V30 4226 H 394.066 0.244278 0.713333 0
M  V30 4227 H 396.717 1.20157 1.38688 0
M  V30 4228 H 395.099 0.52485 3.92506 0
M  V30 4229 H 396.273 3.2957 3.22056 0
M  V30 4230 H 394.588 2.86543 3.02129 0
M  V30 4231 H 397.185 1.16128 5.21937 0
M  V30 4232 H 397.528 -0.183408 4.15896 0
M  V30 4233 H 398.061 1.45307 3.70312 0
M  V30 4234 H 394.8 4.09584 5.11782 0
M  V30 4235 H 394.32 2.42343 5.48662 0
M  V30 4236 H 395.999 2.95282 5.75689 0
M  V30 4237 N 396.131 -1.37776 0.765217 0
M  V30 4238 C 397.377 -2.00145 0.327072 0
M  V30 4239 C 397.71 -1.60607 -1.09175 0
M  V30 4240 O 396.985 -0.849127 -1.74986 0
M  V30 4241 C 397.268 -3.57109 0.46319 0
M  V30 4242 C 397.121 -4.06576 1.92395 0
M  V30 4243 C 398.44 -4.39888 -0.136473 0
M  V30 4244 H 395.559 -0.727113 0.120316 0
M  V30 4245 H 398.201 -1.63549 0.967039 0
M  V30 4246 H 396.351 -3.88414 -0.0816358 0
M  V30 4247 H 398.023 -3.85864 2.52798 0
M  V30 4248 H 396.266 -3.59011 2.43503 0
M  V30 4249 H 396.937 -5.15639 1.97028 0
M  V30 4250 H 399.413 -4.14803 0.328317 0
M  V30 4251 H 398.289 -5.48899 -0.0110582 0
M  V30 4252 H 398.55 -4.24758 -1.22608 0
M  V30 4253 N 397.609 -0.515225 -1.4894 0
M  V30 4254 C 398.834 0.022727 -2.07388 0
M  V30 4255 C 399.259 1.2876 -1.37122 0
M  V30 4256 O 398.617 1.76067 -0.432431 0
M  V30 4257 C 398.665 0.244869 -3.59768 0
M  V30 4258 O 397.769 1.31667 -3.90817 0
M  V30 4259 H 397.11 -0.0325506 -0.663202 0
M  V30 4260 H 399.64 -0.718918 -1.91553 0
M  V30 4261 H 399.65 0.47205 -4.0526 0
M  V30 4262 H 398.325 -0.679194 -4.10317 0
M  V30 4263 H 396.902 1.07331 -3.5712 0
M  V30 4264 N 399.087 1.5561 -0.249682 0
M  V30 4265 C 400.034 2.21496 0.648694 0
M  V30 4266 C 401.004 1.17977 1.16921 0
M  V30 4267 O 402.189 1.46434 1.22318 0
M  V30 4268 C 399.329 2.92039 1.83868 0
M  V30 4269 C 398.442 4.10219 1.35442 0
M  V30 4270 C 397.577 4.6847 2.50419 0
M  V30 4271 C 396.616 5.78893 1.98869 0
M  V30 4272 N 395.753 6.31315 3.07223 0
M  V30 4273 H 400.593 2.97892 0.0801582 0
M  V30 4274 H 398.13 1.47074 0.0278031 0
M  V30 4275 H 400.088 3.31138 2.53778 0
M  V30 4276 H 398.718 2.18111 2.37965 0
M  V30 4277 H 397.77 3.76413 0.54928 0
M  V30 4278 H 399.082 4.89927 0.936649 0
M  V30 4279 H 398.236 5.10158 3.28366 0
M  V30 4280 H 396.975 3.87984 2.95499 0
M  V30 4281 H 395.98 5.3668 1.19393 0
M  V30 4282 H 397.205 6.61232 1.54755 0
M  V30 4283 H 395.151 5.53733 3.51732 0
M  V30 4284 H 395.068 7.06224 2.69784 0
M  V30 4285 H 396.336 6.77662 3.8522 0
M  V30 4286 N 400.565 -0.0233959 1.57583 0
M  V30 4287 C 401.842 -0.748794 1.807 0
M  V30 4288 C 402.222 -1.9327 0.849106 0
M  V30 4289 O 401.57 -2.28247 -0.107468 0
M  V30 4290 C 401.78 -1.17651 3.28571 0
M  V30 4291 C 403.128 -1.59008 3.93702 0
M  V30 4292 O 404.152 -1.27094 3.32755 0
M  V30 4293 O 403.011 -2.18264 5.01022 0
M  V30 4294 H 400.105 -0.362578 0.743281 0
M  V30 4295 H 402.651 0.000261958 1.697 0
M  V30 4296 H 401.423 -0.331603 3.89892 0
M  V30 4297 H 401.046 -1.98541 3.44481 0
M  V30 4298 N 402.043 -1.548 -0.295768 0
M  V30 4299 C 403.291 -1.73985 -1.02828 0
M  V30 4300 C 403.612 -0.531406 -1.87619 0
M  V30 4301 O 402.882 0.454221 -1.90561 0
M  V30 4302 H 401.462 -0.641556 -0.382642 0
M  V30 4303 H 404.124 -1.92163 -0.325489 0
M  V30 4304 H 403.22 -2.63129 -1.67838 0
M  V30 4305 N 403.521 0.559213 -1.47345 0
M  V30 4306 C 404.468 1.66645 -1.59682 0
M  V30 4307 C 405.438 1.60168 -0.43994 0
M  V30 4308 O 406.623 1.79031 -0.659736 0
M  V30 4309 C 403.763 3.04969 -1.61518 0
M  V30 4310 C 402.876 3.21897 -2.88108 0
M  V30 4311 C 402.011 4.50608 -2.81294 0
M  V30 4312 C 401.05 4.60961 -4.02717 0
M  V30 4313 N 400.187 5.81024 -3.94151 0
M  V30 4314 H 405.027 1.55439 -2.54249 0
M  V30 4315 H 402.564 0.757219 -1.26113 0
M  V30 4316 H 404.522 3.85064 -1.60566 0
M  V30 4317 H 403.152 3.15015 -0.704645 0
M  V30 4318 H 402.204 2.35248 -2.98936 0
M  V30 4319 H 403.516 3.25412 -3.78032 0
M  V30 4320 H 402.67 5.3896 -2.7858 0
M  V30 4321 H 401.409 4.49568 -1.89049 0
M  V30 4322 H 400.414 3.71021 -4.05738 0
M  V30 4323 H 401.639 4.63761 -4.96087 0
M  V30 4324 H 399.585 5.80938 -3.04708 0
M  V30 4325 H 399.502 5.85909 -4.77752 0
M  V30 4326 H 400.77 6.71744 -3.9545 0
M  V30 4327 N 404.999 1.35443 0.805782 0
M  V30 4328 C 405.909 1.30546 1.94923 0
M  V30 4329 C 406.925 0.210233 1.72725 0
M  V30 4330 O 408.101 0.43975 1.9654 0
M  V30 4331 C 405.166 1.07782 3.29521 0
M  V30 4332 C 404.227 2.26625 3.64609 0
M  V30 4333 C 403.46 2.04938 4.92784 0
M  V30 4334 O 403.683 1.01624 5.61274 0
M  V30 4335 O 402.617 2.9232 5.26149 0
M  V30 4336 H 406.443 2.26779 2.02002 0
M  V30 4337 H 404.028 1.15823 0.943682 0
M  V30 4338 H 405.91 0.969392 4.10098 0
M  V30 4339 H 404.585 0.146003 3.23371 0
M  V30 4340 H 403.492 2.43033 2.84404 0
M  V30 4341 H 404.825 3.18257 3.75464 0
M  V30 4342 N 406.477 -1.02803 1.19454 0
M  V30 4343 C 407.723 -1.76478 0.999171 0
M  V30 4344 C 408.056 -1.88456 -0.468828 0
M  V30 4345 O 407.331 -1.40198 -1.34814 0
M  V30 4346 C 407.614 -3.19044 1.66981 0
M  V30 4347 C 407.467 -3.14932 3.21151 0
M  V30 4348 C 408.786 -4.17456 1.39349 0
M  V30 4349 H 405.905 -0.640614 0.364393 0
M  V30 4350 H 408.547 -1.20005 1.47305 0
M  V30 4351 H 406.697 -3.67263 1.2669 0
M  V30 4352 H 408.369 -2.74605 3.70661 0
M  V30 4353 H 406.612 -2.52625 3.52652 0
M  V30 4354 H 407.283 -4.1566 3.63223 0
M  V30 4355 H 409.759 -3.77842 1.74283 0
M  V30 4356 H 408.635 -5.154 1.88823 0
M  V30 4357 H 408.896 -4.40949 0.318813 0
M  V30 4358 N 407.956 -0.998596 -1.21925 0
M  V30 4359 C 408.903 -0.553621 -2.24062 0
M  V30 4360 C 409.873 0.416999 -1.6078 0
M  V30 4361 O 411.058 0.320482 -1.88089 0
M  V30 4362 C 408.198 0.119959 -3.44891 0
M  V30 4363 C 407.311 -0.893077 -4.22668 0
M  V30 4364 C 406.446 -0.192424 -5.30851 0
M  V30 4365 C 405.485 -1.19344 -6.00353 0
M  V30 4366 N 404.622 -0.520707 -7.00166 0
M  V30 4367 H 409.462 -1.4293 -2.61486 0
M  V30 4368 H 406.999 -0.715838 -1.28507 0
M  V30 4369 H 408.957 0.527459 -4.13852 0
M  V30 4370 H 407.587 0.959389 -3.08214 0
M  V30 4371 H 406.639 -1.41886 -3.52948 0
M  V30 4372 H 407.951 -1.65512 -4.70539 0
M  V30 4373 H 407.105 0.271515 -6.06092 0
M  V30 4374 H 405.844 0.602075 -4.83969 0
M  V30 4375 H 404.849 -1.66795 -5.23889 0
M  V30 4376 H 406.074 -1.98891 -6.49322 0
M  V30 4377 H 404.02 0.254252 -6.55507 0
M  V30 4378 H 403.937 -1.2211 -7.46073 0
M  V30 4379 H 405.205 -0.0797596 -7.79459 0
M  V30 4380 N 409.434 1.37368 -0.772513 0
M  V30 4381 C 410.381 2.30262 -0.157488 0
M  V30 4382 C 411.351 1.51137 0.688965 0
M  V30 4383 O 412.536 1.79704 0.641168 0
M  V30 4384 C 409.676 3.37611 0.715045 0
M  V30 4385 C 408.789 4.31746 -0.148098 0
M  V30 4386 C 407.924 5.26171 0.729213 0
M  V30 4387 C 406.963 6.11948 -0.136418 0
M  V30 4388 N 406.1 6.98613 0.698914 0
M  V30 4389 H 410.94 2.82277 -0.955179 0
M  V30 4390 H 408.477 1.38957 -0.482631 0
M  V30 4391 H 410.435 3.98479 1.23575 0
M  V30 4392 H 409.065 2.86959 1.47833 0
M  V30 4393 H 408.117 3.72178 -0.786613 0
M  V30 4394 H 409.429 4.92084 -0.81579 0
M  V30 4395 H 408.583 5.92247 1.31637 0
M  V30 4396 H 407.322 4.66246 1.43059 0
M  V30 4397 H 406.327 5.4485 -0.736102 0
M  V30 4398 H 407.552 6.73945 -0.835134 0
M  V30 4399 H 405.498 6.41215 1.38489 0
M  V30 4400 H 405.415 7.55948 0.0885358 0
M  V30 4401 H 406.683 7.69077 1.27044 0
M  V30 4402 N 410.912 0.523116 1.48665 0
M  V30 4403 C 412.161 -0.01544 2.01694 0
M  V30 4404 C 412.474 -1.35975 1.40606 0
M  V30 4405 O 413.68 -1.98627 1.85093 0
M  V30 4406 C 412.136 -0.0779303 3.59816 0
M  V30 4407 C 411.744 1.26107 4.29885 0
M  V30 4408 C 413.488 -0.565678 4.20714 0
M  V30 4409 C 411.395 1.15954 5.79921 0
M  V30 4410 H 410.325 -0.00954163 0.75394 0
M  V30 4411 H 412.976 0.665865 1.70993 0
M  V30 4412 H 411.358 -0.824165 3.87329 0
M  V30 4413 H 412.532 2.02233 4.14051 0
M  V30 4414 H 410.847 1.68401 3.80828 0
M  V30 4415 H 413.444 -0.6595 5.30617 0
M  V30 4416 H 413.787 -1.56984 3.85567 0
M  V30 4417 H 414.32 0.12467 3.97605 0
M  V30 4418 H 411.059 2.13864 6.19631 0
M  V30 4419 H 410.579 0.439529 5.98187 0
M  V30 4420 H 412.258 0.847361 6.41427 0
M  V30 4421 N 412.39 -1.55475 0.257931 0
M  V30 4422 C 413.801 -1.8511 -0.243135 0
M  V30 4423 C 414.152 -1.17986 -1.5676 0
M  V30 4424 O 413.277 -0.462102 -2.11409 0
M  V30 4425 C 413.872 -3.35826 -0.447929 0
M  V30 4426 C 412.431 -3.65647 -0.893245 0
M  V30 4427 C 411.578 -2.7729 0.0232965 0
M  V30 4428 H 414.529 -1.51261 0.480199 0
M  V30 4429 H 414.55 -3.58002 -1.28898 0
M  V30 4430 H 414.062 -3.84652 0.516196 0
M  V30 4431 H 412.163 -3.22308 -1.86945 0
M  V30 4432 H 412.276 -4.73312 -0.742469 0
M  V30 4433 H 410.64 -2.49942 -0.490021 0
M  V30 4434 H 411.423 -3.28926 0.982994 0
M  V30 4435 N 413.868 0.0150385 -1.57593 0
M  V30 4436 C 414.798 1.01047 -2.10503 0
M  V30 4437 C 415.779 1.36816 -1.01071 0
M  V30 4438 O 416.964 1.45455 -1.28672 0
M  V30 4439 C 414.094 2.30708 -2.59598 0
M  V30 4440 C 413.048 2.09142 -3.73421 0
M  V30 4441 C 412.374 3.44685 -4.08774 0
M  V30 4442 C 413.674 1.46619 -5.01298 0
M  V30 4443 H 415.368 0.569978 -2.93925 0
M  V30 4444 H 412.914 0.272724 -1.41394 0
M  V30 4445 H 414.867 3.00687 -2.95238 0
M  V30 4446 H 413.591 2.76843 -1.73279 0
M  V30 4447 H 412.25 1.41592 -3.38153 0
M  V30 4448 H 411.898 3.88495 -3.195 0
M  V30 4449 H 411.598 3.31077 -4.8545 0
M  V30 4450 H 413.122 4.16004 -4.4696 0
M  V30 4451 H 414.536 2.06535 -5.34805 0
M  V30 4452 H 412.933 1.43544 -5.82679 0
M  V30 4453 H 414.003 0.433611 -4.82957 0
M  V30 4454 N 415.346 1.54954 0.287554 0
M  V30 4455 C 416.293 1.86834 1.35505 0
M  V30 4456 C 417.263 0.718452 1.49758 0
M  V30 4457 O 418.448 0.968358 1.644 0
M  V30 4458 C 415.588 2.13303 2.71286 0
M  V30 4459 C 414.701 3.40883 2.65373 0
M  V30 4460 C 413.836 3.57125 3.93236 0
M  V30 4461 C 412.875 4.78449 3.81776 0
M  V30 4462 N 412.012 4.91426 5.01443 0
M  V30 4463 H 416.852 2.77889 1.07619 0
M  V30 4464 H 414.389 1.37593 0.520241 0
M  V30 4465 H 416.347 2.26646 3.50267 0
M  V30 4466 H 414.977 1.25499 2.97405 0
M  V30 4467 H 414.029 3.36088 1.78182 0
M  V30 4468 H 415.341 4.29993 2.52799 0
M  V30 4469 H 414.495 3.70207 4.80658 0
M  V30 4470 H 413.234 2.66173 4.0866 0
M  V30 4471 H 412.239 4.65386 2.92738 0
M  V30 4472 H 413.464 5.70822 3.67884 0
M  V30 4473 H 411.41 4.03401 5.17304 0
M  V30 4474 H 411.327 5.74559 4.91343 0
M  V30 4475 H 412.595 5.08879 5.90477 0
M  V30 4476 N 416.824 -0.551391 1.4764 0
M  V30 4477 C 418.073 -1.30467 1.53822 0
M  V30 4478 C 418.386 -1.94495 0.207661 0
M  V30 4479 O 419.592 -2.71099 0.147533 0
M  V30 4480 C 418.048 -2.36616 2.71184 0
M  V30 4481 C 417.656 -1.78754 4.10793 0
M  V30 4482 C 419.4 -3.13088 2.86663 0
M  V30 4483 C 417.307 -2.82717 5.19447 0
M  V30 4484 H 416.237 -0.490584 0.572576 0
M  V30 4485 H 418.888 -0.58494 1.73927 0
M  V30 4486 H 417.27 -3.11529 2.4447 0
M  V30 4487 H 418.444 -1.10173 4.47435 0
M  V30 4488 H 416.759 -1.14846 4.00249 0
M  V30 4489 H 419.356 -3.90736 3.65007 0
M  V30 4490 H 419.699 -3.67635 1.95321 0
M  V30 4491 H 420.232 -2.45288 3.13175 0
M  V30 4492 H 416.971 -2.33018 6.12685 0
M  V30 4493 H 416.491 -3.4969 4.87316 0
M  V30 4494 H 418.17 -3.46102 5.46646 0
M  V30 4495 N 418.302 -1.35869 -0.798587 0
M  V30 4496 C 419.232 -1.32118 -1.92528 0
M  V30 4497 C 420.213 -0.194209 -1.68988 0
M  V30 4498 O 421.398 -0.390426 -1.90235 0
M  V30 4499 C 418.528 -1.10047 -3.29404 0
M  V30 4500 C 417.482 -2.19471 -3.67446 0
M  V30 4501 C 416.808 -1.82555 -5.02571 0
M  V30 4502 C 418.108 -3.61495 -3.76987 0
M  V30 4503 H 419.802 -2.26394 -1.95924 0
M  V30 4504 H 417.348 -1.08981 -0.94123 0
M  V30 4505 H 419.301 -1.06061 -4.07835 0
M  V30 4506 H 418.025 -0.122195 -3.26371 0
M  V30 4507 H 416.684 -2.22568 -2.91306 0
M  V30 4508 H 416.332 -0.833249 -4.9605 0
M  V30 4509 H 416.032 -2.5581 -5.28995 0
M  V30 4510 H 417.556 -1.80108 -5.83432 0
M  V30 4511 H 418.97 -3.60676 -4.4563 0
M  V30 4512 H 417.367 -4.33577 -4.14887 0
M  V30 4513 H 418.437 -3.97065 -2.78329 0
M  V30 4514 N 419.78 1.02168 -1.19998 0
M  V30 4515 C 420.743 2.08765 -0.94604 0
M  V30 4516 C 421.743 1.60618 0.0763846 0
M  V30 4517 O 422.933 1.73472 -0.159135 0
M  V30 4518 C 420.065 3.38262 -0.423255 0
M  V30 4519 H 421.258 2.32726 -1.89153 0
M  V30 4520 H 418.811 1.1889 -1.01464 0
M  V30 4521 H 419.546 3.19974 0.527938 0
M  V30 4522 H 419.331 3.74532 -1.16053 0
M  V30 4523 H 420.821 4.16759 -0.264911 0
M  V30 4524 N 421.258 1.00505 1.21394 0
M  V30 4525 C 422.483 0.706367 1.95001 0
M  V30 4526 C 422.908 -0.72463 1.73582 0
M  V30 4527 O 422.266 -1.49702 1.0227 0
M  V30 4528 C 422.314 1.03299 3.45487 0
M  V30 4529 O 421.418 0.138275 4.12168 0
M  V30 4530 H 420.759 0.263175 0.609619 0
M  V30 4531 H 423.289 1.34531 1.54151 0
M  V30 4532 H 423.299 0.979872 3.96059 0
M  V30 4533 H 421.974 2.07567 3.60401 0
M  V30 4534 H 420.551 0.247928 3.72075 0
M  V30 4535 N 422.737 -1.36956 0.779787 0
M  V30 4536 C 423.983 -1.99787 0.348281 0
M  V30 4537 C 424.316 -1.61756 -1.07465 0
M  V30 4538 O 423.591 -0.867639 -1.74075 0
M  V30 4539 C 423.874 -3.56597 0.50104 0
M  V30 4540 C 423.727 -4.04513 1.96697 0
M  V30 4541 C 425.046 -4.40008 -0.0898097 0
M  V30 4542 H 422.165 -0.725796 0.128022 0
M  V30 4543 H 424.807 -1.62514 0.984331 0
M  V30 4544 H 422.957 -3.88479 -0.0404347 0
M  V30 4545 H 424.629 -3.83161 2.56876 0
M  V30 4546 H 422.872 -3.56408 2.47297 0
M  V30 4547 H 423.543 -5.1352 2.02486 0
M  V30 4548 H 426.019 -4.14431 0.372293 0
M  V30 4549 H 424.895 -5.4888 0.0471605 0
M  V30 4550 H 425.156 -4.26035 -1.18096 0
M  V30 4551 N 424.215 -0.530993 -1.48385 0
M  V30 4552 C 425.162 0.231223 -2.29639 0
M  V30 4553 C 426.132 0.932864 -1.37429 0
M  V30 4554 O 427.317 0.933692 -1.66394 0
M  V30 4555 C 424.457 1.27155 -3.2082 0
M  V30 4556 C 423.57 0.578655 -4.28107 0
M  V30 4557 C 422.705 1.602 -5.06467 0
M  V30 4558 C 421.744 0.892625 -6.05556 0
M  V30 4559 N 420.881 1.86157 -6.76971 0
M  V30 4560 H 425.721 -0.467848 -2.94305 0
M  V30 4561 H 423.258 -0.242556 -1.45086 0
M  V30 4562 H 425.216 1.88703 -3.72085 0
M  V30 4563 H 423.846 1.939 -2.58075 0
M  V30 4564 H 422.898 -0.150782 -3.80101 0
M  V30 4565 H 424.21 0.0217065 -4.98795 0
M  V30 4566 H 423.364 2.29173 -5.61751 0
M  V30 4567 H 422.103 2.19285 -4.35621 0
M  V30 4568 H 421.108 0.188829 -5.49476 0
M  V30 4569 H 422.333 0.307878 -6.78402 0
M  V30 4570 H 420.279 2.44147 -6.08875 0
M  V30 4571 H 420.196 1.35608 -7.43738 0
M  V30 4572 H 421.464 2.54325 -7.36844 0
M  V30 4573 N 425.693 1.55336 -0.266172 0
M  V30 4574 C 426.97 1.91372 0.404486 0
M  V30 4575 C 427.35 1.18935 1.74407 0
M  V30 4576 O 426.698 0.3132 2.26343 0
M  V30 4577 C 426.908 3.44581 0.553593 0
M  V30 4578 C 428.256 4.16196 0.840618 0
M  V30 4579 O 429.28 3.50426 0.638739 0
M  V30 4580 O 428.139 5.32567 1.22618 0
M  V30 4581 H 425.233 0.797194 0.220025 0
M  V30 4582 H 427.779 1.66813 -0.311664 0
M  V30 4583 H 426.551 3.89357 -0.389498 0
M  V30 4584 H 426.174 3.75065 1.31955 0
M  V30 4585 N 427.171 -0.0066808 1.57599 0
M  V30 4586 C 428.134 -0.985035 2.06953 0
M  V30 4587 C 429.134 -1.27663 0.977687 0
M  V30 4588 O 430.324 -1.22293 1.24057 0
M  V30 4589 C 427.456 -2.3118 2.50536 0
M  V30 4590 H 428.649 -0.558255 2.94658 0
M  V30 4591 H 426.202 -0.254011 1.54222 0
M  V30 4592 H 426.937 -2.78561 1.66054 0
M  V30 4593 H 426.722 -2.11338 3.3027 0
M  V30 4594 H 428.212 -3.01377 2.8907 0
M  V30 4595 N 428.649 -1.55105 -0.279332 0
M  V30 4596 C 429.879 -1.7917 -1.02867 0
M  V30 4597 C 430.287 -0.56204 -1.80659 0
M  V30 4598 O 429.63 0.478266 -1.77365 0
M  V30 4599 C 429.692 -2.96061 -2.03932 0
M  V30 4600 C 429.356 -4.33341 -1.45137 0
M  V30 4601 C 430.353 -5.12565 -0.870266 0
M  V30 4602 C 428.038 -4.79987 -1.48048 0
M  V30 4603 C 430.032 -6.36565 -0.326097 0
M  V30 4604 C 427.719 -6.03944 -0.932443 0
M  V30 4605 C 428.717 -6.8207 -0.356247 0
M  V30 4606 O 428.405 -8.03691 0.183412 0
M  V30 4607 H 428.137 -0.600796 -0.309872 0
M  V30 4608 H 430.691 -2.02932 -0.317468 0
M  V30 4609 H 428.921 -2.67975 -2.78794 0
M  V30 4610 H 430.61 -3.07506 -2.64943 0
M  V30 4611 H 431.376 -4.77661 -0.840521 0
M  V30 4612 H 427.255 -4.1919 -1.91835 0
M  V30 4613 H 430.799 -6.97489 0.124286 0
M  V30 4614 H 426.696 -6.3833 -0.959407 0
M  V30 4615 H 427.464 -8.18468 0.0721681 0
M  V30 4616 N 430.127 0.543554 -1.4793 0
M  V30 4617 C 431.355 1.32516 -1.58894 0
M  V30 4618 C 431.77 1.87215 -0.244131 0
M  V30 4619 O 431.127 1.65709 0.764652 0
M  V30 4620 C 431.178 2.48554 -2.62494 0
M  V30 4621 O 430.899 1.96112 -3.91755 0
M  V30 4622 C 432.4 3.40572 -2.8377 0
M  V30 4623 H 429.62 0.403472 -0.536145 0
M  V30 4624 H 432.164 0.657106 -1.93655 0
M  V30 4625 H 430.319 3.1127 -2.30629 0
M  V30 4626 H 430.733 2.71967 -4.4848 0
M  V30 4627 H 432.207 4.18375 -3.60093 0
M  V30 4628 H 432.684 3.94965 -1.92092 0
M  V30 4629 H 433.29 2.8366 -3.16887 0
M  V30 4630 N 431.605 1.3629 0.791371 0
M  V30 4631 C 432.882 1.20962 1.53712 0
M  V30 4632 C 433.262 -0.205021 2.10102 0
M  V30 4633 O 432.61 -1.21042 1.93807 0
M  V30 4634 C 432.82 2.29002 2.63361 0
M  V30 4635 C 434.168 2.65572 3.31295 0
M  V30 4636 O 435.192 2.2803 2.73643 0
M  V30 4637 O 434.051 3.3018 4.35481 0
M  V30 4638 H 431.145 0.47086 0.679867 0
M  V30 4639 H 433.691 1.48016 0.830021 0
M  V30 4640 H 432.463 3.2382 2.19674 0
M  V30 4641 H 432.086 2.03303 3.41692 0
M  V30 4642 N 433.083 -1.0153 1.20538 0
M  V30 4643 C 434.499 -1.27461 0.96051 0
M  V30 4644 C 434.699 -1.98273 -0.359193 0
M  V30 4645 O 433.755 -2.27886 -1.0874 0
M  V30 4646 C 435.068 -2.10837 2.14402 0
M  V30 4647 C 436.616 -2.24099 2.18515 0
M  V30 4648 C 437.091 -3.10852 3.36355 0
M  V30 4649 N 438.582 -3.18441 3.36377 0
M  V30 4650 C 439.317 -3.85795 4.24205 0
M  V30 4651 N 438.813 -4.55264 5.22213 0
M  V30 4652 N 440.606 -3.82331 4.12043 0
M  V30 4653 H 432.757 -0.539907 2.05423 0
M  V30 4654 H 435.02 -0.30092 0.898972 0
M  V30 4655 H 434.726 -1.66144 3.09983 0
M  V30 4656 H 434.6 -3.11576 2.12604 0
M  V30 4657 H 436.987 -2.68016 1.23497 0
M  V30 4658 H 437.068 -1.22865 2.24361 0
M  V30 4659 H 436.712 -2.6764 4.31661 0
M  V30 4660 H 436.642 -4.12177 3.27746 0
M  V30 4661 H 439.133 -2.68978 2.65442 0
M  V30 4662 H 439.446 -5.04331 5.85551 0
M  V30 4663 H 437.791 -4.54085 5.26148 0
M  V30 4664 H 440.982 -3.27207 3.34743 0
M  V30 4665 H 441.155 -4.34547 4.807 0
M  V30 4666 N 434.561 -1.01147 -1.20859 0
M  V30 4667 C 435.491 -0.597663 -2.25722 0
M  V30 4668 C 436.472 0.384744 -1.65692 0
M  V30 4669 O 437.657 0.271303 -1.92296 0
M  V30 4670 C 434.787 0.0700149 -3.47229 0
M  V30 4671 C 433.741 -0.832843 -4.19819 0
M  V30 4672 C 433.067 -0.0312202 -5.34691 0
M  V30 4673 C 434.367 -2.1385 -4.76514 0
M  V30 4674 H 436.061 -1.47423 -2.60589 0
M  V30 4675 H 433.607 -0.710301 -1.25263 0
M  V30 4676 H 435.56 0.37103 -4.19763 0
M  V30 4677 H 434.284 0.981259 -3.11511 0
M  V30 4678 H 432.943 -1.11778 -3.49144 0
M  V30 4679 H 432.591 0.881515 -4.95215 0
M  V30 4680 H 432.291 -0.632434 -5.84187 0
M  V30 4681 H 433.815 0.26346 -6.10031 0
M  V30 4682 H 435.229 -1.9002 -5.40893 0
M  V30 4683 H 433.626 -2.69012 -5.36426 0
M  V30 4684 H 434.696 -2.80495 -3.95538 0
M  V30 4685 N 436.039 1.36541 -0.78704 0
M  V30 4686 C 437.316 1.9355 -0.282424 0
M  V30 4687 C 437.696 1.71919 1.22503 0
M  V30 4688 O 437.044 1.07677 2.01539 0
M  V30 4689 C 437.254 3.4246 -0.672462 0
M  V30 4690 C 438.602 4.19582 -0.650863 0
M  V30 4691 O 439.626 3.50889 -0.612789 0
M  V30 4692 O 438.485 5.42106 -0.691623 0
M  V30 4693 H 435.579 0.824091 -0.0693 0
M  V30 4694 H 438.125 1.45736 -0.869423 0
M  V30 4695 H 436.897 3.51851 -1.71221 0
M  V30 4696 H 436.52 3.97556 -0.0592211 0
M  V30 4697 N 437.518 0.538854 1.48102 0
M  V30 4698 C 438.795 -0.0568108 1.95517 0
M  V30 4699 C 439.175 -1.50408 1.48124 0
M  V30 4700 O 438.523 -2.17133 0.711727 0
M  V30 4701 C 438.733 0.0696262 3.48931 0
M  V30 4702 C 440.081 -0.0851202 4.24515 0
M  V30 4703 O 441.105 -0.0037347 3.562 0
M  V30 4704 O 439.964 -0.257025 5.45895 0
M  V30 4705 H 437.058 -0.0743695 0.823649 0
M  V30 4706 H 439.604 0.604081 1.58584 0
M  V30 4707 H 438.376 1.07744 3.76174 0
M  V30 4708 H 437.999 -0.629714 3.92582 0
M  V30 4709 N 438.996 -1.55193 0.274407 0
M  V30 4710 C 440.242 -2.00604 -0.33608 0
M  V30 4711 C 440.597 -1.15948 -1.53538 0
M  V30 4712 O 439.89 -0.221385 -1.90317 0
M  V30 4713 C 440.084 -3.49019 -0.769458 0
M  V30 4714 C 439.913 -4.48038 0.386301 0
M  V30 4715 C 438.683 -4.97757 0.869854 0
M  V30 4716 C 440.881 -4.99558 1.22254 0
M  V30 4717 N 438.863 -5.80575 1.99515 0
M  V30 4718 C 440.234 -5.79816 2.19575 0
M  V30 4719 C 442.289 -4.81799 1.25597 0
M  V30 4720 C 440.992 -6.44208 3.19981 0
M  V30 4721 C 443.018 -5.46989 2.24848 0
M  V30 4722 C 442.38 -6.27058 3.20901 0
M  V30 4723 H 438.479 -0.777013 -0.088172 0
M  V30 4724 H 441.063 -1.90583 0.398266 0
M  V30 4725 H 439.234 -3.59383 -1.47303 0
M  V30 4726 H 440.966 -3.81263 -1.35722 0
M  V30 4727 H 437.721 -4.71464 0.449281 0
M  V30 4728 H 438.145 -6.26675 2.5614 0
M  V30 4729 H 442.787 -4.19501 0.527158 0
M  V30 4730 H 440.505 -7.05656 3.93796 0
M  V30 4731 H 444.091 -5.35189 2.28174 0
M  V30 4732 H 442.971 -6.7661 3.96445 0
M  V30 4733 N 440.474 -0.00167713 -1.576 0
M  V30 4734 C 441.422 1.0074 -2.09652 0
M  V30 4735 C 442.416 1.35483 -1.01689 0
M  V30 4736 O 443.622 1.34028 -1.20152 0
M  V30 4737 H 439.997 0.342537 -0.669457 0
M  V30 4738 H 441.968 0.542841 -2.93421 0
M  V30 4739 C 440.717 2.2899 -2.61647 0
M  V30 4740 H 440.04 2.03124 -3.44355 0
M  V30 4741 H 441.48 2.9787 -3.01744 0
M  V30 4742 C 439.939 3.00085 -1.53136 0
M  V30 4743 O 440.469 3.91135 -0.91524 0
M  V30 4744 N 438.675 2.6194 -1.25841 0
M  V30 4745 H 438.222 1.8798 -1.76129 0
M  V30 4746 H 438.18 3.09822 -0.534576 0
M  V30 4747 N 441.952 1.55251 0.271103 0
M  V30 4748 C 443.2 1.75599 1.00047 0
M  V30 4749 C 443.521 0.561188 1.8675 0
M  V30 4750 O 442.791 -0.423846 1.9126 0
M  V30 4751 H 441.371 0.647562 0.372387 0
M  V30 4752 H 444.033 1.92656 0.294876 0
M  V30 4753 H 443.129 2.65766 1.6363 0
M  V30 4754 N 443.43 -0.535701 1.48216 0
M  V30 4755 C 444.679 -1.28828 1.55197 0
M  V30 4756 C 444.992 -1.94263 0.228278 0
M  V30 4757 O 446.198 -2.70927 0.176278 0
M  V30 4758 C 444.654 -2.33727 2.73678 0
M  V30 4759 C 444.262 -1.74386 4.12666 0
M  V30 4760 C 446.006 -3.1003 2.89968 0
M  V30 4761 C 443.913 -2.77192 5.22416 0
M  V30 4762 H 442.843 -0.484484 0.577747 0
M  V30 4763 H 445.494 -0.56646 1.74538 0
M  V30 4764 H 443.876 -3.08919 2.4776 0
M  V30 4765 H 445.05 -1.05421 4.48579 0
M  V30 4766 H 443.365 -1.10595 4.01445 0
M  V30 4767 H 445.962 -3.86842 3.6913 0
M  V30 4768 H 446.305 -3.65542 1.9921 0
M  V30 4769 H 446.838 -2.41952 3.15759 0
M  V30 4770 H 443.577 -2.26507 6.15122 0
M  V30 4771 H 443.097 -3.44502 4.90998 0
M  V30 4772 H 444.776 -3.40285 5.50286 0
M  V30 4773 N 444.908 -1.36708 -0.784132 0
M  V30 4774 C 446.157 -1.30559 -1.53744 0
M  V30 4775 C 446.47 0.111374 -1.95283 0
M  V30 4776 O 447.676 0.29527 -2.6989 0
M  V30 4777 C 446.132 -2.29098 -2.77565 0
M  V30 4778 C 445.74 -3.76258 -2.43174 0
M  V30 4779 C 447.484 -2.31936 -3.55536 0
M  V30 4780 C 445.391 -4.6656 -3.63422 0
M  V30 4781 H 444.321 -0.48518 -0.577162 0
M  V30 4782 H 446.972 -1.62101 -0.859981 0
M  V30 4783 H 445.354 -1.90557 -3.47137 0
M  V30 4784 H 446.528 -4.23565 -1.81465 0
M  V30 4785 H 444.843 -3.76246 -1.78403 0
M  V30 4786 H 447.44 -2.9661 -4.44889 0
M  V30 4787 H 447.783 -1.3294 -3.94503 0
M  V30 4788 H 448.316 -2.6912 -2.92949 0
M  V30 4789 H 445.055 -5.66638 -3.29547 0
M  V30 4790 H 444.575 -4.23966 -4.24279 0
M  V30 4791 H 446.254 -4.8309 -4.30387 0
M  V30 4792 N 446.386 1.0089 -1.21074 0
M  V30 4793 C 447.349 2.0775 -0.968129 0
M  V30 4794 C 448.349 1.6069 0.0593445 0
M  V30 4795 O 449.539 1.73293 -0.177525 0
M  V30 4796 C 446.671 3.37794 -0.459108 0
M  V30 4797 H 447.864 2.30707 -1.9161 0
M  V30 4798 H 445.417 1.17807 -1.02719 0
M  V30 4799 H 446.152 3.20516 0.49397 0
M  V30 4800 H 445.937 3.7328 -1.20019 0
M  V30 4801 H 447.427 4.16454 -0.309099 0
M  V30 4802 N 447.864 1.01787 1.20321 0
M  V30 4803 C 449.112 0.706538 1.89347 0
M  V30 4804 C 449.433 -0.766289 1.79313 0
M  V30 4805 O 448.703 -1.55126 1.19635 0
M  V30 4806 H 447.283 0.258348 0.700903 0
M  V30 4807 H 449.945 1.28974 1.46122 0
M  V30 4808 H 449.041 0.991066 2.95946 0
M  V30 4809 N 449.342 -1.36122 0.79427 0
M  V30 4810 C 450.29 -2.31871 0.184023 0
M  V30 4811 C 451.284 -1.56041 -0.659365 0
M  V30 4812 O 452.49 -1.71266 -0.553906 0
M  V30 4813 H 448.865 -0.750896 0.0407373 0
M  V30 4814 H 450.836 -2.80898 1.00693 0
M  V30 4815 C 449.585 -3.41324 -0.662813 0
M  V30 4816 H 448.908 -3.99793 -0.0231944 0
M  V30 4817 H 450.348 -4.10629 -1.05639 0
M  V30 4818 C 448.807 -2.83308 -1.82313 0
M  V30 4819 O 449.337 -2.75863 -2.91997 0
M  V30 4820 N 447.543 -2.40529 -1.63077 0
M  V30 4821 H 447.09 -2.46785 -0.738591 0
M  V30 4822 H 447.048 -2.02059 -2.40872 0
M  V30 4823 N 450.82 -0.546701 -1.47814 0
M  V30 4824 C 451.752 0.244196 -2.27895 0
M  V30 4825 C 452.765 0.88911 -1.36377 0
M  V30 4826 O 453.954 0.764733 -1.61289 0
M  V30 4827 C 451.054 1.36252 -3.10304 0
M  V30 4828 C 450.227 0.816382 -4.29714 0
M  V30 4829 C 449.286 1.81789 -4.93801 0
M  V30 4830 O 448.312 1.36818 -5.52512 0
M  V30 4831 N 449.514 3.15085 -4.87547 0
M  V30 4832 H 452.279 -0.442694 -2.96412 0
M  V30 4833 H 449.84 -0.382095 -1.57327 0
M  V30 4834 H 451.832 2.03102 -3.50045 0
M  V30 4835 H 450.402 1.95281 -2.44099 0
M  V30 4836 H 449.622 -0.0285981 -3.9419 0
M  V30 4837 H 450.91 0.430668 -5.06974 0
M  V30 4838 H 450.308 3.54275 -4.41028 0
M  V30 4839 H 448.865 3.77522 -5.31339 0
M  V30 4840 N 452.299 1.55045 -0.282633 0
M  V30 4841 C 453.529 2.03872 0.334635 0
M  V30 4842 C 453.937 1.16018 1.49454 0
M  V30 4843 O 453.28 0.174449 1.8287 0
M  V30 4844 C 453.342 3.48791 0.870905 0
M  V30 4845 C 453.006 4.56715 -0.161338 0
M  V30 4846 C 454.003 5.10513 -0.983466 0
M  V30 4847 C 451.688 5.01417 -0.297745 0
M  V30 4848 C 453.682 6.07538 -1.92811 0
M  V30 4849 C 451.369 5.98265 -1.24586 0
M  V30 4850 C 452.367 6.51208 -2.05954 0
M  V30 4851 O 452.055 7.46162 -2.99162 0
M  V30 4852 H 451.787 0.671324 0.0793742 0
M  V30 4853 H 454.341 2.01169 -0.41473 0
M  V30 4854 H 452.571 3.48758 1.67047 0
M  V30 4855 H 454.26 3.80916 1.40207 0
M  V30 4856 H 455.026 4.76785 -0.888856 0
M  V30 4857 H 450.905 4.59849 0.325604 0
M  V30 4858 H 454.449 6.48787 -2.56363 0
M  V30 4859 H 450.346 6.31412 -1.34126 0
M  V30 4860 H 451.114 7.63903 -2.93929 0
M  V30 4861 N 453.777 0.010035 1.57597 0
M  V30 4862 C 455.007 -0.682422 1.95004 0
M  V30 4863 C 455.415 -1.67278 0.884014 0
M  V30 4864 O 454.758 -1.83129 -0.144672 0
M  V30 4865 C 454.82 -1.46141 3.28456 0
M  V30 4866 C 454.484 -0.631523 4.52615 0
M  V30 4867 C 455.481 0.0850905 5.1983 0
M  V30 4868 C 453.166 -0.574539 4.99003 0
M  V30 4869 C 455.16 0.847566 6.3174 0
M  V30 4870 C 452.847 0.191655 6.10799 0
M  V30 4871 C 453.845 0.901432 6.77025 0
M  V30 4872 O 453.533 1.65511 7.86677 0
M  V30 4873 H 453.265 -0.194361 0.647456 0
M  V30 4874 H 455.819 0.060312 2.05311 0
M  V30 4875 H 454.049 -2.24885 3.14585 0
M  V30 4876 H 455.738 -2.04016 3.50902 0
M  V30 4877 H 456.504 0.0502812 4.84974 0
M  V30 4878 H 452.383 -1.11654 4.47274 0
M  V30 4879 H 455.927 1.4021 6.83364 0
M  V30 4880 H 451.824 0.228249 6.45096 0
M  V30 4881 H 452.592 1.57287 8.03245 0
M  V30 4882 N 455.255 -1.55392 -0.262866 0
M  V30 4883 C 456.532 -1.67204 -1.01499 0
M  V30 4884 C 456.912 -0.545186 -2.03939 0
M  V30 4885 O 456.26 0.453467 -2.23955 0
M  V30 4886 C 456.47 -3.06847 -1.6627 0
M  V30 4887 C 457.818 -3.64928 -2.17054 0
M  V30 4888 O 458.842 -3.09545 -1.76239 0
M  V30 4889 O 457.701 -4.61984 -2.91947 0
M  V30 4890 H 454.795 -0.679467 -0.471438 0
M  V30 4891 H 457.341 -1.67729 -0.257918 0
M  V30 4892 H 456.113 -3.80309 -0.920915 0
M  V30 4893 H 455.736 -3.10266 -2.48638 0
M  V30 4894 N 456.733 0.527833 -1.48498 0
M  V30 4895 C 457.958 1.313 -1.60546 0
M  V30 4896 C 458.383 1.86199 -0.26672 0
M  V30 4897 O 457.741 1.64513 0.761918 0
M  V30 4898 C 457.789 2.43818 -2.65678 0
M  V30 4899 O 456.893 3.46916 -2.22987 0
M  V30 4900 H 456.234 0.388784 -0.538277 0
M  V30 4901 H 458.764 0.634896 -1.945 0
M  V30 4902 H 458.774 2.89973 -2.87018 0
M  V30 4903 H 457.449 2.03222 -3.62869 0
M  V30 4904 H 456.026 3.06864 -2.11869 0
M  V30 4905 N 458.211 1.37122 0.776871 0
M  V30 4906 C 459.158 1.3247 1.88998 0
M  V30 4907 C 460.128 0.191143 1.64997 0
M  V30 4908 O 461.313 0.379683 1.86984 0
M  V30 4909 C 458.453 1.13241 3.25992 0
M  V30 4910 C 457.566 2.35782 3.61982 0
M  V30 4911 C 456.701 2.09465 4.88158 0
M  V30 4912 C 455.74 3.279 5.16864 0
M  V30 4913 N 454.877 3.01167 6.34226 0
M  V30 4914 H 459.717 2.27642 1.9231 0
M  V30 4915 H 457.254 1.13125 0.94027 0
M  V30 4916 H 459.212 1.00115 4.0501 0
M  V30 4917 H 457.842 0.217186 3.22069 0
M  V30 4918 H 456.894 2.59666 2.77989 0
M  V30 4919 H 458.206 3.24125 3.79137 0
M  V30 4920 H 457.36 1.93341 5.75069 0
M  V30 4921 H 456.099 1.18452 4.73097 0
M  V30 4922 H 455.104 3.44569 4.2843 0
M  V30 4923 H 456.329 4.19757 5.33836 0
M  V30 4924 H 454.275 2.12779 6.20533 0
M  V30 4925 H 454.192 3.83052 6.51772 0
M  V30 4926 H 455.46 2.88649 7.24087 0
M  V30 4927 N 459.689 -1.00246 1.21608 0
M  V30 4928 C 460.637 -2.11193 0.97469 0
M  V30 4929 C 461.631 -1.69216 -0.0789303 0
M  V30 4930 O 462.837 -1.79853 0.0726806 0
M  V30 4931 H 459.212 -0.690455 0.297953 0
M  V30 4932 H 461.183 -2.2873 1.91638 0
M  V30 4933 C 459.932 -3.43182 0.558717 0
M  V30 4934 H 459.255 -3.75918 1.3611 0
M  V30 4935 H 460.695 -4.21823 0.429154 0
M  V30 4936 C 459.154 -3.28882 -0.730648 0
M  V30 4937 O 459.684 -3.59835 -1.78554 0
M  V30 4938 N 457.89 -2.8209 -0.698131 0
M  V30 4939 H 457.437 -2.57099 0.16061 0
M  V30 4940 H 457.395 -2.72903 -1.56113 0
M  V30 4941 N 461.167 -1.02423 -1.1978 0
M  V30 4942 C 462.077 -0.610919 -2.26506 0
M  V30 4943 C 463.093 0.355152 -1.70337 0
M  V30 4944 O 464.269 0.214195 -2.00258 0
M  V30 4945 C 461.334 0.0365921 -3.46681 0
M  V30 4946 C 460.395 -0.976389 -4.18049 0
M  V30 4947 C 459.628 -0.359683 -5.32487 0
M  V30 4948 O 459.851 0.838601 -5.64202 0
M  V30 4949 O 458.785 -1.08022 -5.92127 0
M  V30 4950 H 462.611 -1.49965 -2.64091 0
M  V30 4951 H 460.196 -0.794156 -1.26545 0
M  V30 4952 H 462.078 0.39786 -4.19518 0
M  V30 4953 H 460.753 0.899398 -3.10954 0
M  V30 4954 H 459.66 -1.38916 -3.47352 0
M  V30 4955 H 460.993 -1.80941 -4.57735 0
M  V30 4956 N 462.645 1.35699 -0.801477 0
M  V30 4957 C 463.577 2.28598 -0.166028 0
M  V30 4958 C 464.59 1.50044 0.631721 0
M  V30 4959 O 465.779 1.72339 0.464921 0
M  V30 4960 C 462.879 3.29625 0.787451 0
M  V30 4961 C 462.052 4.37384 0.037171 0
M  V30 4962 C 461.111 5.183 0.908375 0
M  V30 4963 O 460.137 5.68053 0.361189 0
M  V30 4964 N 461.339 5.35912 2.23112 0
M  V30 4965 H 464.104 2.83771 -0.964071 0
M  V30 4966 H 461.665 1.47994 -0.656469 0
M  V30 4967 H 463.657 3.80648 1.37439 0
M  V30 4968 H 462.227 2.75004 1.48632 0
M  V30 4969 H 461.447 3.87364 -0.730935 0
M  V30 4970 H 462.735 5.0653 -0.480109 0
M  V30 4971 H 462.133 4.97125 2.69968 0
M  V30 4972 H 460.69 5.90133 2.76741 0
M  V30 4973 N 464.123 0.554532 1.47522 0
M  V30 4974 C 465.056 -0.242442 2.26908 0
M  V30 4975 C 466.034 -0.922722 1.33883 0
M  V30 4976 O 467.218 -0.942244 1.63261 0
M  V30 4977 C 464.345 -1.34525 3.10839 0
M  V30 4978 C 463.391 -0.773805 4.19422 0
M  V30 4979 S 464.224 0.377525 5.34168 0
M  V30 4980 C 465.38 -0.727164 6.21662 0
M  V30 4981 H 465.613 0.431218 2.94156 0
M  V30 4982 H 463.146 0.3408 1.50592 0
M  V30 4983 H 465.104 -1.97683 3.59766 0
M  V30 4984 H 463.765 -1.99073 2.42958 0
M  V30 4985 H 462.958 -1.60187 4.77866 0
M  V30 4986 H 462.56 -0.218448 3.73361 0
M  V30 4987 H 464.852 -1.61992 6.57849 0
M  V30 4988 H 465.795 -0.180135 7.07871 0
M  V30 4989 H 466.203 -1.01863 5.55233 0
M  V30 4990 N 465.601 -1.54893 0.290851 0
M  V30 4991 C 466.564 -2.21824 -0.576784 0
M  V30 4992 C 467.564 -1.20104 -1.06919 0
M  V30 4993 O 468.754 -1.44906 -0.966843 0
M  V30 4994 C 465.886 -2.89662 -1.79747 0
M  V30 4995 H 467.079 -2.99899 0.00784051 0
M  V30 4996 H 464.632 -1.56245 0.0415934 0
M  V30 4997 H 465.367 -2.15639 -2.42219 0
M  V30 4998 H 465.152 -3.64219 -1.45214 0
M  V30 4999 H 466.642 -3.4075 -2.4141 0
M  V30 5000 N 467.08 -0.0183926 -1.57589 0
M  V30 5001 C 468.027 0.967022 -2.09565 0
M  V30 5002 C 468.997 1.32983 -0.995225 0
M  V30 5003 O 470.182 1.42501 -1.26878 0
M  V30 5004 C 467.322 2.24772 -2.61861 0
M  V30 5005 C 466.435 1.94232 -3.85873 0
M  V30 5006 C 465.57 3.16518 -4.26603 0
M  V30 5007 C 464.609 2.81748 -5.43401 0
M  V30 5008 N 463.746 3.96626 -5.79338 0
M  V30 5009 H 468.586 0.516874 -2.93483 0
M  V30 5010 H 466.123 0.243544 -1.4507 0
M  V30 5011 H 468.081 2.99667 -2.90268 0
M  V30 5012 H 466.711 2.67423 -1.8079 0
M  V30 5013 H 465.763 1.09625 -3.64262 0
M  V30 5014 H 467.075 1.64616 -4.70853 0
M  V30 5015 H 466.229 3.99743 -4.56389 0
M  V30 5016 H 464.968 3.49286 -3.40368 0
M  V30 5017 H 463.973 1.96933 -5.1332 0
M  V30 5018 H 465.198 2.50207 -6.31327 0
M  V30 5019 H 463.144 4.29257 -4.96059 0
M  V30 5020 H 463.061 3.70598 -6.58933 0
M  V30 5021 H 464.329 4.80586 -6.13724 0
M  V30 5022 N 468.558 1.5553 0.254621 0
M  V30 5023 C 469.488 1.9268 1.31897 0
M  V30 5024 C 470.469 0.790797 1.506 0
M  V30 5025 O 471.654 1.05045 1.63337 0
M  V30 5026 C 468.784 2.21477 2.67517 0
M  V30 5027 C 467.738 3.37256 2.63519 0
M  V30 5028 C 467.064 3.51576 4.02862 0
M  V30 5029 C 468.364 4.73157 2.21179 0
M  V30 5030 H 470.058 2.81832 1.01051 0
M  V30 5031 H 467.604 1.35599 0.484662 0
M  V30 5032 H 469.557 2.46055 3.42104 0
M  V30 5033 H 468.281 1.29144 2.99982 0
M  V30 5034 H 466.94 3.12675 1.9139 0
M  V30 5035 H 466.588 2.56676 4.32581 0
M  V30 5036 H 466.288 4.2943 4.01078 0
M  V30 5037 H 467.812 3.78467 4.79161 0
M  V30 5038 H 469.226 4.97158 2.85494 0
M  V30 5039 H 467.623 5.54058 2.30521 0
M  V30 5040 H 468.693 4.70739 1.16332 0
M  V30 5041 N 470.036 -0.519951 1.48776 0
M  V30 5042 C 470.984 -1.64443 1.64503 0
M  V30 5043 C 471.978 -1.61501 0.511248 0
M  V30 5044 O 473.184 -1.66238 0.690294 0
M  V30 5045 H 469.559 -0.544776 0.518385 0
M  V30 5046 H 471.53 -1.48325 2.58925 0
M  V30 5047 C 470.279 -3.02673 1.71127 0
M  V30 5048 H 469.602 -3.05635 2.57735 0
M  V30 5049 H 471.042 -3.80941 1.86172 0
M  V30 5050 C 469.501 -3.33854 0.452032 0
M  V30 5051 O 470.031 -3.99385 -0.430678 0
M  V30 5052 N 468.237 -2.88825 0.32069 0
M  V30 5053 H 467.784 -2.35674 1.03998 0
M  V30 5054 H 467.742 -3.10056 -0.520814 0
M  V30 5055 N 471.514 -1.37532 -0.769588 0
M  V30 5056 C 472.446 -1.29347 -1.89214 0
M  V30 5057 C 473.459 -0.208842 -1.61455 0
M  V30 5058 O 474.648 -0.465158 -1.72333 0
M  V30 5059 C 471.748 -0.977649 -3.24492 0
M  V30 5060 C 470.921 -2.16817 -3.7988 0
M  V30 5061 C 469.98 -1.82229 -4.93639 0
M  V30 5062 O 469.006 -2.54548 -5.09111 0
M  V30 5063 N 470.208 -0.767696 -5.75401 0
M  V30 5064 H 472.973 -2.26073 -1.96751 0
M  V30 5065 H 470.534 -1.31185 -0.948795 0
M  V30 5066 H 472.526 -0.727065 -3.98115 0
M  V30 5067 H 471.096 -0.0988777 -3.12444 0
M  V30 5068 H 470.316 -2.58038 -2.9801 0
M  V30 5069 H 471.604 -2.96308 -4.13617 0
M  V30 5070 H 471.002 -0.167626 -5.65452 0
M  V30 5071 H 469.559 -0.576973 -6.49241 0
M  V30 5072 N 472.992 0.995999 -1.22138 0
M  V30 5073 C 473.902 2.11985 -1.00496 0
M  V30 5074 C 474.918 1.7394 0.0457701 0
M  V30 5075 O 476.094 2.00868 -0.146273 0
M  V30 5076 C 473.159 3.41779 -0.582086 0
M  V30 5077 C 472.22 3.93943 -1.70608 0
M  V30 5078 C 471.453 5.17542 -1.30328 0
M  V30 5079 O 471.676 5.70114 -0.180743 0
M  V30 5080 O 470.61 5.63382 -2.11861 0
M  V30 5081 H 474.436 2.33123 -1.94647 0
M  V30 5082 H 472.021 1.10358 -1.00705 0
M  V30 5083 H 473.903 4.1989 -0.356467 0
M  V30 5084 H 472.578 3.22007 0.330592 0
M  V30 5085 H 471.485 3.17019 -1.98619 0
M  V30 5086 H 472.818 4.18141 -2.59651 0
M  V30 5087 N 474.47 1.03057 1.19235 0
M  V30 5088 C 475.4 0.633497 2.24742 0
M  V30 5089 C 476.381 -0.358335 1.66283 0
M  V30 5090 O 477.566 -0.240676 1.92703 0
M  V30 5091 C 474.696 -0.0147648 3.47297 0
M  V30 5092 C 473.65 0.899527 4.18441 0
M  V30 5093 C 472.976 0.116281 5.34574 0
M  V30 5094 C 474.276 2.21404 4.73051 0
M  V30 5095 H 475.97 1.5155 2.58211 0
M  V30 5096 H 473.516 0.73014 1.24117 0
M  V30 5097 H 475.469 -0.304202 4.20301 0
M  V30 5098 H 474.193 -0.931577 3.13032 0
M  V30 5099 H 472.852 1.17319 3.47321 0
M  V30 5100 H 472.5 -0.802619 4.96555 0
M  V30 5101 H 472.2 0.725293 5.83107 0
M  V30 5102 H 473.724 -0.166376 6.10373 0
M  V30 5103 H 475.138 1.98601 5.37802 0
M  V30 5104 H 473.535 2.77512 5.32078 0
M  V30 5105 H 474.605 2.86752 3.91026 0
M  V30 5106 N 475.948 -1.35272 0.808662 0
M  V30 5107 C 476.858 -2.33546 0.222079 0
M  V30 5108 C 477.874 -1.6196 -0.636011 0
M  V30 5109 O 479.05 -1.93822 -0.547274 0
M  V30 5110 C 476.115 -3.41148 -0.61795 0
M  V30 5111 C 475.176 -4.28507 0.260875 0
M  V30 5112 C 474.409 -5.3097 -0.539156 0
M  V30 5113 O 474.632 -5.42123 -1.77367 0
M  V30 5114 O 473.566 -6.01858 0.0710526 0
M  V30 5115 H 477.392 -2.85515 1.03512 0
M  V30 5116 H 474.977 -1.38079 0.570495 0
M  V30 5117 H 476.859 -4.06889 -1.09634 0
M  V30 5118 H 475.534 -2.91447 -1.40855 0
M  V30 5119 H 474.441 -3.6574 0.786451 0
M  V30 5120 H 475.774 -4.81611 1.01547 0
M  V30 5121 N 477.426 -0.562348 -1.47226 0
M  V30 5122 C 478.674 -0.0401371 -2.0206 0
M  V30 5123 C 478.995 1.3165 -1.43852 0
M  V30 5124 O 478.265 1.85976 -0.615599 0
M  V30 5125 H 476.845 -0.0118479 -0.746906 0
M  V30 5126 H 479.507 -0.73352 -1.8057 0
M  V30 5127 H 478.603 0.0441254 -3.12069 0
M  V30 5128 N 478.904 1.54736 -0.299062 0
M  V30 5129 C 479.851 2.23448 0.577899 0
M  V30 5130 C 480.821 1.21637 1.13109 0
M  V30 5131 O 482.006 1.50252 1.17597 0
M  V30 5132 C 479.146 2.9774 1.74484 0
M  V30 5133 C 478.259 4.1432 1.22323 0
M  V30 5134 C 477.394 4.76199 2.35388 0
M  V30 5135 C 476.433 5.84927 1.80351 0
M  V30 5136 N 475.57 6.4077 2.86982 0
M  V30 5137 H 480.41 2.97996 -0.0146545 0
M  V30 5138 H 477.947 1.47088 -0.0190013 0
M  V30 5139 H 479.905 3.39045 2.43114 0
M  V30 5140 H 478.535 2.25572 2.30905 0
M  V30 5141 H 477.587 3.7797 0.429249 0
M  V30 5142 H 478.899 4.92659 0.780309 0
M  V30 5143 H 478.053 5.20346 3.11969 0
M  V30 5144 H 476.792 3.97188 2.83006 0
M  V30 5145 H 475.797 5.40207 1.02259 0
M  V30 5146 H 477.022 6.65821 1.3364 0
M  V30 5147 H 474.968 5.64643 3.33938 0
M  V30 5148 H 474.885 7.1445 2.4718 0
M  V30 5149 H 476.153 6.89574 3.63466 0
M  V30 5150 N 480.382 0.0267497 1.57577 0
M  V30 5151 C 481.628 -0.653371 1.91987 0
M  V30 5152 C 481.961 -1.71915 0.903263 0
M  V30 5153 O 481.236 -1.94358 -0.0743387 0
M  V30 5154 C 481.519 -1.272 3.36886 0
M  V30 5155 C 481.372 -0.215938 4.49281 0
M  V30 5156 C 482.691 -2.19069 3.81703 0
M  V30 5157 H 479.81 -0.236047 0.698177 0
M  V30 5158 H 482.452 0.0835236 1.89816 0
M  V30 5159 H 480.602 -1.90005 3.38866 0
M  V30 5160 H 482.274 0.41449 4.59434 0
M  V30 5161 H 480.517 0.458855 4.31366 0
M  V30 5162 H 481.188 -0.688347 5.47691 0
M  V30 5163 H 483.664 -1.66253 3.81444 0
M  V30 5164 H 482.54 -2.59307 4.83788 0
M  V30 5165 H 482.801 -3.08087 3.17072 0
M  V30 5166 N 481.861 -1.55662 -0.24637 0
M  V30 5167 C 482.824 -1.89558 -1.28842 0
M  V30 5168 C 483.824 -0.772082 -1.41052 0
M  V30 5169 O 485.014 -1.04007 -1.39743 0
M  V30 5170 C 482.146 -2.12449 -2.66605 0
M  V30 5171 H 483.339 -2.82735 -1.00004 0
M  V30 5172 H 480.892 -1.48562 -0.485684 0
M  V30 5173 H 481.627 -1.21742 -3.00582 0
M  V30 5174 H 481.412 -2.94273 -2.59125 0
M  V30 5175 H 482.902 -2.39854 -3.41847 0
M  V30 5176 N 483.339 0.512053 -1.4905 0
M  V30 5177 C 484.616 1.27337 -1.48474 0
M  V30 5178 C 484.996 2.1009 -0.206301 0
M  V30 5179 O 484.344 2.136 0.811609 0
M  V30 5180 C 484.554 2.13954 -2.75726 0
M  V30 5181 C 485.902 2.73507 -3.24776 0
M  V30 5182 O 486.926 2.24229 -2.76767 0
M  V30 5183 O 485.785 3.63186 -4.08361 0
M  V30 5184 H 482.879 0.575652 -0.593762 0
M  V30 5185 H 485.425 0.527232 -1.61302 0
M  V30 5186 H 484.197 1.52709 -3.60272 0
M  V30 5187 H 483.82 2.95782 -2.65705 0
M  V30 5188 N 484.817 1.37938 0.762283 0
M  V30 5189 C 486.042 1.37059 1.55659 0
M  V30 5190 C 486.467 -0.0396123 1.88058 0
M  V30 5191 O 485.825 -1.01929 1.49934 0
M  V30 5192 C 485.873 2.22494 2.83776 0
M  V30 5193 O 484.977 1.63607 3.78559 0
M  V30 5194 H 484.318 0.467892 0.47114 0
M  V30 5195 H 486.848 1.81587 0.942725 0
M  V30 5196 H 486.858 2.36045 3.32786 0
M  V30 5197 H 485.533 3.24993 2.59524 0
M  V30 5198 H 484.11 1.5915 3.37233 0
M  V30 5199 N 486.295 -0.989507 1.22664 0
M  V30 5200 C 487.225 -2.09847 1.02404 0
M  V30 5201 C 488.206 -1.70007 -0.0561303 0
M  V30 5202 O 489.391 -1.93906 0.106748 0
M  V30 5203 C 486.521 -3.41996 0.604663 0
M  V30 5204 C 485.475 -3.95699 1.63115 0
M  V30 5205 C 484.801 -5.23936 1.0675 0
M  V30 5206 C 486.101 -4.25999 3.02196 0
M  V30 5207 H 487.795 -2.27054 1.95158 0
M  V30 5208 H 485.341 -1.09111 0.939727 0
M  V30 5209 H 487.294 -4.1899 0.45002 0
M  V30 5210 H 486.018 -3.24626 -0.35855 0
M  V30 5211 H 484.677 -3.2084 1.77362 0
M  V30 5212 H 484.325 -5.02909 0.0955422 0
M  V30 5213 H 484.025 -5.60833 1.75328 0
M  V30 5214 H 485.549 -6.0356 0.924516 0
M  V30 5215 H 486.963 -4.93777 2.91303 0
M  V30 5216 H 485.36 -4.74076 3.67929 0
M  V30 5217 H 486.43 -3.33636 3.51873 0
M  V30 5218 N 487.773 -1.03688 -1.18687 0
M  V30 5219 C 488.998 -0.757819 -1.93059 0
M  V30 5220 C 489.423 0.678353 -1.75442 0
M  V30 5221 O 488.781 1.46938 -1.06203 0
M  V30 5222 C 488.829 -1.12423 -3.42627 0
M  V30 5223 O 487.933 -0.247505 -4.11657 0
M  V30 5224 H 487.274 -0.279245 -0.602427 0
M  V30 5225 H 489.804 -1.3857 -1.5053 0
M  V30 5226 H 489.814 -1.08454 -3.93322 0
M  V30 5227 H 488.489 -2.17049 -3.54771 0
M  V30 5228 H 487.066 -0.34649 -3.71287 0
M  V30 5229 N 489.251 1.34841 -0.815825 0
M  V30 5230 C 490.476 2.03261 -0.41226 0
M  V30 5231 C 490.901 1.61055 0.971751 0
M  V30 5232 O 490.259 0.7917 1.63101 0
M  V30 5233 C 490.307 3.56914 -0.514289 0
M  V30 5234 O 489.411 4.09728 0.468675 0
M  V30 5235 H 488.752 0.641664 -0.170771 0
M  V30 5236 H 491.282 1.72241 -1.10427 0
M  V30 5237 H 491.292 4.06156 -0.387457 0
M  V30 5238 H 489.967 3.86982 -1.52375 0
M  V30 5239 H 488.544 3.71681 0.301316 0
M  V30 5240 N 490.729 0.570148 1.46925 0
M  V30 5241 C 491.978 0.0487352 2.01641 0
M  V30 5242 C 492.291 -1.31433 1.44861 0
M  V30 5243 O 493.497 -1.92638 1.91318 0
M  V30 5244 C 491.953 0.0365817 3.59881 0
M  V30 5245 C 491.561 1.39719 4.25655 0
M  V30 5246 C 493.305 -0.431545 4.22301 0
M  V30 5247 C 491.212 1.34345 5.75939 0
M  V30 5248 H 490.142 0.0144492 0.753862 0
M  V30 5249 H 492.793 0.719928 1.68788 0
M  V30 5250 H 491.175 -0.700522 3.89755 0
M  V30 5251 H 492.349 2.15303 4.07408 0
M  V30 5252 H 490.664 1.80431 3.75278 0
M  V30 5253 H 493.261 -0.490354 5.32447 0
M  V30 5254 H 493.604 -1.44638 3.90366 0
M  V30 5255 H 494.137 0.251102 3.97007 0
M  V30 5256 H 490.876 2.33469 6.12513 0
M  V30 5257 H 490.396 0.629615 5.96486 0
M  V30 5258 H 492.075 1.051 6.38407 0
M  V30 5259 N 492.207 -1.54576 0.307264 0
M  V30 5260 C 493.432 -2.05139 -0.305379 0
M  V30 5261 C 493.857 -1.18278 -1.46259 0
M  V30 5262 O 493.215 -0.188243 -1.8032 0
M  V30 5263 C 493.263 -3.53066 -0.733283 0
M  V30 5264 O 492.367 -3.69206 -1.83741 0
M  V30 5265 H 491.708 -0.661444 -0.0582105 0
M  V30 5266 H 494.238 -1.99569 0.450931 0
M  V30 5267 H 494.248 -3.95034 -1.02039 0
M  V30 5268 H 492.923 -4.15746 0.113198 0
M  V30 5269 H 491.5 -3.39143 -1.55037 0
M  V30 5270 N 493.685 -0.035106 -1.57561 0
M  V30 5271 C 494.91 0.655802 -1.96759 0
M  V30 5272 C 495.335 1.64523 -0.911809 0
M  V30 5273 O 494.693 1.80857 0.126673 0
M  V30 5274 C 494.741 1.33326 -3.35047 0
M  V30 5275 O 493.845 2.44866 -3.31835 0
M  V30 5276 H 493.186 0.171807 -0.641388 0
M  V30 5277 H 495.716 -0.0987369 -2.04362 0
M  V30 5278 H 495.726 1.68867 -3.71413 0
M  V30 5279 H 494.401 0.608033 -4.11431 0
M  V30 5280 H 492.978 2.11392 -3.07193 0
M  V30 5281 N 495.163 1.55791 0.238111 0
M  V30 5282 C 496.095 1.87513 1.31802 0
M  V30 5283 C 497.108 0.762053 1.43863 0
M  V30 5284 O 498.297 1.04024 1.45056 0
M  V30 5285 C 495.397 2.05402 2.69561 0
M  V30 5286 C 494.57 3.3632 2.79656 0
M  V30 5287 C 493.629 3.43844 3.98319 0
M  V30 5288 O 492.655 4.16994 3.87433 0
M  V30 5289 N 493.857 2.73777 5.11885 0
M  V30 5290 H 496.622 2.80734 1.04922 0
M  V30 5291 H 494.183 1.56135 0.428196 0
M  V30 5292 H 496.175 2.07769 3.47296 0
M  V30 5293 H 494.745 1.18884 2.89111 0
M  V30 5294 H 493.965 3.46195 1.88528 0
M  V30 5295 H 495.253 4.22594 2.83358 0
M  V30 5296 H 494.651 2.14094 5.23622 0
M  V30 5297 H 493.208 2.81825 5.87723 0
M  V30 5298 N 496.642 -0.504142 1.49319 0
M  V30 5299 C 497.605 -1.5883 1.65244 0
M  V30 5300 C 498.605 -1.52009 0.524386 0
M  V30 5301 O 499.795 -1.55218 0.79077 0
M  V30 5302 C 496.927 -2.98481 1.64687 0
M  V30 5303 H 498.12 -1.4604 2.61939 0
M  V30 5304 H 495.673 -0.728144 1.38303 0
M  V30 5305 H 496.408 -3.16751 0.695644 0
M  V30 5306 H 496.193 -3.0484 2.46607 0
M  V30 5307 H 497.683 -3.77256 1.79075 0
M  V30 5308 N 498.12 -1.38341 -0.754957 0
M  V30 5309 C 499.397 -1.24995 -1.50451 0
M  V30 5310 C 499.777 0.149244 -2.10572 0
M  V30 5311 O 499.125 1.15861 -1.96948 0
M  V30 5312 C 499.335 -2.35904 -2.57197 0
M  V30 5313 C 500.683 -2.74262 -3.24138 0
M  V30 5314 O 501.707 -2.35205 -2.67501 0
M  V30 5315 O 500.566 -3.4161 -4.26574 0
M  V30 5316 H 497.66 -0.48872 -0.667144 0
M  V30 5317 H 500.206 -1.50165 -0.790486 0
M  V30 5318 H 498.978 -3.2953 -2.11011 0
M  V30 5319 H 498.601 -2.12291 -3.36182 0
M  V30 5320 N 499.598 0.982988 -1.23187 0
M  V30 5321 C 501.014 1.2487 -0.993967 0
M  V30 5322 C 501.214 1.99155 0.306498 0
M  V30 5323 O 500.27 2.30688 1.0266 0
M  V30 5324 C 501.583 2.05078 -2.19917 0
M  V30 5325 C 503.131 2.18227 -2.2438 0
M  V30 5326 C 503.606 3.01825 -3.44479 0
M  V30 5327 N 505.097 3.09411 -3.44702 0
M  V30 5328 C 505.832 3.74412 -4.34285 0
M  V30 5329 N 505.328 4.41259 -5.341 0
M  V30 5330 N 507.121 3.71273 -4.22035 0
M  V30 5331 H 499.272 0.485253 -2.06783 0
M  V30 5332 H 501.535 0.276979 -0.906635 0
M  V30 5333 H 501.241 1.57867 -3.14279 0
M  V30 5334 H 501.115 3.05829 -2.2079 0
M  V30 5335 H 503.502 2.64648 -1.30559 0
M  V30 5336 H 503.583 1.16873 -2.2754 0
M  V30 5337 H 503.227 2.56102 -4.38605 0
M  V30 5338 H 503.157 4.03342 -3.38559 0
M  V30 5339 H 505.648 2.61845 -2.7248 0
M  V30 5340 H 505.961 4.88629 -5.98717 0
M  V30 5341 H 504.306 4.39975 -5.38002 0
M  V30 5342 H 507.497 3.18217 -3.43301 0
M  V30 5343 H 507.67 4.21649 -4.92053 0
M  V30 5344 N 501.076 1.04316 1.18135 0
M  V30 5345 C 502.304 0.768117 1.92113 0
M  V30 5346 C 502.719 -0.675057 1.76319 0
M  V30 5347 O 502.076 -1.46038 1.09449 0
M  V30 5348 C 502.127 1.12808 3.43448 0
M  V30 5349 O 501.848 2.5146 3.58747 0
M  V30 5350 C 503.349 0.8779 4.3452 0
M  V30 5351 H 500.569 0.279937 0.609817 0
M  V30 5352 H 503.113 1.39149 1.49859 0
M  V30 5353 H 501.268 0.549623 3.83481 0
M  V30 5354 H 501.682 2.65313 4.52448 0
M  V30 5355 H 503.156 1.17959 5.39249 0
M  V30 5356 H 503.633 -0.187239 4.38801 0
M  V30 5357 H 504.239 1.43977 4.00188 0
M  V30 5358 N 502.554 -1.34406 0.822964 0
M  V30 5359 C 503.784 -2.02214 0.423424 0
M  V30 5360 C 504.192 -1.62124 -0.975322 0
M  V30 5361 O 503.535 -0.822452 -1.6426 0
M  V30 5362 C 503.597 -3.56721 0.446107 0
M  V30 5363 C 503.261 -4.20136 1.79819 0
M  V30 5364 C 504.258 -4.4065 2.75904 0
M  V30 5365 C 501.943 -4.56906 2.08669 0
M  V30 5366 C 503.937 -4.9706 3.99012 0
M  V30 5367 C 501.624 -5.13026 3.32036 0
M  V30 5368 C 502.622 -5.33047 4.27024 0
M  V30 5369 O 502.31 -5.87979 5.48211 0
M  V30 5370 H 502.042 -0.654748 0.168169 0
M  V30 5371 H 504.596 -1.72659 1.11257 0
M  V30 5372 H 502.826 -3.85537 -0.299734 0
M  V30 5373 H 504.515 -4.05845 0.0666114 0
M  V30 5374 H 505.281 -4.12607 2.54912 0
M  V30 5375 H 501.16 -4.40626 1.35535 0
M  V30 5376 H 504.704 -5.12603 4.73164 0
M  V30 5377 H 500.601 -5.40498 3.52891 0
M  V30 5378 H 501.369 -6.06413 5.49732 0
M  V30 5379 N 504.032 -0.577932 -1.46621 0
M  V30 5380 C 504.962 0.145917 -2.33044 0
M  V30 5381 C 505.943 0.888412 -1.45056 0
M  V30 5382 O 507.128 0.864812 -1.73881 0
M  V30 5383 C 504.258 1.16322 -3.27241 0
M  V30 5384 C 503.212 0.535868 -4.24632 0
M  V30 5385 C 502.538 1.65929 -5.08303 0
M  V30 5386 C 503.838 -0.523861 -5.19666 0
M  V30 5387 H 505.532 -0.575636 -2.93814 0
M  V30 5388 H 503.078 -0.278272 -1.41286 0
M  V30 5389 H 505.031 1.67793 -3.86553 0
M  V30 5390 H 503.755 1.91498 -2.64567 0
M  V30 5391 H 502.414 0.0422759 -3.66576 0
M  V30 5392 H 502.062 2.40061 -4.42018 0
M  V30 5393 H 501.762 1.2452 -5.74255 0
M  V30 5394 H 503.286 2.17686 -5.70478 0
M  V30 5395 H 504.7 -0.0944059 -5.73222 0
M  V30 5396 H 503.097 -0.858 -5.93935 0
M  V30 5397 H 504.167 -1.41197 -4.63887 0
M  V30 5398 N 505.51 1.54411 -0.315457 0
M  V30 5399 C 506.756 2.01425 0.282775 0
M  V30 5400 C 507.111 1.19978 1.5041 0
M  V30 5401 O 506.404 0.271766 1.89663 0
M  V30 5402 C 506.598 3.50936 0.676652 0
M  V30 5403 C 506.427 4.46856 -0.504954 0
M  V30 5404 C 505.197 4.95275 -1.00152 0
M  V30 5405 C 507.395 4.96141 -1.35456 0
M  V30 5406 N 505.377 5.75081 -2.14838 0
M  V30 5407 C 506.748 5.73791 -2.3487 0
M  V30 5408 C 508.803 4.78299 -1.38327 0
M  V30 5409 C 507.506 6.35498 -3.36949 0
M  V30 5410 C 509.532 5.40836 -2.39271 0
M  V30 5411 C 508.894 6.1833 -3.37413 0
M  V30 5412 H 504.993 0.779078 0.0675398 0
M  V30 5413 H 507.577 1.8946 -0.448656 0
M  V30 5414 H 505.748 3.63162 1.37723 0
M  V30 5415 H 507.48 3.84728 1.25566 0
M  V30 5416 H 504.235 4.70107 -0.574123 0
M  V30 5417 H 504.659 6.19664 -2.72665 0
M  V30 5418 H 509.301 4.17956 -0.638196 0
M  V30 5419 H 507.019 6.94967 -4.12367 0
M  V30 5420 H 510.605 5.28952 -2.42284 0
M  V30 5421 H 509.485 6.65861 -4.14244 0
M  V30 5422 N 506.988 0.0434614 1.5754 0
M  V30 5423 C 507.898 -0.94893 2.14552 0
M  V30 5424 C 508.914 -1.34707 1.10136 0
M  V30 5425 O 510.09 -1.42557 1.42266 0
M  V30 5426 C 507.155 -2.208 2.67298 0
M  V30 5427 C 506.216 -1.86893 3.86484 0
M  V30 5428 C 505.449 -3.06797 4.36705 0
M  V30 5429 O 505.672 -4.19921 3.86034 0
M  V30 5430 O 504.606 -2.8826 5.28384 0
M  V30 5431 H 508.432 -0.494099 2.99654 0
M  V30 5432 H 506.017 -0.177989 1.48336 0
M  V30 5433 H 507.899 -2.94686 3.01228 0
M  V30 5434 H 506.574 -2.65436 1.85272 0
M  V30 5435 H 505.481 -1.10347 3.57455 0
M  V30 5436 H 506.814 -1.47062 4.69716 0
M  V30 5437 N 508.466 -1.55915 -0.229846 0
M  V30 5438 C 509.413 -1.91734 -1.28478 0
M  V30 5439 C 510.383 -0.773539 -1.46988 0
M  V30 5440 O 511.568 -1.02871 -1.60693 0
M  V30 5441 C 508.708 -2.23224 -2.63182 0
M  V30 5442 C 507.821 -3.50497 -2.52539 0
M  V30 5443 C 506.956 -3.71474 -3.79711 0
M  V30 5444 C 505.995 -4.92289 -3.63755 0
M  V30 5445 N 505.132 -5.09698 -4.82858 0
M  V30 5446 H 509.972 -2.81692 -0.972308 0
M  V30 5447 H 507.509 -1.39429 -0.468815 0
M  V30 5448 H 509.467 -2.3949 -3.41614 0
M  V30 5449 H 508.097 -1.36451 -2.92542 0
M  V30 5450 H 507.149 -3.4247 -1.65585 0
M  V30 5451 H 508.461 -4.39079 -2.36666 0
M  V30 5452 H 507.615 -3.87791 -4.66586 0
M  V30 5453 H 506.354 -2.81157 -3.985 0
M  V30 5454 H 505.359 -4.7593 -2.75264 0
M  V30 5455 H 506.584 -5.84083 -3.46445 0
M  V30 5456 H 504.53 -4.22322 -5.01976 0
M  V30 5457 H 504.447 -5.92399 -4.69681 0
M  V30 5458 H 505.715 -5.30443 -5.71183 0
M  V30 5459 N 509.944 0.496216 -1.49584 0
M  V30 5460 C 511.191 1.25003 -1.59312 0
M  V30 5461 C 511.519 1.92445 -0.28198 0
M  V30 5462 O 510.774 1.81557 0.730452 0
M  V30 5463 C 511.073 2.3359 -2.705 0
M  V30 5464 C 510.739 1.83574 -4.11839 0
M  V30 5465 C 509.401 1.69653 -4.50302 0
M  V30 5466 C 511.753 1.46193 -5.00277 0
M  V30 5467 C 509.081 1.16736 -5.74969 0
M  V30 5468 C 511.433 0.947265 -6.25468 0
M  V30 5469 C 510.097 0.794485 -6.62755 0
M  V30 5470 H 509.367 0.45742 -0.582965 0
M  V30 5471 H 512.014 0.549996 -1.83432 0
M  V30 5472 H 510.319 3.09401 -2.40371 0
M  V30 5473 H 512.016 2.91627 -2.75235 0
M  V30 5474 H 508.606 1.9537 -3.81482 0
M  V30 5475 H 512.79 1.55793 -4.71214 0
M  V30 5476 H 508.046 1.03623 -6.02555 0
M  V30 5477 H 512.22 0.648846 -6.93371 0
M  V30 5478 H 509.847 0.382271 -7.59238 0
M  V30 5479 N 511.423 1.38739 0.74761 0
M  V30 5480 C 512.648 1.38702 1.54197 0
M  V30 5481 C 513.073 -0.019664 1.8809 0
M  V30 5482 O 512.431 -1.00333 1.51006 0
M  V30 5483 C 512.479 2.25492 2.814 0
M  V30 5484 O 511.583 1.67613 3.76802 0
M  V30 5485 H 510.924 0.472863 0.466151 0
M  V30 5486 H 513.454 1.82577 0.923413 0
M  V30 5487 H 513.464 2.39561 3.30264 0
M  V30 5488 H 512.139 3.27727 2.56062 0
M  V30 5489 H 510.716 1.62718 3.35526 0
M  V30 5490 N 512.901 -0.976442 1.23707 0
M  V30 5491 C 513.849 -2.09078 1.01927 0
M  V30 5492 C 514.843 -1.69345 -0.0430193 0
M  V30 5493 O 516.049 -1.79659 0.110814 0
M  V30 5494 H 512.424 -0.68398 0.312531 0
M  V30 5495 H 514.395 -2.24614 1.96447 0
M  V30 5496 C 513.144 -3.41919 0.631385 0
M  V30 5497 H 512.467 -3.72946 1.44053 0
M  V30 5498 H 513.907 -4.20817 0.518532 0
M  V30 5499 C 512.366 -3.30357 -0.660723 0
M  V30 5500 O 512.896 -3.63542 -1.70881 0
M  V30 5501 N 511.102 -2.83507 -0.638139 0
M  V30 5502 H 510.649 -2.567 0.215108 0
M  V30 5503 H 510.607 -2.76153 -1.50289 0
M  V30 5504 N 514.379 -1.04941 -1.1758 0
M  V30 5505 C 515.609 -0.777166 -1.91425 0
M  V30 5506 C 516.017 0.670647 -1.76915 0
M  V30 5507 O 515.36 1.46965 -1.10213 0
M  V30 5508 C 515.422 -1.07495 -3.43052 0
M  V30 5509 C 515.086 -2.51844 -3.81345 0
M  V30 5510 C 516.083 -3.50047 -3.844 0
M  V30 5511 C 513.768 -2.86787 -4.12382 0
M  V30 5512 C 515.762 -4.81239 -4.17957 0
M  V30 5513 C 513.449 -4.18182 -4.45608 0
M  V30 5514 C 514.447 -5.15219 -4.48373 0
M  V30 5515 O 514.135 -6.44258 -4.80819 0
M  V30 5516 H 513.867 -0.282209 -0.614275 0
M  V30 5517 H 516.421 -1.40258 -1.50056 0
M  V30 5518 H 514.651 -0.392437 -3.84704 0
M  V30 5519 H 516.34 -0.78912 -3.98155 0
M  V30 5520 H 517.106 -3.24391 -3.60548 0
M  V30 5521 H 512.985 -2.11922 -4.09402 0
M  V30 5522 H 516.529 -5.56974 -4.2003 0
M  V30 5523 H 512.426 -4.43602 -4.68922 0
M  V30 5524 H 513.194 -6.49041 -4.98686 0
M  V30 5525 N 515.857 1.33968 -0.830081 0
M  V30 5526 C 516.804 2.29387 -0.255008 0
M  V30 5527 C 517.774 1.53923 0.624243 0
M  V30 5528 O 518.959 1.82262 0.564372 0
M  V30 5529 C 516.099 3.4034 0.571209 0
M  V30 5530 C 515.212 4.30729 -0.331083 0
M  V30 5531 C 514.347 5.2879 0.505389 0
M  V30 5532 C 513.386 6.10819 -0.395843 0
M  V30 5533 N 512.523 7.00948 0.401979 0
M  V30 5534 H 517.363 2.77972 -1.07404 0
M  V30 5535 H 514.9 1.36785 -0.541133 0
M  V30 5536 H 516.858 4.03361 1.06562 0
M  V30 5537 H 515.488 2.9297 1.35529 0
M  V30 5538 H 514.54 3.68507 -0.943759 0
M  V30 5539 H 515.852 4.88181 -1.02377 0
M  V30 5540 H 515.006 5.97297 1.06399 0
M  V30 5541 H 513.745 4.71894 1.23155 0
M  V30 5542 H 512.75 5.41238 -0.966529 0
M  V30 5543 H 513.975 6.69797 -1.12023 0
M  V30 5544 H 511.921 6.46512 1.11168 0
M  V30 5545 H 511.838 7.55643 -0.232167 0
M  V30 5546 H 513.106 7.73774 0.943102 0
M  V30 5547 N 517.335 0.585699 1.46312 0
M  V30 5548 C 518.563 0.0781299 2.06752 0
M  V30 5549 C 518.978 -1.22812 1.43396 0
M  V30 5550 O 518.335 -1.74318 0.540314 0
M  V30 5551 C 518.386 -0.0911927 3.61385 0
M  V30 5552 O 518.107 1.16336 4.22371 0
M  V30 5553 C 519.608 -0.632765 4.38761 0
M  V30 5554 H 516.828 0.0588188 0.668417 0
M  V30 5555 H 519.372 0.807218 1.87894 0
M  V30 5556 H 517.527 -0.770514 3.7966 0
M  V30 5557 H 517.941 0.979082 5.15281 0
M  V30 5558 H 519.415 -0.70041 5.47538 0
M  V30 5559 H 519.892 -1.65039 4.07012 0
M  V30 5560 H 520.498 0.0117856 4.25298 0
M  V30 5561 N 518.813 -1.54241 0.323641 0
M  V30 5562 C 520.038 -2.05452 -0.283605 0
M  V30 5563 C 520.463 -1.19823 -1.44997 0
M  V30 5564 O 519.821 -0.207358 -1.8011 0
M  V30 5565 C 519.869 -3.53823 -0.695795 0
M  V30 5566 O 518.973 -3.71134 -1.79815 0
M  V30 5567 H 518.314 -0.662024 -0.0511917 0
M  V30 5568 H 520.844 -1.99079 0.472073 0
M  V30 5569 H 520.854 -3.96094 -0.978434 0
M  V30 5570 H 519.529 -4.15602 0.157287 0
M  V30 5571 H 518.106 -3.40768 -1.51431 0
M  V30 5572 N 520.291 -0.0518155 -1.57515 0
M  V30 5573 C 521.254 0.907547 -2.10467 0
M  V30 5574 C 522.254 1.23947 -1.02439 0
M  V30 5575 O 523.444 1.17604 -1.2851 0
M  V30 5576 C 520.576 2.21723 -2.58944 0
M  V30 5577 H 521.769 0.44851 -2.96527 0
M  V30 5578 H 519.322 0.196598 -1.55059 0
M  V30 5579 H 520.057 2.72206 -1.76279 0
M  V30 5580 H 519.842 1.98935 -3.37886 0
M  V30 5581 H 521.332 2.90441 -3.00056 0
M  V30 5582 N 521.769 1.56035 0.221574 0
M  V30 5583 C 522.717 1.93269 1.29421 0
M  V30 5584 C 523.711 0.814727 1.48521 0
M  V30 5585 O 524.917 0.999559 1.49696 0
M  V30 5586 H 521.292 0.614188 0.43391 0
M  V30 5587 H 523.263 2.82773 0.952987 0
M  V30 5588 C 522.012 2.26573 2.63742 0
M  V30 5589 H 521.335 3.12112 2.49853 0
M  V30 5590 H 522.775 2.5651 3.37607 0
M  V30 5591 C 521.234 1.09086 3.1875 0
M  V30 5592 O 521.764 0.351985 4.00155 0
M  V30 5593 N 519.97 0.874693 2.77124 0
M  V30 5594 H 519.517 1.47726 2.11033 0
M  V30 5595 H 519.475 0.0903349 3.1427 0
M  V30 5596 N 523.247 -0.488276 1.49845 0
M  V30 5597 C 524.177 -1.59675 1.70371 0
M  V30 5598 C 525.158 -1.60878 0.552473 0
M  V30 5599 O 526.343 -1.77417 0.78973 0
M  V30 5600 C 523.473 -2.98098 1.782 0
M  V30 5601 C 522.427 -3.11761 2.93239 0
M  V30 5602 C 521.753 -4.51661 2.86193 0
M  V30 5603 C 523.053 -2.90589 4.33999 0
M  V30 5604 H 524.747 -1.42752 2.63177 0
M  V30 5605 H 522.293 -0.685317 1.26647 0
M  V30 5606 H 524.246 -3.75555 1.91144 0
M  V30 5607 H 522.97 -3.16138 0.820018 0
M  V30 5608 H 521.629 -2.36732 2.79917 0
M  V30 5609 H 521.277 -4.66595 1.87877 0
M  V30 5610 H 520.977 -4.61742 3.63412 0
M  V30 5611 H 522.501 -5.31162 3.01163 0
M  V30 5612 H 523.915 -3.57807 4.47936 0
M  V30 5613 H 522.312 -3.1213 5.12538 0
M  V30 5614 H 523.382 -1.86595 4.4756 0
M  V30 5615 N 524.725 -1.39134 -0.740242 0
M  V30 5616 C 525.953 -1.39334 -1.5295 0
M  V30 5617 C 526.368 0.0135008 -1.88795 0
M  V30 5618 O 525.725 0.983524 -1.5373 0
M  V30 5619 C 525.776 -2.2614 -2.82034 0
M  V30 5620 O 525.497 -3.61345 -2.47712 0
M  V30 5621 C 526.998 -2.34666 -3.76094 0
M  V30 5622 H 524.218 -0.476103 -0.472828 0
M  V30 5623 H 526.762 -1.82883 -0.9151 0
M  V30 5624 H 524.917 -1.86018 -3.39818 0
M  V30 5625 H 525.331 -4.07194 -3.30595 0
M  V30 5626 H 526.805 -2.99663 -4.63579 0
M  V30 5627 H 527.282 -1.36426 -4.17474 0
M  V30 5628 H 527.888 -2.75236 -3.2423 0
M  V30 5629 N 526.204 0.969867 -1.24223 0
M  V30 5630 C 527.167 2.04564 -1.03373 0
M  V30 5631 C 528.167 1.60798 0.00819206 0
M  V30 5632 O 529.357 1.72641 -0.232567 0
M  V30 5633 C 526.489 3.36163 -0.566343 0
M  V30 5634 H 527.682 2.24494 -1.98853 0
M  V30 5635 H 525.235 1.1448 -1.06415 0
M  V30 5636 H 525.97 3.21925 0.391751 0
M  V30 5637 H 525.755 3.69273 -1.31834 0
M  V30 5638 H 527.245 4.1526 -0.441435 0
M  V30 5639 N 527.682 1.05563 1.17022 0
M  V30 5640 C 528.91 0.78845 1.91288 0
M  V30 5641 C 529.325 -0.656318 1.77025 0
M  V30 5642 O 528.682 -1.44869 1.10992 0
M  V30 5643 C 528.733 1.16444 3.42232 0
M  V30 5644 O 528.454 2.5525 3.5606 0
M  V30 5645 C 529.955 0.923937 4.33565 0
M  V30 5646 H 527.175 0.286389 0.606813 0
M  V30 5647 H 529.719 1.4073 1.48375 0
M  V30 5648 H 527.874 0.590266 3.82877 0
M  V30 5649 H 528.288 2.70097 4.49609 0
M  V30 5650 H 529.762 1.23672 5.37968 0
M  V30 5651 H 530.239 -0.140688 4.38975 0
M  V30 5652 H 530.845 1.48214 3.98639 0
M  V30 5653 N 529.16 -1.33526 0.837174 0
M  V30 5654 C 530.39 -2.01754 0.444848 0
M  V30 5655 C 530.798 -1.63149 -0.958072 0
M  V30 5656 O 530.141 -0.839827 -1.63379 0
M  V30 5657 C 530.203 -3.56228 0.483917 0
M  V30 5658 C 529.867 -4.18205 1.84265 0
M  V30 5659 C 530.864 -4.37699 2.80563 0
M  V30 5660 C 528.549 -4.54667 2.13503 0
M  V30 5661 C 530.543 -4.928 4.04261 0
M  V30 5662 C 528.23 -5.09475 3.37458 0
M  V30 5663 C 529.228 -5.28488 4.32654 0
M  V30 5664 O 528.916 -5.82132 5.54417 0
M  V30 5665 H 528.648 -0.652928 0.175104 0
M  V30 5666 H 531.202 -1.71469 1.13082 0
M  V30 5667 H 529.432 -3.85833 -0.258826 0
M  V30 5668 H 531.121 -4.05752 0.109653 0
M  V30 5669 H 531.887 -4.0988 2.59274 0
M  V30 5670 H 527.766 -4.39164 1.40201 0
M  V30 5671 H 531.31 -5.07555 4.78574 0
M  V30 5672 H 527.207 -5.36725 3.58604 0
M  V30 5673 H 527.975 -6.00548 5.56133 0
M  V30 5674 N 530.638 -0.59345 -1.46 0
M  V30 5675 C 532.054 -0.255965 -1.57534 0
M  V30 5676 C 532.254 1.24167 -1.58697 0
M  V30 5677 O 531.31 2.02398 -1.50968 0
M  V30 5678 C 532.623 -0.91466 -2.86451 0
M  V30 5679 C 534.171 -0.889253 -3.00102 0
M  V30 5680 C 534.646 -1.52769 -4.3177 0
M  V30 5681 N 536.137 -1.49253 -4.38495 0
M  V30 5682 C 536.872 -1.9558 -5.39014 0
M  V30 5683 N 536.368 -2.49929 -6.46148 0
M  V30 5684 N 538.161 -1.86432 -5.30282 0
M  V30 5685 H 530.312 -1.56604 -1.43489 0
M  V30 5686 H 532.575 -0.655207 -0.685133 0
M  V30 5687 H 532.281 -1.96861 -2.91442 0
M  V30 5688 H 532.155 -0.429356 -3.74748 0
M  V30 5689 H 534.542 0.156111 -2.94687 0
M  V30 5690 H 534.623 -1.41268 -2.13253 0
M  V30 5691 H 534.267 -2.57231 -4.37944 0
M  V30 5692 H 534.197 -0.979398 -5.17412 0
M  V30 5693 H 536.688 -1.09536 -3.61677 0
M  V30 5694 H 537.001 -2.83109 -7.19075 0
M  V30 5695 H 535.346 -2.53961 -6.46938 0
M  V30 5696 H 538.537 -1.43722 -4.4549 0
M  V30 5697 H 538.71 -2.22852 -6.08474 0
M  V30 5698 N 532.116 1.54067 -0.331816 0
M  V30 5699 C 533.063 2.24623 0.530372 0
M  V30 5700 C 534.033 1.24009 1.10503 0
M  V30 5701 O 535.218 1.52712 1.14384 0
M  V30 5702 C 532.358 3.01374 1.68129 0
M  V30 5703 C 531.471 4.16821 1.13507 0
M  V30 5704 C 530.606 4.81085 2.25234 0
M  V30 5705 C 529.645 5.88621 1.67903 0
M  V30 5706 N 528.782 6.46713 2.73326 0
M  V30 5707 H 533.622 2.97898 -0.0778607 0
M  V30 5708 H 531.159 1.47014 -0.0501965 0
M  V30 5709 H 533.117 3.44125 2.35868 0
M  V30 5710 H 531.747 2.30419 2.26069 0
M  V30 5711 H 530.799 3.78796 0.348979 0
M  V30 5712 H 532.111 4.94203 0.675633 0
M  V30 5713 H 531.265 5.26846 3.00862 0
M  V30 5714 H 530.004 4.03102 2.74518 0
M  V30 5715 H 529.009 5.42254 0.907773 0
M  V30 5716 H 530.234 6.68506 1.19487 0
M  V30 5717 H 528.18 5.71599 3.21886 0
M  V30 5718 H 528.097 7.19532 2.3197 0
M  V30 5719 H 529.365 6.97129 3.48758 0
M  V30 5720 N 533.594 0.0601682 1.57485 0
M  V30 5721 C 534.524 -0.90889 2.15085 0
M  V30 5722 C 535.505 -1.31838 1.07484 0
M  V30 5723 O 536.69 -1.3915 1.35466 0
M  V30 5724 C 533.82 -2.18059 2.7031 0
M  V30 5725 C 532.774 -1.91088 3.82974 0
M  V30 5726 C 532.1 -3.24789 4.24754 0
M  V30 5727 C 533.4 -1.22535 5.07723 0
M  V30 5728 H 535.094 -0.429093 2.96309 0
M  V30 5729 H 532.64 -0.204952 1.42534 0
M  V30 5730 H 534.593 -2.86258 3.09248 0
M  V30 5731 H 533.317 -2.6826 1.8629 0
M  V30 5732 H 531.976 -1.25297 3.44523 0
M  V30 5733 H 531.624 -3.72809 3.37672 0
M  V30 5734 H 531.324 -3.07538 5.00694 0
M  V30 5735 H 532.848 -3.94205 4.66299 0
M  V30 5736 H 534.262 -1.80783 5.4405 0
M  V30 5737 H 532.659 -1.1558 5.88864 0
M  V30 5738 H 533.729 -0.202692 4.84476 0
M  V30 5739 N 535.072 -1.5615 -0.213296 0
M  V30 5740 C 535.982 -1.96265 -1.28519 0
M  V30 5741 C 536.998 -0.86765 -1.50824 0
M  V30 5742 O 538.174 -1.17191 -1.63793 0
M  V30 5743 C 535.239 -2.27836 -2.61327 0
M  V30 5744 C 534.3 -3.50949 -2.47252 0
M  V30 5745 C 533.533 -3.81004 -3.73727 0
M  V30 5746 O 533.756 -3.12612 -4.77106 0
M  V30 5747 O 532.69 -4.74477 -3.70344 0
M  V30 5748 H 536.516 -2.87631 -0.974795 0
M  V30 5749 H 534.101 -1.43467 -0.416832 0
M  V30 5750 H 535.983 -2.49299 -3.39747 0
M  V30 5751 H 534.658 -1.39643 -2.9203 0
M  V30 5752 H 533.565 -3.34754 -1.67004 0
M  V30 5753 H 534.898 -4.39551 -2.21486 0
M  V30 5754 N 536.55 0.480323 -1.50102 0
M  V30 5755 C 537.46 1.60547 -1.71061 0
M  V30 5756 C 538.476 1.63564 -0.593529 0
M  V30 5757 O 539.652 1.81604 -0.870751 0
M  V30 5758 C 536.717 2.96814 -1.79171 0
M  V30 5759 C 535.778 3.04259 -3.02861 0
M  V30 5760 C 535.011 4.34027 -3.10574 0
M  V30 5761 O 535.234 5.24009 -2.25323 0
M  V30 5762 O 534.168 4.46873 -4.03223 0
M  V30 5763 H 537.994 1.45788 -2.6642 0
M  V30 5764 H 535.579 0.658838 -1.34088 0
M  V30 5765 H 537.461 3.77765 -1.86738 0
M  V30 5766 H 536.136 3.11791 -0.869947 0
M  V30 5767 H 535.043 2.22419 -3.008 0
M  V30 5768 H 536.376 2.94216 -3.94586 0
M  V30 5769 N 538.028 1.39524 0.732853 0
M  V30 5770 C 538.961 1.32806 1.85574 0
M  V30 5771 C 539.939 0.201354 1.61348 0
M  V30 5772 O 541.123 0.38216 1.84585 0
M  V30 5773 C 538.25 1.06271 3.21596 0
M  V30 5774 C 537.296 2.21161 3.64678 0
M  V30 5775 S 538.129 3.83454 3.73796 0
M  V30 5776 C 539.285 3.59149 5.12604 0
M  V30 5777 H 539.518 2.27838 1.9099 0
M  V30 5778 H 537.051 1.25605 0.897927 0
M  V30 5779 H 539.009 0.916461 4.00139 0
M  V30 5780 H 537.67 0.129223 3.13834 0
M  V30 5781 H 536.863 1.98193 4.63396 0
M  V30 5782 H 536.465 2.32 2.93346 0
M  V30 5783 H 538.757 3.16547 5.99003 0
M  V30 5784 H 539.7 4.57335 5.40602 0
M  V30 5785 H 540.108 2.93203 4.82382 0
M  V30 5786 N 539.506 -0.963266 1.24736 0
M  V30 5787 C 540.469 -2.04013 1.04457 0
M  V30 5788 C 541.469 -1.608 0.000335555 0
M  V30 5789 O 542.659 -1.72515 0.241719 0
M  V30 5790 C 539.791 -3.35858 0.584162 0
M  V30 5791 H 540.984 -2.23436 2.00041 0
M  V30 5792 H 538.537 -1.13914 1.07021 0
M  V30 5793 H 539.272 -3.22128 -0.374673 0
M  V30 5794 H 539.057 -3.68568 1.3379 0
M  V30 5795 H 540.547 -4.1502 0.463451 0
M  V30 5796 N 540.985 -1.06182 -1.16461 0
M  V30 5797 C 541.932 -0.671613 -2.20812 0
M  V30 5798 C 542.902 0.331186 -1.62765 0
M  V30 5799 O 544.087 0.22033 -1.89524 0
M  V30 5800 C 541.227 -0.063029 -3.45042 0
M  V30 5801 C 540.34 -1.11587 -4.1734 0
M  V30 5802 C 539.475 -0.473546 -5.29085 0
M  V30 5803 C 538.514 -1.51 -5.93182 0
M  V30 5804 N 537.651 -0.891118 -6.96422 0
M  V30 5805 H 542.491 -1.56589 -2.53542 0
M  V30 5806 H 540.028 -0.782951 -1.24532 0
M  V30 5807 H 541.986 0.307344 -4.16066 0
M  V30 5808 H 540.616 0.794663 -3.12866 0
M  V30 5809 H 539.668 -1.60396 -3.44931 0
M  V30 5810 H 540.98 -1.90221 -4.61104 0
M  V30 5811 H 540.134 -0.0501432 -6.06679 0
M  V30 5812 H 538.873 0.344687 -4.8648 0
M  V30 5813 H 537.878 -1.94331 -5.14311 0
M  V30 5814 H 539.103 -2.33031 -6.37866 0
M  V30 5815 H 537.049 -0.0935753 -6.55933 0
M  V30 5816 H 536.966 -1.61486 -7.38551 0
M  V30 5817 H 538.234 -0.492822 -7.77941 0
M  V30 5818 N 542.463 1.3308 -0.844243 0
M  V30 5819 C 543.395 2.27954 -0.238671 0
M  V30 5820 C 544.408 1.51978 0.583665 0
M  V30 5821 O 545.597 1.73731 0.409857 0
M  V30 5822 C 542.697 3.31963 0.682185 0
M  V30 5823 C 541.87 4.37281 -0.101998 0
M  V30 5824 C 540.929 5.20928 0.743022 0
M  V30 5825 O 539.955 5.68914 0.180285 0
M  V30 5826 N 541.157 5.42738 2.0595 0
M  V30 5827 H 543.922 2.8056 -1.05386 0
M  V30 5828 H 541.483 1.4583 -0.70322 0
M  V30 5829 H 543.475 3.84828 1.25259 0
M  V30 5830 H 542.045 2.79594 1.39808 0
M  V30 5831 H 541.265 3.84843 -0.853802 0
M  V30 5832 H 542.553 5.04746 -0.641015 0
M  V30 5833 H 541.951 5.05463 2.54016 0
M  V30 5834 H 540.508 5.98639 2.57827 0
M  V30 5835 N 543.941 0.601185 1.45683 0
M  V30 5836 C 545.187 0.0940202 2.02582 0
M  V30 5837 C 545.52 -1.26972 1.46941 0
M  V30 5838 O 544.795 -1.83613 0.641612 0
M  V30 5839 C 545.078 0.0481715 3.60068 0
M  V30 5840 C 544.931 1.44212 4.26055 0
M  V30 5841 C 546.25 -0.642975 4.35378 0
M  V30 5842 H 543.369 0.0356404 0.736138 0
M  V30 5843 H 546.011 0.771929 1.73612 0
M  V30 5844 H 544.161 -0.529128 3.8488 0
M  V30 5845 H 545.833 2.06601 4.12449 0
M  V30 5846 H 544.076 2.00465 3.84703 0
M  V30 5847 H 544.747 1.36234 5.34925 0
M  V30 5848 H 547.223 -0.152351 4.15821 0
M  V30 5849 H 546.099 -0.644141 5.45107 0
M  V30 5850 H 546.36 -1.70785 4.0778 0
M  V30 5851 N 545.419 -1.53889 0.339982 0
M  V30 5852 C 546.647 -2.05271 -0.259114 0
M  V30 5853 C 547.062 -1.21517 -1.44496 0
M  V30 5854 O 546.419 -0.24966 -1.80784 0
M  V30 5855 C 546.47 -3.55092 -0.677634 0
M  V30 5856 O 546.191 -4.35667 0.461051 0
M  V30 5857 C 547.692 -4.22631 -1.33782 0
M  V30 5858 H 544.912 -0.669085 -0.0506566 0
M  V30 5859 H 547.456 -1.9852 0.490935 0
M  V30 5860 H 545.611 -3.62077 -1.37763 0
M  V30 5861 H 546.025 -5.24343 0.128144 0
M  V30 5862 H 547.499 -5.28861 -1.58145 0
M  V30 5863 H 547.976 -3.74758 -2.29027 0
M  V30 5864 H 548.582 -4.19829 -0.679957 0
M  V30 5865 N 546.897 -0.0685191 -1.57451 0
M  V30 5866 C 547.845 0.917577 -2.13736 0
M  V30 5867 C 548.839 1.31049 -1.07344 0
M  V30 5868 O 550.045 1.28811 -1.25728 0
M  V30 5869 H 546.42 0.313835 -0.683382 0
M  V30 5870 H 548.391 0.417903 -2.95459 0
M  V30 5871 C 547.14 2.17686 -2.71123 0
M  V30 5872 H 546.463 1.88336 -3.52661 0
M  V30 5873 H 547.903 2.84803 -3.14107 0
M  V30 5874 C 546.362 2.9332 -1.65726 0
M  V30 5875 O 546.892 3.86901 -1.08031 0
M  V30 5876 N 545.098 2.56367 -1.36837 0
M  V30 5877 H 544.645 1.80341 -1.83943 0
M  V30 5878 H 544.603 3.07276 -0.665501 0
M  V30 5879 N 548.375 1.56261 0.205012 0
M  V30 5880 C 549.786 1.70056 0.770574 0
M  V30 5881 C 550.137 0.673398 1.84282 0
M  V30 5882 O 549.262 -0.172196 2.15714 0
M  V30 5883 C 549.857 3.08316 1.40451 0
M  V30 5884 C 548.416 3.2391 1.91727 0
M  V30 5885 C 547.563 2.66001 0.783516 0
M  V30 5886 H 550.514 1.58688 -0.019911 0
M  V30 5887 H 550.535 3.05094 2.27371 0
M  V30 5888 H 550.047 3.83053 0.623882 0
M  V30 5889 H 548.148 2.54072 2.7254 0
M  V30 5890 H 548.261 4.3131 2.08588 0
M  V30 5891 H 546.625 2.24915 1.19521 0
M  V30 5892 H 547.408 3.43297 0.0152883 0
M  V30 5893 N 549.853 -0.472356 1.50355 0
M  V30 5894 C 551.078 -1.25251 1.65309 0
M  V30 5895 C 551.503 -1.85081 0.335643 0
M  V30 5896 O 550.861 -1.67227 -0.700335 0
M  V30 5897 C 550.909 -2.3379 2.74544 0
M  V30 5898 O 550.013 -3.38401 2.35709 0
M  V30 5899 H 549.354 -0.368539 0.552336 0
M  V30 5900 H 551.884 -0.562271 1.96722 0
M  V30 5901 H 551.894 -2.79121 2.97583 0
M  V30 5902 H 550.569 -1.89614 3.70161 0
M  V30 5903 H 549.146 -2.9879 2.23112 0
M  V30 5904 N 551.331 -1.39911 -0.725443 0
M  V30 5905 C 552.556 -1.41137 -1.5197 0
M  V30 5906 C 552.981 -0.010262 -1.88097 0
M  V30 5907 O 552.339 0.979184 -1.52583 0
M  V30 5908 C 552.387 -2.2994 -2.77777 0
M  V30 5909 O 551.491 -1.73586 -3.74088 0
M  V30 5910 H 550.832 -0.480219 -0.458569 0
M  V30 5911 H 553.362 -1.84023 -0.894249 0
M  V30 5912 H 553.372 -2.44785 -3.26411 0
M  V30 5913 H 552.047 -3.31759 -2.50816 0
M  V30 5914 H 550.624 -1.68035 -3.32894 0
M  V30 5915 N 552.809 0.956637 -1.25245 0
M  V30 5916 C 554.225 1.22733 -1.02023 0
M  V30 5917 C 554.425 1.99761 0.264186 0
M  V30 5918 O 553.481 2.32814 0.977436 0
M  V30 5919 C 554.794 2.00367 -2.24217 0
M  V30 5920 C 556.342 2.13418 -2.28958 0
M  V30 5921 C 556.817 2.9445 -3.50803 0
M  V30 5922 N 558.308 3.02029 -3.51187 0
M  V30 5923 C 559.043 3.65116 -4.42129 0
M  V30 5924 N 558.539 4.2983 -5.43339 0
M  V30 5925 N 560.332 3.62237 -4.29815 0
M  V30 5926 H 552.483 0.441282 -2.07765 0
M  V30 5927 H 554.746 0.257686 -0.912306 0
M  V30 5928 H 554.452 1.51165 -3.17556 0
M  V30 5929 H 554.326 3.01077 -2.27228 0
M  V30 5930 H 556.713 2.61819 -1.36143 0
M  V30 5931 H 556.794 1.1202 -2.29968 0
M  V30 5932 H 556.438 2.46741 -4.43939 0
M  V30 5933 H 556.368 3.9607 -3.47039 0
M  V30 5934 H 558.859 2.56007 -2.77973 0
M  V30 5935 H 559.172 4.75819 -6.08947 0
M  V30 5936 H 557.517 4.28465 -5.47214 0
M  V30 5937 H 560.708 3.10863 -3.49974 0
M  V30 5938 H 560.881 4.11117 -5.00886 0
M  V30 5939 N 554.287 1.06798 1.15896 0
M  V30 5940 C 555.517 0.807522 1.90165 0
M  V30 5941 C 555.925 -0.642417 1.7796 0
M  V30 5942 O 555.268 -1.45193 1.12537 0
M  V30 5943 C 555.33 1.12939 3.41299 0
M  V30 5944 C 554.994 2.57879 3.7729 0
M  V30 5945 C 555.991 3.56118 3.78782 0
M  V30 5946 C 553.676 2.93311 4.07767 0
M  V30 5947 C 555.67 4.87827 4.10248 0
M  V30 5948 C 553.357 4.25219 4.38899 0
M  V30 5949 C 554.355 5.22287 4.4012 0
M  V30 5950 O 554.043 6.51826 4.70508 0
M  V30 5951 H 553.775 0.291946 0.609708 0
M  V30 5952 H 556.329 1.42627 1.47806 0
M  V30 5953 H 554.559 0.45359 3.84031 0
M  V30 5954 H 556.248 0.852363 3.9685 0
M  V30 5955 H 557.014 3.30086 3.55342 0
M  V30 5956 H 552.893 2.18409 4.05979 0
M  V30 5957 H 556.437 5.63586 4.11116 0
M  V30 5958 H 552.334 4.51006 4.61805 0
M  V30 5959 H 553.102 6.56893 4.88298 0
M  V30 5960 N 555.766 -1.3263 0.851289 0
M  V30 5961 C 556.996 -2.01271 0.466222 0
M  V30 5962 C 557.404 -1.64156 -0.940714 0
M  V30 5963 O 556.747 -0.857109 -1.62479 0
M  V30 5964 C 556.809 -3.55695 0.521672 0
M  V30 5965 C 556.473 -4.16227 1.88691 0
M  V30 5966 C 557.47 -4.34699 2.85189 0
M  V30 5967 C 555.155 -4.52377 2.18313 0
M  V30 5968 C 557.149 -4.88484 4.09465 0
M  V30 5969 C 554.836 -5.05868 3.42843 0
M  V30 5970 C 555.834 -5.23869 4.38235 0
M  V30 5971 O 555.522 -5.76218 5.6056 0
M  V30 5972 H 555.254 -0.651034 0.18202 0
M  V30 5973 H 557.808 -1.7026 1.14894 0
M  V30 5974 H 556.038 -3.86086 -0.217888 0
M  V30 5975 H 557.727 -4.05613 0.152682 0
M  V30 5976 H 558.493 -4.07107 2.63607 0
M  V30 5977 H 554.372 -4.37652 1.44851 0
M  V30 5978 H 557.916 -5.02451 4.83931 0
M  V30 5979 H 553.813 -5.32891 3.64277 0
M  V30 5980 H 554.581 -5.94616 5.62471 0
M  V30 5981 N 557.244 -0.608902 -1.45362 0
M  V30 5982 C 558.176 0.147318 -2.28726 0
M  V30 5983 C 559.189 0.830468 -1.40025 0
M  V30 5984 O 560.378 0.695636 -1.64387 0
M  V30 5985 C 557.478 1.22968 -3.15804 0
M  V30 5986 C 556.651 0.633391 -4.3279 0
M  V30 5987 C 555.71 1.60682 -5.01067 0
M  V30 5988 O 554.736 1.13261 -5.57818 0
M  V30 5989 N 555.938 2.94123 -5.00472 0
M  V30 5990 H 558.703 -0.568014 -2.94268 0
M  V30 5991 H 556.264 -0.448479 -1.55564 0
M  V30 5992 H 558.256 1.88072 -3.58345 0
M  V30 5993 H 556.826 1.84752 -2.52162 0
M  V30 5994 H 556.046 -0.195762 -3.93714 0
M  V30 5995 H 557.334 0.215255 -5.08344 0
M  V30 5996 H 556.732 3.3525 -4.55657 0
M  V30 5997 H 555.289 3.54646 -5.46872 0
M  V30 5998 N 558.722 1.53707 -0.348139 0
M  V30 5999 C 559.999 1.93247 0.302475 0
M  V30 6000 C 560.379 1.28012 1.67857 0
M  V30 6001 O 559.727 0.43274 2.24365 0
M  V30 6002 C 559.937 3.47031 0.370159 0
M  V30 6003 C 561.285 4.20066 0.61882 0
M  V30 6004 O 562.309 3.53319 0.452087 0
M  V30 6005 O 561.168 5.38318 0.94215 0
M  V30 6006 H 558.262 0.807736 0.177458 0
M  V30 6007 H 560.808 1.64927 -0.399651 0
M  V30 6008 H 559.58 3.86745 -0.59534 0
M  V30 6009 H 559.203 3.81532 1.11888 0
M  V30 6010 N 560.2 0.0768682 1.57412 0
M  V30 6011 C 561.11 -0.903207 2.16516 0
M  V30 6012 C 562.126 -1.32341 1.12968 0
M  V30 6013 O 563.302 -1.39507 1.45258 0
M  V30 6014 C 560.367 -2.1508 2.71922 0
M  V30 6015 C 559.428 -1.78653 3.90361 0
M  V30 6016 C 558.661 -2.97465 4.43114 0
M  V30 6017 O 558.884 -4.11638 3.94854 0
M  V30 6018 O 557.818 -2.76987 5.3438 0
M  V30 6019 H 561.644 -0.430427 3.00634 0
M  V30 6020 H 559.229 -0.146485 1.4868 0
M  V30 6021 H 561.111 -2.8823 3.07411 0
M  V30 6022 H 559.786 -2.61446 1.9086 0
M  V30 6023 H 558.693 -1.0274 3.59716 0
M  V30 6024 H 560.026 -1.37066 4.7273 0
M  V30 6025 N 561.678 -1.56367 -0.196722 0
M  V30 6026 C 562.906 -1.84639 -0.933608 0
M  V30 6027 C 563.321 -0.659164 -1.76919 0
M  V30 6028 O 562.678 0.372142 -1.78665 0
M  V30 6029 C 562.729 -3.11694 -1.83109 0
M  V30 6030 O 562.45 -4.25838 -1.02924 0
M  V30 6031 C 563.951 -3.53132 -2.67979 0
M  V30 6032 H 561.171 -0.613188 -0.272473 0
M  V30 6033 H 563.715 -2.03475 -0.204465 0
M  V30 6034 H 561.87 -2.94759 -2.51387 0
M  V30 6035 H 562.284 -4.98178 -1.64069 0
M  V30 6036 H 563.758 -4.45005 -3.26611 0
M  V30 6037 H 564.235 -2.76045 -3.41608 0
M  V30 6038 H 564.841 -3.72592 -2.05074 0
M  V30 6039 N 563.156 0.464375 -1.50603 0
M  V30 6040 C 564.402 1.21776 -1.62168 0
M  V30 6041 C 564.735 1.91476 -0.324154 0
M  V30 6042 O 564.01 1.8242 0.674782 0
M  V30 6043 C 564.293 2.25614 -2.80661 0
M  V30 6044 C 564.146 1.60175 -4.20314 0
M  V30 6045 C 565.465 3.26862 -2.94702 0
M  V30 6046 H 562.584 0.44137 -0.590222 0
M  V30 6047 H 565.226 0.510623 -1.8301 0
M  V30 6048 H 563.376 2.85923 -2.63021 0
M  V30 6049 H 565.048 1.03411 -4.4956 0
M  V30 6050 H 563.291 0.904697 -4.24261 0
M  V30 6051 H 563.962 2.35665 -4.99165 0
M  V30 6052 H 566.438 2.76582 -3.10872 0
M  V30 6053 H 565.314 3.96839 -3.79223 0
M  V30 6054 H 565.575 3.91382 -2.05603 0
M  V30 6055 N 564.634 1.40294 0.718013 0
M  V30 6056 C 565.88 1.38645 1.48005 0
M  V30 6057 C 566.213 -0.0121202 1.94196 0
M  V30 6058 O 565.488 -0.980309 1.67989 0
M  V30 6059 C 565.771 2.37379 2.70782 0
M  V30 6060 C 565.624 3.8625 2.30501 0
M  V30 6061 C 566.943 2.33685 3.72933 0
M  V30 6062 H 564.062 0.504928 0.536858 0
M  V30 6063 H 566.704 1.71411 0.819649 0
M  V30 6064 H 564.854 2.09568 3.27129 0
M  V30 6065 H 566.526 4.24879 1.79655 0
M  V30 6066 H 564.769 4.02202 1.6253 0
M  V30 6067 H 565.44 4.50847 3.18498 0
M  V30 6068 H 567.916 2.58314 3.2621 0
M  V30 6069 H 566.792 3.0482 4.56482 0
M  V30 6070 H 567.053 1.34765 4.21059 0
M  V30 6071 N 566.112 -0.949982 1.2575 0
M  V30 6072 C 567.528 -1.22191 1.02672 0
M  V30 6073 C 567.728 -1.99898 -0.253588 0
M  V30 6074 O 566.784 -2.33329 -0.965076 0
M  V30 6075 C 568.097 -1.99175 2.25277 0
M  V30 6076 C 569.645 -2.12201 2.30087 0
M  V30 6077 C 570.12 -2.92586 3.5236 0
M  V30 6078 N 571.611 -3.00163 3.52784 0
M  V30 6079 C 572.346 -3.62766 4.44059 0
M  V30 6080 N 571.842 -4.26943 5.45611 0
M  V30 6081 N 573.635 -3.59953 4.3173 0
M  V30 6082 H 565.786 -0.430258 2.07996 0
M  V30 6083 H 568.049 -0.252844 0.91366 0
M  V30 6084 H 567.755 -1.49479 3.18354 0
M  V30 6085 H 567.629 -2.99868 2.28821 0
M  V30 6086 H 570.016 -2.61093 1.3753 0
M  V30 6087 H 570.097 -1.10799 2.30559 0
M  V30 6088 H 569.741 -2.44383 4.45241 0
M  V30 6089 H 569.671 -3.94224 3.49134 0
M  V30 6090 H 572.162 -2.54529 2.79327 0
M  V30 6091 H 572.475 -4.72583 6.11461 0
M  V30 6092 H 570.82 -4.25557 5.49478 0
M  V30 6093 H 574.011 -3.09003 3.51617 0
M  V30 6094 H 574.184 -4.08455 5.03059 0
M  V30 6095 N 567.59 -1.07411 -1.15328 0
M  V30 6096 C 568.818 -0.818782 -1.90009 0
M  V30 6097 C 569.233 0.628072 -1.78047 0
M  V30 6098 O 568.59 1.43085 -1.13282 0
M  V30 6099 C 568.641 -1.21874 -3.40337 0
M  V30 6100 O 568.362 -2.60883 -3.51954 0
M  V30 6101 C 569.863 -0.992796 -4.3204 0
M  V30 6102 H 567.083 -0.296007 -0.60218 0
M  V30 6103 H 569.627 -1.43073 -1.46117 0
M  V30 6104 H 567.782 -0.651103 -3.81889 0
M  V30 6105 H 568.196 -2.77216 -4.45255 0
M  V30 6106 H 569.67 -1.32215 -5.35932 0
M  V30 6107 H 570.147 0.0708331 -4.39143 0
M  V30 6108 H 570.753 -1.54537 -3.9623 0
M  V30 6109 N 569.068 1.32177 -0.85831 0
M  V30 6110 C 570.314 1.97417 -0.46417 0
M  V30 6111 C 570.647 1.67746 0.978514 0
M  V30 6112 O 569.922 0.967654 1.68721 0
M  V30 6113 C 570.205 3.53069 -0.708094 0
M  V30 6114 C 570.058 3.92357 -2.19946 0
M  V30 6115 C 571.377 4.39783 -0.166881 0
M  V30 6116 H 568.496 0.717097 -0.17012 0
M  V30 6117 H 571.138 1.56499 -1.07741 0
M  V30 6118 H 569.288 3.88054 -0.186128 0
M  V30 6119 H 570.96 3.67533 -2.78779 0
M  V30 6120 H 569.203 3.41384 -2.67656 0
M  V30 6121 H 569.874 5.00841 -2.32082 0
M  V30 6122 H 572.35 4.11556 -0.613285 0
M  V30 6123 H 571.226 5.47671 -0.367093 0
M  V30 6124 H 571.487 4.32196 0.930559 0
M  V30 6125 N 570.547 0.616602 1.45037 0
M  V30 6126 C 571.963 0.280994 1.57107 0
M  V30 6127 C 572.163 -1.21627 1.60653 0
M  V30 6128 O 571.219 -1.9997 1.54169 0
M  V30 6129 C 572.532 0.960116 2.8496 0
M  V30 6130 C 574.08 0.936884 2.98649 0
M  V30 6131 C 574.555 1.59619 4.29285 0
M  V30 6132 N 576.046 1.5621 4.36065 0
M  V30 6133 C 576.781 2.04131 5.35834 0
M  V30 6134 N 576.277 2.60177 6.4209 0
M  V30 6135 N 578.07 1.94845 5.27249 0
M  V30 6136 H 570.221 1.58867 1.40979 0
M  V30 6137 H 572.484 0.666024 0.674623 0
M  V30 6138 H 572.19 2.01473 2.88273 0
M  V30 6139 H 572.064 0.488921 3.74018 0
M  V30 6140 H 574.451 -0.109209 2.94898 0
M  V30 6141 H 574.532 1.44643 2.10979 0
M  V30 6142 H 574.176 2.64166 4.33796 0
M  V30 6143 H 574.106 1.06159 5.15789 0
M  V30 6144 H 576.597 1.15276 3.59889 0
M  V30 6145 H 576.91 2.94513 7.1448 0
M  V30 6146 H 575.255 2.64221 6.42816 0
M  V30 6147 H 578.446 1.50792 4.43147 0
M  V30 6148 H 578.619 2.32504 6.04852 0
M  V30 6149 N 572.025 -1.5352 0.356285 0
M  V30 6150 C 573.302 -1.93405 -0.292223 0
M  V30 6151 C 573.682 -1.28901 -1.67176 0
M  V30 6152 O 573.03 -0.444632 -2.24132 0
M  V30 6153 C 573.24 -3.47223 -0.35175 0
M  V30 6154 C 574.588 -4.20389 -0.596534 0
M  V30 6155 O 575.612 -3.53554 -0.433344 0
M  V30 6156 O 574.471 -5.3881 -0.913589 0
M  V30 6157 H 571.565 -0.808666 -0.173172 0
M  V30 6158 H 574.111 -1.64713 0.408391 0
M  V30 6159 H 572.883 -3.86423 0.615841 0
M  V30 6160 H 572.506 -3.8212 -1.09864 0
M  V30 6161 N 573.503 -0.0852151 -1.57369 0
M  V30 6162 C 574.728 0.592872 -1.98746 0
M  V30 6163 C 575.153 1.61538 -0.963689 0
M  V30 6164 O 574.511 1.81168 0.069071 0
M  V30 6165 C 574.559 1.22599 -3.39119 0
M  V30 6166 O 573.663 2.34185 -3.39457 0
M  V30 6167 H 573.004 0.151314 -0.646529 0
M  V30 6168 H 575.534 -0.163703 -2.03944 0
M  V30 6169 H 575.544 1.56965 -3.76598 0
M  V30 6170 H 574.219 0.476831 -4.13158 0
M  V30 6171 H 572.796 2.01512 -3.13763 0
M  V30 6172 N 574.981 1.5647 0.188427 0
M  V30 6173 C 575.914 1.90146 1.26173 0
M  V30 6174 C 576.892 0.762294 1.43624 0
M  V30 6175 O 578.076 1.01395 1.58907 0
M  V30 6176 C 575.203 2.13748 2.62735 0
M  V30 6177 C 574.249 3.36448 2.62116 0
M  V30 6178 S 575.082 4.91364 2.12889 0
M  V30 6179 C 576.238 5.18041 3.51261 0
M  V30 6180 H 576.471 2.80886 0.974192 0
M  V30 6181 H 574.004 1.49335 0.392226 0
M  V30 6182 H 575.962 2.28028 3.41341 0
M  V30 6183 H 574.623 1.23747 2.88696 0
M  V30 6184 H 573.816 3.50109 3.62546 0
M  V30 6185 H 573.418 3.21196 1.91596 0
M  V30 6186 H 575.71 5.0897 4.47164 0
M  V30 6187 H 576.653 6.19764 3.42489 0
M  V30 6188 H 577.061 4.45657 3.46482 0
M  V30 6189 N 576.459 -0.456382 1.50847 0
M  V30 6190 C 577.369 -1.57805 1.73594 0
M  V30 6191 C 578.385 -1.62599 0.619476 0
M  V30 6192 O 579.561 -1.80195 0.899532 0
M  V30 6193 C 576.626 -2.93926 1.8387 0
M  V30 6194 C 575.687 -2.99402 3.07663 0
M  V30 6195 C 574.92 -4.29031 3.1744 0
M  V30 6196 O 575.143 -5.20358 2.33631 0
M  V30 6197 O 574.077 -4.40401 4.10281 0
M  V30 6198 H 577.903 -1.41531 2.68705 0
M  V30 6199 H 575.488 -0.637422 1.3512 0
M  V30 6200 H 577.37 -3.74747 1.92725 0
M  V30 6201 H 576.045 -3.10368 0.91944 0
M  V30 6202 H 574.952 -2.17606 3.043 0
M  V30 6203 H 576.285 -2.87901 3.99216 0
M  V30 6204 N 577.937 -1.40673 -0.710563 0
M  V30 6205 C 579.183 -1.4043 -1.47142 0
M  V30 6206 C 579.538 -0.00781557 -1.92398 0
M  V30 6207 O 578.831 0.963535 -1.6561 0
M  V30 6208 C 579.025 -2.33253 -2.70791 0
M  V30 6209 C 578.854 -3.81789 -2.37629 0
M  V30 6210 C 577.624 -4.5057 -2.28724 0
M  V30 6211 C 579.822 -4.73152 -2.01572 0
M  V30 6212 N 577.804 -5.84312 -1.88289 0
M  V30 6213 C 579.175 -5.95728 -1.71778 0
M  V30 6214 C 581.23 -4.6094 -1.88252 0
M  V30 6215 C 579.933 -7.07454 -1.30003 0
M  V30 6216 C 581.959 -5.72613 -1.47881 0
M  V30 6217 C 581.321 -6.94278 -1.18987 0
M  V30 6218 H 577.42 -0.569115 -0.536314 0
M  V30 6219 H 580.004 -1.76425 -0.823547 0
M  V30 6220 H 578.175 -1.99378 -3.33321 0
M  V30 6221 H 579.907 -2.23833 -3.37166 0
M  V30 6222 H 576.662 -4.04315 -2.46629 0
M  V30 6223 H 577.086 -6.55153 -1.70596 0
M  V30 6224 H 581.728 -3.67389 -2.09249 0
M  V30 6225 H 579.446 -8.00884 -1.07749 0
M  V30 6226 H 583.032 -5.65161 -1.38145 0
M  V30 6227 H 581.912 -7.79222 -0.88219 0
M  V30 6228 N 579.415 0.9433 -1.26252 0
M  V30 6229 C 580.348 2.04162 -1.01946 0
M  V30 6230 C 581.326 1.62507 0.0550808 0
M  V30 6231 O 582.51 1.883 -0.0869025 0
M  V30 6232 C 579.637 3.34313 -0.54335 0
M  V30 6233 C 578.683 3.94939 -1.61013 0
M  V30 6234 S 579.516 4.29484 -3.19849 0
M  V30 6235 C 580.672 5.62738 -2.74001 0
M  V30 6236 H 580.905 2.24466 -1.94942 0
M  V30 6237 H 578.438 1.08441 -1.09909 0
M  V30 6238 H 580.396 4.09576 -0.275315 0
M  V30 6239 H 579.057 3.11957 0.36629 0
M  V30 6240 H 578.25 4.88812 -1.22795 0
M  V30 6241 H 577.852 3.26202 -1.82943 0
M  V30 6242 H 580.144 6.41356 -2.18333 0
M  V30 6243 H 581.087 6.05839 -3.66558 0
M  V30 6244 H 581.495 5.22514 -2.13634 0
M  V30 6245 N 580.893 1.08022 1.14757 0
M  V30 6246 C 581.843 0.676345 2.17737 0
M  V30 6247 C 582.827 -0.302018 1.5804 0
M  V30 6248 O 584.019 -0.11466 1.76628 0
M  V30 6249 C 581.148 0.082984 3.432 0
M  V30 6250 C 580.234 1.0869 4.09936 0
M  V30 6251 N 580.625 2.26891 4.52055 0
M  V30 6252 C 578.923 0.921768 4.36371 0
M  V30 6253 C 579.624 2.90636 5.0389 0
M  V30 6254 N 578.6 2.18266 4.97856 0
M  V30 6255 H 582.402 1.5765 2.4804 0
M  V30 6256 H 579.916 0.954374 1.31398 0
M  V30 6257 H 581.913 -0.224289 4.16296 0
M  V30 6258 H 580.573 -0.812206 3.14378 0
M  V30 6259 H 581.584 2.6457 4.45223 0
M  V30 6260 H 578.261 0.0800499 4.17423 0
M  V30 6261 H 579.651 3.9104 5.46386 0
M  V30 6262 N 582.371 -1.3172 0.865308 0
M  V30 6263 C 583.318 -2.2863 0.315736 0
M  V30 6264 C 584.288 -1.55524 -0.583213 0
M  V30 6265 O 585.473 -1.83694 -0.51585 0
M  V30 6266 C 582.613 -3.41735 -0.480773 0
M  V30 6267 C 581.726 -4.297 0.445167 0
M  V30 6268 C 580.861 -5.29944 -0.365012 0
M  V30 6269 C 579.9 -6.09554 0.557651 0
M  V30 6270 N 579.037 -7.01768 -0.215994 0
M  V30 6271 H 583.877 -2.75026 1.14736 0
M  V30 6272 H 581.414 -1.35302 0.577209 0
M  V30 6273 H 583.372 -4.06045 -0.958306 0
M  V30 6274 H 582.002 -2.96461 -1.27714 0
M  V30 6275 H 581.054 -3.65875 1.04113 0
M  V30 6276 H 582.366 -4.85295 1.15284 0
M  V30 6277 H 581.52 -5.99908 -0.905255 0
M  V30 6278 H 580.259 -4.74994 -1.106 0
M  V30 6279 H 579.264 -5.38485 1.10969 0
M  V30 6280 H 580.489 -6.66591 1.29742 0
M  V30 6281 H 578.435 -6.49232 -0.939878 0
M  V30 6282 H 578.352 -7.54762 0.432431 0
M  V30 6283 H 579.62 -7.76002 -0.737618 0
M  V30 6284 N 583.85 -0.624285 -1.44708 0
M  V30 6285 C 584.8 0.106466 -2.27751 0
M  V30 6286 C 585.784 0.822703 -1.38277 0
M  V30 6287 O 586.976 0.709939 -1.62138 0
M  V30 6288 C 584.105 1.092 -3.25469 0
M  V30 6289 C 583.191 0.375737 -4.22432 0
M  V30 6290 N 583.582 -0.591881 -5.02325 0
M  V30 6291 C 581.88 0.621093 -4.41654 0
M  V30 6292 C 582.581 -1.01443 -5.72786 0
M  V30 6293 N 581.557 -0.354651 -5.42442 0
M  V30 6294 H 585.359 -0.636464 -2.86926 0
M  V30 6295 H 582.873 -0.44925 -1.56062 0
M  V30 6296 H 584.87 1.63006 -3.83712 0
M  V30 6297 H 583.529 1.8353 -2.67856 0
M  V30 6298 H 584.541 -0.969389 -5.08747 0
M  V30 6299 H 581.218 1.34779 -3.95147 0
M  V30 6300 H 582.608 -1.81345 -6.46965 0
M  V30 6301 N 585.328 1.53329 -0.364422 0
M  V30 6302 C 586.574 2.01537 0.225969 0
M  V30 6303 C 586.907 1.25128 1.48515 0
M  V30 6304 O 586.182 0.344653 1.91422 0
M  V30 6305 C 586.465 3.56339 0.519092 0
M  V30 6306 C 586.318 4.43441 -0.753639 0
M  V30 6307 C 587.637 4.19833 1.32015 0
M  V30 6308 H 584.756 0.732573 0.0806548 0
M  V30 6309 H 587.398 1.83597 -0.489084 0
M  V30 6310 H 585.548 3.71756 1.12825 0
M  V30 6311 H 587.22 4.39823 -1.39116 0
M  V30 6312 H 585.463 4.11457 -1.37424 0
M  V30 6313 H 586.134 5.49699 -0.503517 0
M  V30 6314 H 588.61 4.08242 0.804859 0
M  V30 6315 H 587.486 5.28177 1.49399 0
M  V30 6316 H 587.747 3.75821 2.32832 0
M  V30 6317 N 586.806 0.0935595 1.57322 0
M  V30 6318 C 588.036 -0.578095 1.98347 0
M  V30 6319 C 588.444 -1.62357 0.971441 0
M  V30 6320 O 587.787 -1.83639 -0.0473959 0
M  V30 6321 C 587.849 -1.28525 3.3574 0
M  V30 6322 C 587.513 -0.390714 4.55327 0
M  V30 6323 C 588.51 0.360522 5.18648 0
M  V30 6324 C 586.195 -0.309221 5.01347 0
M  V30 6325 C 588.189 1.18125 6.26359 0
M  V30 6326 C 585.876 0.515157 6.08925 0
M  V30 6327 C 586.874 1.25904 6.71295 0
M  V30 6328 O 586.562 2.06978 7.76798 0
M  V30 6329 H 586.294 -0.159767 0.656849 0
M  V30 6330 H 588.848 0.169058 2.04703 0
M  V30 6331 H 587.078 -2.07894 3.26063 0
M  V30 6332 H 588.767 -1.85128 3.61223 0
M  V30 6333 H 589.533 0.307285 4.84026 0
M  V30 6334 H 585.412 -0.877881 4.52564 0
M  V30 6335 H 588.956 1.76236 6.74971 0
M  V30 6336 H 584.853 0.56988 6.42979 0
M  V30 6337 H 585.621 1.99644 7.93779 0
M  V30 6338 N 588.284 -1.56567 -0.180126 0
M  V30 6339 C 589.232 -1.96632 -1.24251 0
M  V30 6340 C 590.226 -0.853818 -1.46309 0
M  V30 6341 O 591.432 -1.0389 -1.46993 0
M  V30 6342 H 587.807 -0.625476 -0.417473 0
M  V30 6343 H 589.778 -2.85201 -0.877679 0
M  V30 6344 C 588.527 -2.33486 -2.57642 0
M  V30 6345 H 587.85 -3.18626 -2.4149 0
M  V30 6346 H 589.29 -2.65371 -3.30688 0
M  V30 6347 C 587.749 -1.17499 -3.15746 0
M  V30 6348 O 588.279 -0.457956 -3.99081 0
M  V30 6349 N 586.485 -0.94786 -2.74707 0
M  V30 6350 H 586.032 -1.53269 -2.07042 0
M  V30 6351 H 585.99 -0.173626 -3.1392 0
M  V30 6352 N 589.762 0.448376 -1.51087 0
M  V30 6353 C 590.987 1.22605 -1.6728 0
M  V30 6354 C 591.412 1.84524 -0.365045 0
M  V30 6355 O 590.77 1.6832 0.673642 0
M  V30 6356 C 590.818 2.29393 -2.78229 0
M  V30 6357 O 589.922 3.34608 -2.41063 0
M  V30 6358 H 589.263 0.359705 -0.558129 0
M  V30 6359 H 591.793 0.530903 -1.97592 0
M  V30 6360 H 591.803 2.74352 -3.01986 0
M  V30 6361 H 590.478 1.83701 -3.73131 0
M  V30 6362 H 589.055 2.95202 -2.27838 0
M  V30 6363 N 591.24 1.41047 0.703093 0
M  V30 6364 C 592.15 1.44645 1.84703 0
M  V30 6365 C 593.166 0.337778 1.7069 0
M  V30 6366 O 594.342 0.584327 1.92737 0
M  V30 6367 C 591.407 1.31928 3.20618 0
M  V30 6368 C 590.468 2.53047 3.46794 0
M  V30 6369 C 589.701 2.40927 4.76224 0
M  V30 6370 O 589.924 1.42978 5.5219 0
M  V30 6371 O 588.858 3.30543 5.03016 0
M  V30 6372 H 592.684 2.41139 1.84624 0
M  V30 6373 H 590.269 1.22504 0.855167 0
M  V30 6374 H 592.151 1.27092 4.01778 0
M  V30 6375 H 590.826 0.385469 3.21397 0
M  V30 6376 H 589.733 2.6346 2.65593 0
M  V30 6377 H 591.066 3.45231 3.50822 0
M  V30 6378 N 592.718 -0.936591 1.26751 0
M  V30 6379 C 593.665 -2.03597 1.08706 0
M  V30 6380 C 594.635 -1.66097 -0.00926542 0
M  V30 6381 O 595.82 -1.90199 0.151377 0
M  V30 6382 C 592.96 -3.3727 0.73094 0
M  V30 6383 C 592.073 -3.87778 1.90399 0
M  V30 6384 C 591.208 -5.09859 1.49056 0
M  V30 6385 C 590.247 -5.5264 2.63164 0
M  V30 6386 N 589.384 -6.65921 2.22471 0
M  V30 6387 H 594.224 -2.18364 2.02784 0
M  V30 6388 H 591.761 -1.06985 1.00958 0
M  V30 6389 H 593.719 -4.14128 0.505328 0
M  V30 6390 H 592.349 -3.22337 -0.172868 0
M  V30 6391 H 591.401 -3.07279 2.2424 0
M  V30 6392 H 592.713 -4.15464 2.76028 0
M  V30 6393 H 591.867 -5.9419 1.22567 0
M  V30 6394 H 590.606 -4.8393 0.60524 0
M  V30 6395 H 589.611 -4.66863 2.90377 0
M  V30 6396 H 590.836 -5.80568 3.52303 0
M  V30 6397 H 588.782 -6.41667 1.36379 0
M  V30 6398 H 588.699 -6.93216 3.01641 0
M  V30 6399 H 589.967 -7.53616 1.99205 0
M  V30 6400 N 594.196 -1.08629 -1.14182 0
M  V30 6401 C 595.421 -0.83902 -1.89671 0
M  V30 6402 C 595.846 0.603332 -1.78161 0
M  V30 6403 O 595.204 1.42301 -1.12339 0
M  V30 6404 C 595.252 -1.26854 -3.37551 0
M  V30 6405 O 594.356 -0.42188 -4.10236 0
M  V30 6406 H 593.697 -0.304545 -0.590041 0
M  V30 6407 H 596.227 -1.4483 -1.44518 0
M  V30 6408 H 596.237 -1.25038 -3.88368 0
M  V30 6409 H 594.912 -2.31901 -3.45246 0
M  V30 6410 H 593.489 -0.503654 -3.69483 0
M  V30 6411 N 595.674 1.31259 -0.872281 0
M  V30 6412 C 596.923 1.95893 -0.480493 0
M  V30 6413 C 597.236 1.697 0.972688 0
M  V30 6414 O 598.442 2.28214 1.47073 0
M  V30 6415 C 596.898 3.50705 -0.808342 0
M  V30 6416 C 596.506 3.85735 -2.27844 0
M  V30 6417 C 598.25 4.21719 -0.485136 0
M  V30 6418 C 596.157 5.33668 -2.54858 0
M  V30 6419 H 595.087 0.733182 -0.175955 0
M  V30 6420 H 597.738 1.49396 -1.0655 0
M  V30 6421 H 596.12 3.95706 -0.152558 0
M  V30 6422 H 597.294 3.51686 -2.97748 0
M  V30 6423 H 595.609 3.27792 -2.56791 0
M  V30 6424 H 598.206 5.30559 -0.664166 0
M  V30 6425 H 598.549 4.12316 0.574592 0
M  V30 6426 H 599.082 3.82359 -1.09756 0
M  V30 6427 H 595.821 5.48109 -3.59523 0
M  V30 6428 H 595.341 5.69061 -1.8955 0
M  V30 6429 H 597.02 6.00958 -2.39706 0
M  V30 6430 N 597.152 0.631951 1.44375 0
M  V30 6431 C 598.398 0.13697 2.02337 0
M  V30 6432 C 598.731 -1.23826 1.49602 0
M  V30 6433 O 598.006 -1.8221 0.680415 0
M  V30 6434 C 598.289 0.124536 3.59885 0
M  V30 6435 C 598.142 1.53217 4.229 0
M  V30 6436 C 599.461 -0.550481 4.36644 0
M  V30 6437 H 596.58 0.051247 0.735216 0
M  V30 6438 H 599.222 0.808581 1.71936 0
M  V30 6439 H 597.372 -0.44737 3.85916 0
M  V30 6440 H 599.044 2.15303 4.07973 0
M  V30 6441 H 597.287 2.0858 3.80364 0
M  V30 6442 H 597.958 1.4755 5.31914 0
M  V30 6443 H 600.434 -0.0641154 4.16051 0
M  V30 6444 H 599.31 -0.528371 5.46351 0
M  V30 6445 H 599.571 -1.62097 4.11311 0
M  V30 6446 N 598.631 -1.53133 0.372548 0
M  V30 6447 C 599.879 -2.00958 -0.214534 0
M  V30 6448 C 600.2 -1.26135 -1.48711 0
M  V30 6449 O 599.47 -0.376597 -1.92246 0
M  V30 6450 H 598.05 -0.742456 -0.0822664 0
M  V30 6451 H 600.712 -1.88367 0.500385 0
M  V30 6452 H 599.808 -3.09031 -0.436605 0
M  V30 6453 N 600.109 -0.101901 -1.5727 0
M  V30 6454 C 601.057 0.872034 -2.15635 0
M  V30 6455 C 602.051 1.28742 -1.10099 0
M  V30 6456 O 603.257 1.26116 -1.28432 0
M  V30 6457 H 599.632 0.299269 -0.689886 0
M  V30 6458 H 601.603 0.355137 -2.96279 0
M  V30 6459 C 600.352 2.11886 -2.7568 0
M  V30 6460 H 599.675 1.80813 -3.56576 0
M  V30 6461 H 601.115 2.78077 -3.20077 0
M  V30 6462 C 599.574 2.89739 -1.7191 0
M  V30 6463 O 600.104 3.84522 -1.16213 0
M  V30 6464 N 598.31 2.53407 -1.42245 0
M  V30 6465 H 597.857 1.76398 -1.87727 0
M  V30 6466 H 597.815 3.05795 -0.730529 0
M  V30 6467 N 601.587 1.56661 0.17182 0
M  V30 6468 C 602.833 1.8313 0.88516 0
M  V30 6469 C 603.188 0.682376 1.79893 0
M  V30 6470 O 602.481 -0.321215 1.88888 0
M  V30 6471 C 602.675 3.13435 1.71736 0
M  V30 6472 C 602.504 4.40892 0.885659 0
M  V30 6473 C 601.274 5.02177 0.560939 0
M  V30 6474 C 603.472 5.13797 0.227454 0
M  V30 6475 N 601.454 6.13229 -0.286953 0
M  V30 6476 C 602.825 6.18127 -0.481625 0
M  V30 6477 C 604.88 4.97687 0.145567 0
M  V30 6478 C 603.583 7.08092 -1.26482 0
M  V30 6479 C 605.609 5.88096 -0.624298 0
M  V30 6480 C 604.971 6.91888 -1.32174 0
M  V30 6481 H 601.07 0.721107 0.302536 0
M  V30 6482 H 603.654 1.94104 0.152178 0
M  V30 6483 H 601.825 3.03653 2.42176 0
M  V30 6484 H 603.557 3.27903 2.37196 0
M  V30 6485 H 600.312 4.65145 0.890902 0
M  V30 6486 H 600.736 6.73359 -0.701193 0
M  V30 6487 H 605.378 4.17451 0.670426 0
M  V30 6488 H 603.096 7.87774 -1.80103 0
M  V30 6489 H 606.682 5.77702 -0.689321 0
M  V30 6490 H 605.562 7.60637 -1.90791 0
M  V30 6491 N 603.065 -0.440357 1.51323 0
M  V30 6492 C 604.311 -1.18874 1.65047 0
M  V30 6493 C 604.666 -1.88988 0.360742 0
M  V30 6494 O 603.959 -1.80479 -0.643272 0
M  V30 6495 C 604.153 -2.2339 2.78984 0
M  V30 6496 C 603.982 -1.63534 4.18911 0
M  V30 6497 C 602.752 -1.42158 4.84891 0
M  V30 6498 C 604.95 -1.11324 5.02107 0
M  V30 6499 N 602.932 -0.778679 6.08942 0
M  V30 6500 C 604.303 -0.595421 6.17134 0
M  V30 6501 C 606.358 -1.00471 4.87658 0
M  V30 6502 C 605.061 0.0202557 7.19297 0
M  V30 6503 C 607.087 -0.402928 5.90026 0
M  V30 6504 C 606.449 0.10436 7.04323 0
M  V30 6505 H 602.548 -0.422771 0.657866 0
M  V30 6506 H 605.132 -0.485814 1.88542 0
M  V30 6507 H 603.303 -2.91074 2.57158 0
M  V30 6508 H 605.035 -2.90366 2.81904 0
M  V30 6509 H 601.79 -1.68247 4.42707 0
M  V30 6510 H 602.214 -0.474755 6.75333 0
M  V30 6511 H 606.856 -1.38278 3.99548 0
M  V30 6512 H 604.574 0.410468 8.07057 0
M  V30 6513 H 608.16 -0.320897 5.80914 0
M  V30 6514 H 607.04 0.562697 7.82179 0
M  V30 6515 N 604.543 -1.41418 -0.695603 0
M  V30 6516 C 605.82 -1.31264 -1.45014 0
M  V30 6517 C 606.2 0.0597994 -2.11015 0
M  V30 6518 O 605.548 1.07403 -2.01685 0
M  V30 6519 C 605.758 -2.466 -2.4696 0
M  V30 6520 C 607.106 -2.87763 -3.12214 0
M  V30 6521 O 608.13 -2.46339 -2.57285 0
M  V30 6522 O 606.989 -3.59395 -4.11701 0
M  V30 6523 H 604.083 -0.516576 -0.645816 0
M  V30 6524 H 606.629 -1.53382 -0.726084 0
M  V30 6525 H 605.401 -3.38183 -1.96845 0
M  V30 6526 H 605.024 -2.26358 -3.26876 0
M  V30 6527 N 606.021 0.929856 -1.27246 0
M  V30 6528 C 607.251 1.70895 -1.16096 0
M  V30 6529 C 607.659 1.87039 0.285122 0
M  V30 6530 O 607.002 1.38557 1.20614 0
M  V30 6531 C 607.064 3.12919 -1.7698 0
M  V30 6532 C 606.728 3.2012 -3.26148 0
M  V30 6533 C 607.725 3.02533 -4.22812 0
M  V30 6534 C 605.41 3.43148 -3.66817 0
M  V30 6535 C 607.404 3.07861 -5.58122 0
M  V30 6536 C 605.091 3.48109 -5.02258 0
M  V30 6537 C 606.089 3.30483 -5.97721 0
M  V30 6538 O 605.777 3.35175 -7.30694 0
M  V30 6539 H 605.509 0.54152 -0.404639 0
M  V30 6540 H 608.063 1.17342 -1.68582 0
M  V30 6541 H 606.293 3.67945 -1.18969 0
M  V30 6542 H 607.982 3.72787 -1.60576 0
M  V30 6543 H 608.748 2.84586 -3.92728 0
M  V30 6544 H 604.627 3.55918 -2.9299 0
M  V30 6545 H 608.171 2.94021 -6.32612 0
M  V30 6546 H 604.068 3.65579 -5.31998 0
M  V30 6547 H 604.836 3.51644 -7.39114 0
M  V30 6548 N 607.499 1.09233 1.13605 0
M  V30 6549 C 608.409 0.741939 2.22559 0
M  V30 6550 C 609.425 -0.255236 1.72118 0
M  V30 6551 O 610.601 -0.0970747 2.01166 0
M  V30 6552 C 607.666 0.165595 3.46304 0
M  V30 6553 C 606.727 1.21846 4.11645 0
M  V30 6554 C 605.96 0.669526 5.29484 0
M  V30 6555 O 606.183 -0.508228 5.68131 0
M  V30 6556 O 605.117 1.42361 5.84822 0
M  V30 6557 H 608.943 1.65107 2.54899 0
M  V30 6558 H 606.528 0.866584 1.21699 0
M  V30 6559 H 608.41 -0.152592 4.21124 0
M  V30 6560 H 607.085 -0.716573 3.15669 0
M  V30 6561 H 605.992 1.58931 3.38662 0
M  V30 6562 H 607.325 2.07321 4.46407 0
M  V30 6563 N 608.977 -1.30795 0.87923 0
M  V30 6564 C 610.226 -1.95636 0.490875 0
M  V30 6565 C 610.539 -1.70214 -0.963674 0
M  V30 6566 O 611.745 -2.28991 -1.45861 0
M  V30 6567 C 610.201 -3.50271 0.826929 0
M  V30 6568 C 609.809 -3.84521 2.29886 0
M  V30 6569 C 611.553 -4.21456 0.507494 0
M  V30 6570 C 609.46 -5.32309 2.57685 0
M  V30 6571 H 608.39 -0.732238 0.179841 0
M  V30 6572 H 611.041 -1.48829 1.07341 0
M  V30 6573 H 609.423 -3.9562 0.173542 0
M  V30 6574 H 610.597 -3.50102 2.99609 0
M  V30 6575 H 608.912 -3.26425 2.58526 0
M  V30 6576 H 611.509 -5.30199 0.692293 0
M  V30 6577 H 611.852 -4.12614 -0.552718 0
M  V30 6578 H 612.385 -3.81772 1.11782 0
M  V30 6579 H 609.124 -5.46195 3.62424 0
M  V30 6580 H 608.644 -5.68048 1.92566 0
M  V30 6581 H 610.323 -5.99678 2.42889 0
M  V30 6582 N 610.455 -0.639598 -1.44038 0
M  V30 6583 C 611.703 -0.147188 -2.01563 0
M  V30 6584 C 612.024 1.2384 -1.50628 0
M  V30 6585 O 611.294 1.82452 -0.713316 0
M  V30 6586 H 609.874 -0.0514231 -0.745228 0
M  V30 6587 H 612.536 -0.828205 -1.76428 0
M  V30 6588 H 611.632 -0.121358 -3.11864 0
M  V30 6589 N 611.933 1.52934 -0.380664 0
M  V30 6590 C 613.161 2.05886 0.204599 0
M  V30 6591 C 613.576 1.25305 1.41223 0
M  V30 6592 O 612.933 0.297504 1.80059 0
M  V30 6593 C 612.984 3.56764 0.583249 0
M  V30 6594 O 612.705 4.34292 -0.576398 0
M  V30 6595 C 614.206 4.2603 1.2253 0
M  V30 6596 H 611.426 0.670193 0.0328991 0
M  V30 6597 H 613.97 1.97148 -0.543397 0
M  V30 6598 H 612.125 3.65603 1.28115 0
M  V30 6599 H 612.539 5.23819 -0.267119 0
M  V30 6600 H 614.013 5.32868 1.44068 0
M  V30 6601 H 614.49 3.80698 2.19011 0
M  V30 6602 H 615.096 4.21485 0.568407 0
M  V30 6603 N 613.412 0.11024 1.57214 0
M  V30 6604 C 614.823 -0.416527 1.81994 0
M  V30 6605 C 615.174 -1.67183 1.02686 0
M  V30 6606 O 614.299 -2.14823 0.260782 0
M  V30 6607 C 614.894 -0.762466 3.30109 0
M  V30 6608 C 613.453 -1.23391 3.556 0
M  V30 6609 C 612.6 -0.238166 2.76275 0
M  V30 6610 H 615.551 0.335491 1.55113 0
M  V30 6611 H 615.572 -1.62068 3.44259 0
M  V30 6612 H 615.084 0.151346 3.87805 0
M  V30 6613 H 613.185 -2.16492 3.03253 0
M  V30 6614 H 613.298 -1.18528 4.64207 0
M  V30 6615 H 611.662 -0.723421 2.4421 0
M  V30 6616 H 612.445 0.668591 3.36727 0
M  V30 6617 N 614.89 -1.56749 -0.16351 0
M  V30 6618 C 616.306 -1.51043 -0.515567 0
M  V30 6619 C 616.506 -0.815855 -1.84245 0
M  V30 6620 O 615.562 -0.379477 -2.49632 0
M  V30 6621 C 616.875 -2.95791 -0.541114 0
M  V30 6622 C 618.423 -3.0664 -0.627776 0
M  V30 6623 C 618.898 -4.52861 -0.684141 0
M  V30 6624 N 620.389 -4.5714 -0.746818 0
M  V30 6625 C 621.124 -5.67634 -0.811137 0
M  V30 6626 N 620.62 -6.8774 -0.835811 0
M  V30 6627 N 622.413 -5.55624 -0.850756 0
M  V30 6628 H 614.564 -2.00307 0.70645 0
M  V30 6629 H 616.827 -0.912876 0.255659 0
M  V30 6630 H 616.533 -3.49797 0.365329 0
M  V30 6631 H 616.407 -3.50858 -1.38487 0
M  V30 6632 H 618.794 -2.52663 -1.52464 0
M  V30 6633 H 618.875 -2.54645 0.242805 0
M  V30 6634 H 618.519 -5.07472 0.2085 0
M  V30 6635 H 618.449 -5.02621 -1.57098 0
M  V30 6636 H 620.94 -3.70669 -0.735717 0
M  V30 6637 H 621.253 -7.67701 -0.886279 0
M  V30 6638 H 619.598 -6.90334 -0.803958 0
M  V30 6639 H 622.789 -4.60709 -0.828535 0
M  V30 6640 H 622.962 -6.41756 -0.897418 0
M  V30 6641 N 616.368 0.432326 -1.51554 0
M  V30 6642 C 617.331 1.50765 -1.72634 0
M  V30 6643 C 618.331 1.49334 -0.596314 0
M  V30 6644 O 619.521 1.51268 -0.863925 0
M  V30 6645 C 616.653 2.90284 -1.7874 0
M  V30 6646 H 617.846 1.33377 -2.68609 0
M  V30 6647 H 615.399 0.661329 -1.4162 0
M  V30 6648 H 616.134 3.13071 -0.845977 0
M  V30 6649 H 615.919 2.92727 -2.6087 0
M  V30 6650 H 617.409 3.68282 -1.96871 0
M  V30 6651 N 617.846 1.41785 0.688094 0
M  V30 6652 C 619.095 1.4084 1.44385 0
M  V30 6653 C 619.408 0.0234166 1.95586 0
M  V30 6654 O 620.614 -0.108647 2.71283 0
M  V30 6655 C 619.07 2.47675 2.61123 0
M  V30 6656 C 618.678 3.92116 2.16677 0
M  V30 6657 C 620.422 2.55877 3.38714 0
M  V30 6658 C 618.329 4.90487 3.30419 0
M  V30 6659 H 617.259 0.523787 0.542368 0
M  V30 6660 H 619.91 1.6764 0.74627 0
M  V30 6661 H 618.292 2.14018 3.33185 0
M  V30 6662 H 619.466 4.35059 1.51856 0
M  V30 6663 H 617.781 3.87642 1.5206 0
M  V30 6664 H 620.378 3.26553 4.234 0
M  V30 6665 H 620.721 1.59801 3.84408 0
M  V30 6666 H 621.254 2.88662 2.73714 0
M  V30 6667 H 617.993 5.87994 2.89729 0
M  V30 6668 H 617.513 4.52187 3.94065 0
M  V30 6669 H 619.192 5.11591 3.96085 0
M  V30 6670 N 619.324 -0.923095 1.27737 0
M  V30 6671 C 620.272 -2.04567 1.10703 0
M  V30 6672 C 621.266 -1.69375 0.0288445 0
M  V30 6673 O 622.472 -1.79027 0.186913 0
M  V30 6674 H 618.847 -0.670109 0.34126 0
M  V30 6675 H 620.818 -2.1608 2.05796 0
M  V30 6676 C 619.567 -3.38934 0.775837 0
M  V30 6677 H 618.89 -3.66501 1.59741 0
M  V30 6678 H 620.33 -4.18239 0.696548 0
M  V30 6679 C 618.789 -3.32863 -0.520012 0
M  V30 6680 O 619.319 -3.70462 -1.55308 0
M  V30 6681 N 617.525 -2.85958 -0.51732 0
M  V30 6682 H 617.072 -2.55557 0.32379 0
M  V30 6683 H 617.03 -2.82279 -1.38441 0
M  V30 6684 N 620.802 -1.09834 -1.13024 0
M  V30 6685 C 621.75 -0.736283 -2.20639 0
M  V30 6686 C 622.744 0.264725 -1.67319 0
M  V30 6687 O 623.95 0.125745 -1.7956 0
M  V30 6688 H 620.325 -0.220136 -0.719058 0
M  V30 6689 H 622.296 -1.65295 -2.48436 0
M  V30 6690 C 621.045 -0.177544 -3.47246 0
M  V30 6691 H 620.368 -0.939009 -3.88616 0
M  V30 6692 H 621.808 0.0378007 -4.23983 0
M  V30 6693 C 620.267 1.08824 -3.1884 0
M  V30 6694 O 620.797 2.1708 -3.37993 0
M  V30 6695 N 619.003 1.00442 -2.7269 0
M  V30 6696 H 618.55 0.123383 -2.57304 0
M  V30 6697 H 618.508 1.85206 -2.5406 0
M  V30 6698 N 622.28 1.30327 -0.886154 0
M  V30 6699 C 623.508 2.00254 -0.520176 0
M  V30 6700 C 623.923 1.66419 0.891637 0
M  V30 6701 O 623.28 0.901951 1.58654 0
M  V30 6702 C 623.331 3.54916 -0.686775 0
M  V30 6703 O 623.052 3.87547 -2.04301 0
M  V30 6704 C 624.553 4.42115 -0.323945 0
M  V30 6705 H 621.773 0.640204 -0.200947 0
M  V30 6706 H 624.317 1.66183 -1.19178 0
M  V30 6707 H 622.472 3.8735 -0.0625273 0
M  V30 6708 H 622.886 4.82247 -2.06249 0
M  V30 6709 H 624.36 5.49808 -0.491407 0
M  V30 6710 H 624.837 4.32953 0.73811 0
M  V30 6711 H 625.443 4.15129 -0.924565 0
M  V30 6712 N 623.758 0.647228 1.43697 0
M  V30 6713 C 624.688 -0.0345631 2.33474 0
M  V30 6714 C 625.669 -0.818193 1.4913 0
M  V30 6715 O 626.854 -0.780867 1.77809 0
M  V30 6716 C 623.984 -1.00576 3.32418 0
M  V30 6717 C 622.938 -0.33266 4.26705 0
M  V30 6718 C 622.264 -1.41489 5.1564 0
M  V30 6719 C 623.564 0.771204 5.16575 0
M  V30 6720 H 625.258 0.715163 2.90733 0
M  V30 6721 H 622.804 0.345364 1.39797 0
M  V30 6722 H 624.757 -1.49159 3.94119 0
M  V30 6723 H 623.481 -1.78657 2.73403 0
M  V30 6724 H 622.14 0.13267 3.6636 0
M  V30 6725 H 621.788 -2.18698 4.52968 0
M  V30 6726 H 621.488 -0.969799 5.79542 0
M  V30 6727 H 623.012 -1.9022 5.80214 0
M  V30 6728 H 624.426 0.36779 5.72119 0
M  V30 6729 H 622.823 1.1404 5.89165 0
M  V30 6730 H 623.893 1.63169 4.56622 0
M  V30 6731 N 625.236 -1.5273 0.388769 0
M  V30 6732 C 626.461 -2.0647 -0.19621 0
M  V30 6733 C 626.886 -1.25865 -1.39784 0
M  V30 6734 O 626.244 -0.283562 -1.79069 0
M  V30 6735 C 626.292 -3.56456 -0.5451 0
M  V30 6736 O 625.396 -3.78426 -1.63912 0
M  V30 6737 H 624.737 -0.663599 -0.023067 0
M  V30 6738 H 627.267 -1.96898 0.556084 0
M  V30 6739 H 627.277 -3.99888 -0.809557 0
M  V30 6740 H 625.952 -4.14561 0.333417 0
M  V30 6741 H 624.529 -3.46884 -1.36842 0
M  V30 6742 N 626.714 -0.118576 -1.57153 0
M  V30 6743 C 627.644 0.828436 -2.1831 0
M  V30 6744 C 628.625 1.27758 -1.12303 0
M  V30 6745 O 629.81 1.34026 -1.40537 0
M  V30 6746 C 626.94 2.07876 -2.78217 0
M  V30 6747 C 625.894 1.76742 -3.89803 0
M  V30 6748 C 625.22 3.08801 -4.36516 0
M  V30 6749 C 626.52 1.03606 -5.11921 0
M  V30 6750 H 628.214 0.318824 -2.97698 0
M  V30 6751 H 625.76 0.151911 -1.43196 0
M  V30 6752 H 627.713 2.74584 -3.19659 0
M  V30 6753 H 626.437 2.61161 -1.96118 0
M  V30 6754 H 625.096 1.12424 -3.48936 0
M  V30 6755 H 624.744 3.6002 -3.51276 0
M  V30 6756 H 624.444 2.88743 -5.11763 0
M  V30 6757 H 625.968 3.76627 -4.80608 0
M  V30 6758 H 627.382 1.60467 -5.50385 0
M  V30 6759 H 625.779 0.936454 -5.92748 0
M  V30 6760 H 626.849 0.0227421 -4.84895 0
M  V30 6761 N 628.193 1.56834 0.155195 0
M  V30 6762 C 629.126 1.9278 1.22111 0
M  V30 6763 C 630.104 0.792588 1.41975 0
M  V30 6764 O 631.288 1.04743 1.5672 0
M  V30 6765 C 628.415 2.19273 2.58142 0
M  V30 6766 C 627.461 3.41932 2.54921 0
M  V30 6767 S 628.294 4.95769 2.02418 0
M  V30 6768 C 629.45 5.25375 3.40194 0
M  V30 6769 H 629.683 2.82889 0.914393 0
M  V30 6770 H 627.216 1.50133 0.360461 0
M  V30 6771 H 629.174 2.35217 3.36427 0
M  V30 6772 H 627.835 1.29843 2.86007 0
M  V30 6773 H 627.028 3.57721 3.55038 0
M  V30 6774 H 626.63 3.25188 1.8474 0
M  V30 6775 H 628.922 5.1834 4.36268 0
M  V30 6776 H 629.865 6.26889 3.29266 0
M  V30 6777 H 630.273 4.52906 3.36951 0
M  V30 6778 N 629.671 -0.424282 1.51781 0
M  V30 6779 C 630.618 -1.51591 1.74037 0
M  V30 6780 C 631.588 -1.55556 0.582358 0
M  V30 6781 O 632.773 -1.72364 0.818245 0
M  V30 6782 C 629.913 -2.89188 1.8832 0
M  V30 6783 C 629.026 -2.9465 3.1592 0
M  V30 6784 C 628.161 -4.23452 3.20721 0
M  V30 6785 C 627.2 -4.22831 4.42584 0
M  V30 6786 N 626.337 -5.43178 4.44862 0
M  V30 6787 H 631.177 -1.31917 2.67212 0
M  V30 6788 H 628.714 -0.640599 1.32419 0
M  V30 6789 H 630.672 -3.69044 1.94583 0
M  V30 6790 H 629.302 -3.07392 0.985402 0
M  V30 6791 H 628.354 -2.07378 3.18902 0
M  V30 6792 H 629.666 -2.90055 4.05795 0
M  V30 6793 H 628.82 -5.1169 3.25973 0
M  V30 6794 H 627.559 -4.30722 2.28757 0
M  V30 6795 H 626.564 -3.32984 4.37495 0
M  V30 6796 H 627.789 -4.17213 5.35826 0
M  V30 6797 H 625.735 -5.51145 3.55775 0
M  V30 6798 H 625.652 -5.40515 5.28563 0
M  V30 6799 H 626.92 -6.33412 4.54324 0
M  V30 6800 N 631.149 -1.42148 -0.680565 0
M  V30 6801 C 632.059 -1.47565 -1.82378 0
M  V30 6802 C 633.075 -0.36489 -1.70131 0
M  V30 6803 O 634.251 -0.614916 -1.91783 0
M  V30 6804 C 631.316 -1.37013 -3.18478 0
M  V30 6805 C 630.377 -2.58532 -3.42724 0
M  V30 6806 C 629.61 -2.48473 -4.72331 0
M  V30 6807 O 629.833 -1.51745 -5.49845 0
M  V30 6808 O 628.767 -3.38503 -4.97694 0
M  V30 6809 H 632.593 -2.44045 -1.80764 0
M  V30 6810 H 630.178 -1.23849 -0.835569 0
M  V30 6811 H 632.06 -1.33468 -3.99705 0
M  V30 6812 H 630.735 -0.436552 -3.20743 0
M  V30 6813 H 629.642 -2.67652 -2.61368 0
M  V30 6814 H 630.975 -3.50769 -3.45286 0
M  V30 6815 N 632.627 0.916307 -1.28225 0
M  V30 6816 C 633.857 1.69654 -1.17902 0
M  V30 6817 C 634.265 1.87331 0.265268 0
M  V30 6818 O 633.608 1.39828 1.19137 0
M  V30 6819 C 633.67 3.11024 -1.80289 0
M  V30 6820 C 633.334 3.16643 -3.29525 0
M  V30 6821 C 634.331 2.98032 -4.25997 0
M  V30 6822 C 632.016 3.39238 -3.70436 0
M  V30 6823 C 634.01 3.01924 -5.61356 0
M  V30 6824 C 631.697 3.42762 -5.05922 0
M  V30 6825 C 632.695 3.24125 -6.01192 0
M  V30 6826 O 632.383 3.27406 -7.34208 0
M  V30 6827 H 632.115 0.537197 -0.41036 0
M  V30 6828 H 634.669 1.15547 -1.69817 0
M  V30 6829 H 632.899 3.66662 -1.22865 0
M  V30 6830 H 634.588 3.71063 -1.6452 0
M  V30 6831 H 635.354 2.80405 -3.95725 0
M  V30 6832 H 631.233 3.52791 -2.96749 0
M  V30 6833 H 634.777 2.87295 -6.35694 0
M  V30 6834 H 630.674 3.59916 -5.35846 0
M  V30 6835 H 631.442 3.43784 -7.42802 0
M  V30 6836 N 634.105 1.10431 1.1244 0
M  V30 6837 C 635.352 0.846717 1.83948 0
M  V30 6838 C 635.68 -0.627709 1.84093 0
M  V30 6839 O 634.935 -1.47876 1.28184 0
M  V30 6840 C 635.234 1.34022 3.3132 0
M  V30 6841 C 634.9 2.82606 3.51347 0
M  V30 6842 C 633.562 3.23182 3.56521 0
M  V30 6843 C 635.914 3.78356 3.58464 0
M  V30 6844 C 633.242 4.58258 3.66356 0
M  V30 6845 C 635.594 5.13234 3.69829 0
M  V30 6846 C 634.258 5.53384 3.73259 0
M  V30 6847 H 633.528 0.309836 0.673114 0
M  V30 6848 H 636.175 1.38091 1.32677 0
M  V30 6849 H 634.48 0.726047 3.85014 0
M  V30 6850 H 636.177 1.11739 3.85118 0
M  V30 6851 H 632.767 2.50212 3.47983 0
M  V30 6852 H 636.951 3.48115 3.53737 0
M  V30 6853 H 632.207 4.88787 3.67284 0
M  V30 6854 H 636.381 5.87272 3.74279 0
M  V30 6855 H 634.008 6.58045 3.80633 0
M  V30 6856 N 635.583 -1.29855 0.893053 0
M  V30 6857 C 636.808 -2.00512 0.530066 0
M  V30 6858 C 637.233 -1.66446 -0.876199 0
M  V30 6859 O 636.591 -0.885446 -1.58207 0
M  V30 6860 C 636.639 -3.53308 0.721505 0
M  V30 6861 O 635.743 -4.11764 -0.228994 0
M  V30 6862 H 635.084 -0.630617 0.207891 0
M  V30 6863 H 637.614 -1.6551 1.20282 0
M  V30 6864 H 637.624 -4.03206 0.623599 0
M  V30 6865 H 636.299 -3.77439 1.74678 0
M  V30 6866 H 634.876 -3.72805 -0.0841034 0
M  V30 6867 N 637.061 -0.65484 -1.43351 0
M  V30 6868 C 638.338 -0.0987371 -1.95351 0
M  V30 6869 C 638.718 1.38161 -1.59608 0
M  V30 6870 O 638.066 2.10791 -0.882021 0
M  V30 6871 C 638.276 -0.346684 -3.47274 0
M  V30 6872 C 639.624 -0.25249 -4.23849 0
M  V30 6873 O 640.648 -0.279332 -3.55103 0
M  V30 6874 O 639.507 -0.177584 -5.46211 0
M  V30 6875 H 636.601 0.0086829 -0.826954 0
M  V30 6876 H 639.147 -0.728189 -1.53282 0
M  V30 6877 H 637.919 -1.37296 -3.66423 0
M  V30 6878 H 637.542 0.315757 -3.96344 0
M  V30 6879 N 638.539 1.52521 -0.396863 0
M  V30 6880 C 639.449 2.30403 0.44178 0
M  V30 6881 C 640.465 1.37625 1.06468 0
M  V30 6882 O 641.641 1.70697 1.06886 0
M  V30 6883 C 638.706 3.1013 1.54986 0
M  V30 6884 C 637.767 4.18628 0.951279 0
M  V30 6885 C 637 4.94543 2.00655 0
M  V30 6886 O 637.223 4.70629 3.22281 0
M  V30 6887 O 636.157 5.797 1.61962 0
M  V30 6888 H 639.983 3.03087 -0.192892 0
M  V30 6889 H 637.568 1.48537 -0.16038 0
M  V30 6890 H 639.45 3.59816 2.19341 0
M  V30 6891 H 638.125 2.40251 2.16935 0
M  V30 6892 H 637.032 3.73119 0.270773 0
M  V30 6893 H 638.365 4.90763 0.375887 0
M  V30 6894 N 640.017 0.126909 1.57088 0
M  V30 6895 C 640.927 -0.833867 2.1928 0
M  V30 6896 C 641.943 -1.2868 1.17122 0
M  V30 6897 O 643.119 -1.34815 1.49622 0
M  V30 6898 C 640.184 -2.0632 2.78627 0
M  V30 6899 C 639.245 -1.66143 3.95847 0
M  V30 6900 C 638.478 -2.83217 4.52354 0
M  V30 6901 O 638.701 -3.98868 4.0775 0
M  V30 6902 O 637.635 -2.59846 5.42922 0
M  V30 6903 H 641.461 -0.334564 3.01852 0
M  V30 6904 H 639.046 -0.0991091 1.49071 0
M  V30 6905 H 640.928 -2.78304 3.16425 0
M  V30 6906 H 639.603 -2.55242 1.99082 0
M  V30 6907 H 638.51 -0.912435 3.62802 0
M  V30 6908 H 639.843 -1.21957 4.76852 0
M  V30 6909 N 641.495 -1.56914 -0.146875 0
M  V30 6910 C 642.744 -1.82546 -0.857898 0
M  V30 6911 C 643.057 -0.708169 -1.8233 0
M  V30 6912 O 644.263 -0.850093 -2.57848 0
M  V30 6913 C 642.719 -3.23548 -1.57623 0
M  V30 6914 C 642.327 -4.43212 -0.653224 0
M  V30 6915 C 644.071 -3.58453 -2.27402 0
M  V30 6916 C 641.978 -5.75237 -1.37318 0
M  V30 6917 H 640.908 -0.680786 -0.32411 0
M  V30 6918 H 643.559 -1.83166 -0.110639 0
M  V30 6919 H 641.941 -3.17315 -2.36912 0
M  V30 6920 H 643.115 -4.60682 0.104452 0
M  V30 6921 H 641.43 -4.16351 -0.0638336 0
M  V30 6922 H 644.027 -4.54349 -2.81907 0
M  V30 6923 H 644.37 -2.84516 -3.03901 0
M  V30 6924 H 644.903 -3.66347 -1.55032 0
M  V30 6925 H 641.642 -6.52269 -0.650041 0
M  V30 6926 H 641.162 -5.61703 -2.10357 0
M  V30 6927 H 642.841 -6.18039 -1.91406 0
M  V30 6928 N 642.974 0.416227 -1.52004 0
M  V30 6929 C 643.921 1.50666 -1.74838 0
M  V30 6930 C 644.891 1.55245 -0.590599 0
M  V30 6931 O 646.076 1.71928 -0.827374 0
M  V30 6932 C 643.216 2.88185 -1.89851 0
M  V30 6933 C 642.329 2.92971 -3.17478 0
M  V30 6934 C 641.464 4.21745 -3.22962 0
M  V30 6935 C 640.503 4.20478 -4.4482 0
M  V30 6936 N 639.64 5.40811 -4.47736 0
M  V30 6937 H 644.48 1.30498 -2.67907 0
M  V30 6938 H 642.017 0.633568 -1.32757 0
M  V30 6939 H 643.975 3.68007 -1.96537 0
M  V30 6940 H 642.605 3.06865 -1.00169 0
M  V30 6941 H 641.657 2.05684 -3.19997 0
M  V30 6942 H 642.969 2.87899 -4.07328 0
M  V30 6943 H 642.123 5.09954 -3.28682 0
M  V30 6944 H 640.862 4.29503 -2.31038 0
M  V30 6945 H 639.867 3.30659 -4.39254 0
M  V30 6946 H 641.092 4.14366 -5.38031 0
M  V30 6947 H 639.038 5.4925 -3.58692 0
M  V30 6948 H 638.955 5.37705 -5.31422 0
M  V30 6949 H 640.223 6.30993 -4.57676 0
M  V30 6950 N 644.452 1.42507 0.673017 0
M  V30 6951 C 645.399 1.46124 1.78651 0
M  V30 6952 C 646.369 0.313007 1.63124 0
M  V30 6953 O 647.554 0.517337 1.83653 0
M  V30 6954 C 644.694 1.3711 3.16694 0
M  V30 6955 C 643.807 2.61983 3.43495 0
M  V30 6956 C 642.942 2.45098 4.71275 0
M  V30 6957 C 641.981 3.65336 4.91117 0
M  V30 6958 N 641.118 3.47383 6.10139 0
M  V30 6959 H 645.958 2.4128 1.74895 0
M  V30 6960 H 643.495 1.19788 0.853766 0
M  V30 6961 H 645.453 1.29881 3.96468 0
M  V30 6962 H 644.083 0.45549 3.1957 0
M  V30 6963 H 643.135 2.79571 2.57961 0
M  V30 6964 H 644.447 3.51355 3.5405 0
M  V30 6965 H 643.601 2.35466 5.59143 0
M  V30 6966 H 642.34 1.53219 4.63007 0
M  V30 6967 H 641.345 3.754 4.0169 0
M  V30 6968 H 642.57 4.58199 5.01229 0
M  V30 6969 H 640.516 2.58222 6.0304 0
M  V30 6970 H 640.433 4.30344 6.21563 0
M  V30 6971 H 641.701 3.41565 7.00681 0
M  V30 6972 N 645.93 -0.909495 1.28709 0
M  V30 6973 C 647.16 -1.69027 1.188 0
M  V30 6974 C 647.568 -1.87469 -0.255329 0
M  V30 6975 O 646.911 -1.40458 -1.18394 0
M  V30 6976 C 646.973 -3.10064 1.81936 0
M  V30 6977 C 646.637 -3.14891 3.31199 0
M  V30 6978 C 647.634 -2.95768 4.27571 0
M  V30 6979 C 645.319 -3.37269 3.7223 0
M  V30 6980 C 647.313 -2.98942 5.6295 0
M  V30 6981 C 645 -3.40074 5.07733 0
M  V30 6982 C 645.998 -3.20932 6.02903 0
M  V30 6983 O 645.686 -3.23507 7.35934 0
M  V30 6984 H 645.418 -0.535014 0.413203 0
M  V30 6985 H 647.972 -1.14645 1.70428 0
M  V30 6986 H 646.202 -3.66005 1.24808 0
M  V30 6987 H 647.891 -3.70185 1.66486 0
M  V30 6988 H 648.657 -2.78302 3.97206 0
M  V30 6989 H 644.536 -3.51212 2.98615 0
M  V30 6990 H 648.08 -2.83919 6.37209 0
M  V30 6991 H 643.977 -3.5707 5.37747 0
M  V30 6992 H 644.745 -3.3984 7.44615 0
M  V30 6993 N 647.408 -1.11026 -1.11852 0
M  V30 6994 C 648.636 -0.878818 -1.87308 0
M  V30 6995 C 649.051 0.57111 -1.79955 0
M  V30 6996 O 648.408 1.39409 -1.17777 0
M  V30 6997 C 648.459 -1.3264 -3.36287 0
M  V30 6998 O 648.18 -2.71948 -3.43476 0
M  V30 6999 C 649.681 -1.12974 -4.28663 0
M  V30 7000 H 646.901 -0.315015 -0.592458 0
M  V30 7001 H 649.445 -1.47649 -1.41492 0
M  V30 7002 H 647.6 -0.772269 -3.79625 0
M  V30 7003 H 648.014 -2.91241 -4.3621 0
M  V30 7004 H 649.488 -1.49198 -5.31454 0
M  V30 7005 H 649.965 -0.0689127 -4.39146 0
M  V30 7006 H 650.571 -1.67064 -3.91113 0
M  V30 7007 N 648.886 1.2938 -0.899927 0
M  V30 7008 C 650.163 1.9046 -0.445443 0
M  V30 7009 C 650.543 1.81683 1.07492 0
M  V30 7010 O 649.891 1.24371 1.91688 0
M  V30 7011 C 650.101 3.35529 -0.960279 0
M  V30 7012 C 651.449 4.12556 -1.00412 0
M  V30 7013 O 652.473 3.44434 -0.907965 0
M  V30 7014 O 651.332 5.34294 -1.14857 0
M  V30 7015 H 648.426 0.815253 -0.138893 0
M  V30 7016 H 650.972 1.37844 -0.989808 0
M  V30 7017 H 649.744 3.36074 -2.00425 0
M  V30 7018 H 649.367 3.95624 -0.395939 0
M  V30 7019 N 650.364 0.662433 1.43002 0
M  V30 7020 C 651.61 0.179857 2.02001 0
M  V30 7021 C 651.943 -1.20625 1.52195 0
M  V30 7022 O 651.218 -1.80726 0.718911 0
M  V30 7023 C 651.501 0.200845 3.59539 0
M  V30 7024 C 651.354 1.62153 4.19555 0
M  V30 7025 C 652.673 -0.457738 4.37713 0
M  V30 7026 H 649.792 0.0668305 0.733964 0
M  V30 7027 H 652.434 0.84487 1.70182 0
M  V30 7028 H 650.584 -0.365411 3.86778 0
M  V30 7029 H 652.256 2.23908 4.03315 0
M  V30 7030 H 650.499 2.16601 3.75854 0
M  V30 7031 H 651.17 1.58799 5.28665 0
M  V30 7032 H 653.646 0.0241495 4.16093 0
M  V30 7033 H 652.522 -0.412363 5.47349 0
M  V30 7034 H 652.783 -1.53336 4.14657 0
M  V30 7035 N 651.842 -1.52309 0.404946 0
M  V30 7036 C 653.091 -2.00952 -0.173529 0
M  V30 7037 C 653.404 -1.29512 -1.46581 0
M  V30 7038 O 654.61 -1.6895 -2.12528 0
M  V30 7039 C 653.066 -3.58097 -0.359801 0
M  V30 7040 C 652.674 -4.38449 0.920138 0
M  V30 7041 C 654.418 -4.14984 -0.893794 0
M  V30 7042 C 652.325 -5.87227 0.701285 0
M  V30 7043 H 651.255 -0.750871 -0.0686244 0
M  V30 7044 H 653.906 -1.75687 0.529749 0
M  V30 7045 H 652.288 -3.79675 -1.12531 0
M  V30 7046 H 653.462 -4.28633 1.69147 0
M  V30 7047 H 651.777 -3.92859 1.38024 0
M  V30 7048 H 654.374 -5.23813 -1.0735 0
M  V30 7049 H 654.717 -3.72072 -1.8673 0
M  V30 7050 H 655.25 -3.97358 -0.187453 0
M  V30 7051 H 651.989 -6.34491 1.64624 0
M  V30 7052 H 651.509 -5.99792 -0.0308288 0
M  V30 7053 H 653.188 -6.46096 0.341846 0
M  V30 7054 N 653.32 -0.135238 -1.57019 0
M  V30 7055 C 654.23 0.822226 -2.19719 0
M  V30 7056 C 655.246 1.28057 -1.17802 0
M  V30 7057 O 656.422 1.3402 -1.50335 0
M  V30 7058 C 653.487 2.0484 -2.79717 0
M  V30 7059 C 652.548 1.64042 -3.96723 0
M  V30 7060 C 651.781 2.80814 -4.53849 0
M  V30 7061 O 652.004 3.967 -4.0986 0
M  V30 7062 O 650.938 2.56963 -5.44292 0
M  V30 7063 H 654.764 0.318552 -3.02025 0
M  V30 7064 H 652.349 0.0912021 -1.49121 0
M  V30 7065 H 654.231 2.76622 -3.17897 0
M  V30 7066 H 652.906 2.54182 -2.00432 0
M  V30 7067 H 651.813 0.893182 -3.63281 0
M  V30 7068 H 653.146 1.19426 -4.77492 0
M  V30 7069 N 654.798 1.5699 0.138552 0
M  V30 7070 C 655.745 1.98899 1.17081 0
M  V30 7071 C 656.715 0.857922 1.42228 0
M  V30 7072 O 657.9 1.12065 1.54422 0
M  V30 7073 C 655.04 2.38189 2.4972 0
M  V30 7074 C 654.153 3.64624 2.31674 0
M  V30 7075 C 653.288 3.9298 3.57407 0
M  V30 7076 C 652.327 5.1266 3.34435 0
M  V30 7077 N 651.464 5.36983 4.5232 0
M  V30 7078 H 656.304 2.86881 0.80642 0
M  V30 7079 H 653.841 1.41925 0.386727 0
M  V30 7080 H 655.799 2.59 3.2707 0
M  V30 7081 H 654.429 1.53275 2.84089 0
M  V30 7082 H 653.481 3.51542 1.45337 0
M  V30 7083 H 654.793 4.52131 2.10664 0
M  V30 7084 H 653.947 4.14335 4.43183 0
M  V30 7085 H 652.686 3.03912 3.8143 0
M  V30 7086 H 651.691 4.9117 2.47048 0
M  V30 7087 H 652.916 6.03288 3.11802 0
M  V30 7088 H 650.862 4.50871 4.76499 0
M  V30 7089 H 650.779 6.18775 4.34343 0
M  V30 7090 H 652.047 5.62842 5.39285 0
M  V30 7091 N 656.276 -0.40816 1.52223 0
M  V30 7092 C 657.523 -1.15502 1.66329 0
M  V30 7093 C 657.851 -1.90474 0.393701 0
M  V30 7094 O 657.106 -1.85507 -0.623356 0
M  V30 7095 C 657.405 -2.17422 2.83659 0
M  V30 7096 C 657.071 -1.5925 4.21841 0
M  V30 7097 C 655.733 -1.4311 4.59427 0
M  V30 7098 C 658.085 -1.16776 5.0795 0
M  V30 7099 C 655.413 -0.830148 5.80797 0
M  V30 7100 C 657.765 -0.580988 6.29926 0
M  V30 7101 C 656.429 -0.406729 6.6626 0
M  V30 7102 H 655.699 -0.422653 0.608642 0
M  V30 7103 H 658.346 -0.442114 1.86327 0
M  V30 7104 H 656.651 -2.94861 2.58001 0
M  V30 7105 H 658.348 -2.75084 2.9177 0
M  V30 7106 H 654.938 -1.72796 3.92224 0
M  V30 7107 H 659.122 -1.28055 4.79495 0
M  V30 7108 H 654.378 -0.68316 6.07571 0
M  V30 7109 H 658.552 -0.243488 6.95974 0
M  V30 7110 H 656.179 0.0610366 7.60175 0
M  V30 7111 N 657.755 -1.42862 -0.66545 0
M  V30 7112 C 659.001 -1.44043 -1.42757 0
M  V30 7113 C 659.334 -0.0599629 -1.94107 0
M  V30 7114 O 658.609 0.917286 -1.71511 0
M  V30 7115 C 658.892 -2.47266 -2.61786 0
M  V30 7116 C 658.745 -3.94539 -2.16007 0
M  V30 7117 C 660.064 -2.47365 -3.64003 0
M  V30 7118 H 657.183 -0.524506 -0.517748 0
M  V30 7119 H 659.825 -1.74335 -0.755466 0
M  V30 7120 H 657.975 -2.21565 -3.19126 0
M  V30 7121 H 659.647 -4.31254 -1.63762 0
M  V30 7122 H 657.89 -4.07957 -1.47491 0
M  V30 7123 H 658.561 -4.62357 -3.01546 0
M  V30 7124 H 661.037 -2.70243 -3.16399 0
M  V30 7125 H 659.913 -3.21552 -4.44854 0
M  V30 7126 H 660.174 -1.50299 -4.15767 0
M  V30 7127 N 659.233 0.902656 -1.29189 0
M  V30 7128 C 660.644 1.46809 -1.15343 0
M  V30 7129 C 660.995 1.94568 0.252517 0
M  V30 7130 O 660.12 1.83454 1.14777 0
M  V30 7131 C 660.715 2.66829 -2.08776 0
M  V30 7132 C 659.274 3.19518 -1.98961 0
M  V30 7133 C 658.421 1.92212 -1.99874 0
M  V30 7134 H 661.372 0.714282 -1.41717 0
M  V30 7135 H 661.393 3.42465 -1.65826 0
M  V30 7136 H 660.905 2.32039 -3.11094 0
M  V30 7137 H 659.006 3.59008 -0.99721 0
M  V30 7138 H 659.119 3.84016 -2.86477 0
M  V30 7139 H 657.483 2.0979 -1.44431 0
M  V30 7140 H 658.266 1.59702 -3.03891 0
M  V30 7141 N 660.711 1.11618 1.11262 0
M  V30 7142 C 661.988 0.777876 1.79467 0
M  V30 7143 C 662.368 -0.733774 1.97937 0
M  V30 7144 O 661.716 -1.66443 1.56554 0
M  V30 7145 C 661.926 1.5431 3.13032 0
M  V30 7146 C 663.274 1.72357 3.88044 0
M  V30 7147 O 664.298 1.5075 3.22727 0
M  V30 7148 O 663.157 2.08276 5.05256 0
M  V30 7149 H 660.251 0.282018 0.777428 0
M  V30 7150 H 662.797 1.21971 1.17988 0
M  V30 7151 H 661.569 2.57132 2.94956 0
M  V30 7152 H 661.192 1.09495 3.82226 0
M  V30 7153 N 662.189 -1.289 0.906776 0
M  V30 7154 C 663.6 -1.77336 0.58384 0
M  V30 7155 C 663.951 -1.74304 -0.900697 0
M  V30 7156 O 663.076 -1.33335 -1.70443 0
M  V30 7157 C 663.671 -3.22019 1.05304 0
M  V30 7158 C 662.23 -3.68205 0.781148 0
M  V30 7159 C 661.377 -2.48837 1.22373 0
M  V30 7160 H 664.328 -1.15462 1.08877 0
M  V30 7161 H 664.349 -3.78481 0.391414 0
M  V30 7162 H 663.861 -3.24194 2.13353 0
M  V30 7163 H 661.962 -3.71497 -0.28643 0
M  V30 7164 H 662.075 -4.58675 1.384 0
M  V30 7165 H 660.439 -2.46461 0.642594 0
M  V30 7166 H 661.222 -2.53736 2.31242 0
M  V30 7167 N 663.667 -0.670007 -1.42649 0
M  V30 7168 C 664.577 0.0114788 -2.34597 0
M  V30 7169 C 665.593 0.794055 -1.54825 0
M  V30 7170 O 666.769 0.737472 -1.87412 0
M  V30 7171 C 663.834 0.954436 -3.33304 0
M  V30 7172 C 662.895 0.166925 -4.28975 0
M  V30 7173 C 662.128 1.06497 -5.22967 0
M  V30 7174 O 662.351 2.30446 -5.21777 0
M  V30 7175 O 661.285 0.528347 -5.99577 0
M  V30 7176 H 665.111 -0.745794 -2.944 0
M  V30 7177 H 662.696 -0.430228 -1.43071 0
M  V30 7178 H 664.578 1.49589 -3.93956 0
M  V30 7179 H 663.253 1.69164 -2.7598 0
M  V30 7180 H 662.16 -0.418515 -3.71752 0
M  V30 7181 H 663.493 -0.531067 -4.89327 0
M  V30 7182 N 665.145 1.52092 -0.413018 0
M  V30 7183 C 666.095 2.23947 0.427993 0
M  V30 7184 C 667.079 1.25229 1.01027 0
M  V30 7185 O 668.271 1.50448 0.932444 0
M  V30 7186 C 665.4 3.0672 1.542 0
M  V30 7187 C 664.486 4.12851 0.970307 0
M  V30 7188 N 664.877 5.05644 0.125611 0
M  V30 7189 C 663.175 4.28404 1.24042 0
M  V30 7190 C 663.876 5.8138 -0.192876 0
M  V30 7191 N 662.852 5.41996 0.417273 0
M  V30 7192 H 666.654 2.93048 -0.223628 0
M  V30 7193 H 664.168 1.60852 -0.223664 0
M  V30 7194 H 666.165 3.56754 2.15714 0
M  V30 7195 H 664.825 2.39159 2.19621 0
M  V30 7196 H 665.836 5.17348 -0.238995 0
M  V30 7197 H 662.513 3.72071 1.89391 0
M  V30 7198 H 663.903 6.66129 -0.878762 0
M  V30 7199 N 666.623 0.143563 1.56945 0
M  V30 7200 C 667.87 -0.508407 1.96014 0
M  V30 7201 C 668.198 -1.65099 1.02824 0
M  V30 7202 O 667.453 -1.95618 0.0567764 0
M  V30 7203 C 667.752 -1.05885 3.41355 0
M  V30 7204 C 667.418 -0.0350809 4.50886 0
M  V30 7205 C 666.08 0.246362 4.80569 0
M  V30 7206 C 668.432 0.661282 5.16988 0
M  V30 7207 C 665.76 1.23003 5.73661 0
M  V30 7208 C 668.112 1.63375 6.11139 0
M  V30 7209 C 666.776 1.92292 6.39203 0
M  V30 7210 H 666.046 -0.186039 0.717266 0
M  V30 7211 H 668.693 0.229667 1.90118 0
M  V30 7212 H 666.998 -1.87419 3.44066 0
M  V30 7213 H 668.695 -1.57183 3.6891 0
M  V30 7214 H 665.285 -0.264622 4.27782 0
M  V30 7215 H 669.469 0.457038 4.94191 0
M  V30 7216 H 664.725 1.46056 5.93698 0
M  V30 7217 H 668.899 2.17887 6.61436 0
M  V30 7218 H 666.526 2.68666 7.11142 0
M  V30 7219 N 668.101 -1.57061 -0.130224 0
M  V30 7220 C 669.517 -1.52103 -0.483413 0
M  V30 7221 C 669.717 -0.854752 -1.82473 0
M  V30 7222 O 668.773 -0.432342 -2.48771 0
M  V30 7223 C 670.086 -2.96872 -0.47825 0
M  V30 7224 C 671.634 -3.07902 -0.562592 0
M  V30 7225 C 672.109 -4.54211 -0.587929 0
M  V30 7226 N 673.6 -4.58621 -0.649684 0
M  V30 7227 C 674.335 -5.69227 -0.690551 0
M  V30 7228 N 673.831 -6.89358 -0.689743 0
M  V30 7229 N 675.624 -5.57304 -0.732708 0
M  V30 7230 H 667.775 -1.98764 0.748779 0
M  V30 7231 H 670.038 -0.907248 0.274965 0
M  V30 7232 H 669.744 -3.48944 0.439444 0
M  V30 7233 H 669.618 -3.53716 -1.31013 0
M  V30 7234 H 672.005 -2.5584 -1.47071 0
M  V30 7235 H 672.086 -2.54073 0.296764 0
M  V30 7236 H 671.73 -5.06915 0.316096 0
M  V30 7237 H 671.66 -5.0584 -1.46401 0
M  V30 7238 H 674.151 -3.72146 -0.656927 0
M  V30 7239 H 674.464 -7.69408 -0.723239 0
M  V30 7240 H 672.809 -6.91884 -0.657347 0
M  V30 7241 H 676 -4.62363 -0.730625 0
M  V30 7242 H 676.173 -6.43515 -0.76109 0
M  V30 7243 N 669.579 0.400081 -1.52437 0
M  V30 7244 C 670.526 1.48803 -1.76426 0
M  V30 7245 C 671.496 1.5461 -0.607032 0
M  V30 7246 O 672.681 1.71041 -0.845563 0
M  V30 7247 C 669.821 2.86156 -1.92896 0
M  V30 7248 C 668.934 2.89587 -3.20567 0
M  V30 7249 C 668.069 4.18296 -3.27417 0
M  V30 7250 C 667.108 4.15736 -4.49255 0
M  V30 7251 N 666.245 5.36032 -4.53447 0
M  V30 7252 H 671.085 1.27649 -2.69276 0
M  V30 7253 H 668.622 0.619451 -1.33421 0
M  V30 7254 H 670.58 3.65901 -2.00429 0
M  V30 7255 H 669.21 3.05785 -1.03418 0
M  V30 7256 H 668.262 2.02278 -3.22161 0
M  V30 7257 H 669.574 2.83562 -4.10358 0
M  V30 7258 H 668.728 5.06439 -3.34072 0
M  V30 7259 H 667.467 4.27028 -2.35581 0
M  V30 7260 H 666.472 3.25982 -4.42737 0
M  V30 7261 H 667.697 4.08636 -5.42396 0
M  V30 7262 H 665.643 5.45415 -3.64498 0
M  V30 7263 H 665.56 5.32038 -5.37096 0
M  V30 7264 H 666.828 6.26104 -4.64343 0
M  V30 7265 N 671.057 1.43213 0.657864 0
M  V30 7266 C 672.285 1.48015 1.44566 0
M  V30 7267 C 672.7 0.0965951 1.88553 0
M  V30 7268 O 672.057 -0.892221 1.59203 0
M  V30 7269 C 672.108 2.42199 2.68369 0
M  V30 7270 O 671.829 3.75173 2.26223 0
M  V30 7271 C 673.33 2.56195 3.61772 0
M  V30 7272 H 670.55 0.502861 0.444266 0
M  V30 7273 H 673.094 1.87907 0.806917 0
M  V30 7274 H 671.249 2.05514 3.28394 0
M  V30 7275 H 671.663 4.25776 3.06293 0
M  V30 7276 H 673.137 3.26182 4.4532 0
M  V30 7277 H 673.614 1.60534 4.0881 0
M  V30 7278 H 674.22 2.93671 3.07632 0
M  V30 7279 N 672.536 -0.895792 1.29666 0
M  V30 7280 C 673.764 -1.68001 1.20761 0
M  V30 7281 C 674.179 -1.87379 -0.231187 0
M  V30 7282 O 673.536 -1.41359 -1.15429 0
M  V30 7283 C 673.587 -3.06236 1.92098 0
M  V30 7284 O 673.308 -2.8774 3.30359 0
M  V30 7285 C 674.809 -4.00652 1.89717 0
M  V30 7286 H 672.029 -0.524591 0.418384 0
M  V30 7287 H 674.573 -1.11995 1.71106 0
M  V30 7288 H 672.728 -3.59007 1.45578 0
M  V30 7289 H 673.142 -3.75359 3.66342 0
M  V30 7290 H 674.616 -4.95051 2.44189 0
M  V30 7291 H 675.093 -4.30424 0.873595 0
M  V30 7292 H 675.699 -3.53815 2.35998 0
M  V30 7293 N 674.014 -1.12206 -1.10668 0
M  V30 7294 C 675.291 -0.787382 -1.79052 0
M  V30 7295 C 675.671 0.723267 -1.98323 0
M  V30 7296 O 675.019 1.6561 -1.57434 0
M  V30 7297 C 675.229 -1.55968 -3.1221 0
M  V30 7298 C 676.577 -1.74413 -3.87125 0
M  V30 7299 O 677.601 -1.5246 -3.21923 0
M  V30 7300 O 676.46 -2.10952 -5.04144 0
M  V30 7301 H 673.554 -0.286137 -0.775922 0
M  V30 7302 H 676.1 -1.22595 -1.1734 0
M  V30 7303 H 674.872 -2.58692 -2.93588 0
M  V30 7304 H 674.495 -1.1152 -3.8164 0
M  V30 7305 N 675.492 1.28418 -0.913599 0
M  V30 7306 C 676.44 2.29272 -0.392037 0
M  V30 7307 C 677.434 1.61344 0.516198 0
M  V30 7308 O 678.64 1.75557 0.39746 0
M  V30 7309 H 675.015 0.744178 -0.108178 0
M  V30 7310 H 676.986 2.70691 -1.25574 0
M  V30 7311 C 675.735 3.45905 0.352815 0
M  V30 7312 H 675.058 3.98378 -0.336848 0
M  V30 7313 H 676.498 4.18473 0.682398 0
M  V30 7314 C 674.957 2.98572 1.56065 0
M  V30 7315 O 675.487 3.01033 2.65974 0
M  V30 7316 N 673.693 2.54235 1.40759 0
M  V30 7317 H 673.24 2.52432 0.513403 0
M  V30 7318 H 673.198 2.22925 2.21702 0
M  V30 7319 N 676.97 0.677563 1.42291 0
M  V30 7320 C 678.381 0.277912 1.8462 0
M  V30 7321 C 678.732 -1.18048 1.56714 0
M  V30 7322 O 677.857 -1.90404 1.02836 0
M  V30 7323 C 678.452 0.497619 3.35126 0
M  V30 7324 C 677.011 0.152063 3.76093 0
M  V30 7325 C 676.158 0.78872 2.65847 0
M  V30 7326 H 679.109 0.879527 1.32098 0
M  V30 7327 H 679.13 -0.24939 3.79682 0
M  V30 7328 H 678.642 1.55913 3.55405 0
M  V30 7329 H 676.743 -0.905896 3.6142 0
M  V30 7330 H 676.856 0.594514 4.75397 0
M  V30 7331 H 675.22 0.219813 2.5375 0
M  V30 7332 H 676.003 1.85374 2.88949 0
M  V30 7333 N 678.448 -1.51871 0.421078 0
M  V30 7334 C 679.695 -2.01938 -0.15079 0
M  V30 7335 C 680.023 -1.30611 -1.44121 0
M  V30 7336 O 679.278 -0.404631 -1.91471 0
M  V30 7337 C 679.577 -3.54764 -0.433292 0
M  V30 7338 C 679.243 -4.44288 0.76936 0
M  V30 7339 C 677.905 -4.68477 1.09921 0
M  V30 7340 C 680.257 -4.96915 1.57242 0
M  V30 7341 C 677.585 -5.4254 2.2331 0
M  V30 7342 C 679.937 -5.7222 2.69716 0
M  V30 7343 C 678.601 -5.94678 3.03174 0
M  V30 7344 H 677.871 -0.738943 -0.0551781 0
M  V30 7345 H 680.518 -1.82977 0.564945 0
M  V30 7346 H 678.823 -3.71968 -1.23074 0
M  V30 7347 H 680.52 -3.91023 -0.888922 0
M  V30 7348 H 677.11 -4.25646 0.502305 0
M  V30 7349 H 681.294 -4.78125 1.3308 0
M  V30 7350 H 676.55 -5.58146 2.49565 0
M  V30 7351 H 680.724 -6.11992 3.32323 0
M  V30 7352 H 678.351 -6.51848 3.9115 0
M  V30 7353 N 679.926 -0.151884 -1.56866 0
M  V30 7354 C 680.873 0.785936 -2.17006 0
M  V30 7355 C 681.843 1.2407 -1.10435 0
M  V30 7356 O 683.028 1.31235 -1.38499 0
M  V30 7357 C 680.168 2.01771 -2.79969 0
M  V30 7358 C 679.281 1.6083 -4.00946 0
M  V30 7359 C 678.416 2.79224 -4.51893 0
M  V30 7360 C 677.455 2.3468 -5.65324 0
M  V30 7361 N 676.592 3.461 -6.10867 0
M  V30 7362 H 681.432 0.266286 -2.96808 0
M  V30 7363 H 678.969 0.11972 -1.46612 0
M  V30 7364 H 680.927 2.73989 -3.14621 0
M  V30 7365 H 679.557 2.51139 -2.02803 0
M  V30 7366 H 678.609 0.783592 -3.72242 0
M  V30 7367 H 679.921 1.24119 -4.83111 0
M  V30 7368 H 679.075 3.59625 -4.88625 0
M  V30 7369 H 677.814 3.19183 -3.68746 0
M  V30 7370 H 676.819 1.52721 -5.28163 0
M  V30 7371 H 678.044 1.95801 -6.5026 0
M  V30 7372 H 675.99 3.85671 -5.30654 0
M  V30 7373 H 675.907 3.1342 -6.87971 0
M  V30 7374 H 677.175 4.26844 -6.52246 0
M  V30 7375 N 681.404 1.57128 0.121893 0
M  V30 7376 C 682.367 1.99197 1.13372 0
M  V30 7377 C 683.367 0.881728 1.3447 0
M  V30 7378 O 684.557 1.14783 1.31036 0
M  V30 7379 C 681.689 2.32963 2.4888 0
M  V30 7380 H 682.882 2.89788 0.772204 0
M  V30 7381 H 680.435 1.51952 0.366093 0
M  V30 7382 H 681.17 1.45243 2.89957 0
M  V30 7383 H 680.955 3.13934 2.34921 0
M  V30 7384 H 682.445 2.66261 3.21706 0
M  V30 7385 N 682.882 -0.391992 1.52647 0
M  V30 7386 C 683.812 -1.48517 1.8018 0
M  V30 7387 C 684.793 -1.57039 0.653667 0
M  V30 7388 O 685.978 -1.72036 0.900962 0
M  V30 7389 C 683.108 -2.86161 1.96797 0
M  V30 7390 C 682.062 -2.92481 3.12472 0
M  V30 7391 C 681.388 -4.32546 3.14338 0
M  V30 7392 C 682.688 -2.624 4.51601 0
M  V30 7393 H 684.382 -1.25726 2.71723 0
M  V30 7394 H 681.928 -0.603387 1.30749 0
M  V30 7395 H 683.881 -3.62639 2.14641 0
M  V30 7396 H 682.605 -3.10283 1.01941 0
M  V30 7397 H 681.264 -2.18451 2.94406 0
M  V30 7398 H 680.912 -4.53703 2.1717 0
M  V30 7399 H 680.612 -4.37695 3.92042 0
M  V30 7400 H 682.136 -5.10934 3.34333 0
M  V30 7401 H 683.55 -3.28596 4.69785 0
M  V30 7402 H 681.947 -2.78903 5.3135 0
M  V30 7403 H 683.017 -1.57754 4.58521 0
M  V30 7404 N 684.36 -1.4356 -0.65026 0
M  V30 7405 C 685.608 -1.45046 -1.40734 0
M  V30 7406 C 685.929 -0.0769822 -1.94848 0
M  V30 7407 O 685.199 0.888098 -1.74613 0
M  V30 7408 H 683.779 -0.534034 -0.522318 0
M  V30 7409 H 686.441 -1.79186 -0.766703 0
M  V30 7410 H 685.537 -2.16476 -2.24822 0
M  V30 7411 N 685.838 0.888903 -1.30139 0
M  V30 7412 C 687.086 1.63713 -1.18501 0
M  V30 7413 C 687.407 1.9324 0.261399 0
M  V30 7414 O 686.677 1.56608 1.17689 0
M  V30 7415 H 685.257 0.606861 -0.435579 0
M  V30 7416 H 687.919 1.06525 -1.63213 0
M  V30 7417 H 687.015 2.58894 -1.743 0
M  V30 7418 N 687.317 1.12792 1.10072 0
M  V30 7419 C 688.265 0.794523 2.18609 0
M  V30 7420 C 689.259 -0.220271 1.67962 0
M  V30 7421 O 690.465 -0.0780938 1.79831 0
M  V30 7422 H 686.84 0.239123 0.712969 0
M  V30 7423 H 688.811 1.71823 2.43966 0
M  V30 7424 C 687.56 0.269548 3.46654 0
M  V30 7425 H 686.883 1.04171 3.8599 0
M  V30 7426 H 688.323 0.0746242 4.23934 0
M  V30 7427 C 686.782 -1.00333 3.21613 0
M  V30 7428 O 687.312 -2.08042 3.4363 0
M  V30 7429 N 685.518 -0.931763 2.75257 0
M  V30 7430 H 685.065 -0.0551197 2.57541 0
M  V30 7431 H 685.023 -1.78405 2.58881 0
M  V30 7432 N 688.795 -1.27931 0.920396 0
M  V30 7433 C 689.725 -2.29487 0.431024 0
M  V30 7434 C 690.706 -1.62435 -0.504861 0
M  V30 7435 O 691.891 -1.89797 -0.411176 0
M  V30 7436 C 689.021 -3.45788 -0.323709 0
M  V30 7437 C 687.975 -4.24784 0.523658 0
M  V30 7438 C 687.301 -5.33488 -0.359809 0
M  V30 7439 C 688.601 -4.90874 1.78437 0
M  V30 7440 H 690.295 -2.70671 1.27975 0
M  V30 7441 H 687.841 -1.30121 0.616813 0
M  V30 7442 H 689.794 -4.15927 -0.676952 0
M  V30 7443 H 688.518 -3.03502 -1.2064 0
M  V30 7444 H 687.177 -3.56382 0.85951 0
M  V30 7445 H 686.825 -4.87445 -1.24124 0
M  V30 7446 H 686.525 -5.87247 0.203605 0
M  V30 7447 H 688.049 -6.06472 -0.708787 0
M  V30 7448 H 689.463 -5.53339 1.49963 0
M  V30 7449 H 687.86 -5.54659 2.29071 0
M  V30 7450 H 688.93 -4.14988 2.50824 0
M  V30 7451 N 690.273 -0.685099 -1.4193 0
M  V30 7452 C 691.519 -0.211971 -2.01689 0
M  V30 7453 C 691.852 1.18189 -1.54094 0
M  V30 7454 O 691.127 1.79559 -0.747572 0
M  V30 7455 C 691.41 -0.258019 -3.59174 0
M  V30 7456 C 691.263 -1.68807 -4.16922 0
M  V30 7457 C 692.582 0.388044 -4.38386 0
M  V30 7458 H 689.701 -0.0784987 -0.732808 0
M  V30 7459 H 692.343 -0.871837 -1.68816 0
M  V30 7460 H 690.493 0.303832 -3.8731 0
M  V30 7461 H 692.165 -2.30296 -3.99702 0
M  V30 7462 H 690.408 -2.22553 -3.72361 0
M  V30 7463 H 691.079 -1.6719 -5.26072 0
M  V30 7464 H 693.555 -0.0903432 -4.16002 0
M  V30 7465 H 692.431 0.325232 -5.47936 0
M  V30 7466 H 692.692 1.4672 -4.17044 0
M  V30 7467 N 691.751 1.51645 -0.429126 0
M  V30 7468 C 693.028 1.94579 0.199614 0
M  V30 7469 C 693.408 1.3673 1.60836 0
M  V30 7470 O 692.756 0.551062 2.21756 0
M  V30 7471 C 692.966 3.48506 0.185685 0
M  V30 7472 C 694.314 4.22756 0.395282 0
M  V30 7473 O 695.338 3.55219 0.264165 0
M  V30 7474 O 694.197 5.42555 0.655475 0
M  V30 7475 H 691.291 0.816007 0.134393 0
M  V30 7476 H 693.837 1.62577 -0.486513 0
M  V30 7477 H 692.609 3.83045 -0.799508 0
M  V30 7478 H 692.232 3.86927 0.91507 0
M  V30 7479 N 693.229 0.160201 1.56784 0
M  V30 7480 C 694.162 -0.812797 2.13234 0
M  V30 7481 C 695.14 -1.2335 1.05942 0
M  V30 7482 O 696.324 -1.32725 1.33852 0
M  V30 7483 C 693.451 -2.09311 2.66283 0
M  V30 7484 C 692.497 -1.8173 3.85845 0
M  V30 7485 S 693.33 -0.996473 5.26147 0
M  V30 7486 C 694.486 -2.28769 5.82594 0
M  V30 7487 H 694.719 -0.332794 2.95432 0
M  V30 7488 H 692.252 -0.0542971 1.54304 0
M  V30 7489 H 694.21 -2.82854 2.97496 0
M  V30 7490 H 692.871 -2.54425 1.84192 0
M  V30 7491 H 692.064 -2.76699 4.21253 0
M  V30 7492 H 691.666 -1.16289 3.55462 0
M  V30 7493 H 693.958 -3.24319 5.9483 0
M  V30 7494 H 694.901 -1.97846 6.79899 0
M  V30 7495 H 695.309 -2.40021 5.10931 0
M  V30 7496 N 694.707 -1.5719 -0.113559 0
M  V30 7497 C 695.955 -1.84772 -0.818761 0
M  V30 7498 C 696.276 -0.746196 -1.80158 0
M  V30 7499 O 695.546 0.229305 -1.94553 0
M  V30 7500 H 694.126 -0.681737 -0.305359 0
M  V30 7501 H 696.788 -1.94645 -0.0995845 0
M  V30 7502 H 695.884 -2.80878 -1.36067 0
M  V30 7503 N 696.185 0.383891 -1.52853 0
M  V30 7504 C 697.601 0.724316 -1.42218 0
M  V30 7505 C 697.801 1.93943 -0.546654 0
M  V30 7506 O 696.857 2.5249 -0.0220562 0
M  V30 7507 C 698.17 0.954635 -2.85144 0
M  V30 7508 C 699.718 1.05579 -2.94656 0
M  V30 7509 C 700.193 1.3187 -4.38605 0
M  V30 7510 N 701.684 1.38681 -4.41952 0
M  V30 7511 C 702.419 1.60699 -5.50421 0
M  V30 7512 N 701.915 1.80154 -6.68967 0
M  V30 7513 N 703.708 1.6292 -5.37972 0
M  V30 7514 H 695.859 -0.4156 -2.08294 0
M  V30 7515 H 698.122 -0.123776 -0.939885 0
M  V30 7516 H 697.828 0.133829 -3.51445 0
M  V30 7517 H 697.702 1.86788 -3.27704 0
M  V30 7518 H 700.089 1.86716 -2.2852 0
M  V30 7519 H 700.17 0.120338 -2.55517 0
M  V30 7520 H 699.814 0.512416 -5.05309 0
M  V30 7521 H 699.744 2.26708 -4.75301 0
M  V30 7522 H 702.235 1.25334 -3.56511 0
M  V30 7523 H 702.548 1.96476 -7.47407 0
M  V30 7524 H 700.893 1.77368 -6.71986 0
M  V30 7525 H 704.084 1.47276 -4.44328 0
M  V30 7526 H 704.257 1.79739 -6.22574 0
M  V30 7527 N 697.663 1.43903 0.642637 0
M  V30 7528 C 698.909 1.46296 1.40447 0
M  V30 7529 C 699.242 0.0908361 1.93987 0
M  V30 7530 O 698.517 -0.889884 1.72949 0
M  V30 7531 C 698.8 2.51399 2.57819 0
M  V30 7532 C 698.653 3.97926 2.09702 0
M  V30 7533 C 699.972 2.53125 3.60022 0
M  V30 7534 H 697.091 0.532676 0.509338 0
M  V30 7535 H 699.733 1.75515 0.727635 0
M  V30 7536 H 697.883 2.26614 3.1556 0
M  V30 7537 H 699.555 4.33804 1.5688 0
M  V30 7538 H 697.798 4.10252 1.40982 0
M  V30 7539 H 698.469 4.67096 2.94152 0
M  V30 7540 H 700.945 2.75242 3.12059 0
M  V30 7541 H 699.821 3.28589 4.39682 0
M  V30 7542 H 700.082 1.56895 4.13324 0
M  V30 7543 N 699.141 -0.881989 1.30609 0
M  V30 7544 C 700.088 -1.98803 1.17244 0
M  V30 7545 C 701.058 -1.65987 0.0611905 0
M  V30 7546 O 702.243 -1.89385 0.231911 0
M  V30 7547 C 699.383 -3.33867 0.87333 0
M  V30 7548 C 698.496 -3.79354 2.06675 0
M  V30 7549 C 697.631 -5.03078 1.70547 0
M  V30 7550 C 696.67 -5.40981 2.86366 0
M  V30 7551 N 695.807 -6.55886 2.50514 0
M  V30 7552 H 700.647 -2.09566 2.11863 0
M  V30 7553 H 698.184 -1.02607 1.05405 0
M  V30 7554 H 700.142 -4.11612 0.680519 0
M  V30 7555 H 698.772 -3.2278 -0.0359983 0
M  V30 7556 H 697.824 -2.97492 2.37071 0
M  V30 7557 H 699.136 -4.03382 2.93401 0
M  V30 7558 H 698.29 -5.88457 1.47658 0
M  V30 7559 H 697.029 -4.80927 0.809947 0
M  V30 7560 H 696.034 -4.54127 3.09917 0
M  V30 7561 H 697.259 -5.65104 3.76609 0
M  V30 7562 H 695.205 -6.35306 1.63471 0
M  V30 7563 H 695.122 -6.79799 3.30771 0
M  V30 7564 H 696.39 -7.44489 2.30989 0
M  V30 7565 N 700.619 -1.13374 -1.09472 0
M  V30 7566 C 701.865 -0.896516 -1.81908 0
M  V30 7567 C 702.198 0.575933 -1.85463 0
M  V30 7568 O 701.473 1.42618 -1.32251 0
M  V30 7569 C 701.756 -1.48445 -3.28079 0
M  V30 7570 C 701.609 -3.02598 -3.32798 0
M  V30 7571 C 702.928 -1.15226 -4.24748 0
M  V30 7572 H 700.047 -0.327127 -0.660422 0
M  V30 7573 H 702.689 -1.40195 -1.2824 0
M  V30 7574 H 700.839 -1.0546 -3.73912 0
M  V30 7575 H 702.511 -3.54335 -2.95372 0
M  V30 7576 H 700.754 -3.37613 -2.72397 0
M  V30 7577 H 701.425 -3.38835 -4.3577 0
M  V30 7578 H 703.901 -1.52369 -3.87199 0
M  V30 7579 H 702.777 -1.59012 -5.25363 0
M  V30 7580 H 703.038 -0.0658891 -4.42051 0
M  V30 7581 N 702.098 1.27442 -0.927168 0
M  V30 7582 C 703.347 1.93679 -0.563146 0
M  V30 7583 C 703.66 1.73673 0.899837 0
M  V30 7584 O 704.866 2.34247 1.37262 0
M  V30 7585 C 703.322 3.46961 -0.95636 0
M  V30 7586 C 702.93 3.75724 -2.43999 0
M  V30 7587 C 704.674 4.19282 -0.663565 0
M  V30 7588 C 702.581 5.22378 -2.77263 0
M  V30 7589 H 701.511 0.725059 -0.206894 0
M  V30 7590 H 704.162 1.44743 -1.12791 0
M  V30 7591 H 702.544 3.94703 -0.320254 0
M  V30 7592 H 703.718 3.38741 -3.12396 0
M  V30 7593 H 702.033 3.16605 -2.70463 0
M  V30 7594 H 704.63 5.27265 -0.888596 0
M  V30 7595 H 704.973 4.14382 0.399198 0
M  V30 7596 H 705.506 3.7736 -1.25875 0
M  V30 7597 H 702.245 5.32367 -3.82446 0
M  V30 7598 H 701.765 5.6051 -2.13516 0
M  V30 7599 H 703.444 5.9025 -2.64979 0
M  V30 7600 N 703.576 0.692616 1.41565 0
M  V30 7601 C 704.539 0.0344174 2.29174 0
M  V30 7602 C 705.539 -0.710961 1.44229 0
M  V30 7603 O 706.729 -0.546293 1.65412 0
M  V30 7604 C 703.861 -0.961682 3.27054 0
M  V30 7605 H 705.054 0.805755 2.88873 0
M  V30 7606 H 702.607 0.455947 1.49502 0
M  V30 7607 H 703.342 -1.76089 2.72329 0
M  V30 7608 H 703.127 -0.430375 3.89731 0
M  V30 7609 H 704.617 -1.4201 3.92712 0
M  V30 7610 N 705.054 -1.51416 0.437162 0
M  V30 7611 C 706.302 -2.01687 -0.129108 0
M  V30 7612 C 706.623 -1.32329 -1.43227 0
M  V30 7613 O 705.893 -0.457796 -1.90476 0
M  V30 7614 H 704.473 -0.745277 -0.0507023 0
M  V30 7615 H 707.135 -1.86075 0.579828 0
M  V30 7616 H 706.231 -3.10605 -0.305141 0
M  V30 7617 N 706.532 -0.168513 -1.56696 0
M  V30 7618 C 707.462 0.758563 -2.20835 0
M  V30 7619 C 708.443 1.24121 -1.1631 0
M  V30 7620 O 709.628 1.29487 -1.4473 0
M  V30 7621 C 706.758 1.9892 -2.8469 0
M  V30 7622 C 705.712 1.64252 -3.95228 0
M  V30 7623 C 705.038 2.94757 -4.46119 0
M  V30 7624 C 706.338 0.872675 -5.14958 0
M  V30 7625 H 708.032 0.223953 -2.98561 0
M  V30 7626 H 705.578 0.106277 -1.43607 0
M  V30 7627 H 707.531 2.64275 -3.28233 0
M  V30 7628 H 706.255 2.5479 -2.04327 0
M  V30 7629 H 704.914 1.01266 -3.52336 0
M  V30 7630 H 704.562 3.48662 -3.62552 0
M  V30 7631 H 704.262 2.72316 -5.2069 0
M  V30 7632 H 705.786 3.61147 -4.92347 0
M  V30 7633 H 707.2 1.42875 -5.55211 0
M  V30 7634 H 705.597 0.747402 -5.95428 0
M  V30 7635 H 706.667 -0.131535 -4.84722 0
M  V30 7636 N 708.01 1.57248 0.105221 0
M  V30 7637 C 708.94 2.04374 1.12931 0
M  V30 7638 C 709.921 0.93074 1.42377 0
M  V30 7639 O 711.106 1.20136 1.52581 0
M  V30 7640 C 708.236 2.45967 2.45189 0
M  V30 7641 C 707.19 3.60838 2.30174 0
M  V30 7642 C 706.516 3.88374 3.67518 0
M  V30 7643 C 707.816 4.92084 1.75073 0
M  V30 7644 H 709.51 2.9018 0.737287 0
M  V30 7645 H 707.056 1.39601 0.353211 0
M  V30 7646 H 709.009 2.77542 3.17094 0
M  V30 7647 H 707.733 1.57148 2.86308 0
M  V30 7648 H 706.392 3.29493 1.60716 0
M  V30 7649 H 706.04 2.96739 4.06147 0
M  V30 7650 H 705.74 4.65703 3.58321 0
M  V30 7651 H 707.264 4.22415 4.40906 0
M  V30 7652 H 708.678 5.22106 2.36809 0
M  V30 7653 H 707.075 5.73507 1.76662 0
M  V30 7654 H 708.145 4.79684 0.709347 0
M  V30 7655 N 709.488 -0.375779 1.53054 0
M  V30 7656 C 710.904 -0.716764 1.426 0
M  V30 7657 C 711.104 -1.93651 0.556931 0
M  V30 7658 O 710.16 -2.52475 0.0354461 0
M  V30 7659 C 711.473 -0.939499 2.85646 0
M  V30 7660 C 713.021 -1.04015 2.95212 0
M  V30 7661 C 713.496 -1.29543 4.39298 0
M  V30 7662 N 714.987 -1.36335 4.42682 0
M  V30 7663 C 715.722 -1.57778 5.51266 0
M  V30 7664 N 715.218 -1.76604 6.69913 0
M  V30 7665 N 717.011 -1.60065 5.38828 0
M  V30 7666 H 709.162 0.42664 2.08071 0
M  V30 7667 H 711.425 0.128758 0.939215 0
M  V30 7668 H 711.131 -0.115189 3.51511 0
M  V30 7669 H 711.005 -1.85048 3.2869 0
M  V30 7670 H 713.392 -1.85501 2.29507 0
M  V30 7671 H 713.473 -0.106785 2.55577 0
M  V30 7672 H 713.117 -0.485611 5.05573 0
M  V30 7673 H 713.047 -2.24184 4.76497 0
M  V30 7674 H 715.538 -1.23441 3.5717 0
M  V30 7675 H 715.851 -1.9251 7.48438 0
M  V30 7676 H 714.196 -1.73802 6.72917 0
M  V30 7677 H 717.387 -1.44917 4.45103 0
M  V30 7678 H 717.56 -1.76435 6.23518 0
M  V30 7679 N 710.966 -1.44241 -0.634997 0
M  V30 7680 C 711.913 -1.5081 -1.74714 0
M  V30 7681 C 712.883 -0.356147 -1.62237 0
M  V30 7682 O 714.068 -0.565848 -1.82216 0
M  V30 7683 C 711.208 -1.45458 -3.12947 0
M  V30 7684 C 710.321 -2.70998 -3.36428 0
M  V30 7685 C 709.456 -2.57507 -4.64611 0
M  V30 7686 C 708.495 -3.78229 -4.81258 0
M  V30 7687 N 707.632 -3.63438 -6.00714 0
M  V30 7688 H 712.472 -2.45832 -1.68436 0
M  V30 7689 H 710.009 -1.2201 -0.821706 0
M  V30 7690 H 711.967 -1.40347 -3.92885 0
M  V30 7691 H 710.597 -0.540058 -3.1825 0
M  V30 7692 H 709.649 -2.86312 -2.50458 0
M  V30 7693 H 710.961 -3.60619 -3.44609 0
M  V30 7694 H 710.115 -2.50207 -5.52703 0
M  V30 7695 H 708.854 -1.65441 -4.58782 0
M  V30 7696 H 707.859 -3.85918 -3.91596 0
M  V30 7697 H 709.084 -4.71327 -4.88904 0
M  V30 7698 H 707.03 -2.7412 -5.95982 0
M  V30 7699 H 706.947 -4.46672 -6.09934 0
M  V30 7700 H 708.215 -3.60022 -6.91378 0
M  V30 7701 N 712.444 0.87505 -1.31075 0
M  V30 7702 C 713.721 1.60976 -1.11113 0
M  V30 7703 C 714.101 2.08409 0.336006 0
M  V30 7704 O 713.449 1.85858 1.32924 0
M  V30 7705 C 713.659 2.77166 -2.12085 0
M  V30 7706 C 715.007 3.47254 -2.44335 0
M  V30 7707 O 716.031 2.87367 -2.10472 0
M  V30 7708 O 714.89 4.55276 -3.02301 0
M  V30 7709 H 711.984 0.707982 -0.427424 0
M  V30 7710 H 714.53 0.920957 -1.42536 0
M  V30 7711 H 713.302 2.39494 -3.09449 0
M  V30 7712 H 712.925 3.53737 -1.81538 0
M  V30 7713 N 713.922 1.13953 1.08869 0
M  V30 7714 C 715.199 0.815768 1.77777 0
M  V30 7715 C 715.579 -0.691624 1.99449 0
M  V30 7716 O 714.927 -1.63085 1.60049 0
M  V30 7717 C 715.137 1.60916 3.09689 0
M  V30 7718 C 716.485 1.80549 3.84301 0
M  V30 7719 O 717.509 1.57562 3.19457 0
M  V30 7720 O 716.368 2.18946 5.00724 0
M  V30 7721 H 713.462 0.298445 0.771271 0
M  V30 7722 H 716.008 1.24446 1.15374 0
M  V30 7723 H 714.78 2.6333 2.89435 0
M  V30 7724 H 714.403 1.17578 3.79817 0
M  V30 7725 N 715.4 -1.26948 0.933913 0
M  V30 7726 C 716.332 -2.25768 0.395137 0
M  V30 7727 C 717.345 -1.55637 -0.477585 0
M  V30 7728 O 718.534 -1.76142 -0.289204 0
M  V30 7729 C 715.634 -3.35874 -0.451882 0
M  V30 7730 C 714.807 -4.3554 0.40299 0
M  V30 7731 C 713.866 -5.24809 -0.3824 0
M  V30 7732 O 712.892 -5.68805 0.212057 0
M  V30 7733 N 714.094 -5.55636 -1.68072 0
M  V30 7734 H 716.859 -2.72634 1.24463 0
M  V30 7735 H 714.42 -1.40639 0.802008 0
M  V30 7736 H 716.412 -3.92542 -0.984516 0
M  V30 7737 H 714.982 -2.8856 -1.20215 0
M  V30 7738 H 714.202 -3.78047 1.11688 0
M  V30 7739 H 715.49 -4.99131 0.987201 0
M  V30 7740 H 714.888 -5.2176 -2.18592 0
M  V30 7741 H 713.445 -6.14978 -2.15975 0
M  V30 7742 N 716.879 -0.700114 -1.41195 0
M  V30 7743 C 717.789 -0.0382854 -2.34569 0
M  V30 7744 C 718.805 0.761036 -1.56474 0
M  V30 7745 O 719.981 0.697553 -1.88934 0
M  V30 7746 C 717.046 0.883522 -3.35253 0
M  V30 7747 C 716.107 0.0758957 -4.29233 0
M  V30 7748 C 715.34 0.9538 -5.25108 0
M  V30 7749 O 715.563 2.19326 -5.26547 0
M  V30 7750 O 714.497 0.401049 -6.00562 0
M  V30 7751 H 718.323 -0.808073 -2.92752 0
M  V30 7752 H 715.908 -0.460479 -1.42127 0
M  V30 7753 H 717.79 1.41199 -3.9704 0
M  V30 7754 H 716.465 1.63272 -2.79506 0
M  V30 7755 H 715.372 -0.497274 -3.7078 0
M  V30 7756 H 716.705 -0.634741 -4.8809 0
M  V30 7757 N 718.357 1.51182 -0.445186 0
M  V30 7758 C 719.606 2.01342 0.120189 0
M  V30 7759 C 719.919 1.33353 1.43095 0
M  V30 7760 O 721.125 1.74525 2.07974 0
M  V30 7761 C 719.581 3.58925 0.264732 0
M  V30 7762 C 719.189 4.35855 -1.03606 0
M  V30 7763 C 720.933 4.17208 0.783455 0
M  V30 7764 C 718.84 5.85162 -0.856731 0
M  V30 7765 H 717.77 0.752426 0.0486922 0
M  V30 7766 H 720.421 1.74221 -0.576143 0
M  V30 7767 H 718.803 3.82525 1.02425 0
M  V30 7768 H 719.977 4.23997 -1.80452 0
M  V30 7769 H 718.292 3.89062 -1.48391 0
M  V30 7770 H 720.889 5.26475 0.934239 0
M  V30 7771 H 721.232 3.76892 1.768 0
M  V30 7772 H 721.765 3.97715 0.0820346 0
M  V30 7773 H 718.504 6.29904 -1.81388 0
M  V30 7774 H 718.024 5.99663 -0.128206 0
M  V30 7775 H 719.703 6.44963 -0.513027 0
M  V30 7776 N 719.835 0.176821 1.56605 0
M  V30 7777 C 721.06 -0.47599 2.01864 0
M  V30 7778 C 721.485 -1.55645 1.05623 0
M  V30 7779 O 720.843 -1.81263 0.0366729 0
M  V30 7780 C 720.891 -1.02619 3.4569 0
M  V30 7781 O 719.995 -2.13996 3.52533 0
M  V30 7782 H 719.336 -0.113363 0.654251 0
M  V30 7783 H 721.866 0.28233 2.02643 0
M  V30 7784 H 721.876 -1.34742 3.85109 0
M  V30 7785 H 720.551 -0.235138 4.15235 0
M  V30 7786 H 719.128 -1.82876 3.24978 0
M  V30 7787 N 721.313 -1.57302 -0.09688 0
M  V30 7788 C 722.538 -1.9058 -0.818169 0
M  V30 7789 C 722.963 -0.770921 -1.71576 0
M  V30 7790 O 722.321 0.277588 -1.79162 0
M  V30 7791 C 722.369 -3.22714 -1.60898 0
M  V30 7792 O 721.473 -3.10178 -2.71779 0
M  V30 7793 H 720.814 -0.624759 -0.224882 0
M  V30 7794 H 723.344 -2.04471 -0.07264 0
M  V30 7795 H 723.354 -3.55978 -1.99358 0
M  V30 7796 H 722.029 -4.04899 -0.950227 0
M  V30 7797 H 720.606 -2.88424 -2.3636 0
M  V30 7798 N 722.791 0.367657 -1.53252 0
M  V30 7799 C 724.019 1.13119 -1.73239 0
M  V30 7800 C 724.434 1.831 -0.460404 0
M  V30 7801 O 723.791 1.73483 0.566557 0
M  V30 7802 C 723.842 2.16308 -2.89643 0
M  V30 7803 O 723.563 1.49175 -4.1192 0
M  V30 7804 C 725.064 3.05224 -3.21486 0
M  V30 7805 H 722.284 0.338318 -0.579467 0
M  V30 7806 H 724.828 0.42721 -1.99988 0
M  V30 7807 H 722.983 2.82307 -2.65295 0
M  V30 7808 H 723.397 2.17912 -4.7709 0
M  V30 7809 H 724.871 3.73613 -4.06346 0
M  V30 7810 H 725.348 3.69919 -2.36763 0
M  V30 7811 H 725.954 2.44843 -3.47753 0
M  V30 7812 N 724.269 1.44576 0.627338 0
M  V30 7813 C 725.518 1.46837 1.38281 0
M  V30 7814 C 725.831 0.10635 1.95311 0
M  V30 7815 O 727.037 0.00651084 2.71499 0
M  V30 7816 C 725.493 2.58527 2.50384 0
M  V30 7817 C 725.101 4.00953 1.99851 0
M  V30 7818 C 726.845 2.70013 3.27557 0
M  V30 7819 C 724.752 5.0406 3.09318 0
M  V30 7820 H 723.682 0.546319 0.519664 0
M  V30 7821 H 726.333 1.70654 0.674497 0
M  V30 7822 H 724.715 2.27957 3.23808 0
M  V30 7823 H 725.889 4.41108 1.33267 0
M  V30 7824 H 724.204 3.93743 1.35482 0
M  V30 7825 H 726.801 3.44217 4.09168 0
M  V30 7826 H 727.144 1.75961 3.77284 0
M  V30 7827 H 727.677 3.00011 2.61224 0
M  V30 7828 H 724.416 5.99753 2.6453 0
M  V30 7829 H 723.936 4.68493 3.74532 0
M  V30 7830 H 725.615 5.2793 3.74031 0
M  V30 7831 N 725.747 -0.868086 1.31537 0
M  V30 7832 C 727.163 -1.15414 1.10235 0
M  V30 7833 C 727.363 -2.01106 -0.125947 0
M  V30 7834 O 726.419 -2.38994 -0.814734 0
M  V30 7835 C 727.732 -1.84445 2.37488 0
M  V30 7836 C 729.28 -1.97139 2.43116 0
M  V30 7837 C 729.755 -2.69585 3.70254 0
M  V30 7838 N 731.246 -2.77119 3.71159 0
M  V30 7839 C 731.981 -3.33791 4.6623 0
M  V30 7840 N 731.477 -3.9138 5.71659 0
M  V30 7841 N 733.27 -3.31767 4.53747 0
M  V30 7842 H 725.421 -0.297109 2.10312 0
M  V30 7843 H 727.684 -0.194227 0.92789 0
M  V30 7844 H 727.39 -1.2893 3.27215 0
M  V30 7845 H 727.264 -2.84709 2.47428 0
M  V30 7846 H 729.651 -2.51818 1.53856 0
M  V30 7847 H 729.732 -0.95912 2.37138 0
M  V30 7848 H 729.376 -2.15572 4.59881 0
M  V30 7849 H 729.306 -3.71223 3.73499 0
M  V30 7850 H 731.797 -2.3625 2.94948 0
M  V30 7851 H 732.11 -4.3274 6.40278 0
M  V30 7852 H 730.455 -3.8975 5.7543 0
M  V30 7853 H 733.646 -2.86016 3.70557 0
M  V30 7854 H 733.819 -3.75636 5.28017 0
M  V30 7855 N 727.225 -1.14528 -1.08264 0
M  V30 7856 C 728.45 -0.938381 -1.84957 0
M  V30 7857 C 728.875 0.508044 -1.81109 0
M  V30 7858 O 728.233 1.36146 -1.19724 0
M  V30 7859 C 728.281 -1.44568 -3.30352 0
M  V30 7860 O 727.385 -0.638745 -4.07423 0
M  V30 7861 H 726.726 -0.335394 -0.573068 0
M  V30 7862 H 729.256 -1.52287 -1.36637 0
M  V30 7863 H 729.266 -1.45449 -3.81194 0
M  V30 7864 H 727.941 -2.49876 -3.32468 0
M  V30 7865 H 726.518 -0.698801 -3.66294 0
M  V30 7866 N 728.703 1.26451 -0.940633 0
M  V30 7867 C 729.952 1.93071 -0.583656 0
M  V30 7868 C 730.265 1.74618 0.881366 0
M  V30 7869 O 731.471 2.35689 1.34769 0
M  V30 7870 C 729.927 3.45927 -0.993106 0
M  V30 7871 C 729.535 3.73115 -2.4797 0
M  V30 7872 C 731.279 4.18554 -0.707998 0
M  V30 7873 C 729.186 5.19408 -2.82788 0
M  V30 7874 H 728.116 0.722824 -0.214572 0
M  V30 7875 H 730.767 1.43538 -1.1432 0
M  V30 7876 H 729.149 3.94341 -0.362099 0
M  V30 7877 H 730.323 3.35408 -3.15971 0
M  V30 7878 H 728.638 3.13719 -2.73805 0
M  V30 7879 H 731.235 5.26293 -0.94447 0
M  V30 7880 H 731.578 4.14782 0.355225 0
M  V30 7881 H 732.111 3.76003 -1.2987 0
M  V30 7882 H 728.85 5.28281 -3.88071 0
M  V30 7883 H 728.37 5.58214 -2.19449 0
M  V30 7884 H 730.049 5.87407 -2.71224 0
M  V30 7885 N 730.181 0.707592 1.40822 0
M  V30 7886 C 731.091 0.0507246 2.34545 0
M  V30 7887 C 732.107 -0.752727 1.56876 0
M  V30 7888 O 733.283 -0.687524 1.89302 0
M  V30 7889 C 730.348 -0.865731 3.35717 0
M  V30 7890 C 729.409 -0.0531313 4.29267 0
M  V30 7891 C 728.642 -0.925939 5.25606 0
M  V30 7892 O 728.865 -2.16531 5.27703 0
M  V30 7893 O 727.799 -0.369194 6.00767 0
M  V30 7894 H 731.625 0.823587 2.9232 0
M  V30 7895 H 729.21 0.46801 1.4188 0
M  V30 7896 H 731.092 -1.39091 3.97783 0
M  V30 7897 H 729.767 -1.61788 2.80368 0
M  V30 7898 H 728.674 0.516931 3.70511 0
M  V30 7899 H 730.007 0.660617 4.87747 0
M  V30 7900 N 731.66 -1.50943 0.453197 0
M  V30 7901 C 732.592 -2.25922 -0.38623 0
M  V30 7902 C 733.605 -1.3055 -0.972652 0
M  V30 7903 O 734.794 -1.56191 -0.864097 0
M  V30 7904 C 731.894 -3.01176 -1.5539 0
M  V30 7905 C 731.067 -4.23768 -1.0835 0
M  V30 7906 C 730.126 -4.81466 -2.12313 0
M  V30 7907 O 729.152 -5.42875 -1.71101 0
M  V30 7908 N 730.354 -4.66889 -3.44956 0
M  V30 7909 H 733.119 -2.98601 0.256468 0
M  V30 7910 H 730.68 -1.59408 0.282965 0
M  V30 7911 H 732.672 -3.36659 -2.24594 0
M  V30 7912 H 731.242 -2.31409 -2.10163 0
M  V30 7913 H 730.462 -3.93597 -0.217961 0
M  V30 7914 H 731.75 -5.03289 -0.746857 0
M  V30 7915 H 731.148 -4.18011 -3.81161 0
M  V30 7916 H 729.705 -5.06691 -4.1001 0
M  V30 7917 N 733.138 -0.185124 -1.56509 0
M  V30 7918 C 734.384 0.456934 -1.97585 0
M  V30 7919 C 734.717 1.61957 -1.07161 0
M  V30 7920 O 733.992 1.9412 -0.121546 0
M  V30 7921 C 734.275 0.926666 -3.47973 0
M  V30 7922 C 734.128 -0.237097 -4.49175 0
M  V30 7923 C 735.447 1.79561 -4.01803 0
M  V30 7924 H 732.566 0.164619 -0.71838 0
M  V30 7925 H 735.208 -0.274039 -1.88013 0
M  V30 7926 H 733.358 1.54954 -3.56261 0
M  V30 7927 H 735.03 -0.87454 -4.52934 0
M  V30 7928 H 733.273 -0.890446 -4.24563 0
M  V30 7929 H 733.944 0.133924 -5.51838 0
M  V30 7930 H 736.42 1.27039 -3.96232 0
M  V30 7931 H 735.296 2.09327 -5.07418 0
M  V30 7932 H 735.557 2.74629 -3.46455 0
M  V30 7933 N 734.616 1.57351 0.0885366 0
M  V30 7934 C 735.863 1.86419 0.790824 0
M  V30 7935 C 736.191 0.774561 1.78412 0
M  V30 7936 O 735.446 -0.23119 1.9433 0
M  V30 7937 C 735.745 3.22098 1.5488 0
M  V30 7938 C 735.411 4.4548 0.697025 0
M  V30 7939 C 734.073 4.78975 0.462237 0
M  V30 7940 C 736.425 5.21094 0.105315 0
M  V30 7941 C 733.753 5.85507 -0.374016 0
M  V30 7942 C 736.105 6.28509 -0.718298 0
M  V30 7943 C 734.769 6.60515 -0.963116 0
M  V30 7944 H 734.039 0.682157 0.289383 0
M  V30 7945 H 736.686 1.91429 0.0520961 0
M  V30 7946 H 734.991 3.12803 2.35927 0
M  V30 7947 H 736.688 3.41819 2.09669 0
M  V30 7948 H 733.278 4.19255 0.890137 0
M  V30 7949 H 737.462 4.95544 0.273856 0
M  V30 7950 H 732.718 6.08713 -0.572606 0
M  V30 7951 H 736.892 6.86268 -1.18362 0
M  V30 7952 H 734.519 7.42893 -1.6129 0
M  V30 7953 N 736.094 -0.359525 1.53444 0
M  V30 7954 C 737.041 -1.44073 1.8031 0
M  V30 7955 C 738.011 -1.52946 0.647811 0
M  V30 7956 O 739.196 -1.68739 0.890614 0
M  V30 7957 C 736.336 -2.80941 2.00416 0
M  V30 7958 C 735.449 -2.80986 3.28132 0
M  V30 7959 C 734.584 -4.09468 3.38393 0
M  V30 7960 C 733.623 -4.03679 4.60119 0
M  V30 7961 N 732.76 -5.23821 4.675 0
M  V30 7962 H 737.6 -1.20464 2.72566 0
M  V30 7963 H 735.137 -0.583859 1.35017 0
M  V30 7964 H 737.095 -3.60459 2.1006 0
M  V30 7965 H 735.725 -3.02936 1.11489 0
M  V30 7966 H 734.777 -1.93666 3.27411 0
M  V30 7967 H 736.089 -2.72583 4.17732 0
M  V30 7968 H 735.243 -4.97404 3.47382 0
M  V30 7969 H 733.982 -4.20632 2.4682 0
M  V30 7970 H 732.987 -3.14129 4.51224 0
M  V30 7971 H 734.212 -3.94112 5.5304 0
M  V30 7972 H 732.158 -5.35559 3.7883 0
M  V30 7973 H 732.075 -5.17611 5.51013 0
M  V30 7974 H 733.343 -6.13572 4.8078 0
M  V30 7975 N 737.572 -1.44907 -0.619662 0
M  V30 7976 C 738.502 -1.55488 -1.742 0
M  V30 7977 C 739.483 -0.407143 -1.65156 0
M  V30 7978 O 740.668 -0.628743 -1.8374 0
M  V30 7979 C 737.798 -1.5097 -3.1277 0
M  V30 7980 C 736.752 -2.64337 -3.36615 0
M  V30 7981 C 736.078 -2.44872 -4.75333 0
M  V30 7982 C 737.378 -4.06423 -3.28051 0
M  V30 7983 H 739.072 -2.49432 -1.65602 0
M  V30 7984 H 736.618 -1.20047 -0.795281 0
M  V30 7985 H 738.571 -1.56971 -3.91073 0
M  V30 7986 H 737.295 -0.535486 -3.2218 0
M  V30 7987 H 735.954 -2.57744 -2.60698 0
M  V30 7988 H 735.602 -1.45617 -4.81461 0
M  V30 7989 H 735.302 -3.20888 -4.92244 0
M  V30 7990 H 736.826 -2.52709 -5.55851 0
M  V30 7991 H 738.24 -4.14324 -3.96243 0
M  V30 7992 H 736.637 -4.82733 -3.56495 0
M  V30 7993 H 737.707 -4.29183 -2.25676 0
M  V30 7994 N 739.05 0.861098 -1.31996 0
M  V30 7995 C 740.296 1.61721 -1.22369 0
M  V30 7996 C 740.629 1.93 0.215587 0
M  V30 7997 O 739.904 1.56789 1.15098 0
M  V30 7998 C 740.187 2.9417 -2.07691 0
M  V30 7999 C 740.04 2.69714 -3.59965 0
M  V30 8000 C 741.359 3.95372 -1.93312 0
M  V30 8001 H 738.478 0.586822 -0.44588 0
M  V30 8002 H 741.12 0.994788 -1.61876 0
M  V30 8003 H 739.27 3.47292 -1.74128 0
M  V30 8004 H 740.942 2.23196 -4.03709 0
M  V30 8005 H 739.185 2.03789 -3.82952 0
M  V30 8006 H 739.856 3.63996 -4.14983 0
M  V30 8007 H 742.332 3.51487 -2.22701 0
M  V30 8008 H 741.208 4.85916 -2.55298 0
M  V30 8009 H 741.469 4.32865 -0.898922 0
M  V30 8010 N 740.528 1.15101 1.07655 0
M  V30 8011 C 741.805 0.834578 1.76902 0
M  V30 8012 C 742.185 -0.670431 2.00171 0
M  V30 8013 O 741.533 -1.61378 1.6177 0
M  V30 8014 C 741.743 1.64191 3.07965 0
M  V30 8015 C 743.091 1.84615 3.82364 0
M  V30 8016 O 744.115 1.60941 3.17768 0
M  V30 8017 O 742.974 2.24244 4.98374 0
M  V30 8018 H 740.068 0.306608 0.768063 0
M  V30 8019 H 742.614 1.25663 1.14048 0
M  V30 8020 H 741.386 2.66386 2.86626 0
M  V30 8021 H 741.009 1.216 3.78549 0
M  V30 8022 N 742.006 -1.2595 0.947325 0
M  V30 8023 C 742.938 -2.25336 0.41906 0
M  V30 8024 C 743.951 -1.56135 -0.461051 0
M  V30 8025 O 745.14 -1.76438 -0.270505 0
M  V30 8026 C 742.24 -3.36334 -0.416233 0
M  V30 8027 C 741.413 -4.35088 0.449162 0
M  V30 8028 C 740.472 -5.25185 -0.326716 0
M  V30 8029 O 739.498 -5.68548 0.272374 0
M  V30 8030 N 740.7 -5.57388 -1.6217 0
M  V30 8031 H 743.465 -2.71298 1.27348 0
M  V30 8032 H 741.026 -1.39781 0.81688 0
M  V30 8033 H 743.018 -3.93564 -0.942826 0
M  V30 8034 H 741.588 -2.89819 -1.17148 0
M  V30 8035 H 740.808 -3.76841 1.15692 0
M  V30 8036 H 742.096 -4.98056 1.04008 0
M  V30 8037 H 741.494 -5.2405 -2.13046 0
M  V30 8038 H 740.051 -6.17234 -2.0944 0
M  V30 8039 N 743.484 -0.715051 -1.40445 0
M  V30 8040 C 744.732 -0.253826 -2.005 0
M  V30 8041 C 745.053 1.15681 -1.5698 0
M  V30 8042 O 744.323 1.78414 -0.809027 0
M  V30 8043 H 742.903 -0.0908537 -0.741454 0
M  V30 8044 H 745.565 -0.920561 -1.7179 0
M  V30 8045 H 744.661 -0.286499 -3.10782 0
M  V30 8046 N 744.962 1.50701 -0.461195 0
M  V30 8047 C 745.872 2.32069 0.343661 0
M  V30 8048 C 746.888 1.42016 1.00535 0
M  V30 8049 O 748.064 1.75077 0.995498 0
M  V30 8050 C 745.129 3.16424 1.41692 0
M  V30 8051 C 744.19 4.22286 0.772869 0
M  V30 8052 C 743.423 5.02609 1.79499 0
M  V30 8053 O 743.646 4.83874 3.0203 0
M  V30 8054 O 742.58 5.86047 1.3723 0
M  V30 8055 H 746.406 3.01996 -0.321268 0
M  V30 8056 H 743.991 1.47723 -0.223235 0
M  V30 8057 H 745.873 3.68795 2.03883 0
M  V30 8058 H 744.548 2.49236 2.0655 0
M  V30 8059 H 743.455 3.73931 0.112277 0
M  V30 8060 H 744.788 4.91915 0.167399 0
M  V30 8061 N 746.441 0.193421 1.56409 0
M  V30 8062 C 747.689 -0.444908 1.97142 0
M  V30 8063 C 748.01 -1.62268 1.08139 0
M  V30 8064 O 747.28 -1.95307 0.152326 0
M  V30 8065 H 745.86 -0.16736 0.728011 0
M  V30 8066 H 748.522 0.279763 1.92882 0
M  V30 8067 H 747.618 -0.790159 3.01932 0
M  V30 8068 N 747.919 -1.57396 -0.0801906 0
M  V30 8069 C 749.166 -1.86836 -0.780927 0
M  V30 8070 C 749.494 -0.784012 -1.77999 0
M  V30 8071 O 748.749 0.220881 -1.94449 0
M  V30 8072 C 749.048 -3.22915 -1.53169 0
M  V30 8073 C 748.714 -4.45843 -0.67339 0
M  V30 8074 C 747.376 -4.79213 -0.436829 0
M  V30 8075 C 749.728 -5.21142 -0.0776786 0
M  V30 8076 C 747.056 -5.853 0.405062 0
M  V30 8077 C 749.408 -6.28119 0.751619 0
M  V30 8078 C 748.072 -6.59995 0.998131 0
M  V30 8079 H 747.342 -0.683682 -0.285761 0
M  V30 8080 H 749.989 -1.91454 -0.0419435 0
M  V30 8081 H 748.294 -3.14049 -2.34265 0
M  V30 8082 H 749.991 -3.42926 -2.07853 0
M  V30 8083 H 746.581 -4.19721 -0.867891 0
M  V30 8084 H 750.765 -4.95682 -0.247572 0
M  V30 8085 H 746.021 -6.084 0.60488 0
M  V30 8086 H 750.195 -6.8563 1.22 0
M  V30 8087 H 747.822 -7.42027 1.65227 0
M  V30 8088 N 749.397 0.351382 -1.53633 0
M  V30 8089 C 750.627 1.11113 -1.74176 0
M  V30 8090 C 751.035 1.83084 -0.477154 0
M  V30 8091 O 750.378 1.74941 0.560483 0
M  V30 8092 C 750.44 2.17521 -2.86225 0
M  V30 8093 C 750.104 1.65193 -4.26099 0
M  V30 8094 C 751.101 1.10842 -5.07947 0
M  V30 8095 C 748.786 1.70277 -4.72558 0
M  V30 8096 C 750.78 0.622689 -6.34351 0
M  V30 8097 C 748.467 1.21316 -5.98937 0
M  V30 8098 C 749.465 0.674033 -6.79666 0
M  V30 8099 O 749.153 0.191696 -8.03671 0
M  V30 8100 H 748.885 0.33756 -0.585687 0
M  V30 8101 H 751.439 0.411786 -2.0123 0
M  V30 8102 H 749.669 2.90991 -2.54678 0
M  V30 8103 H 751.358 2.78999 -2.94812 0
M  V30 8104 H 752.124 1.06243 -4.7322 0
M  V30 8105 H 748.003 2.11181 -4.09785 0
M  V30 8106 H 751.547 0.201216 -6.9731 0
M  V30 8107 H 747.444 1.25613 -6.3316 0
M  V30 8108 H 748.212 0.309712 -8.17914 0
M  V30 8109 N 750.875 1.45233 0.611969 0
M  V30 8110 C 751.807 1.49575 1.73666 0
M  V30 8111 C 752.82 0.386987 1.58134 0
M  V30 8112 O 754.009 0.653804 1.66095 0
M  V30 8113 C 751.109 1.33223 3.11617 0
M  V30 8114 C 750.282 2.57694 3.5343 0
M  V30 8115 C 749.341 2.35962 4.70328 0
M  V30 8116 O 748.367 3.09553 4.77667 0
M  V30 8117 N 749.569 1.40243 5.63305 0
M  V30 8118 H 752.334 2.46539 1.70407 0
M  V30 8119 H 749.895 1.40917 0.79712 0
M  V30 8120 H 751.887 1.16502 3.87569 0
M  V30 8121 H 750.457 0.44551 3.09409 0
M  V30 8122 H 749.677 2.8956 2.67486 0
M  V30 8123 H 750.965 3.40441 3.78124 0
M  V30 8124 H 750.363 0.795023 5.60086 0
M  V30 8125 H 748.92 1.29496 6.38807 0
M  V30 8126 N 752.353 -0.854086 1.3245 0
M  V30 8127 C 753.63 -1.59188 1.1366 0
M  V30 8128 C 754.01 -2.08917 -0.302807 0
M  V30 8129 O 753.358 -1.8795 -1.29951 0
M  V30 8130 C 753.568 -2.73757 2.16467 0
M  V30 8131 C 754.916 -3.43323 2.49829 0
M  V30 8132 O 755.94 -2.83983 2.15017 0
M  V30 8133 O 754.799 -4.50409 3.09506 0
M  V30 8134 H 751.893 -0.701092 0.438633 0
M  V30 8135 H 754.439 -0.898165 1.43983 0
M  V30 8136 H 753.211 -2.3454 3.1322 0
M  V30 8137 H 752.834 -3.50804 1.87142 0
M  V30 8138 N 753.831 -1.1567 -1.07043 0
M  V30 8139 C 755.079 -0.931673 -1.79344 0
M  V30 8140 C 755.4 0.542421 -1.87304 0
M  V30 8141 O 754.67 1.39418 -1.37621 0
M  V30 8142 H 753.25 -0.34171 -0.664262 0
M  V30 8143 H 755.912 -1.45795 -1.29344 0
M  V30 8144 H 755.008 -1.34379 -2.81689 0
M  V30 8145 N 755.309 1.25446 -0.953992 0
M  V30 8146 C 756.534 1.97755 -0.625129 0
M  V30 8147 C 756.959 1.70437 0.795787 0
M  V30 8148 O 756.317 0.95992 1.53803 0
M  V30 8149 C 756.365 3.49463 -0.889251 0
M  V30 8150 O 755.469 4.12387 0.0322757 0
M  V30 8151 H 754.81 0.61998 -0.237742 0
M  V30 8152 H 757.34 1.59582 -1.28041 0
M  V30 8153 H 757.35 3.99772 -0.815263 0
M  V30 8154 H 756.025 3.68676 -1.92487 0
M  V30 8155 H 754.602 3.72782 -0.0938625 0
M  V30 8156 N 756.787 0.722489 1.40064 0
M  V30 8157 C 758.017 0.274439 2.04769 0
M  V30 8158 C 758.425 -1.09125 1.54559 0
M  V30 8159 O 757.768 -1.69834 0.700149 0
M  V30 8160 C 757.83 0.184091 3.59028 0
M  V30 8161 C 757.494 1.48619 4.32159 0
M  V30 8162 C 758.491 2.42947 4.59644 0
M  V30 8163 C 756.176 1.74703 4.7094 0
M  V30 8164 C 758.17 3.616 5.24904 0
M  V30 8165 C 755.857 2.93636 5.3593 0
M  V30 8166 C 756.855 3.86907 5.62843 0
M  V30 8167 O 756.543 5.03753 6.26489 0
M  V30 8168 H 756.275 0.119847 0.665292 0
M  V30 8169 H 758.829 0.983352 1.80331 0
M  V30 8170 H 757.059 -0.580821 3.82313 0
M  V30 8171 H 758.748 -0.230306 4.05246 0
M  V30 8172 H 759.514 2.24062 4.30141 0
M  V30 8173 H 755.393 1.02955 4.49356 0
M  V30 8174 H 758.937 4.34418 5.45827 0
M  V30 8175 H 754.834 3.12428 5.64853 0
M  V30 8176 H 755.602 5.03922 6.44984 0
M  V30 8177 N 758.265 -1.50454 0.469181 0
M  V30 8178 C 759.514 -2.01507 -0.0881425 0
M  V30 8179 C 759.827 -1.35613 -1.40956 0
M  V30 8180 O 761.033 -1.77812 -2.05171 0
M  V30 8181 C 759.489 -3.59301 -0.207596 0
M  V30 8182 C 759.097 -4.34152 1.10527 0
M  V30 8183 C 760.841 -4.18401 -0.716981 0
M  V30 8184 C 758.748 -5.83725 0.949717 0
M  V30 8185 H 757.678 -0.753106 -0.0367156 0
M  V30 8186 H 760.329 -1.73282 0.603788 0
M  V30 8187 H 758.711 -3.84106 -0.963265 0
M  V30 8188 H 759.885 -4.21073 1.87175 0
M  V30 8189 H 758.2 -3.86652 1.54562 0
M  V30 8190 H 760.797 -5.27895 -0.850363 0
M  V30 8191 H 761.14 -3.79657 -1.70782 0
M  V30 8192 H 761.673 -3.97796 -0.0187511 0
M  V30 8193 H 758.412 -6.26938 1.91387 0
M  V30 8194 H 757.932 -5.99383 0.223591 0
M  V30 8195 H 759.611 -6.44065 0.61557 0
M  V30 8196 N 759.743 -0.201713 -1.56304 0
M  V30 8197 C 761.02 0.483273 -1.89536 0
M  V30 8198 C 761.4 1.79176 -1.11621 0
M  V30 8199 O 760.748 2.27445 -0.219339 0
M  V30 8200 C 760.958 0.695604 -3.41998 0
M  V30 8201 C 762.306 1.012 -4.12364 0
M  V30 8202 O 763.33 0.783094 -3.47485 0
M  V30 8203 O 762.189 1.44534 -5.27041 0
M  V30 8204 H 759.283 0.252801 -0.787414 0
M  V30 8205 H 761.829 -0.24242 -1.6796 0
M  V30 8206 H 760.601 -0.228165 -3.90634 0
M  V30 8207 H 760.224 1.47351 -3.69288 0
M  V30 8208 N 761.222 1.57436 0.0718424 0
M  V30 8209 C 762.172 2.00132 1.09229 0
M  V30 8210 C 763.156 0.883379 1.34481 0
M  V30 8211 O 764.348 1.14728 1.34783 0
M  V30 8212 C 761.477 2.44876 2.40605 0
M  V30 8213 C 760.563 3.63405 2.18627 0
M  V30 8214 N 760.954 4.77583 1.66579 0
M  V30 8215 C 759.252 3.69953 2.491 0
M  V30 8216 C 759.953 5.5943 1.59415 0
M  V30 8217 N 758.929 5.03275 2.05464 0
M  V30 8218 H 762.731 2.85849 0.683185 0
M  V30 8219 H 760.245 1.59987 0.278914 0
M  V30 8220 H 762.242 2.73703 3.14471 0
M  V30 8221 H 760.902 1.60546 2.82232 0
M  V30 8222 H 761.913 4.99875 1.35443 0
M  V30 8223 H 758.59 2.96336 2.94094 0
M  V30 8224 H 759.98 6.61093 1.20026 0
M  V30 8225 N 762.7 -0.34323 1.53817 0
M  V30 8226 C 763.928 -1.10348 1.75017 0
M  V30 8227 C 764.343 -1.82345 0.489475 0
M  V30 8228 O 763.7 -1.74362 -0.538886 0
M  V30 8229 C 763.751 -2.11672 2.93048 0
M  V30 8230 O 763.472 -1.42603 4.14241 0
M  V30 8231 C 764.973 -3.0007 3.26301 0
M  V30 8232 H 762.193 -0.329056 0.584776 0
M  V30 8233 H 764.737 -0.395339 2.00642 0
M  V30 8234 H 762.892 -2.78051 2.69753 0
M  V30 8235 H 763.306 -2.10294 4.80496 0
M  V30 8236 H 764.78 -3.67101 4.12239 0
M  V30 8237 H 765.257 -3.66105 2.42618 0
M  V30 8238 H 765.863 -2.3928 3.51604 0
M  V30 8239 N 764.178 -1.45556 -0.604258 0
M  V30 8240 C 765.126 -1.5482 -1.7359 0
M  V30 8241 C 766.12 -0.417966 -1.64163 0
M  V30 8242 O 767.326 -0.594007 -1.69916 0
M  V30 8243 H 763.701 -0.486352 -0.573556 0
M  V30 8244 H 765.672 -2.5001 -1.62903 0
M  V30 8245 C 764.421 -1.53521 -3.11972 0
M  V30 8246 H 763.744 -2.39818 -3.19886 0
M  V30 8247 H 765.184 -1.64061 -3.90973 0
M  V30 8248 C 763.643 -0.260191 -3.35894 0
M  V30 8249 O 764.173 0.658582 -3.96265 0
M  V30 8250 N 762.379 -0.154839 -2.90187 0
M  V30 8251 H 761.926 -0.903378 -2.4124 0
M  V30 8252 H 761.884 0.697437 -3.06567 0
M  V30 8253 N 765.656 0.84705 -1.32902 0
M  V30 8254 C 766.902 1.60414 -1.24078 0
M  V30 8255 C 767.235 1.93217 0.195105 0
M  V30 8256 O 766.51 1.58001 1.13428 0
M  V30 8257 C 766.793 2.91951 -2.108 0
M  V30 8258 C 766.646 2.6588 -3.62805 0
M  V30 8259 C 767.965 3.93299 -1.97494 0
M  V30 8260 H 765.084 0.58206 -0.452079 0
M  V30 8261 H 767.726 0.977562 -1.62922 0
M  V30 8262 H 765.876 3.45425 -1.77802 0
M  V30 8263 H 767.548 2.18902 -4.06054 0
M  V30 8264 H 765.791 1.99716 -3.85092 0
M  V30 8265 H 766.462 3.59574 -4.1882 0
M  V30 8266 H 768.938 3.49105 -2.26417 0
M  V30 8267 H 767.814 4.8318 -2.60438 0
M  V30 8268 H 768.075 4.31887 -0.944782 0
M  V30 8269 N 767.134 1.16236 1.06428 0
M  V30 8270 C 768.097 0.870163 2.1204 0
M  V30 8271 C 769.097 -0.134239 1.60239 0
M  V30 8272 O 770.287 0.0964932 1.73933 0
M  V30 8273 C 767.419 0.301033 3.39568 0
M  V30 8274 H 768.612 1.8064 2.39394 0
M  V30 8275 H 766.165 0.971116 1.2247 0
M  V30 8276 H 766.9 -0.642948 3.17863 0
M  V30 8277 H 766.685 1.02475 3.78472 0
M  V30 8278 H 768.175 0.114494 4.17443 0
M  V30 8279 N 768.612 -1.24939 0.960631 0
M  V30 8280 C 769.842 -1.96595 0.635123 0
M  V30 8281 C 770.25 -1.71538 -0.798206 0
M  V30 8282 O 769.593 -0.991727 -1.5463 0
M  V30 8283 C 769.655 -3.49994 0.821248 0
M  V30 8284 C 769.319 -3.98738 2.23287 0
M  V30 8285 C 770.316 -4.08965 3.21004 0
M  V30 8286 C 768.001 -4.32247 2.55867 0
M  V30 8287 C 769.995 -4.52025 4.49391 0
M  V30 8288 C 767.682 -4.74991 3.84482 0
M  V30 8289 C 768.68 -4.84844 4.81056 0
M  V30 8290 O 768.368 -5.26638 6.07378 0
M  V30 8291 H 768.1 -0.633265 0.23654 0
M  V30 8292 H 770.654 -1.5991 1.28911 0
M  V30 8293 H 768.884 -3.86543 0.110105 0
M  V30 8294 H 770.573 -4.02859 0.495892 0
M  V30 8295 H 771.339 -3.83302 2.97161 0
M  V30 8296 H 767.218 -4.23801 1.81421 0
M  V30 8297 H 770.762 -4.5963 5.24773 0
M  V30 8298 H 766.659 -5.00101 4.08129 0
M  V30 8299 H 767.427 -5.44807 6.10842 0
M  V30 8300 N 770.09 -0.729906 -1.39679 0
M  V30 8301 C 771.318 -0.285709 -2.04918 0
M  V30 8302 C 771.733 1.07765 -1.55023 0
M  V30 8303 O 771.09 1.67999 -0.712923 0
M  V30 8304 C 771.141 -0.272793 -3.60469 0
M  V30 8305 O 770.862 -1.58233 -4.08527 0
M  V30 8306 C 772.363 0.188199 -4.429 0
M  V30 8307 H 769.583 -0.125758 -0.65911 0
M  V30 8308 H 772.127 -0.992129 -1.78821 0
M  V30 8309 H 770.282 0.384699 -3.85485 0
M  V30 8310 H 770.696 -1.49245 -5.02818 0
M  V30 8311 H 772.17 0.14608 -5.51807 0
M  V30 8312 H 772.647 1.2326 -4.21549 0
M  V30 8313 H 773.253 -0.439541 -4.23023 0
M  V30 8314 N 771.568 1.50203 -0.477153 0
M  V30 8315 C 772.816 2.01959 0.0755889 0
M  V30 8316 C 773.137 1.3608 1.39668 0
M  V30 8317 O 772.407 0.508136 1.89195 0
M  V30 8318 H 770.987 0.74636 0.0309248 0
M  V30 8319 H 773.649 1.84473 -0.628959 0
M  V30 8320 H 772.745 3.11305 0.222683 0
M  V30 8321 N 773.046 0.209999 1.56195 0
M  V30 8322 C 774.009 -0.691232 2.18528 0
M  V30 8323 C 775.009 -1.13013 1.14388 0
M  V30 8324 O 776.199 -1.04081 1.39688 0
M  V30 8325 C 773.331 -1.94551 2.79934 0
M  V30 8326 H 774.524 -0.147953 2.99535 0
M  V30 8327 H 772.077 -0.0396243 1.5625 0
M  V30 8328 H 772.812 -2.53094 2.02766 0
M  V30 8329 H 772.597 -1.63938 3.56184 0
M  V30 8330 H 774.087 -2.58785 3.2775 0
M  V30 8331 N 774.524 -1.57472 -0.0634922 0
M  V30 8332 C 775.754 -1.91608 -0.772645 0
M  V30 8333 C 776.162 -0.805019 -1.71219 0
M  V30 8334 O 775.505 0.229941 -1.82255 0
M  V30 8335 C 775.567 -3.21281 -1.61304 0
M  V30 8336 C 775.231 -4.49177 -0.841973 0
M  V30 8337 C 776.228 -5.19661 -0.157494 0
M  V30 8338 C 773.913 -4.9578 -0.80669 0
M  V30 8339 C 775.907 -6.35006 0.551948 0
M  V30 8340 C 773.594 -6.11028 -0.0934812 0
M  V30 8341 C 774.592 -6.80493 0.58463 0
M  V30 8342 O 774.28 -7.93542 1.28633 0
M  V30 8343 H 774.012 -0.637685 -0.224352 0
M  V30 8344 H 776.566 -2.05369 -0.0355279 0
M  V30 8345 H 774.796 -3.03752 -2.39315 0
M  V30 8346 H 776.485 -3.41003 -2.20162 0
M  V30 8347 H 777.251 -4.84681 -0.176006 0
M  V30 8348 H 773.13 -4.41579 -1.32397 0
M  V30 8349 H 776.674 -6.89161 1.0818 0
M  V30 8350 H 772.571 -6.45459 -0.0729258 0
M  V30 8351 H 773.339 -8.09708 1.19646 0
M  V30 8352 N 776.003 0.335068 -1.53997 0
M  V30 8353 C 777.251 1.07223 -1.71312 0
M  V30 8354 C 777.572 1.88911 -0.483486 0
M  V30 8355 O 776.842 1.89344 0.50257 0
M  V30 8356 H 775.422 0.398846 -0.63161 0
M  V30 8357 H 778.084 0.374288 -1.91272 0
M  V30 8358 H 777.18 1.7448 -2.58772 0
M  V30 8359 N 777.481 1.45874 0.596531 0
M  V30 8360 C 778.429 1.55739 1.72766 0
M  V30 8361 C 779.423 0.426666 1.63939 0
M  V30 8362 O 780.629 0.60301 1.69599 0
M  V30 8363 H 777.004 0.489386 0.570968 0
M  V30 8364 H 778.975 2.50871 1.61575 0
M  V30 8365 C 777.724 1.55174 3.11153 0
M  V30 8366 H 777.047 2.41511 3.1861 0
M  V30 8367 H 778.487 1.66133 3.90097 0
M  V30 8368 C 776.946 0.278001 3.35751 0
M  V30 8369 O 777.476 -0.637557 3.96608 0
M  V30 8370 N 775.682 0.170227 2.90101 0
M  V30 8371 H 775.229 0.916159 2.40758 0
M  V30 8372 H 775.187 -0.68117 3.06932 0
M  V30 8373 N 778.959 -0.83999 1.33349 0
M  V30 8374 C 780.205 -1.59753 1.24927 0
M  V30 8375 C 780.538 -1.93318 -0.184855 0
M  V30 8376 O 779.813 -1.586 -1.12589 0
M  V30 8377 C 780.096 -2.90829 2.12345 0
M  V30 8378 C 779.949 -2.63953 3.6421 0
M  V30 8379 C 781.268 -3.92246 1.99577 0
M  V30 8380 H 778.387 -0.579654 0.45516 0
M  V30 8381 H 781.029 -0.968909 1.63439 0
M  V30 8382 H 779.179 -3.44478 1.79631 0
M  V30 8383 H 780.851 -2.16745 4.07209 0
M  V30 8384 H 779.094 -1.97671 3.86146 0
M  V30 8385 H 779.765 -3.57348 4.20721 0
M  V30 8386 H 782.241 -3.479 2.28265 0
M  V30 8387 H 781.117 -4.81793 2.62996 0
M  V30 8388 H 781.378 -4.3138 0.967673 0
M  V30 8389 N 780.437 -1.16799 -1.0581 0
M  V30 8390 C 781.367 -0.902241 -2.15364 0
M  V30 8391 C 782.348 0.153351 -1.69407 0
M  V30 8392 O 783.533 0.00442032 -1.94199 0
M  V30 8393 C 780.663 -0.407911 -3.44896 0
M  V30 8394 C 779.617 -1.40197 -4.04387 0
M  V30 8395 C 778.943 -0.765848 -5.29187 0
M  V30 8396 C 780.243 -2.77316 -4.42598 0
M  V30 8397 H 781.937 -1.81841 -2.37853 0
M  V30 8398 H 779.483 -0.875731 -1.14311 0
M  V30 8399 H 781.436 -0.20945 -4.20879 0
M  V30 8400 H 780.16 0.54378 -3.22041 0
M  V30 8401 H 778.819 -1.58707 -3.30466 0
M  V30 8402 H 778.467 0.192482 -5.02632 0
M  V30 8403 H 778.167 -1.42939 -5.69949 0
M  V30 8404 H 779.691 -0.577519 -6.07863 0
M  V30 8405 H 781.105 -2.62561 -5.09642 0
M  V30 8406 H 779.502 -3.4019 -4.94359 0
M  V30 8407 H 780.572 -3.32199 -3.53231 0
M  V30 8408 N 781.915 1.24427 -0.967243 0
M  V30 8409 C 783.164 1.91789 -0.624478 0
M  V30 8410 C 783.477 1.76448 0.844129 0
M  V30 8411 O 784.683 2.38495 1.2974 0
M  V30 8412 C 783.139 3.43743 -1.06626 0
M  V30 8413 C 782.747 3.67771 -2.55829 0
M  V30 8414 C 784.491 4.16958 -0.79662 0
M  V30 8415 C 782.398 5.13293 -2.93742 0
M  V30 8416 H 781.328 0.71811 -0.229856 0
M  V30 8417 H 783.979 1.41081 -1.17339 0
M  V30 8418 H 782.361 3.93484 -0.445663 0
M  V30 8419 H 783.535 3.28631 -3.23015 0
M  V30 8420 H 781.85 3.07841 -2.80398 0
M  V30 8421 H 784.447 5.24171 -1.05589 0
M  V30 8422 H 784.79 4.15442 0.267163 0
M  V30 8423 H 785.323 3.73164 -1.37816 0
M  V30 8424 H 782.062 5.19931 -3.9919 0
M  V30 8425 H 781.582 5.53433 -2.3124 0
M  V30 8426 H 783.261 5.81521 -2.83623 0
M  V30 8427 N 783.393 0.737304 1.3929 0
M  V30 8428 C 784.67 0.212464 1.94443 0
M  V30 8429 C 785.05 -1.28621 1.67391 0
M  V30 8430 O 784.398 -2.0529 1.00342 0
M  V30 8431 C 784.608 0.548565 3.44662 0
M  V30 8432 C 785.956 0.499177 4.21656 0
M  V30 8433 O 786.98 0.485892 3.5287 0
M  V30 8434 O 785.839 0.495739 5.44247 0
M  V30 8435 H 782.933 0.0395457 0.826054 0
M  V30 8436 H 785.479 0.816319 1.48776 0
M  V30 8437 H 784.251 1.58426 3.57795 0
M  V30 8438 H 783.874 -0.0841399 3.97511 0
M  V30 8439 N 784.871 -1.49948 0.485112 0
M  V30 8440 C 786.119 -2.01996 -0.0648775 0
M  V30 8441 C 786.44 -1.36819 -1.38945 0
M  V30 8442 O 785.71 -0.518163 -1.88923 0
M  V30 8443 H 784.29 -0.746513 -0.0269662 0
M  V30 8444 H 786.952 -1.84136 0.638733 0
M  V30 8445 H 786.048 -3.11418 -0.20617 0
M  V30 8446 N 786.349 -0.21828 -1.56081 0
M  V30 8447 C 787.279 0.687922 -2.23136 0
M  V30 8448 C 788.26 1.20357 -1.202 0
M  V30 8449 O 789.445 1.24817 -1.48776 0
M  V30 8450 C 786.575 1.89762 -2.90874 0
M  V30 8451 C 785.529 1.51595 -4.00254 0
M  V30 8452 C 784.855 2.80415 -4.55271 0
M  V30 8453 C 786.155 0.708404 -5.17474 0
M  V30 8454 H 787.849 0.128854 -2.99123 0
M  V30 8455 H 785.395 0.0605354 -1.43873 0
M  V30 8456 H 787.348 2.53699 -3.36474 0
M  V30 8457 H 786.072 2.4816 -2.1233 0
M  V30 8458 H 784.731 0.900058 -3.55379 0
M  V30 8459 H 784.379 3.36951 -3.73461 0
M  V30 8460 H 784.079 2.55613 -5.2909 0
M  V30 8461 H 785.603 3.453 -5.03587 0
M  V30 8462 H 787.017 1.2514 -5.59476 0
M  V30 8463 H 785.414 0.557593 -5.97504 0
M  V30 8464 H 786.484 -0.285679 -4.84058 0
M  V30 8465 N 787.827 1.57504 0.0551401 0
M  V30 8466 C 789.052 1.92682 0.767352 0
M  V30 8467 C 789.477 0.81614 1.69472 0
M  V30 8468 O 788.835 -0.229989 1.79835 0
M  V30 8469 C 788.883 3.26866 1.52286 0
M  V30 8470 O 787.987 3.17274 2.63459 0
M  V30 8471 H 787.328 0.630502 0.208238 0
M  V30 8472 H 789.858 2.04592 0.0184026 0
M  V30 8473 H 789.868 3.61138 1.8985 0
M  V30 8474 H 788.543 4.07276 0.842541 0
M  V30 8475 H 787.12 2.94589 2.2863 0
M  V30 8476 N 789.305 -0.326896 1.54172 0
M  V30 8477 C 790.237 -1.42319 1.79661 0
M  V30 8478 C 791.25 -1.47989 0.678456 0
M  V30 8479 O 792.439 -1.50773 0.955503 0
M  V30 8480 C 789.539 -2.80876 1.89636 0
M  V30 8481 C 788.712 -2.98449 3.19761 0
M  V30 8482 C 787.771 -4.17347 3.2048 0
M  V30 8483 O 786.797 -4.10667 3.94134 0
M  V30 8484 N 787.999 -5.26717 2.44027 0
M  V30 8485 H 790.764 -1.20819 2.74268 0
M  V30 8486 H 788.325 -0.516866 1.53428 0
M  V30 8487 H 790.317 -3.58619 1.87549 0
M  V30 8488 H 788.887 -2.95442 1.02141 0
M  V30 8489 H 788.107 -2.08035 3.34836 0
M  V30 8490 H 789.395 -3.07083 4.05681 0
M  V30 8491 H 788.793 -5.35019 1.8377 0
M  V30 8492 H 787.35 -6.02891 2.47721 0
M  V30 8493 N 790.784 -1.46188 -0.588786 0
M  V30 8494 C 791.714 -1.59148 -1.70863 0
M  V30 8495 C 792.695 -0.442083 -1.64255 0
M  V30 8496 O 793.88 -0.667575 -1.82365 0
M  V30 8497 C 791.01 -1.5757 -3.09498 0
M  V30 8498 C 789.964 -2.71418 -3.30932 0
M  V30 8499 C 789.29 -2.549 -4.70032 0
M  V30 8500 C 790.59 -4.1329 -3.19356 0
M  V30 8501 H 792.284 -2.52889 -1.60274 0
M  V30 8502 H 789.83 -1.21707 -0.769638 0
M  V30 8503 H 791.783 -1.65231 -3.87655 0
M  V30 8504 H 790.507 -0.603705 -3.20972 0
M  V30 8505 H 789.166 -2.63216 -2.55172 0
M  V30 8506 H 788.814 -1.55797 -4.78264 0
M  V30 8507 H 788.514 -3.31257 -4.85327 0
M  V30 8508 H 790.038 -2.64443 -5.50366 0
M  V30 8509 H 791.452 -4.22636 -3.87365 0
M  V30 8510 H 789.849 -4.90187 -3.46175 0
M  V30 8511 H 790.919 -4.33874 -2.16522 0
M  V30 8512 N 792.262 0.832906 -1.33792 0
M  V30 8513 C 793.192 1.95828 -1.27176 0
M  V30 8514 C 794.173 1.69427 -0.15114 0
M  V30 8515 O 795.358 1.91167 -0.341886 0
M  V30 8516 C 792.488 3.32098 -1.01629 0
M  V30 8517 C 791.442 3.72912 -2.10049 0
M  V30 8518 C 790.768 5.07054 -1.69706 0
M  V30 8519 C 792.068 3.86064 -3.51783 0
M  V30 8520 H 793.762 2.01622 -2.21334 0
M  V30 8521 H 791.308 0.96866 -1.0655 0
M  V30 8522 H 793.261 4.10402 -0.956474 0
M  V30 8523 H 791.985 3.26577 -0.0390956 0
M  V30 8524 H 790.644 2.96876 -2.15082 0
M  V30 8525 H 790.292 4.9801 -0.706737 0
M  V30 8526 H 789.992 5.35333 -2.42264 0
M  V30 8527 H 791.516 5.87827 -1.65202 0
M  V30 8528 H 792.93 4.54665 -3.49218 0
M  V30 8529 H 791.327 4.25787 -4.22878 0
M  V30 8530 H 792.397 2.88344 -3.89854 0
M  V30 8531 N 793.74 1.17359 1.05189 0
M  V30 8532 C 795.151 0.96793 1.5965 0
M  V30 8533 C 795.502 -0.485355 1.90102 0
M  V30 8534 O 794.627 -1.36066 1.6827 0
M  V30 8535 C 795.222 1.75068 2.90063 0
M  V30 8536 C 793.781 1.58969 3.41183 0
M  V30 8537 C 792.928 1.75231 2.14917 0
M  V30 8538 H 795.879 1.32067 0.880001 0
M  V30 8539 H 795.9 1.23308 3.59966 0
M  V30 8540 H 795.412 2.80835 2.67868 0
M  V30 8541 H 793.513 0.556906 3.68415 0
M  V30 8542 H 793.626 2.38067 4.15766 0
M  V30 8543 H 791.99 1.18073 2.25679 0
M  V30 8544 H 792.773 2.8241 1.95191 0
M  V30 8545 N 795.218 -1.23913 0.973828 0
M  V30 8546 C 796.464 -1.92436 0.640026 0
M  V30 8547 C 796.797 -1.75875 -0.823512 0
M  V30 8548 O 796.072 -1.11563 -1.59323 0
M  V30 8549 C 796.355 -3.4526 1.0231 0
M  V30 8550 C 796.208 -3.70961 2.54378 0
M  V30 8551 C 797.527 -4.36495 0.562155 0
M  V30 8552 H 794.646 -0.698868 0.233992 0
M  V30 8553 H 797.288 -1.46163 1.21393 0
M  V30 8554 H 795.438 -3.84802 0.534751 0
M  V30 8555 H 797.11 -3.40941 3.10737 0
M  V30 8556 H 795.353 -3.15899 2.97305 0
M  V30 8557 H 796.024 -4.77912 2.76232 0
M  V30 8558 H 798.5 -4.04363 0.981333 0
M  V30 8559 H 797.376 -5.42142 0.858689 0
M  V30 8560 H 797.637 -4.38818 -0.537659 0
M  V30 8561 N 796.696 -0.74468 -1.38897 0
M  V30 8562 C 797.945 -0.293716 -1.9955 0
M  V30 8563 C 798.258 1.12831 -1.59777 0
M  V30 8564 O 799.464 1.67929 -2.13336 0
M  V30 8565 C 797.92 -0.474188 -3.56762 0
M  V30 8566 C 797.528 -1.90472 -4.05493 0
M  V30 8567 C 799.272 -0.0854875 -4.24414 0
M  V30 8568 C 797.179 -2.03423 -5.55314 0
M  V30 8569 H 796.109 -0.106066 -0.746502 0
M  V30 8570 H 798.76 -0.919948 -1.58774 0
M  V30 8571 H 797.142 0.221092 -3.95382 0
M  V30 8572 H 798.316 -2.63274 -3.78184 0
M  V30 8573 H 796.631 -2.24752 -3.50536 0
M  V30 8574 H 799.228 -0.161133 -5.34457 0
M  V30 8575 H 799.571 0.96066 -4.05064 0
M  V30 8576 H 800.104 -0.732286 -3.91002 0
M  V30 8577 H 796.843 -3.0626 -5.79556 0
M  V30 8578 H 796.363 -1.3507 -5.84394 0
M  V30 8579 H 798.042 -1.81996 -6.20876 0
M  V30 8580 N 798.174 1.49689 -0.493057 0
M  V30 8581 C 799.106 2.26867 0.326195 0
M  V30 8582 C 800.119 1.33083 0.937697 0
M  V30 8583 O 801.308 1.58427 0.822382 0
M  V30 8584 C 798.408 3.0519 1.4735 0
M  V30 8585 C 797.581 4.26491 0.970767 0
M  V30 8586 C 796.64 4.86926 1.99473 0
M  V30 8587 O 795.666 5.47221 1.56647 0
M  V30 8588 N 796.868 4.75871 3.32456 0
M  V30 8589 H 799.633 2.97816 -0.335547 0
M  V30 8590 H 797.194 1.58602 -0.325129 0
M  V30 8591 H 799.186 3.42496 2.15589 0
M  V30 8592 H 797.756 2.369 2.03954 0
M  V30 8593 H 796.976 3.94036 0.113529 0
M  V30 8594 H 798.264 5.05092 0.613156 0
M  V30 8595 H 797.662 4.2797 3.69944 0
M  V30 8596 H 796.219 5.17383 3.96431 0
M  V30 8597 N 799.652 0.226554 1.55963 0
M  V30 8598 C 800.599 -0.681504 2.20509 0
M  V30 8599 C 801.569 -1.1866 1.16229 0
M  V30 8600 O 802.754 -1.24478 1.44602 0
M  V30 8601 C 799.894 -1.88183 2.89277 0
M  V30 8602 C 799.007 -1.41517 4.08163 0
M  V30 8603 C 798.142 -2.57346 4.647 0
M  V30 8604 C 797.181 -2.07441 5.75877 0
M  V30 8605 N 796.318 -3.16561 6.26685 0
M  V30 8606 H 801.158 -0.124372 2.9774 0
M  V30 8607 H 798.695 -0.0496333 1.47016 0
M  V30 8608 H 800.653 -2.58666 3.27335 0
M  V30 8609 H 799.283 -2.41177 2.14555 0
M  V30 8610 H 798.335 -0.605099 3.75557 0
M  V30 8611 H 799.647 -1.00928 4.88482 0
M  V30 8612 H 798.801 -3.35903 5.05227 0
M  V30 8613 H 797.54 -3.01227 3.83554 0
M  V30 8614 H 796.545 -1.27347 5.34848 0
M  V30 8615 H 797.77 -1.64554 6.58862 0
M  V30 8616 H 795.716 -3.59914 5.48451 0
M  V30 8617 H 795.633 -2.80239 7.02141 0
M  V30 8618 H 796.901 -3.95238 6.71868 0
M  V30 8619 N 801.13 -1.57531 -0.0467866 0
M  V30 8620 C 802.358 -1.92696 -0.753371 0
M  V30 8621 C 802.773 -0.824792 -1.69831 0
M  V30 8622 O 802.13 0.200155 -1.81399 0
M  V30 8623 C 802.181 -3.27728 -1.52566 0
M  V30 8624 O 801.902 -4.3371 -0.618674 0
M  V30 8625 C 803.403 -3.77066 -2.33101 0
M  V30 8626 H 800.623 -0.636367 -0.212788 0
M  V30 8627 H 803.167 -2.04498 -0.00959361 0
M  V30 8628 H 801.322 -3.17378 -2.22148 0
M  V30 8629 H 801.736 -5.11548 -1.15839 0
M  V30 8630 H 803.21 -4.74109 -2.82709 0
M  V30 8631 H 803.687 -3.07348 -3.13741 0
M  V30 8632 H 804.293 -3.90442 -1.68628 0
M  V30 8633 N 802.608 0.318715 -1.54344 0
M  V30 8634 C 803.555 1.39242 -1.84066 0
M  V30 8635 C 804.525 1.51175 -0.688134 0
M  V30 8636 O 805.71 1.66318 -0.935039 0
M  V30 8637 C 802.85 2.75528 -2.07794 0
M  V30 8638 C 801.963 2.72187 -3.35467 0
M  V30 8639 C 801.098 4.00352 -3.4913 0
M  V30 8640 C 800.137 3.91338 -4.7066 0
M  V30 8641 N 799.274 5.11242 -4.81224 0
M  V30 8642 H 804.114 1.13196 -2.75664 0
M  V30 8643 H 801.651 0.547857 -1.36517 0
M  V30 8644 H 803.609 3.54763 -2.19543 0
M  V30 8645 H 802.239 2.99873 -1.19482 0
M  V30 8646 H 801.291 1.84917 -3.3243 0
M  V30 8647 H 802.603 2.61411 -4.24812 0
M  V30 8648 H 801.757 4.88019 -3.60448 0
M  V30 8649 H 800.496 4.1394 -2.57886 0
M  V30 8650 H 799.501 3.02055 -4.59394 0
M  V30 8651 H 800.726 3.7931 -5.63294 0
M  V30 8652 H 798.672 5.25327 -3.92897 0
M  V30 8653 H 798.589 5.0282 -5.64543 0
M  V30 8654 H 799.857 6.0061 -4.96879 0
M  V30 8655 N 804.086 1.46499 0.581025 0
M  V30 8656 C 805.034 1.57562 1.71105 0
M  V30 8657 C 806.028 0.44403 1.63477 0
M  V30 8658 O 807.234 0.620964 1.6895 0
M  V30 8659 H 803.609 0.495415 0.565746 0
M  V30 8660 H 805.58 2.5257 1.58905 0
M  V30 8661 C 804.329 1.58465 3.0949 0
M  V30 8662 H 803.652 2.44877 3.16031 0
M  V30 8663 H 805.092 1.70261 3.88313 0
M  V30 8664 C 803.551 0.313596 3.35437 0
M  V30 8665 O 804.081 -0.595456 3.97262 0
M  V30 8666 N 802.287 0.200986 2.89904 0
M  V30 8667 H 801.834 0.941643 2.39773 0
M  V30 8668 H 801.792 -0.648577 3.07638 0
M  V30 8669 N 805.565 -0.825799 1.34232 0
M  V30 8670 C 806.976 -1.39835 1.23706 0
M  V30 8671 C 807.327 -1.95709 -0.138649 0
M  V30 8672 O 806.452 -1.89833 -1.03886 0
M  V30 8673 C 807.047 -2.54203 2.23978 0
M  V30 8674 C 805.606 -3.07374 2.17251 0
M  V30 8675 C 804.753 -1.80232 2.10741 0
M  V30 8676 H 807.704 -0.630442 1.4564 0
M  V30 8677 H 807.725 -3.32214 1.8551 0
M  V30 8678 H 807.237 -2.13506 3.24094 0
M  V30 8679 H 805.338 -3.52583 1.20483 0
M  V30 8680 H 805.451 -3.6666 3.08379 0
M  V30 8681 H 803.815 -2.01012 1.56417 0
M  V30 8682 H 804.598 -1.41713 3.12686 0
M  V30 8683 N 807.043 -1.17915 -1.04565 0
M  V30 8684 C 808.292 -0.965816 -1.77073 0
M  V30 8685 C 808.605 0.506005 -1.88942 0
M  V30 8686 O 809.811 0.837717 -2.58253 0
M  V30 8687 C 808.267 -1.67894 -3.18339 0
M  V30 8688 C 807.875 -3.18972 -3.1458 0
M  V30 8689 C 809.619 -1.54823 -3.9526 0
M  V30 8690 C 807.526 -3.82946 -4.50674 0
M  V30 8691 H 806.456 -0.357729 -0.663736 0
M  V30 8692 H 809.107 -1.41235 -1.17153 0
M  V30 8693 H 807.489 -1.16016 -3.78624 0
M  V30 8694 H 808.663 -3.77835 -2.63776 0
M  V30 8695 H 806.978 -3.32127 -2.51159 0
M  V30 8696 H 809.575 -1.99984 -4.95894 0
M  V30 8697 H 809.918 -0.499727 -4.1329 0
M  V30 8698 H 810.451 -2.03953 -3.41538 0
M  V30 8699 H 807.19 -4.8782 -4.37849 0
M  V30 8700 H 806.71 -3.2887 -5.01602 0
M  V30 8701 H 808.389 -3.85518 -5.196 0
M  V30 8702 N 808.521 1.23394 -0.980386 0
M  V30 8703 C 809.798 1.87242 -0.565667 0
M  V30 8704 C 810.178 1.88151 0.957197 0
M  V30 8705 O 809.526 1.36309 1.8339 0
M  V30 8706 C 809.736 3.28743 -1.17172 0
M  V30 8707 C 811.084 4.05335 -1.26446 0
M  V30 8708 O 812.108 3.37962 -1.12517 0
M  V30 8709 O 810.967 5.25908 -1.48604 0
M  V30 8710 H 808.061 0.80477 -0.190459 0
M  V30 8711 H 810.607 1.3127 -1.07547 0
M  V30 8712 H 809.379 3.22647 -2.21392 0
M  V30 8713 H 809.002 3.92305 -0.646739 0
M  V30 8714 N 809.999 0.752036 1.385 0
M  V30 8715 C 810.946 0.123288 2.3047 0
M  V30 8716 C 811.916 -0.711326 1.50098 0
M  V30 8717 O 813.101 -0.667775 1.78733 0
M  V30 8718 C 810.241 -0.765085 3.36512 0
M  V30 8719 C 809.354 0.0839885 4.31918 0
M  V30 8720 C 808.489 -0.807243 5.25031 0
M  V30 8721 C 807.528 0.0455583 6.12083 0
M  V30 8722 N 806.665 -0.802547 6.97498 0
M  V30 8723 H 811.505 0.913169 2.83664 0
M  V30 8724 H 809.042 0.46195 1.39658 0
M  V30 8725 H 811 -1.29476 3.966 0
M  V30 8726 H 809.63 -1.52077 2.84732 0
M  V30 8727 H 808.682 0.731276 3.73305 0
M  V30 8728 H 809.994 0.74265 4.9324 0
M  V30 8729 H 809.148 -1.40414 5.90228 0
M  V30 8730 H 807.887 -1.49964 4.64071 0
M  V30 8731 H 806.892 0.655137 5.45883 0
M  V30 8732 H 808.117 0.734994 6.75111 0
M  V30 8733 H 806.063 -1.47992 6.39089 0
M  V30 8734 H 805.98 -0.200747 7.55733 0
M  V30 8735 H 807.248 -1.38447 7.67107 0
M  V30 8736 N 811.477 -1.49425 0.500989 0
M  V30 8737 C 812.754 -1.9531 -0.106551 0
M  V30 8738 C 813.134 -1.44248 -1.54129 0
M  V30 8739 O 812.482 -0.656237 -2.18874 0
M  V30 8740 C 812.692 -3.48995 -0.0191972 0
M  V30 8741 C 814.04 -4.24161 -0.193129 0
M  V30 8742 O 815.064 -3.56075 -0.0943843 0
M  V30 8743 O 813.923 -5.45064 -0.395869 0
M  V30 8744 H 811.017 -0.82149 -0.0953068 0
M  V30 8745 H 813.563 -1.6007 0.563526 0
M  V30 8746 H 812.335 -3.78794 0.981353 0
M  V30 8747 H 811.958 -3.90852 -0.72942 0
M  V30 8748 N 812.955 -0.234822 -1.55841 0
M  V30 8749 C 813.902 0.6698 -2.20867 0
M  V30 8750 C 814.872 1.18042 -1.16856 0
M  V30 8751 O 816.057 1.23709 -1.45261 0
M  V30 8752 C 813.197 1.86646 -2.90271 0
M  V30 8753 C 812.31 1.39351 -4.08908 0
M  V30 8754 C 811.445 2.54878 -4.66059 0
M  V30 8755 C 810.484 2.04384 -5.76969 0
M  V30 8756 N 809.621 3.13233 -6.28355 0
M  V30 8757 H 814.461 0.10858 -2.97802 0
M  V30 8758 H 811.998 0.041836 -1.4704 0
M  V30 8759 H 813.956 2.56926 -3.28702 0
M  V30 8760 H 812.586 2.40035 -2.15831 0
M  V30 8761 H 811.638 0.585173 -3.75872 0
M  V30 8762 H 812.95 0.983356 -4.89011 0
M  V30 8763 H 812.104 3.33219 -5.07001 0
M  V30 8764 H 810.843 2.99188 -3.85146 0
M  V30 8765 H 809.848 1.24509 -5.35516 0
M  V30 8766 H 811.073 1.61057 -6.59725 0
M  V30 8767 H 809.019 3.57 -5.50352 0
M  V30 8768 H 808.936 2.76511 -7.03618 0
M  V30 8769 H 810.204 3.91669 -6.73955 0
M  V30 8770 N 814.433 1.57553 0.0384317 0
M  V30 8771 C 815.366 2.01307 1.07475 0
M  V30 8772 C 816.344 0.895717 1.35704 0
M  V30 8773 O 817.528 1.16079 1.48519 0
M  V30 8774 C 814.655 2.37817 2.41165 0
M  V30 8775 C 813.701 3.599 2.28855 0
M  V30 8776 S 814.534 5.09418 1.65086 0
M  V30 8777 C 815.69 5.49162 3.00286 0
M  V30 8778 H 815.923 2.88892 0.702034 0
M  V30 8779 H 813.456 1.52394 0.248103 0
M  V30 8780 H 815.414 2.59524 3.18053 0
M  V30 8781 H 814.075 1.507 2.75587 0
M  V30 8782 H 813.268 3.83071 3.27525 0
M  V30 8783 H 812.87 3.37996 1.60109 0
M  V30 8784 H 815.162 5.49274 3.96617 0
M  V30 8785 H 816.105 6.49586 2.81858 0
M  V30 8786 H 816.513 4.76653 3.02427 0
M  V30 8787 N 815.911 -0.310526 1.54511 0
M  V30 8788 C 816.843 -1.40405 1.8116 0
M  V30 8789 C 817.856 -1.47261 0.694114 0
M  V30 8790 O 819.045 -1.49751 0.971441 0
M  V30 8791 C 816.145 -2.78849 1.92604 0
M  V30 8792 C 815.318 -2.95041 3.22908 0
M  V30 8793 C 814.377 -4.13925 3.24889 0
M  V30 8794 O 813.403 -4.06463 3.98467 0
M  V30 8795 N 814.605 -5.24099 2.496 0
M  V30 8796 H 817.37 -1.17903 2.75534 0
M  V30 8797 H 814.931 -0.500564 1.53967 0
M  V30 8798 H 816.923 -3.5661 1.91342 0
M  V30 8799 H 815.493 -2.94342 1.05268 0
M  V30 8800 H 814.713 -2.04472 3.37023 0
M  V30 8801 H 816.001 -3.02763 4.08916 0
M  V30 8802 H 815.399 -5.33039 1.89435 0
M  V30 8803 H 813.956 -6.0023 2.54102 0
M  V30 8804 N 817.389 -1.46805 -0.573248 0
M  V30 8805 C 818.617 -1.56191 -1.3569 0
M  V30 8806 C 819.032 -0.206362 -1.87669 0
M  V30 8807 O 818.389 0.797883 -1.64134 0
M  V30 8808 C 818.44 -2.57433 -2.53792 0
M  V30 8809 O 818.161 -3.87724 -2.03965 0
M  V30 8810 C 819.662 -2.76851 -3.4622 0
M  V30 8811 H 816.882 -0.527907 -0.414192 0
M  V30 8812 H 819.426 -1.92292 -0.695989 0
M  V30 8813 H 817.581 -2.24311 -3.15854 0
M  V30 8814 H 817.995 -4.42909 -2.80948 0
M  V30 8815 H 819.469 -3.5159 -4.25545 0
M  V30 8816 H 819.946 -1.84095 -3.98755 0
M  V30 8817 H 820.552 -3.11107 -2.89987 0
M  V30 8818 N 818.867 0.818669 -1.34668 0
M  V30 8819 C 819.8 1.93516 -1.20941 0
M  V30 8820 C 820.778 1.62292 -0.100061 0
M  V30 8821 O 821.962 1.86614 -0.265983 0
M  V30 8822 C 819.089 3.27612 -0.859524 0
M  V30 8823 C 818.135 3.77794 -1.97923 0
M  V30 8824 S 818.968 3.97043 -3.59329 0
M  V30 8825 C 820.124 5.3406 -3.2639 0
M  V30 8826 H 820.357 2.04864 -2.15449 0
M  V30 8827 H 817.89 0.974716 -1.19744 0
M  V30 8828 H 819.848 4.05087 -0.664444 0
M  V30 8829 H 818.509 3.14028 0.0672835 0
M  V30 8830 H 817.702 4.74883 -1.68827 0
M  V30 8831 H 817.304 3.0728 -2.13202 0
M  V30 8832 H 819.596 6.17626 -2.78469 0
M  V30 8833 H 820.539 5.68143 -4.22634 0
M  V30 8834 H 820.947 4.99773 -2.62464 0
M  V30 8835 N 820.346 1.18468 1.03938 0
M  V30 8836 C 821.576 1.0043 1.80547 0
M  V30 8837 C 821.984 -0.450407 1.83761 0
M  V30 8838 O 821.327 -1.32463 1.27276 0
M  V30 8839 C 821.389 1.48437 3.27424 0
M  V30 8840 C 821.053 2.96372 3.47869 0
M  V30 8841 C 822.05 3.94217 3.38953 0
M  V30 8842 C 819.735 3.34831 3.74424 0
M  V30 8843 C 821.729 5.28517 3.56298 0
M  V30 8844 C 819.416 4.69294 3.91416 0
M  V30 8845 C 820.414 5.65946 3.82354 0
M  V30 8846 O 820.102 6.97974 3.98858 0
M  V30 8847 H 819.834 0.354853 0.575374 0
M  V30 8848 H 822.388 1.57473 1.31876 0
M  V30 8849 H 820.618 0.857601 3.7707 0
M  V30 8850 H 822.307 1.2677 3.85596 0
M  V30 8851 H 823.073 3.6585 3.184 0
M  V30 8852 H 818.952 2.60161 3.80575 0
M  V30 8853 H 822.496 6.03943 3.49141 0
M  V30 8854 H 818.393 4.97361 4.11463 0
M  V30 8855 H 819.161 7.04895 4.1601 0
M  V30 8856 N 821.824 -1.22873 0.986916 0
M  V30 8857 C 822.774 -2.2237 0.503547 0
M  V30 8858 C 823.758 -1.55186 -0.424998 0
M  V30 8859 O 824.95 -1.75186 -0.252791 0
M  V30 8860 C 822.079 -3.42794 -0.186355 0
M  V30 8861 C 821.165 -4.17196 0.762143 0
M  V30 8862 N 821.556 -4.68453 1.9075 0
M  V30 8863 C 819.854 -4.42255 0.576797 0
M  V30 8864 C 820.555 -5.25126 2.50235 0
M  V30 8865 N 819.531 -5.13437 1.7856 0
M  V30 8866 H 823.333 -2.59636 1.37718 0
M  V30 8867 H 820.847 -1.38476 0.848415 0
M  V30 8868 H 822.844 -4.13256 -0.549993 0
M  V30 8869 H 821.504 -3.07042 -1.05619 0
M  V30 8870 H 822.515 -4.64595 2.28848 0
M  V30 8871 H 819.192 -4.16766 -0.247474 0
M  V30 8872 H 820.582 -5.75363 3.46997 0
M  V30 8873 N 823.302 -0.75937 -1.38099 0
M  V30 8874 C 824.548 -0.327559 -2.00745 0
M  V30 8875 C 824.903 1.08042 -1.592 0
M  V30 8876 O 824.196 1.7306 -0.822236 0
M  V30 8877 C 824.39 -0.394999 -3.55211 0
M  V30 8878 C 824.219 -1.80798 -4.11755 0
M  V30 8879 C 822.989 -2.42585 -4.43262 0
M  V30 8880 C 825.187 -2.76556 -4.33614 0
M  V30 8881 N 823.169 -3.75784 -4.85448 0
M  V30 8882 C 824.54 -3.94532 -4.78273 0
M  V30 8883 C 826.595 -2.74004 -4.15724 0
M  V30 8884 C 825.298 -5.10322 -5.06916 0
M  V30 8885 C 827.324 -3.88957 -4.45496 0
M  V30 8886 C 826.686 -5.05672 -4.90383 0
M  V30 8887 H 822.785 -0.166644 -0.764038 0
M  V30 8888 H 825.369 -0.99056 -1.67619 0
M  V30 8889 H 823.54 0.237761 -3.87672 0
M  V30 8890 H 825.272 0.0576828 -4.04659 0
M  V30 8891 H 822.027 -1.94302 -4.31907 0
M  V30 8892 H 822.451 -4.44234 -5.10867 0
M  V30 8893 H 827.093 -1.84948 -3.80203 0
M  V30 8894 H 824.811 -5.99988 -5.41332 0
M  V30 8895 H 828.397 -3.88308 -4.33253 0
M  V30 8896 H 827.277 -5.93146 -5.1298 0
M  V30 8897 N 824.78 1.49157 -0.508906 0
M  V30 8898 C 826.029 2.0167 0.0346854 0
M  V30 8899 C 826.342 1.39302 1.37311 0
M  V30 8900 O 827.548 1.83189 2.00385 0
M  V30 8901 C 826.004 3.59725 0.112261 0
M  V30 8902 C 825.612 4.31069 -1.21999 0
M  V30 8903 C 827.356 4.20155 0.605798 0
M  V30 8904 C 825.263 5.81001 -1.10415 0
M  V30 8905 H 824.193 0.753814 0.0167355 0
M  V30 8906 H 826.844 1.7162 -0.649518 0
M  V30 8907 H 825.226 3.86525 0.861087 0
M  V30 8908 H 826.4 4.15962 -1.98273 0
M  V30 8909 H 824.715 3.82418 -1.64759 0
M  V30 8910 H 827.312 5.29964 0.710102 0
M  V30 8911 H 827.655 3.84051 1.60656 0
M  V30 8912 H 828.188 3.97705 -0.0867239 0
M  V30 8913 H 824.927 6.21643 -2.07941 0
M  V30 8914 H 824.447 5.9858 -0.382428 0
M  V30 8915 H 826.126 6.42207 -0.786116 0
M  V30 8916 N 826.258 0.243083 1.55714 0
M  V30 8917 C 827.535 -0.432851 1.90751 0
M  V30 8918 C 827.915 -1.76153 1.16333 0
M  V30 8919 O 827.263 -2.26783 0.279565 0
M  V30 8920 C 827.473 -0.604685 3.43722 0
M  V30 8921 C 828.821 -0.90231 4.14902 0
M  V30 8922 O 829.845 -0.690689 3.49439 0
M  V30 8923 O 828.704 -1.3051 5.30688 0
M  V30 8924 H 825.798 -0.231835 0.79384 0
M  V30 8925 H 828.344 0.286867 1.67258 0
M  V30 8926 H 827.116 0.331655 3.89892 0
M  V30 8927 H 826.739 -1.37509 3.73065 0
M  V30 8928 N 827.736 -1.57571 -0.0300757 0
M  V30 8929 C 828.683 -2.06492 -1.03101 0
M  V30 8930 C 829.653 -0.953862 -1.3598 0
M  V30 8931 O 830.838 -1.22436 -1.46335 0
M  V30 8932 C 827.978 -2.54826 -2.32718 0
M  V30 8933 C 827.091 -3.79718 -2.06006 0
M  V30 8934 C 826.226 -4.16668 -3.29487 0
M  V30 8935 C 825.265 -5.3448 -2.98324 0
M  V30 8936 N 824.402 -5.66867 -4.14254 0
M  V30 8937 H 829.242 -2.91755 -0.606877 0
M  V30 8938 H 826.779 -1.44252 -0.288038 0
M  V30 8939 H 828.737 -2.80916 -3.08451 0
M  V30 8940 H 827.367 -1.72481 -2.72856 0
M  V30 8941 H 826.419 -3.60718 -1.20774 0
M  V30 8942 H 827.731 -4.65569 -1.79017 0
M  V30 8943 H 826.885 -4.43881 -4.13588 0
M  V30 8944 H 825.624 -3.29466 -3.59588 0
M  V30 8945 H 824.629 -5.07021 -2.12625 0
M  V30 8946 H 825.854 -6.23334 -2.69502 0
M  V30 8947 H 823.8 -4.82625 -4.44308 0
M  V30 8948 H 823.717 -6.47226 -3.90685 0
M  V30 8949 H 824.985 -5.98656 -4.99231 0
M  V30 8950 N 829.214 0.302327 -1.54673 0
M  V30 8951 C 830.439 1.06103 -1.78205 0
M  V30 8952 C 830.864 1.80204 -0.53926 0
M  V30 8953 O 830.222 1.73975 0.510142 0
M  V30 8954 C 830.27 2.01829 -2.98827 0
M  V30 8955 O 829.374 3.10108 -2.71858 0
M  V30 8956 H 828.715 0.30487 -0.589873 0
M  V30 8957 H 831.245 0.340153 -2.01753 0
M  V30 8958 H 831.255 2.44319 -3.2676 0
M  V30 8959 H 829.93 1.473 -3.88942 0
M  V30 8960 H 828.507 2.72142 -2.54937 0
M  V30 8961 N 830.692 1.47107 0.565454 0
M  V30 8962 C 831.939 1.53308 1.32299 0
M  V30 8963 C 832.267 0.1919 1.93551 0
M  V30 8964 O 831.522 -0.81435 1.77952 0
M  V30 8965 C 831.821 2.59309 2.45954 0
M  V30 8966 C 831.487 4.02827 2.02586 0
M  V30 8967 C 830.149 4.41897 1.90474 0
M  V30 8968 C 832.501 4.92913 1.6937 0
M  V30 8969 C 829.829 5.68898 1.4343 0
M  V30 8970 C 832.181 6.20368 1.238 0
M  V30 8971 C 830.845 6.58327 1.10278 0
M  V30 8972 H 830.115 0.560993 0.484116 0
M  V30 8973 H 832.762 1.80667 0.634965 0
M  V30 8974 H 831.067 2.25676 3.20277 0
M  V30 8975 H 832.764 2.61332 3.04149 0
M  V30 8976 H 829.354 3.71953 2.12952 0
M  V30 8977 H 833.538 4.63433 1.77605 0
M  V30 8978 H 828.794 5.97065 1.31618 0
M  V30 8979 H 832.968 6.89589 0.971586 0
M  V30 8980 H 830.595 7.56628 0.736027 0
M  V30 8981 N 832.17 -0.811516 1.35101 0
M  V30 8982 C 833.133 -1.90467 1.27495 0
M  V30 8983 C 834.133 -1.59703 0.187516 0
M  V30 8984 O 835.323 -1.68528 0.440896 0
M  V30 8985 C 832.455 -3.26774 0.971154 0
M  V30 8986 H 833.648 -1.98631 2.2469 0
M  V30 8987 H 831.201 -1.00681 1.19553 0
M  V30 8988 H 831.936 -3.243 0.0028557 0
M  V30 8989 H 831.721 -3.50488 1.75785 0
M  V30 8990 H 833.211 -4.06804 0.943414 0
M  V30 8991 N 833.648 -1.19017 -1.03309 0
M  V30 8992 C 835.059 -0.993206 -1.5809 0
M  V30 8993 C 835.41 0.45505 -1.9085 0
M  V30 8994 O 834.535 1.33372 -1.70414 0
M  V30 8995 C 835.13 -1.79661 -2.87241 0
M  V30 8996 C 833.689 -1.64377 -3.38611 0
M  V30 8997 C 832.836 -1.78628 -2.12102 0
M  V30 8998 H 835.787 -1.3345 -0.858879 0
M  V30 8999 H 835.808 -1.29019 -3.57958 0
M  V30 9000 H 835.32 -2.85061 -2.63366 0
M  V30 9001 H 833.421 -0.615447 -3.67482 0
M  V30 9002 H 833.534 -2.44651 -4.11926 0
M  V30 9003 H 831.898 -1.21648 -2.23772 0
M  V30 9004 H 832.681 -2.8548 -1.90673 0
M  V30 9005 N 835.127 1.22348 -0.993418 0
M  V30 9006 C 836.057 2.26584 -0.564088 0
M  V30 9007 C 837.038 1.65102 0.409298 0
M  V30 9008 O 838.223 1.91872 0.299819 0
M  V30 9009 C 835.353 3.47087 0.121554 0
M  V30 9010 C 834.307 4.21009 -0.770429 0
M  V30 9011 C 833.633 5.34678 0.0481586 0
M  V30 9012 C 834.933 4.79636 -2.06752 0
M  V30 9013 H 836.627 2.62749 -1.43538 0
M  V30 9014 H 834.173 1.26303 -0.691628 0
M  V30 9015 H 836.126 4.19166 0.433303 0
M  V30 9016 H 834.85 3.1002 1.0274 0
M  V30 9017 H 833.509 3.50764 -1.06583 0
M  V30 9018 H 833.157 4.93852 0.954933 0
M  V30 9019 H 832.857 5.85061 -0.545641 0
M  V30 9020 H 834.381 6.09573 0.353991 0
M  V30 9021 H 835.795 5.43654 -1.81969 0
M  V30 9022 H 834.192 5.4036 -2.61019 0
M  V30 9023 H 835.262 3.99659 -2.74592 0
M  V30 9024 N 836.605 0.766683 1.37694 0
M  V30 9025 C 837.535 0.163432 2.32927 0
M  V30 9026 C 838.516 -0.688861 1.55527 0
M  V30 9027 O 839.701 -0.627363 1.83787 0
M  V30 9028 C 836.831 -0.720416 3.39746 0
M  V30 9029 C 835.785 0.0301718 4.27989 0
M  V30 9030 C 835.111 -0.972788 5.25776 0
M  V30 9031 C 836.411 1.20623 5.0818 0
M  V30 9032 H 838.105 0.958988 2.83626 0
M  V30 9033 H 835.651 0.462601 1.36367 0
M  V30 9034 H 837.604 -1.15221 4.05342 0
M  V30 9035 H 836.328 -1.54844 2.8756 0
M  V30 9036 H 834.987 0.442685 3.63917 0
M  V30 9037 H 834.635 -1.79522 4.69873 0
M  V30 9038 H 834.335 -0.475145 5.85676 0
M  V30 9039 H 835.859 -1.40362 5.94248 0
M  V30 9040 H 837.273 0.851341 5.66944 0
M  V30 9041 H 835.67 1.63561 5.7738 0
M  V30 9042 H 836.74 2.01281 4.41151 0
M  V30 9043 N 838.083 -1.48885 0.516809 0
M  V30 9044 C 839.329 -2.02788 -0.0220928 0
M  V30 9045 C 839.662 -1.39433 -1.35175 0
M  V30 9046 O 838.937 -0.535459 -1.86984 0
M  V30 9047 C 839.22 -3.59753 -0.158012 0
M  V30 9048 C 839.073 -4.33611 1.19588 0
M  V30 9049 C 840.392 -4.30984 -0.891133 0
M  V30 9050 H 837.511 -0.736971 -0.00655488 0
M  V30 9051 H 840.153 -1.77746 0.671287 0
M  V30 9052 H 838.303 -3.8122 -0.748568 0
M  V30 9053 H 839.975 -4.23598 1.82653 0
M  V30 9054 H 838.218 -3.95547 1.78116 0
M  V30 9055 H 838.889 -5.41846 1.05391 0
M  V30 9056 H 841.365 -4.14267 -0.39012 0
M  V30 9057 H 840.241 -5.40527 -0.955107 0
M  V30 9058 H 840.502 -3.97336 -1.93847 0
M  V30 9059 N 839.561 -0.251338 -1.55583 0
M  V30 9060 C 840.509 0.662534 -2.22965 0
M  V30 9061 C 841.503 1.17662 -1.21869 0
M  V30 9062 O 842.709 1.133 -1.39868 0
M  V30 9063 H 839.084 0.232151 -0.715269 0
M  V30 9064 H 841.055 0.0711252 -2.98315 0
M  V30 9065 C 839.804 1.84646 -2.94621 0
M  V30 9066 H 839.127 1.46003 -3.72187 0
M  V30 9067 H 840.567 2.46303 -3.45124 0
M  V30 9068 C 839.026 2.72034 -1.98744 0
M  V30 9069 O 839.556 3.71695 -1.52335 0
M  V30 9070 N 837.762 2.38695 -1.6575 0
M  V30 9071 H 837.309 1.57702 -2.03685 0
M  V30 9072 H 837.267 2.9744 -1.01867 0
M  V30 9073 N 841.039 1.57585 0.0217189 0
M  V30 9074 C 842.287 1.89231 0.709641 0
M  V30 9075 C 842.608 0.849964 1.75501 0
M  V30 9076 O 841.878 -0.115485 1.95559 0
M  V30 9077 H 840.458 0.69838 0.265092 0
M  V30 9078 H 843.12 1.94895 -0.0140688 0
M  V30 9079 H 842.216 2.88333 1.19459 0
M  V30 9080 N 842.517 -0.29412 1.54831 0
M  V30 9081 C 843.427 -1.3854 1.89325 0
M  V30 9082 C 844.443 -1.55127 0.788133 0
M  V30 9083 O 845.619 -1.6966 1.08524 0
M  V30 9084 C 842.684 -2.72809 2.13954 0
M  V30 9085 C 841.745 -2.65148 3.37631 0
M  V30 9086 C 840.978 -3.93014 3.61076 0
M  V30 9087 O 841.201 -4.927 2.87406 0
M  V30 9088 O 840.135 -3.94491 4.54599 0
M  V30 9089 H 843.961 -1.12289 2.82179 0
M  V30 9090 H 841.546 -0.490793 1.41108 0
M  V30 9091 H 843.428 -3.52238 2.31315 0
M  V30 9092 H 842.103 -2.9889 1.24285 0
M  V30 9093 H 841.01 -1.84168 3.25627 0
M  V30 9094 H 842.343 -2.4402 4.27452 0
M  V30 9095 N 843.995 -1.47404 -0.557645 0
M  V30 9096 C 844.925 -1.62736 -1.67449 0
M  V30 9097 C 845.906 -0.476824 -1.6328 0
M  V30 9098 O 847.091 -0.706108 -1.80908 0
M  V30 9099 C 844.221 -1.641 -3.06086 0
M  V30 9100 C 843.175 -2.78377 -3.25101 0
M  V30 9101 C 842.501 -2.64812 -4.6452 0
M  V30 9102 C 843.801 -4.19971 -3.10518 0
M  V30 9103 H 845.495 -2.56232 -1.54873 0
M  V30 9104 H 843.041 -1.23312 -0.743649 0
M  V30 9105 H 844.994 -1.73417 -3.84063 0
M  V30 9106 H 843.718 -0.671652 -3.19619 0
M  V30 9107 H 842.377 -2.6857 -2.49531 0
M  V30 9108 H 842.025 -1.65906 -4.74852 0
M  V30 9109 H 841.725 -3.41477 -4.78191 0
M  V30 9110 H 843.249 -2.76057 -5.44633 0
M  V30 9111 H 844.663 -4.30757 -3.78313 0
M  V30 9112 H 843.06 -4.97419 -3.35699 0
M  V30 9113 H 844.13 -4.38369 -2.0727 0
M  V30 9114 N 845.473 0.80434 -1.35529 0
M  V30 9115 C 846.406 1.92222 -1.22987 0
M  V30 9116 C 847.384 1.62177 -0.117269 0
M  V30 9117 O 848.568 1.86321 -0.285761 0
M  V30 9118 C 845.695 3.26682 -0.894223 0
M  V30 9119 C 844.741 3.75674 -2.01919 0
M  V30 9120 S 845.574 3.93209 -3.6352 0
M  V30 9121 C 846.73 5.30568 -3.32037 0
M  V30 9122 H 846.963 2.02567 -2.1761 0
M  V30 9123 H 844.496 0.961961 -1.20771 0
M  V30 9124 H 846.454 4.04359 -0.707371 0
M  V30 9125 H 845.115 3.14082 0.0339729 0
M  V30 9126 H 844.308 4.73065 -1.73854 0
M  V30 9127 H 843.91 3.05001 -2.16449 0
M  V30 9128 H 846.202 6.14637 -2.85004 0
M  V30 9129 H 847.145 5.63628 -4.28636 0
M  V30 9130 H 847.553 4.96961 -2.6775 0
M  V30 9131 N 846.951 1.19563 1.02676 0
M  V30 9132 C 848.228 0.908857 1.73203 0
M  V30 9133 C 848.608 -0.584928 2.02834 0
M  V30 9134 O 847.956 -1.54372 1.68469 0
M  V30 9135 C 848.166 1.77105 3.00724 0
M  V30 9136 C 849.514 2.00667 3.7419 0
M  V30 9137 O 850.538 1.74274 3.10656 0
M  V30 9138 O 849.397 2.4518 4.88415 0
M  V30 9139 H 846.491 0.338909 0.754367 0
M  V30 9140 H 849.037 1.30387 1.08616 0
M  V30 9141 H 847.809 2.78303 2.7507 0
M  V30 9142 H 847.432 1.37546 3.73051 0
M  V30 9143 N 848.429 -1.21819 0.999893 0
M  V30 9144 C 849.362 -2.22635 0.500887 0
M  V30 9145 C 850.34 -1.56459 -0.442636 0
M  V30 9146 O 851.524 -1.84902 -0.366551 0
M  V30 9147 C 848.651 -3.37598 -0.273046 0
M  V30 9148 C 847.697 -4.22006 0.617511 0
M  V30 9149 S 848.53 -4.93583 2.07693 0
M  V30 9150 C 849.686 -6.1198 1.31269 0
M  V30 9151 H 849.919 -2.64618 1.35516 0
M  V30 9152 H 847.452 -1.31606 0.807419 0
M  V30 9153 H 849.41 -4.04251 -0.713515 0
M  V30 9154 H 848.071 -2.94108 -1.10268 0
M  V30 9155 H 847.264 -5.03995 0.0216543 0
M  V30 9156 H 846.866 -3.6052 0.99504 0
M  V30 9157 H 849.158 -6.74979 0.583933 0
M  V30 9158 H 850.101 -6.75991 2.10811 0
M  V30 9159 H 850.509 -5.5847 0.822901 0
M  V30 9160 N 849.908 -0.773975 -1.37286 0
M  V30 9161 C 851.133 -0.349561 -2.04433 0
M  V30 9162 C 851.558 1.02082 -1.5799 0
M  V30 9163 O 850.916 1.65458 -0.741172 0
M  V30 9164 C 850.964 -0.404292 -3.58326 0
M  V30 9165 O 850.068 0.594447 -4.08093 0
M  V30 9166 H 849.409 -0.150959 -0.646612 0
M  V30 9167 H 851.939 -1.05079 -1.75555 0
M  V30 9168 H 851.949 -0.262378 -4.07155 0
M  V30 9169 H 850.624 -1.40403 -3.91484 0
M  V30 9170 H 849.201 0.415468 -3.70578 0
M  V30 9171 N 851.386 1.48609 -0.524698 0
M  V30 9172 C 852.802 1.58557 -0.182199 0
M  V30 9173 C 853.002 1.52732 1.31435 0
M  V30 9174 O 852.058 1.41362 2.0922 0
M  V30 9175 C 853.371 2.90406 -0.78004 0
M  V30 9176 C 854.919 3.03924 -0.748293 0
M  V30 9177 C 855.394 4.38427 -1.32462 0
M  V30 9178 N 856.885 4.4498 -1.28635 0
M  V30 9179 C 857.62 5.47551 -1.70223 0
M  V30 9180 N 857.116 6.57103 -2.19515 0
M  V30 9181 N 858.909 5.38402 -1.61493 0
M  V30 9182 H 851.06 1.50638 -1.4974 0
M  V30 9183 H 853.323 0.714952 -0.622533 0
M  V30 9184 H 853.029 3.00308 -1.83052 0
M  V30 9185 H 852.903 3.76343 -0.254075 0
M  V30 9186 H 855.29 2.93638 0.293407 0
M  V30 9187 H 855.371 2.19611 -1.31167 0
M  V30 9188 H 855.015 4.49466 -2.36522 0
M  V30 9189 H 854.945 5.21418 -0.736967 0
M  V30 9190 H 857.436 3.66393 -0.92545 0
M  V30 9191 H 857.749 7.31499 -2.49257 0
M  V30 9192 H 856.094 6.58081 -2.23506 0
M  V30 9193 H 859.285 4.5171 -1.22785 0
M  V30 9194 H 859.458 6.18208 -1.94225 0
M  V30 9195 N 852.864 0.259585 1.55447 0
M  V30 9196 C 854.112 -0.360893 1.98852 0
M  V30 9197 C 854.433 -1.57535 1.14924 0
M  V30 9198 O 853.703 -1.94485 0.235025 0
M  V30 9199 H 852.283 -0.136332 0.734454 0
M  V30 9200 H 854.945 0.361319 1.91522 0
M  V30 9201 H 854.041 -0.661388 3.05012 0
M  V30 9202 N 854.342 -1.57594 -0.0133615 0
M  V30 9203 C 855.758 -1.5527 -0.369255 0
M  V30 9204 C 855.958 -0.987751 -1.7563 0
M  V30 9205 O 855.014 -0.615683 -2.44879 0
M  V30 9206 C 856.327 -2.99602 -0.25672 0
M  V30 9207 C 857.875 -3.11227 -0.332647 0
M  V30 9208 C 858.35 -4.57321 -0.249387 0
M  V30 9209 N 859.841 -4.62177 -0.3077 0
M  V30 9210 C 860.576 -5.72781 -0.26641 0
M  V30 9211 N 860.072 -6.92575 -0.176494 0
M  V30 9212 N 861.865 -5.61204 -0.317295 0
M  V30 9213 H 854.016 -1.92662 0.894154 0
M  V30 9214 H 856.279 -0.884352 0.341505 0
M  V30 9215 H 855.985 -3.44723 0.697072 0
M  V30 9216 H 855.859 -3.6246 -1.04415 0
M  V30 9217 H 858.246 -2.66045 -1.27688 0
M  V30 9218 H 858.327 -2.51171 0.484412 0
M  V30 9219 H 857.971 -5.03174 0.691242 0
M  V30 9220 H 857.901 -5.15306 -1.08476 0
M  V30 9221 H 860.392 -3.75994 -0.379069 0
M  V30 9222 H 860.705 -7.72653 -0.150518 0
M  V30 9223 H 859.05 -6.94854 -0.142314 0
M  V30 9224 H 862.241 -4.66509 -0.385643 0
M  V30 9225 H 862.414 -6.47388 -0.28165 0
M  V30 9226 N 855.82 0.285905 -1.54985 0
M  V30 9227 C 857.045 1.04207 -1.7932 0
M  V30 9228 C 857.47 1.79622 -0.558343 0
M  V30 9229 O 856.828 1.74506 0.491661 0
M  V30 9230 C 856.876 1.98648 -3.0095 0
M  V30 9231 O 855.98 3.07207 -2.75132 0
M  V30 9232 H 855.321 0.298596 -0.593074 0
M  V30 9233 H 857.851 0.318736 -2.02102 0
M  V30 9234 H 857.861 2.4084 -3.29333 0
M  V30 9235 H 856.536 1.43167 -3.90482 0
M  V30 9236 H 855.113 2.69423 -2.57809 0
M  V30 9237 N 857.298 1.47698 0.54982 0
M  V30 9238 C 858.547 1.53961 1.30303 0
M  V30 9239 C 858.86 0.209731 1.94472 0
M  V30 9240 O 860.066 0.150418 2.71083 0
M  V30 9241 C 858.522 2.71436 2.36328 0
M  V30 9242 C 858.13 4.10983 1.78316 0
M  V30 9243 C 859.874 2.86996 3.12783 0
M  V30 9244 C 857.781 5.19747 2.82164 0
M  V30 9245 H 856.711 0.573098 0.489975 0
M  V30 9246 H 859.362 1.73989 0.583089 0
M  V30 9247 H 857.744 2.44801 3.11269 0
M  V30 9248 H 858.918 4.47552 1.09697 0
M  V30 9249 H 857.233 4.00371 1.1442 0
M  V30 9250 H 859.83 3.65422 3.90347 0
M  V30 9251 H 860.173 1.95712 3.67427 0
M  V30 9252 H 860.706 3.13436 2.44954 0
M  V30 9253 H 857.445 6.12932 2.32366 0
M  V30 9254 H 856.965 4.87688 3.49171 0
M  V30 9255 H 858.644 5.47014 3.4552 0
M  V30 9256 N 858.776 -0.797141 1.35954 0
M  V30 9257 C 860.001 -1.59097 1.33053 0
M  V30 9258 C 860.426 -1.87897 -0.0874592 0
M  V30 9259 O 859.784 -1.47291 -1.05712 0
M  V30 9260 C 859.832 -2.89346 2.152 0
M  V30 9261 O 858.936 -3.826 1.5392 0
M  V30 9262 H 858.277 -0.482895 0.45575 0
M  V30 9263 H 860.807 -0.988633 1.79129 0
M  V30 9264 H 860.817 -3.38686 2.27499 0
M  V30 9265 H 859.492 -2.6771 3.18283 0
M  V30 9266 H 858.069 -3.41174 1.50516 0
M  V30 9267 N 860.254 -1.20106 -1.0204 0
M  V30 9268 C 861.67 -0.955099 -1.27867 0
M  V30 9269 C 861.87 0.367595 -1.98119 0
M  V30 9270 O 860.926 1.09705 -2.27423 0
M  V30 9271 C 862.239 -2.13507 -2.11744 0
M  V30 9272 C 863.787 -2.17563 -2.25023 0
M  V30 9273 C 864.262 -3.35035 -3.12275 0
M  V30 9274 N 865.753 -3.35024 -3.19864 0
M  V30 9275 C 866.488 -4.22566 -3.8759 0
M  V30 9276 N 865.984 -5.20278 -4.57474 0
M  V30 9277 N 867.777 -4.10418 -3.84075 0
M  V30 9278 H 859.928 -2.05193 -0.54861 0
M  V30 9279 H 862.191 -0.897689 -0.304728 0
M  V30 9280 H 861.897 -3.09275 -1.67456 0
M  V30 9281 H 861.771 -2.11281 -3.12474 0
M  V30 9282 H 864.158 -1.22359 -2.68537 0
M  V30 9283 H 864.239 -2.23838 -1.23815 0
M  V30 9284 H 863.883 -4.30522 -2.69468 0
M  V30 9285 H 863.813 -3.25996 -4.13563 0
M  V30 9286 H 866.304 -2.64299 -2.701 0
M  V30 9287 H 866.617 -5.83408 -5.06809 0
M  V30 9288 H 864.962 -5.24219 -4.56311 0
M  V30 9289 H 868.153 -3.33353 -3.28623 0
M  V30 9290 H 868.326 -4.78854 -4.36581 0
M  V30 9291 N 861.732 1.21287 -1.00634 0
M  V30 9292 C 862.695 2.21927 -0.572821 0
M  V30 9293 C 863.695 1.5691 0.351541 0
M  V30 9294 O 864.885 1.73623 0.141643 0
M  V30 9295 C 862.017 3.40501 0.164932 0
M  V30 9296 H 863.21 2.61795 -1.463 0
M  V30 9297 H 860.763 1.34571 -0.794998 0
M  V30 9298 H 861.498 3.06123 1.07049 0
M  V30 9299 H 861.283 3.88912 -0.498962 0
M  V30 9300 H 862.773 4.15103 0.455945 0
M  V30 9301 N 863.21 0.781244 1.36873 0
M  V30 9302 C 864.158 0.161889 2.32036 0
M  V30 9303 C 865.152 -0.674225 1.55405 0
M  V30 9304 O 866.358 -0.570223 1.70729 0
M  V30 9305 H 862.733 0.0335702 0.75125 0
M  V30 9306 H 864.704 0.980078 2.81846 0
M  V30 9307 C 863.453 -0.695352 3.40676 0
M  V30 9308 H 862.776 -0.0613425 3.99753 0
M  V30 9309 H 864.216 -1.09553 4.09602 0
M  V30 9310 C 862.675 -1.85008 2.81556 0
M  V30 9311 O 863.205 -2.94616 2.73065 0
M  V30 9312 N 861.411 -1.65364 2.38962 0
M  V30 9313 H 860.958 -0.762106 2.46068 0
M  V30 9314 H 860.916 -2.42789 1.99752 0
M  V30 9315 N 864.689 -1.48329 0.532571 0
M  V30 9316 C 865.914 -2.074 0.00147755 0
M  V30 9317 C 866.339 -1.38615 -1.27151 0
M  V30 9318 O 865.697 -0.452949 -1.75551 0
M  V30 9319 C 865.745 -3.60029 -0.202866 0
M  V30 9320 O 864.849 -3.92327 -1.27097 0
M  V30 9321 H 864.19 -0.662777 0.0402883 0
M  V30 9322 H 866.72 -1.90701 0.741224 0
M  V30 9323 H 866.73 -4.05783 -0.424722 0
M  V30 9324 H 865.405 -4.09496 0.727033 0
M  V30 9325 H 863.982 -3.58348 -1.03156 0
M  V30 9326 N 866.167 -0.267825 -1.55308 0
M  V30 9327 C 867.077 0.633055 -2.25897 0
M  V30 9328 C 868.093 1.17613 -1.28231 0
M  V30 9329 O 869.269 1.20797 -1.61153 0
M  V30 9330 C 866.334 1.80397 -2.96071 0
M  V30 9331 C 865.395 1.29829 -4.09198 0
M  V30 9332 C 864.628 2.4134 -4.76016 0
M  V30 9333 O 864.851 3.60537 -4.42006 0
M  V30 9334 O 863.785 2.09909 -5.64111 0
M  V30 9335 H 867.611 0.0614381 -3.03638 0
M  V30 9336 H 865.196 -0.0355072 -1.49358 0
M  V30 9337 H 867.078 2.48685 -3.40197 0
M  V30 9338 H 865.753 2.36281 -2.21253 0
M  V30 9339 H 864.66 0.582086 -3.69544 0
M  V30 9340 H 865.993 0.785288 -4.85895 0
M  V30 9341 N 867.645 1.57599 0.00500368 0
M  V30 9342 C 868.893 1.89973 0.68953 0
M  V30 9343 C 869.214 0.868531 1.7459 0
M  V30 9344 O 868.484 -0.0947367 1.95671 0
M  V30 9345 H 867.064 0.701153 0.25767 0
M  V30 9346 H 869.726 1.94869 -0.0347392 0
M  V30 9347 H 868.822 2.89584 1.16394 0
M  V30 9348 N 869.123 -0.277682 1.55134 0
M  V30 9349 C 870.073 -1.34531 1.8408 0
M  V30 9350 C 871.057 -1.44904 0.699393 0
M  V30 9351 O 872.249 -1.48664 0.960623 0
M  V30 9352 C 869.378 -2.7064 2.11208 0
M  V30 9353 C 868.464 -2.64396 3.31596 0
M  V30 9354 N 868.855 -2.2777 4.51613 0
M  V30 9355 C 867.153 -2.95464 3.34091 0
M  V30 9356 C 867.854 -2.31401 5.33693 0
M  V30 9357 N 866.83 -2.69688 4.71984 0
M  V30 9358 H 870.632 -1.05214 2.74421 0
M  V30 9359 H 868.146 -0.486311 1.54948 0
M  V30 9360 H 870.143 -3.47649 2.301 0
M  V30 9361 H 868.803 -3.00849 1.22148 0
M  V30 9362 H 869.814 -1.99827 4.77797 0
M  V30 9363 H 866.491 -3.30415 2.5521 0
M  V30 9364 H 867.881 -2.05685 6.39643 0
M  V30 9365 N 870.601 -1.47988 -0.541979 0
M  V30 9366 C 871.847 -1.55623 -1.30036 0
M  V30 9367 C 872.18 -0.224254 -1.92901 0
M  V30 9368 O 871.455 0.768629 -1.78668 0
M  V30 9369 C 871.738 -2.68562 -2.39888 0
M  V30 9370 C 871.591 -4.11426 -1.81792 0
M  V30 9371 C 872.91 -2.77325 -3.41729 0
M  V30 9372 H 870.029 -0.566498 -0.471433 0
M  V30 9373 H 872.671 -1.8011 -0.604998 0
M  V30 9374 H 870.821 -2.47814 -2.992 0
M  V30 9375 H 872.493 -4.43581 -1.26624 0
M  V30 9376 H 870.736 -4.18989 -1.12386 0
M  V30 9377 H 871.407 -4.8625 -2.61276 0
M  V30 9378 H 873.883 -2.96085 -2.92357 0
M  V30 9379 H 872.759 -3.58097 -4.16002 0
M  V30 9380 H 873.02 -1.84995 -4.01534 0
M  V30 9381 N 872.079 0.78992 -1.36375 0
M  V30 9382 C 873.042 1.88414 -1.30509 0
M  V30 9383 C 874.042 1.59384 -0.2129 0
M  V30 9384 O 875.232 1.67805 -0.467651 0
M  V30 9385 C 872.364 3.25188 -1.02302 0
M  V30 9386 H 873.557 1.95031 -2.27822 0
M  V30 9387 H 871.11 0.987664 -1.2114 0
M  V30 9388 H 871.845 3.24254 -0.0544486 0
M  V30 9389 H 871.63 3.47647 -1.81338 0
M  V30 9390 H 873.12 4.05252 -1.00801 0
M  V30 9391 N 873.557 1.20646 1.01402 0
M  V30 9392 C 874.52 0.959314 2.08158 0
M  V30 9393 C 875.52 -0.0661558 1.60664 0
M  V30 9394 O 876.71 0.170177 1.73367 0
M  V30 9395 C 873.842 0.444785 3.37986 0
M  V30 9396 H 875.035 1.90631 2.31517 0
M  V30 9397 H 872.588 1.02219 1.18241 0
M  V30 9398 H 873.323 -0.507553 3.20304 0
M  V30 9399 H 873.108 1.18435 3.73785 0
M  V30 9400 H 874.598 0.291443 4.16582 0
M  V30 9401 N 875.035 -1.20752 1.01276 0
M  V30 9402 C 876.281 -1.90302 0.700924 0
M  V30 9403 C 876.614 -1.78406 -0.767142 0
M  V30 9404 O 875.889 -1.16575 -1.55694 0
M  V30 9405 C 876.172 -3.41831 1.13242 0
M  V30 9406 C 876.025 -3.6268 2.66051 0
M  V30 9407 C 877.344 -4.34486 0.700738 0
M  V30 9408 H 874.463 -0.69107 0.256107 0
M  V30 9409 H 877.105 -1.42227 1.25982 0
M  V30 9410 H 875.255 -3.82906 0.656902 0
M  V30 9411 H 876.927 -3.30882 3.21426 0
M  V30 9412 H 875.17 -3.06281 3.07204 0
M  V30 9413 H 875.841 -4.68882 2.91296 0
M  V30 9414 H 878.317 -4.01036 1.10948 0
M  V30 9415 H 877.193 -5.39136 1.03073 0
M  V30 9416 H 877.454 -4.40307 -0.39778 0
M  V30 9417 N 876.513 -0.788492 -1.36457 0
M  V30 9418 C 877.423 -0.187385 -2.3385 0
M  V30 9419 C 878.439 0.659984 -1.60998 0
M  V30 9420 O 879.615 0.575986 -1.92988 0
M  V30 9421 C 876.68 0.668525 -3.40194 0
M  V30 9422 C 875.741 -0.197234 -4.28847 0
M  V30 9423 C 874.974 0.61792 -5.30111 0
M  V30 9424 O 875.197 1.85396 -5.3943 0
M  V30 9425 O 874.131 0.0183016 -6.01897 0
M  V30 9426 H 877.957 -0.992617 -2.87021 0
M  V30 9427 H 875.542 -0.549934 -1.3891 0
M  V30 9428 H 877.424 1.15663 -4.05216 0
M  V30 9429 H 876.099 1.45166 -2.89324 0
M  V30 9430 H 875.006 -0.73207 -3.66867 0
M  V30 9431 H 876.339 -0.943863 -4.83065 0
M  V30 9432 N 877.991 1.48044 -0.54043 0
M  V30 9433 C 879.237 2.02797 -0.0101718 0
M  V30 9434 C 879.57 1.41565 1.32939 0
M  V30 9435 O 878.845 0.565139 1.86109 0
M  V30 9436 C 879.128 3.59959 0.100758 0
M  V30 9437 C 878.981 4.31654 -1.26471 0
M  V30 9438 C 880.3 4.32347 0.822455 0
M  V30 9439 H 877.419 0.736982 -0.00517052 0
M  V30 9440 H 880.061 1.76656 -0.69948 0
M  V30 9441 H 878.211 3.82363 0.687824 0
M  V30 9442 H 879.883 4.20639 -1.89369 0
M  V30 9443 H 878.126 3.92663 -1.84386 0
M  V30 9444 H 878.797 5.401 -1.13998 0
M  V30 9445 H 881.273 4.14835 0.324164 0
M  V30 9446 H 880.149 5.41978 0.868993 0
M  V30 9447 H 880.41 4.00369 1.87501 0
M  V30 9448 N 879.47 0.276058 1.55163 0
M  V30 9449 C 880.4 -0.604633 2.25536 0
M  V30 9450 C 881.381 -1.15813 1.24585 0
M  V30 9451 O 882.566 -1.1921 1.53306 0
M  V30 9452 C 879.696 -1.78836 2.97716 0
M  V30 9453 C 878.65 -1.36635 4.05604 0
M  V30 9454 C 877.976 -2.63325 4.65364 0
M  V30 9455 C 879.276 -0.515858 5.19746 0
M  V30 9456 H 880.97 -0.0177483 2.99395 0
M  V30 9457 H 878.516 -0.00709627 1.43998 0
M  V30 9458 H 880.469 -2.41036 3.45658 0
M  V30 9459 H 879.193 -2.40109 2.21394 0
M  V30 9460 H 877.852 -0.767541 3.58475 0
M  V30 9461 H 877.5 -3.22858 3.85709 0
M  V30 9462 H 877.2 -2.358 5.38212 0
M  V30 9463 H 878.724 -3.26372 5.16056 0
M  V30 9464 H 880.138 -1.04289 5.63735 0
M  V30 9465 H 878.535 -0.335449 5.99162 0
M  V30 9466 H 879.605 0.465137 4.82664 0
M  V30 9467 N 880.948 -1.576 0.00335426 0
M  V30 9468 C 882.364 -1.55653 -0.352766 0
M  V30 9469 C 882.564 -1.00632 -1.74572 0
M  V30 9470 O 881.62 -0.641621 -2.44212 0
M  V30 9471 C 882.933 -2.99858 -0.224929 0
M  V30 9472 C 884.481 -3.11563 -0.299619 0
M  V30 9473 C 884.956 -4.57559 -0.200868 0
M  V30 9474 N 886.447 -4.62477 -0.258663 0
M  V30 9475 C 887.182 -5.73031 -0.205644 0
M  V30 9476 N 886.678 -6.92723 -0.103027 0
M  V30 9477 N 888.471 -5.61509 -0.257754 0
M  V30 9478 H 880.622 -1.91703 0.914539 0
M  V30 9479 H 882.885 -0.88068 0.350865 0
M  V30 9480 H 882.591 -3.43964 0.733595 0
M  V30 9481 H 882.465 -3.63547 -1.00564 0
M  V30 9482 H 884.852 -2.67384 -1.24859 0
M  V30 9483 H 884.933 -2.50644 0.511025 0
M  V30 9484 H 884.577 -5.02413 0.744572 0
M  V30 9485 H 884.507 -5.16428 -1.03004 0
M  V30 9486 H 886.998 -3.76375 -0.339168 0
M  V30 9487 H 887.311 -7.7277 -0.0685593 0
M  V30 9488 H 885.656 -6.94966 -0.0686069 0
M  V30 9489 H 888.847 -4.66892 -0.336142 0
M  V30 9490 H 889.02 -6.4765 -0.21297 0
M  V30 9491 N 882.426 0.269451 -1.5528 0
M  V30 9492 C 883.674 0.998604 -1.75705 0
M  V30 9493 C 883.995 1.86691 -0.563175 0
M  V30 9494 O 883.265 1.91305 0.421811 0
M  V30 9495 H 881.845 0.371698 -0.647958 0
M  V30 9496 H 884.507 0.292826 -1.92688 0
M  V30 9497 H 883.603 1.63348 -2.6594 0
M  V30 9498 N 883.904 1.48273 0.534124 0
M  V30 9499 C 885.153 1.55334 1.28663 0
M  V30 9500 C 885.466 0.230345 1.94239 0
M  V30 9501 O 886.672 0.179161 2.70908 0
M  V30 9502 C 885.128 2.73927 2.33435 0
M  V30 9503 C 884.736 4.12852 1.73947 0
M  V30 9504 C 886.48 2.90298 3.09722 0
M  V30 9505 C 884.387 5.22711 2.76636 0
M  V30 9506 H 883.317 0.578262 0.483869 0
M  V30 9507 H 885.968 1.74598 0.564602 0
M  V30 9508 H 884.35 2.48089 3.08655 0
M  V30 9509 H 885.524 4.48691 1.04944 0
M  V30 9510 H 883.839 4.01562 1.10167 0
M  V30 9511 H 886.436 3.69542 3.86449 0
M  V30 9512 H 886.779 1.99598 3.6533 0
M  V30 9513 H 887.312 3.16017 2.41616 0
M  V30 9514 H 884.051 6.15362 2.25852 0
M  V30 9515 H 883.571 4.91364 3.43979 0
M  V30 9516 H 885.25 5.50648 3.39699 0
M  V30 9517 N 885.382 -0.782676 1.36792 0
M  V30 9518 C 886.332 -1.8855 1.28191 0
M  V30 9519 C 887.316 -1.59978 0.171984 0
M  V30 9520 O 888.508 -1.72295 0.405405 0
M  V30 9521 C 885.637 -3.25862 1.08021 0
M  V30 9522 C 884.723 -3.60422 2.2351 0
M  V30 9523 N 885.114 -3.66241 3.48857 0
M  V30 9524 C 883.412 -3.90523 2.15424 0
M  V30 9525 C 884.113 -3.97233 4.24948 0
M  V30 9526 N 883.089 -4.12567 3.53963 0
M  V30 9527 H 886.891 -1.91285 2.23131 0
M  V30 9528 H 884.405 -0.978554 1.29607 0
M  V30 9529 H 886.402 -4.04742 0.999458 0
M  V30 9530 H 885.062 -3.24399 0.139882 0
M  V30 9531 H 886.073 -3.48717 3.82906 0
M  V30 9532 H 882.75 -3.96945 1.29386 0
M  V30 9533 H 884.14 -4.08602 5.33379 0
M  V30 9534 N 886.86 -1.21182 -1.00761 0
M  V30 9535 C 888.276 -0.968607 -1.26847 0
M  V30 9536 C 888.476 0.346561 -1.98497 0
M  V30 9537 O 887.532 1.07287 -2.28573 0
M  V30 9538 C 888.845 -2.1574 -2.09467 0
M  V30 9539 C 890.393 -2.19937 -2.22703 0
M  V30 9540 C 890.868 -3.38328 -3.08704 0
M  V30 9541 N 892.359 -3.38398 -3.16293 0
M  V30 9542 C 893.094 -4.26653 -3.83086 0
M  V30 9543 N 892.59 -5.25101 -4.5193 0
M  V30 9544 N 894.383 -4.14469 -3.797 0
M  V30 9545 H 886.534 -2.05763 -0.526816 0
M  V30 9546 H 888.797 -0.90087 -0.29519 0
M  V30 9547 H 888.503 -3.11034 -1.64167 0
M  V30 9548 H 888.377 -2.14584 -3.10216 0
M  V30 9549 H 890.764 -1.25201 -2.67224 0
M  V30 9550 H 890.845 -2.25139 -1.21433 0
M  V30 9551 H 890.489 -4.33356 -2.64886 0
M  V30 9552 H 890.419 -3.30364 -4.10082 0
M  V30 9553 H 892.91 -2.67149 -2.67282 0
M  V30 9554 H 893.223 -5.8875 -5.00592 0
M  V30 9555 H 891.568 -5.29029 -4.50726 0
M  V30 9556 H 894.759 -3.3682 -3.25069 0
M  V30 9557 H 894.932 -4.83458 -4.31477 0
M  V30 9558 N 888.338 1.20213 -1.01915 0
M  V30 9559 C 889.587 1.88968 -0.705261 0
M  V30 9560 C 889.9 1.79869 0.768531 0
M  V30 9561 O 891.106 2.43783 1.19508 0
M  V30 9562 C 889.562 3.38911 -1.21109 0
M  V30 9563 C 889.17 3.5659 -2.71197 0
M  V30 9564 C 890.914 4.13204 -0.97275 0
M  V30 9565 C 888.821 5.00372 -3.15248 0
M  V30 9566 H 887.751 0.707715 -0.260107 0
M  V30 9567 H 890.402 1.35977 -1.23217 0
M  V30 9568 H 888.784 3.9124 -0.612152 0
M  V30 9569 H 889.958 3.14635 -3.36662 0
M  V30 9570 H 888.273 2.95671 -2.93202 0
M  V30 9571 H 890.87 5.19221 -1.27726 0
M  V30 9572 H 891.213 4.16201 0.09072 0
M  V30 9573 H 891.746 3.66983 -1.5352 0
M  V30 9574 H 888.485 5.02532 -4.20882 0
M  V30 9575 H 888.005 5.43127 -2.54505 0
M  V30 9576 H 889.684 5.68969 -3.08032 0
M  V30 9577 N 889.816 0.795718 1.36037 0
M  V30 9578 C 890.779 0.204318 2.28287 0
M  V30 9579 C 891.779 -0.602017 1.49105 0
M  V30 9580 O 892.969 -0.422089 1.69009 0
M  V30 9581 C 890.101 -0.716431 3.33287 0
M  V30 9582 H 891.294 1.01781 2.821 0
M  V30 9583 H 888.847 0.565588 1.45708 0
M  V30 9584 H 889.582 -1.55403 2.84641 0
M  V30 9585 H 889.367 -0.140096 3.9185 0
M  V30 9586 H 890.857 -1.12488 4.02164 0
M  V30 9587 N 891.294 -1.47756 0.548274 0
M  V30 9588 C 892.571 -1.9555 -0.0443603 0
M  V30 9589 C 892.951 -1.49079 -1.49462 0
M  V30 9590 O 892.299 -0.725538 -2.16675 0
M  V30 9591 C 892.509 -3.48879 0.0918425 0
M  V30 9592 C 893.857 -4.2456 -0.0580879 0
M  V30 9593 O 894.881 -3.56195 0.018946 0
M  V30 9594 O 893.74 -5.46048 -0.222261 0
M  V30 9595 H 890.834 -0.824106 -0.0691235 0
M  V30 9596 H 893.38 -1.58196 0.614166 0
M  V30 9597 H 892.152 -3.7548 1.10137 0
M  V30 9598 H 891.775 -3.92975 -0.604704 0
M  V30 9599 N 892.772 -0.284283 -1.55015 0
M  V30 9600 C 893.705 0.640779 -2.19019 0
M  V30 9601 C 894.683 1.14541 -1.15409 0
M  V30 9602 O 895.867 1.21669 -1.43975 0
M  V30 9603 C 892.994 1.87488 -2.82074 0
M  V30 9604 C 892.04 1.50494 -3.99066 0
M  V30 9605 S 892.873 0.575218 -5.32402 0
M  V30 9606 C 894.029 1.81749 -5.98931 0
M  V30 9607 H 894.262 0.0969761 -2.97142 0
M  V30 9608 H 891.795 -0.0684929 -1.54248 0
M  V30 9609 H 893.753 2.58319 -3.19032 0
M  V30 9610 H 892.414 2.38984 -2.03828 0
M  V30 9611 H 891.607 2.42349 -4.41908 0
M  V30 9612 H 891.209 0.876741 -3.63578 0
M  V30 9613 H 893.501 2.76026 -6.18721 0
M  V30 9614 H 894.444 1.43192 -6.93471 0
M  V30 9615 H 894.852 1.98661 -5.28388 0
M  V30 9616 N 894.251 1.57596 -0.0117121 0
M  V30 9617 C 895.476 1.95764 0.684938 0
M  V30 9618 C 895.901 0.887285 1.65858 0
M  V30 9619 O 895.259 -0.153508 1.80649 0
M  V30 9620 C 895.307 3.33031 1.38285 0
M  V30 9621 O 894.411 3.28163 2.49765 0
M  V30 9622 H 893.752 0.638767 0.181309 0
M  V30 9623 H 896.282 2.04486 -0.0683883 0
M  V30 9624 H 896.292 3.68866 1.74362 0
M  V30 9625 H 894.967 4.10483 0.669043 0
M  V30 9626 H 893.544 3.04021 2.15929 0
M  V30 9627 N 895.729 -0.261212 1.5542 0
M  V30 9628 C 896.639 -1.34493 1.92221 0
M  V30 9629 C 897.655 -1.53421 0.82086 0
M  V30 9630 O 898.831 -1.6732 1.12099 0
M  V30 9631 C 895.896 -2.68209 2.19692 0
M  V30 9632 C 894.957 -2.57927 3.43179 0
M  V30 9633 C 894.19 -3.85266 3.69331 0
M  V30 9634 O 894.413 -4.86493 2.97793 0
M  V30 9635 O 893.347 -3.8476 4.62865 0
M  V30 9636 H 897.173 -1.06278 2.84497 0
M  V30 9637 H 894.758 -0.460752 1.42118 0
M  V30 9638 H 896.64 -3.47252 2.38734 0
M  V30 9639 H 895.315 -2.96186 1.30597 0
M  V30 9640 H 894.222 -1.77219 3.2946 0
M  V30 9641 H 895.555 -2.34898 4.32532 0
M  V30 9642 N 897.207 -1.48554 -0.526253 0
M  V30 9643 C 898.455 -1.56452 -1.27935 0
M  V30 9644 C 898.776 -0.24184 -1.93495 0
M  V30 9645 O 898.046 0.736917 -1.81511 0
M  V30 9646 H 896.626 -0.576379 -0.47518 0
M  V30 9647 H 899.288 -1.85039 -0.612083 0
M  V30 9648 H 898.384 -2.34751 -2.05666 0
M  V30 9649 N 898.685 0.775411 -1.37205 0
M  V30 9650 C 899.595 1.91967 -1.34855 0
M  V30 9651 C 900.611 1.72214 -0.248656 0
M  V30 9652 O 901.787 1.95512 -0.483421 0
M  V30 9653 C 898.852 3.27038 -1.15096 0
M  V30 9654 C 897.913 3.5947 -2.34691 0
M  V30 9655 C 897.146 4.88097 -2.15865 0
M  V30 9656 O 897.369 5.58871 -1.14102 0
M  V30 9657 O 896.303 5.19507 -3.03967 0
M  V30 9658 H 900.129 1.969 -2.31223 0
M  V30 9659 H 897.714 0.917647 -1.17897 0
M  V30 9660 H 899.596 4.07837 -1.0605 0
M  V30 9661 H 898.271 3.22965 -0.217999 0
M  V30 9662 H 897.178 2.7892 -2.49308 0
M  V30 9663 H 898.511 3.68282 -3.26541 0
M  V30 9664 N 900.163 1.21714 1.00117 0
M  V30 9665 C 901.391 1.06278 1.77518 0
M  V30 9666 C 901.806 -0.387193 1.84787 0
M  V30 9667 O 901.163 -1.26854 1.31203 0
M  V30 9668 C 901.214 1.65795 3.21239 0
M  V30 9669 O 900.935 3.05119 3.14378 0
M  V30 9670 C 902.436 1.55521 4.15124 0
M  V30 9671 H 899.656 0.373013 0.557765 0
M  V30 9672 H 902.2 1.61133 1.25922 0
M  V30 9673 H 900.355 1.15022 3.69931 0
M  V30 9674 H 900.769 3.33643 4.04701 0
M  V30 9675 H 902.243 2.01902 5.13751 0
M  V30 9676 H 902.72 0.510307 4.36225 0
M  V30 9677 H 903.326 2.0556 3.72324 0
M  V30 9678 N 901.641 -1.19671 1.02551 0
M  V30 9679 C 902.588 -2.22773 0.603394 0
M  V30 9680 C 903.558 -1.61669 -0.381081 0
M  V30 9681 O 904.743 -1.88756 -0.278505 0
M  V30 9682 C 901.883 -3.45073 -0.0431034 0
M  V30 9683 C 900.996 -4.20574 0.987006 0
M  V30 9684 C 900.131 -5.30291 0.310626 0
M  V30 9685 C 899.17 -5.97545 1.32688 0
M  V30 9686 N 898.307 -6.98833 0.676542 0
M  V30 9687 H 903.147 -2.58238 1.48719 0
M  V30 9688 H 900.684 -1.26881 0.744286 0
M  V30 9689 H 902.642 -4.14925 -0.435141 0
M  V30 9690 H 901.272 -3.10274 -0.890495 0
M  V30 9691 H 900.324 -3.497 1.49713 0
M  V30 9692 H 901.636 -4.66736 1.75952 0
M  V30 9693 H 900.79 -6.06547 -0.136438 0
M  V30 9694 H 899.529 -4.8519 -0.49412 0
M  V30 9695 H 898.534 -5.20043 1.78424 0
M  V30 9696 H 899.759 -6.4473 2.13306 0
M  V30 9697 H 897.705 -6.55911 -0.108172 0
M  V30 9698 H 897.622 -7.43168 1.38699 0
M  V30 9699 H 898.89 -7.79088 0.253367 0
M  V30 9700 N 903.119 -0.802921 -1.35613 0
M  V30 9701 C 904.051 -0.168461 -2.2858 0
M  V30 9702 C 905.064 0.630123 -1.50111 0
M  V30 9703 O 906.253 0.463086 -1.72388 0
M  V30 9704 C 903.353 0.783943 -3.29708 0
M  V30 9705 C 902.526 0.0325165 -4.37388 0
M  V30 9706 C 901.585 0.902859 -5.18396 0
M  V30 9707 O 900.611 0.355144 -5.68091 0
M  V30 9708 N 901.813 2.22542 -5.36149 0
M  V30 9709 H 904.578 -0.96709 -2.83668 0
M  V30 9710 H 902.139 -0.658043 -1.47924 0
M  V30 9711 H 904.131 1.37034 -3.80794 0
M  V30 9712 H 902.701 1.48339 -2.75162 0
M  V30 9713 H 901.921 -0.735057 -3.87286 0
M  V30 9714 H 903.209 -0.485499 -5.06478 0
M  V30 9715 H 902.607 2.69439 -4.97412 0
M  V30 9716 H 901.164 2.76113 -5.90428 0
M  V30 9717 N 904.597 1.47463 -0.556102 0
M  V30 9718 C 905.837 2.04372 -0.0339743 0
M  V30 9719 C 906.201 1.42125 1.29091 0
M  V30 9720 O 907.402 1.90074 1.90066 0
M  V30 9721 C 905.673 3.57352 0.0585316 0
M  V30 9722 S 907.232 4.35625 0.526943 0
M  V30 9723 H 904.05 0.710574 -0.0246115 0
M  V30 9724 H 906.652 1.80848 -0.742585 0
M  V30 9725 H 905.356 4.00181 -0.910116 0
M  V30 9726 H 904.887 3.85371 0.790731 0
M  V30 9727 H 906.902 4.62911 1.78683 0
M  V30 9728 N 906.075 0.2925 1.54862 0
M  V30 9729 C 907.005 -0.580677 2.26165 0
M  V30 9730 C 907.986 -1.14485 1.25806 0
M  V30 9731 O 909.171 -1.17577 1.54562 0
M  V30 9732 C 906.301 -1.75668 2.99596 0
M  V30 9733 C 905.255 -1.32325 4.07031 0
M  V30 9734 C 904.581 -2.58374 4.68131 0
M  V30 9735 C 905.881 -0.460703 5.20264 0
M  V30 9736 H 907.575 0.0140075 2.99397 0
M  V30 9737 H 905.121 0.00817706 1.43998 0
M  V30 9738 H 907.074 -2.37356 3.48195 0
M  V30 9739 H 905.798 -2.37747 2.23928 0
M  V30 9740 H 904.457 -0.729477 3.59269 0
M  V30 9741 H 904.105 -3.18749 3.89112 0
M  V30 9742 H 903.805 -2.30078 5.40683 0
M  V30 9743 H 905.329 -3.2088 5.19489 0
M  V30 9744 H 906.743 -0.983037 5.64809 0
M  V30 9745 H 905.14 -0.271881 5.99484 0
M  V30 9746 H 906.21 0.516304 4.82143 0
M  V30 9747 N 907.553 -1.57587 0.0200696 0
M  V30 9748 C 908.485 -2.06555 -0.993359 0
M  V30 9749 C 909.498 -0.987227 -1.29451 0
M  V30 9750 O 910.687 -1.26361 -1.26075 0
M  V30 9751 C 907.787 -2.4675 -2.3231 0
M  V30 9752 C 906.96 -3.77554 -2.20843 0
M  V30 9753 C 906.019 -4.04397 -3.36674 0
M  V30 9754 O 905.045 -4.7478 -3.13963 0
M  V30 9755 N 906.247 -3.53861 -4.60176 0
M  V30 9756 H 909.012 -2.9412 -0.575617 0
M  V30 9757 H 906.573 -1.61038 -0.166889 0
M  V30 9758 H 908.565 -2.61806 -3.08609 0
M  V30 9759 H 907.135 -1.64598 -2.65756 0
M  V30 9760 H 906.355 -3.72382 -1.29327 0
M  V30 9761 H 907.643 -4.63271 -2.10375 0
M  V30 9762 H 907.041 -2.96904 -4.81523 0
M  V30 9763 H 905.598 -3.74213 -5.33674 0
M  V30 9764 N 909.032 0.252966 -1.55557 0
M  V30 9765 C 910.257 1.0038 -1.8149 0
M  V30 9766 C 910.682 1.78397 -0.596318 0
M  V30 9767 O 910.04 1.7551 0.454535 0
M  V30 9768 C 910.088 1.9222 -3.05096 0
M  V30 9769 O 909.192 3.01302 -2.81587 0
M  V30 9770 H 908.533 0.285949 -0.599274 0
M  V30 9771 H 911.063 0.275795 -2.02733 0
M  V30 9772 H 911.073 2.338 -3.34368 0
M  V30 9773 H 909.748 1.34852 -3.93431 0
M  V30 9774 H 908.325 2.63894 -2.63466 0
M  V30 9775 N 910.51 1.48831 0.518367 0
M  V30 9776 C 911.44 1.67119 1.63075 0
M  V30 9777 C 912.421 0.519948 1.61958 0
M  V30 9778 O 913.606 0.753824 1.78972 0
M  V30 9779 C 910.736 1.72158 3.01627 0
M  V30 9780 C 909.69 2.86898 3.17606 0
M  V30 9781 C 909.016 2.77035 4.57335 0
M  V30 9782 C 910.316 4.28057 2.99274 0
M  V30 9783 H 912.01 2.60248 1.48025 0
M  V30 9784 H 909.556 1.2524 0.710694 0
M  V30 9785 H 911.509 1.83539 3.7933 0
M  V30 9786 H 910.233 0.756157 3.17726 0
M  V30 9787 H 908.892 2.75091 2.42323 0
M  V30 9788 H 908.54 1.78438 4.70286 0
M  V30 9789 H 908.24 3.54036 4.6897 0
M  V30 9790 H 909.764 2.904 5.37122 0
M  V30 9791 H 911.178 4.40636 3.6676 0
M  V30 9792 H 909.575 5.06145 3.22393 0
M  V30 9793 H 910.645 4.4371 1.95574 0
M  V30 9794 N 911.988 -0.768124 1.37614 0
M  V30 9795 C 913.234 -1.52907 1.33219 0
M  V30 9796 C 913.567 -1.94026 -0.0821218 0
M  V30 9797 O 912.842 -1.64345 -1.04023 0
M  V30 9798 C 913.125 -2.79164 2.27463 0
M  V30 9799 C 912.978 -2.44276 3.7769 0
M  V30 9800 C 914.297 -3.81115 2.20089 0
M  V30 9801 H 911.416 -0.554712 0.485246 0
M  V30 9802 H 914.058 -0.880911 1.68345 0
M  V30 9803 H 912.208 -3.34472 1.97639 0
M  V30 9804 H 913.88 -1.94855 4.18126 0
M  V30 9805 H 912.123 -1.76925 3.96081 0
M  V30 9806 H 912.794 -3.34544 4.39072 0
M  V30 9807 H 915.27 -3.35311 2.46386 0
M  V30 9808 H 914.146 -4.67174 2.88166 0
M  V30 9809 H 914.407 -4.25644 1.19498 0
M  V30 9810 N 913.466 -1.22244 -0.994698 0
M  V30 9811 C 914.413 -0.990906 -2.08446 0
M  V30 9812 C 915.383 0.086737 -1.65873 0
M  V30 9813 O 916.568 -0.0624882 -1.90698 0
M  V30 9814 C 913.708 -0.572813 -3.40313 0
M  V30 9815 C 912.821 -1.72103 -3.96238 0
M  V30 9816 C 911.956 -1.2511 -5.16257 0
M  V30 9817 C 910.995 -2.37098 -5.64315 0
M  V30 9818 N 910.132 -1.91164 -6.75574 0
M  V30 9819 H 914.972 -1.92377 -2.27585 0
M  V30 9820 H 912.509 -0.958576 -1.11578 0
M  V30 9821 H 914.467 -0.311594 -4.16035 0
M  V30 9822 H 913.097 0.323044 -3.21179 0
M  V30 9823 H 912.149 -2.09662 -3.17405 0
M  V30 9824 H 913.461 -2.56347 -4.27888 0
M  V30 9825 H 912.615 -0.947152 -5.99261 0
M  V30 9826 H 911.354 -0.378836 -4.86226 0
M  V30 9827 H 910.359 -2.68283 -4.799 0
M  V30 9828 H 911.584 -3.24837 -5.96371 0
M  V30 9829 H 909.53 -1.06298 -6.47331 0
M  V30 9830 H 909.447 -2.68975 -7.06533 0
M  V30 9831 H 910.715 -1.63833 -7.62088 0
M  V30 9832 N 914.944 1.19125 -1.03184 0
M  V30 9833 C 916.172 1.92838 -0.74975 0
M  V30 9834 C 916.587 1.75667 0.691851 0
M  V30 9835 O 915.944 1.0805 1.47076 0
M  V30 9836 C 915.995 3.44509 -1.09525 0
M  V30 9837 O 915.716 3.6113 -2.48025 0
M  V30 9838 C 917.217 4.35338 -0.836397 0
M  V30 9839 H 914.437 0.61246 -0.274105 0
M  V30 9840 H 916.981 1.5118 -1.37712 0
M  V30 9841 H 915.136 3.83988 -0.513006 0
M  V30 9842 H 915.55 4.54959 -2.60984 0
M  V30 9843 H 917.024 5.4035 -1.12808 0
M  V30 9844 H 917.501 4.38602 0.229102 0
M  V30 9845 H 918.107 4.01544 -1.40152 0
M  V30 9846 N 916.422 0.810101 1.35185 0
M  V30 9847 C 917.671 0.388589 1.97921 0
M  V30 9848 C 917.984 -1.05079 1.64978 0
M  V30 9849 O 919.19 -1.57559 2.21105 0
M  V30 9850 C 917.646 0.643864 3.54094 0
M  V30 9851 C 917.254 2.09602 3.95943 0
M  V30 9852 C 918.998 0.287883 4.23523 0
M  V30 9853 C 916.905 2.29686 5.44976 0
M  V30 9854 H 915.835 0.141562 0.740592 0
M  V30 9855 H 918.486 0.994653 1.54204 0
M  V30 9856 H 916.868 -0.0321978 3.95987 0
M  V30 9857 H 918.042 2.81018 3.65192 0
M  V30 9858 H 916.357 2.4122 3.39414 0
M  V30 9859 H 918.954 0.415946 5.3308 0
M  V30 9860 H 919.297 -0.766305 4.09186 0
M  V30 9861 H 919.83 0.918004 3.87063 0
M  V30 9862 H 916.569 3.33563 5.64284 0
M  V30 9863 H 916.089 1.62798 5.77284 0
M  V30 9864 H 917.768 2.11411 6.11485 0
M  V30 9865 N 917.9 -1.47166 0.563914 0
M  V30 9866 C 919.146 -2.02756 0.0424338 0
M  V30 9867 C 919.479 -1.43662 -1.3067 0
M  V30 9868 O 918.754 -0.594676 -1.85186 0
M  V30 9869 C 919.037 -3.60074 -0.0434793 0
M  V30 9870 C 918.89 -4.29587 1.33323 0
M  V30 9871 C 920.209 -4.336 -0.753568 0
M  V30 9872 H 917.328 -0.736806 0.0168946 0
M  V30 9873 H 919.97 -1.75521 0.727496 0
M  V30 9874 H 918.12 -3.83409 -0.626906 0
M  V30 9875 H 919.792 -4.17573 1.96037 0
M  V30 9876 H 918.035 -3.8968 1.9061 0
M  V30 9877 H 918.706 -5.38218 1.22576 0
M  V30 9878 H 921.182 -4.15299 -0.258126 0
M  V30 9879 H 920.058 -5.43291 -0.782659 0
M  V30 9880 H 920.319 -4.03302 -1.81108 0
M  V30 9881 N 919.378 -0.300708 -1.54705 0
M  V30 9882 C 920.31 0.609179 -2.20956 0
M  V30 9883 C 921.323 1.09776 -1.20221 0
M  V30 9884 O 922.512 1.01527 -1.46815 0
M  V30 9885 C 919.612 1.84595 -2.84214 0
M  V30 9886 C 918.785 1.49991 -4.10879 0
M  V30 9887 C 917.844 2.5918 -4.57943 0
M  V30 9888 O 916.87 2.24285 -5.23149 0
M  V30 9889 N 918.072 3.89714 -4.30236 0
M  V30 9890 H 920.837 0.0420111 -2.99671 0
M  V30 9891 H 918.398 -0.122896 -1.61433 0
M  V30 9892 H 920.39 2.56988 -3.12633 0
M  V30 9893 H 918.96 2.32152 -2.09342 0
M  V30 9894 H 918.18 0.608637 -3.89473 0
M  V30 9895 H 919.468 1.24409 -4.93356 0
M  V30 9896 H 918.866 4.20874 -3.77997 0
M  V30 9897 H 917.423 4.58406 -4.63365 0
M  V30 9898 N 920.856 1.57574 -0.0284266 0
M  V30 9899 C 922.081 1.96479 0.664137 0
M  V30 9900 C 922.506 0.904826 1.64908 0
M  V30 9901 O 921.864 -0.134339 1.80802 0
M  V30 9902 C 921.912 3.34479 1.34745 0
M  V30 9903 O 921.016 3.30794 2.46271 0
M  V30 9904 H 920.357 0.640654 0.174524 0
M  V30 9905 H 922.887 2.04402 -0.0900729 0
M  V30 9906 H 922.897 3.70694 1.7044 0
M  V30 9907 H 921.572 4.1117 0.625468 0
M  V30 9908 H 920.149 3.06294 2.12693 0
M  V30 9909 N 922.334 -0.244713 1.55689 0
M  V30 9910 C 923.611 -0.995407 1.68378 0
M  V30 9911 C 923.991 -2.03288 0.568949 0
M  V30 9912 O 923.339 -2.24469 -0.427299 0
M  V30 9913 C 923.549 -1.62678 3.08767 0
M  V30 9914 C 924.897 -2.1278 3.67437 0
M  V30 9915 O 925.921 -1.72614 3.11581 0
M  V30 9916 O 924.78 -2.86536 4.65359 0
M  V30 9917 H 921.874 -0.463476 0.684923 0
M  V30 9918 H 924.42 -0.238326 1.68018 0
M  V30 9919 H 923.192 -0.876469 3.81358 0
M  V30 9920 H 922.815 -2.45 3.13146 0
M  V30 9921 N 923.813 -1.49104 -0.510467 0
M  V30 9922 C 925.038 -1.62068 -1.29417 0
M  V30 9923 C 925.463 -0.288432 -1.85875 0
M  V30 9924 O 924.821 0.742667 -1.65391 0
M  V30 9925 C 924.869 -2.68506 -2.40701 0
M  V30 9926 O 923.973 -2.27021 -3.4429 0
M  V30 9927 H 923.314 -0.542778 -0.382476 0
M  V30 9928 H 925.844 -1.95228 -0.612154 0
M  V30 9929 H 925.854 -2.90383 -2.86604 0
M  V30 9930 H 924.529 -3.65216 -1.98973 0
M  V30 9931 H 923.106 -2.15436 -3.04371 0
M  V30 9932 N 925.291 0.760815 -1.38019 0
M  V30 9933 C 926.521 1.54776 -1.3685 0
M  V30 9934 C 926.929 1.89146 0.0453971 0
M  V30 9935 O 926.272 1.52746 1.0205 0
M  V30 9936 C 926.334 2.87923 -2.15269 0
M  V30 9937 C 925.998 2.76131 -3.64144 0
M  V30 9938 C 926.995 2.46417 -4.57794 0
M  V30 9939 C 924.68 2.9381 -4.07408 0
M  V30 9940 C 926.674 2.34525 -5.92686 0
M  V30 9941 C 924.361 2.81539 -5.42383 0
M  V30 9942 C 925.359 2.51938 -6.34836 0
M  V30 9943 O 925.047 2.39713 -7.67329 0
M  V30 9944 H 924.779 0.485776 -0.470104 0
M  V30 9945 H 927.333 0.949939 -1.82113 0
M  V30 9946 H 925.563 3.49867 -1.64712 0
M  V30 9947 H 927.252 3.49389 -2.06596 0
M  V30 9948 H 928.018 2.32433 -4.25676 0
M  V30 9949 H 923.897 3.15849 -3.35799 0
M  V30 9950 H 927.441 2.11342 -6.64816 0
M  V30 9951 H 923.338 2.95093 -5.741 0
M  V30 9952 H 924.106 2.5498 -7.77771 0
M  V30 9953 N 926.769 1.22769 0.988202 0
M  V30 9954 C 927.999 1.07998 1.76125 0
M  V30 9955 C 928.407 -0.372062 1.85506 0
M  V30 9956 O 927.75 -1.26946 1.3278 0
M  V30 9957 C 927.812 1.6219 3.20834 0
M  V30 9958 C 927.476 3.1086 3.34986 0
M  V30 9959 C 928.473 4.08239 3.21927 0
M  V30 9960 C 926.158 3.50411 3.59886 0
M  V30 9961 C 928.152 5.43154 3.33561 0
M  V30 9962 C 925.839 4.85473 3.71159 0
M  V30 9963 C 926.837 5.81653 3.58006 0
M  V30 9964 O 926.525 7.14263 3.68895 0
M  V30 9965 H 926.257 0.378937 0.559806 0
M  V30 9966 H 928.811 1.62925 1.25078 0
M  V30 9967 H 927.041 1.01676 3.73094 0
M  V30 9968 H 928.73 1.43011 3.79872 0
M  V30 9969 H 929.496 3.79025 3.02597 0
M  V30 9970 H 925.375 2.76068 3.69198 0
M  V30 9971 H 928.919 6.18207 3.23211 0
M  V30 9972 H 924.816 5.14365 3.89998 0
M  V30 9973 H 925.584 7.21906 3.85739 0
M  V30 9974 N 928.247 -1.18576 1.03814 0
M  V30 9975 C 929.524 -1.8433 0.654358 0
M  V30 9976 C 929.904 -1.92504 -0.866338 0
M  V30 9977 O 929.252 -1.44904 -1.76678 0
M  V30 9978 C 929.462 -3.22778 1.32723 0
M  V30 9979 C 930.81 -3.98841 1.45641 0
M  V30 9980 O 931.834 -3.32209 1.28514 0
M  V30 9981 O 930.693 -5.18219 1.73526 0
M  V30 9982 H 927.787 -0.794766 0.228638 0
M  V30 9983 H 930.333 -1.25989 1.13687 0
M  V30 9984 H 929.105 -3.11717 2.36534 0
M  V30 9985 H 928.728 -3.88772 0.833176 0
M  V30 9986 N 929.725 -0.817259 -1.34754 0
M  V30 9987 C 930.971 -0.403244 -1.98751 0
M  V30 9988 C 931.304 1.02963 -1.64658 0
M  V30 9989 O 930.579 1.71617 -0.915314 0
M  V30 9990 C 930.862 -0.599188 -3.5508 0
M  V30 9991 C 930.715 -2.07777 -3.98934 0
M  V30 9992 C 932.034 -0.0315656 -4.40089 0
M  V30 9993 H 929.153 -0.147988 -0.721989 0
M  V30 9994 H 931.795 -1.02877 -1.59738 0
M  V30 9995 H 929.945 -0.0667116 -3.88443 0
M  V30 9996 H 931.617 -2.67345 -3.75931 0
M  V30 9997 H 929.86 -2.57031 -3.49453 0
M  V30 9998 H 930.531 -2.16571 -5.07741 0
M  V30 9999 H 933.007 -0.48644 -4.13247 0
M  V30 10000 H 931.883 -0.198507 -5.48541 0
M  V30 10001 H 932.144 1.06302 -4.2913 0
M  V30 10002 N 931.203 1.46865 -0.571711 0
M  V30 10003 C 932.45 2.0243 -0.0531071 0
M  V30 10004 C 932.778 1.44446 1.30252 0
M  V30 10005 O 932.033 0.595182 1.8643 0
M  V30 10006 C 932.332 3.57323 0.0742311 0
M  V30 10007 C 931.998 4.34295 -1.21237 0
M  V30 10008 C 930.66 4.55044 -1.56489 0
M  V30 10009 C 933.012 4.78577 -2.0643 0
M  V30 10010 C 930.34 5.17325 -2.76752 0
M  V30 10011 C 932.692 5.42186 -3.25909 0
M  V30 10012 C 931.356 5.61165 -3.61456 0
M  V30 10013 H 930.626 0.740745 -0.0194333 0
M  V30 10014 H 933.273 1.76366 -0.74614 0
M  V30 10015 H 931.578 3.82461 0.850325 0
M  V30 10016 H 933.275 3.97982 0.491077 0
M  V30 10017 H 929.865 4.18435 -0.927922 0
M  V30 10018 H 934.049 4.62313 -1.80501 0
M  V30 10019 H 929.305 5.30211 -3.04444 0
M  V30 10020 H 933.479 5.75459 -3.92198 0
M  V30 10021 H 931.106 6.09195 -4.54737 0
M  V30 10022 N 932.681 0.308908 1.54543 0
M  V30 10023 C 933.628 -0.563659 2.23811 0
M  V30 10024 C 934.598 -1.12332 1.22355 0
M  V30 10025 O 935.783 -1.16638 1.50997 0
M  V30 10026 C 932.923 -1.72585 2.98845 0
M  V30 10027 C 932.036 -1.19682 4.1509 0
M  V30 10028 C 931.171 -2.32351 4.77688 0
M  V30 10029 C 930.21 -1.76623 5.86064 0
M  V30 10030 N 929.347 -2.82896 6.42584 0
M  V30 10031 H 934.187 0.0336288 2.97981 0
M  V30 10032 H 931.724 0.0283666 1.47073 0
M  V30 10033 H 933.682 -2.40951 3.40586 0
M  V30 10034 H 932.312 -2.29464 2.27037 0
M  V30 10035 H 931.364 -0.405173 3.78236 0
M  V30 10036 H 932.676 -0.748923 4.93146 0
M  V30 10037 H 931.83 -3.0865 5.22322 0
M  V30 10038 H 930.569 -2.80472 3.98982 0
M  V30 10039 H 929.574 -0.988171 5.40847 0
M  V30 10040 H 930.799 -1.29398 6.66658 0
M  V30 10041 H 928.745 -3.30336 5.66758 0
M  V30 10042 H 928.662 -2.42626 7.16009 0
M  V30 10043 H 929.93 -3.59068 6.91875 0
M  V30 10044 N 934.159 -1.57557 0.0367827 0
M  V30 10045 C 935.107 -2.11844 -0.960454 0
M  V30 10046 C 936.101 -1.04681 -1.33185 0
M  V30 10047 O 937.307 -1.23108 -1.31318 0
M  V30 10048 H 933.682 -0.676921 -0.32754 0
M  V30 10049 H 935.653 -2.94557 -0.477346 0
M  V30 10050 C 934.402 -2.66683 -2.23105 0
M  V30 10051 H 933.725 -3.48795 -1.95403 0
M  V30 10052 H 935.165 -3.08305 -2.91074 0
M  V30 10053 C 933.624 -1.59782 -2.96599 0
M  V30 10054 O 934.154 -1.00214 -3.88999 0
M  V30 10055 N 932.36 -1.31644 -2.59072 0
M  V30 10056 H 931.907 -1.80272 -1.8401 0
M  V30 10057 H 931.865 -0.603457 -3.08554 0
M  V30 10058 N 935.637 0.236453 -1.55816 0
M  V30 10059 C 936.567 1.29639 -1.94206 0
M  V30 10060 C 937.548 1.49667 -0.808319 0
M  V30 10061 O 938.733 1.621 -1.06945 0
M  V30 10062 C 935.863 2.64914 -2.24584 0
M  V30 10063 C 934.817 2.59565 -3.40308 0
M  V30 10064 C 934.143 3.98732 -3.56254 0
M  V30 10065 C 935.443 2.15642 -4.75706 0
M  V30 10066 H 937.137 0.977552 -2.82992 0
M  V30 10067 H 934.683 0.468804 -1.36155 0
M  V30 10068 H 936.636 3.39209 -2.50031 0
M  V30 10069 H 935.36 2.98455 -1.32636 0
M  V30 10070 H 934.019 1.87728 -3.14887 0
M  V30 10071 H 933.667 4.29556 -2.61707 0
M  V30 10072 H 933.367 3.96039 -4.34082 0
M  V30 10073 H 934.891 4.74711 -3.84033 0
M  V30 10074 H 936.305 2.79673 -5.00456 0
M  V30 10075 H 934.702 2.24039 -5.56711 0
M  V30 10076 H 935.772 1.10831 -4.72064 0
M  V30 10077 N 937.115 1.49373 0.502552 0
M  V30 10078 C 938.062 1.65927 1.60427 0
M  V30 10079 C 939.032 0.500768 1.58371 0
M  V30 10080 O 940.217 0.727606 1.76382 0
M  V30 10081 C 937.357 1.73043 2.9858 0
M  V30 10082 C 936.47 3.00187 3.10663 0
M  V30 10083 C 935.605 2.98292 4.3954 0
M  V30 10084 C 934.644 4.20022 4.4525 0
M  V30 10085 N 933.781 4.16046 5.65553 0
M  V30 10086 H 938.621 2.59998 1.45619 0
M  V30 10087 H 936.158 1.28912 0.708519 0
M  V30 10088 H 938.116 1.7515 3.78653 0
M  V30 10089 H 936.746 0.824397 3.12095 0
M  V30 10090 H 935.798 3.07699 2.23663 0
M  V30 10091 H 937.11 3.9018 3.10742 0
M  V30 10092 H 936.264 2.98953 5.27932 0
M  V30 10093 H 935.003 2.06075 4.42023 0
M  V30 10094 H 934.008 4.19607 3.5526 0
M  V30 10095 H 935.233 5.13431 4.44484 0
M  V30 10096 H 933.179 3.26665 5.68881 0
M  V30 10097 H 933.096 4.99773 5.67242 0
M  V30 10098 H 934.364 4.20807 6.56156 0
M  V30 10099 N 938.594 -0.753485 1.38421 0
M  V30 10100 C 939.822 -1.54272 1.37868 0
M  V30 10101 C 940.237 -1.88774 -0.0315155 0
M  V30 10102 O 939.594 -1.52785 -0.998148 0
M  V30 10103 C 939.645 -2.84179 2.23438 0
M  V30 10104 O 939.366 -2.51149 3.58965 0
M  V30 10105 C 940.867 -3.78316 2.31067 0
M  V30 10106 H 938.087 -0.47735 0.47157 0
M  V30 10107 H 940.631 -0.932509 1.82001 0
M  V30 10108 H 938.786 -3.41577 1.82767 0
M  V30 10109 H 939.2 -3.34466 4.04021 0
M  V30 10110 H 940.674 -4.66418 2.95226 0
M  V30 10111 H 941.151 -4.18757 1.32436 0
M  V30 10112 H 941.757 -3.26842 2.72129 0
M  V30 10113 N 940.072 -1.23292 -0.981677 0
M  V30 10114 C 941.302 -1.0893 -1.7555 0
M  V30 10115 C 941.71 0.362219 -1.857 0
M  V30 10116 O 941.053 1.2624 -1.33451 0
M  V30 10117 C 941.115 -1.6389 -3.19969 0
M  V30 10118 C 940.779 -3.12632 -3.33332 0
M  V30 10119 C 941.776 -4.0994 -3.19758 0
M  V30 10120 C 939.461 -3.52314 -3.58022 0
M  V30 10121 C 941.455 -5.44915 -3.30676 0
M  V30 10122 C 939.142 -4.87434 -3.6858 0
M  V30 10123 C 940.14 -5.83544 -3.54916 0
M  V30 10124 O 939.828 -7.16209 -3.65102 0
M  V30 10125 H 939.56 -0.381901 -0.557788 0
M  V30 10126 H 942.114 -1.63586 -1.24213 0
M  V30 10127 H 940.344 -1.03653 -3.72549 0
M  V30 10128 H 942.033 -1.45023 -3.79108 0
M  V30 10129 H 942.799 -3.80625 -3.00582 0
M  V30 10130 H 938.678 -2.78022 -3.67729 0
M  V30 10131 H 942.222 -6.19913 -3.19928 0
M  V30 10132 H 938.119 -5.16426 -3.87265 0
M  V30 10133 H 938.887 -7.23941 -3.81905 0
M  V30 10134 N 941.55 1.18024 -1.04442 0
M  V30 10135 C 942.497 2.21785 -0.638759 0
M  V30 10136 C 943.467 1.62255 0.355312 0
M  V30 10137 O 944.652 1.89176 0.24844 0
M  V30 10138 C 941.792 3.45098 -0.0118002 0
M  V30 10139 C 940.905 4.1895 -1.05379 0
M  V30 10140 C 940.04 5.2973 -0.394951 0
M  V30 10141 C 939.079 5.95359 -1.42178 0
M  V30 10142 N 938.216 6.97668 -0.787635 0
M  V30 10143 H 943.056 2.55839 -1.52808 0
M  V30 10144 H 940.593 1.25681 -0.764378 0
M  V30 10145 H 942.551 4.15564 0.369075 0
M  V30 10146 H 941.181 3.11652 0.84102 0
M  V30 10147 H 940.233 3.47274 -1.55258 0
M  V30 10148 H 941.545 4.63877 -1.83355 0
M  V30 10149 H 940.699 6.06687 0.0399244 0
M  V30 10150 H 939.438 4.85915 0.416867 0
M  V30 10151 H 938.443 5.17139 -1.86675 0
M  V30 10152 H 939.668 6.41255 -2.23536 0
M  V30 10153 H 937.614 6.56 0.00380893 0
M  V30 10154 H 937.531 7.40867 -1.50505 0
M  V30 10155 H 938.799 7.78586 -0.377282 0
M  V30 10156 N 943.028 0.824394 1.34319 0
M  V30 10157 C 944.305 0.335692 1.92698 0
M  V30 10158 C 944.685 -1.17715 1.75232 0
M  V30 10159 O 944.033 -1.98493 1.13194 0
M  V30 10160 C 944.243 0.766647 3.40475 0
M  V30 10161 C 945.591 0.766323 4.17627 0
M  V30 10162 O 946.615 0.709321 3.49066 0
M  V30 10163 O 945.474 0.840856 5.39992 0
M  V30 10164 H 942.568 0.0919996 0.821867 0
M  V30 10165 H 945.114 0.909282 1.43283 0
M  V30 10166 H 943.886 1.80859 3.46995 0
M  V30 10167 H 943.509 0.168833 3.97241 0
M  V30 10168 N 944.506 -1.46559 0.579492 0
M  V30 10169 C 945.755 -2.01606 0.0615735 0
M  V30 10170 C 946.068 -1.45695 -1.30508 0
M  V30 10171 O 947.274 -1.92541 -1.91416 0
M  V30 10172 C 945.73 -3.59851 0.059496 0
M  V30 10173 C 945.338 -4.24757 1.42427 0
M  V30 10174 C 947.082 -4.22567 -0.404646 0
M  V30 10175 C 944.989 -5.75072 1.38009 0
M  V30 10176 H 943.919 -0.753754 0.0192491 0
M  V30 10177 H 946.57 -1.68326 0.73066 0
M  V30 10178 H 944.952 -3.90193 -0.675691 0
M  V30 10179 H 946.126 -4.06029 2.17893 0
M  V30 10180 H 944.441 -3.74121 1.82817 0
M  V30 10181 H 947.038 -5.32748 -0.456441 0
M  V30 10182 H 947.381 -3.91279 -1.42149 0
M  V30 10183 H 947.914 -3.96839 0.276376 0
M  V30 10184 H 944.653 -6.11014 2.37364 0
M  V30 10185 H 944.173 -5.96073 0.667583 0
M  V30 10186 H 945.852 -6.37724 1.09163 0
M  V30 10187 N 945.984 -0.3171 -1.54377 0
M  V30 10188 C 947.209 0.292311 -2.0533 0
M  V30 10189 C 947.634 1.45503 -1.19207 0
M  V30 10190 O 946.992 1.80197 -0.199721 0
M  V30 10191 C 947.04 0.710787 -3.53525 0
M  V30 10192 O 946.144 1.81387 -3.70368 0
M  V30 10193 H 945.485 0.0539976 -0.661801 0
M  V30 10194 H 948.015 -0.463629 -1.99278 0
M  V30 10195 H 948.025 0.995216 -3.95676 0
M  V30 10196 H 946.7 -0.139668 -4.15665 0
M  V30 10197 H 945.277 1.52875 -3.40123 0
M  V30 10198 N 947.462 1.57535 -0.0451378 0
M  V30 10199 C 948.392 2.14208 0.929372 0
M  V30 10200 C 949.373 1.06221 1.32858 0
M  V30 10201 O 950.558 1.34132 1.40436 0
M  V30 10202 C 947.688 2.68217 2.20629 0
M  V30 10203 C 946.642 3.81134 1.94734 0
M  V30 10204 C 945.968 4.21636 3.28828 0
M  V30 10205 C 947.268 5.06531 1.27374 0
M  V30 10206 H 948.962 2.95886 0.457348 0
M  V30 10207 H 946.508 1.42332 0.218544 0
M  V30 10208 H 948.461 3.06502 2.89196 0
M  V30 10209 H 947.185 1.83722 2.70026 0
M  V30 10210 H 945.844 3.43312 1.28579 0
M  V30 10211 H 945.492 3.34099 3.76014 0
M  V30 10212 H 945.192 4.97736 3.12302 0
M  V30 10213 H 946.716 4.62516 3.98637 0
M  V30 10214 H 948.13 5.423 1.85967 0
M  V30 10215 H 946.527 5.87735 1.21194 0
M  V30 10216 H 947.597 4.84261 0.248913 0
M  V30 10217 N 948.94 -0.228186 1.55939 0
M  V30 10218 C 949.873 -1.30971 1.86874 0
M  V30 10219 C 950.851 -1.45517 0.725496 0
M  V30 10220 O 952.035 -1.61436 0.973181 0
M  V30 10221 C 949.162 -2.68089 2.06992 0
M  V30 10222 C 948.208 -2.70594 3.29669 0
M  V30 10223 S 949.041 -2.25325 4.85787 0
M  V30 10224 C 950.197 -3.64331 5.08934 0
M  V30 10225 H 950.43 -1.04536 2.78315 0
M  V30 10226 H 947.963 -0.430103 1.48288 0
M  V30 10227 H 949.921 -3.47033 2.19267 0
M  V30 10228 H 948.582 -2.91752 1.16359 0
M  V30 10229 H 947.775 -3.71338 3.4077 0
M  V30 10230 H 947.377 -1.99708 3.16216 0
M  V30 10231 H 949.669 -4.59972 4.97425 0
M  V30 10232 H 950.612 -3.58151 6.10847 0
M  V30 10233 H 951.02 -3.57711 4.36695 0
M  V30 10234 N 950.418 -1.49637 -0.494624 0
M  V30 10235 C 951.35 -1.62902 -1.61231 0
M  V30 10236 C 952.363 -0.511425 -1.54558 0
M  V30 10237 O 953.552 -0.783724 -1.60375 0
M  V30 10238 C 950.652 -1.57564 -3.00045 0
M  V30 10239 C 949.825 -2.84964 -3.31835 0
M  V30 10240 C 948.884 -2.72591 -4.5009 0
M  V30 10241 O 947.91 -3.46532 -4.51558 0
M  V30 10242 N 949.112 -1.84563 -5.50379 0
M  V30 10243 H 951.877 -2.59301 -1.50276 0
M  V30 10244 H 949.438 -1.46806 -0.68262 0
M  V30 10245 H 951.43 -1.46932 -3.77085 0
M  V30 10246 H 950 -0.689974 -3.0489 0
M  V30 10247 H 949.22 -3.099 -2.4363 0
M  V30 10248 H 950.508 -3.69412 -3.49875 0
M  V30 10249 H 949.906 -1.23758 -5.51997 0
M  V30 10250 H 948.463 -1.79849 -6.26496 0
M  V30 10251 N 951.896 0.746133 -1.38819 0
M  V30 10252 C 953.121 1.54049 -1.38866 0
M  V30 10253 C 953.546 1.88092 0.0176624 0
M  V30 10254 O 952.904 1.51113 1.00173 0
M  V30 10255 C 952.952 2.8116 -2.25791 0
M  V30 10256 O 952.056 3.76623 -1.68014 0
M  V30 10257 H 951.397 0.465648 -0.473359 0
M  V30 10258 H 953.927 0.921469 -1.82675 0
M  V30 10259 H 953.937 3.30009 -2.39913 0
M  V30 10260 H 952.612 2.55713 -3.27999 0
M  V30 10261 H 951.189 3.35352 -1.63074 0
M  V30 10262 N 953.375 1.23811 0.975125 0
M  V30 10263 C 954.305 1.04846 2.08638 0
M  V30 10264 C 955.286 -0.0362859 1.70061 0
M  V30 10265 O 956.471 0.12937 1.93769 0
M  V30 10266 C 953.601 0.644534 3.41267 0
M  V30 10267 C 952.555 1.67722 3.93768 0
M  V30 10268 C 951.881 1.12857 5.22654 0
M  V30 10269 C 953.181 3.07147 4.22443 0
M  V30 10270 H 954.875 1.97795 2.24761 0
M  V30 10271 H 952.421 0.952397 1.08006 0
M  V30 10272 H 954.374 0.498887 4.18436 0
M  V30 10273 H 953.098 -0.320641 3.25022 0
M  V30 10274 H 951.757 1.81095 3.18748 0
M  V30 10275 H 951.405 0.154227 5.02764 0
M  V30 10276 H 951.105 1.81862 5.58749 0
M  V30 10277 H 952.629 0.994891 6.0244 0
M  V30 10278 H 954.043 2.97045 4.90344 0
M  V30 10279 H 952.44 3.73437 4.6975 0
M  V30 10280 H 953.51 3.55743 3.29507 0
M  V30 10281 N 954.853 -1.17469 1.05066 0
M  V30 10282 C 955.783 -2.23635 0.671552 0
M  V30 10283 C 956.764 -1.66867 -0.33006 0
M  V30 10284 O 957.949 -1.93084 -0.207933 0
M  V30 10285 C 955.079 -3.47272 0.0441845 0
M  V30 10286 C 954.033 -4.16854 0.97042 0
M  V30 10287 C 953.359 -5.34299 0.206998 0
M  V30 10288 C 954.659 -4.69225 2.29401 0
M  V30 10289 H 956.353 -2.55602 1.55911 0
M  V30 10290 H 953.899 -1.2286 0.751101 0
M  V30 10291 H 955.852 -4.20756 -0.23282 0
M  V30 10292 H 954.576 -3.14568 -0.878311 0
M  V30 10293 H 953.235 -3.4528 1.23197 0
M  V30 10294 H 952.883 -4.97846 -0.718222 0
M  V30 10295 H 952.583 -5.81792 0.82416 0
M  V30 10296 H 954.107 -6.10568 -0.0627525 0
M  V30 10297 H 955.521 -5.34353 2.077 0
M  V30 10298 H 953.918 -5.27291 2.86503 0
M  V30 10299 H 954.988 -3.86102 2.93348 0
M  V30 10300 N 956.331 -0.831506 -1.3388 0
M  V30 10301 C 957.556 -0.435954 -2.02766 0
M  V30 10302 C 957.981 0.952889 -1.62178 0
M  V30 10303 O 957.339 1.62166 -0.810681 0
M  V30 10304 C 957.387 -0.555907 -3.56289 0
M  V30 10305 O 956.491 0.420826 -4.10247 0
M  V30 10306 H 955.832 -0.178248 -0.639628 0
M  V30 10307 H 958.362 -1.1243 -1.70941 0
M  V30 10308 H 958.372 -0.434831 -4.05676 0
M  V30 10309 H 957.047 -1.56881 -3.85177 0
M  V30 10310 H 955.624 0.257919 -3.72007 0
M  V30 10311 N 957.809 1.4625 -0.587256 0
M  V30 10312 C 959.086 1.95599 -0.00750181 0
M  V30 10313 C 959.466 1.52989 1.45457 0
M  V30 10314 O 958.814 0.782731 2.14676 0
M  V30 10315 C 959.024 3.48513 -0.184309 0
M  V30 10316 C 960.372 4.24565 -0.0544972 0
M  V30 10317 O 961.396 3.5602 -0.113378 0
M  V30 10318 O 960.255 5.46445 0.0774075 0
M  V30 10319 H 957.349 0.825649 0.0472495 0
M  V30 10320 H 959.895 1.56512 -0.655893 0
M  V30 10321 H 958.667 3.72428 -1.20053 0
M  V30 10322 H 958.29 3.9444 0.500301 0
M  V30 10323 N 959.287 0.325282 1.54207 0
M  V30 10324 C 960.25 -0.527228 2.23054 0
M  V30 10325 C 961.25 -1.04217 1.22456 0
M  V30 10326 O 962.44 -0.934325 1.47024 0
M  V30 10327 C 959.572 -1.7325 2.93594 0
M  V30 10328 H 960.765 0.0746423 2.99807 0
M  V30 10329 H 958.318 0.0763872 1.56113 0
M  V30 10330 H 959.053 -2.37356 2.20981 0
M  V30 10331 H 958.838 -1.37065 3.67363 0
M  V30 10332 H 960.328 -2.3376 3.46043 0
M  V30 10333 N 960.765 -1.57509 0.0534917 0
M  V30 10334 C 962.013 -1.92402 -0.618548 0
M  V30 10335 C 962.334 -0.93273 -1.71246 0
M  V30 10336 O 961.604 0.0220495 -1.95888 0
M  V30 10337 H 960.184 -0.710233 -0.23147 0
M  V30 10338 H 962.846 -1.94606 0.10704 0
M  V30 10339 H 961.942 -2.93704 -1.05566 0
M  V30 10340 N 962.243 0.219913 -1.56058 0
M  V30 10341 C 963.489 0.945463 -1.79412 0
M  V30 10342 C 963.822 1.83922 -0.62341 0
M  V30 10343 O 963.097 1.90806 0.377256 0
M  V30 10344 C 963.38 1.783 -3.1286 0
M  V30 10345 C 963.233 0.915626 -4.40382 0
M  V30 10346 C 964.552 2.76045 -3.42764 0
M  V30 10347 H 961.671 0.342288 -0.652693 0
M  V30 10348 H 964.313 0.214235 -1.88788 0
M  V30 10349 H 962.463 2.40642 -3.04998 0
M  V30 10350 H 964.135 0.30882 -4.60265 0
M  V30 10351 H 962.378 0.221124 -4.33236 0
M  V30 10352 H 963.049 1.53607 -5.30197 0
M  V30 10353 H 965.525 2.23838 -3.50764 0
M  V30 10354 H 964.401 3.31748 -4.37304 0
M  V30 10355 H 964.662 3.53866 -2.65012 0
M  V30 10356 N 963.721 1.49897 0.486681 0
M  V30 10357 C 964.684 1.67086 1.56891 0
M  V30 10358 C 965.684 0.54209 1.51387 0
M  V30 10359 O 966.874 0.80883 1.54284 0
M  V30 10360 C 964.006 1.68159 2.96539 0
M  V30 10361 H 965.199 2.63626 1.42974 0
M  V30 10362 H 962.752 1.39143 0.711954 0
M  V30 10363 H 963.487 0.732562 3.15918 0
M  V30 10364 H 963.272 2.50147 3.01942 0
M  V30 10365 H 964.762 1.83466 3.7514 0
M  V30 10366 N 965.199 -0.738761 1.39212 0
M  V30 10367 C 966.424 -1.5331 1.39681 0
M  V30 10368 C 966.849 -1.88098 -0.00768715 0
M  V30 10369 O 966.207 -1.51642 -0.993699 0
M  V30 10370 C 966.255 -2.79958 2.27279 0
M  V30 10371 O 965.359 -3.75727 1.70008 0
M  V30 10372 H 964.7 -0.463131 0.475821 0
M  V30 10373 H 967.23 -0.911768 1.83161 0
M  V30 10374 H 967.24 -3.28732 2.41659 0
M  V30 10375 H 965.915 -2.5397 3.29351 0
M  V30 10376 H 964.492 -3.34483 1.64851 0
M  V30 10377 N 966.677 -1.24326 -0.968545 0
M  V30 10378 C 967.923 -1.08406 -1.71394 0
M  V30 10379 C 968.256 0.376353 -1.90518 0
M  V30 10380 O 967.531 1.27816 -1.46606 0
M  V30 10381 C 967.814 -1.82344 -3.1052 0
M  V30 10382 C 967.667 -3.3613 -2.98893 0
M  V30 10383 C 968.986 -1.59545 -4.10163 0
M  V30 10384 H 966.105 -0.395205 -0.622079 0
M  V30 10385 H 968.747 -1.52983 -1.12677 0
M  V30 10386 H 966.897 -1.44452 -3.60646 0
M  V30 10387 H 968.569 -3.83614 -2.56199 0
M  V30 10388 H 966.812 -3.64553 -2.35124 0
M  V30 10389 H 967.483 -3.83064 -3.97449 0
M  V30 10390 H 969.959 -1.92504 -3.68892 0
M  V30 10391 H 968.835 -2.13736 -5.05577 0
M  V30 10392 H 969.096 -0.533503 -4.38869 0
M  V30 10393 N 968.156 1.1691 -1.05688 0
M  V30 10394 C 969.567 1.68915 -0.795273 0
M  V30 10395 C 969.918 1.83968 0.681925 0
M  V30 10396 O 969.043 1.53083 1.52953 0
M  V30 10397 C 969.638 3.06814 -1.43703 0
M  V30 10398 C 968.197 3.55965 -1.22335 0
M  V30 10399 C 967.344 2.32099 -1.51741 0
M  V30 10400 H 970.295 1.01357 -1.22116 0
M  V30 10401 H 970.316 3.70907 -0.849016 0
M  V30 10402 H 969.828 2.95826 -2.51214 0
M  V30 10403 H 967.929 3.72222 -0.16771 0
M  V30 10404 H 968.042 4.38427 -1.9318 0
M  V30 10405 H 966.406 2.36811 -0.937696 0
M  V30 10406 H 967.189 2.23715 -2.60397 0
M  V30 10407 N 969.634 0.838594 1.33437 0
M  V30 10408 C 971.05 0.526347 1.50671 0
M  V30 10409 C 971.25 -0.946387 1.77893 0
M  V30 10410 O 970.306 -1.7302 1.83903 0
M  V30 10411 C 971.619 1.39945 2.6615 0
M  V30 10412 C 973.167 1.3982 2.80035 0
M  V30 10413 C 973.642 2.25614 3.98576 0
M  V30 10414 N 975.133 2.23322 4.0581 0
M  V30 10415 C 975.868 2.86443 4.96727 0
M  V30 10416 N 975.364 3.58616 5.92762 0
M  V30 10417 N 977.157 2.75915 4.89722 0
M  V30 10418 H 969.308 1.79195 1.1403 0
M  V30 10419 H 971.571 0.764491 0.560586 0
M  V30 10420 H 971.277 2.44599 2.52714 0
M  V30 10421 H 971.151 1.07529 3.61548 0
M  V30 10422 H 973.538 0.35937 2.92904 0
M  V30 10423 H 973.619 1.76241 1.85399 0
M  V30 10424 H 973.263 3.29555 3.86466 0
M  V30 10425 H 973.193 1.86533 4.92456 0
M  V30 10426 H 975.684 1.70836 3.37081 0
M  V30 10427 H 975.997 4.03987 6.58798 0
M  V30 10428 H 974.342 3.62724 5.92838 0
M  V30 10429 H 977.533 2.19094 4.13661 0
M  V30 10430 H 977.706 3.25393 5.60378 0
M  V30 10431 N 971.112 -1.45937 0.595003 0
M  V30 10432 C 972.523 -1.85908 0.171779 0
M  V30 10433 C 972.874 -1.497 -1.26824 0
M  V30 10434 O 971.999 -0.917688 -1.95978 0
M  V30 10435 C 972.594 -3.37425 0.304976 0
M  V30 10436 C 971.153 -3.76346 -0.0634635 0
M  V30 10437 C 970.3 -2.69926 0.635255 0
M  V30 10438 H 973.251 -1.36916 0.802471 0
M  V30 10439 H 973.272 -3.77632 -0.466313 0
M  V30 10440 H 972.784 -3.63747 1.35314 0
M  V30 10441 H 970.885 -3.55642 -1.11129 0
M  V30 10442 H 970.998 -4.78021 0.321419 0
M  V30 10443 H 969.362 -2.54592 0.0742054 0
M  V30 10444 H 970.145 -2.99086 1.68531 0
M  V30 10445 N 972.59 -0.333456 -1.54032 0
M  V30 10446 C 973.815 0.270517 -2.05628 0
M  V30 10447 C 974.24 1.44231 -1.20744 0
M  V30 10448 O 973.598 1.79975 -0.218822 0
M  V30 10449 C 973.646 0.673251 -3.54259 0
M  V30 10450 O 972.75 1.77448 -3.72271 0
M  V30 10451 H 972.091 0.0469753 -0.662336 0
M  V30 10452 H 974.621 -0.484739 -1.98775 0
M  V30 10453 H 974.631 0.953194 -3.96709 0
M  V30 10454 H 973.306 -0.183747 -4.15494 0
M  V30 10455 H 971.883 1.49259 -3.41725 0
M  V30 10456 N 974.068 1.57479 -0.061844 0
M  V30 10457 C 975.298 1.97142 0.61794 0
M  V30 10458 C 975.706 0.938533 1.64281 0
M  V30 10459 O 975.049 -0.084385 1.83506 0
M  V30 10460 C 975.111 3.33083 1.35263 0
M  V30 10461 C 974.775 4.54447 0.482372 0
M  V30 10462 C 975.772 5.1927 -0.255954 0
M  V30 10463 C 973.457 5.00623 0.410167 0
M  V30 10464 C 975.451 6.28612 -1.05481 0
M  V30 10465 C 973.138 6.09839 -0.392369 0
M  V30 10466 C 974.136 6.73696 -1.12354 0
M  V30 10467 O 973.824 7.80811 -1.91285 0
M  V30 10468 H 973.556 0.653497 0.172969 0
M  V30 10469 H 976.11 2.05002 -0.127781 0
M  V30 10470 H 974.34 3.21808 2.14421 0
M  V30 10471 H 976.029 3.5742 1.92368 0
M  V30 10472 H 976.795 4.84546 -0.209703 0
M  V30 10473 H 972.674 4.50704 0.968883 0
M  V30 10474 H 976.218 6.78385 -1.62602 0
M  V30 10475 H 972.115 6.43997 -0.44022 0
M  V30 10476 H 972.883 7.9764 -1.83611 0
M  V30 10477 N 975.546 -0.211634 1.56173 0
M  V30 10478 C 976.476 -1.26533 1.96244 0
M  V30 10479 C 977.457 -1.48362 0.832028 0
M  V30 10480 O 978.642 -1.60378 1.0951 0
M  V30 10481 C 975.772 -2.61307 2.2877 0
M  V30 10482 C 974.726 -2.54119 3.44395 0
M  V30 10483 C 974.052 -3.93014 3.62552 0
M  V30 10484 C 975.352 -2.08046 4.79076 0
M  V30 10485 H 977.046 -0.932407 2.84511 0
M  V30 10486 H 974.592 -0.447084 1.36884 0
M  V30 10487 H 976.545 -3.35188 2.55396 0
M  V30 10488 H 975.269 -2.96307 1.37367 0
M  V30 10489 H 973.928 -1.82694 3.17834 0
M  V30 10490 H 973.576 -4.25338 2.68508 0
M  V30 10491 H 973.276 -3.89083 4.40327 0
M  V30 10492 H 974.8 -4.68542 3.91537 0
M  V30 10493 H 976.214 -2.71676 5.04842 0
M  V30 10494 H 974.611 -2.15154 5.60204 0
M  V30 10495 H 975.681 -1.03306 4.73768 0
M  V30 10496 N 977.024 -1.50153 -0.478725 0
M  V30 10497 C 978.249 -1.64776 -1.2595 0
M  V30 10498 C 978.674 -0.327794 -1.85222 0
M  V30 10499 O 978.032 0.707418 -1.66929 0
M  V30 10500 C 978.08 -2.73551 -2.34952 0
M  V30 10501 O 977.184 -2.34273 -3.39397 0
M  V30 10502 H 976.525 -0.550769 -0.370877 0
M  V30 10503 H 979.055 -1.96482 -0.570605 0
M  V30 10504 H 979.065 -2.96397 -2.8038 0
M  V30 10505 H 977.74 -3.69354 -1.91181 0
M  V30 10506 H 976.317 -2.21844 -2.99733 0
M  V30 10507 N 978.502 0.731368 -1.39602 0
M  V30 10508 C 979.465 1.8271 -1.38383 0
M  V30 10509 C 980.465 1.58338 -0.280309 0
M  V30 10510 O 981.655 1.65671 -0.538402 0
M  V30 10511 C 978.787 3.20556 -1.16002 0
M  V30 10512 H 979.98 1.85193 -2.35889 0
M  V30 10513 H 977.533 0.935396 -1.2522 0
M  V30 10514 H 978.268 3.23732 -0.191927 0
M  V30 10515 H 978.053 3.39643 -1.9592 0
M  V30 10516 H 979.543 4.00612 -1.17899 0
M  V30 10517 N 979.98 1.24838 0.961938 0
M  V30 10518 C 981.227 1.09151 1.70564 0
M  V30 10519 C 981.555 -0.368719 1.90973 0
M  V30 10520 O 980.81 -1.28854 1.47293 0
M  V30 10521 C 981.109 1.78289 3.09754 0
M  V30 10522 C 980.775 3.28216 3.09169 0
M  V30 10523 C 979.437 3.69118 3.08716 0
M  V30 10524 C 981.789 4.24035 3.03058 0
M  V30 10525 C 979.117 5.04263 2.99892 0
M  V30 10526 C 981.469 5.59195 2.95776 0
M  V30 10527 C 980.133 5.99436 2.93655 0
M  V30 10528 H 979.403 0.399414 0.624139 0
M  V30 10529 H 982.05 1.55016 1.12438 0
M  V30 10530 H 980.355 1.24835 3.7138 0
M  V30 10531 H 982.052 1.63612 3.66104 0
M  V30 10532 H 978.642 2.95667 3.10289 0
M  V30 10533 H 982.826 3.93431 3.02532 0
M  V30 10534 H 978.082 5.3463 2.96615 0
M  V30 10535 H 982.256 6.33142 2.90007 0
M  V30 10536 H 979.883 7.04116 2.86573 0
M  V30 10537 N 981.458 -1.16348 1.06306 0
M  V30 10538 C 982.406 -2.22799 0.668087 0
M  V30 10539 C 983.4 -1.66426 -0.316051 0
M  V30 10540 O 984.606 -1.79089 -0.180902 0
M  V30 10541 H 980.981 -0.725487 0.19792 0
M  V30 10542 H 982.952 -2.53401 1.57577 0
M  V30 10543 C 981.701 -3.47628 0.0706797 0
M  V30 10544 H 981.024 -3.9132 0.819064 0
M  V30 10545 H 982.464 -4.23666 -0.16816 0
M  V30 10546 C 980.923 -3.15343 -1.18577 0
M  V30 10547 O 981.453 -3.31158 -2.27371 0
M  V30 10548 N 979.659 -2.69472 -1.08779 0
M  V30 10549 H 979.206 -2.56803 -0.202447 0
M  V30 10550 H 979.164 -2.48244 -1.92931 0
M  V30 10551 N 982.937 -0.845659 -1.3299 0
M  V30 10552 C 983.884 -0.281761 -2.29074 0
M  V30 10553 C 984.854 0.606237 -1.54641 0
M  V30 10554 O 986.039 0.543063 -1.82908 0
M  V30 10555 C 983.179 0.531451 -3.40983 0
M  V30 10556 C 982.292 -0.381328 -4.30314 0
M  V30 10557 C 981.427 0.443643 -5.29344 0
M  V30 10558 C 980.466 -0.467101 -6.10315 0
M  V30 10559 N 979.603 0.320148 -7.0137 0
M  V30 10560 H 984.443 -1.10641 -2.76699 0
M  V30 10561 H 981.98 -0.55706 -1.36144 0
M  V30 10562 H 983.938 1.01848 -4.04577 0
M  V30 10563 H 982.568 1.32101 -2.94532 0
M  V30 10564 H 981.62 -0.986701 -3.6738 0
M  V30 10565 H 982.932 -1.08067 -4.86953 0
M  V30 10566 H 982.086 0.994212 -5.98498 0
M  V30 10567 H 980.825 1.17639 -4.73299 0
M  V30 10568 H 979.83 -1.02963 -5.40073 0
M  V30 10569 H 981.055 -1.19832 -6.68444 0
M  V30 10570 H 979.001 1.03615 -6.47765 0
M  V30 10571 H 978.918 -0.320338 -7.55321 0
M  V30 10572 H 980.186 0.852735 -7.74822 0
M  V30 10573 N 984.415 1.45619 -0.602734 0
M  V30 10574 C 985.348 2.27583 0.167708 0
M  V30 10575 C 986.326 1.36844 0.878206 0
M  V30 10576 O 987.51 1.6627 0.888058 0
M  V30 10577 C 984.637 3.15094 1.24232 0
M  V30 10578 C 983.683 4.21739 0.63549 0
M  V30 10579 S 984.516 5.32638 -0.552944 0
M  V30 10580 C 985.672 6.23716 0.522382 0
M  V30 10581 H 985.905 2.92579 -0.527697 0
M  V30 10582 H 983.438 1.4939 -0.390127 0
M  V30 10583 H 985.396 3.66071 1.85748 0
M  V30 10584 H 984.057 2.49372 1.90978 0
M  V30 10585 H 983.25 4.82874 1.44389 0
M  V30 10586 H 982.852 3.73878 0.0955772 0
M  V30 10587 H 985.144 6.62819 1.40276 0
M  V30 10588 H 986.087 7.0808 -0.0526951 0
M  V30 10589 H 986.495 5.58282 0.83553 0
M  V30 10590 N 985.893 0.34162 1.53853 0
M  V30 10591 C 987.17 -0.310664 1.93117 0
M  V30 10592 C 987.55 -1.68398 1.273 0
M  V30 10593 O 986.898 -2.24546 0.423225 0
M  V30 10594 C 987.108 -0.384867 3.46871 0
M  V30 10595 C 988.456 -0.636621 4.198 0
M  V30 10596 O 989.48 -0.467061 3.53125 0
M  V30 10597 O 988.339 -0.964962 5.37913 0
M  V30 10598 H 985.433 -0.180881 0.806977 0
M  V30 10599 H 987.979 0.392656 1.65095 0
M  V30 10600 H 986.751 0.57894 3.86994 0
M  V30 10601 H 986.374 -1.13505 3.81054 0
M  V30 10602 N 987.371 -1.57444 0.0701946 0
M  V30 10603 C 988.318 -2.12631 -0.897599 0
M  V30 10604 C 989.288 -1.03841 -1.29639 0
M  V30 10605 O 990.473 -1.31495 -1.38253 0
M  V30 10606 C 987.613 -2.6911 -2.16041 0
M  V30 10607 C 986.726 -3.9205 -1.8144 0
M  V30 10608 C 985.861 -4.36778 -3.02321 0
M  V30 10609 C 984.9 -5.52371 -2.63729 0
M  V30 10610 N 984.037 -5.92065 -3.77364 0
M  V30 10611 H 988.877 -2.95024 -0.420104 0
M  V30 10612 H 986.414 -1.45792 -0.195716 0
M  V30 10613 H 988.372 -2.99963 -2.89962 0
M  V30 10614 H 987.002 -1.89484 -2.61334 0
M  V30 10615 H 986.054 -3.67669 -0.975896 0
M  V30 10616 H 987.366 -4.76011 -1.49046 0
M  V30 10617 H 986.52 -4.69285 -3.84521 0
M  V30 10618 H 985.259 -3.51668 -3.37907 0
M  V30 10619 H 984.264 -5.19517 -1.7995 0
M  V30 10620 H 985.489 -6.39212 -2.29315 0
M  V30 10621 H 983.435 -5.09904 -4.12715 0
M  V30 10622 H 983.352 -6.70762 -3.48733 0
M  V30 10623 H 984.62 -6.29193 -4.60148 0
M  V30 10624 N 988.849 0.203349 -1.56283 0
M  V30 10625 C 990.077 0.941426 -1.84241 0
M  V30 10626 C 990.492 1.77197 -0.651658 0
M  V30 10627 O 989.849 1.78506 0.379713 0
M  V30 10628 C 989.9 1.84429 -3.10915 0
M  V30 10629 O 989.621 1.04729 -4.25398 0
M  V30 10630 C 991.122 2.69474 -3.51993 0
M  V30 10631 H 988.342 0.27507 -0.612027 0
M  V30 10632 H 990.886 0.213088 -2.03387 0
M  V30 10633 H 989.041 2.52635 -2.93691 0
M  V30 10634 H 989.455 1.66179 -4.97478 0
M  V30 10635 H 990.929 3.28495 -4.43616 0
M  V30 10636 H 991.406 3.42775 -2.74594 0
M  V30 10637 H 992.012 2.06652 -3.71719 0
M  V30 10638 N 990.327 1.50405 0.470755 0
M  V30 10639 C 991.29 1.68741 1.5511 0
M  V30 10640 C 992.29 0.558116 1.50804 0
M  V30 10641 O 993.48 0.825149 1.53418 0
M  V30 10642 C 990.612 1.71295 2.94739 0
M  V30 10643 H 991.805 2.65127 1.40169 0
M  V30 10644 H 989.358 1.39891 0.697156 0
M  V30 10645 H 990.093 0.766029 3.15123 0
M  V30 10646 H 989.878 2.53336 2.99271 0
M  V30 10647 H 991.368 1.87434 3.73173 0
M  V30 10648 N 991.805 -0.723954 1.39988 0
M  V30 10649 C 992.738 -1.84725 1.33985 0
M  V30 10650 C 993.716 -1.61217 0.211623 0
M  V30 10651 O 994.9 -1.84338 0.393905 0
M  V30 10652 C 992.027 -3.20913 1.08317 0
M  V30 10653 C 991.073 -3.63262 2.23478 0
M  V30 10654 S 991.906 -3.71346 3.85827 0
M  V30 10655 C 993.062 -5.10307 3.62405 0
M  V30 10656 H 993.295 -1.89535 2.2905 0
M  V30 10657 H 990.828 -0.889911 1.26174 0
M  V30 10658 H 992.786 -3.99547 0.941921 0
M  V30 10659 H 991.447 -3.13745 0.149203 0
M  V30 10660 H 990.64 -4.62124 2.01139 0
M  V30 10661 H 990.242 -2.91863 2.33863 0
M  V30 10662 H 992.534 -5.96975 3.20354 0
M  V30 10663 H 993.477 -5.37679 4.60768 0
M  V30 10664 H 993.885 -4.80505 2.96269 0
M  V30 10665 N 993.283 -1.25346 -0.955304 0
M  V30 10666 C 994.513 -1.12629 -1.732 0
M  V30 10667 C 994.921 0.322748 -1.86427 0
M  V30 10668 O 994.264 1.23381 -1.36099 0
M  V30 10669 C 994.326 -1.7064 -3.16421 0
M  V30 10670 C 993.99 -3.19632 -3.26626 0
M  V30 10671 C 994.987 -4.1663 -3.10991 0
M  V30 10672 C 992.672 -3.59829 -3.50468 0
M  V30 10673 C 994.666 -5.51806 -3.19043 0
M  V30 10674 C 992.353 -4.95143 -3.58157 0
M  V30 10675 C 993.351 -5.90941 -3.42459 0
M  V30 10676 O 993.039 -7.23792 -3.49828 0
M  V30 10677 H 992.771 -0.393646 -0.549562 0
M  V30 10678 H 995.325 -1.66184 -1.20715 0
M  V30 10679 H 993.555 -1.11532 -3.70267 0
M  V30 10680 H 995.244 -1.53032 -3.75947 0
M  V30 10681 H 996.01 -3.86915 -2.92441 0
M  V30 10682 H 991.889 -2.8576 -3.61749 0
M  V30 10683 H 995.433 -6.26559 -3.06707 0
M  V30 10684 H 991.33 -5.24525 -3.76224 0
M  V30 10685 H 992.098 -7.31879 -3.66463 0
M  V30 10686 N 994.761 1.15782 -1.06922 0
M  V30 10687 C 995.709 2.22441 -0.679893 0
M  V30 10688 C 996.703 1.66591 0.307221 0
M  V30 10689 O 997.909 1.79182 0.171402 0
M  V30 10690 H 994.284 0.724427 -0.201765 0
M  V30 10691 H 996.255 2.52562 -1.58918 0
M  V30 10692 C 995.004 3.47586 -0.0891142 0
M  V30 10693 H 994.327 3.9088 -0.839805 0
M  V30 10694 H 995.767 4.2375 0.14569 0
M  V30 10695 C 994.226 3.15967 1.16903 0
M  V30 10696 O 994.756 3.32359 2.25611 0
M  V30 10697 N 992.962 2.70046 1.07349 0
M  V30 10698 H 992.509 2.56907 0.188825 0
M  V30 10699 H 992.467 2.49264 1.91611 0
M  V30 10700 N 996.239 0.8527 1.3254 0
M  V30 10701 C 997.202 0.300959 2.27215 0
M  V30 10702 C 998.202 -0.538235 1.51525 0
M  V30 10703 O 999.392 -0.350027 1.70647 0
M  V30 10704 C 996.524 -0.574428 3.36025 0
M  V30 10705 H 997.717 1.13655 2.77529 0
M  V30 10706 H 995.27 0.626878 1.43178 0
M  V30 10707 H 996.005 -1.43191 2.90976 0
M  V30 10708 H 995.79 0.0262265 3.92091 0
M  V30 10709 H 997.28 -0.9533 4.06573 0
M  V30 10710 N 997.718 -1.45297 0.610449 0
M  V30 10711 C 998.628 -2.34349 -0.108475 0
M  V30 10712 C 999.644 -1.51409 -0.857397 0
M  V30 10713 O 1000.82 -1.84202 -0.814337 0
M  V30 10714 C 997.885 -3.29072 -1.09144 0
M  V30 10715 C 996.946 -4.27918 -0.344165 0
M  V30 10716 C 996.179 -5.18116 -1.28031 0
M  V30 10717 O 996.402 -5.11802 -2.51824 0
M  V30 10718 O 995.336 -5.96879 -0.775821 0
M  V30 10719 H 999.162 -2.97232 0.623421 0
M  V30 10720 H 996.747 -1.44728 0.3707 0
M  V30 10721 H 998.629 -3.87433 -1.65751 0
M  V30 10722 H 997.304 -2.68749 -1.80431 0
M  V30 10723 H 996.211 -3.73164 0.264437 0
M  V30 10724 H 997.544 -4.91104 0.328275 0
M  V30 10725 N 999.196 -0.349774 -1.5367 0
M  V30 10726 C 1000.14 0.504121 -2.25227 0
M  V30 10727 C 1001.11 1.09048 -1.2529 0
M  V30 10728 O 1002.3 1.12594 -1.54037 0
M  V30 10729 C 999.438 1.64601 -3.03316 0
M  V30 10730 C 998.551 1.08635 -4.18118 0
M  V30 10731 C 997.686 2.19605 -4.83681 0
M  V30 10732 C 996.725 1.61023 -5.90541 0
M  V30 10733 N 995.862 2.6576 -6.49858 0
M  V30 10734 H 1000.7 -0.112621 -2.97787 0
M  V30 10735 H 998.239 -0.0673503 -1.46946 0
M  V30 10736 H 1000.2 2.31836 -3.46854 0
M  V30 10737 H 998.827 2.23364 -2.33041 0
M  V30 10738 H 997.879 0.304748 -3.79177 0
M  V30 10739 H 999.191 0.617911 -4.94958 0
M  V30 10740 H 998.345 2.94693 -5.30322 0
M  V30 10741 H 997.084 2.69795 -4.06278 0
M  V30 10742 H 996.089 0.844428 -5.43277 0
M  V30 10743 H 997.314 1.11677 -6.69855 0
M  V30 10744 H 995.26 3.15193 -5.75317 0
M  V30 10745 H 995.177 2.23557 -7.2219 0
M  V30 10746 H 996.445 3.40598 -7.01151 0
M  V30 10747 N 1000.67 1.57404 -0.0785433 0
M  V30 10748 C 1001.92 1.93361 0.58786 0
M  V30 10749 C 1002.24 0.959856 1.6974 0
M  V30 10750 O 1001.51 0.0091173 1.95898 0
M  V30 10751 H 1000.09 0.713825 0.220141 0
M  V30 10752 H 1002.75 1.94411 -0.137986 0
M  V30 10753 H 1001.85 2.95346 1.00881 0
M  V30 10754 N 1002.15 -0.195058 1.56388 0
M  V30 10755 C 1003.4 -0.915444 1.80626 0
M  V30 10756 C 1003.73 -1.83255 0.651768 0
M  V30 10757 O 1002.98 -1.92314 -0.362464 0
M  V30 10758 C 1003.28 -1.7637 3.10851 0
M  V30 10759 C 1002.95 -0.997572 4.39726 0
M  V30 10760 C 1001.61 -0.786043 4.74737 0
M  V30 10761 C 1003.96 -0.45851 5.19179 0
M  V30 10762 C 1001.29 -0.023972 5.86695 0
M  V30 10763 C 1003.64 0.29035 6.31933 0
M  V30 10764 C 1002.3 0.512895 6.65527 0
M  V30 10765 H 1001.57 -0.334985 0.660959 0
M  V30 10766 H 1004.22 -0.181815 1.90635 0
M  V30 10767 H 1002.53 -2.566 2.9608 0
M  V30 10768 H 1004.22 -2.3237 3.26811 0
M  V30 10769 H 1000.81 -1.17245 4.12252 0
M  V30 10770 H 1005 -0.609334 4.92545 0
M  V30 10771 H 1000.25 0.158421 6.11195 0
M  V30 10772 H 1004.43 0.715429 6.92715 0
M  V30 10773 H 1002.05 1.10531 7.52122 0
M  V30 10774 N 1003.63 -1.50653 -0.462772 0
M  V30 10775 C 1004.88 -1.61737 -1.21184 0
M  V30 10776 C 1005.2 -0.32369 -1.92295 0
M  V30 10777 O 1004.47 0.659269 -1.84473 0
M  V30 10778 H 1003.05 -0.596015 -0.450306 0
M  V30 10779 H 1005.71 -1.87469 -0.533051 0
M  V30 10780 H 1004.81 -2.43262 -1.95525 0
M  V30 10781 N 1005.11 0.71652 -1.4037 0
M  V30 10782 C 1006.36 1.47638 -1.38597 0
M  V30 10783 C 1006.68 1.94496 0.0120141 0
M  V30 10784 O 1005.94 1.68437 0.996373 0
M  V30 10785 C 1006.24 2.71777 -2.32103 0
M  V30 10786 C 1005.9 2.43689 -3.79376 0
M  V30 10787 C 1004.57 2.35739 -4.195 0
M  V30 10788 C 1006.92 2.20099 -4.72447 0
M  V30 10789 C 1004.25 2.02265 -5.50732 0
M  V30 10790 C 1006.6 1.88138 -6.03976 0
M  V30 10791 C 1005.26 1.78669 -6.43143 0
M  V30 10792 H 1004.53 0.540246 -0.507163 0
M  V30 10793 H 1007.18 0.820822 -1.73017 0
M  V30 10794 H 1005.48 3.42166 -1.90865 0
M  V30 10795 H 1007.18 3.29864 -2.28015 0
M  V30 10796 H 1003.77 2.50763 -3.47585 0
M  V30 10797 H 1007.95 2.25198 -4.42266 0
M  V30 10798 H 1003.21 1.93471 -5.79982 0
M  V30 10799 H 1007.38 1.68898 -6.75608 0
M  V30 10800 H 1005.01 1.52498 -7.44747 0
M  V30 10801 N 1006.59 1.25851 0.948643 0
M  V30 10802 C 1007.83 1.10735 1.69062 0
M  V30 10803 C 1008.16 -0.351257 1.9181 0
M  V30 10804 O 1007.43 -1.24867 1.50947 0
M  V30 10805 H 1006.01 0.406796 0.626519 0
M  V30 10806 H 1008.67 1.58066 1.14022 0
M  V30 10807 H 1007.76 1.62033 2.66743 0
M  V30 10808 N 1008.06 -1.15214 1.07534 0
M  V30 10809 C 1008.99 -2.2216 0.718837 0
M  V30 10810 C 1009.98 -1.6753 -0.29459 0
M  V30 10811 O 1011.16 -1.93481 -0.166931 0
M  V30 10812 C 1008.29 -3.471 0.117836 0
M  V30 10813 C 1007.24 -4.14701 1.05862 0
M  V30 10814 C 1006.57 -5.3374 0.320284 0
M  V30 10815 C 1007.87 -4.64254 2.39302 0
M  V30 10816 H 1009.56 -2.52237 1.61297 0
M  V30 10817 H 1007.11 -1.21239 0.776992 0
M  V30 10818 H 1009.06 -4.21156 -0.143519 0
M  V30 10819 H 1007.79 -3.16361 -0.811389 0
M  V30 10820 H 1006.45 -3.42589 1.30493 0
M  V30 10821 H 1006.09 -4.99257 -0.61246 0
M  V30 10822 H 1005.79 -5.79912 0.947381 0
M  V30 10823 H 1007.32 -6.10563 0.0667721 0
M  V30 10824 H 1008.73 -5.29827 2.18988 0
M  V30 10825 H 1007.13 -5.21095 2.97623 0
M  V30 10826 H 1008.2 -3.79793 3.01472 0
M  V30 10827 N 1009.54 -0.859717 -1.32086 0
M  V30 10828 C 1010.77 -0.478865 -2.01796 0
M  V30 10829 C 1011.19 0.918274 -1.64163 0
M  V30 10830 O 1010.55 1.60409 -0.844896 0
M  V30 10831 C 1010.6 -0.631356 -3.5503 0
M  V30 10832 O 1009.7 0.333712 -4.11048 0
M  V30 10833 H 1009.04 -0.191775 -0.635703 0
M  V30 10834 H 1011.57 -1.16031 -1.68517 0
M  V30 10835 H 1011.58 -0.520783 -4.04663 0
M  V30 10836 H 1010.26 -1.65015 -3.81763 0
M  V30 10837 H 1008.84 0.178953 -3.7247 0
M  V30 10838 N 1011.02 1.44971 -0.618145 0
M  V30 10839 C 1011.95 2.33357 0.0815955 0
M  V30 10840 C 1012.93 1.47451 0.848072 0
M  V30 10841 O 1014.12 1.762 0.816532 0
M  V30 10842 C 1011.25 3.30324 1.07253 0
M  V30 10843 C 1010.2 4.25948 0.418563 0
M  V30 10844 C 1009.53 5.12685 1.51849 0
M  V30 10845 C 1010.83 5.18024 -0.66697 0
M  V30 10846 H 1012.52 2.92115 -0.656442 0
M  V30 10847 H 1010.07 1.40465 -0.317129 0
M  V30 10848 H 1012.02 3.91033 1.57069 0
M  V30 10849 H 1010.74 2.69748 1.8413 0
M  V30 10850 H 1009.4 3.66553 -0.0588308 0
M  V30 10851 H 1009.05 4.4847 2.2778 0
M  V30 10852 H 1008.75 5.7747 1.08637 0
M  V30 10853 H 1010.27 5.76264 2.01871 0
M  V30 10854 H 1011.69 5.72744 -0.252448 0
M  V30 10855 H 1010.09 5.91343 -1.02146 0
M  V30 10856 H 1011.16 4.59817 -1.53936 0
M  V30 10857 N 1012.5 0.357919 1.53482 0
M  V30 10858 C 1013.75 -0.234163 2.01142 0
M  V30 10859 C 1014.07 -1.49399 1.2454 0
M  V30 10860 O 1013.33 -1.92981 0.325111 0
M  V30 10861 C 1013.63 -0.579617 3.52669 0
M  V30 10862 C 1013.29 0.584988 4.47089 0
M  V30 10863 C 1011.96 0.904558 4.72622 0
M  V30 10864 C 1014.31 1.3656 5.02992 0
M  V30 10865 C 1011.64 2.00685 5.5131 0
M  V30 10866 C 1013.99 2.45824 5.82884 0
M  V30 10867 C 1012.65 2.78325 6.06706 0
M  V30 10868 H 1011.92 -0.0856863 0.736029 0
M  V30 10869 H 1014.57 0.488801 1.85157 0
M  V30 10870 H 1012.87 -1.38349 3.66561 0
M  V30 10871 H 1014.57 -1.04985 3.87013 0
M  V30 10872 H 1011.16 0.32587 4.27359 0
M  V30 10873 H 1015.34 1.13196 4.83219 0
M  V30 10874 H 1010.6 2.26272 5.67988 0
M  V30 10875 H 1014.77 3.06732 6.25211 0
M  V30 10876 H 1012.4 3.63862 6.67464 0
M  V30 10877 N 1013.98 -1.5736 0.0868897 0
M  V30 10878 C 1015.2 -1.98809 -0.590757 0
M  V30 10879 C 1015.63 -0.965407 -1.61436 0
M  V30 10880 O 1014.98 0.067143 -1.81176 0
M  V30 10881 C 1015.03 -3.39249 -1.22238 0
M  V30 10882 O 1014.14 -3.39706 -2.33824 0
M  V30 10883 H 1013.48 -0.64669 -0.150626 0
M  V30 10884 H 1016.01 -2.03927 0.165873 0
M  V30 10885 H 1016.02 -3.76765 -1.56564 0
M  V30 10886 H 1014.69 -4.13208 -0.472434 0
M  V30 10887 H 1013.27 -3.13977 -2.01178 0
M  V30 10888 N 1015.45 0.186762 -1.56489 0
M  V30 10889 C 1016.68 0.925916 -1.85584 0
M  V30 10890 C 1017.1 1.75708 -0.671446 0
M  V30 10891 O 1016.46 1.7728 0.379687 0
M  V30 10892 C 1016.51 1.79107 -3.12975 0
M  V30 10893 O 1015.61 2.89088 -2.94112 0
M  V30 10894 H 1014.96 0.260275 -0.610863 0
M  V30 10895 H 1017.49 0.189561 -2.0372 0
M  V30 10896 H 1017.5 2.19408 -3.43983 0
M  V30 10897 H 1016.17 1.18044 -3.98796 0
M  V30 10898 H 1014.75 2.52482 -2.74422 0
M  V30 10899 N 1016.93 1.50896 0.454776 0
M  V30 10900 C 1018.35 1.38684 0.78987 0
M  V30 10901 C 1018.55 0.455587 1.96282 0
M  V30 10902 O 1017.6 -0.0957503 2.52318 0
M  V30 10903 C 1018.92 2.80381 1.08661 0
M  V30 10904 C 1020.47 2.8941 1.19209 0
M  V30 10905 C 1020.94 4.31976 1.52187 0
M  V30 10906 N 1022.43 4.35002 1.59146 0
M  V30 10907 C 1023.17 5.42326 1.862 0
M  V30 10908 N 1022.66 6.59835 2.11164 0
M  V30 10909 N 1024.46 5.29786 1.87838 0
M  V30 10910 H 1016.61 2.10006 -0.317981 0
M  V30 10911 H 1018.87 0.944636 -0.0797969 0
M  V30 10912 H 1018.58 3.50438 0.297626 0
M  V30 10913 H 1018.45 3.18634 2.01872 0
M  V30 10914 H 1020.84 2.19561 1.97173 0
M  V30 10915 H 1020.92 2.54677 0.239401 0
M  V30 10916 H 1020.56 5.02368 0.747576 0
M  V30 10917 H 1020.49 4.64208 2.48633 0
M  V30 10918 H 1022.98 3.50276 1.41828 0
M  V30 10919 H 1023.3 7.37428 2.31128 0
M  V30 10920 H 1021.64 6.62981 2.08522 0
M  V30 10921 H 1024.83 4.36974 1.67843 0
M  V30 10922 H 1025 6.13511 2.08585 0
M  V30 10923 N 1018.41 -0.709066 1.40748 0
M  V30 10924 C 1019.64 -1.49808 1.42707 0
M  V30 10925 C 1020.05 -1.88778 0.0285574 0
M  V30 10926 O 1019.41 -1.55883 -0.949035 0
M  V30 10927 C 1019.46 -2.76926 2.32366 0
M  V30 10928 O 1019.18 -2.39602 3.66773 0
M  V30 10929 C 1020.68 -3.70773 2.42986 0
M  V30 10930 H 1017.9 -0.462106 0.486517 0
M  V30 10931 H 1020.45 -0.874135 1.84876 0
M  V30 10932 H 1018.6 -3.3559 1.93541 0
M  V30 10933 H 1019.02 -3.21443 4.14457 0
M  V30 10934 H 1020.49 -4.56789 3.09916 0
M  V30 10935 H 1020.97 -4.14332 1.45691 0
M  V30 10936 H 1021.57 -3.18019 2.8239 0
M  V30 10937 N 1019.89 -1.26353 -0.941956 0
M  V30 10938 C 1020.82 -1.10341 -2.05784 0
M  V30 10939 C 1021.8 -0.00881565 -1.70098 0
M  V30 10940 O 1022.99 -0.180699 -1.93357 0
M  V30 10941 C 1020.12 -0.734788 -3.39438 0
M  V30 10942 C 1019.07 -1.78103 -3.89183 0
M  V30 10943 C 1018.4 -1.26675 -5.19478 0
M  V30 10944 C 1019.7 -3.1824 -4.14151 0
M  V30 10945 H 1021.39 -2.03684 -2.19438 0
M  V30 10946 H 1018.94 -0.980698 -1.05443 0
M  V30 10947 H 1020.89 -0.609653 -4.16967 0
M  V30 10948 H 1019.61 0.234354 -3.25758 0
M  V30 10949 H 1018.27 -1.89482 -3.13835 0
M  V30 10950 H 1017.92 -0.287472 -5.02178 0
M  V30 10951 H 1017.62 -1.96612 -5.53731 0
M  V30 10952 H 1019.14 -1.15427 -5.99591 0
M  V30 10953 H 1020.56 -3.09942 -4.82296 0
M  V30 10954 H 1018.95 -3.8576 -4.59684 0
M  V30 10955 H 1020.02 -3.64354 -3.19959 0
M  V30 10956 N 1021.37 1.14642 -1.08144 0
M  V30 10957 C 1022.32 2.21708 -0.703448 0
M  V30 10958 C 1023.31 1.66907 0.289535 0
M  V30 10959 O 1024.52 1.79354 0.152387 0
M  V30 10960 H 1020.89 0.722247 -0.209437 0
M  V30 10961 H 1022.86 2.50862 -1.61588 0
M  V30 10962 C 1021.61 3.47472 -0.125975 0
M  V30 10963 H 1020.93 3.89967 -0.881216 0
M  V30 10964 H 1022.37 4.2388 0.100737 0
M  V30 10965 C 1020.83 3.17189 1.13546 0
M  V30 10966 O 1021.36 3.34733 2.22073 0
M  V30 10967 N 1019.57 2.71169 1.04479 0
M  V30 10968 H 1019.12 2.57093 0.161566 0
M  V30 10969 H 1019.07 2.51282 1.88957 0
M  V30 10970 N 1022.85 0.866709 1.31628 0
M  V30 10971 C 1024.08 0.489679 2.00713 0
M  V30 10972 C 1024.48 -0.921492 1.65243 0
M  V30 10973 O 1023.83 -1.61467 0.876012 0
M  V30 10974 C 1023.89 0.563148 3.55062 0
M  V30 10975 C 1023.55 1.93535 4.13996 0
M  V30 10976 C 1024.55 2.90243 4.31341 0
M  V30 10977 C 1022.23 2.23578 4.49798 0
M  V30 10978 C 1024.23 4.15138 4.83673 0
M  V30 10979 C 1021.92 3.48723 5.01832 0
M  V30 10980 C 1022.91 4.44319 5.18719 0
M  V30 10981 O 1022.6 5.67247 5.69637 0
M  V30 10982 H 1022.33 0.189605 0.648865 0
M  V30 10983 H 1024.89 1.16874 1.68907 0
M  V30 10984 H 1023.12 -0.172815 3.86314 0
M  V30 10985 H 1024.81 0.200009 4.05407 0
M  V30 10986 H 1025.57 2.6834 4.04003 0
M  V30 10987 H 1021.45 1.49949 4.35932 0
M  V30 10988 H 1025 4.89762 4.96769 0
M  V30 10989 H 1020.89 3.70471 5.28603 0
M  V30 10990 H 1021.66 5.69372 5.88011 0
M  V30 10991 N 1024.32 -1.44642 0.625825 0
M  V30 10992 C 1025.23 -2.34451 -0.0836134 0
M  V30 10993 C 1026.25 -1.5231 -0.841289 0
M  V30 10994 O 1027.43 -1.85056 -0.794754 0
M  V30 10995 C 1024.49 -3.30211 -1.05648 0
M  V30 10996 C 1023.55 -4.28259 -0.298759 0
M  V30 10997 C 1022.78 -5.19444 -1.22528 0
M  V30 10998 O 1023.01 -5.14444 -2.46382 0
M  V30 10999 O 1021.94 -5.97668 -0.71247 0
M  V30 11000 H 1025.77 -2.96555 0.654912 0
M  V30 11001 H 1023.35 -1.44327 0.386029 0
M  V30 11002 H 1025.23 -3.8917 -1.61632 0
M  V30 11003 H 1023.91 -2.70648 -1.77571 0
M  V30 11004 H 1022.82 -3.72863 0.304001 0
M  V30 11005 H 1024.15 -4.90728 0.380345 0
M  V30 11006 N 1025.8 -0.366053 -1.5329 0
M  V30 11007 C 1026.75 0.496656 -2.22525 0
M  V30 11008 C 1027.74 1.0483 -1.22063 0
M  V30 11009 O 1028.93 0.978266 -1.47509 0
M  V30 11010 C 1026.06 1.63559 -3.01833 0
M  V30 11011 C 1025.14 1.0968 -4.09672 0
M  V30 11012 N 1025.53 0.28104 -5.05019 0
M  V30 11013 C 1023.83 1.37157 -4.24387 0
M  V30 11014 C 1024.53 -0.0140071 -5.81698 0
M  V30 11015 N 1023.51 0.583743 -5.40457 0
M  V30 11016 H 1027.31 -0.133408 -2.93597 0
M  V30 11017 H 1024.82 -0.174095 -1.61464 0
M  V30 11018 H 1026.82 2.26582 -3.49952 0
M  V30 11019 H 1025.48 2.26871 -2.32292 0
M  V30 11020 H 1026.49 -0.0797947 -5.17839 0
M  V30 11021 H 1023.17 2.00743 -3.66072 0
M  V30 11022 H 1024.56 -0.673508 -6.68516 0
M  V30 11023 N 1027.28 1.57312 -0.0952337 0
M  V30 11024 C 1028.21 2.09691 0.900274 0
M  V30 11025 C 1029.19 1.0075 1.27625 0
M  V30 11026 O 1030.37 1.28249 1.38147 0
M  V30 11027 C 1027.5 2.574 2.20142 0
M  V30 11028 C 1026.55 3.78 1.9753 0
M  V30 11029 S 1027.38 5.21577 1.21318 0
M  V30 11030 C 1028.54 5.72636 2.52663 0
M  V30 11031 H 1028.77 2.93803 0.45467 0
M  V30 11032 H 1026.3 1.53948 0.118056 0
M  V30 11033 H 1028.26 2.85546 2.94914 0
M  V30 11034 H 1026.92 1.73514 2.61824 0
M  V30 11035 H 1026.11 4.09451 2.93881 0
M  V30 11036 H 1025.72 3.50349 1.30888 0
M  V30 11037 H 1028.01 5.80911 3.48638 0
M  V30 11038 H 1028.95 6.71136 2.25791 0
M  V30 11039 H 1029.36 5.00569 2.60943 0
M  V30 11040 N 1028.76 -0.17846 1.56586 0
M  V30 11041 C 1029.71 -1.24042 1.96765 0
M  V30 11042 C 1030.7 -1.46218 0.855375 0
M  V30 11043 O 1031.91 -1.46882 1.04046 0
M  V30 11044 H 1028.28 -0.416807 0.62592 0
M  V30 11045 H 1030.25 -0.874644 2.85294 0
M  V30 11046 C 1029 -2.57394 2.3376 0
M  V30 11047 H 1028.32 -2.41151 3.18883 0
M  V30 11048 H 1029.76 -3.30405 2.65723 0
M  V30 11049 C 1028.22 -3.15621 1.17835 0
M  V30 11050 O 1028.75 -3.99032 0.462202 0
M  V30 11051 N 1026.96 -2.74606 0.950783 0
M  V30 11052 H 1026.51 -2.06878 1.5349 0
M  V30 11053 H 1026.46 -3.13902 0.176967 0
M  V30 11054 N 1030.24 -1.51135 -0.446768 0
M  V30 11055 C 1031.18 -1.71767 -1.54158 0
M  V30 11056 C 1032.15 -0.559201 -1.56404 0
M  V30 11057 O 1033.34 -0.792567 -1.7356 0
M  V30 11058 C 1030.48 -1.84006 -2.91952 0
M  V30 11059 C 1029.59 -3.11511 -2.99308 0
M  V30 11060 C 1028.73 -3.144 -4.28166 0
M  V30 11061 C 1027.76 -4.36258 -4.29355 0
M  V30 11062 N 1026.9 -4.3675 -5.49722 0
M  V30 11063 H 1031.74 -2.65224 -1.35869 0
M  V30 11064 H 1029.28 -1.31453 -0.660186 0
M  V30 11065 H 1031.24 -1.89083 -3.71892 0
M  V30 11066 H 1029.87 -0.939661 -3.08821 0
M  V30 11067 H 1028.92 -3.15788 -2.12089 0
M  V30 11068 H 1030.23 -4.01445 -2.96047 0
M  V30 11069 H 1029.38 -3.18341 -5.16473 0
M  V30 11070 H 1028.12 -2.22338 -4.3407 0
M  V30 11071 H 1027.13 -4.32503 -3.39442 0
M  V30 11072 H 1028.35 -5.29574 -4.25122 0
M  V30 11073 H 1026.3 -3.47554 -5.56365 0
M  V30 11074 H 1026.22 -5.20481 -5.48302 0
M  V30 11075 H 1027.48 -4.4487 -6.40086 0
M  V30 11076 N 1031.71 0.701592 -1.41122 0
M  V30 11077 C 1032.62 1.84548 -1.44841 0
M  V30 11078 C 1033.64 1.70654 -0.339594 0
M  V30 11079 O 1034.82 1.92675 -0.586378 0
M  V30 11080 C 1031.88 3.20477 -1.3227 0
M  V30 11081 C 1030.94 3.46524 -2.53415 0
M  V30 11082 C 1030.17 4.75968 -2.41434 0
M  V30 11083 O 1030.4 5.52037 -1.43566 0
M  V30 11084 O 1029.33 5.02664 -3.31078 0
M  V30 11085 H 1033.16 1.84367 -2.41335 0
M  V30 11086 H 1030.74 0.853863 -1.22595 0
M  V30 11087 H 1032.62 4.01642 -1.2752 0
M  V30 11088 H 1031.3 3.21355 -0.388889 0
M  V30 11089 H 1030.21 2.65313 -2.63742 0
M  V30 11090 H 1031.54 3.50455 -3.45604 0
M  V30 11091 N 1033.19 1.2685 0.935242 0
M  V30 11092 C 1034.14 1.08746 2.05614 0
M  V30 11093 C 1035.13 0.012681 1.69395 0
M  V30 11094 O 1036.34 0.169822 1.79197 0
M  V30 11095 H 1032.71 0.33485 0.673335 0
M  V30 11096 H 1034.69 2.03725 2.18033 0
M  V30 11097 C 1033.43 0.74346 3.39659 0
M  V30 11098 H 1032.76 1.56236 3.68008 0
M  V30 11099 H 1034.2 0.656607 4.18885 0
M  V30 11100 C 1032.66 -0.551751 3.32351 0
M  V30 11101 O 1033.19 -1.58836 3.68963 0
M  V30 11102 N 1031.39 -0.544583 2.85452 0
M  V30 11103 H 1030.94 0.29939 2.55854 0
M  V30 11104 H 1030.9 -1.41129 2.80945 0
M  V30 11105 N 1034.67 -1.14067 1.0875 0
M  V30 11106 C 1035.62 -2.19261 0.720633 0
M  V30 11107 C 1036.59 -1.63462 -0.294847 0
M  V30 11108 O 1037.77 -1.89967 -0.178058 0
M  V30 11109 C 1034.91 -3.44816 0.139873 0
M  V30 11110 C 1034.03 -4.1475 1.20856 0
M  V30 11111 C 1033.16 -5.27899 0.591285 0
M  V30 11112 C 1032.2 -5.89672 1.64176 0
M  V30 11113 N 1031.34 -6.94264 1.04603 0
M  V30 11114 H 1036.18 -2.49991 1.62198 0
M  V30 11115 H 1033.71 -1.22757 0.810497 0
M  V30 11116 H 1035.67 -4.16648 -0.214587 0
M  V30 11117 H 1034.3 -3.14558 -0.724774 0
M  V30 11118 H 1033.35 -3.41272 1.6804 0
M  V30 11119 H 1034.67 -4.56753 2.00446 0
M  V30 11120 H 1033.82 -6.06417 0.185271 0
M  V30 11121 H 1032.56 -4.87128 -0.236236 0
M  V30 11122 H 1031.56 -5.09854 2.05739 0
M  V30 11123 H 1032.79 -6.32517 2.47182 0
M  V30 11124 H 1030.73 -6.55562 0.239664 0
M  V30 11125 H 1030.65 -7.34771 1.77898 0
M  V30 11126 H 1031.92 -7.7665 0.665989 0
M  V30 11127 N 1036.15 -0.873678 -1.31166 0
M  V30 11128 C 1037.56 -0.566109 -1.49223 0
M  V30 11129 C 1037.76 0.898889 -1.80339 0
M  V30 11130 O 1036.82 1.68084 -1.88425 0
M  V30 11131 C 1038.13 -1.46952 -2.62346 0
M  V30 11132 C 1039.68 -1.47195 -2.76229 0
M  V30 11133 C 1040.16 -2.36102 -3.92454 0
M  V30 11134 N 1041.65 -2.34003 -3.99746 0
M  V30 11135 C 1042.38 -2.99513 -4.88958 0
M  V30 11136 N 1041.88 -3.74206 -5.83045 0
M  V30 11137 N 1043.67 -2.88802 -4.82234 0
M  V30 11138 H 1035.82 -1.82156 -1.09239 0
M  V30 11139 H 1038.09 -0.779086 -0.54012 0
M  V30 11140 H 1037.79 -2.51213 -2.4614 0
M  V30 11141 H 1037.67 -1.17077 -3.5857 0
M  V30 11142 H 1040.05 -0.436902 -2.91848 0
M  V30 11143 H 1040.13 -1.81095 -1.80661 0
M  V30 11144 H 1039.78 -3.39685 -3.77593 0
M  V30 11145 H 1039.71 -1.99524 -4.87337 0
M  V30 11146 H 1042.2 -1.79713 -3.32433 0
M  V30 11147 H 1042.51 -4.21312 -6.47855 0
M  V30 11148 H 1040.86 -3.78314 -5.83012 0
M  V30 11149 H 1044.05 -2.29984 -4.07707 0
M  V30 11150 H 1044.22 -3.40136 -5.51554 0
M  V30 11151 N 1037.63 1.44308 -0.633487 0
M  V30 11152 C 1038.87 2.01624 -0.138643 0
M  V30 11153 C 1039.2 1.50101 1.24477 0
M  V30 11154 O 1038.47 0.705575 1.82752 0
M  V30 11155 H 1037.05 0.745439 -0.0482636 0
M  V30 11156 H 1039.71 1.76777 -0.820719 0
M  V30 11157 H 1038.8 3.11913 -0.108136 0
M  V30 11158 N 1039.1 0.374177 1.53094 0
M  V30 11159 C 1040.35 -0.205669 2.02358 0
M  V30 11160 C 1040.71 -1.4572 1.25633 0
M  V30 11161 O 1040 -1.88487 0.343977 0
M  V30 11162 C 1040.19 -0.542179 3.53264 0
M  V30 11163 C 1040.02 0.675186 4.44602 0
M  V30 11164 C 1038.79 1.18987 4.91091 0
M  V30 11165 C 1040.99 1.54299 4.90608 0
M  V30 11166 N 1038.97 2.36637 5.66459 0
M  V30 11167 C 1040.34 2.56605 5.64406 0
M  V30 11168 C 1042.4 1.56486 4.7267 0
M  V30 11169 C 1041.1 3.60965 6.22171 0
M  V30 11170 C 1043.13 2.59745 5.31307 0
M  V30 11171 C 1042.49 3.60774 6.04997 0
M  V30 11172 H 1038.59 -0.0377471 0.781088 0
M  V30 11173 H 1041.17 0.520661 1.87609 0
M  V30 11174 H 1039.34 -1.23758 3.68156 0
M  V30 11175 H 1041.07 -1.10786 3.89241 0
M  V30 11176 H 1037.83 0.753181 4.67573 0
M  V30 11177 H 1038.25 2.96123 6.08802 0
M  V30 11178 H 1042.9 0.797296 4.15214 0
M  V30 11179 H 1040.61 4.38599 6.78717 0
M  V30 11180 H 1044.2 2.62301 5.19316 0
M  V30 11181 H 1043.08 4.39363 6.49561 0
M  V30 11182 N 1040.58 -1.57259 0.103575 0
M  V30 11183 C 1041.81 -1.98711 -0.565454 0
M  V30 11184 C 1042.22 -0.981759 -1.61735 0
M  V30 11185 O 1041.56 0.0357019 -1.83665 0
M  V30 11186 C 1041.63 -3.36552 -1.26384 0
M  V30 11187 C 1041.29 -4.55566 -0.361714 0
M  V30 11188 C 1042.29 -5.18408 0.393539 0
M  V30 11189 C 1039.97 -5.01534 -0.277292 0
M  V30 11190 C 1041.97 -6.25594 1.2211 0
M  V30 11191 C 1039.65 -6.08584 0.553919 0
M  V30 11192 C 1040.65 -6.7048 1.30176 0
M  V30 11193 O 1040.34 -7.75464 2.1192 0
M  V30 11194 H 1040.07 -0.657853 -0.155582 0
M  V30 11195 H 1042.62 -2.04591 0.182089 0
M  V30 11196 H 1040.85 -3.2738 -2.05813 0
M  V30 11197 H 1042.54 -3.62395 -1.82824 0
M  V30 11198 H 1043.31 -4.8382 0.338098 0
M  V30 11199 H 1039.19 -4.53114 -0.849047 0
M  V30 11200 H 1042.73 -6.73836 1.80531 0
M  V30 11201 H 1038.63 -6.42604 0.610809 0
M  V30 11202 H 1039.4 -7.92491 2.04694 0
M  V30 11203 N 1042.06 0.170153 -1.56679 0
M  V30 11204 C 1043.29 0.902134 -1.86197 0
M  V30 11205 C 1043.7 1.75775 -0.689098 0
M  V30 11206 O 1043.06 1.79271 0.341763 0
M  V30 11207 C 1043.11 1.77792 -3.14757 0
M  V30 11208 O 1042.83 0.956817 -4.27524 0
M  V30 11209 C 1044.33 2.61947 -3.57629 0
M  V30 11210 H 1041.55 0.262026 -0.617724 0
M  V30 11211 H 1044.1 0.169899 -2.03793 0
M  V30 11212 H 1042.25 2.46348 -2.98984 0
M  V30 11213 H 1042.67 1.5559 -5.00891 0
M  V30 11214 H 1044.14 3.19011 -4.50484 0
M  V30 11215 H 1044.62 3.36873 -2.81803 0
M  V30 11216 H 1045.22 1.98721 -3.76019 0
M  V30 11217 N 1043.54 1.5137 0.438746 0
M  V30 11218 C 1044.76 1.68058 1.21537 0
M  V30 11219 C 1045.19 0.376787 1.84288 0
M  V30 11220 O 1044.55 -0.662911 1.68746 0
M  V30 11221 C 1044.59 2.79684 2.27616 0
M  V30 11222 O 1043.7 2.43189 3.33066 0
M  V30 11223 H 1043.04 0.560408 0.356144 0
M  V30 11224 H 1045.57 1.97926 0.518311 0
M  V30 11225 H 1045.58 3.03726 2.72423 0
M  V30 11226 H 1044.25 3.74293 1.81321 0
M  V30 11227 H 1042.83 2.29713 2.93746 0
M  V30 11228 N 1045.02 -0.694098 1.41492 0
M  V30 11229 C 1046.29 -1.44875 1.31418 0
M  V30 11230 C 1046.67 -2.11022 -0.0575538 0
M  V30 11231 O 1046.02 -2.01799 -1.07188 0
M  V30 11232 C 1046.23 -2.46698 2.46863 0
M  V30 11233 C 1047.58 -3.11907 2.88095 0
M  V30 11234 O 1048.6 -2.57022 2.46613 0
M  V30 11235 O 1047.46 -4.11318 3.59833 0
M  V30 11236 H 1044.56 -0.645266 0.517263 0
M  V30 11237 H 1047.1 -0.724452 1.53459 0
M  V30 11238 H 1045.87 -1.96485 3.38392 0
M  V30 11239 H 1045.5 -3.26634 2.26706 0
M  V30 11240 N 1046.49 -1.27344 -0.928501 0
M  V30 11241 C 1047.74 -1.13411 -1.67279 0
M  V30 11242 C 1048.06 0.320698 -1.92345 0
M  V30 11243 O 1047.33 1.2245 -1.52915 0
M  V30 11244 H 1045.91 -0.416712 -0.619968 0
M  V30 11245 H 1048.58 -1.5986 -1.11493 0
M  V30 11246 H 1047.67 -1.66256 -2.64131 0
M  V30 11247 N 1047.97 1.13488 -1.09353 0
M  V30 11248 C 1048.91 2.17951 -0.67622 0
M  V30 11249 C 1049.88 1.59482 0.316906 0
M  V30 11250 O 1051.07 1.8723 0.218459 0
M  V30 11251 C 1048.19 3.387 0.00391024 0
M  V30 11252 C 1047.24 4.15764 -0.950906 0
M  V30 11253 S 1048.07 4.75517 -2.46259 0
M  V30 11254 C 1049.23 5.99613 -1.79485 0
M  V30 11255 H 1049.46 2.53012 -1.56115 0
M  V30 11256 H 1047 1.24773 -0.909447 0
M  V30 11257 H 1048.95 4.08643 0.39002 0
M  V30 11258 H 1047.61 3.01941 0.86548 0
M  V30 11259 H 1046.81 5.02229 -0.422086 0
M  V30 11260 H 1046.41 3.51473 -1.27838 0
M  V30 11261 H 1048.7 6.68204 -1.11846 0
M  V30 11262 H 1049.64 6.57102 -2.63862 0
M  V30 11263 H 1050.05 5.50165 -1.26409 0
M  V30 11264 N 1049.45 0.880621 1.30701 0
M  V30 11265 C 1050.7 0.496875 1.96309 0
M  V30 11266 C 1051.03 -0.953064 1.69549 0
M  V30 11267 O 1050.28 -1.68782 0.990507 0
M  V30 11268 C 1050.58 0.713203 3.50212 0
M  V30 11269 C 1050.25 2.13756 3.97013 0
M  V30 11270 C 1048.91 2.52706 4.09503 0
M  V30 11271 C 1051.26 3.066 4.21481 0
M  V30 11272 C 1048.59 3.8372 4.43819 0
M  V30 11273 C 1050.94 4.3714 4.57265 0
M  V30 11274 C 1049.6 4.7599 4.67963 0
M  V30 11275 H 1048.87 0.18182 0.718347 0
M  V30 11276 H 1051.52 1.11564 1.55646 0
M  V30 11277 H 1049.83 0.0113694 3.91798 0
M  V30 11278 H 1051.52 0.39595 3.9904 0
M  V30 11279 H 1048.11 1.8252 3.87794 0
M  V30 11280 H 1052.3 2.77729 4.11315 0
M  V30 11281 H 1047.55 4.13568 4.50301 0
M  V30 11282 H 1051.73 5.09123 4.75149 0
M  V30 11283 H 1049.35 5.77549 4.94309 0
M  V30 11284 N 1050.93 -1.4397 0.641131 0
M  V30 11285 C 1052.16 -2.06004 0.156779 0
M  V30 11286 C 1052.57 -1.48059 -1.17793 0
M  V30 11287 O 1051.91 -0.601788 -1.73563 0
M  V30 11288 C 1051.97 -3.59493 -0.0217203 0
M  V30 11289 C 1051.64 -4.39957 1.23639 0
M  V30 11290 C 1052.63 -4.72797 2.16239 0
M  V30 11291 C 1050.32 -4.80168 1.4746 0
M  V30 11292 C 1052.31 -5.44741 3.30962 0
M  V30 11293 C 1050 -5.51859 2.62478 0
M  V30 11294 C 1051 -5.84067 3.54055 0
M  V30 11295 O 1050.69 -6.54296 4.67067 0
M  V30 11296 H 1050.42 -0.671061 0.0815685 0
M  V30 11297 H 1052.97 -1.85664 0.878517 0
M  V30 11298 H 1051.2 -3.78362 -0.798707 0
M  V30 11299 H 1052.89 -4.03263 -0.461893 0
M  V30 11300 H 1053.66 -4.42261 1.99073 0
M  V30 11301 H 1049.54 -4.54513 0.770652 0
M  V30 11302 H 1053.08 -5.69798 4.02462 0
M  V30 11303 H 1048.98 -5.81811 2.79583 0
M  V30 11304 H 1049.74 -6.72772 4.66177 0
M  V30 11305 N 1052.41 -0.382291 -1.52893 0
M  V30 11306 C 1053.34 0.447829 -2.29165 0
M  V30 11307 C 1054.32 1.06956 -1.32267 0
M  V30 11308 O 1055.5 1.08365 -1.61154 0
M  V30 11309 C 1052.63 1.57902 -3.09329 0
M  V30 11310 C 1051.59 1.08369 -4.14053 0
M  V30 11311 C 1050.91 2.30641 -4.82399 0
M  V30 11312 C 1052.21 0.156591 -5.22065 0
M  V30 11313 H 1053.91 -0.188541 -2.98806 0
M  V30 11314 H 1051.45 -0.0921179 -1.43705 0
M  V30 11315 H 1053.41 2.16652 -3.61442 0
M  V30 11316 H 1052.13 2.24287 -2.37409 0
M  V30 11317 H 1050.79 0.518772 -3.62911 0
M  V30 11318 H 1050.44 2.9552 -4.07034 0
M  V30 11319 H 1050.14 1.98163 -5.53177 0
M  V30 11320 H 1051.66 2.90047 -5.37313 0
M  V30 11321 H 1053.08 0.652065 -5.6958 0
M  V30 11322 H 1051.47 -0.0780978 -6.00049 0
M  V30 11323 H 1052.54 -0.796529 -4.78313 0
M  V30 11324 N 1053.89 1.57202 -0.111913 0
M  V30 11325 C 1055.12 1.99008 0.554907 0
M  V30 11326 C 1055.52 0.990323 1.61212 0
M  V30 11327 O 1054.87 -0.0259612 1.83682 0
M  V30 11328 C 1054.93 3.37218 1.24598 0
M  V30 11329 C 1054.59 4.55752 0.337549 0
M  V30 11330 C 1055.59 5.18192 -0.421026 0
M  V30 11331 C 1053.27 5.01674 0.25069 0
M  V30 11332 C 1055.27 6.24938 -1.25426 0
M  V30 11333 C 1052.96 6.08282 -0.586186 0
M  V30 11334 C 1053.95 6.6978 -1.3373 0
M  V30 11335 O 1053.64 7.7433 -2.16029 0
M  V30 11336 H 1053.37 0.658669 0.152091 0
M  V30 11337 H 1055.93 2.04492 -0.192937 0
M  V30 11338 H 1054.16 3.28467 2.04074 0
M  V30 11339 H 1055.85 3.63359 1.809 0
M  V30 11340 H 1056.61 4.83634 -0.363752 0
M  V30 11341 H 1052.49 4.53558 0.825005 0
M  V30 11342 H 1056.04 6.72869 -1.84102 0
M  V30 11343 H 1051.93 6.42271 -0.64488 0
M  V30 11344 H 1052.7 7.91395 -2.08894 0
M  V30 11345 N 1055.36 -0.161842 1.56767 0
M  V30 11346 C 1056.31 -1.21948 1.98069 0
M  V30 11347 C 1057.31 -1.45303 0.870835 0
M  V30 11348 O 1058.51 -1.45771 1.05598 0
M  V30 11349 H 1054.89 -0.410145 0.630306 0
M  V30 11350 H 1056.86 -0.844336 2.86205 0
M  V30 11351 C 1055.61 -2.549 2.36477 0
M  V30 11352 H 1054.93 -2.37755 3.21423 0
M  V30 11353 H 1056.37 -3.27568 2.69212 0
M  V30 11354 C 1054.83 -3.14353 1.21176 0
M  V30 11355 O 1055.36 -3.98519 0.504499 0
M  V30 11356 N 1053.56 -2.73582 0.979855 0
M  V30 11357 H 1053.11 -2.05239 1.55675 0
M  V30 11358 H 1053.07 -3.13696 0.21025 0
M  V30 11359 N 1056.84 -1.516 -0.430713 0
M  V30 11360 C 1058.09 -1.64271 -1.17726 0
M  V30 11361 C 1058.41 -0.364406 -1.91565 0
M  V30 11362 O 1057.68 0.619991 -1.8583 0
M  V30 11363 H 1056.26 -0.605432 -0.437562 0
M  V30 11364 H 1058.92 -1.88557 -0.493166 0
M  V30 11365 H 1058.02 -2.47355 -1.90321 0
M  V30 11366 N 1058.32 0.686584 -1.41858 0
M  V30 11367 C 1059.6 1.44176 -1.32185 0
M  V30 11368 C 1059.98 2.11049 0.046362 0
M  V30 11369 O 1059.32 2.02365 1.06117 0
M  V30 11370 C 1059.53 2.45385 -2.48168 0
M  V30 11371 C 1060.88 3.10375 -2.89746 0
M  V30 11372 O 1061.91 2.55711 -2.47973 0
M  V30 11373 O 1060.77 4.09404 -3.62009 0
M  V30 11374 H 1057.86 0.642513 -0.520678 0
M  V30 11375 H 1060.41 0.716303 -1.53841 0
M  V30 11376 H 1059.18 1.94687 -3.3943 0
M  V30 11377 H 1058.8 3.25428 -2.28435 0
M  V30 11378 N 1059.8 1.27835 0.921735 0
M  V30 11379 C 1060.73 1.136 2.04003 0
M  V30 11380 C 1061.71 0.0358756 1.70062 0
M  V30 11381 O 1062.89 0.211438 1.93046 0
M  V30 11382 C 1060.02 0.788697 3.38226 0
M  V30 11383 C 1058.98 1.84272 3.863 0
M  V30 11384 C 1058.3 1.34923 5.17397 0
M  V30 11385 C 1059.6 3.24788 4.09035 0
M  V30 11386 H 1061.3 2.07149 2.1617 0
M  V30 11387 H 1058.84 0.997349 1.0387 0
M  V30 11388 H 1060.8 0.675911 4.15944 0
M  V30 11389 H 1059.52 -0.182499 3.2609 0
M  V30 11390 H 1058.18 1.94451 3.1078 0
M  V30 11391 H 1057.83 0.367328 5.01657 0
M  V30 11392 H 1057.53 2.05397 5.50532 0
M  V30 11393 H 1059.05 1.24951 5.97678 0
M  V30 11394 H 1060.47 3.17575 4.77304 0
M  V30 11395 H 1058.86 3.93025 4.53488 0
M  V30 11396 H 1059.93 3.69398 3.14122 0
M  V30 11397 N 1061.28 -1.12907 1.09954 0
M  V30 11398 C 1062.5 -1.88679 0.861099 0
M  V30 11399 C 1062.93 -1.78853 -0.582499 0
M  V30 11400 O 1062.28 -1.13992 -1.4098 0
M  V30 11401 C 1062.33 -3.36047 1.30785 0
M  V30 11402 O 1061.44 -4.09716 0.469728 0
M  V30 11403 H 1060.78 -0.586447 0.31141 0
M  V30 11404 H 1063.31 -1.42818 1.46507 0
M  V30 11405 H 1063.32 -3.86882 1.29562 0
M  V30 11406 H 1061.99 -3.42516 2.35914 0
M  V30 11407 H 1060.57 -3.6887 0.54674 0
M  V30 11408 N 1062.75 -0.88754 -1.30232 0
M  V30 11409 C 1063.7 -0.327649 -2.25633 0
M  V30 11410 C 1064.69 0.545362 -1.51376 0
M  V30 11411 O 1065.88 0.389366 -1.72664 0
M  V30 11412 C 1063.01 0.454546 -3.40277 0
M  V30 11413 C 1062.09 -0.432698 -4.21887 0
M  V30 11414 N 1062.49 -1.53434 -4.81966 0
M  V30 11415 C 1060.78 -0.228275 -4.45415 0
M  V30 11416 C 1061.48 -2.08292 -5.43129 0
M  V30 11417 N 1060.46 -1.37754 -5.25856 0
M  V30 11418 H 1064.26 -1.16937 -2.69635 0
M  V30 11419 H 1061.78 -0.737232 -1.44702 0
M  V30 11420 H 1063.77 0.87231 -4.07672 0
M  V30 11421 H 1062.43 1.29367 -2.97816 0
M  V30 11422 H 1063.44 -1.91717 -4.81108 0
M  V30 11423 H 1060.12 0.573475 -4.13543 0
M  V30 11424 H 1061.51 -3.00818 -6.00798 0
M  V30 11425 N 1064.23 1.43628 -0.648757 0
M  V30 11426 C 1065.46 2.05918 -0.167701 0
M  V30 11427 C 1065.87 1.48681 1.17006 0
M  V30 11428 O 1065.21 0.610984 1.73242 0
M  V30 11429 C 1065.28 3.595 0.00265514 0
M  V30 11430 C 1064.94 4.39295 -1.2597 0
M  V30 11431 C 1065.94 4.71643 -2.18743 0
M  V30 11432 C 1063.62 4.79379 -1.50004 0
M  V30 11433 C 1065.62 5.42978 -3.33846 0
M  V30 11434 C 1063.3 5.50459 -2.65401 0
M  V30 11435 C 1064.3 5.82181 -3.57148 0
M  V30 11436 O 1063.99 6.5181 -4.7053 0
M  V30 11437 H 1063.72 0.670619 -0.0851261 0
M  V30 11438 H 1066.27 1.85196 -0.888351 0
M  V30 11439 H 1064.5 3.7878 0.77863 0
M  V30 11440 H 1066.19 4.03503 0.440501 0
M  V30 11441 H 1066.96 4.41199 -2.01416 0
M  V30 11442 H 1062.84 4.54098 -0.794745 0
M  V30 11443 H 1066.38 5.67656 -4.05479 0
M  V30 11444 H 1062.28 5.8032 -2.82664 0
M  V30 11445 H 1063.05 6.7029 -4.69738 0
M  V30 11446 N 1065.71 0.390394 1.52688 0
M  V30 11447 C 1066.94 -0.194013 2.06491 0
M  V30 11448 C 1067.36 -1.3965 1.26014 0
M  V30 11449 O 1066.72 -1.79038 0.285468 0
M  V30 11450 C 1066.77 -0.541306 3.56514 0
M  V30 11451 O 1065.87 -1.63509 3.78601 0
M  V30 11452 H 1065.21 -0.0223608 0.663623 0
M  V30 11453 H 1067.74 0.558179 1.96839 0
M  V30 11454 H 1067.75 -0.805301 3.99974 0
M  V30 11455 H 1066.43 0.337828 4.14526 0
M  V30 11456 H 1065 -1.36473 3.4703 0
M  V30 11457 N 1067.19 -1.57141 0.120249 0
M  V30 11458 C 1068.47 -1.8677 -0.581075 0
M  V30 11459 C 1068.85 -1.02163 -1.84732 0
M  V30 11460 O 1068.19 -0.100897 -2.28277 0
M  V30 11461 C 1068.4 -3.37923 -0.872316 0
M  V30 11462 C 1069.75 -4.0655 -1.22483 0
M  V30 11463 O 1070.78 -3.42948 -0.962539 0
M  V30 11464 O 1069.63 -5.18821 -1.71717 0
M  V30 11465 H 1066.73 -0.773219 -0.293362 0
M  V30 11466 H 1069.27 -1.68992 0.154846 0
M  V30 11467 H 1068.05 -3.91292 0.0249416 0
M  V30 11468 H 1067.67 -3.61135 -1.66335 0
M  V30 11469 N 1068.67 0.153526 -1.5685 0
M  V30 11470 C 1069.91 0.865519 -1.82629 0
M  V30 11471 C 1070.24 1.81999 -0.700105 0
M  V30 11472 O 1069.51 1.93907 0.278744 0
M  V30 11473 H 1068.09 0.32261 -0.673745 0
M  V30 11474 H 1070.75 0.149088 -1.94329 0
M  V30 11475 H 1069.84 1.43171 -2.77324 0
M  V30 11476 N 1070.14 1.51827 0.422667 0
M  V30 11477 C 1071.37 1.68803 1.19117 0
M  V30 11478 C 1071.78 0.391228 1.85111 0
M  V30 11479 O 1071.13 -0.64148 1.72136 0
M  V30 11480 C 1071.19 2.75767 2.30636 0
M  V30 11481 C 1070.85 4.17929 1.8489 0
M  V30 11482 C 1071.85 5.02223 1.34416 0
M  V30 11483 C 1069.53 4.641 1.92136 0
M  V30 11484 C 1071.53 6.30756 0.917925 0
M  V30 11485 C 1069.21 5.92626 1.49123 0
M  V30 11486 C 1070.21 6.75782 0.990352 0
M  V30 11487 O 1069.9 8.01902 0.566386 0
M  V30 11488 H 1069.63 0.569303 0.364514 0
M  V30 11489 H 1072.19 1.9909 0.505208 0
M  V30 11490 H 1070.42 2.40827 3.02555 0
M  V30 11491 H 1072.11 2.81476 2.92448 0
M  V30 11492 H 1072.87 4.67749 1.28202 0
M  V30 11493 H 1068.75 3.99488 2.30066 0
M  V30 11494 H 1072.29 6.95612 0.52628 0
M  V30 11495 H 1068.19 6.26611 1.55012 0
M  V30 11496 H 1068.96 8.15579 0.690918 0
M  V30 11497 N 1071.62 -0.679052 1.4222 0
M  V30 11498 C 1072.87 -1.43978 1.43673 0
M  V30 11499 C 1073.22 -1.92333 0.0506711 0
M  V30 11500 O 1072.52 -1.67715 -0.926406 0
M  V30 11501 C 1072.71 -2.65528 2.39227 0
M  V30 11502 C 1072.54 -2.29065 3.86987 0
M  V30 11503 C 1071.31 -2.1863 4.55553 0
M  V30 11504 C 1073.51 -1.90983 4.77525 0
M  V30 11505 N 1071.49 -1.75227 5.88361 0
M  V30 11506 C 1072.86 -1.58465 5.99407 0
M  V30 11507 C 1074.92 -1.77938 4.65019 0
M  V30 11508 C 1073.62 -1.14212 7.10175 0
M  V30 11509 C 1075.64 -1.35089 5.75765 0
M  V30 11510 C 1075.01 -1.03493 6.96756 0
M  V30 11511 H 1071.11 -0.523503 0.58092 0
M  V30 11512 H 1073.69 -0.784043 1.78216 0
M  V30 11513 H 1071.86 -3.28797 2.06753 0
M  V30 11514 H 1073.59 -3.32096 2.31288 0
M  V30 11515 H 1070.35 -2.37562 4.09709 0
M  V30 11516 H 1070.77 -1.5596 6.58791 0
M  V30 11517 H 1075.41 -2.01013 3.71959 0
M  V30 11518 H 1073.13 -0.89882 8.03086 0
M  V30 11519 H 1076.72 -1.25522 5.68098 0
M  V30 11520 H 1075.6 -0.708396 7.80994 0
M  V30 11521 N 1073.1 -1.28322 -0.914942 0
M  V30 11522 C 1074.51 -1.13937 -1.47903 0
M  V30 11523 C 1074.86 0.271072 -1.94318 0
M  V30 11524 O 1073.99 1.16522 -1.8235 0
M  V30 11525 C 1074.58 -2.06221 -2.68809 0
M  V30 11526 C 1073.14 -1.95903 -3.21402 0
M  V30 11527 C 1072.29 -1.98031 -1.94111 0
M  V30 11528 H 1075.24 -1.41029 -0.727772 0
M  V30 11529 H 1075.26 -1.6255 -3.44031 0
M  V30 11530 H 1074.77 -3.08866 -2.34997 0
M  V30 11531 H 1072.87 -0.962907 -3.59943 0
M  V30 11532 H 1072.99 -2.82799 -3.86732 0
M  V30 11533 H 1071.35 -1.42423 -2.11158 0
M  V30 11534 H 1072.13 -3.02354 -1.62595 0
M  V30 11535 N 1074.58 1.12322 -1.10551 0
M  V30 11536 C 1075.81 1.87679 -0.87087 0
M  V30 11537 C 1076.22 1.79711 0.578733 0
M  V30 11538 O 1075.58 1.17185 1.39907 0
M  V30 11539 C 1075.63 3.36846 -1.31213 0
M  V30 11540 O 1075.35 3.44626 -2.70489 0
M  V30 11541 C 1076.85 4.29138 -1.11156 0
M  V30 11542 H 1074.07 0.593788 -0.3125 0
M  V30 11543 H 1076.62 1.42116 -1.47048 0
M  V30 11544 H 1074.77 3.79948 -0.756169 0
M  V30 11545 H 1075.18 4.37441 -2.89389 0
M  V30 11546 H 1076.66 5.32082 -1.46944 0
M  V30 11547 H 1077.14 4.39171 -0.0502963 0
M  V30 11548 H 1077.74 3.91818 -1.65405 0
M  V30 11549 N 1076.06 0.894434 1.2976 0
M  V30 11550 C 1077.3 0.518435 1.96061 0
M  V30 11551 C 1077.64 -0.931882 1.70381 0
M  V30 11552 O 1076.91 -1.65988 1.01381 0
M  V30 11553 C 1077.19 0.80519 3.50982 0
M  V30 11554 C 1077.05 2.30683 3.86142 0
M  V30 11555 C 1078.37 0.288096 4.39156 0
M  V30 11556 H 1075.48 0.18983 0.712133 0
M  V30 11557 H 1078.13 1.12016 1.53468 0
M  V30 11558 H 1076.28 0.293071 3.87393 0
M  V30 11559 H 1077.95 2.88808 3.59705 0
M  V30 11560 H 1076.19 2.76968 3.33873 0
M  V30 11561 H 1076.86 2.45805 4.94251 0
M  V30 11562 H 1079.34 0.726547 4.09708 0
M  V30 11563 H 1078.21 0.517985 5.4645 0
M  V30 11564 H 1078.48 -0.811018 4.34597 0
M  V30 11565 N 1077.53 -1.43282 0.656365 0
M  V30 11566 C 1078.48 -2.32556 -0.0452037 0
M  V30 11567 C 1079.48 -1.48789 -0.80982 0
M  V30 11568 O 1080.68 -1.64979 -0.719865 0
M  V30 11569 H 1077.06 -0.751258 -0.0334043 0
M  V30 11570 H 1079.03 -2.89448 0.725423 0
M  V30 11571 C 1077.78 -3.33138 -0.995706 0
M  V30 11572 H 1077.1 -3.97622 -0.416774 0
M  V30 11573 H 1078.54 -3.98231 -1.45562 0
M  V30 11574 C 1077 -2.63978 -2.09325 0
M  V30 11575 O 1077.53 -2.45769 -3.17743 0
M  V30 11576 N 1075.74 -2.23301 -1.8597 0
M  V30 11577 H 1075.28 -2.38312 -0.97802 0
M  V30 11578 H 1075.24 -1.77358 -2.59599 0
M  V30 11579 N 1079.01 -0.398486 -1.52479 0
M  V30 11580 C 1080.42 0.0735015 -1.86555 0
M  V30 11581 C 1080.78 1.45361 -1.31775 0
M  V30 11582 O 1079.9 2.0632 -0.652759 0
M  V30 11583 C 1080.5 0.140152 -3.3851 0
M  V30 11584 C 1079.05 0.556451 -3.72264 0
M  V30 11585 C 1078.2 -0.275792 -2.75925 0
M  V30 11586 H 1081.15 -0.615991 -1.46257 0
M  V30 11587 H 1081.17 0.957507 -3.68255 0
M  V30 11588 H 1080.69 -0.864442 -3.7835 0
M  V30 11589 H 1078.79 1.56808 -3.37997 0
M  V30 11590 H 1078.9 0.308227 -4.78107 0
M  V30 11591 H 1077.26 0.260304 -2.53366 0
M  V30 11592 H 1078.05 -1.27854 -3.18604 0
M  V30 11593 N 1080.49 1.57075 -0.12858 0
M  V30 11594 C 1081.72 1.99586 0.533769 0
M  V30 11595 C 1082.13 1.00737 1.60152 0
M  V30 11596 O 1081.47 -0.00647783 1.83699 0
M  V30 11597 C 1081.53 3.3852 1.21014 0
M  V30 11598 C 1081.2 4.56084 0.289191 0
M  V30 11599 C 1082.2 5.17717 -0.475963 0
M  V30 11600 C 1079.88 5.01912 0.197467 0
M  V30 11601 C 1081.87 6.23572 -1.32048 0
M  V30 11602 C 1079.56 6.07626 -0.65067 0
M  V30 11603 C 1080.56 6.68324 -1.40826 0
M  V30 11604 O 1080.25 7.71995 -2.2423 0
M  V30 11605 H 1079.98 0.660245 0.145096 0
M  V30 11606 H 1082.53 2.04276 -0.214615 0
M  V30 11607 H 1080.76 3.30613 2.00579 0
M  V30 11608 H 1082.45 3.65258 1.77036 0
M  V30 11609 H 1083.22 4.83221 -0.415027 0
M  V30 11610 H 1079.1 4.54407 0.776853 0
M  V30 11611 H 1082.64 6.70878 -1.91228 0
M  V30 11612 H 1078.54 6.41551 -0.712965 0
M  V30 11613 H 1079.31 7.89135 -2.17276 0
M  V30 11614 N 1081.97 -0.145205 1.5693 0
M  V30 11615 C 1082.92 -1.17923 1.98401 0
M  V30 11616 C 1083.89 -1.42591 0.851885 0
M  V30 11617 O 1085.07 -1.54896 1.11409 0
M  V30 11618 C 1082.21 -2.50727 2.37128 0
M  V30 11619 C 1081.32 -2.33218 3.63639 0
M  V30 11620 C 1080.46 -3.5907 3.91462 0
M  V30 11621 C 1079.5 -3.36605 5.11237 0
M  V30 11622 N 1078.64 -4.54592 5.35061 0
M  V30 11623 H 1083.48 -0.818573 2.86537 0
M  V30 11624 H 1081.01 -0.392739 1.4176 0
M  V30 11625 H 1082.97 -3.28165 2.57611 0
M  V30 11626 H 1081.6 -2.84736 1.52069 0
M  V30 11627 H 1080.65 -1.46826 3.50922 0
M  V30 11628 H 1081.96 -2.12579 4.51234 0
M  V30 11629 H 1081.12 -4.44936 4.12453 0
M  V30 11630 H 1079.86 -3.82715 3.02293 0
M  V30 11631 H 1078.86 -2.49127 4.90118 0
M  V30 11632 H 1080.09 -3.14357 6.01961 0
M  V30 11633 H 1078.03 -4.78406 4.48847 0
M  V30 11634 H 1077.95 -4.36962 6.16928 0
M  V30 11635 H 1079.22 -5.41666 5.60551 0
M  V30 11636 N 1083.45 -1.52049 -0.414609 0
M  V30 11637 C 1084.38 -1.69712 -1.52555 0
M  V30 11638 C 1085.36 -0.544681 -1.53206 0
M  V30 11639 O 1086.54 -0.771358 -1.71995 0
M  V30 11640 C 1083.67 -1.73145 -2.91099 0
M  V30 11641 C 1082.72 -2.94624 -3.08382 0
M  V30 11642 S 1083.55 -4.55062 -2.82274 0
M  V30 11643 C 1084.7 -4.61274 -4.23057 0
M  V30 11644 H 1084.94 -2.63675 -1.37342 0
M  V30 11645 H 1082.47 -1.42018 -0.605824 0
M  V30 11646 H 1084.43 -1.75808 -3.70947 0
M  V30 11647 H 1083.09 -0.803198 -3.03657 0
M  V30 11648 H 1082.28 -2.93492 -4.0973 0
M  V30 11649 H 1081.88 -2.8982 -2.36391 0
M  V30 11650 H 1084.18 -4.38313 -5.16612 0
M  V30 11651 H 1085.12 -5.63188 -4.29214 0
M  V30 11652 H 1085.53 -3.90361 -4.07773 0
M  V30 11653 N 1084.93 0.6715 -1.42579 0
M  V30 11654 C 1086.34 1.2522 -1.38481 0
M  V30 11655 C 1086.69 1.96038 -0.079719 0
M  V30 11656 O 1085.81 2.00203 0.821441 0
M  V30 11657 C 1086.41 2.27736 -2.50842 0
M  V30 11658 C 1084.97 2.81325 -2.50067 0
M  V30 11659 C 1084.11 1.55694 -2.29466 0
M  V30 11660 H 1087.06 0.464673 -1.51745 0
M  V30 11661 H 1087.09 3.09539 -2.21283 0
M  V30 11662 H 1086.6 1.76164 -3.45815 0
M  V30 11663 H 1084.7 3.37008 -1.58922 0
M  V30 11664 H 1084.81 3.30116 -3.47218 0
M  V30 11665 H 1083.18 1.82383 -1.77788 0
M  V30 11666 H 1083.96 1.06084 -3.26498 0
M  V30 11667 N 1086.4 1.28806 0.908124 0
M  V30 11668 C 1087.65 1.16058 1.65454 0
M  V30 11669 C 1087.97 -0.290057 1.92831 0
M  V30 11670 O 1087.24 -1.20001 1.54843 0
M  V30 11671 H 1085.82 0.426522 0.61326 0
M  V30 11672 H 1088.48 1.61614 1.08936 0
M  V30 11673 H 1087.58 1.70437 2.61453 0
M  V30 11674 N 1087.88 -1.11734 1.11145 0
M  V30 11675 C 1089.11 -1.87215 0.880811 0
M  V30 11676 C 1089.52 -1.80016 -0.569195 0
M  V30 11677 O 1088.88 -1.17926 -1.39283 0
M  V30 11678 C 1088.93 -3.36146 1.32998 0
M  V30 11679 O 1088.65 -3.43187 2.72313 0
M  V30 11680 C 1090.15 -4.28542 1.1343 0
M  V30 11681 H 1087.37 -0.592123 0.315645 0
M  V30 11682 H 1089.92 -1.41335 1.478 0
M  V30 11683 H 1088.07 -3.79542 0.776308 0
M  V30 11684 H 1088.49 -4.359 2.91705 0
M  V30 11685 H 1089.96 -5.31295 1.49764 0
M  V30 11686 H 1090.44 -4.39138 0.0735859 0
M  V30 11687 H 1091.04 -3.90935 1.67481 0
M  V30 11688 N 1089.36 -0.901303 -1.29284 0
M  V30 11689 C 1090.59 -0.543511 -1.99634 0
M  V30 11690 C 1091 0.872154 -1.67448 0
M  V30 11691 O 1090.36 1.57591 -0.920406 0
M  V30 11692 C 1090.41 -0.728148 -3.54091 0
M  V30 11693 O 1090.13 -2.08809 -3.85137 0
M  V30 11694 C 1091.63 -0.375519 -4.41707 0
M  V30 11695 H 1088.85 -0.208405 -0.637815 0
M  V30 11696 H 1091.4 -1.21109 -1.64781 0
M  V30 11697 H 1089.55 -0.107728 -3.8725 0
M  V30 11698 H 1089.97 -2.11863 -4.79807 0
M  V30 11699 H 1091.44 -0.555538 -5.49197 0
M  V30 11700 H 1091.92 0.687532 -4.33785 0
M  V30 11701 H 1092.52 -0.972949 -4.14021 0
M  V30 11702 N 1090.84 1.42931 -0.663954 0
M  V30 11703 C 1091.75 2.3459 0.0214234 0
M  V30 11704 C 1092.76 1.54487 0.800611 0
M  V30 11705 O 1093.94 1.87098 0.74541 0
M  V30 11706 C 1091 3.32896 0.968556 0
M  V30 11707 C 1090.07 4.28901 0.185108 0
M  V30 11708 C 1089.3 5.2251 1.08713 0
M  V30 11709 O 1089.52 5.20795 2.32655 0
M  V30 11710 O 1088.46 5.99347 0.553758 0
M  V30 11711 H 1092.28 2.94714 -0.733308 0
M  V30 11712 H 1089.87 1.43252 -0.424159 0
M  V30 11713 H 1091.75 3.93318 1.51257 0
M  V30 11714 H 1090.42 2.75261 1.70333 0
M  V30 11715 H 1089.33 3.71926 -0.402752 0
M  V30 11716 H 1090.66 4.89547 -0.510319 0
M  V30 11717 N 1092.32 0.406567 1.52266 0
M  V30 11718 C 1093.54 -0.169624 2.06204 0
M  V30 11719 C 1093.96 -1.39076 1.27684 0
M  V30 11720 O 1093.32 -1.79528 0.328023 0
M  V30 11721 C 1093.37 -0.522611 3.57702 0
M  V30 11722 O 1093.09 0.650028 4.33251 0
M  V30 11723 C 1094.59 -1.15281 4.28048 0
M  V30 11724 H 1091.81 -0.0215191 0.670655 0
M  V30 11725 H 1094.35 0.576781 1.96198 0
M  V30 11726 H 1092.51 -1.21891 3.67725 0
M  V30 11727 H 1092.92 0.355989 5.23291 0
M  V30 11728 H 1094.4 -1.35002 5.35237 0
M  V30 11729 H 1094.87 -2.12517 3.84361 0
M  V30 11730 H 1095.48 -0.496786 4.22389 0
M  V30 11731 N 1093.79 -1.57004 0.136909 0
M  V30 11732 C 1095.07 -1.87375 -0.561233 0
M  V30 11733 C 1095.45 -1.04117 -1.83638 0
M  V30 11734 O 1094.8 -0.125103 -2.28157 0
M  V30 11735 C 1095.01 -3.38829 -0.836426 0
M  V30 11736 C 1096.36 -4.07826 -1.18164 0
M  V30 11737 O 1097.38 -3.4395 -0.92611 0
M  V30 11738 O 1096.24 -5.20614 -1.66204 0
M  V30 11739 H 1093.33 -0.776287 -0.285145 0
M  V30 11740 H 1095.88 -1.68818 0.172761 0
M  V30 11741 H 1094.65 -3.91244 0.066442 0
M  V30 11742 H 1094.28 -3.62879 -1.62496 0
M  V30 11743 N 1095.27 0.136881 -1.57004 0
M  V30 11744 C 1096.24 1.15267 -1.98106 0
M  V30 11745 C 1097.24 1.35305 -0.868856 0
M  V30 11746 O 1098.43 1.32126 -1.13527 0
M  V30 11747 C 1095.56 2.51092 -2.30577 0
M  V30 11748 H 1096.75 0.799821 -2.89038 0
M  V30 11749 H 1094.3 0.380576 -1.51596 0
M  V30 11750 H 1095.04 2.9133 -1.42469 0
M  V30 11751 H 1094.82 2.37906 -3.11678 0
M  V30 11752 H 1096.31 3.24232 -2.63179 0
M  V30 11753 N 1096.75 1.52266 0.40654 0
M  V30 11754 C 1097.7 1.75794 1.4955 0
M  V30 11755 C 1098.67 0.600472 1.54866 0
M  V30 11756 O 1099.85 0.838305 1.71397 0
M  V30 11757 C 1096.99 1.91682 2.86971 0
M  V30 11758 C 1096.11 3.19337 2.90943 0
M  V30 11759 C 1095.24 3.25641 4.1968 0
M  V30 11760 C 1094.28 4.47488 4.17637 0
M  V30 11761 N 1093.42 4.51171 5.37949 0
M  V30 11762 H 1098.26 2.68733 1.28789 0
M  V30 11763 H 1095.79 1.33157 0.625102 0
M  V30 11764 H 1097.75 1.98877 3.66748 0
M  V30 11765 H 1096.38 1.02121 3.06221 0
M  V30 11766 H 1095.43 3.21301 2.03642 0
M  V30 11767 H 1096.75 4.09153 2.85299 0
M  V30 11768 H 1095.9 3.31922 5.07851 0
M  V30 11769 H 1094.64 2.33769 4.28023 0
M  V30 11770 H 1093.64 4.41351 3.27856 0
M  V30 11771 H 1094.87 5.40659 4.10932 0
M  V30 11772 H 1092.81 3.62182 5.46955 0
M  V30 11773 H 1092.73 5.34835 5.3431 0
M  V30 11774 H 1094 4.61685 6.28066 0
M  V30 11775 N 1098.23 -0.663929 1.42933 0
M  V30 11776 C 1099.64 -0.978346 1.26097 0
M  V30 11777 C 1099.84 -2.00756 0.172968 0
M  V30 11778 O 1098.9 -2.48418 -0.452184 0
M  V30 11779 C 1100.21 -1.4728 2.62162 0
M  V30 11780 C 1101.76 -1.59001 2.69606 0
M  V30 11781 C 1102.24 -2.1184 4.06064 0
M  V30 11782 N 1103.73 -2.19158 4.08074 0
M  V30 11783 C 1104.46 -2.61141 5.10483 0
M  V30 11784 N 1103.96 -3.02498 6.23271 0
M  V30 11785 N 1105.75 -2.60986 4.97838 0
M  V30 11786 H 1097.9 0.0173096 2.12393 0
M  V30 11787 H 1100.17 -0.0548116 0.946414 0
M  V30 11788 H 1099.87 -0.791008 3.42689 0
M  V30 11789 H 1099.75 -2.4497 2.86827 0
M  V30 11790 H 1102.13 -2.26284 1.89418 0
M  V30 11791 H 1102.21 -0.597728 2.48718 0
M  V30 11792 H 1101.86 -1.45162 4.86714 0
M  V30 11793 H 1101.79 -3.1188 4.2431 0
M  V30 11794 H 1104.28 -1.90013 3.26655 0
M  V30 11795 H 1104.59 -3.33251 6.97254 0
M  V30 11796 H 1102.94 -3.00328 6.2676 0
M  V30 11797 H 1106.13 -2.28046 4.08794 0
M  V30 11798 H 1106.3 -2.93384 5.7778 0
M  V30 11799 N 1099.71 -1.29285 -0.901281 0
M  V30 11800 C 1100.67 -1.14283 -1.98676 0
M  V30 11801 C 1101.67 -0.0787641 -1.60607 0
M  V30 11802 O 1102.86 -0.325574 -1.71131 0
M  V30 11803 C 1099.99 -0.747279 -3.32609 0
M  V30 11804 H 1101.18 -2.10701 -2.13413 0
M  V30 11805 H 1098.74 -1.12449 -1.08558 0
M  V30 11806 H 1099.47 0.217111 -3.23572 0
M  V30 11807 H 1099.26 -1.51608 -3.61604 0
M  V30 11808 H 1100.75 -0.665322 -4.12266 0
M  V30 11809 N 1101.18 1.11143 -1.11736 0
M  V30 11810 C 1102.46 1.79384 -0.779785 0
M  V30 11811 C 1102.84 1.98015 0.731668 0
M  V30 11812 O 1102.19 1.56731 1.66276 0
M  V30 11813 C 1102.4 3.12868 -1.54643 0
M  V30 11814 C 1103.75 3.8786 -1.7277 0
M  V30 11815 O 1104.77 3.22566 -1.51094 0
M  V30 11816 O 1103.63 5.05034 -2.08813 0
M  V30 11817 H 1100.72 0.777128 -0.282845 0
M  V30 11818 H 1103.27 1.17858 -1.22096 0
M  V30 11819 H 1102.04 2.94682 -2.57446 0
M  V30 11820 H 1101.67 3.82109 -1.09901 0
M  V30 11821 N 1102.66 0.908147 1.28804 0
M  V30 11822 C 1103.89 0.553431 1.9988 0
M  V30 11823 C 1104.31 -0.856714 1.67458 0
M  V30 11824 O 1103.67 -1.57163 0.903849 0
M  V30 11825 C 1103.72 0.762688 3.52442 0
M  V30 11826 O 1102.82 -0.180924 4.12003 0
M  V30 11827 H 1102.16 0.215237 0.628147 0
M  V30 11828 H 1104.69 1.22205 1.64095 0
M  V30 11829 H 1104.7 0.670612 4.02451 0
M  V30 11830 H 1103.38 1.79071 3.75375 0
M  V30 11831 H 1101.96 -0.0405897 3.72878 0
M  V30 11832 N 1104.14 -1.42577 0.671525 0
M  V30 11833 C 1105.42 -1.95222 0.121529 0
M  V30 11834 C 1105.8 -1.61209 -1.36289 0
M  V30 11835 O 1105.15 -0.906561 -2.09747 0
M  V30 11836 C 1105.36 -3.46846 0.387189 0
M  V30 11837 C 1106.7 -4.23525 0.301938 0
M  V30 11838 O 1107.73 -3.54753 0.320755 0
M  V30 11839 O 1106.59 -5.45967 0.241317 0
M  V30 11840 H 1103.68 -0.826999 0.000968615 0
M  V30 11841 H 1106.23 -1.52422 0.746029 0
M  V30 11842 H 1105 -3.64795 1.41563 0
M  V30 11843 H 1104.62 -3.96686 -0.26948 0
M  V30 11844 N 1105.62 -0.414636 -1.52048 0
M  V30 11845 C 1106.85 0.158686 -2.06291 0
M  V30 11846 C 1107.26 1.38397 -1.2842 0
M  V30 11847 O 1106.62 1.79351 -0.337539 0
M  V30 11848 C 1106.67 0.503634 -3.57975 0
M  V30 11849 O 1106.39 -0.672996 -4.329 0
M  V30 11850 C 1107.89 1.13009 -4.28653 0
M  V30 11851 H 1105.11 0.0179622 -0.67076 0
M  V30 11852 H 1107.66 -0.587177 -1.95889 0
M  V30 11853 H 1105.81 1.19939 -3.68366 0
M  V30 11854 H 1106.22 -0.383735 -5.23094 0
M  V30 11855 H 1107.7 1.32162 -5.35945 0
M  V30 11856 H 1108.18 2.10476 -3.85482 0
M  V30 11857 H 1108.78 0.474379 -4.22646 0
M  V30 11858 N 1107.1 1.56929 -0.145233 0
M  V30 11859 C 1108.34 1.95681 0.50532 0
M  V30 11860 C 1108.67 1.03098 1.65516 0
M  V30 11861 O 1107.94 0.0921961 1.95683 0
M  V30 11862 H 1106.52 0.72252 0.189668 0
M  V30 11863 H 1109.18 1.93651 -0.220318 0
M  V30 11864 H 1108.27 2.99359 0.882631 0
M  V30 11865 N 1108.58 -0.128553 1.57075 0
M  V30 11866 C 1109.52 -1.15812 1.9964 0
M  V30 11867 C 1110.49 -1.41679 0.86696 0
M  V30 11868 O 1111.68 -1.53705 1.13046 0
M  V30 11869 C 1108.82 -2.48198 2.39774 0
M  V30 11870 C 1107.93 -2.29348 3.66092 0
M  V30 11871 C 1107.07 -3.54898 3.95248 0
M  V30 11872 C 1106.1 -3.31164 5.14779 0
M  V30 11873 N 1105.24 -4.48891 5.39853 0
M  V30 11874 H 1110.08 -0.788136 2.87389 0
M  V30 11875 H 1107.62 -0.377682 1.42169 0
M  V30 11876 H 1109.58 -3.25414 2.61077 0
M  V30 11877 H 1108.21 -2.83108 1.5508 0
M  V30 11878 H 1107.26 -1.43095 3.5246 0
M  V30 11879 H 1108.57 -2.07781 4.53463 0
M  V30 11880 H 1107.72 -4.40536 4.17148 0
M  V30 11881 H 1106.46 -3.79487 3.06335 0
M  V30 11882 H 1105.47 -2.43915 4.92733 0
M  V30 11883 H 1106.69 -3.07954 6.05261 0
M  V30 11884 H 1104.64 -4.73619 4.53895 0
M  V30 11885 H 1104.56 -4.30394 6.21528 0
M  V30 11886 H 1105.82 -5.35691 5.66265 0
M  V30 11887 N 1110.05 -1.5248 -0.398459 0
M  V30 11888 C 1111.3 -1.67309 -1.1461 0
M  V30 11889 C 1111.63 -0.407095 -1.89885 0
M  V30 11890 O 1110.91 0.594834 -1.85181 0
M  V30 11891 C 1111.19 -2.90204 -2.13198 0
M  V30 11892 C 1111.04 -4.26881 -1.4175 0
M  V30 11893 C 1112.36 -3.08634 -3.13741 0
M  V30 11894 H 1109.48 -0.608853 -0.415292 0
M  V30 11895 H 1112.12 -1.85057 -0.430573 0
M  V30 11896 H 1110.27 -2.75204 -2.74218 0
M  V30 11897 H 1111.95 -4.53631 -0.837676 0
M  V30 11898 H 1110.19 -4.27793 -0.719387 0
M  V30 11899 H 1110.86 -5.08939 -2.1374 0
M  V30 11900 H 1113.34 -3.22603 -2.62805 0
M  V30 11901 H 1112.21 -3.96117 -3.79977 0
M  V30 11902 H 1112.47 -2.22425 -3.82073 0
M  V30 11903 N 1111.53 0.65634 -1.43283 0
M  V30 11904 C 1112.46 1.78101 -1.51004 0
M  V30 11905 C 1113.44 1.66138 -0.36498 0
M  V30 11906 O 1114.63 1.85281 -0.581778 0
M  V30 11907 C 1111.76 3.16511 -1.42961 0
M  V30 11908 C 1110.71 3.43233 -2.55685 0
M  V30 11909 C 1110.04 4.81411 -2.32696 0
M  V30 11910 C 1111.34 3.38288 -3.97943 0
M  V30 11911 H 1113.03 1.71896 -2.45137 0
M  V30 11912 H 1110.58 0.825575 -1.17984 0
M  V30 11913 H 1112.53 3.94941 -1.46968 0
M  V30 11914 H 1111.25 3.23439 -0.45332 0
M  V30 11915 H 1109.91 2.67173 -2.51026 0
M  V30 11916 H 1109.56 4.85011 -1.33317 0
M  V30 11917 H 1109.26 5.00251 -3.08257 0
M  V30 11918 H 1110.79 5.62102 -2.38481 0
M  V30 11919 H 1112.2 4.06659 -4.04106 0
M  V30 11920 H 1110.6 3.68664 -4.73505 0
M  V30 11921 H 1111.67 2.36525 -4.23301 0
M  V30 11922 N 1113.01 1.29761 0.894412 0
M  V30 11923 C 1114.42 1.16275 1.46072 0
M  V30 11924 C 1114.77 -0.240123 1.94725 0
M  V30 11925 O 1113.9 -1.13606 1.84181 0
M  V30 11926 C 1114.49 2.10471 2.65494 0
M  V30 11927 C 1113.05 2.00992 3.18244 0
M  V30 11928 C 1112.2 2.01094 1.90936 0
M  V30 11929 H 1115.15 1.42169 0.705243 0
M  V30 11930 H 1115.17 1.68003 3.41402 0
M  V30 11931 H 1114.68 3.12566 2.30053 0
M  V30 11932 H 1112.78 1.02005 3.58365 0
M  V30 11933 H 1112.9 2.88916 3.82184 0
M  V30 11934 H 1111.26 1.45764 2.08866 0
M  V30 11935 H 1112.04 3.04902 1.57764 0
M  V30 11936 N 1114.49 -1.10549 1.12324 0
M  V30 11937 C 1115.71 -1.8681 0.900927 0
M  V30 11938 C 1116.14 -1.80049 -0.54443 0
M  V30 11939 O 1115.5 -1.16957 -1.38531 0
M  V30 11940 C 1115.54 -3.33197 1.37883 0
M  V30 11941 O 1114.65 -4.08628 0.556529 0
M  V30 11942 H 1113.99 -0.579709 0.32378 0
M  V30 11943 H 1116.52 -1.39678 1.49503 0
M  V30 11944 H 1116.53 -3.84047 1.37739 0
M  V30 11945 H 1115.2 -3.37435 2.43127 0
M  V30 11946 H 1113.78 -3.67627 0.62486 0
M  V30 11947 N 1115.97 -0.914965 -1.28321 0
M  V30 11948 C 1116.93 -0.409024 -2.25521 0
M  V30 11949 C 1117.93 0.465327 -1.5392 0
M  V30 11950 O 1119.12 0.26821 -1.72123 0
M  V30 11951 C 1116.25 0.413452 -3.38383 0
M  V30 11952 H 1117.44 -1.26767 -2.71791 0
M  V30 11953 H 1115 -0.694477 -1.40024 0
M  V30 11954 H 1115.73 1.29145 -2.97476 0
M  V30 11955 H 1115.52 -0.213268 -3.9152 0
M  V30 11956 H 1117.01 0.758232 -4.10659 0
M  V30 11957 N 1117.44 1.42219 -0.679077 0
M  V30 11958 C 1118.69 2.01479 -0.203119 0
M  V30 11959 C 1119.02 1.5371 1.19178 0
M  V30 11960 O 1118.27 0.731832 1.81501 0
M  V30 11961 C 1118.57 3.56889 -0.191027 0
M  V30 11962 C 1118.24 4.24106 -1.53118 0
M  V30 11963 C 1116.9 4.42182 -1.89812 0
M  V30 11964 C 1119.25 4.61946 -2.41361 0
M  V30 11965 C 1116.58 4.95371 -3.14364 0
M  V30 11966 C 1118.93 5.16518 -3.65229 0
M  V30 11967 C 1117.6 5.32807 -4.02086 0
M  V30 11968 H 1116.87 0.737263 -0.0743264 0
M  V30 11969 H 1119.51 1.70346 -0.874908 0
M  V30 11970 H 1117.82 3.87715 0.564282 0
M  V30 11971 H 1119.52 4.00528 0.194511 0
M  V30 11972 H 1116.11 4.10399 -1.23575 0
M  V30 11973 H 1120.29 4.4765 -2.14297 0
M  V30 11974 H 1115.55 5.06167 -3.42935 0
M  V30 11975 H 1119.72 5.44782 -4.33804 0
M  V30 11976 H 1117.35 5.73785 -4.98673 0
M  V30 11977 N 1118.92 0.422693 1.51826 0
M  V30 11978 C 1120.17 -0.148861 2.02253 0
M  V30 11979 C 1120.5 -1.43629 1.30707 0
M  V30 11980 O 1119.78 -1.89967 0.417482 0
M  V30 11981 C 1120.06 -0.382672 3.58061 0
M  V30 11982 C 1119.91 0.922386 4.40241 0
M  V30 11983 C 1121.23 -1.1589 4.24567 0
M  V30 11984 H 1118.35 -0.0526279 0.735119 0
M  V30 11985 H 1120.99 0.558821 1.81596 0
M  V30 11986 H 1119.14 -0.985495 3.75793 0
M  V30 11987 H 1120.81 1.55806 4.34191 0
M  V30 11988 H 1119.06 1.53032 4.05911 0
M  V30 11989 H 1119.73 0.713012 5.47376 0
M  V30 11990 H 1122.2 -0.648415 4.11017 0
M  V30 11991 H 1121.08 -1.29125 5.33496 0
M  V30 11992 H 1121.34 -2.18315 3.84436 0
M  V30 11993 N 1120.4 -1.5685 0.153553 0
M  V30 11994 C 1121.65 -1.95946 -0.494936 0
M  V30 11995 C 1121.97 -1.03975 -1.64967 0
M  V30 11996 O 1121.24 -0.102572 -1.95631 0
M  V30 11997 H 1119.82 -0.723516 -0.185833 0
M  V30 11998 H 1122.48 -1.93531 0.230585 0
M  V30 11999 H 1121.58 -2.99823 -0.866743 0
M  V30 12000 N 1121.88 0.120221 -1.57141 0
M  V30 12001 C 1123.11 0.842441 -1.88972 0
M  V30 12002 C 1123.52 1.73494 -0.744671 0
M  V30 12003 O 1122.88 1.80268 0.284557 0
M  V30 12004 C 1122.93 1.67688 -3.20254 0
M  V30 12005 O 1122.65 0.820319 -4.30351 0
M  V30 12006 C 1124.15 2.50436 -3.65782 0
M  V30 12007 H 1121.37 0.242241 -0.625748 0
M  V30 12008 H 1123.91 0.104978 -2.0423 0
M  V30 12009 H 1122.07 2.36712 -3.0667 0
M  V30 12010 H 1122.48 1.39575 -5.05588 0
M  V30 12011 H 1123.96 3.04518 -4.60405 0
M  V30 12012 H 1124.43 3.27737 -2.92378 0
M  V30 12013 H 1125.04 1.86657 -3.82151 0
M  V30 12014 N 1123.36 1.52689 0.390367 0
M  V30 12015 C 1124.58 1.71839 1.16129 0
M  V30 12016 C 1125.01 0.435226 1.82996 0
M  V30 12017 O 1124.36 -0.60889 1.70769 0
M  V30 12018 C 1124.41 2.86784 2.18603 0
M  V30 12019 O 1123.52 2.53662 3.25161 0
M  V30 12020 H 1122.86 0.571455 0.338135 0
M  V30 12021 H 1125.39 1.99475 0.45508 0
M  V30 12022 H 1125.4 3.12239 2.62622 0
M  V30 12023 H 1124.07 3.79872 1.69322 0
M  V30 12024 H 1122.65 2.38942 2.86289 0
M  V30 12025 N 1124.83 -0.648732 1.43629 0
M  V30 12026 C 1125.78 -1.76145 1.49136 0
M  V30 12027 C 1126.75 -1.62569 0.340649 0
M  V30 12028 O 1127.94 -1.82748 0.548435 0
M  V30 12029 C 1125.08 -3.14321 1.42466 0
M  V30 12030 C 1124.19 -3.38999 2.67776 0
M  V30 12031 C 1123.32 -4.67047 2.53062 0
M  V30 12032 C 1122.36 -4.84845 3.7362 0
M  V30 12033 N 1121.5 -6.04155 3.57689 0
M  V30 12034 H 1126.34 -1.70774 2.44213 0
M  V30 12035 H 1123.88 -0.833311 1.2122 0
M  V30 12036 H 1125.84 -3.94206 1.36592 0
M  V30 12037 H 1124.47 -3.18751 0.509666 0
M  V30 12038 H 1123.52 -2.53179 2.83909 0
M  V30 12039 H 1124.83 -3.48035 3.57314 0
M  V30 12040 H 1123.98 -5.55066 2.44922 0
M  V30 12041 H 1122.72 -4.60339 1.61056 0
M  V30 12042 H 1121.73 -3.95261 3.82163 0
M  V30 12043 H 1122.95 -4.9338 4.6664 0
M  V30 12044 H 1120.9 -5.9857 2.6842 0
M  V30 12045 H 1120.82 -6.14169 4.40832 0
M  V30 12046 H 1122.08 -6.94782 3.53409 0
M  V30 12047 N 1126.31 -1.30234 -0.887518 0
M  V30 12048 C 1127.24 -1.18969 -2.00919 0
M  V30 12049 C 1128.22 -0.080952 -1.69907 0
M  V30 12050 O 1129.41 -0.262546 -1.92417 0
M  V30 12051 C 1126.54 -0.878094 -3.36016 0
M  V30 12052 C 1125.49 -1.94449 -3.81279 0
M  V30 12053 C 1124.82 -1.48594 -5.13638 0
M  V30 12054 C 1126.12 -3.35519 -4.00281 0
M  V30 12055 H 1127.81 -2.12808 -2.10602 0
M  V30 12056 H 1125.36 -1.02454 -1.01189 0
M  V30 12057 H 1127.31 -0.785954 -4.14006 0
M  V30 12058 H 1126.04 0.0959779 -3.26459 0
M  V30 12059 H 1124.69 -2.02622 -3.05516 0
M  V30 12060 H 1124.34 -0.500204 -5.00507 0
M  V30 12061 H 1124.04 -2.19921 -5.44893 0
M  V30 12062 H 1125.57 -1.40754 -5.94156 0
M  V30 12063 H 1126.98 -3.30119 -4.68716 0
M  V30 12064 H 1125.38 -4.0491 -4.42909 0
M  V30 12065 H 1126.45 -3.77597 -3.04218 0
M  V30 12066 N 1127.79 1.09952 -1.12909 0
M  V30 12067 C 1129.07 1.78547 -0.798767 0
M  V30 12068 C 1129.45 1.9878 0.710624 0
M  V30 12069 O 1128.8 1.58485 1.64604 0
M  V30 12070 C 1129.01 3.1121 -1.57953 0
M  V30 12071 C 1130.35 3.86006 -1.76874 0
M  V30 12072 O 1131.38 3.20946 -1.54506 0
M  V30 12073 O 1130.24 5.02791 -2.14158 0
M  V30 12074 H 1127.33 0.774084 -0.291072 0
M  V30 12075 H 1129.88 1.16557 -1.2334 0
M  V30 12076 H 1128.65 2.91935 -2.60557 0
M  V30 12077 H 1128.27 3.80922 -1.13948 0
M  V30 12078 N 1129.27 0.921757 1.27833 0
M  V30 12079 C 1130.55 0.477706 1.89677 0
M  V30 12080 C 1130.93 -1.04392 1.83481 0
M  V30 12081 O 1130.27 -1.89549 1.27606 0
M  V30 12082 C 1130.48 1.01709 3.33851 0
M  V30 12083 C 1131.83 1.074 4.10792 0
M  V30 12084 O 1132.86 0.966295 3.42843 0
M  V30 12085 O 1131.71 1.23909 5.32268 0
M  V30 12086 H 1128.81 0.15271 0.812778 0
M  V30 12087 H 1131.35 1.01306 1.36144 0
M  V30 12088 H 1130.13 2.061 3.32623 0
M  V30 12089 H 1129.75 0.463031 3.94895 0
M  V30 12090 N 1130.75 -1.41857 0.686609 0
M  V30 12091 C 1131.71 -2.29187 0.0247022 0
M  V30 12092 C 1132.71 -1.43926 -0.717069 0
M  V30 12093 O 1133.9 -1.65179 -0.5533 0
M  V30 12094 C 1131.03 -3.26644 -0.975537 0
M  V30 12095 H 1132.22 -2.89212 0.793503 0
M  V30 12096 H 1129.78 -1.49694 0.449605 0
M  V30 12097 H 1130.51 -2.7158 -1.77242 0
M  V30 12098 H 1130.3 -3.89545 -0.446892 0
M  V30 12099 H 1131.79 -3.92107 -1.43673 0
M  V30 12100 N 1132.22 -0.430739 -1.51599 0
M  V30 12101 C 1133.17 0.398482 -2.29161 0
M  V30 12102 C 1134.17 1.02676 -1.34737 0
M  V30 12103 O 1135.37 0.96248 -1.52106 0
M  V30 12104 H 1131.75 0.14731 -0.737431 0
M  V30 12105 H 1133.72 -0.276619 -2.97115 0
M  V30 12106 C 1132.47 1.49094 -3.14112 0
M  V30 12107 H 1131.79 1.01685 -3.86652 0
M  V30 12108 H 1133.23 2.04453 -3.7145 0
M  V30 12109 C 1131.69 2.47049 -2.29059 0
M  V30 12110 O 1132.22 3.51435 -1.94567 0
M  V30 12111 N 1130.43 2.17778 -1.92409 0
M  V30 12112 H 1129.97 1.3292 -2.20658 0
M  V30 12113 H 1129.93 2.8356 -1.35798 0
M  V30 12114 N 1133.7 1.56767 -0.161869 0
M  V30 12115 C 1134.67 2.16299 0.758104 0
M  V30 12116 C 1135.67 1.10859 1.16478 0
M  V30 12117 O 1136.86 1.36422 1.08327 0
M  V30 12118 C 1133.99 2.73819 2.03067 0
M  V30 12119 H 1135.18 2.98938 0.239992 0
M  V30 12120 H 1132.73 1.56054 0.0876532 0
M  V30 12121 H 1133.47 1.94887 2.59209 0
M  V30 12122 H 1133.25 3.50974 1.74813 0
M  V30 12123 H 1134.74 3.19638 2.68741 0
M  V30 12124 N 1135.18 -0.111886 1.57202 0
M  V30 12125 C 1136.41 -0.832407 1.89416 0
M  V30 12126 C 1136.82 -1.73096 0.753861 0
M  V30 12127 O 1136.18 -1.80416 -0.274992 0
M  V30 12128 C 1136.23 -1.65988 3.21139 0
M  V30 12129 O 1135.95 -0.797485 4.3078 0
M  V30 12130 C 1137.45 -2.48493 3.67105 0
M  V30 12131 H 1134.67 -0.238919 0.627024 0
M  V30 12132 H 1137.22 -0.0941456 2.04283 0
M  V30 12133 H 1135.37 -2.35082 3.07921 0
M  V30 12134 H 1135.79 -1.36892 5.06321 0
M  V30 12135 H 1137.26 -3.02072 4.62014 0
M  V30 12136 H 1137.74 -3.26182 2.94112 0
M  V30 12137 H 1138.34 -1.84628 3.83135 0
M  V30 12138 N 1136.66 -1.52894 -0.382264 0
M  V30 12139 C 1137.62 -1.77497 -1.45008 0
M  V30 12140 C 1138.62 -0.64509 -1.47293 0
M  V30 12141 O 1139.81 -0.913192 -1.48346 0
M  V30 12142 C 1136.94 -1.88188 -2.8425 0
M  V30 12143 H 1138.14 -2.72849 -1.24473 0
M  V30 12144 H 1135.69 -1.43717 -0.61441 0
M  V30 12145 H 1136.42 -0.948451 -3.10121 0
M  V30 12146 H 1136.21 -2.70353 -2.83992 0
M  V30 12147 H 1137.7 -2.08873 -3.6161 0
M  V30 12148 N 1138.14 0.641106 -1.43971 0
M  V30 12149 C 1139.37 1.42829 -1.49692 0
M  V30 12150 C 1139.78 1.88427 -0.118594 0
M  V30 12151 O 1139.14 1.60234 0.873581 0
M  V30 12152 C 1139.19 2.65524 -2.45314 0
M  V30 12153 O 1138.91 2.2183 -3.77787 0
M  V30 12154 C 1140.41 3.58758 -2.60399 0
M  V30 12155 H 1137.63 0.438367 -0.508011 0
M  V30 12156 H 1140.17 0.784933 -1.88836 0
M  V30 12157 H 1138.33 3.25973 -2.09332 0
M  V30 12158 H 1138.74 3.01303 -4.29321 0
M  V30 12159 H 1140.22 4.41483 -3.31357 0
M  V30 12160 H 1140.69 4.06909 -1.65294 0
M  V30 12161 H 1141.3 3.04184 -2.97241 0
M  V30 12162 N 1139.62 1.30703 0.880598 0
M  V30 12163 C 1140.55 1.11783 1.98947 0
M  V30 12164 C 1141.53 0.0242461 1.62582 0
M  V30 12165 O 1142.71 0.178641 1.87652 0
M  V30 12166 C 1139.84 0.705762 3.31265 0
M  V30 12167 C 1138.88 1.80084 3.86616 0
M  V30 12168 S 1139.72 3.40416 4.13373 0
M  V30 12169 C 1140.87 3.01122 5.48704 0
M  V30 12170 H 1141.11 2.05658 2.14691 0
M  V30 12171 H 1138.64 1.15067 1.02951 0
M  V30 12172 H 1140.6 0.474754 4.07745 0
M  V30 12173 H 1139.26 -0.213699 3.13372 0
M  V30 12174 H 1138.45 1.4649 4.82241 0
M  V30 12175 H 1138.05 1.98636 3.16891 0
M  V30 12176 H 1140.34 2.49355 6.29943 0
M  V30 12177 H 1141.29 3.95671 5.87239 0
M  V30 12178 H 1141.7 2.38865 5.11472 0
M  V30 12179 N 1141.09 -1.09351 1.1349 0
M  V30 12180 C 1142.37 -1.78121 0.808225 0
M  V30 12181 C 1142.75 -1.99154 -0.700072 0
M  V30 12182 O 1142.1 -1.59356 -1.63762 0
M  V30 12183 C 1142.31 -3.10368 1.59601 0
M  V30 12184 C 1143.66 -3.85063 1.78919 0
M  V30 12185 O 1144.68 -3.20122 1.56206 0
M  V30 12186 O 1143.54 -5.01648 2.16821 0
M  V30 12187 H 1140.63 -0.77253 0.295173 0
M  V30 12188 H 1143.18 -1.15901 1.23956 0
M  V30 12189 H 1141.95 -2.90549 2.62101 0
M  V30 12190 H 1141.57 -3.80312 1.15967 0
M  V30 12191 N 1142.57 -0.928524 -1.27343 0
M  V30 12192 C 1143.82 -0.569392 -1.9433 0
M  V30 12193 C 1144.15 0.889481 -1.7297 0
M  V30 12194 O 1143.4 1.6499 -1.05247 0
M  V30 12195 C 1143.7 -0.84269 -3.47323 0
M  V30 12196 C 1143.37 -2.28344 -3.88806 0
M  V30 12197 C 1142.03 -2.67731 -3.99842 0
M  V30 12198 C 1144.38 -3.22031 -4.09811 0
M  V30 12199 C 1141.71 -3.99928 -4.29272 0
M  V30 12200 C 1144.06 -4.5381 -4.40725 0
M  V30 12201 C 1142.72 -4.93031 -4.49975 0
M  V30 12202 H 1141.99 -0.208355 -0.711104 0
M  V30 12203 H 1144.64 -1.17264 -1.51398 0
M  V30 12204 H 1142.95 -0.156775 -3.91486 0
M  V30 12205 H 1144.64 -0.543779 -3.97296 0
M  V30 12206 H 1141.23 -1.96787 -3.80753 0
M  V30 12207 H 1145.42 -2.92803 -4.00724 0
M  V30 12208 H 1140.67 -4.29996 -4.34642 0
M  V30 12209 H 1144.85 -5.26407 -4.55926 0
M  V30 12210 H 1142.47 -5.95497 -4.72533 0
M  V30 12211 N 1144.05 1.41491 -0.694123 0
M  V30 12212 C 1145.28 2.05579 -0.233466 0
M  V30 12213 C 1145.69 1.5223 1.11675 0
M  V30 12214 O 1145.05 0.669937 1.69759 0
M  V30 12215 C 1145.1 3.61047 -0.180967 0
M  V30 12216 O 1144.82 4.12421 -1.47785 0
M  V30 12217 C 1146.32 4.42278 0.300853 0
M  V30 12218 H 1143.54 0.662097 -0.108943 0
M  V30 12219 H 1146.09 1.81288 -0.946299 0
M  V30 12220 H 1144.24 3.84381 0.482678 0
M  V30 12221 H 1144.66 5.06454 -1.364 0
M  V30 12222 H 1146.13 5.51256 0.286464 0
M  V30 12223 H 1146.61 4.18276 1.33948 0
M  V30 12224 H 1147.21 4.24004 -0.331741 0
M  V30 12225 N 1145.53 0.438773 1.51369 0
M  V30 12226 C 1146.48 -0.386324 2.29369 0
M  V30 12227 C 1147.47 -1.0196 1.3528 0
M  V30 12228 O 1148.68 -0.9544 1.52615 0
M  V30 12229 H 1145.05 -0.143397 0.738201 0
M  V30 12230 H 1147.02 0.292372 2.96964 0
M  V30 12231 C 1145.77 -1.47426 3.14898 0
M  V30 12232 H 1145.09 -0.996335 3.87186 0
M  V30 12233 H 1146.53 -2.02481 3.72529 0
M  V30 12234 C 1144.99 -2.45831 2.30366 0
M  V30 12235 O 1145.52 -3.50398 1.96428 0
M  V30 12236 N 1143.73 -2.16754 1.93561 0
M  V30 12237 H 1143.28 -1.31748 2.2136 0
M  V30 12238 H 1143.23 -2.82836 1.373 0
M  V30 12239 N 1147.01 -1.56678 0.170181 0
M  V30 12240 C 1148.25 -1.97913 -0.469262 0
M  V30 12241 C 1148.61 -1.05438 -1.60936 0
M  V30 12242 O 1147.9 -0.0938273 -1.9137 0
M  V30 12243 C 1148.09 -3.43103 -1.00076 0
M  V30 12244 C 1147.92 -4.49617 0.0863088 0
M  V30 12245 C 1146.69 -5.02454 0.535589 0
M  V30 12246 C 1148.89 -5.06606 0.886289 0
M  V30 12247 N 1146.87 -5.926 1.60308 0
M  V30 12248 C 1148.24 -5.93182 1.80374 0
M  V30 12249 C 1150.3 -4.89109 0.931495 0
M  V30 12250 C 1149 -6.64134 2.76257 0
M  V30 12251 C 1151.03 -5.60781 1.87827 0
M  V30 12252 C 1150.39 -6.47084 2.78319 0
M  V30 12253 H 1146.49 -0.769393 -0.139852 0
M  V30 12254 H 1149.07 -1.92817 0.270136 0
M  V30 12255 H 1147.24 -3.48747 -1.70968 0
M  V30 12256 H 1148.98 -3.71351 -1.60874 0
M  V30 12257 H 1145.73 -4.73412 0.133508 0
M  V30 12258 H 1146.15 -6.42378 2.13729 0
M  V30 12259 H 1150.8 -4.22084 0.245904 0
M  V30 12260 H 1148.51 -7.30373 3.45805 0
M  V30 12261 H 1152.1 -5.49229 1.91934 0
M  V30 12262 H 1150.98 -7.01569 3.50386 0
M  V30 12263 N 1148.48 0.103547 -1.57259 0
M  V30 12264 C 1149.43 1.14513 -2.02459 0
M  V30 12265 C 1150.43 1.4197 -0.924163 0
M  V30 12266 O 1151.63 1.41751 -1.10936 0
M  V30 12267 H 1148.01 0.386469 -0.645094 0
M  V30 12268 H 1149.98 0.737531 -2.89142 0
M  V30 12269 C 1148.73 2.45948 -2.45775 0
M  V30 12270 H 1148.05 2.25662 -3.30026 0
M  V30 12271 H 1149.49 3.17351 -2.81184 0
M  V30 12272 C 1147.95 3.09639 -1.32759 0
M  V30 12273 O 1148.48 3.96372 -0.652059 0
M  V30 12274 N 1146.68 2.69757 -1.08072 0
M  V30 12275 H 1146.23 1.9932 -1.63185 0
M  V30 12276 H 1146.19 3.127 -0.326532 0
M  V30 12277 N 1149.96 1.53094 0.37415 0
M  V30 12278 C 1150.89 1.75199 1.47776 0
M  V30 12279 C 1151.91 0.632627 1.50006 0
M  V30 12280 O 1153.1 0.908688 1.5364 0
M  V30 12281 C 1150.2 1.80909 2.86575 0
M  V30 12282 C 1149.37 3.10432 3.08141 0
M  V30 12283 C 1148.43 3.07495 4.27005 0
M  V30 12284 O 1147.45 3.81319 4.22592 0
M  V30 12285 N 1148.66 2.27715 5.33972 0
M  V30 12286 H 1151.42 2.70423 1.29196 0
M  V30 12287 H 1148.98 1.51766 0.563802 0
M  V30 12288 H 1150.97 1.76432 3.64217 0
M  V30 12289 H 1149.54 0.930074 2.98443 0
M  V30 12290 H 1148.76 3.2828 2.18233 0
M  V30 12291 H 1150.05 3.96047 3.19413 0
M  V30 12292 H 1149.45 1.67231 5.40417 0
M  V30 12293 H 1148.01 2.29065 6.10223 0
M  V30 12294 N 1151.44 -0.633461 1.44309 0
M  V30 12295 C 1152.67 -1.42033 1.50447 0
M  V30 12296 C 1153.08 -1.88362 0.128585 0
M  V30 12297 O 1152.44 -1.60695 -0.865071 0
M  V30 12298 C 1152.49 -2.6422 2.46719 0
M  V30 12299 O 1152.21 -2.19823 3.78958 0
M  V30 12300 C 1153.71 -3.57372 2.62298 0
M  V30 12301 H 1150.93 -0.435667 0.510329 0
M  V30 12302 H 1153.48 -0.774907 1.8925 0
M  V30 12303 H 1151.63 -3.24859 2.11058 0
M  V30 12304 H 1152.05 -2.99022 4.30913 0
M  V30 12305 H 1153.52 -4.39719 3.33693 0
M  V30 12306 H 1154 -4.06026 1.67449 0
M  V30 12307 H 1154.6 -3.02603 2.9885 0
M  V30 12308 N 1152.92 -1.31168 -0.873655 0
M  V30 12309 C 1153.85 -1.21094 -1.99646 0
M  V30 12310 C 1154.83 -0.0989684 -1.69812 0
M  V30 12311 O 1156.01 -0.282939 -1.92128 0
M  V30 12312 C 1153.14 -0.913684 -3.35066 0
M  V30 12313 C 1152.1 -1.98482 -3.79195 0
M  V30 12314 C 1151.42 -1.54033 -5.12033 0
M  V30 12315 C 1152.72 -3.39745 -3.96699 0
M  V30 12316 H 1154.42 -2.1503 -2.08333 0
M  V30 12317 H 1151.96 -1.03521 -1.00097 0
M  V30 12318 H 1153.92 -0.829821 -4.13149 0
M  V30 12319 H 1152.64 0.0613471 -3.26542 0
M  V30 12320 H 1151.3 -2.05851 -3.03349 0
M  V30 12321 H 1150.95 -0.553261 -4.99948 0
M  V30 12322 H 1150.65 -2.25688 -5.4253 0
M  V30 12323 H 1152.17 -1.47047 -5.92629 0
M  V30 12324 H 1153.59 -3.35071 -4.65188 0
M  V30 12325 H 1151.98 -4.09585 -4.38589 0
M  V30 12326 H 1153.05 -3.80802 -3.00196 0
M  V30 12327 N 1154.4 1.08748 -1.14068 0
M  V30 12328 C 1155.62 1.84814 -0.930138 0
M  V30 12329 C 1156.04 1.81461 0.521267 0
M  V30 12330 O 1155.4 1.21577 1.36108 0
M  V30 12331 C 1155.45 3.32501 -1.41863 0
M  V30 12332 O 1155.17 3.35846 -2.81317 0
M  V30 12333 C 1156.67 4.25384 -1.24753 0
M  V30 12334 H 1153.89 0.583546 -0.331233 0
M  V30 12335 H 1156.43 1.37366 -1.51495 0
M  V30 12336 H 1154.59 3.7735 -0.876664 0
M  V30 12337 H 1155 4.28013 -3.03159 0
M  V30 12338 H 1156.48 5.27138 -1.63798 0
M  V30 12339 H 1156.95 4.38789 -0.18999 0
M  V30 12340 H 1157.56 3.86357 -1.77787 0
M  V30 12341 N 1155.87 0.935264 1.26849 0
M  V30 12342 C 1156.84 0.44485 2.24842 0
M  V30 12343 C 1157.84 -0.440781 1.54641 0
M  V30 12344 O 1159.03 -0.240793 1.72528 0
M  V30 12345 C 1156.16 -0.359566 3.38998 0
M  V30 12346 H 1157.35 1.31074 2.6974 0
M  V30 12347 H 1154.91 0.716665 1.38901 0
M  V30 12348 H 1155.64 -1.24396 2.99493 0
M  V30 12349 H 1155.43 0.275529 3.91131 0
M  V30 12350 H 1156.92 -0.692804 4.11813 0
M  V30 12351 N 1157.35 -1.41121 0.701616 0
M  V30 12352 C 1158.3 -2.27994 0.0168361 0
M  V30 12353 C 1159.29 -1.42523 -0.746733 0
M  V30 12354 O 1160.48 -1.6574 -0.621232 0
M  V30 12355 C 1157.61 -3.30898 -0.914417 0
M  V30 12356 C 1156.69 -4.23846 -0.146776 0
M  V30 12357 N 1157.08 -4.9839 0.862624 0
M  V30 12358 C 1155.38 -4.44366 -0.38138 0
M  V30 12359 C 1156.08 -5.66463 1.32266 0
M  V30 12360 N 1155.06 -5.39731 0.647433 0
M  V30 12361 H 1158.86 -2.83065 0.790675 0
M  V30 12362 H 1156.38 -1.53405 0.532977 0
M  V30 12363 H 1158.37 -3.91964 -1.4202 0
M  V30 12364 H 1157.03 -2.77387 -1.68779 0
M  V30 12365 H 1158.04 -5.02761 1.24305 0
M  V30 12366 H 1154.72 -4.01856 -1.13216 0
M  V30 12367 H 1156.11 -6.36213 2.16061 0
M  V30 12368 N 1158.83 -0.446794 -1.51134 0
M  V30 12369 C 1159.78 0.359865 -2.27977 0
M  V30 12370 C 1160.75 1.0086 -1.31972 0
M  V30 12371 O 1161.93 1.02569 -1.60886 0
M  V30 12372 C 1159.07 1.44978 -3.1317 0
M  V30 12373 C 1158.19 0.818243 -4.2418 0
M  V30 12374 C 1157.32 1.884 -4.96668 0
M  V30 12375 C 1156.36 1.2314 -5.99586 0
M  V30 12376 N 1155.5 2.23894 -6.65444 0
M  V30 12377 H 1160.34 -0.301775 -2.96468 0
M  V30 12378 H 1157.87 -0.160666 -1.4622 0
M  V30 12379 H 1159.83 2.09308 -3.60896 0
M  V30 12380 H 1158.46 2.08092 -2.46775 0
M  V30 12381 H 1157.51 0.0629889 -3.80348 0
M  V30 12382 H 1158.83 0.301885 -4.97886 0
M  V30 12383 H 1157.98 2.6037 -5.4799 0
M  V30 12384 H 1156.72 2.43411 -4.22614 0
M  V30 12385 H 1155.72 0.497215 -5.47547 0
M  V30 12386 H 1156.95 0.688505 -6.75601 0
M  V30 12387 H 1154.89 2.77967 -5.94197 0
M  V30 12388 H 1154.81 1.77176 -7.34945 0
M  V30 12389 H 1156.08 2.95318 -7.21393 0
M  V30 12390 N 1160.31 1.56586 -0.178487 0
M  V30 12391 C 1161.53 2.01915 0.473841 0
M  V30 12392 C 1161.96 1.05789 1.55533 0
M  V30 12393 O 1161.32 0.0386018 1.81259 0
M  V30 12394 C 1161.36 3.45799 1.02251 0
M  V30 12395 O 1160.47 3.52761 2.1362 0
M  V30 12396 H 1159.81 0.654372 0.112666 0
M  V30 12397 H 1162.34 2.02613 -0.284486 0
M  V30 12398 H 1162.35 3.85252 1.34332 0
M  V30 12399 H 1161.02 4.1526 0.230719 0
M  V30 12400 H 1159.6 3.25172 1.8253 0
M  V30 12401 N 1161.79 -0.095206 1.57312 0
M  V30 12402 C 1163.03 -0.794786 1.87229 0
M  V30 12403 C 1163.39 -1.7635 0.769305 0
M  V30 12404 O 1162.68 -1.9023 -0.228704 0
M  V30 12405 C 1162.87 -1.56244 3.21438 0
M  V30 12406 C 1162.7 -0.669563 4.44687 0
M  V30 12407 C 1161.47 -0.315338 5.04315 0
M  V30 12408 C 1163.67 0.0234175 5.14295 0
M  V30 12409 N 1161.65 0.585709 6.111 0
M  V30 12410 C 1163.02 0.782538 6.15042 0
M  V30 12411 C 1165.08 0.0973496 4.97805 0
M  V30 12412 C 1163.78 1.60868 7.01081 0
M  V30 12413 C 1165.81 0.910394 5.84351 0
M  V30 12414 C 1165.17 1.65763 6.84618 0
M  V30 12415 H 1161.27 -0.267005 0.735005 0
M  V30 12416 H 1163.85 -0.0573245 1.94616 0
M  V30 12417 H 1162.02 -2.27077 3.15104 0
M  V30 12418 H 1163.76 -2.2092 3.39082 0
M  V30 12419 H 1160.51 -0.662971 4.68937 0
M  V30 12420 H 1160.94 1.02878 6.69138 0
M  V30 12421 H 1165.58 -0.46602 4.20224 0
M  V30 12422 H 1163.3 2.18312 7.78052 0
M  V30 12423 H 1166.88 0.97027 5.73652 0
M  V30 12424 H 1165.76 2.27663 7.50426 0
M  V30 12425 N 1163.26 -1.53291 -0.366026 0
M  V30 12426 C 1164.51 -1.69451 -1.10872 0
M  V30 12427 C 1164.84 -0.446078 -1.89316 0
M  V30 12428 O 1164.09 0.571962 -1.87155 0
M  V30 12429 C 1164.39 -2.89547 -2.09517 0
M  V30 12430 C 1164.06 -4.26073 -1.47556 0
M  V30 12431 C 1162.72 -4.63199 -1.30386 0
M  V30 12432 C 1165.07 -5.10977 -1.02724 0
M  V30 12433 C 1162.4 -5.82866 -0.669666 0
M  V30 12434 C 1164.75 -6.31289 -0.407052 0
M  V30 12435 C 1163.42 -6.67128 -0.222839 0
M  V30 12436 H 1162.69 -0.620066 -0.405708 0
M  V30 12437 H 1165.33 -1.87475 -0.390563 0
M  V30 12438 H 1163.64 -2.66034 -2.87634 0
M  V30 12439 H 1165.34 -2.99245 -2.66933 0
M  V30 12440 H 1161.93 -3.9684 -1.61914 0
M  V30 12441 H 1166.11 -4.82844 -1.14783 0
M  V30 12442 H 1161.37 -6.09224 -0.515351 0
M  V30 12443 H 1165.54 -6.96381 -0.0514661 0
M  V30 12444 H 1163.17 -7.59718 0.270647 0
M  V30 12445 N 1164.74 0.6258 -1.44643 0
M  V30 12446 C 1165.68 1.75056 -1.46392 0
M  V30 12447 C 1166.65 1.59376 -0.322179 0
M  V30 12448 O 1167.84 1.81187 -0.519956 0
M  V30 12449 C 1164.96 3.12689 -1.30166 0
M  V30 12450 C 1164.01 3.47005 -2.47972 0
M  V30 12451 S 1164.84 3.43885 -4.10491 0
M  V30 12452 C 1166 4.84129 -3.96698 0
M  V30 12453 H 1166.23 1.73306 -2.41562 0
M  V30 12454 H 1163.77 0.800879 -1.32005 0
M  V30 12455 H 1165.72 3.9211 -1.21492 0
M  V30 12456 H 1164.38 3.11972 -0.364982 0
M  V30 12457 H 1163.58 4.47171 -2.32496 0
M  V30 12458 H 1163.18 2.75059 -2.53414 0
M  V30 12459 H 1165.47 5.73488 -3.60718 0
M  V30 12460 H 1166.41 5.0466 -4.96713 0
M  V30 12461 H 1166.82 4.58954 -3.28666 0
M  V30 12462 N 1166.22 1.31629 0.866686 0
M  V30 12463 C 1167.15 1.22151 1.99001 0
M  V30 12464 C 1168.13 0.107972 1.69757 0
M  V30 12465 O 1169.32 0.293125 1.91975 0
M  V30 12466 C 1166.45 0.93144 3.34577 0
M  V30 12467 C 1165.4 2.0049 3.78137 0
M  V30 12468 C 1164.73 1.56747 5.11209 0
M  V30 12469 C 1166.03 3.41844 3.94892 0
M  V30 12470 H 1167.72 2.16132 2.0719 0
M  V30 12471 H 1165.27 1.04051 0.995463 0
M  V30 12472 H 1167.22 0.851719 4.12703 0
M  V30 12473 H 1165.94 -0.0440289 3.2657 0
M  V30 12474 H 1164.6 2.07457 3.02253 0
M  V30 12475 H 1164.25 0.579767 4.99648 0
M  V30 12476 H 1163.95 2.28562 5.41326 0
M  V30 12477 H 1165.47 1.50188 5.91841 0
M  V30 12478 H 1166.89 3.37534 4.63405 0
M  V30 12479 H 1165.29 4.11905 4.36411 0
M  V30 12480 H 1166.36 3.82389 2.98172 0
M  V30 12481 N 1167.7 -1.08142 1.14644 0
M  V30 12482 C 1168.65 -2.15133 0.835845 0
M  V30 12483 C 1169.62 -1.64795 -0.207785 0
M  V30 12484 O 1170.8 -1.90644 -0.07711 0
M  V30 12485 C 1167.94 -3.4359 0.322456 0
M  V30 12486 C 1167.05 -4.07761 1.42671 0
M  V30 12487 C 1166.19 -5.24022 0.870281 0
M  V30 12488 C 1165.23 -5.8014 1.95202 0
M  V30 12489 N 1164.37 -6.87743 1.41257 0
M  V30 12490 H 1169.21 -2.41042 1.75222 0
M  V30 12491 H 1166.74 -1.18288 0.874428 0
M  V30 12492 H 1168.7 -4.17199 0.00657059 0
M  V30 12493 H 1167.33 -3.17958 -0.557014 0
M  V30 12494 H 1166.38 -3.31885 1.85893 0
M  V30 12495 H 1167.69 -4.45485 2.24375 0
M  V30 12496 H 1166.85 -6.04582 0.506459 0
M  V30 12497 H 1165.59 -4.87695 0.0223118 0
M  V30 12498 H 1164.59 -4.98232 2.32476 0
M  V30 12499 H 1165.82 -6.18525 2.80363 0
M  V30 12500 H 1163.76 -6.5337 0.586826 0
M  V30 12501 H 1163.68 -7.24308 2.16596 0
M  V30 12502 H 1164.95 -7.72028 1.07674 0
M  V30 12503 N 1169.18 -0.941978 -1.26351 0
M  V30 12504 C 1170.45 -0.507822 -1.88893 0
M  V30 12505 C 1170.83 1.0146 -1.85119 0
M  V30 12506 O 1170.18 1.87495 -1.30606 0
M  V30 12507 C 1170.39 -1.07007 -3.3219 0
M  V30 12508 C 1171.74 -1.13922 -4.09032 0
M  V30 12509 O 1172.76 -1.02072 -3.41262 0
M  V30 12510 O 1171.62 -1.32362 -5.30229 0
M  V30 12511 H 1168.72 -0.165621 -0.810246 0
M  V30 12512 H 1171.26 -1.03459 -1.34515 0
M  V30 12513 H 1170.04 -2.11366 -3.29302 0
M  V30 12514 H 1169.66 -0.525797 -3.94108 0
M  V30 12515 N 1170.66 1.40747 -0.709091 0
M  V30 12516 C 1171.6 2.30741 -0.0523584 0
M  V30 12517 C 1172.57 1.4784 0.757145 0
M  V30 12518 O 1173.76 1.76595 0.72242 0
M  V30 12519 C 1170.9 3.34 0.868203 0
M  V30 12520 C 1170.01 4.31972 0.0488686 0
M  V30 12521 C 1169.15 5.223 0.968311 0
M  V30 12522 C 1168.18 6.11934 0.142682 0
M  V30 12523 N 1167.32 6.947 1.01665 0
M  V30 12524 H 1172.16 2.86338 -0.825509 0
M  V30 12525 H 1169.7 1.41013 -0.418785 0
M  V30 12526 H 1171.66 3.92431 1.41611 0
M  V30 12527 H 1170.29 2.79921 1.6076 0
M  V30 12528 H 1169.34 3.75377 -0.616137 0
M  V30 12529 H 1170.65 4.95291 -0.590625 0
M  V30 12530 H 1169.8 5.85631 1.58498 0
M  V30 12531 H 1168.54 4.5924 1.64164 0
M  V30 12532 H 1167.55 5.47639 -0.486965 0
M  V30 12533 H 1168.77 6.77052 -0.527046 0
M  V30 12534 H 1166.72 6.34236 1.67575 0
M  V30 12535 H 1166.64 7.54759 0.433045 0
M  V30 12536 H 1167.9 7.62487 1.6197 0
M  V30 12537 N 1172.13 0.454803 1.50895 0
M  V30 12538 C 1173.38 -0.107367 2.01414 0
M  V30 12539 C 1173.7 -1.42243 1.34262 0
M  V30 12540 O 1174.9 -2.06858 1.75846 0
M  V30 12541 C 1173.36 -0.241872 3.59086 0
M  V30 12542 C 1172.97 1.06379 4.35187 0
M  V30 12543 C 1174.71 -0.756873 4.17698 0
M  V30 12544 C 1172.62 0.893973 5.84604 0
M  V30 12545 H 1171.55 -0.0439003 0.752721 0
M  V30 12546 H 1174.2 0.587225 1.7385 0
M  V30 12547 H 1172.58 -0.999873 3.83169 0
M  V30 12548 H 1173.75 1.83148 4.2284 0
M  V30 12549 H 1172.07 1.50865 3.88109 0
M  V30 12550 H 1174.67 -0.900697 5.27059 0
M  V30 12551 H 1175.01 -1.74397 3.7801 0
M  V30 12552 H 1175.54 -0.0567088 3.9776 0
M  V30 12553 H 1172.28 1.85395 6.28736 0
M  V30 12554 H 1171.8 0.166387 5.99569 0
M  V30 12555 H 1173.48 0.554084 6.44623 0
M  V30 12556 N 1173.61 -1.56489 0.186789 0
M  V30 12557 C 1174.57 -2.17478 -0.723596 0
M  V30 12558 C 1175.57 -1.12698 -1.14699 0
M  V30 12559 O 1176.76 -1.38128 -1.06143 0
M  V30 12560 C 1173.9 -2.77015 -1.98685 0
M  V30 12561 H 1175.09 -2.99282 -0.192403 0
M  V30 12562 H 1172.64 -1.56174 -0.0628153 0
M  V30 12563 H 1173.38 -1.98987 -2.56076 0
M  V30 12564 H 1173.16 -3.53711 -1.69207 0
M  V30 12565 H 1174.65 -3.23872 -2.63622 0
M  V30 12566 N 1175.09 0.086862 -1.5736 0
M  V30 12567 C 1176.34 0.78884 -1.86504 0
M  V30 12568 C 1176.66 1.78329 -0.77646 0
M  V30 12569 O 1175.92 1.94354 0.229122 0
M  V30 12570 C 1176.22 1.54537 -3.22263 0
M  V30 12571 C 1175.88 0.692284 -4.45554 0
M  V30 12572 C 1174.55 0.45714 -4.79024 0
M  V30 12573 C 1176.9 0.0997695 -5.21105 0
M  V30 12574 C 1174.23 -0.380247 -5.85466 0
M  V30 12575 C 1176.58 -0.724986 -6.28432 0
M  V30 12576 C 1175.24 -0.970144 -6.60412 0
M  V30 12577 H 1174.51 0.288657 -0.682465 0
M  V30 12578 H 1177.16 0.050059 -1.91435 0
M  V30 12579 H 1175.46 2.35594 -3.13053 0
M  V30 12580 H 1177.16 2.09305 -3.42042 0
M  V30 12581 H 1173.75 0.885675 -4.19349 0
M  V30 12582 H 1177.94 0.268583 -4.95573 0
M  V30 12583 H 1173.19 -0.579084 -6.08651 0
M  V30 12584 H 1177.37 -1.19093 -6.86141 0
M  V30 12585 H 1174.99 -1.6208 -7.42721 0
M  V30 12586 N 1176.57 1.53483 0.357892 0
M  V30 12587 C 1177.5 1.83444 1.44466 0
M  V30 12588 C 1178.48 0.688486 1.55544 0
M  V30 12589 O 1179.66 0.93906 1.69986 0
M  V30 12590 C 1176.79 2.03122 2.81707 0
M  V30 12591 C 1175.75 3.1891 2.85448 0
M  V30 12592 C 1175.07 3.23895 4.25436 0
M  V30 12593 C 1176.37 4.57334 2.52275 0
M  V30 12594 H 1178.07 2.74456 1.19642 0
M  V30 12595 H 1175.61 1.3206 0.574112 0
M  V30 12596 H 1177.57 2.22666 3.57768 0
M  V30 12597 H 1176.29 1.08827 3.07935 0
M  V30 12598 H 1174.95 2.99199 2.11838 0
M  V30 12599 H 1174.6 2.27223 4.48753 0
M  V30 12600 H 1174.3 4.01694 4.28854 0
M  V30 12601 H 1175.82 3.45632 5.0336 0
M  V30 12602 H 1177.24 4.76988 3.1805 0
M  V30 12603 H 1175.63 5.37431 2.66998 0
M  V30 12604 H 1176.7 4.61921 1.47501 0
M  V30 12605 N 1178.05 -0.61812 1.44973 0
M  V30 12606 C 1179.29 -1.37468 1.48145 0
M  V30 12607 C 1179.61 -1.94628 0.120366 0
M  V30 12608 O 1178.88 -1.76548 -0.848982 0
M  V30 12609 H 1177.46 -0.510293 0.545536 0
M  V30 12610 H 1180.13 -0.726598 1.8085 0
M  V30 12611 H 1179.22 -2.19944 2.2143 0
M  V30 12612 N 1179.52 -1.32087 -0.859693 0
M  V30 12613 C 1180.75 -1.25486 -1.6513 0
M  V30 12614 C 1181.17 0.175015 -1.87284 0
M  V30 12615 O 1180.53 1.12468 -1.42199 0
M  V30 12616 C 1180.58 -2.01469 -2.9907 0
M  V30 12617 O 1179.68 -1.35904 -3.89363 0
M  V30 12618 H 1179.02 -0.432728 -0.503629 0
M  V30 12619 H 1181.55 -1.74322 -1.07112 0
M  V30 12620 H 1181.56 -2.11452 -3.4893 0
M  V30 12621 H 1180.24 -3.05448 -2.82266 0
M  V30 12622 H 1178.82 -1.34437 -3.47823 0
M  V30 12623 N 1181 1.07532 -1.15215 0
M  V30 12624 C 1181.95 2.16785 -0.843022 0
M  V30 12625 C 1182.94 1.68411 0.182802 0
M  V30 12626 O 1184.15 1.7996 0.0380164 0
M  V30 12627 H 1180.52 0.707465 -0.254945 0
M  V30 12628 H 1182.5 2.40078 -1.77215 0
M  V30 12629 C 1181.24 3.45967 -0.346699 0
M  V30 12630 H 1180.57 3.83574 -1.12744 0
M  V30 12631 H 1182.01 4.23663 -0.169039 0
M  V30 12632 C 1180.47 3.23768 0.931437 0
M  V30 12633 O 1181 3.48179 2.00336 0
M  V30 12634 N 1179.2 2.77264 0.870217 0
M  V30 12635 H 1178.75 2.576 -0.00226223 0
M  V30 12636 H 1178.71 2.6279 1.72594 0
M  V30 12637 N 1182.48 0.948665 1.2585 0
M  V30 12638 C 1183.73 0.595938 1.92695 0
M  V30 12639 C 1184.04 -0.870229 1.75175 0
M  V30 12640 O 1185.25 -1.33266 2.36543 0
M  V30 12641 C 1183.7 1.01511 3.45288 0
M  V30 12642 C 1183.31 2.50341 3.71528 0
M  V30 12643 C 1185.06 0.734635 4.18095 0
M  V30 12644 C 1182.96 2.8609 5.17597 0
M  V30 12645 H 1181.89 0.219171 0.721443 0
M  V30 12646 H 1184.54 1.15231 1.42807 0
M  V30 12647 H 1182.93 0.387201 3.94102 0
M  V30 12648 H 1184.1 3.18101 3.3339 0
M  V30 12649 H 1182.42 2.75797 3.11969 0
M  V30 12650 H 1185.01 0.977962 5.25681 0
M  V30 12651 H 1185.36 -0.328807 4.14999 0
M  V30 12652 H 1185.89 1.32262 3.75169 0
M  V30 12653 H 1182.63 3.91427 5.25799 0
M  V30 12654 H 1182.15 2.22999 5.56805 0
M  V30 12655 H 1183.83 2.74959 5.85668 0
M  V30 12656 N 1183.96 -1.40369 0.716545 0
M  V30 12657 C 1184.89 -2.29186 0.0251905 0
M  V30 12658 C 1185.9 -1.45877 -0.722761 0
M  V30 12659 O 1187.09 -1.69155 -0.569982 0
M  V30 12660 C 1184.19 -3.24161 -0.988589 0
M  V30 12661 C 1183.37 -4.36329 -0.30597 0
M  V30 12662 C 1182.42 -5.11736 -1.22527 0
M  V30 12663 O 1181.45 -5.64758 -0.7097 0
M  V30 12664 N 1182.65 -5.21183 -2.55634 0
M  V30 12665 H 1185.42 -2.8916 0.787808 0
M  V30 12666 H 1182.98 -1.51749 0.564253 0
M  V30 12667 H 1184.97 -3.71479 -1.60578 0
M  V30 12668 H 1183.54 -2.65347 -1.65256 0
M  V30 12669 H 1182.76 -3.91125 0.491432 0
M  V30 12670 H 1184.05 -5.08523 0.167827 0
M  V30 12671 H 1183.45 -4.7959 -3.00017 0
M  V30 12672 H 1182 -5.72005 -3.12495 0
M  V30 12673 N 1185.44 -0.462799 -1.50652 0
M  V30 12674 C 1186.38 0.349784 -2.29955 0
M  V30 12675 C 1187.38 0.997947 -1.36885 0
M  V30 12676 O 1188.58 0.93 -1.54114 0
M  V30 12677 H 1184.96 0.131635 -0.740389 0
M  V30 12678 H 1186.93 -0.33958 -2.96461 0
M  V30 12679 C 1185.68 1.42398 -3.17204 0
M  V30 12680 H 1185 0.934611 -3.88722 0
M  V30 12681 H 1186.44 1.96528 -3.75703 0
M  V30 12682 C 1184.9 2.42135 -2.34248 0
M  V30 12683 O 1185.43 3.47229 -2.01978 0
M  V30 12684 N 1183.64 2.13647 -1.96985 0
M  V30 12685 H 1183.18 1.28209 -2.23428 0
M  V30 12686 H 1183.14 2.80615 -1.41783 0
M  V30 12687 N 1186.91 1.56388 -0.195085 0
M  V30 12688 C 1188.14 2.01963 0.449289 0
M  V30 12689 C 1188.56 1.07522 1.55192 0
M  V30 12690 O 1187.91 0.0800915 1.82324 0
M  V30 12691 C 1187.97 3.47231 1.00561 0
M  V30 12692 O 1187.69 4.38068 -0.0530241 0
M  V30 12693 C 1189.19 4.08324 1.72587 0
M  V30 12694 H 1186.41 0.661452 0.112792 0
M  V30 12695 H 1188.95 2.02231 -0.303788 0
M  V30 12696 H 1187.11 3.47663 1.70907 0
M  V30 12697 H 1187.52 5.23256 0.361076 0
M  V30 12698 H 1188.99 5.11821 2.06744 0
M  V30 12699 H 1189.47 3.51782 2.62956 0
M  V30 12700 H 1190.08 4.11665 1.06826 0
M  V30 12701 N 1188.39 -0.0785156 1.57404 0
M  V30 12702 C 1189.62 -0.795871 1.91522 0
M  V30 12703 C 1190.04 -1.70665 0.790892 0
M  V30 12704 O 1189.4 -1.79474 -0.25666 0
M  V30 12705 C 1189.45 -1.57121 3.24569 0
M  V30 12706 O 1188.55 -2.6814 3.13328 0
M  V30 12707 H 1187.89 -0.217575 0.627341 0
M  V30 12708 H 1190.42 -0.0487724 2.04542 0
M  V30 12709 H 1190.43 -1.9519 3.5828 0
M  V30 12710 H 1189.11 -0.902909 4.05981 0
M  V30 12711 H 1187.69 -2.32978 2.91163 0
M  V30 12712 N 1189.87 -1.5367 -0.349747 0
M  V30 12713 C 1191.1 -1.74547 -1.11089 0
M  V30 12714 C 1191.51 -0.481741 -1.82551 0
M  V30 12715 O 1190.87 0.546272 -1.74132 0
M  V30 12716 C 1190.92 -2.92148 -2.12913 0
M  V30 12717 O 1190.64 -4.13633 -1.44358 0
M  V30 12718 C 1192.14 -3.25027 -3.01451 0
M  V30 12719 H 1189.36 -0.583376 -0.331532 0
M  V30 12720 H 1191.91 -2.00473 -0.403841 0
M  V30 12721 H 1190.06 -2.68572 -2.79192 0
M  V30 12722 H 1190.48 -4.79601 -2.12329 0
M  V30 12723 H 1191.95 -4.10679 -3.68845 0
M  V30 12724 H 1192.43 -2.41064 -3.67131 0
M  V30 12725 H 1193.03 -3.50586 -2.40768 0
M  V30 12726 N 1191.35 0.610423 -1.45298 0
M  V30 12727 C 1192.63 1.36966 -1.39641 0
M  V30 12728 C 1193.01 2.10998 -0.0655757 0
M  V30 12729 O 1192.35 2.07705 0.952407 0
M  V30 12730 C 1192.56 2.31885 -2.60826 0
M  V30 12731 C 1193.91 2.9458 -3.05791 0
M  V30 12732 O 1194.94 2.42207 -2.61179 0
M  V30 12733 O 1193.79 3.89639 -3.83202 0
M  V30 12734 H 1190.89 0.61401 -0.554004 0
M  V30 12735 H 1193.43 0.633748 -1.57422 0
M  V30 12736 H 1192.21 1.76421 -3.49272 0
M  V30 12737 H 1191.83 3.12861 -2.45364 0
M  V30 12738 N 1192.83 1.32541 0.852676 0
M  V30 12739 C 1194.05 1.2622 1.6394 0
M  V30 12740 C 1194.47 -0.169455 1.88038 0
M  V30 12741 O 1193.83 -1.10719 1.45078 0
M  V30 12742 C 1193.88 2.02062 2.99755 0
M  V30 12743 O 1193.6 3.39641 2.76723 0
M  V30 12744 C 1195.1 2.02787 3.94198 0
M  V30 12745 H 1192.32 0.435405 0.510552 0
M  V30 12746 H 1194.86 1.74696 1.06309 0
M  V30 12747 H 1193.02 1.57303 3.54026 0
M  V30 12748 H 1193.43 3.78484 3.63111 0
M  V30 12749 H 1194.91 2.60333 4.86755 0
M  V30 12750 H 1195.38 1.01464 4.27319 0
M  V30 12751 H 1195.99 2.47504 3.45864 0
M  V30 12752 N 1194.3 -1.0692 1.15784 0
M  V30 12753 C 1195.27 -2.12407 0.861167 0
M  V30 12754 C 1196.27 -1.6018 -0.141031 0
M  V30 12755 O 1197.46 -1.73972 0.0891192 0
M  V30 12756 C 1194.59 -3.39693 0.286636 0
M  V30 12757 H 1195.78 -2.40157 1.79623 0
M  V30 12758 H 1193.34 -1.22881 0.965916 0
M  V30 12759 H 1194.07 -3.17587 -0.656417 0
M  V30 12760 H 1193.86 -3.78903 1.0087 0
M  V30 12761 H 1195.35 -4.17488 0.0967971 0
M  V30 12762 N 1195.78 -0.955326 -1.25345 0
M  V30 12763 C 1196.75 -0.480564 -2.24105 0
M  V30 12764 C 1197.75 0.416123 -1.55322 0
M  V30 12765 O 1198.94 0.213315 -1.72889 0
M  V30 12766 C 1196.07 0.305589 -3.39528 0
M  V30 12767 H 1197.26 -1.35349 -2.6762 0
M  V30 12768 H 1194.81 -0.738673 -1.37744 0
M  V30 12769 H 1195.55 1.19615 -3.01434 0
M  V30 12770 H 1195.33 -0.337719 -3.90643 0
M  V30 12771 H 1196.82 0.627201 -4.12863 0
M  V30 12772 N 1197.26 1.39987 -0.723979 0
M  V30 12773 C 1198.49 2.05037 -0.27702 0
M  V30 12774 C 1198.9 1.54565 1.08421 0
M  V30 12775 O 1198.26 0.705795 1.683 0
M  V30 12776 C 1198.31 3.60582 -0.25751 0
M  V30 12777 O 1198.03 4.09194 -1.565 0
M  V30 12778 C 1199.53 4.42817 0.206972 0
M  V30 12779 H 1196.75 0.659637 -0.122963 0
M  V30 12780 H 1199.3 1.7924 -0.98454 0
M  V30 12781 H 1197.45 3.85319 0.401037 0
M  V30 12782 H 1197.87 5.03447 -1.47112 0
M  V30 12783 H 1199.34 5.5174 0.16947 0
M  V30 12784 H 1199.82 4.21023 1.25045 0
M  V30 12785 H 1200.42 4.23205 -0.421604 0
M  V30 12786 N 1198.74 0.470782 1.50404 0
M  V30 12787 C 1199.97 -0.0820134 2.06737 0
M  V30 12788 C 1200.38 -1.33535 1.33468 0
M  V30 12789 O 1199.74 -1.77975 0.403872 0
M  V30 12790 C 1199.79 -0.370427 3.59597 0
M  V30 12791 O 1199.51 0.8332 4.30104 0
M  V30 12792 C 1201.01 -0.970222 4.32552 0
M  V30 12793 H 1198.23 0.00694502 0.670964 0
M  V30 12794 H 1200.78 0.659476 1.93575 0
M  V30 12795 H 1198.93 -1.06185 3.72563 0
M  V30 12796 H 1199.35 0.577614 5.2131 0
M  V30 12797 H 1200.82 -1.1218 5.40481 0
M  V30 12798 H 1201.3 -1.96024 3.93028 0
M  V30 12799 H 1201.9 -0.31719 4.24116 0
M  V30 12800 N 1200.22 -1.56282 0.203376 0
M  V30 12801 C 1201.47 -1.96987 -0.433461 0
M  V30 12802 C 1201.78 -1.09344 -1.62183 0
M  V30 12803 O 1202.99 -1.39868 -2.327 0
M  V30 12804 C 1201.44 -3.50374 -0.82257 0
M  V30 12805 C 1201.05 -4.46693 0.341969 0
M  V30 12806 C 1202.79 -3.99831 -1.42603 0
M  V30 12807 C 1200.7 -5.9136 -0.0685608 0
M  V30 12808 H 1199.63 -0.735564 -0.165717 0
M  V30 12809 H 1202.28 -1.81085 0.296708 0
M  V30 12810 H 1200.66 -3.6181 -1.60964 0
M  V30 12811 H 1201.84 -4.46994 1.11952 0
M  V30 12812 H 1200.15 -4.07476 0.857463 0
M  V30 12813 H 1202.75 -5.05398 -1.74577 0
M  V30 12814 H 1203.09 -3.4462 -2.33544 0
M  V30 12815 H 1203.63 -3.91543 -0.702758 0
M  V30 12816 H 1200.36 -6.50515 0.80688 0
M  V30 12817 H 1199.88 -5.94295 -0.810798 0
M  V30 12818 H 1201.56 -6.45053 -0.501525 0
M  V30 12819 N 1201.7 0.070167 -1.57444 0
M  V30 12820 C 1202.97 0.802108 -1.78397 0
M  V30 12821 C 1203.35 1.95706 -0.791356 0
M  V30 12822 O 1202.7 2.27827 0.17518 0
M  V30 12823 C 1202.91 1.27354 -3.24934 0
M  V30 12824 C 1204.26 1.70626 -3.88808 0
M  V30 12825 O 1205.28 1.36916 -3.28835 0
M  V30 12826 O 1204.14 2.33041 -4.94322 0
M  V30 12827 H 1201.24 0.384483 -0.73219 0
M  V30 12828 H 1203.78 0.0501168 -1.69626 0
M  V30 12829 H 1202.55 0.447204 -3.88736 0
M  V30 12830 H 1202.18 2.0868 -3.38435 0
M  V30 12831 N 1203.17 1.53854 0.341593 0
M  V30 12832 C 1204.11 1.78295 1.44027 0
M  V30 12833 C 1205.12 0.664303 1.4863 0
M  V30 12834 O 1206.31 0.941073 1.51678 0
M  V30 12835 C 1203.41 1.86947 2.82673 0
M  V30 12836 C 1202.58 3.16898 3.01487 0
M  V30 12837 C 1201.64 3.16483 4.20386 0
M  V30 12838 O 1200.67 3.90197 4.14409 0
M  V30 12839 N 1201.87 2.3899 5.29022 0
M  V30 12840 H 1204.63 2.73102 1.23431 0
M  V30 12841 H 1202.19 1.52928 0.531483 0
M  V30 12842 H 1204.19 1.84118 3.60392 0
M  V30 12843 H 1202.76 0.993169 2.96403 0
M  V30 12844 H 1201.98 3.32835 2.11221 0
M  V30 12845 H 1203.26 4.02733 3.1094 0
M  V30 12846 H 1202.66 1.78657 5.36748 0
M  V30 12847 H 1201.22 2.41957 6.05227 0
M  V30 12848 N 1204.65 -0.602709 1.4562 0
M  V30 12849 C 1206.07 -0.923983 1.30133 0
M  V30 12850 C 1206.27 -1.99842 0.25796 0
M  V30 12851 O 1205.32 -2.50112 -0.346414 0
M  V30 12852 C 1206.64 -1.36029 2.68173 0
M  V30 12853 C 1208.18 -1.47423 2.76108 0
M  V30 12854 C 1208.66 -1.94427 4.14683 0
M  V30 12855 N 1210.15 -2.01653 4.17002 0
M  V30 12856 C 1210.89 -2.39255 5.211 0
M  V30 12857 N 1210.38 -2.75791 6.3554 0
M  V30 12858 N 1212.17 -2.39636 5.08459 0
M  V30 12859 H 1204.33 0.107377 2.12128 0
M  V30 12860 H 1206.59 -0.0146216 0.947887 0
M  V30 12861 H 1206.29 -0.644949 3.45736 0
M  V30 12862 H 1206.17 -2.32584 2.96959 0
M  V30 12863 H 1208.56 -2.18047 1.98845 0
M  V30 12864 H 1208.64 -0.4917 2.5103 0
M  V30 12865 H 1208.28 -1.24389 4.92433 0
M  V30 12866 H 1208.21 -2.93603 4.37156 0
M  V30 12867 H 1210.7 -1.75988 3.3442 0
M  V30 12868 H 1211.01 -3.03378 7.10761 0
M  V30 12869 H 1209.36 -2.73475 6.38934 0
M  V30 12870 H 1212.55 -2.10502 4.18098 0
M  V30 12871 H 1212.72 -2.68614 5.89704 0
M  V30 12872 N 1206.13 -1.32992 -0.845635 0
M  V30 12873 C 1207.08 -1.22682 -1.95494 0
M  V30 12874 C 1208.05 -0.106942 -1.65755 0
M  V30 12875 O 1209.23 -0.28405 -1.88674 0
M  V30 12876 C 1206.37 -0.965068 -3.31331 0
M  V30 12877 C 1205.48 -2.17058 -3.7351 0
M  V30 12878 C 1204.62 -1.84355 -4.98183 0
M  V30 12879 C 1203.66 -3.01176 -5.32878 0
M  V30 12880 N 1202.8 -2.68506 -6.48729 0
M  V30 12881 H 1207.64 -2.17562 -2.03644 0
M  V30 12882 H 1205.17 -1.08194 -0.996613 0
M  V30 12883 H 1207.13 -0.793771 -4.09579 0
M  V30 12884 H 1205.76 -0.0530285 -3.22756 0
M  V30 12885 H 1204.81 -2.45185 -2.90841 0
M  V30 12886 H 1206.12 -3.04413 -3.95138 0
M  V30 12887 H 1205.28 -1.6383 -5.84162 0
M  V30 12888 H 1204.02 -0.942264 -4.78511 0
M  V30 12889 H 1203.02 -3.22323 -4.45408 0
M  V30 12890 H 1204.25 -3.9205 -5.54503 0
M  V30 12891 H 1202.19 -1.80929 -6.30556 0
M  V30 12892 H 1202.11 -3.49392 -6.70419 0
M  V30 12893 H 1203.38 -2.51432 -7.37836 0
M  V30 12894 N 1207.61 1.06304 -1.1635 0
M  V30 12895 C 1208.54 2.15745 -0.893103 0
M  V30 12896 C 1209.52 1.69341 0.160531 0
M  V30 12897 O 1210.7 1.94196 0.0126526 0
M  V30 12898 C 1207.83 3.45066 -0.393287 0
M  V30 12899 C 1206.79 4.04978 -1.38482 0
M  V30 12900 C 1206.11 5.29507 -0.743409 0
M  V30 12901 C 1207.41 4.4377 -2.75438 0
M  V30 12902 H 1209.11 2.38622 -1.80831 0
M  V30 12903 H 1206.65 1.14681 -0.870878 0
M  V30 12904 H 1208.61 4.20964 -0.191607 0
M  V30 12905 H 1207.33 3.21808 0.557426 0
M  V30 12906 H 1205.99 3.31136 -1.57304 0
M  V30 12907 H 1205.64 5.02545 0.213787 0
M  V30 12908 H 1205.34 5.7055 -1.40521 0
M  V30 12909 H 1206.86 6.08102 -0.551746 0
M  V30 12910 H 1208.28 5.1075 -2.60398 0
M  V30 12911 H 1206.67 4.95797 -3.38091 0
M  V30 12912 H 1207.74 3.54636 -3.30699 0
M  V30 12913 N 1209.09 0.96196 1.24836 0
M  V30 12914 C 1210 0.494876 2.29321 0
M  V30 12915 C 1211.01 -0.441363 1.68309 0
M  V30 12916 O 1212.19 -0.315814 1.98908 0
M  V30 12917 C 1209.25 -0.212944 3.46045 0
M  V30 12918 C 1208.31 0.762411 4.22476 0
M  V30 12919 C 1207.55 0.0882756 5.33627 0
M  V30 12920 O 1207.77 -1.12459 5.59204 0
M  V30 12921 O 1206.7 0.777529 5.96857 0
M  V30 12922 H 1210.53 1.36333 2.7138 0
M  V30 12923 H 1208.11 0.728738 1.30421 0
M  V30 12924 H 1210 -0.610805 4.1695 0
M  V30 12925 H 1208.67 -1.05645 3.05975 0
M  V30 12926 H 1207.58 1.21062 3.5397 0
M  V30 12927 H 1208.91 1.57416 4.66349 0
M  V30 12928 N 1210.56 -1.39601 0.731392 0
M  V30 12929 C 1211.79 -2.05411 0.286532 0
M  V30 12930 C 1212.21 -1.54777 -1.06892 0
M  V30 12931 O 1211.57 -0.689942 -1.67659 0
M  V30 12932 C 1211.62 -3.594 0.293914 0
M  V30 12933 O 1210.72 -4.06072 -0.719657 0
M  V30 12934 H 1210.06 -0.650949 0.131004 0
M  V30 12935 H 1212.59 -1.78703 0.996305 0
M  V30 12936 H 1212.6 -4.0777 0.137052 0
M  V30 12937 H 1211.28 -3.95617 1.28298 0
M  V30 12938 H 1209.86 -3.69125 -0.529226 0
M  V30 12939 N 1212.04 -0.478751 -1.50152 0
M  V30 12940 C 1213.29 0.0734397 -2.01967 0
M  V30 12941 C 1213.61 1.39523 -1.36229 0
M  V30 12942 O 1212.88 1.89141 -0.510149 0
M  V30 12943 H 1211.46 0.0301305 -0.746392 0
M  V30 12944 H 1214.12 -0.630921 -1.84406 0
M  V30 12945 H 1213.22 0.21937 -3.11328 0
M  V30 12946 N 1213.52 1.56172 -0.211661 0
M  V30 12947 C 1214.47 2.21206 0.719063 0
M  V30 12948 C 1215.46 1.18835 1.20725 0
M  V30 12949 O 1216.67 1.36939 1.16823 0
M  V30 12950 H 1213.04 0.709129 0.250279 0
M  V30 12951 H 1215.01 2.98038 0.147022 0
M  V30 12952 C 1213.76 2.89826 1.92084 0
M  V30 12953 H 1213.09 3.68351 1.55428 0
M  V30 12954 H 1214.53 3.38744 2.55006 0
M  V30 12955 C 1212.99 1.91756 2.77004 0
M  V30 12956 O 1213.52 1.42826 3.75451 0
M  V30 12957 N 1211.72 1.59622 2.42836 0
M  V30 12958 H 1211.27 1.99606 1.62835 0
M  V30 12959 H 1211.23 0.942641 2.99936 0
M  V30 12960 N 1215 -0.0618163 1.57479 0
M  V30 12961 C 1216.41 -0.612461 1.76368 0
M  V30 12962 C 1216.76 -1.77381 0.838466 0
M  V30 12963 O 1215.89 -2.16386 0.0250211 0
M  V30 12964 C 1216.48 -1.11782 3.19829 0
M  V30 12965 C 1215.04 -1.61424 3.40028 0
M  V30 12966 C 1214.19 -0.53795 2.72032 0
M  V30 12967 H 1217.14 0.164382 1.57846 0
M  V30 12968 H 1217.16 -1.98634 3.24538 0
M  V30 12969 H 1216.67 -0.272353 3.87143 0
M  V30 12970 H 1214.77 -2.48263 2.77842 0
M  V30 12971 H 1214.88 -1.68431 4.48517 0
M  V30 12972 H 1213.25 -0.985355 2.34868 0
M  V30 12973 H 1214.03 0.297495 3.42009 0
M  V30 12974 N 1216.48 -1.54033 -0.333429 0
M  V30 12975 C 1217.71 -1.75461 -1.09073 0
M  V30 12976 C 1218.11 -0.498488 -1.82515 0
M  V30 12977 O 1217.46 0.540029 -1.75583 0
M  V30 12978 C 1217.52 -2.88744 -2.14166 0
M  V30 12979 C 1217.18 -4.27998 -1.60209 0
M  V30 12980 C 1218.18 -5.09206 -1.04907 0
M  V30 12981 C 1215.87 -4.74513 -1.6475 0
M  V30 12982 C 1217.86 -6.35035 -0.548615 0
M  V30 12983 C 1215.55 -6.00312 -1.14318 0
M  V30 12984 C 1216.54 -6.80406 -0.594667 0
M  V30 12985 O 1216.23 -8.0384 -0.097891 0
M  V30 12986 H 1215.96 -0.589586 -0.330702 0
M  V30 12987 H 1218.52 -2.01697 -0.388274 0
M  V30 12988 H 1216.75 -2.58057 -2.87999 0
M  V30 12989 H 1218.44 -2.98048 -2.7554 0
M  V30 12990 H 1219.2 -4.74428 -1.00713 0
M  V30 12991 H 1215.08 -4.12222 -2.06384 0
M  V30 12992 H 1218.63 -6.97497 -0.119823 0
M  V30 12993 H 1214.52 -6.34583 -1.18215 0
M  V30 12994 H 1215.29 -8.1822 -0.214237 0
M  V30 12995 N 1217.95 0.594978 -1.45938 0
M  V30 12996 C 1218.9 1.70489 -1.5557 0
M  V30 12997 C 1219.87 1.61193 -0.400751 0
M  V30 12998 O 1221.06 1.80587 -0.615882 0
M  V30 12999 C 1218.2 3.08817 -1.54033 0
M  V30 13000 C 1217.31 3.28827 -2.80173 0
M  V30 13001 C 1216.44 4.57333 -2.70222 0
M  V30 13002 C 1215.48 4.70644 -3.91357 0
M  V30 13003 N 1214.62 5.90463 -3.79865 0
M  V30 13004 H 1219.46 1.61593 -2.50383 0
M  V30 13005 H 1217 0.787747 -1.24229 0
M  V30 13006 H 1218.96 3.88865 -1.51129 0
M  V30 13007 H 1217.59 3.1664 -0.627617 0
M  V30 13008 H 1216.64 2.42467 -2.9311 0
M  V30 13009 H 1217.95 3.34534 -3.69985 0
M  V30 13010 H 1217.1 5.45593 -2.65354 0
M  V30 13011 H 1215.84 4.54045 -1.7803 0
M  V30 13012 H 1214.85 3.80805 -3.9657 0
M  V30 13013 H 1216.07 4.75721 -4.8463 0
M  V30 13014 H 1214.02 5.88196 -2.90451 0
M  V30 13015 H 1213.94 5.97385 -4.63322 0
M  V30 13016 H 1215.2 6.81187 -3.78952 0
M  V30 13017 N 1219.43 1.33438 0.838571 0
M  V30 13018 C 1220.68 1.25097 1.5962 0
M  V30 13019 C 1221.01 -0.182798 1.93338 0
M  V30 13020 O 1220.29 -1.1242 1.5872 0
M  V30 13021 C 1220.57 2.12655 2.90603 0
M  V30 13022 C 1220.42 3.64491 2.63565 0
M  V30 13023 C 1221.74 1.99994 3.92033 0
M  V30 13024 H 1218.86 0.455776 0.579169 0
M  V30 13025 H 1221.5 1.63542 0.967169 0
M  V30 13026 H 1219.65 1.79998 3.44286 0
M  V30 13027 H 1221.32 4.0744 2.16312 0
M  V30 13028 H 1219.57 3.86356 1.9726 0
M  V30 13029 H 1220.24 4.21101 3.569 0
M  V30 13030 H 1222.71 2.28635 3.47657 0
M  V30 13031 H 1221.59 2.63509 4.81512 0
M  V30 13032 H 1221.85 0.972263 4.31277 0
M  V30 13033 N 1220.91 -1.05686 1.16912 0
M  V30 13034 C 1222.14 -1.82018 0.977392 0
M  V30 13035 C 1222.55 -1.83072 -0.477636 0
M  V30 13036 O 1221.89 -1.25296 -1.34338 0
M  V30 13037 C 1221.95 -3.29592 1.4356 0
M  V30 13038 C 1221.62 -3.5223 2.91175 0
M  V30 13039 C 1222.61 -3.44767 3.89142 0
M  V30 13040 C 1220.3 -3.79353 3.29236 0
M  V30 13041 C 1222.29 -3.64104 5.2317 0
M  V30 13042 C 1219.98 -3.98339 4.63432 0
M  V30 13043 C 1220.98 -3.90713 5.60207 0
M  V30 13044 O 1220.67 -4.09175 6.91976 0
M  V30 13045 H 1220.4 -0.580578 0.346273 0
M  V30 13046 H 1222.95 -1.34199 1.55498 0
M  V30 13047 H 1221.18 -3.78302 0.80153 0
M  V30 13048 H 1222.87 -3.87435 1.21032 0
M  V30 13049 H 1223.64 -3.23796 3.61083 0
M  V30 13050 H 1219.52 -3.84395 2.54482 0
M  V30 13051 H 1223.06 -3.58068 5.98693 0
M  V30 13052 H 1218.96 -4.18801 4.91198 0
M  V30 13053 H 1219.73 -4.26429 6.98642 0
M  V30 13054 N 1222.39 -0.968567 -1.24324 0
M  V30 13055 C 1223.63 -0.631863 -1.92705 0
M  V30 13056 C 1223.97 0.83096 -1.75524 0
M  V30 13057 O 1223.24 1.59795 -1.10887 0
M  V30 13058 C 1223.53 -1.00845 -3.45691 0
M  V30 13059 C 1223.38 -2.52803 -3.72036 0
M  V30 13060 C 1224.7 -0.543647 -4.36729 0
M  V30 13061 H 1221.82 -0.231027 -0.699854 0
M  V30 13062 H 1224.46 -1.20773 -1.46676 0
M  V30 13063 H 1222.61 -0.518434 -3.85025 0
M  V30 13064 H 1224.28 -3.09289 -3.42255 0
M  V30 13065 H 1222.52 -2.95963 -3.17157 0
M  V30 13066 H 1223.19 -2.74203 -4.79079 0
M  V30 13067 H 1225.67 -0.964182 -4.04775 0
M  V30 13068 H 1224.55 -0.8357 -5.42501 0
M  V30 13069 H 1224.81 0.556256 -4.38587 0
M  V30 13070 N 1223.87 1.39211 -0.738786 0
M  V30 13071 C 1224.81 2.32424 -0.0904601 0
M  V30 13072 C 1225.81 1.53258 0.721694 0
M  V30 13073 O 1227.01 1.68895 0.622454 0
M  V30 13074 H 1223.39 0.751927 -0.010453 0
M  V30 13075 H 1225.36 2.84726 -0.892945 0
M  V30 13076 C 1224.11 3.38377 0.799783 0
M  V30 13077 H 1223.43 3.99375 0.18424 0
M  V30 13078 H 1224.87 4.0604 1.22096 0
M  V30 13079 C 1223.33 2.75734 1.93578 0
M  V30 13080 O 1223.86 2.63876 3.02874 0
M  V30 13081 N 1222.07 2.33764 1.72634 0
M  V30 13082 H 1221.61 2.43609 0.837413 0
M  V30 13083 H 1221.57 1.92191 2.48817 0
M  V30 13084 N 1225.34 0.486708 1.49896 0
M  V30 13085 C 1226.62 -0.125183 1.95199 0
M  V30 13086 C 1227 -1.55498 1.42771 0
M  V30 13087 O 1226.35 -2.1949 0.635322 0
M  V30 13088 C 1226.56 -0.0524982 3.48961 0
M  V30 13089 C 1227.91 -0.233595 4.23957 0
M  V30 13090 O 1228.93 -0.128357 3.55969 0
M  V30 13091 O 1227.79 -0.447862 5.44662 0
M  V30 13092 H 1224.88 -0.103141 0.820543 0
M  V30 13093 H 1227.43 0.548226 1.60601 0
M  V30 13094 H 1226.2 0.945163 3.79714 0
M  V30 13095 H 1225.83 -0.766683 3.90138 0
M  V30 13096 N 1226.82 -1.56058 0.219941 0
M  V30 13097 C 1227.77 -2.20218 -0.690846 0
M  V30 13098 C 1228.74 -1.15725 -1.19151 0
M  V30 13099 O 1229.93 -1.44073 -1.2509 0
M  V30 13100 C 1227.07 -2.88477 -1.89408 0
M  V30 13101 C 1226.18 -4.07559 -1.43246 0
M  V30 13102 C 1225.31 -4.63605 -2.59314 0
M  V30 13103 C 1224.35 -5.74993 -2.0988 0
M  V30 13104 N 1223.49 -6.25337 -3.19214 0
M  V30 13105 H 1228.33 -2.97685 -0.136992 0
M  V30 13106 H 1225.87 -1.46994 -0.055865 0
M  V30 13107 H 1227.82 -3.26235 -2.60051 0
M  V30 13108 H 1226.45 -2.1353 -2.42084 0
M  V30 13109 H 1225.51 -3.75297 -0.621013 0
M  V30 13110 H 1226.82 -4.8805 -1.02997 0
M  V30 13111 H 1225.97 -5.03798 -3.38041 0
M  V30 13112 H 1224.71 -3.82274 -3.0285 0
M  V30 13113 H 1223.72 -5.34304 -1.29613 0
M  V30 13114 H 1224.94 -6.58158 -1.67345 0
M  V30 13115 H 1222.89 -5.4692 -3.62236 0
M  V30 13116 H 1222.8 -7.00947 -2.83213 0
M  V30 13117 H 1224.07 -6.70187 -3.98083 0
M  V30 13118 N 1228.3 0.053464 -1.57509 0
M  V30 13119 C 1229.21 1.07902 -2.08313 0
M  V30 13120 C 1230.23 1.41223 -1.01647 0
M  V30 13121 O 1231.4 1.51032 -1.33233 0
M  V30 13122 C 1228.47 2.36813 -2.5322 0
M  V30 13123 C 1227.53 2.10297 -3.74264 0
M  V30 13124 C 1226.76 3.33062 -4.1702 0
M  V30 13125 O 1226.99 4.42857 -3.59491 0
M  V30 13126 O 1225.92 3.20195 -5.09665 0
M  V30 13127 H 1229.75 0.677368 -2.9605 0
M  V30 13128 H 1227.33 0.268838 -1.46961 0
M  V30 13129 H 1229.21 3.12645 -2.82544 0
M  V30 13130 H 1227.89 2.76323 -1.68605 0
M  V30 13131 H 1226.79 1.32111 -3.49996 0
M  V30 13132 H 1228.13 1.75658 -4.59788 0
M  V30 13133 N 1229.78 1.54207 0.325255 0
M  V30 13134 C 1230.74 1.82757 1.38321 0
M  V30 13135 C 1231.74 0.699312 1.44797 0
M  V30 13136 O 1232.93 0.96762 1.44854 0
M  V30 13137 C 1230.06 1.98608 2.7707 0
M  V30 13138 H 1231.26 2.7728 1.14261 0
M  V30 13139 H 1228.81 1.45899 0.560647 0
M  V30 13140 H 1229.55 1.0629 3.06387 0
M  V30 13141 H 1229.33 2.80707 2.73763 0
M  V30 13142 H 1230.82 2.2215 3.53609 0
M  V30 13143 N 1231.26 -0.58723 1.46251 0
M  V30 13144 C 1232.48 -1.37661 1.55126 0
M  V30 13145 C 1232.91 -1.87123 0.191489 0
M  V30 13146 O 1232.27 -1.6131 -0.827576 0
M  V30 13147 C 1232.31 -2.54324 2.5564 0
M  V30 13148 O 1231.42 -3.55617 2.0883 0
M  V30 13149 H 1230.76 -0.410154 0.522178 0
M  V30 13150 H 1233.29 -0.712738 1.91784 0
M  V30 13151 H 1233.3 -3.01301 2.75103 0
M  V30 13152 H 1231.97 -2.17675 3.54387 0
M  V30 13153 H 1230.55 -3.15151 1.99335 0
M  V30 13154 N 1232.74 -1.33881 -0.831482 0
M  V30 13155 C 1233.67 -1.27384 -1.95693 0
M  V30 13156 C 1234.65 -0.152943 -1.69411 0
M  V30 13157 O 1235.83 -0.34392 -1.9113 0
M  V30 13158 C 1232.96 -1.01982 -3.31989 0
M  V30 13159 C 1231.92 -2.10445 -3.72689 0
M  V30 13160 C 1231.24 -1.70245 -5.06873 0
M  V30 13161 C 1232.54 -3.52194 -3.8569 0
M  V30 13162 H 1234.24 -2.21549 -2.01386 0
M  V30 13163 H 1231.78 -1.06653 -0.967526 0
M  V30 13164 H 1233.73 -0.960841 -4.103 0
M  V30 13165 H 1232.46 -0.0425709 -3.26572 0
M  V30 13166 H 1231.12 -2.15398 -2.96647 0
M  V30 13167 H 1230.77 -0.712036 -4.97935 0
M  V30 13168 H 1230.47 -2.42834 -5.35075 0
M  V30 13169 H 1231.99 -1.65827 -5.87651 0
M  V30 13170 H 1233.4 -3.49701 -4.54293 0
M  V30 13171 H 1231.8 -4.23331 -4.25336 0
M  V30 13172 H 1232.87 -3.9016 -2.87929 0
M  V30 13173 N 1234.21 1.05064 -1.1747 0
M  V30 13174 C 1235.44 1.81761 -0.988464 0
M  V30 13175 C 1235.86 1.83028 0.463272 0
M  V30 13176 O 1235.21 1.25846 1.32171 0
M  V30 13177 C 1235.26 3.2782 -1.5237 0
M  V30 13178 O 1234.99 3.26726 -2.91859 0
M  V30 13179 C 1236.49 4.212 -1.38223 0
M  V30 13180 H 1233.71 0.572712 -0.349631 0
M  V30 13181 H 1236.25 1.32477 -1.55789 0
M  V30 13182 H 1234.41 3.7437 -0.996272 0
M  V30 13183 H 1234.82 4.18151 -3.16623 0
M  V30 13184 H 1236.29 5.2166 -1.80485 0
M  V30 13185 H 1236.77 4.37962 -0.329491 0
M  V30 13186 H 1237.38 3.80506 -1.89988 0
M  V30 13187 N 1235.69 0.975146 1.23809 0
M  V30 13188 C 1236.6 0.51917 2.28783 0
M  V30 13189 C 1237.62 -0.423487 1.68768 0
M  V30 13190 O 1238.79 -0.294699 1.99232 0
M  V30 13191 C 1235.86 -0.176229 3.46252 0
M  V30 13192 C 1234.92 0.807177 4.21643 0
M  V30 13193 C 1234.15 0.144869 5.33503 0
M  V30 13194 O 1234.38 -1.06522 5.60365 0
M  V30 13195 O 1233.31 0.84079 5.95999 0
M  V30 13196 H 1237.14 1.39204 2.69919 0
M  V30 13197 H 1234.72 0.74253 1.29641 0
M  V30 13198 H 1236.6 -0.566547 4.17574 0
M  V30 13199 H 1235.28 -1.02394 3.07078 0
M  V30 13200 H 1234.18 1.2481 3.52666 0
M  V30 13201 H 1235.52 1.62354 4.64653 0
M  V30 13202 N 1237.17 -1.38817 0.746158 0
M  V30 13203 C 1238.1 -2.29081 0.0737986 0
M  V30 13204 C 1239.11 -1.47377 -0.691656 0
M  V30 13205 O 1240.3 -1.70326 -0.533973 0
M  V30 13206 C 1237.4 -3.26185 -0.919607 0
M  V30 13207 C 1236.58 -4.36879 -0.213349 0
M  V30 13208 C 1235.64 -5.1422 -1.11644 0
M  V30 13209 O 1234.66 -5.66137 -0.589747 0
M  V30 13210 N 1235.86 -5.26488 -2.44521 0
M  V30 13211 H 1238.63 -2.87424 0.848966 0
M  V30 13212 H 1236.19 -1.50518 0.596314 0
M  V30 13213 H 1238.18 -3.74802 -1.52662 0
M  V30 13214 H 1236.75 -2.68793 -1.5959 0
M  V30 13215 H 1235.97 -3.89994 0.574285 0
M  V30 13216 H 1237.26 -5.08053 0.275655 0
M  V30 13217 H 1236.66 -4.85846 -2.89777 0
M  V30 13218 H 1235.21 -5.78505 -3.00291 0
M  V30 13219 N 1238.65 -0.49465 -1.49636 0
M  V30 13220 C 1239.56 0.291881 -2.32777 0
M  V30 13221 C 1240.57 0.973468 -1.44221 0
M  V30 13222 O 1241.75 0.956252 -1.77251 0
M  V30 13223 C 1238.81 1.34609 -3.19502 0
M  V30 13224 C 1237.88 0.678611 -4.23903 0
M  V30 13225 C 1237.11 1.68259 -5.06483 0
M  V30 13226 O 1237.33 2.91176 -4.90482 0
M  V30 13227 O 1236.27 1.24141 -5.88959 0
M  V30 13228 H 1240.09 -0.388459 -3.01205 0
M  V30 13229 H 1237.68 -0.256086 -1.47189 0
M  V30 13230 H 1239.56 1.95617 -3.73245 0
M  V30 13231 H 1238.23 2.00947 -2.53775 0
M  V30 13232 H 1237.14 0.0289541 -3.74089 0
M  V30 13233 H 1238.47 0.0577817 -4.92166 0
M  V30 13234 N 1240.13 1.55939 -0.228214 0
M  V30 13235 C 1241.07 2.20581 0.679157 0
M  V30 13236 C 1242.04 1.16355 1.18536 0
M  V30 13237 O 1243.23 1.44735 1.24324 0
M  V30 13238 C 1240.37 2.89477 1.87875 0
M  V30 13239 C 1239.48 4.08313 1.41083 0
M  V30 13240 C 1238.62 4.64974 2.56851 0
M  V30 13241 C 1237.65 5.76098 2.06828 0
M  V30 13242 N 1236.79 6.27021 3.15894 0
M  V30 13243 H 1241.63 2.97753 0.121203 0
M  V30 13244 H 1239.17 1.47021 0.0480688 0
M  V30 13245 H 1241.13 3.2761 2.58317 0
M  V30 13246 H 1239.76 2.14811 2.40948 0
M  V30 13247 H 1238.81 3.75621 0.601102 0
M  V30 13248 H 1240.12 4.8859 1.00408 0
M  V30 13249 H 1239.27 5.05584 3.35365 0
M  V30 13250 H 1238.01 3.83875 3.00818 0
M  V30 13251 H 1237.02 5.34984 1.26778 0
M  V30 13252 H 1238.24 6.59037 1.63852 0
M  V30 13253 H 1236.19 5.48833 3.5933 0
M  V30 13254 H 1236.11 7.02439 2.79491 0
M  V30 13255 H 1237.37 6.72289 3.94523 0
M  V30 13256 N 1241.6 -0.0451101 1.57535 0
M  V30 13257 C 1242.88 -0.773625 1.79651 0
M  V30 13258 C 1243.26 -1.94422 0.822391 0
M  V30 13259 O 1242.61 -2.28077 -0.138913 0
M  V30 13260 C 1242.82 -1.22168 3.26919 0
M  V30 13261 C 1244.17 -1.64419 3.91474 0
M  V30 13262 O 1245.19 -1.31668 3.30971 0
M  V30 13263 O 1244.05 -2.25148 4.97967 0
M  V30 13264 H 1241.14 -0.372786 0.738214 0
M  V30 13265 H 1243.69 -0.0231245 1.69684 0
M  V30 13266 H 1242.46 -0.385302 3.89398 0
M  V30 13267 H 1242.09 -2.03269 3.41713 0
M  V30 13268 N 1243.08 -1.54377 -0.317073 0
M  V30 13269 C 1244.31 -1.76608 -1.07206 0
M  V30 13270 C 1244.72 -0.517818 -1.81976 0
M  V30 13271 O 1244.06 0.521375 -1.76146 0
M  V30 13272 C 1244.13 -2.91 -2.11091 0
M  V30 13273 C 1243.79 -4.29673 -1.55661 0
M  V30 13274 C 1244.79 -5.1029 -0.994999 0
M  V30 13275 C 1242.47 -4.76234 -1.59708 0
M  V30 13276 C 1244.47 -6.35581 -0.48123 0
M  V30 13277 C 1242.15 -6.01491 -1.07944 0
M  V30 13278 C 1243.15 -6.80999 -0.522467 0
M  V30 13279 O 1242.84 -8.03899 -0.0126274 0
M  V30 13280 H 1242.57 -0.593061 -0.32443 0
M  V30 13281 H 1245.12 -2.02097 -0.366859 0
M  V30 13282 H 1243.35 -2.61097 -2.85246 0
M  V30 13283 H 1245.04 -3.00954 -2.72363 0
M  V30 13284 H 1245.81 -4.7547 -0.956752 0
M  V30 13285 H 1241.69 -4.14387 -2.02 0
M  V30 13286 H 1245.23 -6.97585 -0.0458374 0
M  V30 13287 H 1241.13 -6.35801 -1.11478 0
M  V30 13288 H 1241.9 -8.18401 -0.127442 0
M  V30 13289 N 1244.56 0.579466 -1.4656 0
M  V30 13290 C 1245.97 1.1616 -1.46164 0
M  V30 13291 C 1246.32 1.95134 -0.20423 0
M  V30 13292 O 1245.45 2.05022 0.692457 0
M  V30 13293 C 1246.04 2.11322 -2.64818 0
M  V30 13294 C 1244.6 2.64852 -2.67452 0
M  V30 13295 C 1243.75 1.40786 -2.38903 0
M  V30 13296 H 1246.7 0.367229 -1.54393 0
M  V30 13297 H 1246.72 2.94839 -2.4052 0
M  V30 13298 H 1246.23 1.53815 -3.56318 0
M  V30 13299 H 1244.33 3.26219 -1.80032 0
M  V30 13300 H 1244.45 3.07366 -3.67509 0
M  V30 13301 H 1242.81 1.70707 -1.89027 0
M  V30 13302 H 1243.59 0.851049 -3.32584 0
M  V30 13303 N 1246.04 1.3432 0.824371 0
M  V30 13304 C 1246.95 1.27847 1.96704 0
M  V30 13305 C 1247.96 0.18641 1.72999 0
M  V30 13306 O 1249.14 0.412623 1.97128 0
M  V30 13307 C 1246.21 1.03231 3.30975 0
M  V30 13308 C 1245.27 2.21579 3.67697 0
M  V30 13309 C 1244.5 1.98128 4.95561 0
M  V30 13310 O 1244.72 0.938798 5.62621 0
M  V30 13311 O 1243.66 2.85041 5.30128 0
M  V30 13312 H 1247.48 2.23974 2.05108 0
M  V30 13313 H 1245.07 1.14512 0.959554 0
M  V30 13314 H 1246.95 0.912784 4.11395 0
M  V30 13315 H 1245.62 0.101425 3.23541 0
M  V30 13316 H 1244.53 2.3909 2.87727 0
M  V30 13317 H 1245.86 3.13052 3.79815 0
M  V30 13318 N 1247.52 -1.0444 1.18026 0
M  V30 13319 C 1248.74 -1.81234 0.998089 0
M  V30 13320 C 1249.16 -1.83271 -0.453559 0
M  V30 13321 O 1248.52 -1.26545 -1.31502 0
M  V30 13322 C 1248.57 -3.27007 1.54106 0
M  V30 13323 O 1248.29 -3.25174 2.93587 0
M  V30 13324 C 1249.79 -4.20461 1.40455 0
M  V30 13325 H 1247.01 -0.57085 0.352663 0
M  V30 13326 H 1249.55 -1.31649 1.56489 0
M  V30 13327 H 1247.71 -3.73837 1.01611 0
M  V30 13328 H 1248.12 -4.16466 3.18836 0
M  V30 13329 H 1249.6 -5.20695 1.83249 0
M  V30 13330 H 1250.07 -4.37781 0.352713 0
M  V30 13331 H 1250.68 -3.79493 1.92004 0
M  V30 13332 N 1248.99 -0.981699 -1.2329 0
M  V30 13333 C 1249.93 -0.481042 -2.24095 0
M  V30 13334 C 1250.94 0.417818 -1.57347 0
M  V30 13335 O 1252.13 0.221746 -1.77117 0
M  V30 13336 C 1249.23 0.323324 -3.37354 0
M  V30 13337 C 1248.4 -0.568975 -4.33684 0
M  V30 13338 C 1247.46 0.181761 -5.25886 0
M  V30 13339 O 1246.49 -0.429059 -5.67581 0
M  V30 13340 N 1247.69 1.46737 -5.61648 0
M  V30 13341 H 1250.45 -1.34781 -2.67683 0
M  V30 13342 H 1248.01 -0.855117 -1.37475 0
M  V30 13343 H 1250.01 0.833934 -3.96015 0
M  V30 13344 H 1248.58 1.09111 -2.9294 0
M  V30 13345 H 1247.8 -1.2604 -3.73507 0
M  V30 13346 H 1249.08 -1.17704 -4.94998 0
M  V30 13347 H 1248.48 1.98513 -5.29725 0
M  V30 13348 H 1247.04 1.92339 -6.22775 0
M  V30 13349 N 1250.47 1.3842 -0.753509 0
M  V30 13350 C 1251.7 2.04929 -0.319174 0
M  V30 13351 C 1252.12 1.56457 1.04416 0
M  V30 13352 O 1251.48 0.716527 1.6654 0
M  V30 13353 C 1251.53 3.58887 -0.351054 0
M  V30 13354 O 1250.63 4.07166 0.654963 0
M  V30 13355 H 1249.97 0.648782 -0.141343 0
M  V30 13356 H 1252.5 1.77096 -1.02461 0
M  V30 13357 H 1252.51 4.075 -0.201907 0
M  V30 13358 H 1251.19 3.93525 -1.34576 0
M  V30 13359 H 1249.77 3.69921 0.470435 0
M  V30 13360 N 1251.95 0.502579 1.49372 0
M  V30 13361 C 1253.2 -0.0414423 2.02758 0
M  V30 13362 C 1253.53 -1.36499 1.38136 0
M  V30 13363 O 1252.8 -1.87487 0.517593 0
M  V30 13364 C 1253.09 -0.192333 3.59586 0
M  V30 13365 C 1252.94 1.15445 4.34733 0
M  V30 13366 C 1254.26 -0.932218 4.30114 0
M  V30 13367 H 1251.38 -0.0135869 0.736875 0
M  V30 13368 H 1254.02 0.654296 1.78379 0
M  V30 13369 H 1252.17 -0.78491 3.80488 0
M  V30 13370 H 1253.84 1.78603 4.25322 0
M  V30 13371 H 1252.09 1.74333 3.97228 0
M  V30 13372 H 1252.76 1.00216 5.42827 0
M  V30 13373 H 1255.23 -0.429632 4.13876 0
M  V30 13374 H 1254.11 -1.00664 5.39591 0
M  V30 13375 H 1254.37 -1.9763 3.95468 0
M  V30 13376 N 1253.43 -1.55816 0.23648 0
M  V30 13377 C 1254.68 -1.98686 -0.391146 0
M  V30 13378 C 1255 -1.12443 -1.58703 0
M  V30 13379 O 1254.26 -0.172805 -1.94936 0
M  V30 13380 C 1254.56 -3.47039 -0.85434 0
M  V30 13381 C 1254.22 -4.50299 0.232651 0
M  V30 13382 C 1252.89 -4.78259 0.531218 0
M  V30 13383 C 1255.24 -5.1215 0.967027 0
M  V30 13384 C 1252.57 -5.65347 1.56842 0
M  V30 13385 C 1254.92 -6.00363 1.99367 0
M  V30 13386 C 1253.58 -6.2666 2.299 0
M  V30 13387 H 1252.85 -0.727045 -0.14313 0
M  V30 13388 H 1255.5 -1.88419 0.342125 0
M  V30 13389 H 1253.8 -3.54585 -1.66663 0
M  V30 13390 H 1255.5 -3.7759 -1.35005 0
M  V30 13391 H 1252.09 -4.28599 -0.0102014 0
M  V30 13392 H 1256.27 -4.90606 0.749609 0
M  V30 13393 H 1251.53 -5.83981 1.81043 0
M  V30 13394 H 1255.7 -6.47335 2.56769 0
M  V30 13395 H 1253.33 -6.93938 3.1041 0
M  V30 13396 N 1254.91 0.036755 -1.57557 0
M  V30 13397 C 1255.84 1.03939 -2.09091 0
M  V30 13398 C 1256.82 1.38196 -0.991761 0
M  V30 13399 O 1258 1.47214 -1.26656 0
M  V30 13400 C 1255.13 2.34263 -2.56394 0
M  V30 13401 C 1254.09 2.14269 -3.70504 0
M  V30 13402 C 1253.41 3.50286 -4.03985 0
M  V30 13403 C 1254.71 1.53514 -4.9923 0
M  V30 13404 H 1256.41 0.610429 -2.93111 0
M  V30 13405 H 1253.95 0.292183 -1.41005 0
M  V30 13406 H 1255.91 3.04727 -2.91066 0
M  V30 13407 H 1254.63 2.79205 -1.69447 0
M  V30 13408 H 1253.29 1.46239 -3.36169 0
M  V30 13409 H 1252.94 3.92861 -3.14116 0
M  V30 13410 H 1252.64 3.37735 -4.80842 0
M  V30 13411 H 1254.16 4.22124 -4.41184 0
M  V30 13412 H 1255.57 2.13885 -5.31908 0
M  V30 13413 H 1253.97 1.51561 -5.80646 0
M  V30 13414 H 1255.04 0.500126 -4.82314 0
M  V30 13415 N 1256.39 1.54543 0.308881 0
M  V30 13416 C 1257.3 1.87994 1.4034 0
M  V30 13417 C 1258.31 0.773294 1.55872 0
M  V30 13418 O 1259.49 1.069 1.70688 0
M  V30 13419 C 1256.55 2.11341 2.74838 0
M  V30 13420 C 1255.61 3.35086 2.68358 0
M  V30 13421 C 1254.85 3.5731 3.96441 0
M  V30 13422 O 1255.07 2.82692 4.9542 0
M  V30 13423 O 1254 4.50814 3.98811 0
M  V30 13424 H 1257.83 2.81094 1.14976 0
M  V30 13425 H 1255.41 1.40634 0.504236 0
M  V30 13426 H 1257.3 2.27943 3.54429 0
M  V30 13427 H 1255.97 1.21427 3.00062 0
M  V30 13428 H 1254.88 3.23855 1.87267 0
M  V30 13429 H 1256.21 4.25104 2.48087 0
M  V30 13430 N 1257.86 -0.571685 1.46866 0
M  V30 13431 C 1259.09 -1.36008 1.56578 0
M  V30 13432 C 1259.51 -1.86909 0.211326 0
M  V30 13433 O 1258.87 -1.62179 -0.810421 0
M  V30 13434 C 1258.92 -2.51598 2.58323 0
M  V30 13435 O 1258.02 -3.53383 2.1259 0
M  V30 13436 H 1257.36 -0.404593 0.526498 0
M  V30 13437 H 1259.89 -0.692357 1.92529 0
M  V30 13438 H 1259.9 -2.98366 2.78283 0
M  V30 13439 H 1258.58 -2.13904 3.56676 0
M  V30 13440 H 1257.16 -3.13019 2.02666 0
M  V30 13441 N 1259.34 -1.34755 -0.817236 0
M  V30 13442 C 1260.59 -1.27432 -1.57377 0
M  V30 13443 C 1260.92 0.15419 -1.93888 0
M  V30 13444 O 1260.17 1.11686 -1.60701 0
M  V30 13445 C 1260.47 -2.11611 -2.8802 0
M  V30 13446 C 1260.14 -3.60543 -2.70776 0
M  V30 13447 C 1258.8 -4.01141 -2.6578 0
M  V30 13448 C 1261.15 -4.55089 -2.54053 0
M  V30 13449 C 1258.48 -5.34469 -2.41991 0
M  V30 13450 C 1260.83 -5.88603 -2.31795 0
M  V30 13451 C 1259.49 -6.28358 -2.25215 0
M  V30 13452 H 1258.76 -0.466305 -0.575882 0
M  V30 13453 H 1261.41 -1.66552 -0.945128 0
M  V30 13454 H 1259.72 -1.65336 -3.55206 0
M  V30 13455 H 1261.41 -2.03287 -3.45652 0
M  V30 13456 H 1258 -3.2832 -2.75506 0
M  V30 13457 H 1262.19 -4.24617 -2.56932 0
M  V30 13458 H 1257.44 -5.64284 -2.35359 0
M  V30 13459 H 1261.62 -6.61451 -2.17844 0
M  V30 13460 H 1259.24 -7.31604 -2.06543 0
M  V30 13461 N 1260.82 1.03812 -1.18578 0
M  V30 13462 C 1262.1 1.74062 -0.892288 0
M  V30 13463 C 1262.48 2.02267 0.604256 0
M  V30 13464 O 1261.82 1.66988 1.55972 0
M  V30 13465 C 1262.03 3.024 -1.74228 0
M  V30 13466 C 1263.38 3.76088 -1.97087 0
M  V30 13467 O 1264.41 3.12305 -1.71302 0
M  V30 13468 O 1263.27 4.90732 -2.40509 0
M  V30 13469 H 1260.36 0.757567 -0.331695 0
M  V30 13470 H 1262.91 1.09855 -1.29345 0
M  V30 13471 H 1261.68 2.77713 -2.75665 0
M  V30 13472 H 1261.3 3.74346 -1.3398 0
M  V30 13473 N 1262.3 0.988223 1.22768 0
M  V30 13474 C 1263.52 0.679426 1.95955 0
M  V30 13475 C 1263.95 -0.748483 1.72567 0
M  V30 13476 O 1263.31 -1.51097 1.00197 0
M  V30 13477 C 1263.35 0.985284 3.46878 0
M  V30 13478 O 1262.46 0.0814607 4.1232 0
M  V30 13479 H 1261.8 0.254749 0.613188 0
M  V30 13480 H 1264.33 1.32393 1.55991 0
M  V30 13481 H 1264.34 0.925198 3.97371 0
M  V30 13482 H 1263.01 2.02581 3.63227 0
M  V30 13483 H 1261.59 0.196629 3.72381 0
M  V30 13484 N 1263.78 -1.38018 0.760839 0
M  V30 13485 C 1264.72 -2.30387 0.13796 0
M  V30 13486 C 1265.69 -1.50548 -0.701754 0
M  V30 13487 O 1266.88 -1.79154 -0.656381 0
M  V30 13488 C 1264.02 -3.36993 -0.743642 0
M  V30 13489 C 1263.13 -4.31856 0.111489 0
M  V30 13490 C 1262.27 -5.25534 -0.773796 0
M  V30 13491 C 1261.3 -6.12042 0.0845311 0
M  V30 13492 N 1260.44 -6.97995 -0.758118 0
M  V30 13493 H 1265.28 -2.83077 0.931212 0
M  V30 13494 H 1262.82 -1.39361 0.470833 0
M  V30 13495 H 1264.78 -3.97417 -1.26948 0
M  V30 13496 H 1263.41 -2.85695 -1.50261 0
M  V30 13497 H 1262.46 -3.72832 0.755031 0
M  V30 13498 H 1263.77 -4.92758 0.774042 0
M  V30 13499 H 1262.92 -5.9111 -1.36653 0
M  V30 13500 H 1261.66 -4.65017 -1.47006 0
M  V30 13501 H 1260.67 -5.45455 0.689883 0
M  V30 13502 H 1261.89 -6.74629 0.777966 0
M  V30 13503 H 1259.84 -6.40018 -1.4392 0
M  V30 13504 H 1259.76 -7.55846 -0.152623 0
M  V30 13505 H 1261.02 -7.67973 -1.33559 0
M  V30 13506 N 1265.25 -0.510493 -1.49103 0
M  V30 13507 C 1266.2 0.262848 -2.29298 0
M  V30 13508 C 1267.17 0.951714 -1.36131 0
M  V30 13509 O 1268.36 0.956534 -1.65091 0
M  V30 13510 C 1265.5 1.31565 -3.19037 0
M  V30 13511 C 1264.61 0.637598 -4.27269 0
M  V30 13512 C 1263.74 1.67165 -5.04212 0
M  V30 13513 C 1262.78 0.975992 -6.04269 0
M  V30 13514 N 1261.92 1.95468 -6.74342 0
M  V30 13515 H 1266.76 -0.427246 -2.94921 0
M  V30 13516 H 1264.3 -0.222538 -1.45407 0
M  V30 13517 H 1266.25 1.93813 -3.69449 0
M  V30 13518 H 1264.88 1.97438 -2.55379 0
M  V30 13519 H 1263.94 -0.0983863 -3.80273 0
M  V30 13520 H 1265.25 0.0904435 -4.98718 0
M  V30 13521 H 1264.4 2.36893 -5.5854 0
M  V30 13522 H 1263.14 2.25267 -4.32557 0
M  V30 13523 H 1262.15 0.264534 -5.49163 0
M  V30 13524 H 1263.37 0.40134 -6.77913 0
M  V30 13525 H 1261.32 2.52515 -6.05452 0
M  V30 13526 H 1261.23 1.45845 -7.41799 0
M  V30 13527 H 1262.5 2.64455 -7.33269 0
M  V30 13528 N 1266.73 1.55688 -0.24474 0
M  V30 13529 C 1267.68 2.22682 0.67198 0
M  V30 13530 C 1268.67 1.21369 1.18178 0
M  V30 13531 O 1269.88 1.39387 1.13892 0
M  V30 13532 H 1266.25 0.714279 0.235181 0
M  V30 13533 H 1268.23 2.98282 0.0837704 0
M  V30 13534 C 1266.97 2.93835 1.85893 0
M  V30 13535 H 1266.3 3.71565 1.4758 0
M  V30 13536 H 1267.74 3.44077 2.47764 0
M  V30 13537 C 1266.2 1.97589 2.72874 0
M  V30 13538 O 1266.73 1.50758 3.72337 0
M  V30 13539 N 1264.93 1.64737 2.39395 0
M  V30 13540 H 1264.48 2.03015 1.58564 0
M  V30 13541 H 1264.44 1.00605 2.97869 0
M  V30 13542 N 1268.21 -0.0283989 1.57574 0
M  V30 13543 C 1269.46 -0.718121 1.88483 0
M  V30 13544 C 1269.77 -1.76485 0.843345 0
M  V30 13545 O 1270.98 -2.50721 1.04169 0
M  V30 13546 C 1269.43 -1.32832 3.3449 0
M  V30 13547 C 1269.04 -0.317905 4.46871 0
M  V30 13548 C 1270.79 -1.99788 3.74546 0
M  V30 13549 C 1268.69 -0.936489 5.83938 0
M  V30 13550 H 1267.62 -0.271969 0.703242 0
M  V30 13551 H 1270.27 0.0274862 1.83479 0
M  V30 13552 H 1268.66 -2.12366 3.34241 0
M  V30 13553 H 1269.83 0.450767 4.5859 0
M  V30 13554 H 1268.14 0.249605 4.15651 0
M  V30 13555 H 1270.74 -2.46923 4.74271 0
M  V30 13556 H 1271.08 -2.81633 3.06575 0
M  V30 13557 H 1271.62 -1.27029 3.76973 0
M  V30 13558 H 1268.36 -0.15744 6.55311 0
M  V30 13559 H 1267.88 -1.67499 5.75938 0
M  V30 13560 H 1269.56 -1.44363 6.30689 0
M  V30 13561 N 1269.69 -1.54705 -0.300681 0
M  V30 13562 C 1270.94 -1.73658 -1.0338 0
M  V30 13563 C 1271.26 -0.525447 -1.87787 0
M  V30 13564 O 1270.53 0.460269 -1.90416 0
M  V30 13565 H 1269.11 -0.640338 -0.384677 0
M  V30 13566 H 1271.77 -1.92059 -0.331588 0
M  V30 13567 H 1270.86 -2.62595 -1.68672 0
M  V30 13568 N 1271.17 0.563888 -1.47167 0
M  V30 13569 C 1272.4 1.34498 -1.56825 0
M  V30 13570 C 1272.8 1.87974 -0.215011 0
M  V30 13571 O 1272.15 1.65323 0.80087 0
M  V30 13572 C 1272.21 2.55602 -2.528 0
M  V30 13573 C 1271.87 2.23459 -3.98642 0
M  V30 13574 C 1272.87 1.81155 -4.87318 0
M  V30 13575 C 1270.56 2.35024 -4.43925 0
M  V30 13576 C 1272.55 1.50835 -6.19296 0
M  V30 13577 C 1270.24 2.04317 -5.75932 0
M  V30 13578 C 1271.23 1.6229 -6.63439 0
M  V30 13579 O 1270.92 1.31969 -7.92994 0
M  V30 13580 H 1270.65 0.416551 -0.532411 0
M  V30 13581 H 1273.21 0.690611 -1.93442 0
M  V30 13582 H 1271.44 3.23907 -2.11237 0
M  V30 13583 H 1273.13 3.17677 -2.52659 0
M  V30 13584 H 1273.89 1.71719 -4.53583 0
M  V30 13585 H 1269.77 2.66696 -3.76024 0
M  V30 13586 H 1273.32 1.17958 -6.87555 0
M  V30 13587 H 1269.21 2.13383 -6.09211 0
M  V30 13588 H 1269.98 1.45656 -8.05436 0
M  V30 13589 N 1272.64 1.35187 0.810078 0
M  V30 13590 C 1273.89 1.28264 1.56699 0
M  V30 13591 C 1274.22 -0.143906 1.93967 0
M  V30 13592 O 1273.47 -1.10832 1.61291 0
M  V30 13593 C 1273.77 2.13135 2.86894 0
M  V30 13594 C 1273.44 3.61974 2.6886 0
M  V30 13595 C 1272.1 4.02545 2.63649 0
M  V30 13596 C 1274.45 4.5643 2.51636 0
M  V30 13597 C 1271.78 5.35745 2.39154 0
M  V30 13598 C 1274.13 5.89824 2.2867 0
M  V30 13599 C 1272.8 6.29544 2.2188 0
M  V30 13600 H 1272.07 0.469353 0.573401 0
M  V30 13601 H 1274.71 1.67051 0.936282 0
M  V30 13602 H 1273.02 1.67218 3.54324 0
M  V30 13603 H 1274.72 2.05117 3.44569 0
M  V30 13604 H 1271.31 3.29777 2.73761 0
M  V30 13605 H 1275.49 4.25974 2.54677 0
M  V30 13606 H 1270.75 5.65524 2.32363 0
M  V30 13607 H 1274.92 6.62597 2.14333 0
M  V30 13608 H 1272.55 7.32689 2.0266 0
M  V30 13609 N 1274.12 -1.03182 1.19127 0
M  V30 13610 C 1275.37 -1.76533 0.992093 0
M  V30 13611 C 1275.7 -1.88549 -0.477429 0
M  V30 13612 O 1274.95 -1.39675 -1.37074 0
M  V30 13613 C 1275.25 -3.19452 1.60267 0
M  V30 13614 C 1274.92 -3.27449 3.09981 0
M  V30 13615 C 1273.58 -3.29338 3.50841 0
M  V30 13616 C 1275.93 -3.26833 4.05992 0
M  V30 13617 C 1273.26 -3.28265 4.86271 0
M  V30 13618 C 1275.61 -3.27299 5.41348 0
M  V30 13619 C 1274.28 -3.27485 5.81644 0
M  V30 13620 H 1273.55 -0.645979 0.363033 0
M  V30 13621 H 1276.19 -1.21127 1.48326 0
M  V30 13622 H 1274.5 -3.77917 1.03372 0
M  V30 13623 H 1276.19 -3.74869 1.42388 0
M  V30 13624 H 1272.78 -3.26704 2.77421 0
M  V30 13625 H 1276.97 -3.24556 3.75469 0
M  V30 13626 H 1272.22 -3.26731 5.16775 0
M  V30 13627 H 1276.4 -3.25773 6.15504 0
M  V30 13628 H 1274.03 -3.26407 6.86558 0
M  V30 13629 N 1275.6 -0.99472 -1.22242 0
M  V30 13630 C 1276.85 -0.671602 -1.91039 0
M  V30 13631 C 1277.18 0.796543 -1.77441 0
M  V30 13632 O 1276.43 1.59179 -1.13845 0
M  V30 13633 C 1276.73 -1.02561 -3.42368 0
M  V30 13634 C 1276.4 -2.48632 -3.76155 0
M  V30 13635 C 1275.06 -2.88549 -3.85088 0
M  V30 13636 C 1277.41 -3.43302 -3.92165 0
M  V30 13637 C 1274.74 -4.22121 -4.07469 0
M  V30 13638 C 1277.09 -4.76534 -4.1605 0
M  V30 13639 C 1275.75 -5.1619 -4.23207 0
M  V30 13640 H 1275.02 -0.245756 -0.69906 0
M  V30 13641 H 1277.67 -1.25125 -1.44969 0
M  V30 13642 H 1275.98 -0.364073 -3.90105 0
M  V30 13643 H 1277.67 -0.753612 -3.93855 0
M  V30 13644 H 1274.26 -2.16693 -3.69787 0
M  V30 13645 H 1278.45 -3.13633 -3.8464 0
M  V30 13646 H 1273.7 -4.52431 -4.11238 0
M  V30 13647 H 1277.88 -5.49835 -4.27381 0
M  V30 13648 H 1275.5 -6.19708 -4.40303 0
M  V30 13649 N 1277.08 1.37613 -0.768148 0
M  V30 13650 C 1278.03 2.30311 -0.150176 0
M  V30 13651 C 1279 1.50918 0.69376 0
M  V30 13652 O 1280.18 1.795 0.64687 0
M  V30 13653 C 1277.32 3.37382 0.72576 0
M  V30 13654 C 1276.43 4.31791 -0.13439 0
M  V30 13655 C 1275.57 5.25937 0.745915 0
M  V30 13656 C 1274.61 6.11988 -0.116988 0
M  V30 13657 N 1273.74 6.98387 0.721091 0
M  V30 13658 H 1278.58 2.82579 -0.946212 0
M  V30 13659 H 1276.12 1.3911 -0.478217 0
M  V30 13660 H 1278.08 3.98084 1.24839 0
M  V30 13661 H 1276.71 2.86488 1.48743 0
M  V30 13662 H 1275.76 3.72426 -0.774793 0
M  V30 13663 H 1277.07 4.9234 -0.800163 0
M  V30 13664 H 1276.23 5.91826 1.33516 0
M  V30 13665 H 1274.97 4.6579 1.44538 0
M  V30 13666 H 1273.97 5.45081 -0.7188 0
M  V30 13667 H 1275.2 6.74207 -0.813732 0
M  V30 13668 H 1273.14 6.40772 1.40524 0
M  V30 13669 H 1273.06 7.55916 0.112536 0
M  V30 13670 H 1274.33 7.6867 1.29485 0
M  V30 13671 N 1278.56 0.518393 1.4883 0
M  V30 13672 C 1279.5 -0.250684 2.29435 0
M  V30 13673 C 1280.47 -0.944481 1.36634 0
M  V30 13674 O 1281.66 -0.947766 1.65596 0
M  V30 13675 C 1278.8 -1.29871 3.1973 0
M  V30 13676 C 1277.91 -0.61493 4.27601 0
M  V30 13677 C 1277.05 -1.64489 5.05091 0
M  V30 13678 C 1276.09 -0.943932 6.04778 0
M  V30 13679 N 1275.22 -1.91889 6.75369 0
M  V30 13680 H 1280.06 0.44288 2.94691 0
M  V30 13681 H 1277.6 0.230246 1.45287 0
M  V30 13682 H 1279.56 -1.91851 3.70471 0
M  V30 13683 H 1278.19 -1.96081 2.56422 0
M  V30 13684 H 1277.24 0.118552 3.80215 0
M  V30 13685 H 1278.55 -0.063994 4.98759 0
M  V30 13686 H 1277.71 -2.33928 5.59788 0
M  V30 13687 H 1276.44 -2.2297 4.33746 0
M  V30 13688 H 1275.45 -0.235407 5.49296 0
M  V30 13689 H 1276.67 -0.365383 6.78116 0
M  V30 13690 H 1274.62 -2.493 6.06783 0
M  V30 13691 H 1274.54 -1.41909 7.42562 0
M  V30 13692 H 1275.81 -2.60563 7.34661 0
M  V30 13693 N 1280.03 -1.55556 0.252993 0
M  V30 13694 C 1281.26 -2.03945 -0.376965 0
M  V30 13695 C 1281.68 -1.13089 -1.50308 0
M  V30 13696 O 1281.04 -0.125039 -1.80868 0
M  V30 13697 C 1281.09 -3.50284 -0.856363 0
M  V30 13698 O 1280.19 -3.62551 -1.96546 0
M  V30 13699 H 1279.54 -0.659002 -0.081317 0
M  V30 13700 H 1282.07 -2.01024 0.380831 0
M  V30 13701 H 1282.08 -3.91222 -1.15798 0
M  V30 13702 H 1280.75 -4.15887 -0.0323302 0
M  V30 13703 H 1279.33 -3.33511 -1.66808 0
M  V30 13704 N 1281.51 0.0200419 -1.57587 0
M  V30 13705 C 1282.74 0.724241 -1.94344 0
M  V30 13706 C 1283.16 1.67612 -0.853688 0
M  V30 13707 O 1282.52 1.80303 0.189873 0
M  V30 13708 C 1282.57 1.44967 -3.30177 0
M  V30 13709 O 1281.67 2.56326 -3.23064 0
M  V30 13710 H 1281.01 0.194142 -0.634984 0
M  V30 13711 H 1283.54 -0.0271756 -2.04582 0
M  V30 13712 H 1283.55 1.81758 -3.65278 0
M  V30 13713 H 1282.23 0.75161 -4.09052 0
M  V30 13714 H 1280.81 2.22011 -2.99609 0
M  V30 13715 N 1282.99 1.54862 0.292472 0
M  V30 13716 C 1284.24 1.73756 1.02429 0
M  V30 13717 C 1284.55 0.535164 1.88137 0
M  V30 13718 O 1285.76 0.606092 2.64648 0
M  V30 13719 C 1284.21 3.0745 1.8709 0
M  V30 13720 C 1283.82 4.35195 1.06343 0
M  V30 13721 C 1285.57 3.357 2.59819 0
M  V30 13722 C 1283.47 5.59936 1.9033 0
M  V30 13723 H 1282.4 0.647617 0.386145 0
M  V30 13724 H 1285.05 1.81338 0.28086 0
M  V30 13725 H 1283.44 2.93855 2.65453 0
M  V30 13726 H 1284.61 4.5965 0.325335 0
M  V30 13727 H 1282.93 4.13944 0.451574 0
M  V30 13728 H 1285.52 4.26099 3.23023 0
M  V30 13729 H 1285.87 2.54956 3.29094 0
M  V30 13730 H 1286.4 3.50304 1.88499 0
M  V30 13731 H 1283.14 6.43372 1.25509 0
M  V30 13732 H 1282.66 5.39654 2.61789 0
M  V30 13733 H 1284.34 5.97512 2.48171 0
M  V30 13734 N 1284.47 -0.556076 1.47464 0
M  V30 13735 C 1285.69 -1.3434 1.58011 0
M  V30 13736 C 1286.12 -1.86674 0.231138 0
M  V30 13737 O 1285.48 -1.63029 -0.793174 0
M  V30 13738 C 1285.52 -2.48844 2.60977 0
M  V30 13739 O 1284.63 -3.51108 2.16326 0
M  V30 13740 H 1283.97 -0.398986 0.53076 0
M  V30 13741 H 1286.5 -0.671898 1.93253 0
M  V30 13742 H 1286.51 -2.95398 2.81432 0
M  V30 13743 H 1285.18 -2.10109 3.58925 0
M  V30 13744 H 1283.76 -3.10852 2.05975 0
M  V30 13745 N 1285.95 -1.35615 -0.802897 0
M  V30 13746 C 1286.88 -1.23192 -1.92091 0
M  V30 13747 C 1287.86 -0.118995 -1.62164 0
M  V30 13748 O 1289.04 -0.287743 -1.86291 0
M  V30 13749 C 1286.17 -0.897699 -3.26587 0
M  V30 13750 C 1285.22 -2.02319 -3.75459 0
M  V30 13751 S 1286.05 -3.63938 -3.92822 0
M  V30 13752 C 1287.2 -3.32601 -5.30215 0
M  V30 13753 H 1287.44 -2.17825 -2.02335 0
M  V30 13754 H 1284.97 -1.20873 -0.960675 0
M  V30 13755 H 1286.93 -0.711674 -4.04284 0
M  V30 13756 H 1285.59 0.0306305 -3.14085 0
M  V30 13757 H 1284.78 -1.74357 -4.7288 0
M  V30 13758 H 1284.38 -2.16774 -3.04771 0
M  V30 13759 H 1286.68 -2.85658 -6.14334 0
M  V30 13760 H 1287.62 -4.29236 -5.63172 0
M  V30 13761 H 1288.03 -2.68279 -4.96676 0
M  V30 13762 N 1287.43 1.02549 -1.19673 0
M  V30 13763 C 1288.65 1.8016 -1.02748 0
M  V30 13764 C 1289.08 1.83372 0.419105 0
M  V30 13765 O 1288.43 1.26222 1.30144 0
M  V30 13766 C 1288.48 3.22907 -1.60509 0
M  V30 13767 O 1287.59 4.03823 -0.836702 0
M  V30 13768 H 1286.93 0.556027 -0.362946 0
M  V30 13769 H 1289.46 1.29047 -1.5877 0
M  V30 13770 H 1289.47 3.73646 -1.63868 0
M  V30 13771 H 1288.14 3.19885 -2.65794 0
M  V30 13772 H 1286.72 3.6245 -0.876626 0
M  V30 13773 N 1288.9 1.00119 1.21713 0
M  V30 13774 C 1289.85 0.558388 2.23943 0
M  V30 13775 C 1290.82 -0.413576 1.60869 0
M  V30 13776 O 1292.01 -0.316478 1.88157 0
M  V30 13777 C 1289.15 -0.112618 3.44916 0
M  V30 13778 C 1288.26 0.902071 4.22477 0
M  V30 13779 C 1287.39 0.203722 5.30809 0
M  V30 13780 C 1286.43 1.20622 6.00097 0
M  V30 13781 N 1285.57 0.535607 7.00054 0
M  V30 13782 H 1290.41 1.43486 2.61182 0
M  V30 13783 H 1287.95 0.718572 1.28355 0
M  V30 13784 H 1289.9 -0.51865 4.13964 0
M  V30 13785 H 1288.53 -0.952827 3.08417 0
M  V30 13786 H 1287.59 1.42637 3.52645 0
M  V30 13787 H 1288.9 1.66513 4.70186 0
M  V30 13788 H 1288.05 -0.258614 6.06149 0
M  V30 13789 H 1286.79 -0.591773 4.84096 0
M  V30 13790 H 1285.8 1.6791 5.23532 0
M  V30 13791 H 1287.02 2.00273 6.48897 0
M  V30 13792 H 1284.97 -0.2403 6.5556 0
M  V30 13793 H 1284.88 1.23698 7.45812 0
M  V30 13794 H 1286.15 0.0963489 7.7944 0
M  V30 13795 N 1290.38 -1.37203 0.775435 0
M  V30 13796 C 1291.34 -2.28566 0.170406 0
M  V30 13797 C 1292.34 -1.48195 -0.624085 0
M  V30 13798 O 1293.53 -1.68364 -0.447132 0
M  V30 13799 C 1290.67 -3.32186 -0.765829 0
M  V30 13800 H 1291.86 -2.8358 0.975824 0
M  V30 13801 H 1289.41 -1.46531 0.543895 0
M  V30 13802 H 1290.15 -2.82303 -1.59611 0
M  V30 13803 H 1289.93 -3.91598 -0.198251 0
M  V30 13804 H 1291.42 -4.0045 -1.18446 0
M  V30 13805 N 1291.86 -0.526279 -1.48553 0
M  V30 13806 C 1292.79 0.227364 -2.3239 0
M  V30 13807 C 1293.77 0.93862 -1.41859 0
M  V30 13808 O 1294.96 0.925119 -1.70749 0
M  V30 13809 C 1292.09 1.277 -3.22971 0
M  V30 13810 C 1291.04 0.684107 -4.22497 0
M  V30 13811 C 1290.37 1.83612 -5.02186 0
M  V30 13812 C 1291.67 -0.341723 -5.21181 0
M  V30 13813 H 1293.36 -0.472486 -2.95648 0
M  V30 13814 H 1290.91 -0.228669 -1.42173 0
M  V30 13815 H 1292.86 1.81215 -3.80446 0
M  V30 13816 H 1291.58 2.00638 -2.57705 0
M  V30 13817 H 1290.24 0.170505 -3.66203 0
M  V30 13818 H 1289.89 2.55379 -4.33348 0
M  V30 13819 H 1289.59 1.44536 -5.69547 0
M  V30 13820 H 1291.11 2.37513 -5.62512 0
M  V30 13821 H 1292.53 0.106207 -5.73202 0
M  V30 13822 H 1290.92 -0.649673 -5.96573 0
M  V30 13823 H 1291.99 -1.2488 -4.68543 0
M  V30 13824 N 1293.34 1.5542 -0.261239 0
M  V30 13825 C 1294.27 2.19334 0.665214 0
M  V30 13826 C 1295.28 1.17388 1.128 0
M  V30 13827 O 1296.47 1.44183 1.0523 0
M  V30 13828 C 1293.57 2.79425 1.91768 0
M  V30 13829 C 1292.74 4.06929 1.60399 0
M  V30 13830 C 1291.8 4.51199 2.70751 0
M  V30 13831 O 1290.83 5.17272 2.37526 0
M  V30 13832 N 1292.03 4.20179 4.00537 0
M  V30 13833 H 1294.8 2.99467 0.118262 0
M  V30 13834 H 1292.36 1.61693 -0.0817727 0
M  V30 13835 H 1294.35 3.05992 2.64861 0
M  V30 13836 H 1292.92 2.03366 2.37405 0
M  V30 13837 H 1292.14 3.87798 0.707559 0
M  V30 13838 H 1293.43 4.9003 1.36924 0
M  V30 13839 H 1292.83 3.67164 4.30357 0
M  V30 13840 H 1291.38 4.51549 4.7005 0
M  V30 13841 N 1294.82 -0.0116844 1.57596 0
M  V30 13842 C 1295.76 -1.00684 2.07681 0
M  V30 13843 C 1296.73 -1.34858 0.969666 0
M  V30 13844 O 1297.92 -1.44896 1.24136 0
M  V30 13845 C 1295.06 -2.29729 2.57524 0
M  V30 13846 C 1294.17 -2.0156 3.82096 0
M  V30 13847 C 1293.31 -3.24601 4.20485 0
M  V30 13848 C 1292.34 -2.92066 5.37925 0
M  V30 13849 N 1291.48 -4.0761 5.71663 0
M  V30 13850 H 1296.32 -0.572787 2.92443 0
M  V30 13851 H 1293.86 -0.271184 1.44579 0
M  V30 13852 H 1295.82 -3.05152 2.84496 0
M  V30 13853 H 1294.45 -2.70824 1.75653 0
M  V30 13854 H 1293.5 -1.16556 3.62103 0
M  V30 13855 H 1294.81 -1.73572 4.67626 0
M  V30 13856 H 1293.96 -4.08379 4.48677 0
M  V30 13857 H 1292.7 -3.55718 3.3364 0
M  V30 13858 H 1291.71 -2.06693 5.09468 0
M  V30 13859 H 1292.93 -2.62209 6.26437 0
M  V30 13860 H 1290.88 -4.38645 4.87777 0
M  V30 13861 H 1290.8 -3.83105 6.51741 0
M  V30 13862 H 1292.06 -4.92211 6.04441 0
M  V30 13863 N 1296.29 -1.55015 -0.284256 0
M  V30 13864 C 1297.54 -1.74744 -1.01532 0
M  V30 13865 C 1297.86 -0.545334 -1.87219 0
M  V30 13866 O 1297.13 0.440046 -1.90894 0
M  V30 13867 H 1295.71 -0.644382 -0.377864 0
M  V30 13868 H 1298.37 -1.92399 -0.311199 0
M  V30 13869 H 1297.47 -2.64369 -1.65878 0
M  V30 13870 N 1297.77 0.548248 -1.47757 0
M  V30 13871 C 1298.73 1.63666 -1.60456 0
M  V30 13872 C 1299.73 1.53499 -0.479028 0
M  V30 13873 O 1300.92 1.57497 -0.744342 0
M  V30 13874 C 1298.06 3.03239 -1.55754 0
M  V30 13875 H 1299.25 1.53752 -2.57488 0
M  V30 13876 H 1296.8 0.768881 -1.36081 0
M  V30 13877 H 1297.54 3.18677 -0.601303 0
M  V30 13878 H 1297.32 3.12027 -2.37448 0
M  V30 13879 H 1298.81 3.82406 -1.67797 0
M  V30 13880 N 1299.25 1.36039 0.795694 0
M  V30 13881 C 1300.5 1.3112 1.55497 0
M  V30 13882 C 1300.85 -0.110471 1.92083 0
M  V30 13883 O 1300.14 -1.06352 1.59373 0
M  V30 13884 C 1300.34 2.16166 2.84617 0
M  V30 13885 C 1300.17 3.66459 2.60649 0
M  V30 13886 C 1298.94 4.35658 2.55989 0
M  V30 13887 C 1301.13 4.59866 2.30277 0
M  V30 13888 N 1299.12 5.71632 2.23852 0
M  V30 13889 C 1300.49 5.84042 2.08074 0
M  V30 13890 C 1302.54 4.48496 2.16231 0
M  V30 13891 C 1301.25 6.98125 1.73246 0
M  V30 13892 C 1303.27 5.62439 1.82801 0
M  V30 13893 C 1302.63 6.8565 1.61441 0
M  V30 13894 H 1298.73 0.53507 0.570284 0
M  V30 13895 H 1301.32 1.71029 0.930441 0
M  V30 13896 H 1299.49 1.78511 3.44947 0
M  V30 13897 H 1301.22 2.02684 3.50288 0
M  V30 13898 H 1297.97 3.8839 2.71017 0
M  V30 13899 H 1298.4 6.43428 2.10547 0
M  V30 13900 H 1303.04 3.53831 2.31437 0
M  V30 13901 H 1300.76 7.92746 1.56777 0
M  V30 13902 H 1304.34 5.556 1.72626 0
M  V30 13903 H 1303.22 7.72325 1.35953 0
M  V30 13904 N 1300.73 -1.01913 1.20215 0
M  V30 13905 C 1301.68 -2.104 0.948708 0
M  V30 13906 C 1302.65 -1.65665 -0.120139 0
M  V30 13907 O 1303.83 -1.90785 0.0240547 0
M  V30 13908 C 1300.97 -3.41398 0.504132 0
M  V30 13909 C 1300.08 -3.99625 1.64085 0
M  V30 13910 C 1299.22 -5.18673 1.14683 0
M  V30 13911 C 1298.26 -5.68977 2.2568 0
M  V30 13912 N 1297.39 -6.79289 1.77514 0
M  V30 13913 H 1302.23 -2.31415 1.87753 0
M  V30 13914 H 1299.77 -1.13487 0.935901 0
M  V30 13915 H 1301.73 -4.16578 0.22771 0
M  V30 13916 H 1300.36 -3.20463 -0.387689 0
M  V30 13917 H 1299.41 -3.21565 2.03225 0
M  V30 13918 H 1300.72 -4.32965 2.47674 0
M  V30 13919 H 1299.88 -6.01048 0.826223 0
M  V30 13920 H 1298.62 -4.86891 0.280797 0
M  V30 13921 H 1297.62 -4.85208 2.5856 0
M  V30 13922 H 1298.85 -6.02794 3.12755 0
M  V30 13923 H 1296.79 -6.49341 0.932338 0
M  V30 13924 H 1296.71 -7.11808 2.54686 0
M  V30 13925 H 1297.98 -7.65235 1.48446 0
M  V30 13926 N 1302.21 -1.00763 -1.2118 0
M  V30 13927 C 1303.48 -0.607236 -1.85935 0
M  V30 13928 C 1303.86 0.915048 -1.90237 0
M  V30 13929 O 1303.21 1.80308 -1.40361 0
M  V30 13930 C 1303.42 -1.24466 -3.26051 0
M  V30 13931 C 1304.77 -1.35443 -4.02418 0
M  V30 13932 O 1305.79 -1.20018 -3.35372 0
M  V30 13933 O 1304.65 -1.60282 -5.22467 0
M  V30 13934 H 1301.75 -0.208338 -0.800328 0
M  V30 13935 H 1304.29 -1.10444 -1.28842 0
M  V30 13936 H 1303.06 -2.28524 -3.17635 0
M  V30 13937 H 1302.69 -0.733966 -3.90767 0
M  V30 13938 N 1303.68 1.3679 -0.7827 0
M  V30 13939 C 1304.93 1.98664 -0.348634 0
M  V30 13940 C 1305.25 1.62827 1.08382 0
M  V30 13941 O 1306.45 2.17886 1.61982 0
M  V30 13942 C 1304.91 3.55319 -0.572392 0
M  V30 13943 C 1304.52 4.00086 -2.01582 0
M  V30 13944 C 1306.26 4.24017 -0.202496 0
M  V30 13945 C 1304.17 5.49493 -2.18659 0
M  V30 13946 H 1303.1 0.743294 -0.126612 0
M  V30 13947 H 1305.75 1.56177 -0.963383 0
M  V30 13948 H 1304.13 3.95842 0.111973 0
M  V30 13949 H 1305.3 3.7078 -2.73603 0
M  V30 13950 H 1303.62 3.44205 -2.34333 0
M  V30 13951 H 1306.22 5.3381 -0.308459 0
M  V30 13952 H 1306.56 4.07559 0.84859 0
M  V30 13953 H 1307.09 3.88834 -0.839834 0
M  V30 13954 H 1303.83 5.7089 -3.22126 0
M  V30 13955 H 1303.35 5.80447 -1.51134 0
M  V30 13956 H 1305.03 6.15621 -1.99048 0
M  V30 13957 N 1305.16 0.53415 1.48272 0
M  V30 13958 C 1306.11 -0.239672 2.31362 0
M  V30 13959 C 1307.1 -0.931501 1.4149 0
M  V30 13960 O 1308.31 -0.855411 1.58375 0
M  V30 13961 H 1304.69 -0.09616 0.745827 0
M  V30 13962 H 1306.66 0.480638 2.94504 0
M  V30 13963 C 1305.41 -1.27102 3.23636 0
M  V30 13964 H 1304.73 -0.748082 3.92739 0
M  V30 13965 H 1306.17 -1.78379 3.84652 0
M  V30 13966 C 1304.63 -2.30683 2.45534 0
M  V30 13967 O 1305.16 -3.37197 2.18314 0
M  V30 13968 N 1303.36 -2.04006 2.06954 0
M  V30 13969 H 1302.91 -1.17403 2.29291 0
M  V30 13970 H 1302.87 -2.73531 1.5501 0
M  V30 13971 N 1306.64 -1.55279 0.269478 0
M  V30 13972 C 1307.55 -2.25965 -0.63065 0
M  V30 13973 C 1308.57 -1.28357 -1.17476 0
M  V30 13974 O 1309.74 -1.61281 -1.20625 0
M  V30 13975 C 1306.81 -2.96263 -1.80081 0
M  V30 13976 C 1305.87 -4.09336 -1.29394 0
M  V30 13977 C 1305.1 -4.76272 -2.40833 0
M  V30 13978 O 1305.32 -4.42389 -3.60066 0
M  V30 13979 O 1304.26 -5.64334 -2.09309 0
M  V30 13980 H 1308.08 -3.03644 -0.0582069 0
M  V30 13981 H 1305.67 -1.49354 0.0370966 0
M  V30 13982 H 1307.55 -3.40461 -2.48322 0
M  V30 13983 H 1306.23 -2.21505 -2.36045 0
M  V30 13984 H 1305.13 -3.69605 -0.578154 0
M  V30 13985 H 1306.47 -4.85978 -0.780117 0
M  V30 13986 N 1308.12 0.00332656 -1.576 0
M  V30 13987 C 1309.37 0.687508 -1.90047 0
M  V30 13988 C 1309.69 1.74497 -0.870388 0
M  V30 13989 O 1308.96 1.95681 0.0926544 0
M  V30 13990 H 1307.54 0.256924 -0.701426 0
M  V30 13991 H 1310.2 -0.0368129 -1.94865 0
M  V30 13992 H 1309.3 1.16086 -2.89707 0
M  V30 13993 N 1309.6 1.55164 0.276031 0
M  V30 13994 C 1310.53 1.84243 1.36335 0
M  V30 13995 C 1311.54 0.726745 1.45679 0
M  V30 13996 O 1312.73 1.00456 1.4755 0
M  V30 13997 C 1309.83 1.98768 2.7449 0
M  V30 13998 C 1309 3.294 2.87775 0
M  V30 13999 C 1308.06 3.34029 4.06585 0
M  V30 14000 O 1307.09 4.07423 3.97486 0
M  V30 14001 N 1308.29 2.61213 5.18409 0
M  V30 14002 H 1311.06 2.78092 1.11736 0
M  V30 14003 H 1308.62 1.55044 0.466143 0
M  V30 14004 H 1310.61 1.99238 3.52259 0
M  V30 14005 H 1309.18 1.11799 2.91924 0
M  V30 14006 H 1308.4 3.41494 1.96914 0
M  V30 14007 H 1309.69 4.15558 2.93579 0
M  V30 14008 H 1309.08 2.01261 5.28687 0
M  V30 14009 H 1307.64 2.67409 5.9442 0
M  V30 14010 N 1311.07 -0.540404 1.48045 0
M  V30 14011 C 1312.3 -1.32656 1.59427 0
M  V30 14012 C 1312.72 -1.86419 0.250924 0
M  V30 14013 O 1312.08 -1.63861 -0.775838 0
M  V30 14014 C 1312.13 -2.46062 2.63602 0
M  V30 14015 O 1311.23 -3.48794 2.20038 0
M  V30 14016 H 1310.58 -0.393334 0.534962 0
M  V30 14017 H 1313.11 -0.651363 1.93955 0
M  V30 14018 H 1313.12 -2.92396 2.84549 0
M  V30 14019 H 1311.79 -2.06291 3.61133 0
M  V30 14020 H 1310.37 -3.0865 2.0926 0
M  V30 14021 N 1312.55 -1.36459 -0.788468 0
M  V30 14022 C 1313.83 -1.21289 -1.53455 0
M  V30 14023 C 1314.21 0.200549 -2.10145 0
M  V30 14024 O 1313.56 1.20629 -1.94064 0
M  V30 14025 C 1313.77 -2.29562 -2.62873 0
M  V30 14026 C 1315.12 -2.66277 -3.30729 0
M  V30 14027 O 1316.14 -2.28612 -2.73157 0
M  V30 14028 O 1315 -3.31106 -4.34777 0
M  V30 14029 H 1312.09 -0.472306 -0.678864 0
M  V30 14030 H 1314.64 -1.48192 -0.826869 0
M  V30 14031 H 1313.41 -3.24286 -2.18984 0
M  V30 14032 H 1313.03 -2.0403 -3.41259 0
M  V30 14033 N 1314.03 1.01274 -1.20754 0
M  V30 14034 C 1314.98 2.09894 -0.959852 0
M  V30 14035 C 1315.95 1.65726 0.111351 0
M  V30 14036 O 1317.13 1.90769 -0.0341721 0
M  V30 14037 C 1314.27 3.41126 -0.52223 0
M  V30 14038 C 1313.39 3.98749 -1.66202 0
M  V30 14039 C 1312.52 5.18057 -1.17432 0
M  V30 14040 C 1311.56 5.67772 -2.28694 0
M  V30 14041 N 1310.7 6.78338 -1.81114 0
M  V30 14042 H 1315.54 2.30416 -1.88977 0
M  V30 14043 H 1313.07 1.12989 -0.941906 0
M  V30 14044 H 1315.03 4.16451 -0.249799 0
M  V30 14045 H 1313.66 3.20665 0.370688 0
M  V30 14046 H 1312.71 3.20483 -2.04927 0
M  V30 14047 H 1314.03 4.31646 -2.49967 0
M  V30 14048 H 1313.18 6.00601 -0.858086 0
M  V30 14049 H 1311.92 4.86735 -0.306614 0
M  V30 14050 H 1310.92 4.8383 -2.61129 0
M  V30 14051 H 1312.15 6.01127 -3.15948 0
M  V30 14052 H 1310.09 6.48837 -0.966761 0
M  V30 14053 H 1310.01 7.10448 -2.58457 0
M  V30 14054 H 1311.28 7.64437 -1.52502 0
M  V30 14055 N 1315.51 1.01404 1.20644 0
M  V30 14056 C 1316.42 0.591693 2.27016 0
M  V30 14057 C 1317.44 -0.36958 1.7003 0
M  V30 14058 O 1318.61 -0.231165 2.00069 0
M  V30 14059 C 1315.68 -0.0659827 3.46637 0
M  V30 14060 C 1314.74 0.940911 4.18862 0
M  V30 14061 C 1313.97 0.314526 5.32772 0
M  V30 14062 O 1314.19 -0.886404 5.63471 0
M  V30 14063 O 1313.13 1.02998 5.93022 0
M  V30 14064 H 1316.95 1.4772 2.65353 0
M  V30 14065 H 1314.54 0.783399 1.27213 0
M  V30 14066 H 1316.42 -0.433412 4.19165 0
M  V30 14067 H 1315.1 -0.925729 3.10181 0
M  V30 14068 H 1314 1.35966 3.48517 0
M  V30 14069 H 1315.34 1.77054 4.59252 0
M  V30 14070 N 1316.99 -1.36373 0.789944 0
M  V30 14071 C 1318.23 -1.99523 0.363119 0
M  V30 14072 C 1318.57 -1.6255 -1.0626 0
M  V30 14073 O 1317.84 -0.880551 -1.73426 0
M  V30 14074 C 1318.12 -3.56215 0.527526 0
M  V30 14075 C 1317.98 -4.0304 1.99697 0
M  V30 14076 C 1319.3 -4.40063 -0.0571079 0
M  V30 14077 H 1316.42 -0.724824 0.133412 0
M  V30 14078 H 1319.06 -1.61778 0.996381 0
M  V30 14079 H 1317.21 -3.88498 -0.0115636 0
M  V30 14080 H 1318.88 -3.81241 2.59717 0
M  V30 14081 H 1317.12 -3.54561 2.49939 0
M  V30 14082 H 1317.79 -5.12001 2.06297 0
M  V30 14083 H 1320.27 -4.14143 0.403082 0
M  V30 14084 H 1319.15 -5.4883 0.0879494 0
M  V30 14085 H 1319.41 -4.26901 -1.14926 0
M  V30 14086 N 1318.47 -0.542005 -1.47987 0
M  V30 14087 C 1319.38 0.217677 -2.33588 0
M  V30 14088 C 1320.39 0.927093 -1.47245 0
M  V30 14089 O 1321.57 0.899378 -1.80203 0
M  V30 14090 C 1318.63 1.24376 -3.23622 0
M  V30 14091 C 1317.69 0.543407 -4.25847 0
M  V30 14092 C 1316.93 1.5206 -5.11579 0
M  V30 14093 O 1317.15 2.75425 -4.99497 0
M  V30 14094 O 1316.08 1.05341 -5.9261 0
M  V30 14095 H 1319.91 -0.484089 -2.99817 0
M  V30 14096 H 1317.49 -0.302783 -1.463 0
M  V30 14097 H 1319.38 1.83644 -3.7928 0
M  V30 14098 H 1318.05 1.92772 -2.6004 0
M  V30 14099 H 1316.96 -0.090074 -3.73992 0
M  V30 14100 H 1318.29 -0.0988264 -4.92101 0
M  V30 14101 N 1319.94 1.55134 -0.277709 0
M  V30 14102 C 1320.89 2.24057 0.624594 0
M  V30 14103 C 1321.89 1.23848 1.15577 0
M  V30 14104 O 1323.09 1.41771 1.1091 0
M  V30 14105 H 1319.47 0.719106 0.219977 0
M  V30 14106 H 1321.44 2.98393 0.0204815 0
M  V30 14107 C 1320.19 2.97712 1.79618 0
M  V30 14108 H 1319.51 3.74611 1.39665 0
M  V30 14109 H 1320.95 3.49255 2.4041 0
M  V30 14110 C 1319.41 2.03332 2.68622 0
M  V30 14111 O 1319.94 1.58622 3.69056 0
M  V30 14112 N 1318.14 1.69778 2.35847 0
M  V30 14113 H 1317.69 2.06333 1.54222 0
M  V30 14114 H 1317.65 1.06901 2.95668 0
M  V30 14115 N 1321.42 0.00503138 1.57599 0
M  V30 14116 C 1322.33 -1.00097 2.12174 0
M  V30 14117 C 1323.35 -1.37353 1.06818 0
M  V30 14118 O 1324.52 -1.45984 1.38747 0
M  V30 14119 C 1321.59 -2.27252 2.61835 0
M  V30 14120 C 1320.65 -1.96262 3.81811 0
M  V30 14121 C 1319.88 -3.17355 4.29094 0
M  V30 14122 O 1320.11 -4.2921 3.75679 0
M  V30 14123 O 1319.04 -3.01059 5.21198 0
M  V30 14124 H 1322.87 -0.567024 2.9836 0
M  V30 14125 H 1320.45 -0.214109 1.47858 0
M  V30 14126 H 1322.33 -3.01944 2.93952 0
M  V30 14127 H 1321.01 -2.69875 1.78744 0
M  V30 14128 H 1319.91 -1.19031 3.54658 0
M  V30 14129 H 1321.25 -1.58473 4.65991 0
M  V30 14130 N 1322.9 -1.55308 -0.267798 0
M  V30 14131 C 1324.15 -1.76159 -0.998707 0
M  V30 14132 C 1324.47 -0.565573 -1.86095 0
M  V30 14133 O 1323.73 0.45178 -1.90414 0
M  V30 14134 C 1324.03 -3.02286 -1.90678 0
M  V30 14135 C 1323.69 -4.34594 -1.20161 0
M  V30 14136 C 1322.36 -4.70553 -1.00664 0
M  V30 14137 C 1324.71 -5.16475 -0.7002 0
M  V30 14138 C 1322.04 -5.85945 -0.297629 0
M  V30 14139 C 1324.39 -6.326 -0.00475187 0
M  V30 14140 C 1323.05 -6.67195 0.20188 0
M  V30 14141 H 1322.32 -0.644613 -0.365453 0
M  V30 14142 H 1324.97 -1.89579 -0.270545 0
M  V30 14143 H 1323.27 -2.83788 -2.70133 0
M  V30 14144 H 1324.97 -3.15615 -2.47362 0
M  V30 14145 H 1321.56 -4.06334 -1.36348 0
M  V30 14146 H 1325.75 -4.89167 -0.838435 0
M  V30 14147 H 1321 -6.11268 -0.126864 0
M  V30 14148 H 1325.18 -6.95299 0.39151 0
M  V30 14149 H 1322.8 -7.56459 0.753252 0
M  V30 14150 N 1324.38 0.532545 -1.4833 0
M  V30 14151 C 1325.31 1.64662 -1.65555 0
M  V30 14152 C 1326.29 1.62447 -0.50447 0
M  V30 14153 O 1327.47 1.79684 -0.736712 0
M  V30 14154 C 1324.6 3.03256 -1.69272 0
M  V30 14155 C 1323.56 3.20329 -2.83854 0
M  V30 14156 C 1322.88 4.59958 -2.72659 0
M  V30 14157 C 1324.18 3.03345 -4.25181 0
M  V30 14158 H 1325.88 1.50502 -2.58823 0
M  V30 14159 H 1323.42 0.722612 -1.24556 0
M  V30 14160 H 1325.38 3.81064 -1.79911 0
M  V30 14161 H 1324.1 3.18433 -0.725805 0
M  V30 14162 H 1322.76 2.44937 -2.72766 0
M  V30 14163 H 1322.41 4.71967 -1.73942 0
M  V30 14164 H 1322.11 4.72327 -3.49544 0
M  V30 14165 H 1323.63 5.39869 -2.85262 0
M  V30 14166 H 1325.05 3.70948 -4.37116 0
M  V30 14167 H 1323.44 3.27208 -5.03045 0
M  V30 14168 H 1324.51 1.998 -4.41824 0
M  V30 14169 N 1325.86 1.36875 0.78122 0
M  V30 14170 C 1327.08 1.34732 1.57019 0
M  V30 14171 C 1327.5 -0.0695423 1.88672 0
M  V30 14172 O 1326.86 -1.02873 1.50743 0
M  V30 14173 C 1326.91 2.17668 2.88623 0
M  V30 14174 O 1326.63 3.53832 2.5833 0
M  V30 14175 C 1328.13 2.23398 3.82895 0
M  V30 14176 H 1325.35 0.461857 0.486754 0
M  V30 14177 H 1327.89 1.80086 0.968989 0
M  V30 14178 H 1326.05 1.75848 3.4519 0
M  V30 14179 H 1326.46 3.972 3.42538 0
M  V30 14180 H 1327.94 2.85769 4.72271 0
M  V30 14181 H 1328.41 1.23972 4.2134 0
M  V30 14182 H 1329.02 2.65489 3.32258 0
M  V30 14183 N 1327.33 -1.00632 1.21289 0
M  V30 14184 C 1328.58 -1.73802 1.02351 0
M  V30 14185 C 1328.9 -1.90503 -0.443611 0
M  V30 14186 O 1330.1 -2.60868 -0.752356 0
M  V30 14187 C 1328.56 -3.12647 1.78269 0
M  V30 14188 C 1328.17 -3.03923 3.29142 0
M  V30 14189 C 1329.91 -3.89956 1.67735 0
M  V30 14190 C 1327.82 -4.3784 3.97556 0
M  V30 14191 H 1326.75 -0.651616 0.379358 0
M  V30 14192 H 1329.4 -1.12446 1.45011 0
M  V30 14193 H 1327.78 -3.74605 1.28401 0
M  V30 14194 H 1328.95 -2.51211 3.86303 0
M  V30 14195 H 1327.27 -2.40103 3.40205 0
M  V30 14196 H 1329.87 -4.89051 2.1618 0
M  V30 14197 H 1330.21 -4.11423 0.635338 0
M  V30 14198 H 1330.74 -3.34647 2.15072 0
M  V30 14199 H 1327.48 -4.21573 5.01952 0
M  V30 14200 H 1327 -4.90518 3.45184 0
M  V30 14201 H 1328.68 -5.06644 4.02393 0
M  V30 14202 N 1328.81 -1.02043 -1.20104 0
M  V30 14203 C 1330.04 -0.731142 -1.94085 0
M  V30 14204 C 1330.46 0.702467 -1.74491 0
M  V30 14205 O 1329.82 1.48387 -1.04168 0
M  V30 14206 C 1329.87 -1.07691 -3.44144 0
M  V30 14207 O 1328.97 -0.190751 -4.11959 0
M  V30 14208 H 1328.31 -0.270917 -0.606218 0
M  V30 14209 H 1330.84 -1.36483 -1.52426 0
M  V30 14210 H 1330.85 -1.03023 -3.94779 0
M  V30 14211 H 1329.53 -2.1214 -3.57728 0
M  V30 14212 H 1328.1 -0.29529 -3.71729 0
M  V30 14213 N 1330.29 1.35952 -0.797165 0
M  V30 14214 C 1331.22 2.28649 -0.15877 0
M  V30 14215 C 1332.24 1.49842 0.636481 0
M  V30 14216 O 1333.42 1.72191 0.47039 0
M  V30 14217 C 1330.52 3.29373 0.797913 0
M  V30 14218 C 1329.7 4.3737 0.0510574 0
M  V30 14219 C 1328.76 5.18009 0.924826 0
M  V30 14220 O 1327.78 5.67935 0.379223 0
M  V30 14221 N 1328.98 5.352 2.24813 0
M  V30 14222 H 1331.75 2.84075 -0.955056 0
M  V30 14223 H 1329.31 1.48201 -0.651767 0
M  V30 14224 H 1331.3 3.80209 1.38646 0
M  V30 14225 H 1329.87 2.74531 1.49504 0
M  V30 14226 H 1329.09 3.87594 -0.718633 0
M  V30 14227 H 1330.38 5.0668 -0.464025 0
M  V30 14228 H 1329.78 4.96266 2.71545 0
M  V30 14229 H 1328.34 5.89252 2.78614 0
M  V30 14230 N 1331.77 0.549846 1.47697 0
M  V30 14231 C 1332.73 -0.191427 2.28399 0
M  V30 14232 C 1333.73 -0.849533 1.36527 0
M  V30 14233 O 1334.92 -0.706526 1.59229 0
M  V30 14234 C 1332.05 -1.27907 3.15995 0
M  V30 14235 H 1333.25 0.517375 2.95404 0
M  V30 14236 H 1330.8 0.30651 1.53265 0
M  V30 14237 H 1331.53 -2.0205 2.53665 0
M  V30 14238 H 1331.32 -0.812066 3.83599 0
M  V30 14239 H 1332.81 -1.79992 3.76819 0
M  V30 14240 N 1333.25 -1.54984 0.285932 0
M  V30 14241 C 1334.2 -2.19645 -0.611576 0
M  V30 14242 C 1335.18 -1.16453 -1.11029 0
M  V30 14243 O 1336.37 -1.42228 -1.05357 0
M  V30 14244 C 1333.5 -2.9293 -1.79017 0
M  V30 14245 C 1332.59 -4.03421 -1.30813 0
M  V30 14246 N 1332.98 -5.02877 -0.542993 0
M  V30 14247 C 1331.28 -4.16689 -1.59016 0
M  V30 14248 C 1331.98 -5.80986 -0.288176 0
M  V30 14249 N 1330.95 -5.36695 -0.863695 0
M  V30 14250 H 1334.76 -2.93894 -0.0192813 0
M  V30 14251 H 1332.27 -1.6215 0.0899876 0
M  V30 14252 H 1334.27 -3.37709 -2.44454 0
M  V30 14253 H 1332.93 -2.20194 -2.38631 0
M  V30 14254 H 1333.94 -5.17554 -0.189305 0
M  V30 14255 H 1330.61 -3.5515 -2.19488 0
M  V30 14256 H 1332 -6.71112 0.325337 0
M  V30 14257 N 1334.72 -0.0133892 -1.57594 0
M  V30 14258 C 1335.67 0.97367 -2.09257 0
M  V30 14259 C 1336.64 1.33298 -0.990998 0
M  V30 14260 O 1337.83 1.42903 -1.26425 0
M  V30 14261 C 1334.97 2.25603 -2.61147 0
M  V30 14262 C 1334.08 1.95456 -3.85254 0
M  V30 14263 C 1333.21 3.17871 -4.25596 0
M  V30 14264 C 1332.25 2.83471 -5.42504 0
M  V30 14265 N 1331.39 3.98464 -5.78075 0
M  V30 14266 H 1336.23 0.526189 -2.93318 0
M  V30 14267 H 1333.77 0.248148 -1.44992 0
M  V30 14268 H 1335.73 3.00587 -2.89315 0
M  V30 14269 H 1334.36 2.67995 -1.7994 0
M  V30 14270 H 1333.41 1.10781 -3.63912 0
M  V30 14271 H 1334.72 1.6611 -4.70328 0
M  V30 14272 H 1333.87 4.0119 -4.55117 0
M  V30 14273 H 1332.61 3.50365 -3.39257 0
M  V30 14274 H 1331.62 1.98562 -5.12692 0
M  V30 14275 H 1332.84 2.5221 -6.30529 0
M  V30 14276 H 1330.79 4.3083 -4.94694 0
M  V30 14277 H 1330.71 3.72688 -6.57753 0
M  V30 14278 H 1331.97 4.82532 -6.12195 0
M  V30 14279 N 1336.2 1.55448 0.259558 0
M  V30 14280 C 1337.13 1.85678 1.34373 0
M  V30 14281 C 1338.15 0.742155 1.449 0
M  V30 14282 O 1339.34 1.02015 1.46476 0
M  V30 14283 C 1336.44 2.01668 2.72366 0
M  V30 14284 C 1335.61 3.32434 2.84265 0
M  V30 14285 C 1334.67 3.38322 4.03019 0
M  V30 14286 O 1333.69 4.11616 3.93143 0
M  V30 14287 N 1334.9 2.66697 5.1561 0
M  V30 14288 H 1337.66 2.79261 1.08781 0
M  V30 14289 H 1335.22 1.5553 0.449672 0
M  V30 14290 H 1337.21 2.02963 3.50126 0
M  V30 14291 H 1335.78 1.14889 2.90722 0
M  V30 14292 H 1335 3.43564 1.93281 0
M  V30 14293 H 1336.29 4.18649 2.89155 0
M  V30 14294 H 1335.69 2.06857 5.26523 0
M  V30 14295 H 1334.25 2.73699 5.91551 0
M  V30 14296 N 1337.68 -0.524672 1.4861 0
M  V30 14297 C 1338.63 -1.64965 1.6398 0
M  V30 14298 C 1339.62 -1.61663 0.506118 0
M  V30 14299 O 1340.83 -1.66456 0.685013 0
M  V30 14300 H 1337.2 -0.546419 0.516653 0
M  V30 14301 H 1339.17 -1.49146 2.58453 0
M  V30 14302 C 1337.92 -3.03215 1.70165 0
M  V30 14303 H 1337.25 -3.06451 2.56764 0
M  V30 14304 H 1338.69 -3.8153 1.84962 0
M  V30 14305 C 1337.15 -3.33996 0.44143 0
M  V30 14306 O 1337.68 -3.99246 -0.443356 0
M  V30 14307 N 1335.88 -2.88925 0.311518 0
M  V30 14308 H 1335.43 -2.36003 1.0325 0
M  V30 14309 H 1335.39 -3.09889 -0.530655 0
M  V30 14310 N 1339.16 -1.37287 -0.77395 0
M  V30 14311 C 1340.57 -1.18039 -1.0742 0
M  V30 14312 C 1340.77 -0.0150339 -2.01494 0
M  V30 14313 O 1339.83 0.645562 -2.44108 0
M  V30 14314 C 1341.14 -2.49808 -1.67382 0
M  V30 14315 C 1342.69 -2.5631 -1.7965 0
M  V30 14316 C 1343.17 -3.88204 -2.43025 0
M  V30 14317 N 1344.66 -3.89634 -2.50478 0
M  V30 14318 C 1345.39 -4.88437 -3.00361 0
M  V30 14319 N 1344.89 -5.97635 -3.50434 0
M  V30 14320 N 1346.68 -4.75843 -2.99215 0
M  V30 14321 H 1338.83 -2.11875 -0.149269 0
M  V30 14322 H 1341.1 -0.939203 -0.128846 0
M  V30 14323 H 1340.8 -3.35433 -1.05726 0
M  V30 14324 H 1340.68 -2.66737 -2.66704 0
M  V30 14325 H 1343.06 -1.71094 -2.40439 0
M  V30 14326 H 1343.14 -2.43266 -0.790894 0
M  V30 14327 H 1342.79 -4.73834 -1.82876 0
M  V30 14328 H 1342.72 -3.98551 -3.44187 0
M  V30 14329 H 1345.21 -3.10751 -2.15039 0
M  V30 14330 H 1345.52 -6.6898 -3.86893 0
M  V30 14331 H 1343.87 -6.01283 -3.48545 0
M  V30 14332 H 1347.06 -3.89656 -2.59395 0
M  V30 14333 H 1347.23 -5.52999 -3.37781 0
M  V30 14334 N 1340.64 0.999871 -1.21821 0
M  V30 14335 C 1341.91 1.71135 -0.947213 0
M  V30 14336 C 1342.29 2.04087 0.539601 0
M  V30 14337 O 1341.64 1.71866 1.5058 0
M  V30 14338 C 1341.85 2.96704 -1.8376 0
M  V30 14339 C 1343.2 3.69627 -2.08952 0
M  V30 14340 O 1344.22 3.06697 -1.81151 0
M  V30 14341 O 1343.08 4.82832 -2.55999 0
M  V30 14342 H 1340.18 0.746631 -0.355628 0
M  V30 14343 H 1342.72 1.05684 -1.32774 0
M  V30 14344 H 1341.49 2.68802 -2.84361 0
M  V30 14345 H 1341.12 3.69894 -1.45821 0
M  V30 14346 N 1342.11 1.02678 1.19562 0
M  V30 14347 C 1343.34 0.741424 1.93695 0
M  V30 14348 C 1343.76 -0.693203 1.74861 0
M  V30 14349 O 1343.12 -1.47833 1.04953 0
M  V30 14350 C 1343.17 1.09514 3.43568 0
M  V30 14351 O 1342.27 0.212596 4.11852 0
M  V30 14352 H 1341.62 0.274128 0.604773 0
M  V30 14353 H 1344.15 1.37289 1.517 0
M  V30 14354 H 1344.16 1.05115 3.94227 0
M  V30 14355 H 1342.83 2.14034 3.56598 0
M  V30 14356 H 1341.41 0.315 3.71567 0
M  V30 14357 N 1343.59 -1.35528 0.804364 0
M  V30 14358 C 1344.82 -2.02779 0.395517 0
M  V30 14359 C 1345.23 -1.60764 -0.997572 0
M  V30 14360 O 1344.57 -0.799737 -1.65378 0
M  V30 14361 C 1344.64 -3.57302 0.396904 0
M  V30 14362 C 1344.3 -4.22574 1.74012 0
M  V30 14363 C 1345.3 -4.44411 2.69806 0
M  V30 14364 C 1342.98 -4.59738 2.02352 0
M  V30 14365 C 1344.98 -5.02511 3.92124 0
M  V30 14366 C 1342.66 -5.17553 3.24934 0
M  V30 14367 C 1343.66 -5.38881 4.19638 0
M  V30 14368 O 1343.35 -5.95478 5.40056 0
M  V30 14369 H 1343.08 -0.657003 0.15913 0
M  V30 14370 H 1345.63 -1.74176 1.08867 0
M  V30 14371 H 1343.86 -3.85087 -0.352836 0
M  V30 14372 H 1345.55 -4.05899 0.0106754 0
M  V30 14373 H 1346.32 -4.16081 2.49202 0
M  V30 14374 H 1342.2 -4.42452 1.2945 0
M  V30 14375 H 1345.74 -5.19075 4.66055 0
M  V30 14376 H 1341.64 -5.4531 3.45409 0
M  V30 14377 H 1342.41 -6.13931 5.41323 0
M  V30 14378 N 1345.07 -0.557671 -1.47404 0
M  V30 14379 C 1346.32 -0.0337216 -2.02072 0
M  V30 14380 C 1346.64 1.32106 -1.43433 0
M  V30 14381 O 1345.91 1.86171 -0.609692 0
M  V30 14382 H 1344.49 -0.00947648 -0.74694 0
M  V30 14383 H 1347.15 -0.727784 -1.80802 0
M  V30 14384 H 1346.25 0.0540331 -3.12053 0
M  V30 14385 N 1346.55 1.54831 -0.294147 0
M  V30 14386 C 1347.78 2.04115 0.319474 0
M  V30 14387 C 1348.19 1.17125 1.48588 0
M  V30 14388 O 1347.53 0.188034 1.82735 0
M  V30 14389 C 1347.59 3.49429 0.84496 0
M  V30 14390 C 1347.26 4.56583 -0.195275 0
M  V30 14391 C 1348.25 5.09768 -1.02138 0
M  V30 14392 C 1345.94 5.01182 -0.335 0
M  V30 14393 C 1347.93 6.06088 -1.97321 0
M  V30 14394 C 1345.62 5.97323 -1.29029 0
M  V30 14395 C 1346.62 6.49659 -2.10788 0
M  V30 14396 O 1346.31 7.43918 -3.04698 0
M  V30 14397 H 1346.04 0.671895 0.074383 0
M  V30 14398 H 1348.59 2.00856 -0.429669 0
M  V30 14399 H 1346.82 3.4999 1.64451 0
M  V30 14400 H 1348.51 3.81947 1.37372 0
M  V30 14401 H 1349.28 4.76112 -0.924264 0
M  V30 14402 H 1345.16 4.60078 0.291422 0
M  V30 14403 H 1348.7 6.46863 -2.61177 0
M  V30 14404 H 1344.6 6.30397 -1.38815 0
M  V30 14405 H 1345.36 7.61698 -2.99598 0
M  V30 14406 N 1348.03 0.0217466 1.57585 0
M  V30 14407 C 1348.96 -0.997112 2.05263 0
M  V30 14408 C 1349.94 -1.32186 0.946873 0
M  V30 14409 O 1351.12 -1.43979 1.21665 0
M  V30 14410 C 1348.25 -2.3191 2.46851 0
M  V30 14411 C 1347.3 -2.14948 3.68375 0
M  V30 14412 S 1348.13 -1.45517 5.15349 0
M  V30 14413 C 1349.28 -2.79101 5.60226 0
M  V30 14414 H 1349.52 -0.591229 2.91362 0
M  V30 14415 H 1347.05 -0.189741 1.5323 0
M  V30 14416 H 1349.01 -3.07913 2.71477 0
M  V30 14417 H 1347.67 -2.69633 1.61112 0
M  V30 14418 H 1346.86 -3.12661 3.95296 0
M  V30 14419 H 1346.46 -1.47088 3.43862 0
M  V30 14420 H 1348.76 -3.75357 5.64015 0
M  V30 14421 H 1349.7 -2.56853 6.59873 0
M  V30 14422 H 1350.11 -2.84009 4.87851 0
M  V30 14423 N 1349.51 -1.55583 -0.251311 0
M  V30 14424 C 1350.44 -1.9296 -1.31486 0
M  V30 14425 C 1351.42 -0.794001 -1.50431 0
M  V30 14426 O 1352.6 -1.05393 -1.63113 0
M  V30 14427 C 1349.73 -2.22046 -2.67045 0
M  V30 14428 C 1348.69 -3.37816 -2.62801 0
M  V30 14429 C 1348.01 -3.52433 -4.02113 0
M  V30 14430 C 1349.31 -4.73626 -2.20171 0
M  V30 14431 H 1351.01 -2.82046 -1.00451 0
M  V30 14432 H 1348.55 -1.35702 -0.481775 0
M  V30 14433 H 1350.5 -2.46783 -3.41579 0
M  V30 14434 H 1349.23 -1.29782 -2.99707 0
M  V30 14435 H 1347.89 -3.13081 -1.90724 0
M  V30 14436 H 1347.54 -2.57597 -4.32034 0
M  V30 14437 H 1347.24 -4.30283 -4.00163 0
M  V30 14438 H 1348.76 -3.79486 -4.78354 0
M  V30 14439 H 1350.17 -4.97764 -2.84436 0
M  V30 14440 H 1348.57 -5.54547 -2.29341 0
M  V30 14441 H 1349.64 -4.70985 -1.1533 0
M  V30 14442 N 1350.98 0.516783 -1.48886 0
M  V30 14443 C 1352.23 1.26841 -1.56825 0
M  V30 14444 C 1352.55 1.93957 -0.252998 0
M  V30 14445 O 1353.75 2.70681 -0.210765 0
M  V30 14446 C 1352.21 2.30223 -2.76633 0
M  V30 14447 C 1351.82 1.69117 -4.14853 0
M  V30 14448 C 1353.56 3.06313 -2.93893 0
M  V30 14449 C 1351.47 2.70516 -5.25904 0
M  V30 14450 H 1350.4 0.477087 -0.58387 0
M  V30 14451 H 1353.05 0.544187 -1.75245 0
M  V30 14452 H 1351.43 3.05739 -2.51674 0
M  V30 14453 H 1352.6 0.997003 -4.49885 0
M  V30 14454 H 1350.92 1.05473 -4.0282 0
M  V30 14455 H 1353.52 3.8211 -3.74027 0
M  V30 14456 H 1353.86 3.62976 -2.03848 0
M  V30 14457 H 1354.39 2.37911 -3.18815 0
M  V30 14458 H 1351.13 2.18655 -6.17956 0
M  V30 14459 H 1350.65 3.38221 -4.95345 0
M  V30 14460 H 1352.33 3.3325 -5.54575 0
M  V30 14461 N 1352.46 1.37696 0.766659 0
M  V30 14462 C 1353.87 1.29668 1.34324 0
M  V30 14463 C 1354.22 -0.0534297 1.96127 0
M  V30 14464 O 1353.35 -0.95534 1.94171 0
M  V30 14465 C 1353.94 2.34818 2.44225 0
M  V30 14466 C 1352.5 2.3041 2.97638 0
M  V30 14467 C 1351.65 2.18378 1.70899 0
M  V30 14468 H 1354.6 1.48244 0.566526 0
M  V30 14469 H 1354.62 1.99778 3.23835 0
M  V30 14470 H 1354.13 3.3307 1.99214 0
M  V30 14471 H 1352.23 1.35698 3.47011 0
M  V30 14472 H 1352.35 3.24028 3.52906 0
M  V30 14473 H 1350.71 1.65008 1.94021 0
M  V30 14474 H 1351.49 3.18551 1.27985 0
M  V30 14475 N 1353.94 -0.993397 1.22349 0
M  V30 14476 C 1354.89 -2.10463 0.990358 0
M  V30 14477 C 1355.88 -1.6927 -0.0663528 0
M  V30 14478 O 1357.09 -1.79794 0.0860444 0
M  V30 14479 H 1353.46 -0.688222 0.303075 0
M  V30 14480 H 1355.43 -2.273 1.93333 0
M  V30 14481 C 1354.18 -3.42757 0.584205 0
M  V30 14482 H 1353.51 -3.74896 1.38899 0
M  V30 14483 H 1354.95 -4.21492 0.46049 0
M  V30 14484 C 1353.4 -3.29416 -0.706187 0
M  V30 14485 O 1353.93 -3.61152 -1.75875 0
M  V30 14486 N 1352.14 -2.82601 -0.677148 0
M  V30 14487 H 1351.69 -2.56972 0.179712 0
M  V30 14488 H 1351.65 -2.74056 -1.54081 0
M  V30 14489 N 1355.42 -1.03311 -1.19015 0
M  V30 14490 C 1356.66 -0.733124 -1.89085 0
M  V30 14491 C 1357 0.73675 -1.79682 0
M  V30 14492 O 1356.27 1.53692 -1.19201 0
M  V30 14493 C 1356.55 -1.19028 -3.39859 0
M  V30 14494 C 1356.41 -2.72169 -3.58112 0
M  V30 14495 C 1357.73 -0.774383 -4.33234 0
M  V30 14496 H 1354.85 -0.2678 -0.686624 0
M  V30 14497 H 1357.49 -1.28378 -1.40068 0
M  V30 14498 H 1355.64 -0.721799 -3.81736 0
M  V30 14499 H 1357.31 -3.26996 -3.25379 0
M  V30 14500 H 1355.55 -3.12358 -3.01023 0
M  V30 14501 H 1356.22 -2.99213 -4.6387 0
M  V30 14502 H 1358.7 -1.17739 -3.99095 0
M  V30 14503 H 1357.58 -1.12209 -5.37308 0
M  V30 14504 H 1357.84 0.322989 -4.40919 0
M  V30 14505 N 1356.9 1.35099 -0.81154 0
M  V30 14506 C 1358.17 1.93009 -0.317289 0
M  V30 14507 C 1358.55 1.74101 1.19382 0
M  V30 14508 O 1357.9 1.11295 1.99564 0
M  V30 14509 C 1358.11 3.41191 -0.734123 0
M  V30 14510 C 1359.46 4.1834 -0.726437 0
M  V30 14511 O 1360.48 3.49727 -0.67598 0
M  V30 14512 O 1359.34 5.4077 -0.789291 0
M  V30 14513 H 1356.44 0.822707 -0.084153 0
M  V30 14514 H 1358.98 1.44145 -0.895569 0
M  V30 14515 H 1357.75 3.48705 -1.7754 0
M  V30 14516 H 1357.38 3.97384 -0.130919 0
M  V30 14517 N 1358.37 0.56548 1.47106 0
M  V30 14518 C 1359.79 0.225855 1.57994 0
M  V30 14519 C 1359.99 -1.27173 1.56299 0
M  V30 14520 O 1359.05 -2.05242 1.47078 0
M  V30 14521 C 1360.36 0.859829 2.88145 0
M  V30 14522 C 1361.91 0.831821 3.01744 0
M  V30 14523 C 1362.38 1.44502 4.34607 0
M  V30 14524 N 1363.87 1.40857 4.41263 0
M  V30 14525 C 1364.61 1.85258 5.42648 0
M  V30 14526 N 1364.1 2.37553 6.508 0
M  V30 14527 N 1365.9 1.76279 5.33744 0
M  V30 14528 H 1358.05 1.53837 1.46451 0
M  V30 14529 H 1360.31 0.642013 0.697512 0
M  V30 14530 H 1360.02 1.91264 2.95146 0
M  V30 14531 H 1359.89 0.357762 3.755 0
M  V30 14532 H 1362.28 -0.212319 2.94335 0
M  V30 14533 H 1362.36 1.37173 2.1591 0
M  V30 14534 H 1362 2.48827 4.42773 0
M  V30 14535 H 1361.93 0.880479 5.19187 0
M  V30 14536 H 1364.42 1.02614 3.63702 0
M  V30 14537 H 1364.74 2.69335 7.24347 0
M  V30 14538 H 1363.08 2.41569 6.51667 0
M  V30 14539 H 1366.27 1.35195 4.48152 0
M  V30 14540 H 1366.45 2.11199 6.12616 0
M  V30 14541 N 1359.85 -1.54672 0.302354 0
M  V30 14542 C 1360.82 -2.22246 -0.560283 0
M  V30 14543 C 1361.82 -1.20895 -1.06023 0
M  V30 14544 O 1363.01 -1.45621 -0.956047 0
M  V30 14545 C 1360.14 -2.9099 -1.77589 0
M  V30 14546 H 1361.33 -2.99885 0.0301274 0
M  V30 14547 H 1358.88 -1.56209 0.0532036 0
M  V30 14548 H 1359.62 -2.17433 -2.4061 0
M  V30 14549 H 1359.4 -3.65288 -1.42503 0
M  V30 14550 H 1360.89 -3.42535 -2.38871 0
M  V30 14551 N 1361.33 -0.0301034 -1.57571 0
M  V30 14552 C 1362.56 0.658488 -1.96142 0
M  V30 14553 C 1362.97 1.65606 -0.906644 0
M  V30 14554 O 1362.33 1.82159 0.111441 0
M  V30 14555 C 1362.38 1.364 -3.34779 0
M  V30 14556 O 1362.1 0.4064 -4.36211 0
M  V30 14557 C 1363.6 2.14432 -3.87987 0
M  V30 14558 H 1360.82 0.181496 -0.645988 0
M  V30 14559 H 1363.37 -0.09016 -2.04301 0
M  V30 14560 H 1361.52 2.06404 -3.27836 0
M  V30 14561 H 1361.94 0.907503 -5.16589 0
M  V30 14562 H 1363.41 2.59248 -4.87334 0
M  V30 14563 H 1363.89 2.98377 -3.22285 0
M  V30 14564 H 1364.49 1.49383 -3.98202 0
M  V30 14565 N 1362.81 1.55714 0.243056 0
M  V30 14566 C 1364.06 1.77726 0.970555 0
M  V30 14567 C 1364.38 0.595108 1.85172 0
M  V30 14568 O 1363.64 -0.42143 1.91108 0
M  V30 14569 C 1363.94 3.05281 1.85845 0
M  V30 14570 C 1363.6 4.36451 1.13232 0
M  V30 14571 C 1362.27 4.72095 0.931656 0
M  V30 14572 C 1364.62 5.17524 0.617944 0
M  V30 14573 C 1361.95 5.86344 0.204373 0
M  V30 14574 C 1364.3 6.32527 -0.0958899 0
M  V30 14575 C 1362.96 6.66789 -0.308 0
M  V30 14576 H 1362.23 0.650345 0.355151 0
M  V30 14577 H 1364.88 1.89986 0.240351 0
M  V30 14578 H 1363.18 2.8805 2.65584 0
M  V30 14579 H 1364.88 3.19511 2.4231 0
M  V30 14580 H 1361.47 4.08451 1.29867 0
M  V30 14581 H 1365.65 4.90439 0.760507 0
M  V30 14582 H 1360.91 6.11393 0.0296 0
M  V30 14583 H 1365.08 6.94588 -0.502077 0
M  V30 14584 H 1362.71 7.55165 -0.873502 0
M  V30 14585 N 1364.29 -0.50888 1.49158 0
M  V30 14586 C 1365.23 -1.63216 1.6572 0
M  V30 14587 C 1366.23 -1.61117 0.523236 0
M  V30 14588 O 1367.43 -1.6572 0.702629 0
M  V30 14589 H 1363.81 -0.540909 0.522419 0
M  V30 14590 H 1365.78 -1.46397 2.6002 0
M  V30 14591 C 1364.53 -3.01393 1.73372 0
M  V30 14592 H 1363.85 -3.03711 2.6 0
M  V30 14593 H 1365.29 -3.79547 1.88998 0
M  V30 14594 C 1363.75 -3.33509 0.47683 0
M  V30 14595 O 1364.28 -3.99694 -0.400986 0
M  V30 14596 N 1362.49 -2.88579 0.342145 0
M  V30 14597 H 1362.03 -2.34894 1.05747 0
M  V30 14598 H 1361.99 -3.10435 -0.497757 0
M  V30 14599 N 1365.76 -1.381 -0.759346 0
M  V30 14600 C 1366.7 -1.3075 -1.88248 0
M  V30 14601 C 1367.71 -0.220835 -1.61295 0
M  V30 14602 O 1368.9 -0.477952 -1.71982 0
M  V30 14603 C 1366 -1.00174 -3.23757 0
M  V30 14604 C 1365.17 -2.19635 -3.78258 0
M  V30 14605 C 1364.23 -1.85892 -4.92271 0
M  V30 14606 O 1363.26 -2.58325 -5.07205 0
M  V30 14607 N 1364.46 -0.810436 -5.74815 0
M  V30 14608 H 1367.22 -2.27529 -1.95065 0
M  V30 14609 H 1364.78 -1.31886 -0.93902 0
M  V30 14610 H 1366.78 -0.756631 -3.97564 0
M  V30 14611 H 1365.35 -0.122094 -3.12361 0
M  V30 14612 H 1364.57 -2.60246 -2.96084 0
M  V30 14613 H 1365.85 -2.99373 -4.11404 0
M  V30 14614 H 1365.25 -0.209644 -5.65311 0
M  V30 14615 H 1363.81 -0.625206 -6.48795 0
M  V30 14616 N 1367.24 0.986894 -1.22875 0
M  V30 14617 C 1368.18 2.07604 -0.947406 0
M  V30 14618 C 1369.15 1.62214 0.111904 0
M  V30 14619 O 1370.34 1.88488 -0.0209682 0
M  V30 14620 C 1367.46 3.3601 -0.42605 0
M  V30 14621 C 1366.51 4.00331 -1.47097 0
M  V30 14622 S 1367.34 4.40412 -3.04627 0
M  V30 14623 C 1368.5 5.7198 -2.54145 0
M  V30 14624 H 1368.73 2.31149 -1.86969 0
M  V30 14625 H 1366.27 1.1222 -1.06047 0
M  V30 14626 H 1368.22 4.10288 -0.131846 0
M  V30 14627 H 1366.88 3.10484 0.475211 0
M  V30 14628 H 1366.08 4.92809 -1.05618 0
M  V30 14629 H 1365.68 3.32403 -1.71418 0
M  V30 14630 H 1367.97 6.48602 -1.9576 0
M  V30 14631 H 1368.91 6.18293 -3.45137 0
M  V30 14632 H 1369.32 5.29669 -1.95221 0
M  V30 14633 N 1368.72 1.0394 1.18466 0
M  V30 14634 C 1369.97 0.737233 1.87744 0
M  V30 14635 C 1370.28 -0.737891 1.81148 0
M  V30 14636 O 1371.49 -1.15353 2.45776 0
M  V30 14637 C 1369.94 1.26844 3.36806 0
M  V30 14638 C 1369.55 2.7721 3.51935 0
M  V30 14639 C 1371.3 1.04274 4.11494 0
M  V30 14640 C 1369.2 3.23696 4.9495 0
M  V30 14641 H 1368.13 0.272082 0.703198 0
M  V30 14642 H 1370.78 1.25507 1.33866 0
M  V30 14643 H 1369.17 0.67847 3.90145 0
M  V30 14644 H 1370.34 3.41954 3.08875 0
M  V30 14645 H 1368.66 2.98179 2.90652 0
M  V30 14646 H 1371.25 1.3652 5.16978 0
M  V30 14647 H 1371.6 -0.0200645 4.16295 0
M  V30 14648 H 1372.13 1.59726 3.64325 0
M  V30 14649 H 1368.87 4.29351 4.95316 0
M  V30 14650 H 1368.39 2.63687 5.38729 0
M  V30 14651 H 1370.07 3.17645 5.63658 0
M  V30 14652 N 1370.2 -1.34667 0.818693 0
M  V30 14653 C 1371.15 -2.29595 0.235551 0
M  V30 14654 C 1372.12 -1.53389 -0.63727 0
M  V30 14655 O 1373.3 -1.81777 -0.579804 0
M  V30 14656 C 1370.44 -3.39843 -0.600043 0
M  V30 14657 C 1369.55 -4.30995 0.294553 0
M  V30 14658 C 1368.69 -5.28343 -0.550203 0
M  V30 14659 C 1367.73 -6.11132 0.344043 0
M  V30 14660 N 1366.86 -7.00582 -0.461392 0
M  V30 14661 H 1371.7 -2.78872 1.05044 0
M  V30 14662 H 1369.24 -1.37239 0.529517 0
M  V30 14663 H 1371.2 -4.02443 -1.09978 0
M  V30 14664 H 1369.83 -2.91811 -1.38008 0
M  V30 14665 H 1368.88 -3.69294 0.912483 0
M  V30 14666 H 1370.19 -4.89031 0.982341 0
M  V30 14667 H 1369.35 -5.96374 -1.11459 0
M  V30 14668 H 1368.09 -4.70833 -1.27151 0
M  V30 14669 H 1367.09 -5.42038 0.920608 0
M  V30 14670 H 1368.32 -6.70722 1.0634 0
M  V30 14671 H 1366.26 -6.45546 -1.16645 0
M  V30 14672 H 1366.18 -7.55813 0.168095 0
M  V30 14673 H 1367.45 -7.72946 -1.00867 0
M  V30 14674 N 1371.68 -0.573274 -1.46804 0
M  V30 14675 C 1372.59 0.168081 -2.33997 0
M  V30 14676 C 1373.6 0.895652 -1.49178 0
M  V30 14677 O 1374.78 0.860951 -1.8207 0
M  V30 14678 C 1371.84 1.17483 -3.26188 0
M  V30 14679 C 1370.9 0.452956 -4.26904 0
M  V30 14680 C 1370.14 1.41175 -5.1469 0
M  V30 14681 O 1370.36 2.64767 -5.05227 0
M  V30 14682 O 1369.29 0.927472 -5.94711 0
M  V30 14683 H 1373.12 -0.547576 -2.98723 0
M  V30 14684 H 1370.71 -0.333747 -1.45624 0
M  V30 14685 H 1372.59 1.75557 -3.8309 0
M  V30 14686 H 1371.26 1.87213 -2.6407 0
M  V30 14687 H 1370.17 -0.169383 -3.73716 0
M  V30 14688 H 1371.5 -0.203186 -4.9178 0
M  V30 14689 N 1373.15 1.5451 -0.310553 0
M  V30 14690 C 1374.08 2.26827 0.554243 0
M  V30 14691 C 1375.07 1.27133 1.13009 0
M  V30 14692 O 1376.25 1.55923 1.15765 0
M  V30 14693 C 1373.38 3.01626 1.7216 0
M  V30 14694 C 1372.33 4.08547 1.27566 0
M  V30 14695 C 1371.66 4.71115 2.52893 0
M  V30 14696 C 1372.96 5.20766 0.399955 0
M  V30 14697 H 1374.65 2.9936 -0.0489475 0
M  V30 14698 H 1372.2 1.43978 -0.0249817 0
M  V30 14699 H 1374.15 3.50942 2.33276 0
M  V30 14700 H 1372.88 2.26688 2.35118 0
M  V30 14701 H 1371.54 3.60096 0.687499 0
M  V30 14702 H 1371.18 3.92805 3.14186 0
M  V30 14703 H 1370.88 5.43331 2.23752 0
M  V30 14704 H 1372.41 5.23198 3.14796 0
M  V30 14705 H 1373.82 5.65918 0.917054 0
M  V30 14706 H 1372.22 5.9976 0.2019 0
M  V30 14707 H 1373.29 4.81508 -0.572537 0
M  V30 14708 N 1374.63 0.0384594 1.57553 0
M  V30 14709 C 1375.54 -0.955737 2.14249 0
M  V30 14710 C 1376.56 -1.35056 1.09708 0
M  V30 14711 O 1377.74 -1.43008 1.41812 0
M  V30 14712 C 1374.8 -2.21647 2.66596 0
M  V30 14713 C 1373.86 -1.88119 3.85888 0
M  V30 14714 C 1373.09 -3.08182 4.35729 0
M  V30 14715 O 1373.32 -4.21145 3.84699 0
M  V30 14716 O 1372.25 -2.89936 5.27467 0
M  V30 14717 H 1376.08 -0.50361 2.99495 0
M  V30 14718 H 1373.66 -0.182698 1.48279 0
M  V30 14719 H 1375.54 -2.9564 3.00291 0
M  V30 14720 H 1374.22 -2.66022 1.84428 0
M  V30 14721 H 1373.13 -1.11481 3.57103 0
M  V30 14722 H 1374.46 -1.48553 4.69247 0
M  V30 14723 N 1376.11 -1.55841 -0.234795 0
M  V30 14724 C 1377.34 -1.82649 -0.982547 0
M  V30 14725 C 1377.76 -0.617097 -1.77689 0
M  V30 14726 O 1377.12 0.434022 -1.76028 0
M  V30 14727 C 1377.17 -3.07319 -1.88646 0
M  V30 14728 O 1376.27 -2.85084 -2.97995 0
M  V30 14729 H 1375.61 -0.60257 -0.278936 0
M  V30 14730 H 1378.14 -2.03041 -0.252117 0
M  V30 14731 H 1378.15 -3.37073 -2.29882 0
M  V30 14732 H 1376.83 -3.94978 -1.30251 0
M  V30 14733 H 1375.4 -2.66528 -2.60801 0
M  V30 14734 N 1377.59 0.500963 -1.49426 0
M  V30 14735 C 1378.81 1.28383 -1.62888 0
M  V30 14736 C 1379.24 1.85688 -0.300262 0
M  V30 14737 O 1378.6 1.6586 0.73212 0
M  V30 14738 C 1378.65 2.38987 -2.70033 0
M  V30 14739 O 1377.75 3.42837 -2.29208 0
M  V30 14740 H 1377.09 0.379012 -0.545202 0
M  V30 14741 H 1379.62 0.59971 -1.95613 0
M  V30 14742 H 1379.63 2.84749 -2.92202 0
M  V30 14743 H 1378.31 1.96643 -3.66475 0
M  V30 14744 H 1376.88 3.02993 -2.1737 0
M  V30 14745 N 1379.07 1.38501 0.752011 0
M  V30 14746 C 1380 1.38577 1.87933 0
M  V30 14747 C 1380.98 0.251454 1.68231 0
M  V30 14748 O 1382.16 0.45477 1.888 0
M  V30 14749 C 1379.29 1.21164 3.25479 0
M  V30 14750 C 1378.25 2.31816 3.59785 0
M  V30 14751 C 1377.57 1.99508 4.96085 0
M  V30 14752 C 1378.87 3.74082 3.645 0
M  V30 14753 H 1380.57 2.32913 1.88127 0
M  V30 14754 H 1378.11 1.12113 0.903698 0
M  V30 14755 H 1380.07 1.19842 4.04 0
M  V30 14756 H 1378.79 0.232899 3.25769 0
M  V30 14757 H 1377.45 2.32327 2.83584 0
M  V30 14758 H 1377.1 1.00114 4.92936 0
M  V30 14759 H 1376.8 2.73617 5.20007 0
M  V30 14760 H 1378.32 1.99807 5.76983 0
M  V30 14761 H 1379.74 3.75593 4.33131 0
M  V30 14762 H 1378.13 4.47409 3.99931 0
M  V30 14763 H 1379.2 4.06284 2.64692 0
M  V30 14764 N 1380.55 -0.980364 1.23396 0
M  V30 14765 C 1381.79 -1.71592 1.06015 0
M  V30 14766 C 1382.11 -1.91401 -0.403103 0
M  V30 14767 O 1383.31 -2.62405 -0.696853 0
M  V30 14768 C 1381.77 -3.08795 1.84861 0
M  V30 14769 C 1381.38 -2.96873 3.35515 0
M  V30 14770 C 1383.12 -3.8631 1.75968 0
M  V30 14771 C 1381.03 -4.29308 4.06753 0
M  V30 14772 H 1379.96 -0.643423 0.393095 0
M  V30 14773 H 1382.61 -1.09345 1.47363 0
M  V30 14774 H 1380.99 -3.71797 1.36318 0
M  V30 14775 H 1382.17 -2.4296 3.91544 0
M  V30 14776 H 1380.48 -2.32833 3.45221 0
M  V30 14777 H 1383.08 -4.84355 2.26504 0
M  V30 14778 H 1383.42 -4.09983 0.722464 0
M  V30 14779 H 1383.95 -3.3001 2.22122 0
M  V30 14780 H 1380.69 -4.10831 5.10782 0
M  V30 14781 H 1380.21 -4.83086 3.55511 0
M  V30 14782 H 1381.89 -4.97995 4.1305 0
M  V30 14783 N 1382.02 -1.04567 -1.17913 0
M  V30 14784 C 1382.93 -0.651674 -2.25367 0
M  V30 14785 C 1383.95 0.32437 -1.7095 0
M  V30 14786 O 1385.13 0.178039 -2.00612 0
M  V30 14787 C 1382.19 -0.0259452 -3.4669 0
M  V30 14788 C 1381.25 -1.05163 -4.1622 0
M  V30 14789 C 1380.48 -0.45567 -5.31751 0
M  V30 14790 O 1380.71 0.736698 -5.65623 0
M  V30 14791 O 1379.64 -1.18684 -5.90083 0
M  V30 14792 H 1383.47 -1.54704 -2.61344 0
M  V30 14793 H 1381.05 -0.816852 -1.25092 0
M  V30 14794 H 1382.93 0.322126 -4.20167 0
M  V30 14795 H 1381.61 0.843165 -3.12526 0
M  V30 14796 H 1380.52 -1.45159 -3.44789 0
M  V30 14797 H 1381.85 -1.89168 -4.54397 0
M  V30 14798 N 1383.5 1.34231 -0.825823 0
M  V30 14799 C 1384.45 2.31378 -0.23809 0
M  V30 14800 C 1385.44 1.57537 0.622767 0
M  V30 14801 O 1386.65 1.72512 0.513783 0
M  V30 14802 H 1383.02 0.74974 -0.0582516 0
M  V30 14803 H 1385 2.78471 -1.07221 0
M  V30 14804 C 1383.74 3.42778 0.582969 0
M  V30 14805 H 1383.07 3.99739 -0.0701208 0
M  V30 14806 H 1384.51 4.12983 0.960266 0
M  V30 14807 C 1382.97 2.87486 1.75651 0
M  V30 14808 O 1383.5 2.82603 2.85479 0
M  V30 14809 N 1381.7 2.4427 1.57418 0
M  V30 14810 H 1381.25 2.48441 0.680792 0
M  V30 14811 H 1381.21 2.07626 2.36091 0
M  V30 14812 N 1384.98 0.581051 1.46498 0
M  V30 14813 C 1385.93 -0.165944 2.32007 0
M  V30 14814 C 1386.92 -0.886015 1.44382 0
M  V30 14815 O 1388.13 -0.804592 1.61017 0
M  V30 14816 H 1384.5 -0.0723834 0.748508 0
M  V30 14817 H 1386.47 0.574089 2.92826 0
M  V30 14818 C 1385.22 -1.16741 3.27516 0
M  V30 14819 H 1384.55 -0.622756 3.9492 0
M  V30 14820 H 1385.99 -1.66052 3.90132 0
M  V30 14821 C 1384.44 -2.22755 2.52749 0
M  V30 14822 O 1384.97 -3.30081 2.28932 0
M  V30 14823 N 1383.18 -1.97318 2.1334 0
M  V30 14824 H 1382.73 -1.10049 2.3291 0
M  V30 14825 H 1382.69 -2.68461 1.63633 0
M  V30 14826 N 1386.46 -1.54343 0.318742 0
M  V30 14827 C 1387.37 -2.27856 -0.558442 0
M  V30 14828 C 1388.38 -1.32029 -1.13333 0
M  V30 14829 O 1389.56 -1.65037 -1.15433 0
M  V30 14830 C 1386.62 -3.01842 -1.70565 0
M  V30 14831 C 1385.69 -4.13245 -1.16305 0
M  V30 14832 C 1384.92 -4.83693 -2.25559 0
M  V30 14833 O 1385.14 -4.53621 -3.4581 0
M  V30 14834 O 1384.08 -5.70708 -1.91249 0
M  V30 14835 H 1387.9 -3.03676 0.0384247 0
M  V30 14836 H 1385.49 -1.4916 0.0845936 0
M  V30 14837 H 1387.37 -3.48189 -2.37365 0
M  V30 14838 H 1386.04 -2.28902 -2.28879 0
M  V30 14839 H 1384.95 -3.71258 -0.460274 0
M  V30 14840 H 1386.28 -4.88214 -0.625111 0
M  V30 14841 N 1387.94 -0.0468143 -1.5753 0
M  V30 14842 C 1389.16 0.637648 -1.96829 0
M  V30 14843 C 1389.58 1.64635 -0.924158 0
M  V30 14844 O 1388.94 1.82267 0.0921139 0
M  V30 14845 C 1388.99 1.32842 -3.36207 0
M  V30 14846 O 1388.71 0.360111 -4.36617 0
M  V30 14847 C 1390.21 2.10305 -3.90239 0
M  V30 14848 H 1387.43 0.174634 -0.647876 0
M  V30 14849 H 1389.97 -0.111824 -2.04194 0
M  V30 14850 H 1388.13 2.02915 -3.30006 0
M  V30 14851 H 1388.54 0.852661 -5.17523 0
M  V30 14852 H 1390.02 2.54065 -4.90056 0
M  V30 14853 H 1390.49 2.94942 -3.25432 0
M  V30 14854 H 1391.1 1.45152 -3.99764 0
M  V30 14855 N 1389.41 1.55964 0.226527 0
M  V30 14856 C 1390.34 1.95028 1.284 0
M  V30 14857 C 1391.33 0.817833 1.49149 0
M  V30 14858 O 1392.51 1.07975 1.61416 0
M  V30 14859 C 1389.64 2.26266 2.63478 0
M  V30 14860 C 1388.59 3.41954 2.57393 0
M  V30 14861 C 1387.92 3.58786 3.96456 0
M  V30 14862 C 1389.22 4.77069 2.12608 0
M  V30 14863 H 1390.91 2.83608 0.959513 0
M  V30 14864 H 1388.46 1.36451 0.460125 0
M  V30 14865 H 1390.41 2.52186 3.3761 0
M  V30 14866 H 1389.14 1.34533 2.97604 0
M  V30 14867 H 1387.8 3.16076 1.85719 0
M  V30 14868 H 1387.44 2.64437 4.27881 0
M  V30 14869 H 1387.14 4.36595 3.93267 0
M  V30 14870 H 1388.67 3.87048 4.72256 0
M  V30 14871 H 1390.08 5.02226 2.76481 0
M  V30 14872 H 1388.48 5.58126 2.2049 0
M  V30 14873 H 1389.55 4.7276 1.07823 0
M  V30 14874 N 1390.89 -0.493031 1.4969 0
M  V30 14875 C 1391.82 -1.61058 1.63074 0
M  V30 14876 C 1392.84 -1.54504 0.513069 0
M  V30 14877 O 1394.03 -1.60291 0.785431 0
M  V30 14878 C 1391.13 -2.99877 1.57883 0
M  V30 14879 C 1390.3 -3.31531 2.85317 0
M  V30 14880 C 1389.36 -4.49799 2.7307 0
M  V30 14881 O 1388.38 -4.51189 3.47012 0
M  V30 14882 N 1389.59 -5.50182 1.85148 0
M  V30 14883 H 1392.35 -1.5 2.59461 0
M  V30 14884 H 1389.91 -0.681057 1.46878 0
M  V30 14885 H 1391.9 -3.76928 1.47333 0
M  V30 14886 H 1390.47 -3.04817 0.693218 0
M  V30 14887 H 1389.69 -2.433 3.10159 0
M  V30 14888 H 1390.98 -3.49481 3.69784 0
M  V30 14889 H 1390.38 -5.51865 1.24345 0
M  V30 14890 H 1388.94 -6.26305 1.80516 0
M  V30 14891 N 1392.37 -1.38898 -0.744656 0
M  V30 14892 C 1393.6 -1.3903 -1.53901 0
M  V30 14893 C 1394.02 0.0156607 -1.88093 0
M  V30 14894 O 1393.38 1.00012 -1.51219 0
M  V30 14895 C 1393.43 -2.2609 -2.80919 0
M  V30 14896 O 1392.53 -1.68414 -3.76444 0
M  V30 14897 H 1391.87 -0.473854 -0.465144 0
M  V30 14898 H 1394.4 -1.82773 -0.919525 0
M  V30 14899 H 1394.41 -2.40264 -3.29754 0
M  V30 14900 H 1393.09 -3.28271 -2.55364 0
M  V30 14901 H 1391.66 -1.63431 -3.35179 0
M  V30 14902 N 1393.85 0.973806 -1.23914 0
M  V30 14903 C 1395.09 1.71852 -1.07678 0
M  V30 14904 C 1395.43 1.90357 0.384425 0
M  V30 14905 O 1394.7 1.46063 1.28436 0
M  V30 14906 C 1394.99 3.1129 -1.81026 0
M  V30 14907 C 1394.84 3.00315 -3.3486 0
M  V30 14908 C 1396.16 4.10835 -1.57805 0
M  V30 14909 H 1393.28 0.623749 -0.392564 0
M  V30 14910 H 1395.92 1.13325 -1.52504 0
M  V30 14911 H 1394.07 3.61255 -1.42922 0
M  V30 14912 H 1395.74 2.57823 -3.82524 0
M  V30 14913 H 1393.98 2.36667 -3.63553 0
M  V30 14914 H 1394.65 3.9907 -3.81376 0
M  V30 14915 H 1397.13 3.69705 -1.90939 0
M  V30 14916 H 1396.01 5.06478 -2.11591 0
M  V30 14917 H 1396.27 4.39091 -0.514894 0
M  V30 14918 N 1395.33 1.05191 1.17357 0
M  V30 14919 C 1396.56 0.781238 1.9126 0
M  V30 14920 C 1396.96 -0.66688 1.77057 0
M  V30 14921 O 1396.31 -1.4673 1.10526 0
M  V30 14922 C 1396.37 1.08225 3.42823 0
M  V30 14923 C 1396.03 2.52655 3.80808 0
M  V30 14924 C 1397.03 3.50864 3.83654 0
M  V30 14925 C 1394.72 2.87664 4.11771 0
M  V30 14926 C 1396.71 4.82127 4.16932 0
M  V30 14927 C 1394.4 4.1913 4.44717 0
M  V30 14928 C 1395.39 5.16172 4.47276 0
M  V30 14929 O 1395.08 6.4528 4.79447 0
M  V30 14930 H 1394.81 0.283516 0.613673 0
M  V30 14931 H 1397.37 1.40577 1.49758 0
M  V30 14932 H 1395.6 0.400623 3.84619 0
M  V30 14933 H 1397.29 0.797593 3.97987 0
M  V30 14934 H 1398.05 3.25158 3.59857 0
M  V30 14935 H 1393.93 2.12793 4.0895 0
M  V30 14936 H 1397.48 5.57867 4.18844 0
M  V30 14937 H 1393.37 4.44599 4.67976 0
M  V30 14938 H 1394.14 6.50101 4.97304 0
M  V30 14939 N 1396.8 -1.33791 0.83293 0
M  V30 14940 C 1398.08 -1.9248 0.347955 0
M  V30 14941 C 1398.46 -1.75978 -1.16597 0
M  V30 14942 O 1397.81 -1.14456 -1.97768 0
M  V30 14943 C 1398.02 -3.3998 0.78831 0
M  V30 14944 C 1399.37 -4.17131 0.7929 0
M  V30 14945 O 1400.39 -3.48607 0.731533 0
M  V30 14946 O 1399.25 -5.39446 0.875223 0
M  V30 14947 H 1396.34 -0.821264 0.0972309 0
M  V30 14948 H 1398.89 -1.42702 0.918387 0
M  V30 14949 H 1397.66 -3.45836 1.83065 0
M  V30 14950 H 1397.29 -3.97126 0.194123 0
M  V30 14951 N 1398.28 -0.588812 -1.46187 0
M  V30 14952 C 1399.25 0.130803 -2.28826 0
M  V30 14953 C 1400.25 0.813037 -1.38731 0
M  V30 14954 O 1401.44 0.664061 -1.61046 0
M  V30 14955 C 1398.57 1.19484 -3.19275 0
M  V30 14956 H 1399.76 -0.595514 -2.93928 0
M  V30 14957 H 1397.31 -0.347038 -1.52399 0
M  V30 14958 H 1398.05 1.95254 -2.58933 0
M  V30 14959 H 1397.83 0.710077 -3.85617 0
M  V30 14960 H 1399.32 1.69938 -3.81459 0
M  V30 14961 N 1399.76 1.54172 -0.326923 0
M  V30 14962 C 1400.71 2.24454 0.537501 0
M  V30 14963 C 1401.68 1.23658 1.10896 0
M  V30 14964 O 1402.86 1.52348 1.14868 0
M  V30 14965 C 1400 3.00839 1.69085 0
M  V30 14966 C 1399.12 4.16459 1.1483 0
M  V30 14967 C 1398.25 4.80368 2.26761 0
M  V30 14968 C 1397.29 5.88085 1.69771 0
M  V30 14969 N 1396.43 6.45842 2.75378 0
M  V30 14970 H 1401.27 2.97921 -0.0684022 0
M  V30 14971 H 1398.8 1.4703 -0.0455287 0
M  V30 14972 H 1400.76 3.43375 2.36959 0
M  V30 14973 H 1399.39 2.297 2.26799 0
M  V30 14974 H 1398.44 3.78683 0.361004 0
M  V30 14975 H 1399.76 4.93986 0.69132 0
M  V30 14976 H 1398.91 5.25889 3.02533 0
M  V30 14977 H 1397.65 4.02228 2.75796 0
M  V30 14978 H 1396.65 5.41963 0.924985 0
M  V30 14979 H 1397.88 6.68123 1.21609 0
M  V30 14980 H 1395.82 5.70574 3.23699 0
M  V30 14981 H 1395.74 7.18792 2.34253 0
M  V30 14982 H 1397.01 6.96018 3.50969 0
M  V30 14983 N 1401.24 0.0551678 1.57503 0
M  V30 14984 C 1402.17 -0.947102 2.08717 0
M  V30 14985 C 1403.18 -1.2722 1.01582 0
M  V30 14986 O 1404.37 -1.23229 1.29139 0
M  V30 14987 C 1401.47 -2.26756 2.51863 0
M  V30 14988 C 1400.65 -2.12378 3.8238 0
M  V30 14989 C 1399.7 -3.27582 4.11797 0
M  V30 14990 O 1398.73 -3.03309 4.81656 0
M  V30 14991 N 1399.93 -4.5218 3.64024 0
M  V30 14992 H 1402.7 -0.509957 2.9533 0
M  V30 14993 H 1400.26 -0.130976 1.61369 0
M  V30 14994 H 1402.25 -3.02701 2.68616 0
M  V30 14995 H 1400.82 -2.62024 1.70477 0
M  V30 14996 H 1400.04 -1.21 3.7517 0
M  V30 14997 H 1401.33 -2.00003 4.67842 0
M  V30 14998 H 1400.73 -4.7479 3.07556 0
M  V30 14999 H 1399.28 -5.25206 3.86008 0
M  V30 15000 N 1402.72 -1.56081 -0.218252 0
M  V30 15001 C 1403.96 -1.78893 -0.940296 0
M  V30 15002 C 1404.29 -0.62425 -1.84738 0
M  V30 15003 O 1403.56 0.358686 -1.92588 0
M  V30 15004 H 1402.14 -0.659828 -0.350193 0
M  V30 15005 H 1404.8 -1.93546 -0.229316 0
M  V30 15006 H 1403.89 -2.71167 -1.54516 0
M  V30 15007 N 1404.2 0.485086 -1.49949 0
M  V30 15008 C 1405.44 1.23999 -1.60474 0
M  V30 15009 C 1405.77 1.91904 -0.297736 0
M  V30 15010 O 1405.05 1.81472 0.699857 0
M  V30 15011 C 1405.33 2.2946 -2.77525 0
M  V30 15012 C 1405.19 1.65952 -4.18067 0
M  V30 15013 C 1406.5 3.30893 -2.90169 0
M  V30 15014 H 1403.62 0.449462 -0.584083 0
M  V30 15015 H 1406.27 0.535795 -1.82289 0
M  V30 15016 H 1404.42 2.89521 -2.59056 0
M  V30 15017 H 1406.09 1.09596 -4.48092 0
M  V30 15018 H 1404.33 0.963079 -4.22974 0
M  V30 15019 H 1405 2.42521 -4.9587 0
M  V30 15020 H 1407.48 2.8084 -3.07031 0
M  V30 15021 H 1406.35 4.02027 -3.73718 0
M  V30 15022 H 1406.61 3.94178 -2.0019 0
M  V30 15023 N 1405.67 1.39291 0.737279 0
M  V30 15024 C 1406.92 1.37597 1.49795 0
M  V30 15025 C 1407.27 -0.0289024 1.92378 0
M  V30 15026 O 1406.57 -0.994964 1.63741 0
M  V30 15027 C 1406.76 2.28043 2.75193 0
M  V30 15028 C 1406.59 3.77184 2.44871 0
M  V30 15029 C 1405.36 4.46123 2.37281 0
M  V30 15030 C 1407.56 4.69219 2.10565 0
M  V30 15031 N 1405.54 5.80612 1.99406 0
M  V30 15032 C 1406.91 5.92342 1.83115 0
M  V30 15033 C 1408.97 4.57263 1.97014 0
M  V30 15034 C 1407.67 7.04845 1.4348 0
M  V30 15035 C 1409.7 5.69686 1.58781 0
M  V30 15036 C 1409.06 6.9188 1.32215 0
M  V30 15037 H 1405.16 0.558776 0.547077 0
M  V30 15038 H 1407.74 1.74821 0.857065 0
M  V30 15039 H 1405.91 1.92981 3.37065 0
M  V30 15040 H 1407.64 2.17358 3.41376 0
M  V30 15041 H 1404.4 3.99535 2.543 0
M  V30 15042 H 1404.82 6.51779 1.83068 0
M  V30 15043 H 1409.46 3.63329 2.16222 0
M  V30 15044 H 1407.18 7.98682 1.23013 0
M  V30 15045 H 1410.77 5.62422 1.48905 0
M  V30 15046 H 1409.65 7.77397 1.03073 0
M  V30 15047 N 1407.15 -0.967221 1.24429 0
M  V30 15048 C 1408.4 -1.70688 1.08213 0
M  V30 15049 C 1408.72 -1.91268 -0.379693 0
M  V30 15050 O 1407.99 -1.49077 -1.27094 0
M  V30 15051 H 1406.57 -0.632489 0.39745 0
M  V30 15052 H 1409.23 -1.16356 1.56356 0
M  V30 15053 H 1408.33 -2.69119 1.58055 0
M  V30 15054 N 1408.63 -1.05812 -1.16797 0
M  V30 15055 C 1409.88 -0.767008 -1.86547 0
M  V30 15056 C 1410.19 0.708979 -1.82299 0
M  V30 15057 O 1411.4 1.11428 -2.4758 0
M  V30 15058 C 1409.85 -1.32186 -3.34746 0
M  V30 15059 C 1409.46 -2.82774 -3.4748 0
M  V30 15060 C 1411.21 -1.10808 -4.09783 0
M  V30 15061 C 1409.11 -3.31529 -4.89737 0
M  V30 15062 H 1408.04 -0.283235 -0.698781 0
M  V30 15063 H 1410.69 -1.27621 -1.31853 0
M  V30 15064 H 1409.08 -0.740453 -3.89016 0
M  V30 15065 H 1410.25 -3.46825 -3.03396 0
M  V30 15066 H 1408.56 -3.02765 -2.85871 0
M  V30 15067 H 1411.16 -1.44728 -5.14741 0
M  V30 15068 H 1411.5 -0.046167 -4.16274 0
M  V30 15069 H 1412.04 -1.65502 -3.61737 0
M  V30 15070 H 1408.78 -4.37177 -4.88422 0
M  V30 15071 H 1408.3 -2.72224 -5.34466 0
M  V30 15072 H 1409.98 -3.26572 -5.58534 0
M  V30 15073 N 1410.11 1.33347 -0.840014 0
M  V30 15074 C 1411.35 1.98037 -0.43692 0
M  V30 15075 C 1411.69 1.66382 1.00154 0
M  V30 15076 O 1410.96 0.944311 1.70038 0
M  V30 15077 C 1411.24 3.54012 -0.65937 0
M  V30 15078 C 1411.1 3.9535 -2.14518 0
M  V30 15079 C 1412.42 4.39972 -0.106258 0
M  V30 15080 H 1409.54 0.719373 -0.160221 0
M  V30 15081 H 1412.18 1.57969 -1.05574 0
M  V30 15082 H 1410.33 3.88274 -0.132633 0
M  V30 15083 H 1412 3.7134 -2.73687 0
M  V30 15084 H 1410.24 3.4504 -2.62926 0
M  V30 15085 H 1410.91 5.03992 -2.25158 0
M  V30 15086 H 1413.39 4.12362 -0.556511 0
M  V30 15087 H 1412.27 5.48125 -0.291583 0
M  V30 15088 H 1412.53 4.30872 0.990032 0
M  V30 15089 N 1411.59 0.596556 1.45873 0
M  V30 15090 C 1412.53 -0.128713 2.30441 0
M  V30 15091 C 1413.5 -0.870727 1.41448 0
M  V30 15092 O 1414.69 -0.858654 1.70387 0
M  V30 15093 C 1411.83 -1.1274 3.26165 0
M  V30 15094 C 1410.94 -0.387403 4.30259 0
M  V30 15095 C 1410.08 -1.37484 5.131 0
M  V30 15096 C 1409.11 -0.622025 6.08931 0
M  V30 15097 N 1408.25 -1.5582 6.84591 0
M  V30 15098 H 1413.09 0.598466 2.91929 0
M  V30 15099 H 1410.63 0.306936 1.43862 0
M  V30 15100 H 1412.59 -1.71943 3.8012 0
M  V30 15101 H 1411.22 -1.82213 2.66455 0
M  V30 15102 H 1410.27 0.319929 3.79052 0
M  V30 15103 H 1411.58 0.200477 4.98397 0
M  V30 15104 H 1410.73 -2.03926 5.71401 0
M  V30 15105 H 1409.47 -1.99665 4.44955 0
M  V30 15106 H 1408.48 0.0560936 5.49771 0
M  V30 15107 H 1409.7 -0.00541426 6.791 0
M  V30 15108 H 1407.65 -2.16786 6.19145 0
M  V30 15109 H 1407.57 -1.02347 7.4904 0
M  V30 15110 H 1408.83 -2.21254 7.4744 0
M  V30 15111 N 1413.06 -1.53996 0.335095 0
M  V30 15112 C 1414.29 -2.0489 -0.265245 0
M  V30 15113 C 1414.7 -1.21024 -1.4543 0
M  V30 15114 O 1414.04 -0.236417 -1.82172 0
M  V30 15115 C 1414.11 -3.51546 -0.752018 0
M  V30 15116 C 1413.77 -4.55904 0.316261 0
M  V30 15117 C 1414.77 -5.06881 1.15617 0
M  V30 15118 C 1412.45 -5.00117 0.467762 0
M  V30 15119 C 1414.45 -6.00644 2.13321 0
M  V30 15120 C 1412.13 -5.93692 1.4482 0
M  V30 15121 C 1413.13 -6.43842 2.27938 0
M  V30 15122 O 1412.82 -7.35578 3.24315 0
M  V30 15123 H 1412.55 -0.673631 -0.0565427 0
M  V30 15124 H 1415.11 -1.99646 0.482771 0
M  V30 15125 H 1413.34 -3.54227 -1.55114 0
M  V30 15126 H 1415.02 -3.85455 -1.27197 0
M  V30 15127 H 1415.79 -4.73494 1.05017 0
M  V30 15128 H 1411.67 -4.60689 -0.169338 0
M  V30 15129 H 1415.21 -6.39711 2.78236 0
M  V30 15130 H 1411.11 -6.26495 1.5548 0
M  V30 15131 H 1411.88 -7.53487 3.19688 0
M  V30 15132 N 1414.54 -0.0635198 -1.57472 0
M  V30 15133 C 1415.82 0.648029 -1.84553 0
M  V30 15134 C 1416.2 1.88295 -0.954371 0
M  V30 15135 O 1415.55 2.28492 -0.0185351 0
M  V30 15136 C 1415.76 0.993573 -3.34558 0
M  V30 15137 C 1417.1 1.3706 -4.0187 0
M  V30 15138 O 1418.13 1.08555 -3.39255 0
M  V30 15139 O 1416.99 1.90309 -5.12294 0
M  V30 15140 H 1414.08 0.321047 -0.76214 0
M  V30 15141 H 1416.63 -0.0938223 -1.6944 0
M  V30 15142 H 1415.4 0.116139 -3.91128 0
M  V30 15143 H 1415.02 1.79246 -3.54904 0
M  V30 15144 N 1416.02 1.56195 0.209972 0
M  V30 15145 C 1417.3 1.70553 0.957653 0
M  V30 15146 C 1417.68 0.614091 2.01971 0
M  V30 15147 O 1417.02 -0.377192 2.25365 0
M  V30 15148 C 1417.23 3.12314 1.55759 0
M  V30 15149 C 1418.58 3.72085 2.04543 0
M  V30 15150 O 1419.61 3.15349 1.65631 0
M  V30 15151 O 1418.47 4.71627 2.76099 0
M  V30 15152 H 1415.56 0.695077 0.448104 0
M  V30 15153 H 1418.11 1.68507 0.20084 0
M  V30 15154 H 1416.88 3.83215 0.791302 0
M  V30 15155 H 1416.5 3.18526 2.37964 0
M  V30 15156 N 1417.5 -0.477127 1.50204 0
M  V30 15157 C 1418.72 -1.25775 1.6491 0
M  V30 15158 C 1419.15 -1.85187 0.329765 0
M  V30 15159 O 1418.51 -1.67004 -0.705641 0
M  V30 15160 C 1418.55 -2.3466 2.73801 0
M  V30 15161 O 1417.66 -3.39147 2.34634 0
M  V30 15162 H 1417 -0.370291 0.551163 0
M  V30 15163 H 1419.53 -0.568514 1.96543 0
M  V30 15164 H 1419.54 -2.80065 2.96695 0
M  V30 15165 H 1418.21 -1.90788 3.69557 0
M  V30 15166 H 1416.79 -2.99496 2.22163 0
M  V30 15167 N 1418.98 -1.3968 -0.729882 0
M  V30 15168 C 1420.22 -1.37385 -1.49175 0
M  V30 15169 C 1420.56 0.0285839 -1.94179 0
M  V30 15170 O 1419.83 0.994516 -1.67152 0
M  V30 15171 C 1420.11 -2.35075 -2.72785 0
M  V30 15172 C 1419.97 -3.84282 -2.33767 0
M  V30 15173 C 1421.29 -2.30515 -3.74901 0
M  V30 15174 H 1418.4 -0.500359 -0.541119 0
M  V30 15175 H 1421.05 -1.7071 -0.834152 0
M  V30 15176 H 1419.2 -2.06787 -3.28894 0
M  V30 15177 H 1420.87 -4.2334 -1.8325 0
M  V30 15178 H 1419.11 -4.00809 -1.65935 0
M  V30 15179 H 1419.78 -4.48131 -3.22309 0
M  V30 15180 H 1422.26 -2.55539 -3.28389 0
M  V30 15181 H 1421.13 -3.00939 -4.5905 0
M  V30 15182 H 1421.4 -1.3119 -4.22187 0
M  V30 15183 N 1420.45 0.960609 -1.2494 0
M  V30 15184 C 1421.68 1.7446 -1.12153 0
M  V30 15185 C 1422.1 1.85335 0.321315 0
M  V30 15186 O 1421.46 1.32944 1.23271 0
M  V30 15187 C 1421.51 3.13945 -1.774 0
M  V30 15188 O 1420.61 3.9882 -1.04958 0
M  V30 15189 H 1419.96 0.536007 -0.391909 0
M  V30 15190 H 1422.49 1.2045 -1.65388 0
M  V30 15191 H 1422.5 3.64434 -1.83444 0
M  V30 15192 H 1421.17 3.05346 -2.82377 0
M  V30 15193 H 1419.75 3.57293 -1.06752 0
M  V30 15194 N 1421.93 1.0643 1.16234 0
M  V30 15195 C 1423.16 0.802644 1.90697 0
M  V30 15196 C 1423.58 -0.643145 1.77508 0
M  V30 15197 O 1422.93 -1.4404 1.12065 0
M  V30 15198 C 1422.98 1.18984 3.41358 0
M  V30 15199 O 1422.7 2.5789 3.54153 0
M  V30 15200 C 1424.21 0.956132 4.32866 0
M  V30 15201 H 1421.43 0.290891 0.604668 0
M  V30 15202 H 1423.97 1.41829 1.47325 0
M  V30 15203 H 1422.12 0.618703 3.82428 0
M  V30 15204 H 1422.54 2.73431 4.47589 0
M  V30 15205 H 1424.01 1.27667 5.37034 0
M  V30 15206 H 1424.49 -0.108062 4.39067 0
M  V30 15207 H 1425.1 1.51172 3.97526 0
M  V30 15208 N 1423.41 -1.329 0.847073 0
M  V30 15209 C 1424.66 -1.96774 0.443022 0
M  V30 15210 C 1424.97 -1.67813 -1.0049 0
M  V30 15211 O 1426.18 -2.25366 -1.51402 0
M  V30 15212 C 1424.63 -3.52184 0.741268 0
M  V30 15213 C 1424.24 -3.90013 2.20441 0
M  V30 15214 C 1425.99 -4.22568 0.404569 0
M  V30 15215 C 1423.89 -5.38434 2.44627 0
M  V30 15216 H 1422.82 -0.736406 0.161932 0
M  V30 15217 H 1425.47 -1.51402 1.0368 0
M  V30 15218 H 1423.86 -3.95925 0.0770158 0
M  V30 15219 H 1425.03 -3.57304 2.90982 0
M  V30 15220 H 1423.35 -3.32633 2.50489 0
M  V30 15221 H 1425.94 -5.3173 0.562795 0
M  V30 15222 H 1426.29 -4.11144 -0.653172 0
M  V30 15223 H 1426.82 -3.84384 1.0244 0
M  V30 15224 H 1423.56 -5.5487 3.48997 0
M  V30 15225 H 1423.08 -5.72575 1.78656 0
M  V30 15226 H 1424.76 -6.05423 2.28194 0
M  V30 15227 N 1424.89 -0.604284 -1.45555 0
M  V30 15228 C 1426.11 -0.102634 -2.07146 0
M  V30 15229 C 1426.54 1.20239 -1.44652 0
M  V30 15230 O 1425.9 1.73133 -0.538033 0
M  V30 15231 C 1425.94 0.0270231 -3.6059 0
M  V30 15232 O 1425.05 1.0781 -3.98059 0
M  V30 15233 H 1424.39 -0.0725667 -0.660023 0
M  V30 15234 H 1426.92 -0.833355 -1.86859 0
M  V30 15235 H 1426.93 0.226299 -4.07372 0
M  V30 15236 H 1425.6 -0.925896 -4.05463 0
M  V30 15237 H 1424.18 0.855552 -3.62953 0
M  V30 15238 N 1426.37 1.53816 -0.343257 0
M  V30 15239 C 1427.31 2.26505 0.529002 0
M  V30 15240 C 1428.31 1.28639 1.1022 0
M  V30 15241 O 1429.51 1.46348 1.04797 0
M  V30 15242 H 1425.89 0.727789 0.189279 0
M  V30 15243 H 1427.86 2.98211 -0.106096 0
M  V30 15244 C 1426.61 3.05062 1.6683 0
M  V30 15245 H 1425.93 3.80198 1.23651 0
M  V30 15246 H 1427.37 3.59138 2.2538 0
M  V30 15247 C 1425.83 2.14543 2.59756 0
M  V30 15248 O 1426.36 1.74132 3.61996 0
M  V30 15249 N 1424.57 1.79628 2.28434 0
M  V30 15250 H 1424.11 2.12688 1.45332 0
M  V30 15251 H 1424.07 1.19345 2.90868 0
M  V30 15252 N 1427.84 0.0718701 1.57436 0
M  V30 15253 C 1428.78 -0.924911 2.09709 0
M  V30 15254 C 1429.79 -1.26136 1.02925 0
M  V30 15255 O 1430.98 -1.21853 1.30438 0
M  V30 15256 C 1428.08 -2.24072 2.54254 0
M  V30 15257 C 1427.25 -2.0831 3.84611 0
M  V30 15258 C 1426.31 -3.23196 4.15248 0
M  V30 15259 O 1425.34 -2.98184 4.84846 0
M  V30 15260 N 1426.54 -4.48293 3.688 0
M  V30 15261 H 1429.3 -0.478605 2.95854 0
M  V30 15262 H 1426.86 -0.113853 1.61499 0
M  V30 15263 H 1428.86 -2.99835 2.71811 0
M  V30 15264 H 1427.43 -2.60201 1.73246 0
M  V30 15265 H 1426.65 -1.17014 3.76432 0
M  V30 15266 H 1427.93 -1.9503 4.69937 0
M  V30 15267 H 1427.33 -4.71501 3.12575 0
M  V30 15268 H 1425.89 -5.21082 3.91556 0
M  V30 15269 N 1429.32 -1.56304 -0.201686 0
M  V30 15270 C 1430.57 -1.80237 -0.923093 0
M  V30 15271 C 1430.9 -0.643994 -1.83529 0
M  V30 15272 O 1430.15 0.370613 -1.92159 0
M  V30 15273 C 1430.45 -3.10101 -1.77686 0
M  V30 15274 C 1430.12 -4.393 -1.0162 0
M  V30 15275 C 1428.78 -4.74399 -0.806161 0
M  V30 15276 C 1431.13 -5.1898 -0.480515 0
M  V30 15277 C 1428.46 -5.8668 -0.0488423 0
M  V30 15278 C 1430.81 -6.32051 0.26356 0
M  V30 15279 C 1429.48 -6.65738 0.484679 0
M  V30 15280 H 1428.75 -0.659533 -0.337784 0
M  V30 15281 H 1431.39 -1.90556 -0.189895 0
M  V30 15282 H 1429.7 -2.9499 -2.57853 0
M  V30 15283 H 1431.39 -3.25823 -2.33753 0
M  V30 15284 H 1427.98 -4.11751 -1.18992 0
M  V30 15285 H 1432.17 -4.92283 -0.630208 0
M  V30 15286 H 1427.42 -6.11256 0.13251 0
M  V30 15287 H 1431.6 -6.93012 0.686058 0
M  V30 15288 H 1429.23 -7.52583 1.07341 0
M  V30 15289 N 1430.8 0.469154 -1.50455 0
M  V30 15290 C 1431.73 1.58443 -1.65615 0
M  V30 15291 C 1432.75 1.53668 -0.537584 0
M  V30 15292 O 1433.93 1.59021 -0.810832 0
M  V30 15293 C 1431.03 2.97327 -1.62634 0
M  V30 15294 C 1430.21 3.2695 -2.90555 0
M  V30 15295 C 1429.27 4.45398 -2.80191 0
M  V30 15296 O 1428.29 4.45611 -3.54146 0
M  V30 15297 N 1429.49 5.47167 -1.93878 0
M  V30 15298 H 1432.26 1.45854 -2.61814 0
M  V30 15299 H 1429.82 0.657604 -1.47943 0
M  V30 15300 H 1431.81 3.74537 -1.53311 0
M  V30 15301 H 1430.38 3.03675 -0.741624 0
M  V30 15302 H 1429.6 2.38335 -3.13991 0
M  V30 15303 H 1430.89 3.43554 -3.75297 0
M  V30 15304 H 1430.29 5.49817 -1.33109 0
M  V30 15305 H 1428.85 6.23353 -1.90457 0
M  V30 15306 N 1432.28 1.40065 0.722464 0
M  V30 15307 C 1433.52 1.38175 1.48444 0
M  V30 15308 C 1433.86 -0.0182857 1.94191 0
M  V30 15309 O 1433.13 -0.985638 1.67677 0
M  V30 15310 C 1433.42 2.36518 2.71535 0
M  V30 15311 C 1433.27 3.85517 2.31726 0
M  V30 15312 C 1434.59 2.325 3.73673 0
M  V30 15313 H 1431.71 0.503221 0.538458 0
M  V30 15314 H 1434.35 1.7115 0.825087 0
M  V30 15315 H 1432.5 2.08529 3.27793 0
M  V30 15316 H 1434.17 4.24306 1.81003 0
M  V30 15317 H 1432.41 4.01684 1.63807 0
M  V30 15318 H 1433.08 4.49834 3.19928 0
M  V30 15319 H 1435.56 2.57277 3.27029 0
M  V30 15320 H 1434.44 3.03369 4.57447 0
M  V30 15321 H 1434.7 1.33427 4.21485 0
M  V30 15322 N 1433.76 -0.95397 1.25448 0
M  V30 15323 C 1434.69 -2.06828 1.08372 0
M  V30 15324 C 1435.67 -1.70098 -0.00741585 0
M  V30 15325 O 1436.85 -1.93521 0.16224 0
M  V30 15326 C 1433.98 -3.40124 0.702365 0
M  V30 15327 C 1432.94 -3.90865 1.74381 0
M  V30 15328 C 1432.26 -5.20663 1.21712 0
M  V30 15329 C 1433.56 -4.17169 3.14273 0
M  V30 15330 H 1435.26 -2.21372 2.01581 0
M  V30 15331 H 1432.8 -1.06374 0.970592 0
M  V30 15332 H 1434.76 -4.17529 0.569837 0
M  V30 15333 H 1433.48 -3.2552 -0.265428 0
M  V30 15334 H 1432.14 -3.15628 1.86479 0
M  V30 15335 H 1431.79 -5.02429 0.23954 0
M  V30 15336 H 1431.49 -5.55581 1.91319 0
M  V30 15337 H 1433.01 -6.00665 1.097 0
M  V30 15338 H 1434.43 -4.85231 3.05325 0
M  V30 15339 H 1432.82 -4.63344 3.81356 0
M  V30 15340 H 1433.89 -3.23421 3.61285 0
M  V30 15341 N 1435.24 -1.07045 -1.15668 0
M  V30 15342 C 1436.18 -0.688004 -2.20307 0
M  V30 15343 C 1437.15 0.319081 -1.63006 0
M  V30 15344 O 1438.34 0.206239 -1.89682 0
M  V30 15345 C 1435.48 -0.0886692 -3.44986 0
M  V30 15346 C 1434.59 -1.14685 -4.16499 0
M  V30 15347 C 1433.73 -0.512852 -5.28719 0
M  V30 15348 C 1432.76 -1.55404 -5.92044 0
M  V30 15349 N 1431.9 -0.942848 -6.9574 0
M  V30 15350 H 1436.74 -1.58469 -2.52372 0
M  V30 15351 H 1434.28 -0.792184 -1.23947 0
M  V30 15352 H 1436.24 0.276415 -4.16283 0
M  V30 15353 H 1434.87 0.77139 -3.13448 0
M  V30 15354 H 1433.92 -1.62955 -3.43729 0
M  V30 15355 H 1435.23 -1.93643 -4.59678 0
M  V30 15356 H 1434.38 -0.0952274 -6.06625 0
M  V30 15357 H 1433.12 0.308524 -4.86723 0
M  V30 15358 H 1432.13 -1.98148 -5.12852 0
M  V30 15359 H 1433.35 -2.37765 -6.36117 0
M  V30 15360 H 1431.3 -0.142319 -6.55846 0
M  V30 15361 H 1431.22 -1.6697 -7.37331 0
M  V30 15362 H 1432.48 -0.550621 -7.77553 0
M  V30 15363 N 1436.71 1.32449 -0.85411 0
M  V30 15364 C 1438.13 1.50046 -0.543895 0
M  V30 15365 C 1438.33 1.78985 0.925561 0
M  V30 15366 O 1437.39 1.85909 1.70862 0
M  V30 15367 C 1438.7 2.64499 -1.43041 0
M  V30 15368 C 1440.25 2.78384 -1.43078 0
M  V30 15369 C 1440.72 3.95915 -2.3025 0
M  V30 15370 N 1442.21 4.03176 -2.28043 0
M  V30 15371 C 1442.95 4.9335 -2.92221 0
M  V30 15372 N 1442.44 5.88536 -3.6551 0
M  V30 15373 N 1444.24 4.86468 -2.81612 0
M  V30 15374 H 1436.39 1.11931 -1.80514 0
M  V30 15375 H 1438.65 0.551626 -0.770982 0
M  V30 15376 H 1438.36 2.49842 -2.47532 0
M  V30 15377 H 1438.23 3.60269 -1.11742 0
M  V30 15378 H 1440.62 2.92464 -0.393529 0
M  V30 15379 H 1440.7 1.83329 -1.78393 0
M  V30 15380 H 1440.34 3.82594 -3.34043 0
M  V30 15381 H 1440.27 4.90245 -1.92268 0
M  V30 15382 H 1442.76 3.35064 -1.74759 0
M  V30 15383 H 1443.08 6.54038 -4.11648 0
M  V30 15384 H 1441.42 5.88564 -3.69618 0
M  V30 15385 H 1444.61 4.11076 -2.23907 0
M  V30 15386 H 1444.79 5.56542 -3.3191 0
M  V30 15387 N 1438.19 0.611994 1.45232 0
M  V30 15388 C 1439.44 0.108696 2.01807 0
M  V30 15389 C 1439.76 -1.26692 1.48237 0
M  V30 15390 O 1439.03 -1.8378 0.678368 0
M  V30 15391 H 1437.61 0.0371921 0.746074 0
M  V30 15392 H 1440.27 0.794386 1.77976 0
M  V30 15393 H 1439.37 0.0618207 3.12039 0
M  V30 15394 N 1439.67 -1.53632 0.351409 0
M  V30 15395 C 1440.92 -2.01338 -0.243047 0
M  V30 15396 C 1441.25 -1.23864 -1.4957 0
M  V30 15397 O 1440.52 -0.328412 -1.91707 0
M  V30 15398 C 1440.81 -3.55886 -0.549284 0
M  V30 15399 C 1440.66 -4.44064 0.716016 0
M  V30 15400 C 1441.98 -4.18699 -1.35569 0
M  V30 15401 H 1439.1 -0.731863 -0.0868627 0
M  V30 15402 H 1441.74 -1.84005 0.473501 0
M  V30 15403 H 1439.89 -3.70787 -1.15972 0
M  V30 15404 H 1441.56 -4.40987 1.35383 0
M  V30 15405 H 1439.8 -4.12608 1.3393 0
M  V30 15406 H 1440.48 -5.50106 0.456895 0
M  V30 15407 H 1442.95 -4.07545 -0.839441 0
M  V30 15408 H 1441.83 -5.26892 -1.53871 0
M  V30 15409 H 1442.09 -3.73834 -2.3601 0
M  V30 15410 N 1441.15 -0.0802183 -1.57396 0
M  V30 15411 C 1442.38 0.59489 -1.9785 0
M  V30 15412 C 1442.79 1.63174 -0.957641 0
M  V30 15413 O 1442.13 1.83592 0.0629632 0
M  V30 15414 C 1442.19 1.31367 -3.34639 0
M  V30 15415 C 1441.85 0.429303 -4.54979 0
M  V30 15416 C 1442.85 -0.316537 -5.18935 0
M  V30 15417 C 1440.54 0.351714 -5.01067 0
M  V30 15418 C 1442.53 -1.1281 -6.27338 0
M  V30 15419 C 1440.22 -0.463513 -6.0934 0
M  V30 15420 C 1441.22 -1.20208 -6.72338 0
M  V30 15421 O 1440.9 -2.00385 -7.78525 0
M  V30 15422 H 1440.64 0.165331 -0.655471 0
M  V30 15423 H 1443.19 -0.151697 -2.04839 0
M  V30 15424 H 1441.42 2.10651 -3.24289 0
M  V30 15425 H 1443.11 1.88184 -3.59641 0
M  V30 15426 H 1443.87 -0.266237 -4.84269 0
M  V30 15427 H 1439.75 0.916218 -4.51804 0
M  V30 15428 H 1443.3 -1.70508 -6.76441 0
M  V30 15429 H 1439.19 -0.515347 -6.4344 0
M  V30 15430 H 1439.96 -1.92907 -7.95443 0
M  V30 15431 N 1442.63 1.56409 0.193394 0
M  V30 15432 C 1443.85 1.84837 0.929676 0
M  V30 15433 C 1444.27 0.662928 1.76779 0
M  V30 15434 O 1443.63 -0.368339 1.78744 0
M  V30 15435 C 1443.68 3.12083 1.82445 0
M  V30 15436 O 1443.4 4.26056 1.02018 0
M  V30 15437 C 1444.9 3.53701 2.67227 0
M  V30 15438 H 1442.12 0.613766 0.271168 0
M  V30 15439 H 1444.66 2.03518 0.200134 0
M  V30 15440 H 1442.82 2.95294 2.5076 0
M  V30 15441 H 1443.23 4.98526 1.63008 0
M  V30 15442 H 1444.71 4.45699 3.25663 0
M  V30 15443 H 1445.18 2.76771 3.41019 0
M  V30 15444 H 1445.79 3.73027 2.04281 0
M  V30 15445 N 1444.1 -0.461169 1.50702 0
M  V30 15446 C 1445.35 -1.20934 1.61425 0
M  V30 15447 C 1445.67 -1.92884 0.32481 0
M  V30 15448 O 1446.87 -2.69712 0.311081 0
M  V30 15449 C 1445.33 -2.19797 2.84987 0
M  V30 15450 C 1444.94 -1.53604 4.20844 0
M  V30 15451 C 1446.68 -2.95194 3.05059 0
M  V30 15452 C 1444.59 -2.50811 5.35582 0
M  V30 15453 H 1443.52 -0.455088 0.601174 0
M  V30 15454 H 1446.17 -0.478771 1.77144 0
M  V30 15455 H 1444.55 -2.96187 2.62848 0
M  V30 15456 H 1445.72 -0.829345 4.53275 0
M  V30 15457 H 1444.04 -0.904504 4.06457 0
M  V30 15458 H 1446.64 -3.67965 3.87951 0
M  V30 15459 H 1446.98 -3.5516 2.1718 0
M  V30 15460 H 1447.51 -2.25915 3.27425 0
M  V30 15461 H 1444.25 -1.9557 6.25646 0
M  V30 15462 H 1443.77 -3.19604 5.07556 0
M  V30 15463 H 1445.45 -3.12437 5.66561 0
M  V30 15464 N 1445.58 -1.40446 -0.715026 0
M  V30 15465 C 1447 -1.22488 -1.02317 0
M  V30 15466 C 1447.2 -0.100481 -2.01249 0
M  V30 15467 O 1446.25 0.541447 -2.46626 0
M  V30 15468 C 1447.57 -2.56682 -1.56636 0
M  V30 15469 C 1449.11 -2.63699 -1.68617 0
M  V30 15470 C 1449.59 -3.98163 -2.26342 0
M  V30 15471 N 1451.08 -3.99907 -2.33727 0
M  V30 15472 C 1451.82 -5.00737 -2.79375 0
M  V30 15473 N 1451.31 -6.11961 -3.24771 0
M  V30 15474 N 1453.1 -4.88106 -2.78764 0
M  V30 15475 H 1445.26 -2.12317 -0.0592712 0
M  V30 15476 H 1447.52 -0.943823 -0.088895 0
M  V30 15477 H 1447.22 -3.39615 -0.914036 0
M  V30 15478 H 1447.1 -2.77809 -2.55151 0
M  V30 15479 H 1449.49 -1.81138 -2.32966 0
M  V30 15480 H 1449.57 -2.46402 -0.687004 0
M  V30 15481 H 1449.21 -4.81164 -1.62614 0
M  V30 15482 H 1449.14 -4.1279 -3.26974 0
M  V30 15483 H 1451.63 -3.19592 -2.01666 0
M  V30 15484 H 1451.94 -6.84787 -3.58171 0
M  V30 15485 H 1450.29 -6.15525 -3.22729 0
M  V30 15486 H 1453.48 -4.00307 -2.42635 0
M  V30 15487 H 1453.65 -5.66828 -3.14023 0
M  V30 15488 N 1447.06 0.947303 -1.25952 0
M  V30 15489 C 1448.01 2.04511 -1.06976 0
M  V30 15490 C 1448.98 1.66084 0.023347 0
M  V30 15491 O 1450.16 1.9032 -0.135247 0
M  V30 15492 C 1447.3 3.37878 -0.70232 0
M  V30 15493 C 1446.41 3.89379 -1.87105 0
M  V30 15494 C 1445.55 5.11104 -1.44728 0
M  V30 15495 C 1444.59 5.54852 -2.58469 0
M  V30 15496 N 1443.73 6.67784 -2.16817 0
M  V30 15497 H 1448.57 2.20075 -2.00925 0
M  V30 15498 H 1446.1 1.07837 -1.00048 0
M  V30 15499 H 1448.06 4.14542 -0.470199 0
M  V30 15500 H 1446.69 3.22179 0.20019 0
M  V30 15501 H 1445.74 3.09169 -2.21627 0
M  V30 15502 H 1447.05 4.17789 -2.72496 0
M  V30 15503 H 1446.21 5.95208 -1.17525 0
M  V30 15504 H 1444.95 4.84426 -0.564191 0
M  V30 15505 H 1443.95 4.69308 -2.86409 0
M  V30 15506 H 1445.18 5.83534 -3.47368 0
M  V30 15507 H 1443.12 6.428 -1.30934 0
M  V30 15508 H 1443.04 6.95749 -2.95753 0
M  V30 15509 H 1444.31 7.55278 -1.92809 0
M  V30 15510 N 1448.54 1.07657 1.15099 0
M  V30 15511 C 1449.45 0.711198 2.2356 0
M  V30 15512 C 1450.46 -0.278932 1.7175 0
M  V30 15513 O 1451.64 -0.124788 2.01013 0
M  V30 15514 C 1448.71 0.117855 3.465 0
M  V30 15515 C 1447.77 1.16162 4.13286 0
M  V30 15516 C 1447 0.596494 5.30356 0
M  V30 15517 O 1447.22 -0.586474 5.67377 0
M  V30 15518 O 1446.16 1.34288 5.86729 0
M  V30 15519 H 1449.98 1.61578 2.5715 0
M  V30 15520 H 1447.57 0.84973 1.22882 0
M  V30 15521 H 1449.45 -0.210613 4.20873 0
M  V30 15522 H 1448.12 -0.760008 3.14652 0
M  V30 15523 H 1447.03 1.54249 3.4082 0
M  V30 15524 H 1448.36 2.01149 4.49221 0
M  V30 15525 N 1450.02 -1.31994 0.861122 0
M  V30 15526 C 1451.26 -1.96636 0.466754 0
M  V30 15527 C 1451.59 -1.6845 -0.982328 0
M  V30 15528 O 1450.86 -0.995157 -1.68741 0
M  V30 15529 H 1449.44 -0.727489 0.169613 0
M  V30 15530 H 1452.1 -1.60962 1.09897 0
M  V30 15531 H 1451.19 -3.05937 0.61716 0
M  V30 15532 N 1451.49 -0.619688 -1.44906 0
M  V30 15533 C 1452.77 -0.0510703 -1.95533 0
M  V30 15534 C 1453.15 1.42013 -1.56191 0
M  V30 15535 O 1452.5 2.12879 -0.830356 0
M  V30 15536 C 1452.71 -0.261896 -3.48016 0
M  V30 15537 C 1454.06 -0.149057 -4.24338 0
M  V30 15538 O 1455.08 -0.192655 -3.55679 0
M  V30 15539 O 1453.94 -0.0443345 -5.46482 0
M  V30 15540 H 1451.03 0.0288461 -0.826497 0
M  V30 15541 H 1453.58 -0.690594 -1.55013 0
M  V30 15542 H 1452.35 -1.28319 -3.69662 0
M  V30 15543 H 1451.98 0.412314 -3.95456 0
M  V30 15544 N 1452.97 1.53444 -0.359552 0
M  V30 15545 C 1453.88 2.29257 0.497834 0
M  V30 15546 C 1454.9 1.34987 1.09793 0
M  V30 15547 O 1456.07 1.68039 1.11017 0
M  V30 15548 C 1453.14 3.06258 1.62502 0
M  V30 15549 C 1452.2 4.16183 1.05308 0
M  V30 15550 C 1451.43 4.89503 2.12655 0
M  V30 15551 O 1451.66 4.6263 3.33661 0
M  V30 15552 O 1450.59 5.75578 1.76051 0
M  V30 15553 H 1454.42 3.03467 -0.118925 0
M  V30 15554 H 1452 1.48884 -0.124111 0
M  V30 15555 H 1453.88 3.5436 2.2805 0
M  V30 15556 H 1452.56 2.3489 2.22729 0
M  V30 15557 H 1451.47 3.72348 0.361679 0
M  V30 15558 H 1452.8 4.897 0.49545 0
M  V30 15559 N 1454.45 0.0885642 1.57351 0
M  V30 15560 C 1455.68 -0.584389 1.98163 0
M  V30 15561 C 1456.09 -1.62664 0.966281 0
M  V30 15562 O 1455.43 -1.83623 -0.053226 0
M  V30 15563 C 1455.49 -1.2959 3.35331 0
M  V30 15564 C 1455.16 -0.405168 4.552 0
M  V30 15565 C 1456.15 0.344053 5.1876 0
M  V30 15566 C 1453.84 -0.325136 5.01247 0
M  V30 15567 C 1455.83 1.16135 6.26731 0
M  V30 15568 C 1453.52 0.495821 6.09085 0
M  V30 15569 C 1454.52 1.23772 6.71691 0
M  V30 15570 O 1454.21 2.04511 7.77451 0
M  V30 15571 H 1453.94 -0.161852 0.656338 0
M  V30 15572 H 1456.49 0.162558 2.04756 0
M  V30 15573 H 1454.72 -2.08928 3.25401 0
M  V30 15574 H 1456.41 -1.86274 3.60634 0
M  V30 15575 H 1457.18 0.291916 4.84121 0
M  V30 15576 H 1453.06 -0.892245 4.52283 0
M  V30 15577 H 1456.6 1.74093 6.75528 0
M  V30 15578 H 1452.5 0.549463 6.43157 0
M  V30 15579 H 1453.27 1.97123 7.94409 0
M  V30 15580 N 1455.93 -1.56509 -0.185096 0
M  V30 15581 C 1456.88 -1.95336 -1.22934 0
M  V30 15582 C 1457.85 -0.81532 -1.44713 0
M  V30 15583 O 1459.03 -1.07431 -1.57681 0
M  V30 15584 C 1456.17 -2.30671 -2.56681 0
M  V30 15585 C 1455.28 -3.57586 -2.42397 0
M  V30 15586 C 1454.42 -3.82197 -3.68916 0
M  V30 15587 C 1453.46 -5.02505 -3.49507 0
M  V30 15588 N 1452.59 -5.23319 -4.68062 0
M  V30 15589 H 1457.43 -2.84361 -0.89123 0
M  V30 15590 H 1454.97 -1.40715 -0.428689 0
M  V30 15591 H 1456.93 -2.49176 -3.34615 0
M  V30 15592 H 1455.56 -1.44773 -2.88514 0
M  V30 15593 H 1454.61 -3.47072 -1.55709 0
M  V30 15594 H 1455.92 -4.45677 -2.23994 0
M  V30 15595 H 1455.08 -4.00996 -4.55288 0
M  V30 15596 H 1453.82 -2.92455 -3.90284 0
M  V30 15597 H 1452.82 -4.83619 -2.6152 0
M  V30 15598 H 1454.05 -5.93765 -3.29574 0
M  V30 15599 H 1451.99 -4.36526 -4.89674 0
M  V30 15600 H 1451.91 -6.05608 -4.52521 0
M  V30 15601 H 1453.18 -5.46585 -5.55757 0
M  V30 15602 N 1457.41 0.45317 -1.50944 0
M  V30 15603 C 1458.66 1.20076 -1.62064 0
M  V30 15604 C 1458.97 1.92709 -0.335034 0
M  V30 15605 O 1460.17 2.69543 -0.32538 0
M  V30 15606 C 1458.63 2.18283 -2.86148 0
M  V30 15607 C 1458.24 1.5137 -4.21653 0
M  V30 15608 C 1459.98 2.93572 -3.0662 0
M  V30 15609 C 1457.89 2.47968 -5.36904 0
M  V30 15610 H 1456.82 0.451894 -0.603579 0
M  V30 15611 H 1459.47 0.46937 -1.77396 0
M  V30 15612 H 1457.85 2.94789 -2.64415 0
M  V30 15613 H 1459.03 0.805295 -4.53709 0
M  V30 15614 H 1457.34 0.882935 -4.06931 0
M  V30 15615 H 1459.94 3.65903 -3.89897 0
M  V30 15616 H 1460.28 3.54003 -2.1906 0
M  V30 15617 H 1460.81 2.24175 -3.28619 0
M  V30 15618 H 1457.55 1.92249 -6.26674 0
M  V30 15619 H 1457.07 3.16907 -5.09244 0
M  V30 15620 H 1458.75 3.09428 -5.6821 0
M  V30 15621 N 1458.88 1.40823 0.707568 0
M  V30 15622 C 1459.85 1.41464 1.80334 0
M  V30 15623 C 1460.85 0.307143 1.57839 0
M  V30 15624 O 1462.04 0.566444 1.64733 0
M  V30 15625 C 1459.17 1.21426 3.18541 0
M  V30 15626 H 1460.36 2.38998 1.81162 0
M  V30 15627 H 1457.92 1.2679 0.914007 0
M  V30 15628 H 1458.65 0.246847 3.23359 0
M  V30 15629 H 1458.44 2.01657 3.36269 0
M  V30 15630 H 1459.93 1.24681 3.98553 0
M  V30 15631 N 1460.36 -0.94061 1.26453 0
M  V30 15632 C 1461.59 -1.71874 1.14643 0
M  V30 15633 C 1462 -1.86791 -0.300969 0
M  V30 15634 O 1461.34 -1.37529 -1.21784 0
M  V30 15635 C 1461.41 -3.14408 1.74321 0
M  V30 15636 C 1461.07 -3.22873 3.23422 0
M  V30 15637 C 1462.07 -3.06107 4.20231 0
M  V30 15638 C 1459.75 -3.46245 3.63895 0
M  V30 15639 C 1461.75 -3.12581 5.55492 0
M  V30 15640 C 1459.43 -3.52354 4.99289 0
M  V30 15641 C 1460.43 -3.35539 5.94897 0
M  V30 15642 O 1460.12 -3.41357 7.27826 0
M  V30 15643 H 1459.85 -0.544931 0.400033 0
M  V30 15644 H 1462.4 -1.18767 1.67581 0
M  V30 15645 H 1460.63 -3.6894 1.15846 0
M  V30 15646 H 1462.32 -3.74135 1.57409 0
M  V30 15647 H 1463.09 -2.87906 3.90302 0
M  V30 15648 H 1458.97 -3.58389 2.89962 0
M  V30 15649 H 1462.51 -2.99374 6.30096 0
M  V30 15650 H 1458.41 -3.70077 5.2888 0
M  V30 15651 H 1459.18 -3.57897 7.36106 0
M  V30 15652 N 1461.84 -1.08266 -1.14527 0
M  V30 15653 C 1463.07 -0.831673 -1.89121 0
M  V30 15654 C 1463.48 0.619702 -1.78763 0
M  V30 15655 O 1462.82 1.43748 -1.14377 0
M  V30 15656 C 1462.88 -1.17276 -3.39833 0
M  V30 15657 C 1462.55 -2.62662 -3.73975 0
M  V30 15658 C 1463.54 -3.60913 -3.74216 0
M  V30 15659 C 1461.23 -2.9848 -4.03999 0
M  V30 15660 C 1463.22 -4.93012 -4.04002 0
M  V30 15661 C 1460.91 -4.30773 -4.33448 0
M  V30 15662 C 1461.91 -5.27849 -4.33433 0
M  V30 15663 O 1461.6 -6.57765 -4.6217 0
M  V30 15664 H 1461.33 -0.299687 -0.60594 0
M  V30 15665 H 1463.88 -1.44498 -1.45978 0
M  V30 15666 H 1462.11 -0.502458 -3.83422 0
M  V30 15667 H 1463.8 -0.902831 -3.95732 0
M  V30 15668 H 1464.57 -3.34585 -3.5111 0
M  V30 15669 H 1460.45 -2.23561 -4.03164 0
M  V30 15670 H 1463.99 -5.68776 -4.03906 0
M  V30 15671 H 1459.89 -4.5685 -4.56024 0
M  V30 15672 H 1460.66 -6.63057 -4.79893 0
M  V30 15673 N 1463.32 1.31536 -0.86811 0
M  V30 15674 C 1464.27 2.30504 -0.311581 0
M  V30 15675 C 1465.26 1.59439 0.572332 0
M  V30 15676 O 1466.47 1.74059 0.458639 0
M  V30 15677 H 1462.84 0.747508 -0.0820745 0
M  V30 15678 H 1464.81 2.74919 -1.16026 0
M  V30 15679 C 1463.56 3.44459 0.473622 0
M  V30 15680 H 1462.89 3.99313 -0.197259 0
M  V30 15681 H 1464.33 4.15829 0.828393 0
M  V30 15682 C 1462.78 2.92929 1.66416 0
M  V30 15683 O 1463.31 2.91543 2.76344 0
M  V30 15684 N 1461.52 2.49154 1.49568 0
M  V30 15685 H 1461.07 2.50481 0.601408 0
M  V30 15686 H 1461.03 2.15032 2.29366 0
M  V30 15687 N 1464.8 0.627364 1.44575 0
M  V30 15688 C 1466.21 0.213149 1.85479 0
M  V30 15689 C 1466.56 -1.23458 1.52488 0
M  V30 15690 O 1465.68 -1.93885 0.961115 0
M  V30 15691 C 1466.28 0.380063 3.36661 0
M  V30 15692 C 1464.84 0.020385 3.76394 0
M  V30 15693 C 1463.99 0.695225 2.68444 0
M  V30 15694 H 1466.94 0.832771 1.35095 0
M  V30 15695 H 1466.96 -0.382078 3.78577 0
M  V30 15696 H 1466.47 1.43383 3.60642 0
M  V30 15697 H 1464.57 -1.03179 3.58029 0
M  V30 15698 H 1464.68 0.42782 4.77186 0
M  V30 15699 H 1463.05 0.130898 2.54363 0
M  V30 15700 H 1463.83 1.75151 2.95257 0
M  V30 15701 N 1466.28 -1.53251 0.367684 0
M  V30 15702 C 1467.19 -2.29518 -0.485669 0
M  V30 15703 C 1468.2 -1.35568 -1.09075 0
M  V30 15704 O 1469.38 -1.68626 -1.10124 0
M  V30 15705 C 1466.44 -3.07115 -1.60876 0
M  V30 15706 C 1465.5 -4.16736 -1.031 0
M  V30 15707 C 1464.74 -4.90624 -2.10056 0
M  V30 15708 O 1464.96 -4.64393 -3.31203 0
M  V30 15709 O 1463.89 -5.76503 -1.72996 0
M  V30 15710 H 1467.72 -3.034 0.135017 0
M  V30 15711 H 1465.3 -1.48816 0.132005 0
M  V30 15712 H 1467.19 -3.55564 -2.26168 0
M  V30 15713 H 1465.86 -2.36068 -2.21481 0
M  V30 15714 H 1464.77 -3.72534 -0.341928 0
M  V30 15715 H 1466.1 -4.89956 -0.469473 0
M  V30 15716 N 1467.75 -0.0969077 -1.57302 0
M  V30 15717 C 1468.98 0.574705 -1.98758 0
M  V30 15718 C 1469.4 1.61612 -0.976067 0
M  V30 15719 O 1468.75 1.82468 0.0340803 0
M  V30 15720 C 1468.8 1.22078 -3.40263 0
M  V30 15721 O 1468.53 0.221022 -4.37542 0
M  V30 15722 C 1470.03 1.97783 -3.96732 0
M  V30 15723 H 1467.25 0.153934 -0.653104 0
M  V30 15724 H 1469.79 -0.17673 -2.03735 0
M  V30 15725 H 1467.95 1.92314 -3.36295 0
M  V30 15726 H 1468.36 0.687583 -5.19974 0
M  V30 15727 H 1469.83 2.38346 -4.97891 0
M  V30 15728 H 1470.31 2.8444 -3.3465 0
M  V30 15729 H 1470.92 1.3236 -4.04179 0
M  V30 15730 N 1469.23 1.56605 0.176793 0
M  V30 15731 C 1470.16 1.9254 1.24342 0
M  V30 15732 C 1471.18 0.81792 1.40762 0
M  V30 15733 O 1472.37 1.09636 1.40862 0
M  V30 15734 C 1469.47 2.15822 2.61293 0
M  V30 15735 C 1468.64 3.47035 2.66243 0
M  V30 15736 C 1467.7 3.5921 3.84519 0
M  V30 15737 O 1466.72 4.31876 3.70771 0
M  V30 15738 N 1467.93 2.93653 5.00748 0
M  V30 15739 H 1470.69 2.84635 0.938246 0
M  V30 15740 H 1468.25 1.57695 0.366597 0
M  V30 15741 H 1470.24 2.21237 3.38875 0
M  V30 15742 H 1468.81 1.30138 2.84223 0
M  V30 15743 H 1468.03 3.53326 1.74798 0
M  V30 15744 H 1469.32 4.33388 2.66557 0
M  V30 15745 H 1468.72 2.34476 5.14818 0
M  V30 15746 H 1467.28 3.04671 5.76211 0
M  V30 15747 N 1470.71 -0.445159 1.51182 0
M  V30 15748 C 1471.62 -1.5651 1.74762 0
M  V30 15749 C 1472.64 -1.62134 0.631542 0
M  V30 15750 O 1473.81 -1.79522 0.912898 0
M  V30 15751 C 1470.88 -2.92552 1.86049 0
M  V30 15752 C 1469.94 -2.97108 3.0988 0
M  V30 15753 C 1469.17 -4.2666 3.2062 0
M  V30 15754 O 1469.39 -5.18608 2.37491 0
M  V30 15755 O 1468.33 -4.3734 4.13542 0
M  V30 15756 H 1472.15 -1.3953 2.6975 0
M  V30 15757 H 1469.74 -0.627363 1.3559 0
M  V30 15758 H 1471.62 -3.73304 1.95504 0
M  V30 15759 H 1470.3 -3.09676 0.94248 0
M  V30 15760 H 1469.2 -2.15338 3.05909 0
M  V30 15761 H 1470.54 -2.84927 4.01345 0
M  V30 15762 N 1472.19 -1.41197 -0.700089 0
M  V30 15763 C 1473.41 -1.43856 -1.494 0
M  V30 15764 C 1473.84 -0.0441877 -1.88048 0
M  V30 15765 O 1473.2 0.951503 -1.54325 0
M  V30 15766 C 1473.24 -2.34913 -2.73584 0
M  V30 15767 O 1472.35 -1.80305 -3.70896 0
M  V30 15768 H 1471.69 -0.488412 -0.449833 0
M  V30 15769 H 1474.22 -1.85606 -0.860911 0
M  V30 15770 H 1474.23 -2.50633 -3.21943 0
M  V30 15771 H 1472.9 -3.36229 -2.44791 0
M  V30 15772 H 1471.48 -1.74012 -3.29809 0
M  V30 15773 N 1473.67 0.933891 -1.2695 0
M  V30 15774 C 1474.63 2.0152 -1.0919 0
M  V30 15775 C 1475.63 1.60755 -0.037865 0
M  V30 15776 O 1476.82 1.71904 -0.281917 0
M  V30 15777 C 1473.95 3.34403 -0.66239 0
M  V30 15778 H 1475.14 2.18706 -2.05201 0
M  V30 15779 H 1472.7 1.11385 -1.0965 0
M  V30 15780 H 1473.43 3.22915 0.299388 0
M  V30 15781 H 1473.22 3.65345 -1.42356 0
M  V30 15782 H 1474.71 4.13826 -0.560187 0
M  V30 15783 N 1475.14 1.08871 1.13951 0
M  V30 15784 C 1476.55 0.841552 1.66658 0
M  V30 15785 C 1476.91 -0.630932 1.85779 0
M  V30 15786 O 1476.03 -1.48673 1.57243 0
M  V30 15787 C 1476.63 1.52109 3.02735 0
M  V30 15788 C 1475.18 1.32105 3.52456 0
M  V30 15789 C 1474.33 1.58084 2.27826 0
M  V30 15790 H 1477.28 1.24865 0.97951 0
M  V30 15791 H 1477.3 0.950978 3.68425 0
M  V30 15792 H 1476.82 2.59276 2.88786 0
M  V30 15793 H 1474.92 0.270294 3.71618 0
M  V30 15794 H 1475.03 2.05197 4.32933 0
M  V30 15795 H 1473.39 1.00264 2.34135 0
M  V30 15796 H 1474.18 2.66467 2.16449 0
M  V30 15797 N 1476.62 -1.31073 0.875073 0
M  V30 15798 C 1477.9 -1.91276 0.409015 0
M  V30 15799 C 1478.28 -1.79599 -1.10939 0
M  V30 15800 O 1477.63 -1.2069 -1.94026 0
M  V30 15801 C 1477.84 -3.373 0.896074 0
M  V30 15802 C 1479.18 -4.14397 0.925205 0
M  V30 15803 O 1480.21 -3.46104 0.842069 0
M  V30 15804 O 1479.07 -5.36389 1.0464 0
M  V30 15805 H 1476.16 -0.817755 0.12331 0
M  V30 15806 H 1478.71 -1.39708 0.963322 0
M  V30 15807 H 1477.48 -3.39837 1.93975 0
M  V30 15808 H 1477.1 -3.96307 0.320367 0
M  V30 15809 N 1478.1 -0.635022 -1.4424 0
M  V30 15810 C 1479.03 0.106038 -2.28955 0
M  V30 15811 C 1480.05 0.805076 -1.415 0
M  V30 15812 O 1481.23 0.665872 -1.65615 0
M  V30 15813 C 1478.33 1.17252 -3.1797 0
M  V30 15814 C 1477.51 0.555225 -4.33862 0
M  V30 15815 C 1476.57 1.51618 -5.03883 0
M  V30 15816 O 1475.59 1.03181 -5.5977 0
M  V30 15817 N 1476.79 2.85048 -5.05696 0
M  V30 15818 H 1479.56 -0.620999 -2.93196 0
M  V30 15819 H 1477.12 -0.476466 -1.5473 0
M  V30 15820 H 1479.11 1.81578 -3.61679 0
M  V30 15821 H 1477.68 1.80174 -2.55453 0
M  V30 15822 H 1476.9 -0.266745 -3.93296 0
M  V30 15823 H 1478.19 0.123529 -5.0865 0
M  V30 15824 H 1477.59 3.26977 -4.6163 0
M  V30 15825 H 1476.15 3.44724 -5.5318 0
M  V30 15826 N 1479.58 1.53054 -0.375806 0
M  V30 15827 C 1480.49 2.29772 0.47349 0
M  V30 15828 C 1481.5 1.36144 1.08355 0
M  V30 15829 O 1482.68 1.69208 1.09228 0
M  V30 15830 C 1479.75 3.07964 1.59245 0
M  V30 15831 C 1478.81 4.17277 1.00888 0
M  V30 15832 C 1478.04 4.91731 2.07451 0
M  V30 15833 O 1478.26 4.66143 3.28736 0
M  V30 15834 O 1477.2 5.77413 1.69936 0
M  V30 15835 H 1481.02 3.03324 -0.151105 0
M  V30 15836 H 1478.61 1.48744 -0.139895 0
M  V30 15837 H 1480.49 3.56759 2.24279 0
M  V30 15838 H 1479.16 2.37239 2.20226 0
M  V30 15839 H 1478.07 3.7271 0.322167 0
M  V30 15840 H 1479.4 4.90198 0.443483 0
M  V30 15841 N 1481.06 0.105248 1.57248 0
M  V30 15842 C 1482.3 -0.556878 1.95004 0
M  V30 15843 C 1482.64 -1.672 0.987818 0
M  V30 15844 O 1481.91 -1.94487 0.022616 0
M  V30 15845 C 1482.19 -1.10252 3.42807 0
M  V30 15846 C 1482.05 0.00823908 4.49799 0
M  V30 15847 C 1483.37 -1.99774 3.92146 0
M  V30 15848 H 1480.48 -0.200959 0.709073 0
M  V30 15849 H 1483.13 0.178019 1.89164 0
M  V30 15850 H 1481.28 -1.7288 3.47915 0
M  V30 15851 H 1482.95 0.642944 4.56797 0
M  V30 15852 H 1481.19 0.673265 4.28544 0
M  V30 15853 H 1481.86 -0.414538 5.50441 0
M  V30 15854 H 1484.34 -1.47036 3.89255 0
M  V30 15855 H 1483.21 -2.34874 4.9611 0
M  V30 15856 H 1483.48 -2.91902 3.32033 0
M  V30 15857 N 1482.53 -1.56697 -0.168486 0
M  V30 15858 C 1483.78 -1.82154 -0.884654 0
M  V30 15859 C 1484.11 -0.682778 -1.82122 0
M  V30 15860 O 1483.36 0.32977 -1.92902 0
M  V30 15861 C 1483.66 -3.138 -1.71068 0
M  V30 15862 C 1483.33 -4.41356 -0.922793 0
M  V30 15863 C 1481.99 -4.76002 -0.705352 0
M  V30 15864 C 1484.34 -5.19883 -0.370323 0
M  V30 15865 C 1481.67 -5.86651 0.0756121 0
M  V30 15866 C 1484.02 -6.31349 0.397568 0
M  V30 15867 C 1482.69 -6.6456 0.625782 0
M  V30 15868 H 1481.96 -0.666549 -0.323718 0
M  V30 15869 H 1484.6 -1.90916 -0.149432 0
M  V30 15870 H 1482.91 -3.00393 -2.51538 0
M  V30 15871 H 1484.61 -3.30708 -2.2679 0
M  V30 15872 H 1481.2 -4.14182 -1.10231 0
M  V30 15873 H 1485.38 -4.93509 -0.525646 0
M  V30 15874 H 1480.64 -6.10838 0.262137 0
M  V30 15875 H 1484.81 -6.91401 0.832902 0
M  V30 15876 H 1482.44 -7.50137 1.23281 0
M  V30 15877 N 1484.01 0.437135 -1.51416 0
M  V30 15878 C 1484.96 1.53061 -1.72745 0
M  V30 15879 C 1485.93 1.56045 -0.569149 0
M  V30 15880 O 1487.11 1.73052 -0.803602 0
M  V30 15881 C 1484.25 2.90774 -1.85861 0
M  V30 15882 C 1483.37 2.97318 -3.1341 0
M  V30 15883 C 1482.5 4.26156 -3.1712 0
M  V30 15884 C 1481.54 4.26568 -4.38983 0
M  V30 15885 N 1480.68 5.4693 -4.40241 0
M  V30 15886 H 1485.52 1.34177 -2.66084 0
M  V30 15887 H 1483.06 0.651803 -1.31871 0
M  V30 15888 H 1485.01 3.7068 -1.91447 0
M  V30 15889 H 1483.64 3.08216 -0.959306 0
M  V30 15890 H 1482.7 2.10074 -3.17132 0
M  V30 15891 H 1484.01 2.93485 -4.03321 0
M  V30 15892 H 1483.16 5.14435 -3.21623 0
M  V30 15893 H 1481.9 4.32646 -2.25098 0
M  V30 15894 H 1480.91 3.36681 -4.34656 0
M  V30 15895 H 1482.13 4.21741 -5.3227 0
M  V30 15896 H 1480.08 5.54141 -3.51089 0
M  V30 15897 H 1479.99 5.44977 -5.23962 0
M  V30 15898 H 1481.26 6.37241 -4.48937 0
M  V30 15899 N 1485.49 1.41566 0.692592 0
M  V30 15900 C 1486.44 1.43648 1.80648 0
M  V30 15901 C 1487.41 0.290497 1.6354 0
M  V30 15902 O 1488.59 0.491979 1.84348 0
M  V30 15903 C 1485.73 1.32733 3.18553 0
M  V30 15904 C 1484.85 2.57224 3.47073 0
M  V30 15905 C 1483.98 2.38581 4.74608 0
M  V30 15906 C 1483.02 3.58534 4.96105 0
M  V30 15907 N 1482.16 3.38942 6.14868 0
M  V30 15908 H 1487 2.38847 1.78203 0
M  V30 15909 H 1484.53 1.186 0.870193 0
M  V30 15910 H 1486.49 1.24405 3.9822 0
M  V30 15911 H 1485.12 0.411407 3.20168 0
M  V30 15912 H 1484.17 2.7599 2.6179 0
M  V30 15913 H 1485.49 3.46443 3.58858 0
M  V30 15914 H 1484.64 2.27738 5.62335 0
M  V30 15915 H 1483.38 1.46824 4.65074 0
M  V30 15916 H 1482.38 3.69828 4.06826 0
M  V30 15917 H 1483.61 4.51248 5.07496 0
M  V30 15918 H 1481.55 2.49887 6.06541 0
M  V30 15919 H 1481.47 4.21737 6.27434 0
M  V30 15920 H 1482.74 3.31877 7.05321 0
M  V30 15921 N 1486.97 -0.927146 1.27443 0
M  V30 15922 C 1487.9 -2.04483 1.12735 0
M  V30 15923 C 1488.88 -1.70076 0.0286662 0
M  V30 15924 O 1490.06 -1.93133 0.203252 0
M  V30 15925 C 1487.19 -3.38557 0.774352 0
M  V30 15926 C 1486.15 -3.87078 1.82632 0
M  V30 15927 C 1485.47 -5.17964 1.32729 0
M  V30 15928 C 1486.77 -4.10409 3.23051 0
M  V30 15929 H 1488.47 -2.17046 2.06231 0
M  V30 15930 H 1486.01 -1.04292 0.992937 0
M  V30 15931 H 1487.97 -4.16227 0.658273 0
M  V30 15932 H 1486.69 -3.26009 -0.196321 0
M  V30 15933 H 1485.35 -3.11602 1.93132 0
M  V30 15934 H 1485 -5.01808 0.346059 0
M  V30 15935 H 1484.7 -5.51398 2.03061 0
M  V30 15936 H 1486.22 -5.98203 1.22416 0
M  V30 15937 H 1487.64 -4.78646 3.15549 0
M  V30 15938 H 1486.03 -4.5515 3.91099 0
M  V30 15939 H 1487.1 -3.15685 3.68064 0
M  V30 15940 N 1488.45 -1.09474 -1.13372 0
M  V30 15941 C 1489.36 -0.746674 -2.224 0
M  V30 15942 C 1490.37 0.251572 -1.72172 0
M  V30 15943 O 1491.55 0.092793 -2.01186 0
M  V30 15944 C 1488.61 -0.172965 -3.46268 0
M  V30 15945 C 1487.67 -1.22722 -4.11385 0
M  V30 15946 C 1486.91 -0.680794 -5.2934 0
M  V30 15947 O 1487.13 0.496135 -5.68238 0
M  V30 15948 O 1486.06 -1.43605 -5.84518 0
M  V30 15949 H 1489.89 -1.65649 -2.54547 0
M  V30 15950 H 1487.48 -0.869172 -1.21514 0
M  V30 15951 H 1489.36 0.143629 -4.21155 0
M  V30 15952 H 1488.03 0.709853 -3.15821 0
M  V30 15953 H 1486.94 -1.59652 -3.38323 0
M  V30 15954 H 1488.27 -2.0827 -4.45965 0
M  V30 15955 N 1489.92 1.30607 -0.882012 0
M  V30 15956 C 1490.86 2.27177 -0.303861 0
M  V30 15957 C 1491.87 1.53587 0.539898 0
M  V30 15958 O 1493.06 1.74833 0.359931 0
M  V30 15959 C 1490.16 3.33781 0.586828 0
M  V30 15960 C 1489.33 4.3681 -0.227197 0
M  V30 15961 C 1488.39 5.22842 0.593519 0
M  V30 15962 O 1487.42 5.69197 0.0172694 0
M  V30 15963 N 1488.62 5.48414 1.90321 0
M  V30 15964 H 1491.38 2.77426 -1.13378 0
M  V30 15965 H 1488.94 1.43756 -0.744698 0
M  V30 15966 H 1490.94 3.88257 1.14186 0
M  V30 15967 H 1489.51 2.83483 1.31743 0
M  V30 15968 H 1488.73 3.82239 -0.963674 0
M  V30 15969 H 1490.01 5.02703 -0.785315 0
M  V30 15970 H 1489.41 5.1253 2.39435 0
M  V30 15971 H 1487.97 6.05778 2.40575 0
M  V30 15972 N 1491.4 0.642663 1.43901 0
M  V30 15973 C 1492.37 -0.0457858 2.29154 0
M  V30 15974 C 1493.37 -0.760988 1.41653 0
M  V30 15975 O 1494.56 -0.603832 1.634 0
M  V30 15976 C 1491.69 -1.07552 3.23489 0
M  V30 15977 H 1492.88 0.704193 2.91515 0
M  V30 15978 H 1490.43 0.403361 1.51006 0
M  V30 15979 H 1491.17 -1.85509 2.66002 0
M  V30 15980 H 1490.95 -0.566468 3.87987 0
M  V30 15981 H 1492.44 -1.55663 3.87503 0
M  V30 15982 N 1492.88 -1.52852 0.383918 0
M  V30 15983 C 1493.84 -2.24904 -0.441687 0
M  V30 15984 C 1494.84 -1.26345 -0.99466 0
M  V30 15985 O 1496.03 -1.50484 -0.877513 0
M  V30 15986 C 1493.17 -2.99994 -1.61915 0
M  V30 15987 H 1494.36 -2.99304 0.189047 0
M  V30 15988 H 1491.91 -1.55708 0.135932 0
M  V30 15989 H 1492.65 -2.29882 -2.28746 0
M  V30 15990 H 1492.43 -3.72328 -1.2294 0
M  V30 15991 H 1493.92 -3.54716 -2.20378 0
M  V30 15992 N 1494.36 -0.113586 -1.5719 0
M  V30 15993 C 1495.29 0.868985 -2.12088 0
M  V30 15994 C 1496.3 1.23362 -1.06233 0
M  V30 15995 O 1497.49 1.18352 -1.33623 0
M  V30 15996 C 1494.59 2.17252 -2.60106 0
M  V30 15997 C 1493.77 1.9804 -3.89999 0
M  V30 15998 C 1492.83 3.12073 -4.23671 0
M  V30 15999 O 1491.85 2.85224 -4.92581 0
M  V30 16000 N 1493.05 4.38358 -3.80556 0
M  V30 16001 H 1495.82 0.399996 -2.97019 0
M  V30 16002 H 1493.38 0.0709947 -1.61744 0
M  V30 16003 H 1495.37 2.92523 -2.79665 0
M  V30 16004 H 1493.94 2.55516 -1.80084 0
M  V30 16005 H 1493.16 1.06993 -3.79402 0
M  V30 16006 H 1494.45 1.82502 -4.74943 0
M  V30 16007 H 1493.85 4.63048 -3.24966 0
M  V30 16008 H 1492.4 5.10518 -4.05234 0
M  V30 16009 N 1495.84 1.56784 0.160173 0
M  V30 16010 C 1497.25 1.72193 0.721552 0
M  V30 16011 C 1497.6 0.725901 1.82278 0
M  V30 16012 O 1496.72 -0.110343 2.16118 0
M  V30 16013 C 1497.32 3.12212 1.31563 0
M  V30 16014 C 1495.88 3.29268 1.82371 0
M  V30 16015 C 1495.03 2.68136 0.70701 0
M  V30 16016 H 1497.98 1.58565 -0.0653521 0
M  V30 16017 H 1498 3.11481 2.1854 0
M  V30 16018 H 1497.51 3.84682 0.513917 0
M  V30 16019 H 1495.61 2.61774 2.65152 0
M  V30 16020 H 1495.72 4.37107 1.96149 0
M  V30 16021 H 1494.09 2.28246 1.1303 0
M  V30 16022 H 1494.87 3.432 -0.0830407 0
M  V30 16023 N 1497.32 -0.429099 1.51646 0
M  V30 16024 C 1498.25 -1.53996 1.69758 0
M  V30 16025 C 1499.26 -1.52189 0.578138 0
M  V30 16026 O 1500.45 -1.56816 0.852709 0
M  V30 16027 C 1497.55 -2.9291 1.7046 0
M  V30 16028 C 1496.72 -3.19132 2.99122 0
M  V30 16029 C 1495.78 -4.37813 2.91901 0
M  V30 16030 O 1494.81 -4.36065 3.65836 0
M  V30 16031 N 1496.01 -5.41834 2.08317 0
M  V30 16032 H 1498.77 -1.38861 2.65589 0
M  V30 16033 H 1496.34 -0.618148 1.49635 0
M  V30 16034 H 1498.33 -3.7034 1.63187 0
M  V30 16035 H 1496.9 -3.01602 0.821877 0
M  V30 16036 H 1496.12 -2.29926 3.20199 0
M  V30 16037 H 1497.41 -3.33483 3.84274 0
M  V30 16038 H 1496.8 -5.46094 1.4764 0
M  V30 16039 H 1495.36 -6.18085 2.06917 0
M  V30 16040 N 1498.79 -1.41931 -0.685074 0
M  V30 16041 C 1500.04 -1.42062 -1.44728 0
M  V30 16042 C 1500.37 -0.0332072 -1.94172 0
M  V30 16043 O 1499.65 0.940835 -1.70231 0
M  V30 16044 C 1499.93 -2.43634 -2.65168 0
M  V30 16045 C 1499.78 -3.91525 -2.21423 0
M  V30 16046 C 1501.1 -2.42325 -3.67378 0
M  V30 16047 H 1498.22 -0.517321 -0.524927 0
M  V30 16048 H 1500.86 -1.73277 -0.779419 0
M  V30 16049 H 1499.01 -2.17146 -3.22149 0
M  V30 16050 H 1500.69 -4.28956 -1.69689 0
M  V30 16051 H 1498.93 -4.05886 -1.53099 0
M  V30 16052 H 1499.6 -4.58158 -3.07889 0
M  V30 16053 H 1502.08 -2.65857 -3.20093 0
M  V30 16054 H 1500.95 -3.15391 -4.49243 0
M  V30 16055 H 1501.21 -1.44555 -4.17799 0
M  V30 16056 N 1500.27 0.920374 -1.27933 0
M  V30 16057 C 1501.2 2.02644 -1.07089 0
M  V30 16058 C 1502.22 1.62781 -0.024674 0
M  V30 16059 O 1503.41 1.76491 -0.267023 0
M  V30 16060 C 1500.51 3.33476 -0.603919 0
M  V30 16061 C 1499.68 4.01988 -1.72407 0
M  V30 16062 C 1498.74 5.11098 -1.25159 0
M  V30 16063 O 1497.76 5.3466 -1.95261 0
M  V30 16064 N 1498.97 5.80393 -0.111197 0
M  V30 16065 H 1501.73 2.21085 -2.0234 0
M  V30 16066 H 1499.29 1.09124 -1.19597 0
M  V30 16067 H 1501.28 4.03788 -0.271579 0
M  V30 16068 H 1499.85 3.11554 0.255557 0
M  V30 16069 H 1499.07 3.25312 -2.22633 0
M  V30 16070 H 1500.36 4.4451 -2.47566 0
M  V30 16071 H 1499.76 5.63713 0.473746 0
M  V30 16072 H 1498.32 6.51599 0.161912 0
M  V30 16073 N 1501.75 1.10074 1.1279 0
M  V30 16074 C 1502.7 0.740977 2.20482 0
M  V30 16075 C 1503.69 -0.261163 1.67375 0
M  V30 16076 O 1504.9 -0.121923 1.79587 0
M  V30 16077 H 1501.27 0.221666 0.718588 0
M  V30 16078 H 1503.24 1.65823 2.48083 0
M  V30 16079 C 1501.99 0.184934 3.47208 0
M  V30 16080 H 1501.32 0.947278 3.88416 0
M  V30 16081 H 1502.76 -0.0287769 4.2399 0
M  V30 16082 C 1501.21 -1.08145 3.19071 0
M  V30 16083 O 1501.74 -2.1636 3.38454 0
M  V30 16084 N 1499.95 -0.998609 2.72903 0
M  V30 16085 H 1499.5 -0.117906 2.5733 0
M  V30 16086 H 1499.46 -1.84664 2.54453 0
M  V30 16087 N 1503.23 -1.30138 0.888926 0
M  V30 16088 C 1504.45 -2.00679 0.523697 0
M  V30 16089 C 1504.88 -1.66167 -0.881479 0
M  V30 16090 O 1504.24 -0.880418 -1.58488 0
M  V30 16091 C 1504.28 -3.53535 0.710284 0
M  V30 16092 O 1503.39 -4.11689 -0.242066 0
M  V30 16093 H 1502.73 -0.631273 0.205888 0
M  V30 16094 H 1505.26 -1.65891 1.19756 0
M  V30 16095 H 1505.27 -4.03402 0.610794 0
M  V30 16096 H 1503.94 -3.77992 1.73478 0
M  V30 16097 H 1502.52 -3.72777 -0.0959393 0
M  V30 16098 N 1504.71 -0.650285 -1.43559 0
M  V30 16099 C 1505.65 0.043098 -2.3076 0
M  V30 16100 C 1506.62 0.81763 -1.44582 0
M  V30 16101 O 1507.81 0.794825 -1.73457 0
M  V30 16102 C 1504.95 1.00557 -3.30125 0
M  V30 16103 C 1504.06 0.227448 -4.31401 0
M  V30 16104 C 1503.2 1.18345 -5.17849 0
M  V30 16105 C 1502.23 0.395596 -6.1082 0
M  V30 16106 N 1501.37 1.30304 -6.89902 0
M  V30 16107 H 1506.21 -0.706402 -2.89506 0
M  V30 16108 H 1503.75 -0.360118 -1.42624 0
M  V30 16109 H 1505.71 1.57717 -3.8624 0
M  V30 16110 H 1504.34 1.72198 -2.73034 0
M  V30 16111 H 1503.39 -0.460391 -3.77604 0
M  V30 16112 H 1504.7 -0.385316 -4.9731 0
M  V30 16113 H 1503.85 1.82578 -5.78576 0
M  V30 16114 H 1502.59 1.83013 -4.52059 0
M  V30 16115 H 1501.6 -0.260099 -5.49184 0
M  V30 16116 H 1502.82 -0.246633 -6.78652 0
M  V30 16117 H 1500.77 1.93657 -6.26764 0
M  V30 16118 H 1500.69 0.744768 -7.52323 0
M  V30 16119 H 1501.95 1.93361 -7.55137 0
M  V30 16120 N 1506.18 1.52647 -0.392018 0
M  V30 16121 C 1507.09 2.30261 0.449093 0
M  V30 16122 C 1508.11 1.37286 1.06905 0
M  V30 16123 O 1509.29 1.70357 1.07427 0
M  V30 16124 C 1506.35 3.09636 1.55969 0
M  V30 16125 C 1505.41 4.18324 0.964566 0
M  V30 16126 C 1504.64 4.93904 2.02224 0
M  V30 16127 O 1504.87 4.69603 3.23773 0
M  V30 16128 O 1503.8 5.79183 1.63802 0
M  V30 16129 H 1507.63 3.03147 -0.183269 0
M  V30 16130 H 1505.21 1.48587 -0.155664 0
M  V30 16131 H 1507.09 3.59118 2.20482 0
M  V30 16132 H 1505.77 2.39561 2.17697 0
M  V30 16133 H 1504.68 3.73031 0.282618 0
M  V30 16134 H 1506.01 4.90641 0.391466 0
M  V30 16135 N 1507.66 0.121921 1.57128 0
M  V30 16136 C 1508.61 -0.827205 2.15467 0
M  V30 16137 C 1509.58 -1.26155 1.08047 0
M  V30 16138 O 1510.76 -1.33855 1.35969 0
M  V30 16139 C 1507.9 -2.07077 2.76067 0
M  V30 16140 C 1507.02 -1.68452 3.97804 0
M  V30 16141 C 1506.15 -2.87797 4.46482 0
M  V30 16142 C 1505.19 -2.45426 5.60743 0
M  V30 16143 N 1504.33 -3.57695 6.04151 0
M  V30 16144 H 1509.17 -0.322879 2.96246 0
M  V30 16145 H 1506.71 -0.147677 1.46357 0
M  V30 16146 H 1508.66 -2.79943 3.09335 0
M  V30 16147 H 1507.29 -2.54963 1.97974 0
M  V30 16148 H 1506.35 -0.854487 3.70679 0
M  V30 16149 H 1507.66 -1.33316 4.80654 0
M  V30 16150 H 1506.81 -3.68885 4.81673 0
M  V30 16151 H 1505.55 -3.26162 3.62587 0
M  V30 16152 H 1504.56 -1.62772 5.25153 0
M  V30 16153 H 1505.78 -2.08175 6.46405 0
M  V30 16154 H 1503.73 -3.95728 5.23197 0
M  V30 16155 H 1503.64 -3.26491 6.81865 0
M  V30 16156 H 1504.91 -4.39213 6.43981 0
M  V30 16157 N 1509.14 -1.56867 -0.151857 0
M  V30 16158 C 1510.05 -2.01157 -1.20718 0
M  V30 16159 C 1511.07 -0.926166 -1.47303 0
M  V30 16160 O 1512.24 -1.23528 -1.59069 0
M  V30 16161 C 1509.31 -2.37915 -2.52185 0
M  V30 16162 C 1508.37 -3.60381 -2.3329 0
M  V30 16163 C 1507.6 -3.95376 -3.58488 0
M  V30 16164 O 1507.82 -3.31093 -4.64471 0
M  V30 16165 O 1506.76 -4.88645 -3.5144 0
M  V30 16166 H 1510.58 -2.91234 -0.861175 0
M  V30 16167 H 1508.17 -1.44993 -0.360213 0
M  V30 16168 H 1510.05 -2.6244 -3.29702 0
M  V30 16169 H 1508.73 -1.50995 -2.86325 0
M  V30 16170 H 1507.63 -3.4105 -1.5374 0
M  V30 16171 H 1508.97 -4.47903 -2.04067 0
M  V30 16172 N 1510.62 0.421051 -1.51871 0
M  V30 16173 C 1511.57 1.5122 -1.74359 0
M  V30 16174 C 1512.54 1.55432 -0.585667 0
M  V30 16175 O 1513.72 1.7219 -0.821912 0
M  V30 16176 C 1510.86 2.88787 -1.88935 0
M  V30 16177 C 1509.97 2.93977 -3.16546 0
M  V30 16178 C 1509.11 4.22768 -3.21622 0
M  V30 16179 C 1508.15 4.21888 -4.43483 0
M  V30 16180 N 1507.28 5.4223 -4.46017 0
M  V30 16181 H 1512.12 1.31348 -2.67492 0
M  V30 16182 H 1509.66 0.637779 -1.32555 0
M  V30 16183 H 1511.62 3.68629 -1.95368 0
M  V30 16184 H 1510.25 3.07181 -0.991942 0
M  V30 16185 H 1509.3 2.06699 -3.19343 0
M  V30 16186 H 1510.61 2.8919 -4.06412 0
M  V30 16187 H 1509.77 5.10995 -3.27061 0
M  V30 16188 H 1508.51 4.30234 -2.29674 0
M  V30 16189 H 1507.51 3.32052 -4.38202 0
M  V30 16190 H 1508.74 4.16072 -5.36713 0
M  V30 16191 H 1506.68 5.50386 -3.56947 0
M  V30 16192 H 1506.6 5.39389 -5.29713 0
M  V30 16193 H 1507.87 6.32443 -4.55671 0
M  V30 16194 N 1512.1 1.42293 0.677538 0
M  V30 16195 C 1513.32 1.46214 1.47092 0
M  V30 16196 C 1513.75 0.0740989 1.87954 0
M  V30 16197 O 1513.1 -0.926831 1.55819 0
M  V30 16198 C 1513.15 2.39236 2.69812 0
M  V30 16199 O 1512.26 1.86183 3.6798 0
M  V30 16200 H 1511.6 0.495507 0.442006 0
M  V30 16201 H 1514.13 1.86952 0.831274 0
M  V30 16202 H 1514.14 2.55723 3.17915 0
M  V30 16203 H 1512.81 3.40081 2.39411 0
M  V30 16204 H 1511.39 1.79237 3.26999 0
M  V30 16205 N 1513.57 -0.913576 1.28419 0
M  V30 16206 C 1514.48 -2.04922 1.14211 0
M  V30 16207 C 1515.5 -1.73865 0.0686424 0
M  V30 16208 O 1516.68 -1.99473 0.277968 0
M  V30 16209 C 1513.74 -3.37214 0.805445 0
M  V30 16210 C 1512.8 -3.81879 1.96129 0
M  V30 16211 C 1512.04 -5.07858 1.6406 0
M  V30 16212 O 1512.26 -5.67693 0.555032 0
M  V30 16213 O 1511.19 -5.4824 2.48428 0
M  V30 16214 H 1515.02 -2.19827 2.09547 0
M  V30 16215 H 1512.6 -1.03501 1.0774 0
M  V30 16216 H 1514.49 -4.16639 0.631648 0
M  V30 16217 H 1513.16 -3.23484 -0.118254 0
M  V30 16218 H 1512.07 -3.03281 2.19024 0
M  V30 16219 H 1513.4 -4.00173 2.8657 0
M  V30 16220 N 1515.05 -1.1067 -1.12204 0
M  V30 16221 C 1515.96 -0.770221 -2.21596 0
M  V30 16222 C 1516.98 0.233297 -1.72429 0
M  V30 16223 O 1518.15 0.0714493 -2.01273 0
M  V30 16224 C 1515.22 -0.209682 -3.46065 0
M  V30 16225 C 1514.28 -1.27079 -4.1006 0
M  V30 16226 C 1513.51 -0.736899 -5.28588 0
M  V30 16227 O 1513.74 0.435838 -5.68732 0
M  V30 16228 O 1512.67 -1.49797 -5.82962 0
M  V30 16229 H 1516.5 -1.6834 -2.52776 0
M  V30 16230 H 1514.08 -0.882012 -1.20586 0
M  V30 16231 H 1515.96 0.0989516 -4.21284 0
M  V30 16232 H 1514.64 0.676316 -3.16556 0
M  V30 16233 H 1513.55 -1.63231 -3.3661 0
M  V30 16234 H 1514.88 -2.12989 -4.4373 0
M  V30 16235 N 1516.53 1.29665 -0.895815 0
M  V30 16236 C 1517.44 2.31582 -0.375086 0
M  V30 16237 C 1518.46 1.65789 0.528196 0
M  V30 16238 O 1519.63 1.96999 0.41871 0
M  V30 16239 C 1516.7 3.44472 0.39241 0
M  V30 16240 C 1515.76 4.25866 -0.541926 0
M  V30 16241 C 1514.99 5.33365 0.189037 0
M  V30 16242 O 1515.21 5.52607 1.41355 0
M  V30 16243 O 1514.15 6.0009 -0.466441 0
M  V30 16244 H 1517.97 2.78095 -1.22052 0
M  V30 16245 H 1515.56 1.34031 -0.660007 0
M  V30 16246 H 1517.44 4.13214 0.826565 0
M  V30 16247 H 1516.12 3.00074 1.21397 0
M  V30 16248 H 1515.02 3.59781 -1.02512 0
M  V30 16249 H 1516.36 4.73896 -1.32979 0
M  V30 16250 N 1518.01 0.657889 1.43212 0
M  V30 16251 C 1518.96 -0.0308596 2.30779 0
M  V30 16252 C 1519.93 -0.809951 1.45014 0
M  V30 16253 O 1521.11 -0.785615 1.73876 0
M  V30 16254 C 1518.25 -0.988048 3.30653 0
M  V30 16255 C 1517.36 -0.204567 4.31515 0
M  V30 16256 C 1516.5 -1.15598 5.1847 0
M  V30 16257 C 1515.54 -0.363197 6.11022 0
M  V30 16258 N 1514.67 -1.26644 6.90584 0
M  V30 16259 H 1519.51 0.721745 2.89128 0
M  V30 16260 H 1517.05 0.367677 1.42431 0
M  V30 16261 H 1519.01 -1.55666 3.87071 0
M  V30 16262 H 1517.64 -1.70747 2.73944 0
M  V30 16263 H 1516.69 0.48041 3.77354 0
M  V30 16264 H 1518 0.411684 4.97098 0
M  V30 16265 H 1517.16 -1.79507 5.79536 0
M  V30 16266 H 1515.9 -1.80613 4.53023 0
M  V30 16267 H 1514.9 0.28922 5.49039 0
M  V30 16268 H 1516.13 0.28262 6.78512 0
M  V30 16269 H 1514.07 -1.90331 6.27782 0
M  V30 16270 H 1513.99 -0.70486 7.52707 0
M  V30 16271 H 1515.26 -1.89353 7.56152 0
M  V30 16272 N 1519.49 -1.52437 0.400108 0
M  V30 16273 C 1520.43 -2.28312 -0.444572 0
M  V30 16274 C 1521.43 -1.32641 -1.0537 0
M  V30 16275 O 1522.63 -1.50136 -0.99293 0
M  V30 16276 H 1519.01 -0.734313 -0.162137 0
M  V30 16277 H 1520.98 -2.97612 0.216702 0
M  V30 16278 C 1519.73 -3.11044 -1.55393 0
M  V30 16279 H 1519.05 -3.84525 -1.09455 0
M  V30 16280 H 1520.49 -3.67255 -2.11896 0
M  V30 16281 C 1518.95 -2.24035 -2.51614 0
M  V30 16282 O 1519.48 -1.87447 -3.55284 0
M  V30 16283 N 1517.69 -1.87982 -2.2161 0
M  V30 16284 H 1517.23 -2.17936 -1.37338 0
M  V30 16285 H 1517.19 -1.30058 -2.86238 0
M  V30 16286 N 1520.96 -0.130252 -1.57061 0
M  V30 16287 C 1521.91 0.827158 -2.12467 0
M  V30 16288 C 1522.9 1.22069 -1.04824 0
M  V30 16289 O 1524.09 1.1899 -1.31036 0
M  V30 16290 C 1521.22 2.07284 -2.73657 0
M  V30 16291 C 1520.31 1.70317 -3.88398 0
M  V30 16292 N 1520.7 1.04082 -4.94975 0
M  V30 16293 C 1518.99 1.99701 -3.98793 0
M  V30 16294 C 1519.7 0.865016 -5.75232 0
M  V30 16295 N 1518.67 1.39359 -5.25433 0
M  V30 16296 H 1522.47 0.311706 -2.92242 0
M  V30 16297 H 1519.99 0.0718523 -1.62241 0
M  V30 16298 H 1521.98 2.76854 -3.11701 0
M  V30 16299 H 1520.64 2.59363 -1.95349 0
M  V30 16300 H 1521.66 0.703501 -5.131 0
M  V30 16301 H 1518.33 2.53747 -3.3154 0
M  V30 16302 H 1519.72 0.344255 -6.71018 0
M  V30 16303 N 1522.44 1.56945 0.143535 0
M  V30 16304 C 1523.67 1.88067 0.874385 0
M  V30 16305 C 1524.09 0.719645 1.73789 0
M  V30 16306 O 1523.45 -0.330654 1.78259 0
M  V30 16307 C 1523.5 3.17795 1.70408 0
M  V30 16308 O 1522.6 3.01973 2.80867 0
M  V30 16309 H 1521.94 0.617808 0.24333 0
M  V30 16310 H 1524.47 2.04165 0.133309 0
M  V30 16311 H 1524.48 3.49903 2.09838 0
M  V30 16312 H 1523.16 4.019 1.07001 0
M  V30 16313 H 1521.74 2.8128 2.44818 0
M  V30 16314 N 1523.92 -0.412991 1.52093 0
M  V30 16315 C 1525.2 -1.17304 1.56522 0
M  V30 16316 C 1525.58 -2.0828 0.343926 0
M  V30 16317 O 1524.93 -2.18473 -0.669475 0
M  V30 16318 C 1525.14 -1.95371 2.89191 0
M  V30 16319 C 1526.48 -2.51571 3.42048 0
M  V30 16320 O 1527.51 -2.05555 2.90905 0
M  V30 16321 O 1526.37 -3.35563 4.31347 0
M  V30 16322 H 1523.46 -0.535386 0.63031 0
M  V30 16323 H 1526.01 -0.420084 1.64418 0
M  V30 16324 H 1524.78 -1.28701 3.69529 0
M  V30 16325 H 1524.4 -2.7768 2.84569 0
M  V30 16326 N 1525.4 -1.4265 -0.669982 0
M  V30 16327 C 1526.33 -1.42457 -1.79551 0
M  V30 16328 C 1527.34 -0.322966 -1.59564 0
M  V30 16329 O 1528.53 -0.586359 -1.68594 0
M  V30 16330 C 1525.63 -1.20561 -3.16731 0
M  V30 16331 C 1524.81 -2.43246 -3.63525 0
M  V30 16332 C 1523.87 -2.16823 -4.79452 0
M  V30 16333 O 1522.89 -2.90058 -4.8975 0
M  V30 16334 N 1524.09 -1.17436 -5.68497 0
M  V30 16335 H 1526.86 -2.39474 -1.80201 0
M  V30 16336 H 1524.42 -1.37591 -0.853244 0
M  V30 16337 H 1526.41 -1.00794 -3.91947 0
M  V30 16338 H 1524.98 -0.320497 -3.10953 0
M  V30 16339 H 1524.2 -2.78549 -2.78934 0
M  V30 16340 H 1525.49 -3.24931 -3.91532 0
M  V30 16341 H 1524.89 -0.568736 -5.62834 0
M  V30 16342 H 1523.44 -1.03655 -6.43505 0
M  V30 16343 N 1526.88 0.906753 -1.28902 0
M  V30 16344 C 1527.82 2.01004 -1.13429 0
M  V30 16345 C 1528.79 1.66074 -0.0295031 0
M  V30 16346 O 1529.98 1.89793 -0.195727 0
M  V30 16347 C 1527.12 3.35473 -0.809457 0
M  V30 16348 C 1526.23 3.83229 -1.99398 0
M  V30 16349 C 1525.37 5.06241 -1.60915 0
M  V30 16350 C 1524.41 5.46348 -2.7599 0
M  V30 16351 N 1523.54 6.60548 -2.37952 0
M  V30 16352 H 1528.38 2.13571 -2.07825 0
M  V30 16353 H 1525.92 1.046 -1.03428 0
M  V30 16354 H 1527.88 4.12836 -0.601845 0
M  V30 16355 H 1526.51 3.22652 0.0975896 0
M  V30 16356 H 1525.56 3.01962 -2.31351 0
M  V30 16357 H 1526.87 4.08908 -2.85649 0
M  V30 16358 H 1526.03 5.91168 -1.36401 0
M  V30 16359 H 1524.77 4.82385 -0.718021 0
M  V30 16360 H 1523.77 4.59959 -3.01195 0
M  V30 16361 H 1525 5.72188 -3.65757 0
M  V30 16362 H 1522.94 6.38309 -1.51318 0
M  V30 16363 H 1522.86 6.85987 -3.17738 0
M  V30 16364 H 1524.13 7.48762 -2.1674 0
M  V30 16365 N 1528.36 1.11264 1.11616 0
M  V30 16366 C 1529.3 0.764321 2.19684 0
M  V30 16367 C 1530.3 -0.243396 1.67642 0
M  V30 16368 O 1531.5 -0.102869 1.79706 0
M  V30 16369 H 1527.88 0.229275 0.716196 0
M  V30 16370 H 1529.85 1.68445 2.46311 0
M  V30 16371 C 1528.6 0.22175 3.46992 0
M  V30 16372 H 1527.92 0.988422 3.87389 0
M  V30 16373 H 1529.36 0.0161946 4.23997 0
M  V30 16374 C 1527.82 -1.04755 3.202 0
M  V30 16375 O 1528.35 -2.12758 3.4073 0
M  V30 16376 N 1526.56 -0.969608 2.73947 0
M  V30 16377 H 1526.1 -0.0906063 2.57441 0
M  V30 16378 H 1526.06 -1.81955 2.56397 0
M  V30 16379 N 1529.83 -1.29188 0.902679 0
M  V30 16380 C 1530.76 -2.3006 0.399357 0
M  V30 16381 C 1531.74 -1.61724 -0.527199 0
M  V30 16382 O 1532.93 -1.89213 -0.437293 0
M  V30 16383 C 1530.06 -3.45309 -0.371331 0
M  V30 16384 C 1529.01 -4.25466 0.465068 0
M  V30 16385 C 1528.34 -5.32941 -0.433295 0
M  V30 16386 C 1529.64 -4.93287 1.71655 0
M  V30 16387 H 1531.33 -2.72409 1.24233 0
M  V30 16388 H 1528.88 -1.30958 0.598822 0
M  V30 16389 H 1530.83 -4.14955 -0.734207 0
M  V30 16390 H 1529.56 -3.01811 -1.24811 0
M  V30 16391 H 1528.22 -3.57532 0.810315 0
M  V30 16392 H 1527.86 -4.85688 -1.3083 0
M  V30 16393 H 1527.56 -5.87472 0.122657 0
M  V30 16394 H 1529.09 -6.05438 -0.792298 0
M  V30 16395 H 1530.5 -5.55353 1.42323 0
M  V30 16396 H 1528.9 -5.57763 2.21405 0
M  V30 16397 H 1529.97 -4.18406 2.45081 0
M  V30 16398 N 1531.31 -0.665475 -1.42861 0
M  V30 16399 C 1532.72 -0.26225 -1.84849 0
M  V30 16400 C 1533.07 1.19372 -1.55707 0
M  V30 16401 O 1532.2 1.91269 -1.01218 0
M  V30 16402 C 1532.79 -0.469189 -3.35535 0
M  V30 16403 C 1531.35 -0.120172 -3.76208 0
M  V30 16404 C 1530.5 -0.766153 -2.66506 0
M  V30 16405 H 1533.45 -0.868296 -1.32839 0
M  V30 16406 H 1533.47 0.281571 -3.79457 0
M  V30 16407 H 1532.98 -1.52894 -3.56714 0
M  V30 16408 H 1531.08 0.936505 -3.60639 0
M  V30 16409 H 1531.2 -0.554188 -4.75884 0
M  V30 16410 H 1529.56 -0.198292 -2.53927 0
M  V30 16411 H 1530.34 -1.82918 -2.9051 0
M  V30 16412 N 1532.79 1.52222 -0.408187 0
M  V30 16413 C 1533.72 2.24676 0.453129 0
M  V30 16414 C 1534.73 1.27605 1.01098 0
M  V30 16415 O 1535.92 1.53557 0.910084 0
M  V30 16416 C 1533.02 2.96431 1.64262 0
M  V30 16417 C 1532.2 4.20364 1.20883 0
M  V30 16418 C 1531.26 4.74951 2.26512 0
M  V30 16419 O 1530.28 5.37556 1.87142 0
M  V30 16420 N 1531.48 4.56443 3.58665 0
M  V30 16421 H 1534.25 2.9923 -0.16771 0
M  V30 16422 H 1531.81 1.60178 -0.235517 0
M  V30 16423 H 1533.8 3.29844 2.3449 0
M  V30 16424 H 1532.37 2.25068 2.1694 0
M  V30 16425 H 1531.59 3.92776 0.334712 0
M  V30 16426 H 1532.88 5.0085 0.895939 0
M  V30 16427 H 1532.28 4.06511 3.93402 0
M  V30 16428 H 1530.83 4.94295 4.24871 0
M  V30 16429 N 1534.27 0.138579 1.5699 0
M  V30 16430 C 1535.5 -0.521806 2.00212 0
M  V30 16431 C 1535.91 -1.58967 1.01857 0
M  V30 16432 O 1535.27 -1.82494 0.0143099 0
M  V30 16433 C 1535.32 -1.13014 3.4338 0
M  V30 16434 O 1535.04 -0.104938 4.37974 0
M  V30 16435 C 1536.54 -1.87195 4.01837 0
M  V30 16436 H 1533.76 -0.136564 0.656956 0
M  V30 16437 H 1536.3 0.230685 2.03195 0
M  V30 16438 H 1534.46 -1.8333 3.41275 0
M  V30 16439 H 1534.87 -0.54948 5.21614 0
M  V30 16440 H 1536.35 -2.25061 5.04035 0
M  V30 16441 H 1536.82 -2.75467 3.42074 0
M  V30 16442 H 1537.43 -1.21597 4.07547 0
M  V30 16443 N 1535.75 -1.57019 -0.13521 0
M  V30 16444 C 1536.99 -1.83626 -0.844147 0
M  V30 16445 C 1537.31 -0.721298 -1.81169 0
M  V30 16446 O 1536.58 0.256095 -1.94219 0
M  V30 16447 H 1535.16 -0.677464 -0.314725 0
M  V30 16448 H 1537.83 -1.9449 -0.126399 0
M  V30 16449 H 1536.92 -2.78976 -1.39925 0
M  V30 16450 N 1537.22 0.404919 -1.52309 0
M  V30 16451 C 1538.13 1.51822 -1.7885 0
M  V30 16452 C 1539.15 1.60403 -0.674307 0
M  V30 16453 O 1540.33 1.77038 -0.960175 0
M  V30 16454 C 1537.39 2.87516 -1.9374 0
M  V30 16455 C 1536.45 2.88787 -3.17648 0
M  V30 16456 C 1535.69 4.18009 -3.31819 0
M  V30 16457 O 1535.91 5.12129 -2.51158 0
M  V30 16458 O 1534.84 4.26222 -4.24992 0
M  V30 16459 H 1538.67 1.32329 -2.73354 0
M  V30 16460 H 1536.25 0.591193 -1.37205 0
M  V30 16461 H 1538.14 3.6799 -2.05333 0
M  V30 16462 H 1536.81 3.07068 -1.02425 0
M  V30 16463 H 1535.72 2.07152 -3.11511 0
M  V30 16464 H 1537.05 2.74185 -4.08758 0
M  V30 16465 N 1538.7 1.43003 0.662408 0
M  V30 16466 C 1539.95 1.43848 1.41958 0
M  V30 16467 C 1540.27 0.06046 1.94906 0
M  V30 16468 O 1539.54 -0.90287 1.73854 0
M  V30 16469 H 1538.12 0.529587 0.526827 0
M  V30 16470 H 1540.78 1.7853 0.781867 0
M  V30 16471 H 1539.88 2.14562 2.26649 0
M  V30 16472 N 1540.18 -0.899904 1.29381 0
M  V30 16473 C 1541.11 -2.00914 1.103 0
M  V30 16474 C 1542.13 -1.62721 0.050568 0
M  V30 16475 O 1543.31 -1.76044 0.295068 0
M  V30 16476 C 1540.41 -3.32473 0.656896 0
M  V30 16477 C 1539.59 -3.99195 1.7878 0
M  V30 16478 C 1538.65 -5.09043 1.33274 0
M  V30 16479 O 1537.67 -5.31486 2.03742 0
M  V30 16480 N 1538.87 -5.80143 0.203519 0
M  V30 16481 H 1541.64 -2.17838 2.05832 0
M  V30 16482 H 1539.2 -1.07208 1.21318 0
M  V30 16483 H 1541.19 -4.03305 0.335783 0
M  V30 16484 H 1539.76 -3.11921 -0.205959 0
M  V30 16485 H 1538.98 -3.21729 2.2778 0
M  V30 16486 H 1540.27 -4.40515 2.54606 0
M  V30 16487 H 1539.67 -5.64395 -0.384005 0
M  V30 16488 H 1538.23 -6.51774 -0.0582282 0
M  V30 16489 N 1541.66 -1.11854 -1.11024 0
M  V30 16490 C 1542.88 -0.892999 -1.8719 0
M  V30 16491 C 1543.31 0.552058 -1.79816 0
M  V30 16492 O 1542.67 1.39025 -1.16369 0
M  V30 16493 C 1542.71 -1.3647 -3.33779 0
M  V30 16494 O 1541.82 -0.539202 -4.0886 0
M  V30 16495 H 1541.16 -0.321319 -0.581076 0
M  V30 16496 H 1543.69 -1.4891 -1.4031 0
M  V30 16497 H 1543.7 -1.3611 -3.84627 0
M  V30 16498 H 1542.37 -2.41694 -3.38462 0
M  V30 16499 H 1540.95 -0.60927 -3.67889 0
M  V30 16500 N 1543.14 1.28707 -0.909517 0
M  V30 16501 C 1544.39 1.94437 -0.536401 0
M  V30 16502 C 1544.7 1.72416 0.923685 0
M  V30 16503 O 1545.9 2.32333 1.40477 0
M  V30 16504 C 1544.36 3.48246 -0.908455 0
M  V30 16505 C 1543.97 3.79051 -2.38798 0
M  V30 16506 C 1545.71 4.20156 -0.605721 0
M  V30 16507 C 1543.62 5.2615 -2.70038 0
M  V30 16508 H 1542.55 0.727842 -0.196882 0
M  V30 16509 H 1545.2 1.46283 -1.10786 0
M  V30 16510 H 1543.58 3.95107 -0.265829 0
M  V30 16511 H 1544.76 3.43014 -3.07698 0
M  V30 16512 H 1543.07 3.20303 -2.66074 0
M  V30 16513 H 1545.67 5.28439 -0.815849 0
M  V30 16514 H 1546.01 4.13792 0.456266 0
M  V30 16515 H 1546.54 3.79059 -1.20662 0
M  V30 16516 H 1543.28 5.37587 -3.75073 0
M  V30 16517 H 1542.8 5.63399 -2.05771 0
M  V30 16518 H 1544.48 5.93846 -2.56819 0
M  V30 16519 N 1544.61 0.673042 1.42506 0
M  V30 16520 C 1545.54 0.00755467 2.33499 0
M  V30 16521 C 1546.53 -0.791161 1.50581 0
M  V30 16522 O 1547.71 -0.748668 1.79189 0
M  V30 16523 C 1544.84 -0.945638 3.34178 0
M  V30 16524 C 1543.79 -0.25564 4.27236 0
M  V30 16525 C 1543.12 -1.32165 5.18109 0
M  V30 16526 C 1544.42 0.864254 5.151 0
M  V30 16527 H 1546.11 0.767487 2.89396 0
M  V30 16528 H 1543.66 0.370524 1.39151 0
M  V30 16529 H 1545.61 -1.42026 3.96745 0
M  V30 16530 H 1544.34 -1.73697 2.76581 0
M  V30 16531 H 1543 0.19873 3.66061 0
M  V30 16532 H 1542.64 -2.10492 4.56839 0
M  V30 16533 H 1542.34 -0.865109 5.81197 0
M  V30 16534 H 1543.87 -1.79724 5.83551 0
M  V30 16535 H 1545.28 0.470924 5.71363 0
M  V30 16536 H 1543.68 1.24648 5.87012 0
M  V30 16537 H 1544.75 1.71378 4.53605 0
M  V30 16538 N 1546.09 -1.52004 0.416254 0
M  V30 16539 C 1547.06 -2.2579 -0.393882 0
M  V30 16540 C 1548.06 -1.28427 -0.967637 0
M  V30 16541 O 1549.25 -1.52311 -0.845396 0
M  V30 16542 C 1546.38 -3.03361 -1.55515 0
M  V30 16543 H 1547.57 -2.98835 0.252492 0
M  V30 16544 H 1545.12 -1.55384 0.168929 0
M  V30 16545 H 1545.86 -2.34682 -2.23818 0
M  V30 16546 H 1545.64 -3.74852 -1.15015 0
M  V30 16547 H 1547.13 -3.5931 -2.12805 0
M  V30 16548 N 1547.57 -0.146903 -1.56914 0
M  V30 16549 C 1548.8 0.514426 -2.00919 0
M  V30 16550 C 1549.22 1.57632 -1.02634 0
M  V30 16551 O 1548.58 1.813 -0.00207478 0
M  V30 16552 C 1548.63 1.09197 -3.43669 0
M  V30 16553 O 1547.73 2.20684 -3.48385 0
M  V30 16554 H 1547.07 0.125827 -0.651969 0
M  V30 16555 H 1549.6 -0.243607 -2.03145 0
M  V30 16556 H 1549.61 1.42066 -3.82467 0
M  V30 16557 H 1548.29 0.314336 -4.1471 0
M  V30 16558 H 1546.86 1.89045 -3.21429 0
M  V30 16559 N 1549.05 1.57088 0.126881 0
M  V30 16560 C 1549.98 2.02799 1.15737 0
M  V30 16561 C 1550.96 0.911031 1.43646 0
M  V30 16562 O 1552.14 1.18021 1.54223 0
M  V30 16563 C 1549.27 2.42565 2.48555 0
M  V30 16564 C 1548.23 3.57631 2.35125 0
M  V30 16565 C 1547.55 3.83272 3.72836 0
M  V30 16566 C 1548.85 4.89625 1.81838 0
M  V30 16567 H 1550.55 2.89136 0.777207 0
M  V30 16568 H 1548.09 1.39101 0.372416 0
M  V30 16569 H 1550.05 2.73146 3.20888 0
M  V30 16570 H 1548.77 1.53188 2.88446 0
M  V30 16571 H 1547.43 3.27247 1.65242 0
M  V30 16572 H 1547.08 2.91114 4.10197 0
M  V30 16573 H 1546.78 4.60721 3.64705 0
M  V30 16574 H 1548.3 4.16298 4.46686 0
M  V30 16575 H 1549.72 5.18793 2.43981 0
M  V30 16576 H 1548.11 5.71018 1.84548 0
M  V30 16577 H 1549.18 4.7866 0.775385 0
M  V30 16578 N 1550.53 -0.396836 1.52522 0
M  V30 16579 C 1551.77 -1.14037 1.66853 0
M  V30 16580 C 1552.1 -1.90706 0.406987 0
M  V30 16581 O 1551.37 -1.87165 -0.578443 0
M  V30 16582 H 1549.95 -0.423967 0.615029 0
M  V30 16583 H 1552.61 -0.451042 1.89609 0
M  V30 16584 H 1551.7 -1.84763 2.51533 0
M  V30 16585 N 1552.01 -1.43353 -0.654814 0
M  V30 16586 C 1553.25 -1.44885 -1.41473 0
M  V30 16587 C 1553.58 -0.0725577 -1.94365 0
M  V30 16588 O 1552.84 0.9222 -1.72609 0
M  V30 16589 C 1553.13 -2.437 -2.61429 0
M  V30 16590 C 1552.8 -3.89612 -2.26965 0
M  V30 16591 C 1551.46 -4.29353 -2.17278 0
M  V30 16592 C 1553.81 -4.81569 -1.99351 0
M  V30 16593 C 1551.14 -5.59005 -1.7813 0
M  V30 16594 C 1553.49 -6.11584 -1.61702 0
M  V30 16595 C 1552.16 -6.50303 -1.50539 0
M  V30 16596 H 1551.43 -0.530172 -0.517686 0
M  V30 16597 H 1554.08 -1.76422 -0.744824 0
M  V30 16598 H 1552.38 -2.05561 -3.33544 0
M  V30 16599 H 1554.08 -2.42141 -3.19638 0
M  V30 16600 H 1550.67 -3.58159 -2.35414 0
M  V30 16601 H 1554.85 -4.51639 -2.05757 0
M  V30 16602 H 1550.11 -5.87845 -1.68072 0
M  V30 16603 H 1554.28 -6.82312 -1.39365 0
M  V30 16604 H 1551.91 -7.50673 -1.19975 0
M  V30 16605 N 1553.48 0.89303 -1.29857 0
M  V30 16606 C 1554.41 2.01422 -1.18117 0
M  V30 16607 C 1555.39 1.6994 -0.0737487 0
M  V30 16608 O 1556.58 1.92527 -0.254387 0
M  V30 16609 C 1553.71 3.36385 -0.863842 0
M  V30 16610 C 1552.66 3.821 -1.92831 0
M  V30 16611 C 1551.99 5.14263 -1.46415 0
M  V30 16612 C 1553.29 4.01699 -3.33819 0
M  V30 16613 H 1554.98 2.11502 -2.11913 0
M  V30 16614 H 1552.53 1.01622 -1.02024 0
M  V30 16615 H 1554.48 4.14335 -0.768397 0
M  V30 16616 H 1553.21 3.26415 0.109816 0
M  V30 16617 H 1551.87 3.06372 -2.01325 0
M  V30 16618 H 1551.51 5.00714 -0.478983 0
M  V30 16619 H 1551.21 5.45821 -2.17609 0
M  V30 16620 H 1552.74 5.94747 -1.38234 0
M  V30 16621 H 1554.15 4.70111 -3.28129 0
M  V30 16622 H 1552.55 4.44621 -4.03029 0
M  V30 16623 H 1553.62 3.05816 -3.76304 0
M  V30 16624 N 1554.96 1.12442 1.10429 0
M  V30 16625 C 1555.89 0.814745 2.18824 0
M  V30 16626 C 1556.87 -0.221476 1.68652 0
M  V30 16627 O 1558.06 -0.0826537 1.94024 0
M  V30 16628 C 1555.19 0.268632 3.4626 0
M  V30 16629 C 1554.14 1.23792 4.09707 0
M  V30 16630 C 1553.47 0.552034 5.31843 0
M  V30 16631 C 1554.77 2.5926 4.53411 0
M  V30 16632 H 1556.46 1.72111 2.44986 0
M  V30 16633 H 1554.01 0.828968 1.17746 0
M  V30 16634 H 1555.96 0.0397207 4.21381 0
M  V30 16635 H 1554.68 -0.673079 3.19589 0
M  V30 16636 H 1553.34 1.45264 3.36592 0
M  V30 16637 H 1552.99 -0.394821 5.01448 0
M  V30 16638 H 1552.69 1.19861 5.75245 0
M  V30 16639 H 1554.22 0.332161 6.09696 0
M  V30 16640 H 1555.63 2.41816 5.19806 0
M  V30 16641 H 1554.03 3.19997 5.07663 0
M  V30 16642 H 1555.1 3.17699 3.66327 0
M  V30 16643 N 1556.44 -1.28223 0.91633 0
M  V30 16644 C 1557.37 -2.29623 0.423735 0
M  V30 16645 C 1558.35 -1.62274 -0.510016 0
M  V30 16646 O 1559.54 -1.89666 -0.4172 0
M  V30 16647 C 1556.67 -3.45684 -0.334686 0
M  V30 16648 C 1555.62 -4.24949 0.510169 0
M  V30 16649 C 1554.95 -5.33371 -0.376745 0
M  V30 16650 C 1556.25 -4.91438 1.76877 0
M  V30 16651 H 1557.94 -2.71076 1.27115 0
M  V30 16652 H 1555.49 -1.30316 0.612678 0
M  V30 16653 H 1557.44 -4.1571 -0.690154 0
M  V30 16654 H 1556.16 -3.03118 -1.21603 0
M  V30 16655 H 1554.82 -3.56653 0.848191 0
M  V30 16656 H 1554.47 -4.87048 -1.25671 0
M  V30 16657 H 1554.17 -5.87309 0.18496 0
M  V30 16658 H 1555.69 -6.06244 -0.728039 0
M  V30 16659 H 1557.11 -5.53812 1.48205 0
M  V30 16660 H 1555.5 -5.55384 2.27308 0
M  V30 16661 H 1556.57 -4.15783 2.49505 0
M  V30 16662 N 1557.92 -0.68059 -1.42147 0
M  V30 16663 C 1559.17 -0.204857 -2.01059 0
M  V30 16664 C 1559.49 1.19475 -1.54113 0
M  V30 16665 O 1558.76 1.80334 -0.765279 0
M  V30 16666 H 1557.34 -0.0727459 -0.743449 0
M  V30 16667 H 1560 -0.878396 -1.73983 0
M  V30 16668 H 1559.09 -0.210628 -3.11388 0
M  V30 16669 N 1559.4 1.51781 -0.424309 0
M  V30 16670 C 1560.36 2.25996 0.381903 0
M  V30 16671 C 1561.36 1.28938 0.960813 0
M  V30 16672 O 1562.55 1.52757 0.837306 0
M  V30 16673 C 1559.68 3.04181 1.53904 0
M  V30 16674 H 1560.87 2.98697 -0.268336 0
M  V30 16675 H 1558.43 1.55293 -0.177167 0
M  V30 16676 H 1559.16 2.35866 2.22571 0
M  V30 16677 H 1558.95 3.75457 1.13025 0
M  V30 16678 H 1560.44 3.60434 2.10896 0
M  V30 16679 N 1560.87 0.155222 1.56834 0
M  V30 16680 C 1562.12 -0.493826 1.96386 0
M  V30 16681 C 1562.45 -1.6433 1.04048 0
M  V30 16682 O 1561.7 -1.9557 0.0713123 0
M  V30 16683 C 1562 -1.03346 3.42132 0
M  V30 16684 C 1561.67 -0.00157215 4.509 0
M  V30 16685 C 1560.33 0.282068 4.80373 0
M  V30 16686 C 1562.68 0.699684 5.16482 0
M  V30 16687 C 1560.01 1.27263 5.72731 0
M  V30 16688 C 1562.36 1.67912 6.09908 0
M  V30 16689 C 1561.03 1.97037 6.37756 0
M  V30 16690 H 1560.3 -0.180704 0.718629 0
M  V30 16691 H 1562.94 0.243789 1.89942 0
M  V30 16692 H 1561.25 -1.84857 3.45449 0
M  V30 16693 H 1562.95 -1.54437 3.70068 0
M  V30 16694 H 1559.54 -0.232824 4.27967 0
M  V30 16695 H 1563.72 0.493751 4.93838 0
M  V30 16696 H 1558.98 1.50464 5.92597 0
M  V30 16697 H 1563.15 2.22796 6.59799 0
M  V30 16698 H 1560.78 2.73944 7.09125 0
M  V30 16699 N 1562.35 -1.57153 -0.118549 0
M  V30 16700 C 1563.58 -1.88788 -0.83921 0
M  V30 16701 C 1563.99 -0.744621 -1.73931 0
M  V30 16702 O 1563.33 0.293567 -1.81339 0
M  V30 16703 C 1563.39 -3.15441 -1.72446 0
M  V30 16704 C 1563.06 -4.45956 -0.998613 0
M  V30 16705 C 1564.06 -5.18792 -0.339214 0
M  V30 16706 C 1561.74 -4.92654 -0.979657 0
M  V30 16707 C 1563.73 -6.36548 0.329438 0
M  V30 16708 C 1561.42 -6.10327 -0.307207 0
M  V30 16709 C 1562.42 -6.82122 0.346185 0
M  V30 16710 O 1562.11 -7.97557 1.0079 0
M  V30 16711 H 1561.84 -0.629445 -0.246526 0
M  V30 16712 H 1564.39 -2.05119 -0.10736 0
M  V30 16713 H 1562.62 -2.95193 -2.49796 0
M  V30 16714 H 1564.31 -3.33092 -2.31958 0
M  V30 16715 H 1565.08 -4.83768 -0.345475 0
M  V30 16716 H 1560.96 -4.36676 -1.47766 0
M  V30 16717 H 1564.5 -6.92524 0.840013 0
M  V30 16718 H 1560.4 -6.44808 -0.29871 0
M  V30 16719 H 1561.17 -8.13398 0.912427 0
M  V30 16720 N 1563.83 0.388742 -1.5273 0
M  V30 16721 C 1564.76 1.48133 -1.80496 0
M  V30 16722 C 1565.74 1.56899 -0.657008 0
M  V30 16723 O 1566.93 1.71844 -0.904621 0
M  V30 16724 C 1564.06 2.85742 -1.97405 0
M  V30 16725 C 1563.01 2.91815 -3.13094 0
M  V30 16726 C 1562.34 4.31876 -3.15258 0
M  V30 16727 C 1563.64 2.61438 -4.52159 0
M  V30 16728 H 1565.33 1.25147 -2.7199 0
M  V30 16729 H 1562.88 0.600603 -1.30877 0
M  V30 16730 H 1564.83 3.62182 -2.15412 0
M  V30 16731 H 1563.55 3.10065 -1.02601 0
M  V30 16732 H 1562.21 2.17824 -2.9487 0
M  V30 16733 H 1561.86 4.53239 -2.18135 0
M  V30 16734 H 1561.56 4.3686 -3.92972 0
M  V30 16735 H 1563.08 5.10221 -3.3542 0
M  V30 16736 H 1564.5 3.27596 -4.70483 0
M  V30 16737 H 1562.89 2.77771 -5.31943 0
M  V30 16738 H 1563.96 1.56778 -4.58856 0
M  V30 16739 N 1565.31 1.43698 0.647203 0
M  V30 16740 C 1566.55 1.45633 1.40703 0
M  V30 16741 C 1566.88 0.0828643 1.94323 0
M  V30 16742 O 1566.14 -0.913033 1.73096 0
M  V30 16743 C 1566.44 2.45083 2.60133 0
M  V30 16744 C 1566.1 3.9081 2.24896 0
M  V30 16745 C 1564.76 4.30499 2.14998 0
M  V30 16746 C 1567.12 4.8262 1.96794 0
M  V30 16747 C 1564.44 5.59942 1.75163 0
M  V30 16748 C 1566.8 6.12433 1.58456 0
M  V30 16749 C 1565.46 6.51092 1.47088 0
M  V30 16750 H 1564.73 0.53291 0.514867 0
M  V30 16751 H 1567.38 1.76814 0.735458 0
M  V30 16752 H 1565.68 2.07327 3.3245 0
M  V30 16753 H 1567.38 2.43833 3.1835 0
M  V30 16754 H 1563.97 3.59403 2.33512 0
M  V30 16755 H 1568.15 4.52724 2.03359 0
M  V30 16756 H 1563.41 5.88728 1.64952 0
M  V30 16757 H 1567.58 6.83042 1.35745 0
M  V30 16758 H 1565.21 7.51299 1.15992 0
M  V30 16759 N 1566.79 -0.886131 1.30328 0
M  V30 16760 C 1568.2 -1.16922 1.08634 0
M  V30 16761 C 1568.4 -2.00913 -0.15365 0
M  V30 16762 O 1567.46 -2.37849 -0.847592 0
M  V30 16763 C 1568.77 -1.87701 2.34923 0
M  V30 16764 C 1570.32 -2.0047 2.40376 0
M  V30 16765 C 1570.79 -2.74662 3.66504 0
M  V30 16766 N 1572.29 -2.82208 3.67305 0
M  V30 16767 C 1573.02 -3.40185 4.61586 0
M  V30 16768 N 1572.52 -3.99221 5.66211 0
M  V30 16769 N 1574.31 -3.37989 4.49132 0
M  V30 16770 H 1566.46 -0.326064 2.09882 0
M  V30 16771 H 1568.72 -0.206996 0.925125 0
M  V30 16772 H 1568.43 -1.33427 3.25408 0
M  V30 16773 H 1568.3 -2.88092 2.43481 0
M  V30 16774 H 1570.69 -2.53914 1.50371 0
M  V30 16775 H 1570.77 -0.991709 2.35794 0
M  V30 16776 H 1570.42 -2.2189 4.56867 0
M  V30 16777 H 1570.35 -3.76335 3.68347 0
M  V30 16778 H 1572.84 -2.40292 2.91665 0
M  V30 16779 H 1573.15 -4.41522 6.34254 0
M  V30 16780 H 1571.49 -3.97643 5.70004 0
M  V30 16781 H 1574.69 -2.91096 3.6658 0
M  V30 16782 H 1574.86 -3.82877 5.2279 0
M  V30 16783 N 1568.26 -1.13026 -1.09832 0
M  V30 16784 C 1569.68 -0.867598 -1.33959 0
M  V30 16785 C 1569.88 0.499047 -1.95222 0
M  V30 16786 O 1568.94 1.24644 -2.19591 0
M  V30 16787 C 1570.25 -1.98893 -2.25526 0
M  V30 16788 C 1571.8 -2.02054 -2.39047 0
M  V30 16789 C 1572.27 -3.13438 -3.33947 0
M  V30 16790 N 1573.76 -3.12921 -3.41518 0
M  V30 16791 C 1574.5 -3.95746 -4.14937 0
M  V30 16792 N 1573.99 -4.88574 -4.91189 0
M  V30 16793 N 1575.79 -3.8386 -4.10619 0
M  V30 16794 H 1567.94 -2.01072 -0.684382 0
M  V30 16795 H 1570.2 -0.875341 -0.363982 0
M  V30 16796 H 1569.91 -2.97405 -1.87731 0
M  V30 16797 H 1569.78 -1.89948 -3.25883 0
M  V30 16798 H 1572.17 -1.04158 -2.76107 0
M  V30 16799 H 1572.25 -2.15072 -1.38483 0
M  V30 16800 H 1571.89 -4.11571 -2.9761 0
M  V30 16801 H 1571.82 -2.97658 -4.34405 0
M  V30 16802 H 1574.31 -2.45677 -2.87144 0
M  V30 16803 H 1574.63 -5.48269 -5.44629 0
M  V30 16804 H 1572.97 -4.92583 -4.90292 0
M  V30 16805 H 1576.16 -3.10669 -3.50146 0
M  V30 16806 H 1576.34 -4.48637 -4.67577 0
M  V30 16807 N 1569.74 1.27735 -0.923117 0
M  V30 16808 C 1570.99 1.94185 -0.56004 0
M  V30 16809 C 1571.31 1.72945 0.90084 0
M  V30 16810 O 1570.58 1.07453 1.63801 0
M  V30 16811 H 1569.16 0.718568 -0.204129 0
M  V30 16812 H 1571.82 1.55535 -1.17451 0
M  V30 16813 H 1570.92 3.02644 -0.762424 0
M  V30 16814 N 1571.22 0.688118 1.41784 0
M  V30 16815 C 1572.17 0.018099 2.30793 0
M  V30 16816 C 1573.14 -0.779009 1.46699 0
M  V30 16817 O 1574.32 -0.748556 1.75503 0
M  V30 16818 C 1571.46 -0.91769 3.32675 0
M  V30 16819 C 1570.58 -0.11299 4.31852 0
M  V30 16820 C 1569.71 -1.04574 5.20805 0
M  V30 16821 C 1568.75 -0.233509 6.11654 0
M  V30 16822 N 1567.89 -1.11967 6.93115 0
M  V30 16823 H 1572.73 0.782911 2.87532 0
M  V30 16824 H 1570.26 0.397806 1.41619 0
M  V30 16825 H 1572.22 -1.47421 3.90286 0
M  V30 16826 H 1570.85 -1.64898 2.77504 0
M  V30 16827 H 1569.9 0.560344 3.7625 0
M  V30 16828 H 1571.22 0.517033 4.96113 0
M  V30 16829 H 1570.37 -1.67174 5.83213 0
M  V30 16830 H 1569.11 -1.70963 4.56753 0
M  V30 16831 H 1568.11 0.405614 5.48302 0
M  V30 16832 H 1569.34 0.426479 6.7776 0
M  V30 16833 H 1567.28 -1.76972 6.31678 0
M  V30 16834 H 1567.2 -0.545042 7.54033 0
M  V30 16835 H 1568.47 -1.73272 7.59998 0
M  V30 16836 N 1572.7 -1.51554 0.432352 0
M  V30 16837 C 1573.65 -2.29204 -0.396044 0
M  V30 16838 C 1574.64 -1.34846 -1.02532 0
M  V30 16839 O 1575.85 -1.52209 -0.960861 0
M  V30 16840 H 1572.22 -0.737587 -0.146525 0
M  V30 16841 H 1574.19 -2.97085 0.279781 0
M  V30 16842 C 1572.94 -3.1427 -1.4876 0
M  V30 16843 H 1572.26 -3.8676 -1.01274 0
M  V30 16844 H 1573.7 -3.71667 -2.04058 0
M  V30 16845 C 1572.16 -2.29322 -2.46806 0
M  V30 16846 O 1572.69 -1.94941 -3.51228 0
M  V30 16847 N 1570.9 -1.92641 -2.17573 0
M  V30 16848 H 1570.45 -2.208 -1.32685 0
M  V30 16849 H 1570.4 -1.361 -2.83415 0
M  V30 16850 N 1574.18 -0.163538 -1.56749 0
M  V30 16851 C 1575.12 0.786745 -2.18891 0
M  V30 16852 C 1576.12 1.24323 -1.15066 0
M  V30 16853 O 1577.32 1.20979 -1.33282 0
M  V30 16854 H 1573.7 0.271967 -0.701098 0
M  V30 16855 H 1575.67 0.2386 -2.97445 0
M  V30 16856 C 1574.42 2.00905 -2.83782 0
M  V30 16857 H 1573.74 1.66681 -3.63397 0
M  V30 16858 H 1575.18 2.65302 -3.30743 0
M  V30 16859 C 1573.64 2.8277 -1.83148 0
M  V30 16860 O 1574.17 3.79666 -1.31213 0
M  V30 16861 N 1572.38 2.47629 -1.52079 0
M  V30 16862 H 1571.92 1.68896 -1.94504 0
M  V30 16863 H 1571.88 3.02693 -0.849963 0
M  V30 16864 O 1575.69 1.6148 -0.0254367 0
M  V30 16865 H 1576.38 1.8457 0.587668 0
M  V30 END ATOM
M  V30 BEGIN BOND
M  V30 END BOND
M  V30 END CTAB
M  END
$$$$
