drugbank_target|Q54AI1 Heme oxygenase (DB04809; DB04810; DB04811)
 OpenBabel12092120303D

  0  0  0     0  0            999 V3000
M  V30 BEGIN CTAB
M  V30 COUNTS 3372 3404 0 0 0
M  V30 BEGIN ATOM
M  V30 1 H -0.908 1.98254 -0.117106 0
M  V30 2 N 0 1.576 0 0
M  V30 3 C 0.933 2.03868 1.02534 0
M  V30 4 C 1.911 0.928543 1.3348 0
M  V30 5 O 3.095 1.19667 1.45644 0
M  V30 6 C 0.222 2.43627 2.35294 0
M  V30 7 C -0.732 3.65373 2.2001 0
M  V30 8 S 0.101 5.13292 1.52614 0
M  V30 9 C 1.257 5.56322 2.86805 0
M  V30 10 H 1.49 2.90518 0.631377 0
M  V30 11 H -0.977 1.52953 0.210867 0
M  V30 12 H 0.981 2.67203 3.11629 0
M  V30 13 H -0.358 1.57376 2.7183 0
M  V30 14 H -1.165 3.90944 3.18086 0
M  V30 15 H -1.563 3.418 1.51819 0
M  V30 16 H 0.729 5.58782 3.83104 0
M  V30 17 H 1.672 6.56266 2.65933 0
M  V30 18 H 2.08 4.83886 2.90714 0
M  V30 19 N 1.4781 -0.272755 1.55222 0
M  V30 20 C 2.7061 -1.02255 1.79865 0
M  V30 21 C 3.1211 -1.79924 0.572088 0
M  V30 22 O 2.4781 -1.76638 -0.458842 0
M  V30 23 C 2.5291 -1.98094 3.02392 0
M  V30 24 O 2.2501 -1.23572 4.20311 0
M  V30 25 C 3.7511 -2.84884 3.39641 0
M  V30 26 H 0.9711 -0.302057 0.599168 0
M  V30 27 H 3.5151 -0.303465 2.02236 0
M  V30 28 H 1.6701 -2.65465 2.82147 0
M  V30 29 H 2.0841 -1.88172 4.89583 0
M  V30 30 H 3.5581 -3.47927 4.28545 0
M  V30 31 H 4.0351 -3.54665 2.59055 0
M  V30 32 H 4.6411 -2.23003 3.62146 0
M  V30 33 N 2.9562 -1.48159 -0.537278 0
M  V30 34 C 4.1842 -1.59454 -1.31841 0
M  V30 35 C 4.5992 -0.252065 -1.8711 0
M  V30 36 O 3.9562 0.757621 -1.66031 0
M  V30 37 C 4.0072 -2.63546 -2.47439 0
M  V30 38 O 3.7282 -3.92583 -1.94449 0
M  V30 39 C 5.2292 -2.85212 -3.39366 0
M  V30 40 H 2.4492 -0.53785 -0.401196 0
M  V30 41 H 4.9932 -1.93932 -0.648891 0
M  V30 42 H 3.1482 -2.31946 -3.1029 0
M  V30 43 H 3.5622 -4.49629 -2.70063 0
M  V30 44 H 5.0362 -3.61863 -4.16844 0
M  V30 45 H 5.5132 -1.93765 -3.94147 0
M  V30 46 H 6.1192 -3.18086 -2.82314 0
M  V30 47 N 4.4343 0.785586 -1.36625 0
M  V30 48 C 5.3973 1.87999 -1.31107 0
M  V30 49 C 6.3973 1.59316 -0.217959 0
M  V30 50 O 7.5873 1.67656 -0.472977 0
M  V30 51 C 4.7193 3.24861 -1.03334 0
M  V30 52 H 5.9123 1.94307 -2.2844 0
M  V30 53 H 3.4653 0.983813 -1.21453 0
M  V30 54 H 4.2003 3.24235 -0.0647432 0
M  V30 55 H 3.9853 3.4707 -1.82441 0
M  V30 56 H 5.4753 4.04929 -1.02088 0
M  V30 57 N 5.9124 1.20967 1.01018 0
M  V30 58 C 7.1404 1.04956 1.78303 0
M  V30 59 C 7.5554 -0.400915 1.84494 0
M  V30 60 O 6.9124 -1.27826 1.30257 0
M  V30 61 C 6.9634 1.63403 3.22462 0
M  V30 62 O 6.6844 3.02775 3.16637 0
M  V30 63 C 8.1854 1.52432 4.16268 0
M  V30 64 H 5.4054 0.368858 0.560522 0
M  V30 65 H 7.9494 1.60193 1.27116 0
M  V30 66 H 6.1044 1.1227 3.70775 0
M  V30 67 H 6.5184 3.30626 4.07169 0
M  V30 68 H 7.9924 1.98078 5.15237 0
M  V30 69 H 8.4694 0.477875 4.36592 0
M  V30 70 H 9.0754 2.02787 3.73841 0
M  V30 71 N 7.3905 -1.2043 1.01659 0
M  V30 72 C 8.3535 -2.21433 0.591616 0
M  V30 73 C 9.3535 -1.57203 -0.338226 0
M  V30 74 O 10.5435 -1.73737 -0.126918 0
M  V30 75 C 7.6755 -3.40628 -0.136058 0
M  V30 76 H 8.8685 -2.60545 1.48514 0
M  V30 77 H 6.4215 -1.33893 0.806379 0
M  V30 78 H 7.1565 -3.07019 -1.04449 0
M  V30 79 H 6.9415 -3.88475 0.531917 0
M  V30 80 H 8.4315 -4.15475 -0.420735 0
M  V30 81 N 8.8686 -0.792821 -1.36206 0
M  V30 82 C 10.1166 -0.366062 -1.98757 0
M  V30 83 C 10.4376 1.0668 -1.63231 0
M  V30 84 O 9.7076 1.73587 -0.907978 0
M  V30 85 H 8.2876 -0.132364 -0.735179 0
M  V30 86 H 10.9496 -1.01562 -1.66347 0
M  V30 87 H 10.0456 -0.460638 -3.08682 0
M  V30 88 N 10.3467 1.47872 -0.545128 0
M  V30 89 C 11.2767 2.32661 0.197793 0
M  V30 90 C 12.2577 1.43041 0.920504 0
M  V30 91 O 13.4427 1.71912 0.90333 0
M  V30 92 C 10.5727 3.24569 1.23582 0
M  V30 93 C 9.5267 4.23333 0.630323 0
M  V30 94 C 8.8527 5.0448 1.77211 0
M  V30 95 C 10.1527 5.20704 -0.407974 0
M  V30 96 H 11.8467 2.95024 -0.510045 0
M  V30 97 H 9.3927 1.4187 -0.246731 0
M  V30 98 H 11.3457 3.8272 1.76362 0
M  V30 99 H 10.0697 2.60236 1.97344 0
M  V30 100 H 8.7287 3.6639 0.123922 0
M  V30 101 H 8.3767 4.36561 2.49847 0
M  V30 102 H 8.0767 5.71339 1.37281 0
M  V30 103 H 9.6007 5.65487 2.3034 0
M  V30 104 H 11.0147 5.7329 0.033305 0
M  V30 105 H 9.4117 5.95699 -0.725486 0
M  V30 106 H 10.4817 4.66917 -1.30828 0
M  V30 107 N 11.8248 0.280983 1.55075 0
M  V30 108 C 12.7878 -0.590896 2.21452 0
M  V30 109 C 13.7878 -1.07682 1.19421 0
M  V30 110 O 14.9778 -0.97605 1.44288 0
M  V30 111 C 12.1098 -1.81587 2.88511 0
M  V30 112 H 13.3028 -0.0112554 2.99898 0
M  V30 113 H 10.8558 0.0316438 1.56268 0
M  V30 114 H 11.5908 -2.43587 2.14093 0
M  V30 115 H 11.3758 -1.4753 3.63287 0
M  V30 116 H 12.8658 -2.43575 3.39206 0
M  V30 117 N 13.3029 -1.57598 0.00835791 0
M  V30 118 C 14.5489 -1.91211 -0.675732 0
M  V30 119 C 14.8819 -0.883139 -1.72958 0
M  V30 120 O 14.1569 0.097016 -1.94258 0
M  V30 121 C 14.4399 -3.35379 -1.31123 0
M  V30 122 C 14.2929 -4.48999 -0.268356 0
M  V30 123 C 15.6119 -3.7912 -2.23508 0
M  V30 124 H 12.7309 -0.695374 -0.244179 0
M  V30 125 H 15.3729 -1.89901 0.0613655 0
M  V30 126 H 13.5229 -3.36626 -1.93946 0
M  V30 127 H 15.1949 -4.59887 0.360844 0
M  V30 128 H 13.4379 -4.31873 0.408482 0
M  V30 129 H 14.1089 -5.46851 -0.752218 0
M  V30 130 H 16.5849 -3.79477 -1.70693 0
M  V30 131 H 15.4609 -4.80729 -2.64936 0
M  V30 132 H 15.7219 -3.13455 -3.11766 0
M  V30 133 N 14.781 0.264519 -1.55364 0
M  V30 134 C 15.691 1.34902 -1.91934 0
M  V30 135 C 16.707 1.53595 -0.817593 0
M  V30 136 O 17.883 1.67558 -1.11742 0
M  V30 137 C 14.948 2.68676 -2.19121 0
M  V30 138 C 14.009 2.58657 -3.4263 0
M  V30 139 C 13.242 3.86051 -3.68511 0
M  V30 140 O 13.465 4.87126 -2.96757 0
M  V30 141 O 12.399 3.85744 -4.62045 0
M  V30 142 H 16.225 1.06883 -2.8427 0
M  V30 143 H 13.81 0.463775 -1.42019 0
M  V30 144 H 15.692 3.47759 -2.37995 0
M  V30 145 H 14.367 2.96463 -1.29966 0
M  V30 146 H 13.274 1.7792 -3.29082 0
M  V30 147 H 14.607 2.35818 -4.32031 0
M  V30 148 N 16.2591 1.48442 0.529413 0
M  V30 149 C 17.1891 1.65902 1.64313 0
M  V30 150 C 18.1701 0.507897 1.6234 0
M  V30 151 O 19.3551 0.740503 1.79528 0
M  V30 152 C 16.4851 1.69911 3.02898 0
M  V30 153 C 15.4391 2.8453 3.19729 0
M  V30 154 C 14.7651 2.73629 4.59381 0
M  V30 155 C 16.0651 4.25821 3.02447 0
M  V30 156 H 17.7591 2.5914 1.49955 0
M  V30 157 H 15.3051 1.24709 0.719982 0
M  V30 158 H 17.2581 1.80715 3.80684 0
M  V30 159 H 15.9821 0.732524 3.18279 0
M  V30 160 H 14.6411 2.73283 2.44361 0
M  V30 161 H 14.2891 1.74938 4.71599 0
M  V30 162 H 13.9891 3.50541 4.71588 0
M  V30 163 H 15.5131 2.86401 5.39265 0
M  V30 164 H 16.9271 4.37898 3.70024 0
M  V30 165 H 15.3241 5.03735 3.26146 0
M  V30 166 H 16.3941 4.42244 1.98867 0
M  V30 167 N 17.7372 -0.778329 1.37039 0
M  V30 168 C 18.6842 -1.89139 1.32269 0
M  V30 169 C 19.6542 -1.65017 0.189387 0
M  V30 170 O 20.8392 -1.87024 0.377693 0
M  V30 171 C 17.9792 -3.26112 1.12894 0
M  V30 172 C 17.0922 -3.62233 2.35396 0
M  V30 173 C 16.2272 -4.8838 2.08946 0
M  V30 174 C 15.2662 -5.17212 3.2735 0
M  V30 175 N 14.4032 -6.34546 3.00492 0
M  V30 176 H 19.2432 -1.92552 2.27437 0
M  V30 177 H 16.7802 -0.941473 1.13025 0
M  V30 178 H 18.7382 -4.05116 0.996835 0
M  V30 179 H 17.3682 -3.22091 0.213758 0
M  V30 180 H 16.4202 -2.78265 2.5937 0
M  V30 181 H 17.7322 -3.79481 3.23721 0
M  V30 182 H 16.8862 -5.75274 1.92729 0
M  V30 183 H 15.6252 -4.73222 1.17949 0
M  V30 184 H 14.6302 -4.28796 3.44113 0
M  V30 185 H 15.8552 -5.34283 4.19188 0
M  V30 186 H 13.8012 -6.20759 2.12118 0
M  V30 187 H 13.7182 -6.52179 3.82358 0
M  V30 188 H 14.9862 -7.24394 2.87879 0
M  V30 189 N 19.2153 -1.21501 -1.00376 0
M  V30 190 C 20.1473 -0.933174 -2.09343 0
M  V30 191 C 21.1603 0.0840896 -1.62583 0
M  V30 192 O 22.3493 -0.148563 -1.77881 0
M  V30 193 C 19.4493 -0.379869 -3.36764 0
M  V30 194 C 18.6223 -1.45176 -4.12605 0
M  V30 195 C 17.6813 -0.907476 -5.18316 0
M  V30 196 O 16.7073 -1.5912 -5.46507 0
M  V30 197 N 17.9093 0.276649 -5.7984 0
M  V30 198 H 20.6743 -1.87124 -2.34104 0
M  V30 199 H 18.2353 -1.12043 -1.16867 0
M  V30 200 H 20.2273 -0.00131488 -4.047 0
M  V30 201 H 18.7973 0.463048 -3.09151 0
M  V30 202 H 18.0173 -2.00411 -3.39454 0
M  V30 203 H 19.3053 -2.17328 -4.6005 0
M  V30 204 H 18.7033 0.849147 -5.59291 0
M  V30 205 H 17.2603 0.596702 -6.49063 0
M  V30 206 N 20.6934 1.19889 -1.02296 0
M  V30 207 C 21.9184 1.9393 -0.735237 0
M  V30 208 C 22.3434 1.74639 0.698782 0
M  V30 209 O 21.7014 1.04481 1.48167 0
M  V30 210 C 21.7494 3.43916 -1.08417 0
M  V30 211 O 20.8534 4.11917 -0.199446 0
M  V30 212 H 20.1944 0.605645 -0.272196 0
M  V30 213 H 22.7244 1.52137 -1.36804 0
M  V30 214 H 22.7344 3.9456 -1.03856 0
M  V30 215 H 21.4094 3.5728 -2.12894 0
M  V30 216 H 19.9864 3.71666 -0.303136 0
M  V30 217 N 22.1715 0.800033 1.35784 0
M  V30 218 C 23.3995 0.389606 2.03199 0
M  V30 219 C 23.8145 -0.997375 1.60306 0
M  V30 220 O 23.1715 -1.64154 0.797481 0
M  V30 221 C 23.2225 0.455855 3.58614 0
M  V30 222 O 22.9435 1.78815 3.99946 0
M  V30 223 C 24.4445 0.0374032 4.43284 0
M  V30 224 H 21.6645 0.159132 0.651857 0
M  V30 225 H 24.2085 1.08183 1.73541 0
M  V30 226 H 22.3635 -0.188057 3.86943 0
M  V30 227 H 22.7775 1.74636 4.94573 0
M  V30 228 H 24.2515 0.134882 5.51835 0
M  V30 229 H 24.7285 -1.01651 4.27275 0
M  V30 230 H 25.3345 0.654215 4.20238 0
M  V30 231 N 23.6496 -1.47581 0.552962 0
M  V30 232 C 24.6126 -2.28439 -0.186605 0
M  V30 233 C 25.6126 -1.36706 -0.84665 0
M  V30 234 O 26.8026 -1.59378 -0.703164 0
M  V30 235 C 23.9346 -3.16264 -1.2724 0
M  V30 236 H 25.1276 -2.95294 0.523609 0
M  V30 237 H 22.6806 -1.532 0.309745 0
M  V30 238 H 23.4156 -2.54091 -2.01514 0
M  V30 239 H 23.2006 -3.83769 -0.803968 0
M  V30 240 H 24.6906 -3.77198 -1.79196 0
M  V30 241 N 25.1277 -0.289203 -1.54924 0
M  V30 242 C 26.0597 0.625583 -2.20497 0
M  V30 243 C 27.0727 1.10667 -1.19402 0
M  V30 244 O 28.2617 1.02615 -1.46056 0
M  V30 245 C 25.3617 1.86702 -2.82835 0
M  V30 246 C 24.5347 1.5304 -4.09753 0
M  V30 247 C 23.5937 2.62576 -4.56005 0
M  V30 248 O 22.6197 2.28167 -5.21468 0
M  V30 249 N 23.8217 3.92901 -4.27328 0
M  V30 250 H 26.5867 0.0642801 -2.99631 0
M  V30 251 H 24.1477 -0.110896 -1.6152 0
M  V30 252 H 26.1397 2.59304 -3.10715 0
M  V30 253 H 24.7097 2.33702 -2.07611 0
M  V30 254 H 23.9297 0.637564 -3.8901 0
M  V30 255 H 25.2177 1.28072 -4.92418 0
M  V30 256 H 24.6157 4.23671 -3.74859 0
M  V30 257 H 23.1727 4.61837 -4.59946 0
M  V30 258 N 26.6058 1.57591 -0.0167156 0
M  V30 259 C 27.5688 2.08393 0.954204 0
M  V30 260 C 28.5688 0.996531 1.26198 0
M  V30 261 O 29.7588 1.25858 1.20438 0
M  V30 262 C 26.8908 2.5394 2.27436 0
M  V30 263 H 28.0838 2.95455 0.514451 0
M  V30 264 H 25.6368 1.54582 0.231089 0
M  V30 265 H 26.3718 1.70171 2.76066 0
M  V30 266 H 26.1568 3.33371 2.06412 0
M  V30 267 H 27.6468 2.93512 2.97053 0
M  V30 268 N 28.0839 -0.256276 1.55502 0
M  V30 269 C 29.0339 -1.31981 1.85916 0
M  V30 270 C 30.0179 -1.43927 0.719296 0
M  V30 271 O 31.2099 -1.47326 0.981019 0
M  V30 272 C 28.3389 -2.67703 2.14918 0
M  V30 273 C 27.4249 -2.59801 3.35208 0
M  V30 274 N 27.8159 -2.21524 4.54709 0
M  V30 275 C 26.1139 -2.90832 3.38131 0
M  V30 276 C 26.8149 -2.24024 5.36832 0
M  V30 277 N 25.7909 -2.63158 4.75656 0
M  V30 278 H 29.5929 -1.01423 2.75845 0
M  V30 279 H 27.1069 -0.464911 1.55603 0
M  V30 280 H 29.1039 -3.44445 2.34869 0
M  V30 281 H 27.7639 -2.99137 1.26282 0
M  V30 282 H 28.7749 -1.93223 4.80505 0
M  V30 283 H 25.4519 -3.26867 2.59739 0
M  V30 284 H 26.8419 -1.9685 6.42417 0
M  V30 285 N 29.562 -1.4872 -0.521534 0
M  V30 286 C 30.472 -1.66569 -1.65203 0
M  V30 287 C 31.488 -0.548197 -1.65139 0
M  V30 288 O 32.664 -0.820339 -1.83936 0
M  V30 289 C 29.729 -1.70917 -3.01642 0
M  V30 290 C 28.79 -2.94356 -3.12495 0
M  V30 291 C 28.023 -2.98487 -4.42426 0
M  V30 292 O 28.246 -2.10786 -5.30024 0
M  V30 293 O 27.18 -3.90746 -4.57822 0
M  V30 294 H 31.006 -2.62298 -1.5308 0
M  V30 295 H 28.591 -1.3222 -0.695565 0
M  V30 296 H 30.473 -1.7625 -3.82771 0
M  V30 297 H 29.148 -0.783633 -3.14071 0
M  V30 298 H 28.055 -2.94552 -2.3063 0
M  V30 299 H 29.388 -3.86322 -3.04986 0
M  V30 300 N 31.0401 0.771051 -1.3745 0
M  V30 301 C 31.9871 1.88435 -1.3327 0
M  V30 302 C 32.9571 1.64914 -0.198136 0
M  V30 303 O 34.1421 1.86821 -0.387606 0
M  V30 304 C 31.2821 3.25509 -1.14622 0
M  V30 305 C 30.3951 3.60979 -2.37314 0
M  V30 306 C 29.5301 4.87265 -2.11533 0
M  V30 307 C 28.5691 5.15469 -3.30088 0
M  V30 308 N 27.7061 6.32944 -3.03853 0
M  V30 309 H 32.5461 1.91344 -2.28455 0
M  V30 310 H 30.0831 0.935466 -1.13523 0
M  V30 311 H 32.0411 4.04582 -1.01831 0
M  V30 312 H 30.6711 3.21974 -0.230837 0
M  V30 313 H 29.7231 2.76885 -2.60842 0
M  V30 314 H 31.0351 3.77759 -3.25729 0
M  V30 315 H 30.1891 5.74244 -1.95777 0
M  V30 316 H 28.9281 4.7259 -1.20457 0
M  V30 317 H 27.9331 4.26966 -3.46382 0
M  V30 318 H 29.1581 5.32052 -4.22016 0
M  V30 319 H 27.1041 6.19625 -2.15407 0
M  V30 320 H 27.0211 6.50143 -3.85812 0
M  V30 321 H 28.2891 7.22857 -2.91716 0
M  V30 322 N 32.5182 1.22032 0.997298 0
M  V30 323 C 33.4812 0.987909 2.06816 0
M  V30 324 C 34.4812 -0.0440084 1.6074 0
M  V30 325 O 35.6712 0.194053 1.73116 0
M  V30 326 C 32.8032 0.49132 3.37341 0
M  V30 327 H 33.9962 1.93803 2.28868 0
M  V30 328 H 31.5492 1.03838 1.16822 0
M  V30 329 H 32.2842 -0.463364 3.20973 0
M  V30 330 H 32.0692 1.23575 3.72118 0
M  V30 331 H 33.5592 0.348824 4.16141 0
M  V30 332 N 33.9963 -1.19345 1.0293 0
M  V30 333 C 34.9063 -2.26245 0.620515 0
M  V30 334 C 35.9223 -1.70486 -0.347928 0
M  V30 335 O 37.0983 -2.00347 -0.205704 0
M  V30 336 C 34.1633 -3.46693 -0.0218957 0
M  V30 337 C 33.2243 -4.17632 0.994102 0
M  V30 338 C 32.4573 -5.32329 0.382253 0
M  V30 339 O 32.6803 -5.64552 -0.814676 0
M  V30 340 O 31.6143 -5.91664 1.10531 0
M  V30 341 H 35.4403 -2.63453 1.51083 0
M  V30 342 H 33.0253 -1.26207 0.799513 0
M  V30 343 H 34.9073 -4.19683 -0.380072 0
M  V30 344 H 33.5823 -3.11333 -0.886209 0
M  V30 345 H 32.4893 -3.4676 1.40387 0
M  V30 346 H 33.8223 -4.56964 1.8288 0
M  V30 347 N 35.4744 -0.807222 -1.35358 0
M  V30 348 C 36.4244 -0.190706 -2.27201 0
M  V30 349 C 37.4084 0.635838 -1.47804 0
M  V30 350 O 38.6004 0.492991 -1.69996 0
M  V30 351 C 35.7294 0.659337 -3.36909 0
M  V30 352 C 34.8154 -0.176971 -4.23731 0
M  V30 353 N 35.2064 -1.24029 -4.90357 0
M  V30 354 C 33.5044 0.0412953 -4.45981 0
M  V30 355 C 34.2054 -1.75092 -5.54723 0
M  V30 356 N 33.1814 -1.05727 -5.33219 0
M  V30 357 H 36.9834 -1.0043 -2.76208 0
M  V30 358 H 34.4974 -0.648445 -1.48892 0
M  V30 359 H 36.4944 1.11706 -4.01656 0
M  V30 360 H 35.1544 1.47127 -2.89454 0
M  V30 361 H 36.1654 -1.62295 -4.91814 0
M  V30 362 H 32.8424 0.82232 -4.09322 0
M  V30 363 H 34.2324 -2.63963 -6.17878 0
M  V30 364 N 36.9525 1.47285 -0.560781 0
M  V30 365 C 38.1775 2.07359 -0.0410566 0
M  V30 366 C 38.6025 1.41017 1.24483 0
M  V30 367 O 37.9605 0.486368 1.74654 0
M  V30 368 C 38.0085 3.6035 0.134123 0
M  V30 369 O 37.1125 3.94681 1.19587 0
M  V30 370 H 36.4535 0.661887 -0.0529291 0
M  V30 371 H 38.9835 1.89252 -0.777482 0
M  V30 372 H 38.9935 4.0652 0.347207 0
M  V30 373 H 37.6685 4.08034 -0.805047 0
M  V30 374 H 36.2455 3.60251 0.962987 0
M  V30 375 N 38.4306 0.297415 1.54768 0
M  V30 376 C 39.6586 -0.315623 2.04478 0
M  V30 377 C 40.0736 -1.47792 1.17486 0
M  V30 378 O 39.4306 -1.81404 0.19971 0
M  V30 379 C 39.4816 -0.7753 3.53088 0
M  V30 380 O 39.2026 0.340732 4.36773 0
M  V30 381 C 40.7036 -1.45386 4.18781 0
M  V30 382 H 37.9236 -0.0690887 0.667434 0
M  V30 383 H 40.4676 0.436003 1.99798 0
M  V30 384 H 38.6226 -1.47696 3.58141 0
M  V30 385 H 39.0366 -0.0165035 5.24497 0
M  V30 386 H 40.5106 -1.72669 5.24299 0
M  V30 387 H 40.9876 -2.39275 3.68299 0
M  V30 388 H 41.5936 -0.795475 4.17795 0
M  V30 389 N 39.9087 -1.5758 0.0250728 0
M  V30 390 C 41.1557 -1.91633 -0.654444 0
M  V30 391 C 41.4837 -0.901103 -1.72367 0
M  V30 392 O 40.7387 0.0905647 -1.9549 0
M  V30 393 C 41.0377 -3.32421 -1.31268 0
M  V30 394 C 40.7037 -4.49344 -0.374223 0
M  V30 395 C 39.3657 -4.8106 -0.115911 0
M  V30 396 C 41.7177 -5.20498 0.270432 0
M  V30 397 C 39.0457 -5.8129 0.79493 0
M  V30 398 C 41.3977 -6.21699 1.1693 0
M  V30 399 C 40.0617 -6.51859 1.43655 0
M  V30 400 H 39.3317 -0.701236 -0.239478 0
M  V30 401 H 41.9787 -1.91307 0.0859734 0
M  V30 402 H 40.2837 -3.28989 -2.12775 0
M  V30 403 H 41.9807 -3.56038 -1.84494 0
M  V30 404 H 38.5707 -4.24579 -0.58573 0
M  V30 405 H 42.7547 -4.96229 0.0839194 0
M  V30 406 H 38.0107 -6.03005 1.00973 0
M  V30 407 H 42.1847 -6.75955 1.67504 0
M  V30 408 H 39.8117 -7.2934 2.144 0
M  V30 409 N 41.3868 0.248026 -1.55636 0
M  V30 410 C 42.3198 1.3334 -1.85191 0
M  V30 411 C 43.2978 1.46429 -0.706906 0
M  V30 412 O 44.4818 1.62662 -0.952544 0
M  V30 413 C 41.6088 2.70703 -2.03562 0
M  V30 414 C 40.6548 2.7477 -3.26196 0
M  V30 415 S 41.4878 2.31493 -4.82878 0
M  V30 416 C 42.6438 3.70783 -5.04253 0
M  V30 417 H 42.8768 1.08072 -2.76962 0
M  V30 418 H 40.4098 0.448952 -1.47729 0
M  V30 419 H 42.3678 3.49798 -2.1483 0
M  V30 420 H 41.0288 2.9321 -1.12635 0
M  V30 421 H 40.2218 3.75648 -3.36013 0
M  V30 422 H 39.8238 2.03719 -3.13647 0
M  V30 423 H 42.1158 4.6627 -4.91527 0
M  V30 424 H 43.0588 3.65901 -6.06236 0
M  V30 425 H 43.4668 3.63244 -4.32105 0
M  V30 426 N 42.8649 1.48995 0.513639 0
M  V30 427 C 44.0899 1.61792 1.29762 0
M  V30 428 C 44.5149 0.284475 1.85936 0
M  V30 429 O 43.8729 -0.746185 1.65232 0
M  V30 430 C 43.9209 2.67993 2.41272 0
M  V30 431 O 43.0249 2.26287 3.44772 0
M  V30 432 H 42.3659 0.541963 0.38363 0
M  V30 433 H 44.8959 1.95097 0.616307 0
M  V30 434 H 44.9059 2.89772 2.87221 0
M  V30 435 H 43.5809 3.64791 1.9975 0
M  V30 436 H 42.1579 2.14788 3.04829 0
M  V30 437 N 44.343 -0.763751 1.37857 0
M  V30 438 C 45.62 -1.51244 1.24035 0
M  V30 439 C 46 -2.10472 -0.162649 0
M  V30 440 O 45.348 -1.96206 -1.17112 0
M  V30 441 C 45.558 -2.58694 2.34261 0
M  V30 442 C 46.906 -3.25878 2.72193 0
M  V30 443 O 47.93 -2.68993 2.33497 0
M  V30 444 O 46.789 -4.2874 3.38887 0
M  V30 445 H 43.883 -0.670243 0.484462 0
M  V30 446 H 46.429 -0.800031 1.49658 0
M  V30 447 H 45.201 -2.13105 3.2818 0
M  V30 448 H 44.824 -3.37527 2.10146 0
M  V30 449 N 45.8211 -1.22559 -0.990812 0
M  V30 450 C 46.7511 -1.0218 -2.09956 0
M  V30 451 C 47.7321 0.0579394 -1.70001 0
M  V30 452 O 48.9171 -0.104684 -1.93918 0
M  V30 453 C 46.0471 -0.601023 -3.4206 0
M  V30 454 C 45.0011 -1.62694 -3.95872 0
M  V30 455 C 44.3271 -1.06193 -5.24049 0
M  V30 456 C 45.6271 -3.01743 -4.2632 0
M  V30 457 H 47.3211 -1.94916 -2.27262 0
M  V30 458 H 44.8671 -0.938566 -1.09211 0
M  V30 459 H 46.8201 -0.445561 -4.19038 0
M  V30 460 H 45.5441 0.362005 -3.24588 0
M  V30 461 H 44.2031 -1.77021 -3.21028 0
M  V30 462 H 43.8511 -0.0901903 -5.02919 0
M  V30 463 H 43.5511 -1.74732 -5.61019 0
M  V30 464 H 45.0751 -0.918092 -6.03658 0
M  V30 465 H 46.4891 -2.90777 -4.94087 0
M  V30 466 H 44.8861 -3.67425 -4.74467 0
M  V30 467 H 45.9561 -3.51518 -3.34011 0
M  V30 468 N 47.2992 1.18797 -1.03562 0
M  V30 469 C 48.2292 2.24472 -0.643019 0
M  V30 470 C 49.2102 1.66433 0.351283 0
M  V30 471 O 50.3952 1.92803 0.232505 0
M  V30 472 C 47.5252 3.473 4.24935e-05 0
M  V30 473 C 46.4792 4.18055 -0.917257 0
M  V30 474 C 45.8052 5.34519 -0.138941 0
M  V30 475 C 47.1052 4.72109 -2.23407 0
M  V30 476 H 48.7992 2.57566 -1.52643 0
M  V30 477 H 46.3452 1.23806 -0.735394 0
M  V30 478 H 48.2982 4.20426 0.286383 0
M  V30 479 H 47.0222 3.13424 0.918299 0
M  V30 480 H 45.6812 3.46821 -1.1879 0
M  V30 481 H 45.3292 4.96891 0.781562 0
M  V30 482 H 45.0292 5.82794 -0.750005 0
M  V30 483 H 46.5532 6.10438 0.1405 0
M  V30 484 H 47.9672 5.36955 -2.00879 0
M  V30 485 H 46.3642 5.30897 -2.79765 0
M  V30 486 H 47.4342 3.89807 -2.88407 0
M  V30 487 N 48.7773 0.814389 1.34928 0
M  V30 488 C 49.7243 0.22822 2.29669 0
M  V30 489 C 50.6943 -0.642164 1.53184 0
M  V30 490 O 51.8793 -0.585605 1.81591 0
M  V30 491 C 49.0193 -0.61089 3.3965 0
M  V30 492 C 48.1323 0.280792 4.31086 0
M  V30 493 C 47.2673 -0.567067 5.28165 0
M  V30 494 C 46.3063 0.324531 6.11239 0
M  V30 495 N 45.4433 -0.483756 7.00431 0
M  V30 496 H 50.2833 1.04153 2.79206 0
M  V30 497 H 47.8203 0.525133 1.37407 0
M  V30 498 H 49.7783 -1.11263 4.0209 0
M  V30 499 H 48.4083 -1.38939 2.91369 0
M  V30 500 H 47.4603 0.900688 3.69583 0
M  V30 501 H 48.7723 0.966723 4.89342 0
M  V30 502 H 47.9263 -1.13363 5.96015 0
M  V30 503 H 46.6653 -1.28654 4.70425 0
M  V30 504 H 45.6703 0.903298 5.42329 0
M  V30 505 H 46.8953 1.04198 6.71059 0
M  V30 506 H 44.8413 -1.18706 6.45171 0
M  V30 507 H 44.7583 0.143965 7.55863 0
M  V30 508 H 46.0263 -1.03334 7.7262 0
M  V30 509 N 50.2554 -1.46986 0.568584 0
M  V30 510 C 51.5034 -2.02041 0.0487022 0
M  V30 511 C 51.8244 -1.44408 -1.31039 0
M  V30 512 O 51.0944 -0.623477 -1.85714 0
M  V30 513 H 49.6744 -0.746849 0.015014 0
M  V30 514 H 52.3364 -1.80257 0.741168 0
M  V30 515 H 51.4324 -3.12085 -0.0308961 0
M  V30 516 N 51.7335 -0.305618 -1.54608 0
M  V30 517 C 53.1495 0.0476228 -1.59529 0
M  V30 518 C 53.3495 1.52025 -1.32252 0
M  V30 519 O 52.4055 2.27368 -1.09818 0
M  V30 520 C 53.7185 -0.354471 -2.98603 0
M  V30 521 C 55.2665 -0.303622 -3.11524 0
M  V30 522 C 55.7415 -0.680608 -4.52915 0
M  V30 523 N 57.2325 -0.63332 -4.5885 0
M  V30 524 C 57.9675 -0.897432 -5.66334 0
M  V30 525 N 57.4635 -1.22775 -6.81834 0
M  V30 526 N 59.2565 -0.824186 -5.56025 0
M  V30 527 H 51.4075 -1.2653 -1.70599 0
M  V30 528 H 53.6705 -0.513291 -0.797017 0
M  V30 529 H 53.3765 -1.3798 -3.23503 0
M  V30 530 H 53.2505 0.289568 -3.76087 0
M  V30 531 H 55.6375 0.712472 -2.8637 0
M  V30 532 H 55.7185 -0.982348 -2.36185 0
M  V30 533 H 55.3625 -1.69453 -4.78799 0
M  V30 534 H 55.2925 0.0202385 -5.26596 0
M  V30 535 H 57.7835 -0.389138 -3.75891 0
M  V30 536 H 58.0965 -1.41513 -7.59733 0
M  V30 537 H 56.4415 -1.26583 -6.83375 0
M  V30 538 H 59.6325 -0.565748 -4.64669 0
M  V30 539 H 59.8055 -1.03338 -6.39707 0
M  V30 540 N 53.2116 1.57565 -0.0334293 0
M  V30 541 C 54.1416 2.13511 0.945265 0
M  V30 542 C 55.1226 1.05231 1.33643 0
M  V30 543 O 56.3076 1.33084 1.41429 0
M  V30 544 C 53.4376 2.6657 2.22616 0
M  V30 545 C 52.3916 3.79676 1.97561 0
M  V30 546 C 51.7176 4.1918 3.31952 0
M  V30 547 C 53.0176 5.0557 1.31135 0
M  V30 548 H 54.7116 2.95538 0.479325 0
M  V30 549 H 52.2576 1.42166 0.229115 0
M  V30 550 H 54.2106 3.04344 2.91466 0
M  V30 551 H 52.9346 1.8171 2.71384 0
M  V30 552 H 51.5936 3.42347 1.31127 0
M  V30 553 H 51.2416 3.31296 3.78487 0
M  V30 554 H 50.9416 4.95402 3.15992 0
M  V30 555 H 52.4656 4.59541 4.02063 0
M  V30 556 H 53.8796 5.40903 1.89992 0
M  V30 557 H 52.2766 5.86818 1.25559 0
M  V30 558 H 53.3466 4.84062 0.284894 0
M  V30 559 N 54.6897 -0.239769 1.55765 0
M  V30 560 C 55.9377 -0.964892 1.77579 0
M  V30 561 C 56.2587 -1.85582 0.598699 0
M  V30 562 O 55.5287 -1.92075 -0.385226 0
M  V30 563 H 54.1087 -0.359265 0.654933 0
M  V30 564 H 56.7707 -0.256001 1.93211 0
M  V30 565 H 55.8667 -1.58243 2.69009 0
M  V30 566 N 56.1678 -1.49265 -0.50573 0
M  V30 567 C 57.4138 -1.58748 -1.26202 0
M  V30 568 C 57.7468 -0.271227 -1.92297 0
M  V30 569 O 57.0218 0.724831 -1.80489 0
M  V30 570 C 57.3048 -2.74332 -2.33268 0
M  V30 571 C 57.1578 -4.15737 -1.71705 0
M  V30 572 C 58.4768 -2.85576 -3.34865 0
M  V30 573 H 55.5958 -0.577826 -0.457478 0
M  V30 574 H 58.2378 -1.81532 -0.560897 0
M  V30 575 H 56.3878 -2.55036 -2.93068 0
M  V30 576 H 58.0598 -4.46537 -1.15769 0
M  V30 577 H 56.3028 -4.21605 -1.02135 0
M  V30 578 H 56.9738 -4.92477 -2.49341 0
M  V30 579 H 59.4498 -3.03127 -2.8505 0
M  V30 580 H 58.3258 -3.68135 -4.07146 0
M  V30 581 H 58.5868 -1.94732 -3.96903 0
M  V30 582 N 57.6459 0.756429 -1.3826 0
M  V30 583 C 58.6089 1.85176 -1.35065 0
M  V30 584 C 59.6089 1.58818 -0.251703 0
M  V30 585 O 60.7989 1.66615 -0.508433 0
M  V30 586 C 57.9309 3.22596 -1.10201 0
M  V30 587 H 59.1239 1.89417 -2.3251 0
M  V30 588 H 56.6769 0.95783 -1.23512 0
M  V30 589 H 57.4119 3.24025 -0.133504 0
M  V30 590 H 57.1969 3.43122 -1.89762 0
M  V30 591 H 58.6869 4.02673 -1.10654 0
M  V30 592 N 59.124 1.23083 0.984299 0
M  V30 593 C 60.034 1.02515 2.11016 0
M  V30 594 C 61.05 -0.0291702 1.73976 0
M  V30 595 O 62.226 0.165434 2.00719 0
M  V30 596 C 59.291 0.614673 3.41208 0
M  V30 597 C 58.352 1.74359 3.92297 0
M  V30 598 C 57.585 1.35261 5.16275 0
M  V30 599 O 57.808 0.235136 5.69915 0
M  V30 600 O 56.742 2.17227 5.61334 0
M  V30 601 H 60.568 1.96862 2.31255 0
M  V30 602 H 58.153 1.01753 1.09392 0
M  V30 603 H 60.035 0.396518 4.1953 0
M  V30 604 H 58.71 -0.299851 3.22308 0
M  V30 605 H 57.617 2.01635 3.1511 0
M  V30 606 H 58.95 2.63629 4.15645 0
M  V30 607 N 60.6021 -1.18246 1.0419 0
M  V30 608 C 61.8491 -1.88257 0.746017 0
M  V30 609 C 62.1771 -1.80429 -0.726331 0
M  V30 610 O 61.4321 -1.2 -1.54591 0
M  V30 611 C 61.7311 -3.38082 1.15911 0
M  V30 612 C 61.3971 -3.66114 2.63195 0
M  V30 613 C 60.0591 -3.73474 3.03432 0
M  V30 614 C 62.4111 -3.78398 3.5842 0
M  V30 615 C 59.7391 -3.90599 4.37778 0
M  V30 616 C 62.0911 -3.97039 4.92487 0
M  V30 617 C 60.7551 -4.02635 5.32392 0
M  V30 618 H 60.0251 -0.688883 0.272987 0
M  V30 619 H 62.6721 -1.3995 1.30715 0
M  V30 620 H 60.9771 -3.88377 0.516806 0
M  V30 621 H 62.6741 -3.90596 0.907516 0
M  V30 622 H 59.2641 -3.61003 2.3103 0
M  V30 623 H 63.4481 -3.72042 3.28479 0
M  V30 624 H 58.7041 -3.93175 4.68213 0
M  V30 625 H 62.8781 -4.05486 5.66175 0
M  V30 626 H 60.5051 -4.15657 6.36501 0
M  V30 627 N 62.0802 -0.821533 -1.34494 0
M  V30 628 C 63.3082 -0.421884 -2.02553 0
M  V30 629 C 63.7232 0.971745 -1.61872 0
M  V30 630 O 63.0802 1.62864 -0.823496 0
M  V30 631 C 63.1312 -0.51285 -3.57844 0
M  V30 632 O 62.8522 -1.85155 -3.97051 0
M  V30 633 C 64.3532 -0.107921 -4.43169 0
M  V30 634 H 61.5732 -0.169482 -0.649243 0
M  V30 635 H 64.1172 -1.1093 -1.71798 0
M  V30 636 H 62.2722 0.126474 -3.87193 0
M  V30 637 H 62.6862 -1.82482 -4.91732 0
M  V30 638 H 64.1602 -0.222657 -5.51551 0
M  V30 639 H 64.6372 0.948401 -4.28838 0
M  V30 640 H 65.2432 -0.720989 -4.19144 0
M  V30 641 N 63.5583 1.46682 -0.576371 0
M  V30 642 C 64.9743 1.57822 -0.237562 0
M  V30 643 C 65.1743 1.57237 1.26011 0
M  V30 644 O 64.2303 1.48596 2.04146 0
M  V30 645 C 65.5433 2.87499 -0.881168 0
M  V30 646 C 67.0913 3.01119 -0.85417 0
M  V30 647 C 67.5663 4.33524 -1.4772 0
M  V30 648 N 69.0573 4.40207 -1.44125 0
M  V30 649 C 69.7923 5.4126 -1.89276 0
M  V30 650 N 69.2883 6.49021 -2.42371 0
M  V30 651 N 71.0813 5.32422 -1.80231 0
M  V30 652 H 63.2323 1.45306 -1.54919 0
M  V30 653 H 65.4953 0.692733 -0.647167 0
M  V30 654 H 65.2013 2.9372 -1.93447 0
M  V30 655 H 65.0753 3.75224 -0.385592 0
M  V30 656 H 67.4623 2.94485 0.190491 0
M  V30 657 H 67.5433 2.14887 -1.3877 0
M  V30 658 H 67.1873 4.40916 -2.52103 0
M  V30 659 H 67.1173 5.1852 -0.918947 0
M  V30 660 H 69.6083 3.62931 -1.05307 0
M  V30 661 H 69.9213 7.2233 -2.74698 0
M  V30 662 H 68.2663 6.49858 -2.46393 0
M  V30 663 H 71.4573 4.47137 -1.38514 0
M  V30 664 H 71.6303 6.11034 -2.15735 0
M  V30 665 N 65.0364 0.313813 1.54444 0
M  V30 666 C 65.9664 -0.549454 2.26943 0
M  V30 667 C 66.9474 -1.12741 1.27372 0
M  V30 668 O 68.1324 -1.15436 1.56167 0
M  V30 669 C 65.2624 -1.71523 3.01989 0
M  V30 670 C 64.2164 -1.26703 4.08816 0
M  V30 671 C 63.5424 -2.51898 4.71647 0
M  V30 672 C 64.8424 -0.388962 5.2085 0
M  V30 673 H 66.5364 0.0552661 2.99349 0
M  V30 674 H 64.0824 0.0280207 1.43973 0
M  V30 675 H 66.0354 -2.32535 3.51433 0
M  V30 676 H 64.7594 -2.34639 2.27183 0
M  V30 677 H 63.4184 -0.679896 3.6024 0
M  V30 678 H 63.0664 -3.13356 3.93468 0
M  V30 679 H 62.7664 -2.22605 5.43802 0
M  V30 680 H 64.2904 -3.1369 5.23861 0
M  V30 681 H 65.7044 -0.905107 5.6611 0
M  V30 682 H 64.1014 -0.18924 5.99802 0
M  V30 683 H 65.1714 0.582699 4.81386 0
M  V30 684 N 66.5145 -1.57545 0.0417849 0
M  V30 685 C 67.4465 -2.07904 -0.964799 0
M  V30 686 C 68.4595 -1.00497 -1.28079 0
M  V30 687 O 69.6485 -1.28087 -1.24322 0
M  V30 688 C 66.7485 -2.49928 -2.28887 0
M  V30 689 C 65.9215 -3.80562 -2.15619 0
M  V30 690 C 64.9805 -4.08999 -3.31069 0
M  V30 691 O 64.0065 -4.79061 -3.0739 0
M  V30 692 N 65.2085 -3.6017 -4.55256 0
M  V30 693 H 67.9735 -2.94886 -0.535029 0
M  V30 694 H 65.5345 -1.61252 -0.144681 0
M  V30 695 H 67.5265 -2.66034 -3.04972 0
M  V30 696 H 66.0965 -1.68245 -2.63463 0
M  V30 697 H 65.3165 -3.74129 -1.24183 0
M  V30 698 H 66.6045 -4.66126 -2.03971 0
M  V30 699 H 66.0025 -3.03512 -4.77386 0
M  V30 700 H 64.5595 -3.81532 -5.28466 0
M  V30 701 N 67.9926 0.231505 -1.5589 0
M  V30 702 C 68.9026 1.308 -1.94752 0
M  V30 703 C 69.9186 1.51826 -0.849989 0
M  V30 704 O 71.0946 1.6515 -1.15271 0
M  V30 705 C 68.1596 2.63968 -2.24771 0
M  V30 706 C 67.2206 2.51331 -3.48039 0
M  V30 707 C 66.4536 3.78148 -3.76616 0
M  V30 708 O 66.6766 4.80722 -3.07022 0
M  V30 709 O 65.6106 3.75857 -4.70123 0
M  V30 710 H 69.4366 1.0083 -2.86474 0
M  V30 711 H 67.0216 0.433547 -1.42971 0
M  V30 712 H 68.9036 3.42633 -2.45318 0
M  V30 713 H 67.5786 2.9364 -1.36225 0
M  V30 714 H 66.4856 1.709 -3.32782 0
M  V30 715 H 67.8186 2.26601 -4.36936 0
M  V30 716 N 69.4707 1.49531 0.497807 0
M  V30 717 C 70.4027 1.62559 1.61578 0
M  V30 718 C 71.4157 0.508134 1.54667 0
M  V30 719 O 72.6047 0.780309 1.60541 0
M  V30 720 C 69.7047 1.56925 3.00379 0
M  V30 721 C 68.8777 2.84257 3.3244 0
M  V30 722 C 67.9367 2.71632 4.50669 0
M  V30 723 O 66.9627 3.4557 4.52294 0
M  V30 724 N 68.1647 1.83391 5.5077 0
M  V30 725 H 70.9297 2.58981 1.50828 0
M  V30 726 H 68.4907 1.4666 0.685743 0
M  V30 727 H 70.4827 1.46129 3.77397 0
M  V30 728 H 69.0527 0.683483 3.05037 0
M  V30 729 H 68.2727 3.09381 2.44289 0
M  V30 730 H 69.5607 3.68666 3.5066 0
M  V30 731 H 68.9587 1.22583 5.52259 0
M  V30 732 H 67.5157 1.78515 6.26878 0
M  V30 733 N 70.9488 -0.749086 1.3866 0
M  V30 734 C 71.9118 -1.84457 1.36045 0
M  V30 735 C 72.9118 -1.58682 0.260122 0
M  V30 736 O 74.1018 -1.66343 0.517261 0
M  V30 737 C 71.2338 -3.22008 1.11911 0
M  V30 738 H 72.4268 -1.88182 2.33512 0
M  V30 739 H 69.9798 -0.951266 1.24019 0
M  V30 740 H 70.7148 -3.2395 0.150686 0
M  V30 741 H 70.4998 -3.42111 1.91579 0
M  V30 742 H 71.9898 -4.0208 1.12788 0
M  V30 743 N 72.4269 -1.23603 -0.977757 0
M  V30 744 C 73.6729 -1.08136 -1.72274 0
M  V30 745 C 74.0279 0.377453 -1.88661 0
M  V30 746 O 73.3209 1.27552 -1.42972 0
M  V30 747 C 73.5149 -1.7433 -3.11999 0
M  V30 748 C 73.3439 -3.26498 -3.0924 0
M  V30 749 C 72.1139 -3.9567 -3.14282 0
M  V30 750 C 74.3119 -4.2323 -2.92201 0
M  V30 751 N 72.2939 -5.34799 -3.01436 0
M  V30 752 C 73.6649 -5.49289 -2.87544 0
M  V30 753 C 75.7199 -4.13931 -2.76705 0
M  V30 754 C 74.4229 -6.67116 -2.68978 0
M  V30 755 C 76.4489 -5.31424 -2.59504 0
M  V30 756 C 75.8109 -6.5641 -2.55548 0
M  V30 757 H 71.9099 -0.450247 -0.639376 0
M  V30 758 H 74.4939 -1.5637 -1.16002 0
M  V30 759 H 72.6649 -1.28624 -3.66484 0
M  V30 760 H 74.3969 -1.51815 -3.75146 0
M  V30 761 H 71.1519 -3.46767 -3.22567 0
M  V30 762 H 71.5759 -6.07748 -2.98281 0
M  V30 763 H 76.2179 -3.1807 -2.78552 0
M  V30 764 H 73.9359 -7.63109 -2.65876 0
M  V30 765 H 77.5219 -5.26072 -2.48474 0
M  V30 766 H 76.4019 -7.45795 -2.42405 0
M  V30 767 N 73.905 1.17692 -1.04816 0
M  V30 768 C 74.835 2.23777 -0.666791 0
M  V30 769 C 75.816 1.66796 0.33361 0
M  V30 770 O 77.001 1.93039 0.212042 0
M  V30 771 C 74.131 3.47281 -0.0367933 0
M  V30 772 C 73.085 4.17059 -0.961546 0
M  V30 773 C 72.411 5.34342 -0.195626 0
M  V30 774 C 73.711 4.69713 -2.28402 0
M  V30 775 H 75.405 2.55933 -1.55367 0
M  V30 776 H 72.951 1.23019 -0.748484 0
M  V30 777 H 74.904 4.20706 0.241775 0
M  V30 778 H 73.628 3.14381 0.885004 0
M  V30 779 H 72.287 3.45541 -1.22462 0
M  V30 780 H 71.935 4.97692 0.728816 0
M  V30 781 H 71.635 5.81966 -0.811775 0
M  V30 782 H 73.159 6.10553 0.0757473 0
M  V30 783 H 74.573 5.34794 -2.06563 0
M  V30 784 H 72.97 5.279 -2.8538 0
M  V30 785 H 74.04 3.86726 -2.92525 0
M  V30 786 N 75.3831 0.828654 1.34056 0
M  V30 787 C 76.6301 0.419458 1.98108 0
M  V30 788 C 76.9581 -1.01886 1.65679 0
M  V30 789 O 76.2131 -1.72539 0.923512 0
M  V30 790 C 76.5121 0.575226 3.52741 0
M  V30 791 C 76.1781 1.98012 4.05095 0
M  V30 792 C 74.8401 2.36442 4.19104 0
M  V30 793 C 77.1921 2.89824 4.33188 0
M  V30 794 C 74.5201 3.66009 4.58535 0
M  V30 795 C 76.8721 4.1886 4.74066 0
M  V30 796 C 75.5361 4.5726 4.86281 0
M  V30 797 H 74.8061 0.153491 0.724929 0
M  V30 798 H 77.4531 1.05371 1.59904 0
M  V30 799 H 75.7581 -0.142385 3.91541 0
M  V30 800 H 77.4551 0.239057 4.00287 0
M  V30 801 H 74.0451 1.67162 3.94658 0
M  V30 802 H 78.2291 2.61375 4.21897 0
M  V30 803 H 73.4851 3.95579 4.66184 0
M  V30 804 H 77.6591 4.90086 4.94761 0
M  V30 805 H 75.2861 5.57707 5.16592 0
M  V30 806 N 76.8612 -1.46375 0.584142 0
M  V30 807 C 78.0912 -2.06461 0.0758195 0
M  V30 808 C 78.4992 -1.43322 -1.23512 0
M  V30 809 O 77.8422 -0.533216 -1.75791 0
M  V30 810 C 77.9042 -3.59131 -0.162773 0
M  V30 811 C 77.5682 -4.4447 1.06279 0
M  V30 812 C 78.5652 -4.80918 1.97519 0
M  V30 813 C 76.2502 -4.85584 1.28504 0
M  V30 814 C 78.2442 -5.57309 3.09331 0
M  V30 815 C 75.9312 -5.61734 2.4062 0
M  V30 816 C 76.9292 -5.9751 3.30863 0
M  V30 817 O 76.6172 -6.72121 4.41032 0
M  V30 818 H 76.3492 -0.673745 0.0551725 0
M  V30 819 H 78.9032 -1.88969 0.804984 0
M  V30 820 H 77.1332 -3.74936 -0.946565 0
M  V30 821 H 78.8222 -4.0114 -0.619782 0
M  V30 822 H 79.5882 -4.49732 1.81565 0
M  V30 823 H 75.4672 -4.57187 0.591702 0
M  V30 824 H 79.0112 -5.85152 3.79793 0
M  V30 825 H 74.9082 -5.92334 2.56537 0
M  V30 826 H 75.6762 -6.90547 4.39417 0
M  V30 827 N 78.3393 -0.321999 -1.54275 0
M  V30 828 C 79.5673 0.283052 -2.04955 0
M  V30 829 C 79.9823 1.45904 -1.19823 0
M  V30 830 O 79.3393 1.81063 -0.228545 0
M  V30 831 C 79.3903 0.719028 -3.54277 0
M  V30 832 O 79.1113 -0.410175 -4.36176 0
M  V30 833 C 80.6123 1.38705 -4.21041 0
M  V30 834 H 77.8323 0.0584616 -0.668448 0
M  V30 835 H 80.3763 -0.467734 -1.99079 0
M  V30 836 H 78.5313 1.41979 -3.60445 0
M  V30 837 H 78.9453 -0.0669416 -5.24457 0
M  V30 838 H 80.4193 1.64306 -5.2698 0
M  V30 839 H 80.8963 2.33385 -3.72059 0
M  V30 840 H 81.5023 0.728906 -4.19007 0
M  V30 841 N 79.8174 1.5752 -0.0501392 0
M  V30 842 C 80.7804 2.1037 0.909786 0
M  V30 843 C 81.7804 1.02308 1.24056 0
M  V30 844 O 82.9704 1.28385 1.17741 0
M  V30 845 C 80.1024 2.58708 2.21998 0
M  V30 846 H 81.2954 2.96479 0.451665 0
M  V30 847 H 78.8484 1.55038 0.198248 0
M  V30 848 H 79.5834 1.75989 2.72394 0
M  V30 849 H 79.3684 3.37675 1.99295 0
M  V30 850 H 80.8584 2.99747 2.9076 0
M  V30 851 N 81.2955 -0.223234 1.56011 0
M  V30 852 C 82.2255 -1.27988 1.95298 0
M  V30 853 C 83.2065 -1.48976 0.820979 0
M  V30 854 O 84.3915 -1.61188 1.08315 0
M  V30 855 C 81.5215 -2.63 2.26822 0
M  V30 856 C 80.4755 -2.56671 3.42497 0
M  V30 857 C 79.8015 -3.95697 3.59622 0
M  V30 858 C 81.1015 -2.11601 4.77517 0
M  V30 859 H 82.7955 -0.953525 2.8381 0
M  V30 860 H 80.3415 -0.457244 1.36548 0
M  V30 861 H 82.2945 -3.37077 2.52898 0
M  V30 862 H 81.0185 -2.9732 1.35161 0
M  V30 863 H 79.6775 -1.85051 3.16467 0
M  V30 864 H 79.3255 -4.27322 2.6534 0
M  V30 865 H 79.0255 -3.92345 4.37424 0
M  V30 866 H 80.5495 -4.71438 3.88044 0
M  V30 867 H 81.9635 -2.7542 5.02809 0
M  V30 868 H 80.3605 -2.19311 5.5859 0
M  V30 869 H 81.4305 -1.06824 4.72987 0
M  V30 870 N 82.7736 -1.49793 -0.48987 0
M  V30 871 C 83.6836 -1.70036 -1.61632 0
M  V30 872 C 84.6996 -0.583102 -1.63939 0
M  V30 873 O 85.8756 -0.859169 -1.82154 0
M  V30 874 C 82.9406 -1.77277 -2.97949 0
M  V30 875 C 82.0016 -3.00918 -3.06181 0
M  V30 876 C 81.2346 -3.07804 -4.35996 0
M  V30 877 O 81.4576 -2.21982 -5.25433 0
M  V30 878 O 80.3916 -4.00369 -4.49431 0
M  V30 879 H 84.2176 -2.65486 -1.47482 0
M  V30 880 H 81.8026 -1.33666 -0.667362 0
M  V30 881 H 83.6846 -1.84329 -3.78947 0
M  V30 882 H 82.3596 -0.850076 -3.12339 0
M  V30 883 H 81.2666 -2.99377 -2.2433 0
M  V30 884 H 82.5996 -3.92704 -2.96723 0
M  V30 885 N 84.2517 0.741722 -1.39055 0
M  V30 886 C 85.1837 1.8657 -1.33133 0
M  V30 887 C 86.1967 1.61001 -0.241329 0
M  V30 888 O 87.3857 1.7136 -0.499784 0
M  V30 889 C 84.4857 3.22457 -1.04283 0
M  V30 890 C 83.6587 3.75435 -2.24427 0
M  V30 891 C 82.7177 4.89867 -1.92138 0
M  V30 892 O 81.7437 5.03879 -2.64754 0
M  V30 893 N 82.9457 5.73738 -0.88347 0
M  V30 894 H 85.7107 1.92156 -2.29991 0
M  V30 895 H 83.2717 0.922172 -1.3307 0
M  V30 896 H 85.2637 3.9657 -0.807128 0
M  V30 897 H 83.8337 3.12181 -0.161807 0
M  V30 898 H 83.0537 2.92751 -2.6399 0
M  V30 899 H 84.3417 4.07563 -3.04581 0
M  V30 900 H 83.7397 5.64999 -0.281517 0
M  V30 901 H 82.2967 6.47947 -0.707662 0
M  V30 902 N 85.7298 1.2412 0.971189 0
M  V30 903 C 86.6928 1.03156 2.04674 0
M  V30 904 C 87.6928 -0.00990322 1.60797 0
M  V30 905 O 88.8828 0.230729 1.72665 0
M  V30 906 C 86.0148 0.562765 3.36223 0
M  V30 907 H 87.2078 1.98614 2.24705 0
M  V30 908 H 84.7608 1.06293 1.14593 0
M  V30 909 H 85.4958 -0.395176 3.21883 0
M  V30 910 H 85.2808 1.31441 3.69413 0
M  V30 911 H 86.7708 0.437015 4.15307 0
M  V30 912 N 87.2079 -1.17134 1.05439 0
M  V30 913 C 88.4539 -1.87733 0.767077 0
M  V30 914 C 88.7869 -1.8098 -0.704253 0
M  V30 915 O 88.0619 -1.21951 -1.5152 0
M  V30 916 C 88.3449 -3.37659 1.25133 0
M  V30 917 C 88.1979 -3.53149 2.78578 0
M  V30 918 C 89.5169 -4.31768 0.852324 0
M  V30 919 H 86.6359 -0.681687 0.280129 0
M  V30 920 H 89.2779 -1.37732 1.30881 0
M  V30 921 H 87.4279 -3.80373 0.790469 0
M  V30 922 H 89.0999 -3.19434 3.32806 0
M  V30 923 H 87.3429 -2.95345 3.17732 0
M  V30 924 H 88.0139 -4.58403 3.07523 0
M  V30 925 H 90.4899 -3.96909 1.24911 0
M  V30 926 H 89.3659 -5.35199 1.21873 0
M  V30 927 H 89.6269 -4.41429 -0.243485 0
M  V30 928 N 88.686 -0.835752 -1.33615 0
M  V30 929 C 89.963 -0.352017 -1.92406 0
M  V30 930 C 90.343 1.16225 -1.76224 0
M  V30 931 O 89.691 1.97526 -1.14873 0
M  V30 932 C 89.901 -0.795485 -3.39813 0
M  V30 933 C 91.249 -0.801703 -4.16963 0
M  V30 934 O 92.273 -0.738889 -3.48452 0
M  V30 935 O 91.132 -0.886607 -5.3926 0
M  V30 936 H 88.226 -0.0989641 -0.821057 0
M  V30 937 H 90.772 -0.921397 -1.42507 0
M  V30 938 H 89.544 -1.83795 -3.45449 0
M  V30 939 H 89.167 -0.202505 -3.97084 0
M  V30 940 N 90.1641 1.46063 -0.591896 0
M  V30 941 C 91.1271 2.28854 0.125973 0
M  V30 942 C 92.1271 1.38903 0.810107 0
M  V30 943 O 93.3171 1.61186 0.66066 0
M  V30 944 C 90.4491 3.19526 1.1881 0
M  V30 945 H 91.6421 2.93802 -0.601717 0
M  V30 946 H 89.1951 1.52325 -0.350254 0
M  V30 947 H 89.9301 2.59345 1.94707 0
M  V30 948 H 89.7151 3.85766 0.701936 0
M  V30 949 H 91.2051 3.81817 1.69132 0
M  V30 950 N 91.6422 0.330177 1.54103 0
M  V30 951 C 92.8882 -0.270806 2.00984 0
M  V30 952 C 93.2212 -1.51265 1.21789 0
M  V30 953 O 92.4962 -1.92142 0.301927 0
M  V30 954 C 92.7792 -0.598339 3.55094 0
M  V30 955 C 92.6322 0.654674 4.4501 0
M  V30 956 C 93.9512 -1.41334 4.16789 0
M  V30 957 H 91.0702 -0.0969531 0.730595 0
M  V30 958 H 93.7122 0.448066 1.84641 0
M  V30 959 H 91.8622 -1.21078 3.69151 0
M  V30 960 H 93.5342 1.29285 4.42813 0
M  V30 961 H 91.7772 1.28224 4.14416 0
M  V30 962 H 92.4482 0.380944 5.50684 0
M  V30 963 H 94.9242 -0.895597 4.06347 0
M  V30 964 H 93.8002 -1.61127 5.24718 0
M  V30 965 H 94.0612 -2.41146 3.70541 0
M  V30 966 N 93.1203 -1.57491 0.0584922 0
M  V30 967 C 94.5363 -1.56792 -0.298091 0
M  V30 968 C 94.7363 -1.06679 -1.70944 0
M  V30 969 O 93.7923 -0.726672 -2.41818 0
M  V30 970 C 95.1053 -3.00461 -0.119879 0
M  V30 971 C 96.6533 -3.1242 -0.190428 0
M  V30 972 C 97.1283 -4.57982 -0.0406567 0
M  V30 973 N 98.6193 -4.63099 -0.0966958 0
M  V30 974 C 99.3543 -5.734 -0.00502943 0
M  V30 975 N 98.8503 -6.9266 0.139402 0
M  V30 976 N 100.643 -5.62067 -0.0611391 0
M  V30 977 H 92.7943 -1.88386 0.98105 0
M  V30 978 H 95.0573 -0.867865 0.381463 0
M  V30 979 H 94.7633 -3.41187 0.85349 0
M  V30 980 H 94.6373 -3.66843 -0.877833 0
M  V30 981 H 97.0243 -2.71589 -1.15427 0
M  V30 982 H 97.1053 -2.48702 0.598405 0
M  V30 983 H 96.7493 -4.995 0.919897 0
M  V30 984 H 96.6793 -5.19715 -0.848727 0
M  V30 985 H 99.1703 -3.77331 -0.207277 0
M  V30 986 H 99.4833 -7.72536 0.201855 0
M  V30 987 H 97.8283 -6.94781 0.174586 0
M  V30 988 H 101.019 -4.67782 -0.172583 0
M  V30 989 H 101.192 -6.47999 0.0137562 0
M  V30 990 N 94.5984 0.214957 -1.56127 0
M  V30 991 C 95.5614 1.24997 -1.92116 0
M  V30 992 C 96.5614 1.39467 -0.800344 0
M  V30 993 O 97.7514 1.37619 -1.06802 0
M  V30 994 C 94.8834 2.62271 -2.17777 0
M  V30 995 H 96.0764 0.942875 -2.84693 0
M  V30 996 H 93.6294 0.455654 -1.49511 0
M  V30 997 H 94.3644 2.98068 -1.27773 0
M  V30 998 H 94.1494 2.53143 -2.99434 0
M  V30 999 H 95.6394 3.36946 -2.46693 0
M  V30 1000 N 96.0765 1.50051 0.48192 0
M  V30 1001 C 97.3015 1.64508 1.26301 0
M  V30 1002 C 97.7265 0.323851 1.85291 0
M  V30 1003 O 97.0845 -0.710969 1.66778 0
M  V30 1004 C 97.1325 2.7305 2.35533 0
M  V30 1005 O 96.2365 2.3355 3.39895 0
M  V30 1006 H 95.5775 0.549978 0.372048 0
M  V30 1007 H 98.1075 1.9636 0.574786 0
M  V30 1008 H 98.1175 2.95799 2.8101 0
M  V30 1009 H 96.7925 3.68946 1.91967 0
M  V30 1010 H 95.3695 2.21205 3.00204 0
M  V30 1011 N 97.5546 -0.734337 1.39446 0
M  V30 1012 C 98.8026 -1.49096 1.36436 0
M  V30 1013 C 99.1236 -1.94961 -0.0388255 0
M  V30 1014 O 98.3936 -1.69033 -0.990191 0
M  V30 1015 H 96.9736 -0.5531 0.502085 0
M  V30 1016 H 99.6356 -0.871725 1.74319 0
M  V30 1017 H 98.7316 -2.37276 2.02747 0
M  V30 1018 N 99.0327 -1.24633 -0.964593 0
M  V30 1019 C 100.28 -1.08788 -1.70796 0
M  V30 1020 C 100.608 0.372783 -1.90894 0
M  V30 1021 O 99.8627 1.29167 -1.47018 0
M  V30 1022 C 100.162 -1.7763 -3.10133 0
M  V30 1023 C 99.8277 -3.27557 -3.09866 0
M  V30 1024 C 98.4897 -3.6846 -3.09501 0
M  V30 1025 C 100.842 -4.23389 -3.03959 0
M  V30 1026 C 98.1697 -5.03624 -3.00965 0
M  V30 1027 C 100.522 -5.58565 -2.96965 0
M  V30 1028 C 99.1857 -5.98809 -2.9493 0
M  V30 1029 H 98.4557 -0.398084 -0.624988 0
M  V30 1030 H 101.103 -1.54777 -1.12767 0
M  V30 1031 H 99.4077 -1.24044 -3.71645 0
M  V30 1032 H 101.105 -1.62832 -3.66451 0
M  V30 1033 H 97.6947 -2.95006 -3.10917 0
M  V30 1034 H 101.879 -3.92787 -3.03368 0
M  V30 1035 H 97.1347 -5.33998 -2.97752 0
M  V30 1036 H 101.309 -6.32523 -2.91354 0
M  V30 1037 H 98.9357 -7.03505 -2.88071 0
M  V30 1038 N 100.511 1.16574 -1.06058 0
M  V30 1039 C 101.474 2.19085 -0.673392 0
M  V30 1040 C 102.474 1.5835 0.279648 0
M  V30 1041 O 103.664 1.74088 0.0623488 0
M  V30 1042 C 100.796 3.40899 0.00954234 0
M  V30 1043 H 101.989 2.54853 -1.58081 0
M  V30 1044 H 99.5418 1.30808 -0.855516 0
M  V30 1045 H 100.277 3.10684 0.929826 0
M  V30 1046 H 100.062 3.86233 -0.67573 0
M  V30 1047 H 101.552 4.1675 0.266245 0
M  V30 1048 N 101.989 0.842826 1.3317 0
M  V30 1049 C 102.899 0.281444 2.32906 0
M  V30 1050 C 103.915 -0.594587 1.63526 0
M  V30 1051 O 105.091 -0.49777 1.95152 0
M  V30 1052 C 102.156 -0.530929 3.42611 0
M  V30 1053 C 101.217 0.369843 4.27704 0
M  V30 1054 C 100.45 -0.403853 5.3217 0
M  V30 1055 O 100.673 -1.63513 5.46461 0
M  V30 1056 O 99.6069 0.224199 6.01482 0
M  V30 1057 H 103.433 1.10744 2.82789 0
M  V30 1058 H 101.018 0.60545 1.36582 0
M  V30 1059 H 102.9 -0.992437 4.09547 0
M  V30 1060 H 101.575 -1.33392 2.94938 0
M  V30 1061 H 100.482 0.879275 3.6362 0
M  V30 1062 H 101.815 1.13771 4.78871 0
M  V30 1063 N 103.467 -1.45747 0.599634 0
M  V30 1064 C 104.692 -2.07178 0.0960198 0
M  V30 1065 C 105.117 -1.44268 -1.207 0
M  V30 1066 O 104.475 -0.532503 -1.73303 0
M  V30 1067 C 104.523 -3.60579 -0.0385348 0
M  V30 1068 O 103.627 -3.97713 -1.0908 0
M  V30 1069 H 102.968 -0.660251 0.0704593 0
M  V30 1070 H 105.498 -1.87124 0.827385 0
M  V30 1071 H 105.508 -4.07298 -0.239304 0
M  V30 1072 H 104.183 -4.05756 0.912947 0
M  V30 1073 H 102.76 -3.62678 -0.867135 0
M  V30 1074 N 104.945 -0.338344 -1.53925 0
M  V30 1075 C 105.875 0.51328 -2.27789 0
M  V30 1076 C 106.856 1.107 -1.29149 0
M  V30 1077 O 108.041 1.12937 -1.57984 0
M  V30 1078 C 105.171 1.66697 -3.04679 0
M  V30 1079 C 104.125 1.20183 -4.1078 0
M  V30 1080 C 103.451 2.44363 -4.75595 0
M  V30 1081 C 104.751 0.30605 -5.21403 0
M  V30 1082 H 106.445 -0.102883 -2.99223 0
M  V30 1083 H 103.991 -0.0509219 -1.4391 0
M  V30 1084 H 105.944 2.26915 -3.55088 0
M  V30 1085 H 104.668 2.30995 -2.30887 0
M  V30 1086 H 103.327 0.622499 -3.61276 0
M  V30 1087 H 102.975 3.07057 -3.98403 0
M  V30 1088 H 102.675 2.13925 -5.47275 0
M  V30 1089 H 104.199 3.05317 -5.28786 0
M  V30 1090 H 105.613 0.814929 -5.67478 0
M  V30 1091 H 104.01 0.0937929 -6.00027 0
M  V30 1092 H 105.08 -0.65921 -4.80398 0
M  V30 1093 N 106.423 1.57458 -0.0668435 0
M  V30 1094 C 107.353 2.15468 0.899764 0
M  V30 1095 C 108.334 1.08042 1.31381 0
M  V30 1096 O 109.519 1.36054 1.38574 0
M  V30 1097 C 106.649 2.71232 2.16911 0
M  V30 1098 C 105.603 3.83781 1.89463 0
M  V30 1099 C 104.929 4.26127 3.22986 0
M  V30 1100 C 106.229 5.08238 1.20381 0
M  V30 1101 H 107.923 2.96488 0.416529 0
M  V30 1102 H 105.469 1.4262 0.198908 0
M  V30 1103 H 107.422 3.10458 2.84945 0
M  V30 1104 H 106.146 1.87426 2.67468 0
M  V30 1105 H 104.805 3.45051 1.23836 0
M  V30 1106 H 104.453 3.39249 3.71374 0
M  V30 1107 H 104.153 5.01993 3.05413 0
M  V30 1108 H 105.677 4.67966 3.92225 0
M  V30 1109 H 107.091 5.44811 1.78475 0
M  V30 1110 H 105.488 5.89349 1.13083 0
M  V30 1111 H 106.558 4.84558 0.182153 0
M  V30 1112 N 107.901 -0.206675 1.56239 0
M  V30 1113 C 109.178 -0.954051 1.70755 0
M  V30 1114 C 109.558 -2.01841 0.618353 0
M  V30 1115 O 108.906 -2.25444 -0.372434 0
M  V30 1116 C 109.116 -1.551 3.12642 0
M  V30 1117 C 110.464 -2.03757 3.72516 0
M  V30 1118 O 111.488 -1.64965 3.15698 0
M  V30 1119 O 110.347 -2.75103 4.72208 0
M  V30 1120 H 107.441 -0.446636 0.696021 0
M  V30 1121 H 109.987 -0.197283 1.68549 0
M  V30 1122 H 108.759 -0.783212 3.83382 0
M  V30 1123 H 108.382 -2.37291 3.19028 0
M  V30 1124 N 109.379 -1.50304 -0.473955 0
M  V30 1125 C 110.79 -1.54042 -1.0549 0
M  V30 1126 C 111.141 -0.342248 -1.93192 0
M  V30 1127 O 110.266 0.545157 -2.09421 0
M  V30 1128 C 110.861 -2.79152 -1.91989 0
M  V30 1129 C 109.42 -2.8558 -2.45196 0
M  V30 1130 C 108.567 -2.48295 -1.2347 0
M  V30 1131 H 111.518 -1.5661 -0.256693 0
M  V30 1132 H 111.539 -2.60845 -2.7702 0
M  V30 1133 H 111.051 -3.66339 -1.28131 0
M  V30 1134 H 109.152 -2.02738 -3.12615 0
M  V30 1135 H 109.265 -3.88403 -2.80499 0
M  V30 1136 H 107.629 -2.00669 -1.56856 0
M  V30 1137 H 108.412 -3.37787 -0.612789 0
M  V30 1138 N 110.857 0.726932 -1.39834 0
M  V30 1139 C 111.82 1.82269 -1.38962 0
M  V30 1140 C 112.82 1.58248 -0.285334 0
M  V30 1141 O 114.01 1.65499 -0.54366 0
M  V30 1142 C 111.142 3.20186 -1.17019 0
M  V30 1143 H 112.335 1.84443 -2.36476 0
M  V30 1144 H 109.888 0.931416 -1.25516 0
M  V30 1145 H 110.623 3.23669 -0.202204 0
M  V30 1146 H 110.408 3.3902 -1.96998 0
M  V30 1147 H 111.898 4.00235 -1.1917 0
M  V30 1148 N 112.336 1.25143 0.95797 0
M  V30 1149 C 113.266 1.07711 2.07173 0
M  V30 1150 C 114.247 -0.0128462 1.70095 0
M  V30 1151 O 115.432 0.156061 1.93572 0
M  V30 1152 C 112.562 0.691503 3.40346 0
M  V30 1153 C 111.516 1.73132 3.9142 0
M  V30 1154 C 110.842 1.20049 5.21049 0
M  V30 1155 C 112.142 3.1294 4.1817 0
M  V30 1156 H 113.836 2.00873 2.22014 0
M  V30 1157 H 111.382 0.967191 1.06684 0
M  V30 1158 H 113.335 0.556505 4.17709 0
M  V30 1159 H 112.059 -0.275819 3.25433 0
M  V30 1160 H 110.718 1.8547 3.16222 0
M  V30 1161 H 110.366 0.223499 5.02503 0
M  V30 1162 H 110.066 1.89545 5.56189 0
M  V30 1163 H 111.59 1.07782 6.01012 0
M  V30 1164 H 113.004 3.03775 4.86203 0
M  V30 1165 H 111.401 3.79875 4.64559 0
M  V30 1166 H 112.471 3.6025 3.24573 0
M  V30 1167 N 113.814 -1.1601 1.06675 0
M  V30 1168 C 114.762 -2.22586 0.675157 0
M  V30 1169 C 115.756 -1.66525 -0.310766 0
M  V30 1170 O 116.962 -1.79145 -0.175215 0
M  V30 1171 H 113.337 -0.724855 0.200223 0
M  V30 1172 H 115.308 -2.52899 1.58381 0
M  V30 1173 C 114.057 -3.47604 0.0817162 0
M  V30 1174 H 113.38 -3.91058 0.831484 0
M  V30 1175 H 114.82 -4.23718 -0.154708 0
M  V30 1176 C 113.279 -3.15718 -1.17576 0
M  V30 1177 O 113.809 -3.31878 -2.26318 0
M  V30 1178 N 112.015 -2.69816 -1.07923 0
M  V30 1179 H 111.562 -2.56866 -0.194293 0
M  V30 1180 H 111.52 -2.48855 -1.92141 0
M  V30 1181 N 115.292 -0.849877 -1.32721 0
M  V30 1182 C 116.708 -0.539102 -1.50219 0
M  V30 1183 C 116.908 0.931271 -1.78689 0
M  V30 1184 O 115.964 1.71455 -1.85363 0
M  V30 1185 C 117.277 -1.42196 -2.64954 0
M  V30 1186 C 118.825 -1.42189 -2.78839 0
M  V30 1187 C 119.3 -2.28985 -3.96648 0
M  V30 1188 N 120.791 -2.26754 -4.03902 0
M  V30 1189 C 121.526 -2.90644 -4.94281 0
M  V30 1190 N 121.022 -3.63629 -5.897 0
M  V30 1191 N 122.815 -2.80057 -4.87365 0
M  V30 1192 H 114.966 -1.80156 -1.12506 0
M  V30 1193 H 117.229 -0.769217 -0.554085 0
M  V30 1194 H 116.935 -2.46733 -2.50631 0
M  V30 1195 H 116.809 -1.10591 -3.60624 0
M  V30 1196 H 119.196 -0.38419 -2.92588 0
M  V30 1197 H 119.277 -1.77807 -1.83898 0
M  V30 1198 H 118.921 -3.32819 -3.83658 0
M  V30 1199 H 118.851 -1.90702 -4.90857 0
M  V30 1200 H 121.342 -1.73688 -3.3562 0
M  V30 1201 H 121.655 -4.09558 -6.55349 0
M  V30 1202 H 120 -3.67737 -5.89741 0
M  V30 1203 H 123.191 -2.22593 -4.11789 0
M  V30 1204 H 123.364 -3.30132 -5.57599 0
M  V30 1205 N 116.77 1.45427 -0.607355 0
M  V30 1206 C 117.733 2.28974 0.101693 0
M  V30 1207 C 118.733 1.39754 0.795329 0
M  V30 1208 O 119.923 1.61878 0.643527 0
M  V30 1209 C 117.055 3.20768 1.15414 0
M  V30 1210 H 118.248 2.93147 -0.632844 0
M  V30 1211 H 115.801 1.51945 -0.366391 0
M  V30 1212 H 116.536 2.61395 1.91945 0
M  V30 1213 H 116.321 3.86489 0.66098 0
M  V30 1214 H 117.811 3.83589 1.65073 0
M  V30 1215 N 118.248 0.346503 1.53744 0
M  V30 1216 C 119.158 -0.517293 2.28826 0
M  V30 1217 C 120.174 -1.10935 1.3405 0
M  V30 1218 O 121.35 -1.1244 1.6709 0
M  V30 1219 C 118.415 -1.65098 3.04866 0
M  V30 1220 C 117.476 -1.0884 4.15274 0
M  V30 1221 C 116.709 -2.16806 4.87679 0
M  V30 1222 O 116.932 -3.3758 4.59778 0
M  V30 1223 O 115.866 -1.80934 5.74061 0
M  V30 1224 H 119.692 0.0931396 3.03557 0
M  V30 1225 H 117.277 0.111458 1.48984 0
M  V30 1226 H 119.159 -2.31053 3.5241 0
M  V30 1227 H 117.834 -2.24717 2.32989 0
M  V30 1228 H 116.741 -0.3933 3.72027 0
M  V30 1229 H 118.074 -0.537036 4.89261 0
M  V30 1230 N 119.726 -1.57421 0.075193 0
M  V30 1231 C 120.972 -1.93905 -0.594025 0
M  V30 1232 C 121.305 -0.955701 -1.69056 0
M  V30 1233 O 120.58 0.0145373 -1.94495 0
M  V30 1234 C 120.863 -3.40638 -1.1678 0
M  V30 1235 C 120.716 -4.49733 -0.0776792 0
M  V30 1236 C 122.035 -3.88259 -2.07228 0
M  V30 1237 H 119.154 -0.705105 -0.214466 0
M  V30 1238 H 121.796 -1.8947 0.141854 0
M  V30 1239 H 119.946 -3.44549 -1.79494 0
M  V30 1240 H 121.618 -4.57942 0.555573 0
M  V30 1241 H 119.861 -4.29751 0.591286 0
M  V30 1242 H 120.532 -5.49549 -0.519603 0
M  V30 1243 H 123.008 -3.86376 -1.54445 0
M  V30 1244 H 121.884 -4.91533 -2.44308 0
M  V30 1245 H 122.145 -3.26396 -2.98191 0
M  V30 1246 N 121.204 0.198386 -1.56346 0
M  V30 1247 C 122.134 1.24865 -1.9731 0
M  V30 1248 C 123.115 1.47651 -0.844576 0
M  V30 1249 O 124.3 1.59444 -1.10866 0
M  V30 1250 C 121.43 2.59358 -2.30977 0
M  V30 1251 C 120.384 2.5119 -3.46537 0
M  V30 1252 C 119.71 3.89926 -3.65871 0
M  V30 1253 C 121.01 2.03977 -4.80823 0
M  V30 1254 H 122.704 0.908252 -2.85291 0
M  V30 1255 H 120.25 0.435462 -1.37258 0
M  V30 1256 H 122.203 3.33011 -2.58228 0
M  V30 1257 H 120.927 2.95132 -1.39874 0
M  V30 1258 H 119.586 1.79993 -3.19371 0
M  V30 1259 H 119.234 4.23046 -2.72105 0
M  V30 1260 H 118.934 3.85336 -4.4361 0
M  V30 1261 H 120.458 4.65205 -3.95495 0
M  V30 1262 H 121.872 2.67386 -5.07127 0
M  V30 1263 H 120.269 2.10397 -5.62008 0
M  V30 1264 H 121.339 0.992861 -4.74626 0
M  V30 1265 N 122.682 1.50554 0.465978 0
M  V30 1266 C 123.645 1.69233 1.54574 0
M  V30 1267 C 124.645 0.562901 1.50626 0
M  V30 1268 O 125.835 0.830016 1.53155 0
M  V30 1269 C 122.967 1.7223 2.94193 0
M  V30 1270 H 124.16 2.65571 1.39327 0
M  V30 1271 H 121.713 1.40111 0.692711 0
M  V30 1272 H 122.448 0.77603 3.14878 0
M  V30 1273 H 122.233 2.54285 2.98466 0
M  V30 1274 H 123.723 1.88618 3.72576 0
M  V30 1275 N 124.16 -0.719506 1.40217 0
M  V30 1276 C 125.576 -1.02707 1.22161 0
M  V30 1277 C 125.776 -2.0128 0.0940557 0
M  V30 1278 O 124.832 -2.46452 -0.549318 0
M  V30 1279 C 126.145 -1.57454 2.56181 0
M  V30 1280 C 127.693 -1.69458 2.63159 0
M  V30 1281 C 128.168 -2.27611 3.97438 0
M  V30 1282 N 129.659 -2.35002 3.99159 0
M  V30 1283 C 130.394 -2.80972 4.99842 0
M  V30 1284 N 129.89 -3.26723 6.10921 0
M  V30 1285 N 131.683 -2.80321 4.87213 0
M  V30 1286 H 123.834 -0.0660492 2.12297 0
M  V30 1287 H 126.097 -0.0919077 0.943534 0
M  V30 1288 H 125.803 -0.924873 3.39321 0
M  V30 1289 H 125.677 -2.56036 2.76993 0
M  V30 1290 H 128.064 -2.33543 1.80393 0
M  V30 1291 H 128.145 -0.694867 2.46181 0
M  V30 1292 H 127.789 -1.6415 4.80643 0
M  V30 1293 H 127.719 -3.2829 4.11744 0
M  V30 1294 H 130.21 -2.02685 3.18947 0
M  V30 1295 H 130.523 -3.60355 6.8364 0
M  V30 1296 H 128.868 -3.24692 6.14492 0
M  V30 1297 H 132.059 -2.43912 3.9953 0
M  V30 1298 H 132.232 -3.15831 5.65822 0
M  V30 1299 N 125.638 -1.25649 -0.95132 0
M  V30 1300 C 126.915 -1.01361 -1.67288 0
M  V30 1301 C 127.295 0.459135 -2.06046 0
M  V30 1302 O 126.643 1.43723 -1.7764 0
M  V30 1303 C 126.853 -1.95256 -2.89268 0
M  V30 1304 C 128.201 -2.23289 -3.61147 0
M  V30 1305 O 129.225 -1.93041 -2.99355 0
M  V30 1306 O 128.084 -2.74741 -4.72419 0
M  V30 1307 H 125.178 -0.38464 -0.732107 0
M  V30 1308 H 127.724 -1.36817 -1.00395 0
M  V30 1309 H 126.496 -2.94685 -2.57442 0
M  V30 1310 H 126.119 -1.60218 -3.6389 0
M  V30 1311 N 127.117 1.15442 -1.07289 0
M  V30 1312 C 128.047 2.22312 -0.714107 0
M  V30 1313 C 129.028 1.67467 0.298155 0
M  V30 1314 O 130.213 1.93445 0.171048 0
M  V30 1315 C 127.343 3.47124 -0.110448 0
M  V30 1316 C 126.297 4.14926 -1.04979 0
M  V30 1317 C 125.623 5.33807 -0.308924 0
M  V30 1318 C 126.923 4.64762 -2.38314 0
M  V30 1319 H 128.617 2.5258 -1.6076 0
M  V30 1320 H 126.163 1.21404 -0.77441 0
M  V30 1321 H 128.116 4.21124 0.152482 0
M  V30 1322 H 126.84 3.16187 0.81812 0
M  V30 1323 H 125.499 3.42866 -1.29764 0
M  V30 1324 H 125.147 4.99126 0.623084 0
M  V30 1325 H 124.847 5.80113 -0.935036 0
M  V30 1326 H 126.371 6.10576 -0.0537771 0
M  V30 1327 H 127.785 5.30292 -2.1786 0
M  V30 1328 H 126.182 5.21728 -2.96514 0
M  V30 1329 H 127.252 3.80434 -3.00663 0
M  V30 1330 N 128.595 0.856903 1.32268 0
M  V30 1331 C 129.872 0.382583 1.91822 0
M  V30 1332 C 130.252 -1.13407 1.78051 0
M  V30 1333 O 129.6 -1.95673 1.18001 0
M  V30 1334 C 129.81 0.849446 3.38505 0
M  V30 1335 C 131.158 0.867936 4.15634 0
M  V30 1336 O 132.182 0.794232 3.47232 0
M  V30 1337 O 131.041 0.972286 5.37781 0
M  V30 1338 H 128.135 0.112014 0.819379 0
M  V30 1339 H 130.681 0.943952 1.41024 0
M  V30 1340 H 129.453 1.89267 3.42482 0
M  V30 1341 H 129.076 0.265652 3.96712 0
M  V30 1342 N 130.073 -1.45103 0.615059 0
M  V30 1343 C 131.02 -2.30586 -0.0993978 0
M  V30 1344 C 131.99 -1.42544 -0.852669 0
M  V30 1345 O 133.175 -1.71465 -0.836917 0
M  V30 1346 C 130.315 -3.27572 -1.08583 0
M  V30 1347 C 129.428 -4.30717 -0.332656 0
M  V30 1348 C 128.563 -5.14807 -1.30947 0
M  V30 1349 C 127.602 -6.09673 -0.544538 0
M  V30 1350 N 126.739 -6.86517 -1.47101 0
M  V30 1351 H 131.579 -2.91144 0.635542 0
M  V30 1352 H 129.116 -1.4346 0.325206 0
M  V30 1353 H 131.074 -3.82276 -1.67095 0
M  V30 1354 H 129.704 -2.68751 -1.78809 0
M  V30 1355 H 128.756 -3.78615 0.368107 0
M  V30 1356 H 130.068 -4.98102 0.263842 0
M  V30 1357 H 129.222 -5.73948 -1.96643 0
M  V30 1358 H 127.961 -4.47458 -1.9399 0
M  V30 1359 H 126.966 -5.49656 0.126003 0
M  V30 1360 H 128.191 -6.79052 0.080947 0
M  V30 1361 H 126.137 -6.21851 -2.08895 0
M  V30 1362 H 126.054 -7.50281 -0.928137 0
M  V30 1363 H 127.322 -7.50194 -2.11731 0
M  V30 1364 N 131.551 -0.354651 -1.53558 0
M  V30 1365 C 132.481 0.489091 -2.2832 0
M  V30 1366 C 133.462 1.09324 -1.30316 0
M  V30 1367 O 134.647 1.11255 -1.59173 0
M  V30 1368 C 131.777 1.63456 -3.0643 0
M  V30 1369 C 130.731 1.1582 -4.12031 0
M  V30 1370 C 130.057 2.39305 -4.7816 0
M  V30 1371 C 131.357 0.250731 -5.21698 0
M  V30 1372 H 133.051 -0.134614 -2.99097 0
M  V30 1373 H 130.597 -0.0661826 -1.43848 0
M  V30 1374 H 132.55 2.23136 -3.57475 0
M  V30 1375 H 131.274 2.28533 -2.33325 0
M  V30 1376 H 129.933 0.584146 -3.61916 0
M  V30 1377 H 129.581 3.02814 -4.01637 0
M  V30 1378 H 129.281 2.08109 -5.49513 0
M  V30 1379 H 130.805 2.99691 -5.31994 0
M  V30 1380 H 132.219 0.754695 -5.68311 0
M  V30 1381 H 130.616 0.0301468 -6.00092 0
M  V30 1382 H 131.686 -0.710125 -4.79672 0
M  V30 1383 N 133.029 1.57378 -0.0835403 0
M  V30 1384 C 133.977 2.14602 0.89714 0
M  V30 1385 C 134.971 1.08589 1.30018 0
M  V30 1386 O 136.177 1.26952 1.27606 0
M  V30 1387 H 132.552 0.686346 0.3073 0
M  V30 1388 H 134.523 2.95845 0.38969 0
M  V30 1389 C 133.272 2.73188 2.15089 0
M  V30 1390 H 132.595 3.54442 1.84962 0
M  V30 1391 H 134.035 3.1681 2.81793 0
M  V30 1392 C 132.494 1.68517 2.91725 0
M  V30 1393 O 133.024 1.11718 3.85852 0
M  V30 1394 N 131.23 1.39277 2.55049 0
M  V30 1395 H 130.777 1.85655 1.78577 0
M  V30 1396 H 130.735 0.694791 3.06627 0
M  V30 1397 N 134.507 -0.190092 1.56449 0
M  V30 1398 C 135.755 -0.907908 1.80559 0
M  V30 1399 C 136.076 -1.83583 0.657438 0
M  V30 1400 O 135.346 -1.93203 -0.323924 0
M  V30 1401 H 133.926 -0.338247 0.666032 0
M  V30 1402 H 136.588 -0.194403 1.93928 0
M  V30 1403 H 135.684 -1.49604 2.73907 0
M  V30 1404 N 135.985 -1.50799 -0.457987 0
M  V30 1405 C 137.21 -1.66496 -1.23668 0
M  V30 1406 C 137.635 -0.353288 -1.84752 0
M  V30 1407 O 136.993 0.684346 -1.67888 0
M  V30 1408 C 137.041 -2.76763 -2.3116 0
M  V30 1409 O 136.145 -2.38928 -3.36136 0
M  V30 1410 H 135.486 -0.555828 -0.363252 0
M  V30 1411 H 138.016 -1.9725 -0.543474 0
M  V30 1412 H 138.026 -3.00232 -2.76269 0
M  V30 1413 H 136.701 -3.71954 -1.86073 0
M  V30 1414 H 135.278 -2.25953 -2.96647 0
M  V30 1415 N 137.463 0.71206 -1.40597 0
M  V30 1416 C 138.688 1.50617 -1.42581 0
M  V30 1417 C 139.113 1.88079 -0.0282102 0
M  V30 1418 O 138.471 1.53511 0.964579 0
M  V30 1419 C 138.519 2.7557 -2.3258 0
M  V30 1420 O 137.623 3.72414 -1.77148 0
M  V30 1421 H 136.964 0.453966 -0.484573 0
M  V30 1422 H 139.494 0.876649 -1.84868 0
M  V30 1423 H 139.504 3.2406 -2.47889 0
M  V30 1424 H 138.179 2.47639 -3.34138 0
M  V30 1425 H 136.756 3.31276 -1.71204 0
M  V30 1426 N 138.941 1.26152 0.944643 0
M  V30 1427 C 139.851 1.09176 2.07648 0
M  V30 1428 C 140.867 0.0261935 1.7398 0
M  V30 1429 O 142.043 0.229208 2.00091 0
M  V30 1430 C 139.108 0.722915 3.39079 0
M  V30 1431 C 138.169 1.86752 3.86552 0
M  V30 1432 C 137.402 1.51617 5.11711 0
M  V30 1433 O 137.625 0.416331 5.68879 0
M  V30 1434 O 136.559 2.34975 5.54139 0
M  V30 1435 H 140.385 2.0412 2.24875 0
M  V30 1436 H 137.97 1.05182 1.061 0
M  V30 1437 H 139.852 0.529787 4.18056 0
M  V30 1438 H 138.527 -0.197159 3.23099 0
M  V30 1439 H 137.434 2.11558 3.08535 0
M  V30 1440 H 138.767 2.76719 4.07047 0
M  V30 1441 N 140.419 -1.14872 1.07899 0
M  V30 1442 C 141.665 -1.86289 0.81657 0
M  V30 1443 C 142.02 -1.8107 -0.65049 0
M  V30 1444 O 141.313 -1.22684 -1.47171 0
M  V30 1445 C 141.507 -3.34223 1.26609 0
M  V30 1446 C 141.336 -3.53846 2.77531 0
M  V30 1447 C 140.106 -3.68995 3.45212 0
M  V30 1448 C 142.304 -3.51201 3.75716 0
M  V30 1449 N 140.286 -3.76725 4.84718 0
M  V30 1450 C 141.657 -3.65112 5.01092 0
M  V30 1451 C 143.712 -3.34507 3.68794 0
M  V30 1452 C 142.415 -3.64056 6.20368 0
M  V30 1453 C 144.441 -3.34752 4.8754 0
M  V30 1454 C 143.803 -3.49199 6.11751 0
M  V30 1455 H 139.902 -0.698579 0.351443 0
M  V30 1456 H 142.486 -1.37713 1.37634 0
M  V30 1457 H 140.657 -3.81402 0.73395 0
M  V30 1458 H 142.389 -3.93377 0.95062 0
M  V30 1459 H 139.144 -3.70006 2.95622 0
M  V30 1460 H 139.568 -3.8432 5.5734 0
M  V30 1461 H 144.21 -3.22253 2.73702 0
M  V30 1462 H 141.928 -3.75087 7.15776 0
M  V30 1463 H 145.514 -3.23055 4.83866 0
M  V30 1464 H 144.394 -3.49328 7.02097 0
M  V30 1465 N 141.898 -0.863906 -1.31812 0
M  V30 1466 C 143.314 -0.555004 -1.49639 0
M  V30 1467 C 143.514 0.912266 -1.79666 0
M  V30 1468 O 142.57 1.69479 -1.87171 0
M  V30 1469 C 143.883 -1.44998 -2.63431 0
M  V30 1470 C 145.431 -1.45138 -2.77316 0
M  V30 1471 C 145.906 -2.33179 -3.94197 0
M  V30 1472 N 147.397 -2.31025 -4.01474 0
M  V30 1473 C 148.132 -2.95871 -4.9117 0
M  V30 1474 N 147.628 -3.69863 -5.8581 0
M  V30 1475 N 149.421 -2.85211 -4.84367 0
M  V30 1476 H 141.572 -1.81339 -1.10589 0
M  V30 1477 H 143.835 -0.77505 -0.545895 0
M  V30 1478 H 143.541 -2.49377 -2.48 0
M  V30 1479 H 143.415 -1.14409 -3.59431 0
M  V30 1480 H 145.802 -0.415201 -2.92164 0
M  V30 1481 H 145.883 -1.79747 -1.82001 0
M  V30 1482 H 145.527 -3.3687 -3.80107 0
M  V30 1483 H 145.457 -1.95897 -4.88807 0
M  V30 1484 H 147.948 -1.77238 -3.33759 0
M  V30 1485 H 148.261 -4.16486 -6.50968 0
M  V30 1486 H 146.606 -3.73971 -5.85808 0
M  V30 1487 H 149.797 -2.26948 -4.09405 0
M  V30 1488 H 149.97 -3.36027 -5.54066 0
M  V30 1489 N 143.376 1.44774 -0.622745 0
M  V30 1490 C 144.601 2.06999 -0.128968 0
M  V30 1491 C 145.026 1.4617 1.1839 0
M  V30 1492 O 144.384 0.560007 1.72434 0
M  V30 1493 C 144.432 3.60595 -0.0188351 0
M  V30 1494 O 143.536 3.99398 1.02739 0
M  V30 1495 H 142.877 0.659047 -0.0809544 0
M  V30 1496 H 145.407 1.85784 -0.85705 0
M  V30 1497 H 145.417 4.07627 0.174476 0
M  V30 1498 H 144.092 4.04252 -0.977384 0
M  V30 1499 H 142.669 3.64011 0.809326 0
M  V30 1500 N 144.854 0.36279 1.53368 0
M  V30 1501 C 146.27 0.0116182 1.59596 0
M  V30 1502 C 146.47 -1.47012 1.37803 0
M  V30 1503 O 145.526 -2.23136 1.18181 0
M  V30 1504 C 146.839 0.465052 2.97082 0
M  V30 1505 C 148.387 0.419033 3.10182 0
M  V30 1506 C 148.862 0.848235 4.50077 0
M  V30 1507 N 150.353 0.803183 4.56183 0
M  V30 1508 C 151.088 1.107 5.62613 0
M  V30 1509 N 150.584 1.47996 6.76808 0
M  V30 1510 N 152.377 1.02998 5.52583 0
M  V30 1511 H 144.528 1.32775 1.65785 0
M  V30 1512 H 146.791 0.542518 0.777417 0
M  V30 1513 H 146.497 1.49892 3.18159 0
M  V30 1514 H 146.371 -0.149786 3.76902 0
M  V30 1515 H 148.758 -0.605696 2.88817 0
M  V30 1516 H 148.839 1.06933 2.32377 0
M  V30 1517 H 148.483 1.87107 4.7218 0
M  V30 1518 H 148.413 0.175218 5.26308 0
M  V30 1519 H 150.904 0.52838 3.74188 0
M  V30 1520 H 151.217 1.69613 7.53957 0
M  V30 1521 H 149.562 1.51859 6.78206 0
M  V30 1522 H 152.753 0.737817 4.62249 0
M  V30 1523 H 152.926 1.2701 6.35431 0
M  V30 1524 N 146.332 -1.57332 0.0918853 0
M  V30 1525 C 147.581 -1.93412 -0.572249 0
M  V30 1526 C 147.894 -0.975515 -1.69538 0
M  V30 1527 O 149.1 -1.22991 -2.42045 0
M  V30 1528 C 147.556 -3.43648 -1.0693 0
M  V30 1529 C 147.164 -4.47994 0.0239049 0
M  V30 1530 C 148.908 -3.88695 -1.70635 0
M  V30 1531 C 146.815 -5.89381 -0.488319 0
M  V30 1532 H 145.745 -0.721939 -0.217532 0
M  V30 1533 H 148.396 -1.82735 0.167369 0
M  V30 1534 H 146.778 -3.49466 -1.8625 0
M  V30 1535 H 147.952 -4.53815 0.799277 0
M  V30 1536 H 146.267 -4.12536 0.565946 0
M  V30 1537 H 148.864 -4.91725 -2.10025 0
M  V30 1538 H 149.207 -3.27166 -2.57426 0
M  V30 1539 H 149.74 -3.85564 -0.979023 0
M  V30 1540 H 146.479 -6.54602 0.342906 0
M  V30 1541 H 145.999 -5.87037 -1.23077 0
M  V30 1542 H 147.678 -6.39863 -0.958317 0
M  V30 1543 N 147.81 0.181792 -1.56548 0
M  V30 1544 C 149.038 0.915947 -1.85521 0
M  V30 1545 C 149.453 1.76282 -0.676016 0
M  V30 1546 O 148.81 1.79012 0.355077 0
M  V30 1547 C 148.861 1.80126 -3.13427 0
M  V30 1548 O 148.582 0.988562 -4.26801 0
M  V30 1549 C 150.083 2.64597 -3.55673 0
M  V30 1550 H 147.303 0.26661 -0.61576 0
M  V30 1551 H 149.847 0.185039 -2.03661 0
M  V30 1552 H 148.002 2.48563 -2.97145 0
M  V30 1553 H 148.416 1.59308 -4.99721 0
M  V30 1554 H 149.89 3.2235 -4.48101 0
M  V30 1555 H 150.367 3.38958 -2.79292 0
M  V30 1556 H 150.973 2.0151 -3.74532 0
M  V30 1557 N 149.288 1.51039 0.449983 0
M  V30 1558 C 150.251 1.70863 1.5277 0
M  V30 1559 C 151.251 0.578846 1.5002 0
M  V30 1560 O 152.441 0.846213 1.52266 0
M  V30 1561 C 149.573 1.75341 2.9235 0
M  V30 1562 H 150.766 2.67034 1.36502 0
M  V30 1563 H 148.319 1.40838 0.677812 0
M  V30 1564 H 149.054 0.809383 3.14037 0
M  V30 1565 H 148.839 2.57436 2.95752 0
M  V30 1566 H 150.329 1.92559 3.70555 0
M  V30 1567 N 150.766 -0.704594 1.40972 0
M  V30 1568 C 151.991 -1.49858 1.43378 0
M  V30 1569 C 152.416 -1.88061 0.038184 0
M  V30 1570 O 151.774 -1.5402 -0.956425 0
M  V30 1571 C 151.822 -2.74333 2.34038 0
M  V30 1572 O 150.926 -3.7147 1.7912 0
M  V30 1573 H 150.267 -0.45139 0.486974 0
M  V30 1574 H 152.797 -0.866832 1.8533 0
M  V30 1575 H 152.807 -3.22741 2.49604 0
M  V30 1576 H 151.482 -2.45863 3.35446 0
M  V30 1577 H 150.059 -3.30363 1.72958 0
M  V30 1578 N 152.244 -1.26651 -0.937939 0
M  V30 1579 C 153.655 -1.1125 -1.49934 0
M  V30 1580 C 154.006 0.306077 -1.93798 0
M  V30 1581 O 153.131 1.19792 -1.80219 0
M  V30 1582 C 153.726 -2.01339 -2.72485 0
M  V30 1583 C 152.285 -1.90074 -3.24883 0
M  V30 1584 C 151.432 -1.94498 -1.97651 0
M  V30 1585 H 154.383 -1.39693 -0.753091 0
M  V30 1586 H 154.404 -1.56319 -3.46907 0
M  V30 1587 H 153.916 -3.04577 -2.40529 0
M  V30 1588 H 152.017 -0.897827 -3.61621 0
M  V30 1589 H 152.13 -2.75778 -3.9177 0
M  V30 1590 H 150.494 -1.38591 -2.13693 0
M  V30 1591 H 151.277 -2.99372 -1.68022 0
M  V30 1592 N 153.722 1.14298 -1.08507 0
M  V30 1593 C 154.685 2.17607 -0.719711 0
M  V30 1594 C 155.685 1.58907 0.245997 0
M  V30 1595 O 156.875 1.74181 0.0254081 0
M  V30 1596 C 154.007 3.40842 -0.0627695 0
M  V30 1597 H 155.2 2.51443 -1.63452 0
M  V30 1598 H 152.753 1.28963 -0.88307 0
M  V30 1599 H 153.488 3.12587 0.863716 0
M  V30 1600 H 153.273 3.84713 -0.757504 0
M  V30 1601 H 154.763 4.17221 0.177786 0
M  V30 1602 N 155.201 0.870884 1.31352 0
M  V30 1603 C 156.447 0.482987 1.96965 0
M  V30 1604 C 156.78 -0.962462 1.68672 0
M  V30 1605 O 156.055 -1.6779 0.98371 0
M  V30 1606 C 156.338 0.741752 3.52378 0
M  V30 1607 C 156.191 2.2368 3.9024 0
M  V30 1608 C 157.51 0.208838 4.39604 0
M  V30 1609 H 154.629 0.176955 0.715441 0
M  V30 1610 H 157.271 1.09229 1.55464 0
M  V30 1611 H 155.421 0.223149 3.87859 0
M  V30 1612 H 157.093 2.82273 3.64856 0
M  V30 1613 H 155.336 2.70901 3.38814 0
M  V30 1614 H 156.007 2.3685 4.98604 0
M  V30 1615 H 158.483 0.652529 4.10952 0
M  V30 1616 H 157.359 0.419336 5.47296 0
M  V30 1617 H 157.62 -0.889275 4.33064 0
M  V30 1618 N 156.679 -1.44442 0.630414 0
M  V30 1619 C 157.928 -2.01267 0.132073 0
M  V30 1620 C 158.241 -1.50172 -1.25331 0
M  V30 1621 O 159.447 -1.9912 -1.84562 0
M  V30 1622 C 157.903 -3.59422 0.185362 0
M  V30 1623 C 157.511 -4.19514 1.57201 0
M  V30 1624 C 159.255 -4.23724 -0.256553 0
M  V30 1625 C 157.162 -5.69891 1.58045 0
M  V30 1626 H 156.092 -0.752619 0.0456092 0
M  V30 1627 H 158.743 -1.65666 0.789106 0
M  V30 1628 H 157.125 -3.92318 -0.538759 0
M  V30 1629 H 158.299 -3.98156 2.31966 0
M  V30 1630 H 156.614 -3.67496 1.95795 0
M  V30 1631 H 159.211 -5.34019 -0.269767 0
M  V30 1632 H 159.554 -3.96013 -1.28372 0
M  V30 1633 H 160.087 -3.95629 0.41505 0
M  V30 1634 H 156.826 -6.02336 2.58597 0
M  V30 1635 H 156.346 -5.93373 0.875725 0
M  V30 1636 H 158.025 -6.33515 1.31408 0
M  V30 1637 N 158.157 -0.370918 -1.53173 0
M  V30 1638 C 159.434 0.273754 -1.93675 0
M  V30 1639 C 159.814 1.65938 -1.3049 0
M  V30 1640 O 159.162 2.23698 -0.465999 0
M  V30 1641 C 159.372 0.318602 -3.47543 0
M  V30 1642 C 160.72 0.556392 -4.20939 0
M  V30 1643 O 161.744 0.399587 -3.53952 0
M  V30 1644 O 160.603 0.862133 -5.39657 0
M  V30 1645 H 157.697 0.165448 -0.810281 0
M  V30 1646 H 160.243 -0.42409 -1.64315 0
M  V30 1647 H 159.015 -0.652687 -3.85818 0
M  V30 1648 H 158.638 1.06212 -3.83151 0
M  V30 1649 N 159.635 1.57281 -0.100228 0
M  V30 1650 C 160.865 1.98591 0.569681 0
M  V30 1651 C 161.273 0.978315 1.61943 0
M  V30 1652 O 160.616 -0.0396108 1.83657 0
M  V30 1653 C 160.678 3.36282 1.271 0
M  V30 1654 C 160.342 4.55488 0.371409 0
M  V30 1655 C 161.339 5.18491 -0.382504 0
M  V30 1656 C 159.024 5.01474 0.287965 0
M  V30 1657 C 161.018 6.25852 -1.20779 0
M  V30 1658 C 158.705 6.08701 -0.540965 0
M  V30 1659 C 159.703 6.70755 -1.28749 0
M  V30 1660 O 159.391 7.75914 -2.10269 0
M  V30 1661 H 159.123 0.65752 0.156982 0
M  V30 1662 H 161.677 2.0463 -0.177734 0
M  V30 1663 H 159.907 3.26941 2.0651 0
M  V30 1664 H 161.596 3.62005 1.83595 0
M  V30 1665 H 162.362 4.83891 -0.3278 0
M  V30 1666 H 158.241 4.52932 0.858689 0
M  V30 1667 H 161.785 6.74218 -1.79096 0
M  V30 1668 H 157.682 6.42732 -0.597131 0
M  V30 1669 H 158.45 7.92925 -2.03007 0
M  V30 1670 N 161.113 -0.173488 1.56642 0
M  V30 1671 C 162.359 -0.891784 1.8214 0
M  V30 1672 C 162.692 -1.8199 0.677736 0
M  V30 1673 O 161.967 -1.91842 -0.320446 0
M  V30 1674 C 162.25 -1.68933 3.18015 0
M  V30 1675 C 162.103 -0.784487 4.42906 0
M  V30 1676 C 163.422 -2.65748 3.50808 0
M  V30 1677 H 160.541 -0.322761 0.662567 0
M  V30 1678 H 163.183 -0.158095 1.89341 0
M  V30 1679 H 161.333 -2.31482 3.12007 0
M  V30 1680 H 163.005 -0.172046 4.60979 0
M  V30 1681 H 161.248 -0.0924117 4.33702 0
M  V30 1682 H 161.919 -1.37799 5.34524 0
M  V30 1683 H 164.395 -2.13327 3.57255 0
M  V30 1684 H 163.271 -3.18619 4.4696 0
M  V30 1685 H 163.532 -3.45842 2.75401 0
M  V30 1686 N 162.591 -1.51276 -0.441967 0
M  V30 1687 C 163.539 -1.72823 -1.55676 0
M  V30 1688 C 164.533 -0.59445 -1.58627 0
M  V30 1689 O 165.739 -0.775715 -1.62427 0
M  V30 1690 H 162.114 -0.545983 -0.517113 0
M  V30 1691 H 164.085 -2.6628 -1.34675 0
M  V30 1692 C 162.834 -1.86619 -2.93375 0
M  V30 1693 H 162.157 -2.73264 -2.91834 0
M  V30 1694 H 163.597 -2.05709 -3.70756 0
M  V30 1695 C 162.056 -0.624842 -3.31055 0
M  V30 1696 O 162.586 0.222636 -4.01083 0
M  V30 1697 N 160.792 -0.470288 -2.86769 0
M  V30 1698 H 160.339 -1.161 -2.29953 0
M  V30 1699 H 160.297 0.359051 -3.12343 0
M  V30 1700 N 164.069 0.697108 -1.41344 0
M  V30 1701 C 165.485 1.00751 -1.2378 0
M  V30 1702 C 165.685 2.01105 -0.126066 0
M  V30 1703 O 164.741 2.47295 0.51004 0
M  V30 1704 C 166.054 1.53359 -2.58653 0
M  V30 1705 C 167.602 1.6525 -2.65822 0
M  V30 1706 C 168.077 2.2126 -4.01009 0
M  V30 1707 N 169.568 2.28622 -4.02847 0
M  V30 1708 C 170.303 2.72984 -5.04249 0
M  V30 1709 N 169.799 3.16962 -6.16041 0
M  V30 1710 N 171.592 2.72534 -4.91611 0
M  V30 1711 H 163.743 0.0322662 -2.12375 0
M  V30 1712 H 166.006 0.0768853 -0.944877 0
M  V30 1713 H 165.712 0.870773 -3.4075 0
M  V30 1714 H 165.586 2.51597 -2.81032 0
M  V30 1715 H 167.973 2.30644 -1.84086 0
M  V30 1716 H 168.054 0.655614 -2.47256 0
M  V30 1717 H 167.698 1.56482 -4.83193 0
M  V30 1718 H 167.628 3.21698 -4.16915 0
M  V30 1719 H 170.119 1.97585 -3.22131 0
M  V30 1720 H 170.432 3.49434 -6.89287 0
M  V30 1721 H 168.777 3.14875 -6.1958 0
M  V30 1722 H 171.968 2.37525 -4.0336 0
M  V30 1723 H 172.141 3.06789 -5.70775 0
M  V30 1724 N 165.547 1.27147 0.931209 0
M  V30 1725 C 166.477 1.12081 2.04842 0
M  V30 1726 C 167.458 0.0232364 1.70084 0
M  V30 1727 O 168.643 0.197085 1.93197 0
M  V30 1728 C 165.773 0.76354 3.38803 0
M  V30 1729 C 164.727 1.81396 3.87659 0
M  V30 1730 C 164.053 1.31075 5.18385 0
M  V30 1731 C 165.353 3.21739 4.11438 0
M  V30 1732 H 167.047 2.05537 2.17703 0
M  V30 1733 H 164.593 0.989603 1.04608 0
M  V30 1734 H 166.546 0.644982 4.16435 0
M  V30 1735 H 165.27 -0.206727 3.25945 0
M  V30 1736 H 163.929 1.92136 3.12217 0
M  V30 1737 H 163.577 0.330037 5.01916 0
M  V30 1738 H 163.277 2.013 5.52044 0
M  V30 1739 H 164.801 1.20506 5.98591 0
M  V30 1740 H 166.215 3.14019 4.79651 0
M  V30 1741 H 164.612 3.89644 4.56397 0
M  V30 1742 H 165.682 3.67054 3.16859 0
M  V30 1743 N 167.025 -1.13721 1.09112 0
M  V30 1744 C 167.935 -2.22638 0.73957 0
M  V30 1745 C 168.951 -1.72091 -0.257068 0
M  V30 1746 O 170.127 -2.01155 -0.0992154 0
M  V30 1747 C 167.192 -3.46322 0.16191 0
M  V30 1748 C 166.253 -4.11775 1.21408 0
M  V30 1749 C 165.486 -5.29555 0.663891 0
M  V30 1750 O 165.709 -5.68077 -0.514274 0
M  V30 1751 O 164.643 -5.84973 1.41738 0
M  V30 1752 H 168.469 -2.55074 1.64836 0
M  V30 1753 H 166.054 -1.21791 0.865289 0
M  V30 1754 H 167.936 -4.21107 -0.157073 0
M  V30 1755 H 166.611 -3.15593 -0.719932 0
M  V30 1756 H 165.518 -3.3883 1.58571 0
M  V30 1757 H 166.851 -4.46627 2.06845 0
M  V30 1758 N 168.503 -0.877838 -1.30888 0
M  V30 1759 C 169.413 -0.343096 -2.32078 0
M  V30 1760 C 170.429 0.551022 -1.65045 0
M  V30 1761 O 171.605 0.445854 -1.96403 0
M  V30 1762 C 168.67 0.439905 -3.43898 0
M  V30 1763 C 167.731 -0.483111 -4.26573 0
M  V30 1764 C 166.964 0.262616 -5.33053 0
M  V30 1765 O 167.187 1.48967 -5.50604 0
M  V30 1766 O 166.121 -0.383593 -6.00676 0
M  V30 1767 H 169.947 -1.18203 -2.79753 0
M  V30 1768 H 167.532 -0.64145 -1.34929 0
M  V30 1769 H 169.414 0.883504 -4.12034 0
M  V30 1770 H 168.089 1.25526 -2.98371 0
M  V30 1771 H 166.996 -0.975374 -3.61161 0
M  V30 1772 H 168.329 -1.26427 -4.75686 0
M  V30 1773 N 169.982 1.44106 -0.638065 0
M  V30 1774 C 171.231 2.01194 -0.142744 0
M  V30 1775 C 171.544 1.50835 1.24532 0
M  V30 1776 O 172.75 2.00096 1.83504 0
M  V30 1777 C 171.206 3.59319 -0.20442 0
M  V30 1778 C 170.814 4.18674 -1.59423 0
M  V30 1779 C 172.558 4.23854 0.234079 0
M  V30 1780 C 170.465 5.69045 -1.61065 0
M  V30 1781 H 169.395 0.752367 -0.0495998 0
M  V30 1782 H 172.046 1.65246 -0.797881 0
M  V30 1783 H 170.428 3.92598 0.517946 0
M  V30 1784 H 171.602 3.96921 -2.34074 0
M  V30 1785 H 169.917 3.66453 -1.97741 0
M  V30 1786 H 172.514 5.34155 0.241443 0
M  V30 1787 H 172.857 3.96688 1.2627 0
M  V30 1788 H 173.39 3.95403 -0.436025 0
M  V30 1789 H 170.129 6.00956 -2.61787 0
M  V30 1790 H 169.649 5.929 -0.90718 0
M  V30 1791 H 171.328 6.32809 -1.34766 0
M  V30 1792 N 171.46 0.379036 1.52974 0
M  V30 1793 C 172.876 0.0285448 1.59574 0
M  V30 1794 C 173.076 -1.45542 1.39355 0
M  V30 1795 O 172.132 -2.2187 1.20541 0
M  V30 1796 C 173.445 0.496535 2.96572 0
M  V30 1797 C 174.993 0.451909 3.0972 0
M  V30 1798 C 175.468 0.895924 4.49152 0
M  V30 1799 N 176.959 0.851522 4.55306 0
M  V30 1800 C 177.694 1.16661 5.61407 0
M  V30 1801 N 177.19 1.55166 6.752 0
M  V30 1802 N 178.983 1.08853 5.51459 0
M  V30 1803 H 171.134 1.34525 1.64367 0
M  V30 1804 H 173.397 0.550733 0.771619 0
M  V30 1805 H 173.103 1.53258 3.16552 0
M  V30 1806 H 172.977 -0.109802 3.7704 0
M  V30 1807 H 175.364 -0.575029 2.89443 0
M  V30 1808 H 175.445 1.09392 2.3123 0
M  V30 1809 H 175.089 1.92104 4.70168 0
M  V30 1810 H 175.019 0.23103 5.26093 0
M  V30 1811 H 177.51 0.568038 3.73606 0
M  V30 1812 H 177.823 1.776 7.52116 0
M  V30 1813 H 176.168 1.59044 6.76557 0
M  V30 1814 H 179.359 0.786803 4.6144 0
M  V30 1815 H 179.532 1.33742 6.34048 0
M  V30 1816 N 172.938 -1.57226 0.108567 0
M  V30 1817 C 174.215 -1.86333 -0.594939 0
M  V30 1818 C 174.595 -1.00788 -1.85486 0
M  V30 1819 O 173.943 -0.0839293 -2.28346 0
M  V30 1820 C 174.153 -3.37265 -0.897405 0
M  V30 1821 C 175.501 -4.05629 -1.25501 0
M  V30 1822 O 176.525 -3.42224 -0.987998 0
M  V30 1823 O 175.384 -5.17531 -1.75567 0
M  V30 1824 H 172.478 -0.771018 -0.2991 0
M  V30 1825 H 175.024 -1.69102 0.142283 0
M  V30 1826 H 173.796 -3.913 -0.00413806 0
M  V30 1827 H 173.419 -3.59889 -1.69014 0
M  V30 1828 N 174.416 0.165178 -1.56732 0
M  V30 1829 C 175.364 1.22369 -1.97809 0
M  V30 1830 C 176.358 1.45488 -0.867741 0
M  V30 1831 O 177.564 1.45995 -1.05288 0
M  V30 1832 H 173.939 0.411486 -0.629431 0
M  V30 1833 H 175.91 0.850425 -2.86025 0
M  V30 1834 C 174.659 2.55403 -2.35934 0
M  V30 1835 H 173.982 2.38438 -3.20916 0
M  V30 1836 H 175.422 3.2814 -2.68514 0
M  V30 1837 C 173.881 3.14611 -1.20506 0
M  V30 1838 O 174.411 3.98626 -0.496016 0
M  V30 1839 N 172.617 2.7379 -0.97403 0
M  V30 1840 H 172.164 2.0557 -1.55238 0
M  V30 1841 H 172.122 3.1374 -0.203573 0
M  V30 1842 N 175.894 1.51508 0.433938 0
M  V30 1843 C 177.14 1.64588 1.18484 0
M  V30 1844 C 177.473 0.362666 1.90784 0
M  V30 1845 O 176.748 -0.637892 1.83742 0
M  V30 1846 C 177.031 2.85149 2.19913 0
M  V30 1847 C 176.884 4.23456 1.51674 0
M  V30 1848 C 178.203 3.01227 3.20858 0
M  V30 1849 H 175.322 0.598994 0.429389 0
M  V30 1850 H 177.964 1.84002 0.473647 0
M  V30 1851 H 176.114 2.68729 2.80566 0
M  V30 1852 H 177.786 4.51552 0.943322 0
M  V30 1853 H 176.029 4.25998 0.819035 0
M  V30 1854 H 176.7 5.03812 2.2556 0
M  V30 1855 H 179.176 3.16382 2.70263 0
M  V30 1856 H 178.052 3.87141 3.89118 0
M  V30 1857 H 178.313 2.13447 3.8716 0
M  V30 1858 N 177.372 -0.689602 1.41712 0
M  V30 1859 C 178.649 -1.44457 1.31877 0
M  V30 1860 C 179.029 -2.11039 -0.0508537 0
M  V30 1861 O 178.377 -2.02138 -1.06547 0
M  V30 1862 C 178.587 -2.45913 2.47645 0
M  V30 1863 C 179.935 -3.10991 2.89084 0
M  V30 1864 O 180.959 -2.56238 2.47428 0
M  V30 1865 O 179.818 -4.10174 3.61137 0
M  V30 1866 H 176.912 -0.64362 0.519309 0
M  V30 1867 H 179.458 -0.719576 1.53689 0
M  V30 1868 H 178.23 -1.95409 3.39015 0
M  V30 1869 H 177.853 -3.25913 2.27742 0
M  V30 1870 N 178.85 -1.27639 -0.924453 0
M  V30 1871 C 180.098 -1.13941 -1.66918 0
M  V30 1872 C 180.419 0.314589 -1.92446 0
M  V30 1873 O 179.689 1.21964 -1.53303 0
M  V30 1874 H 178.269 -0.418678 -0.618642 0
M  V30 1875 H 180.931 -1.60213 -1.10985 0
M  V30 1876 H 180.027 -1.67094 -2.63602 0
M  V30 1877 N 180.328 1.1314 -1.09713 0
M  V30 1878 C 181.739 1.66029 -0.853885 0
M  V30 1879 C 182.09 1.86241 0.617142 0
M  V30 1880 O 181.215 1.5834 1.47503 0
M  V30 1881 C 181.81 3.01599 -1.5435 0
M  V30 1882 C 180.369 3.51467 -1.34714 0
M  V30 1883 C 179.516 2.26648 -1.59769 0
M  V30 1884 H 182.467 0.970226 -1.25588 0
M  V30 1885 H 182.488 3.67709 -0.978267 0
M  V30 1886 H 182 2.86856 -2.6141 0
M  V30 1887 H 180.101 3.71408 -0.297838 0
M  V30 1888 H 180.214 4.314 -2.08401 0
M  V30 1889 H 178.578 2.33385 -1.01998 0
M  V30 1890 H 179.361 2.14467 -2.68065 0
M  V30 1891 N 181.806 0.884767 1.30421 0
M  V30 1892 C 182.769 0.356277 2.26414 0
M  V30 1893 C 183.769 -0.501124 1.52792 0
M  V30 1894 O 184.959 -0.30831 1.7145 0
M  V30 1895 C 182.091 -0.492316 3.37326 0
M  V30 1896 H 183.284 1.20389 2.74675 0
M  V30 1897 H 180.837 0.661607 1.41607 0
M  V30 1898 H 181.572 -1.36052 2.94381 0
M  V30 1899 H 181.357 0.121832 3.91911 0
M  V30 1900 H 182.847 -0.853871 4.08777 0
M  V30 1901 N 183.284 -1.43765 0.645699 0
M  V30 1902 C 184.214 -2.33471 -0.0370477 0
M  V30 1903 C 185.195 -1.49042 -0.819779 0
M  V30 1904 O 186.38 -1.77726 -0.782758 0
M  V30 1905 C 183.51 -3.32311 -1.0093 0
M  V30 1906 C 182.464 -4.2667 -0.337201 0
M  V30 1907 C 181.79 -5.1549 -1.42037 0
M  V30 1908 C 183.09 -5.16657 0.765706 0
M  V30 1909 H 184.784 -2.90809 0.712069 0
M  V30 1910 H 182.33 -1.39834 0.343876 0
M  V30 1911 H 184.283 -3.9396 -1.49578 0
M  V30 1912 H 183.007 -2.73213 -1.78948 0
M  V30 1913 H 181.666 -3.66374 0.128771 0
M  V30 1914 H 181.314 -4.52735 -2.1918 0
M  V30 1915 H 181.014 -5.79438 -0.975966 0
M  V30 1916 H 182.538 -5.80012 -1.90838 0
M  V30 1917 H 183.952 -5.72158 0.361702 0
M  V30 1918 H 182.349 -5.89286 1.13413 0
M  V30 1919 H 183.419 -4.56796 1.62683 0
M  V30 1920 N 184.763 -0.387143 -1.52771 0
M  V30 1921 C 186.009 0.196025 -2.0185 0
M  V30 1922 C 186.342 1.46641 -1.27319 0
M  V30 1923 O 185.617 1.90889 -0.373032 0
M  V30 1924 C 185.9 0.466136 -3.5707 0
M  V30 1925 C 185.753 -0.819385 -4.42274 0
M  V30 1926 C 187.072 1.25768 -4.21747 0
M  V30 1927 H 184.191 0.0697708 -0.73369 0
M  V30 1928 H 186.833 -0.516286 -1.82851 0
M  V30 1929 H 184.983 1.07293 -3.7339 0
M  V30 1930 H 186.655 -1.4563 -4.37709 0
M  V30 1931 H 184.898 -1.43517 -4.09372 0
M  V30 1932 H 185.569 -0.585065 -5.48891 0
M  V30 1933 H 188.045 0.744167 -4.09391 0
M  V30 1934 H 186.921 1.41541 -5.30337 0
M  V30 1935 H 187.182 2.27228 -3.79236 0
M  V30 1936 N 186.241 1.57166 -0.116904 0
M  V30 1937 C 187.204 2.14039 0.819742 0
M  V30 1938 C 188.204 1.07477 1.19605 0
M  V30 1939 O 189.394 1.33263 1.1219 0
M  V30 1940 C 186.526 2.67891 2.10826 0
M  V30 1941 H 187.719 2.98128 0.325511 0
M  V30 1942 H 185.272 1.55739 0.132312 0
M  V30 1943 H 186.007 1.87384 2.64685 0
M  V30 1944 H 185.792 3.45823 1.84793 0
M  V30 1945 H 187.282 3.11809 2.77785 0
M  V30 1946 N 187.719 -0.156864 1.56817 0
M  V30 1947 C 188.669 -1.19891 1.93934 0
M  V30 1948 C 189.653 -1.39061 0.809372 0
M  V30 1949 O 190.845 -1.40789 1.07273 0
M  V30 1950 C 187.974 -2.53493 2.31508 0
M  V30 1951 C 187.06 -2.37957 3.51052 0
M  V30 1952 N 187.451 -1.92158 4.67877 0
M  V30 1953 C 185.749 -2.68739 3.55943 0
M  V30 1954 C 186.45 -1.8943 5.49992 0
M  V30 1955 N 185.426 -2.32375 4.91429 0
M  V30 1956 H 189.228 -0.836746 2.81737 0
M  V30 1957 H 186.742 -0.365012 1.58245 0
M  V30 1958 H 188.739 -3.28811 2.56299 0
M  V30 1959 H 187.399 -2.905 1.45051 0
M  V30 1960 H 188.41 -1.62274 4.91821 0
M  V30 1961 H 185.087 -3.09687 2.80001 0
M  V30 1962 H 186.477 -1.55596 6.53636 0
M  V30 1963 N 189.197 -1.51736 -0.425897 0
M  V30 1964 C 190.147 -1.70258 -1.51645 0
M  V30 1965 C 191.131 -0.556488 -1.5097 0
M  V30 1966 O 192.323 -0.812879 -1.5723 0
M  V30 1967 C 189.452 -1.84143 -2.89735 0
M  V30 1968 C 188.538 -3.04572 -2.95122 0
M  V30 1969 N 188.929 -4.2756 -2.70233 0
M  V30 1970 C 187.227 -3.04061 -3.26286 0
M  V30 1971 C 187.928 -5.08908 -2.81757 0
M  V30 1972 N 186.904 -4.43797 -3.13919 0
M  V30 1973 H 190.706 -2.63004 -1.31172 0
M  V30 1974 H 188.22 -1.4954 -0.633375 0
M  V30 1975 H 190.217 -1.95525 -3.68206 0
M  V30 1976 H 188.877 -0.925857 -3.1122 0
M  V30 1977 H 189.888 -4.56315 -2.44943 0
M  V30 1978 H 186.565 -2.22179 -3.53473 0
M  V30 1979 H 187.955 -6.16843 -2.66372 0
M  V30 1980 N 190.675 0.682077 -1.42076 0
M  V30 1981 C 191.905 1.46844 -1.45329 0
M  V30 1982 C 192.313 1.89102 -0.0609328 0
M  V30 1983 O 191.656 1.58238 0.933082 0
M  V30 1984 C 191.718 2.75375 -2.31104 0
M  V30 1985 C 191.382 2.55238 -3.79081 0
M  V30 1986 C 192.379 2.20309 -4.70914 0
M  V30 1987 C 190.064 2.70459 -4.2327 0
M  V30 1988 C 192.058 2.00859 -6.04925 0
M  V30 1989 C 189.745 2.50624 -5.57343 0
M  V30 1990 C 190.743 2.15876 -6.47986 0
M  V30 1991 O 190.431 1.96227 -7.79583 0
M  V30 1992 H 190.163 0.4586 -0.496651 0
M  V30 1993 H 192.717 0.846131 -1.87162 0
M  V30 1994 H 190.947 3.40061 -1.84107 0
M  V30 1995 H 192.636 3.37231 -2.25898 0
M  V30 1996 H 193.402 2.08153 -4.38061 0
M  V30 1997 H 189.281 2.96485 -3.53012 0
M  V30 1998 H 192.825 1.7366 -6.75639 0
M  V30 1999 H 188.722 2.62375 -5.89771 0
M  V30 2000 H 189.49 2.10883 -7.90867 0
M  V30 2001 N 192.153 1.28127 0.917671 0
M  V30 2002 C 193.399 1.15223 1.66888 0
M  V30 2003 C 193.732 -0.299293 1.9188 0
M  V30 2004 O 193.007 -1.21805 1.51637 0
M  V30 2005 C 193.29 1.94706 3.02922 0
M  V30 2006 C 193.143 3.47898 2.85109 0
M  V30 2007 C 194.462 1.75939 4.03402 0
M  V30 2008 H 191.581 0.419946 0.605652 0
M  V30 2009 H 194.223 1.57398 1.06423 0
M  V30 2010 H 192.373 1.58864 3.54534 0
M  V30 2011 H 194.045 3.93624 2.40537 0
M  V30 2012 H 192.288 3.7373 2.20246 0
M  V30 2013 H 192.959 3.98765 3.81694 0
M  V30 2014 H 195.435 2.07209 3.60837 0
M  V30 2015 H 194.311 2.33931 4.96556 0
M  V30 2016 H 194.572 0.709877 4.36364 0
M  V30 2017 N 193.631 -1.12557 1.10312 0
M  V30 2018 C 195.047 -1.36036 0.834649 0
M  V30 2019 C 195.247 -1.93946 -0.546539 0
M  V30 2020 O 194.303 -2.16484 -1.29966 0
M  V30 2021 C 195.616 -2.30312 1.9333 0
M  V30 2022 C 197.164 -2.43906 1.9616 0
M  V30 2023 C 197.639 -3.41496 3.05195 0
M  V30 2024 N 199.13 -3.49053 3.04494 0
M  V30 2025 C 199.865 -4.24471 3.85502 0
M  V30 2026 N 199.361 -5.02966 4.76442 0
M  V30 2027 N 201.154 -4.19864 3.73725 0
M  V30 2028 H 193.305 -0.733246 1.99342 0
M  V30 2029 H 195.568 -0.385234 0.866198 0
M  V30 2030 H 195.274 -1.94933 2.92735 0
M  V30 2031 H 195.148 -3.30421 1.81939 0
M  V30 2032 H 197.535 -2.78567 0.973886 0
M  V30 2033 H 197.616 -1.4369 2.11629 0
M  V30 2034 H 197.26 -3.07565 4.04186 0
M  V30 2035 H 197.19 -4.41539 2.86968 0
M  V30 2036 H 199.681 -2.93053 2.38596 0
M  V30 2037 H 199.994 -5.57846 5.34815 0
M  V30 2038 H 198.339 -5.02167 4.80472 0
M  V30 2039 H 201.53 -3.57623 3.02032 0
M  V30 2040 H 201.703 -4.78386 4.37093 0
M  V30 2041 N 195.109 -0.891671 -1.2995 0
M  V30 2042 C 196.339 -0.527893 -1.99742 0
M  V30 2043 C 196.747 0.88979 -1.66971 0
M  V30 2044 O 196.09 1.59766 -0.906667 0
M  V30 2045 C 196.152 -0.630804 -3.53922 0
M  V30 2046 C 195.816 -2.01401 -4.10228 0
M  V30 2047 C 196.813 -2.98422 -4.25724 0
M  V30 2048 C 194.498 -2.32121 -4.45449 0
M  V30 2049 C 196.492 -4.24293 -4.75662 0
M  V30 2050 C 194.179 -3.58237 -4.95086 0
M  V30 2051 C 195.177 -4.54137 -5.10146 0
M  V30 2052 O 194.865 -5.78014 -5.58708 0
M  V30 2053 H 194.597 -0.201953 -0.645129 0
M  V30 2054 H 197.151 -1.20076 -1.66646 0
M  V30 2055 H 195.381 0.0990616 -3.86573 0
M  V30 2056 H 197.07 -0.277338 -4.04951 0
M  V30 2057 H 197.836 -2.76001 -3.98809 0
M  V30 2058 H 193.715 -1.5824 -4.32991 0
M  V30 2059 H 197.259 -4.99153 -4.87332 0
M  V30 2060 H 193.156 -3.80491 -5.21437 0
M  V30 2061 H 193.924 -5.8049 -5.77039 0
M  V30 2062 N 196.587 1.43421 -0.653314 0
M  V30 2063 C 197.517 2.33487 0.0246656 0
M  V30 2064 C 198.498 1.49475 0.811863 0
M  V30 2065 O 199.683 1.78139 0.773322 0
M  V30 2066 C 196.813 3.32841 0.99166 0
M  V30 2067 C 195.767 4.26842 0.314568 0
M  V30 2068 C 195.093 5.16236 1.39302 0
M  V30 2069 C 196.393 5.16243 -0.793095 0
M  V30 2070 H 198.087 2.90427 -0.727481 0
M  V30 2071 H 195.633 1.39649 -0.351287 0
M  V30 2072 H 197.586 3.94747 1.47487 0
M  V30 2073 H 196.31 2.74158 1.77497 0
M  V30 2074 H 194.969 3.663 -0.148199 0
M  V30 2075 H 194.617 4.53891 2.16776 0
M  V30 2076 H 194.317 5.79948 0.945223 0
M  V30 2077 H 195.841 5.81015 1.87759 0
M  V30 2078 H 197.255 5.71958 -0.392039 0
M  V30 2079 H 195.652 5.88676 -1.16536 0
M  V30 2080 H 196.722 4.55927 -1.65103 0
M  V30 2081 N 198.065 0.39524 1.52563 0
M  V30 2082 C 199.313 -0.184678 2.01254 0
M  V30 2083 C 199.634 -1.46822 1.28329 0
M  V30 2084 O 198.904 -1.91666 0.405094 0
M  V30 2085 H 197.484 -0.0712355 0.743596 0
M  V30 2086 H 200.146 0.528293 1.87603 0
M  V30 2087 H 199.242 -0.390681 3.09645 0
M  V30 2088 N 199.544 -1.57102 0.125237 0
M  V30 2089 C 200.821 -1.86953 -0.575142 0
M  V30 2090 C 201.201 -1.02749 -1.84407 0
M  V30 2091 O 200.549 -0.108144 -2.28244 0
M  V30 2092 C 200.759 -3.38198 -0.861583 0
M  V30 2093 C 202.107 -4.06937 -1.21192 0
M  V30 2094 O 203.131 -3.43252 -0.951645 0
M  V30 2095 O 201.99 -5.19364 -1.70068 0
M  V30 2096 H 199.084 -0.774147 -0.290906 0
M  V30 2097 H 201.63 -1.68942 0.160211 0
M  V30 2098 H 200.402 -3.91282 0.0373647 0
M  V30 2099 H 200.025 -3.61661 -1.65188 0
M  V30 2100 N 201.022 0.148545 -1.56898 0
M  V30 2101 C 201.952 1.18524 -2.01182 0
M  V30 2102 C 202.933 1.4489 -0.891123 0
M  V30 2103 O 204.118 1.55836 -1.15882 0
M  V30 2104 C 201.248 2.51879 -2.39112 0
M  V30 2105 C 200.202 2.40038 -3.54353 0
M  V30 2106 C 199.528 3.78089 -3.78091 0
M  V30 2107 C 200.828 1.88577 -4.87069 0
M  V30 2108 H 202.522 0.817029 -2.88036 0
M  V30 2109 H 200.068 0.391575 -1.38574 0
M  V30 2110 H 202.021 3.24627 -2.68692 0
M  V30 2111 H 200.745 2.90532 -1.49193 0
M  V30 2112 H 199.404 1.69742 -3.24936 0
M  V30 2113 H 199.052 4.14175 -2.85426 0
M  V30 2114 H 198.752 3.71028 -4.55645 0
M  V30 2115 H 200.276 4.52387 -4.10095 0
M  V30 2116 H 201.69 2.51117 -5.15377 0
M  V30 2117 H 200.087 1.9241 -5.68417 0
M  V30 2118 H 201.157 0.84136 -4.77545 0
M  V30 2119 N 202.5 1.5196 0.417844 0
M  V30 2120 C 203.725 1.69717 1.1921 0
M  V30 2121 C 204.15 0.402148 1.83751 0
M  V30 2122 O 203.508 -0.639593 1.69643 0
M  V30 2123 C 203.556 2.82794 2.2374 0
M  V30 2124 O 202.66 2.47756 3.29683 0
M  V30 2125 H 202.001 0.565263 0.348387 0
M  V30 2126 H 204.531 1.98621 0.490985 0
M  V30 2127 H 204.541 3.07452 2.68212 0
M  V30 2128 H 203.216 3.76756 1.76146 0
M  V30 2129 H 201.793 2.33739 2.90552 0
M  V30 2130 N 203.978 -0.674533 1.42435 0
M  V30 2131 C 205.226 -1.43175 1.42637 0
M  V30 2132 C 205.547 -1.94951 0.0438992 0
M  V30 2133 O 204.817 -1.7308 -0.917607 0
M  V30 2134 H 203.397 -0.531307 0.525092 0
M  V30 2135 H 206.059 -0.797006 1.77859 0
M  V30 2136 H 205.155 -2.28463 2.12629 0
M  V30 2137 N 205.456 -1.28612 -0.910864 0
M  V30 2138 C 206.704 -1.15705 -1.65701 0
M  V30 2139 C 207.025 0.29416 -1.92769 0
M  V30 2140 O 206.295 1.20331 -1.54588 0
M  V30 2141 H 204.875 -0.425216 -0.614167 0
M  V30 2142 H 207.537 -1.61381 -1.0928 0
M  V30 2143 H 206.633 -1.6988 -2.61815 0
M  V30 2144 N 206.934 1.1197 -1.10907 0
M  V30 2145 C 207.866 2.17592 -0.720175 0
M  V30 2146 C 208.879 1.60938 0.245495 0
M  V30 2147 O 210.068 1.78476 0.0292245 0
M  V30 2148 C 207.168 3.38873 -0.0427917 0
M  V30 2149 C 206.341 4.25006 -1.03388 0
M  V30 2150 C 205.4 5.24774 -0.387075 0
M  V30 2151 O 204.426 5.59631 -1.03934 0
M  V30 2152 N 205.628 5.74208 0.852407 0
M  V30 2153 H 208.393 2.51567 -1.62893 0
M  V30 2154 H 205.954 1.27439 -0.998543 0
M  V30 2155 H 207.946 4.02703 0.401501 0
M  V30 2156 H 206.516 3.03007 0.768456 0
M  V30 2157 H 205.736 3.57716 -1.65629 0
M  V30 2158 H 207.024 4.79397 -1.70458 0
M  V30 2159 H 206.422 5.48062 1.40161 0
M  V30 2160 H 204.979 6.39901 1.23977 0
M  V30 2161 N 208.412 0.89855 1.29475 0
M  V30 2162 C 209.658 0.524658 1.95896 0
M  V30 2163 C 209.991 -0.926468 1.70676 0
M  V30 2164 O 209.266 -1.65665 1.01908 0
M  V30 2165 C 209.549 0.81633 3.50725 0
M  V30 2166 C 209.402 2.31907 3.85408 0
M  V30 2167 C 210.721 0.302038 4.39062 0
M  V30 2168 H 207.84 0.19209 0.711527 0
M  V30 2169 H 210.482 1.12502 1.53112 0
M  V30 2170 H 208.632 0.305369 3.87298 0
M  V30 2171 H 210.304 2.89949 3.58786 0
M  V30 2172 H 208.547 2.78027 3.32992 0
M  V30 2173 H 209.218 2.47373 4.93468 0
M  V30 2174 H 211.694 0.739551 4.09475 0
M  V30 2175 H 210.57 0.535331 5.46283 0
M  V30 2176 H 210.831 -0.797216 4.34853 0
M  V30 2177 N 209.89 -1.43072 0.660911 0
M  V30 2178 C 211.139 -2.00942 0.174735 0
M  V30 2179 C 211.452 -1.52797 -1.22117 0
M  V30 2180 O 212.658 -2.02991 -1.80297 0
M  V30 2181 C 211.114 -3.58948 0.261559 0
M  V30 2182 C 210.722 -4.16085 1.66064 0
M  V30 2183 C 212.466 -4.24173 -0.166617 0
M  V30 2184 C 210.373 -5.6641 1.70098 0
M  V30 2185 H 209.303 -0.751483 0.0615631 0
M  V30 2186 H 211.954 -1.63955 0.824069 0
M  V30 2187 H 210.336 -3.93372 -0.455421 0
M  V30 2188 H 211.51 -3.93147 2.40359 0
M  V30 2189 H 209.825 -3.6326 2.03546 0
M  V30 2190 H 212.422 -5.34471 -0.156433 0
M  V30 2191 H 212.765 -3.98647 -1.19943 0
M  V30 2192 H 213.298 -3.94659 0.498875 0
M  V30 2193 H 210.037 -5.96715 2.71315 0
M  V30 2194 H 209.557 -5.91382 1.00139 0
M  V30 2195 H 211.236 -6.30585 1.44816 0
M  V30 2196 N 211.368 -0.403325 -1.52352 0
M  V30 2197 C 212.331 0.413051 -2.25447 0
M  V30 2198 C 213.331 0.978513 -1.276 0
M  V30 2199 O 214.521 0.858305 -1.51587 0
M  V30 2200 C 211.653 1.58087 -3.02029 0
M  V30 2201 H 212.846 -0.227094 -2.99039 0
M  V30 2202 H 210.399 -0.155722 -1.55522 0
M  V30 2203 H 211.134 2.25804 -2.32772 0
M  V30 2204 H 210.919 1.18195 -3.73861 0
M  V30 2205 H 212.409 2.1585 -3.57489 0
M  V30 2206 N 212.846 1.57033 -0.133567 0
M  V30 2207 C 214.262 1.58035 0.222944 0
M  V30 2208 C 214.462 1.14713 1.6566 0
M  V30 2209 O 213.518 0.841218 2.38075 0
M  V30 2210 C 214.831 3.00691 -0.0236116 0
M  V30 2211 C 216.379 3.12973 0.0411512 0
M  V30 2212 C 216.854 4.57654 -0.177899 0
M  V30 2213 N 218.345 4.63033 -0.124365 0
M  V30 2214 C 219.08 5.72771 -0.268553 0
M  V30 2215 N 218.576 6.91206 -0.46972 0
M  V30 2216 N 220.369 5.61718 -0.2071 0
M  V30 2217 H 212.52 1.8349 -1.06981 0
M  V30 2218 H 214.783 0.848677 -0.422436 0
M  V30 2219 H 214.489 3.36726 -1.0153 0
M  V30 2220 H 214.363 3.70614 0.701808 0
M  V30 2221 H 216.75 2.76787 1.02338 0
M  V30 2222 H 216.831 2.45564 -0.716383 0
M  V30 2223 H 216.475 4.94542 -1.15717 0
M  V30 2224 H 216.405 5.23173 0.599797 0
M  V30 2225 H 218.896 3.7789 0.027011 0
M  V30 2226 H 219.209 7.70693 -0.570212 0
M  V30 2227 H 217.554 6.93156 -0.505876 0
M  V30 2228 H 220.745 4.68072 -0.0507986 0
M  V30 2229 H 220.918 6.47195 -0.322909 0
M  V30 2230 N 214.325 -0.140222 1.56975 0
M  V30 2231 C 215.258 -1.20266 1.93936 0
M  V30 2232 C 216.236 -1.41212 0.806099 0
M  V30 2233 O 217.42 -1.55713 1.06234 0
M  V30 2234 C 214.547 -2.56037 2.21726 0
M  V30 2235 C 213.593 -2.51646 3.44349 0
M  V30 2236 S 214.426 -1.97678 4.97678 0
M  V30 2237 C 215.582 -3.35165 5.28597 0
M  V30 2238 H 215.815 -0.887358 2.83749 0
M  V30 2239 H 213.348 -0.346119 1.50471 0
M  V30 2240 H 215.306 -3.34167 2.38416 0
M  V30 2241 H 213.967 -2.84755 1.32566 0
M  V30 2242 H 213.16 -3.51608 3.61092 0
M  V30 2243 H 212.762 -1.81628 3.26936 0
M  V30 2244 H 215.054 -4.31302 5.2248 0
M  V30 2245 H 215.997 -3.23269 6.30002 0
M  V30 2246 H 216.405 -3.32614 4.56101 0
M  V30 2247 N 215.803 -1.52179 -0.40978 0
M  V30 2248 C 216.736 -1.70196 -1.52015 0
M  V30 2249 C 217.714 -0.549542 -1.53032 0
M  V30 2250 O 218.898 -0.776815 -1.71749 0
M  V30 2251 C 216.025 -1.74069 -2.90547 0
M  V30 2252 C 215.071 -2.95601 -3.07445 0
M  V30 2253 S 215.904 -4.55956 -2.80827 0
M  V30 2254 C 217.06 -4.62614 -4.21591 0
M  V30 2255 H 217.293 -2.64109 -1.36504 0
M  V30 2256 H 214.826 -1.4221 -0.601312 0
M  V30 2257 H 216.784 -1.76985 -3.70387 0
M  V30 2258 H 215.445 -0.812835 -3.034 0
M  V30 2259 H 214.638 -2.94791 -4.08796 0
M  V30 2260 H 214.24 -2.90569 -2.35469 0
M  V30 2261 H 216.532 -4.39951 -5.15218 0
M  V30 2262 H 217.475 -5.64548 -4.27424 0
M  V30 2263 H 217.883 -3.91654 -4.06531 0
M  V30 2264 N 217.281 0.66697 -1.42791 0
M  V30 2265 C 218.213 1.7925 -1.42836 0
M  V30 2266 C 219.226 1.59496 -0.326333 0
M  V30 2267 O 220.415 1.6847 -0.589916 0
M  V30 2268 C 217.515 3.16476 -1.21229 0
M  V30 2269 C 216.688 3.63011 -2.44013 0
M  V30 2270 C 215.747 4.78993 -2.17834 0
M  V30 2271 O 214.773 4.89137 -2.91091 0
M  V30 2272 N 215.975 5.68248 -1.18635 0
M  V30 2273 H 218.74 1.79695 -2.39854 0
M  V30 2274 H 216.301 0.850338 -1.37771 0
M  V30 2275 H 218.293 3.91734 -1.01621 0
M  V30 2276 H 216.863 3.10884 -0.32706 0
M  V30 2277 H 216.083 2.78346 -2.79137 0
M  V30 2278 H 217.371 3.90845 -3.25757 0
M  V30 2279 H 216.769 5.62712 -0.580615 0
M  V30 2280 H 215.326 6.43285 -1.05013 0
M  V30 2281 N 218.759 1.29093 0.90403 0
M  V30 2282 C 220.175 1.07011 1.1841 0
M  V30 2283 C 220.375 -0.181358 2.00682 0
M  V30 2284 O 219.431 -0.880331 2.36657 0
M  V30 2285 C 220.744 2.32311 1.90924 0
M  V30 2286 C 222.292 2.37587 2.03768 0
M  V30 2287 C 222.767 3.62679 2.79693 0
M  V30 2288 N 224.258 3.63376 2.87249 0
M  V30 2289 C 224.993 4.56848 3.46522 0
M  V30 2290 N 224.489 5.60648 4.06996 0
M  V30 2291 N 226.282 4.44426 3.44154 0
M  V30 2292 H 218.433 2.09412 0.354993 0
M  V30 2293 H 220.696 0.922181 0.219742 0
M  V30 2294 H 220.402 3.23536 1.37905 0
M  V30 2295 H 220.276 2.39483 2.91424 0
M  V30 2296 H 222.663 1.46853 2.55965 0
M  V30 2297 H 222.744 2.34403 1.02415 0
M  V30 2298 H 222.388 4.53762 2.28173 0
M  V30 2299 H 222.318 3.63119 3.81381 0
M  V30 2300 H 224.809 2.88321 2.44293 0
M  V30 2301 H 225.122 6.28101 4.50232 0
M  V30 2302 H 223.467 5.64463 4.05471 0
M  V30 2303 H 226.658 3.62529 2.96126 0
M  V30 2304 H 226.831 5.17457 3.90054 0
M  V30 2305 N 220.237 -1.11381 1.11499 0
M  V30 2306 C 221.187 -2.15555 0.74298 0
M  V30 2307 C 222.171 -1.58894 -0.253276 0
M  V30 2308 O 223.363 -1.76897 -0.0602918 0
M  V30 2309 C 220.492 -3.42782 0.188481 0
M  V30 2310 C 219.578 -4.064 1.21244 0
M  V30 2311 N 219.969 -4.44864 2.40685 0
M  V30 2312 C 218.267 -4.3333 1.05552 0
M  V30 2313 C 218.968 -4.94715 3.05994 0
M  V30 2314 N 217.944 -4.90909 2.33472 0
M  V30 2315 H 221.746 -2.43074 1.65203 0
M  V30 2316 H 219.26 -1.28401 0.994329 0
M  V30 2317 H 221.257 -4.16789 -0.0961693 0
M  V30 2318 H 219.917 -3.16727 -0.715149 0
M  V30 2319 H 220.928 -4.36876 2.78136 0
M  V30 2320 H 217.605 -4.1698 0.208372 0
M  V30 2321 H 218.995 -5.34103 4.07656 0
M  V30 2322 N 221.715 -0.905404 -1.28997 0
M  V30 2323 C 222.945 -0.549049 -1.99171 0
M  V30 2324 C 223.353 0.87203 -1.67906 0
M  V30 2325 O 222.696 1.58796 -0.923561 0
M  V30 2326 C 222.758 -0.668306 -3.53234 0
M  V30 2327 C 222.422 -2.0574 -4.08069 0
M  V30 2328 C 223.419 -3.0292 -4.22534 0
M  V30 2329 C 221.104 -2.36833 -4.42962 0
M  V30 2330 C 223.098 -4.29314 -4.71135 0
M  V30 2331 C 220.785 -3.63467 -4.91258 0
M  V30 2332 C 221.783 -4.59522 -5.053 0
M  V30 2333 O 221.471 -5.83907 -5.52546 0
M  V30 2334 H 221.203 -0.208784 -0.64295 0
M  V30 2335 H 223.757 -1.21836 -1.65363 0
M  V30 2336 H 221.987 0.0580547 -3.86656 0
M  V30 2337 H 223.676 -0.320273 -4.04634 0
M  V30 2338 H 224.442 -2.80216 -3.95859 0
M  V30 2339 H 220.321 -1.62824 -4.31288 0
M  V30 2340 H 223.865 -5.04293 -4.8201 0
M  V30 2341 H 219.762 -3.86 -5.17372 0
M  V30 2342 H 220.53 -5.86578 -5.70849 0
M  V30 2343 N 223.193 1.4272 -0.668489 0
M  V30 2344 C 224.441 2.01226 -0.187769 0
M  V30 2345 C 224.762 1.53092 1.2078 0
M  V30 2346 O 224.032 0.74993 1.80977 0
M  V30 2347 H 222.612 0.744041 -0.0664272 0
M  V30 2348 H 225.274 1.74723 -0.863583 0
M  V30 2349 H 224.37 3.11556 -0.184166 0
M  V30 2350 N 224.671 0.411399 1.52136 0
M  V30 2351 C 225.917 -0.163888 2.02137 0
M  V30 2352 C 226.25 -1.44597 1.29636 0
M  V30 2353 O 225.525 -1.90272 0.403353 0
M  V30 2354 C 225.808 -0.40927 3.57767 0
M  V30 2355 C 225.661 0.889643 4.40914 0
M  V30 2356 C 226.98 -1.19042 4.23694 0
M  V30 2357 H 224.099 -0.0580896 0.734707 0
M  V30 2358 H 226.741 0.54531 1.82007 0
M  V30 2359 H 224.891 -1.0134 3.7505 0
M  V30 2360 H 226.563 1.52575 4.35337 0
M  V30 2361 H 224.806 1.50011 4.07037 0
M  V30 2362 H 225.477 0.672314 5.4789 0
M  V30 2363 H 227.953 -0.678942 4.10524 0
M  V30 2364 H 226.829 -1.33086 5.32522 0
M  V30 2365 H 227.09 -2.21166 3.82803 0
M  V30 2366 N 226.149 -1.5696 0.141893 0
M  V30 2367 C 227.426 -1.87553 -0.555281 0
M  V30 2368 C 227.806 -1.04699 -1.83306 0
M  V30 2369 O 227.154 -0.132346 -2.28116 0
M  V30 2370 C 227.364 -3.39093 -0.825664 0
M  V30 2371 C 228.712 -4.08199 -1.16869 0
M  V30 2372 O 229.736 -3.44242 -0.915185 0
M  V30 2373 O 228.595 -5.21139 -1.6455 0
M  V30 2374 H 225.689 -0.777188 -0.282679 0
M  V30 2375 H 228.235 -1.68763 0.17812 0
M  V30 2376 H 227.007 -3.91221 0.0788633 0
M  V30 2377 H 226.63 -3.63393 -1.61343 0
M  V30 2378 N 227.627 0.131896 -1.57047 0
M  V30 2379 C 229.038 0.690407 -1.73465 0
M  V30 2380 C 229.389 1.8094 -0.758629 0
M  V30 2381 O 228.514 2.16282 0.0713813 0
M  V30 2382 C 229.109 1.25916 -3.14532 0
M  V30 2383 C 227.668 1.76409 -3.32501 0
M  V30 2384 C 226.815 0.658579 -2.69366 0
M  V30 2385 H 229.766 -0.0939144 -1.58422 0
M  V30 2386 H 229.787 2.12892 -3.15369 0
M  V30 2387 H 229.299 0.444515 -3.85546 0
M  V30 2388 H 227.4 2.60391 -2.66509 0
M  V30 2389 H 227.513 1.88241 -4.4057 0
M  V30 2390 H 225.877 1.08899 -2.30246 0
M  V30 2391 H 226.66 -0.14487 -3.42994 0
M  V30 2392 N 229.106 1.52395 0.401703 0
M  V30 2393 C 230.016 1.7917 1.51444 0
M  V30 2394 C 231.032 0.677691 1.6026 0
M  V30 2395 O 232.208 0.963909 1.76835 0
M  V30 2396 C 229.273 1.94347 2.87107 0
M  V30 2397 C 228.334 3.18257 2.88116 0
M  V30 2398 C 227.567 3.32701 4.17308 0
M  V30 2399 O 227.79 2.52238 5.11598 0
M  V30 2400 O 226.724 4.25891 4.25324 0
M  V30 2401 H 230.55 2.73633 1.31752 0
M  V30 2402 H 228.135 1.3733 0.588296 0
M  V30 2403 H 230.017 2.06109 3.67555 0
M  V30 2404 H 228.692 1.03073 3.06851 0
M  V30 2405 H 227.599 3.11947 2.06494 0
M  V30 2406 H 228.932 4.09336 2.73322 0
M  V30 2407 N 230.584 -0.659388 1.43143 0
M  V30 2408 C 231.547 -1.75432 1.47501 0
M  V30 2409 C 232.547 -1.56707 0.360512 0
M  V30 2410 O 233.737 -1.62717 0.622002 0
M  V30 2411 C 230.869 -3.14239 1.32162 0
M  V30 2412 H 232.062 -1.7295 2.45006 0
M  V30 2413 H 229.615 -0.870469 1.29817 0
M  V30 2414 H 230.35 -3.22336 0.356401 0
M  V30 2415 H 230.135 -3.29235 2.12948 0
M  V30 2416 H 231.625 -3.94094 1.3813 0
M  V30 2417 N 232.062 -1.29571 -0.897171 0
M  V30 2418 C 232.992 -1.17473 -2.01798 0
M  V30 2419 C 233.973 -0.068323 -1.69963 0
M  V30 2420 O 235.158 -0.248239 -1.92607 0
M  V30 2421 C 232.288 -0.853099 -3.36659 0
M  V30 2422 C 231.242 -1.9161 -3.82713 0
M  V30 2423 C 230.568 -1.44773 -5.14728 0
M  V30 2424 C 231.868 -3.32535 -4.02763 0
M  V30 2425 H 233.562 -2.11237 -2.12177 0
M  V30 2426 H 231.108 -1.01699 -1.01948 0
M  V30 2427 H 233.061 -0.755165 -4.14578 0
M  V30 2428 H 231.785 0.120236 -3.26379 0
M  V30 2429 H 230.444 -2.00346 -3.07013 0
M  V30 2430 H 230.092 -0.462995 -5.00865 0
M  V30 2431 H 229.792 -2.15865 -5.46513 0
M  V30 2432 H 231.316 -1.36334 -5.95185 0
M  V30 2433 H 232.73 -3.26626 -4.71156 0
M  V30 2434 H 231.127 -4.01607 -4.45905 0
M  V30 2435 H 232.197 -3.75326 -3.07016 0
M  V30 2436 N 233.54 1.10788 -1.12088 0
M  V30 2437 C 234.788 1.8231 -0.872205 0
M  V30 2438 C 235.109 1.85419 0.603709 0
M  V30 2439 O 234.379 1.32963 1.43867 0
M  V30 2440 H 232.959 0.675137 -0.319686 0
M  V30 2441 H 235.621 1.34068 -1.41463 0
M  V30 2442 H 234.717 2.85955 -1.25045 0
M  V30 2443 N 235.018 0.912232 1.28515 0
M  V30 2444 C 236.265 0.544599 1.95039 0
M  V30 2445 C 236.593 -0.911435 1.71823 0
M  V30 2446 O 235.848 -1.66317 1.03137 0
M  V30 2447 C 236.147 0.798392 3.48368 0
M  V30 2448 C 235.813 2.23374 3.91682 0
M  V30 2449 C 234.475 2.62617 4.03219 0
M  V30 2450 C 236.827 3.16786 4.13879 0
M  V30 2451 C 234.155 3.94429 4.3433 0
M  V30 2452 C 236.507 4.48161 4.46469 0
M  V30 2453 C 235.171 4.8726 4.56217 0
M  V30 2454 H 234.441 0.199283 0.7137 0
M  V30 2455 H 237.088 1.15327 1.52879 0
M  V30 2456 H 235.393 0.106908 3.91654 0
M  V30 2457 H 237.09 0.493141 3.97956 0
M  V30 2458 H 233.68 1.91922 3.83228 0
M  V30 2459 H 237.864 2.87677 4.0442 0
M  V30 2460 H 233.12 4.24426 4.40082 0
M  V30 2461 H 237.294 5.20559 4.62592 0
M  V30 2462 H 234.921 5.89431 4.80078 0
M  V30 2463 N 236.496 -1.42363 0.676048 0
M  V30 2464 C 237.726 -2.05561 0.206967 0
M  V30 2465 C 238.134 -1.50887 -1.14148 0
M  V30 2466 O 237.477 -0.643933 -1.72044 0
M  V30 2467 C 237.539 -3.5944 0.0659508 0
M  V30 2468 C 237.203 -4.36812 1.34331 0
M  V30 2469 C 238.2 -4.67383 2.27704 0
M  V30 2470 C 235.885 -4.76429 1.59125 0
M  V30 2471 C 237.879 -5.36509 3.44147 0
M  V30 2472 C 235.566 -5.45294 2.75857 0
M  V30 2473 C 236.564 -5.75259 3.68193 0
M  V30 2474 O 236.252 -6.42712 4.82883 0
M  V30 2475 H 235.984 -0.668872 0.0979084 0
M  V30 2476 H 238.538 -1.83467 0.923531 0
M  V30 2477 H 236.768 -3.80197 -0.706204 0
M  V30 2478 H 238.457 -4.0427 -0.363418 0
M  V30 2479 H 239.223 -4.37275 2.09799 0
M  V30 2480 H 235.102 -4.52498 0.881258 0
M  V30 2481 H 238.646 -5.59814 4.16238 0
M  V30 2482 H 234.543 -5.7482 2.93688 0
M  V30 2483 H 235.311 -6.61204 4.82444 0
M  V30 2484 N 237.974 -0.419461 -1.51915 0
M  V30 2485 C 238.924 0.418496 -2.24126 0
M  V30 2486 C 239.908 1.00495 -1.25656 0
M  V30 2487 O 241.1 0.926058 -1.50842 0
M  V30 2488 C 238.229 1.52899 -3.07371 0
M  V30 2489 C 237.315 0.952797 -4.13258 0
M  V30 2490 N 237.706 0.104175 -5.05693 0
M  V30 2491 C 236.004 1.22224 -4.28926 0
M  V30 2492 C 236.705 -0.21752 -5.81293 0
M  V30 2493 N 235.681 0.394293 -5.42168 0
M  V30 2494 H 239.483 -0.236048 -2.92951 0
M  V30 2495 H 236.997 -0.230481 -1.60756 0
M  V30 2496 H 238.994 2.14199 -3.57665 0
M  V30 2497 H 237.654 2.18605 -2.40088 0
M  V30 2498 H 238.665 -0.260924 -5.17242 0
M  V30 2499 H 235.342 1.87812 -3.72871 0
M  V30 2500 H 236.732 -0.906992 -6.6575 0
M  V30 2501 N 239.452 1.56882 -0.150215 0
M  V30 2502 C 240.699 1.96228 0.500093 0
M  V30 2503 C 241.027 1.03522 1.64661 0
M  V30 2504 O 240.282 0.0650683 1.95592 0
M  V30 2505 C 240.581 3.41801 1.04437 0
M  V30 2506 C 240.247 4.50897 0.0159671 0
M  V30 2507 C 238.909 4.8046 -0.266731 0
M  V30 2508 C 241.261 5.16703 -0.683192 0
M  V30 2509 C 238.589 5.73135 -1.25434 0
M  V30 2510 C 240.941 6.10441 -1.65964 0
M  V30 2511 C 239.605 6.38382 -1.95 0
M  V30 2512 H 238.875 0.718048 0.182997 0
M  V30 2513 H 241.522 1.90019 -0.237724 0
M  V30 2514 H 239.827 3.44857 1.85959 0
M  V30 2515 H 241.524 3.69573 1.55618 0
M  V30 2516 H 238.114 4.27891 0.246485 0
M  V30 2517 H 242.298 4.93993 -0.477983 0
M  V30 2518 H 237.554 5.93074 -1.48571 0
M  V30 2519 H 241.728 6.60507 -2.20689 0
M  V30 2520 H 239.355 7.09996 -2.71679 0
M  V30 2521 N 240.93 -0.123565 1.57115 0
M  V30 2522 C 241.84 -1.17074 2.033 0
M  V30 2523 C 242.856 -1.4561 0.952559 0
M  V30 2524 O 244.032 -1.56817 1.26374 0
M  V30 2525 C 241.097 -2.47857 2.42421 0
M  V30 2526 C 240.158 -2.26758 3.64526 0
M  V30 2527 C 239.391 -3.51305 4.01771 0
M  V30 2528 O 239.614 -4.5843 3.39409 0
M  V30 2529 O 238.548 -3.42578 4.94898 0
M  V30 2530 H 242.374 -0.808555 2.92739 0
M  V30 2531 H 239.959 -0.334027 1.45618 0
M  V30 2532 H 241.841 -3.2492 2.68338 0
M  V30 2533 H 240.516 -2.83558 1.5613 0
M  V30 2534 H 239.423 -1.47569 3.43765 0
M  V30 2535 H 240.756 -1.95963 4.51508 0
M  V30 2536 N 242.408 -1.52605 -0.393616 0
M  V30 2537 C 243.656 -1.67093 -1.13685 0
M  V30 2538 C 243.977 -0.411011 -1.90619 0
M  V30 2539 O 243.247 0.574491 -1.87287 0
M  V30 2540 H 241.827 -0.615923 -0.422668 0
M  V30 2541 H 244.489 -1.89704 -0.447039 0
M  V30 2542 H 243.585 -2.51922 -1.84232 0
M  V30 2543 N 243.887 0.651787 -1.4349 0
M  V30 2544 C 245.136 1.40754 -1.44469 0
M  V30 2545 C 245.449 1.95463 -0.0731845 0
M  V30 2546 O 246.655 2.71471 0.0395721 0
M  V30 2547 C 245.111 2.54735 -2.5424 0
M  V30 2548 C 244.719 2.06628 -3.97504 0
M  V30 2549 C 246.463 3.32092 -2.64414 0
M  V30 2550 C 244.37 3.17829 -4.98737 0
M  V30 2551 H 243.3 0.528862 -0.53742 0
M  V30 2552 H 245.951 0.703365 -1.69485 0
M  V30 2553 H 244.333 3.2763 -2.22428 0
M  V30 2554 H 245.507 1.40734 -4.38783 0
M  V30 2555 H 243.822 1.42146 -3.91387 0
M  V30 2556 H 246.419 4.14952 -3.37223 0
M  V30 2557 H 246.762 3.80217 -1.69532 0
M  V30 2558 H 247.295 2.66279 -2.95534 0
M  V30 2559 H 244.034 2.74671 -5.95177 0
M  V30 2560 H 243.554 3.82429 -4.62069 0
M  V30 2561 H 245.233 3.82937 -5.21505 0
M  V30 2562 N 245.365 1.30045 0.890287 0
M  V30 2563 C 246.328 1.15963 1.977 0
M  V30 2564 C 247.328 0.0923777 1.60534 0
M  V30 2565 O 248.518 0.340071 1.70848 0
M  V30 2566 C 245.65 0.775451 3.31963 0
M  V30 2567 H 246.843 2.12502 2.11619 0
M  V30 2568 H 244.396 1.13366 1.07601 0
M  V30 2569 H 245.131 -0.189671 3.23745 0
M  V30 2570 H 244.916 1.54668 3.60306 0
M  V30 2571 H 246.406 0.700251 4.11687 0
M  V30 2572 N 246.843 -1.10192 1.12674 0
M  V30 2573 C 247.79 -2.16606 0.796906 0
M  V30 2574 C 248.76 -1.64394 -0.237476 0
M  V30 2575 O 249.945 -1.90474 -0.111484 0
M  V30 2576 C 247.085 -3.44116 0.26043 0
M  V30 2577 C 246.198 -4.10268 1.35293 0
M  V30 2578 C 245.333 -5.25507 0.775621 0
M  V30 2579 C 244.372 -5.83567 1.84706 0
M  V30 2580 N 243.509 -6.90179 1.28829 0
M  V30 2581 H 248.349 -2.44163 1.70846 0
M  V30 2582 H 245.886 -1.19846 0.85295 0
M  V30 2583 H 247.844 -4.17143 -0.0686814 0
M  V30 2584 H 246.474 -3.16901 -0.614274 0
M  V30 2585 H 245.526 -3.35184 1.79877 0
M  V30 2586 H 246.838 -4.4946 2.16303 0
M  V30 2587 H 245.992 -6.05398 0.397327 0
M  V30 2588 H 244.731 -4.87656 -0.0656581 0
M  V30 2589 H 243.736 -5.02344 2.23452 0
M  V30 2590 H 244.961 -6.23482 2.69161 0
M  V30 2591 H 242.907 -6.54322 0.468881 0
M  V30 2592 H 242.824 -7.28097 2.03497 0
M  V30 2593 H 244.092 -7.73844 0.937311 0
M  V30 2594 N 248.321 -0.919034 -1.28029 0
M  V30 2595 C 249.251 -0.428581 -2.29533 0
M  V30 2596 C 250.232 0.50659 -1.62381 0
M  V30 2597 O 251.417 0.413195 -1.89753 0
M  V30 2598 C 248.547 0.327388 -3.45753 0
M  V30 2599 C 247.501 -0.519137 -4.2484 0
M  V30 2600 C 246.827 0.365486 -5.33449 0
M  V30 2601 C 248.127 -1.77914 -4.91064 0
M  V30 2602 H 249.821 -1.27687 -2.70807 0
M  V30 2603 H 247.367 -0.615428 -1.30186 0
M  V30 2604 H 249.32 0.681378 -4.15855 0
M  V30 2605 H 248.044 1.20963 -3.03374 0
M  V30 2606 H 246.703 -0.855717 -3.56473 0
M  V30 2607 H 246.351 1.24642 -4.87312 0
M  V30 2608 H 246.051 -0.197356 -5.87268 0
M  V30 2609 H 247.575 0.715241 -6.06396 0
M  V30 2610 H 248.989 -1.49374 -5.53498 0
M  V30 2611 H 247.386 -2.2848 -5.54903 0
M  V30 2612 H 248.456 -2.50382 -4.15255 0
M  V30 2613 N 249.799 1.42003 -0.683588 0
M  V30 2614 C 250.746 2.30798 -0.0107309 0
M  V30 2615 C 251.716 1.4645 0.783688 0
M  V30 2616 O 252.901 1.75263 0.754156 0
M  V30 2617 C 250.041 3.3238 0.928306 0
M  V30 2618 C 249.154 4.31814 0.126776 0
M  V30 2619 C 248.289 5.20468 1.06236 0
M  V30 2620 C 247.328 6.11577 0.253035 0
M  V30 2621 N 246.465 6.92754 1.14179 0
M  V30 2622 H 251.305 2.8778 -0.773727 0
M  V30 2623 H 248.842 1.41745 -0.393283 0
M  V30 2624 H 250.8 3.89813 1.48666 0
M  V30 2625 H 249.43 2.76976 1.65783 0
M  V30 2626 H 248.482 3.76427 -0.54833 0
M  V30 2627 H 249.794 4.96276 -0.501192 0
M  V30 2628 H 248.948 5.82677 1.69035 0
M  V30 2629 H 247.687 4.56204 1.7242 0
M  V30 2630 H 246.692 5.48428 -0.388108 0
M  V30 2631 H 247.917 6.77892 -0.404839 0
M  V30 2632 H 245.863 6.3111 1.78987 0
M  V30 2633 H 245.78 7.53855 0.569111 0
M  V30 2634 H 247.048 7.59441 1.75697 0
M  V30 2635 N 251.277 0.427512 1.51691 0
M  V30 2636 C 252.523 -0.142439 2.02299 0
M  V30 2637 C 252.856 -1.43214 1.31162 0
M  V30 2638 O 252.131 -1.89833 0.423511 0
M  V30 2639 C 252.414 -0.371301 3.58181 0
M  V30 2640 C 252.267 0.936358 4.39946 0
M  V30 2641 C 253.586 -1.14542 4.24933 0
M  V30 2642 H 250.705 -0.0502937 0.735282 0
M  V30 2643 H 253.347 0.564584 1.81418 0
M  V30 2644 H 251.497 -0.973559 3.76104 0
M  V30 2645 H 253.169 1.57184 4.33694 0
M  V30 2646 H 251.412 1.5432 4.05423 0
M  V30 2647 H 252.083 0.730388 5.47147 0
M  V30 2648 H 254.559 -0.635362 4.11221 0
M  V30 2649 H 253.435 -1.27431 5.33903 0
M  V30 2650 H 253.696 -2.17093 3.85127 0
M  V30 2651 N 252.755 -1.56801 0.158532 0
M  V30 2652 C 253.985 -2.00568 -0.495583 0
M  V30 2653 C 254.393 -1.03774 -1.58201 0
M  V30 2654 O 253.736 -0.0285797 -1.83678 0
M  V30 2655 C 253.798 -3.40768 -1.14532 0
M  V30 2656 C 253.462 -4.56553 -0.202101 0
M  V30 2657 C 254.459 -5.16714 0.574675 0
M  V30 2658 C 252.144 -5.02197 -0.101648 0
M  V30 2659 C 254.138 -6.20939 1.43924 0
M  V30 2660 C 251.825 -6.06274 0.766508 0
M  V30 2661 C 252.823 -6.65515 1.53555 0
M  V30 2662 O 252.511 -7.67575 2.38922 0
M  V30 2663 H 252.243 -0.662893 -0.13247 0
M  V30 2664 H 254.797 -2.03829 0.253559 0
M  V30 2665 H 253.027 -3.34381 -1.94233 0
M  V30 2666 H 254.716 -3.6857 -1.70033 0
M  V30 2667 H 255.482 -4.82341 0.507167 0
M  V30 2668 H 251.361 -4.55807 -0.689994 0
M  V30 2669 H 254.905 -6.67107 2.03996 0
M  V30 2670 H 250.802 -6.40073 0.835266 0
M  V30 2671 H 251.57 -7.84844 2.32296 0
M  V30 2672 N 254.233 0.115231 -1.57178 0
M  V30 2673 C 255.18 1.14115 -2.00615 0
M  V30 2674 C 256.15 1.40939 -0.878941 0
M  V30 2675 O 257.335 1.52741 -1.14345 0
M  V30 2676 C 254.475 2.46156 -2.4187 0
M  V30 2677 C 253.588 2.26236 -3.68024 0
M  V30 2678 C 252.723 3.51534 -3.98243 0
M  V30 2679 C 251.762 3.26787 -5.17568 0
M  V30 2680 N 250.899 4.44298 -5.43639 0
M  V30 2681 H 255.739 0.763743 -2.88047 0
M  V30 2682 H 253.276 0.365615 -1.42484 0
M  V30 2683 H 255.234 3.23189 -2.63827 0
M  V30 2684 H 253.864 2.81783 -1.57475 0
M  V30 2685 H 252.916 1.40102 -3.5366 0
M  V30 2686 H 254.228 2.03929 -4.55208 0
M  V30 2687 H 253.382 4.36984 -4.20868 0
M  V30 2688 H 252.121 3.76876 -3.09541 0
M  V30 2689 H 251.126 2.39729 -4.94783 0
M  V30 2690 H 252.351 3.02812 -6.0785 0
M  V30 2691 H 250.297 4.69754 -4.57895 0
M  V30 2692 H 250.214 4.25109 -6.25154 0
M  V30 2693 H 251.482 5.3087 -5.70786 0
M  V30 2694 N 255.711 1.52812 0.385517 0
M  V30 2695 C 256.988 1.5861 1.14465 0
M  V30 2696 C 257.368 0.381402 2.07626 0
M  V30 2697 O 256.716 -0.629999 2.19643 0
M  V30 2698 C 256.926 2.92664 1.90128 0
M  V30 2699 C 258.274 3.46526 2.45367 0
M  V30 2700 O 259.298 2.94562 2.0028 0
M  V30 2701 O 258.157 4.37323 3.27736 0
M  V30 2702 H 255.251 0.639855 0.523941 0
M  V30 2703 H 257.797 1.65149 0.390389 0
M  V30 2704 H 256.569 3.71788 1.22022 0
M  V30 2705 H 256.192 2.89527 2.72507 0
M  V30 2706 N 257.189 -0.644168 1.43834 0
M  V30 2707 C 258.099 -1.78563 1.52159 0
M  V30 2708 C 259.115 -1.69147 0.408069 0
M  V30 2709 O 260.291 -1.90156 0.663524 0
M  V30 2710 C 257.356 -3.14888 1.45073 0
M  V30 2711 C 256.417 -3.36034 2.6717 0
M  V30 2712 C 255.65 -4.65855 2.60413 0
M  V30 2713 O 255.873 -5.45805 1.65689 0
M  V30 2714 O 254.807 -4.88918 3.5106 0
M  V30 2715 H 258.633 -1.74494 2.48567 0
M  V30 2716 H 256.218 -0.80378 1.25935 0
M  V30 2717 H 258.1 -3.96179 1.43597 0
M  V30 2718 H 256.775 -3.19528 0.518037 0
M  V30 2719 H 255.682 -2.54472 2.74217 0
M  V30 2720 H 257.015 -3.36247 3.59442 0
M  V30 2721 N 258.668 -1.30515 -0.883378 0
M  V30 2722 C 259.898 -1.22182 -1.66599 0
M  V30 2723 C 260.306 0.217507 -1.87946 0
M  V30 2724 O 259.649 1.1554 -1.42815 0
M  V30 2725 C 259.711 -1.88146 -3.06335 0
M  V30 2726 C 259.375 -3.37476 -3.08154 0
M  V30 2727 C 260.372 -4.33443 -2.87094 0
M  V30 2728 C 258.057 -3.7895 -3.29701 0
M  V30 2729 C 260.051 -5.68858 -2.8754 0
M  V30 2730 C 257.738 -5.14482 -3.29776 0
M  V30 2731 C 258.736 -6.09246 -3.0872 0
M  V30 2732 O 258.424 -7.42302 -3.08615 0
M  V30 2733 H 258.156 -0.423898 -0.52658 0
M  V30 2734 H 260.71 -1.72703 -1.11188 0
M  V30 2735 H 258.94 -1.32157 -3.63416 0
M  V30 2736 H 260.629 -1.7391 -3.66756 0
M  V30 2737 H 261.395 -4.02733 -2.70243 0
M  V30 2738 H 257.274 -3.05631 -3.45124 0
M  V30 2739 H 260.818 -6.428 -2.71024 0
M  V30 2740 H 256.715 -5.44832 -3.46163 0
M  V30 2741 H 257.483 -7.5131 -3.24769 0
M  V30 2742 N 260.146 1.09593 -1.13257 0
M  V30 2743 C 261.562 1.33775 -0.870423 0
M  V30 2744 C 261.762 1.95327 0.494926 0
M  V30 2745 O 260.818 2.19853 1.2418 0
M  V30 2746 C 262.131 2.25106 -1.99369 0
M  V30 2747 C 263.679 2.3862 -2.02558 0
M  V30 2748 C 264.154 3.33285 -3.14142 0
M  V30 2749 N 265.645 3.40857 -3.13641 0
M  V30 2750 C 266.38 4.14101 -3.96621 0
M  V30 2751 N 265.876 4.90157 -4.8961 0
M  V30 2752 N 267.669 4.09808 -3.84726 0
M  V30 2753 H 259.82 0.680136 -2.01216 0
M  V30 2754 H 262.083 0.362133 -0.876107 0
M  V30 2755 H 261.789 1.87103 -2.97801 0
M  V30 2756 H 261.663 3.25481 -1.90635 0
M  V30 2757 H 264.05 2.75887 -1.0474 0
M  V30 2758 H 264.131 1.38028 -2.15364 0
M  V30 2759 H 263.775 2.96741 -4.12198 0
M  V30 2760 H 263.705 4.33776 -2.98574 0
M  V30 2761 H 266.196 2.86624 -2.46282 0
M  V30 2762 H 266.509 5.4347 -5.49418 0
M  V30 2763 H 264.854 4.89251 -4.93617 0
M  V30 2764 H 268.045 3.4949 -3.11408 0
M  V30 2765 H 268.218 4.66629 -4.49623 0
M  V30 2766 N 261.624 0.925811 1.2754 0
M  V30 2767 C 262.534 0.428993 2.30644 0
M  V30 2768 C 263.55 -0.489387 1.66976 0
M  V30 2769 O 264.726 -0.372653 1.97922 0
M  V30 2770 C 261.791 -0.311967 3.45294 0
M  V30 2771 C 260.852 0.641098 4.24486 0
M  V30 2772 C 260.085 -0.0645955 5.33661 0
M  V30 2773 O 260.308 -1.28429 5.55754 0
M  V30 2774 O 259.242 0.606265 5.98839 0
M  V30 2775 H 263.068 1.28504 2.75173 0
M  V30 2776 H 260.653 0.691086 1.32455 0
M  V30 2777 H 262.535 -0.729972 4.15029 0
M  V30 2778 H 261.21 -1.14365 3.02824 0
M  V30 2779 H 260.117 1.10874 3.57292 0
M  V30 2780 H 261.45 1.43995 4.70666 0
M  V30 2781 N 263.102 -1.41638 0.69111 0
M  V30 2782 C 264.049 -2.30789 0.0229705 0
M  V30 2783 C 265.019 -1.46863 -0.775911 0
M  V30 2784 O 266.204 -1.75661 -0.74485 0
M  V30 2785 C 263.344 -3.32868 -0.910666 0
M  V30 2786 C 262.457 -4.31875 -0.103874 0
M  V30 2787 C 261.592 -5.21024 -1.03475 0
M  V30 2788 C 260.631 -6.11702 -0.220598 0
M  V30 2789 N 259.768 -6.93349 -1.10504 0
M  V30 2790 H 264.608 -2.87366 0.788978 0
M  V30 2791 H 262.145 -1.41535 0.400794 0
M  V30 2792 H 264.103 -3.90596 -1.46597 0
M  V30 2793 H 262.733 -2.77851 -1.64312 0
M  V30 2794 H 261.785 -3.76131 0.568285 0
M  V30 2795 H 263.097 -4.96003 0.527504 0
M  V30 2796 H 262.251 -5.83565 -1.65943 0
M  V30 2797 H 260.99 -4.57112 -1.69999 0
M  V30 2798 H 259.995 -5.48215 0.417187 0
M  V30 2799 H 261.22 -6.77668 0.440784 0
M  V30 2800 H 259.166 -6.3205 -1.75638 0
M  V30 2801 H 259.083 -7.54146 -0.529125 0
M  V30 2802 H 260.351 -7.60362 -1.71667 0
M  V30 2803 N 264.58 -0.43555 -1.51462 0
M  V30 2804 C 265.51 0.367376 -2.30592 0
M  V30 2805 C 266.491 1.02263 -1.35928 0
M  V30 2806 O 267.676 1.02661 -1.64847 0
M  V30 2807 C 264.806 1.46983 -3.14664 0
M  V30 2808 C 263.76 0.938161 -4.17591 0
M  V30 2809 C 263.086 2.13622 -4.90173 0
M  V30 2810 C 264.386 -0.0261621 -5.22293 0
M  V30 2811 H 266.08 -0.292969 -2.97963 0
M  V30 2812 H 263.626 -0.14234 -1.43295 0
M  V30 2813 H 265.579 2.03873 -3.688 0
M  V30 2814 H 264.303 2.15843 -2.4511 0
M  V30 2815 H 262.962 0.391481 -3.64504 0
M  V30 2816 H 262.61 2.81098 -4.17124 0
M  V30 2817 H 262.31 1.78688 -5.59772 0
M  V30 2818 H 263.834 2.7107 -5.47132 0
M  V30 2819 H 265.248 0.452384 -5.71512 0
M  V30 2820 H 263.645 -0.287992 -5.99409 0
M  V30 2821 H 264.715 -0.963391 -4.75233 0
M  V30 2822 N 266.058 1.56714 -0.166846 0
M  V30 2823 C 267.006 2.19056 0.782123 0
M  V30 2824 C 268 1.15328 1.24079 0
M  V30 2825 O 269.206 1.33537 1.20697 0
M  V30 2826 H 265.581 0.70167 0.270486 0
M  V30 2827 H 267.552 2.97494 0.232322 0
M  V30 2828 C 266.301 2.84206 2.00306 0
M  V30 2829 H 265.624 3.63748 1.65914 0
M  V30 2830 H 267.064 3.31302 2.64604 0
M  V30 2831 C 265.523 1.83744 2.82382 0
M  V30 2832 O 266.053 1.32014 3.79388 0
M  V30 2833 N 264.259 1.52601 2.47308 0
M  V30 2834 H 263.806 1.9486 1.68485 0
M  V30 2835 H 263.764 0.856351 3.02513 0
M  V30 2836 N 267.536 -0.106894 1.57237 0
M  V30 2837 C 268.484 -1.14944 2.02215 0
M  V30 2838 C 269.478 -1.42167 0.92114 0
M  V30 2839 O 270.684 -1.41987 1.10634 0
M  V30 2840 H 267.059 -0.387841 0.64427 0
M  V30 2841 H 269.03 -0.743683 2.88984 0
M  V30 2842 C 267.779 -2.4647 2.4525 0
M  V30 2843 H 267.102 -2.26363 3.29545 0
M  V30 2844 H 268.542 -3.17948 2.80508 0
M  V30 2845 C 267.001 -3.09921 1.321 0
M  V30 2846 O 267.531 -3.9651 0.643622 0
M  V30 2847 N 265.737 -2.69986 1.07497 0
M  V30 2848 H 265.284 -1.99667 1.62761 0
M  V30 2849 H 265.242 -3.12769 0.319876 0
M  V30 2850 N 269.014 -1.53014 -0.377408 0
M  V30 2851 C 269.944 -1.81589 -1.46791 0
M  V30 2852 C 270.925 -0.668622 -1.56408 0
M  V30 2853 O 272.11 -0.917337 -1.71168 0
M  V30 2854 C 269.24 -1.99519 -2.8427 0
M  V30 2855 C 268.194 -3.15249 -2.89486 0
M  V30 2856 C 267.52 -3.18451 -4.29527 0
M  V30 2857 C 268.82 -4.54084 -2.58079 0
M  V30 2858 H 270.514 -2.7291 -1.23127 0
M  V30 2859 H 268.06 -1.31319 -0.590883 0
M  V30 2860 H 270.013 -2.18092 -3.60575 0
M  V30 2861 H 268.737 -1.04897 -3.09296 0
M  V30 2862 H 267.396 -2.96477 -2.15631 0
M  V30 2863 H 267.044 -2.2149 -4.5161 0
M  V30 2864 H 266.744 -3.962 -4.33934 0
M  V30 2865 H 268.268 -3.39193 -5.07721 0
M  V30 2866 H 269.682 -4.72899 -3.24098 0
M  V30 2867 H 268.079 -5.33987 -2.7382 0
M  V30 2868 H 269.149 -4.60006 -1.53372 0
M  V30 2869 N 270.492 0.636531 -1.44174 0
M  V30 2870 C 271.402 1.77754 -1.53103 0
M  V30 2871 C 272.418 1.68928 -0.417034 0
M  V30 2872 O 273.594 1.89801 -0.6736 0
M  V30 2873 C 270.659 3.14115 -1.46741 0
M  V30 2874 C 269.72 3.34612 -2.68948 0
M  V30 2875 C 268.953 4.64467 -2.6288 0
M  V30 2876 O 269.176 5.44919 -1.68581 0
M  V30 2877 O 268.11 4.87049 -3.53648 0
M  V30 2878 H 271.936 1.73174 -2.49489 0
M  V30 2879 H 269.521 0.79709 -1.2636 0
M  V30 2880 H 271.403 3.95412 -1.45696 0
M  V30 2881 H 270.078 3.19249 -0.534975 0
M  V30 2882 H 268.985 2.53014 -2.75562 0
M  V30 2883 H 270.318 3.34336 -3.61221 0
M  V30 2884 N 271.97 1.30982 0.876444 0
M  V30 2885 C 272.9 1.20668 1.99903 0
M  V30 2886 C 273.881 0.095354 1.69833 0
M  V30 2887 O 275.066 0.27885 1.92188 0
M  V30 2888 C 272.196 0.90655 3.3526 0
M  V30 2889 C 271.15 1.97675 3.79617 0
M  V30 2890 C 270.476 1.52943 5.1236 0
M  V30 2891 C 271.776 3.389 3.97422 0
M  V30 2892 H 273.47 2.14586 2.0879 0
M  V30 2893 H 271.016 1.03308 1.00317 0
M  V30 2894 H 272.969 0.821025 4.13324 0
M  V30 2895 H 271.693 -0.0682969 3.26529 0
M  V30 2896 H 270.352 2.05205 3.03787 0
M  V30 2897 H 270 0.54262 5.00065 0
M  V30 2898 H 269.7 2.24532 5.43009 0
M  V30 2899 H 271.224 1.45786 5.92941 0
M  V30 2900 H 272.638 3.34081 4.659 0
M  V30 2901 H 271.035 4.0865 4.3946 0
M  V30 2902 H 272.105 3.80163 3.01006 0
M  V30 2903 N 273.449 -1.08991 1.13837 0
M  V30 2904 C 274.674 -1.85551 0.926585 0
M  V30 2905 C 275.099 -1.80782 -0.519566 0
M  V30 2906 O 274.457 -1.18855 -1.36906 0
M  V30 2907 C 274.505 -3.31266 1.42462 0
M  V30 2908 O 273.609 -4.07822 0.612789 0
M  V30 2909 H 272.95 -0.575192 0.331738 0
M  V30 2910 H 275.48 -1.37604 1.51414 0
M  V30 2911 H 275.49 -3.82112 1.43019 0
M  V30 2912 H 274.165 -3.34052 2.47754 0
M  V30 2913 H 272.742 -3.66731 0.675463 0
M  V30 2914 N 274.927 -0.932562 -1.27047 0
M  V30 2915 C 276.204 -0.49377 -1.89265 0
M  V30 2916 C 276.584 1.02833 -1.8436 0
M  V30 2917 O 275.932 1.88461 -1.29209 0
M  V30 2918 C 276.142 -1.04536 -3.32976 0
M  V30 2919 C 277.49 -1.10879 -4.09867 0
M  V30 2920 O 278.514 -0.995327 -3.42011 0
M  V30 2921 O 277.373 -1.28417 -5.31198 0
M  V30 2922 H 274.467 -0.159596 -0.811454 0
M  V30 2923 H 277.013 -1.02457 -1.3528 0
M  V30 2924 H 275.785 -2.08913 -3.30864 0
M  V30 2925 H 275.408 -0.496494 -3.94488 0
M  V30 2926 N 276.405 1.4127 -0.698611 0
M  V30 2927 C 277.315 2.34573 -0.0357891 0
M  V30 2928 C 278.331 1.56393 0.762701 0
M  V30 2929 O 279.507 1.8886 0.699564 0
M  V30 2930 C 276.572 3.35159 0.887089 0
M  V30 2931 C 275.633 4.29225 0.0804634 0
M  V30 2932 C 274.866 5.25006 0.959387 0
M  V30 2933 O 275.089 5.26314 2.19886 0
M  V30 2934 O 274.023 6.00519 0.407439 0
M  V30 2935 H 277.849 2.92838 -0.804957 0
M  V30 2936 H 275.434 1.42175 -0.458966 0
M  V30 2937 H 277.316 3.9689 1.41621 0
M  V30 2938 H 275.991 2.79333 1.6357 0
M  V30 2939 H 274.898 3.70833 -0.493328 0
M  V30 2940 H 276.231 4.88157 -0.629547 0
M  V30 2941 N 277.883 0.443576 1.51229 0
M  V30 2942 C 278.815 -0.400608 2.25672 0
M  V30 2943 C 279.828 -0.980945 1.29928 0
M  V30 2944 O 281.017 -0.874024 1.55638 0
M  V30 2945 C 278.117 -1.57304 3.00181 0
M  V30 2946 C 277.29 -1.11046 4.23069 0
M  V30 2947 C 276.349 -2.15374 4.80105 0
M  V30 2948 O 275.375 -1.74554 5.41774 0
M  V30 2949 N 276.577 -3.47922 4.64683 0
M  V30 2950 H 279.342 0.23745 2.98758 0
M  V30 2951 H 276.903 0.272809 1.59585 0
M  V30 2952 H 278.895 -2.26733 3.35223 0
M  V30 2953 H 277.465 -2.11632 2.30066 0
M  V30 2954 H 276.685 -0.243019 3.9345 0
M  V30 2955 H 277.973 -0.778888 5.02803 0
M  V30 2956 H 277.371 -3.83815 4.15575 0
M  V30 2957 H 275.928 -4.13228 5.0407 0
M  V30 2958 N 279.361 -1.56624 0.175154 0
M  V30 2959 C 280.777 -1.58571 -0.180966 0
M  V30 2960 C 280.977 -1.19065 -1.6256 0
M  V30 2961 O 280.033 -0.904044 -2.35761 0
M  V30 2962 C 281.346 -3.00522 0.103326 0
M  V30 2963 C 282.894 -3.12972 0.0418426 0
M  V30 2964 C 283.369 -4.57022 0.299175 0
M  V30 2965 N 284.86 -4.62541 0.247086 0
M  V30 2966 C 285.595 -5.71857 0.420318 0
M  V30 2967 N 285.091 -6.89717 0.652816 0
M  V30 2968 N 286.884 -5.60972 0.355957 0
M  V30 2969 H 279.035 -1.80589 1.11809 0
M  V30 2970 H 281.298 -0.837178 0.444788 0
M  V30 2971 H 281.004 -3.33916 1.10422 0
M  V30 2972 H 280.878 -3.72344 -0.603299 0
M  V30 2973 H 283.265 -2.79403 -0.949636 0
M  V30 2974 H 283.346 -2.43578 0.781238 0
M  V30 2975 H 282.99 -4.913 1.28788 0
M  V30 2976 H 282.92 -5.24579 -0.460876 0
M  V30 2977 H 285.411 -3.77829 0.0731895 0
M  V30 2978 H 285.724 -7.68911 0.774347 0
M  V30 2979 H 284.069 -6.91572 0.689476 0
M  V30 2980 H 287.26 -4.67773 0.174882 0
M  V30 2981 H 287.433 -6.46111 0.494388 0
M  V30 2982 N 280.839 0.0985539 -1.57292 0
M  V30 2983 C 281.749 1.13824 -2.05137 0
M  V30 2984 C 282.765 1.44076 -0.975604 0
M  V30 2985 O 283.941 1.54786 -1.28853 0
M  V30 2986 C 281.006 2.43969 -2.46333 0
M  V30 2987 C 280.067 2.2093 -3.68087 0
M  V30 2988 C 279.3 3.44869 -4.0731 0
M  V30 2989 O 279.523 4.52972 -3.46659 0
M  V30 2990 O 278.457 3.34661 -5.00285 0
M  V30 2991 H 282.283 0.761881 -2.93988 0
M  V30 2992 H 279.868 0.310818 -1.46131 0
M  V30 2993 H 281.75 3.20609 -2.73473 0
M  V30 2994 H 280.425 2.81038 -1.60621 0
M  V30 2995 H 279.332 1.42081 -3.46069 0
M  V30 2996 H 280.665 1.88755 -4.54568 0
M  V30 2997 N 282.317 1.53212 0.369288 0
M  V30 2998 C 283.267 1.75769 1.45222 0
M  V30 2999 C 284.251 0.612136 1.48801 0
M  V30 3000 O 285.443 0.870674 1.54105 0
M  V30 3001 C 282.572 1.94769 2.82701 0
M  V30 3002 C 281.658 3.15315 2.83615 0
M  V30 3003 N 282.049 4.37295 2.54178 0
M  V30 3004 C 280.347 3.15962 3.14776 0
M  V30 3005 C 281.048 5.19015 2.62675 0
M  V30 3006 N 280.024 4.55142 2.97232 0
M  V30 3007 H 283.826 2.67691 1.2132 0
M  V30 3008 H 281.34 1.51787 0.577438 0
M  V30 3009 H 283.337 2.09056 3.60696 0
M  V30 3010 H 281.997 1.04073 3.07569 0
M  V30 3011 H 283.008 4.65091 2.27839 0
M  V30 3012 H 279.685 2.35144 3.44983 0
M  V30 3013 H 281.075 6.26305 2.43294 0
M  V30 3014 N 283.795 -0.628877 1.44509 0
M  V30 3015 C 284.725 -1.75187 1.54376 0
M  V30 3016 C 285.706 -1.65411 0.396618 0
M  V30 3017 O 286.891 -1.84137 0.617031 0
M  V30 3018 C 284.021 -3.13725 1.48976 0
M  V30 3019 C 282.975 -3.38291 2.62189 0
M  V30 3020 C 282.301 -4.76883 2.41841 0
M  V30 3021 C 283.601 -3.30632 4.04326 0
M  V30 3022 H 285.295 -1.67187 2.48373 0
M  V30 3023 H 282.841 -0.802909 1.19538 0
M  V30 3024 H 284.794 -3.92064 1.54478 0
M  V30 3025 H 283.518 -3.22515 0.514961 0
M  V30 3026 H 282.177 -2.62334 2.56079 0
M  V30 3027 H 281.825 -4.82378 1.42548 0
M  V30 3028 H 281.525 -4.94278 3.17747 0
M  V30 3029 H 283.049 -5.57449 2.49165 0
M  V30 3030 H 284.463 -3.98873 4.11793 0
M  V30 3031 H 282.86 -3.59561 4.80454 0
M  V30 3032 H 283.93 -2.28404 4.27738 0
M  V30 3033 N 285.273 -1.31445 -0.869486 0
M  V30 3034 C 286.203 -1.21727 -1.99261 0
M  V30 3035 C 287.184 -0.104359 -1.6978 0
M  V30 3036 O 288.369 -0.289038 -1.92037 0
M  V30 3037 C 285.499 -0.924317 -3.34774 0
M  V30 3038 C 284.453 -1.99685 -3.78563 0
M  V30 3039 C 283.779 -1.55658 -5.11541 0
M  V30 3040 C 285.079 -3.41003 -3.95619 0
M  V30 3041 H 286.773 -2.1569 -2.07649 0
M  V30 3042 H 284.319 -1.03839 -0.997675 0
M  V30 3043 H 286.272 -0.842934 -4.12883 0
M  V30 3044 H 284.996 0.0509793 -3.2656 0
M  V30 3045 H 283.655 -2.06813 -3.02694 0
M  V30 3046 H 283.303 -0.569132 -4.9977 0
M  V30 3047 H 283.003 -2.27409 -5.41811 0
M  V30 3048 H 284.527 -1.48928 -5.92159 0
M  V30 3049 H 285.941 -3.36547 -4.64122 0
M  V30 3050 H 284.338 -4.10975 -4.37286 0
M  V30 3051 H 285.408 -3.81754 -2.98985 0
M  V30 3052 N 286.751 1.08385 -1.14413 0
M  V30 3053 C 287.698 2.15311 -0.831265 0
M  V30 3054 C 288.668 1.64751 0.211292 0
M  V30 3055 O 289.853 1.90627 0.0811674 0
M  V30 3056 C 286.993 3.43658 -0.315143 0
M  V30 3057 C 286.106 4.08064 -1.41802 0
M  V30 3058 C 285.241 5.24207 -0.859126 0
M  V30 3059 C 284.28 5.80554 -1.93967 0
M  V30 3060 N 283.417 6.88042 -1.39793 0
M  V30 3061 H 288.257 2.41415 -1.74708 0
M  V30 3062 H 285.794 1.18474 -0.871909 0
M  V30 3063 H 287.752 4.172 0.00230884 0
M  V30 3064 H 286.382 3.17839 0.56378 0
M  V30 3065 H 285.434 3.3228 -1.85187 0
M  V30 3066 H 286.746 4.45962 -2.23427 0
M  V30 3067 H 285.9 6.04689 -0.49359 0
M  V30 3068 H 284.639 4.87699 -0.011932 0
M  V30 3069 H 283.644 4.98725 -2.31415 0
M  V30 3070 H 284.869 6.19121 -2.79046 0
M  V30 3071 H 282.815 6.53493 -0.572919 0
M  V30 3072 H 282.732 7.24767 -2.15054 0
M  V30 3073 H 284 7.72255 -1.0603 0
M  V30 3074 N 288.23 0.939286 1.26551 0
M  V30 3075 C 289.14 0.453432 2.30176 0
M  V30 3076 C 290.156 -0.471649 1.67486 0
M  V30 3077 O 291.332 -0.35164 1.98306 0
M  V30 3078 C 288.397 -0.275326 3.45605 0
M  V30 3079 C 287.458 0.686084 4.23782 0
M  V30 3080 C 286.691 -0.00798994 5.33699 0
M  V30 3081 O 286.914 -1.22528 5.57085 0
M  V30 3082 O 285.848 0.669746 5.98162 0
M  V30 3083 H 289.674 1.31416 2.73795 0
M  V30 3084 H 287.259 0.705095 1.31715 0
M  V30 3085 H 289.141 -0.685911 4.1578 0
M  V30 3086 H 287.816 -1.11147 3.0402 0
M  V30 3087 H 286.723 1.14658 3.56096 0
M  V30 3088 H 288.056 1.48979 4.69112 0
M  V30 3089 N 289.708 -1.40897 0.706093 0
M  V30 3090 C 290.671 -2.29131 0.0562841 0
M  V30 3091 C 291.671 -1.44901 -0.697166 0
M  V30 3092 O 292.861 -1.65926 -0.530484 0
M  V30 3093 C 289.993 -3.27957 -0.93043 0
M  V30 3094 H 291.186 -2.88091 0.833284 0
M  V30 3095 H 288.739 -1.4906 0.470192 0
M  V30 3096 H 289.474 -2.73997 -1.73482 0
M  V30 3097 H 289.259 -3.90124 -0.393166 0
M  V30 3098 H 290.749 -3.94049 -1.38256 0
M  V30 3099 N 291.186 -0.45159 -1.50991 0
M  V30 3100 C 292.414 0.108334 -2.06616 0
M  V30 3101 C 292.829 1.35224 -1.31757 0
M  V30 3102 O 292.186 1.78475 -0.381174 0
M  V30 3103 C 292.237 0.41619 -3.59096 0
M  V30 3104 O 291.958 -0.778361 -4.3113 0
M  V30 3105 C 293.459 1.02523 -4.31282 0
M  V30 3106 H 290.679 0.00159995 -0.670998 0
M  V30 3107 H 293.223 -0.634771 -1.94399 0
M  V30 3108 H 291.378 1.10921 -3.71181 0
M  V30 3109 H 291.792 -0.511181 -5.22003 0
M  V30 3110 H 293.266 1.19053 -5.39009 0
M  V30 3111 H 293.743 2.01013 -3.905 0
M  V30 3112 H 294.349 0.371173 -4.23677 0
M  V30 3113 N 292.664 1.56529 -0.183458 0
M  V30 3114 C 293.941 1.88959 0.50536 0
M  V30 3115 C 294.321 1.09523 1.80466 0
M  V30 3116 O 293.669 0.19278 2.27685 0
M  V30 3117 C 293.879 3.41162 0.73547 0
M  V30 3118 C 295.227 4.11155 1.06005 0
M  V30 3119 O 296.251 3.46548 0.823594 0
M  V30 3120 O 295.11 5.25318 1.50675 0
M  V30 3121 H 292.204 0.78441 0.261973 0
M  V30 3122 H 294.75 1.68231 -0.222802 0
M  V30 3123 H 293.522 3.90874 -0.182561 0
M  V30 3124 H 293.145 3.67543 1.51651 0
M  V30 3125 N 294.142 -0.090211 1.57342 0
M  V30 3126 C 295.105 -1.09335 2.01441 0
M  V30 3127 C 296.105 -1.32666 0.908641 0
M  V30 3128 O 297.295 -1.28697 1.174 0
M  V30 3129 C 294.427 -2.44136 2.3793 0
M  V30 3130 H 295.62 -0.713662 2.91285 0
M  V30 3131 H 293.173 -0.335404 1.52659 0
M  V30 3132 H 293.908 -2.86972 1.51055 0
M  V30 3133 H 293.693 -2.28548 3.18603 0
M  V30 3134 H 295.183 -3.16277 2.72688 0
M  V30 3135 N 295.62 -1.53406 -0.361157 0
M  V30 3136 C 296.867 -1.69802 -1.10333 0
M  V30 3137 C 297.195 -0.452087 -1.89173 0
M  V30 3138 O 296.45 0.566017 -1.87336 0
M  V30 3139 C 296.749 -2.90211 -2.08596 0
M  V30 3140 C 296.415 -4.26539 -1.46203 0
M  V30 3141 C 295.077 -4.6361 -1.28915 0
M  V30 3142 C 297.429 -5.113 -1.01101 0
M  V30 3143 C 294.757 -5.83075 -0.651157 0
M  V30 3144 C 297.109 -6.31415 -0.387007 0
M  V30 3145 C 295.773 -6.67195 -0.201657 0
M  V30 3146 H 295.043 -0.621351 -0.403737 0
M  V30 3147 H 297.69 -1.87598 -0.384609 0
M  V30 3148 H 295.995 -2.66946 -2.86788 0
M  V30 3149 H 297.692 -3.00091 -2.65982 0
M  V30 3150 H 294.282 -3.97352 -1.60653 0
M  V30 3151 H 298.466 -4.83206 -1.13249 0
M  V30 3152 H 293.722 -6.09385 -0.496006 0
M  V30 3153 H 297.896 -6.96394 -0.0293563 0
M  V30 3154 H 295.523 -7.59628 0.294766 0
M  V30 3155 N 297.098 0.621204 -1.44841 0
M  V30 3156 C 298.344 1.3826 -1.48365 0
M  V30 3157 C 298.677 1.93831 -0.119624 0
M  V30 3158 O 297.952 1.74251 0.864111 0
M  V30 3159 C 298.235 2.54058 -2.55199 0
M  V30 3160 C 298.088 2.03772 -4.00995 0
M  V30 3161 C 299.407 3.56225 -2.58442 0
M  V30 3162 H 296.526 0.501374 -0.540179 0
M  V30 3163 H 299.168 0.7015 -1.76576 0
M  V30 3164 H 297.318 3.12162 -2.31274 0
M  V30 3165 H 298.99 1.50423 -4.36086 0
M  V30 3166 H 297.233 1.34876 -4.12299 0
M  V30 3167 H 297.904 2.87185 -4.71411 0
M  V30 3168 H 300.38 3.07939 -2.79844 0
M  V30 3169 H 299.256 4.34756 -3.3508 0
M  V30 3170 H 299.517 4.10949 -1.63013 0
M  V30 3171 N 298.576 1.31904 0.862503 0
M  V30 3172 C 299.823 1.22017 1.61611 0
M  V30 3173 C 300.151 -0.21991 1.93253 0
M  V30 3174 O 299.406 -1.17076 1.56817 0
M  V30 3175 C 299.705 2.01713 2.95037 0
M  V30 3176 C 299.371 3.51145 2.82857 0
M  V30 3177 C 298.033 3.91889 2.79243 0
M  V30 3178 C 300.385 4.46204 2.69353 0
M  V30 3179 C 297.713 5.25947 2.59993 0
M  V30 3180 C 300.065 5.80397 2.5164 0
M  V30 3181 C 298.729 6.20352 2.46413 0
M  V30 3182 H 297.999 0.44649 0.591378 0
M  V30 3183 H 300.646 1.63248 1.00111 0
M  V30 3184 H 298.951 1.53185 3.60613 0
M  V30 3185 H 300.648 1.91437 3.52353 0
M  V30 3186 H 297.238 3.1878 2.86491 0
M  V30 3187 H 301.422 4.15652 2.71196 0
M  V30 3188 H 296.678 5.5597 2.54376 0
M  V30 3189 H 300.852 6.53676 2.40169 0
M  V30 3190 H 298.479 7.24172 2.31256 0
M  V30 3191 N 300.054 -1.07777 1.14986 0
M  V30 3192 C 301.002 -2.16964 0.838406 0
M  V30 3193 C 301.996 -1.68372 -0.186386 0
M  V30 3194 O 303.202 -1.79951 -0.0418465 0
M  V30 3195 H 299.577 -0.708006 0.253439 0
M  V30 3196 H 301.548 -2.40454 1.76704 0
M  V30 3197 C 300.297 -3.4604 0.339335 0
M  V30 3198 H 299.62 -3.83813 1.11927 0
M  V30 3199 H 301.06 -4.23698 0.160021 0
M  V30 3200 C 299.519 -3.23569 -0.938325 0
M  V30 3201 O 300.049 -3.47752 -2.01077 0
M  V30 3202 N 298.255 -2.77079 -0.876117 0
M  V30 3203 H 297.802 -2.576 -0.00322037 0
M  V30 3204 H 297.76 -2.62422 -1.73153 0
M  V30 3205 N 301.532 -0.945985 -1.26051 0
M  V30 3206 C 302.482 -0.430164 -2.23905 0
M  V30 3207 C 303.466 0.47579 -1.53704 0
M  V30 3208 O 304.658 0.310252 -1.7426 0
M  V30 3209 C 301.787 0.298957 -3.41996 0
M  V30 3210 C 300.873 -0.624566 -4.19476 0
M  V30 3211 N 301.264 -1.75245 -4.74471 0
M  V30 3212 C 299.562 -0.431082 -4.43912 0
M  V30 3213 C 300.263 -2.32834 -5.3307 0
M  V30 3214 N 299.239 -1.61583 -5.1903 0
M  V30 3215 H 303.041 -1.29107 -2.64024 0
M  V30 3216 H 300.555 -0.802428 -1.41191 0
M  V30 3217 H 302.552 0.685565 -4.11225 0
M  V30 3218 H 301.212 1.15657 -3.03403 0
M  V30 3219 H 302.223 -2.13449 -4.71868 0
M  V30 3220 H 298.9 0.384364 -4.15727 0
M  V30 3221 H 300.29 -3.27893 -5.86461 0
M  V30 3222 N 303.011 1.40521 -0.713556 0
M  V30 3223 C 303.943 2.29191 -0.0203126 0
M  V30 3224 C 304.956 1.45723 0.725864 0
M  V30 3225 O 306.145 1.69033 0.573581 0
M  V30 3226 C 303.245 3.2395 0.995486 0
M  V30 3227 C 302.418 4.36262 0.315256 0
M  V30 3228 C 301.477 5.11474 1.23616 0
M  V30 3229 O 300.503 5.64606 0.721719 0
M  V30 3230 N 301.705 5.20638 2.56743 0
M  V30 3231 H 304.47 2.89327 -0.781652 0
M  V30 3232 H 302.031 1.51869 -0.561022 0
M  V30 3233 H 304.023 3.71137 1.61368 0
M  V30 3234 H 302.593 2.64995 1.6582 0
M  V30 3235 H 301.813 3.91228 -0.483106 0
M  V30 3236 H 303.101 5.08558 -0.157004 0
M  V30 3237 H 302.499 4.7895 3.01037 0
M  V30 3238 H 301.056 5.71339 3.13712 0
M  V30 3239 N 304.489 0.459591 1.5075 0
M  V30 3240 C 305.735 -0.0994966 2.02556 0
M  V30 3241 C 306.068 -1.40399 1.3417 0
M  V30 3242 O 305.343 -1.88892 0.463683 0
M  V30 3243 C 305.626 -0.295242 3.58888 0
M  V30 3244 C 305.479 1.02947 4.37861 0
M  V30 3245 C 306.798 -1.05502 4.27267 0
M  V30 3246 H 303.917 -0.034686 0.736183 0
M  V30 3247 H 306.559 0.602938 1.8018 0
M  V30 3248 H 304.709 -0.893563 3.78084 0
M  V30 3249 H 306.381 1.66348 4.30263 0
M  V30 3250 H 304.624 1.62885 4.02058 0
M  V30 3251 H 305.295 0.846281 5.45474 0
M  V30 3252 H 307.771 -0.547993 4.12476 0
M  V30 3253 H 306.647 -1.16077 5.36486 0
M  V30 3254 H 306.908 -2.08875 3.89645 0
M  V30 3255 N 305.967 -1.56429 0.191757 0
M  V30 3256 C 307.214 -1.97485 -0.447891 0
M  V30 3257 C 307.542 -1.07852 -1.61859 0
M  V30 3258 O 306.797 -0.116903 -1.95351 0
M  V30 3259 C 307.096 -3.44449 -0.953384 0
M  V30 3260 C 306.762 -4.50781 0.103586 0
M  V30 3261 C 305.424 -4.79584 0.394023 0
M  V30 3262 C 307.776 -5.1471 0.819946 0
M  V30 3263 C 305.104 -5.69607 1.40585 0
M  V30 3264 C 307.456 -6.05827 1.8209 0
M  V30 3265 C 306.12 -6.32987 2.11857 0
M  V30 3266 H 305.39 -0.722648 -0.163895 0
M  V30 3267 H 308.037 -1.89322 0.28802 0
M  V30 3268 H 306.342 -3.49666 -1.76751 0
M  V30 3269 H 308.039 -3.73569 -1.45765 0
M  V30 3270 H 304.629 -4.28394 -0.132951 0
M  V30 3271 H 308.813 -4.92552 0.608789 0
M  V30 3272 H 304.069 -5.88926 1.64243 0
M  V30 3273 H 308.243 -6.54424 2.38123 0
M  V30 3274 H 305.87 -7.02544 2.90407 0
M  V30 3275 N 307.445 0.0818655 -1.57387 0
M  V30 3276 C 308.408 1.08265 -2.02018 0
M  V30 3277 C 309.408 1.32183 -0.915664 0
M  V30 3278 O 310.598 1.28073 -1.18081 0
M  V30 3279 C 307.73 2.42871 -2.39221 0
M  V30 3280 H 308.923 0.698204 -2.91659 0
M  V30 3281 H 306.476 0.327303 -1.52835 0
M  V30 3282 H 307.211 2.86167 -1.52575 0
M  V30 3283 H 306.996 2.26855 -3.19811 0
M  V30 3284 H 308.486 3.14826 -2.74362 0
M  V30 3285 N 308.923 1.53595 0.353017 0
M  V30 3286 C 310.2 1.61002 1.11075 0
M  V30 3287 C 310.58 0.425356 2.0677 0
M  V30 3288 O 309.928 -0.583267 2.2093 0
M  V30 3289 C 310.138 2.96631 1.83877 0
M  V30 3290 C 311.486 3.51653 2.37961 0
M  V30 3291 O 312.51 2.98743 1.93987 0
M  V30 3292 O 311.369 4.44177 3.18386 0
M  V30 3293 H 308.463 0.650825 0.510251 0
M  V30 3294 H 311.009 1.6594 0.35527 0
M  V30 3295 H 309.781 3.74293 1.14108 0
M  V30 3296 H 309.404 2.95242 2.66304 0
M  V30 3297 N 310.401 -0.613514 1.45168 0
M  V30 3298 C 311.331 -1.7354 1.56225 0
M  V30 3299 C 312.312 -1.64981 0.41414 0
M  V30 3300 O 313.497 -1.83472 0.636526 0
M  V30 3301 C 310.627 -3.12128 1.52295 0
M  V30 3302 C 309.581 -3.35491 2.65762 0
M  V30 3303 C 308.907 -4.74291 2.46885 0
M  V30 3304 C 310.207 -3.26325 4.0781 0
M  V30 3305 H 311.901 -1.64543 2.50132 0
M  V30 3306 H 309.447 -0.790185 1.20383 0
M  V30 3307 H 311.4 -3.90404 1.58628 0
M  V30 3308 H 310.124 -3.2195 0.549139 0
M  V30 3309 H 308.783 -2.59603 2.58847 0
M  V30 3310 H 308.431 -4.80839 1.47657 0
M  V30 3311 H 308.131 -4.9088 3.22972 0
M  V30 3312 H 309.655 -5.54775 2.55063 0
M  V30 3313 H 311.069 -3.94483 4.16 0
M  V30 3314 H 309.466 -3.54445 4.8424 0
M  V30 3315 H 310.536 -2.23855 4.30136 0
M  V30 3316 N 311.879 -1.3236 -0.855495 0
M  V30 3317 C 313.127 -1.22629 -1.60644 0
M  V30 3318 C 313.448 0.212136 -1.93843 0
M  V30 3319 O 312.718 1.13666 -1.59552 0
M  V30 3320 H 311.298 -0.450882 -0.595579 0
M  V30 3321 H 313.96 -1.65871 -1.02337 0
M  V30 3322 H 313.056 -1.80832 -2.54374 0
M  V30 3323 N 313.357 1.07166 -1.15556 0
M  V30 3324 C 314.304 2.14417 -0.854055 0
M  V30 3325 C 315.274 1.64965 0.193806 0
M  V30 3326 O 316.459 1.90703 0.0609443 0
M  V30 3327 C 313.599 3.43304 -0.351574 0
M  V30 3328 C 312.712 4.06537 -1.46123 0
M  V30 3329 C 311.847 5.23266 -0.914677 0
M  V30 3330 C 310.886 5.78464 -2.00114 0
M  V30 3331 N 310.023 6.86521 -1.47083 0
M  V30 3332 H 314.863 2.39548 -1.77259 0
M  V30 3333 H 312.4 1.17543 -0.884425 0
M  V30 3334 H 314.358 4.17179 -0.0419409 0
M  V30 3335 H 312.988 3.18419 0.530037 0
M  V30 3336 H 312.04 3.30297 -1.88701 0
M  V30 3337 H 313.352 4.43567 -2.28144 0
M  V30 3338 H 312.506 6.04131 -0.557698 0
M  V30 3339 H 311.245 4.87658 -0.0636583 0
M  V30 3340 H 310.25 4.96243 -2.36692 0
M  V30 3341 H 311.475 6.16126 -2.85597 0
M  V30 3342 H 309.421 6.52849 -0.642198 0
M  V30 3343 H 309.338 7.22446 -2.22729 0
M  V30 3344 H 310.606 7.71087 -1.14215 0
M  V30 3345 N 314.835 0.952656 1.25548 0
M  V30 3346 C 316.083 0.605176 1.92826 0
M  V30 3347 C 316.404 -0.860261 1.74999 0
M  V30 3348 O 315.674 -1.6125 1.11244 0
M  V30 3349 H 314.254 0.220832 0.713612 0
M  V30 3350 H 316.916 1.21047 1.52754 0
M  V30 3351 H 316.012 0.832798 3.00784 0
M  V30 3352 N 316.313 -1.40141 0.720998 0
M  V30 3353 C 317.243 -2.33339 0.0867621 0
M  V30 3354 C 318.224 -1.53178 -0.739622 0
M  V30 3355 O 319.409 -1.81625 -0.687449 0
M  V30 3356 C 316.539 -3.37194 -0.831728 0
M  V30 3357 C 315.493 -4.27857 -0.110558 0
M  V30 3358 C 314.819 -5.22294 -1.14513 0
M  V30 3359 C 316.119 -5.11872 1.0385 0
M  V30 3360 H 317.813 -2.86626 0.865219 0
M  V30 3361 H 315.359 -1.37814 0.417516 0
M  V30 3362 H 317.312 -4.01335 -1.28485 0
M  V30 3363 H 316.036 -2.82314 -1.64214 0
M  V30 3364 H 314.695 -3.65176 0.322797 0
M  V30 3365 H 314.343 -4.63717 -1.94874 0
M  V30 3366 H 314.043 -5.83797 -0.667446 0
M  V30 3367 H 315.567 -5.89312 -1.59824 0
M  V30 3368 H 316.981 -5.69436 0.664482 0
M  V30 3369 H 315.378 -5.82445 1.4449 0
M  V30 3370 H 316.448 -4.4753 1.86668 0
M  V30 3371 O 317.83 -0.609464 -1.49559 0
M  V30 3372 H 318.521 -0.121877 -1.93316 0
M  V30 END ATOM
M  V30 BEGIN BOND
M  V30 END BOND
M  V30 END CTAB
M  END
$$$$
