drugbank_target|Q55013 Cytochrome c-550 (DB03317)
 OpenBabel12092120273D

  0  0  0     0  0            999 V3000
M  V30 BEGIN CTAB
M  V30 COUNTS 2485 2511 0 0 0
M  V30 BEGIN ATOM
M  V30 1 H -0.908 1.98254 -0.117106 0
M  V30 2 N 0 1.576 0 0
M  V30 3 C 0.933 2.03868 1.02534 0
M  V30 4 C 1.911 0.928543 1.3348 0
M  V30 5 O 3.095 1.19667 1.45644 0
M  V30 6 C 0.222 2.43627 2.35294 0
M  V30 7 C -0.732 3.65373 2.2001 0
M  V30 8 S 0.101 5.13292 1.52614 0
M  V30 9 C 1.257 5.56322 2.86805 0
M  V30 10 H 1.49 2.90518 0.631377 0
M  V30 11 H -0.977 1.52953 0.210867 0
M  V30 12 H 0.981 2.67203 3.11629 0
M  V30 13 H -0.358 1.57376 2.7183 0
M  V30 14 H -1.165 3.90944 3.18086 0
M  V30 15 H -1.563 3.418 1.51819 0
M  V30 16 H 0.729 5.58782 3.83104 0
M  V30 17 H 1.672 6.56266 2.65933 0
M  V30 18 H 2.08 4.83886 2.90714 0
M  V30 19 N 1.4781 -0.272755 1.55222 0
M  V30 20 C 2.4251 -1.33716 1.88119 0
M  V30 21 C 3.3951 -1.49066 0.73271 0
M  V30 22 O 4.5801 -1.63469 0.984002 0
M  V30 23 C 1.7201 -2.69238 2.15882 0
M  V30 24 C 0.8331 -2.62108 3.43399 0
M  V30 25 C -0.0319 -3.89811 3.60861 0
M  V30 26 C -0.9929 -3.77193 4.8207 0
M  V30 27 N -1.8559 -4.9673 4.96189 0
M  V30 28 H 2.9841 -1.04962 2.78903 0
M  V30 29 H 0.5211 -0.507088 1.38083 0
M  V30 30 H 2.4791 -3.48089 2.29978 0
M  V30 31 H 1.1091 -2.96194 1.28331 0
M  V30 32 H 0.1611 -1.74967 3.37773 0
M  V30 33 H 1.4731 -2.48685 4.32386 0
M  V30 34 H 0.6271 -4.77103 3.74777 0
M  V30 35 H -0.6339 -4.06102 2.7006 0
M  V30 36 H -1.6289 -2.88284 4.68159 0
M  V30 37 H -0.4039 -3.62421 5.74307 0
M  V30 38 H -2.4579 -5.13431 4.08319 0
M  V30 39 H -2.5409 -4.85839 5.79221 0
M  V30 40 H -1.2729 -5.85594 5.1449 0
M  V30 41 N 2.9562 -1.48159 -0.537278 0
M  V30 42 C 4.3722 -1.34118 -0.865129 0
M  V30 43 C 4.5722 -0.346678 -1.98495 0
M  V30 44 O 3.6282 0.234715 -2.51407 0
M  V30 45 C 4.9412 -2.73963 -1.23954 0
M  V30 46 C 6.4892 -2.82397 -1.34984 0
M  V30 47 C 6.9642 -4.22928 -1.75772 0
M  V30 48 N 8.4552 -4.25566 -1.82887 0
M  V30 49 C 9.1902 -5.31235 -2.15817 0
M  V30 50 N 8.6862 -6.47189 -2.47222 0
M  V30 51 N 10.4792 -5.18624 -2.16761 0
M  V30 52 H 2.6302 -2.1144 0.201715 0
M  V30 53 H 4.8932 -0.947598 0.0275949 0
M  V30 54 H 4.5992 -3.48264 -0.490381 0
M  V30 55 H 4.4732 -3.0702 -2.19132 0
M  V30 56 H 6.8602 -2.08356 -2.08978 0
M  V30 57 H 6.9412 -2.5297 -0.379448 0
M  V30 58 H 6.5852 -4.97482 -1.02341 0
M  V30 59 H 6.5152 -4.49794 -2.73848 0
M  V30 60 H 9.0062 -3.41924 -1.60924 0
M  V30 61 H 9.3192 -7.23564 -2.71433 0
M  V30 62 H 7.6642 -6.50476 -2.44757 0
M  V30 63 H 10.8552 -4.27056 -1.91679 0
M  V30 64 H 11.0282 -6.01078 -2.42093 0
M  V30 65 N 4.4343 0.785586 -1.36625 0
M  V30 66 C 5.6813 1.54362 -1.31067 0
M  V30 67 C 6.0093 1.94195 0.10893 0
M  V30 68 O 5.2643 1.63262 1.07908 0
M  V30 69 C 5.5633 2.83007 -2.1827 0
M  V30 70 C 5.2293 2.62294 -3.6676 0
M  V30 71 C 3.8913 2.56353 -4.0723 0
M  V30 72 C 6.2433 2.43371 -4.6089 0
M  V30 73 C 3.5713 2.29461 -5.39967 0
M  V30 74 C 5.9233 2.18005 -5.93849 0
M  V30 75 C 4.5873 2.105 -6.3344 0
M  V30 76 H 3.8573 0.564851 -0.479609 0
M  V30 77 H 6.5043 0.906028 -1.68711 0
M  V30 78 H 4.8093 3.51253 -1.73576 0
M  V30 79 H 6.5063 3.40817 -2.11292 0
M  V30 80 H 3.0963 2.67774 -3.34656 0
M  V30 81 H 7.2803 2.46959 -4.30494 0
M  V30 82 H 2.5363 2.22135 -5.69619 0
M  V30 83 H 6.7103 2.02359 -6.66351 0
M  V30 84 H 4.3373 1.89425 -7.36222 0
M  V30 85 N 5.9124 1.20967 1.01018 0
M  V30 86 C 7.1594 1.02374 1.74716 0
M  V30 87 C 7.4874 -0.443375 1.89379 0
M  V30 88 O 6.7424 -1.34535 1.42123 0
M  V30 89 C 7.0414 1.65997 3.16512 0
M  V30 90 C 6.7074 3.15831 3.2181 0
M  V30 91 C 5.3694 3.56719 3.22963 0
M  V30 92 C 7.7214 4.11816 3.19464 0
M  V30 93 C 5.0494 4.92107 3.19449 0
M  V30 94 C 7.4014 5.47158 3.17491 0
M  V30 95 C 6.0654 5.87451 3.16951 0
M  V30 96 H 5.3354 0.374614 0.639332 0
M  V30 97 H 7.9824 1.50485 1.18434 0
M  V30 98 H 6.2874 1.10166 3.75993 0
M  V30 99 H 7.9844 1.49119 3.72242 0
M  V30 100 H 4.5744 2.83263 3.21652 0
M  V30 101 H 8.7584 3.81257 3.17737 0
M  V30 102 H 4.0144 5.22579 3.17366 0
M  V30 103 H 8.1884 6.21274 3.14629 0
M  V30 104 H 5.8154 6.92329 3.13983 0
M  V30 105 N 7.3905 -1.2043 1.01659 0
M  V30 106 C 8.3205 -2.25466 0.607226 0
M  V30 107 C 9.3015 -1.65853 -0.377716 0
M  V30 108 O 10.4865 -1.92409 -0.263149 0
M  V30 109 C 7.6165 -3.47256 -0.0552949 0
M  V30 110 C 6.5705 -4.19462 0.850632 0
M  V30 111 C 5.8965 -5.34673 0.0538859 0
M  V30 112 C 7.1965 -4.75603 2.15868 0
M  V30 113 H 8.8905 -2.59962 1.48526 0
M  V30 114 H 6.4365 -1.2496 0.715605 0
M  V30 115 H 8.3895 -4.19917 -0.353233 0
M  V30 116 H 7.1135 -3.11924 -0.968045 0
M  V30 117 H 5.7725 -3.48667 1.13257 0
M  V30 118 H 5.4205 -4.95585 -0.860514 0
M  V30 119 H 5.1205 -5.83913 0.657192 0
M  V30 120 H 6.6445 -6.10138 -0.237598 0
M  V30 121 H 8.0585 -5.40083 1.92311 0
M  V30 122 H 6.4555 -5.3528 2.71284 0
M  V30 123 H 7.5255 -3.94346 2.82169 0
M  V30 124 N 8.8686 -0.792821 -1.36206 0
M  V30 125 C 10.1146 -0.36733 -1.99446 0
M  V30 126 C 10.4476 1.05917 -1.62774 0
M  V30 127 O 9.7226 1.7324 -0.88421 0
M  V30 128 C 10.0056 -0.535044 -3.56103 0
M  V30 129 C 9.8586 -2.00548 -4.02617 0
M  V30 130 C 11.1776 0.0478191 -4.40074 0
M  V30 131 H 8.2966 -0.134941 -0.724541 0
M  V30 132 H 10.9386 -0.999794 -1.61568 0
M  V30 133 H 9.0886 0.00336329 -3.885 0
M  V30 134 H 10.7606 -2.60521 -3.80692 0
M  V30 135 H 9.0036 -2.50686 -3.54032 0
M  V30 136 H 9.6746 -2.07377 -5.11565 0
M  V30 137 H 12.1506 -0.411822 -4.14057 0
M  V30 138 H 11.0266 -0.0995336 -5.4881 0
M  V30 139 H 11.2876 1.14025 -4.27142 0
M  V30 140 N 10.3467 1.47872 -0.545128 0
M  V30 141 C 11.3097 2.28337 0.198717 0
M  V30 142 C 12.3097 1.36255 0.853888 0
M  V30 143 O 13.4997 1.59003 0.711606 0
M  V30 144 C 10.6317 3.15585 1.28915 0
M  V30 145 H 11.8247 2.95567 -0.507941 0
M  V30 146 H 9.3777 1.53362 -0.301616 0
M  V30 147 H 10.1127 2.53019 2.02859 0
M  V30 148 H 9.8977 3.83337 0.824309 0
M  V30 149 H 11.3877 3.76243 1.81194 0
M  V30 150 N 11.8248 0.280983 1.55075 0
M  V30 151 C 13.0738 -0.334784 1.98902 0
M  V30 152 C 13.3868 -1.56534 1.17288 0
M  V30 153 O 14.5928 -2.25443 1.51287 0
M  V30 154 C 13.0488 -0.646994 3.54037 0
M  V30 155 C 12.6568 0.564085 4.44435 0
M  V30 156 C 14.4008 -1.22506 4.06439 0
M  V30 157 C 12.3078 0.226137 5.90967 0
M  V30 158 H 11.2378 -0.128866 0.742906 0
M  V30 159 H 13.8888 0.386556 1.79382 0
M  V30 160 H 12.2708 -1.42739 3.6938 0
M  V30 161 H 13.4448 1.34082 4.40861 0
M  V30 162 H 11.7598 1.0594 4.02698 0
M  V30 163 H 14.3568 -1.49182 5.13468 0
M  V30 164 H 14.6998 -2.16085 3.55827 0
M  V30 165 H 15.2328 -0.50682 3.94558 0
M  V30 166 H 11.9718 1.12996 6.45687 0
M  V30 167 H 11.4918 -0.513717 5.97596 0
M  V30 168 H 13.1708 -0.179539 6.46751 0
M  V30 169 N 13.3029 -1.57598 0.00835791 0
M  V30 170 C 14.2659 -2.07884 -0.965242 0
M  V30 171 C 15.2659 -0.989825 -1.26725 0
M  V30 172 O 16.4559 -1.25218 -1.21104 0
M  V30 173 C 13.5879 -2.52731 -2.28779 0
M  V30 174 H 14.7809 -2.95178 -0.530112 0
M  V30 175 H 12.3339 -1.54458 -0.239283 0
M  V30 176 H 13.0689 -1.68705 -2.76964 0
M  V30 177 H 12.8539 -3.32272 -2.08177 0
M  V30 178 H 14.3439 -2.91933 -2.98605 0
M  V30 179 N 14.781 0.264519 -1.55364 0
M  V30 180 C 16.006 1.01726 -1.80739 0
M  V30 181 C 16.431 1.78836 -0.583044 0
M  V30 182 O 15.789 1.75167 0.467566 0
M  V30 183 C 15.837 1.94482 -3.03659 0
M  V30 184 O 14.941 3.03386 -2.7934 0
M  V30 185 H 14.282 0.290395 -0.597132 0
M  V30 186 H 16.812 0.290854 -2.02522 0
M  V30 187 H 16.822 2.36278 -3.32621 0
M  V30 188 H 15.497 1.37772 -3.92418 0
M  V30 189 H 14.074 2.65844 -2.61498 0
M  V30 190 N 16.2591 1.48442 0.529413 0
M  V30 191 C 17.5051 1.5672 1.28711 0
M  V30 192 C 17.8381 0.2406 1.92704 0
M  V30 193 O 17.1131 -0.753454 1.79313 0
M  V30 194 C 17.3961 2.70587 2.37603 0
M  V30 195 C 17.2491 4.12953 1.78297 0
M  V30 196 C 18.5681 2.80212 3.39366 0
M  V30 197 H 15.6871 0.570474 0.466613 0
M  V30 198 H 18.3291 1.80617 0.589706 0
M  V30 199 H 16.4791 2.50342 2.97088 0
M  V30 200 H 18.1511 4.44639 1.22858 0
M  V30 201 H 16.3941 4.19927 1.0883 0
M  V30 202 H 17.0651 4.88448 2.57144 0
M  V30 203 H 19.5411 2.98553 2.89836 0
M  V30 204 H 18.4171 3.61611 4.12951 0
M  V30 205 H 18.6781 1.88393 3.99951 0
M  V30 206 N 17.7372 -0.778329 1.37039 0
M  V30 207 C 18.6672 -1.90546 1.34962 0
M  V30 208 C 19.6482 -1.68681 0.219274 0
M  V30 209 O 20.8332 -1.89634 0.418624 0
M  V30 210 C 17.9632 -3.27734 1.14925 0
M  V30 211 C 16.9172 -3.64147 2.24902 0
M  V30 212 C 16.2432 -4.99806 1.89996 0
M  V30 213 C 17.5432 -3.71579 3.67051 0
M  V30 214 H 19.2372 -1.92541 2.29277 0
M  V30 215 H 16.7832 -0.924948 1.10366 0
M  V30 216 H 18.7362 -4.06215 1.12104 0
M  V30 217 H 17.4602 -3.26154 0.170631 0
M  V30 218 H 16.1192 -2.8797 2.26868 0
M  V30 219 H 15.7672 -4.94759 0.906796 0
M  V30 220 H 15.4672 -5.25139 2.63634 0
M  V30 221 H 16.9912 -5.80694 1.88749 0
M  V30 222 H 18.4052 -4.40227 3.67251 0
M  V30 223 H 16.8022 -4.08405 4.39688 0
M  V30 224 H 17.8722 -2.72404 4.01154 0
M  V30 225 N 19.2153 -1.21501 -1.00376 0
M  V30 226 C 20.4623 -1.03299 -1.74171 0
M  V30 227 C 20.7903 0.433326 -1.89612 0
M  V30 228 O 20.0453 1.33779 -1.42834 0
M  V30 229 C 20.3443 -1.67673 -3.15627 0
M  V30 230 C 20.0103 -3.17533 -3.2013 0
M  V30 231 C 18.6723 -3.58427 -3.21067 0
M  V30 232 C 21.0243 -4.13504 -3.17275 0
M  V30 233 C 18.3523 -4.93794 -3.16835 0
M  V30 234 C 20.7043 -5.48834 -3.14585 0
M  V30 235 C 19.3683 -5.89123 -3.13831 0
M  V30 236 H 18.6383 -0.377999 -0.637336 0
M  V30 237 H 21.2853 -1.51111 -1.17634 0
M  V30 238 H 19.5903 -1.12158 -3.75404 0
M  V30 239 H 21.2873 -1.51091 -3.71446 0
M  V30 240 H 17.8773 -2.84965 -3.20145 0
M  V30 241 H 22.0613 -3.82936 -3.15711 0
M  V30 242 H 17.3173 -5.24255 -3.1459 0
M  V30 243 H 21.4913 -6.22934 -3.1133 0
M  V30 244 H 19.1183 -6.93984 -3.10307 0
M  V30 245 N 20.6934 1.19889 -1.02296 0
M  V30 246 C 21.9404 1.8942 -0.715972 0
M  V30 247 C 22.2684 1.79251 0.754944 0
M  V30 248 O 21.5234 1.17526 1.56481 0
M  V30 249 C 21.8224 3.39883 -1.10518 0
M  V30 250 C 21.4884 3.70254 -2.57337 0
M  V30 251 C 20.1504 3.78254 -2.97452 0
M  V30 252 C 22.5024 3.84052 -3.52354 0
M  V30 253 C 19.8304 3.97514 -4.31509 0
M  V30 254 C 22.1824 4.04824 -4.86108 0
M  V30 255 C 20.8464 4.11054 -5.25919 0
M  V30 256 H 20.1164 0.693138 -0.261993 0
M  V30 257 H 22.7634 1.42012 -1.28472 0
M  V30 258 H 21.0684 3.8915 -0.454953 0
M  V30 259 H 22.7654 3.9199 -0.845261 0
M  V30 260 H 19.3554 3.64632 -2.25258 0
M  V30 261 H 23.5394 3.77221 -3.22518 0
M  V30 262 H 18.7954 4.00574 -4.61898 0
M  V30 263 H 22.9694 4.14442 -5.59653 0
M  V30 264 H 20.5964 4.2573 -6.29808 0
M  V30 265 N 22.1715 0.800033 1.35784 0
M  V30 266 C 23.4185 0.377342 1.98953 0
M  V30 267 C 23.7465 -1.05378 1.6348 0
M  V30 268 O 23.0015 -1.74459 0.886707 0
M  V30 269 C 23.3005 0.500276 3.53881 0
M  V30 270 C 22.9665 1.89375 4.09204 0
M  V30 271 C 21.6285 2.27499 4.24025 0
M  V30 272 C 23.9805 2.8057 4.39238 0
M  V30 273 C 21.3085 3.562 4.66195 0
M  V30 274 C 23.6605 4.0871 4.82844 0
M  V30 275 C 22.3245 4.46843 4.95871 0
M  V30 276 H 21.5945 0.138079 0.728021 0
M  V30 277 H 24.2415 1.01955 1.62103 0
M  V30 278 H 22.5465 -0.225405 3.91151 0
M  V30 279 H 24.2435 0.154097 4.00704 0
M  V30 280 H 20.8335 1.58753 3.98115 0
M  V30 281 H 25.0175 2.52367 4.27346 0
M  V30 282 H 20.2735 3.85602 4.74469 0
M  V30 283 H 24.4475 4.79481 5.05046 0
M  V30 284 H 22.0745 5.46623 5.28306 0
M  V30 285 N 23.6496 -1.47581 0.552962 0
M  V30 286 C 24.5976 -2.31648 -0.21023 0
M  V30 287 C 25.5916 -1.42663 -0.913432 0
M  V30 288 O 26.7976 -1.5945 -0.835201 0
M  V30 289 H 23.1726 -0.746989 -0.0866676 0
M  V30 290 H 25.1436 -2.93869 0.518051 0
M  V30 291 C 23.8926 -3.25226 -1.22976 0
M  V30 292 H 23.2156 -3.93658 -0.698077 0
M  V30 293 H 24.6556 -3.86889 -1.73473 0
M  V30 294 C 23.1146 -2.48448 -2.27542 0
M  V30 295 O 23.6446 -2.22585 -3.34393 0
M  V30 296 N 21.8506 -2.09532 -2.01357 0
M  V30 297 H 21.3976 -2.30765 -1.14478 0
M  V30 298 H 21.3556 -1.58476 -2.71538 0
M  V30 299 N 25.1277 -0.289203 -1.54924 0
M  V30 300 C 26.3557 0.326463 -2.04308 0
M  V30 301 C 26.7707 1.48413 -1.16701 0
M  V30 302 O 26.1277 1.81507 -0.190087 0
M  V30 303 C 26.1787 0.794014 -3.52672 0
M  V30 304 O 25.8997 -0.317564 -4.36948 0
M  V30 305 C 27.4007 1.47605 -4.18004 0
M  V30 306 H 24.6207 0.0726272 -0.667058 0
M  V30 307 H 27.1647 -0.425401 -2.00026 0
M  V30 308 H 25.3197 1.49593 -3.57352 0
M  V30 309 H 25.7337 0.0443186 -5.24481 0
M  V30 310 H 27.2077 1.75447 -5.23376 0
M  V30 311 H 27.6847 2.41224 -3.67025 0
M  V30 312 H 28.2907 0.81762 -4.17367 0
M  V30 313 N 26.6058 1.57591 -0.0167156 0
M  V30 314 C 27.5388 2.04944 1.00366 0
M  V30 315 C 28.5168 0.942648 1.32487 0
M  V30 316 O 29.7008 1.21205 1.44367 0
M  V30 317 C 26.8278 2.46109 2.32697 0
M  V30 318 C 25.8738 3.67686 2.16123 0
M  V30 319 S 26.7068 5.14882 1.47161 0
M  V30 320 C 27.8628 5.59332 2.80888 0
M  V30 321 H 28.0958 2.91172 0.600528 0
M  V30 322 H 25.6288 1.53168 0.194632 0
M  V30 323 H 27.5868 2.70493 3.08778 0
M  V30 324 H 26.2478 1.6025 2.70146 0
M  V30 325 H 25.4408 3.94296 3.13922 0
M  V30 326 H 25.0428 3.43391 1.48185 0
M  V30 327 H 27.3348 5.62814 3.77156 0
M  V30 328 H 28.2778 6.5905 2.58958 0
M  V30 329 H 28.6858 4.86942 2.85565 0
M  V30 330 N 28.0839 -0.256276 1.55502 0
M  V30 331 C 29.3299 -0.987079 1.77157 0
M  V30 332 C 29.6629 -1.85327 0.580315 0
M  V30 333 O 28.9379 -1.89874 -0.421686 0
M  V30 334 C 29.2209 -1.85553 3.08613 0
M  V30 335 C 29.0739 -1.01816 4.38125 0
M  V30 336 C 30.3929 -2.8397 3.36228 0
M  V30 337 H 27.5119 -0.357428 0.644526 0
M  V30 338 H 30.1539 -0.258239 1.88237 0
M  V30 339 H 28.3039 -2.47695 2.99298 0
M  V30 340 H 29.9759 -0.416159 4.59419 0
M  V30 341 H 28.2189 -0.322178 4.32602 0
M  V30 342 H 28.8899 -1.65939 5.26468 0
M  V30 343 H 31.3659 -2.31964 3.45445 0
M  V30 344 H 30.2419 -3.41864 4.29442 0
M  V30 345 H 30.5029 -3.59955 2.56681 0
M  V30 346 N 29.562 -1.4872 -0.521534 0
M  V30 347 C 30.81 -1.56857 -1.27437 0
M  V30 348 C 31.131 -0.247982 -1.93417 0
M  V30 349 O 30.401 0.731151 -1.81744 0
M  V30 350 H 28.981 -0.577885 -0.473347 0
M  V30 351 H 31.643 -1.85233 -0.606205 0
M  V30 352 H 30.739 -2.35402 -2.0492 0
M  V30 353 N 31.0401 0.771051 -1.3745 0
M  V30 354 C 32.2651 1.56529 -1.36065 0
M  V30 355 C 32.6901 1.88029 0.0515859 0
M  V30 356 O 32.0481 1.49282 1.02882 0
M  V30 357 C 32.0961 2.85187 -2.20683 0
M  V30 358 O 31.2001 3.79593 -1.61193 0
M  V30 359 H 30.5411 0.47411 -0.464883 0
M  V30 360 H 33.0711 0.954269 -1.80983 0
M  V30 361 H 33.0811 3.34283 -2.33921 0
M  V30 362 H 31.7561 2.61588 -3.23334 0
M  V30 363 H 30.3331 3.38239 -1.56999 0
M  V30 364 N 32.5182 1.22032 0.997298 0
M  V30 365 C 33.4812 0.987909 2.06816 0
M  V30 366 C 34.4812 -0.0440084 1.6074 0
M  V30 367 O 35.6712 0.194053 1.73116 0
M  V30 368 C 32.8032 0.49132 3.37341 0
M  V30 369 H 33.9962 1.93803 2.28868 0
M  V30 370 H 31.5492 1.03838 1.16822 0
M  V30 371 H 32.2842 -0.463364 3.20973 0
M  V30 372 H 32.0692 1.23575 3.72118 0
M  V30 373 H 33.5592 0.348824 4.16141 0
M  V30 374 N 33.9963 -1.19345 1.0293 0
M  V30 375 C 34.9443 -2.24621 0.604001 0
M  V30 376 C 35.9383 -1.65452 -0.363587 0
M  V30 377 O 37.1443 -1.78497 -0.23212 0
M  V30 378 H 33.5193 -0.730858 0.177061 0
M  V30 379 H 35.4903 -2.5781 1.50255 0
M  V30 380 C 34.2393 -3.47688 -0.0289127 0
M  V30 381 H 33.5623 -3.93505 0.706651 0
M  V30 382 H 35.0023 -4.23011 -0.289432 0
M  V30 383 C 33.4613 -3.11817 -1.2756 0
M  V30 384 O 33.9913 -3.2451 -2.36762 0
M  V30 385 N 32.1973 -2.66246 -1.16453 0
M  V30 386 H 31.7443 -2.56118 -0.275914 0
M  V30 387 H 31.7023 -2.42617 -1.99961 0
M  V30 388 N 35.4744 -0.807222 -1.35358 0
M  V30 389 C 36.4374 -0.223665 -2.28106 0
M  V30 390 C 37.4374 0.589354 -1.4961 0
M  V30 391 O 38.6274 0.407745 -1.69361 0
M  V30 392 C 35.7594 0.688149 -3.33882 0
M  V30 393 H 36.9524 -1.04169 -2.81227 0
M  V30 394 H 34.5054 -0.577921 -1.45223 0
M  V30 395 H 35.2404 1.52984 -2.85948 0
M  V30 396 H 35.0254 0.10687 -3.91954 0
M  V30 397 H 36.5154 1.09075 -4.03104 0
M  V30 398 N 36.9525 1.47285 -0.560781 0
M  V30 399 C 38.1985 2.02764 -0.0381184 0
M  V30 400 C 38.5315 1.43384 1.30976 0
M  V30 401 O 37.8065 0.590733 1.85312 0
M  V30 402 C 38.0895 3.60064 0.0511427 0
M  V30 403 C 37.9425 4.2987 -1.32408 0
M  V30 404 C 39.2615 4.33439 0.762795 0
M  V30 405 H 36.3805 0.736841 -0.0153264 0
M  V30 406 H 39.0225 1.75675 -0.723759 0
M  V30 407 H 37.1725 3.83274 0.635065 0
M  V30 408 H 38.8445 4.17989 -1.95148 0
M  V30 409 H 37.0875 3.90085 -1.8978 0
M  V30 410 H 37.7585 5.38478 -1.21431 0
M  V30 411 H 40.2345 4.15243 0.266965 0
M  V30 412 H 39.1105 5.43124 0.794221 0
M  V30 413 H 39.3715 4.02915 1.81966 0
M  V30 414 N 38.4306 0.297415 1.54768 0
M  V30 415 C 39.3406 -0.58983 2.27064 0
M  V30 416 C 40.3566 -1.15144 1.30453 0
M  V30 417 O 41.5326 -1.17699 1.63428 0
M  V30 418 C 38.5976 -1.74714 2.9946 0
M  V30 419 C 37.6586 -1.21997 4.11601 0
M  V30 420 C 36.8916 -2.32212 4.80535 0
M  V30 421 O 37.1146 -3.52036 4.48806 0
M  V30 422 O 36.0486 -1.99106 5.68014 0
M  V30 423 H 39.8746 -0.00348199 3.037 0
M  V30 424 H 37.4596 0.0640035 1.49263 0
M  V30 425 H 39.3416 -2.42147 3.44881 0
M  V30 426 H 38.0166 -2.32016 2.25722 0
M  V30 427 H 36.9236 -0.511458 3.70587 0
M  V30 428 H 38.2566 -0.692419 4.87305 0
M  V30 429 N 39.9087 -1.5758 0.0250728 0
M  V30 430 C 40.8387 -2.13007 -0.956575 0
M  V30 431 C 41.8197 -1.0452 -1.342 0
M  V30 432 O 43.0047 -1.32332 -1.42133 0
M  V30 433 C 40.1347 -2.65386 -2.24026 0
M  V30 434 C 39.0887 -3.78623 -1.99571 0
M  V30 435 C 38.4147 -4.17414 -3.3417 0
M  V30 436 C 39.7147 -5.04867 -1.33814 0
M  V30 437 H 41.4087 -2.9528 -0.494991 0
M  V30 438 H 38.9547 -1.42042 -0.236651 0
M  V30 439 H 40.9077 -3.02794 -2.93076 0
M  V30 440 H 39.6317 -1.80268 -2.72343 0
M  V30 441 H 38.2907 -3.41646 -1.32941 0
M  V30 442 H 37.9387 -3.29284 -3.80238 0
M  V30 443 H 37.6387 -4.93719 -3.18615 0
M  V30 444 H 39.1627 -4.57402 -4.04495 0
M  V30 445 H 40.5767 -5.39888 -1.92857 0
M  V30 446 H 38.9737 -5.86144 -1.28669 0
M  V30 447 H 40.0437 -4.83904 -0.310561 0
M  V30 448 N 41.3868 0.248026 -1.55636 0
M  V30 449 C 42.6148 0.993808 -1.81469 0
M  V30 450 C 43.0298 1.78991 -0.60064 0
M  V30 451 O 42.3868 1.77345 0.430682 0
M  V30 452 C 42.4378 1.93258 -3.05506 0
M  V30 453 O 42.1588 1.16869 -4.22224 0
M  V30 454 C 43.6598 2.79444 -3.4413 0
M  V30 455 H 40.8798 0.292486 -0.603898 0
M  V30 456 H 43.4238 0.271253 -2.02693 0
M  V30 457 H 41.5788 2.60943 -2.86335 0
M  V30 458 H 41.9928 1.80359 -4.92515 0
M  V30 459 H 43.4668 3.41066 -4.34026 0
M  V30 460 H 43.9438 3.50499 -2.64665 0
M  V30 461 H 44.5498 2.17214 -3.65648 0
M  V30 462 N 42.8649 1.48995 0.513639 0
M  V30 463 C 43.7749 1.67443 1.64317 0
M  V30 464 C 44.7909 0.556947 1.64846 0
M  V30 465 O 45.9669 0.830082 1.83498 0
M  V30 466 C 43.0319 1.72515 3.00732 0
M  V30 467 C 42.0929 2.96009 3.1093 0
M  V30 468 C 41.3259 3.00829 4.40837 0
M  V30 469 O 41.5489 2.13594 5.28898 0
M  V30 470 O 40.4829 3.93168 4.55744 0
M  V30 471 H 44.3089 2.63106 1.51687 0
M  V30 472 H 41.8939 1.32588 0.688543 0
M  V30 473 H 43.7759 1.78277 3.81831 0
M  V30 474 H 42.4509 0.800278 3.13651 0
M  V30 475 H 41.3579 2.9577 2.29065 0
M  V30 476 H 42.6909 3.87934 3.02933 0
M  V30 477 N 44.343 -0.763751 1.37857 0
M  V30 478 C 45.568 -1.55805 1.36893 0
M  V30 479 C 45.993 -1.88054 -0.0416135 0
M  V30 480 O 45.351 -1.49825 -1.02089 0
M  V30 481 C 45.399 -2.84012 2.22192 0
M  V30 482 O 44.503 -3.78732 1.63204 0
M  V30 483 H 43.844 -0.471638 0.46739 0
M  V30 484 H 46.374 -0.944657 1.81487 0
M  V30 485 H 46.384 -3.33037 2.35691 0
M  V30 486 H 45.059 -2.59869 3.24716 0
M  V30 487 H 43.636 -3.37402 1.58791 0
M  V30 488 N 45.8211 -1.22559 -0.990812 0
M  V30 489 C 47.0491 -1.07779 -1.76611 0
M  V30 490 C 47.4641 0.371513 -1.85109 0
M  V30 491 O 46.8211 1.25737 -1.32274 0
M  V30 492 C 46.8721 -1.68512 -3.19822 0
M  V30 493 O 46.5931 -3.07774 -3.1178 0
M  V30 494 C 48.0941 -1.59035 -4.13791 0
M  V30 495 H 45.3141 -0.377729 -0.554583 0
M  V30 496 H 47.8581 -1.62195 -1.24551 0
M  V30 497 H 46.0131 -1.18154 -3.68942 0
M  V30 498 H 46.4271 -3.37062 -4.01858 0
M  V30 499 H 47.9011 -2.0625 -5.1202 0
M  V30 500 H 48.3781 -0.547273 -4.35777 0
M  V30 501 H 48.9841 -2.08709 -3.70568 0
M  V30 502 N 47.2992 1.18797 -1.03562 0
M  V30 503 C 48.7152 1.40671 -0.753917 0
M  V30 504 C 48.9152 1.9043 0.658686 0
M  V30 505 O 47.9712 2.08538 1.42366 0
M  V30 506 C 49.2842 2.41192 -1.79574 0
M  V30 507 C 50.8322 2.54928 -1.81606 0
M  V30 508 C 51.3072 3.58709 -2.84766 0
M  V30 509 N 52.7982 3.66212 -2.83625 0
M  V30 510 C 53.5332 4.46225 -3.60098 0
M  V30 511 N 53.0292 5.29888 -4.46308 0
M  V30 512 N 54.8222 4.40939 -3.4861 0
M  V30 513 H 46.9732 0.848221 -1.94728 0
M  V30 514 H 49.2362 0.435081 -0.842264 0
M  V30 515 H 48.9422 2.11669 -2.80872 0
M  V30 516 H 48.8162 3.40467 -1.62365 0
M  V30 517 H 51.2032 2.83771 -0.809817 0
M  V30 518 H 51.2842 1.55784 -2.02891 0
M  V30 519 H 50.9282 3.30607 -3.85566 0
M  V30 520 H 50.8582 4.57519 -2.60737 0
M  V30 521 H 53.3492 3.06466 -2.21105 0
M  V30 522 H 53.6622 5.88078 -5.01382 0
M  V30 523 H 52.0072 5.29326 -4.50377 0
M  V30 524 H 55.1982 3.74624 -2.80668 0
M  V30 525 H 55.3712 5.03056 -4.08459 0
M  V30 526 N 48.7773 0.814389 1.34928 0
M  V30 527 C 50.0053 0.411136 2.02774 0
M  V30 528 C 50.4203 -0.980316 1.61354 0
M  V30 529 O 49.7773 -1.63299 0.814847 0
M  V30 530 C 49.8283 0.493865 3.58111 0
M  V30 531 O 49.5493 1.83047 3.98027 0
M  V30 532 C 51.0503 0.0844174 4.4322 0
M  V30 533 H 48.2703 0.166037 0.650133 0
M  V30 534 H 50.8143 1.10018 1.72384 0
M  V30 535 H 48.9693 -0.147006 3.87121 0
M  V30 536 H 49.3833 1.79872 4.92693 0
M  V30 537 H 50.8573 0.193404 5.51661 0
M  V30 538 H 51.3343 -0.97113 4.28329 0
M  V30 539 H 51.9403 0.69875 4.19521 0
M  V30 540 N 50.2554 -1.46986 0.568584 0
M  V30 541 C 51.5044 -2.01646 0.0465894 0
M  V30 542 C 51.8174 -1.44721 -1.31587 0
M  V30 543 O 53.0234 -1.91113 -1.92842 0
M  V30 544 C 51.4794 -3.59885 0.032752 0
M  V30 545 C 51.0874 -4.25804 1.39266 0
M  V30 546 C 52.8314 -4.22255 -0.436038 0
M  V30 547 C 50.7384 -5.76081 1.33732 0
M  V30 548 H 49.6684 -0.753876 0.013647 0
M  V30 549 H 52.3194 -1.68864 0.718131 0
M  V30 550 H 50.7014 -3.8968 -0.704669 0
M  V30 551 H 51.8754 -4.07637 2.1487 0
M  V30 552 H 50.1904 -3.7547 1.80032 0
M  V30 553 H 52.7874 -5.32394 -0.49602 0
M  V30 554 H 53.1304 -3.90212 -1.45053 0
M  V30 555 H 53.6634 -3.97033 0.246877 0
M  V30 556 H 50.4024 -6.12761 2.32817 0
M  V30 557 H 49.9224 -5.96553 0.623267 0
M  V30 558 H 51.6014 -6.38518 1.0442 0
M  V30 559 N 51.7335 -0.305618 -1.54608 0
M  V30 560 C 53.1445 0.186098 -1.8577 0
M  V30 561 C 53.4955 1.53058 -1.22751 0
M  V30 562 O 52.6205 2.09888 -0.526893 0
M  V30 563 C 53.2155 0.344449 -3.37044 0
M  V30 564 C 51.7745 0.780384 -3.68221 0
M  V30 565 C 50.9215 -0.108554 -2.77087 0
M  V30 566 H 53.8725 -0.526485 -1.49712 0
M  V30 567 H 53.8935 1.17828 -3.61796 0
M  V30 568 H 53.4055 -0.634235 -3.82883 0
M  V30 569 H 51.5065 1.76945 -3.27904 0
M  V30 570 H 51.6195 0.596572 -4.75371 0
M  V30 571 H 49.9835 0.412931 -2.5133 0
M  V30 572 H 50.7665 -1.08368 -3.25747 0
M  V30 573 N 53.2116 1.57565 -0.0334293 0
M  V30 574 C 54.1416 2.13511 0.945265 0
M  V30 575 C 55.1226 1.05231 1.33643 0
M  V30 576 O 56.3076 1.33084 1.41429 0
M  V30 577 C 53.4376 2.6657 2.22616 0
M  V30 578 C 52.3916 3.79676 1.97561 0
M  V30 579 C 51.7176 4.1918 3.31952 0
M  V30 580 C 53.0176 5.0557 1.31135 0
M  V30 581 H 54.7116 2.95538 0.479325 0
M  V30 582 H 52.2576 1.42166 0.229115 0
M  V30 583 H 54.2106 3.04344 2.91466 0
M  V30 584 H 52.9346 1.8171 2.71384 0
M  V30 585 H 51.5936 3.42347 1.31127 0
M  V30 586 H 51.2416 3.31296 3.78487 0
M  V30 587 H 50.9416 4.95402 3.15992 0
M  V30 588 H 52.4656 4.59541 4.02063 0
M  V30 589 H 53.8796 5.40903 1.89992 0
M  V30 590 H 52.2766 5.86818 1.25559 0
M  V30 591 H 53.3466 4.84062 0.284894 0
M  V30 592 N 54.6897 -0.239769 1.55765 0
M  V30 593 C 55.9667 -0.990056 1.68693 0
M  V30 594 C 56.3467 -2.03107 0.5754 0
M  V30 595 O 55.6947 -2.24604 -0.42017 0
M  V30 596 C 55.9047 -1.61696 3.09282 0
M  V30 597 C 57.2527 -2.11613 3.6811 0
M  V30 598 O 58.2767 -1.71624 3.12127 0
M  V30 599 O 57.1357 -2.85057 4.66267 0
M  V30 600 H 54.2297 -0.461299 0.686391 0
M  V30 601 H 56.7757 -0.232991 1.68093 0
M  V30 602 H 55.5477 -0.864357 3.81634 0
M  V30 603 H 55.1707 -2.44005 3.13923 0
M  V30 604 N 56.1678 -1.49265 -0.50573 0
M  V30 605 C 57.0778 -1.68312 -1.63427 0
M  V30 606 C 58.0938 -0.565682 -1.64548 0
M  V30 607 O 59.2698 -0.839801 -1.83055 0
M  V30 608 C 56.3348 -1.74107 -2.99813 0
M  V30 609 C 55.3958 -2.97653 -3.09356 0
M  V30 610 C 54.6288 -3.03163 -4.39236 0
M  V30 611 O 54.8518 -2.16396 -5.27758 0
M  V30 612 O 53.7858 -3.9558 -4.53652 0
M  V30 613 H 57.6118 -2.63907 -1.50289 0
M  V30 614 H 55.1968 -1.32951 -0.681502 0
M  V30 615 H 57.0788 -1.803 -3.80881 0
M  V30 616 H 55.7538 -0.816901 -3.13223 0
M  V30 617 H 54.6608 -2.96981 -2.27493 0
M  V30 618 H 55.9938 -3.89535 -3.00871 0
M  V30 619 N 57.6459 0.756429 -1.3826 0
M  V30 620 C 58.6089 1.85176 -1.35065 0
M  V30 621 C 59.6089 1.58818 -0.251703 0
M  V30 622 O 60.7989 1.66615 -0.508433 0
M  V30 623 C 57.9309 3.22596 -1.10201 0
M  V30 624 H 59.1239 1.89417 -2.3251 0
M  V30 625 H 56.6769 0.95783 -1.23512 0
M  V30 626 H 57.4119 3.24025 -0.133504 0
M  V30 627 H 57.1969 3.43122 -1.89762 0
M  V30 628 H 58.6869 4.02673 -1.10654 0
M  V30 629 N 59.124 1.23083 0.984299 0
M  V30 630 C 60.372 1.05848 1.72165 0
M  V30 631 C 60.693 -0.406049 1.90726 0
M  V30 632 O 59.963 -1.29139 1.47309 0
M  V30 633 H 58.543 0.388685 0.637913 0
M  V30 634 H 61.205 1.54736 1.18503 0
M  V30 635 H 60.301 1.54327 2.71274 0
M  V30 636 N 60.6021 -1.18246 1.0419 0
M  V30 637 C 61.8501 -1.87886 0.744543 0
M  V30 638 C 62.1711 -1.8082 -0.730006 0
M  V30 639 O 61.4411 -1.22736 -1.52685 0
M  V30 640 H 60.0211 -0.695556 0.272417 0
M  V30 641 H 62.6831 -1.43494 1.31892 0
M  V30 642 H 61.7791 -2.9389 1.05049 0
M  V30 643 N 62.0802 -0.821533 -1.34494 0
M  V30 644 C 63.3082 -0.421884 -2.02553 0
M  V30 645 C 63.7232 0.971745 -1.61872 0
M  V30 646 O 63.0802 1.62864 -0.823496 0
M  V30 647 C 63.1312 -0.51285 -3.57844 0
M  V30 648 O 62.8522 -1.85155 -3.97051 0
M  V30 649 C 64.3532 -0.107921 -4.43169 0
M  V30 650 H 61.5732 -0.169482 -0.649243 0
M  V30 651 H 64.1172 -1.1093 -1.71798 0
M  V30 652 H 62.2722 0.126474 -3.87193 0
M  V30 653 H 62.6862 -1.82482 -4.91732 0
M  V30 654 H 64.1602 -0.222657 -5.51551 0
M  V30 655 H 64.6372 0.948401 -4.28838 0
M  V30 656 H 65.2432 -0.720989 -4.19144 0
M  V30 657 N 63.5583 1.46682 -0.576371 0
M  V30 658 C 64.7863 2.06798 -0.0649635 0
M  V30 659 C 65.2013 1.42612 1.23723 0
M  V30 660 O 64.5583 0.529203 1.74659 0
M  V30 661 C 64.6093 3.6132 0.114202 0
M  V30 662 O 64.3303 4.23104 -1.13644 0
M  V30 663 C 65.8313 4.38349 0.66069 0
M  V30 664 H 63.0513 0.668778 -0.0545616 0
M  V30 665 H 65.5953 1.88404 -0.795237 0
M  V30 666 H 63.7503 3.79162 0.794673 0
M  V30 667 H 64.1643 5.15894 -0.946253 0
M  V30 668 H 65.6383 5.47081 0.73526 0
M  V30 669 H 66.1153 4.05953 1.67627 0
M  V30 670 H 66.7213 4.25297 0.0152951 0
M  V30 671 N 65.0364 0.313813 1.54444 0
M  V30 672 C 66.2644 -0.293918 2.04802 0
M  V30 673 C 66.6794 -1.46537 1.19047 0
M  V30 674 O 66.0364 -1.81182 0.218939 0
M  V30 675 C 66.0874 -0.737806 3.53891 0
M  V30 676 O 65.8084 0.387038 4.36387 0
M  V30 677 C 67.3094 -1.40936 4.203 0
M  V30 678 H 64.5294 -0.0620057 0.668129 0
M  V30 679 H 67.0734 0.457169 1.99324 0
M  V30 680 H 65.2284 -1.43889 3.59687 0
M  V30 681 H 65.6424 0.0391274 5.24485 0
M  V30 682 H 67.1164 -1.67099 5.26101 0
M  V30 683 H 67.5934 -2.35355 3.70816 0
M  V30 684 H 68.1994 -0.751117 4.18615 0
M  V30 685 N 66.5145 -1.57545 0.0417849 0
M  V30 686 C 67.4445 -2.14009 -0.933929 0
M  V30 687 C 68.4255 -1.05938 -1.33083 0
M  V30 688 O 69.6105 -1.33833 -1.40721 0
M  V30 689 C 66.7405 -2.67747 -2.21199 0
M  V30 690 C 65.6945 -3.80718 -1.95544 0
M  V30 691 C 65.0205 -4.20935 -3.29724 0
M  V30 692 C 66.3205 -5.06258 -1.28452 0
M  V30 693 H 68.0145 -2.95788 -0.463645 0
M  V30 694 H 65.5605 -1.42285 -0.221573 0
M  V30 695 H 67.5135 -3.05886 -2.89848 0
M  V30 696 H 66.2375 -1.83147 -2.70416 0
M  V30 697 H 64.8965 -3.43037 -1.2931 0
M  V30 698 H 64.5445 -3.33298 -3.76724 0
M  V30 699 H 64.2445 -4.9707 -3.13361 0
M  V30 700 H 65.7685 -4.61666 -3.9962 0
M  V30 701 H 67.1825 -5.41903 -1.8712 0
M  V30 702 H 65.5795 -5.87475 -1.22445 0
M  V30 703 H 66.6495 -4.84207 -0.259219 0
M  V30 704 N 67.9926 0.231505 -1.5589 0
M  V30 705 C 69.2206 0.974505 -1.82513 0
M  V30 706 C 69.6356 1.78344 -0.619591 0
M  V30 707 O 68.9926 1.77792 0.411848 0
M  V30 708 C 69.0436 1.90007 -3.07538 0
M  V30 709 O 68.7646 1.12385 -4.2344 0
M  V30 710 C 70.2656 2.75779 -3.47075 0
M  V30 711 H 67.4856 0.286065 -0.606966 0
M  V30 712 H 70.0296 0.249739 -2.02969 0
M  V30 713 H 68.1846 2.57891 -2.89086 0
M  V30 714 H 68.5986 1.75125 -4.944 0
M  V30 715 H 70.0726 3.36443 -4.37619 0
M  V30 716 H 70.5496 3.47672 -2.68367 0
M  V30 717 H 71.1556 2.13323 -3.67931 0
M  V30 718 N 69.4707 1.49531 0.497807 0
M  V30 719 C 70.4337 1.65916 1.58128 0
M  V30 720 C 71.4337 0.530825 1.51786 0
M  V30 721 O 72.6237 0.797342 1.54881 0
M  V30 722 C 69.7557 1.65951 2.9778 0
M  V30 723 H 70.9487 2.62556 1.44929 0
M  V30 724 H 68.5017 1.38611 0.722275 0
M  V30 725 H 69.2367 0.709065 3.16453 0
M  V30 726 H 69.0217 2.47897 3.03792 0
M  V30 727 H 70.5117 1.80673 3.76493 0
M  V30 728 N 70.9488 -0.749086 1.3866 0
M  V30 729 C 72.3648 -1.05276 1.19955 0
M  V30 730 C 72.5648 -2.01435 0.05134 0
M  V30 731 O 71.6208 -2.45232 -0.60147 0
M  V30 732 C 72.9338 -1.62853 2.52783 0
M  V30 733 C 74.4818 -1.75002 2.59506 0
M  V30 734 C 74.9568 -2.35991 3.92521 0
M  V30 735 N 76.4478 -2.43416 3.94085 0
M  V30 736 C 77.1828 -2.91511 4.9377 0
M  V30 737 N 76.6788 -3.39608 6.03853 0
M  V30 738 N 78.4718 -2.90592 4.81157 0
M  V30 739 H 70.6228 -0.111066 2.12109 0
M  V30 740 H 72.8858 -0.111901 0.941373 0
M  V30 741 H 72.5918 -0.99664 3.37283 0
M  V30 742 H 72.4658 -2.61854 2.715 0
M  V30 743 H 74.8528 -2.37317 1.75398 0
M  V30 744 H 74.9338 -0.74693 2.44652 0
M  V30 745 H 74.5778 -1.74308 4.77053 0
M  V30 746 H 74.5078 -3.3695 4.04688 0
M  V30 747 H 76.9988 -2.09405 3.14576 0
M  V30 748 H 77.3118 -3.74775 6.75843 0
M  V30 749 H 75.6568 -3.37653 6.07466 0
M  V30 750 H 78.8478 -2.52332 3.94267 0
M  V30 751 H 79.0208 -3.27762 5.58996 0
M  V30 752 N 72.4269 -1.23603 -0.977757 0
M  V30 753 C 73.3589 -0.977369 -2.07317 0
M  V30 754 C 74.3719 0.0495845 -1.62724 0
M  V30 755 O 75.5609 -0.186261 -1.77526 0
M  V30 756 C 72.6609 -0.451216 -3.35883 0
M  V30 757 C 71.8339 -1.53896 -4.09432 0
M  V30 758 C 70.8929 -1.01721 -5.16274 0
M  V30 759 O 69.9189 -1.70676 -5.43009 0
M  V30 760 N 71.1209 0.153594 -5.80297 0
M  V30 761 H 73.8859 -1.92047 -2.30082 0
M  V30 762 H 71.4469 -1.14497 -1.14465 0
M  V30 763 H 73.4389 -0.0871574 -4.04606 0
M  V30 764 H 72.0089 0.397368 -3.10064 0
M  V30 765 H 71.2289 -2.07566 -3.35127 0
M  V30 766 H 72.5169 -2.27037 -4.55337 0
M  V30 767 H 71.9149 0.730323 -5.60966 0
M  V30 768 H 70.4719 0.458892 -6.50183 0
M  V30 769 N 73.905 1.17692 -1.04816 0
M  V30 770 C 75.152 1.87859 -0.75599 0
M  V30 771 C 75.48 1.80812 0.716752 0
M  V30 772 O 74.735 1.20819 1.53952 0
M  V30 773 C 75.034 3.37462 -1.17703 0
M  V30 774 C 74.7 3.64713 -2.65133 0
M  V30 775 C 73.362 3.71859 -3.05408 0
M  V30 776 C 75.714 3.76492 -3.60421 0
M  V30 777 C 73.042 3.88271 -4.39843 0
M  V30 778 C 75.394 3.94421 -4.94585 0
M  V30 779 C 74.058 3.99806 -5.3452 0
M  V30 780 H 73.328 0.687425 -0.276636 0
M  V30 781 H 75.975 1.39255 -1.31455 0
M  V30 782 H 74.28 3.88097 -0.537395 0
M  V30 783 H 75.977 3.90109 -0.928218 0
M  V30 784 H 72.567 3.59772 -2.32942 0
M  V30 785 H 76.751 3.70295 -3.30447 0
M  V30 786 H 72.007 3.90687 -4.70291 0
M  V30 787 H 76.181 4.02477 -5.68318 0
M  V30 788 H 73.808 4.12276 -6.38696 0
M  V30 789 N 75.3831 0.828654 1.34056 0
M  V30 790 C 76.6111 0.43262 2.02326 0
M  V30 791 C 77.0261 -0.963147 1.62385 0
M  V30 792 O 76.3831 -1.62425 0.832121 0
M  V30 793 C 76.4341 0.53182 3.57567 0
M  V30 794 O 76.1551 1.87258 3.96063 0
M  V30 795 C 77.6561 0.131422 4.43105 0
M  V30 796 H 74.8761 0.172923 0.648335 0
M  V30 797 H 77.4201 1.1184 1.71208 0
M  V30 798 H 75.5751 -0.105938 3.87255 0
M  V30 799 H 75.9891 1.85087 4.90758 0
M  V30 800 H 77.4631 0.251904 5.51425 0
M  V30 801 H 77.9401 -0.925645 4.29335 0
M  V30 802 H 78.5461 0.743207 4.18756 0
M  V30 803 N 76.8612 -1.46375 0.584142 0
M  V30 804 C 77.8092 -2.32042 -0.161047 0
M  V30 805 C 78.8032 -1.44569 -0.882966 0
M  V30 806 O 80.0092 -1.61186 -0.801191 0
M  V30 807 H 76.3842 -0.748659 -0.0708033 0
M  V30 808 H 78.3552 -2.92704 0.580269 0
M  V30 809 C 77.1042 -3.27762 -1.1605 0
M  V30 810 H 76.4272 -3.95051 -0.614419 0
M  V30 811 H 77.8672 -3.90481 -1.65228 0
M  V30 812 C 76.3262 -2.53218 -2.22221 0
M  V30 813 O 76.8562 -2.29628 -3.29597 0
M  V30 814 N 75.0622 -2.13756 -1.96868 0
M  V30 815 H 74.6092 -2.33142 -1.09557 0
M  V30 816 H 74.5672 -1.642 -2.68115 0
M  V30 817 N 78.3393 -0.321999 -1.54275 0
M  V30 818 C 79.5873 0.280489 -2.00144 0
M  V30 819 C 79.9083 1.52777 -1.21178 0
M  V30 820 O 79.1783 1.9338 -0.313187 0
M  V30 821 H 77.7583 0.106632 -0.73935 0
M  V30 822 H 80.4203 -0.438184 -1.8991 0
M  V30 823 H 79.5163 0.537972 -3.07428 0
M  V30 824 N 79.8174 1.5752 -0.0501392 0
M  V30 825 C 80.7494 2.08413 0.95376 0
M  V30 826 C 81.7624 1.01175 1.27544 0
M  V30 827 O 82.9514 1.28744 1.23641 0
M  V30 828 C 80.0514 2.51138 2.27559 0
M  V30 829 C 79.2244 3.817 2.13598 0
M  V30 830 C 78.2834 4.10749 3.28895 0
M  V30 831 O 77.3094 4.80685 3.04845 0
M  V30 832 N 78.5114 3.62579 4.5334 0
M  V30 833 H 81.2764 2.95165 0.519383 0
M  V30 834 H 78.8374 1.61327 0.136127 0
M  V30 835 H 80.8294 2.67648 3.03557 0
M  V30 836 H 79.3994 1.6964 2.62567 0
M  V30 837 H 78.6194 3.74782 1.22197 0
M  V30 838 H 79.9074 4.67201 2.01496 0
M  V30 839 H 79.3054 3.06039 4.75769 0
M  V30 840 H 77.8624 3.84329 5.26436 0
M  V30 841 N 81.2955 -0.223234 1.56011 0
M  V30 842 C 82.2425 -1.27664 1.92277 0
M  V30 843 C 83.2125 -1.46659 0.779763 0
M  V30 844 O 84.3975 -1.60256 1.03551 0
M  V30 845 C 81.5375 -2.62234 2.24338 0
M  V30 846 C 80.6505 -2.51051 3.51564 0
M  V30 847 C 79.7855 -3.78133 3.7308 0
M  V30 848 C 78.8245 -3.61665 4.93827 0
M  V30 849 N 77.9615 -4.80693 5.11741 0
M  V30 850 H 82.8015 -0.960358 2.82101 0
M  V30 851 H 80.3385 -0.462901 1.39627 0
M  V30 852 H 82.2965 -3.40596 2.40936 0
M  V30 853 H 80.9265 -2.91961 1.3769 0
M  V30 854 H 79.9785 -1.64132 3.43169 0
M  V30 855 H 81.2905 -2.34803 4.40079 0
M  V30 856 H 80.4445 -4.64938 3.89766 0
M  V30 857 H 79.1835 -3.97304 2.82844 0
M  V30 858 H 78.1885 -2.73244 4.77093 0
M  V30 859 H 79.4135 -3.43966 5.85546 0
M  V30 860 H 77.3595 -5.00181 4.24446 0
M  V30 861 H 77.2765 -4.67165 5.94384 0
M  V30 862 H 78.5445 -5.6893 5.3286 0
M  V30 863 N 82.7736 -1.49793 -0.48987 0
M  V30 864 C 84.0226 -1.59085 -1.23995 0
M  V30 865 C 84.3356 -0.287907 -1.9347 0
M  V30 866 O 85.5416 -0.259506 -2.70257 0
M  V30 867 C 83.9976 -2.80736 -2.252 0
M  V30 868 C 83.6056 -4.17833 -1.61614 0
M  V30 869 C 85.3496 -2.99364 -3.00967 0
M  V30 870 C 83.2566 -5.30693 -2.60996 0
M  V30 871 H 82.1866 -0.592372 -0.466488 0
M  V30 872 H 84.8376 -1.76197 -0.51252 0
M  V30 873 H 83.2196 -2.57142 -3.01154 0
M  V30 874 H 84.3936 -4.51608 -0.915774 0
M  V30 875 H 82.7086 -4.04656 -0.981977 0
M  V30 876 H 85.3056 -3.80851 -3.75308 0
M  V30 877 H 85.6486 -2.10356 -3.59244 0
M  V30 878 H 86.1816 -3.2305 -2.32128 0
M  V30 879 H 82.9206 -6.21796 -2.07485 0
M  V30 880 H 82.4406 -5.01359 -3.2924 0
M  V30 881 H 84.1196 -5.6049 -3.23202 0
M  V30 882 N 84.2517 0.741722 -1.39055 0
M  V30 883 C 85.4987 1.50114 -1.35912 0
M  V30 884 C 85.8267 1.94443 0.0470937 0
M  V30 885 O 85.0817 1.66612 1.02659 0
M  V30 886 C 85.3807 2.7592 -2.27163 0
M  V30 887 C 85.0467 2.50493 -3.74919 0
M  V30 888 C 83.7087 2.43267 -4.1518 0
M  V30 889 C 86.0607 2.28585 -4.684 0
M  V30 890 C 83.3887 2.12166 -5.46994 0
M  V30 891 C 85.7407 1.99002 -6.00484 0
M  V30 892 C 84.4047 1.90241 -6.39816 0
M  V30 893 H 83.6747 0.549306 -0.497336 0
M  V30 894 H 86.3217 0.851896 -1.71508 0
M  V30 895 H 84.6267 3.45553 -1.84663 0
M  V30 896 H 86.3237 3.33923 -2.22028 0
M  V30 897 H 82.9137 2.56992 -3.43006 0
M  V30 898 H 87.0977 2.33139 -4.38132 0
M  V30 899 H 82.3537 2.03901 -5.76398 0
M  V30 900 H 86.5277 1.81057 -6.72452 0
M  V30 901 H 84.1547 1.65907 -7.41875 0
M  V30 902 N 85.7298 1.2412 0.971189 0
M  V30 903 C 86.9758 1.08041 1.71625 0
M  V30 904 C 87.3088 -0.380407 1.90438 0
M  V30 905 O 86.5838 -1.28127 1.46334 0
M  V30 906 C 86.8668 1.81682 3.10908 0
M  V30 907 C 86.7198 3.35493 2.99608 0
M  V30 908 C 88.0388 1.58671 4.10501 0
M  V30 909 H 85.1578 0.39388 0.622919 0
M  V30 910 H 87.7998 1.52743 1.13003 0
M  V30 911 H 85.9498 1.43684 3.60953 0
M  V30 912 H 87.6218 3.83068 2.57015 0
M  V30 913 H 85.8648 3.64052 2.35899 0
M  V30 914 H 86.5358 3.82217 3.98264 0
M  V30 915 H 89.0118 1.91719 3.69301 0
M  V30 916 H 87.8878 2.1266 5.06031 0
M  V30 917 H 88.1488 0.524161 4.38982 0
M  V30 918 N 87.2079 -1.17134 1.05439 0
M  V30 919 C 88.4849 -1.83411 0.679699 0
M  V30 920 C 88.8649 -1.9368 -0.839726 0
M  V30 921 O 88.2129 -1.47325 -1.74664 0
M  V30 922 C 88.4229 -3.20918 1.37159 0
M  V30 923 C 89.7709 -3.96796 1.51123 0
M  V30 924 O 90.7949 -3.30406 1.3308 0
M  V30 925 O 89.6539 -5.15778 1.80651 0
M  V30 926 H 86.7479 -0.79154 0.239569 0
M  V30 927 H 89.2939 -1.24411 1.15413 0
M  V30 928 H 88.0659 -3.08428 2.40807 0
M  V30 929 H 87.6889 -3.87587 0.886674 0
M  V30 930 N 88.686 -0.835752 -1.33615 0
M  V30 931 C 89.914 -0.443344 -2.02094 0
M  V30 932 C 90.329 0.954522 -1.62894 0
M  V30 933 O 89.686 1.61982 -0.840723 0
M  V30 934 C 89.737 -0.550775 -3.5728 0
M  V30 935 O 89.458 -1.89356 -3.95065 0
M  V30 936 C 90.959 -0.154919 -4.43029 0
M  V30 937 H 88.179 -0.176359 -0.647409 0
M  V30 938 H 90.723 -1.12746 -1.70612 0
M  V30 939 H 88.878 0.0853997 -3.87306 0
M  V30 940 H 89.292 -1.87687 -4.89769 0
M  V30 941 H 90.766 -0.281144 -5.51284 0
M  V30 942 H 91.243 0.902863 -4.2982 0
M  V30 943 H 91.849 -0.765404 -4.18356 0
M  V30 944 N 90.1641 1.46063 -0.591896 0
M  V30 945 C 91.4041 2.04228 -0.0838014 0
M  V30 946 C 91.7681 1.45231 1.25587 0
M  V30 947 O 92.9691 1.94653 1.85375 0
M  V30 948 C 91.2401 3.57389 -0.0286282 0
M  V30 949 S 92.7991 4.3678 0.420557 0
M  V30 950 H 89.6171 0.709762 -0.0419319 0
M  V30 951 H 92.2191 1.78983 -0.786465 0
M  V30 952 H 90.9231 3.97843 -1.00743 0
M  V30 953 H 90.4541 3.87185 0.69652 0
M  V30 954 H 92.4691 4.67131 1.67341 0
M  V30 955 N 91.6422 0.330177 1.54103 0
M  V30 956 C 92.8702 -0.272179 2.05102 0
M  V30 957 C 93.2852 -1.45267 1.20595 0
M  V30 958 O 92.6422 -1.8094 0.238144 0
M  V30 959 C 92.6932 -0.70023 3.54653 0
M  V30 960 O 92.4142 0.433301 4.35952 0
M  V30 961 C 93.9152 -1.3647 4.21771 0
M  V30 962 H 91.1352 -0.0549159 0.668749 0
M  V30 963 H 93.6792 0.478285 1.98828 0
M  V30 964 H 91.8342 -1.40066 3.61193 0
M  V30 965 H 92.2482 0.0947539 5.24414 0
M  V30 966 H 93.7222 -1.61509 5.27843 0
M  V30 967 H 94.1992 -2.31409 3.73292 0
M  V30 968 H 94.8052 -0.706675 4.19388 0
M  V30 969 N 93.1203 -1.57491 0.0584922 0
M  V30 970 C 94.0523 -2.08916 -0.942694 0
M  V30 971 C 95.0653 -1.0185 -1.27006 0
M  V30 972 O 96.2543 -1.29398 -1.22957 0
M  V30 973 C 93.3543 -2.52341 -2.26224 0
M  V30 974 C 92.5273 -3.82827 -2.1157 0
M  V30 975 C 91.5863 -4.12487 -3.26712 0
M  V30 976 O 90.6123 -4.82295 -3.02292 0
M  V30 977 N 91.8143 -3.64978 -4.5141 0
M  V30 978 H 94.5793 -2.95437 -0.503722 0
M  V30 979 H 92.1403 -1.61397 -0.12757 0
M  V30 980 H 94.1323 -2.69254 -3.02133 0
M  V30 981 H 92.7023 -1.7103 -2.61663 0
M  V30 982 H 91.9223 -3.75425 -1.20208 0
M  V30 983 H 93.2103 -4.68263 -1.99015 0
M  V30 984 H 92.6083 -3.08558 -4.7414 0
M  V30 985 H 91.1653 -3.87115 -5.2439 0
M  V30 986 N 94.5984 0.214957 -1.56127 0
M  V30 987 C 95.8384 0.945364 -1.81224 0
M  V30 988 C 96.2024 1.81265 -0.633005 0
M  V30 989 O 97.4034 2.57731 -0.763423 0
M  V30 990 C 95.6744 1.75665 -3.1125 0
M  V30 991 S 97.2334 2.54179 -3.57685 0
M  V30 992 H 94.0514 0.317443 -0.6362 0
M  V30 993 H 96.6534 0.210381 -1.94365 0
M  V30 994 H 95.3574 1.10977 -3.9511 0
M  V30 995 H 94.8884 2.53381 -3.00934 0
M  V30 996 H 96.9034 3.7792 -3.21545 0
M  V30 997 N 96.0765 1.50051 0.48192 0
M  V30 998 C 97.0265 1.64512 1.5786 0
M  V30 999 C 98.0105 0.500073 1.52932 0
M  V30 1000 O 99.2025 0.753964 1.60139 0
M  V30 1001 C 96.3315 1.73263 2.9637 0
M  V30 1002 C 95.4175 2.93409 3.06222 0
M  V30 1003 N 95.8085 4.17236 2.85915 0
M  V30 1004 C 94.1065 2.91742 3.37346 0
M  V30 1005 C 94.8075 4.981 3.00451 0
M  V30 1006 N 93.7835 4.3184 3.30174 0
M  V30 1007 H 97.5855 2.57955 1.40842 0
M  V30 1008 H 95.0995 1.47086 0.688439 0
M  V30 1009 H 97.0965 1.81724 3.75209 0
M  V30 1010 H 95.7565 0.809711 3.14442 0
M  V30 1011 H 96.7675 4.46909 2.6171 0
M  V30 1012 H 93.4445 2.08907 3.61475 0
M  V30 1013 H 94.8345 6.06532 2.89082 0
M  V30 1014 N 97.5546 -0.734337 1.39446 0
M  V30 1015 C 98.4846 -1.86155 1.40955 0
M  V30 1016 C 99.4656 -1.67898 0.272827 0
M  V30 1017 O 100.651 -1.88207 0.478743 0
M  V30 1018 C 97.7806 -3.23912 1.25294 0
M  V30 1019 C 96.7346 -3.56808 2.36373 0
M  V30 1020 C 96.0606 -4.93508 2.058 0
M  V30 1021 C 97.3606 -3.59713 3.78687 0
M  V30 1022 H 99.0546 -1.8515 2.35287 0
M  V30 1023 H 96.6006 -0.889367 1.13253 0
M  V30 1024 H 98.5536 -4.02443 1.2497 0
M  V30 1025 H 97.2776 -3.25446 0.274308 0
M  V30 1026 H 95.9366 -2.80606 2.35914 0
M  V30 1027 H 95.5846 -4.91623 1.06374 0
M  V30 1028 H 95.2846 -5.16486 2.80208 0
M  V30 1029 H 96.8086 -5.74396 2.07128 0
M  V30 1030 H 98.2226 -4.2832 3.81071 0
M  V30 1031 H 96.6196 -3.94209 4.52459 0
M  V30 1032 H 97.6896 -2.59504 4.09617 0
M  V30 1033 N 99.0327 -1.24633 -0.964593 0
M  V30 1034 C 99.9647 -0.999302 -2.06268 0
M  V30 1035 C 100.978 0.0323226 -1.62768 0
M  V30 1036 O 102.167 -0.205079 -1.77318 0
M  V30 1037 C 99.2667 -0.486816 -3.35385 0
M  V30 1038 C 98.4397 -1.5823 -4.07777 0
M  V30 1039 C 97.4987 -1.07191 -5.15166 0
M  V30 1040 O 96.5247 -1.76426 -5.41168 0
M  V30 1041 N 97.7267 0.0920373 -5.80427 0
M  V30 1042 H 100.492 -1.94477 -2.28033 0
M  V30 1043 H 98.0527 -1.15704 -1.13244 0
M  V30 1044 H 100.045 -0.130066 -4.04491 0
M  V30 1045 H 98.6147 0.364459 -3.10468 0
M  V30 1046 H 97.8347 -2.11109 -3.32906 0
M  V30 1047 H 99.1227 -2.31854 -4.52903 0
M  V30 1048 H 98.5207 0.670784 -5.61709 0
M  V30 1049 H 97.0777 0.389905 -6.50633 0
M  V30 1050 N 100.511 1.16574 -1.06058 0
M  V30 1051 C 101.759 1.86677 -0.77434 0
M  V30 1052 C 102.08 1.81959 0.701147 0
M  V30 1053 O 101.35 1.2515 1.50713 0
M  V30 1054 H 99.9298 0.691134 -0.283449 0
M  V30 1055 H 102.592 1.41378 -1.34158 0
M  V30 1056 H 101.688 2.92181 -1.09711 0
M  V30 1057 N 101.989 0.842826 1.3317 0
M  V30 1058 C 102.936 0.276885 2.29133 0
M  V30 1059 C 103.906 -0.609527 1.54512 0
M  V30 1060 O 105.091 -0.546955 1.82792 0
M  V30 1061 C 102.231 -0.538707 3.40869 0
M  V30 1062 C 101.344 0.372169 4.30394 0
M  V30 1063 C 100.479 -0.454908 5.29249 0
M  V30 1064 C 99.5179 0.45411 6.10413 0
M  V30 1065 N 98.6549 -0.335075 7.013 0
M  V30 1066 H 103.495 1.10052 2.76934 0
M  V30 1067 H 101.032 0.554161 1.36262 0
M  V30 1068 H 102.99 -1.02709 4.0436 0
M  V30 1069 H 101.62 -1.32727 2.9425 0
M  V30 1070 H 100.672 0.97888 3.6759 0
M  V30 1071 H 101.984 1.0703 4.87182 0
M  V30 1072 H 101.138 -1.00695 5.98285 0
M  V30 1073 H 99.8769 -1.18646 4.73048 0
M  V30 1074 H 98.8819 1.01813 5.40291 0
M  V30 1075 H 100.107 1.18409 6.68697 0
M  V30 1076 H 98.0529 -1.04994 6.47543 0
M  V30 1077 H 97.9699 0.304262 7.55387 0
M  V30 1078 H 99.2379 -0.869224 7.74638 0
M  V30 1079 N 103.467 -1.45747 0.599634 0
M  V30 1080 C 104.695 -2.06668 0.0978551 0
M  V30 1081 C 105.11 -1.44562 -1.21439 0
M  V30 1082 O 104.467 -0.556923 -1.73795 0
M  V30 1083 C 104.518 -3.61456 -0.0567044 0
M  V30 1084 O 104.239 -4.21242 1.20361 0
M  V30 1085 C 105.74 -4.39345 -0.590869 0
M  V30 1086 H 102.96 -0.667825 0.0651943 0
M  V30 1087 H 105.504 -1.87115 0.82511 0
M  V30 1088 H 103.659 -3.80378 -0.734251 0
M  V30 1089 H 104.073 -5.14323 1.02821 0
M  V30 1090 H 105.547 -5.48182 -0.648131 0
M  V30 1091 H 106.024 -4.08568 -1.61147 0
M  V30 1092 H 106.63 -4.25268 0.0523679 0
M  V30 1093 N 104.945 -0.338344 -1.53925 0
M  V30 1094 C 105.892 0.520845 -2.24846 0
M  V30 1095 C 106.862 1.09976 -1.24477 0
M  V30 1096 O 108.047 1.13735 -1.53196 0
M  V30 1097 C 105.187 1.6685 -3.02084 0
M  V30 1098 C 104.3 1.11739 -4.17299 0
M  V30 1099 C 103.435 2.23193 -4.82036 0
M  V30 1100 C 102.474 1.65407 -5.89328 0
M  V30 1101 N 101.611 2.70582 -6.47866 0
M  V30 1102 H 106.451 -0.0904881 -2.97863 0
M  V30 1103 H 103.988 -0.0564282 -1.46992 0
M  V30 1104 H 105.946 2.34407 -3.45122 0
M  V30 1105 H 104.576 2.2509 -2.31375 0
M  V30 1106 H 103.628 0.332919 -3.7894 0
M  V30 1107 H 104.94 0.654677 -4.94485 0
M  V30 1108 H 104.094 2.98626 -5.28117 0
M  V30 1109 H 102.833 2.72807 -4.04262 0
M  V30 1110 H 101.838 0.884779 -5.42634 0
M  V30 1111 H 103.063 1.16652 -6.69006 0
M  V30 1112 H 101.009 3.1946 -5.72959 0
M  V30 1113 H 100.926 2.28917 -7.20509 0
M  V30 1114 H 102.194 3.45799 -6.98601 0
M  V30 1115 N 106.423 1.57458 -0.0668435 0
M  V30 1116 C 107.651 1.97624 0.612565 0
M  V30 1117 C 108.066 0.94502 1.63447 0
M  V30 1118 O 107.423 -0.0689276 1.8237 0
M  V30 1119 C 107.474 3.37869 1.28555 0
M  V30 1120 O 107.195 4.3704 0.304557 0
M  V30 1121 C 108.696 3.92882 2.05325 0
M  V30 1122 H 105.916 0.650045 0.166381 0
M  V30 1123 H 108.46 2.04035 -0.137782 0
M  V30 1124 H 106.615 3.3256 1.98702 0
M  V30 1125 H 107.029 5.18565 0.786779 0
M  V30 1126 H 108.503 4.93247 2.47812 0
M  V30 1127 H 108.98 3.29156 2.9078 0
M  V30 1128 H 109.586 4.01577 1.40056 0
M  V30 1129 N 107.901 -0.206675 1.56239 0
M  V30 1130 C 108.849 -1.27571 1.94495 0
M  V30 1131 C 109.843 -1.47737 0.828862 0
M  V30 1132 O 111.049 -1.48735 1.0138 0
M  V30 1133 H 107.424 -0.428029 0.6183 0
M  V30 1134 H 109.395 -0.925961 2.8367 0
M  V30 1135 C 108.144 -2.61568 2.29079 0
M  V30 1136 H 107.467 -2.46863 3.14482 0
M  V30 1137 H 108.907 -3.35144 2.5972 0
M  V30 1138 C 107.366 -3.17695 1.12123 0
M  V30 1139 O 107.896 -3.99801 0.390153 0
M  V30 1140 N 106.102 -2.76276 0.901097 0
M  V30 1141 H 105.649 -2.09613 1.49733 0
M  V30 1142 H 105.607 -3.1417 0.120319 0
M  V30 1143 N 109.379 -1.50304 -0.473955 0
M  V30 1144 C 110.327 -1.69482 -1.59307 0
M  V30 1145 C 111.321 -0.560669 -1.59853 0
M  V30 1146 O 112.527 -0.741087 -1.64036 0
M  V30 1147 H 108.902 -0.534892 -0.528578 0
M  V30 1148 H 110.873 -2.63364 -1.40293 0
M  V30 1149 C 109.622 -1.80354 -2.97267 0
M  V30 1150 H 108.945 -2.67012 -2.97564 0
M  V30 1151 H 110.385 -1.97798 -3.75036 0
M  V30 1152 C 108.844 -0.55448 -3.32306 0
M  V30 1153 O 109.374 0.307661 -4.0052 0
M  V30 1154 N 107.58 -0.409354 -2.87702 0
M  V30 1155 H 107.127 -1.11196 -2.32364 0
M  V30 1156 H 107.085 0.425223 -3.11511 0
M  V30 1157 N 110.857 0.726932 -1.39834 0
M  V30 1158 C 111.805 1.86235 -1.39353 0
M  V30 1159 C 112.799 1.67144 -0.275555 0
M  V30 1160 O 114.005 1.74387 -0.44601 0
M  V30 1161 H 110.38 0.613174 -0.43534 0
M  V30 1162 H 112.351 1.83756 -2.35109 0
M  V30 1163 C 111.1 3.23995 -1.26185 0
M  V30 1164 H 110.423 3.39285 -2.11484 0
M  V30 1165 H 111.863 4.03609 -1.29907 0
M  V30 1166 C 110.322 3.36888 0.0290018 0
M  V30 1167 O 110.852 3.89152 0.99619 0
M  V30 1168 N 109.058 2.90446 0.0947437 0
M  V30 1169 H 108.605 2.48102 -0.693035 0
M  V30 1170 H 108.563 2.99451 0.957932 0
M  V30 1171 N 112.336 1.25143 0.95797 0
M  V30 1172 C 113.582 1.09855 1.70469 0
M  V30 1173 C 113.915 -0.360187 1.90831 0
M  V30 1174 O 113.19 -1.26568 1.47685 0
M  V30 1175 C 113.473 1.8497 3.08963 0
M  V30 1176 C 113.326 3.38652 2.96032 0
M  V30 1177 C 114.645 1.63016 4.08795 0
M  V30 1178 H 111.764 0.400465 0.618706 0
M  V30 1179 H 114.406 1.53933 1.11376 0
M  V30 1180 H 112.556 1.47505 3.59409 0
M  V30 1181 H 114.228 3.85772 2.52938 0
M  V30 1182 H 112.471 3.66534 2.32025 0
M  V30 1183 H 113.142 3.8642 3.94187 0
M  V30 1184 H 115.618 1.95625 3.67247 0
M  V30 1185 H 114.494 2.18015 5.03747 0
M  V30 1186 H 114.755 0.570692 4.38401 0
M  V30 1187 N 113.814 -1.1601 1.06675 0
M  V30 1188 C 115.039 -1.91068 0.806706 0
M  V30 1189 C 115.464 -1.77112 -0.633485 0
M  V30 1190 O 114.822 -1.09908 -1.44187 0
M  V30 1191 C 114.87 -3.39655 1.21106 0
M  V30 1192 O 113.974 -4.10893 0.352189 0
M  V30 1193 H 113.315 -0.595125 0.294486 0
M  V30 1194 H 115.845 -1.46955 1.42356 0
M  V30 1195 H 115.855 -3.90434 1.18428 0
M  V30 1196 H 114.53 -3.49132 2.26008 0
M  V30 1197 H 113.107 -3.70285 0.440868 0
M  V30 1198 N 115.292 -0.849877 -1.32721 0
M  V30 1199 C 116.222 -0.306308 -2.31482 0
M  V30 1200 C 117.203 0.591952 -1.59468 0
M  V30 1201 O 118.388 0.513199 -1.87296 0
M  V30 1202 C 115.518 0.510204 -3.43532 0
M  V30 1203 C 114.472 -0.293209 -4.26994 0
M  V30 1204 C 113.798 0.647743 -5.30762 0
M  V30 1205 C 115.098 -1.51634 -4.99804 0
M  V30 1206 H 116.792 -1.13153 -2.77195 0
M  V30 1207 H 114.338 -0.545553 -1.33266 0
M  V30 1208 H 116.291 0.900856 -4.11658 0
M  V30 1209 H 115.015 1.36874 -2.96535 0
M  V30 1210 H 113.674 -0.665555 -3.60508 0
M  V30 1211 H 113.322 1.50299 -4.8002 0
M  V30 1212 H 113.022 0.11422 -5.87489 0
M  V30 1213 H 114.546 1.03567 -6.01753 0
M  V30 1214 H 115.96 -1.19824 -5.60638 0
M  V30 1215 H 114.357 -1.98745 -5.66234 0
M  V30 1216 H 115.427 -2.28018 -4.27943 0
M  V30 1217 N 116.77 1.45427 -0.607355 0
M  V30 1218 C 118.018 2.01841 -0.102253 0
M  V30 1219 C 118.339 1.47832 1.27164 0
M  V30 1220 O 117.609 0.672497 1.83995 0
M  V30 1221 H 116.189 0.746188 -0.0348101 0
M  V30 1222 H 118.851 1.78229 -0.7887 0
M  V30 1223 H 117.947 3.12057 -0.0518585 0
M  V30 1224 N 118.248 0.346503 1.53744 0
M  V30 1225 C 119.178 -0.501193 2.28058 0
M  V30 1226 C 120.159 -1.10014 1.29734 0
M  V30 1227 O 121.344 -1.12097 1.58581 0
M  V30 1228 C 118.474 -1.65078 3.05559 0
M  V30 1229 C 117.428 -1.18003 4.11411 0
M  V30 1230 C 116.754 -2.41837 4.76884 0
M  V30 1231 C 118.054 -0.278394 5.21558 0
M  V30 1232 H 119.748 0.11875 2.99164 0
M  V30 1233 H 117.294 0.0585531 1.43881 0
M  V30 1234 H 119.247 -2.25028 3.56287 0
M  V30 1235 H 117.971 -2.29767 2.32109 0
M  V30 1236 H 116.63 -0.603331 3.61601 0
M  V30 1237 H 116.278 -3.0494 4.00026 0
M  V30 1238 H 115.978 -2.1102 5.48402 0
M  V30 1239 H 117.502 -3.02508 5.30397 0
M  V30 1240 H 118.916 -0.784823 5.67903 0
M  V30 1241 H 117.313 -0.0619707 6.00068 0
M  V30 1242 H 118.383 0.684677 4.80042 0
M  V30 1243 N 119.726 -1.57421 0.075193 0
M  V30 1244 C 120.689 -2.11791 -0.876203 0
M  V30 1245 C 121.689 -1.04268 -1.22412 0
M  V30 1246 O 122.879 -1.30242 -1.15684 0
M  V30 1247 C 120.011 -2.62207 -2.17854 0
M  V30 1248 H 121.204 -2.9716 -0.40444 0
M  V30 1249 H 118.757 -1.55333 -0.173557 0
M  V30 1250 H 119.492 -1.803 -2.6956 0
M  V30 1251 H 119.277 -3.40802 -1.93897 0
M  V30 1252 H 120.767 -3.04335 -2.85955 0
M  V30 1253 N 121.204 0.198386 -1.56346 0
M  V30 1254 C 122.481 0.944982 -1.71258 0
M  V30 1255 C 122.861 2.0151 -0.629048 0
M  V30 1256 O 122.209 2.25639 0.360473 0
M  V30 1257 C 122.419 1.5344 -3.1346 0
M  V30 1258 C 123.767 2.01778 -3.73591 0
M  V30 1259 O 124.791 1.63288 -3.16568 0
M  V30 1260 O 123.65 2.72594 -4.73661 0
M  V30 1261 H 120.744 0.442939 -0.69838 0
M  V30 1262 H 123.29 0.188342 -1.68652 0
M  V30 1263 H 122.062 0.762869 -3.83792 0
M  V30 1264 H 121.685 2.35596 -3.20282 0
M  V30 1265 N 122.682 1.50554 0.465978 0
M  V30 1266 C 123.612 1.72722 1.57128 0
M  V30 1267 C 124.593 0.576294 1.6004 0
M  V30 1268 O 125.778 0.81598 1.76225 0
M  V30 1269 C 122.908 1.82605 2.95419 0
M  V30 1270 C 121.862 2.97835 3.07373 0
M  V30 1271 C 121.188 2.92867 4.47363 0
M  V30 1272 C 122.488 4.38265 2.84114 0
M  V30 1273 H 124.182 2.65267 1.38829 0
M  V30 1274 H 121.728 1.2765 0.666441 0
M  V30 1275 H 123.681 1.96698 3.72677 0
M  V30 1276 H 122.405 0.866858 3.14886 0
M  V30 1277 H 121.064 2.83401 2.3255 0
M  V30 1278 H 120.712 1.94783 4.63755 0
M  V30 1279 H 120.412 3.70227 4.56296 0
M  V30 1280 H 121.936 3.09015 5.26633 0
M  V30 1281 H 123.35 4.53198 3.51118 0
M  V30 1282 H 121.747 5.17115 3.04487 0
M  V30 1283 H 122.817 4.50281 1.7993 0
M  V30 1284 N 124.16 -0.719506 1.40217 0
M  V30 1285 C 125.123 -1.8153 1.39927 0
M  V30 1286 C 126.123 -1.58095 0.293723 0
M  V30 1287 O 127.313 -1.65209 0.552429 0
M  V30 1288 C 124.445 -3.19561 1.18716 0
M  V30 1289 H 125.638 -1.83186 2.37451 0
M  V30 1290 H 123.191 -0.924746 1.26008 0
M  V30 1291 H 123.926 -3.23557 0.219366 0
M  V30 1292 H 123.711 -3.3797 1.98793 0
M  V30 1293 H 125.201 -3.99598 1.21291 0
M  V30 1294 N 125.638 -1.25649 -0.95132 0
M  V30 1295 C 126.886 -1.10375 -1.69298 0
M  V30 1296 C 127.207 0.355339 -1.91735 0
M  V30 1297 O 126.477 1.25188 -1.50681 0
M  V30 1298 H 125.057 -0.405461 -0.627384 0
M  V30 1299 H 127.719 -1.57823 -1.14358 0
M  V30 1300 H 126.815 -1.61465 -2.67087 0
M  V30 1301 N 127.117 1.15442 -1.07289 0
M  V30 1302 C 128.08 2.18358 -0.696591 0
M  V30 1303 C 129.08 1.58637 0.262837 0
M  V30 1304 O 130.27 1.74145 0.0438809 0
M  V30 1305 C 127.402 3.4089 -0.0266151 0
M  V30 1306 H 128.595 2.53162 -1.60776 0
M  V30 1307 H 126.148 1.29893 -0.869342 0
M  V30 1308 H 126.883 3.11653 0.896822 0
M  V30 1309 H 126.668 3.85495 -0.716657 0
M  V30 1310 H 128.158 4.17009 0.222028 0
M  V30 1311 N 128.595 0.856903 1.32268 0
M  V30 1312 C 129.505 0.306131 2.32594 0
M  V30 1313 C 130.521 -0.577209 1.64147 0
M  V30 1314 O 131.697 -0.477043 1.95669 0
M  V30 1315 C 128.762 -0.494561 3.43154 0
M  V30 1316 C 127.823 0.415186 4.27288 0
M  V30 1317 C 127.056 -0.347387 5.32568 0
M  V30 1318 O 127.279 -1.57708 5.48165 0
M  V30 1319 O 126.213 0.287982 6.01211 0
M  V30 1320 H 130.039 1.13737 2.81598 0
M  V30 1321 H 127.624 0.619902 1.35932 0
M  V30 1322 H 129.506 -0.948944 4.10576 0
M  V30 1323 H 128.181 -1.30257 2.96336 0
M  V30 1324 H 127.088 0.917793 3.62667 0
M  V30 1325 H 128.421 1.18844 4.77637 0
M  V30 1326 N 130.073 -1.45103 0.615059 0
M  V30 1327 C 131.484 -1.85654 0.197383 0
M  V30 1328 C 131.835 -1.51433 -1.24749 0
M  V30 1329 O 130.96 -0.944608 -1.94695 0
M  V30 1330 C 131.555 -3.36972 0.351448 0
M  V30 1331 C 130.114 -3.76398 -0.011593 0
M  V30 1332 C 129.261 -2.69024 0.672394 0
M  V30 1333 H 132.212 -1.35797 0.821263 0
M  V30 1334 H 132.233 -3.78239 -0.414227 0
M  V30 1335 H 131.745 -3.61847 1.40314 0
M  V30 1336 H 129.846 -3.5714 -1.06217 0
M  V30 1337 H 129.959 -4.77532 0.387265 0
M  V30 1338 H 128.323 -2.54465 0.109284 0
M  V30 1339 H 129.106 -2.96735 1.72636 0
M  V30 1340 N 131.551 -0.354651 -1.53558 0
M  V30 1341 C 132.967 -0.00315426 -1.596 0
M  V30 1342 C 133.167 1.47741 -1.37021 0
M  V30 1343 O 132.223 2.23759 -1.16996 0
M  V30 1344 C 133.536 -0.44929 -2.97325 0
M  V30 1345 C 135.084 -0.402578 -3.104 0
M  V30 1346 C 135.559 -0.824355 -4.5052 0
M  V30 1347 N 137.05 -0.778979 -4.56603 0
M  V30 1348 C 137.785 -1.07715 -5.63192 0
M  V30 1349 N 137.281 -1.44405 -6.77583 0
M  V30 1350 N 139.074 -1.00066 -5.53121 0
M  V30 1351 H 131.225 -1.31893 -1.66487 0
M  V30 1352 H 133.488 -0.538388 -0.780284 0
M  V30 1353 H 133.194 -1.48202 -3.1895 0
M  V30 1354 H 133.068 0.169772 -3.76818 0
M  V30 1355 H 135.455 0.621004 -2.88492 0
M  V30 1356 H 135.536 -1.05699 -2.32941 0
M  V30 1357 H 135.18 -1.846 -4.73165 0
M  V30 1358 H 135.11 -0.147304 -5.26394 0
M  V30 1359 H 137.601 -0.508528 -3.74463 0
M  V30 1360 H 137.914 -1.65612 -7.54846 0
M  V30 1361 H 136.259 -1.4826 -6.79002 0
M  V30 1362 H 139.45 -0.713293 -4.62633 0
M  V30 1363 H 139.623 -1.23638 -6.36096 0
M  V30 1364 N 133.029 1.57378 -0.0835403 0
M  V30 1365 C 134.445 1.57246 0.273109 0
M  V30 1366 C 134.645 1.09385 1.69225 0
M  V30 1367 O 133.701 0.765051 2.40631 0
M  V30 1368 C 135.014 3.00614 0.0720628 0
M  V30 1369 C 136.562 3.12684 0.1407 0
M  V30 1370 C 137.037 4.57989 -0.0322094 0
M  V30 1371 N 138.528 4.63194 0.0230085 0
M  V30 1372 C 139.263 5.73335 -0.0861941 0
M  V30 1373 N 138.759 6.9235 -0.24958 0
M  V30 1374 N 140.552 5.62093 -0.0282886 0
M  V30 1375 H 132.703 1.86801 -1.0109 0
M  V30 1376 H 134.966 0.861687 -0.395222 0
M  V30 1377 H 134.672 3.39786 -0.907662 0
M  V30 1378 H 134.546 3.68193 0.81936 0
M  V30 1379 H 136.933 2.73391 1.11092 0
M  V30 1380 H 137.014 2.47719 -0.637896 0
M  V30 1381 H 136.658 4.97973 -0.999247 0
M  V30 1382 H 136.588 5.21 0.765937 0
M  V30 1383 H 139.079 3.77613 0.14722 0
M  V30 1384 H 139.392 7.72117 -0.324733 0
M  V30 1385 H 137.737 6.94415 -0.285097 0
M  V30 1386 H 140.928 4.67997 0.0981408 0
M  V30 1387 H 141.101 6.47895 -0.116845 0
M  V30 1388 N 134.507 -0.190092 1.56449 0
M  V30 1389 C 135.784 -0.935886 1.71757 0
M  V30 1390 C 136.164 -2.01173 0.639726 0
M  V30 1391 O 135.512 -2.25827 -0.348502 0
M  V30 1392 C 135.722 -1.51775 3.1427 0
M  V30 1393 C 137.07 -1.99794 3.74656 0
M  V30 1394 O 138.094 -1.61607 3.1743 0
M  V30 1395 O 136.953 -2.70079 4.751 0
M  V30 1396 H 134.047 -0.439229 0.700719 0
M  V30 1397 H 136.593 -0.179395 1.68749 0
M  V30 1398 H 135.365 -0.742505 3.84191 0
M  V30 1399 H 134.988 -2.33894 3.21527 0
M  V30 1400 N 135.985 -1.50799 -0.457987 0
M  V30 1401 C 136.933 -1.71162 -1.575 0
M  V30 1402 C 137.927 -0.577592 -1.59249 0
M  V30 1403 O 139.133 -0.758443 -1.63241 0
M  V30 1404 H 135.508 -0.540468 -0.522875 0
M  V30 1405 H 137.479 -2.64837 -1.37492 0
M  V30 1406 C 136.228 -1.83496 -2.95338 0
M  V30 1407 H 135.551 -2.70153 -2.94716 0
M  V30 1408 H 136.991 -2.01765 -3.72917 0
M  V30 1409 C 135.45 -0.589694 -3.31699 0
M  V30 1410 O 135.98 0.265163 -4.00824 0
M  V30 1411 N 134.186 -0.439845 -2.87252 0
M  V30 1412 H 133.733 -1.13655 -2.31172 0
M  V30 1413 H 133.691 0.392159 -3.11945 0
M  V30 1414 N 137.463 0.71206 -1.40597 0
M  V30 1415 C 138.709 1.47416 -1.39271 0
M  V30 1416 C 139.042 1.942 0.00388791 0
M  V30 1417 O 138.317 1.68403 0.973179 0
M  V30 1418 C 138.6 2.69774 -2.38525 0
M  V30 1419 C 138.453 2.28861 -3.87224 0
M  V30 1420 C 139.772 3.71939 -2.35264 0
M  V30 1421 H 136.891 0.534713 -0.5072 0
M  V30 1422 H 139.533 0.812375 -1.71757 0
M  V30 1423 H 137.683 3.26238 -2.10953 0
M  V30 1424 H 139.355 1.77852 -4.25636 0
M  V30 1425 H 137.598 1.60824 -4.02887 0
M  V30 1426 H 138.269 3.16584 -4.52193 0
M  V30 1427 H 140.745 3.25113 -2.59694 0
M  V30 1428 H 139.621 4.55186 -3.06753 0
M  V30 1429 H 139.882 4.20484 -1.36549 0
M  V30 1430 N 138.941 1.26152 0.944643 0
M  V30 1431 C 139.871 1.09902 2.06019 0
M  V30 1432 C 140.852 0.00519538 1.70099 0
M  V30 1433 O 142.037 0.176583 1.93396 0
M  V30 1434 C 139.167 0.727562 3.39594 0
M  V30 1435 C 138.121 1.77274 3.89561 0
M  V30 1436 C 137.447 1.25569 5.19747 0
M  V30 1437 C 138.747 3.17357 4.14827 0
M  V30 1438 H 140.441 2.03217 2.19871 0
M  V30 1439 H 137.987 0.978452 1.05652 0
M  V30 1440 H 139.94 0.600777 4.17095 0
M  V30 1441 H 138.664 -0.241287 3.25707 0
M  V30 1442 H 137.323 1.88814 3.14237 0
M  V30 1443 H 136.971 0.276783 5.02238 0
M  V30 1444 H 136.671 1.95433 5.54148 0
M  V30 1445 H 138.195 1.1415 5.99835 0
M  V30 1446 H 139.609 3.08914 4.82954 0
M  V30 1447 H 138.006 3.84781 4.60504 0
M  V30 1448 H 139.076 3.63673 3.20734 0
M  V30 1449 N 140.419 -1.14872 1.07899 0
M  V30 1450 C 141.382 -2.17986 0.708161 0
M  V30 1451 C 142.382 -1.58775 -0.25442 0
M  V30 1452 O 143.572 -1.74166 -0.034645 0
M  V30 1453 C 140.704 -3.40871 0.0446929 0
M  V30 1454 H 141.897 -2.52306 1.62116 0
M  V30 1455 H 139.45 -1.2943 0.876218 0
M  V30 1456 H 140.185 -3.12124 -0.880281 0
M  V30 1457 H 139.97 -3.8511 0.737091 0
M  V30 1458 H 141.46 -4.17121 -0.19991 0
M  V30 1459 N 141.898 -0.863906 -1.31812 0
M  V30 1460 C 142.828 -0.330843 -2.31144 0
M  V30 1461 C 143.809 0.575005 -1.60087 0
M  V30 1462 O 144.994 0.493304 -1.8783 0
M  V30 1463 C 142.124 0.47374 -3.44054 0
M  V30 1464 C 141.078 -0.338481 -4.26659 0
M  V30 1465 C 140.404 0.591412 -5.31419 0
M  V30 1466 C 141.704 -1.56926 -4.98168 0
M  V30 1467 H 143.398 -1.16086 -2.75979 0
M  V30 1468 H 140.944 -0.559657 -1.32679 0
M  V30 1469 H 142.897 0.857143 -4.12591 0
M  V30 1470 H 141.621 1.33721 -2.9797 0
M  V30 1471 H 140.28 -0.703754 -3.59782 0
M  V30 1472 H 139.928 1.45199 -4.81587 0
M  V30 1473 H 139.628 0.0519022 -5.87577 0
M  V30 1474 H 141.152 0.97179 -6.02817 0
M  V30 1475 H 142.566 -1.25764 -5.59336 0
M  V30 1476 H 140.963 -2.04739 -5.64094 0
M  V30 1477 H 142.033 -2.32544 -4.25501 0
M  V30 1478 N 143.376 1.44774 -0.622745 0
M  V30 1479 C 144.622 2.0242 -0.124083 0
M  V30 1480 C 144.955 1.4881 1.24777 0
M  V30 1481 O 144.23 0.668799 1.8264 0
M  V30 1482 C 144.513 3.59957 -0.101619 0
M  V30 1483 C 144.366 4.23867 -1.50521 0
M  V30 1484 C 145.685 4.36284 0.578272 0
M  V30 1485 H 142.804 0.735528 -0.0465645 0
M  V30 1486 H 145.446 1.72447 -0.797617 0
M  V30 1487 H 143.596 3.85623 0.471934 0
M  V30 1488 H 145.268 4.09336 -2.12701 0
M  V30 1489 H 143.511 3.81684 -2.06154 0
M  V30 1490 H 144.182 5.32843 -1.4416 0
M  V30 1491 H 146.658 4.16001 0.0906057 0
M  V30 1492 H 145.534 5.46004 0.563149 0
M  V30 1493 H 145.795 4.10271 1.64713 0
M  V30 1494 N 144.854 0.36279 1.53368 0
M  V30 1495 C 145.764 -0.492994 2.29362 0
M  V30 1496 C 146.78 -1.09507 1.35219 0
M  V30 1497 O 147.956 -1.10662 1.68273 0
M  V30 1498 C 145.021 -1.61855 3.066 0
M  V30 1499 C 144.082 -1.04429 4.16405 0
M  V30 1500 C 143.315 -2.11621 4.89951 0
M  V30 1501 O 143.538 -3.32684 4.63333 0
M  V30 1502 O 142.472 -1.74835 5.75948 0
M  V30 1503 H 146.298 0.125331 3.03441 0
M  V30 1504 H 143.883 0.127253 1.48857 0
M  V30 1505 H 145.765 -2.27302 3.54841 0
M  V30 1506 H 144.44 -2.22233 2.3536 0
M  V30 1507 H 143.347 -0.353819 3.72423 0
M  V30 1508 H 144.68 -0.485113 4.89804 0
M  V30 1509 N 146.332 -1.57332 0.0918853 0
M  V30 1510 C 147.579 -1.94236 -0.572577 0
M  V30 1511 C 147.907 -0.973398 -1.6839 0
M  V30 1512 O 147.162 0.00756912 -1.95699 0
M  V30 1513 C 147.461 -3.37689 -1.17051 0
M  V30 1514 C 147.127 -4.50527 -0.183304 0
M  V30 1515 C 145.789 -4.81119 0.0882276 0
M  V30 1516 C 148.141 -5.18883 0.49095 0
M  V30 1517 C 145.469 -5.77395 1.04076 0
M  V30 1518 C 147.821 -6.1618 1.43193 0
M  V30 1519 C 146.485 -6.45179 1.71173 0
M  V30 1520 H 145.755 -0.710762 -0.209521 0
M  V30 1521 H 148.402 -1.9077 0.167036 0
M  V30 1522 H 146.707 -3.37718 -1.9863 0
M  V30 1523 H 148.404 -3.63543 -1.69227 0
M  V30 1524 H 144.994 -4.26681 -0.405124 0
M  V30 1525 H 149.178 -4.95427 0.294312 0
M  V30 1526 H 144.434 -5.98179 1.26457 0
M  V30 1527 H 148.608 -6.68243 1.96023 0
M  V30 1528 H 146.235 -7.1959 2.4514 0
M  V30 1529 N 147.81 0.181792 -1.56548 0
M  V30 1530 C 148.74 1.22765 -1.98623 0
M  V30 1531 C 149.721 1.46747 -0.860189 0
M  V30 1532 O 150.906 1.58259 -1.12551 0
M  V30 1533 C 148.036 2.56894 -2.33715 0
M  V30 1534 C 146.99 2.475 -3.49182 0
M  V30 1535 C 146.316 3.86023 -3.69986 0
M  V30 1536 C 147.616 1.98866 -4.82959 0
M  V30 1537 H 149.31 0.877942 -2.86239 0
M  V30 1538 H 146.856 0.42088 -1.37712 0
M  V30 1539 H 148.809 3.30253 -2.61746 0
M  V30 1540 H 147.533 2.93632 -1.42997 0
M  V30 1541 H 146.192 1.76596 -3.21262 0
M  V30 1542 H 145.84 4.20136 -2.76576 0
M  V30 1543 H 145.54 3.80609 -4.47672 0
M  V30 1544 H 147.064 4.60984 -4.00407 0
M  V30 1545 H 148.478 2.61992 -5.09934 0
M  V30 1546 H 146.875 2.04424 -5.64208 0
M  V30 1547 H 147.945 0.942465 -4.75653 0
M  V30 1548 N 149.288 1.51039 0.449983 0
M  V30 1549 C 150.235 1.71439 1.54523 0
M  V30 1550 C 151.205 0.555871 1.56522 0
M  V30 1551 O 152.39 0.788871 1.73728 0
M  V30 1552 C 149.53 1.83384 2.92343 0
M  V30 1553 C 148.643 3.10873 2.9997 0
M  V30 1554 C 147.778 3.13488 4.28834 0
M  V30 1555 C 146.817 4.35343 4.30282 0
M  V30 1556 N 145.954 4.35579 5.5065 0
M  V30 1557 H 150.794 2.64934 1.36433 0
M  V30 1558 H 148.331 1.31312 0.662982 0
M  V30 1559 H 150.289 1.88291 3.72293 0
M  V30 1560 H 148.919 0.933086 3.0902 0
M  V30 1561 H 147.971 3.15336 2.12761 0
M  V30 1562 H 149.283 4.00814 2.96901 0
M  V30 1563 H 148.437 3.17241 5.17149 0
M  V30 1564 H 147.176 2.21414 4.34543 0
M  V30 1565 H 146.181 4.3178 3.40362 0
M  V30 1566 H 147.406 5.28668 4.26248 0
M  V30 1567 H 145.352 3.46369 5.57104 0
M  V30 1568 H 145.269 5.19313 5.49409 0
M  V30 1569 H 146.537 4.43507 6.41032 0
M  V30 1570 N 150.766 -0.704594 1.40972 0
M  V30 1571 C 151.714 -1.83994 1.42299 0
M  V30 1572 C 152.708 -1.66684 0.302111 0
M  V30 1573 O 153.914 -1.73655 0.473697 0
M  V30 1574 H 150.289 -0.606171 0.44504 0
M  V30 1575 H 152.26 -1.79992 2.38003 0
M  V30 1576 C 151.009 -3.21946 1.31323 0
M  V30 1577 H 150.332 -3.35878 2.16855 0
M  V30 1578 H 151.772 -4.01491 1.36311 0
M  V30 1579 C 150.231 -3.36891 0.0245977 0
M  V30 1580 O 150.761 -3.90687 -0.934153 0
M  V30 1581 N 148.967 -2.90559 -0.0485243 0
M  V30 1582 H 148.514 -2.46968 0.732419 0
M  V30 1583 H 148.472 -3.00937 -0.910171 0
M  V30 1584 N 152.244 -1.26651 -0.937939 0
M  V30 1585 C 153.655 -1.1125 -1.49934 0
M  V30 1586 C 154.006 0.306077 -1.93798 0
M  V30 1587 O 153.131 1.19792 -1.80219 0
M  V30 1588 C 153.726 -2.01339 -2.72485 0
M  V30 1589 C 152.285 -1.90074 -3.24883 0
M  V30 1590 C 151.432 -1.94498 -1.97651 0
M  V30 1591 H 154.383 -1.39693 -0.753091 0
M  V30 1592 H 154.404 -1.56319 -3.46907 0
M  V30 1593 H 153.916 -3.04577 -2.40529 0
M  V30 1594 H 152.017 -0.897827 -3.61621 0
M  V30 1595 H 152.13 -2.75778 -3.9177 0
M  V30 1596 H 150.494 -1.38591 -2.13693 0
M  V30 1597 H 151.277 -2.99372 -1.68022 0
M  V30 1598 N 153.722 1.14298 -1.08507 0
M  V30 1599 C 154.669 2.19414 -0.715965 0
M  V30 1600 C 155.639 1.63399 0.298326 0
M  V30 1601 O 156.824 1.89929 0.182101 0
M  V30 1602 C 153.964 3.44845 -0.132534 0
M  V30 1603 C 153.077 4.15007 -1.19973 0
M  V30 1604 C 152.212 5.28024 -0.580048 0
M  V30 1605 C 151.251 5.9002 -1.62921 0
M  V30 1606 N 150.388 6.94485 -1.03125 0
M  V30 1607 H 155.228 2.50336 -1.61666 0
M  V30 1608 H 152.765 1.2293 -0.807882 0
M  V30 1609 H 154.723 4.16601 0.223454 0
M  V30 1610 H 153.353 3.14403 0.731467 0
M  V30 1611 H 152.405 3.41629 -1.67313 0
M  V30 1612 H 153.717 4.57178 -1.99473 0
M  V30 1613 H 152.871 6.06455 -0.172364 0
M  V30 1614 H 151.61 4.87076 0.246603 0
M  V30 1615 H 150.615 5.10291 -2.04654 0
M  V30 1616 H 151.84 6.33042 -2.45835 0
M  V30 1617 H 149.786 6.55612 -0.225711 0
M  V30 1618 H 149.703 7.35148 -1.76334 0
M  V30 1619 H 150.971 7.7679 -0.649458 0
M  V30 1620 N 155.201 0.870884 1.31352 0
M  V30 1621 C 156.426 0.495957 2.01383 0
M  V30 1622 C 156.851 -0.904324 1.64935 0
M  V30 1623 O 156.209 -1.59687 0.858466 0
M  V30 1624 C 156.257 0.661433 3.54482 0
M  V30 1625 O 155.361 -0.298851 4.11316 0
M  V30 1626 H 154.702 0.197158 0.634054 0
M  V30 1627 H 157.232 1.17455 1.67527 0
M  V30 1628 H 157.242 0.555072 4.04207 0
M  V30 1629 H 155.917 1.68246 3.8035 0
M  V30 1630 H 154.494 -0.147368 3.72609 0
M  V30 1631 N 156.679 -1.44442 0.630414 0
M  V30 1632 C 157.909 -2.06115 0.141465 0
M  V30 1633 C 158.317 -1.47179 -1.1889 0
M  V30 1634 O 157.66 -0.588873 -1.74006 0
M  V30 1635 C 157.722 -3.59467 -0.0484355 0
M  V30 1636 C 157.386 -4.40864 1.20366 0
M  V30 1637 C 158.383 -4.74391 2.12719 0
M  V30 1638 C 156.068 -4.8125 1.43887 0
M  V30 1639 C 158.062 -5.47186 3.26904 0
M  V30 1640 C 155.749 -5.53795 2.5837 0
M  V30 1641 C 156.747 -5.86682 3.49705 0
M  V30 1642 O 156.435 -6.57749 4.62191 0
M  V30 1643 H 156.167 -0.671648 0.0765792 0
M  V30 1644 H 158.721 -1.86312 0.864695 0
M  V30 1645 H 156.951 -3.77758 -0.826803 0
M  V30 1646 H 158.64 -4.02909 -0.491849 0
M  V30 1647 H 159.406 -4.43728 1.95781 0
M  V30 1648 H 155.285 -4.55073 0.736853 0
M  V30 1649 H 158.829 -5.72773 3.98217 0
M  V30 1650 H 154.726 -5.83872 2.75251 0
M  V30 1651 H 155.494 -6.76217 4.61164 0
M  V30 1652 N 158.157 -0.370918 -1.53173 0
M  V30 1653 C 159.434 0.273754 -1.93675 0
M  V30 1654 C 159.814 1.65938 -1.3049 0
M  V30 1655 O 159.162 2.23698 -0.465999 0
M  V30 1656 C 159.372 0.318602 -3.47543 0
M  V30 1657 C 160.72 0.556392 -4.20939 0
M  V30 1658 O 161.744 0.399587 -3.53952 0
M  V30 1659 O 160.603 0.862133 -5.39657 0
M  V30 1660 H 157.697 0.165448 -0.810281 0
M  V30 1661 H 160.243 -0.42409 -1.64315 0
M  V30 1662 H 159.015 -0.652687 -3.85818 0
M  V30 1663 H 158.638 1.06212 -3.83151 0
M  V30 1664 N 159.635 1.57281 -0.100228 0
M  V30 1665 C 160.883 1.94153 0.561157 0
M  V30 1666 C 161.204 0.983157 1.68401 0
M  V30 1667 O 160.474 0.0361132 1.95867 0
M  V30 1668 H 159.054 0.716791 0.210283 0
M  V30 1669 H 161.716 1.94202 -0.164765 0
M  V30 1670 H 160.812 2.96709 0.968008 0
M  V30 1671 N 161.113 -0.173488 1.56642 0
M  V30 1672 C 162.023 -1.23482 1.99473 0
M  V30 1673 C 163.039 -1.48567 0.905752 0
M  V30 1674 O 164.215 -1.60758 1.21321 0
M  V30 1675 C 161.28 -2.55444 2.34413 0
M  V30 1676 C 160.341 -2.38241 3.57127 0
M  V30 1677 C 159.574 -3.63909 3.90392 0
M  V30 1678 O 159.797 -4.68996 3.24653 0
M  V30 1679 O 158.731 -3.58149 4.83749 0
M  V30 1680 H 162.557 -0.901279 2.90018 0
M  V30 1681 H 160.142 -0.380185 1.44482 0
M  V30 1682 H 162.024 -3.33292 2.57865 0
M  V30 1683 H 160.699 -2.88382 1.4703 0
M  V30 1684 H 159.606 -1.58431 3.38896 0
M  V30 1685 H 160.939 -2.10228 4.45045 0
M  V30 1686 N 162.591 -1.51276 -0.441967 0
M  V30 1687 C 163.868 -1.54252 -1.20273 0
M  V30 1688 C 164.248 -0.30408 -2.08898 0
M  V30 1689 O 163.596 0.711084 -2.17154 0
M  V30 1690 C 163.806 -2.85406 -2.00859 0
M  V30 1691 C 165.154 -3.37181 -2.58059 0
M  V30 1692 O 166.178 -2.86925 -2.11074 0
M  V30 1693 O 165.037 -4.24858 -3.43741 0
M  V30 1694 H 162.131 -0.619969 -0.547328 0
M  V30 1695 H 164.677 -1.63586 -0.451413 0
M  V30 1696 H 163.449 -3.67003 -1.35736 0
M  V30 1697 H 163.072 -2.79213 -2.83065 0
M  V30 1698 N 164.069 0.697108 -1.41344 0
M  V30 1699 C 165.346 1.45154 -1.31109 0
M  V30 1700 C 165.726 2.11009 0.0620449 0
M  V30 1701 O 165.074 2.01571 1.07618 0
M  V30 1702 C 165.284 2.47223 -2.46337 0
M  V30 1703 C 166.632 3.1252 -2.87431 0
M  V30 1704 O 167.656 2.57547 -2.46065 0
M  V30 1705 O 166.515 4.12083 -3.58957 0
M  V30 1706 H 163.609 0.646365 -0.515889 0
M  V30 1707 H 166.155 0.727716 -1.53305 0
M  V30 1708 H 164.927 1.97204 -3.37974 0
M  V30 1709 H 164.55 3.27116 -2.2601 0
M  V30 1710 N 165.547 1.27147 0.931209 0
M  V30 1711 C 166.777 1.15914 1.71019 0
M  V30 1712 C 167.185 -0.287112 1.87009 0
M  V30 1713 O 166.528 -1.20761 1.38429 0
M  V30 1714 C 166.59 1.76647 3.13107 0
M  V30 1715 C 166.254 3.25807 3.20467 0
M  V30 1716 C 167.251 4.22489 3.02983 0
M  V30 1717 C 164.936 3.66452 3.43538 0
M  V30 1718 C 166.93 5.57794 3.08454 0
M  V30 1719 C 164.617 5.01888 3.48643 0
M  V30 1720 C 165.615 5.97369 3.31119 0
M  V30 1721 O 165.303 7.30337 3.35952 0
M  V30 1722 H 165.035 0.404062 0.54195 0
M  V30 1723 H 167.589 1.68457 1.17521 0
M  V30 1724 H 165.819 1.18578 3.68071 0
M  V30 1725 H 167.508 1.60179 3.72958 0
M  V30 1726 H 168.274 3.92425 2.85004 0
M  V30 1727 H 164.153 2.92611 3.5623 0
M  V30 1728 H 167.697 6.32298 2.94694 0
M  V30 1729 H 163.594 5.31609 3.66145 0
M  V30 1730 H 164.362 7.38739 3.5243 0
M  V30 1731 N 167.025 -1.13721 1.09112 0
M  V30 1732 C 168.25 -1.89314 0.847053 0
M  V30 1733 C 168.675 -1.78416 -0.595774 0
M  V30 1734 O 168.033 -1.12942 -1.41823 0
M  V30 1735 C 168.081 -3.3701 1.28284 0
M  V30 1736 O 167.185 -4.10054 0.439267 0
M  V30 1737 H 166.526 -0.588745 0.307044 0
M  V30 1738 H 169.056 -1.43902 1.45442 0
M  V30 1739 H 169.066 -3.87834 1.26683 0
M  V30 1740 H 167.741 -3.4426 2.33363 0
M  V30 1741 H 166.318 -3.69266 0.519312 0
M  V30 1742 N 168.503 -0.877838 -1.30888 0
M  V30 1743 C 169.413 -0.343096 -2.32078 0
M  V30 1744 C 170.429 0.551022 -1.65045 0
M  V30 1745 O 171.605 0.445854 -1.96403 0
M  V30 1746 C 168.67 0.439905 -3.43898 0
M  V30 1747 C 167.731 -0.483111 -4.26573 0
M  V30 1748 C 166.964 0.262616 -5.33053 0
M  V30 1749 O 167.187 1.48967 -5.50604 0
M  V30 1750 O 166.121 -0.383593 -6.00676 0
M  V30 1751 H 169.947 -1.18203 -2.79753 0
M  V30 1752 H 167.532 -0.64145 -1.34929 0
M  V30 1753 H 169.414 0.883504 -4.12034 0
M  V30 1754 H 168.089 1.25526 -2.98371 0
M  V30 1755 H 166.996 -0.975374 -3.61161 0
M  V30 1756 H 168.329 -1.26427 -4.75686 0
M  V30 1757 N 169.982 1.44106 -0.638065 0
M  V30 1758 C 170.912 2.33448 0.0494287 0
M  V30 1759 C 171.893 1.48606 0.827672 0
M  V30 1760 O 173.078 1.77308 0.792173 0
M  V30 1761 C 170.208 3.31771 1.02691 0
M  V30 1762 C 169.162 4.26485 0.359823 0
M  V30 1763 C 168.488 5.14729 1.44769 0
M  V30 1764 C 169.788 5.17056 -0.738296 0
M  V30 1765 H 171.482 2.91183 -0.696636 0
M  V30 1766 H 169.028 1.40014 -0.336456 0
M  V30 1767 H 170.981 3.93161 1.51666 0
M  V30 1768 H 169.705 2.7226 1.80395 0
M  V30 1769 H 168.364 3.66437 -0.10934 0
M  V30 1770 H 168.012 4.51566 2.21578 0
M  V30 1771 H 167.712 5.78913 1.00668 0
M  V30 1772 H 169.236 5.78991 1.93911 0
M  V30 1773 H 170.65 5.72342 -0.331354 0
M  V30 1774 H 169.047 5.89879 -1.10286 0
M  V30 1775 H 170.117 4.57652 -1.60258 0
M  V30 1776 N 171.46 0.379036 1.52974 0
M  V30 1777 C 172.41 -0.477772 2.22938 0
M  V30 1778 C 173.394 -1.03792 1.22948 0
M  V30 1779 O 174.586 -0.965725 1.48333 0
M  V30 1780 C 171.715 -1.60994 3.03209 0
M  V30 1781 C 170.801 -1.06203 4.10587 0
M  V30 1782 N 171.192 -0.238214 5.05239 0
M  V30 1783 C 169.49 -1.33554 4.25534 0
M  V30 1784 C 170.191 0.0633235 5.81666 0
M  V30 1785 N 169.167 -0.537901 5.40932 0
M  V30 1786 H 172.969 0.158295 2.93473 0
M  V30 1787 H 170.483 0.187778 1.61311 0
M  V30 1788 H 172.48 -2.23607 3.5186 0
M  V30 1789 H 171.14 -2.24893 2.34207 0
M  V30 1790 H 172.151 0.123695 5.17752 0
M  V30 1791 H 168.828 -1.97632 3.6776 0
M  V30 1792 H 170.218 0.730161 6.67921 0
M  V30 1793 N 172.938 -1.57226 0.108567 0
M  V30 1794 C 174.349 -1.8195 -0.418464 0
M  V30 1795 C 174.7 -1.02508 -1.67292 0
M  V30 1796 O 173.825 -0.258496 -2.14851 0
M  V30 1797 C 174.42 -3.30028 -0.765979 0
M  V30 1798 C 172.979 -3.55469 -1.23769 0
M  V30 1799 C 172.126 -2.7625 -0.241106 0
M  V30 1800 H 175.077 -1.55149 0.33384 0
M  V30 1801 H 175.098 -3.44086 -1.62434 0
M  V30 1802 H 174.61 -3.87821 0.147219 0
M  V30 1803 H 172.711 -3.03022 -2.16814 0
M  V30 1804 H 172.824 -4.6408 -1.19022 0
M  V30 1805 H 171.188 -2.44133 -0.72602 0
M  V30 1806 H 171.971 -3.36797 0.665007 0
M  V30 1807 N 174.416 0.165178 -1.56732 0
M  V30 1808 C 175.364 1.22369 -1.97809 0
M  V30 1809 C 176.358 1.45488 -0.867741 0
M  V30 1810 O 177.564 1.45995 -1.05288 0
M  V30 1811 H 173.939 0.411486 -0.629431 0
M  V30 1812 H 175.91 0.850425 -2.86025 0
M  V30 1813 C 174.659 2.55403 -2.35934 0
M  V30 1814 H 173.982 2.38438 -3.20916 0
M  V30 1815 H 175.422 3.2814 -2.68514 0
M  V30 1816 C 173.881 3.14611 -1.20506 0
M  V30 1817 O 174.411 3.98626 -0.496016 0
M  V30 1818 N 172.617 2.7379 -0.97403 0
M  V30 1819 H 172.164 2.0557 -1.55238 0
M  V30 1820 H 172.122 3.1374 -0.203573 0
M  V30 1821 N 175.894 1.51508 0.433938 0
M  V30 1822 C 177.143 1.63578 1.18005 0
M  V30 1823 C 177.456 0.359514 1.92268 0
M  V30 1824 O 178.662 0.359632 2.69108 0
M  V30 1825 C 177.118 2.88901 2.14626 0
M  V30 1826 C 176.726 4.23544 1.45995 0
M  V30 1827 C 178.47 3.10328 2.89649 0
M  V30 1828 C 176.377 5.40014 2.4112 0
M  V30 1829 H 175.307 0.609277 0.444182 0
M  V30 1830 H 177.958 1.77978 0.446773 0
M  V30 1831 H 176.34 2.68142 2.91403 0
M  V30 1832 H 177.514 4.54696 0.747532 0
M  V30 1833 H 175.829 4.08021 0.831115 0
M  V30 1834 H 178.426 3.94518 3.60915 0
M  V30 1835 H 178.769 2.23544 3.51189 0
M  V30 1836 H 179.302 3.31443 2.19978 0
M  V30 1837 H 176.041 6.29068 1.84264 0
M  V30 1838 H 175.561 5.13233 3.10406 0
M  V30 1839 H 177.24 5.72099 3.02177 0
M  V30 1840 N 177.372 -0.689602 1.41712 0
M  V30 1841 C 178.597 -1.48329 1.44959 0
M  V30 1842 C 179.022 -1.8801 0.0581283 0
M  V30 1843 O 178.38 -1.55026 -0.940035 0
M  V30 1844 C 178.428 -2.71835 2.36935 0
M  V30 1845 O 177.532 -3.69549 1.8305 0
M  V30 1846 H 176.873 -0.446199 0.491734 0
M  V30 1847 H 179.403 -0.847127 1.86239 0
M  V30 1848 H 179.413 -3.20076 2.53013 0
M  V30 1849 H 178.088 -2.42291 3.38035 0
M  V30 1850 H 176.665 -3.2851 1.76452 0
M  V30 1851 N 178.85 -1.27639 -0.924453 0
M  V30 1852 C 180.266 -1.05113 -1.20097 0
M  V30 1853 C 180.466 0.213262 -2.00368 0
M  V30 1854 O 179.522 0.91787 -2.35226 0
M  V30 1855 C 180.835 -2.29244 -1.94596 0
M  V30 1856 C 182.383 -2.34315 -2.07522 0
M  V30 1857 C 182.858 -3.58183 -2.85427 0
M  V30 1858 N 184.349 -3.5876 -2.92994 0
M  V30 1859 C 185.084 -4.51277 -3.53746 0
M  V30 1860 N 184.58 -5.54102 -4.15863 0
M  V30 1861 N 186.373 -4.38894 -3.51181 0
M  V30 1862 H 178.524 -2.08821 -0.388264 0
M  V30 1863 H 180.787 -0.918568 -0.234385 0
M  V30 1864 H 180.493 -3.21301 -1.43034 0
M  V30 1865 H 180.367 -2.34816 -2.95197 0
M  V30 1866 H 182.754 -1.42762 -2.58269 0
M  V30 1867 H 182.835 -2.32744 -1.06131 0
M  V30 1868 H 182.479 -4.50074 -2.35363 0
M  V30 1869 H 182.409 -3.57006 -3.8711 0
M  V30 1870 H 184.9 -2.84398 -2.4885 0
M  V30 1871 H 185.213 -6.20859 -4.60168 0
M  V30 1872 H 183.558 -5.57941 -4.144 0
M  V30 1873 H 186.749 -3.57772 -3.01856 0
M  V30 1874 H 186.922 -5.11186 -3.98237 0
M  V30 1875 N 180.328 1.1314 -1.09713 0
M  V30 1876 C 181.739 1.66029 -0.853885 0
M  V30 1877 C 182.09 1.86241 0.617142 0
M  V30 1878 O 181.215 1.5834 1.47503 0
M  V30 1879 C 181.81 3.01599 -1.5435 0
M  V30 1880 C 180.369 3.51467 -1.34714 0
M  V30 1881 C 179.516 2.26648 -1.59769 0
M  V30 1882 H 182.467 0.970226 -1.25588 0
M  V30 1883 H 182.488 3.67709 -0.978267 0
M  V30 1884 H 182 2.86856 -2.6141 0
M  V30 1885 H 180.101 3.71408 -0.297838 0
M  V30 1886 H 180.214 4.314 -2.08401 0
M  V30 1887 H 178.578 2.33385 -1.01998 0
M  V30 1888 H 179.361 2.14467 -2.68065 0
M  V30 1889 N 181.806 0.884767 1.30421 0
M  V30 1890 C 183.083 0.423185 1.90967 0
M  V30 1891 C 183.463 -1.09605 1.80416 0
M  V30 1892 O 182.811 -1.93126 1.22125 0
M  V30 1893 C 183.021 0.921056 3.36627 0
M  V30 1894 C 184.369 0.955903 4.137 0
M  V30 1895 O 185.393 0.867706 3.4547 0
M  V30 1896 O 184.252 1.08614 5.35598 0
M  V30 1897 H 181.346 0.129369 0.816819 0
M  V30 1898 H 183.892 0.973653 1.3899 0
M  V30 1899 H 182.664 1.96489 3.3839 0
M  V30 1900 H 182.287 0.349741 3.96059 0
M  V30 1901 N 183.284 -1.43765 0.645699 0
M  V30 1902 C 184.533 -2.01116 0.153412 0
M  V30 1903 C 184.846 -1.51493 -1.23731 0
M  V30 1904 O 186.052 -2.01067 -1.8244 0
M  V30 1905 C 184.508 -3.59206 0.223473 0
M  V30 1906 C 184.116 -4.17823 1.61642 0
M  V30 1907 C 185.86 -4.23972 -0.211597 0
M  V30 1908 C 183.767 -5.68183 1.64081 0
M  V30 1909 H 182.697 -0.752093 0.0535891 0
M  V30 1910 H 185.348 -1.6482 0.806633 0
M  V30 1911 H 183.73 -3.92867 -0.497118 0
M  V30 1912 H 184.904 -3.95674 2.36176 0
M  V30 1913 H 183.219 -3.65399 1.99681 0
M  V30 1914 H 185.816 -5.34275 -0.213112 0
M  V30 1915 H 186.159 -3.97352 -1.24165 0
M  V30 1916 H 186.692 -3.95166 0.456988 0
M  V30 1917 H 183.431 -5.99559 2.64971 0
M  V30 1918 H 182.951 -5.9241 0.938611 0
M  V30 1919 H 184.63 -6.32085 1.3812 0
M  V30 1920 N 184.763 -0.387143 -1.52771 0
M  V30 1921 C 185.993 0.195585 -2.05672 0
M  V30 1922 C 186.401 1.41241 -1.25887 0
M  V30 1923 O 185.744 1.81265 -0.298081 0
M  V30 1924 C 185.806 0.632327 -3.53895 0
M  V30 1925 C 185.47 -0.470739 -4.54569 0
M  V30 1926 C 186.467 -1.32746 -5.02667 0
M  V30 1927 C 184.152 -0.637151 -4.98243 0
M  V30 1928 C 186.146 -2.33574 -5.93061 0
M  V30 1929 C 183.833 -1.64877 -5.88438 0
M  V30 1930 C 184.831 -2.49649 -6.35739 0
M  V30 1931 O 184.519 -3.49082 -7.24153 0
M  V30 1932 H 184.251 0.033658 -0.675162 0
M  V30 1933 H 186.805 -0.550221 -1.97893 0
M  V30 1934 H 185.035 1.43008 -3.59285 0
M  V30 1935 H 186.724 1.14048 -3.89548 0
M  V30 1936 H 187.49 -1.21019 -4.69659 0
M  V30 1937 H 183.369 0.0129567 -4.60998 0
M  V30 1938 H 186.913 -2.99777 -6.29904 0
M  V30 1939 H 182.81 -1.76643 -6.2086 0
M  V30 1940 H 183.578 -3.45065 -7.42208 0
M  V30 1941 N 186.241 1.57166 -0.116904 0
M  V30 1942 C 187.652 1.82169 0.408809 0
M  V30 1943 C 188.003 1.03393 1.66746 0
M  V30 1944 O 187.128 0.269886 2.1471 0
M  V30 1945 C 187.723 3.30429 0.748466 0
M  V30 1946 C 186.282 3.5612 1.21882 0
M  V30 1947 C 185.429 2.76374 0.226452 0
M  V30 1948 H 188.38 1.5497 -0.342063 0
M  V30 1949 H 188.401 3.44943 1.60607 0
M  V30 1950 H 187.913 3.87737 -0.167784 0
M  V30 1951 H 186.014 3.04168 2.15204 0
M  V30 1952 H 186.127 4.64705 1.16559 0
M  V30 1953 H 184.491 2.44515 0.713063 0
M  V30 1954 H 185.274 3.3644 -0.682859 0
M  V30 1955 N 187.719 -0.156864 1.56817 0
M  V30 1956 C 188.629 -1.2136 2.00771 0
M  V30 1957 C 189.645 -1.47598 0.921459 0
M  V30 1958 O 190.821 -1.59462 1.2302 0
M  V30 1959 C 187.886 -2.52943 2.37109 0
M  V30 1960 C 186.947 -2.34439 3.59634 0
M  V30 1961 C 186.18 -3.59748 3.94229 0
M  V30 1962 O 186.403 -4.65526 3.29609 0
M  V30 1963 O 185.337 -3.52998 4.8752 0
M  V30 1964 H 189.163 -0.870468 2.90958 0
M  V30 1965 H 186.748 -0.36484 1.44877 0
M  V30 1966 H 188.63 -3.30538 2.61386 0
M  V30 1967 H 187.305 -2.86806 1.5008 0
M  V30 1968 H 186.212 -1.54828 3.40557 0
M  V30 1969 H 187.545 -2.05496 4.4725 0
M  V30 1970 N 189.197 -1.51736 -0.425897 0
M  V30 1971 C 190.13 -1.68574 -1.53812 0
M  V30 1972 C 191.108 -0.53328 -1.53606 0
M  V30 1973 O 192.292 -0.758555 -1.72564 0
M  V30 1974 C 189.419 -1.70977 -2.92377 0
M  V30 1975 C 188.465 -2.92324 -3.10563 0
M  V30 1976 S 189.298 -4.52952 -2.85648 0
M  V30 1977 C 190.454 -4.58117 -4.26474 0
M  V30 1978 H 190.687 -2.62647 -1.39298 0
M  V30 1979 H 188.22 -1.41564 -0.616361 0
M  V30 1980 H 190.178 -1.73047 -3.72243 0
M  V30 1981 H 188.839 -0.78061 -3.04245 0
M  V30 1982 H 188.032 -2.90439 -4.11899 0
M  V30 1983 H 187.634 -2.88055 -2.38538 0
M  V30 1984 H 189.926 -4.34462 -5.19855 0
M  V30 1985 H 190.869 -5.59983 -4.33388 0
M  V30 1986 H 191.277 -3.8732 -4.10662 0
M  V30 1987 N 190.675 0.682077 -1.42076 0
M  V30 1988 C 192.091 0.994324 -1.24841 0
M  V30 1989 C 192.291 2.0096 -0.147389 0
M  V30 1990 O 191.347 2.47822 0.483782 0
M  V30 1991 C 192.66 1.50607 -2.60265 0
M  V30 1992 C 194.208 1.62421 -2.6756 0
M  V30 1993 C 194.683 2.16994 -4.03333 0
M  V30 1994 N 196.174 2.24337 -4.0525 0
M  V30 1995 C 196.909 2.67621 -5.07116 0
M  V30 1996 N 196.405 3.1041 -6.19368 0
M  V30 1997 N 198.198 2.67305 -4.94474 0
M  V30 1998 H 190.349 0.00973908 -2.12398 0
M  V30 1999 H 192.612 0.0668593 -0.945639 0
M  V30 2000 H 192.318 0.834583 -3.41654 0
M  V30 2001 H 192.192 2.48602 -2.83684 0
M  V30 2002 H 194.579 2.28678 -1.86521 0
M  V30 2003 H 194.66 0.629352 -2.47937 0
M  V30 2004 H 194.304 1.51349 -4.84826 0
M  V30 2005 H 194.234 3.17258 -4.20304 0
M  V30 2006 H 196.725 1.94158 -3.24209 0
M  V30 2007 H 197.038 3.42103 -6.92954 0
M  V30 2008 H 195.383 3.08286 -6.22884 0
M  V30 2009 H 198.574 2.33233 -4.05857 0
M  V30 2010 H 198.747 3.00718 -5.73997 0
M  V30 2011 N 192.153 1.28127 0.917671 0
M  V30 2012 C 193.101 1.11569 2.04096 0
M  V30 2013 C 194.095 0.0360242 1.69362 0
M  V30 2014 O 195.301 0.194501 1.78946 0
M  V30 2015 H 191.676 0.344097 0.668656 0
M  V30 2016 H 193.647 2.06711 2.15205 0
M  V30 2017 C 192.396 0.790197 3.38602 0
M  V30 2018 H 191.719 1.61293 3.6582 0
M  V30 2019 H 193.159 0.714271 4.1794 0
M  V30 2020 C 191.618 -0.505897 3.3308 0
M  V30 2021 O 192.148 -1.53736 3.71117 0
M  V30 2022 N 190.354 -0.505193 2.86175 0
M  V30 2023 H 189.901 0.334621 2.55417 0
M  V30 2024 H 189.859 -1.37243 2.82863 0
M  V30 2025 N 193.631 -1.12557 1.10312 0
M  V30 2026 C 194.861 -1.87592 0.865617 0
M  V30 2027 C 195.269 -1.79851 -0.587389 0
M  V30 2028 O 194.612 -1.16949 -1.41664 0
M  V30 2029 C 194.674 -3.37665 1.23381 0
M  V30 2030 C 194.338 -3.69181 2.69359 0
M  V30 2031 C 195.335 -3.67652 3.67597 0
M  V30 2032 C 193.02 -3.98555 3.05711 0
M  V30 2033 C 195.014 -3.95053 5.00212 0
M  V30 2034 C 192.701 -4.25616 4.38514 0
M  V30 2035 C 193.699 -4.23851 5.35574 0
M  V30 2036 O 193.387 -4.50242 6.65986 0
M  V30 2037 H 193.119 -0.600442 0.310557 0
M  V30 2038 H 195.673 -1.4335 1.47105 0
M  V30 2039 H 193.903 -3.82454 0.571467 0
M  V30 2040 H 195.592 -3.94041 0.973994 0
M  V30 2041 H 196.358 -3.45024 3.40857 0
M  V30 2042 H 192.237 -3.99071 2.30789 0
M  V30 2043 H 195.781 -3.93591 5.75962 0
M  V30 2044 H 191.678 -4.47718 4.64994 0
M  V30 2045 H 192.446 -4.67867 6.71597 0
M  V30 2046 N 195.109 -0.891671 -1.2995 0
M  V30 2047 C 196.337 -0.52866 -2.00032 0
M  V30 2048 C 196.752 0.884574 -1.66795 0
M  V30 2049 O 196.109 1.5827 -0.908669 0
M  V30 2050 C 196.16 -0.701814 -3.54622 0
M  V30 2051 O 195.881 -2.05942 -3.86678 0
M  V30 2052 C 197.382 -0.342683 -4.41973 0
M  V30 2053 H 194.602 -0.203659 -0.639347 0
M  V30 2054 H 197.146 -1.19881 -1.65677 0
M  V30 2055 H 195.301 -0.0789468 -3.8732 0
M  V30 2056 H 195.715 -2.08291 -4.81368 0
M  V30 2057 H 197.189 -0.514709 -5.49595 0
M  V30 2058 H 197.666 0.71975 -4.33262 0
M  V30 2059 H 198.272 -0.942154 -4.14733 0
M  V30 2060 N 196.587 1.43421 -0.653314 0
M  V30 2061 C 197.497 2.34568 0.0388565 0
M  V30 2062 C 198.513 1.53888 0.81207 0
M  V30 2063 O 199.689 1.86539 0.759294 0
M  V30 2064 C 196.754 3.32167 0.993269 0
M  V30 2065 C 195.815 4.28751 0.216977 0
M  V30 2066 C 195.048 5.21688 1.12593 0
M  V30 2067 O 195.271 5.19052 2.36519 0
M  V30 2068 O 194.205 5.98919 0.598284 0
M  V30 2069 H 198.031 2.95251 -0.711386 0
M  V30 2070 H 195.616 1.43564 -0.413502 0
M  V30 2071 H 197.498 3.92183 1.54176 0
M  V30 2072 H 196.173 2.73987 1.72374 0
M  V30 2073 H 195.08 3.72215 -0.375101 0
M  V30 2074 H 196.413 4.89913 -0.473924 0
M  V30 2075 N 198.065 0.39524 1.52563 0
M  V30 2076 C 199.342 -0.242908 1.94086 0
M  V30 2077 C 199.722 -1.63841 1.33114 0
M  V30 2078 O 199.07 -2.22928 0.501529 0
M  V30 2079 C 199.28 -0.26327 3.48006 0
M  V30 2080 C 200.628 -0.489354 4.21771 0
M  V30 2081 O 201.652 -0.343226 3.54543 0
M  V30 2082 O 200.511 -0.776169 5.4096 0
M  V30 2083 H 197.605 -0.152536 0.812811 0
M  V30 2084 H 200.151 0.450178 1.6362 0
M  V30 2085 H 198.923 0.713985 3.84731 0
M  V30 2086 H 198.546 -1.00103 3.84792 0
M  V30 2087 N 199.544 -1.57102 0.125237 0
M  V30 2088 C 200.821 -1.86953 -0.575142 0
M  V30 2089 C 201.201 -1.02749 -1.84407 0
M  V30 2090 O 200.549 -0.108144 -2.28244 0
M  V30 2091 C 200.759 -3.38198 -0.861583 0
M  V30 2092 C 202.107 -4.06937 -1.21192 0
M  V30 2093 O 203.131 -3.43252 -0.951645 0
M  V30 2094 O 201.99 -5.19364 -1.70068 0
M  V30 2095 H 199.084 -0.774147 -0.290906 0
M  V30 2096 H 201.63 -1.68942 0.160211 0
M  V30 2097 H 200.402 -3.91282 0.0373647 0
M  V30 2098 H 200.025 -3.61661 -1.65188 0
M  V30 2099 N 201.022 0.148545 -1.56898 0
M  V30 2100 C 202.271 0.85984 -1.82454 0
M  V30 2101 C 202.584 1.82406 -0.706229 0
M  V30 2102 O 203.79 2.57938 -0.847349 0
M  V30 2103 C 202.246 1.57967 -3.2338 0
M  V30 2104 C 201.854 0.65794 -4.43142 0
M  V30 2105 C 203.598 2.27784 -3.58211 0
M  V30 2106 C 201.505 1.3793 -5.75091 0
M  V30 2107 H 200.435 0.324834 -0.68044 0
M  V30 2108 H 203.086 0.112588 -1.83154 0
M  V30 2109 H 201.468 2.37249 -3.17063 0
M  V30 2110 H 202.642 -0.0995497 -4.60692 0
M  V30 2111 H 200.957 0.0682643 -4.16344 0
M  V30 2112 H 203.554 2.8239 -4.54048 0
M  V30 2113 H 203.897 3.04204 -2.84193 0
M  V30 2114 H 204.43 1.55421 -3.66182 0
M  V30 2115 H 201.169 0.656982 -6.52199 0
M  V30 2116 H 200.689 2.10954 -5.61479 0
M  V30 2117 H 202.368 1.92063 -6.17835 0
M  V30 2118 N 202.5 1.5196 0.417844 0
M  V30 2119 C 203.747 1.65591 1.16559 0
M  V30 2120 C 204.075 0.381565 1.90721 0
M  V30 2121 O 203.33 -0.635156 1.85106 0
M  V30 2122 C 203.629 2.82269 2.19223 0
M  V30 2123 C 203.295 4.20819 1.61933 0
M  V30 2124 C 201.957 4.58506 1.46033 0
M  V30 2125 C 204.309 5.07196 1.20008 0
M  V30 2126 C 201.637 5.80257 0.867113 0
M  V30 2127 C 203.989 6.29544 0.621086 0
M  V30 2128 C 202.653 6.65987 0.449144 0
M  V30 2129 H 201.923 0.605939 0.42652 0
M  V30 2130 H 204.57 1.86041 0.45397 0
M  V30 2131 H 202.875 2.56118 2.96498 0
M  V30 2132 H 204.572 2.90012 2.76936 0
M  V30 2133 H 201.162 3.91116 1.7529 0
M  V30 2134 H 205.346 4.7867 1.31105 0
M  V30 2135 H 200.602 6.07124 0.721833 0
M  V30 2136 H 204.776 6.95805 0.287798 0
M  V30 2137 H 202.403 7.60199 -0.012632 0
M  V30 2138 N 203.978 -0.674533 1.42435 0
M  V30 2139 C 205.255 -1.4305 1.33402 0
M  V30 2140 C 205.635 -2.11081 -0.0284674 0
M  V30 2141 O 204.983 -2.03257 -1.04397 0
M  V30 2142 C 205.193 -2.43272 2.50239 0
M  V30 2143 C 206.541 -3.07907 2.92367 0
M  V30 2144 O 207.565 -2.53599 2.50132 0
M  V30 2145 O 206.424 -4.0632 3.65467 0
M  V30 2146 H 203.518 -0.638076 0.526106 0
M  V30 2147 H 206.064 -0.703235 1.54443 0
M  V30 2148 H 204.836 -1.91803 3.41068 0
M  V30 2149 H 204.459 -3.23479 2.31186 0
M  V30 2150 N 205.456 -1.28612 -0.910864 0
M  V30 2151 C 206.702 -1.16106 -1.66274 0
M  V30 2152 C 207.035 0.289113 -1.92036 0
M  V30 2153 O 206.31 1.21 -1.52281 0
M  V30 2154 C 206.593 -1.96309 -3.01885 0
M  V30 2155 C 206.446 -3.49405 -2.8326 0
M  V30 2156 C 207.765 -1.78076 -4.02463 0
M  V30 2157 H 204.884 -0.423152 -0.603417 0
M  V30 2158 H 207.526 -1.57961 -1.05586 0
M  V30 2159 H 205.676 -1.60742 -3.53687 0
M  V30 2160 H 207.348 -3.94894 -2.38446 0
M  V30 2161 H 205.591 -3.74893 -2.18261 0
M  V30 2162 H 206.262 -4.00784 -3.79574 0
M  V30 2163 H 208.738 -2.0912 -3.59733 0
M  V30 2164 H 207.614 -2.36561 -4.95308 0
M  V30 2165 H 207.875 -0.733008 -4.35981 0
M  V30 2166 N 206.934 1.1197 -1.10907 0
M  V30 2167 C 207.897 2.16031 -0.765707 0
M  V30 2168 C 208.897 1.59393 0.212235 0
M  V30 2169 O 210.087 1.74196 -0.0115441 0
M  V30 2170 C 207.219 3.40632 -0.135053 0
M  V30 2171 H 208.412 2.47919 -1.68748 0
M  V30 2172 H 205.965 1.27061 -0.910226 0
M  V30 2173 H 206.7 3.14348 0.797218 0
M  V30 2174 H 206.485 3.8302 -0.838937 0
M  V30 2175 H 207.975 4.17505 0.0892469 0
M  V30 2176 N 208.412 0.89855 1.29475 0
M  V30 2177 C 209.66 0.522847 1.9522 0
M  V30 2178 C 209.981 -0.93371 1.71192 0
M  V30 2179 O 209.251 -1.65823 1.04305 0
M  V30 2180 H 207.831 0.190366 0.722336 0
M  V30 2181 H 210.493 1.14459 1.5775 0
M  V30 2182 H 209.589 0.704476 3.04045 0
M  V30 2183 N 209.89 -1.43072 0.660911 0
M  V30 2184 C 211.12 -2.05769 0.185153 0
M  V30 2185 C 211.528 -1.49668 -1.15742 0
M  V30 2186 O 210.871 -0.625649 -1.72717 0
M  V30 2187 C 210.933 -3.59489 0.0278237 0
M  V30 2188 C 210.597 -4.38212 1.2969 0
M  V30 2189 C 211.594 -4.69772 2.22734 0
M  V30 2190 C 209.279 -4.7809 1.54063 0
M  V30 2191 C 211.273 -5.40129 3.38437 0
M  V30 2192 C 208.96 -5.4819 2.70058 0
M  V30 2193 C 209.958 -5.79132 3.62071 0
M  V30 2194 O 209.646 -6.47798 4.76039 0
M  V30 2195 H 209.378 -0.669873 0.0908086 0
M  V30 2196 H 211.932 -1.84436 0.90402 0
M  V30 2197 H 210.162 -3.79426 -0.746489 0
M  V30 2198 H 211.851 -4.03862 -0.406275 0
M  V30 2199 H 212.617 -4.39476 2.05149 0
M  V30 2200 H 208.496 -4.53408 0.833215 0
M  V30 2201 H 212.04 -5.64198 4.10277 0
M  V30 2202 H 207.937 -5.77902 2.87574 0
M  V30 2203 H 208.705 -6.66283 4.75404 0
M  V30 2204 N 211.368 -0.403325 -1.52352 0
M  V30 2205 C 212.596 0.174012 -2.06167 0
M  V30 2206 C 213.011 1.39347 -1.27388 0
M  V30 2207 O 212.368 1.79597 -0.324201 0
M  V30 2208 C 212.419 0.530223 -3.5759 0
M  V30 2209 O 212.14 -0.640806 -4.33388 0
M  V30 2210 C 213.641 1.16192 -4.27802 0
M  V30 2211 H 210.861 0.0229464 -0.670608 0
M  V30 2212 H 213.405 -0.572604 -1.9632 0
M  V30 2213 H 211.56 1.22673 -3.67464 0
M  V30 2214 H 211.974 -0.344851 -5.23365 0
M  V30 2215 H 213.448 1.36141 -5.34948 0
M  V30 2216 H 213.925 2.13335 -3.83907 0
M  V30 2217 H 214.531 0.505775 -4.22282 0
M  V30 2218 N 212.846 1.57033 -0.133567 0
M  V30 2219 C 213.776 2.1909 0.807567 0
M  V30 2220 C 214.757 1.13517 1.26681 0
M  V30 2221 O 215.942 1.41809 1.32679 0
M  V30 2222 C 213.072 2.80188 2.05212 0
M  V30 2223 C 212.026 3.91471 1.73015 0
M  V30 2224 C 211.352 4.39443 3.04622 0
M  V30 2225 C 212.652 5.12886 0.987168 0
M  V30 2226 H 214.346 2.97988 0.290403 0
M  V30 2227 H 211.892 1.43335 0.138239 0
M  V30 2228 H 213.845 3.22264 2.71521 0
M  V30 2229 H 212.569 1.98601 2.59278 0
M  V30 2230 H 211.228 3.49993 1.0909 0
M  V30 2231 H 210.876 3.54695 3.56651 0
M  V30 2232 H 210.576 5.14495 2.83847 0
M  V30 2233 H 212.1 4.8418 3.72024 0
M  V30 2234 H 213.514 5.51891 1.55208 0
M  V30 2235 H 211.911 5.93615 0.87985 0
M  V30 2236 H 212.981 4.84894 -0.0235286 0
M  V30 2237 N 214.325 -0.140222 1.56975 0
M  V30 2238 C 215.574 -0.850152 1.82908 0
M  V30 2239 C 215.887 -1.82028 0.715892 0
M  V30 2240 O 217.093 -2.57485 0.861016 0
M  V30 2241 C 215.549 -1.5625 3.24213 0
M  V30 2242 C 215.157 -0.63443 4.43485 0
M  V30 2243 C 216.901 -2.25881 3.59413 0
M  V30 2244 C 214.808 -1.34879 5.75814 0
M  V30 2245 H 213.738 -0.321221 0.682153 0
M  V30 2246 H 216.389 -0.102874 1.83211 0
M  V30 2247 H 214.771 -2.35565 3.18316 0
M  V30 2248 H 215.945 0.12398 4.60633 0
M  V30 2249 H 214.26 -0.0461836 4.16374 0
M  V30 2250 H 216.857 -2.79978 4.5554 0
M  V30 2251 H 217.2 -3.02693 2.85802 0
M  V30 2252 H 217.733 -1.53477 3.67001 0
M  V30 2253 H 214.472 -0.622385 6.52539 0
M  V30 2254 H 213.992 -2.07974 5.6259 0
M  V30 2255 H 215.671 -1.88784 6.18845 0
M  V30 2256 N 215.803 -1.52179 -0.40978 0
M  V30 2257 C 216.766 -1.74853 -1.48186 0
M  V30 2258 C 217.766 -0.618417 -1.48433 0
M  V30 2259 O 218.956 -0.886286 -1.49969 0
M  V30 2260 C 216.088 -1.8303 -2.87598 0
M  V30 2261 H 217.281 -2.70559 -1.29374 0
M  V30 2262 H 214.834 -1.42586 -0.640233 0
M  V30 2263 H 215.569 -0.89236 -3.11781 0
M  V30 2264 H 215.354 -2.65187 -2.88822 0
M  V30 2265 H 216.844 -2.02316 -3.65319 0
M  V30 2266 N 217.281 0.66697 -1.42791 0
M  V30 2267 C 218.692 1.2478 -1.38877 0
M  V30 2268 C 219.043 1.96012 -0.0859426 0
M  V30 2269 O 218.168 2.00463 0.815081 0
M  V30 2270 C 218.763 2.26938 -2.51564 0
M  V30 2271 C 217.322 2.80529 -2.50959 0
M  V30 2272 C 216.469 1.54965 -2.29959 0
M  V30 2273 H 219.42 0.459853 -1.51892 0
M  V30 2274 H 219.441 3.08834 -2.22265 0
M  V30 2275 H 218.953 1.75065 -3.46372 0
M  V30 2276 H 217.054 3.36502 -1.59991 0
M  V30 2277 H 217.167 3.29012 -3.48265 0
M  V30 2278 H 215.531 1.81817 -1.78366 0
M  V30 2279 H 216.314 1.05047 -3.26833 0
M  V30 2280 N 218.759 1.29093 0.90403 0
M  V30 2281 C 219.706 1.13853 2.00764 0
M  V30 2282 C 220.676 0.0330084 1.66067 0
M  V30 2283 O 221.861 0.199733 1.89752 0
M  V30 2284 C 219.001 0.816537 3.35301 0
M  V30 2285 C 218.114 2.00206 3.82807 0
M  V30 2286 C 217.249 1.61983 5.059 0
M  V30 2287 C 216.288 2.77143 5.45764 0
M  V30 2288 N 215.425 2.39346 6.60044 0
M  V30 2289 H 220.265 2.08276 2.13132 0
M  V30 2290 H 217.802 1.03648 1.04381 0
M  V30 2291 H 219.76 0.610557 4.12708 0
M  V30 2292 H 218.39 -0.090779 3.22672 0
M  V30 2293 H 217.442 2.31988 3.01473 0
M  V30 2294 H 218.754 2.86512 4.08304 0
M  V30 2295 H 217.908 1.37649 5.90879 0
M  V30 2296 H 216.647 0.728202 4.82233 0
M  V30 2297 H 215.652 3.02165 4.59322 0
M  V30 2298 H 216.877 3.66964 5.71414 0
M  V30 2299 H 214.823 1.52665 6.37989 0
M  V30 2300 H 214.74 3.19185 6.85315 0
M  V30 2301 H 216.008 2.1832 7.48303 0
M  V30 2302 N 220.237 -1.11381 1.11499 0
M  V30 2303 C 221.167 -2.19509 0.796125 0
M  V30 2304 C 222.148 -1.68458 -0.235796 0
M  V30 2305 O 223.333 -1.93947 -0.0991344 0
M  V30 2306 C 220.463 -3.46475 0.239205 0
M  V30 2307 C 219.417 -4.10744 1.20307 0
M  V30 2308 C 218.743 -5.32293 0.50683 0
M  V30 2309 C 220.043 -4.55597 2.55399 0
M  V30 2310 H 221.737 -2.46439 1.70024 0
M  V30 2311 H 219.283 -1.18446 0.818935 0
M  V30 2312 H 221.236 -4.214 0.00392006 0
M  V30 2313 H 219.96 -3.19006 -0.700206 0
M  V30 2314 H 218.619 -3.37813 1.42399 0
M  V30 2315 H 218.267 -5.01095 -0.437408 0
M  V30 2316 H 217.967 -5.76243 1.1497 0
M  V30 2317 H 219.491 -6.09956 0.280351 0
M  V30 2318 H 220.905 -5.21841 2.37391 0
M  V30 2319 H 219.302 -5.10363 3.15673 0
M  V30 2320 H 220.372 -3.69013 3.14575 0
M  V30 2321 N 221.715 -0.905404 -1.28997 0
M  V30 2322 C 222.992 -0.453513 -1.9027 0
M  V30 2323 C 223.372 1.06721 -1.82137 0
M  V30 2324 O 222.72 1.91159 -1.25182 0
M  V30 2325 C 222.93 -0.974494 -3.35119 0
M  V30 2326 C 224.278 -1.0216 -4.12127 0
M  V30 2327 O 225.302 -0.922557 -3.44046 0
M  V30 2328 O 224.161 -1.17121 -5.33802 0
M  V30 2329 H 221.255 -0.142347 -0.814657 0
M  V30 2330 H 223.801 -0.995642 -1.37423 0
M  V30 2331 H 222.573 -2.01848 -3.35221 0
M  V30 2332 H 222.196 -0.412706 -3.95452 0
M  V30 2333 N 223.193 1.4272 -0.668489 0
M  V30 2334 C 224.103 2.34596 0.0139753 0
M  V30 2335 C 225.119 1.5474 0.795703 0
M  V30 2336 O 226.295 1.87334 0.739466 0
M  V30 2337 C 223.36 3.33202 0.957982 0
M  V30 2338 C 222.421 4.28957 0.17149 0
M  V30 2339 C 221.654 5.22853 1.07053 0
M  V30 2340 O 221.877 5.21531 2.31001 0
M  V30 2341 O 220.811 5.9952 0.534727 0
M  V30 2342 H 224.637 2.9448 -0.742661 0
M  V30 2343 H 222.222 1.43117 -0.428705 0
M  V30 2344 H 224.104 3.93796 1.50008 0
M  V30 2345 H 222.779 2.758 1.69458 0
M  V30 2346 H 221.686 3.71796 -0.414558 0
M  V30 2347 H 223.019 4.89383 -0.52586 0
M  V30 2348 N 224.671 0.411399 1.52136 0
M  V30 2349 C 226.087 0.0623865 1.59478 0
M  V30 2350 C 226.287 -1.42554 1.4241 0
M  V30 2351 O 225.343 -2.19263 1.2522 0
M  V30 2352 C 226.656 0.559331 2.95452 0
M  V30 2353 C 228.204 0.517503 3.08692 0
M  V30 2354 C 228.679 0.990994 4.4715 0
M  V30 2355 N 230.17 0.947908 4.53397 0
M  V30 2356 C 230.905 1.28544 5.58806 0
M  V30 2357 N 230.401 1.69454 6.71757 0
M  V30 2358 N 232.194 1.20526 5.49026 0
M  V30 2359 H 224.345 1.37982 1.61477 0
M  V30 2360 H 226.608 0.566977 0.759764 0
M  V30 2361 H 226.314 1.59938 3.1323 0
M  V30 2362 H 226.188 -0.0298014 3.77188 0
M  V30 2363 H 228.575 -0.513505 2.90598 0
M  V30 2364 H 228.656 1.14272 2.28857 0
M  V30 2365 H 228.3 2.02034 4.65988 0
M  V30 2366 H 228.23 0.34257 5.25485 0
M  V30 2367 H 230.721 0.647157 3.72317 0
M  V30 2368 H 231.034 1.93513 7.48179 0
M  V30 2369 H 229.379 1.73359 6.73032 0
M  V30 2370 H 232.57 0.884505 4.59667 0
M  V30 2371 H 232.743 1.47161 6.31069 0
M  V30 2372 N 226.149 -1.5696 0.141893 0
M  V30 2373 C 227.395 -1.97034 -0.504884 0
M  V30 2374 C 227.75 -1.02518 -1.62812 0
M  V30 2375 O 227.043 -0.0592943 -1.91508 0
M  V30 2376 C 227.237 -3.41242 -1.06249 0
M  V30 2377 C 227.066 -4.497 0.00519653 0
M  V30 2378 C 225.836 -5.03338 0.444873 0
M  V30 2379 C 228.034 -5.08122 0.794767 0
M  V30 2380 N 226.016 -5.95395 1.49593 0
M  V30 2381 C 227.387 -5.96339 1.69645 0
M  V30 2382 C 229.442 -4.9071 0.843122 0
M  V30 2383 C 228.145 -6.69009 2.64233 0
M  V30 2384 C 230.171 -5.64077 1.77681 0
M  V30 2385 C 229.533 -6.51999 2.66603 0
M  V30 2386 H 225.632 -0.766745 -0.153707 0
M  V30 2387 H 228.216 -1.93273 0.235313 0
M  V30 2388 H 226.387 -3.45606 -1.77231 0
M  V30 2389 H 228.119 -3.68389 -1.67546 0
M  V30 2390 H 224.874 -4.73576 0.0480959 0
M  V30 2391 H 225.298 -6.46128 2.02107 0
M  V30 2392 H 229.94 -4.22459 0.169732 0
M  V30 2393 H 227.658 -7.36492 3.32575 0
M  V30 2394 H 231.244 -5.52602 1.81996 0
M  V30 2395 H 230.124 -7.07775 3.37675 0
M  V30 2396 N 227.627 0.131896 -1.57047 0
M  V30 2397 C 228.875 0.840269 -1.83804 0
M  V30 2398 C 229.196 1.81017 -0.72512 0
M  V30 2399 O 228.466 1.94272 0.251995 0
M  V30 2400 H 227.046 0.313294 -0.678127 0
M  V30 2401 H 229.708 0.122294 -1.94516 0
M  V30 2402 H 228.804 1.39335 -2.79271 0
M  V30 2403 N 229.106 1.52395 0.401703 0
M  V30 2404 C 230.354 1.66488 1.14569 0
M  V30 2405 C 230.675 0.400897 1.90835 0
M  V30 2406 O 229.945 -0.584415 1.8698 0
M  V30 2407 H 228.525 0.613672 0.425929 0
M  V30 2408 H 231.187 1.89464 0.457093 0
M  V30 2409 H 230.283 2.50942 1.85566 0
M  V30 2410 N 230.584 -0.659388 1.43143 0
M  V30 2411 C 231.812 -1.44723 1.47861 0
M  V30 2412 C 232.227 -1.88563 0.0945886 0
M  V30 2413 O 231.584 -1.59108 -0.893915 0
M  V30 2414 C 231.635 -2.68627 2.41913 0
M  V30 2415 O 231.356 -2.26623 3.74932 0
M  V30 2416 C 232.857 -3.62045 2.55809 0
M  V30 2417 H 230.077 -0.444801 0.502387 0
M  V30 2418 H 232.621 -0.808916 1.87821 0
M  V30 2419 H 230.776 -3.28613 2.05164 0
M  V30 2420 H 231.19 -3.06745 4.2545 0
M  V30 2421 H 232.664 -4.45666 3.25708 0
M  V30 2422 H 233.141 -4.08981 1.60099 0
M  V30 2423 H 233.747 -3.07944 2.93344 0
M  V30 2424 N 232.062 -1.29571 -0.897171 0
M  V30 2425 C 233.311 -1.1706 -1.64256 0
M  V30 2426 C 233.624 0.276476 -1.93636 0
M  V30 2427 O 234.83 0.52294 -2.66416 0
M  V30 2428 C 233.286 -2.0475 -2.95982 0
M  V30 2429 C 232.894 -3.54295 -2.74187 0
M  V30 2430 C 234.638 -2.0097 -3.73914 0
M  V30 2431 C 232.545 -4.34081 -4.01656 0
M  V30 2432 H 231.475 -0.43452 -0.616205 0
M  V30 2433 H 234.126 -1.54229 -0.994268 0
M  V30 2434 H 232.508 -1.60452 -3.62038 0
M  V30 2435 H 233.682 -4.06662 -2.1671 0
M  V30 2436 H 231.997 -3.59773 -2.09648 0
M  V30 2437 H 234.594 -2.57838 -4.68427 0
M  V30 2438 H 234.937 -0.990273 -4.0435 0
M  V30 2439 H 235.47 -2.43325 -3.14703 0
M  V30 2440 H 232.209 -5.36671 -3.76384 0
M  V30 2441 H 231.729 -3.86483 -4.58684 0
M  V30 2442 H 233.408 -4.44877 -4.69781 0
M  V30 2443 N 233.54 1.10788 -1.12088 0
M  V30 2444 C 234.77 1.86191 -0.895351 0
M  V30 2445 C 235.178 1.80763 0.558702 0
M  V30 2446 O 234.521 1.19188 1.39785 0
M  V30 2447 C 234.583 3.35659 -1.28737 0
M  V30 2448 C 234.247 3.64849 -2.75198 0
M  V30 2449 C 235.244 3.61757 -3.734 0
M  V30 2450 C 232.929 3.93641 -3.12013 0
M  V30 2451 C 234.923 3.87045 -5.06434 0
M  V30 2452 C 232.61 4.18585 -4.4523 0
M  V30 2453 C 233.608 4.15277 -5.42249 0
M  V30 2454 O 233.296 4.3959 -6.73065 0
M  V30 2455 H 233.028 0.595425 -0.32007 0
M  V30 2456 H 235.582 1.40992 -1.49367 0
M  V30 2457 H 233.812 3.81497 -0.63224 0
M  V30 2458 H 235.501 3.92441 -1.03656 0
M  V30 2459 H 236.267 3.39557 -3.46303 0
M  V30 2460 H 232.146 3.95348 -2.37109 0
M  V30 2461 H 235.69 3.84378 -5.82151 0
M  V30 2462 H 231.587 4.40264 -4.72057 0
M  V30 2463 H 232.355 4.57123 -6.78956 0
M  V30 2464 N 235.018 0.912232 1.28515 0
M  V30 2465 C 236.265 0.544599 1.95039 0
M  V30 2466 C 236.593 -0.911435 1.71823 0
M  V30 2467 O 235.848 -1.66317 1.03137 0
M  V30 2468 C 236.147 0.798392 3.48368 0
M  V30 2469 C 235.813 2.23374 3.91682 0
M  V30 2470 C 234.475 2.62617 4.03219 0
M  V30 2471 C 236.827 3.16786 4.13879 0
M  V30 2472 C 234.155 3.94429 4.3433 0
M  V30 2473 C 236.507 4.48161 4.46469 0
M  V30 2474 C 235.171 4.8726 4.56217 0
M  V30 2475 H 234.441 0.199283 0.7137 0
M  V30 2476 H 237.088 1.15327 1.52879 0
M  V30 2477 H 235.393 0.106908 3.91654 0
M  V30 2478 H 237.09 0.493141 3.97956 0
M  V30 2479 H 233.68 1.91922 3.83228 0
M  V30 2480 H 237.864 2.87677 4.0442 0
M  V30 2481 H 233.12 4.24426 4.40082 0
M  V30 2482 H 237.294 5.20559 4.62592 0
M  V30 2483 H 234.921 5.89431 4.80078 0
M  V30 2484 O 236.535 -1.39418 0.815163 0
M  V30 2485 H 237.226 -1.89641 0.394473 0
M  V30 END ATOM
M  V30 BEGIN BOND
M  V30 END BOND
M  V30 END CTAB
M  END
$$$$
