drugbank_target|Q56268 3-isopropylmalate dehydrogenase (DB04279)
 OpenBabel12092119583D

  0  0  0     0  0            999 V3000
M  V30 BEGIN CTAB
M  V30 COUNTS 5445 5490 0 0 0
M  V30 BEGIN ATOM
M  V30 1 H -0.908 1.98254 -0.117106 0
M  V30 2 N 0 1.576 0 0
M  V30 3 C 0.933 2.03868 1.02534 0
M  V30 4 C 1.911 0.928543 1.3348 0
M  V30 5 O 3.095 1.19667 1.45644 0
M  V30 6 C 0.222 2.43627 2.35294 0
M  V30 7 C -0.732 3.65373 2.2001 0
M  V30 8 S 0.101 5.13292 1.52614 0
M  V30 9 C 1.257 5.56322 2.86805 0
M  V30 10 H 1.49 2.90518 0.631377 0
M  V30 11 H -0.977 1.52953 0.210867 0
M  V30 12 H 0.981 2.67203 3.11629 0
M  V30 13 H -0.358 1.57376 2.7183 0
M  V30 14 H -1.165 3.90944 3.18086 0
M  V30 15 H -1.563 3.418 1.51819 0
M  V30 16 H 0.729 5.58782 3.83104 0
M  V30 17 H 1.672 6.56266 2.65933 0
M  V30 18 H 2.08 4.83886 2.90714 0
M  V30 19 N 1.4781 -0.272755 1.55222 0
M  V30 20 C 2.4251 -1.33716 1.88119 0
M  V30 21 C 3.3951 -1.49066 0.73271 0
M  V30 22 O 4.5801 -1.63469 0.984002 0
M  V30 23 C 1.7201 -2.69238 2.15882 0
M  V30 24 C 0.8331 -2.62108 3.43399 0
M  V30 25 C -0.0319 -3.89811 3.60861 0
M  V30 26 C -0.9929 -3.77193 4.8207 0
M  V30 27 N -1.8559 -4.9673 4.96189 0
M  V30 28 H 2.9841 -1.04962 2.78903 0
M  V30 29 H 0.5211 -0.507088 1.38083 0
M  V30 30 H 2.4791 -3.48089 2.29978 0
M  V30 31 H 1.1091 -2.96194 1.28331 0
M  V30 32 H 0.1611 -1.74967 3.37773 0
M  V30 33 H 1.4731 -2.48685 4.32386 0
M  V30 34 H 0.6271 -4.77103 3.74777 0
M  V30 35 H -0.6339 -4.06102 2.7006 0
M  V30 36 H -1.6289 -2.88284 4.68159 0
M  V30 37 H -0.4039 -3.62421 5.74307 0
M  V30 38 H -2.4579 -5.13431 4.08319 0
M  V30 39 H -2.5409 -4.85839 5.79221 0
M  V30 40 H -1.2729 -5.85594 5.1449 0
M  V30 41 N 2.9562 -1.48159 -0.537278 0
M  V30 42 C 3.9032 -1.62138 -1.64256 0
M  V30 43 C 4.8732 -0.463668 -1.59497 0
M  V30 44 O 6.0582 -0.686241 -1.78032 0
M  V30 45 C 3.1982 -1.66028 -3.02537 0
M  V30 46 C 2.3112 -2.92855 -3.17585 0
M  V30 47 C 1.4462 -2.87952 -4.46382 0
M  V30 48 C 0.4852 -4.09516 -4.54932 0
M  V30 49 N -0.3778 -4.02733 -5.75109 0
M  V30 50 H 4.4622 -2.56529 -1.51647 0
M  V30 51 H 1.9992 -1.27224 -0.738414 0
M  V30 52 H 3.9572 -1.66265 -3.82638 0
M  V30 53 H 2.5872 -0.751331 -3.13934 0
M  V30 54 H 1.6392 -3.02395 -2.30784 0
M  V30 55 H 2.9512 -3.82822 -3.19764 0
M  V30 56 H 2.1052 -2.8655 -5.34765 0
M  V30 57 H 0.8442 -1.95702 -4.46712 0
M  V30 58 H -0.1508 -4.11201 -3.64957 0
M  V30 59 H 1.0742 -5.02917 -4.56346 0
M  V30 60 H -0.9798 -3.13299 -5.76351 0
M  V30 61 H -1.0628 -4.86397 -5.78752 0
M  V30 62 H 0.2052 -4.05379 -6.65799 0
M  V30 63 N 4.4343 0.785586 -1.36625 0
M  V30 64 C 5.6833 1.53883 -1.30396 0
M  V30 65 C 5.9963 1.95271 0.113452 0
M  V30 66 O 7.2023 2.69858 0.298142 0
M  V30 67 C 5.6583 2.77808 -2.28802 0
M  V30 68 C 5.2663 2.43574 -3.75999 0
M  V30 69 C 7.0103 3.55783 -2.31558 0
M  V30 70 C 4.9173 3.63919 -4.66173 0
M  V30 71 H 3.8473 0.577678 -0.484566 0
M  V30 72 H 6.4983 0.861705 -1.62009 0
M  V30 73 H 4.8803 3.47339 -1.90188 0
M  V30 74 H 6.0543 1.81916 -4.23371 0
M  V30 75 H 4.3693 1.78803 -3.76056 0
M  V30 76 H 6.9663 4.45205 -2.96137 0
M  V30 77 H 7.3093 3.94644 -1.3252 0
M  V30 78 H 7.8423 2.93235 -2.68809 0
M  V30 79 H 4.5813 3.3015 -5.66287 0
M  V30 80 H 4.1013 4.2473 -4.23515 0
M  V30 81 H 5.7803 4.30901 -4.82632 0
M  V30 82 N 5.9124 1.20967 1.01018 0
M  V30 83 C 6.8754 0.965918 2.07853 0
M  V30 84 C 7.8754 -0.0610545 1.60684 0
M  V30 85 O 9.0654 0.175681 1.73312 0
M  V30 86 C 6.1974 0.455513 3.37843 0
M  V30 87 H 7.3904 1.91365 2.3091 0
M  V30 88 H 4.9434 1.02594 1.17916 0
M  V30 89 H 5.6784 -0.497381 3.20463 0
M  V30 90 H 5.4634 1.19622 3.73407 0
M  V30 91 H 6.9534 0.304667 4.16487 0
M  V30 92 N 7.3905 -1.2043 1.01659 0
M  V30 93 C 8.6395 -1.89118 0.701237 0
M  V30 94 C 8.9525 -1.79705 -0.772358 0
M  V30 95 O 10.1585 -2.43528 -1.20026 0
M  V30 96 C 8.6145 -3.39168 1.20388 0
M  V30 97 C 8.2225 -3.57166 2.70438 0
M  V30 98 C 9.9665 -4.1341 0.963953 0
M  V30 99 C 7.8735 -5.01042 3.14183 0
M  V30 100 H 6.8035 -0.708267 0.2586 0
M  V30 101 H 9.4545 -1.36239 1.22927 0
M  V30 102 H 7.8365 -3.91369 0.603824 0
M  V30 103 H 9.0105 -3.15351 3.35992 0
M  V30 104 H 7.3255 -2.96294 2.92572 0
M  V30 105 H 9.9225 -5.19491 1.26621 0
M  V30 106 H 10.2655 -4.16181 -0.099578 0
M  V30 107 H 10.7985 -3.67309 1.52738 0
M  V30 108 H 7.5375 -5.03426 4.19812 0
M  V30 109 H 7.0575 -5.43668 2.53348 0
M  V30 110 H 8.7365 -5.69623 3.0682 0
M  V30 111 N 8.8686 -0.792821 -1.36206 0
M  V30 112 C 10.1156 -0.366786 -1.99151 0
M  V30 113 C 10.4436 1.06243 -1.62919 0
M  V30 114 O 9.6986 1.74927 -0.877442 0
M  V30 115 C 9.9976 -0.481501 -3.54142 0
M  V30 116 C 9.6636 -1.87202 -4.10203 0
M  V30 117 C 8.3256 -2.25248 -4.25226 0
M  V30 118 C 10.6776 -2.78237 -4.40719 0
M  V30 119 C 8.0056 -3.53723 -4.68078 0
M  V30 120 C 10.3576 -4.06144 -4.85005 0
M  V30 121 C 9.0216 -4.44207 -4.98234 0
M  V30 122 H 8.2916 -0.134217 -0.728743 0
M  V30 123 H 10.9386 -1.01094 -1.62641 0
M  V30 124 H 9.2436 0.246146 -3.91026 0
M  V30 125 H 10.9406 -0.132844 -4.0078 0
M  V30 126 H 7.5306 -1.56639 -3.98951 0
M  V30 127 H 11.7146 -2.50097 -4.28679 0
M  V30 128 H 6.9706 -3.8308 -4.76508 0
M  V30 129 H 11.1446 -4.76796 -5.07581 0
M  V30 130 H 8.7716 -5.43814 -5.31197 0
M  V30 131 N 10.3467 1.47872 -0.545128 0
M  V30 132 C 11.3097 2.28337 0.198717 0
M  V30 133 C 12.3097 1.36255 0.853888 0
M  V30 134 O 13.4997 1.59003 0.711606 0
M  V30 135 C 10.6317 3.15585 1.28915 0
M  V30 136 H 11.8247 2.95567 -0.507941 0
M  V30 137 H 9.3777 1.53362 -0.301616 0
M  V30 138 H 10.1127 2.53019 2.02859 0
M  V30 139 H 9.8977 3.83337 0.824309 0
M  V30 140 H 11.3877 3.76243 1.81194 0
M  V30 141 N 11.8248 0.280983 1.55075 0
M  V30 142 C 13.0728 -0.333455 1.9933 0
M  V30 143 C 13.3938 -1.55937 1.17085 0
M  V30 144 O 12.6638 -1.94143 0.261805 0
M  V30 145 H 11.2438 -0.126197 0.736263 0
M  V30 146 H 13.9058 0.387678 1.91005 0
M  V30 147 H 13.0018 -0.619292 3.05894 0
M  V30 148 N 13.3029 -1.57598 0.00835791 0
M  V30 149 C 14.5799 -1.82172 -0.712235 0
M  V30 150 C 14.9599 -0.887873 -1.9152 0
M  V30 151 O 14.3079 0.06146 -2.28417 0
M  V30 152 C 14.5179 -3.30875 -1.11008 0
M  V30 153 C 15.8659 -3.96826 -1.51044 0
M  V30 154 O 16.8899 -3.35248 -1.20364 0
M  V30 155 O 15.7489 -5.05318 -2.08125 0
M  V30 156 H 12.8429 -0.750435 -0.347529 0
M  V30 157 H 15.3889 -1.69665 0.0344523 0
M  V30 158 H 14.1609 -3.90481 -0.252982 0
M  V30 159 H 13.7839 -3.48412 -1.9156 0
M  V30 160 N 14.781 0.264519 -1.55364 0
M  V30 161 C 16.029 0.993021 -1.76021 0
M  V30 162 C 16.35 1.86511 -0.569099 0
M  V30 163 O 15.62 1.91438 0.415735 0
M  V30 164 H 14.2 0.369639 -0.649135 0
M  V30 165 H 16.862 0.286707 -1.9278 0
M  V30 166 H 15.958 1.62502 -2.66457 0
M  V30 167 N 16.2591 1.48442 0.529413 0
M  V30 168 C 17.5081 1.55742 1.28169 0
M  V30 169 C 17.8211 0.236511 1.94165 0
M  V30 170 O 19.0271 0.187761 2.7085 0
M  V30 171 C 17.4831 2.74667 2.32564 0
M  V30 172 C 17.0911 4.13402 1.72636 0
M  V30 173 C 18.8351 2.9128 3.08798 0
M  V30 174 C 16.7421 5.23587 2.74975 0
M  V30 175 H 15.6721 0.579796 0.48203 0
M  V30 176 H 18.3231 1.74776 0.559056 0
M  V30 177 H 16.7051 2.49067 3.07866 0
M  V30 178 H 17.8791 4.49022 1.03519 0
M  V30 179 H 16.1941 4.0191 1.08892 0
M  V30 180 H 18.7911 3.70767 3.85274 0
M  V30 181 H 19.1341 2.00757 3.64695 0
M  V30 182 H 19.6671 3.16782 2.40611 0
M  V30 183 H 16.4061 6.16076 2.23897 0
M  V30 184 H 15.9261 4.92454 3.42417 0
M  V30 185 H 17.6051 5.51724 3.37949 0
M  V30 186 N 17.7372 -0.778329 1.37039 0
M  V30 187 C 18.9852 -1.53361 1.31623 0
M  V30 188 C 19.3062 -1.94739 -0.100831 0
M  V30 189 O 18.5762 -1.65797 -1.04347 0
M  V30 190 H 17.1562 -0.568794 0.484234 0
M  V30 191 H 19.8182 -0.926742 1.71457 0
M  V30 192 H 18.9142 -2.43606 1.95096 0
M  V30 193 N 19.2153 -1.21501 -1.00376 0
M  V30 194 C 20.6263 -1.03146 -1.55621 0
M  V30 195 C 20.9773 0.408375 -1.91903 0
M  V30 196 O 20.1023 1.29177 -1.73616 0
M  V30 197 C 20.6973 -1.86612 -2.82775 0
M  V30 198 C 19.2563 -1.72586 -3.34501 0
M  V30 199 C 18.4033 -1.83747 -2.07683 0
M  V30 200 H 21.3543 -1.35505 -0.826081 0
M  V30 201 H 21.3753 -1.3771 -3.54706 0
M  V30 202 H 20.8873 -2.91399 -2.56336 0
M  V30 203 H 18.9883 -0.704877 -3.65872 0
M  V30 204 H 19.1013 -2.54623 -4.05837 0
M  V30 205 H 17.4653 -1.27069 -2.20739 0
M  V30 206 H 18.2483 -2.90044 -1.83655 0
M  V30 207 N 20.6934 1.19889 -1.02296 0
M  V30 208 C 21.6034 2.26571 -0.608508 0
M  V30 209 C 22.6194 1.70299 0.356964 0
M  V30 210 O 23.7954 2.00235 0.216326 0
M  V30 211 C 20.8604 3.46677 0.0402814 0
M  V30 212 C 19.9214 4.18153 -0.97194 0
M  V30 213 C 19.1544 5.32525 -0.354016 0
M  V30 214 O 19.3774 5.64112 0.844604 0
M  V30 215 O 18.3114 5.92242 -1.07391 0
M  V30 216 H 22.1374 2.64251 -1.49684 0
M  V30 217 H 19.7224 1.26629 -0.792809 0
M  V30 218 H 21.6044 4.19475 0.402324 0
M  V30 219 H 20.2794 3.10858 0.902707 0
M  V30 220 H 19.1864 3.47499 -1.38546 0
M  V30 221 H 20.5194 4.57927 -1.80454 0
M  V30 222 N 22.1715 0.800033 1.35784 0
M  V30 223 C 23.4205 0.37387 1.98205 0
M  V30 224 C 23.7335 -1.06302 1.64193 0
M  V30 225 O 24.9395 -1.59198 2.19928 0
M  V30 226 C 23.3955 0.617532 3.54562 0
M  V30 227 C 23.0035 2.06654 3.9749 0
M  V30 228 C 24.7475 0.256401 4.23725 0
M  V30 229 C 22.6545 2.2563 5.46667 0
M  V30 230 H 21.5845 0.136055 0.741623 0
M  V30 231 H 24.2355 0.983166 1.54939 0
M  V30 232 H 22.6175 -0.0616248 3.95952 0
M  V30 233 H 23.7915 2.78296 3.67271 0
M  V30 234 H 22.1065 2.38691 3.41197 0
M  V30 235 H 24.7035 0.376318 5.33374 0
M  V30 236 H 25.0465 -0.796692 4.08606 0
M  V30 237 H 25.5795 0.889214 3.87734 0
M  V30 238 H 22.3185 3.2936 5.66747 0
M  V30 239 H 21.8385 1.58504 5.78478 0
M  V30 240 H 23.5175 2.06861 6.1304 0
M  V30 241 N 23.6496 -1.47581 0.552962 0
M  V30 242 C 24.8956 -2.02782 0.0273648 0
M  V30 243 C 25.2286 -1.42687 -1.31734 0
M  V30 244 O 24.5036 -0.580897 -1.85623 0
M  V30 245 C 24.7866 -3.60031 -0.0702371 0
M  V30 246 C 24.6396 -4.30566 1.30126 0
M  V30 247 C 25.9586 -4.33028 -0.785771 0
M  V30 248 H 23.0776 -0.736912 0.0114185 0
M  V30 249 H 25.7196 -1.76056 0.714432 0
M  V30 250 H 23.8696 -3.82932 -0.655382 0
M  V30 251 H 25.5416 -4.19018 1.92929 0
M  V30 252 H 23.7846 -3.91086 1.87709 0
M  V30 253 H 24.4556 -5.39114 1.18573 0
M  V30 254 H 26.9316 -4.15095 -0.288982 0
M  V30 255 H 25.8076 -5.42695 -0.823013 0
M  V30 256 H 26.0686 -4.01945 -1.841 0
M  V30 257 N 25.1277 -0.289203 -1.54924 0
M  V30 258 C 26.0907 0.579144 -2.21762 0
M  V30 259 C 27.0907 1.07047 -1.1999 0
M  V30 260 O 28.2807 0.968384 -1.44803 0
M  V30 261 C 25.4127 1.80055 -2.8947 0
M  V30 262 H 26.6057 -0.00464908 -2.999 0
M  V30 263 H 24.1587 -0.0399306 -1.56249 0
M  V30 264 H 24.8937 2.42449 -2.15381 0
M  V30 265 H 24.6787 1.45602 -3.64064 0
M  V30 266 H 26.1687 2.41773 -3.40493 0
M  V30 267 N 26.6058 1.57591 -0.0167156 0
M  V30 268 C 27.5688 2.08393 0.954204 0
M  V30 269 C 28.5688 0.996531 1.26198 0
M  V30 270 O 29.7588 1.25858 1.20438 0
M  V30 271 C 26.8908 2.5394 2.27436 0
M  V30 272 H 28.0838 2.95455 0.514451 0
M  V30 273 H 25.6368 1.54582 0.231089 0
M  V30 274 H 26.3718 1.70171 2.76066 0
M  V30 275 H 26.1568 3.33371 2.06412 0
M  V30 276 H 27.6468 2.93512 2.97053 0
M  V30 277 N 28.0839 -0.256276 1.55502 0
M  V30 278 C 29.0469 -1.30047 1.88734 0
M  V30 279 C 30.0469 -1.4154 0.763086 0
M  V30 280 O 31.2369 -1.40403 1.03115 0
M  V30 281 C 28.3689 -2.67953 2.10747 0
M  V30 282 H 29.5619 -1.01802 2.82093 0
M  V30 283 H 27.1149 -0.495134 1.4825 0
M  V30 284 H 27.8499 -3.01351 1.19825 0
M  V30 285 H 27.6349 -2.60993 2.92617 0
M  V30 286 H 29.1249 -3.43368 2.37673 0
M  V30 287 N 29.562 -1.4872 -0.521534 0
M  V30 288 C 30.978 -1.35028 -0.850855 0
M  V30 289 C 31.178 -0.367712 -1.98116 0
M  V30 290 O 30.234 0.208037 -2.51642 0
M  V30 291 C 31.547 -2.75263 -1.21041 0
M  V30 292 C 33.095 -2.83813 -1.31981 0
M  V30 293 C 33.57 -4.24769 -1.71276 0
M  V30 294 N 35.061 -4.27482 -1.78363 0
M  V30 295 C 35.796 -5.33494 -2.1017 0
M  V30 296 N 35.292 -6.49775 -2.40343 0
M  V30 297 N 37.085 -5.20894 -2.11248 0
M  V30 298 H 29.236 -2.11214 0.22413 0
M  V30 299 H 31.499 -0.947252 0.0376439 0
M  V30 300 H 31.205 -3.48765 -0.453415 0
M  V30 301 H 31.079 -3.09327 -2.15863 0
M  V30 302 H 33.466 -2.10561 -2.06756 0
M  V30 303 H 33.547 -2.53358 -0.352596 0
M  V30 304 H 33.191 -4.9854 -0.970588 0
M  V30 305 H 33.121 -4.52673 -2.69062 0
M  V30 306 H 35.612 -3.43611 -1.57288 0
M  V30 307 H 35.925 -7.26402 -2.63743 0
M  V30 308 H 34.27 -6.53035 -2.37844 0
M  V30 309 H 37.461 -4.29065 -1.87139 0
M  V30 310 H 37.634 -6.03612 -2.35704 0
M  V30 311 N 31.0401 0.771051 -1.3745 0
M  V30 312 C 31.9721 1.89352 -1.29146 0
M  V30 313 C 32.9851 1.61477 -0.207124 0
M  V30 314 O 34.1741 1.72382 -0.463324 0
M  V30 315 C 31.2741 3.24596 -0.974195 0
M  V30 316 C 30.4471 3.80111 -2.16413 0
M  V30 317 C 29.5061 4.93832 -1.81703 0
M  V30 318 O 28.5321 5.09382 -2.54006 0
M  V30 319 N 29.7341 5.75483 -0.761573 0
M  V30 320 H 32.4991 1.96991 -2.25864 0
M  V30 321 H 30.0601 0.950191 -1.31084 0
M  V30 322 H 32.0521 3.98193 -0.722828 0
M  V30 323 H 30.6221 3.12454 -0.0955527 0
M  V30 324 H 29.8421 2.98284 -2.57721 0
M  V30 325 H 31.1301 4.13932 -2.95867 0
M  V30 326 H 30.5281 5.65469 -0.161609 0
M  V30 327 H 29.0851 6.49302 -0.570064 0
M  V30 328 N 32.5182 1.22032 0.997298 0
M  V30 329 C 33.7642 1.04376 1.73878 0
M  V30 330 C 34.0972 -0.420716 1.89588 0
M  V30 331 O 33.3722 -1.31202 1.43583 0
M  V30 332 C 33.6552 1.75047 3.14691 0
M  V30 333 C 33.5082 3.29062 3.06656 0
M  V30 334 C 34.8272 1.49928 4.13775 0
M  V30 335 H 31.9462 0.380578 0.631133 0
M  V30 336 H 34.5882 1.50312 1.16217 0
M  V30 337 H 32.7382 1.35996 3.63919 0
M  V30 338 H 34.4102 3.7753 2.65083 0
M  V30 339 H 32.6532 3.58967 2.43568 0
M  V30 340 H 33.3242 3.73683 4.06282 0
M  V30 341 H 35.8002 1.83842 3.73285 0
M  V30 342 H 34.6762 2.01878 5.10428 0
M  V30 343 H 34.9372 0.430929 4.39995 0
M  V30 344 N 33.9963 -1.19345 1.0293 0
M  V30 345 C 34.9263 -2.2481 0.631105 0
M  V30 346 C 35.9073 -1.66245 -0.360104 0
M  V30 347 O 37.0923 -1.92677 -0.242726 0
M  V30 348 C 34.2223 -3.47295 -0.0184607 0
M  V30 349 C 33.1763 -4.18536 0.895073 0
M  V30 350 C 32.5023 -5.34586 0.110592 0
M  V30 351 C 33.8023 -4.73287 2.209 0
M  V30 352 H 35.4963 -2.58372 1.51275 0
M  V30 353 H 33.0423 -1.24194 0.728818 0
M  V30 354 H 34.9953 -4.20268 -0.308675 0
M  V30 355 H 33.7193 -3.12933 -0.934907 0
M  V30 356 H 32.3783 -3.47446 1.16949 0
M  V30 357 H 32.0263 -4.96469 -0.807902 0
M  V30 358 H 31.7263 -5.83183 0.719087 0
M  V30 359 H 33.2503 -6.10355 -0.172871 0
M  V30 360 H 34.6643 -5.38013 1.98028 0
M  V30 361 H 33.0613 -5.32373 2.76946 0
M  V30 362 H 34.1313 -3.91331 2.86336 0
M  V30 363 N 35.4744 -0.807222 -1.35358 0
M  V30 364 C 36.7514 -0.311126 -1.9311 0
M  V30 365 C 37.1314 1.19937 -1.73719 0
M  V30 366 O 36.4794 1.99918 -1.10657 0
M  V30 367 C 36.6894 -0.723226 -3.41424 0
M  V30 368 C 38.0374 -0.713078 -4.18569 0
M  V30 369 O 39.0614 -0.664811 -3.49941 0
M  V30 370 O 37.9204 -0.772022 -5.41019 0
M  V30 371 H 35.0144 -0.081526 -0.822972 0
M  V30 372 H 37.5604 -0.890962 -1.4443 0
M  V30 373 H 36.3324 -1.76426 -3.4927 0
M  V30 374 H 35.9554 -0.118232 -3.97424 0
M  V30 375 N 36.9525 1.47285 -0.560781 0
M  V30 376 C 37.9155 2.28535 0.174488 0
M  V30 377 C 38.9155 1.37153 0.839388 0
M  V30 378 O 40.1055 1.59748 0.694702 0
M  V30 379 C 37.2375 3.16934 1.25561 0
M  V30 380 H 38.4305 2.95012 -0.539262 0
M  V30 381 H 35.9835 1.53034 -0.317865 0
M  V30 382 H 36.7185 2.55157 2.00164 0
M  V30 383 H 36.5035 3.8419 0.783604 0
M  V30 384 H 37.9935 3.78143 1.77193 0
M  V30 385 N 38.4306 0.297415 1.54768 0
M  V30 386 C 39.6766 -0.313376 2.00364 0
M  V30 387 C 40.0096 -1.53815 1.18553 0
M  V30 388 O 39.2846 -1.92739 0.261103 0
M  V30 389 C 39.5676 -0.673525 3.53745 0
M  V30 390 C 39.4206 0.560133 4.46299 0
M  V30 391 C 40.7396 -1.50143 4.13697 0
M  V30 392 H 37.8586 -0.112428 0.728374 0
M  V30 393 H 40.5006 0.4088 1.8555 0
M  V30 394 H 38.6506 -1.28881 3.665 0
M  V30 395 H 40.3226 1.19863 4.45455 0
M  V30 396 H 38.5656 1.19405 4.17043 0
M  V30 397 H 39.2366 0.26405 5.51368 0
M  V30 398 H 41.7126 -0.981588 4.04356 0
M  V30 399 H 40.5886 -1.72221 5.21182 0
M  V30 400 H 40.8496 -2.48952 3.65343 0
M  V30 401 N 39.9087 -1.5758 0.0250728 0
M  V30 402 C 41.1857 -1.82917 -0.692873 0
M  V30 403 C 41.5657 -0.908137 -1.90568 0
M  V30 404 O 40.9137 0.0372298 -2.2847 0
M  V30 405 C 41.1237 -3.32034 -1.07492 0
M  V30 406 C 42.4717 -3.98406 -1.46826 0
M  V30 407 O 43.4957 -3.36505 -1.16801 0
M  V30 408 O 42.3547 -5.07497 -2.02754 0
M  V30 409 H 39.4487 -0.754079 -0.33955 0
M  V30 410 H 41.9947 -1.69619 0.0524456 0
M  V30 411 H 40.7667 -3.90728 -0.211552 0
M  V30 412 H 40.3897 -3.50424 -1.87854 0
M  V30 413 N 41.3868 0.248026 -1.55636 0
M  V30 414 C 42.3188 1.32993 -1.8667 0
M  V30 415 C 43.3318 1.44345 -0.752877 0
M  V30 416 O 44.5208 1.45715 -1.03098 0
M  V30 417 C 41.6208 2.70863 -2.03682 0
M  V30 418 C 40.7938 2.81792 -3.34532 0
M  V30 419 C 39.8528 4.005 -3.41301 0
M  V30 420 O 38.8788 3.9008 -4.14519 0
M  V30 421 N 40.0808 5.13618 -2.70512 0
M  V30 422 H 42.8458 1.06707 -2.8006 0
M  V30 423 H 40.4068 0.438129 -1.55859 0
M  V30 424 H 42.3988 3.48612 -2.05553 0
M  V30 425 H 40.9688 2.89862 -1.17041 0
M  V30 426 H 40.1888 1.90729 -3.44987 0
M  V30 427 H 41.4768 2.86043 -4.20781 0
M  V30 428 H 40.8748 5.24975 -2.10755 0
M  V30 429 H 39.4318 5.89505 -2.78077 0
M  V30 430 N 42.8649 1.48995 0.513639 0
M  V30 431 C 43.8279 1.64229 1.59879 0
M  V30 432 C 44.8279 0.514696 1.5234 0
M  V30 433 O 46.0179 0.78087 1.55718 0
M  V30 434 C 43.1499 1.62783 2.99524 0
M  V30 435 H 44.3429 2.61004 1.47705 0
M  V30 436 H 41.8959 1.37837 0.736936 0
M  V30 437 H 42.6309 0.675461 3.17188 0
M  V30 438 H 42.4159 2.4466 3.06404 0
M  V30 439 H 43.9059 1.76669 3.78388 0
M  V30 440 N 44.343 -0.763751 1.37857 0
M  V30 441 C 45.306 -1.85889 1.34081 0
M  V30 442 C 46.306 -1.58949 0.243277 0
M  V30 443 O 47.496 -1.66882 0.499589 0
M  V30 444 C 44.628 -3.23176 1.08489 0
M  V30 445 H 45.821 -1.90648 2.31502 0
M  V30 446 H 43.374 -0.964367 1.23003 0
M  V30 447 H 44.109 -3.24091 0.116318 0
M  V30 448 H 43.894 -3.44124 1.8794 0
M  V30 449 H 45.384 -4.03254 1.08517 0
M  V30 450 N 45.8211 -1.22559 -0.990812 0
M  V30 451 C 46.7711 -0.964807 -2.0658 0
M  V30 452 C 47.7551 0.0853472 -1.60673 0
M  V30 453 O 48.9471 -0.125443 -1.76555 0
M  V30 454 C 46.0761 -0.546707 -3.38919 0
M  V30 455 C 45.1621 -1.6317 -3.91454 0
M  V30 456 N 45.5531 -2.85985 -4.17189 0
M  V30 457 C 43.8511 -1.50387 -4.19881 0
M  V30 458 C 44.5521 -3.56159 -4.59919 0
M  V30 459 N 43.5281 -2.83637 -4.63736 0
M  V30 460 H 47.3301 -1.89769 -2.24421 0
M  V30 461 H 44.8441 -1.12343 -1.17273 0
M  V30 462 H 46.8411 -0.34119 -4.15502 0
M  V30 463 H 45.5011 0.379254 -3.22478 0
M  V30 464 H 46.5121 -3.22392 -4.05319 0
M  V30 465 H 43.1891 -0.644254 -4.12499 0
M  V30 466 H 44.5791 -4.6139 -4.88435 0
M  V30 467 N 47.2992 1.18797 -1.03562 0
M  V30 468 C 48.2292 2.24472 -0.643019 0
M  V30 469 C 49.2102 1.66433 0.351283 0
M  V30 470 O 50.3952 1.92803 0.232505 0
M  V30 471 C 47.5252 3.473 4.24935e-05 0
M  V30 472 C 46.4792 4.18055 -0.917257 0
M  V30 473 C 45.8052 5.34519 -0.138941 0
M  V30 474 C 47.1052 4.72109 -2.23407 0
M  V30 475 H 48.7992 2.57566 -1.52643 0
M  V30 476 H 46.3452 1.23806 -0.735394 0
M  V30 477 H 48.2982 4.20426 0.286383 0
M  V30 478 H 47.0222 3.13424 0.918299 0
M  V30 479 H 45.6812 3.46821 -1.1879 0
M  V30 480 H 45.3292 4.96891 0.781562 0
M  V30 481 H 45.0292 5.82794 -0.750005 0
M  V30 482 H 46.5532 6.10438 0.1405 0
M  V30 483 H 47.9672 5.36955 -2.00879 0
M  V30 484 H 46.3642 5.30897 -2.79765 0
M  V30 485 H 47.4342 3.89807 -2.88407 0
M  V30 486 N 48.7773 0.814389 1.34928 0
M  V30 487 C 50.0253 0.397636 1.9815 0
M  V30 488 C 50.3463 -1.04069 1.64908 0
M  V30 489 O 49.6163 -1.72121 0.93548 0
M  V30 490 H 48.1963 0.144043 0.732981 0
M  V30 491 H 50.8583 1.04195 1.6471 0
M  V30 492 H 49.9543 0.509688 3.0791 0
M  V30 493 N 50.2554 -1.46986 0.568584 0
M  V30 494 C 51.1854 -2.32946 -0.160753 0
M  V30 495 C 52.1664 -1.44487 -0.897631 0
M  V30 496 O 53.3514 -1.73327 -0.875867 0
M  V30 497 C 50.4814 -3.26494 -1.18403 0
M  V30 498 C 49.4354 -4.24282 -0.562895 0
M  V30 499 C 48.7614 -5.07236 -1.69163 0
M  V30 500 C 50.0614 -5.19989 0.490761 0
M  V30 501 H 51.7554 -2.94175 0.556916 0
M  V30 502 H 49.3014 -1.4146 0.26927 0
M  V30 503 H 51.2544 -3.85477 -1.70251 0
M  V30 504 H 49.9784 -2.63343 -1.93179 0
M  V30 505 H 48.6374 -3.66541 -0.0656164 0
M  V30 506 H 48.2854 -4.4048 -2.42871 0
M  V30 507 H 47.9854 -5.7345 -1.28174 0
M  V30 508 H 49.5094 -5.6908 -2.21314 0
M  V30 509 H 50.9234 -5.73271 0.0579047 0
M  V30 510 H 49.3204 -5.94469 0.820165 0
M  V30 511 H 50.3904 -4.64777 1.3824 0
M  V30 512 N 51.7335 -0.305618 -1.54608 0
M  V30 513 C 53.1495 0.0476228 -1.59529 0
M  V30 514 C 53.3495 1.52025 -1.32252 0
M  V30 515 O 52.4055 2.27368 -1.09818 0
M  V30 516 C 53.7185 -0.354471 -2.98603 0
M  V30 517 C 55.2665 -0.303622 -3.11524 0
M  V30 518 C 55.7415 -0.680608 -4.52915 0
M  V30 519 N 57.2325 -0.63332 -4.5885 0
M  V30 520 C 57.9675 -0.897432 -5.66334 0
M  V30 521 N 57.4635 -1.22775 -6.81834 0
M  V30 522 N 59.2565 -0.824186 -5.56025 0
M  V30 523 H 51.4075 -1.2653 -1.70599 0
M  V30 524 H 53.6705 -0.513291 -0.797017 0
M  V30 525 H 53.3765 -1.3798 -3.23503 0
M  V30 526 H 53.2505 0.289568 -3.76087 0
M  V30 527 H 55.6375 0.712472 -2.8637 0
M  V30 528 H 55.7185 -0.982348 -2.36185 0
M  V30 529 H 55.3625 -1.69453 -4.78799 0
M  V30 530 H 55.2925 0.0202385 -5.26596 0
M  V30 531 H 57.7835 -0.389138 -3.75891 0
M  V30 532 H 58.0965 -1.41513 -7.59733 0
M  V30 533 H 56.4415 -1.26583 -6.83375 0
M  V30 534 H 59.6325 -0.565748 -4.64669 0
M  V30 535 H 59.8055 -1.03338 -6.39707 0
M  V30 536 N 53.2116 1.57565 -0.0334293 0
M  V30 537 C 54.4516 1.93844 0.648379 0
M  V30 538 C 54.8156 0.910387 1.69044 0
M  V30 539 O 56.0166 1.15952 2.42505 0
M  V30 540 C 54.2876 3.35017 1.24492 0
M  V30 541 S 55.8466 3.93229 1.94721 0
M  V30 542 H 52.6646 0.678231 0.213364 0
M  V30 543 H 55.2666 1.95254 -0.0981253 0
M  V30 544 H 53.9706 4.07652 0.474128 0
M  V30 545 H 53.5016 3.37061 2.02864 0
M  V30 546 H 55.5166 3.77014 3.22606 0
M  V30 547 N 54.6897 -0.239769 1.55765 0
M  V30 548 C 55.9177 -0.98417 1.81994 0
M  V30 549 C 56.3327 -1.7867 0.610124 0
M  V30 550 O 55.6897 -1.77571 -0.421271 0
M  V30 551 C 55.7407 -1.91635 3.06526 0
M  V30 552 O 55.4617 -1.14629 4.22838 0
M  V30 553 C 56.9627 -2.77616 3.45607 0
M  V30 554 H 54.1827 -0.28928 0.605441 0
M  V30 555 H 56.7267 -0.260499 2.02834 0
M  V30 556 H 54.8817 -2.5942 2.87715 0
M  V30 557 H 55.2957 -1.77745 4.93464 0
M  V30 558 H 56.7697 -3.38759 4.35828 0
M  V30 559 H 57.2467 -3.4909 2.6652 0
M  V30 560 H 57.8527 -2.15271 3.66795 0
M  V30 561 N 56.1678 -1.49265 -0.50573 0
M  V30 562 C 57.0778 -1.68312 -1.63427 0
M  V30 563 C 58.0938 -0.565682 -1.64548 0
M  V30 564 O 59.2698 -0.839801 -1.83055 0
M  V30 565 C 56.3348 -1.74107 -2.99813 0
M  V30 566 C 55.3958 -2.97653 -3.09356 0
M  V30 567 C 54.6288 -3.03163 -4.39236 0
M  V30 568 O 54.8518 -2.16396 -5.27758 0
M  V30 569 O 53.7858 -3.9558 -4.53652 0
M  V30 570 H 57.6118 -2.63907 -1.50289 0
M  V30 571 H 55.1968 -1.32951 -0.681502 0
M  V30 572 H 57.0788 -1.803 -3.80881 0
M  V30 573 H 55.7538 -0.816901 -3.13223 0
M  V30 574 H 54.6608 -2.96981 -2.27493 0
M  V30 575 H 55.9938 -3.89535 -3.00871 0
M  V30 576 N 57.6459 0.756429 -1.3826 0
M  V30 577 C 58.8939 1.51248 -1.34047 0
M  V30 578 C 59.2149 1.94875 0.0698372 0
M  V30 579 O 58.4849 1.67436 1.01696 0
M  V30 580 H 57.0649 0.561018 -0.493222 0
M  V30 581 H 59.7269 0.899347 -1.7291 0
M  V30 582 H 58.8229 2.40472 -1.98947 0
M  V30 583 N 59.124 1.23083 0.984299 0
M  V30 584 C 60.054 1.03292 2.09411 0
M  V30 585 C 61.035 -0.048923 1.7003 0
M  V30 586 O 62.22 0.114967 1.93859 0
M  V30 587 C 59.35 0.619155 3.41736 0
M  V30 588 C 58.304 1.64791 3.95004 0
M  V30 589 C 57.63 1.0897 5.23478 0
M  V30 590 C 58.93 3.03999 4.24714 0
M  V30 591 H 60.624 1.96119 2.26225 0
M  V30 592 H 58.17 0.944344 1.08711 0
M  V30 593 H 60.123 0.467777 4.18796 0
M  V30 594 H 58.847 -0.344786 3.24775 0
M  V30 595 H 57.506 1.78721 3.20085 0
M  V30 596 H 57.154 0.11686 5.02864 0
M  V30 597 H 56.854 1.77704 5.60085 0
M  V30 598 H 58.378 0.950093 6.03163 0
M  V30 599 H 59.792 2.93393 4.92538 0
M  V30 600 H 58.189 3.69936 4.72512 0
M  V30 601 H 59.259 3.53285 3.32142 0
M  V30 602 N 60.6021 -1.18246 1.0419 0
M  V30 603 C 61.8481 -1.88536 0.747122 0
M  V30 604 C 62.1811 -1.80223 -0.723409 0
M  V30 605 O 61.4561 -1.20337 -1.52804 0
M  V30 606 C 61.7391 -3.38968 1.21544 0
M  V30 607 C 61.5921 -3.56084 2.74816 0
M  V30 608 C 62.9111 -4.32648 0.806482 0
M  V30 609 H 60.0301 -0.684619 0.272883 0
M  V30 610 H 62.6721 -1.39113 1.29413 0
M  V30 611 H 60.8221 -3.8119 0.750081 0
M  V30 612 H 62.4941 -3.22946 3.29399 0
M  V30 613 H 60.7371 -2.98699 3.14582 0
M  V30 614 H 61.4081 -4.61639 3.02644 0
M  V30 615 H 63.8841 -3.98211 1.20695 0
M  V30 616 H 62.7601 -5.36462 1.1619 0
M  V30 617 H 63.0211 -4.41146 -0.29029 0
M  V30 618 N 62.0802 -0.821533 -1.34494 0
M  V30 619 C 63.3282 -0.408139 -1.97936 0
M  V30 620 C 63.6492 1.03193 -1.65457 0
M  V30 621 O 62.9192 1.71622 -0.944595 0
M  V30 622 H 61.4992 -0.147928 -0.732206 0
M  V30 623 H 64.1612 -1.05067 -1.64155 0
M  V30 624 H 63.2572 -0.52601 -3.07635 0
M  V30 625 N 63.5583 1.46682 -0.576371 0
M  V30 626 C 64.8063 2.02013 -0.0594163 0
M  V30 627 C 65.1273 1.45101 1.30271 0
M  V30 628 O 64.3973 0.633317 1.8538 0
M  V30 629 H 62.9773 0.746759 -0.0189745 0
M  V30 630 H 65.6393 1.79862 -0.750717 0
M  V30 631 H 64.7353 3.12097 0.014345 0
M  V30 632 N 65.0364 0.313813 1.54444 0
M  V30 633 C 65.9994 -0.54379 2.22656 0
M  V30 634 C 66.9994 -1.05124 1.21678 0
M  V30 635 O 68.1894 -0.945225 1.46325 0
M  V30 636 C 65.3214 -1.75427 2.92298 0
M  V30 637 H 66.5144 0.0523599 2.99854 0
M  V30 638 H 64.0674 0.0647834 1.56166 0
M  V30 639 H 64.8024 -2.38991 2.19211 0
M  V30 640 H 64.5874 -1.39791 3.66334 0
M  V30 641 H 66.0774 -2.36325 3.44297 0
M  V30 642 N 66.5145 -1.57545 0.0417849 0
M  V30 643 C 67.4775 -2.09885 -0.92093 0
M  V30 644 C 68.4775 -1.01648 -1.24596 0
M  V30 645 O 69.6675 -1.27759 -1.1842 0
M  V30 646 C 66.7995 -2.57527 -2.23367 0
M  V30 647 H 67.9925 -2.96236 -0.467382 0
M  V30 648 H 65.5455 -1.5493 -0.206467 0
M  V30 649 H 66.2805 -1.74542 -2.73323 0
M  V30 650 H 66.0655 -3.36613 -2.01083 0
M  V30 651 H 67.5555 -2.98201 -2.92346 0
M  V30 652 N 67.9926 0.231505 -1.5589 0
M  V30 653 C 68.9226 1.29022 -1.94617 0
M  V30 654 C 69.9036 1.4941 -0.813067 0
M  V30 655 O 71.0886 1.6176 -1.07459 0
M  V30 656 C 68.2186 2.64199 -2.25424 0
M  V30 657 C 67.1726 2.58484 -3.41131 0
M  V30 658 C 66.4986 3.97599 -3.57518 0
M  V30 659 C 67.7986 2.1413 -4.76388 0
M  V30 660 H 69.4926 0.968563 -2.83301 0
M  V30 661 H 67.0386 0.464479 -1.36303 0
M  V30 662 H 68.9916 3.38413 -2.51107 0
M  V30 663 H 67.7156 2.98032 -1.33583 0
M  V30 664 H 66.3746 1.86727 -3.15481 0
M  V30 665 H 66.0226 4.28723 -2.6307 0
M  V30 666 H 65.7226 3.94659 -4.35337 0
M  V30 667 H 67.2466 4.7349 -3.85538 0
M  V30 668 H 68.6606 2.78083 -5.01341 0
M  V30 669 H 67.0576 2.2227 -5.57419 0
M  V30 670 H 68.1276 1.09331 -4.72414 0
M  V30 671 N 69.4707 1.49531 0.497807 0
M  V30 672 C 70.7477 1.49682 1.25915 0
M  V30 673 C 71.1277 0.226339 2.09883 0
M  V30 674 O 70.4757 -0.791189 2.14365 0
M  V30 675 C 70.6857 2.77755 2.11313 0
M  V30 676 C 72.0337 3.27371 2.70395 0
M  V30 677 O 73.0577 2.78894 2.21578 0
M  V30 678 O 71.9167 4.11808 3.59272 0
M  V30 679 H 69.0107 0.599228 0.56996 0
M  V30 680 H 71.5567 1.61798 0.511816 0
M  V30 681 H 70.3287 3.61713 1.49264 0
M  V30 682 H 69.9517 2.68515 2.93233 0
M  V30 683 N 70.9488 -0.749086 1.3866 0
M  V30 684 C 71.9118 -1.84457 1.36045 0
M  V30 685 C 72.9118 -1.58682 0.260122 0
M  V30 686 O 74.1018 -1.66343 0.517261 0
M  V30 687 C 71.2338 -3.22008 1.11911 0
M  V30 688 H 72.4268 -1.88182 2.33512 0
M  V30 689 H 69.9798 -0.951266 1.24019 0
M  V30 690 H 70.7148 -3.2395 0.150686 0
M  V30 691 H 70.4998 -3.42111 1.91579 0
M  V30 692 H 71.9898 -4.0208 1.12788 0
M  V30 693 N 72.4269 -1.23603 -0.977757 0
M  V30 694 C 73.6519 -1.09735 -1.75991 0
M  V30 695 C 74.0769 0.346858 -1.84874 0
M  V30 696 O 73.4349 1.25093 -1.3123 0
M  V30 697 C 73.4829 -1.73051 -3.16363 0
M  V30 698 O 72.5869 -0.994452 -4.0023 0
M  V30 699 H 71.9279 -0.384476 -0.541364 0
M  V30 700 H 74.4579 -1.6371 -1.2272 0
M  V30 701 H 74.4679 -1.78398 -3.66931 0
M  V30 702 H 73.1429 -2.78137 -3.09213 0
M  V30 703 H 71.7199 -1.01812 -3.58732 0
M  V30 704 N 73.905 1.17692 -1.04816 0
M  V30 705 C 75.182 1.83768 -0.669963 0
M  V30 706 C 75.562 1.93232 0.849986 0
M  V30 707 O 74.91 1.46397 1.75443 0
M  V30 708 C 75.12 3.21641 -1.35455 0
M  V30 709 C 76.468 3.97592 -1.49017 0
M  V30 710 O 77.492 3.31107 -1.31326 0
M  V30 711 O 76.351 5.16729 -1.77914 0
M  V30 712 H 73.445 0.792799 -0.235368 0
M  V30 713 H 75.991 1.25021 -1.14751 0
M  V30 714 H 74.763 3.097 -2.39168 0
M  V30 715 H 74.386 3.88052 -0.866107 0
M  V30 716 N 75.3831 0.828654 1.34056 0
M  V30 717 C 76.6601 0.341809 1.9259 0
M  V30 718 C 77.0401 -1.17158 1.75605 0
M  V30 719 O 76.3881 -1.98132 1.13824 0
M  V30 720 C 76.5981 0.777453 3.4023 0
M  V30 721 C 77.9461 0.779579 4.17382 0
M  V30 722 O 78.9701 0.7204 3.48839 0
M  V30 723 O 77.8291 0.857996 5.39723 0
M  V30 724 H 74.9231 0.0946085 0.821571 0
M  V30 725 H 77.4691 0.913827 1.42994 0
M  V30 726 H 76.2411 1.8196 3.46419 0
M  V30 727 H 75.8641 0.181444 3.97186 0
M  V30 728 N 76.8612 -1.46375 0.584142 0
M  V30 729 C 78.2722 -1.86031 0.157959 0
M  V30 730 C 78.6232 -1.48753 -1.27933 0
M  V30 731 O 77.7482 -0.903098 -1.96655 0
M  V30 732 C 78.3432 -3.37642 0.279892 0
M  V30 733 C 76.9022 -3.76289 -0.09143 0
M  V30 734 C 76.0492 -2.7039 0.615178 0
M  V30 735 H 79.0002 -1.37509 0.792274 0
M  V30 736 H 79.0212 -3.77275 -0.494364 0
M  V30 737 H 78.5332 -3.64742 1.32607 0
M  V30 738 H 76.6342 -3.54806 -1.13769 0
M  V30 739 H 76.7472 -4.78246 0.285886 0
M  V30 740 H 75.1112 -2.5464 0.0552833 0
M  V30 741 H 75.8942 -3.0033 1.66303 0
M  V30 742 N 78.3393 -0.321999 -1.54275 0
M  V30 743 C 79.2693 0.537411 -2.27231 0
M  V30 744 C 80.2503 1.12064 -1.27968 0
M  V30 745 O 81.4353 1.14606 -1.56777 0
M  V30 746 C 78.5653 1.69919 -3.02894 0
M  V30 747 C 77.5193 1.24534 -4.09482 0
M  V30 748 C 76.8453 2.49394 -4.72977 0
M  V30 749 C 78.1453 0.361335 -5.21049 0
M  V30 750 H 79.8393 -0.0711406 -2.99315 0
M  V30 751 H 77.3853 -0.0356555 -1.43956 0
M  V30 752 H 79.3383 2.30668 -3.52662 0
M  V30 753 H 78.0623 2.33431 -2.28424 0
M  V30 754 H 76.7213 0.660782 -3.60596 0
M  V30 755 H 76.3693 3.11265 -3.95124 0
M  V30 756 H 76.0693 2.19718 -5.44975 0
M  V30 757 H 77.5933 3.10908 -5.25517 0
M  V30 758 H 79.0073 0.875072 -5.66582 0
M  V30 759 H 77.4043 0.157428 -5.99893 0
M  V30 760 H 78.4743 -0.60822 -4.8107 0
M  V30 761 N 79.8174 1.5752 -0.0501392 0
M  V30 762 C 81.2284 1.80271 0.485705 0
M  V30 763 C 81.5794 0.96228 1.70981 0
M  V30 764 O 80.7044 0.178578 2.15662 0
M  V30 765 C 81.2994 3.26957 0.887938 0
M  V30 766 C 79.8584 3.5063 1.36877 0
M  V30 767 C 79.0054 2.75165 0.343468 0
M  V30 768 H 81.9564 1.56281 -0.276028 0
M  V30 769 H 81.9774 3.37821 1.75093 0
M  V30 770 H 81.4894 3.881 -0.0031809 0
M  V30 771 H 79.5904 2.94766 2.27911 0
M  V30 772 H 79.7034 4.59343 1.36164 0
M  V30 773 H 78.0674 2.4127 0.816128 0
M  V30 774 H 78.8504 3.39034 -0.539548 0
M  V30 775 N 81.2955 -0.223234 1.56011 0
M  V30 776 C 82.2585 -1.26014 1.9145 0
M  V30 777 C 83.2585 -1.3989 0.792937 0
M  V30 778 O 84.4485 -1.38184 1.0607 0
M  V30 779 C 81.5805 -2.63422 2.16383 0
M  V30 780 H 82.7735 -0.95796 2.84189 0
M  V30 781 H 80.3265 -0.463576 1.49267 0
M  V30 782 H 81.0615 -2.98741 1.2619 0
M  V30 783 H 80.8465 -2.54728 2.98088 0
M  V30 784 H 82.3365 -3.38249 2.44903 0
M  V30 785 N 82.7736 -1.49793 -0.48987 0
M  V30 786 C 83.7366 -1.66752 -1.57246 0
M  V30 787 C 84.7366 -0.538867 -1.51502 0
M  V30 788 O 85.9266 -0.805545 -1.54456 0
M  V30 789 C 83.0586 -1.67528 -2.96896 0
M  V30 790 H 84.2516 -2.63321 -1.43534 0
M  V30 791 H 81.8046 -1.38992 -0.714914 0
M  V30 792 H 82.5396 -0.725837 -3.16073 0
M  V30 793 H 82.3246 -2.49504 -3.02473 0
M  V30 794 H 83.8146 -1.82667 -3.7553 0
M  V30 795 N 84.2517 0.741722 -1.39055 0
M  V30 796 C 85.4767 1.53607 -1.39354 0
M  V30 797 C 85.9017 1.88096 0.0116905 0
M  V30 798 O 85.2597 1.5143 0.996924 0
M  V30 799 C 85.3077 2.80441 -2.26682 0
M  V30 800 O 84.4117 3.76088 -1.69208 0
M  V30 801 H 83.7527 0.464142 -0.474835 0
M  V30 802 H 86.2827 0.915665 -1.82967 0
M  V30 803 H 86.2927 3.29246 -2.40959 0
M  V30 804 H 84.9677 2.5467 -3.2881 0
M  V30 805 H 83.5447 3.34833 -1.64138 0
M  V30 806 N 85.7298 1.2412 0.971189 0
M  V30 807 C 86.6598 1.05508 2.08304 0
M  V30 808 C 87.6408 -0.0308864 1.70072 0
M  V30 809 O 88.8258 0.135521 1.93727 0
M  V30 810 C 85.9558 0.655365 3.4106 0
M  V30 811 C 84.9098 1.68971 3.93234 0
M  V30 812 C 84.2358 1.14516 5.22293 0
M  V30 813 C 85.5358 3.08487 4.21465 0
M  V30 814 H 87.2298 1.98507 2.24132 0
M  V30 815 H 84.7758 0.955821 1.07704 0
M  V30 816 H 86.7288 0.51217 4.18276 0
M  V30 817 H 85.4528 -0.31032 3.25122 0
M  V30 818 H 84.1118 1.82106 3.18171 0
M  V30 819 H 83.7598 0.170189 5.02712 0
M  V30 820 H 83.4598 1.83635 5.58168 0
M  V30 821 H 84.9838 1.01401 6.02121 0
M  V30 822 H 86.3978 2.98601 4.89398 0
M  V30 823 H 84.7948 3.74926 4.68562 0
M  V30 824 H 85.8648 3.56787 3.28376 0
M  V30 825 N 87.2079 -1.17134 1.05439 0
M  V30 826 C 88.1399 -2.2078 0.615539 0
M  V30 827 C 89.1529 -1.59584 -0.322001 0
M  V30 828 O 90.3419 -1.78133 -0.114344 0
M  V30 829 C 87.4419 -3.38691 -0.118938 0
M  V30 830 C 86.6149 -4.29454 0.829924 0
M  V30 831 C 85.6739 -5.26024 0.136258 0
M  V30 832 O 84.6999 -5.63952 0.77115 0
M  V30 833 N 85.9019 -5.69487 -1.1254 0
M  V30 834 H 88.6669 -2.59052 1.50705 0
M  V30 835 H 86.2279 -1.32058 0.936603 0
M  V30 836 H 88.2199 -4.00329 -0.593179 0
M  V30 837 H 86.7899 -2.98996 -0.91215 0
M  V30 838 H 86.0099 -3.65211 1.48373 0
M  V30 839 H 87.2979 -4.86984 1.47392 0
M  V30 840 H 86.6959 -5.4075 -1.6615 0
M  V30 841 H 85.2529 -6.33257 -1.54366 0
M  V30 842 N 88.686 -0.835752 -1.33615 0
M  V30 843 C 89.616 -0.281739 -2.31794 0
M  V30 844 C 90.597 0.608833 -1.58831 0
M  V30 845 O 91.782 0.533035 -1.86741 0
M  V30 846 C 88.912 0.546612 -3.42971 0
M  V30 847 C 87.866 -0.247904 -4.27281 0
M  V30 848 C 87.192 0.704001 -5.30045 0
M  V30 849 C 88.492 -1.46324 -5.01385 0
M  V30 850 H 90.186 -1.10206 -2.78379 0
M  V30 851 H 87.732 -0.531388 -1.33837 0
M  V30 852 H 89.685 0.944467 -4.1068 0
M  V30 853 H 88.409 1.40011 -2.95067 0
M  V30 854 H 87.068 -0.627281 -3.61194 0
M  V30 855 H 86.716 1.55381 -4.78399 0
M  V30 856 H 86.416 0.176524 -5.87335 0
M  V30 857 H 87.94 1.09944 -6.0062 0
M  V30 858 H 89.354 -1.13871 -5.61877 0
M  V30 859 H 87.751 -1.92728 -5.6831 0
M  V30 860 H 88.821 -2.23467 -4.30338 0
M  V30 861 N 90.1641 1.46063 -0.591896 0
M  V30 862 C 91.1271 2.28854 0.125973 0
M  V30 863 C 92.1271 1.38903 0.810107 0
M  V30 864 O 93.3171 1.61186 0.66066 0
M  V30 865 C 90.4491 3.19526 1.1881 0
M  V30 866 H 91.6421 2.93802 -0.601717 0
M  V30 867 H 89.1951 1.52325 -0.350254 0
M  V30 868 H 89.9301 2.59345 1.94707 0
M  V30 869 H 89.7151 3.85766 0.701936 0
M  V30 870 H 91.2051 3.81817 1.69132 0
M  V30 871 N 91.6422 0.330177 1.54103 0
M  V30 872 C 92.5752 -0.575477 2.20825 0
M  V30 873 C 93.5532 -1.11064 1.18758 0
M  V30 874 O 94.7372 -1.17341 1.47524 0
M  V30 875 C 91.8642 -1.79032 2.87516 0
M  V30 876 C 90.9102 -1.38581 4.03358 0
M  V30 877 S 91.7432 -0.416911 5.33875 0
M  V30 878 C 92.8992 -1.63889 6.04062 0
M  V30 879 H 93.1322 -0.00872114 2.97299 0
M  V30 880 H 90.6652 0.114254 1.53977 0
M  V30 881 H 92.6232 -2.48734 3.2656 0
M  V30 882 H 91.2842 -2.32827 2.10832 0
M  V30 883 H 90.4772 -2.29123 4.48908 0
M  V30 884 H 90.0792 -0.768419 3.66021 0
M  V30 885 H 92.3712 -2.57536 6.26643 0
M  V30 886 H 93.3142 -1.22542 6.97416 0
M  V30 887 H 93.7222 -1.82887 5.34053 0
M  V30 888 N 93.1203 -1.57491 0.0584922 0
M  V30 889 C 94.0833 -2.1085 -0.898617 0
M  V30 890 C 95.0833 -1.02964 -1.23511 0
M  V30 891 O 96.2733 -1.29007 -1.17059 0
M  V30 892 C 93.4053 -2.59881 -2.20623 0
M  V30 893 H 94.5983 -2.96715 -0.435936 0
M  V30 894 H 92.1513 -1.55141 -0.190023 0
M  V30 895 H 92.8863 -1.77431 -2.71457 0
M  V30 896 H 92.6713 -3.38727 -1.97501 0
M  V30 897 H 94.1613 -3.01285 -2.89166 0
M  V30 898 N 94.5984 0.214957 -1.56127 0
M  V30 899 C 95.5614 1.24997 -1.92116 0
M  V30 900 C 96.5614 1.39467 -0.800344 0
M  V30 901 O 97.7514 1.37619 -1.06802 0
M  V30 902 C 94.8834 2.62271 -2.17777 0
M  V30 903 H 96.0764 0.942875 -2.84693 0
M  V30 904 H 93.6294 0.455654 -1.49511 0
M  V30 905 H 94.3644 2.98068 -1.27773 0
M  V30 906 H 94.1494 2.53143 -2.99434 0
M  V30 907 H 95.6394 3.36946 -2.46693 0
M  V30 908 N 96.0765 1.50051 0.48192 0
M  V30 909 C 97.3535 1.51009 1.2432 0
M  V30 910 C 97.7335 0.248587 2.09631 0
M  V30 911 O 97.0815 -0.768409 2.15192 0
M  V30 912 C 97.2915 2.79981 2.08355 0
M  V30 913 C 98.6395 3.3022 2.66908 0
M  V30 914 O 99.6635 2.81228 2.18607 0
M  V30 915 O 98.5225 4.15595 3.54884 0
M  V30 916 H 95.6165 0.605239 0.563573 0
M  V30 917 H 98.1625 1.62332 0.494627 0
M  V30 918 H 96.9345 3.63275 1.45419 0
M  V30 919 H 96.5575 2.7161 2.90368 0
M  V30 920 N 97.5546 -0.734337 1.39446 0
M  V30 921 C 98.5176 -1.83004 1.37994 0
M  V30 922 C 99.5176 -1.58397 0.276938 0
M  V30 923 O 100.708 -1.65785 0.534875 0
M  V30 924 C 97.8396 -3.20802 1.1532 0
M  V30 925 H 99.0326 -1.85694 2.35494 0
M  V30 926 H 96.5856 -0.938059 1.25021 0
M  V30 927 H 97.3206 -3.23772 0.185036 0
M  V30 928 H 97.1056 -3.4006 1.95197 0
M  V30 929 H 98.5956 -4.00862 1.17046 0
M  V30 930 N 99.0327 -1.24633 -0.964593 0
M  V30 931 C 100.279 -1.08949 -1.71049 0
M  V30 932 C 100.612 0.370302 -1.90637 0
M  V30 933 O 99.8867 1.27349 -1.47011 0
M  V30 934 C 100.17 -1.83329 -3.0994 0
M  V30 935 C 100.023 -3.37077 -2.97824 0
M  V30 936 C 101.342 -1.60846 -4.09654 0
M  V30 937 H 98.4607 -0.397178 -0.620821 0
M  V30 938 H 101.103 -1.5334 -1.12191 0
M  V30 939 H 99.2527 -1.45597 -3.60186 0
M  V30 940 H 100.925 -3.84425 -2.5498 0
M  V30 941 H 99.1677 -3.65298 -2.33965 0
M  V30 942 H 99.8387 -3.84324 -3.96231 0
M  V30 943 H 102.315 -1.93674 -3.68279 0
M  V30 944 H 101.191 -2.1534 -5.04896 0
M  V30 945 H 101.452 -0.547434 -4.38698 0
M  V30 946 N 100.511 1.16574 -1.06058 0
M  V30 947 C 101.76 1.86385 -0.770944 0
M  V30 948 C 102.073 1.82448 0.705129 0
M  V30 949 O 103.279 2.47815 1.10905 0
M  V30 950 C 101.735 3.34466 -1.32893 0
M  V30 951 C 101.343 3.46883 -2.83507 0
M  V30 952 C 103.087 4.09548 -1.11672 0
M  V30 953 C 100.994 4.89036 -3.32562 0
M  V30 954 H 99.9238 0.698181 -0.284709 0
M  V30 955 H 102.575 1.31583 -1.27899 0
M  V30 956 H 100.957 3.88859 -0.748662 0
M  V30 957 H 102.131 3.02663 -3.47465 0
M  V30 958 H 100.446 2.85232 -3.03368 0
M  V30 959 H 103.043 5.14434 -1.45814 0
M  V30 960 H 103.386 4.16264 -0.0549535 0
M  V30 961 H 103.919 3.61387 -1.66265 0
M  V30 962 H 100.658 4.87499 -4.38207 0
M  V30 963 H 100.178 5.3389 -2.73351 0
M  V30 964 H 101.857 5.57843 -3.2775 0
M  V30 965 N 101.989 0.842826 1.3317 0
M  V30 966 C 102.919 0.294028 2.31641 0
M  V30 967 C 103.9 -0.600401 1.59151 0
M  V30 968 O 105.085 -0.523124 1.87022 0
M  V30 969 C 102.215 -0.528416 3.43257 0
M  V30 970 C 101.169 0.27056 4.27144 0
M  V30 971 C 100.495 -0.675881 5.30411 0
M  V30 972 C 101.795 1.48981 5.00602 0
M  V30 973 H 103.489 1.11681 2.77791 0
M  V30 974 H 101.035 0.538478 1.33553 0
M  V30 975 H 102.988 -0.922674 4.11175 0
M  V30 976 H 101.712 -1.38445 2.95805 0
M  V30 977 H 100.371 0.646427 3.60856 0
M  V30 978 H 100.019 -1.52842 4.79216 0
M  V30 979 H 99.7189 -0.145374 5.8742 0
M  V30 980 H 101.243 -1.06757 6.01195 0
M  V30 981 H 102.657 1.16849 5.61266 0
M  V30 982 H 101.054 1.95739 5.6728 0
M  V30 983 H 102.124 2.25746 4.29147 0
M  V30 984 N 103.467 -1.45747 0.599634 0
M  V30 985 C 104.715 -2.01893 0.0915472 0
M  V30 986 C 105.036 -1.47155 -1.27946 0
M  V30 987 O 104.306 -0.66273 -1.84349 0
M  V30 988 H 102.886 -0.746363 0.0308524 0
M  V30 989 H 105.548 -1.78645 0.779237 0
M  V30 990 H 104.644 -3.1208 0.0353086 0
M  V30 991 N 104.945 -0.338344 -1.53925 0
M  V30 992 C 105.908 0.508299 -2.23493 0
M  V30 993 C 106.908 1.03175 -1.23335 0
M  V30 994 O 108.098 0.921826 -1.47811 0
M  V30 995 C 105.23 1.70754 -2.95052 0
M  V30 996 H 106.423 -0.100058 -2.99733 0
M  V30 997 H 103.976 -0.0896198 -1.56043 0
M  V30 998 H 104.711 2.35474 -2.22986 0
M  V30 999 H 104.496 1.33946 -3.68512 0
M  V30 1000 H 105.986 2.30818 -3.48013 0
M  V30 1001 N 106.423 1.57458 -0.0668435 0
M  V30 1002 C 107.669 1.93587 0.6043 0
M  V30 1003 C 108.002 0.946722 1.69561 0
M  V30 1004 O 107.277 -0.0248516 1.94484 0
M  V30 1005 C 107.56 3.40014 1.18585 0
M  V30 1006 C 107.413 4.49685 0.101529 0
M  V30 1007 C 108.732 3.87154 2.09284 0
M  V30 1008 H 105.851 0.703958 0.218202 0
M  V30 1009 H 108.493 1.89542 -0.131804 0
M  V30 1010 H 106.643 3.43592 1.81319 0
M  V30 1011 H 108.315 4.5823 -0.531279 0
M  V30 1012 H 106.558 4.30059 -0.568487 0
M  V30 1013 H 107.229 5.49266 0.54874 0
M  V30 1014 H 109.705 3.85551 1.56491 0
M  V30 1015 H 108.581 4.90231 2.46911 0
M  V30 1016 H 108.842 3.2481 2.99918 0
M  V30 1017 N 107.901 -0.206675 1.56239 0
M  V30 1018 C 109.149 -0.927007 1.79586 0
M  V30 1019 C 109.47 -1.8427 0.637929 0
M  V30 1020 O 108.74 -1.92849 -0.344398 0
M  V30 1021 H 107.32 -0.345292 0.662407 0
M  V30 1022 H 109.982 -0.21496 1.93711 0
M  V30 1023 H 109.078 -1.52501 2.72305 0
M  V30 1024 N 109.379 -1.50304 -0.473955 0
M  V30 1025 C 110.627 -1.60832 -1.22382 0
M  V30 1026 C 110.948 -0.30939 -1.9253 0
M  V30 1027 O 110.218 0.67296 -1.83978 0
M  V30 1028 H 108.798 -0.592652 -0.454723 0
M  V30 1029 H 111.46 -1.87068 -0.546968 0
M  V30 1030 H 110.556 -2.41803 -1.97327 0
M  V30 1031 N 110.857 0.726932 -1.39834 0
M  V30 1032 C 112.268 1.30558 -1.3346 0
M  V30 1033 C 112.619 1.962 -0.00273003 0
M  V30 1034 O 111.744 1.96826 0.899371 0
M  V30 1035 C 112.339 2.37404 -2.41713 0
M  V30 1036 C 110.898 2.90921 -2.38835 0
M  V30 1037 C 110.045 1.64578 -2.2318 0
M  V30 1038 H 112.996 0.523862 -1.49804 0
M  V30 1039 H 113.017 3.17984 -2.08966 0
M  V30 1040 H 112.529 1.89599 -3.38635 0
M  V30 1041 H 110.63 3.42985 -1.45575 0
M  V30 1042 H 110.743 3.43487 -3.33997 0
M  V30 1043 H 109.107 1.89219 -1.70494 0
M  V30 1044 H 109.89 1.18814 -3.22084 0
M  V30 1045 N 112.336 1.25143 0.95797 0
M  V30 1046 C 113.752 1.01892 1.22842 0
M  V30 1047 C 113.952 -0.266311 1.99732 0
M  V30 1048 O 113.008 -0.979913 2.3271 0
M  V30 1049 C 114.321 2.24004 2.00606 0
M  V30 1050 C 115.869 2.28731 2.13662 0
M  V30 1051 C 116.344 3.5049 2.94823 0
M  V30 1052 N 117.835 3.50866 3.02403 0
M  V30 1053 C 118.57 4.4174 3.65586 0
M  V30 1054 N 118.066 5.42882 4.30408 0
M  V30 1055 N 119.859 4.29429 3.62694 0
M  V30 1056 H 112.01 2.07718 0.443493 0
M  V30 1057 H 114.273 0.912031 0.258657 0
M  V30 1058 H 113.979 3.17395 1.51503 0
M  V30 1059 H 113.853 2.26907 3.01319 0
M  V30 1060 H 116.24 1.35865 2.61963 0
M  V30 1061 H 116.321 2.29848 1.12265 0
M  V30 1062 H 115.965 4.43676 2.47213 0
M  V30 1063 H 115.895 3.46617 3.96439 0
M  V30 1064 H 118.386 2.777 2.56302 0
M  V30 1065 H 118.699 6.0844 4.76467 0
M  V30 1066 H 117.044 5.46758 4.29047 0
M  V30 1067 H 120.235 3.49643 3.11236 0
M  V30 1068 H 120.408 5.00448 4.1165 0
M  V30 1069 N 113.814 -1.1601 1.06675 0
M  V30 1070 C 115.06 -1.87145 0.796766 0
M  V30 1071 C 115.415 -1.8037 -0.669658 0
M  V30 1072 O 114.708 -1.21116 -1.48463 0
M  V30 1073 C 114.902 -3.35547 1.23057 0
M  V30 1074 C 114.731 -3.56769 2.73762 0
M  V30 1075 C 113.501 -3.72635 3.41279 0
M  V30 1076 C 115.699 -3.55166 3.7197 0
M  V30 1077 N 113.681 -3.81845 4.80695 0
M  V30 1078 C 115.052 -3.70406 4.97191 0
M  V30 1079 C 117.107 -3.384 3.65226 0
M  V30 1080 C 115.81 -3.70615 6.16471 0
M  V30 1081 C 117.836 -3.39904 4.83962 0
M  V30 1082 C 117.198 -3.55667 6.08013 0
M  V30 1083 H 113.297 -0.702267 0.344014 0
M  V30 1084 H 115.881 -1.39165 1.36166 0
M  V30 1085 H 114.052 -3.82159 0.693456 0
M  V30 1086 H 115.784 -3.94363 0.908844 0
M  V30 1087 H 112.539 -3.73121 2.91681 0
M  V30 1088 H 112.963 -3.90209 5.53232 0
M  V30 1089 H 117.605 -3.25138 2.70269 0
M  V30 1090 H 115.323 -3.82658 7.11757 0
M  V30 1091 H 118.909 -3.28169 4.80413 0
M  V30 1092 H 117.789 -3.56755 6.98352 0
M  V30 1093 N 115.292 -0.849877 -1.32721 0
M  V30 1094 C 116.569 -0.372405 -1.92022 0
M  V30 1095 C 116.949 1.1435 -1.77447 0
M  V30 1096 O 116.297 1.96296 -1.16962 0
M  V30 1097 C 116.507 -0.831482 -3.3895 0
M  V30 1098 C 117.855 -0.845882 -4.16089 0
M  V30 1099 O 118.879 -0.775806 -3.47649 0
M  V30 1100 O 117.738 -0.943753 -5.38289 0
M  V30 1101 H 114.832 -0.107667 -0.819961 0
M  V30 1102 H 117.378 -0.93646 -1.41522 0
M  V30 1103 H 116.15 -1.87448 -3.4348 0
M  V30 1104 H 115.773 -0.24461 -3.96847 0
M  V30 1105 N 116.77 1.45427 -0.607355 0
M  V30 1106 C 117.733 2.28974 0.101693 0
M  V30 1107 C 118.733 1.39754 0.795329 0
M  V30 1108 O 119.923 1.61878 0.643527 0
M  V30 1109 C 117.055 3.20768 1.15414 0
M  V30 1110 H 118.248 2.93147 -0.632844 0
M  V30 1111 H 115.801 1.51945 -0.366391 0
M  V30 1112 H 116.536 2.61395 1.91945 0
M  V30 1113 H 116.321 3.86489 0.66098 0
M  V30 1114 H 117.811 3.83589 1.65073 0
M  V30 1115 N 118.248 0.346503 1.53744 0
M  V30 1116 C 119.478 -0.250047 2.05081 0
M  V30 1117 C 119.886 -1.44529 1.22098 0
M  V30 1118 O 119.229 -1.81992 0.249917 0
M  V30 1119 C 119.291 -0.725934 3.52094 0
M  V30 1120 C 118.955 0.350053 4.55657 0
M  V30 1121 C 119.952 1.19372 5.0601 0
M  V30 1122 C 117.637 0.504827 4.99757 0
M  V30 1123 C 119.631 2.17768 5.99046 0
M  V30 1124 C 117.318 1.49218 5.92602 0
M  V30 1125 C 118.316 2.32706 6.42135 0
M  V30 1126 O 118.004 3.2976 7.33153 0
M  V30 1127 H 117.736 -0.0515469 0.674032 0
M  V30 1128 H 120.29 0.497559 1.99282 0
M  V30 1129 H 118.52 -1.52483 3.55367 0
M  V30 1130 H 120.209 -1.24336 3.86388 0
M  V30 1131 H 120.975 1.08525 4.72702 0
M  V30 1132 H 116.854 -0.135178 4.60802 0
M  V30 1133 H 120.398 2.82971 6.37631 0
M  V30 1134 H 116.295 1.6012 6.25325 0
M  V30 1135 H 117.063 3.25265 7.51096 0
M  V30 1136 N 119.726 -1.57421 0.075193 0
M  V30 1137 C 121.137 -1.81021 -0.456964 0
M  V30 1138 C 121.488 -0.98936 -1.69429 0
M  V30 1139 O 120.613 -0.212865 -2.15351 0
M  V30 1140 C 121.208 -3.28329 -0.83581 0
M  V30 1141 C 119.767 -3.52764 -1.31281 0
M  V30 1142 C 118.914 -2.75676 -0.299648 0
M  V30 1143 H 121.865 -1.55822 0.300856 0
M  V30 1144 H 121.886 -3.40564 -1.69696 0
M  V30 1145 H 121.398 -3.88046 0.0649238 0
M  V30 1146 H 119.499 -2.98355 -2.23193 0
M  V30 1147 H 119.612 -4.61451 -1.28839 0
M  V30 1148 H 117.976 -2.42538 -0.777641 0
M  V30 1149 H 118.759 -3.38132 0.593417 0
M  V30 1150 N 121.204 0.198386 -1.56346 0
M  V30 1151 C 122.615 0.763358 -1.70381 0
M  V30 1152 C 122.966 1.83995 -0.681203 0
M  V30 1153 O 122.091 2.15785 0.16305 0
M  V30 1154 C 122.686 1.39143 -3.08909 0
M  V30 1155 C 121.245 1.90352 -3.2472 0
M  V30 1156 C 120.392 0.772233 -2.6633 0
M  V30 1157 H 123.343 -0.0266377 -1.58678 0
M  V30 1158 H 123.364 2.26076 -3.06055 0
M  V30 1159 H 122.876 0.607638 -3.83314 0
M  V30 1160 H 120.977 2.71461 -2.55225 0
M  V30 1161 H 121.09 2.06757 -4.3219 0
M  V30 1162 H 119.454 1.18566 -2.2542 0
M  V30 1163 H 120.237 0.00073556 -3.433 0
M  V30 1164 N 122.682 1.50554 0.465978 0
M  V30 1165 C 123.645 1.69233 1.54574 0
M  V30 1166 C 124.645 0.562901 1.50626 0
M  V30 1167 O 125.835 0.830016 1.53155 0
M  V30 1168 C 122.967 1.7223 2.94193 0
M  V30 1169 H 124.16 2.65571 1.39327 0
M  V30 1170 H 121.713 1.40111 0.692711 0
M  V30 1171 H 122.448 0.77603 3.14878 0
M  V30 1172 H 122.233 2.54285 2.98466 0
M  V30 1173 H 123.723 1.88618 3.72576 0
M  V30 1174 N 124.16 -0.719506 1.40217 0
M  V30 1175 C 125.107 -1.83359 1.40172 0
M  V30 1176 C 126.077 -1.64065 0.259206 0
M  V30 1177 O 127.262 -1.85254 0.456677 0
M  V30 1178 C 124.402 -3.2103 1.26624 0
M  V30 1179 C 123.515 -3.51923 2.50548 0
M  V30 1180 C 122.65 -4.79079 2.29471 0
M  V30 1181 C 121.689 -5.02863 3.48992 0
M  V30 1182 N 120.826 -6.2123 3.27135 0
M  V30 1183 H 125.666 -1.82733 2.35399 0
M  V30 1184 H 123.203 -0.892688 1.16917 0
M  V30 1185 H 125.161 -4.00524 1.16776 0
M  V30 1186 H 123.791 -3.20895 0.350176 0
M  V30 1187 H 122.843 -2.67014 2.70939 0
M  V30 1188 H 124.155 -3.6541 3.39525 0
M  V30 1189 H 123.309 -5.66582 2.16955 0
M  V30 1190 H 122.048 -4.67794 1.37913 0
M  V30 1191 H 121.053 -4.13816 3.6199 0
M  V30 1192 H 122.278 -5.16023 4.41472 0
M  V30 1193 H 120.224 -6.11204 2.38256 0
M  V30 1194 H 120.141 -6.35375 4.09675 0
M  V30 1195 H 121.409 -7.11532 3.18344 0
M  V30 1196 N 125.638 -1.25649 -0.95132 0
M  V30 1197 C 127.054 -1.02542 -1.223 0
M  V30 1198 C 127.254 0.255715 -1.99871 0
M  V30 1199 O 126.31 0.967558 -2.33226 0
M  V30 1200 C 127.623 -2.25065 -1.99415 0
M  V30 1201 C 129.171 -2.29861 -2.12446 0
M  V30 1202 C 129.646 -3.52048 -2.92961 0
M  V30 1203 N 131.137 -3.52465 -3.00538 0
M  V30 1204 C 131.872 -4.43672 -3.63239 0
M  V30 1205 N 131.368 -5.45157 -4.27523 0
M  V30 1206 N 133.161 -4.31346 -3.60412 0
M  V30 1207 H 125.312 -2.07951 -0.432471 0
M  V30 1208 H 127.575 -0.91339 -0.253816 0
M  V30 1209 H 127.281 -3.18194 -1.49817 0
M  V30 1210 H 127.155 -2.28502 -3.00111 0
M  V30 1211 H 129.542 -1.37252 -2.61239 0
M  V30 1212 H 129.623 -2.3044 -1.11044 0
M  V30 1213 H 129.267 -4.44981 -2.44856 0
M  V30 1214 H 129.197 -3.48715 -3.94596 0
M  V30 1215 H 131.688 -2.79056 -2.54826 0
M  V30 1216 H 132.001 -6.10958 -4.73234 0
M  V30 1217 H 130.346 -5.49025 -4.26141 0
M  V30 1218 H 133.537 -3.51288 -3.09377 0
M  V30 1219 H 133.71 -5.02624 -4.0899 0
M  V30 1220 N 127.117 1.15442 -1.07289 0
M  V30 1221 C 128.528 1.67803 -0.818475 0
M  V30 1222 C 128.879 1.8489 0.656507 0
M  V30 1223 O 128.004 1.55176 1.50829 0
M  V30 1224 C 128.599 3.04805 -1.47917 0
M  V30 1225 C 127.158 3.54245 -1.27229 0
M  V30 1226 C 126.305 2.29986 -1.54925 0
M  V30 1227 H 129.256 0.996646 -1.23502 0
M  V30 1228 H 129.277 3.69702 -0.90005 0
M  V30 1229 H 128.789 2.92336 -2.55267 0
M  V30 1230 H 126.89 3.71956 -0.21899 0
M  V30 1231 H 127.003 4.35723 -1.99203 0
M  V30 1232 H 125.367 2.35496 -0.970242 0
M  V30 1233 H 126.15 2.20105 -2.63455 0
M  V30 1234 N 128.595 0.856903 1.32268 0
M  V30 1235 C 129.505 0.306131 2.32594 0
M  V30 1236 C 130.521 -0.577209 1.64147 0
M  V30 1237 O 131.697 -0.477043 1.95669 0
M  V30 1238 C 128.762 -0.494561 3.43154 0
M  V30 1239 C 127.823 0.415186 4.27288 0
M  V30 1240 C 127.056 -0.347387 5.32568 0
M  V30 1241 O 127.279 -1.57708 5.48165 0
M  V30 1242 O 126.213 0.287982 6.01211 0
M  V30 1243 H 130.039 1.13737 2.81598 0
M  V30 1244 H 127.624 0.619902 1.35932 0
M  V30 1245 H 129.506 -0.948944 4.10576 0
M  V30 1246 H 128.181 -1.30257 2.96336 0
M  V30 1247 H 127.088 0.917793 3.62667 0
M  V30 1248 H 128.421 1.18844 4.77637 0
M  V30 1249 N 130.073 -1.45103 0.615059 0
M  V30 1250 C 131.005 -2.28786 -0.13762 0
M  V30 1251 C 132.018 -1.40376 -0.824525 0
M  V30 1252 O 133.207 -1.64681 -0.688662 0
M  V30 1253 C 130.307 -3.16322 -1.21628 0
M  V30 1254 C 129.48 -4.33054 -0.615039 0
M  V30 1255 C 128.539 -5.01743 -1.58556 0
M  V30 1256 O 127.565 -5.58293 -1.10895 0
M  V30 1257 N 128.767 -5.01714 -2.91998 0
M  V30 1258 H 131.532 -2.94025 0.580483 0
M  V30 1259 H 129.093 -1.55373 0.45507 0
M  V30 1260 H 131.085 -3.59139 -1.86552 0
M  V30 1261 H 129.655 -2.52943 -1.83681 0
M  V30 1262 H 128.875 -3.93627 0.21245 0
M  V30 1263 H 130.163 -5.08431 -0.193704 0
M  V30 1264 H 129.561 -4.57075 -3.33316 0
M  V30 1265 H 128.118 -5.48371 -3.52325 0
M  V30 1266 N 131.551 -0.354651 -1.53558 0
M  V30 1267 C 132.799 0.237972 -2.00694 0
M  V30 1268 C 133.12 1.50173 -1.24391 0
M  V30 1269 O 132.39 1.92673 -0.354135 0
M  V30 1270 H 130.97 0.0909256 -0.741446 0
M  V30 1271 H 133.632 -0.478368 -1.88938 0
M  V30 1272 H 132.728 0.47264 -3.085 0
M  V30 1273 N 133.029 1.57378 -0.0835403 0
M  V30 1274 C 133.959 2.1641 0.87686 0
M  V30 1275 C 134.94 1.09429 1.30228 0
M  V30 1276 O 136.125 1.37516 1.37124 0
M  V30 1277 C 133.255 2.73517 2.14022 0
M  V30 1278 C 132.209 3.85769 1.85381 0
M  V30 1279 C 131.535 4.29529 3.18448 0
M  V30 1280 C 132.835 5.09486 1.14984 0
M  V30 1281 H 134.529 2.96914 0.385059 0
M  V30 1282 H 132.075 1.42823 0.18377 0
M  V30 1283 H 134.028 3.13463 2.81636 0
M  V30 1284 H 132.752 1.90252 2.65465 0
M  V30 1285 H 131.411 3.46345 1.20169 0
M  V30 1286 H 131.059 3.43169 3.67755 0
M  V30 1287 H 130.759 5.05204 3.00071 0
M  V30 1288 H 132.283 4.72099 3.8724 0
M  V30 1289 H 133.697 5.46674 1.72687 0
M  V30 1290 H 132.094 5.90515 1.06826 0
M  V30 1291 H 133.164 4.84724 0.130749 0
M  V30 1292 N 134.507 -0.190092 1.56449 0
M  V30 1293 C 135.437 -1.23816 1.97969 0
M  V30 1294 C 136.418 -1.47201 0.852395 0
M  V30 1295 O 137.603 -1.58854 1.1171 0
M  V30 1296 C 134.733 -2.5813 2.3235 0
M  V30 1297 C 133.687 -2.49348 3.47864 0
M  V30 1298 C 133.013 -3.8798 3.67934 0
M  V30 1299 C 134.313 -2.01424 4.81898 0
M  V30 1300 H 136.007 -0.89311 2.85769 0
M  V30 1301 H 133.553 -0.428177 1.37487 0
M  V30 1302 H 135.506 -3.31637 2.59991 0
M  V30 1303 H 134.23 -2.94386 1.41438 0
M  V30 1304 H 132.889 -1.78297 3.20321 0
M  V30 1305 H 132.537 -4.21597 2.74344 0
M  V30 1306 H 132.237 -3.82978 4.45648 0
M  V30 1307 H 133.761 -4.63101 3.97957 0
M  V30 1308 H 135.175 -2.64693 5.08538 0
M  V30 1309 H 133.572 -2.07413 5.63116 0
M  V30 1310 H 134.642 -0.967677 4.75146 0
M  V30 1311 N 135.985 -1.50799 -0.457987 0
M  V30 1312 C 137.401 -1.38515 -0.792819 0
M  V30 1313 C 137.601 -0.451409 -1.96379 0
M  V30 1314 O 136.657 0.10112 -2.52297 0
M  V30 1315 C 137.97 -2.80149 -1.09258 0
M  V30 1316 C 139.518 -2.89156 -1.19825 0
M  V30 1317 C 139.993 -4.31651 -1.53106 0
M  V30 1318 N 141.484 -4.34662 -1.60072 0
M  V30 1319 C 142.219 -5.41928 -1.87354 0
M  V30 1320 N 141.715 -6.59384 -2.12568 0
M  V30 1321 N 143.508 -5.29385 -1.88965 0
M  V30 1322 H 135.659 -2.10073 0.313511 0
M  V30 1323 H 137.922 -0.944803 0.0777862 0
M  V30 1324 H 137.628 -3.50374 -0.305084 0
M  V30 1325 H 137.502 -3.18204 -2.02549 0
M  V30 1326 H 139.889 -2.19141 -1.97639 0
M  V30 1327 H 139.97 -2.54626 -0.244821 0
M  V30 1328 H 139.614 -5.02208 -0.758266 0
M  V30 1329 H 139.544 -4.63678 -2.49621 0
M  V30 1330 H 142.035 -3.49973 -1.42573 0
M  V30 1331 H 142.348 -7.36934 -2.32696 0
M  V30 1332 H 140.693 -6.62535 -2.09933 0
M  V30 1333 H 143.884 -4.36616 -1.68772 0
M  V30 1334 H 144.057 -6.13066 -2.09891 0
M  V30 1335 N 137.463 0.71206 -1.40597 0
M  V30 1336 C 138.393 1.83889 -1.43899 0
M  V30 1337 C 139.374 1.67442 -0.299504 0
M  V30 1338 O 140.559 1.87421 -0.508624 0
M  V30 1339 C 137.689 3.21877 -1.30431 0
M  V30 1340 C 136.643 3.53002 -2.42019 0
M  V30 1341 C 135.969 4.90172 -2.13626 0
M  V30 1342 C 137.269 3.53643 -3.84362 0
M  V30 1343 H 138.963 1.81383 -2.38203 0
M  V30 1344 H 136.509 0.871237 -1.14654 0
M  V30 1345 H 138.462 4.00404 -1.31357 0
M  V30 1346 H 137.186 3.24968 -0.326049 0
M  V30 1347 H 135.845 2.76818 -2.40349 0
M  V30 1348 H 135.493 4.89869 -1.14182 0
M  V30 1349 H 135.193 5.11962 -2.88389 0
M  V30 1350 H 136.717 5.71028 -2.1624 0
M  V30 1351 H 138.131 4.22203 -3.87837 0
M  V30 1352 H 136.528 3.86961 -4.58673 0
M  V30 1353 H 137.598 2.52954 -4.13693 0
M  V30 1354 N 138.941 1.26152 0.944643 0
M  V30 1355 C 140.357 1.03189 1.21754 0
M  V30 1356 C 140.557 -0.245112 2.00004 0
M  V30 1357 O 139.613 -0.955176 2.33736 0
M  V30 1358 C 140.926 2.26119 1.98219 0
M  V30 1359 C 142.474 2.30984 2.11224 0
M  V30 1360 C 142.949 3.53597 2.91089 0
M  V30 1361 N 144.44 3.54053 2.98664 0
M  V30 1362 C 145.175 4.45593 3.60881 0
M  V30 1363 N 144.671 5.47416 4.24626 0
M  V30 1364 N 146.464 4.33252 3.58119 0
M  V30 1365 H 138.615 2.08177 0.421437 0
M  V30 1366 H 140.878 0.914723 0.248969 0
M  V30 1367 H 140.584 3.18984 1.48128 0
M  V30 1368 H 140.458 2.3009 2.98895 0
M  V30 1369 H 142.845 1.38635 2.60508 0
M  V30 1370 H 142.926 2.31026 1.09821 0
M  V30 1371 H 142.57 4.46273 2.42493 0
M  V30 1372 H 142.5 3.50802 3.92741 0
M  V30 1373 H 144.991 2.80403 2.53343 0
M  V30 1374 H 145.304 6.13459 4.69987 0
M  V30 1375 H 143.649 5.51278 4.23223 0
M  V30 1376 H 146.84 3.52924 3.0751 0
M  V30 1377 H 147.013 5.04786 4.06319 0
M  V30 1378 N 140.419 -1.14872 1.07899 0
M  V30 1379 C 141.366 -2.19791 0.704319 0
M  V30 1380 C 142.336 -1.63238 -0.306987 0
M  V30 1381 O 143.521 -1.8983 -0.192171 0
M  V30 1382 C 140.661 -3.44911 0.114244 0
M  V30 1383 C 139.774 -4.15637 1.1777 0
M  V30 1384 C 138.909 -5.28324 0.552037 0
M  V30 1385 C 137.948 -5.90875 1.59789 0
M  V30 1386 N 137.085 -6.95022 0.994404 0
M  V30 1387 H 141.925 -2.5119 1.60336 0
M  V30 1388 H 139.462 -1.23356 0.801352 0
M  V30 1389 H 141.42 -4.16477 -0.245544 0
M  V30 1390 H 140.05 -3.14011 -0.74813 0
M  V30 1391 H 139.102 -3.42512 1.65499 0
M  V30 1392 H 140.414 -4.5823 1.97046 0
M  V30 1393 H 139.568 -6.06538 0.1402 0
M  V30 1394 H 138.307 -4.86939 -0.272431 0
M  V30 1395 H 137.312 -5.11369 2.01945 0
M  V30 1396 H 138.537 -6.34337 2.42474 0
M  V30 1397 H 136.483 -6.55722 0.190939 0
M  V30 1398 H 136.4 -7.36073 1.72432 0
M  V30 1399 H 137.668 -7.77123 0.608253 0
M  V30 1400 N 141.898 -0.863906 -1.31812 0
M  V30 1401 C 143.146 -0.470904 -1.96537 0
M  V30 1402 C 143.467 0.978771 -1.68657 0
M  V30 1403 O 142.737 1.6853 -0.998717 0
M  V30 1404 H 141.317 -0.171148 -0.72713 0
M  V30 1405 H 143.979 -1.10236 -1.60729 0
M  V30 1406 H 143.075 -0.623616 -3.05806 0
M  V30 1407 N 143.376 1.44774 -0.622745 0
M  V30 1408 C 144.306 2.33382 0.0741861 0
M  V30 1409 C 145.287 1.47719 0.843387 0
M  V30 1410 O 146.472 1.76458 0.810934 0
M  V30 1411 C 143.602 3.30663 1.06204 0
M  V30 1412 C 142.556 4.26079 0.405037 0
M  V30 1413 C 141.882 5.13165 1.5022 0
M  V30 1414 C 143.182 5.1781 -0.683414 0
M  V30 1415 H 144.876 2.91905 -0.665713 0
M  V30 1416 H 142.422 1.40363 -0.321587 0
M  V30 1417 H 144.375 3.9153 1.55827 0
M  V30 1418 H 143.099 2.70331 1.83272 0
M  V30 1419 H 141.758 3.66532 -0.0704683 0
M  V30 1420 H 141.406 4.49191 2.26355 0
M  V30 1421 H 141.106 5.77812 1.06803 0
M  V30 1422 H 142.63 5.76902 2.00041 0
M  V30 1423 H 144.044 5.72661 -0.270631 0
M  V30 1424 H 142.441 5.91015 -1.04023 0
M  V30 1425 H 143.511 4.59326 -1.55395 0
M  V30 1426 N 144.854 0.36279 1.53368 0
M  V30 1427 C 146.131 -0.284021 1.93527 0
M  V30 1428 C 146.511 -1.66628 1.29608 0
M  V30 1429 O 145.859 -2.23942 0.45413 0
M  V30 1430 C 146.069 -0.337028 3.47369 0
M  V30 1431 C 147.417 -0.578708 4.20638 0
M  V30 1432 O 148.441 -0.418352 3.53735 0
M  V30 1433 O 147.3 -0.89074 5.39192 0
M  V30 1434 H 144.394 -0.169743 0.809393 0
M  V30 1435 H 146.94 0.41537 1.64538 0
M  V30 1436 H 145.712 0.632217 3.86159 0
M  V30 1437 H 145.335 -1.08243 3.82582 0
M  V30 1438 N 146.332 -1.57332 0.0918853 0
M  V30 1439 C 147.262 -2.16872 -0.865371 0
M  V30 1440 C 148.243 -1.10118 -1.29646 0
M  V30 1441 O 149.428 -1.38242 -1.36392 0
M  V30 1442 C 146.558 -2.74649 -2.12569 0
M  V30 1443 C 145.512 -3.86747 -1.83333 0
M  V30 1444 C 144.838 -4.31212 -3.16166 0
M  V30 1445 C 146.138 -5.10089 -1.1228 0
M  V30 1446 H 147.832 -2.97114 -0.369307 0
M  V30 1447 H 145.378 -1.42918 -0.176194 0
M  V30 1448 H 147.331 -3.14952 -2.7997 0
M  V30 1449 H 146.055 -1.91657 -2.64452 0
M  V30 1450 H 144.714 -3.46978 -1.18331 0
M  V30 1451 H 144.362 -3.45115 -3.6593 0
M  V30 1452 H 144.062 -5.06788 -2.97388 0
M  V30 1453 H 145.586 -4.74146 -3.84731 0
M  V30 1454 H 147 -5.47582 -1.69785 0
M  V30 1455 H 145.397 -5.91073 -1.03693 0
M  V30 1456 H 146.467 -4.84786 -0.105041 0
M  V30 1457 N 147.81 0.181792 -1.56548 0
M  V30 1458 C 149.04 0.914618 -1.85252 0
M  V30 1459 C 149.448 1.76791 -0.673914 0
M  V30 1460 O 148.791 1.80009 0.366416 0
M  V30 1461 C 148.853 1.85019 -3.08234 0
M  V30 1462 C 148.517 1.17754 -4.41569 0
M  V30 1463 C 149.514 0.548035 -5.17003 0
M  V30 1464 C 147.199 1.17742 -4.88305 0
M  V30 1465 C 149.193 -0.0726128 -6.37359 0
M  V30 1466 C 146.88 0.552946 -6.08593 0
M  V30 1467 C 147.878 -0.070978 -6.82963 0
M  V30 1468 O 147.566 -0.685635 -8.00971 0
M  V30 1469 H 147.298 0.271695 -0.618998 0
M  V30 1470 H 149.852 0.189944 -2.0452 0
M  V30 1471 H 148.082 2.61491 -2.84885 0
M  V30 1472 H 149.771 2.45195 -3.23472 0
M  V30 1473 H 150.537 0.540174 -4.81982 0
M  V30 1474 H 146.416 1.65246 -4.30366 0
M  V30 1475 H 149.96 -0.560213 -6.95347 0
M  V30 1476 H 145.857 0.558354 -6.43081 0
M  V30 1477 H 146.625 -0.58385 -8.16415 0
M  V30 1478 N 149.288 1.51039 0.449983 0
M  V30 1479 C 150.251 1.70863 1.5277 0
M  V30 1480 C 151.251 0.578846 1.5002 0
M  V30 1481 O 152.441 0.846213 1.52266 0
M  V30 1482 C 149.573 1.75341 2.9235 0
M  V30 1483 H 150.766 2.67034 1.36502 0
M  V30 1484 H 148.319 1.40838 0.677812 0
M  V30 1485 H 149.054 0.809383 3.14037 0
M  V30 1486 H 148.839 2.57436 2.95752 0
M  V30 1487 H 150.329 1.92559 3.70555 0
M  V30 1488 N 150.766 -0.704594 1.40972 0
M  V30 1489 C 151.714 -1.83994 1.42299 0
M  V30 1490 C 152.708 -1.66684 0.302111 0
M  V30 1491 O 153.914 -1.73655 0.473697 0
M  V30 1492 H 150.289 -0.606171 0.44504 0
M  V30 1493 H 152.26 -1.79992 2.38003 0
M  V30 1494 C 151.009 -3.21946 1.31323 0
M  V30 1495 H 150.332 -3.35878 2.16855 0
M  V30 1496 H 151.772 -4.01491 1.36311 0
M  V30 1497 C 150.231 -3.36891 0.0245977 0
M  V30 1498 O 150.761 -3.90687 -0.934153 0
M  V30 1499 N 148.967 -2.90559 -0.0485243 0
M  V30 1500 H 148.514 -2.46968 0.732419 0
M  V30 1501 H 148.472 -3.00937 -0.910171 0
M  V30 1502 N 152.244 -1.26651 -0.937939 0
M  V30 1503 C 153.174 -1.10993 -2.05433 0
M  V30 1504 C 154.155 -0.0142161 -1.70094 0
M  V30 1505 O 155.34 -0.186837 -1.93299 0
M  V30 1506 C 152.47 -0.745561 -3.39203 0
M  V30 1507 C 151.424 -1.79337 -3.88616 0
M  V30 1508 C 150.75 -1.28324 -5.19073 0
M  V30 1509 C 152.05 -3.19553 -4.13138 0
M  V30 1510 H 153.744 -2.0438 -2.1879 0
M  V30 1511 H 151.29 -0.984041 -1.05131 0
M  V30 1512 H 153.243 -0.622888 -4.16771 0
M  V30 1513 H 151.967 0.22401 -3.25831 0
M  V30 1514 H 150.626 -1.90477 -3.13231 0
M  V30 1515 H 150.274 -0.303414 -5.02084 0
M  V30 1516 H 149.974 -1.98369 -5.53103 0
M  V30 1517 H 151.498 -1.1733 -5.99221 0
M  V30 1518 H 152.912 -3.11471 -4.81309 0
M  V30 1519 H 151.309 -3.87218 -4.58457 0
M  V30 1520 H 152.379 -3.65368 -3.18801 0
M  V30 1521 N 153.722 1.14298 -1.08507 0
M  V30 1522 C 155.138 1.37347 -0.812901 0
M  V30 1523 C 155.338 1.93052 0.577325 0
M  V30 1524 O 154.394 2.14389 1.33393 0
M  V30 1525 C 155.707 2.33359 -1.89642 0
M  V30 1526 C 157.255 2.46996 -1.92255 0
M  V30 1527 C 157.73 3.46309 -2.99724 0
M  V30 1528 N 159.221 3.53853 -2.98902 0
M  V30 1529 C 159.956 4.3055 -3.787 0
M  V30 1530 N 159.452 5.10482 -4.6838 0
M  V30 1531 N 161.245 4.25757 -3.66998 0
M  V30 1532 H 153.396 0.764867 -1.9815 0
M  V30 1533 H 155.659 0.398966 -0.859959 0
M  V30 1534 H 155.365 1.99565 -2.89597 0
M  V30 1535 H 155.239 3.33274 -1.76659 0
M  V30 1536 H 157.626 2.80081 -0.929445 0
M  V30 1537 H 157.707 1.47039 -2.09316 0
M  V30 1538 H 157.351 3.13957 -3.99241 0
M  V30 1539 H 157.281 4.46049 -2.79907 0
M  V30 1540 H 159.772 2.96812 -2.33904 0
M  V30 1541 H 160.085 5.66284 -5.25873 0
M  V30 1542 H 158.43 5.09747 -4.72422 0
M  V30 1543 H 161.621 3.62383 -2.96304 0
M  V30 1544 H 161.794 4.85279 -4.29427 0
M  V30 1545 N 155.201 0.870884 1.31352 0
M  V30 1546 C 156.612 0.534714 1.78879 0
M  V30 1547 C 156.963 -0.948423 1.71754 0
M  V30 1548 O 156.088 -1.74055 1.28584 0
M  V30 1549 C 156.683 0.963839 3.24801 0
M  V30 1550 C 155.242 0.679311 3.70219 0
M  V30 1551 C 154.389 1.15465 2.52117 0
M  V30 1552 H 157.34 1.05651 1.18421 0
M  V30 1553 H 157.361 0.286892 3.79417 0
M  V30 1554 H 156.873 2.04332 3.29955 0
M  V30 1555 H 154.974 -0.388769 3.70566 0
M  V30 1556 H 155.087 1.25698 4.62317 0
M  V30 1557 H 153.451 0.574383 2.48139 0
M  V30 1558 H 154.234 2.24157 2.60016 0
M  V30 1559 N 156.679 -1.44442 0.630414 0
M  V30 1560 C 157.642 -2.29107 -0.0652523 0
M  V30 1561 C 158.642 -1.41002 -0.772995 0
M  V30 1562 O 159.832 -1.62881 -0.617692 0
M  V30 1563 C 156.964 -3.22564 -1.10296 0
M  V30 1564 H 158.157 -2.92103 0.679401 0
M  V30 1565 H 155.71 -1.51343 0.390517 0
M  V30 1566 H 156.445 -2.64416 -1.87762 0
M  V30 1567 H 156.23 -3.87491 -0.59941 0
M  V30 1568 H 157.72 -3.86167 -1.5895 0
M  V30 1569 N 158.157 -0.370918 -1.53173 0
M  V30 1570 C 159.089 0.507823 -2.23503 0
M  V30 1571 C 160.102 1.04182 -1.251 0
M  V30 1572 O 161.291 0.947286 -1.5129 0
M  V30 1573 C 158.391 1.71447 -2.92334 0
M  V30 1574 C 157.564 1.31105 -4.17289 0
M  V30 1575 C 156.623 2.38035 -4.69282 0
M  V30 1576 O 155.649 2.00204 -5.32829 0
M  V30 1577 N 156.851 3.69697 -4.47554 0
M  V30 1578 H 159.616 -0.0946382 -2.99551 0
M  V30 1579 H 157.177 -0.196358 -1.60705 0
M  V30 1580 H 159.169 2.42469 -3.24023 0
M  V30 1581 H 157.739 2.22368 -2.19707 0
M  V30 1582 H 156.959 0.430462 -3.91843 0
M  V30 1583 H 158.247 1.0179 -4.98514 0
M  V30 1584 H 157.645 4.03205 -3.9679 0
M  V30 1585 H 156.202 4.36807 -4.8378 0
M  V30 1586 N 159.635 1.57281 -0.100228 0
M  V30 1587 C 160.884 1.93713 0.561984 0
M  V30 1588 C 161.197 0.984492 1.69018 0
M  V30 1589 O 162.403 1.24273 2.41389 0
M  V30 1590 C 160.859 3.4421 1.05106 0
M  V30 1591 C 160.467 4.47975 -0.0476628 0
M  V30 1592 C 162.211 3.89595 1.68571 0
M  V30 1593 C 160.118 5.89631 0.457055 0
M  V30 1594 H 159.048 0.723082 0.2137 0
M  V30 1595 H 161.699 1.82644 -0.177057 0
M  V30 1596 H 160.081 3.50449 1.84395 0
M  V30 1597 H 161.255 4.53385 -0.823333 0
M  V30 1598 H 159.57 4.1223 -0.587816 0
M  V30 1599 H 162.167 4.92832 2.07414 0
M  V30 1600 H 162.51 3.28526 2.55688 0
M  V30 1601 H 163.043 3.86078 0.958562 0
M  V30 1602 H 159.782 6.54411 -0.377616 0
M  V30 1603 H 159.302 5.87681 1.19962 0
M  V30 1604 H 160.981 6.40363 0.92437 0
M  V30 1605 N 161.113 -0.173488 1.56642 0
M  V30 1606 C 162.36 -0.890465 1.81871 0
M  V30 1607 C 162.688 -1.82339 0.67696 0
M  V30 1608 O 161.943 -1.92795 -0.335926 0
M  V30 1609 C 162.242 -1.72069 3.13252 0
M  V30 1610 C 161.908 -0.936878 4.41059 0
M  V30 1611 C 160.57 -0.720545 4.75775 0
M  V30 1612 C 162.922 -0.386919 5.19762 0
M  V30 1613 C 160.25 0.0568829 5.86672 0
M  V30 1614 C 162.602 0.37741 6.31473 0
M  V30 1615 C 161.266 0.604563 6.64757 0
M  V30 1616 H 160.536 -0.325844 0.665512 0
M  V30 1617 H 163.183 -0.155527 1.90867 0
M  V30 1618 H 161.488 -2.52496 2.99588 0
M  V30 1619 H 163.185 -2.27844 3.29982 0
M  V30 1620 H 159.775 -1.11553 4.13828 0
M  V30 1621 H 163.959 -0.541398 4.93338 0
M  V30 1622 H 159.215 0.242635 6.10918 0
M  V30 1623 H 163.389 0.810825 6.91664 0
M  V30 1624 H 161.016 1.20885 7.50527 0
M  V30 1625 N 162.591 -1.51276 -0.441967 0
M  V30 1626 C 164.002 -1.56244 -1.02199 0
M  V30 1627 C 164.353 -0.383149 -1.92422 0
M  V30 1628 O 163.478 0.500613 -2.1053 0
M  V30 1629 C 164.073 -2.83162 -1.86024 0
M  V30 1630 C 162.632 -2.90716 -2.39084 0
M  V30 1631 C 161.779 -2.50858 -1.18175 0
M  V30 1632 H 164.73 -1.5712 -0.223416 0
M  V30 1633 H 164.751 -2.66663 -2.71425 0
M  V30 1634 H 164.263 -3.68974 -1.20331 0
M  V30 1635 H 162.364 -2.09323 -3.08244 0
M  V30 1636 H 162.477 -3.94266 -2.72198 0
M  V30 1637 H 160.841 -2.03951 -1.52565 0
M  V30 1638 H 161.624 -3.3901 -0.541001 0
M  V30 1639 N 164.069 0.697108 -1.41344 0
M  V30 1640 C 165.001 1.8224 -1.39001 0
M  V30 1641 C 166.014 1.60152 -0.292428 0
M  V30 1642 O 167.203 1.69684 -0.554048 0
M  V30 1643 C 164.303 3.18976 -1.14489 0
M  V30 1644 C 163.476 3.68105 -2.36258 0
M  V30 1645 C 162.535 4.83506 -2.07625 0
M  V30 1646 O 161.561 4.95201 -2.8065 0
M  V30 1647 N 162.763 5.70637 -1.06555 0
M  V30 1648 H 165.528 1.84742 -2.35988 0
M  V30 1649 H 163.089 0.87937 -1.35936 0
M  V30 1650 H 165.081 3.93801 -0.932885 0
M  V30 1651 H 163.651 3.11508 -0.261043 0
M  V30 1652 H 162.871 2.84204 -2.7317 0
M  V30 1653 H 164.159 3.97667 -3.17393 0
M  V30 1654 H 163.557 5.63817 -0.461125 0
M  V30 1655 H 162.114 6.45368 -0.913444 0
M  V30 1656 N 165.547 1.27147 0.931209 0
M  V30 1657 C 166.477 1.12081 2.04842 0
M  V30 1658 C 167.458 0.0232364 1.70084 0
M  V30 1659 O 168.643 0.197085 1.93197 0
M  V30 1660 C 165.773 0.76354 3.38803 0
M  V30 1661 C 164.727 1.81396 3.87659 0
M  V30 1662 C 164.053 1.31075 5.18385 0
M  V30 1663 C 165.353 3.21739 4.11438 0
M  V30 1664 H 167.047 2.05537 2.17703 0
M  V30 1665 H 164.593 0.989603 1.04608 0
M  V30 1666 H 166.546 0.644982 4.16435 0
M  V30 1667 H 165.27 -0.206727 3.25945 0
M  V30 1668 H 163.929 1.92136 3.12217 0
M  V30 1669 H 163.577 0.330037 5.01916 0
M  V30 1670 H 163.277 2.013 5.52044 0
M  V30 1671 H 164.801 1.20506 5.98591 0
M  V30 1672 H 166.215 3.14019 4.79651 0
M  V30 1673 H 164.612 3.89644 4.56397 0
M  V30 1674 H 165.682 3.67054 3.16859 0
M  V30 1675 N 167.025 -1.13721 1.09112 0
M  V30 1676 C 167.955 -2.21148 0.749385 0
M  V30 1677 C 168.936 -1.6792 -0.271475 0
M  V30 1678 O 170.121 -1.93693 -0.140251 0
M  V30 1679 C 167.251 -3.46905 0.165659 0
M  V30 1680 C 166.205 -4.13203 1.11567 0
M  V30 1681 C 165.531 -5.33248 0.393809 0
M  V30 1682 C 166.831 -4.60912 2.45678 0
M  V30 1683 H 168.525 -2.4999 1.64758 0
M  V30 1684 H 166.071 -1.20156 0.793626 0
M  V30 1685 H 168.024 -4.21313 -0.085466 0
M  V30 1686 H 166.748 -3.17449 -0.767714 0
M  V30 1687 H 165.407 -3.40758 1.35202 0
M  V30 1688 H 165.055 -5.00054 -0.543599 0
M  V30 1689 H 164.755 -5.78552 1.02721 0
M  V30 1690 H 166.279 -6.10413 0.150908 0
M  V30 1691 H 167.693 -5.26759 2.26269 0
M  V30 1692 H 166.09 -5.16944 3.04776 0
M  V30 1693 H 167.16 -3.75603 3.06677 0
M  V30 1694 N 168.503 -0.877838 -1.30888 0
M  V30 1695 C 169.78 -0.413052 -1.91189 0
M  V30 1696 C 170.16 1.1056 -1.79832 0
M  V30 1697 O 169.508 1.93771 -1.21099 0
M  V30 1698 C 169.718 -0.903191 -3.3711 0
M  V30 1699 C 171.066 -0.93395 -4.14201 0
M  V30 1700 O 172.09 -0.849373 -3.45925 0
M  V30 1701 O 170.949 -1.05772 -5.36167 0
M  V30 1702 H 168.043 -0.125035 -0.817493 0
M  V30 1703 H 170.589 -0.966269 -1.39504 0
M  V30 1704 H 169.361 -1.94692 -3.39427 0
M  V30 1705 H 168.984 -0.328732 -3.96239 0
M  V30 1706 N 169.982 1.44106 -0.638065 0
M  V30 1707 C 170.945 2.29138 0.0531013 0
M  V30 1708 C 171.945 1.41409 0.765506 0
M  V30 1709 O 173.135 1.63206 0.609046 0
M  V30 1710 C 170.267 3.23144 1.08584 0
M  V30 1711 H 171.46 2.91739 -0.694883 0
M  V30 1712 H 169.013 1.51134 -0.398538 0
M  V30 1713 H 169.748 2.65408 1.86357 0
M  V30 1714 H 169.533 3.87804 0.578852 0
M  V30 1715 H 171.023 3.87004 1.56899 0
M  V30 1716 N 171.46 0.379036 1.52974 0
M  V30 1717 C 172.685 -0.209353 2.06341 0
M  V30 1718 C 173.11 -1.40583 1.24972 0
M  V30 1719 O 172.468 -1.79246 0.272155 0
M  V30 1720 C 172.516 -0.567786 3.56102 0
M  V30 1721 O 171.62 -1.66318 3.77375 0
M  V30 1722 H 170.961 -0.0272919 0.663439 0
M  V30 1723 H 173.491 0.543536 1.97248 0
M  V30 1724 H 173.501 -0.835003 3.99364 0
M  V30 1725 H 172.176 0.307013 4.14765 0
M  V30 1726 H 170.753 -1.39048 3.46006 0
M  V30 1727 N 172.938 -1.57226 0.108567 0
M  V30 1728 C 174.349 -1.8195 -0.418464 0
M  V30 1729 C 174.7 -1.02508 -1.67292 0
M  V30 1730 O 173.825 -0.258496 -2.14851 0
M  V30 1731 C 174.42 -3.30028 -0.765979 0
M  V30 1732 C 172.979 -3.55469 -1.23769 0
M  V30 1733 C 172.126 -2.7625 -0.241106 0
M  V30 1734 H 175.077 -1.55149 0.33384 0
M  V30 1735 H 175.098 -3.44086 -1.62434 0
M  V30 1736 H 174.61 -3.87821 0.147219 0
M  V30 1737 H 172.711 -3.03022 -2.16814 0
M  V30 1738 H 172.824 -4.6408 -1.19022 0
M  V30 1739 H 171.188 -2.44133 -0.72602 0
M  V30 1740 H 171.971 -3.36797 0.665007 0
M  V30 1741 N 174.416 0.165178 -1.56732 0
M  V30 1742 C 175.346 1.20651 -1.99914 0
M  V30 1743 C 176.327 1.45827 -0.875705 0
M  V30 1744 O 177.512 1.57057 -1.14223 0
M  V30 1745 C 174.642 2.54401 -2.36427 0
M  V30 1746 C 173.596 2.43782 -3.51787 0
M  V30 1747 C 172.922 3.82078 -3.7406 0
M  V30 1748 C 174.222 1.93732 -4.85041 0
M  V30 1749 H 175.916 0.847534 -2.87154 0
M  V30 1750 H 173.462 0.40625 -1.38151 0
M  V30 1751 H 175.415 3.27458 -2.65234 0
M  V30 1752 H 174.139 2.92098 -1.46103 0
M  V30 1753 H 172.798 1.73178 -3.23117 0
M  V30 1754 H 172.446 4.17179 -2.81017 0
M  V30 1755 H 172.146 3.7584 -4.51684 0
M  V30 1756 H 173.67 4.56712 -4.05274 0
M  V30 1757 H 175.084 2.56569 -5.12684 0
M  V30 1758 H 173.481 1.98428 -5.66345 0
M  V30 1759 H 174.551 0.891962 -4.76626 0
M  V30 1760 N 175.894 1.51508 0.433938 0
M  V30 1761 C 177.31 1.39759 0.770682 0
M  V30 1762 C 177.51 0.482594 1.95636 0
M  V30 1763 O 176.566 -0.0609691 2.52426 0
M  V30 1764 C 177.879 2.81851 1.04787 0
M  V30 1765 C 179.427 2.91025 1.1521 0
M  V30 1766 C 179.902 4.34032 1.46219 0
M  V30 1767 N 181.393 4.37154 1.53136 0
M  V30 1768 C 182.128 5.4484 1.78709 0
M  V30 1769 N 181.624 6.62682 2.02051 0
M  V30 1770 N 183.417 5.32324 1.80519 0
M  V30 1771 H 175.568 2.09548 -0.346892 0
M  V30 1772 H 177.831 0.943446 -0.0928074 0
M  V30 1773 H 177.537 3.50815 0.249304 0
M  V30 1774 H 177.411 3.21386 1.97461 0
M  V30 1775 H 179.798 2.22257 1.94128 0
M  V30 1776 H 179.879 2.54983 0.204281 0
M  V30 1777 H 179.523 5.03351 0.678274 0
M  V30 1778 H 179.453 4.6759 2.42212 0
M  V30 1779 H 181.944 3.52197 1.36987 0
M  V30 1780 H 182.257 7.40543 2.20943 0
M  V30 1781 H 180.602 6.65791 1.99366 0
M  V30 1782 H 183.793 4.39246 1.61805 0
M  V30 1783 H 183.966 6.16328 2.00111 0
M  V30 1784 N 177.372 -0.689602 1.41712 0
M  V30 1785 C 178.783 -1.26973 1.36875 0
M  V30 1786 C 179.134 -1.96124 0.054748 0
M  V30 1787 O 178.259 -1.99141 -0.84687 0
M  V30 1788 C 178.854 -2.30912 2.47922 0
M  V30 1789 C 177.413 -2.84486 2.46464 0
M  V30 1790 C 176.56 -1.58603 2.27465 0
M  V30 1791 H 179.511 -0.48396 1.51141 0
M  V30 1792 H 179.532 -3.12331 2.17323 0
M  V30 1793 H 179.044 -1.80554 3.43543 0
M  V30 1794 H 177.145 -3.39005 1.54617 0
M  V30 1795 H 177.258 -3.34511 3.42986 0
M  V30 1796 H 175.622 -1.84632 1.75451 0
M  V30 1797 H 176.405 -1.10233 3.25121 0
M  V30 1798 N 178.85 -1.27639 -0.924453 0
M  V30 1799 C 179.76 -1.12466 -2.05885 0
M  V30 1800 C 180.776 -0.053869 -1.73917 0
M  V30 1801 O 181.952 -0.261012 -1.99702 0
M  V30 1802 C 179.017 -0.776768 -3.37886 0
M  V30 1803 C 178.078 -1.92878 -3.83532 0
M  V30 1804 C 177.311 -1.59739 -5.09234 0
M  V30 1805 O 177.534 -0.506782 -5.68144 0
M  V30 1806 O 176.468 -2.43761 -5.50331 0
M  V30 1807 H 180.294 -2.07671 -2.21599 0
M  V30 1808 H 177.879 -1.06857 -1.04413 0
M  V30 1809 H 179.761 -0.596229 -4.17161 0
M  V30 1810 H 178.436 0.145732 -3.23372 0
M  V30 1811 H 177.343 -2.1644 -3.0513 0
M  V30 1812 H 178.676 -2.8316 -4.02593 0
M  V30 1813 N 180.328 1.1314 -1.09713 0
M  V30 1814 C 181.258 2.20748 -0.761102 0
M  V30 1815 C 182.239 1.68061 0.262566 0
M  V30 1816 O 183.424 1.93765 0.129977 0
M  V30 1817 C 180.554 3.46812 -0.184054 0
M  V30 1818 C 179.508 4.12606 -1.13757 0
M  V30 1819 C 178.834 5.33031 -0.422083 0
M  V30 1820 C 180.134 4.59603 -2.48118 0
M  V30 1821 H 181.828 2.49113 -1.66082 0
M  V30 1822 H 179.374 1.19734 -0.799987 0
M  V30 1823 H 181.327 4.21353 0.0631215 0
M  V30 1824 H 180.051 3.17851 0.750868 0
M  V30 1825 H 178.71 3.40036 -1.37007 0
M  V30 1826 H 178.358 5.00335 0.517072 0
M  V30 1827 H 178.058 5.77999 -1.05788 0
M  V30 1828 H 179.582 6.10325 -0.183277 0
M  V30 1829 H 180.996 5.25552 -2.29059 0
M  V30 1830 H 179.393 5.15321 -3.07514 0
M  V30 1831 H 180.463 3.73971 -3.08665 0
M  V30 1832 N 181.806 0.884767 1.30421 0
M  V30 1833 C 183.052 0.503851 1.96441 0
M  V30 1834 C 183.385 -0.944518 1.69684 0
M  V30 1835 O 182.66 -1.66737 1.00145 0
M  V30 1836 C 182.943 0.779085 3.51571 0
M  V30 1837 C 182.796 2.27807 3.87846 0
M  V30 1838 C 184.115 0.255452 4.39358 0
M  V30 1839 H 181.234 0.184533 0.713524 0
M  V30 1840 H 183.876 1.10872 1.54297 0
M  V30 1841 H 182.026 0.264274 3.876 0
M  V30 1842 H 183.698 2.86127 3.61841 0
M  V30 1843 H 181.941 2.74479 3.35922 0
M  V30 1844 H 182.612 2.42125 4.96064 0
M  V30 1845 H 185.088 0.696079 4.10236 0
M  V30 1846 H 183.964 0.477361 5.4682 0
M  V30 1847 H 184.225 -0.843293 4.33983 0
M  V30 1848 N 183.284 -1.43765 0.645699 0
M  V30 1849 C 184.7 -1.56509 0.312591 0
M  V30 1850 C 184.9 -1.6307 -1.18365 0
M  V30 1851 O 183.956 -1.58167 -1.96824 0
M  V30 1852 C 185.269 -2.82968 1.01733 0
M  V30 1853 C 186.817 -2.96701 0.996865 0
M  V30 1854 C 187.292 -4.25982 1.68236 0
M  V30 1855 N 188.783 -4.32829 1.64964 0
M  V30 1856 C 189.518 -5.31613 2.14885 0
M  V30 1857 N 189.014 -6.36718 2.73061 0
M  V30 1858 N 190.807 -5.23217 2.05428 0
M  V30 1859 H 182.958 -1.3775 1.61675 0
M  V30 1860 H 185.221 -0.661067 0.679481 0
M  V30 1861 H 184.927 -2.84156 2.0724 0
M  V30 1862 H 184.801 -3.72957 0.564177 0
M  V30 1863 H 187.188 -2.95058 -0.0497719 0
M  V30 1864 H 187.269 -2.08022 1.48865 0
M  V30 1865 H 186.913 -4.28386 2.72852 0
M  V30 1866 H 186.843 -5.13545 1.16529 0
M  V30 1867 H 189.334 -3.57493 1.22503 0
M  V30 1868 H 189.647 -7.08401 3.08848 0
M  V30 1869 H 187.992 -6.37362 2.77118 0
M  V30 1870 H 191.183 -4.40019 1.59689 0
M  V30 1871 H 191.356 -6.00045 2.44643 0
M  V30 1872 N 184.763 -0.387143 -1.52771 0
M  V30 1873 C 186.04 0.253197 -1.93954 0
M  V30 1874 C 186.42 1.64545 -1.32243 0
M  V30 1875 O 185.768 2.23191 -0.489699 0
M  V30 1876 C 185.978 0.281722 -3.47861 0
M  V30 1877 C 187.326 0.511715 -4.21505 0
M  V30 1878 O 188.35 0.362023 -3.54356 0
M  V30 1879 O 187.209 0.804847 -5.40541 0
M  V30 1880 H 184.303 0.156845 -0.811991 0
M  V30 1881 H 186.849 -0.441494 -1.63856 0
M  V30 1882 H 185.621 -0.693571 -3.85104 0
M  V30 1883 H 185.244 1.02142 -3.84256 0
M  V30 1884 N 186.241 1.57166 -0.116904 0
M  V30 1885 C 187.487 1.95412 0.542405 0
M  V30 1886 C 187.82 1.00019 1.66463 0
M  V30 1887 O 187.095 0.0370346 1.94465 0
M  V30 1888 C 187.378 3.43615 1.07708 0
M  V30 1889 C 187.231 4.49781 -0.0415868 0
M  V30 1890 C 188.55 3.93616 1.96861 0
M  V30 1891 H 185.669 0.710543 0.195696 0
M  V30 1892 H 188.311 1.89027 -0.192038 0
M  V30 1893 H 186.461 3.49187 1.70296 0
M  V30 1894 H 188.133 4.56308 -0.676793 0
M  V30 1895 H 186.376 4.28033 -0.705019 0
M  V30 1896 H 187.047 5.50733 0.373717 0
M  V30 1897 H 189.523 3.90335 1.44146 0
M  V30 1898 H 188.399 4.97838 2.3119 0
M  V30 1899 H 188.66 3.34188 2.89432 0
M  V30 1900 N 187.719 -0.156864 1.56817 0
M  V30 1901 C 188.996 -0.899244 1.73704 0
M  V30 1902 C 189.376 -1.99771 0.682254 0
M  V30 1903 O 188.724 -2.26515 -0.300522 0
M  V30 1904 C 188.934 -1.45075 3.17418 0
M  V30 1905 C 190.282 -1.91802 3.7881 0
M  V30 1906 O 191.306 -1.54838 3.20786 0
M  V30 1907 O 190.165 -2.5994 4.80722 0
M  V30 1908 H 187.259 -0.424267 0.709878 0
M  V30 1909 H 189.805 -0.143561 1.69092 0
M  V30 1910 H 188.577 -0.660846 3.85679 0
M  V30 1911 H 188.2 -2.27021 3.26416 0
M  V30 1912 N 189.197 -1.51736 -0.425897 0
M  V30 1913 C 190.446 -1.64201 -1.17136 0
M  V30 1914 C 190.759 -0.369705 -1.92074 0
M  V30 1915 O 191.965 -0.373898 -2.68913 0
M  V30 1916 C 190.421 -2.90035 -2.13091 0
M  V30 1917 C 190.029 -4.24312 -1.43747 0
M  V30 1918 C 191.773 -3.1186 -2.87999 0
M  V30 1919 C 189.68 -5.41285 -2.38253 0
M  V30 1920 H 188.61 -0.611624 -0.440944 0
M  V30 1921 H 191.261 -1.78212 -0.437328 0
M  V30 1922 H 189.643 -2.69684 -2.89977 0
M  V30 1923 H 190.817 -4.55086 -0.723408 0
M  V30 1924 H 189.132 -4.08456 -0.809465 0
M  V30 1925 H 191.729 -3.96427 -3.58817 0
M  V30 1926 H 192.072 -2.25403 -3.49999 0
M  V30 1927 H 192.605 -3.32605 -2.18217 0
M  V30 1928 H 189.344 -6.30037 -1.80925 0
M  V30 1929 H 188.864 -5.14872 -3.0768 0
M  V30 1930 H 190.543 -5.73694 -2.99139 0
M  V30 1931 N 190.675 0.682077 -1.42076 0
M  V30 1932 C 191.605 1.80796 -1.47767 0
M  V30 1933 C 192.586 1.6677 -0.334954 0
M  V30 1934 O 193.771 1.863 -0.548264 0
M  V30 1935 C 190.901 3.19038 -1.37229 0
M  V30 1936 C 189.855 3.47789 -2.49453 0
M  V30 1937 C 189.181 4.8553 -2.23975 0
M  V30 1938 C 190.481 3.45411 -3.91776 0
M  V30 1939 H 192.175 1.7629 -2.41997 0
M  V30 1940 H 189.721 0.846721 -1.16476 0
M  V30 1941 H 191.674 3.97528 -1.39821 0
M  V30 1942 H 190.398 3.24204 -0.394907 0
M  V30 1943 H 189.057 2.71657 -2.46166 0
M  V30 1944 H 188.705 4.87337 -1.24547 0
M  V30 1945 H 188.405 5.0573 -2.99184 0
M  V30 1946 H 189.929 5.66312 -2.28304 0
M  V30 1947 H 191.343 4.13882 -3.96705 0
M  V30 1948 H 189.74 3.77145 -4.66778 0
M  V30 1949 H 190.81 2.44122 -4.18966 0
M  V30 1950 N 192.153 1.28127 0.917671 0
M  V30 1951 C 193.399 1.15223 1.66888 0
M  V30 1952 C 193.732 -0.299293 1.9188 0
M  V30 1953 O 193.007 -1.21805 1.51637 0
M  V30 1954 C 193.29 1.94706 3.02922 0
M  V30 1955 C 193.143 3.47898 2.85109 0
M  V30 1956 C 194.462 1.75939 4.03402 0
M  V30 1957 H 191.581 0.419946 0.605652 0
M  V30 1958 H 194.223 1.57398 1.06423 0
M  V30 1959 H 192.373 1.58864 3.54534 0
M  V30 1960 H 194.045 3.93624 2.40537 0
M  V30 1961 H 192.288 3.7373 2.20246 0
M  V30 1962 H 192.959 3.98765 3.81694 0
M  V30 1963 H 195.435 2.07209 3.60837 0
M  V30 1964 H 194.311 2.33931 4.96556 0
M  V30 1965 H 194.572 0.709877 4.36364 0
M  V30 1966 N 193.631 -1.12557 1.10312 0
M  V30 1967 C 194.877 -1.84311 0.846011 0
M  V30 1968 C 195.21 -1.83805 -0.626859 0
M  V30 1969 O 194.485 -1.28268 -1.46211 0
M  V30 1970 C 194.768 -3.32048 1.39341 0
M  V30 1971 C 194.621 -3.41016 2.93305 0
M  V30 1972 C 195.94 -4.27764 1.03468 0
M  V30 1973 H 193.059 -0.669192 0.30879 0
M  V30 1974 H 195.701 -1.32057 1.36605 0
M  V30 1975 H 193.851 -3.76678 0.951087 0
M  V30 1976 H 195.523 -3.05031 3.46055 0
M  V30 1977 H 193.766 -2.81603 3.29973 0
M  V30 1978 H 194.437 -4.44948 3.26689 0
M  V30 1979 H 196.913 -3.91253 1.41633 0
M  V30 1980 H 195.789 -5.29549 1.44463 0
M  V30 1981 H 196.05 -4.42064 -0.0560404 0
M  V30 1982 N 195.109 -0.891671 -1.2995 0
M  V30 1983 C 196.525 -0.58662 -1.48428 0
M  V30 1984 C 196.725 0.873951 -1.81561 0
M  V30 1985 O 195.781 1.65471 -1.90724 0
M  V30 1986 C 197.094 -1.50553 -2.60296 0
M  V30 1987 C 198.642 -1.50988 -2.74175 0
M  V30 1988 C 199.117 -2.41488 -3.89163 0
M  V30 1989 N 200.608 -2.39489 -3.96483 0
M  V30 1990 C 201.343 -3.06223 -4.84784 0
M  V30 1991 N 200.839 -3.82206 -5.77833 0
M  V30 1992 N 202.632 -2.95421 -4.78208 0
M  V30 1993 H 194.783 -1.83644 -1.06718 0
M  V30 1994 H 197.046 -0.786455 -0.529332 0
M  V30 1995 H 196.752 -2.54581 -2.42654 0
M  V30 1996 H 196.626 -1.22008 -3.56923 0
M  V30 1997 H 199.013 -0.47708 -2.91218 0
M  V30 1998 H 199.094 -1.83567 -1.78148 0
M  V30 1999 H 198.738 -3.44857 -3.72876 0
M  V30 2000 H 198.668 -2.06222 -4.84541 0
M  V30 2001 H 201.159 -1.84278 -3.29924 0
M  V30 2002 H 201.472 -4.302 -6.41988 0
M  V30 2003 H 199.817 -3.86313 -5.77743 0
M  V30 2004 H 203.008 -2.35581 -4.04499 0
M  V30 2005 H 203.181 -3.47704 -5.46814 0
M  V30 2006 N 196.587 1.43421 -0.653314 0
M  V30 2007 C 197.497 2.34568 0.0388565 0
M  V30 2008 C 198.513 1.53888 0.81207 0
M  V30 2009 O 199.689 1.86539 0.759294 0
M  V30 2010 C 196.754 3.32167 0.993269 0
M  V30 2011 C 195.815 4.28751 0.216977 0
M  V30 2012 C 195.048 5.21688 1.12593 0
M  V30 2013 O 195.271 5.19052 2.36519 0
M  V30 2014 O 194.205 5.98919 0.598284 0
M  V30 2015 H 198.031 2.95251 -0.711386 0
M  V30 2016 H 195.616 1.43564 -0.413502 0
M  V30 2017 H 197.498 3.92183 1.54176 0
M  V30 2018 H 196.173 2.73987 1.72374 0
M  V30 2019 H 195.08 3.72215 -0.375101 0
M  V30 2020 H 196.413 4.89913 -0.473924 0
M  V30 2021 N 198.065 0.39524 1.52563 0
M  V30 2022 C 198.995 -0.428384 2.29537 0
M  V30 2023 C 199.976 -1.05831 1.33169 0
M  V30 2024 O 201.161 -1.06995 1.62067 0
M  V30 2025 C 198.291 -1.55274 3.10656 0
M  V30 2026 C 197.245 -1.04855 4.14957 0
M  V30 2027 C 196.571 -2.26543 4.84337 0
M  V30 2028 C 197.871 -0.112324 5.22179 0
M  V30 2029 H 199.565 0.213867 2.98635 0
M  V30 2030 H 197.111 0.104298 1.43622 0
M  V30 2031 H 199.064 -2.1358 3.63265 0
M  V30 2032 H 197.788 -2.22266 2.39302 0
M  V30 2033 H 196.447 -0.487985 3.63338 0
M  V30 2034 H 196.095 -2.92059 4.09525 0
M  V30 2035 H 195.795 -1.93466 5.54837 0
M  V30 2036 H 197.319 -2.85481 5.39753 0
M  V30 2037 H 198.733 -0.603752 5.70112 0
M  V30 2038 H 197.13 0.128968 5.99961 0
M  V30 2039 H 198.2 0.837052 4.77621 0
M  V30 2040 N 199.544 -1.57102 0.125237 0
M  V30 2041 C 200.772 -1.99761 -0.538797 0
M  V30 2042 C 201.187 -1.00503 -1.59827 0
M  V30 2043 O 200.544 0.00119474 -1.825 0
M  V30 2044 C 200.595 -3.42408 -1.15927 0
M  V30 2045 O 200.316 -4.37869 -0.142143 0
M  V30 2046 C 201.817 -4.00232 -1.90602 0
M  V30 2047 H 199.037 -0.655772 -0.14214 0
M  V30 2048 H 201.581 -2.03383 0.213413 0
M  V30 2049 H 199.736 -3.39706 -1.86223 0
M  V30 2050 H 200.15 -5.21128 -0.593775 0
M  V30 2051 H 201.624 -5.02105 -2.29335 0
M  V30 2052 H 202.101 -3.39721 -2.78363 0
M  V30 2053 H 202.707 -4.06499 -1.25055 0
M  V30 2054 N 201.022 0.148545 -1.56898 0
M  V30 2055 C 202.27 0.859717 -1.82902 0
M  V30 2056 C 202.591 1.81775 -0.70588 0
M  V30 2057 O 201.861 1.93994 0.272586 0
M  V30 2058 H 200.441 0.320469 -0.674766 0
M  V30 2059 H 203.103 0.142918 -1.94375 0
M  V30 2060 H 202.199 1.4229 -2.77777 0
M  V30 2061 N 202.5 1.5196 0.417844 0
M  V30 2062 C 203.777 1.56146 1.17803 0
M  V30 2063 C 204.157 0.337275 2.08388 0
M  V30 2064 O 203.505 -0.676447 2.18258 0
M  V30 2065 C 203.715 2.88566 1.96293 0
M  V30 2066 C 205.063 3.41244 2.52662 0
M  V30 2067 O 206.087 2.90247 2.06483 0
M  V30 2068 O 204.946 4.30273 3.36938 0
M  V30 2069 H 202.04 0.628598 0.537395 0
M  V30 2070 H 204.586 1.64283 0.425331 0
M  V30 2071 H 203.358 3.69116 1.2988 0
M  V30 2072 H 202.981 2.83681 2.78587 0
M  V30 2073 N 203.978 -0.674533 1.42435 0
M  V30 2074 C 205.227 -1.43034 1.42212 0
M  V30 2075 C 205.54 -1.95555 0.0420788 0
M  V30 2076 O 206.746 -2.71374 -0.0827558 0
M  V30 2077 C 205.202 -2.58748 2.50155 0
M  V30 2078 C 204.81 -2.12925 3.94166 0
M  V30 2079 C 206.554 -3.36257 2.59098 0
M  V30 2080 C 204.461 -3.25723 4.93618 0
M  V30 2081 H 203.391 -0.537345 0.528939 0
M  V30 2082 H 206.042 -0.73024 1.68344 0
M  V30 2083 H 204.424 -3.31128 2.17188 0
M  V30 2084 H 205.598 -1.47697 4.36488 0
M  V30 2085 H 203.913 -1.48354 3.89076 0
M  V30 2086 H 206.51 -4.20264 3.30578 0
M  V30 2087 H 206.853 -3.82866 1.63461 0
M  V30 2088 H 207.386 -2.70947 2.9126 0
M  V30 2089 H 204.125 -2.84105 5.90732 0
M  V30 2090 H 203.645 -3.89732 4.55926 0
M  V30 2091 H 205.324 -3.91186 5.15347 0
M  V30 2092 N 205.456 -1.28612 -0.910864 0
M  V30 2093 C 206.686 -1.1862 -1.69153 0
M  V30 2094 C 207.094 0.257324 -1.87442 0
M  V30 2095 O 206.437 1.18543 -1.40332 0
M  V30 2096 C 206.499 -1.81606 -3.10257 0
M  V30 2097 C 206.163 -3.30864 -3.15243 0
M  V30 2098 C 207.16 -4.27256 -2.96223 0
M  V30 2099 C 204.845 -3.71871 -3.37664 0
M  V30 2100 C 206.839 -5.62631 -2.99541 0
M  V30 2101 C 204.526 -5.07371 -3.40614 0
M  V30 2102 C 205.524 -6.02561 -3.21573 0
M  V30 2103 O 205.212 -7.35589 -3.2429 0
M  V30 2104 H 204.944 -0.412633 -0.535453 0
M  V30 2105 H 207.498 -1.70306 -1.14827 0
M  V30 2106 H 205.728 -1.24418 -3.66138 0
M  V30 2107 H 207.417 -1.66092 -3.70362 0
M  V30 2108 H 208.183 -3.9691 -2.78725 0
M  V30 2109 H 204.062 -2.98241 -3.5153 0
M  V30 2110 H 207.606 -6.36907 -2.84597 0
M  V30 2111 H 203.503 -5.37366 -3.57642 0
M  V30 2112 H 204.271 -7.44252 -3.40633 0
M  V30 2113 N 206.934 1.1197 -1.10907 0
M  V30 2114 C 208.181 1.83588 -0.854507 0
M  V30 2115 C 208.509 1.84357 0.6199 0
M  V30 2116 O 207.764 1.28809 1.47332 0
M  V30 2117 C 208.063 3.30749 -1.35425 0
M  V30 2118 C 207.729 3.50146 -2.84093 0
M  V30 2119 C 206.391 3.55148 -3.2469 0
M  V30 2120 C 208.743 3.56857 -3.79872 0
M  V30 2121 C 206.071 3.6441 -4.59806 0
M  V30 2122 C 208.423 3.6765 -5.14797 0
M  V30 2123 C 207.087 3.7091 -5.54961 0
M  V30 2124 H 206.357 0.671795 -0.312686 0
M  V30 2125 H 209.004 1.32091 -1.38652 0
M  V30 2126 H 207.309 3.84703 -0.742361 0
M  V30 2127 H 209.006 3.8464 -1.1337 0
M  V30 2128 H 205.596 3.46919 -2.51685 0
M  V30 2129 H 209.78 3.52258 -3.49611 0
M  V30 2130 H 205.036 3.65208 -4.9034 0
M  V30 2131 H 209.21 3.71786 -5.88853 0
M  V30 2132 H 206.837 3.7784 -6.59652 0
M  V30 2133 N 208.412 0.89855 1.29475 0
M  V30 2134 C 209.66 0.522847 1.9522 0
M  V30 2135 C 209.981 -0.93371 1.71192 0
M  V30 2136 O 209.251 -1.65823 1.04305 0
M  V30 2137 H 207.831 0.190366 0.722336 0
M  V30 2138 H 210.493 1.14459 1.5775 0
M  V30 2139 H 209.589 0.704476 3.04045 0
M  V30 2140 N 209.89 -1.43072 0.660911 0
M  V30 2141 C 210.822 -2.29108 -0.0647641 0
M  V30 2142 C 211.835 -1.42928 -0.779448 0
M  V30 2143 O 213.024 -1.66788 -0.635921 0
M  V30 2144 C 210.124 -3.20032 -1.11503 0
M  V30 2145 C 209.297 -4.34792 -0.476955 0
M  V30 2146 C 208.356 -5.06534 -1.42513 0
M  V30 2147 O 207.382 -5.61538 -0.930771 0
M  V30 2148 N 208.584 -5.1075 -2.75889 0
M  V30 2149 H 211.349 -2.92029 0.673731 0
M  V30 2150 H 208.91 -1.53846 0.50427 0
M  V30 2151 H 210.902 -3.64892 -1.75032 0
M  V30 2152 H 209.472 -2.58658 -1.75541 0
M  V30 2153 H 208.692 -3.92752 0.337572 0
M  V30 2154 H 209.98 -5.0879 -0.0318525 0
M  V30 2155 H 209.378 -4.67447 -3.18606 0
M  V30 2156 H 207.935 -5.59302 -3.347 0
M  V30 2157 N 211.368 -0.403325 -1.52352 0
M  V30 2158 C 212.779 0.0675782 -1.86578 0
M  V30 2159 C 213.13 1.44941 -1.32236 0
M  V30 2160 O 212.255 2.06112 -0.659307 0
M  V30 2161 C 212.85 0.129404 -3.38553 0
M  V30 2162 C 211.409 0.544629 -3.72439 0
M  V30 2163 C 210.556 -0.284551 -2.75836 0
M  V30 2164 H 213.507 -0.620631 -1.46061 0
M  V30 2165 H 213.528 0.94581 -3.68558 0
M  V30 2166 H 213.04 -0.87645 -3.78074 0
M  V30 2167 H 211.141 1.55734 -3.38493 0
M  V30 2168 H 211.254 0.293046 -4.78203 0
M  V30 2169 H 209.618 0.252258 -2.53448 0
M  V30 2170 H 210.401 -1.28865 -3.18196 0
M  V30 2171 N 212.846 1.57033 -0.133567 0
M  V30 2172 C 214.262 1.58035 0.222944 0
M  V30 2173 C 214.462 1.14713 1.6566 0
M  V30 2174 O 213.518 0.841218 2.38075 0
M  V30 2175 C 214.831 3.00691 -0.0236116 0
M  V30 2176 C 216.379 3.12973 0.0411512 0
M  V30 2177 C 216.854 4.57654 -0.177899 0
M  V30 2178 N 218.345 4.63033 -0.124365 0
M  V30 2179 C 219.08 5.72771 -0.268553 0
M  V30 2180 N 218.576 6.91206 -0.46972 0
M  V30 2181 N 220.369 5.61718 -0.2071 0
M  V30 2182 H 212.52 1.8349 -1.06981 0
M  V30 2183 H 214.783 0.848677 -0.422436 0
M  V30 2184 H 214.489 3.36726 -1.0153 0
M  V30 2185 H 214.363 3.70614 0.701808 0
M  V30 2186 H 216.75 2.76787 1.02338 0
M  V30 2187 H 216.831 2.45564 -0.716383 0
M  V30 2188 H 216.475 4.94542 -1.15717 0
M  V30 2189 H 216.405 5.23173 0.599797 0
M  V30 2190 H 218.896 3.7789 0.027011 0
M  V30 2191 H 219.209 7.70693 -0.570212 0
M  V30 2192 H 217.554 6.93156 -0.505876 0
M  V30 2193 H 220.745 4.68072 -0.0507986 0
M  V30 2194 H 220.918 6.47195 -0.322909 0
M  V30 2195 N 214.325 -0.140222 1.56975 0
M  V30 2196 C 215.573 -0.850005 1.83356 0
M  V30 2197 C 215.894 -1.81399 0.71551 0
M  V30 2198 O 215.164 -1.94136 -0.262294 0
M  V30 2199 H 213.744 -0.316886 0.676456 0
M  V30 2200 H 216.406 -0.132608 1.94448 0
M  V30 2201 H 215.502 -1.40814 2.78528 0
M  V30 2202 N 215.803 -1.52179 -0.40978 0
M  V30 2203 C 216.733 -1.78435 -1.5061 0
M  V30 2204 C 217.714 -0.635295 -1.57791 0
M  V30 2205 O 218.899 -0.880823 -1.73076 0
M  V30 2206 C 216.029 -1.93444 -2.88439 0
M  V30 2207 C 214.983 -3.09038 -2.96108 0
M  V30 2208 C 214.309 -3.09268 -4.36185 0
M  V30 2209 C 215.609 -4.48508 -2.67652 0
M  V30 2210 H 217.303 -2.70237 -1.28889 0
M  V30 2211 H 214.849 -1.30036 -0.618605 0
M  V30 2212 H 216.802 -2.10394 -3.65119 0
M  V30 2213 H 215.526 -0.983129 -3.11452 0
M  V30 2214 H 214.185 -2.91837 -2.21872 0
M  V30 2215 H 213.833 -2.11861 -4.56206 0
M  V30 2216 H 213.533 -3.86907 -4.42241 0
M  V30 2217 H 215.057 -3.28348 -5.14801 0
M  V30 2218 H 216.471 -4.65918 -3.34056 0
M  V30 2219 H 214.868 -5.28059 -2.85085 0
M  V30 2220 H 215.938 -4.56649 -1.63095 0
M  V30 2221 N 217.281 0.66697 -1.42791 0
M  V30 2222 C 218.191 1.80962 -1.49299 0
M  V30 2223 C 219.207 1.69775 -0.381108 0
M  V30 2224 O 220.383 1.91188 -0.633188 0
M  V30 2225 C 217.448 3.17156 -1.40045 0
M  V30 2226 C 216.509 3.40242 -2.6179 0
M  V30 2227 C 215.742 4.69939 -2.52969 0
M  V30 2228 O 215.965 5.48372 -1.56985 0
M  V30 2229 O 214.899 4.94441 -3.43237 0
M  V30 2230 H 218.725 1.78427 -2.45759 0
M  V30 2231 H 216.31 0.823713 -1.24641 0
M  V30 2232 H 218.192 3.98413 -1.37276 0
M  V30 2233 H 216.867 3.20312 -0.467138 0
M  V30 2234 H 215.774 2.58802 -2.70134 0
M  V30 2235 H 217.107 3.41923 -3.54047 0
M  V30 2236 N 218.759 1.29093 0.90403 0
M  V30 2237 C 220.005 1.16986 1.65656 0
M  V30 2238 C 220.338 -0.278925 1.92186 0
M  V30 2239 O 219.613 -1.2019 1.5292 0
M  V30 2240 C 219.896 1.97908 3.0084 0
M  V30 2241 C 219.749 3.50903 2.81403 0
M  V30 2242 C 221.068 1.80208 4.01513 0
M  V30 2243 H 218.187 0.426346 0.601164 0
M  V30 2244 H 220.829 1.58518 1.04747 0
M  V30 2245 H 218.979 1.62616 3.52829 0
M  V30 2246 H 220.651 3.96153 2.36348 0
M  V30 2247 H 218.894 3.76045 2.1627 0
M  V30 2248 H 219.565 4.02791 3.77443 0
M  V30 2249 H 222.041 2.11025 3.58619 0
M  V30 2250 H 220.917 2.39184 4.94047 0
M  V30 2251 H 221.178 0.756119 4.35586 0
M  V30 2252 N 220.237 -1.11381 1.11499 0
M  V30 2253 C 221.486 -1.82494 0.858993 0
M  V30 2254 C 221.799 -1.85605 -0.617278 0
M  V30 2255 O 223.005 -2.52824 -0.989552 0
M  V30 2256 C 221.461 -3.27745 1.48699 0
M  V30 2257 C 221.069 -3.32961 2.99735 0
M  V30 2258 C 222.813 -4.03754 1.31085 0
M  V30 2259 C 220.72 -4.72612 3.55516 0
M  V30 2260 H 219.65 -0.683802 0.317696 0
M  V30 2261 H 222.301 -1.25331 1.34031 0
M  V30 2262 H 220.683 -3.84844 0.933339 0
M  V30 2263 H 221.857 -2.85741 3.61509 0
M  V30 2264 H 220.172 -2.70433 3.16631 0
M  V30 2265 H 222.769 -5.06891 1.70192 0
M  V30 2266 H 223.112 -4.15527 0.253496 0
M  V30 2267 H 223.645 -3.53043 1.83318 0
M  V30 2268 H 220.384 -4.66036 4.60967 0
M  V30 2269 H 219.904 -5.2024 2.98513 0
M  V30 2270 H 221.583 -5.4157 3.53992 0
M  V30 2271 N 221.715 -0.905404 -1.28997 0
M  V30 2272 C 222.992 -0.453513 -1.9027 0
M  V30 2273 C 223.372 1.06721 -1.82137 0
M  V30 2274 O 222.72 1.91159 -1.25182 0
M  V30 2275 C 222.93 -0.974494 -3.35119 0
M  V30 2276 C 224.278 -1.0216 -4.12127 0
M  V30 2277 O 225.302 -0.922557 -3.44046 0
M  V30 2278 O 224.161 -1.17121 -5.33802 0
M  V30 2279 H 221.255 -0.142347 -0.814657 0
M  V30 2280 H 223.801 -0.995642 -1.37423 0
M  V30 2281 H 222.573 -2.01848 -3.35221 0
M  V30 2282 H 222.196 -0.412706 -3.95452 0
M  V30 2283 N 223.193 1.4272 -0.668489 0
M  V30 2284 C 224.441 2.01226 -0.187769 0
M  V30 2285 C 224.762 1.53092 1.2078 0
M  V30 2286 O 224.032 0.74993 1.80977 0
M  V30 2287 H 222.612 0.744041 -0.0664272 0
M  V30 2288 H 225.274 1.74723 -0.863583 0
M  V30 2289 H 224.37 3.11556 -0.184166 0
M  V30 2290 N 224.671 0.411399 1.52136 0
M  V30 2291 C 225.618 -0.412975 2.27075 0
M  V30 2292 C 226.588 -1.03912 1.29582 0
M  V30 2293 O 227.773 -1.06296 1.58448 0
M  V30 2294 C 224.913 -1.52247 3.09701 0
M  V30 2295 C 224.026 -0.917021 4.22155 0
M  V30 2296 C 223.161 -1.9994 4.92135 0
M  V30 2297 C 222.2 -1.37101 5.96548 0
M  V30 2298 N 221.337 -2.39364 6.60038 0
M  V30 2299 H 226.177 0.232499 2.97092 0
M  V30 2300 H 223.714 0.126496 1.46555 0
M  V30 2301 H 225.672 -2.17674 3.55913 0
M  V30 2302 H 224.302 -2.13794 2.41851 0
M  V30 2303 H 223.354 -0.151742 3.80097 0
M  V30 2304 H 224.666 -0.418006 4.97045 0
M  V30 2305 H 223.82 -2.73088 5.41763 0
M  V30 2306 H 222.559 -2.53208 4.16818 0
M  V30 2307 H 221.564 -0.624873 5.46237 0
M  V30 2308 H 222.789 -0.845998 6.7381 0
M  V30 2309 H 220.735 -2.91759 5.87548 0
M  V30 2310 H 220.652 -1.9428 7.3061 0
M  V30 2311 H 221.92 -3.12074 7.14304 0
M  V30 2312 N 226.149 -1.5696 0.141893 0
M  V30 2313 C 227.565 -1.58151 -0.21456 0
M  V30 2314 C 227.765 -1.1559 -1.65049 0
M  V30 2315 O 226.821 -0.853832 -2.37626 0
M  V30 2316 C 228.134 -3.00674 0.0395576 0
M  V30 2317 C 229.682 -3.1299 -0.0245529 0
M  V30 2318 C 230.157 -4.57554 0.202167 0
M  V30 2319 N 231.648 -4.62961 0.148919 0
M  V30 2320 C 232.383 -5.7262 0.298924 0
M  V30 2321 N 231.879 -6.90947 0.50637 0
M  V30 2322 N 233.672 -5.61601 0.236886 0
M  V30 2323 H 225.823 -1.8292 1.07953 0
M  V30 2324 H 228.086 -0.846425 0.42693 0
M  V30 2325 H 227.792 -3.36183 1.03315 0
M  V30 2326 H 227.666 -3.70981 -0.682143 0
M  V30 2327 H 230.053 -2.77326 -1.00869 0
M  V30 2328 H 230.134 -2.4518 0.729396 0
M  V30 2329 H 229.778 -4.93922 1.18338 0
M  V30 2330 H 229.708 -5.23484 -0.572044 0
M  V30 2331 H 232.199 -3.77899 -0.00697015 0
M  V30 2332 H 232.512 -7.7038 0.611076 0
M  V30 2333 H 230.857 -6.92878 0.542628 0
M  V30 2334 H 234.048 -4.68039 0.0756209 0
M  V30 2335 H 234.221 -6.47015 0.357227 0
M  V30 2336 N 227.627 0.131896 -1.57047 0
M  V30 2337 C 229.043 0.485031 -1.52051 0
M  V30 2338 C 229.243 1.82563 -0.85281 0
M  V30 2339 O 228.299 2.48817 -0.429694 0
M  V30 2340 C 229.612 0.481409 -2.96821 0
M  V30 2341 C 231.16 0.565868 -3.07842 0
M  V30 2342 C 231.635 0.592762 -4.54148 0
M  V30 2343 N 233.126 0.654564 -4.58552 0
M  V30 2344 C 233.861 0.696608 -5.69153 0
M  V30 2345 N 233.357 0.697078 -6.89284 0
M  V30 2346 N 235.15 0.738639 -5.57226 0
M  V30 2347 H 227.301 -0.746664 -1.98843 0
M  V30 2348 H 229.564 -0.273999 -0.90754 0
M  V30 2349 H 229.27 -0.435731 -3.4899 0
M  V30 2350 H 229.144 1.3139 -3.53577 0
M  V30 2351 H 231.531 1.47343 -2.55684 0
M  V30 2352 H 231.612 -0.29406 -2.54104 0
M  V30 2353 H 231.256 -0.310701 -5.06949 0
M  V30 2354 H 231.186 1.46939 -5.05684 0
M  V30 2355 H 233.677 0.660887 -3.72076 0
M  V30 2356 H 233.99 0.731426 -7.69331 0
M  V30 2357 H 232.335 0.66471 -6.91814 0
M  V30 2358 H 235.526 0.735545 -4.62285 0
M  V30 2359 H 235.699 0.767938 -6.43434 0
M  V30 2360 N 229.106 1.52395 0.401703 0
M  V30 2361 C 230.354 1.66488 1.14569 0
M  V30 2362 C 230.675 0.400897 1.90835 0
M  V30 2363 O 229.945 -0.584415 1.8698 0
M  V30 2364 H 228.525 0.613672 0.425929 0
M  V30 2365 H 231.187 1.89464 0.457093 0
M  V30 2366 H 230.283 2.50942 1.85566 0
M  V30 2367 N 230.584 -0.659388 1.43143 0
M  V30 2368 C 231.831 -1.41935 1.44433 0
M  V30 2369 C 232.159 -1.94387 0.0663522 0
M  V30 2370 O 231.414 -1.72314 -0.927706 0
M  V30 2371 C 231.713 -2.62206 2.42864 0
M  V30 2372 C 231.379 -2.28208 3.88886 0
M  V30 2373 C 230.041 -2.18647 4.28657 0
M  V30 2374 C 232.393 -2.00887 4.8093 0
M  V30 2375 C 229.721 -1.79914 5.58433 0
M  V30 2376 C 232.073 -1.63653 6.11065 0
M  V30 2377 C 230.737 -1.52614 6.49819 0
M  V30 2378 H 230.007 -0.519376 0.528517 0
M  V30 2379 H 232.654 -0.750453 1.76183 0
M  V30 2380 H 230.959 -3.34199 2.04495 0
M  V30 2381 H 232.656 -3.2041 2.41119 0
M  V30 2382 H 229.246 -2.36557 3.57406 0
M  V30 2383 H 233.43 -2.07198 4.5098 0
M  V30 2384 H 228.686 -1.69948 5.87305 0
M  V30 2385 H 232.86 -1.41543 6.81864 0
M  V30 2386 H 230.487 -1.22371 7.50286 0
M  V30 2387 N 232.062 -1.29571 -0.897171 0
M  V30 2388 C 233.01 -1.14802 -2.02295 0
M  V30 2389 C 234.004 -0.0629637 -1.69283 0
M  V30 2390 O 235.21 -0.222945 -1.78614 0
M  V30 2391 H 231.585 -0.354692 -0.663097 0
M  V30 2392 H 233.556 -2.10108 -2.11889 0
M  V30 2393 C 232.305 -0.843966 -3.37302 0
M  V30 2394 H 231.628 -1.67093 -3.63208 0
M  V30 2395 H 233.068 -0.780672 -4.16751 0
M  V30 2396 C 231.527 0.452843 -3.33843 0
M  V30 2397 O 232.057 1.47813 -3.73516 0
M  V30 2398 N 230.263 0.459601 -2.86943 0
M  V30 2399 H 229.81 -0.375213 -2.54853 0
M  V30 2400 H 229.768 1.32726 -2.85011 0
M  V30 2401 N 233.54 1.10788 -1.12088 0
M  V30 2402 C 234.768 1.86461 -0.896651 0
M  V30 2403 C 235.183 1.80492 0.553912 0
M  V30 2404 O 234.54 1.19102 1.38278 0
M  V30 2405 C 234.591 3.35006 -1.35843 0
M  V30 2406 O 234.312 3.40866 -2.75213 0
M  V30 2407 C 235.813 4.27565 -1.1706 0
M  V30 2408 H 233.033 0.589425 -0.320654 0
M  V30 2409 H 235.577 1.40076 -1.48993 0
M  V30 2410 H 233.732 3.7887 -0.808458 0
M  V30 2411 H 234.146 4.33411 -2.9539 0
M  V30 2412 H 235.62 5.30007 -1.54263 0
M  V30 2413 H 236.097 4.3906 -0.110814 0
M  V30 2414 H 236.703 3.89501 -1.70789 0
M  V30 2415 N 235.018 0.912232 1.28515 0
M  V30 2416 C 235.951 0.343928 2.25593 0
M  V30 2417 C 236.929 -0.550994 1.5298 0
M  V30 2418 O 238.113 -0.494991 1.81885 0
M  V30 2419 C 235.24 -0.508525 3.34861 0
M  V30 2420 C 234.286 0.320808 4.25292 0
M  V30 2421 S 235.119 1.72658 5.06902 0
M  V30 2422 C 236.275 0.881394 6.19663 0
M  V30 2423 H 236.508 1.16674 2.73449 0
M  V30 2424 H 234.041 0.713384 1.36931 0
M  V30 2425 H 235.999 -0.994539 3.9827 0
M  V30 2426 H 234.66 -1.30571 2.85675 0
M  V30 2427 H 233.853 -0.330941 5.02912 0
M  V30 2428 H 233.455 0.74042 3.66598 0
M  V30 2429 H 235.747 0.110359 6.7741 0
M  V30 2430 H 236.69 1.63009 6.89082 0
M  V30 2431 H 237.098 0.430239 5.62858 0
M  V30 2432 N 236.496 -1.42363 0.676048 0
M  V30 2433 C 237.742 -2.0182 0.199125 0
M  V30 2434 C 238.075 -1.53339 -1.19168 0
M  V30 2435 O 237.35 -0.736124 -1.80032 0
M  V30 2436 C 237.633 -3.59331 0.235144 0
M  V30 2437 C 237.486 -4.17989 1.66149 0
M  V30 2438 C 238.805 -4.3813 -0.41595 0
M  V30 2439 H 235.924 -0.733293 0.0738311 0
M  V30 2440 H 238.566 -1.69368 0.86107 0
M  V30 2441 H 236.716 -3.87109 -0.328487 0
M  V30 2442 H 238.388 -4.0116 2.27747 0
M  V30 2443 H 236.631 -3.7377 2.20178 0
M  V30 2444 H 237.302 -5.27126 1.63837 0
M  V30 2445 H 239.778 -4.16051 0.0638529 0
M  V30 2446 H 238.654 -5.47717 -0.360115 0
M  V30 2447 H 238.915 -4.16101 -1.49373 0
M  V30 2448 N 237.974 -0.419461 -1.51915 0
M  V30 2449 C 239.204 0.151915 -2.06041 0
M  V30 2450 C 239.612 1.38539 -1.28855 0
M  V30 2451 O 238.955 1.80592 -0.336463 0
M  V30 2452 C 239.017 0.557119 -3.55157 0
M  V30 2453 C 238.681 -0.567054 -4.53468 0
M  V30 2454 C 239.678 -1.43379 -4.99738 0
M  V30 2455 C 237.363 -0.742693 -4.96779 0
M  V30 2456 C 239.357 -2.46102 -5.87973 0
M  V30 2457 C 237.044 -1.77322 -5.84808 0
M  V30 2458 C 238.042 -2.63078 -6.30301 0
M  V30 2459 O 237.73 -3.64364 -7.16585 0
M  V30 2460 H 237.462 0.0193293 -0.675724 0
M  V30 2461 H 240.016 -0.592073 -1.96682 0
M  V30 2462 H 238.246 1.35355 -3.62238 0
M  V30 2463 H 239.935 1.05759 -3.9188 0
M  V30 2464 H 240.701 -1.30954 -4.66986 0
M  V30 2465 H 236.58 -0.0848307 -4.60922 0
M  V30 2466 H 240.124 -3.13071 -6.23404 0
M  V30 2467 H 236.021 -1.89773 -6.16974 0
M  V30 2468 H 236.789 -3.60731 -7.34721 0
M  V30 2469 N 239.452 1.56882 -0.150215 0
M  V30 2470 C 240.729 1.87844 0.545327 0
M  V30 2471 C 241.109 1.0567 1.82749 0
M  V30 2472 O 240.457 0.144442 2.28043 0
M  V30 2473 C 240.667 3.39526 0.80767 0
M  V30 2474 C 242.015 4.08814 1.14703 0
M  V30 2475 O 243.039 3.44723 0.896917 0
M  V30 2476 O 241.898 5.22004 1.61784 0
M  V30 2477 H 238.992 0.778677 0.278553 0
M  V30 2478 H 241.538 1.68666 -0.187068 0
M  V30 2479 H 240.31 3.91173 -0.0996096 0
M  V30 2480 H 239.933 3.64243 1.59413 0
M  V30 2481 N 240.93 -0.123565 1.57115 0
M  V30 2482 C 241.84 -1.17074 2.033 0
M  V30 2483 C 242.856 -1.4561 0.952559 0
M  V30 2484 O 244.032 -1.56817 1.26374 0
M  V30 2485 C 241.097 -2.47857 2.42421 0
M  V30 2486 C 240.158 -2.26758 3.64526 0
M  V30 2487 C 239.391 -3.51305 4.01771 0
M  V30 2488 O 239.614 -4.5843 3.39409 0
M  V30 2489 O 238.548 -3.42578 4.94898 0
M  V30 2490 H 242.374 -0.808555 2.92739 0
M  V30 2491 H 239.959 -0.334027 1.45618 0
M  V30 2492 H 241.841 -3.2492 2.68338 0
M  V30 2493 H 240.516 -2.83558 1.5613 0
M  V30 2494 H 239.423 -1.47569 3.43765 0
M  V30 2495 H 240.756 -1.95963 4.51508 0
M  V30 2496 N 242.408 -1.52605 -0.393616 0
M  V30 2497 C 243.685 -1.58001 -1.15304 0
M  V30 2498 C 244.065 -0.370385 -2.07825 0
M  V30 2499 O 243.413 0.641638 -2.19306 0
M  V30 2500 C 243.623 -2.91652 -1.91677 0
M  V30 2501 C 244.971 -3.4522 -2.47201 0
M  V30 2502 O 245.995 -2.93495 -2.01839 0
M  V30 2503 O 244.854 -4.35579 -3.3005 0
M  V30 2504 H 241.948 -0.637068 -0.527327 0
M  V30 2505 H 244.494 -1.64939 -0.399141 0
M  V30 2506 H 243.266 -3.71136 -1.23992 0
M  V30 2507 H 242.889 -2.88077 -2.74039 0
M  V30 2508 N 243.887 0.651787 -1.4349 0
M  V30 2509 C 244.797 1.79368 -1.5121 0
M  V30 2510 C 245.813 1.69361 -0.399093 0
M  V30 2511 O 246.989 1.90505 -0.653431 0
M  V30 2512 C 244.054 3.15653 -1.43401 0
M  V30 2513 C 243.115 3.37446 -2.65384 0
M  V30 2514 C 242.348 4.67229 -2.57939 0
M  V30 2515 O 242.571 5.46676 -1.62792 0
M  V30 2516 O 241.505 4.90773 -3.48462 0
M  V30 2517 H 245.331 1.7581 -2.47638 0
M  V30 2518 H 242.916 0.810447 -1.25507 0
M  V30 2519 H 244.798 3.96935 -1.41494 0
M  V30 2520 H 243.473 3.19798 -0.501085 0
M  V30 2521 H 242.38 2.55923 -2.72863 0
M  V30 2522 H 243.713 3.38148 -3.57654 0
M  V30 2523 N 245.365 1.30045 0.890287 0
M  V30 2524 C 246.614 1.17929 1.63633 0
M  V30 2525 C 246.927 -0.266204 1.9378 0
M  V30 2526 O 248.133 -0.508804 2.6669 0
M  V30 2527 C 246.589 2.06317 2.94892 0
M  V30 2528 C 246.197 3.55745 2.72305 0
M  V30 2529 C 247.941 2.0295 3.72843 0
M  V30 2530 C 245.848 4.36205 3.99348 0
M  V30 2531 H 244.778 0.437782 0.613892 0
M  V30 2532 H 247.429 1.54754 0.986075 0
M  V30 2533 H 245.811 1.6237 3.61182 0
M  V30 2534 H 246.985 4.07805 2.1455 0
M  V30 2535 H 245.3 3.6088 2.07737 0
M  V30 2536 H 247.897 2.60319 4.67053 0
M  V30 2537 H 248.24 1.0117 4.0382 0
M  V30 2538 H 248.773 2.4499 3.13408 0
M  V30 2539 H 245.512 5.38659 3.73533 0
M  V30 2540 H 245.032 3.8891 4.56628 0
M  V30 2541 H 246.711 4.47362 4.67415 0
M  V30 2542 N 246.843 -1.10192 1.12674 0
M  V30 2543 C 248.259 -1.34235 0.863317 0
M  V30 2544 C 248.459 -1.95062 -0.505277 0
M  V30 2545 O 247.515 -2.19192 -1.25345 0
M  V30 2546 C 248.828 -2.2616 1.98172 0
M  V30 2547 C 250.376 -2.3969 2.0129 0
M  V30 2548 C 250.851 -3.34946 3.1237 0
M  V30 2549 N 252.342 -3.42515 3.11829 0
M  V30 2550 C 253.077 -4.16199 3.94419 0
M  V30 2551 N 252.573 -4.92747 4.87004 0
M  V30 2552 N 254.366 -4.11843 3.82547 0
M  V30 2553 H 246.517 -0.690798 2.00853 0
M  V30 2554 H 248.78 -0.366774 0.874174 0
M  V30 2555 H 248.486 -1.8868 2.96804 0
M  V30 2556 H 248.36 -3.26488 1.88906 0
M  V30 2557 H 250.747 -2.76438 1.03276 0
M  V30 2558 H 250.828 -1.39169 2.14629 0
M  V30 2559 H 250.472 -2.98923 4.10619 0
M  V30 2560 H 250.402 -4.35353 2.96269 0
M  V30 2561 H 252.893 -2.87926 2.44759 0
M  V30 2562 H 253.206 -5.46376 5.46528 0
M  V30 2563 H 251.551 -4.91862 4.91016 0
M  V30 2564 H 254.742 -3.51136 3.0955 0
M  V30 2565 H 254.915 -4.69007 4.47142 0
M  V30 2566 N 248.321 -0.919034 -1.28029 0
M  V30 2567 C 249.737 -0.617972 -1.4715 0
M  V30 2568 C 249.937 0.835242 -1.83374 0
M  V30 2569 O 248.993 1.61388 -1.94191 0
M  V30 2570 C 250.306 -1.56041 -2.57044 0
M  V30 2571 C 251.854 -1.56769 -2.7091 0
M  V30 2572 C 252.329 -2.49688 -3.83953 0
M  V30 2573 N 253.82 -2.47845 -3.91314 0
M  V30 2574 C 254.555 -3.16437 -4.78179 0
M  V30 2575 N 254.051 -3.94376 -5.69596 0
M  V30 2576 N 255.844 -3.05498 -4.71834 0
M  V30 2577 H 247.995 -1.85866 -1.02798 0
M  V30 2578 H 250.258 -0.797506 -0.512531 0
M  V30 2579 H 249.964 -2.59671 -2.372 0
M  V30 2580 H 249.838 -1.29551 -3.54255 0
M  V30 2581 H 252.225 -0.538745 -2.90141 0
M  V30 2582 H 252.306 -1.87305 -1.74214 0
M  V30 2583 H 251.95 -3.52688 -3.65477 0
M  V30 2584 H 251.88 -2.16453 -4.80058 0
M  V30 2585 H 254.371 -1.91234 -3.25941 0
M  V30 2586 H 254.684 -4.43721 -6.32718 0
M  V30 2587 H 253.029 -3.98481 -5.69419 0
M  V30 2588 H 256.22 -2.44108 -3.99411 0
M  V30 2589 H 256.393 -3.59225 -5.39316 0
M  V30 2590 N 249.799 1.42003 -0.683588 0
M  V30 2591 C 251.048 2.00638 -0.206681 0
M  V30 2592 C 251.361 1.5472 1.19671 0
M  V30 2593 O 252.567 2.05833 1.77045 0
M  V30 2594 C 251.023 3.58487 -0.318632 0
M  V30 2595 C 250.631 4.1339 -1.72663 0
M  V30 2596 C 252.375 4.24384 0.0991141 0
M  V30 2597 C 250.282 5.63633 -1.79087 0
M  V30 2598 H 249.212 0.750408 -0.0735107 0
M  V30 2599 H 251.863 1.62624 -0.850048 0
M  V30 2600 H 250.245 3.94047 0.392781 0
M  V30 2601 H 251.419 3.89273 -2.46583 0
M  V30 2602 H 249.734 3.59976 -2.09299 0
M  V30 2603 H 252.331 5.34652 0.0713833 0
M  V30 2604 H 252.674 4.00505 1.13586 0
M  V30 2605 H 253.207 3.93816 -0.561599 0
M  V30 2606 H 249.946 5.92323 -2.80774 0
M  V30 2607 H 249.466 5.89714 -1.09535 0
M  V30 2608 H 251.145 6.28201 -1.5483 0
M  V30 2609 N 251.277 0.427512 1.51691 0
M  V30 2610 C 252.24 -0.377132 2.26076 0
M  V30 2611 C 253.24 -0.958089 1.29141 0
M  V30 2612 O 254.43 -0.83408 1.52934 0
M  V30 2613 C 251.562 -1.53262 3.04506 0
M  V30 2614 H 252.755 0.27464 2.9864 0
M  V30 2615 H 250.308 0.180445 1.55255 0
M  V30 2616 H 251.043 -2.22072 2.36335 0
M  V30 2617 H 250.828 -1.12232 3.75694 0
M  V30 2618 H 252.318 -2.10135 3.60878 0
M  V30 2619 N 252.755 -1.56801 0.158532 0
M  V30 2620 C 253.705 -2.13923 -0.788738 0
M  V30 2621 C 254.689 -1.07006 -1.2016 0
M  V30 2622 O 255.881 -1.33159 -1.1661 0
M  V30 2623 C 253.01 -2.77348 -2.02319 0
M  V30 2624 C 252.096 -3.91404 -1.6329 0
M  V30 2625 N 252.487 -4.9677 -0.951463 0
M  V30 2626 C 250.785 -4.02326 -1.92482 0
M  V30 2627 C 251.486 -5.76698 -0.761221 0
M  V30 2628 N 250.462 -5.27859 -1.29869 0
M  V30 2629 H 254.264 -2.92757 -0.258995 0
M  V30 2630 H 251.778 -1.62344 -0.0426055 0
M  V30 2631 H 253.775 -3.16639 -2.71192 0
M  V30 2632 H 252.435 -1.99991 -2.558 0
M  V30 2633 H 253.446 -5.14284 -0.610928 0
M  V30 2634 H 250.123 -3.36059 -2.47732 0
M  V30 2635 H 251.513 -6.71529 -0.223284 0
M  V30 2636 N 254.233 0.115231 -1.57178 0
M  V30 2637 C 255.479 0.82357 -1.85325 0
M  V30 2638 C 255.812 1.79349 -0.744814 0
M  V30 2639 O 255.087 1.92899 0.249024 0
M  V30 2640 C 255.37 1.57014 -3.24066 0
M  V30 2641 C 255.223 0.619565 -4.45513 0
M  V30 2642 C 256.542 2.52545 -3.60429 0
M  V30 2643 H 253.661 0.297948 -0.674089 0
M  V30 2644 H 256.303 0.0877138 -1.89797 0
M  V30 2645 H 254.453 2.19742 -3.20383 0
M  V30 2646 H 256.125 0.000837639 -4.613 0
M  V30 2647 H 254.368 -0.0686174 -4.33746 0
M  V30 2648 H 255.039 1.17866 -5.3927 0
M  V30 2649 H 257.515 1.9992 -3.64926 0
M  V30 2650 H 256.391 3.01811 -4.58477 0
M  V30 2651 H 256.652 3.35383 -2.88047 0
M  V30 2652 N 255.711 1.52812 0.385517 0
M  V30 2653 C 256.674 1.77188 1.45386 0
M  V30 2654 C 257.674 0.641953 1.4743 0
M  V30 2655 O 258.864 0.910033 1.4854 0
M  V30 2656 C 255.996 1.87582 2.8465 0
M  V30 2657 H 257.189 2.72583 1.25054 0
M  V30 2658 H 254.742 1.43586 0.617467 0
M  V30 2659 H 255.477 0.941849 3.10322 0
M  V30 2660 H 255.262 2.69748 2.84567 0
M  V30 2661 H 256.752 2.08102 3.62054 0
M  V30 2662 N 257.189 -0.644168 1.43834 0
M  V30 2663 C 258.436 -1.40395 1.4593 0
M  V30 2664 C 258.764 -1.94305 0.0869658 0
M  V30 2665 O 258.019 -1.73288 -0.909378 0
M  V30 2666 C 258.318 -2.59615 2.45631 0
M  V30 2667 C 257.984 -2.2407 3.91284 0
M  V30 2668 C 256.646 -2.14089 4.30952 0
M  V30 2669 C 258.998 -1.95775 4.83034 0
M  V30 2670 C 256.326 -1.73981 5.6031 0
M  V30 2671 C 258.678 -1.57163 6.12766 0
M  V30 2672 C 257.342 -1.45713 6.51402 0
M  V30 2673 H 256.612 -0.513741 0.533995 0
M  V30 2674 H 259.259 -0.731724 1.76969 0
M  V30 2675 H 257.564 -3.32011 2.08028 0
M  V30 2676 H 259.261 -3.17834 2.44504 0
M  V30 2677 H 255.851 -2.32753 3.59895 0
M  V30 2678 H 260.035 -2.02403 4.53152 0
M  V30 2679 H 255.291 -1.63709 5.89075 0
M  V30 2680 H 259.465 -1.34303 6.83327 0
M  V30 2681 H 257.092 -1.14406 7.51542 0
M  V30 2682 N 258.668 -1.30515 -0.883378 0
M  V30 2683 C 260.084 -1.08881 -1.16692 0
M  V30 2684 C 260.284 0.149409 -2.00945 0
M  V30 2685 O 259.34 0.84257 -2.38027 0
M  V30 2686 C 260.653 -2.35319 -1.87204 0
M  V30 2687 C 262.201 -2.40799 -1.99962 0
M  V30 2688 C 262.676 -3.67083 -2.73887 0
M  V30 2689 N 264.167 -3.679 -2.81432 0
M  V30 2690 C 264.902 -4.62303 -3.3921 0
M  V30 2691 N 264.398 -5.67052 -3.98025 0
M  V30 2692 N 266.191 -4.49845 -3.3704 0
M  V30 2693 H 258.342 -2.09951 -0.321633 0
M  V30 2694 H 260.605 -0.92556 -0.205043 0
M  V30 2695 H 260.311 -3.25689 -1.3274 0
M  V30 2696 H 260.185 -2.44089 -2.87577 0
M  V30 2697 H 262.572 -1.50907 -2.53597 0
M  V30 2698 H 262.653 -2.36003 -0.98673 0
M  V30 2699 H 262.297 -4.57334 -2.20925 0
M  V30 2700 H 262.227 -3.69141 -3.75556 0
M  V30 2701 H 264.718 -2.92171 -2.39676 0
M  V30 2702 H 265.031 -6.35184 -4.40183 0
M  V30 2703 H 263.376 -5.70842 -3.96439 0
M  V30 2704 H 266.567 -3.67194 -2.90321 0
M  V30 2705 H 266.74 -5.23597 -3.81772 0
M  V30 2706 N 260.146 1.09593 -1.13257 0
M  V30 2707 C 261.109 2.14359 -0.811358 0
M  V30 2708 C 262.109 1.59808 0.178377 0
M  V30 2709 O 263.299 1.74132 -0.0484911 0
M  V30 2710 C 260.431 3.40269 -0.207276 0
M  V30 2711 H 261.624 2.44284 -1.73969 0
M  V30 2712 H 259.177 1.25102 -0.936973 0
M  V30 2713 H 259.912 3.15969 0.73036 0
M  V30 2714 H 259.697 3.81154 -0.919992 0
M  V30 2715 H 261.187 4.176 0.000667944 0
M  V30 2716 N 261.624 0.925811 1.2754 0
M  V30 2717 C 262.587 0.428129 2.25166 0
M  V30 2718 C 263.587 -0.452261 1.54309 0
M  V30 2719 O 264.777 -0.253608 1.72344 0
M  V30 2720 C 261.909 -0.384749 3.38722 0
M  V30 2721 H 263.102 1.29066 2.70706 0
M  V30 2722 H 260.655 0.706323 1.3943 0
M  V30 2723 H 261.39 -1.26618 2.98561 0
M  V30 2724 H 261.175 0.246454 3.91325 0
M  V30 2725 H 262.665 -0.723389 4.11287 0
M  V30 2726 N 263.102 -1.41638 0.69111 0
M  V30 2727 C 264.034 -2.29194 -0.0161523 0
M  V30 2728 C 265.047 -1.44549 -0.748955 0
M  V30 2729 O 266.236 -1.681 -0.6004 0
M  V30 2730 C 263.336 -3.22325 -1.0469 0
M  V30 2731 C 262.509 -4.35706 -0.384621 0
M  V30 2732 C 261.568 -5.09443 -1.31737 0
M  V30 2733 O 260.594 -5.63386 -0.811451 0
M  V30 2734 N 261.796 -5.16487 -2.64993 0
M  V30 2735 H 264.561 -2.90534 0.735523 0
M  V30 2736 H 262.122 -1.52742 0.53679 0
M  V30 2737 H 264.114 -3.68522 -1.67252 0
M  V30 2738 H 262.684 -2.62323 -1.70015 0
M  V30 2739 H 261.904 -3.91948 0.420804 0
M  V30 2740 H 263.192 -5.08743 0.0760765 0
M  V30 2741 H 262.59 -4.741 -3.08619 0
M  V30 2742 H 261.147 -5.66276 -3.22761 0
M  V30 2743 N 264.58 -0.43555 -1.51462 0
M  V30 2744 C 265.828 0.131254 -2.01673 0
M  V30 2745 C 266.149 1.43368 -1.32177 0
M  V30 2746 O 265.419 1.90524 -0.455769 0
M  V30 2747 H 263.999 0.0514954 -0.745223 0
M  V30 2748 H 266.661 -0.577847 -1.86137 0
M  V30 2749 H 265.757 0.308446 -3.10572 0
M  V30 2750 N 266.058 1.56714 -0.166846 0
M  V30 2751 C 267.474 1.58473 0.189372 0
M  V30 2752 C 267.674 1.18201 1.63189 0
M  V30 2753 O 266.73 0.891528 2.36237 0
M  V30 2754 C 268.043 3.00573 -0.0873872 0
M  V30 2755 C 269.591 3.1299 -0.0252443 0
M  V30 2756 C 270.066 4.57174 -0.274934 0
M  V30 2757 N 271.557 4.62665 -0.222553 0
M  V30 2758 C 272.292 5.72072 -0.389985 0
M  V30 2759 N 271.788 6.90054 -0.616229 0
M  V30 2760 N 273.581 5.61153 -0.326202 0
M  V30 2761 H 265.732 1.8118 -1.10849 0
M  V30 2762 H 267.995 0.839525 -0.440342 0
M  V30 2763 H 267.701 3.34497 -1.0865 0
M  V30 2764 H 267.575 3.72019 0.623037 0
M  V30 2765 H 269.962 2.78895 0.96444 0
M  V30 2766 H 270.043 2.43989 -0.768309 0
M  V30 2767 H 269.687 4.91976 -1.26181 0
M  V30 2768 H 269.617 5.24328 0.48869 0
M  V30 2769 H 272.108 3.77863 -0.0531512 0
M  V30 2770 H 272.421 7.69311 -0.733559 0
M  V30 2771 H 270.766 6.91927 -0.652791 0
M  V30 2772 H 273.957 4.67859 -0.150072 0
M  V30 2773 H 274.13 6.46364 -0.460116 0
M  V30 2774 N 267.536 -0.106894 1.57237 0
M  V30 2775 C 268.952 -0.46078 1.52804 0
M  V30 2776 C 269.152 -1.81184 0.881746 0
M  V30 2777 O 268.208 -2.48102 0.469224 0
M  V30 2778 C 269.521 -0.434127 2.9755 0
M  V30 2779 C 271.069 -0.516821 3.08704 0
M  V30 2780 C 271.544 -0.520436 4.55033 0
M  V30 2781 N 273.035 -0.58153 4.59535 0
M  V30 2782 C 273.77 -0.605973 5.70189 0
M  V30 2783 N 273.266 -0.587331 6.90306 0
M  V30 2784 N 275.059 -0.649895 5.5833 0
M  V30 2785 H 267.21 0.778203 1.9763 0
M  V30 2786 H 269.473 0.288403 0.903066 0
M  V30 2787 H 269.179 0.491197 3.48253 0
M  V30 2788 H 269.053 -1.25748 3.55622 0
M  V30 2789 H 271.44 -1.43256 2.57995 0
M  V30 2790 H 271.521 0.334449 2.53604 0
M  V30 2791 H 271.165 0.391313 5.0639 0
M  V30 2792 H 271.095 -1.38876 5.07958 0
M  V30 2793 H 273.586 -0.60161 3.73081 0
M  V30 2794 H 273.899 -0.60894 7.70397 0
M  V30 2795 H 272.244 -0.554564 6.92784 0
M  V30 2796 H 275.435 -0.661907 4.63397 0
M  V30 2797 H 275.608 -0.665476 6.44574 0
M  V30 2798 N 269.014 -1.53014 -0.377408 0
M  V30 2799 C 269.961 -1.78616 -1.46168 0
M  V30 2800 C 270.931 -0.629917 -1.53692 0
M  V30 2801 O 272.116 -0.870861 -1.69766 0
M  V30 2802 C 269.256 -1.97123 -2.8326 0
M  V30 2803 C 268.369 -3.24831 -2.84796 0
M  V30 2804 C 267.504 -3.33591 -4.13389 0
M  V30 2805 C 266.543 -4.55377 -4.09021 0
M  V30 2806 N 265.68 -4.61355 -5.29241 0
M  V30 2807 H 270.52 -2.71142 -1.23637 0
M  V30 2808 H 268.057 -1.34326 -0.599577 0
M  V30 2809 H 270.015 -2.05839 -3.62886 0
M  V30 2810 H 268.645 -1.07946 -3.04216 0
M  V30 2811 H 267.697 -3.25128 -1.97474 0
M  V30 2812 H 269.009 -4.14523 -2.77439 0
M  V30 2813 H 268.163 -3.41554 -5.01424 0
M  V30 2814 H 266.902 -2.41894 -4.23484 0
M  V30 2815 H 265.907 -4.47527 -3.19373 0
M  V30 2816 H 267.132 -5.48402 -4.00539 0
M  V30 2817 H 265.078 -3.72554 -5.39944 0
M  V30 2818 H 264.995 -5.44935 -5.24006 0
M  V30 2819 H 266.263 -4.73586 -6.19141 0
M  V30 2820 N 270.492 0.636531 -1.44174 0
M  V30 2821 C 271.424 1.7618 -1.46606 0
M  V30 2822 C 272.437 1.58768 -0.360091 0
M  V30 2823 O 273.626 1.67181 -0.625518 0
M  V30 2824 C 270.726 3.13833 -1.27915 0
M  V30 2825 C 269.899 3.57753 -2.51658 0
M  V30 2826 C 268.958 4.74265 -2.27945 0
M  V30 2827 O 267.984 4.82852 -3.01401 0
M  V30 2828 N 269.186 5.65604 -1.30662 0
M  V30 2829 H 271.951 1.74567 -2.43612 0
M  V30 2830 H 269.512 0.820924 -1.39544 0
M  V30 2831 H 271.504 3.8949 -1.09907 0
M  V30 2832 H 270.074 3.10121 -0.39293 0
M  V30 2833 H 269.294 2.72362 -2.84978 0
M  V30 2834 H 270.582 3.83847 -3.33974 0
M  V30 2835 H 269.98 5.61354 -0.699844 0
M  V30 2836 H 268.537 6.40913 -1.18634 0
M  V30 2837 N 271.97 1.30982 0.876444 0
M  V30 2838 C 272.9 1.20668 1.99903 0
M  V30 2839 C 273.881 0.095354 1.69833 0
M  V30 2840 O 275.066 0.27885 1.92188 0
M  V30 2841 C 272.196 0.90655 3.3526 0
M  V30 2842 C 271.15 1.97675 3.79617 0
M  V30 2843 C 270.476 1.52943 5.1236 0
M  V30 2844 C 271.776 3.389 3.97422 0
M  V30 2845 H 273.47 2.14586 2.0879 0
M  V30 2846 H 271.016 1.03308 1.00317 0
M  V30 2847 H 272.969 0.821025 4.13324 0
M  V30 2848 H 271.693 -0.0682969 3.26529 0
M  V30 2849 H 270.352 2.05205 3.03787 0
M  V30 2850 H 270 0.54262 5.00065 0
M  V30 2851 H 269.7 2.24532 5.43009 0
M  V30 2852 H 271.224 1.45786 5.92941 0
M  V30 2853 H 272.638 3.34081 4.659 0
M  V30 2854 H 271.035 4.0865 4.3946 0
M  V30 2855 H 272.105 3.80163 3.01006 0
M  V30 2856 N 273.449 -1.08991 1.13837 0
M  V30 2857 C 274.689 -1.82867 0.913183 0
M  V30 2858 C 275.053 -1.83936 -0.550604 0
M  V30 2859 O 276.254 -2.53515 -0.893515 0
M  V30 2860 C 274.525 -3.24843 1.49036 0
M  V30 2861 S 276.084 -4.15669 1.40588 0
M  V30 2862 H 272.902 -0.630278 0.329046 0
M  V30 2863 H 275.504 -1.31049 1.45073 0
M  V30 2864 H 274.208 -3.21644 2.54899 0
M  V30 2865 H 273.739 -3.81734 0.950947 0
M  V30 2866 H 275.754 -4.94686 0.387353 0
M  V30 2867 N 274.927 -0.932562 -1.27047 0
M  V30 2868 C 276.152 -0.591474 -1.98787 0
M  V30 2869 C 276.577 0.824601 -1.69062 0
M  V30 2870 O 275.935 1.5541 -0.933677 0
M  V30 2871 C 275.983 -0.829808 -3.50922 0
M  V30 2872 O 275.087 0.102266 -4.12273 0
M  V30 2873 H 274.428 -0.227185 -0.623926 0
M  V30 2874 H 276.958 -1.25314 -1.61733 0
M  V30 2875 H 276.968 -0.747292 -4.01098 0
M  V30 2876 H 275.643 -1.86201 -3.7189 0
M  V30 2877 H 274.22 -0.0305761 -3.72887 0
M  V30 2878 N 276.405 1.4127 -0.698611 0
M  V30 2879 C 277.651 2.01478 -0.231207 0
M  V30 2880 C 277.984 1.55215 1.16713 0
M  V30 2881 O 277.259 0.764672 1.78838 0
M  V30 2882 C 277.542 3.58912 -0.292281 0
M  V30 2883 C 277.395 4.15293 -1.72778 0
M  V30 2884 C 278.714 4.38736 0.346194 0
M  V30 2885 H 275.833 0.732025 -0.0854878 0
M  V30 2886 H 278.475 1.67977 -0.887906 0
M  V30 2887 H 276.625 3.87582 0.26686 0
M  V30 2888 H 278.297 3.97486 -2.341 0
M  V30 2889 H 276.54 3.7022 -2.26096 0
M  V30 2890 H 277.211 5.24452 -1.72202 0
M  V30 2891 H 279.687 4.15897 -0.130035 0
M  V30 2892 H 278.563 5.48221 0.272932 0
M  V30 2893 H 278.824 4.18425 1.42734 0
M  V30 2894 N 277.883 0.443576 1.51229 0
M  V30 2895 C 279.16 -0.181038 1.9476 0
M  V30 2896 C 279.54 -1.59523 1.38259 0
M  V30 2897 O 278.888 -2.2122 0.572198 0
M  V30 2898 C 279.098 -0.152422 3.48667 0
M  V30 2899 C 280.446 -0.354923 4.23114 0
M  V30 2900 O 281.47 -0.230257 3.55455 0
M  V30 2901 O 280.329 -0.603674 5.43156 0
M  V30 2902 H 277.423 -0.1266 0.817252 0
M  V30 2903 H 279.969 0.502004 1.62105 0
M  V30 2904 H 278.741 0.836022 3.82265 0
M  V30 2905 H 278.364 -0.878107 3.87782 0
M  V30 2906 N 279.361 -1.56624 0.175154 0
M  V30 2907 C 280.308 -2.18149 -0.753634 0
M  V30 2908 C 281.278 -1.12265 -1.22417 0
M  V30 2909 O 282.463 -1.40432 -1.29165 0
M  V30 2910 C 279.603 -2.82933 -1.97592 0
M  V30 2911 C 278.716 -4.03289 -1.5486 0
M  V30 2912 C 277.851 -4.55988 -2.72485 0
M  V30 2913 C 276.89 -5.68746 -2.26262 0
M  V30 2914 N 276.027 -6.15938 -3.36994 0
M  V30 2915 H 280.867 -2.9717 -0.222195 0
M  V30 2916 H 278.404 -1.46774 -0.0979422 0
M  V30 2917 H 280.362 -3.18653 -2.69288 0
M  V30 2918 H 278.992 -2.06509 -2.481 0
M  V30 2919 H 278.044 -3.73364 -0.728246 0
M  V30 2920 H 279.356 -4.849 -1.16933 0
M  V30 2921 H 278.51 -4.9391 -3.52332 0
M  V30 2922 H 277.249 -3.73443 -3.13674 0
M  V30 2923 H 276.254 -5.30372 -1.44863 0
M  V30 2924 H 277.479 -6.53095 -1.86127 0
M  V30 2925 H 275.425 -5.36321 -3.77751 0
M  V30 2926 H 275.342 -6.92548 -3.03172 0
M  V30 2927 H 276.61 -6.58511 -4.17114 0
M  V30 2928 N 280.839 0.0985539 -1.57292 0
M  V30 2929 C 281.802 1.10402 -2.00858 0
M  V30 2930 C 282.802 1.33146 -0.901593 0
M  V30 2931 O 283.992 1.29318 -1.16716 0
M  V30 2932 C 281.124 2.45394 -2.36632 0
M  V30 2933 H 282.317 0.729099 -2.90902 0
M  V30 2934 H 279.87 0.343495 -1.52479 0
M  V30 2935 H 280.605 2.87769 -1.49531 0
M  V30 2936 H 280.39 2.30235 -3.17387 0
M  V30 2937 H 281.88 3.17718 -2.71007 0
M  V30 2938 N 282.317 1.53212 0.369288 0
M  V30 2939 C 283.265 1.80054 1.47253 0
M  V30 2940 C 284.259 0.669456 1.55611 0
M  V30 2941 O 285.465 0.852328 1.58541 0
M  V30 2942 H 281.84 0.570034 0.490475 0
M  V30 2943 H 283.811 2.72403 1.21817 0
M  V30 2944 C 282.56 2.00403 2.84137 0
M  V30 2945 H 281.883 2.86876 2.78464 0
M  V30 2946 H 283.323 2.23164 3.60519 0
M  V30 2947 C 281.782 0.782081 3.27697 0
M  V30 2948 O 282.312 -0.0310205 4.01688 0
M  V30 2949 N 280.518 0.606573 2.84199 0
M  V30 2950 H 280.065 1.26939 2.24152 0
M  V30 2951 H 280.023 -0.20962 3.137 0
M  V30 2952 N 283.795 -0.628877 1.44509 0
M  V30 2953 C 285.041 -1.39045 1.47629 0
M  V30 2954 C 285.374 -1.93892 0.109343 0
M  V30 2955 O 284.649 -1.7379 -0.87334 0
M  V30 2956 C 284.932 -2.55408 2.53848 0
M  V30 2957 C 284.785 -2.05896 3.99909 0
M  V30 2958 C 286.104 -3.5759 2.56549 0
M  V30 2959 H 283.223 -0.504232 0.537512 0
M  V30 2960 H 285.865 -0.710854 1.76201 0
M  V30 2961 H 284.015 -3.13384 2.29615 0
M  V30 2962 H 285.687 -1.52734 4.35282 0
M  V30 2963 H 283.93 -1.37061 4.11578 0
M  V30 2964 H 284.601 -2.89681 4.69882 0
M  V30 2965 H 287.077 -3.09419 2.78207 0
M  V30 2966 H 285.953 -4.36527 3.32769 0
M  V30 2967 H 286.214 -4.11808 1.60832 0
M  V30 2968 N 285.273 -1.31445 -0.869486 0
M  V30 2969 C 286.203 -1.21727 -1.99261 0
M  V30 2970 C 287.184 -0.104359 -1.6978 0
M  V30 2971 O 288.369 -0.289038 -1.92037 0
M  V30 2972 C 285.499 -0.924317 -3.34774 0
M  V30 2973 C 284.453 -1.99685 -3.78563 0
M  V30 2974 C 283.779 -1.55658 -5.11541 0
M  V30 2975 C 285.079 -3.41003 -3.95619 0
M  V30 2976 H 286.773 -2.1569 -2.07649 0
M  V30 2977 H 284.319 -1.03839 -0.997675 0
M  V30 2978 H 286.272 -0.842934 -4.12883 0
M  V30 2979 H 284.996 0.0509793 -3.2656 0
M  V30 2980 H 283.655 -2.06813 -3.02694 0
M  V30 2981 H 283.303 -0.569132 -4.9977 0
M  V30 2982 H 283.003 -2.27409 -5.41811 0
M  V30 2983 H 284.527 -1.48928 -5.92159 0
M  V30 2984 H 285.941 -3.36547 -4.64122 0
M  V30 2985 H 284.338 -4.10975 -4.37286 0
M  V30 2986 H 285.408 -3.81754 -2.98985 0
M  V30 2987 N 286.751 1.08385 -1.14413 0
M  V30 2988 C 287.661 2.18856 -0.844951 0
M  V30 2989 C 288.677 1.73121 0.174668 0
M  V30 2990 O 289.853 2.014 0.00312857 0
M  V30 2991 C 286.918 3.45155 -0.32696 0
M  V30 2992 C 285.979 4.05513 -1.40916 0
M  V30 2993 C 285.212 5.25784 -0.915793 0
M  V30 2994 O 285.435 5.69884 0.242651 0
M  V30 2995 O 284.369 5.77545 -1.69487 0
M  V30 2996 H 288.195 2.46919 -1.76818 0
M  V30 2997 H 285.78 1.17524 -0.922411 0
M  V30 2998 H 287.662 4.21377 -0.0440211 0
M  V30 2999 H 286.337 3.18668 0.568539 0
M  V30 3000 H 285.244 3.30879 -1.74556 0
M  V30 3001 H 286.577 4.3625 -2.27919 0
M  V30 3002 N 288.23 0.939286 1.26551 0
M  V30 3003 C 289.458 0.602536 1.97932 0
M  V30 3004 C 289.873 -0.82206 1.69964 0
M  V30 3005 O 289.23 -1.54789 0.966784 0
M  V30 3006 C 289.281 0.832946 3.51773 0
M  V30 3007 O 289.002 2.20151 3.78768 0
M  V30 3008 C 290.503 0.506483 4.40397 0
M  V30 3009 H 287.723 0.227248 0.631347 0
M  V30 3010 H 290.267 1.25948 1.61113 0
M  V30 3011 H 288.422 0.222644 3.8676 0
M  V30 3012 H 288.836 2.26013 4.73306 0
M  V30 3013 H 290.31 0.718333 5.47306 0
M  V30 3014 H 290.787 -0.558451 4.35635 0
M  V30 3015 H 291.393 1.09543 4.10951 0
M  V30 3016 N 289.708 -1.40897 0.706093 0
M  V30 3017 C 290.936 -2.05373 0.250887 0
M  V30 3018 C 291.351 -1.53172 -1.10381 0
M  V30 3019 O 290.708 -0.684305 -1.69185 0
M  V30 3020 C 290.759 -3.6088 0.211571 0
M  V30 3021 O 290.48 -4.11153 1.51276 0
M  V30 3022 C 291.981 -4.42517 -0.263346 0
M  V30 3023 H 289.201 -0.66115 0.114552 0
M  V30 3024 H 291.745 -1.80479 0.961635 0
M  V30 3025 H 289.9 -3.84777 -0.450073 0
M  V30 3026 H 290.314 -5.05279 1.40689 0
M  V30 3027 H 291.788 -5.51479 -0.239718 0
M  V30 3028 H 292.265 -4.19396 -1.30397 0
M  V30 3029 H 292.871 -4.23708 0.367677 0
M  V30 3030 N 291.186 -0.45159 -1.50991 0
M  V30 3031 C 292.602 -0.104647 -1.59257 0
M  V30 3032 C 292.802 1.38728 -1.4614 0
M  V30 3033 O 291.858 2.15866 -1.30989 0
M  V30 3034 C 293.171 -0.637468 -2.93865 0
M  V30 3035 C 294.719 -0.599166 -3.07212 0
M  V30 3036 C 295.194 -1.1092 -4.44366 0
M  V30 3037 N 296.685 -1.06778 -4.50725 0
M  V30 3038 C 297.42 -1.43314 -5.55201 0
M  V30 3039 N 296.916 -1.87204 -6.67028 0
M  V30 3040 N 298.709 -1.3504 -5.45638 0
M  V30 3041 H 290.86 -1.42214 -1.57762 0
M  V30 3042 H 293.123 -0.586921 -0.744465 0
M  V30 3043 H 292.829 -1.68187 -3.08879 0
M  V30 3044 H 292.703 -0.0702139 -3.77135 0
M  V30 3045 H 295.09 0.436277 -2.91857 0
M  V30 3046 H 295.171 -1.20299 -2.25747 0
M  V30 3047 H 294.815 -2.14318 -4.60467 0
M  V30 3048 H 294.745 -0.481773 -5.24392 0
M  V30 3049 H 297.236 -0.745643 -3.70471 0
M  V30 3050 H 297.549 -2.13282 -7.42786 0
M  V30 3051 H 295.894 -1.91142 -6.68199 0
M  V30 3052 H 299.085 -1.00607 -4.57161 0
M  V30 3053 H 299.258 -1.63841 -6.26945 0
M  V30 3054 N 292.664 1.56529 -0.183458 0
M  V30 3055 C 293.594 2.21549 0.737456 0
M  V30 3056 C 294.575 1.17489 1.23005 0
M  V30 3057 O 295.76 1.45959 1.281 0
M  V30 3058 C 292.89 2.86575 1.96194 0
M  V30 3059 C 291.844 3.96778 1.60473 0
M  V30 3060 C 291.17 4.48911 2.90487 0
M  V30 3061 C 292.47 5.15767 0.823497 0
M  V30 3062 H 294.164 2.98761 0.195453 0
M  V30 3063 H 291.71 1.43702 0.0925686 0
M  V30 3064 H 293.663 3.30739 2.61131 0
M  V30 3065 H 292.387 2.06749 2.52828 0
M  V30 3066 H 291.046 3.53286 0.978997 0
M  V30 3067 H 290.694 3.65862 3.45186 0
M  V30 3068 H 290.394 5.23265 2.67335 0
M  V30 3069 H 291.918 4.95771 3.56432 0
M  V30 3070 H 293.332 5.56549 1.37571 0
M  V30 3071 H 291.729 5.96114 0.690551 0
M  V30 3072 H 292.799 4.84574 -0.177782 0
M  V30 3073 N 294.142 -0.090211 1.57342 0
M  V30 3074 C 295.388 -0.788838 1.8748 0
M  V30 3075 C 295.743 -1.76105 0.7749 0
M  V30 3076 O 295.036 -1.90302 -0.222663 0
M  V30 3077 C 295.23 -1.55222 3.21933 0
M  V30 3078 C 295.059 -0.655441 4.44898 0
M  V30 3079 C 293.829 -0.299325 5.04413 0
M  V30 3080 C 296.027 0.0397458 5.14285 0
M  V30 3081 N 294.009 0.605108 6.10911 0
M  V30 3082 C 295.38 0.802061 6.1479 0
M  V30 3083 C 297.435 0.113154 4.97771 0
M  V30 3084 C 296.138 1.63093 7.00566 0
M  V30 3085 C 298.164 0.928942 5.84059 0
M  V30 3086 C 297.526 1.67936 6.84088 0
M  V30 3087 H 293.625 -0.26467 0.735849 0
M  V30 3088 H 296.209 -0.0511453 1.94633 0
M  V30 3089 H 294.38 -2.26076 3.15823 0
M  V30 3090 H 296.112 -2.19843 3.39781 0
M  V30 3091 H 292.867 -0.648079 4.69145 0
M  V30 3092 H 293.291 1.05002 6.68808 0
M  V30 3093 H 297.933 -0.452676 4.2037 0
M  V30 3094 H 295.651 2.20781 7.77355 0
M  V30 3095 H 299.237 0.988478 5.73341 0
M  V30 3096 H 298.117 2.30044 7.49699 0
M  V30 3097 N 295.62 -1.53406 -0.361157 0
M  V30 3098 C 297.036 -1.43277 -0.703124 0
M  V30 3099 C 297.236 -0.575384 -1.9311 0
M  V30 3100 O 296.292 -0.0595362 -2.5243 0
M  V30 3101 C 297.605 -2.8653 -0.9122 0
M  V30 3102 C 299.153 -2.96191 -1.01193 0
M  V30 3103 C 299.628 -4.40514 -1.25345 0
M  V30 3104 N 301.119 -4.43962 -1.32105 0
M  V30 3105 C 301.854 -5.52746 -1.5251 0
M  V30 3106 N 301.35 -6.71567 -1.70203 0
M  V30 3107 N 303.143 -5.40331 -1.54916 0
M  V30 3108 H 295.294 -2.07654 0.446475 0
M  V30 3109 H 297.557 -0.937944 0.137715 0
M  V30 3110 H 297.263 -3.51605 -0.0816414 0
M  V30 3111 H 297.137 -3.30441 -1.81903 0
M  V30 3112 H 299.524 -2.31266 -1.83303 0
M  V30 3113 H 299.605 -2.55667 -0.0823929 0
M  V30 3114 H 299.249 -5.06014 -0.437346 0
M  V30 3115 H 299.179 -4.78614 -2.19627 0
M  V30 3116 H 301.67 -3.58332 -1.20028 0
M  V30 3117 H 301.983 -7.50241 -1.85359 0
M  V30 3118 H 300.328 -6.74545 -1.67373 0
M  V30 3119 H 303.519 -4.46465 -1.40663 0
M  V30 3120 H 303.692 -6.25173 -1.70477 0
M  V30 3121 N 297.098 0.621204 -1.44841 0
M  V30 3122 C 298.008 1.7612 -1.5498 0
M  V30 3123 C 299.024 1.68477 -0.434927 0
M  V30 3124 O 300.2 1.89076 -0.693693 0
M  V30 3125 C 297.265 3.1254 -1.50065 0
M  V30 3126 C 296.326 3.31741 -2.72482 0
M  V30 3127 C 295.559 4.61653 -2.67792 0
M  V30 3128 O 295.782 5.431 -1.74352 0
M  V30 3129 O 294.716 4.83271 -3.58794 0
M  V30 3130 H 298.542 1.70518 -2.51311 0
M  V30 3131 H 296.127 0.783643 -1.27198 0
M  V30 3132 H 298.009 3.93844 -1.49882 0
M  V30 3133 H 296.684 3.18663 -0.568806 0
M  V30 3134 H 295.591 2.50077 -2.7823 0
M  V30 3135 H 296.924 3.30486 -3.64746 0
M  V30 3136 N 298.576 1.31904 0.862503 0
M  V30 3137 C 299.822 1.22197 1.61851 0
M  V30 3138 C 300.155 -0.217641 1.92977 0
M  V30 3139 O 299.43 -1.15264 1.56666 0
M  V30 3140 C 299.713 2.07378 2.94391 0
M  V30 3141 C 299.566 3.59678 2.70096 0
M  V30 3142 C 300.885 1.92891 3.95577 0
M  V30 3143 H 298.004 0.445255 0.587296 0
M  V30 3144 H 300.646 1.6177 0.99651 0
M  V30 3145 H 298.796 1.73758 3.47477 0
M  V30 3146 H 300.468 4.03472 2.23625 0
M  V30 3147 H 298.711 3.82735 2.04197 0
M  V30 3148 H 299.382 4.14595 3.64438 0
M  V30 3149 H 301.858 2.22327 3.51724 0
M  V30 3150 H 300.734 2.54781 4.86187 0
M  V30 3151 H 300.995 0.894315 4.3296 0
M  V30 3152 N 300.054 -1.07777 1.14986 0
M  V30 3153 C 301.3 -1.80557 0.923422 0
M  V30 3154 C 301.633 -1.86298 -0.548337 0
M  V30 3155 O 300.908 -1.34354 -1.40639 0
M  V30 3156 C 301.191 -3.25839 1.53299 0
M  V30 3157 C 301.044 -3.28269 3.07505 0
M  V30 3158 C 302.363 -4.22991 1.21518 0
M  V30 3159 H 299.482 -0.655493 0.336894 0
M  V30 3160 H 302.124 -1.26144 1.42083 0
M  V30 3161 H 300.274 -3.72306 1.10999 0
M  V30 3162 H 301.946 -2.90079 3.58681 0
M  V30 3163 H 300.189 -2.67355 3.4162 0
M  V30 3164 H 300.86 -4.30691 3.45266 0
M  V30 3165 H 303.336 -3.84894 1.581 0
M  V30 3166 H 302.212 -5.22945 1.66793 0
M  V30 3167 H 302.473 -4.41904 0.131505 0
M  V30 3168 N 301.532 -0.945985 -1.26051 0
M  V30 3169 C 302.76 -0.613025 -1.9761 0
M  V30 3170 C 303.175 0.813035 -1.70397 0
M  V30 3171 O 302.532 1.54274 -0.974979 0
M  V30 3172 C 302.583 -0.85159 -3.51326 0
M  V30 3173 O 302.304 -2.22157 -3.77595 0
M  V30 3174 C 303.805 -0.529831 -4.40122 0
M  V30 3175 H 301.025 -0.230593 -0.630133 0
M  V30 3176 H 303.569 -1.268 -1.60443 0
M  V30 3177 H 301.724 -0.243151 -3.86636 0
M  V30 3178 H 302.138 -2.2852 -4.721 0
M  V30 3179 H 303.612 -0.747348 -5.46917 0
M  V30 3180 H 304.089 0.535341 -4.35925 0
M  V30 3181 H 304.695 -1.11721 -4.10364 0
M  V30 3182 N 303.011 1.40521 -0.713556 0
M  V30 3183 C 303.921 2.34522 -0.0606667 0
M  V30 3184 C 304.937 1.57193 0.74607 0
M  V30 3185 O 306.113 1.89591 0.679493 0
M  V30 3186 C 303.178 3.36081 0.851491 0
M  V30 3187 C 302.239 4.29286 0.0349339 0
M  V30 3188 C 301.472 5.25994 0.903649 0
M  V30 3189 O 301.695 5.28616 2.14292 0
M  V30 3190 O 300.629 6.00918 0.343723 0
M  V30 3191 H 304.455 2.91968 -0.835972 0
M  V30 3192 H 302.04 1.41681 -0.47402 0
M  V30 3193 H 303.922 3.98369 1.37404 0
M  V30 3194 H 302.597 2.81052 1.60598 0
M  V30 3195 H 301.504 3.70289 -0.532633 0
M  V30 3196 H 302.837 4.87462 -0.681287 0
M  V30 3197 N 304.489 0.459591 1.5075 0
M  V30 3198 C 305.735 -0.0994966 2.02556 0
M  V30 3199 C 306.068 -1.40399 1.3417 0
M  V30 3200 O 305.343 -1.88892 0.463683 0
M  V30 3201 C 305.626 -0.295242 3.58888 0
M  V30 3202 C 305.479 1.02947 4.37861 0
M  V30 3203 C 306.798 -1.05502 4.27267 0
M  V30 3204 H 303.917 -0.034686 0.736183 0
M  V30 3205 H 306.559 0.602938 1.8018 0
M  V30 3206 H 304.709 -0.893563 3.78084 0
M  V30 3207 H 306.381 1.66348 4.30263 0
M  V30 3208 H 304.624 1.62885 4.02058 0
M  V30 3209 H 305.295 0.846281 5.45474 0
M  V30 3210 H 307.771 -0.547993 4.12476 0
M  V30 3211 H 306.647 -1.16077 5.36486 0
M  V30 3212 H 306.908 -2.08875 3.89645 0
M  V30 3213 N 305.967 -1.56429 0.191757 0
M  V30 3214 C 306.93 -2.17707 -0.716688 0
M  V30 3215 C 307.93 -1.13061 -1.14341 0
M  V30 3216 O 309.12 -1.38464 -1.05704 0
M  V30 3217 C 306.252 -2.77644 -1.97804 0
M  V30 3218 H 307.445 -2.99342 -0.1829 0
M  V30 3219 H 304.998 -1.56193 -0.0578566 0
M  V30 3220 H 305.733 -1.99799 -2.55443 0
M  V30 3221 H 305.518 -3.54246 -1.68083 0
M  V30 3222 H 307.008 -3.24708 -2.62592 0
M  V30 3223 N 307.445 0.0818655 -1.57387 0
M  V30 3224 C 308.861 0.436412 -1.53517 0
M  V30 3225 C 309.061 1.79758 -0.910459 0
M  V30 3226 O 308.117 2.47324 -0.508636 0
M  V30 3227 C 309.43 0.386734 -2.98203 0
M  V30 3228 C 310.978 0.467644 -3.09487 0
M  V30 3229 C 311.453 0.447978 -4.55804 0
M  V30 3230 N 312.944 0.508348 -4.60402 0
M  V30 3231 C 313.679 0.515184 -5.71081 0
M  V30 3232 N 313.175 0.477435 -6.91153 0
M  V30 3233 N 314.968 0.560988 -5.59294 0
M  V30 3234 H 307.119 -0.809546 -1.96367 0
M  V30 3235 H 309.382 -0.302733 -0.898363 0
M  V30 3236 H 309.088 -0.546539 -3.47427 0
M  V30 3237 H 308.962 1.20075 -3.57578 0
M  V30 3238 H 311.349 1.39134 -2.60242 0
M  V30 3239 H 311.43 -0.374753 -2.5304 0
M  V30 3240 H 311.074 -0.471826 -5.05704 0
M  V30 3241 H 311.004 1.30777 -5.10103 0
M  V30 3242 H 313.495 0.54218 -3.7399 0
M  V30 3243 H 313.808 0.486299 -7.71268 0
M  V30 3244 H 312.153 0.444278 -6.93579 0
M  V30 3245 H 315.344 0.5881 -4.64391 0
M  V30 3246 H 315.517 0.562846 -6.45551 0
M  V30 3247 N 308.923 1.53595 0.353017 0
M  V30 3248 C 310.2 1.61002 1.11075 0
M  V30 3249 C 310.58 0.425356 2.0677 0
M  V30 3250 O 309.928 -0.583267 2.2093 0
M  V30 3251 C 310.138 2.96631 1.83877 0
M  V30 3252 C 311.486 3.51653 2.37961 0
M  V30 3253 O 312.51 2.98743 1.93987 0
M  V30 3254 O 311.369 4.44177 3.18386 0
M  V30 3255 H 308.463 0.650825 0.510251 0
M  V30 3256 H 311.009 1.6594 0.35527 0
M  V30 3257 H 309.781 3.74293 1.14108 0
M  V30 3258 H 309.404 2.95242 2.66304 0
M  V30 3259 N 310.401 -0.613514 1.45168 0
M  V30 3260 C 311.631 -1.39743 1.52169 0
M  V30 3261 C 312.039 -1.88596 0.151086 0
M  V30 3262 O 311.382 -1.6251 -0.856521 0
M  V30 3263 C 311.444 -2.64035 2.43979 0
M  V30 3264 C 311.108 -2.36861 3.90827 0
M  V30 3265 C 312.105 -1.97591 4.80889 0
M  V30 3266 C 309.79 -2.49956 4.35692 0
M  V30 3267 C 311.784 -1.71768 6.1382 0
M  V30 3268 C 309.471 -2.23747 5.68665 0
M  V30 3269 C 310.469 -1.84714 6.57548 0
M  V30 3270 O 310.157 -1.58809 7.88058 0
M  V30 3271 H 309.889 -0.434382 0.517966 0
M  V30 3272 H 312.443 -0.75587 1.90986 0
M  V30 3273 H 310.673 -3.3089 2.00122 0
M  V30 3274 H 312.362 -3.26069 2.41731 0
M  V30 3275 H 313.128 -1.87015 4.47493 0
M  V30 3276 H 309.007 -2.79305 3.66756 0
M  V30 3277 H 312.551 -1.41227 6.83155 0
M  V30 3278 H 308.448 -2.33938 6.01617 0
M  V30 3279 H 309.216 -1.7291 8.00028 0
M  V30 3280 N 311.879 -1.3236 -0.855495 0
M  V30 3281 C 313.29 -1.2056 -1.42556 0
M  V30 3282 C 313.641 0.182209 -1.95352 0
M  V30 3283 O 312.766 1.08088 -1.87472 0
M  V30 3284 C 313.361 -2.1826 -2.59129 0
M  V30 3285 C 311.92 -2.10351 -3.12137 0
M  V30 3286 C 311.067 -2.06674 -1.84882 0
M  V30 3287 H 314.018 -1.442 -0.662727 0
M  V30 3288 H 314.039 -1.78064 -3.36264 0
M  V30 3289 H 313.551 -3.19257 -2.20673 0
M  V30 3290 H 311.652 -1.12599 -3.55179 0
M  V30 3291 H 311.765 -3.00135 -3.73438 0
M  V30 3292 H 310.129 -1.51901 -2.04446 0
M  V30 3293 H 310.912 -3.09451 -1.48643 0
M  V30 3294 N 313.357 1.07166 -1.15556 0
M  V30 3295 C 314.634 1.76546 -0.842069 0
M  V30 3296 C 315.014 2.00453 0.661939 0
M  V30 3297 O 314.362 1.62452 1.60691 0
M  V30 3298 C 314.572 3.07266 -1.65495 0
M  V30 3299 C 315.92 3.81578 -1.86234 0
M  V30 3300 O 316.944 3.17083 -1.62287 0
M  V30 3301 O 315.803 4.97419 -2.26355 0
M  V30 3302 H 312.897 0.766756 -0.309862 0
M  V30 3303 H 315.443 1.13514 -1.26145 0
M  V30 3304 H 314.215 2.85494 -2.67598 0
M  V30 3305 H 313.838 3.7803 -1.23203 0
M  V30 3306 N 314.835 0.952656 1.25548 0
M  V30 3307 C 316.081 0.607272 1.93494 0
M  V30 3308 C 316.414 -0.853245 1.74452 0
M  V30 3309 O 315.689 -1.61194 1.08843 0
M  V30 3310 C 315.972 0.96435 3.46947 0
M  V30 3311 C 315.825 2.48045 3.75225 0
M  V30 3312 C 317.144 0.487987 4.37386 0
M  V30 3313 H 314.263 0.222096 0.702739 0
M  V30 3314 H 316.905 1.18895 1.48203 0
M  V30 3315 H 315.055 0.469361 3.85654 0
M  V30 3316 H 316.727 3.04905 3.46166 0
M  V30 3317 H 314.97 2.919 3.209 0
M  V30 3318 H 315.641 2.6808 4.82532 0
M  V30 3319 H 318.117 0.912558 4.0597 0
M  V30 3320 H 316.993 0.766547 5.43521 0
M  V30 3321 H 317.254 -0.612063 4.37843 0
M  V30 3322 N 316.313 -1.40141 0.720998 0
M  V30 3323 C 317.729 -1.54632 0.395113 0
M  V30 3324 C 317.929 -1.69115 -1.09555 0
M  V30 3325 O 316.985 -1.68377 -1.88163 0
M  V30 3326 C 318.298 -2.77177 1.1659 0
M  V30 3327 C 319.846 -2.91 1.15274 0
M  V30 3328 C 320.321 -4.16465 1.90579 0
M  V30 3329 N 321.812 -4.23476 1.87675 0
M  V30 3330 C 322.547 -5.19475 2.42762 0
M  V30 3331 N 322.043 -6.21348 3.06428 0
M  V30 3332 N 323.836 -5.11592 2.32874 0
M  V30 3333 H 315.987 -1.28986 1.68749 0
M  V30 3334 H 318.25 -0.62412 0.713567 0
M  V30 3335 H 317.956 -2.72771 2.22011 0
M  V30 3336 H 317.83 -3.69442 0.76108 0
M  V30 3337 H 320.217 -2.94907 0.106702 0
M  V30 3338 H 320.298 -1.99838 1.59682 0
M  V30 3339 H 319.942 -4.1332 2.95176 0
M  V30 3340 H 319.872 -5.06646 1.43587 0
M  V30 3341 H 322.363 -3.50497 1.41281 0
M  V30 3342 H 322.676 -6.91034 3.45965 0
M  V30 3343 H 321.021 -6.21777 3.10514 0
M  V30 3344 H 324.212 -4.30936 1.82789 0
M  V30 3345 H 324.385 -5.86233 2.76106 0
M  V30 3346 N 317.792 -0.46758 -1.50504 0
M  V30 3347 C 318.722 0.318381 -2.31319 0
M  V30 3348 C 319.703 0.993564 -1.38066 0
M  V30 3349 O 320.888 0.991411 -1.66987 0
M  V30 3350 C 318.018 1.40275 -3.17711 0
M  V30 3351 C 316.972 0.849373 -4.19487 0
M  V30 3352 C 316.298 2.03177 -4.94594 0
M  V30 3353 C 317.598 -0.136942 -5.2212 0
M  V30 3354 H 319.292 -0.356106 -2.97275 0
M  V30 3355 H 316.838 -0.172703 -1.42961 0
M  V30 3356 H 318.791 1.96004 -3.73042 0
M  V30 3357 H 317.515 2.10596 -2.49634 0
M  V30 3358 H 316.174 0.314076 -3.65252 0
M  V30 3359 H 315.822 2.72187 -4.22993 0
M  V30 3360 H 315.522 1.66774 -5.63436 0
M  V30 3361 H 317.046 2.59403 -5.52759 0
M  V30 3362 H 318.46 0.331056 -5.72343 0
M  V30 3363 H 316.857 -0.41507 -5.98663 0
M  V30 3364 H 317.927 -1.06398 -4.73083 0
M  V30 3365 N 319.27 1.56325 -0.20005 0
M  V30 3366 C 320.495 2.02548 0.44597 0
M  V30 3367 C 320.92 1.07922 1.5406 0
M  V30 3368 O 320.278 0.0635775 1.81188 0
M  V30 3369 C 320.326 3.47175 0.974761 0
M  V30 3370 O 319.43 3.55671 2.08739 0
M  V30 3371 H 318.771 0.655862 0.103638 0
M  V30 3372 H 321.301 2.02201 -0.312381 0
M  V30 3373 H 321.311 3.87067 1.2901 0
M  V30 3374 H 319.986 4.15538 0.17347 0
M  V30 3375 H 318.563 3.27657 1.78032 0
M  V30 3376 N 320.748 -0.0735177 1.57428 0
M  V30 3377 C 321.698 -1.09442 2.00016 0
M  V30 3378 C 322.682 -1.34575 0.881947 0
M  V30 3379 O 323.874 -1.34905 1.14585 0
M  V30 3380 C 321.003 -2.40865 2.4462 0
M  V30 3381 C 320.089 -2.19014 3.63172 0
M  V30 3382 N 320.48 -1.67087 4.77405 0
M  V30 3383 C 318.778 -2.49494 3.69688 0
M  V30 3384 C 319.479 -1.6001 5.5926 0
M  V30 3385 N 318.455 -2.05999 5.03056 0
M  V30 3386 H 322.257 -0.686227 2.85776 0
M  V30 3387 H 319.771 -0.280617 1.59957 0
M  V30 3388 H 321.768 -3.14763 2.73368 0
M  V30 3389 H 320.428 -2.82403 1.60246 0
M  V30 3390 H 321.439 -1.35975 4.99731 0
M  V30 3391 H 318.116 -2.94409 2.96023 0
M  V30 3392 H 319.506 -1.2073 6.60964 0
M  V30 3393 N 322.226 -1.5378 -0.344866 0
M  V30 3394 C 323.159 -1.7649 -1.4466 0
M  V30 3395 C 324.137 -0.613954 -1.50563 0
M  V30 3396 O 325.321 -0.84896 -1.683 0
M  V30 3397 C 322.448 -1.86235 -2.82903 0
M  V30 3398 C 321.494 -3.08375 -2.94631 0
M  V30 3399 S 322.327 -4.67457 -2.61236 0
M  V30 3400 C 323.483 -4.80079 -4.0159 0
M  V30 3401 H 323.716 -2.69661 -1.2518 0
M  V30 3402 H 321.249 -1.44632 -0.540455 0
M  V30 3403 H 323.207 -1.92535 -3.62547 0
M  V30 3404 H 321.868 -0.940786 -2.9968 0
M  V30 3405 H 321.061 -3.11865 -3.95925 0
M  V30 3406 H 320.663 -3.00294 -2.22934 0
M  V30 3407 H 322.955 -4.61407 -4.96094 0
M  V30 3408 H 323.898 -5.82168 -4.03095 0
M  V30 3409 H 324.306 -4.08544 -3.89554 0
M  V30 3410 N 323.704 0.605807 -1.45491 0
M  V30 3411 C 324.934 1.38934 -1.52908 0
M  V30 3412 C 325.342 1.88513 -0.161086 0
M  V30 3413 O 324.685 1.62962 0.847891 0
M  V30 3414 C 324.747 2.62737 -2.45376 0
M  V30 3415 C 324.411 2.34785 -3.92078 0
M  V30 3416 C 325.408 1.95038 -4.8193 0
M  V30 3417 C 323.093 2.47642 -4.37011 0
M  V30 3418 C 325.087 1.68511 -6.14722 0
M  V30 3419 C 322.774 2.20728 -5.69844 0
M  V30 3420 C 323.772 1.81225 -6.58519 0
M  V30 3421 O 323.46 1.54627 -7.88889 0
M  V30 3422 H 323.192 0.431629 -0.520262 0
M  V30 3423 H 325.746 0.74573 -1.91384 0
M  V30 3424 H 323.976 3.29824 -2.01874 0
M  V30 3425 H 325.665 3.24783 -2.43456 0
M  V30 3426 H 326.431 1.84639 -4.48479 0
M  V30 3427 H 322.31 2.77356 -3.68232 0
M  V30 3428 H 325.854 1.37602 -6.83894 0
M  V30 3429 H 321.751 2.30744 -6.02849 0
M  V30 3430 H 322.519 1.68665 -8.00933 0
M  V30 3431 N 325.182 1.32811 0.848464 0
M  V30 3432 C 326.428 1.23907 1.60546 0
M  V30 3433 C 326.761 -0.197161 1.93197 0
M  V30 3434 O 326.036 -1.13596 1.5788 0
M  V30 3435 C 326.319 2.10489 2.92175 0
M  V30 3436 C 326.172 3.62522 2.66266 0
M  V30 3437 C 327.491 1.97075 3.93509 0
M  V30 3438 H 324.61 0.451459 0.58254 0
M  V30 3439 H 327.252 1.62818 0.979296 0
M  V30 3440 H 325.402 1.77434 3.45614 0
M  V30 3441 H 327.074 4.05821 2.19334 0
M  V30 3442 H 325.317 3.84879 2.00126 0
M  V30 3443 H 325.988 4.18437 3.6002 0
M  V30 3444 H 328.464 2.26045 3.49346 0
M  V30 3445 H 327.34 2.59923 4.83457 0
M  V30 3446 H 327.601 0.940186 4.31987 0
M  V30 3447 N 326.66 -1.06551 1.16123 0
M  V30 3448 C 327.937 -1.76097 0.85142 0
M  V30 3449 C 328.317 -2.00802 -0.6513 0
M  V30 3450 O 327.665 -1.63302 -1.59827 0
M  V30 3451 C 327.875 -3.06384 1.67122 0
M  V30 3452 C 329.223 -3.80585 1.88255 0
M  V30 3453 O 330.247 -3.16218 1.63966 0
M  V30 3454 O 329.106 -4.96212 2.2899 0
M  V30 3455 H 326.2 -0.765102 0.313923 0
M  V30 3456 H 328.746 -1.12844 1.26745 0
M  V30 3457 H 327.518 -2.84071 2.69108 0
M  V30 3458 H 327.141 -3.77371 1.25206 0
M  V30 3459 N 328.138 -0.959301 -1.25041 0
M  V30 3460 C 329.086 -0.474437 -2.2771 0
M  V30 3461 C 330.08 0.457697 -1.631 0
M  V30 3462 O 331.286 0.333912 -1.76876 0
M  V30 3463 H 327.661 -0.134936 -0.739795 0
M  V30 3464 H 329.632 -1.35251 -2.65988 0
M  V30 3465 C 328.381 0.227884 -3.46952 0
M  V30 3466 H 327.704 -0.480248 -3.96905 0
M  V30 3467 H 329.144 0.531091 -4.20661 0
M  V30 3468 C 327.603 1.452 -3.04004 0
M  V30 3469 O 328.133 2.54949 -3.10426 0
M  V30 3470 N 326.339 1.31502 -2.59144 0
M  V30 3471 H 325.886 0.422065 -2.54119 0
M  V30 3472 H 325.844 2.13521 -2.30773 0
M  V30 3473 N 329.616 1.39756 -0.72842 0
M  V30 3474 C 330.579 2.29012 -0.0927297 0
M  V30 3475 C 331.579 1.45992 0.674025 0
M  V30 3476 O 332.769 1.66749 0.50402 0
M  V30 3477 C 329.901 3.29396 0.878137 0
M  V30 3478 H 331.094 2.86729 -0.879011 0
M  V30 3479 H 328.647 1.48293 -0.493847 0
M  V30 3480 H 329.382 2.76722 1.69101 0
M  V30 3481 H 329.167 3.907 0.331051 0
M  V30 3482 H 330.657 3.96199 1.3197 0
M  V30 3483 N 331.094 0.475555 1.50254 0
M  V30 3484 C 332.057 -0.305016 2.27161 0
M  V30 3485 C 333.057 -0.916519 1.32123 0
M  V30 3486 O 334.247 -0.785003 1.5551 0
M  V30 3487 C 331.379 -1.43496 3.09227 0
M  V30 3488 H 332.572 0.369511 2.97615 0
M  V30 3489 H 330.125 0.229747 1.54602 0
M  V30 3490 H 330.86 -2.14441 2.43281 0
M  V30 3491 H 330.645 -1.00223 3.79075 0
M  V30 3492 H 332.135 -1.98548 3.67381 0
M  V30 3493 N 332.573 -1.56217 0.208337 0
M  V30 3494 C 333.506 -2.15633 -0.746842 0
M  V30 3495 C 334.484 -1.09685 -1.20034 0
M  V30 3496 O 335.668 -1.3787 -1.28547 0
M  V30 3497 C 332.795 -2.72594 -2.01023 0
M  V30 3498 C 331.841 -3.91251 -1.69779 0
M  V30 3499 S 332.674 -5.28962 -0.834209 0
M  V30 3500 C 333.83 -5.89353 -2.10745 0
M  V30 3501 H 334.063 -2.96315 -0.241789 0
M  V30 3502 H 331.596 -1.54398 -0.00682183 0
M  V30 3503 H 333.554 -3.06053 -2.73572 0
M  V30 3504 H 332.215 -1.91929 -2.48641 0
M  V30 3505 H 331.408 -4.29562 -2.63614 0
M  V30 3506 H 331.01 -3.58869 -1.05303 0
M  V30 3507 H 333.302 -6.04522 -3.05875 0
M  V30 3508 H 334.245 -6.85661 -1.76845 0
M  V30 3509 H 334.653 -5.1807 -2.24196 0
M  V30 3510 N 334.051 0.0651679 -1.57465 0
M  V30 3511 C 334.983 1.10359 -2.00882 0
M  V30 3512 C 335.996 1.346 -0.915788 0
M  V30 3513 O 337.185 1.32723 -1.1936 0
M  V30 3514 C 334.285 2.45312 -2.33828 0
M  V30 3515 C 333.458 2.40934 -3.65061 0
M  V30 3516 C 332.517 3.58047 -3.85602 0
M  V30 3517 O 331.543 3.39175 -4.57109 0
M  V30 3518 N 332.745 4.78637 -3.28462 0
M  V30 3519 H 335.51 0.733807 -2.90578 0
M  V30 3520 H 333.071 0.253719 -1.599 0
M  V30 3521 H 335.063 3.22314 -2.44737 0
M  V30 3522 H 333.633 2.74267 -1.49988 0
M  V30 3523 H 332.853 1.49273 -3.64844 0
M  V30 3524 H 334.141 2.35117 -4.51218 0
M  V30 3525 H 333.539 4.96872 -2.70433 0
M  V30 3526 H 332.096 5.53127 -3.44809 0
M  V30 3527 N 335.529 1.53961 0.336706 0
M  V30 3528 C 336.459 1.85417 1.41925 0
M  V30 3529 C 337.44 0.709856 1.5458 0
M  V30 3530 O 338.625 0.962396 1.68676 0
M  V30 3531 C 335.755 2.06985 2.78881 0
M  V30 3532 C 334.709 3.22813 2.81026 0
M  V30 3533 C 334.035 3.29727 4.20932 0
M  V30 3534 C 335.335 4.60767 2.45949 0
M  V30 3535 H 337.029 2.76079 1.15848 0
M  V30 3536 H 334.575 1.32839 0.555859 0
M  V30 3537 H 336.528 2.27575 3.54665 0
M  V30 3538 H 335.252 1.13061 3.06406 0
M  V30 3539 H 333.911 3.0209 2.07695 0
M  V30 3540 H 333.559 2.33385 4.45579 0
M  V30 3541 H 333.259 4.07566 4.23277 0
M  V30 3542 H 334.783 3.52536 4.98549 0
M  V30 3543 H 336.197 4.81325 3.11446 0
M  V30 3544 H 334.594 5.4106 2.59566 0
M  V30 3545 H 335.664 4.6391 1.41122 0
M  V30 3546 N 337.007 -0.598083 1.45811 0
M  V30 3547 C 338.256 -1.35295 1.49594 0
M  V30 3548 C 338.569 -1.95057 0.145679 0
M  V30 3549 O 339.775 -2.71431 0.0612099 0
M  V30 3550 C 338.231 -2.45124 2.63519 0
M  V30 3551 C 337.839 -1.91732 4.04899 0
M  V30 3552 C 339.583 -3.2205 2.76558 0
M  V30 3553 C 337.49 -2.991 5.1019 0
M  V30 3554 H 336.42 -0.508552 0.556679 0
M  V30 3555 H 339.071 -0.639977 1.71978 0
M  V30 3556 H 337.453 -3.19149 2.34435 0
M  V30 3557 H 338.627 -1.24352 4.43704 0
M  V30 3558 H 336.942 -1.27522 3.96393 0
M  V30 3559 H 339.539 -4.0215 3.52391 0
M  V30 3560 H 339.882 -3.73663 1.83526 0
M  V30 3561 H 340.415 -2.55127 3.05213 0
M  V30 3562 H 337.154 -2.52393 6.04961 0
M  V30 3563 H 336.674 -3.65017 4.75944 0
M  V30 3564 H 338.353 -3.63318 5.35359 0
M  V30 3565 N 338.485 -1.33259 -0.841409 0
M  V30 3566 C 339.901 -1.12538 -1.13169 0
M  V30 3567 C 340.101 0.0854037 -2.01319 0
M  V30 3568 O 339.157 0.766417 -2.40587 0
M  V30 3569 C 340.47 -2.41156 -1.79623 0
M  V30 3570 C 342.018 -2.47038 -1.922 0
M  V30 3571 C 342.493 -3.7561 -2.6207 0
M  V30 3572 N 343.984 -3.76667 -2.69585 0
M  V30 3573 C 344.719 -4.72861 -3.2433 0
M  V30 3574 N 344.215 -5.79428 -3.79783 0
M  V30 3575 N 346.008 -4.6034 -3.22558 0
M  V30 3576 H 338.159 -2.10868 -0.254676 0
M  V30 3577 H 340.422 -0.931615 -0.175493 0
M  V30 3578 H 340.128 -3.29747 -1.22311 0
M  V30 3579 H 340.002 -2.53114 -2.79666 0
M  V30 3580 H 342.389 -1.58898 -2.48667 0
M  V30 3581 H 342.47 -2.39022 -0.911148 0
M  V30 3582 H 342.114 -4.64131 -2.06263 0
M  V30 3583 H 342.044 -3.80902 -3.63622 0
M  V30 3584 H 344.535 -2.99648 -2.30259 0
M  V30 3585 H 344.848 -6.48867 -4.19752 0
M  V30 3586 H 343.193 -5.83166 -3.78078 0
M  V30 3587 H 346.384 -3.76244 -2.78492 0
M  V30 3588 H 346.557 -5.35478 -3.64921 0
M  V30 3589 N 339.963 1.05934 -1.16686 0
M  V30 3590 C 340.926 2.11669 -0.879144 0
M  V30 3591 C 341.926 1.60294 0.127445 0
M  V30 3592 O 343.116 1.7389 -0.103865 0
M  V30 3593 C 340.248 3.39438 -0.315425 0
M  V30 3594 H 341.441 2.38626 -1.81653 0
M  V30 3595 H 338.994 1.22058 -0.976299 0
M  V30 3596 H 339.729 3.18132 0.629468 0
M  V30 3597 H 339.514 3.78034 -1.04079 0
M  V30 3598 H 341.004 4.17391 -0.132189 0
M  V30 3599 N 341.441 0.965919 1.2453 0
M  V30 3600 C 342.852 0.665929 1.7442 0
M  V30 3601 C 343.203 -0.818407 1.78316 0
M  V30 3602 O 342.328 -1.64037 1.41141 0
M  V30 3603 C 342.923 1.20211 3.16757 0
M  V30 3604 C 341.482 0.952059 3.6416 0
M  V30 3605 C 340.629 1.33848 2.42858 0
M  V30 3606 H 343.58 1.14144 1.10258 0
M  V30 3607 H 343.601 0.567544 3.76244 0
M  V30 3608 H 343.113 2.28244 3.13889 0
M  V30 3609 H 341.214 -0.112821 3.72429 0
M  V30 3610 H 341.327 1.59645 4.51719 0
M  V30 3611 H 339.691 0.756864 2.43195 0
M  V30 3612 H 340.474 2.42827 2.42673 0
M  V30 3613 N 342.919 -1.39368 0.735821 0
M  V30 3614 C 343.882 -2.2896 0.104874 0
M  V30 3615 C 344.882 -1.46347 -0.666274 0
M  V30 3616 O 346.072 -1.67014 -0.49517 0
M  V30 3617 C 343.204 -3.29857 -0.860656 0
M  V30 3618 H 344.397 -2.86259 0.894205 0
M  V30 3619 H 341.95 -1.48029 0.501704 0
M  V30 3620 H 342.685 -2.77615 -1.67631 0
M  V30 3621 H 342.47 -3.9087 -0.310327 0
M  V30 3622 H 343.96 -3.96893 -1.29867 0
M  V30 3623 N 344.397 -0.483516 -1.5 0
M  V30 3624 C 345.329 0.340634 -2.26655 0
M  V30 3625 C 346.342 0.946152 -1.32483 0
M  V30 3626 O 347.531 0.832453 -1.579 0
M  V30 3627 C 344.631 1.4929 -3.04246 0
M  V30 3628 C 343.804 0.997903 -4.25865 0
M  V30 3629 C 342.863 2.02569 -4.85646 0
M  V30 3630 O 341.889 1.60128 -5.46212 0
M  V30 3631 N 343.091 3.3548 -4.73744 0
M  V30 3632 H 345.856 -0.316577 -2.98023 0
M  V30 3633 H 343.417 -0.315024 -1.58806 0
M  V30 3634 H 345.409 2.17766 -3.41116 0
M  V30 3635 H 343.979 2.05458 -2.35597 0
M  V30 3636 H 343.199 0.138617 -3.93956 0
M  V30 3637 H 344.487 0.645305 -5.04691 0
M  V30 3638 H 343.885 3.72661 -4.25605 0
M  V30 3639 H 342.442 3.99718 -5.14848 0
M  V30 3640 N 345.875 1.56104 -0.216619 0
M  V30 3641 C 347.122 1.98172 0.416416 0
M  V30 3642 C 347.45 1.10413 1.60122 0
M  V30 3643 O 346.705 0.147967 1.9514 0
M  V30 3644 C 347.004 3.45923 0.898464 0
M  V30 3645 C 346.67 4.50559 -0.175288 0
M  V30 3646 C 345.332 4.78897 -0.470271 0
M  V30 3647 C 347.684 5.1334 -0.901728 0
M  V30 3648 C 345.012 5.67299 -1.4963 0
M  V30 3649 C 347.364 6.02853 -1.91705 0
M  V30 3650 C 346.028 6.29537 -2.21901 0
M  V30 3651 H 345.298 0.725164 0.152377 0
M  V30 3652 H 347.945 1.88839 -0.318103 0
M  V30 3653 H 346.25 3.52434 1.71165 0
M  V30 3654 H 347.947 3.75841 1.39803 0
M  V30 3655 H 344.537 4.28551 0.0647806 0
M  V30 3656 H 348.721 4.91521 -0.687072 0
M  V30 3657 H 343.977 5.86239 -1.73592 0
M  V30 3658 H 348.151 6.50552 -2.48505 0
M  V30 3659 H 345.778 6.97835 -3.01548 0
M  V30 3660 N 347.353 -0.0568162 1.57498 0
M  V30 3661 C 348.63 -0.786954 1.79071 0
M  V30 3662 C 349.01 -1.95028 0.80792 0
M  V30 3663 O 348.358 -2.27968 -0.155858 0
M  V30 3664 C 348.568 -1.24594 3.26002 0
M  V30 3665 C 349.916 -1.67323 3.90241 0
M  V30 3666 O 350.94 -1.34124 3.29984 0
M  V30 3667 O 349.799 -2.28842 4.9628 0
M  V30 3668 H 346.893 -0.378262 0.735423 0
M  V30 3669 H 349.439 -0.035734 1.69662 0
M  V30 3670 H 348.211 -0.41423 3.89101 0
M  V30 3671 H 347.834 -2.05803 3.40192 0
M  V30 3672 N 348.832 -1.54138 -0.328536 0
M  V30 3673 C 350.078 -1.7236 -1.06865 0
M  V30 3674 C 350.411 -0.493231 -1.87832 0
M  V30 3675 O 349.686 0.5098 -1.877 0
M  V30 3676 C 349.969 -2.99621 -1.99747 0
M  V30 3677 C 349.822 -4.32899 -1.22143 0
M  V30 3678 C 351.141 -3.22615 -2.99345 0
M  V30 3679 H 348.26 -0.627151 -0.387105 0
M  V30 3680 H 350.902 -1.86827 -0.345767 0
M  V30 3681 H 349.052 -2.87418 -2.61387 0
M  V30 3682 H 350.724 -4.56978 -0.630017 0
M  V30 3683 H 348.967 -4.30628 -0.523628 0
M  V30 3684 H 349.638 -5.18154 -1.90318 0
M  V30 3685 H 352.114 -3.34248 -2.47826 0
M  V30 3686 H 350.99 -4.13027 -3.61524 0
M  V30 3687 H 351.251 -2.3961 -3.71536 0
M  V30 3688 N 350.31 0.590341 -1.46126 0
M  V30 3689 C 351.24 1.71032 -1.58966 0
M  V30 3690 C 352.221 1.64302 -0.440335 0
M  V30 3691 O 353.406 1.82436 -0.665634 0
M  V30 3692 C 350.536 3.09665 -1.57241 0
M  V30 3693 C 349.49 3.31221 -2.71066 0
M  V30 3694 C 348.816 4.70303 -2.54399 0
M  V30 3695 C 350.116 3.19796 -4.1295 0
M  V30 3696 H 351.81 1.60543 -2.52718 0
M  V30 3697 H 349.356 0.770933 -1.21625 0
M  V30 3698 H 351.309 3.87831 -1.64819 0
M  V30 3699 H 350.033 3.21036 -0.600289 0
M  V30 3700 H 348.692 2.55452 -2.62944 0
M  V30 3701 H 348.34 4.78429 -1.55288 0
M  V30 3702 H 348.04 4.85679 -3.30741 0
M  V30 3703 H 349.564 5.50647 -2.63857 0
M  V30 3704 H 350.978 3.87815 -4.22223 0
M  V30 3705 H 349.375 3.46696 -4.89818 0
M  V30 3706 H 350.445 2.16983 -4.33643 0
M  V30 3707 N 351.788 1.33704 0.83433 0
M  V30 3708 C 352.718 1.26967 1.95963 0
M  V30 3709 C 353.699 0.149337 1.69443 0
M  V30 3710 O 354.884 0.339852 1.91203 0
M  V30 3711 C 352.014 1.01275 3.32206 0
M  V30 3712 C 350.968 2.09652 3.73136 0
M  V30 3713 C 350.294 1.69166 5.07235 0
M  V30 3714 C 351.594 3.51372 3.86439 0
M  V30 3715 H 353.288 2.2112 2.01857 0
M  V30 3716 H 350.834 1.06447 0.969793 0
M  V30 3717 H 352.787 0.952106 4.10503 0
M  V30 3718 H 351.511 0.0356203 3.26581 0
M  V30 3719 H 350.17 2.14766 2.97104 0
M  V30 3720 H 349.818 0.701437 4.98085 0
M  V30 3721 H 349.518 2.41694 5.35591 0
M  V30 3722 H 351.042 1.64576 5.88003 0
M  V30 3723 H 352.456 3.48734 4.55036 0
M  V30 3724 H 350.853 4.22425 4.26236 0
M  V30 3725 H 351.923 3.89546 2.88759 0
M  V30 3726 N 353.266 -1.05314 1.17247 0
M  V30 3727 C 354.494 -1.81971 0.984593 0
M  V30 3728 C 354.909 -1.82929 -0.467166 0
M  V30 3729 O 354.266 -1.25564 -1.32438 0
M  V30 3730 C 354.317 -3.28143 1.51672 0
M  V30 3731 O 354.038 -3.27347 2.91163 0
M  V30 3732 C 355.539 -4.21493 1.37326 0
M  V30 3733 H 352.759 -0.573455 0.348411 0
M  V30 3734 H 355.303 -1.32808 1.55506 0
M  V30 3735 H 353.458 -3.74582 0.988302 0
M  V30 3736 H 353.872 -4.18824 3.15732 0
M  V30 3737 H 355.346 -5.22043 1.79375 0
M  V30 3738 H 355.823 -4.38031 0.320169 0
M  V30 3739 H 356.429 -3.80909 1.89178 0
M  V30 3740 N 354.744 -0.972509 -1.24016 0
M  V30 3741 C 355.992 -0.635776 -1.91839 0
M  V30 3742 C 356.313 0.832312 -1.76345 0
M  V30 3743 O 355.583 1.5946 -1.13795 0
M  V30 3744 H 354.163 -0.232157 -0.710009 0
M  V30 3745 H 356.825 -1.23462 -1.50809 0
M  V30 3746 H 355.921 -0.880545 -2.99421 0
M  V30 3747 N 356.222 1.38976 -0.743202 0
M  V30 3748 C 357.17 2.32394 -0.0978389 0
M  V30 3749 C 358.164 1.53486 0.716824 0
M  V30 3750 O 359.37 1.69092 0.617088 0
M  V30 3751 H 355.745 0.75189 -0.0128402 0
M  V30 3752 H 357.716 2.84441 -0.901981 0
M  V30 3753 C 356.465 3.38629 0.789036 0
M  V30 3754 H 355.788 3.99432 0.171559 0
M  V30 3755 H 357.228 4.06426 1.20807 0
M  V30 3756 C 355.687 2.76347 1.92702 0
M  V30 3757 O 356.217 2.64836 3.02034 0
M  V30 3758 N 354.423 2.34311 1.71891 0
M  V30 3759 H 353.97 2.43873 0.829675 0
M  V30 3760 H 353.928 1.9298 2.48205 0
M  V30 3761 N 357.7 0.491464 1.49741 0
M  V30 3762 C 358.633 -0.338464 2.25676 0
M  V30 3763 C 359.611 -0.978676 1.29849 0
M  V30 3764 O 360.795 -1.01064 1.59117 0
M  V30 3765 C 357.922 -1.47588 3.04853 0
M  V30 3766 C 356.968 -0.951 4.15762 0
M  V30 3767 S 357.801 0.150626 5.35288 0
M  V30 3768 C 358.957 -0.990178 6.18018 0
M  V30 3769 H 359.19 0.306068 2.9572 0
M  V30 3770 H 356.723 0.276622 1.51902 0
M  V30 3771 H 358.681 -2.12764 3.51058 0
M  V30 3772 H 357.342 -2.09199 2.34296 0
M  V30 3773 H 356.535 -1.80311 4.70642 0
M  V30 3774 H 356.137 -0.376607 3.72099 0
M  V30 3775 H 358.429 -1.89748 6.50386 0
M  V30 3776 H 359.372 -0.480205 7.0647 0
M  V30 3777 H 359.78 -1.25321 5.50413 0
M  V30 3778 N 359.178 -1.55987 0.224894 0
M  V30 3779 C 360.425 -1.9839 -0.4059 0
M  V30 3780 C 360.753 -1.11261 -1.59535 0
M  V30 3781 O 360.008 -0.158314 -1.95059 0
M  V30 3782 C 360.307 -3.46394 -0.880106 0
M  V30 3783 C 359.973 -4.5046 0.19918 0
M  V30 3784 C 358.635 -4.7864 0.495661 0
M  V30 3785 C 360.987 -5.12855 0.928939 0
M  V30 3786 C 358.315 -5.66497 1.52636 0
M  V30 3787 C 360.667 -6.01828 1.949 0
M  V30 3788 C 359.331 -6.28351 2.25236 0
M  V30 3789 H 358.601 -0.725961 -0.148529 0
M  V30 3790 H 361.248 -1.88668 0.328113 0
M  V30 3791 H 359.553 -3.53337 -1.69294 0
M  V30 3792 H 361.25 -3.76577 -1.37808 0
M  V30 3793 H 357.84 -4.28579 -0.0420526 0
M  V30 3794 H 362.024 -4.9115 0.713129 0
M  V30 3795 H 357.28 -5.8531 1.76698 0
M  V30 3796 H 361.454 -6.49225 2.51951 0
M  V30 3797 H 359.081 -6.96226 3.05244 0
M  V30 3798 N 360.656 0.0484629 -1.57525 0
M  V30 3799 C 361.904 0.741657 -1.88 0
M  V30 3800 C 362.225 1.76918 -0.820054 0
M  V30 3801 O 361.495 1.95335 0.148661 0
M  V30 3802 H 360.075 0.276908 -0.69378 0
M  V30 3803 H 362.737 0.019013 -1.94891 0
M  V30 3804 H 361.833 1.24336 -2.86264 0
M  V30 3805 N 362.134 1.5431 0.320358 0
M  V30 3806 C 363.411 1.63322 1.07635 0
M  V30 3807 C 363.791 0.46912 2.05821 0
M  V30 3808 O 363.139 -0.536274 2.22118 0
M  V30 3809 C 363.349 3.00465 1.77544 0
M  V30 3810 C 364.697 3.56621 2.30449 0
M  V30 3811 O 365.721 3.02791 1.87606 0
M  V30 3812 O 364.58 4.5083 3.08892 0
M  V30 3813 H 361.674 0.661502 0.496331 0
M  V30 3814 H 364.22 1.66656 0.319992 0
M  V30 3815 H 362.992 3.76629 1.06143 0
M  V30 3816 H 362.615 3.00824 2.59982 0
M  V30 3817 N 363.613 -0.582584 1.46437 0
M  V30 3818 C 364.862 -1.337 1.5102 0
M  V30 3819 C 365.175 -1.94891 0.166359 0
M  V30 3820 O 366.381 -2.71351 0.0899954 0
M  V30 3821 C 364.837 -2.42315 2.66104 0
M  V30 3822 C 364.445 -1.87427 4.06909 0
M  V30 3823 C 366.189 -3.19099 2.79958 0
M  V30 3824 C 364.096 -2.93672 5.13333 0
M  V30 3825 H 363.026 -0.502619 0.562041 0
M  V30 3826 H 365.677 -0.621701 1.72647 0
M  V30 3827 H 364.059 -3.16645 2.37807 0
M  V30 3828 H 365.233 -1.19639 4.44998 0
M  V30 3829 H 363.548 -1.2331 3.97723 0
M  V30 3830 H 366.145 -3.9839 3.56636 0
M  V30 3831 H 366.488 -3.71695 1.87479 0
M  V30 3832 H 367.021 -2.51875 3.07902 0
M  V30 3833 H 363.76 -2.45962 6.07604 0
M  V30 3834 H 363.28 -3.59948 4.79789 0
M  V30 3835 H 364.959 -3.5762 5.39182 0
M  V30 3836 N 365.091 -1.34144 -0.827227 0
M  V30 3837 C 366.021 -1.28005 -1.95287 0
M  V30 3838 C 367.002 -0.158321 -1.69362 0
M  V30 3839 O 368.187 -0.349987 -1.9102 0
M  V30 3840 C 365.317 -1.03036 -3.31664 0
M  V30 3841 C 364.271 -2.11628 -3.72019 0
M  V30 3842 C 363.597 -1.71854 -5.0633 0
M  V30 3843 C 364.897 -3.53417 -3.8457 0
M  V30 3844 H 366.591 -2.22187 -2.00682 0
M  V30 3845 H 364.137 -1.0696 -0.964135 0
M  V30 3846 H 366.09 -0.973863 -4.09993 0
M  V30 3847 H 364.814 -0.0529391 -3.26557 0
M  V30 3848 H 363.473 -2.16339 -2.95961 0
M  V30 3849 H 363.121 -0.727841 -4.97706 0
M  V30 3850 H 362.821 -2.44531 -5.34302 0
M  V30 3851 H 364.345 -1.67692 -5.87122 0
M  V30 3852 H 365.759 -3.51142 -4.5318 0
M  V30 3853 H 364.156 -4.24679 -4.2399 0
M  V30 3854 H 365.226 -3.91072 -2.86689 0
M  V30 3855 N 366.569 1.04691 -1.17803 0
M  V30 3856 C 367.794 1.81984 -0.994813 0
M  V30 3857 C 368.219 1.82586 0.452112 0
M  V30 3858 O 367.577 1.23854 1.324 0
M  V30 3859 C 367.625 3.2575 -1.54659 0
M  V30 3860 O 366.729 4.05267 -0.763728 0
M  V30 3861 H 366.07 0.562483 -0.352857 0
M  V30 3862 H 368.6 1.3189 -1.56417 0
M  V30 3863 H 368.61 3.76541 -1.57102 0
M  V30 3864 H 367.285 3.24627 -2.59981 0
M  V30 3865 H 365.862 3.63972 -0.811108 0
M  V30 3866 N 368.047 0.979072 1.23499 0
M  V30 3867 C 369.324 0.563674 1.87302 0
M  V30 3868 C 369.704 -0.959199 1.88049 0
M  V30 3869 O 369.052 -1.83535 1.36114 0
M  V30 3870 C 369.262 1.16822 3.28867 0
M  V30 3871 C 370.61 1.26014 4.0547 0
M  V30 3872 O 371.634 1.12158 3.38082 0
M  V30 3873 O 370.493 1.48044 5.26066 0
M  V30 3874 H 367.587 0.189602 0.804972 0
M  V30 3875 H 370.133 1.07407 1.31384 0
M  V30 3876 H 368.905 2.21049 3.22883 0
M  V30 3877 H 368.528 0.642564 3.92373 0
M  V30 3878 N 369.525 -1.3858 0.750561 0
M  V30 3879 C 370.435 -2.34278 0.122825 0
M  V30 3880 C 371.451 -1.59116 -0.704131 0
M  V30 3881 O 372.627 -1.91326 -0.628987 0
M  V30 3882 C 369.692 -3.38221 -0.762086 0
M  V30 3883 C 368.753 -4.29227 0.078896 0
M  V30 3884 C 367.986 -5.28205 -0.763874 0
M  V30 3885 O 368.209 -5.34112 -2.00201 0
M  V30 3886 O 367.143 -6.01618 -0.18428 0
M  V30 3887 H 370.969 -2.89649 0.913088 0
M  V30 3888 H 368.554 -1.40374 0.511417 0
M  V30 3889 H 370.436 -4.01872 -1.26793 0
M  V30 3890 H 369.111 -2.85211 -1.5309 0
M  V30 3891 H 368.018 -3.68747 0.630621 0
M  V30 3892 H 369.351 -4.85484 0.810289 0
M  V30 3893 N 371.003 -0.499398 -1.49478 0
M  V30 3894 C 371.966 0.268838 -2.27618 0
M  V30 3895 C 372.966 0.895383 -1.33565 0
M  V30 3896 O 374.156 0.760164 -1.56739 0
M  V30 3897 C 371.288 1.38559 -3.11471 0
M  V30 3898 H 372.481 -0.416812 -2.96989 0
M  V30 3899 H 370.034 -0.254313 -1.54217 0
M  V30 3900 H 370.769 2.10544 -2.46661 0
M  V30 3901 H 370.554 0.941797 -3.80621 0
M  V30 3902 H 372.044 1.92678 -3.70493 0
M  V30 3903 N 372.481 1.55866 -0.233164 0
M  V30 3904 C 373.706 2.03449 0.402906 0
M  V30 3905 C 374.131 1.11166 1.51736 0
M  V30 3906 O 373.489 0.101996 1.81013 0
M  V30 3907 C 373.537 3.49165 0.9009 0
M  V30 3908 O 372.641 3.60019 2.01147 0
M  V30 3909 H 371.982 0.657913 0.0897025 0
M  V30 3910 H 374.512 2.01493 -0.355201 0
M  V30 3911 H 374.522 3.89716 1.2077 0
M  V30 3912 H 373.197 4.15813 0.0852889 0
M  V30 3913 H 371.774 3.3136 1.71042 0
M  V30 3914 N 373.959 -0.0401083 1.57549 0
M  V30 3915 C 374.891 -1.07149 2.02612 0
M  V30 3916 C 375.904 -1.33126 0.937085 0
M  V30 3917 O 377.093 -1.30808 1.21456 0
M  V30 3918 C 374.193 -2.41561 2.37701 0
M  V30 3919 C 373.366 -2.35096 3.68848 0
M  V30 3920 C 372.425 -3.51867 3.91249 0
M  V30 3921 O 371.451 -3.3186 4.62447 0
M  V30 3922 N 372.653 -4.73351 3.36035 0
M  V30 3923 H 375.418 -0.687485 2.91708 0
M  V30 3924 H 372.979 -0.228248 1.60283 0
M  V30 3925 H 374.971 -3.18379 2.49833 0
M  V30 3926 H 373.541 -2.71846 1.54332 0
M  V30 3927 H 372.761 -1.4345 3.67173 0
M  V30 3928 H 374.049 -2.27908 4.54901 0
M  V30 3929 H 373.447 -4.92507 2.78304 0
M  V30 3930 H 372.004 -5.47572 3.53565 0
M  V30 3931 N 375.437 -1.54477 -0.31217 0
M  V30 3932 C 376.367 -1.87652 -1.38957 0
M  V30 3933 C 377.348 -0.734358 -1.53431 0
M  V30 3934 O 378.533 -0.98911 -1.67123 0
M  V30 3935 C 375.663 -2.11396 -2.75552 0
M  V30 3936 C 374.617 -3.27243 -2.75855 0
M  V30 3937 C 373.943 -3.36382 -4.15633 0
M  V30 3938 C 375.243 -4.64622 -2.38587 0
M  V30 3939 H 376.937 -2.77887 -1.11442 0
M  V30 3940 H 374.483 -1.33707 -0.534655 0
M  V30 3941 H 376.436 -2.33189 -3.51 0
M  V30 3942 H 375.16 -1.17921 -3.04569 0
M  V30 3943 H 373.819 -3.05356 -2.02863 0
M  V30 3944 H 373.467 -2.40445 -4.41809 0
M  V30 3945 H 373.167 -4.14249 -4.1674 0
M  V30 3946 H 374.691 -3.60422 -4.92877 0
M  V30 3947 H 376.105 -4.86219 -3.03749 0
M  V30 3948 H 374.502 -5.45121 -2.50925 0
M  V30 3949 H 375.572 -4.66097 -1.33723 0
M  V30 3950 N 376.915 0.57481 -1.46744 0
M  V30 3951 C 378.143 1.35856 -1.56047 0
M  V30 3952 C 378.558 1.87691 -0.204365 0
M  V30 3953 O 377.915 1.64049 0.79963 0
M  V30 3954 C 377.966 2.54066 -2.57163 0
M  V30 3955 O 377.687 2.04377 -3.87507 0
M  V30 3956 C 379.188 3.46514 -2.76483 0
M  V30 3957 H 376.408 0.414754 -0.527466 0
M  V30 3958 H 378.952 0.698035 -1.92218 0
M  V30 3959 H 377.107 3.16092 -2.23974 0
M  V30 3960 H 377.521 2.81419 -4.4261 0
M  V30 3961 H 378.995 4.25919 -3.51137 0
M  V30 3962 H 379.472 3.98951 -1.83671 0
M  V30 3963 H 380.078 2.90318 -3.10799 0
M  V30 3964 N 378.394 1.34581 0.820102 0
M  V30 3965 C 379.642 1.26845 1.57336 0
M  V30 3966 C 379.963 -0.160667 1.94337 0
M  V30 3967 O 379.233 -1.09396 1.6251 0
M  V30 3968 H 377.813 0.466514 0.583415 0
M  V30 3969 H 380.475 1.68526 0.979027 0
M  V30 3970 H 379.571 1.87513 2.4949 0
M  V30 3971 N 379.872 -1.04064 1.18357 0
M  V30 3972 C 381.097 -1.81454 1.00445 0
M  V30 3973 C 381.522 -1.82823 -0.442423 0
M  V30 3974 O 380.88 -1.24555 -1.31741 0
M  V30 3975 C 380.928 -3.24925 1.56384 0
M  V30 3976 O 380.032 -4.04856 0.785209 0
M  V30 3977 H 379.373 -0.560604 0.355835 0
M  V30 3978 H 381.903 -1.31059 1.57114 0
M  V30 3979 H 381.913 -3.75702 1.59097 0
M  V30 3980 H 380.588 -3.23244 2.61699 0
M  V30 3981 H 379.165 -3.63537 0.830399 0
M  V30 3982 N 381.35 -0.985608 -1.22978 0
M  V30 3983 C 382.599 -0.652881 -1.90841 0
M  V30 3984 C 382.912 0.817842 -1.77681 0
M  V30 3985 O 384.118 1.26185 -2.40395 0
M  V30 3986 C 382.574 -1.11717 -3.42122 0
M  V30 3987 C 382.182 -2.6126 -3.63933 0
M  V30 3988 C 383.926 -0.85843 -4.1573 0
M  V30 3989 C 381.833 -3.0133 -5.08876 0
M  V30 3990 H 380.763 -0.240491 -0.714619 0
M  V30 3991 H 383.414 -1.1942 -1.39324 0
M  V30 3992 H 381.796 -0.504027 -3.92779 0
M  V30 3993 H 382.97 -3.27858 -3.23799 0
M  V30 3994 H 381.285 -2.84937 -3.03644 0
M  V30 3995 H 383.882 -1.13359 -5.22546 0
M  V30 3996 H 384.225 0.205461 -4.15793 0
M  V30 3997 H 384.758 -1.43341 -3.71077 0
M  V30 3998 H 381.497 -4.06864 -5.13947 0
M  V30 3999 H 381.017 -2.3943 -5.49939 0
M  V30 4000 H 382.696 -2.92224 -5.77247 0
M  V30 4001 N 382.828 1.3818 -0.7579 0
M  V30 4002 C 384.076 1.99624 -0.315361 0
M  V30 4003 C 384.397 1.60464 1.10799 0
M  V30 4004 O 383.667 0.863507 1.75842 0
M  V30 4005 H 382.247 0.73831 -0.113611 0
M  V30 4006 H 384.909 1.68878 -0.972952 0
M  V30 4007 H 384.005 3.09754 -0.381931 0
M  V30 4008 N 384.306 0.507319 1.49211 0
M  V30 4009 C 385.239 -0.314509 2.26022 0
M  V30 4010 C 386.217 -0.964849 1.30879 0
M  V30 4011 O 387.401 -0.993707 1.6018 0
M  V30 4012 C 384.528 -1.44346 3.06402 0
M  V30 4013 C 383.574 -0.90685 4.16748 0
M  V30 4014 S 384.407 0.207392 5.35098 0
M  V30 4015 C 385.563 -0.924573 6.19033 0
M  V30 4016 H 385.796 0.337416 2.95379 0
M  V30 4017 H 383.329 0.292718 1.516 0
M  V30 4018 H 385.287 -2.09029 3.53295 0
M  V30 4019 H 383.948 -2.06702 2.36502 0
M  V30 4020 H 383.141 -1.75309 4.72528 0
M  V30 4021 H 382.743 -0.33712 3.72478 0
M  V30 4022 H 385.035 -1.82839 6.52362 0
M  V30 4023 H 385.978 -0.405248 7.06939 0
M  V30 4024 H 386.386 -1.19476 5.51712 0
M  V30 4025 N 385.784 -1.5574 0.241426 0
M  V30 4026 C 386.714 -2.24133 -0.654722 0
M  V30 4027 C 387.695 -1.21974 -1.1856 0
M  V30 4028 O 388.88 -1.50612 -1.22595 0
M  V30 4029 C 386.01 -2.93659 -1.85423 0
M  V30 4030 C 384.964 -4.0246 -1.45636 0
M  V30 4031 C 384.29 -4.59383 -2.73626 0
M  V30 4032 C 385.59 -5.18468 -0.631506 0
M  V30 4033 H 387.284 -2.99281 -0.0844353 0
M  V30 4034 H 384.83 -1.43947 -0.0391707 0
M  V30 4035 H 386.783 -3.40203 -2.48676 0
M  V30 4036 H 385.507 -2.15991 -2.44981 0
M  V30 4037 H 384.166 -3.56676 -0.847202 0
M  V30 4038 H 383.814 -3.78422 -3.3137 0
M  V30 4039 H 383.514 -5.32826 -2.4773 0
M  V30 4040 H 385.038 -5.08658 -3.37786 0
M  V30 4041 H 386.452 -5.61272 -1.1682 0
M  V30 4042 H 384.849 -5.98266 -0.468831 0
M  V30 4043 H 385.919 -4.8358 0.357506 0
M  V30 4044 N 387.262 0.0317525 -1.57568 0
M  V30 4045 C 388.673 0.578692 -1.77505 0
M  V30 4046 C 389.024 1.75749 -0.872164 0
M  V30 4047 O 388.149 2.16298 -0.0663106 0
M  V30 4048 C 388.744 1.05658 -3.21904 0
M  V30 4049 C 387.303 1.54906 -3.43047 0
M  V30 4050 C 386.45 0.485939 -2.73009 0
M  V30 4051 H 389.401 -0.194475 -1.57504 0
M  V30 4052 H 389.422 1.92404 -3.28269 0
M  V30 4053 H 388.934 0.198422 -3.87592 0
M  V30 4054 H 387.035 2.42915 -2.82529 0
M  V30 4055 H 387.148 1.59841 -4.5165 0
M  V30 4056 H 385.512 0.940354 -2.36705 0
M  V30 4057 H 386.295 -0.362709 -3.41379 0
M  V30 4058 N 388.74 1.54641 0.303973 0
M  V30 4059 C 389.965 1.78092 1.06292 0
M  V30 4060 C 390.39 0.537342 1.80262 0
M  V30 4061 O 389.748 -0.511993 1.7392 0
M  V30 4062 C 389.796 2.98612 2.02147 0
M  V30 4063 O 388.9 2.71528 3.10397 0
M  V30 4064 H 388.241 0.589548 0.305497 0
M  V30 4065 H 390.771 2.01716 0.3423 0
M  V30 4066 H 390.781 3.265 2.44667 0
M  V30 4067 H 389.456 3.88785 1.47714 0
M  V30 4068 H 388.033 2.54648 2.72413 0
M  V30 4069 N 390.218 -0.567019 1.47046 0
M  V30 4070 C 391.181 -1.65696 1.58359 0
M  V30 4071 C 392.181 -1.54097 0.459441 0
M  V30 4072 O 393.371 -1.58432 0.724225 0
M  V30 4073 C 390.503 -3.05197 1.51879 0
M  V30 4074 H 391.696 -1.57019 2.5551 0
M  V30 4075 H 389.249 -0.786148 1.3509 0
M  V30 4076 H 389.984 -3.19417 0.560673 0
M  V30 4077 H 389.769 -3.15025 2.33455 0
M  V30 4078 H 391.259 -3.84511 1.62913 0
M  V30 4079 N 391.696 -1.35014 -0.812953 0
M  V30 4080 C 392.921 -1.31187 -1.60639 0
M  V30 4081 C 393.346 0.109382 -1.87782 0
M  V30 4082 O 392.704 1.07424 -1.46047 0
M  V30 4083 C 392.752 -2.11809 -2.91838 0
M  V30 4084 O 391.856 -1.49444 -3.8437 0
M  V30 4085 H 391.197 -0.450084 -0.488181 0
M  V30 4086 H 393.727 -1.77963 -1.00947 0
M  V30 4087 H 393.737 -2.23531 -3.41318 0
M  V30 4088 H 392.412 -3.15137 -2.71407 0
M  V30 4089 H 390.989 -1.46524 -3.42907 0
M  V30 4090 N 393.175 1.03435 -1.18907 0
M  V30 4091 C 394.105 2.13503 -0.945448 0
M  V30 4092 C 395.086 1.69682 0.119189 0
M  V30 4093 O 396.271 1.94169 -0.034707 0
M  V30 4094 C 393.401 3.44004 -0.477316 0
M  V30 4095 C 392.355 4.0148 -1.48316 0
M  V30 4096 C 391.681 5.27537 -0.872311 0
M  V30 4097 C 392.981 4.36921 -2.86177 0
M  V30 4098 H 394.675 2.34141 -1.86597 0
M  V30 4099 H 392.221 1.12523 -0.898584 0
M  V30 4100 H 394.174 4.20372 -0.294204 0
M  V30 4101 H 392.898 3.23072 0.478786 0
M  V30 4102 H 391.557 3.27201 -1.65332 0
M  V30 4103 H 391.205 5.02917 0.0911752 0
M  V30 4104 H 390.905 5.66954 -1.54393 0
M  V30 4105 H 392.429 6.06576 -0.699871 0
M  V30 4106 H 393.843 5.04248 -2.72776 0
M  V30 4107 H 392.24 4.87405 -3.50081 0
M  V30 4108 H 393.31 3.46466 -3.39248 0
M  V30 4109 N 394.653 0.992116 1.22453 0
M  V30 4110 C 395.901 0.666215 1.90804 0
M  V30 4111 C 396.222 -0.804152 1.77647 0
M  V30 4112 O 395.492 -1.57629 1.16318 0
M  V30 4113 H 394.072 0.243423 0.706225 0
M  V30 4114 H 396.734 1.25845 1.48825 0
M  V30 4115 H 395.83 0.928069 2.97982 0
M  V30 4116 N 396.131 -1.37776 0.765217 0
M  V30 4117 C 397.041 -2.34135 0.147666 0
M  V30 4118 C 398.057 -1.59854 -0.687215 0
M  V30 4119 O 399.233 -1.91983 -0.608659 0
M  V30 4120 C 396.298 -3.3901 -0.72617 0
M  V30 4121 C 395.359 -4.2912 0.124417 0
M  V30 4122 C 394.592 -5.28986 -0.707807 0
M  V30 4123 O 394.815 -5.36205 -1.94525 0
M  V30 4124 O 393.749 -6.01779 -0.12046 0
M  V30 4125 H 397.575 -2.88664 0.943758 0
M  V30 4126 H 395.16 -1.39824 0.526277 0
M  V30 4127 H 397.042 -4.03195 -1.22524 0
M  V30 4128 H 395.717 -2.86819 -1.50056 0
M  V30 4129 H 394.624 -3.68057 0.669696 0
M  V30 4130 H 395.957 -4.84598 0.861736 0
M  V30 4131 N 397.609 -0.515225 -1.4894 0
M  V30 4132 C 398.857 0.0241671 -2.02086 0
M  V30 4133 C 399.178 1.3616 -1.3959 0
M  V30 4134 O 398.448 1.87841 -0.556121 0
M  V30 4135 H 397.028 0.0119203 -0.746905 0
M  V30 4136 H 399.69 -0.675702 -1.82812 0
M  V30 4137 H 398.786 0.143385 -3.1177 0
M  V30 4138 N 399.087 1.5561 -0.249682 0
M  V30 4139 C 400.503 1.59254 0.105103 0
M  V30 4140 C 400.703 1.26685 1.56694 0
M  V30 4141 O 399.759 1.0155 2.31179 0
M  V30 4142 C 401.072 2.99687 -0.246592 0
M  V30 4143 C 402.62 3.12416 -0.191118 0
M  V30 4144 C 403.095 4.55074 -0.516885 0
M  V30 4145 N 404.586 4.60835 -0.467489 0
M  V30 4146 C 405.321 5.69201 -0.69268 0
M  V30 4147 N 404.817 6.85817 -0.981146 0
M  V30 4148 N 406.61 5.58635 -0.623198 0
M  V30 4149 H 398.761 1.75049 -1.20298 0
M  V30 4150 H 401.024 0.815003 -0.484225 0
M  V30 4151 H 400.73 3.28267 -1.26228 0
M  V30 4152 H 400.604 3.74798 0.424962 0
M  V30 4153 H 402.991 2.83615 0.815247 0
M  V30 4154 H 403.072 2.39573 -0.896563 0
M  V30 4155 H 402.716 4.84596 -1.52082 0
M  V30 4156 H 402.646 5.26181 0.210068 0
M  V30 4157 H 405.137 3.7705 -0.253373 0
M  V30 4158 H 405.45 7.64341 -1.14032 0
M  V30 4159 H 403.795 6.87494 -1.01865 0
M  V30 4160 H 406.986 4.66406 -0.397863 0
M  V30 4161 H 407.159 6.43017 -0.802093 0
M  V30 4162 N 400.565 -0.0233959 1.57583 0
M  V30 4163 C 401.528 -1.00693 2.05897 0
M  V30 4164 C 402.528 -1.28693 0.964092 0
M  V30 4165 O 403.718 -1.23602 1.22753 0
M  V30 4166 C 400.85 -2.33825 2.4807 0
M  V30 4167 H 402.043 -0.589476 2.9405 0
M  V30 4168 H 399.596 -0.270354 1.53944 0
M  V30 4169 H 400.331 -2.80307 1.6309 0
M  V30 4170 H 400.116 -2.1483 3.2801 0
M  V30 4171 H 401.606 -3.04426 2.85857 0
M  V30 4172 N 402.043 -1.548 -0.295768 0
M  V30 4173 C 402.976 -1.81003 -1.38972 0
M  V30 4174 C 403.954 -0.661544 -1.48534 0
M  V30 4175 O 405.138 -0.902074 -1.65514 0
M  V30 4176 C 402.265 -1.95141 -2.76835 0
M  V30 4177 C 401.311 -3.17592 -2.84671 0
M  V30 4178 S 402.144 -4.75531 -2.46232 0
M  V30 4179 C 403.3 -4.92613 -3.86114 0
M  V30 4180 H 403.533 -2.73507 -1.16537 0
M  V30 4181 H 401.066 -1.46278 -0.494168 0
M  V30 4182 H 403.024 -2.03972 -3.56238 0
M  V30 4183 H 401.685 -1.03565 -2.96535 0
M  V30 4184 H 400.878 -3.24303 -3.85803 0
M  V30 4185 H 400.48 -3.07235 -2.13267 0
M  V30 4186 H 402.772 -4.76957 -4.81164 0
M  V30 4187 H 403.715 -5.94698 -3.8437 0
M  V30 4188 H 404.123 -4.2073 -3.76359 0
M  V30 4189 N 403.521 0.559213 -1.47345 0
M  V30 4190 C 404.751 1.33999 -1.57251 0
M  V30 4191 C 405.159 1.87905 -0.220978 0
M  V30 4192 O 404.502 1.65577 0.795617 0
M  V30 4193 C 404.564 2.54798 -2.53611 0
M  V30 4194 C 404.228 2.22192 -3.99349 0
M  V30 4195 C 405.225 1.79607 -4.87891 0
M  V30 4196 C 402.91 2.33613 -4.44669 0
M  V30 4197 C 404.904 1.48868 -6.19772 0
M  V30 4198 C 402.591 2.02487 -5.76578 0
M  V30 4199 C 403.589 1.60183 -6.63951 0
M  V30 4200 O 403.277 1.29451 -7.93409 0
M  V30 4201 H 403.009 0.414858 -0.533731 0
M  V30 4202 H 405.563 0.684465 -1.9366 0
M  V30 4203 H 403.793 3.23235 -2.12265 0
M  V30 4204 H 405.482 3.16873 -2.53666 0
M  V30 4205 H 406.248 1.70278 -4.54126 0
M  V30 4206 H 402.127 2.65501 -3.76869 0
M  V30 4207 H 405.671 1.15775 -6.87926 0
M  V30 4208 H 401.568 2.11448 -6.09885 0
M  V30 4209 H 402.336 1.43098 -8.05894 0
M  V30 4210 N 404.999 1.35443 0.805782 0
M  V30 4211 C 405.909 1.30546 1.94923 0
M  V30 4212 C 406.925 0.210233 1.72725 0
M  V30 4213 O 408.101 0.43975 1.9654 0
M  V30 4214 C 405.166 1.07782 3.29521 0
M  V30 4215 C 404.227 2.26625 3.64609 0
M  V30 4216 C 403.46 2.04938 4.92784 0
M  V30 4217 O 403.683 1.01624 5.61274 0
M  V30 4218 O 402.617 2.9232 5.26149 0
M  V30 4219 H 406.443 2.26779 2.02002 0
M  V30 4220 H 404.028 1.15823 0.943682 0
M  V30 4221 H 405.91 0.969392 4.10098 0
M  V30 4222 H 404.585 0.146003 3.23371 0
M  V30 4223 H 403.492 2.43033 2.84404 0
M  V30 4224 H 404.825 3.18257 3.75464 0
M  V30 4225 N 406.477 -1.02803 1.19454 0
M  V30 4226 C 407.888 -1.57667 0.999899 0
M  V30 4227 C 408.239 -1.91041 -0.446956 0
M  V30 4228 O 407.364 -1.70978 -1.32648 0
M  V30 4229 C 407.959 -2.86477 1.80877 0
M  V30 4230 C 406.518 -3.37911 1.65811 0
M  V30 4231 C 405.665 -2.11343 1.79526 0
M  V30 4232 H 408.616 -0.853214 1.33813 0
M  V30 4233 H 408.637 -3.57408 1.30536 0
M  V30 4234 H 408.149 -2.62155 2.86175 0
M  V30 4235 H 406.25 -3.67218 0.63102 0
M  V30 4236 H 406.363 -4.10885 2.46395 0
M  V30 4237 H 404.727 -2.23254 1.22596 0
M  V30 4238 H 405.51 -1.89461 2.86285 0
M  V30 4239 N 407.956 -0.998596 -1.21925 0
M  V30 4240 C 409.205 -0.673085 -1.90138 0
M  V30 4241 C 409.518 0.79895 -1.78539 0
M  V30 4242 O 410.724 1.23628 -2.4172 0
M  V30 4243 C 409.18 -1.15339 -3.40918 0
M  V30 4244 C 408.788 -2.65106 -3.61141 0
M  V30 4245 C 410.532 -0.902476 -4.14796 0
M  V30 4246 C 408.439 -3.0671 -5.05651 0
M  V30 4247 H 407.369 -0.248057 -0.712028 0
M  V30 4248 H 410.02 -1.20891 -1.38049 0
M  V30 4249 H 408.402 -0.545658 -3.92223 0
M  V30 4250 H 409.576 -3.31274 -3.20304 0
M  V30 4251 H 407.891 -2.88142 -3.00605 0
M  V30 4252 H 410.488 -1.18895 -5.21314 0
M  V30 4253 H 410.831 0.161349 -4.15987 0
M  V30 4254 H 411.364 -1.47269 -3.69536 0
M  V30 4255 H 408.103 -4.12292 -5.09603 0
M  V30 4256 H 407.623 -2.45249 -5.47369 0
M  V30 4257 H 409.302 -2.9833 -5.74115 0
M  V30 4258 N 409.434 1.37368 -0.772513 0
M  V30 4259 C 410.384 2.27613 -0.132823 0
M  V30 4260 C 411.368 1.46138 0.673247 0
M  V30 4261 O 412.56 1.68686 0.536095 0
M  V30 4262 C 409.689 3.35122 0.744864 0
M  V30 4263 C 408.775 4.24044 -0.0690771 0
M  V30 4264 N 409.166 4.93355 -1.1151 0
M  V30 4265 C 407.464 4.45731 0.154782 0
M  V30 4266 C 408.165 5.59 -1.60917 0
M  V30 4267 N 407.141 5.35737 -0.921222 0
M  V30 4268 H 410.943 2.78675 -0.933681 0
M  V30 4269 H 408.457 1.50494 -0.610342 0
M  V30 4270 H 410.454 3.98683 1.21892 0
M  V30 4271 H 409.114 2.85616 1.54446 0
M  V30 4272 H 410.125 4.95785 -1.49726 0
M  V30 4273 H 406.802 4.07096 0.926224 0
M  V30 4274 H 408.192 6.24395 -2.48153 0
M  V30 4275 N 410.912 0.523116 1.48665 0
M  V30 4276 C 412.16 -0.0134497 2.02096 0
M  V30 4277 C 412.481 -1.35418 1.40311 0
M  V30 4278 O 411.751 -1.87543 0.566074 0
M  V30 4279 H 410.331 -0.00795915 0.746958 0
M  V30 4280 H 412.993 0.685388 1.82451 0
M  V30 4281 H 412.089 -0.126849 3.11842 0
M  V30 4282 N 412.39 -1.55475 0.257931 0
M  V30 4283 C 413.615 -2.04064 -0.370488 0
M  V30 4284 C 414.04 -1.13565 -1.49948 0
M  V30 4285 O 413.398 -0.130781 -1.80828 0
M  V30 4286 C 413.446 -3.50554 -0.845237 0
M  V30 4287 O 412.55 -3.63173 -1.95394 0
M  V30 4288 H 411.891 -0.659257 -0.0792243 0
M  V30 4289 H 414.421 -2.00903 0.387212 0
M  V30 4290 H 414.431 -3.91588 -1.14555 0
M  V30 4291 H 413.106 -4.15896 -0.0191259 0
M  V30 4292 H 411.683 -3.34039 -1.65748 0
M  V30 4293 N 413.868 0.0150385 -1.57593 0
M  V30 4294 C 414.831 0.995996 -2.06428 0
M  V30 4295 C 415.831 1.2818 -0.970903 0
M  V30 4296 O 417.021 1.22949 -1.23406 0
M  V30 4297 C 414.153 2.32506 -2.49307 0
M  V30 4298 H 415.346 0.573873 -2.94358 0
M  V30 4299 H 412.899 0.262186 -1.54085 0
M  V30 4300 H 413.634 2.79438 -1.64575 0
M  V30 4301 H 413.419 2.13087 -3.29145 0
M  V30 4302 H 414.909 3.02906 -2.87468 0
M  V30 4303 N 415.346 1.54954 0.287554 0
M  V30 4304 C 416.757 1.65732 0.859634 0
M  V30 4305 C 417.108 0.574767 1.87592 0
M  V30 4306 O 416.233 -0.286299 2.14498 0
M  V30 4307 C 416.828 3.00438 1.56597 0
M  V30 4308 C 415.387 3.13292 2.08627 0
M  V30 4309 C 414.534 2.61473 0.923416 0
M  V30 4310 H 417.485 1.5857 0.0642338 0
M  V30 4311 H 417.506 2.92613 2.43224 0
M  V30 4312 H 417.018 3.79207 0.826053 0
M  V30 4313 H 415.119 2.39268 2.85625 0
M  V30 4314 H 415.232 4.19647 2.31157 0
M  V30 4315 H 413.596 2.18264 1.31275 0
M  V30 4316 H 414.379 3.42733 0.197241 0
M  V30 4317 N 416.824 -0.551391 1.4764 0
M  V30 4318 C 418.101 -1.31229 1.45046 0
M  V30 4319 C 418.481 -2.10563 0.150527 0
M  V30 4320 O 417.829 -2.11374 -0.867956 0
M  V30 4321 C 418.039 -2.21189 2.69956 0
M  V30 4322 C 419.387 -2.82021 3.1741 0
M  V30 4323 O 420.411 -2.31488 2.70724 0
M  V30 4324 O 419.27 -3.73885 3.98588 0
M  V30 4325 H 416.364 -0.591193 0.578291 0
M  V30 4326 H 418.91 -0.569813 1.59847 0
M  V30 4327 H 417.682 -1.62207 3.56096 0
M  V30 4328 H 417.305 -3.02722 2.57769 0
M  V30 4329 N 418.302 -1.35869 -0.798587 0
M  V30 4330 C 419.551 -1.28921 -1.5512 0
M  V30 4331 C 419.864 0.13208 -1.95154 0
M  V30 4332 O 421.07 0.323879 -2.69561 0
M  V30 4333 C 419.526 -2.26141 -2.79979 0
M  V30 4334 C 419.134 -3.73658 -2.47151 0
M  V30 4335 C 420.878 -2.28152 -3.57976 0
M  V30 4336 C 418.785 -4.62679 -3.6835 0
M  V30 4337 H 417.715 -0.479031 -0.582276 0
M  V30 4338 H 420.366 -1.61179 -0.877125 0
M  V30 4339 H 418.748 -1.86865 -3.49138 0
M  V30 4340 H 419.922 -4.21616 -1.85947 0
M  V30 4341 H 418.237 -3.74333 -1.82383 0
M  V30 4342 H 420.834 -2.91875 -4.4801 0
M  V30 4343 H 421.177 -1.28748 -3.95891 0
M  V30 4344 H 421.71 -2.65998 -2.95787 0
M  V30 4345 H 418.449 -5.63111 -3.35538 0
M  V30 4346 H 417.969 -4.19442 -4.28752 0
M  V30 4347 H 419.648 -4.78498 -4.35487 0
M  V30 4348 N 419.78 1.02168 -1.19998 0
M  V30 4349 C 420.743 2.08765 -0.94604 0
M  V30 4350 C 421.743 1.60618 0.0763846 0
M  V30 4351 O 422.933 1.73472 -0.159135 0
M  V30 4352 C 420.065 3.38262 -0.423255 0
M  V30 4353 H 421.258 2.32726 -1.89153 0
M  V30 4354 H 418.811 1.1889 -1.01464 0
M  V30 4355 H 419.546 3.19974 0.527938 0
M  V30 4356 H 419.331 3.74532 -1.16053 0
M  V30 4357 H 420.821 4.16759 -0.264911 0
M  V30 4358 N 421.258 1.00505 1.21394 0
M  V30 4359 C 422.506 0.686415 1.90086 0
M  V30 4360 C 422.827 -0.785264 1.7849 0
M  V30 4361 O 422.097 -1.56387 1.17983 0
M  V30 4362 H 420.677 0.2509 0.703604 0
M  V30 4363 H 423.339 1.27417 1.47482 0
M  V30 4364 H 422.435 0.959621 2.96981 0
M  V30 4365 N 422.737 -1.36956 0.779787 0
M  V30 4366 C 423.669 -2.28833 0.129639 0
M  V30 4367 C 424.682 -1.4902 -0.655511 0
M  V30 4368 O 425.871 -1.71578 -0.492279 0
M  V30 4369 C 422.971 -3.2833 -0.839792 0
M  V30 4370 C 422.144 -4.3727 -0.10675 0
M  V30 4371 C 421.203 -5.16789 -0.990717 0
M  V30 4372 O 420.229 -5.67406 -0.451516 0
M  V30 4373 N 421.431 -5.32294 -2.3161 0
M  V30 4374 H 424.196 -2.85268 0.918803 0
M  V30 4375 H 421.757 -1.49019 0.632841 0
M  V30 4376 H 423.749 -3.78413 -1.43477 0
M  V30 4377 H 422.319 -2.72605 -1.52988 0
M  V30 4378 H 421.539 -3.88478 0.669216 0
M  V30 4379 H 422.827 -5.07229 0.399464 0
M  V30 4380 H 422.225 -4.92768 -2.77843 0
M  V30 4381 H 420.782 -5.85656 -2.86095 0
M  V30 4382 N 424.215 -0.530993 -1.48385 0
M  V30 4383 C 425.492 0.0671788 -1.95485 0
M  V30 4384 C 425.872 1.51191 -1.47324 0
M  V30 4385 O 425.22 2.17507 -0.700202 0
M  V30 4386 C 425.43 -0.0511206 -3.48963 0
M  V30 4387 C 426.778 0.107632 -4.24464 0
M  V30 4388 O 427.802 0.0226248 -3.56193 0
M  V30 4389 O 426.661 0.285972 -5.45751 0
M  V30 4390 H 423.755 0.0787365 -0.823243 0
M  V30 4391 H 426.301 -0.595662 -1.58902 0
M  V30 4392 H 425.073 -1.05747 -3.7674 0
M  V30 4393 H 424.696 0.650525 -3.92242 0
M  V30 4394 N 425.693 1.55336 -0.266172 0
M  V30 4395 C 426.64 2.22172 0.625165 0
M  V30 4396 C 427.61 1.19211 1.15663 0
M  V30 4397 O 428.795 1.47723 1.20758 0
M  V30 4398 C 425.935 2.93972 1.8076 0
M  V30 4399 C 425.048 4.11632 1.31084 0
M  V30 4400 C 424.183 4.71099 2.45436 0
M  V30 4401 C 423.222 5.8097 1.92718 0
M  V30 4402 N 422.359 6.34538 3.00509 0
M  V30 4403 H 427.199 2.9796 0.0485582 0
M  V30 4404 H 424.736 1.47095 0.0122024 0
M  V30 4405 H 426.694 3.33811 2.50251 0
M  V30 4406 H 425.324 2.20623 2.35638 0
M  V30 4407 H 424.376 3.76975 0.509326 0
M  V30 4408 H 425.688 4.90893 0.884633 0
M  V30 4409 H 424.842 5.13612 3.22936 0
M  V30 4410 H 423.581 3.91096 2.91368 0
M  V30 4411 H 422.586 5.37916 1.13695 0
M  V30 4412 H 423.811 6.62836 1.47733 0
M  V30 4413 H 421.757 5.57433 3.45839 0
M  V30 4414 H 421.674 7.09046 2.62279 0
M  V30 4415 H 422.942 6.81709 3.78011 0
M  V30 4416 N 427.171 -0.0066808 1.57599 0
M  V30 4417 C 428.134 -0.985035 2.06953 0
M  V30 4418 C 429.134 -1.27663 0.977687 0
M  V30 4419 O 430.324 -1.22293 1.24057 0
M  V30 4420 C 427.456 -2.3118 2.50536 0
M  V30 4421 H 428.649 -0.558255 2.94658 0
M  V30 4422 H 426.202 -0.254011 1.54222 0
M  V30 4423 H 426.937 -2.78561 1.66054 0
M  V30 4424 H 426.722 -2.11338 3.3027 0
M  V30 4425 H 428.212 -3.01377 2.8907 0
M  V30 4426 N 428.649 -1.55105 -0.279332 0
M  V30 4427 C 429.597 -1.88333 -1.36505 0
M  V30 4428 C 430.591 -0.759043 -1.51443 0
M  V30 4429 O 431.797 -0.943312 -1.53302 0
M  V30 4430 H 428.172 -0.59766 -0.456406 0
M  V30 4431 H 430.143 -2.79041 -1.05728 0
M  V30 4432 C 428.892 -2.16628 -2.7197 0
M  V30 4433 H 428.215 -3.02624 -2.61264 0
M  V30 4434 H 429.655 -2.43803 -3.46895 0
M  V30 4435 C 428.114 -0.971807 -3.22579 0
M  V30 4436 O 428.644 -0.203228 -4.01186 0
M  V30 4437 N 426.85 -0.771238 -2.80179 0
M  V30 4438 H 426.397 -1.39792 -2.1637 0
M  V30 4439 H 426.355 0.0263667 -3.14389 0
M  V30 4440 N 430.127 0.543554 -1.4793 0
M  V30 4441 C 431.538 1.12561 -1.48953 0
M  V30 4442 C 431.889 1.94578 -0.251754 0
M  V30 4443 O 431.014 2.0665 0.642255 0
M  V30 4444 C 431.609 2.04801 -2.69892 0
M  V30 4445 C 430.168 2.58251 -2.73831 0
M  V30 4446 C 429.315 1.34918 -2.42265 0
M  V30 4447 H 432.266 0.32947 -1.55242 0
M  V30 4448 H 432.287 2.88886 -2.47639 0
M  V30 4449 H 431.799 1.4508 -3.59963 0
M  V30 4450 H 429.9 3.21732 -1.87934 0
M  V30 4451 H 430.013 2.98312 -3.74895 0
M  V30 4452 H 428.377 1.66046 -1.93134 0
M  V30 4453 H 429.16 0.769693 -3.3456 0
M  V30 4454 N 431.605 1.3629 0.791371 0
M  V30 4455 C 432.535 1.33137 1.91825 0
M  V30 4456 C 433.516 0.203168 1.68882 0
M  V30 4457 O 434.701 0.400509 1.90025 0
M  V30 4458 C 431.831 1.11793 3.28816 0
M  V30 4459 C 430.785 2.21417 3.66277 0
M  V30 4460 C 430.111 1.85218 5.01596 0
M  V30 4461 C 431.411 3.63489 3.75064 0
M  V30 4462 H 433.105 2.2743 1.9472 0
M  V30 4463 H 430.651 1.09479 0.935437 0
M  V30 4464 H 432.604 1.08222 4.07266 0
M  V30 4465 H 431.328 0.139501 3.26302 0
M  V30 4466 H 429.987 2.2411 2.90121 0
M  V30 4467 H 429.635 0.859544 4.95602 0
M  V30 4468 H 429.335 2.58611 5.27631 0
M  V30 4469 H 430.859 1.832 5.82469 0
M  V30 4470 H 432.273 3.63034 4.43711 0
M  V30 4471 H 430.67 4.35771 4.12582 0
M  V30 4472 H 431.74 3.98536 2.76219 0
M  V30 4473 N 433.083 -1.0153 1.20538 0
M  V30 4474 C 434.046 -2.0826 0.957098 0
M  V30 4475 C 435.046 -1.60657 -0.0678655 0
M  V30 4476 O 436.236 -1.73385 0.168332 0
M  V30 4477 C 433.368 -3.38033 0.441188 0
M  V30 4478 H 434.561 -2.31719 1.90384 0
M  V30 4479 H 432.114 -1.1835 1.02093 0
M  V30 4480 H 432.849 -3.20249 -0.510961 0
M  V30 4481 H 432.634 -3.73911 1.18038 0
M  V30 4482 H 434.124 -4.16613 0.287009 0
M  V30 4483 N 434.561 -1.01147 -1.20859 0
M  V30 4484 C 435.789 -0.716911 -1.94082 0
M  V30 4485 C 436.204 0.721568 -1.74467 0
M  V30 4486 O 435.561 1.48889 -1.05539 0
M  V30 4487 C 435.612 -1.03662 -3.46318 0
M  V30 4488 O 435.333 -2.4186 -3.65288 0
M  V30 4489 C 436.834 -0.762386 -4.36695 0
M  V30 4490 H 434.054 -0.26367 -0.617024 0
M  V30 4491 H 436.598 -1.35127 -1.53496 0
M  V30 4492 H 434.753 -0.447757 -3.84804 0
M  V30 4493 H 435.167 -2.53224 -4.59323 0
M  V30 4494 H 436.641 -1.03621 -5.42187 0
M  V30 4495 H 437.118 0.303514 -4.3815 0
M  V30 4496 H 437.724 -1.33316 -4.03865 0
M  V30 4497 N 436.039 1.36541 -0.78704 0
M  V30 4498 C 437.288 1.98552 -0.35494 0
M  V30 4499 C 437.601 1.63171 1.07864 0
M  V30 4500 O 438.807 2.18399 1.61289 0
M  V30 4501 C 437.263 3.55136 -0.583671 0
M  V30 4502 C 436.871 3.99444 -2.02851 0
M  V30 4503 C 438.615 4.2395 -0.215957 0
M  V30 4504 C 436.522 5.48796 -2.20403 0
M  V30 4505 H 435.452 0.742888 -0.128972 0
M  V30 4506 H 438.103 1.5587 -0.968337 0
M  V30 4507 H 436.485 3.95875 0.0994046 0
M  V30 4508 H 437.659 3.6991 -2.74779 0
M  V30 4509 H 435.974 3.43459 -2.35425 0
M  V30 4510 H 438.571 5.33709 -0.325405 0
M  V30 4511 H 438.914 4.07827 0.835646 0
M  V30 4512 H 439.447 3.88565 -0.852175 0
M  V30 4513 H 436.186 5.69864 -3.23937 0
M  V30 4514 H 435.706 5.79964 -1.52977 0
M  V30 4515 H 437.385 6.14986 -2.01002 0
M  V30 4516 N 437.518 0.538854 1.48102 0
M  V30 4517 C 438.448 -0.207654 2.32575 0
M  V30 4518 C 439.429 -0.926559 1.4265 0
M  V30 4519 O 440.614 -0.91061 1.71527 0
M  V30 4520 C 437.744 -1.24957 3.24042 0
M  V30 4521 C 436.698 -0.648263 4.23062 0
M  V30 4522 C 436.024 -1.79348 5.03725 0
M  V30 4523 C 437.324 0.385897 5.20872 0
M  V30 4524 H 439.018 0.497534 2.95237 0
M  V30 4525 H 436.564 0.240715 1.41974 0
M  V30 4526 H 438.517 -1.77983 3.81969 0
M  V30 4527 H 437.241 -1.98446 2.59397 0
M  V30 4528 H 435.9 -0.139452 3.66335 0
M  V30 4529 H 435.548 -2.51696 4.35498 0
M  V30 4530 H 435.248 -1.39702 5.70751 0
M  V30 4531 H 436.772 -2.32735 5.64506 0
M  V30 4532 H 438.186 -0.057607 5.73271 0
M  V30 4533 H 436.583 0.700227 5.96001 0
M  V30 4534 H 437.653 1.28848 4.67468 0
M  V30 4535 N 438.996 -1.55193 0.274407 0
M  V30 4536 C 440.221 -2.04446 -0.348824 0
M  V30 4537 C 440.646 -1.15149 -1.48735 0
M  V30 4538 O 440.004 -0.149952 -1.80679 0
M  V30 4539 C 440.052 -3.51431 -0.808009 0
M  V30 4540 O 439.156 -3.65225 -1.91531 0
M  V30 4541 H 438.497 -0.66006 -0.0722276 0
M  V30 4542 H 441.027 -2.00481 0.408498 0
M  V30 4543 H 441.037 -3.92781 -1.10395 0
M  V30 4544 H 439.712 -4.15892 0.0249865 0
M  V30 4545 H 438.289 -3.35778 -1.62196 0
M  V30 4546 N 440.474 -0.00167713 -1.576 0
M  V30 4547 C 441.72 0.683832 -1.90923 0
M  V30 4548 C 442.053 1.7333 -0.875799 0
M  V30 4549 O 441.328 1.94215 0.10525 0
M  V30 4550 C 441.611 1.32543 -3.3482 0
M  V30 4551 C 441.464 0.287387 -4.48881 0
M  V30 4552 C 442.783 2.25114 -3.78169 0
M  V30 4553 H 439.902 0.247125 -0.694333 0
M  V30 4554 H 442.544 -0.0533149 -1.89925 0
M  V30 4555 H 440.694 1.95372 -3.35801 0
M  V30 4556 H 442.366 -0.341346 -4.60035 0
M  V30 4557 H 440.609 -0.39017 -4.32042 0
M  V30 4558 H 441.28 0.775393 -5.46527 0
M  V30 4559 H 443.756 1.723 -3.7875 0
M  V30 4560 H 442.632 2.66971 -4.79602 0
M  V30 4561 H 442.893 3.13092 -3.12131 0
M  V30 4562 N 441.952 1.55251 0.271103 0
M  V30 4563 C 442.915 1.87484 1.31842 0
M  V30 4564 C 443.915 0.749545 1.42262 0
M  V30 4565 O 445.105 1.01771 1.4138 0
M  V30 4566 C 442.237 2.0818 2.69951 0
M  V30 4567 H 443.43 2.81108 1.0449 0
M  V30 4568 H 440.983 1.47771 0.509258 0
M  V30 4569 H 441.718 1.16944 3.02481 0
M  V30 4570 H 441.503 2.90114 2.63774 0
M  V30 4571 H 442.993 2.34385 3.4562 0
M  V30 4572 N 443.43 -0.535701 1.48216 0
M  V30 4573 C 444.363 -1.65726 1.56876 0
M  V30 4574 C 445.341 -1.57094 0.419542 0
M  V30 4575 O 446.525 -1.77648 0.630352 0
M  V30 4576 C 443.652 -3.04096 1.49142 0
M  V30 4577 C 442.698 -3.31105 2.68834 0
M  V30 4578 S 443.531 -3.18001 4.30854 0
M  V30 4579 C 444.687 -4.58828 4.25709 0
M  V30 4580 H 444.92 -1.58129 2.51759 0
M  V30 4581 H 442.453 -0.718218 1.36678 0
M  V30 4582 H 444.411 -3.839 1.45366 0
M  V30 4583 H 443.072 -3.09139 0.556067 0
M  V30 4584 H 442.265 -4.32033 2.59545 0
M  V30 4585 H 441.867 -2.58961 2.69843 0
M  V30 4586 H 444.159 -5.5023 3.95289 0
M  V30 4587 H 445.102 -4.73172 5.26796 0
M  V30 4588 H 445.51 -4.37883 3.56257 0
M  V30 4589 N 444.908 -1.36708 -0.784132 0
M  V30 4590 C 445.841 -1.25827 -1.90375 0
M  V30 4591 C 446.819 -0.141331 -1.61985 0
M  V30 4592 O 448.003 -0.313389 -1.85877 0
M  V30 4593 C 445.13 -0.942621 -3.25319 0
M  V30 4594 C 444.176 -2.07474 -3.72635 0
M  V30 4595 S 445.009 -3.69317 -3.8777 0
M  V30 4596 C 446.165 -3.39876 -5.25581 0
M  V30 4597 H 446.398 -2.20593 -1.99314 0
M  V30 4598 H 443.931 -1.22186 -0.943926 0
M  V30 4599 H 445.889 -0.767321 -4.03265 0
M  V30 4600 H 444.55 -0.0126566 -3.14097 0
M  V30 4601 H 443.743 -1.80858 -4.70432 0
M  V30 4602 H 443.345 -2.20953 -3.01754 0
M  V30 4603 H 445.637 -2.94097 -6.10339 0
M  V30 4604 H 446.58 -4.36956 -5.57203 0
M  V30 4605 H 446.988 -2.75098 -4.92931 0
M  V30 4606 N 446.386 1.0089 -1.21074 0
M  V30 4607 C 447.316 2.1145 -0.990523 0
M  V30 4608 C 448.297 1.69897 0.0831699 0
M  V30 4609 O 449.482 1.94052 -0.0758853 0
M  V30 4610 C 446.612 3.42914 -0.550177 0
M  V30 4611 C 445.566 3.98244 -1.56799 0
M  V30 4612 C 444.892 5.25568 -0.984013 0
M  V30 4613 C 446.192 4.30752 -2.95381 0
M  V30 4614 H 447.886 2.3013 -1.91521 0
M  V30 4615 H 445.432 1.10592 -0.92225 0
M  V30 4616 H 447.385 4.19653 -0.383305 0
M  V30 4617 H 446.109 3.24014 0.41015 0
M  V30 4618 H 444.768 3.23621 -1.72236 0
M  V30 4619 H 444.416 5.02998 -0.0155216 0
M  V30 4620 H 444.116 5.63551 -1.66384 0
M  V30 4621 H 445.64 6.04955 -0.828378 0
M  V30 4622 H 447.054 4.98349 -2.8341 0
M  V30 4623 H 445.451 4.79869 -3.60341 0
M  V30 4624 H 446.521 3.39192 -3.46521 0
M  V30 4625 N 447.864 1.01787 1.20321 0
M  V30 4626 C 449.28 0.732951 1.41774 0
M  V30 4627 C 449.48 -0.686883 1.89431 0
M  V30 4628 O 448.536 -1.45446 2.06402 0
M  V30 4629 C 449.849 1.75973 2.43832 0
M  V30 4630 C 451.397 1.77802 2.57596 0
M  V30 4631 C 451.872 2.7941 3.62897 0
M  V30 4632 N 453.363 2.78157 3.70382 0
M  V30 4633 C 454.098 3.53434 4.51521 0
M  V30 4634 N 453.594 4.38392 5.36455 0
M  V30 4635 N 455.387 3.42026 4.46066 0
M  V30 4636 H 447.538 1.93447 0.877035 0
M  V30 4637 H 449.801 0.835712 0.447536 0
M  V30 4638 H 449.507 2.77699 2.15815 0
M  V30 4639 H 449.381 1.57292 3.4284 0
M  V30 4640 H 451.768 0.767602 2.84942 0
M  V30 4641 H 451.849 2.00557 1.58779 0
M  V30 4642 H 451.493 3.80616 3.36295 0
M  V30 4643 H 451.423 2.53916 4.61339 0
M  V30 4644 H 453.914 2.16531 3.09714 0
M  V30 4645 H 454.227 4.92596 5.95457 0
M  V30 4646 H 452.572 4.4247 5.35953 0
M  V30 4647 H 455.763 2.75075 3.78749 0
M  V30 4648 H 455.936 4.00946 5.09064 0
M  V30 4649 N 449.342 -1.36122 0.79427 0
M  V30 4650 C 450.292 -2.27373 0.169017 0
M  V30 4651 C 451.276 -1.4719 -0.649913 0
M  V30 4652 O 452.468 -1.69518 -0.50919 0
M  V30 4653 C 449.597 -3.36264 -0.691455 0
M  V30 4654 C 448.683 -4.2388 0.13653 0
M  V30 4655 N 449.074 -4.91519 1.19345 0
M  V30 4656 C 447.372 -4.45921 -0.0838499 0
M  V30 4657 C 448.073 -5.56369 1.6979 0
M  V30 4658 N 447.049 -5.34204 1.00634 0
M  V30 4659 H 450.851 -2.77154 0.977897 0
M  V30 4660 H 448.365 -1.49504 0.634208 0
M  V30 4661 H 450.362 -4.00572 -1.15534 0
M  V30 4662 H 449.022 -2.88037 -1.49883 0
M  V30 4663 H 450.033 -4.9334 1.57594 0
M  V30 4664 H 446.71 -4.08518 -0.861341 0
M  V30 4665 H 448.1 -6.20368 2.58055 0
M  V30 4666 N 450.82 -0.546701 -1.47814 0
M  V30 4667 C 452.045 -0.021268 -2.07389 0
M  V30 4668 C 452.47 1.25822 -1.39822 0
M  V30 4669 O 451.828 1.75111 -0.46968 0
M  V30 4670 C 451.876 0.168502 -3.60206 0
M  V30 4671 O 450.98 1.23347 -3.93522 0
M  V30 4672 H 450.321 -0.0466108 -0.662362 0
M  V30 4673 H 452.851 -0.759387 -1.89985 0
M  V30 4674 H 452.861 0.385982 -4.0617 0
M  V30 4675 H 451.536 -0.766075 -4.08784 0
M  V30 4676 H 450.113 0.997319 -3.59316 0
M  V30 4677 N 452.299 1.55045 -0.282633 0
M  V30 4678 C 453.229 2.2579 0.595066 0
M  V30 4679 C 454.21 1.25074 1.15284 0
M  V30 4680 O 455.395 1.5381 1.18559 0
M  V30 4681 C 452.525 2.98472 1.77572 0
M  V30 4682 C 451.479 4.0618 1.34914 0
M  V30 4683 C 450.805 4.66477 2.6135 0
M  V30 4684 C 452.105 5.1996 0.493821 0
M  V30 4685 H 453.799 2.994 0.00505653 0
M  V30 4686 H 451.345 1.44 0.000992001 0
M  V30 4687 H 453.298 3.46677 2.39568 0
M  V30 4688 H 452.022 2.2241 2.39168 0
M  V30 4689 H 450.681 3.58797 0.752338 0
M  V30 4690 H 450.329 3.87074 3.2122 0
M  V30 4691 H 450.029 5.39207 2.33516 0
M  V30 4692 H 451.553 5.17435 3.24181 0
M  V30 4693 H 452.967 5.64172 1.01898 0
M  V30 4694 H 451.364 5.99299 0.310047 0
M  V30 4695 H 452.434 4.82462 -0.485593 0
M  V30 4696 N 453.777 0.010035 1.57597 0
M  V30 4697 C 454.725 -0.996272 2.10184 0
M  V30 4698 C 455.719 -1.34942 1.02406 0
M  V30 4699 O 456.925 -1.33389 1.20861 0
M  V30 4700 H 453.3 -0.338982 0.671264 0
M  V30 4701 H 455.271 -0.527272 2.93705 0
M  V30 4702 C 454.02 -2.27599 2.62857 0
M  V30 4703 H 453.343 -2.01295 3.45428 0
M  V30 4704 H 454.783 -2.96265 3.0332 0
M  V30 4705 C 453.242 -2.99269 1.54725 0
M  V30 4706 O 453.772 -3.90644 0.93597 0
M  V30 4707 N 451.978 -2.61269 1.27228 0
M  V30 4708 H 451.525 -1.87043 1.77123 0
M  V30 4709 H 451.483 -3.09534 0.550999 0
M  V30 4710 N 455.255 -1.55392 -0.262866 0
M  V30 4711 C 456.218 -1.88181 -1.30846 0
M  V30 4712 C 457.218 -0.757079 -1.41862 0
M  V30 4713 O 458.408 -1.02519 -1.40838 0
M  V30 4714 C 455.54 -2.09609 -2.68844 0
M  V30 4715 H 456.733 -2.81659 -1.02997 0
M  V30 4716 H 454.286 -1.48039 -0.501414 0
M  V30 4717 H 455.021 -1.18547 -3.01856 0
M  V30 4718 H 454.806 -2.91508 -2.62231 0
M  V30 4719 H 456.296 -2.36215 -3.44372 0
M  V30 4720 N 456.733 0.527833 -1.48498 0
M  V30 4721 C 457.643 1.65907 -1.65867 0
M  V30 4722 C 458.659 1.6537 -0.541192 0
M  V30 4723 O 459.835 1.84282 -0.812534 0
M  V30 4724 C 456.9 3.02364 -1.69637 0
M  V30 4725 C 455.961 3.1374 -2.93028 0
M  V30 4726 C 455.194 4.43688 -2.96609 0
M  V30 4727 O 455.417 5.30913 -2.08538 0
M  V30 4728 O 454.351 4.59475 -3.88802 0
M  V30 4729 H 458.177 1.5419 -2.61647 0
M  V30 4730 H 455.762 0.701163 -1.31924 0
M  V30 4731 H 457.644 3.83515 -1.74625 0
M  V30 4732 H 456.319 3.14401 -0.770312 0
M  V30 4733 H 455.226 2.31877 -2.93571 0
M  V30 4734 H 456.559 3.06621 -3.85026 0
M  V30 4735 N 458.211 1.37122 0.776871 0
M  V30 4736 C 459.622 1.28667 1.35284 0
M  V30 4737 C 459.973 -0.0680035 1.96082 0
M  V30 4738 O 459.098 -0.969743 1.93455 0
M  V30 4739 C 459.693 2.32997 2.45963 0
M  V30 4740 C 458.252 2.28191 2.99342 0
M  V30 4741 C 457.399 2.17101 1.72517 0
M  V30 4742 H 460.35 1.47819 0.577527 0
M  V30 4743 H 460.371 1.97366 3.2531 0
M  V30 4744 H 459.883 3.3158 2.01684 0
M  V30 4745 H 457.984 1.33115 3.4801 0
M  V30 4746 H 458.097 3.21397 3.55304 0
M  V30 4747 H 456.461 1.63562 1.95242 0
M  V30 4748 H 457.244 3.17591 1.30348 0
M  V30 4749 N 459.689 -1.00246 1.21608 0
M  V30 4750 C 460.935 -1.74417 1.04643 0
M  V30 4751 C 461.29 -1.87862 -0.415387 0
M  V30 4752 O 460.583 -1.40373 -1.30407 0
M  V30 4753 C 460.777 -3.15448 1.68009 0
M  V30 4754 C 460.606 -3.15755 3.20201 0
M  V30 4755 C 459.376 -3.2219 3.89258 0
M  V30 4756 C 461.574 -3.00668 4.17257 0
M  V30 4757 N 459.556 -3.1215 5.28617 0
M  V30 4758 C 460.927 -2.98553 5.43384 0
M  V30 4759 C 462.982 -2.84989 4.08272 0
M  V30 4760 C 461.685 -2.82364 6.61561 0
M  V30 4761 C 463.711 -2.70158 5.26088 0
M  V30 4762 C 463.073 -2.68721 6.51128 0
M  V30 4763 H 459.172 -0.648317 0.437274 0
M  V30 4764 H 461.756 -1.19129 1.54001 0
M  V30 4765 H 459.927 -3.69001 1.21215 0
M  V30 4766 H 461.659 -3.78128 1.44226 0
M  V30 4767 H 458.414 -3.29488 3.40198 0
M  V30 4768 H 458.838 -3.10465 6.01615 0
M  V30 4769 H 463.48 -2.84904 3.12393 0
M  V30 4770 H 461.198 -2.81196 7.57598 0
M  V30 4771 H 464.784 -2.59022 5.20959 0
M  V30 4772 H 463.664 -2.57382 7.40759 0
M  V30 4773 N 461.167 -1.02423 -1.1978 0
M  V30 4774 C 462.13 -0.605703 -2.21052 0
M  V30 4775 C 463.13 0.328209 -1.57415 0
M  V30 4776 O 464.32 0.115853 -1.73814 0
M  V30 4777 C 461.452 0.114366 -3.40708 0
M  V30 4778 H 462.645 -1.5017 -2.59594 0
M  V30 4779 H 460.198 -0.814888 -1.33376 0
M  V30 4780 H 460.933 1.02492 -3.07678 0
M  V30 4781 H 460.718 -0.556641 -3.88129 0
M  V30 4782 H 462.208 0.394272 -4.15735 0
M  V30 4783 N 462.645 1.35699 -0.801477 0
M  V30 4784 C 463.577 2.28598 -0.166028 0
M  V30 4785 C 464.59 1.50044 0.631721 0
M  V30 4786 O 465.779 1.72339 0.464921 0
M  V30 4787 C 462.879 3.29625 0.787451 0
M  V30 4788 C 462.052 4.37384 0.037171 0
M  V30 4789 C 461.111 5.183 0.908375 0
M  V30 4790 O 460.137 5.68053 0.361189 0
M  V30 4791 N 461.339 5.35912 2.23112 0
M  V30 4792 H 464.104 2.83771 -0.964071 0
M  V30 4793 H 461.665 1.47994 -0.656469 0
M  V30 4794 H 463.657 3.80648 1.37439 0
M  V30 4795 H 462.227 2.75004 1.48632 0
M  V30 4796 H 461.447 3.87364 -0.730935 0
M  V30 4797 H 462.735 5.0653 -0.480109 0
M  V30 4798 H 462.133 4.97125 2.69968 0
M  V30 4799 H 460.69 5.90133 2.76741 0
M  V30 4800 N 464.123 0.554532 1.47522 0
M  V30 4801 C 465.539 0.214107 1.58157 0
M  V30 4802 C 465.739 -1.28331 1.55349 0
M  V30 4803 O 464.795 -2.06329 1.45549 0
M  V30 4804 C 466.108 0.838391 2.88776 0
M  V30 4805 C 467.656 0.809374 3.02354 0
M  V30 4806 C 468.131 1.41268 4.35669 0
M  V30 4807 N 469.622 1.37574 4.42298 0
M  V30 4808 C 470.357 1.8122 5.4401 0
M  V30 4809 N 469.853 2.3271 6.52547 0
M  V30 4810 N 471.646 1.72307 5.35039 0
M  V30 4811 H 463.797 1.52744 1.4759 0
M  V30 4812 H 466.06 0.636812 0.702264 0
M  V30 4813 H 465.766 1.89065 2.96559 0
M  V30 4814 H 465.64 0.329847 3.75755 0
M  V30 4815 H 468.027 -0.234187 2.94169 0
M  V30 4816 H 468.108 1.35565 2.16924 0
M  V30 4817 H 467.752 2.45529 4.4461 0
M  V30 4818 H 467.682 0.841871 5.19827 0
M  V30 4819 H 470.173 0.999081 3.64454 0
M  V30 4820 H 470.486 2.63944 7.26329 0
M  V30 4821 H 468.831 2.36719 6.53444 0
M  V30 4822 H 472.022 1.3186 4.49144 0
M  V30 4823 H 472.195 2.06641 6.14169 0
M  V30 4824 N 465.601 -1.54893 0.290851 0
M  V30 4825 C 466.847 -2.0023 -0.321867 0
M  V30 4826 C 467.18 -1.179 -1.54316 0
M  V30 4827 O 466.455 -0.25293 -1.92848 0
M  V30 4828 C 466.738 -3.53456 -0.688515 0
M  V30 4829 C 466.591 -4.46532 0.541209 0
M  V30 4830 C 467.91 -4.13057 -1.51895 0
M  V30 4831 H 465.029 -0.727891 -0.115515 0
M  V30 4832 H 467.671 -1.85722 0.400931 0
M  V30 4833 H 465.821 -3.6595 -1.30433 0
M  V30 4834 H 467.493 -4.4596 1.17973 0
M  V30 4835 H 465.736 -4.17545 1.17636 0
M  V30 4836 H 466.407 -5.51475 0.240675 0
M  V30 4837 H 468.883 -4.03937 -0.99872 0
M  V30 4838 H 467.759 -5.20448 -1.74429 0
M  V30 4839 H 468.02 -3.64284 -2.50498 0
M  V30 4840 N 467.08 -0.0183926 -1.57589 0
M  V30 4841 C 467.99 0.982943 -2.13015 0
M  V30 4842 C 469.006 1.36443 -1.07979 0
M  V30 4843 O 470.182 1.44802 -1.3998 0
M  V30 4844 C 467.247 2.25024 -2.63752 0
M  V30 4845 C 466.308 1.93018 -3.83461 0
M  V30 4846 C 465.541 3.13706 -4.31769 0
M  V30 4847 O 465.764 4.2601 -3.79305 0
M  V30 4848 O 464.698 2.96629 -5.23732 0
M  V30 4849 H 468.524 0.541709 -2.9883 0
M  V30 4850 H 466.109 0.201565 -1.48034 0
M  V30 4851 H 467.991 2.99441 -2.96502 0
M  V30 4852 H 466.666 2.68349 -1.81026 0
M  V30 4853 H 465.573 1.16019 -3.55655 0
M  V30 4854 H 466.906 1.54516 -4.67317 0
M  V30 4855 N 468.558 1.5553 0.254621 0
M  V30 4856 C 469.521 1.88872 1.29846 0
M  V30 4857 C 470.521 0.764591 1.41459 0
M  V30 4858 O 471.711 1.03265 1.40293 0
M  V30 4859 C 468.843 2.11032 2.67728 0
M  V30 4860 H 470.036 2.82201 1.01502 0
M  V30 4861 H 467.589 1.48303 0.493556 0
M  V30 4862 H 468.324 1.20146 3.01223 0
M  V30 4863 H 468.109 2.92895 2.60682 0
M  V30 4864 H 469.599 2.38038 3.43115 0
M  V30 4865 N 470.036 -0.519951 1.48776 0
M  V30 4866 C 470.999 -1.60574 1.6355 0
M  V30 4867 C 471.999 -1.52557 0.508234 0
M  V30 4868 O 473.189 -1.56047 0.774262 0
M  V30 4869 C 470.321 -3.00211 1.61512 0
M  V30 4870 H 471.514 -1.4881 2.60376 0
M  V30 4871 H 469.067 -0.742772 1.37523 0
M  V30 4872 H 469.802 -3.17471 0.662009 0
M  V30 4873 H 469.587 -3.07439 2.43359 0
M  V30 4874 H 471.077 -3.79134 1.75064 0
M  V30 4875 N 471.514 -1.37532 -0.769588 0
M  V30 4876 C 472.76 -1.33057 -1.53048 0
M  V30 4877 C 473.093 0.0841865 -1.94017 0
M  V30 4878 O 472.368 1.04198 -1.64235 0
M  V30 4879 C 472.651 -2.27166 -2.79406 0
M  V30 4880 C 472.504 -3.77429 -2.44677 0
M  V30 4881 C 473.823 -2.19683 -3.81349 0
M  V30 4882 H 470.942 -0.484655 -0.555228 0
M  V30 4883 H 473.584 -1.68251 -0.882702 0
M  V30 4884 H 471.734 -1.97283 -3.34682 0
M  V30 4885 H 473.406 -4.17918 -1.953 0
M  V30 4886 H 471.649 -3.95892 -1.77346 0
M  V30 4887 H 472.32 -4.38716 -3.35011 0
M  V30 4888 H 474.796 -2.46029 -3.35573 0
M  V30 4889 H 473.672 -2.87668 -4.67481 0
M  V30 4890 H 473.933 -1.19045 -4.25771 0
M  V30 4891 N 472.992 0.995999 -1.22138 0
M  V30 4892 C 473.924 2.08745 -0.946485 0
M  V30 4893 C 474.937 1.62633 0.0737356 0
M  V30 4894 O 476.126 1.77782 -0.159886 0
M  V30 4895 C 473.226 3.36516 -0.401305 0
M  V30 4896 C 472.399 4.11672 -1.47801 0
M  V30 4897 C 471.458 5.17728 -0.940461 0
M  V30 4898 O 470.484 5.45482 -1.62596 0
M  V30 4899 N 471.686 5.80005 0.239723 0
M  V30 4900 H 474.451 2.32908 -1.88611 0
M  V30 4901 H 472.012 1.16152 -1.12785 0
M  V30 4902 H 474.004 4.04691 -0.0270837 0
M  V30 4903 H 472.574 3.0944 0.443354 0
M  V30 4904 H 471.794 3.38171 -2.02568 0
M  V30 4905 H 473.082 4.58657 -2.20253 0
M  V30 4906 H 472.48 5.5982 0.813518 0
M  V30 4907 H 471.037 6.4943 0.555361 0
M  V30 4908 N 474.47 1.03057 1.19235 0
M  V30 4909 C 475.886 0.747947 1.40989 0
M  V30 4910 C 476.086 -0.666752 1.90149 0
M  V30 4911 O 475.142 -1.43249 2.07933 0
M  V30 4912 C 476.455 1.7855 2.41951 0
M  V30 4913 C 478.003 1.80524 2.55695 0
M  V30 4914 C 478.478 2.83243 3.59913 0
M  V30 4915 N 479.969 2.8207 3.67411 0
M  V30 4916 C 480.704 3.58204 4.47747 0
M  V30 4917 N 480.2 4.44057 5.31775 0
M  V30 4918 N 481.993 3.46738 4.42413 0
M  V30 4919 H 474.144 1.94367 0.856468 0
M  V30 4920 H 476.407 0.840412 0.438647 0
M  V30 4921 H 476.113 2.79973 2.12857 0
M  V30 4922 H 475.987 1.6092 3.41152 0
M  V30 4923 H 478.374 0.79778 2.84112 0
M  V30 4924 H 478.455 2.02229 1.56643 0
M  V30 4925 H 478.099 3.84161 3.32239 0
M  V30 4926 H 478.029 2.58795 4.5862 0
M  V30 4927 H 480.52 2.19803 3.074 0
M  V30 4928 H 480.833 4.98884 5.90199 0
M  V30 4929 H 479.178 4.48129 5.3123 0
M  V30 4930 H 482.369 2.79077 3.75811 0
M  V30 4931 H 482.542 4.06322 5.04783 0
M  V30 4932 N 475.948 -1.35272 0.808662 0
M  V30 4933 C 477.194 -1.99003 0.390581 0
M  V30 4934 C 477.527 -1.63999 -1.0401 0
M  V30 4935 O 476.802 -0.904368 -1.72196 0
M  V30 4936 C 477.085 -3.55454 0.576566 0
M  V30 4937 C 476.938 -4.00249 2.05233 0
M  V30 4938 C 478.257 -4.401 0.00354277 0
M  V30 4939 H 475.376 -0.722917 0.143388 0
M  V30 4940 H 478.018 -1.6039 1.01858 0
M  V30 4941 H 476.168 -3.88477 0.0419766 0
M  V30 4942 H 477.84 -3.77626 2.64946 0
M  V30 4943 H 476.083 -3.51082 2.54801 0
M  V30 4944 H 476.754 -5.0911 2.13333 0
M  V30 4945 H 479.23 -4.13548 0.460117 0
M  V30 4946 H 478.106 -5.48656 0.163575 0
M  V30 4947 H 478.367 -4.28444 -1.09032 0
M  V30 4948 N 477.426 -0.562348 -1.47226 0
M  V30 4949 C 478.356 0.170627 -2.32876 0
M  V30 4950 C 479.337 0.903748 -1.44106 0
M  V30 4951 O 480.522 0.883206 -1.72954 0
M  V30 4952 C 477.652 1.19786 -3.25989 0
M  V30 4953 C 476.606 0.580875 -4.2404 0
M  V30 4954 C 475.932 1.71311 -5.06514 0
M  V30 4955 C 477.232 -0.468714 -5.20193 0
M  V30 4956 H 478.926 -0.544441 -2.94408 0
M  V30 4957 H 476.472 -0.263271 -1.41573 0
M  V30 4958 H 478.425 1.71884 -3.84752 0
M  V30 4959 H 477.149 1.94294 -2.62521 0
M  V30 4960 H 475.808 0.0811538 -3.6651 0
M  V30 4961 H 475.456 2.44736 -4.39447 0
M  V30 4962 H 475.156 1.30604 -5.72902 0
M  V30 4963 H 476.68 2.23725 -5.68137 0
M  V30 4964 H 478.094 -0.0336028 -5.7329 0
M  V30 4965 H 476.491 -0.794957 -5.94811 0
M  V30 4966 H 477.561 -1.36269 -4.65359 0
M  V30 4967 N 478.904 1.54736 -0.299062 0
M  V30 4968 C 480.181 1.92187 0.363802 0
M  V30 4969 C 480.561 1.22607 1.71845 0
M  V30 4970 O 479.909 0.361141 2.25628 0
M  V30 4971 C 480.119 3.45678 0.480377 0
M  V30 4972 C 481.467 4.17885 0.752147 0
M  V30 4973 O 482.491 3.51702 0.564264 0
M  V30 4974 O 481.35 5.35048 1.11294 0
M  V30 4975 H 478.444 0.801681 0.203066 0
M  V30 4976 H 480.99 1.66115 -0.346978 0
M  V30 4977 H 479.762 3.88443 -0.471999 0
M  V30 4978 H 479.385 3.77779 1.2397 0
M  V30 4979 N 480.382 0.0267497 1.57577 0
M  V30 4980 C 481.314 -0.984594 2.06974 0
M  V30 4981 C 482.327 -1.29032 0.992705 0
M  V30 4982 O 483.516 -1.25539 1.26895 0
M  V30 4983 C 480.616 -2.31262 2.47732 0
M  V30 4984 C 479.789 -2.1924 3.78487 0
M  V30 4985 C 478.848 -3.34956 4.05821 0
M  V30 4986 O 477.874 -3.11948 4.76106 0
M  V30 4987 N 479.076 -4.58672 3.55809 0
M  V30 4988 H 481.841 -0.563143 2.94362 0
M  V30 4989 H 479.402 -0.160061 1.61107 0
M  V30 4990 H 481.394 -3.07496 2.63112 0
M  V30 4991 H 479.964 -2.65056 1.65723 0
M  V30 4992 H 479.184 -1.27747 3.72927 0
M  V30 4993 H 480.472 -2.08409 4.64158 0
M  V30 4994 H 479.87 -4.8026 2.98942 0
M  V30 4995 H 478.427 -5.32083 3.76472 0
M  V30 4996 N 481.861 -1.55662 -0.24637 0
M  V30 4997 C 483.109 -1.77168 -0.972411 0
M  V30 4998 C 483.43 -0.590827 -1.85834 0
M  V30 4999 O 482.7 0.393365 -1.9191 0
M  V30 5000 H 481.28 -0.653405 -0.362038 0
M  V30 5001 H 483.942 -1.93101 -0.264189 0
M  V30 5002 H 483.038 -2.68335 -1.59382 0
M  V30 5003 N 483.339 0.512053 -1.4905 0
M  V30 5004 C 484.269 1.62365 -1.67809 0
M  V30 5005 C 485.25 1.61737 -0.526809 0
M  V30 5006 O 486.435 1.78651 -0.761404 0
M  V30 5007 C 483.565 3.00895 -1.73435 0
M  V30 5008 C 482.519 3.16387 -2.88242 0
M  V30 5009 C 481.845 4.56157 -2.78971 0
M  V30 5010 C 483.145 2.97457 -4.29321 0
M  V30 5011 H 484.839 1.46921 -2.60873 0
M  V30 5012 H 482.385 0.705379 -1.2554 0
M  V30 5013 H 484.338 3.78549 -1.85145 0
M  V30 5014 H 483.062 3.17403 -0.769619 0
M  V30 5015 H 481.721 2.41155 -2.76116 0
M  V30 5016 H 481.369 4.69525 -1.8043 0
M  V30 5017 H 481.069 4.67465 -3.5602 0
M  V30 5018 H 482.593 5.35886 -2.92675 0
M  V30 5019 H 484.007 3.64888 -4.42187 0
M  V30 5020 H 482.404 3.20245 -5.07507 0
M  V30 5021 H 483.474 1.93692 -4.44535 0
M  V30 5022 N 484.817 1.37938 0.762283 0
M  V30 5023 C 486.233 1.18945 1.06415 0
M  V30 5024 C 486.433 0.0321163 2.01474 0
M  V30 5025 O 485.489 -0.624844 2.44647 0
M  V30 5026 C 486.802 2.51218 1.65258 0
M  V30 5027 C 488.35 2.57824 1.7747 0
M  V30 5028 C 488.825 3.90251 2.39725 0
M  V30 5029 N 490.316 3.91744 2.47166 0
M  V30 5030 C 491.051 4.90966 2.96209 0
M  V30 5031 N 490.547 6.00585 3.45354 0
M  V30 5032 N 492.34 4.78363 2.9517 0
M  V30 5033 H 484.491 2.11994 0.131301 0
M  V30 5034 H 486.754 0.940262 0.120879 0
M  V30 5035 H 486.46 3.36317 1.02878 0
M  V30 5036 H 486.334 2.68989 2.64433 0
M  V30 5037 H 488.721 1.73126 2.3898 0
M  V30 5038 H 488.802 2.43928 0.770241 0
M  V30 5039 H 488.446 4.75368 1.78852 0
M  V30 5040 H 488.376 4.01454 3.40796 0
M  V30 5041 H 490.867 3.12563 2.12397 0
M  V30 5042 H 491.18 6.72236 3.81207 0
M  V30 5043 H 489.525 6.04217 3.43434 0
M  V30 5044 H 492.716 3.91841 2.56082 0
M  V30 5045 H 492.889 5.55843 3.33081 0
M  V30 5046 N 486.295 -0.989507 1.22664 0
M  V30 5047 C 487.523 -1.76496 1.07967 0
M  V30 5048 C 487.938 -1.85148 -0.369543 0
M  V30 5049 O 487.295 -1.32408 -1.25596 0
M  V30 5050 C 487.346 -3.19642 1.68853 0
M  V30 5051 O 487.067 -3.11453 3.08105 0
M  V30 5052 C 488.568 -4.13621 1.59475 0
M  V30 5053 H 485.788 -0.55418 0.378319 0
M  V30 5054 H 488.332 -1.24378 1.62328 0
M  V30 5055 H 486.487 -3.68816 1.18547 0
M  V30 5056 H 486.901 -4.01499 3.37489 0
M  V30 5057 H 488.375 -5.11801 2.06795 0
M  V30 5058 H 488.852 -4.35718 0.55191 0
M  V30 5059 H 489.458 -3.70346 2.09103 0
M  V30 5060 N 487.773 -1.03688 -1.18687 0
M  V30 5061 C 488.736 -0.629115 -2.20397 0
M  V30 5062 C 489.736 0.311495 -1.57754 0
M  V30 5063 O 490.926 0.0974107 -1.73927 0
M  V30 5064 C 488.058 0.0782231 -3.4081 0
M  V30 5065 H 489.251 -1.52915 -2.57987 0
M  V30 5066 H 486.804 -0.828988 -1.32505 0
M  V30 5067 H 487.539 0.992233 -3.08748 0
M  V30 5068 H 487.324 -0.597776 -3.87517 0
M  V30 5069 H 488.814 0.350156 -4.16129 0
M  V30 5070 N 489.251 1.34841 -0.815825 0
M  V30 5071 C 490.528 1.92908 -0.323416 0
M  V30 5072 C 490.908 1.74479 1.18828 0
M  V30 5073 O 490.256 1.11928 1.99209 0
M  V30 5074 C 490.466 3.40957 -0.744952 0
M  V30 5075 C 491.814 4.18107 -0.739716 0
M  V30 5076 O 492.838 3.49511 -0.68708 0
M  V30 5077 O 491.697 5.40517 -0.806456 0
M  V30 5078 H 488.791 0.822436 -0.0867646 0
M  V30 5079 H 491.337 1.4386 -0.90014 0
M  V30 5080 H 490.109 3.4814 -1.78646 0
M  V30 5081 H 489.732 3.97341 -0.143535 0
M  V30 5082 N 490.729 0.570148 1.46925 0
M  V30 5083 C 491.978 0.0487352 2.01641 0
M  V30 5084 C 492.291 -1.31433 1.44861 0
M  V30 5085 O 493.497 -1.92638 1.91318 0
M  V30 5086 C 491.953 0.0365817 3.59881 0
M  V30 5087 C 491.561 1.39719 4.25655 0
M  V30 5088 C 493.305 -0.431545 4.22301 0
M  V30 5089 C 491.212 1.34345 5.75939 0
M  V30 5090 H 490.142 0.0144492 0.753862 0
M  V30 5091 H 492.793 0.719928 1.68788 0
M  V30 5092 H 491.175 -0.700522 3.89755 0
M  V30 5093 H 492.349 2.15303 4.07408 0
M  V30 5094 H 490.664 1.80431 3.75278 0
M  V30 5095 H 493.261 -0.490354 5.32447 0
M  V30 5096 H 493.604 -1.44638 3.90366 0
M  V30 5097 H 494.137 0.251102 3.97007 0
M  V30 5098 H 490.876 2.33469 6.12513 0
M  V30 5099 H 490.396 0.629615 5.96486 0
M  V30 5100 H 492.075 1.051 6.38407 0
M  V30 5101 N 492.207 -1.54576 0.307264 0
M  V30 5102 C 493.17 -2.22423 -0.553224 0
M  V30 5103 C 494.17 -1.21231 -1.05639 0
M  V30 5104 O 495.36 -1.45923 -0.951419 0
M  V30 5105 C 492.492 -2.91552 -1.76664 0
M  V30 5106 H 493.685 -2.99874 0.0396484 0
M  V30 5107 H 491.238 -1.56192 0.0581629 0
M  V30 5108 H 491.973 -2.18196 -2.39918 0
M  V30 5109 H 491.758 -3.65738 -1.41343 0
M  V30 5110 H 493.248 -3.43292 -2.37783 0
M  V30 5111 N 493.685 -0.035106 -1.57561 0
M  V30 5112 C 494.648 0.929819 -2.09492 0
M  V30 5113 C 495.648 1.25026 -1.01119 0
M  V30 5114 O 496.838 1.18961 -1.27255 0
M  V30 5115 C 493.97 2.24457 -2.56577 0
M  V30 5116 H 495.163 0.479935 -2.96035 0
M  V30 5117 H 492.716 0.213033 -1.54841 0
M  V30 5118 H 493.451 2.74061 -1.73382 0
M  V30 5119 H 493.236 2.02508 -3.35757 0
M  V30 5120 H 494.726 2.93607 -2.96959 0
M  V30 5121 N 495.163 1.55791 0.238111 0
M  V30 5122 C 496.574 1.68383 0.806472 0
M  V30 5123 C 496.925 0.634157 1.85669 0
M  V30 5124 O 496.05 -0.217913 2.153 0
M  V30 5125 C 496.645 3.05268 1.46959 0
M  V30 5126 C 495.204 3.1977 1.98555 0
M  V30 5127 C 494.351 2.64279 0.839763 0
M  V30 5128 H 497.302 1.58694 0.0137535 0
M  V30 5129 H 497.323 3.00203 2.33792 0
M  V30 5130 H 496.835 3.81643 0.704993 0
M  V30 5131 H 494.936 2.48234 2.77868 0
M  V30 5132 H 495.049 4.26788 2.17689 0
M  V30 5133 H 493.413 2.22329 1.24265 0
M  V30 5134 H 494.196 3.43187 0.0881032 0
M  V30 5135 N 496.642 -0.504142 1.49319 0
M  V30 5136 C 497.89 -1.25598 1.58334 0
M  V30 5137 C 498.211 -1.93114 0.270538 0
M  V30 5138 O 497.481 -1.82585 -0.709891 0
M  V30 5139 H 496.061 -0.466571 0.58337 0
M  V30 5140 H 498.723 -0.584547 1.85928 0
M  V30 5141 H 497.819 -2.02159 2.37778 0
M  V30 5142 N 498.12 -1.38341 -0.754957 0
M  V30 5143 C 499.348 -1.37704 -1.54419 0
M  V30 5144 C 499.763 0.0335243 -1.8877 0
M  V30 5145 O 499.12 0.999773 -1.52679 0
M  V30 5146 C 499.171 -2.23136 -2.84416 0
M  V30 5147 O 498.892 -3.58697 -2.51531 0
M  V30 5148 C 500.393 -2.30664 -3.78562 0
M  V30 5149 H 497.613 -0.471061 -0.477852 0
M  V30 5150 H 500.157 -1.81902 -0.934446 0
M  V30 5151 H 498.312 -1.82403 -3.41772 0
M  V30 5152 H 498.726 -4.03665 -3.34896 0
M  V30 5153 H 500.2 -2.9473 -4.66732 0
M  V30 5154 H 500.677 -1.3199 -4.18898 0
M  V30 5155 H 501.283 -2.71781 -3.27131 0
M  V30 5156 N 499.598 0.982988 -1.23187 0
M  V30 5157 C 501.009 1.53847 -1.05773 0
M  V30 5158 C 501.36 1.92568 0.375744 0
M  V30 5159 O 500.485 1.75783 1.26211 0
M  V30 5160 C 501.08 2.79567 -1.91384 0
M  V30 5161 C 499.639 3.31524 -1.78238 0
M  V30 5162 C 498.786 2.04534 -1.87246 0
M  V30 5163 H 501.737 0.802962 -1.36888 0
M  V30 5164 H 501.758 3.52317 -1.43711 0
M  V30 5165 H 501.27 2.51353 -2.95708 0
M  V30 5166 H 499.371 3.64623 -0.766875 0
M  V30 5167 H 499.484 4.01457 -2.61475 0
M  V30 5168 H 497.848 2.1855 -1.30797 0
M  V30 5169 H 498.631 1.78706 -2.9312 0
M  V30 5170 N 501.076 1.04316 1.18135 0
M  V30 5171 C 502.322 0.749128 1.88457 0
M  V30 5172 C 502.655 -0.72149 1.803 0
M  V30 5173 O 501.93 -1.52676 1.205 0
M  V30 5174 C 502.213 1.21905 3.38838 0
M  V30 5175 C 502.066 2.75195 3.55792 0
M  V30 5176 C 503.385 0.811085 4.32561 0
M  V30 5177 H 500.504 0.273611 0.684329 0
M  V30 5178 H 503.146 1.29561 1.38975 0
M  V30 5179 H 501.296 0.754137 3.8111 0
M  V30 5180 H 502.968 3.29743 3.22595 0
M  V30 5181 H 501.211 3.14899 2.98364 0
M  V30 5182 H 501.882 3.03135 4.61317 0
M  V30 5183 H 504.358 1.21118 3.98082 0
M  V30 5184 H 503.234 1.16761 5.36338 0
M  V30 5185 H 503.495 -0.285596 4.41177 0
M  V30 5186 N 502.554 -1.34406 0.822964 0
M  V30 5187 C 503.803 -1.97542 0.407458 0
M  V30 5188 C 504.116 -1.65973 -1.035 0
M  V30 5189 O 505.322 -2.22598 -1.55442 0
M  V30 5190 C 503.778 -3.53463 0.677623 0
M  V30 5191 C 503.386 -3.93925 2.1337 0
M  V30 5192 C 505.13 -4.23229 0.328284 0
M  V30 5193 C 503.037 -5.42759 2.34876 0
M  V30 5194 H 501.967 -0.739207 0.148623 0
M  V30 5195 H 504.618 -1.53248 1.00932 0
M  V30 5196 H 503 -3.96 0.00558965 0
M  V30 5197 H 504.174 -3.62494 2.8449 0
M  V30 5198 H 502.489 -3.37097 2.44448 0
M  V30 5199 H 505.086 -5.32659 0.466794 0
M  V30 5200 H 505.429 -4.09899 -0.727224 0
M  V30 5201 H 505.962 -3.86169 0.954896 0
M  V30 5202 H 502.701 -5.61075 3.38932 0
M  V30 5203 H 502.221 -5.75704 1.68299 0
M  V30 5204 H 503.9 -6.0944 2.17236 0
M  V30 5205 N 504.032 -0.577932 -1.46621 0
M  V30 5206 C 505.28 -0.061566 -2.02006 0
M  V30 5207 C 505.601 1.30117 -1.4524 0
M  V30 5208 O 504.871 1.85313 -0.63529 0
M  V30 5209 H 503.451 -0.0197692 -0.746738 0
M  V30 5210 H 506.113 -0.752631 -1.79782 0
M  V30 5211 H 505.209 0.0110238 -3.12098 0
M  V30 5212 N 505.51 1.54411 -0.315457 0
M  V30 5213 C 506.738 2.04833 0.291738 0
M  V30 5214 C 507.153 1.19203 1.46411 0
M  V30 5215 O 506.51 0.220867 1.81159 0
M  V30 5216 C 506.561 3.53969 0.73404 0
M  V30 5217 O 506.282 4.36346 -0.391682 0
M  V30 5218 C 507.783 4.2045 1.40489 0
M  V30 5219 H 505.003 0.668195 0.0612947 0
M  V30 5220 H 507.547 1.99276 -0.45929 0
M  V30 5221 H 505.702 3.5984 1.43506 0
M  V30 5222 H 506.116 5.24481 -0.0447088 0
M  V30 5223 H 507.59 5.26278 1.66539 0
M  V30 5224 H 508.067 3.71067 2.3496 0
M  V30 5225 H 508.673 4.18694 0.746662 0
M  V30 5226 N 506.988 0.0434614 1.5754 0
M  V30 5227 C 507.935 -0.93356 2.11077 0
M  V30 5228 C 508.905 -1.31383 1.01626 0
M  V30 5229 O 510.09 -1.40465 1.29129 0
M  V30 5230 C 507.23 -2.20578 2.65404 0
M  V30 5231 C 506.343 -1.88068 3.88914 0
M  V30 5232 C 505.478 -3.09691 4.31584 0
M  V30 5233 C 504.517 -2.73067 5.47815 0
M  V30 5234 N 503.654 -3.87359 5.85574 0
M  V30 5235 H 508.494 -0.470118 2.94268 0
M  V30 5236 H 506.031 -0.220434 1.45439 0
M  V30 5237 H 507.989 -2.95011 2.94999 0
M  V30 5238 H 506.619 -2.64513 1.85021 0
M  V30 5239 H 505.671 -1.03816 3.6596 0
M  V30 5240 H 506.983 -1.57104 4.73413 0
M  V30 5241 H 506.137 -3.92431 4.62691 0
M  V30 5242 H 504.876 -3.43827 3.45882 0
M  V30 5243 H 503.881 -1.88742 5.16388 0
M  V30 5244 H 505.106 -2.40131 6.35227 0
M  V30 5245 H 503.052 -4.21311 5.02825 0
M  V30 5246 H 502.969 -3.60068 6.64746 0
M  V30 5247 H 504.237 -4.70761 6.21292 0
M  V30 5248 N 508.466 -1.55915 -0.229846 0
M  V30 5249 C 509.429 -1.90914 -1.26824 0
M  V30 5250 C 510.429 -0.786999 -1.40225 0
M  V30 5251 O 511.619 -1.05484 -1.38632 0
M  V30 5252 C 508.751 -2.15264 -2.64337 0
M  V30 5253 H 509.944 -2.8378 -0.969998 0
M  V30 5254 H 507.497 -1.49069 -0.4699 0
M  V30 5255 H 508.232 -1.24923 -2.99274 0
M  V30 5256 H 508.017 -2.97005 -2.55989 0
M  V30 5257 H 509.507 -2.43467 -3.39284 0
M  V30 5258 N 509.944 0.496216 -1.49584 0
M  V30 5259 C 510.877 1.61508 -1.61215 0
M  V30 5260 C 511.855 1.55927 -0.461045 0
M  V30 5261 O 513.039 1.75914 -0.677231 0
M  V30 5262 C 510.166 3.00035 -1.57152 0
M  V30 5263 C 509.212 3.23861 -2.77518 0
M  V30 5264 S 510.045 3.06466 -4.39134 0
M  V30 5265 C 511.201 4.4738 -4.37724 0
M  V30 5266 H 511.434 1.51398 -2.55863 0
M  V30 5267 H 508.967 0.681727 -1.38535 0
M  V30 5268 H 510.925 3.7991 -1.55494 0
M  V30 5269 H 509.586 3.07556 -0.637834 0
M  V30 5270 H 508.779 4.25 -2.70908 0
M  V30 5271 H 508.381 2.51716 -2.76614 0
M  V30 5272 H 510.673 5.39556 -4.09738 0
M  V30 5273 H 511.616 4.59038 -5.39156 0
M  V30 5274 H 512.024 4.28283 -3.67742 0
M  V30 5275 N 511.423 1.38739 0.74761 0
M  V30 5276 C 512.671 1.35007 1.50391 0
M  V30 5277 C 512.992 -0.0574274 1.94915 0
M  V30 5278 O 512.262 -1.00628 1.6808 0
M  V30 5279 H 510.842 0.496784 0.557866 0
M  V30 5280 H 513.504 1.73479 0.888319 0
M  V30 5281 H 512.6 2.00474 2.392 0
M  V30 5282 N 512.901 -0.976442 1.23707 0
M  V30 5283 C 513.864 -2.0511 1.02287 0
M  V30 5284 C 514.864 -1.60791 -0.0167195 0
M  V30 5285 O 516.054 -1.72761 0.223408 0
M  V30 5286 C 513.186 -3.36458 0.548507 0
M  V30 5287 H 514.379 -2.25545 1.9766 0
M  V30 5288 H 511.932 -1.15042 1.05806 0
M  V30 5289 H 512.667 -3.21713 -0.408818 0
M  V30 5290 H 512.452 -3.69967 1.29874 0
M  V30 5291 H 513.942 -4.15489 0.419406 0
M  V30 5292 N 514.379 -1.04941 -1.1758 0
M  V30 5293 C 515.342 -0.652456 -2.19717 0
M  V30 5294 C 516.342 0.294745 -1.58076 0
M  V30 5295 O 517.532 0.0789579 -1.74021 0
M  V30 5296 C 514.664 0.0420712 -3.40874 0
M  V30 5297 H 515.857 -1.55642 -2.5635 0
M  V30 5298 H 513.41 -0.842995 -1.31618 0
M  V30 5299 H 514.145 0.95943 -3.09783 0
M  V30 5300 H 513.93 -0.638844 -3.86861 0
M  V30 5301 H 515.42 0.306 -4.16477 0
M  V30 5302 N 515.857 1.33968 -0.830081 0
M  V30 5303 C 517.103 1.98357 -0.422191 0
M  V30 5304 C 517.436 1.65633 1.01387 0
M  V30 5305 O 516.711 0.931648 1.70735 0
M  V30 5306 C 516.994 3.54492 -0.633043 0
M  V30 5307 C 516.847 3.96934 -2.11574 0
M  V30 5308 C 518.166 4.40039 -0.0735584 0
M  V30 5309 H 515.285 0.720544 -0.154871 0
M  V30 5310 H 517.927 1.58749 -1.04397 0
M  V30 5311 H 516.077 3.88361 -0.103775 0
M  V30 5312 H 517.749 3.73363 -2.7092 0
M  V30 5313 H 515.992 3.46984 -2.60354 0
M  V30 5314 H 516.663 5.05651 -2.21406 0
M  V30 5315 H 519.139 4.12764 -0.52585 0
M  V30 5316 H 518.015 5.48327 -0.250841 0
M  V30 5317 H 518.276 4.30124 1.02202 0
M  V30 5318 N 517.335 0.585699 1.46312 0
M  V30 5319 C 518.581 0.0725284 2.0267 0
M  V30 5320 C 518.914 -1.28523 1.45586 0
M  V30 5321 O 518.189 -1.84283 0.622101 0
M  V30 5322 C 518.472 0.0099788 3.60099 0
M  V30 5323 C 518.325 1.39685 4.27561 0
M  V30 5324 C 519.644 -0.689117 4.34671 0
M  V30 5325 H 516.763 0.0278307 0.736474 0
M  V30 5326 H 519.405 0.753472 1.74421 0
M  V30 5327 H 517.555 -0.56992 3.84297 0
M  V30 5328 H 519.227 2.02215 4.14617 0
M  V30 5329 H 517.47 1.96374 3.86807 0
M  V30 5330 H 518.141 1.30553 5.36339 0
M  V30 5331 H 520.617 -0.196446 4.15636 0
M  V30 5332 H 519.493 -0.701921 5.44393 0
M  V30 5333 H 519.754 -1.75101 4.05946 0
M  V30 5334 N 518.813 -1.54241 0.323641 0
M  V30 5335 C 519.761 -2.25813 -0.557804 0
M  V30 5336 C 520.755 -1.27225 -1.11849 0
M  V30 5337 O 521.961 -1.45001 -1.06652 0
M  V30 5338 H 518.336 -0.72532 -0.198532 0
M  V30 5339 H 520.307 -2.98322 0.0681112 0
M  V30 5340 C 519.056 -3.02913 -1.70701 0
M  V30 5341 H 518.379 -3.78593 -1.28482 0
M  V30 5342 H 519.819 -3.56238 -2.29935 0
M  V30 5343 C 518.278 -2.11217 -2.62467 0
M  V30 5344 O 518.808 -1.69508 -3.64184 0
M  V30 5345 N 517.014 -1.76704 -2.30703 0
M  V30 5346 H 516.561 -2.1082 -1.48029 0
M  V30 5347 H 516.519 -1.15631 -2.92364 0
M  V30 5348 N 520.291 -0.0518155 -1.57515 0
M  V30 5349 C 521.254 0.907547 -2.10467 0
M  V30 5350 C 522.254 1.23947 -1.02439 0
M  V30 5351 O 523.444 1.17604 -1.2851 0
M  V30 5352 C 520.576 2.21723 -2.58944 0
M  V30 5353 H 521.769 0.44851 -2.96527 0
M  V30 5354 H 519.322 0.196598 -1.55059 0
M  V30 5355 H 520.057 2.72206 -1.76279 0
M  V30 5356 H 519.842 1.98935 -3.37886 0
M  V30 5357 H 521.332 2.90441 -3.00056 0
M  V30 5358 N 521.769 1.56035 0.221574 0
M  V30 5359 C 522.699 1.95434 1.2778 0
M  V30 5360 C 523.68 0.822564 1.48889 0
M  V30 5361 O 524.865 1.08486 1.61072 0
M  V30 5362 C 521.995 2.27102 2.62759 0
M  V30 5363 C 520.949 3.4277 2.56306 0
M  V30 5364 C 520.275 3.60043 3.95314 0
M  V30 5365 C 521.575 4.77742 2.11093 0
M  V30 5366 H 523.269 2.83912 0.950504 0
M  V30 5367 H 520.815 1.36596 0.455791 0
M  V30 5368 H 522.768 2.53256 3.36807 0
M  V30 5369 H 521.492 1.35478 2.97176 0
M  V30 5370 H 520.151 3.16664 1.84715 0
M  V30 5371 H 519.799 2.65794 4.27039 0
M  V30 5372 H 519.499 4.37841 3.91879 0
M  V30 5373 H 521.023 3.88545 4.71025 0
M  V30 5374 H 522.437 5.03102 2.74885 0
M  V30 5375 H 520.834 5.58823 2.18716 0
M  V30 5376 H 521.904 4.731 1.06321 0
M  V30 5377 N 523.247 -0.488276 1.49845 0
M  V30 5378 C 524.195 -1.60917 1.67954 0
M  V30 5379 C 525.189 -1.6038 0.54539 0
M  V30 5380 O 526.395 -1.64736 0.7254 0
M  V30 5381 H 522.77 -0.533658 0.529824 0
M  V30 5382 H 524.741 -1.428 2.62013 0
M  V30 5383 C 523.49 -2.98975 1.77509 0
M  V30 5384 H 522.813 -3.00099 2.6416 0
M  V30 5385 H 524.253 -3.76906 1.9421 0
M  V30 5386 C 522.712 -3.3282 0.522745 0
M  V30 5387 O 523.242 -4.00208 -0.345866 0
M  V30 5388 N 521.448 -2.8808 0.381882 0
M  V30 5389 H 520.995 -2.33415 1.08974 0
M  V30 5390 H 520.953 -3.11091 -0.454929 0
M  V30 5391 N 524.725 -1.39134 -0.740242 0
M  V30 5392 C 525.655 -1.40165 -1.86751 0
M  V30 5393 C 526.636 -0.265708 -1.68012 0
M  V30 5394 O 527.821 -0.47076 -1.88408 0
M  V30 5395 C 524.951 -1.2392 -3.2444 0
M  V30 5396 C 523.905 -2.34858 -3.57807 0
M  V30 5397 C 523.231 -2.03707 -4.94376 0
M  V30 5398 C 524.531 -3.77159 -3.61315 0
M  V30 5399 H 526.225 -2.345 -1.86145 0
M  V30 5400 H 523.771 -1.12875 -0.89416 0
M  V30 5401 H 525.724 -1.23263 -4.02969 0
M  V30 5402 H 524.448 -0.26051 -3.25559 0
M  V30 5403 H 523.107 -2.34723 -2.81604 0
M  V30 5404 H 522.755 -1.04289 -4.9207 0
M  V30 5405 H 522.455 -2.78016 -5.17669 0
M  V30 5406 H 523.979 -2.04691 -5.75268 0
M  V30 5407 H 525.393 -3.79252 -4.29931 0
M  V30 5408 H 523.79 -4.50784 -3.96124 0
M  V30 5409 H 524.86 -4.08513 -2.61238 0
M  V30 5410 N 526.204 0.969867 -1.24223 0
M  V30 5411 C 527.151 2.06407 -1.0327 0
M  V30 5412 C 528.121 1.66014 0.0533 0
M  V30 5413 O 529.306 1.90533 -0.100896 0
M  V30 5414 C 526.446 3.3909 -0.641262 0
M  V30 5415 C 525.559 3.9269 -1.80051 0
M  V30 5416 C 524.694 5.13631 -1.35486 0
M  V30 5417 C 523.733 5.59423 -2.48419 0
M  V30 5418 N 522.87 6.71586 -2.04737 0
M  V30 5419 H 527.71 2.23663 -1.96923 0
M  V30 5420 H 525.247 1.09624 -0.980862 0
M  V30 5421 H 527.205 4.15323 -0.395351 0
M  V30 5422 H 525.835 3.21765 0.258269 0
M  V30 5423 H 524.887 3.13116 -2.16014 0
M  V30 5424 H 526.199 4.22636 -2.64916 0
M  V30 5425 H 525.353 5.97231 -1.0677 0
M  V30 5426 H 524.092 4.85364 -0.476722 0
M  V30 5427 H 523.097 4.74398 -2.77897 0
M  V30 5428 H 524.322 5.89705 -3.36786 0
M  V30 5429 H 522.268 6.45058 -1.19318 0
M  V30 5430 H 522.185 7.0097 -2.83156 0
M  V30 5431 H 523.453 7.58633 -1.79154 0
M  V30 5432 N 527.682 1.05563 1.17022 0
M  V30 5433 C 528.959 0.68165 1.83338 0
M  V30 5434 C 529.339 -0.837665 1.93769 0
M  V30 5435 O 528.687 -1.74507 1.47511 0
M  V30 5436 C 528.897 1.375 3.20772 0
M  V30 5437 C 530.245 1.51545 3.96635 0
M  V30 5438 O 531.269 1.33431 3.30264 0
M  V30 5439 O 530.128 1.812 5.15586 0
M  V30 5440 H 527.222 0.240412 0.791285 0
M  V30 5441 H 529.768 1.15545 1.24288 0
M  V30 5442 H 528.54 2.41135 3.08171 0
M  V30 5443 H 528.163 0.890798 3.87493 0
M  V30 5444 O 529.199 -1.28981 0.971914 0
M  V30 5445 H 529.89 -1.83759 0.612547 0
M  V30 END ATOM
M  V30 BEGIN BOND
M  V30 END BOND
M  V30 END CTAB
M  END
$$$$
