drugbank_target|Q56320 N-(5'-phosphoribosyl)anthranilate isomerase (DB03543)
 OpenBabel12092119563D

  0  0  0     0  0            999 V3000
M  V30 BEGIN CTAB
M  V30 COUNTS 3275 3309 0 0 0
M  V30 BEGIN ATOM
M  V30 1 H -0.908 1.98254 -0.117106 0
M  V30 2 N 0 1.576 0 0
M  V30 3 C 0.933 2.03868 1.02534 0
M  V30 4 C 1.911 0.928543 1.3348 0
M  V30 5 O 3.095 1.19667 1.45644 0
M  V30 6 C 0.222 2.43627 2.35294 0
M  V30 7 C -0.732 3.65373 2.2001 0
M  V30 8 S 0.101 5.13292 1.52614 0
M  V30 9 C 1.257 5.56322 2.86805 0
M  V30 10 H 1.49 2.90518 0.631377 0
M  V30 11 H -0.977 1.52953 0.210867 0
M  V30 12 H 0.981 2.67203 3.11629 0
M  V30 13 H -0.358 1.57376 2.7183 0
M  V30 14 H -1.165 3.90944 3.18086 0
M  V30 15 H -1.563 3.418 1.51819 0
M  V30 16 H 0.729 5.58782 3.83104 0
M  V30 17 H 1.672 6.56266 2.65933 0
M  V30 18 H 2.08 4.83886 2.90714 0
M  V30 19 N 1.4781 -0.272755 1.55222 0
M  V30 20 C 2.7241 -1.00581 1.761 0
M  V30 21 C 3.0571 -1.85932 0.560625 0
M  V30 22 O 2.3321 -1.89416 -0.441801 0
M  V30 23 C 2.6151 -1.88816 3.06628 0
M  V30 24 C 2.4681 -1.06457 4.37021 0
M  V30 25 C 3.7871 -2.8752 3.33197 0
M  V30 26 H 0.9061 -0.364244 0.640699 0
M  V30 27 H 3.5481 -0.278189 1.87952 0
M  V30 28 H 1.6981 -2.50856 2.96654 0
M  V30 29 H 3.3701 -0.464863 4.58952 0
M  V30 30 H 1.6131 -0.368043 4.32236 0
M  V30 31 H 2.2841 -1.71514 5.24678 0
M  V30 32 H 4.7601 -2.35615 3.42965 0
M  V30 33 H 3.6361 -3.46399 4.25792 0
M  V30 34 H 3.8971 -3.62657 2.52849 0
M  V30 35 N 2.9562 -1.48159 -0.537278 0
M  V30 36 C 4.3722 -1.34118 -0.865129 0
M  V30 37 C 4.5722 -0.346678 -1.98495 0
M  V30 38 O 3.6282 0.234715 -2.51407 0
M  V30 39 C 4.9412 -2.73963 -1.23954 0
M  V30 40 C 6.4892 -2.82397 -1.34984 0
M  V30 41 C 6.9642 -4.22928 -1.75772 0
M  V30 42 N 8.4552 -4.25566 -1.82887 0
M  V30 43 C 9.1902 -5.31235 -2.15817 0
M  V30 44 N 8.6862 -6.47189 -2.47222 0
M  V30 45 N 10.4792 -5.18624 -2.16761 0
M  V30 46 H 2.6302 -2.1144 0.201715 0
M  V30 47 H 4.8932 -0.947598 0.0275949 0
M  V30 48 H 4.5992 -3.48264 -0.490381 0
M  V30 49 H 4.4732 -3.0702 -2.19132 0
M  V30 50 H 6.8602 -2.08356 -2.08978 0
M  V30 51 H 6.9412 -2.5297 -0.379448 0
M  V30 52 H 6.5852 -4.97482 -1.02341 0
M  V30 53 H 6.5152 -4.49794 -2.73848 0
M  V30 54 H 9.0062 -3.41924 -1.60924 0
M  V30 55 H 9.3192 -7.23564 -2.71433 0
M  V30 56 H 7.6642 -6.50476 -2.44757 0
M  V30 57 H 10.8552 -4.27056 -1.91679 0
M  V30 58 H 11.0282 -6.01078 -2.42093 0
M  V30 59 N 4.4343 0.785586 -1.36625 0
M  V30 60 C 5.6803 1.54591 -1.31261 0
M  V30 61 C 6.0133 1.93906 0.106823 0
M  V30 62 O 5.2883 1.63007 1.06108 0
M  V30 63 C 5.5713 2.82038 -2.23889 0
M  V30 64 C 5.4243 2.49066 -3.74548 0
M  V30 65 C 6.7433 3.83887 -2.15217 0
M  V30 66 H 3.8623 0.560846 -0.478143 0
M  V30 67 H 6.5043 0.902278 -1.67209 0
M  V30 68 H 4.6543 3.36961 -1.93363 0
M  V30 69 H 6.3263 2.00164 -4.15611 0
M  V30 70 H 4.5693 1.81954 -3.93796 0
M  V30 71 H 5.2403 3.40109 -4.34776 0
M  V30 72 H 7.7163 3.38421 -2.42096 0
M  V30 73 H 6.5923 4.70806 -2.82193 0
M  V30 74 H 6.8533 4.27131 -1.14068 0
M  V30 75 N 5.9124 1.20967 1.01018 0
M  V30 76 C 6.8594 0.964281 2.09691 0
M  V30 77 C 7.8294 -0.107853 1.65749 0
M  V30 78 O 9.0144 0.0381987 1.90762 0
M  V30 79 C 6.1544 0.52943 3.41015 0
M  V30 80 C 5.2674 1.67043 3.98398 0
M  V30 81 C 4.4024 1.18525 5.17808 0
M  V30 82 C 3.4414 2.29892 5.67288 0
M  V30 83 N 2.5784 1.82546 6.77954 0
M  V30 84 H 7.4184 1.89463 2.30017 0
M  V30 85 H 4.9554 0.944289 1.1279 0
M  V30 86 H 6.9134 0.258588 4.16398 0
M  V30 87 H 5.5434 -0.363919 3.20742 0
M  V30 88 H 4.5954 2.05603 3.20049 0
M  V30 89 H 5.9074 2.50877 4.31117 0
M  V30 90 H 5.0614 0.870762 6.00419 0
M  V30 91 H 3.8004 0.316887 4.86669 0
M  V30 92 H 2.8054 2.6215 4.83278 0
M  V30 93 H 4.0304 3.17216 6.00459 0
M  V30 94 H 1.9764 0.980454 6.48632 0
M  V30 95 H 1.8934 2.59956 7.09901 0
M  V30 96 H 3.1614 1.54115 7.64113 0
M  V30 97 N 7.3905 -1.2043 1.01659 0
M  V30 98 C 8.6395 -1.89118 0.701237 0
M  V30 99 C 8.9525 -1.79705 -0.772358 0
M  V30 100 O 10.1585 -2.43528 -1.20026 0
M  V30 101 C 8.6145 -3.39168 1.20388 0
M  V30 102 C 8.2225 -3.57166 2.70438 0
M  V30 103 C 9.9665 -4.1341 0.963953 0
M  V30 104 C 7.8735 -5.01042 3.14183 0
M  V30 105 H 6.8035 -0.708267 0.2586 0
M  V30 106 H 9.4545 -1.36239 1.22927 0
M  V30 107 H 7.8365 -3.91369 0.603824 0
M  V30 108 H 9.0105 -3.15351 3.35992 0
M  V30 109 H 7.3255 -2.96294 2.92572 0
M  V30 110 H 9.9225 -5.19491 1.26621 0
M  V30 111 H 10.2655 -4.16181 -0.099578 0
M  V30 112 H 10.7985 -3.67309 1.52738 0
M  V30 113 H 7.5375 -5.03426 4.19812 0
M  V30 114 H 7.0575 -5.43668 2.53348 0
M  V30 115 H 8.7365 -5.69623 3.0682 0
M  V30 116 N 8.8686 -0.792821 -1.36206 0
M  V30 117 C 10.1086 -0.372238 -2.00982 0
M  V30 118 C 10.4726 1.03749 -1.61555 0
M  V30 119 O 11.6736 1.55934 -2.18948 0
M  V30 120 C 9.9446 -0.534566 -3.5338 0
M  V30 121 S 11.5036 -0.202365 -4.38333 0
M  V30 122 H 8.3216 -0.142044 -0.696667 0
M  V30 123 H 10.9236 -1.03206 -1.66039 0
M  V30 124 H 9.6276 -1.5608 -3.79562 0
M  V30 125 H 9.1586 0.141065 -3.93147 0
M  V30 126 H 11.1736 0.994869 -4.86124 0
M  V30 127 N 10.3467 1.47872 -0.545128 0
M  V30 128 C 11.5947 2.02093 -0.016553 0
M  V30 129 C 11.9157 1.42305 1.3332 0
M  V30 130 O 11.1857 0.593853 1.86682 0
M  V30 131 H 9.7657 0.746993 -0.00313038 0
M  V30 132 H 12.4277 1.81414 -0.712397 0
M  V30 133 H 11.5237 3.11996 0.0805422 0
M  V30 134 N 11.8248 0.280983 1.55075 0
M  V30 135 C 13.0738 -0.334784 1.98902 0
M  V30 136 C 13.3868 -1.56534 1.17288 0
M  V30 137 O 14.5928 -2.25443 1.51287 0
M  V30 138 C 13.0488 -0.646994 3.54037 0
M  V30 139 C 12.6568 0.564085 4.44435 0
M  V30 140 C 14.4008 -1.22506 4.06439 0
M  V30 141 C 12.3078 0.226137 5.90967 0
M  V30 142 H 11.2378 -0.128866 0.742906 0
M  V30 143 H 13.8888 0.386556 1.79382 0
M  V30 144 H 12.2708 -1.42739 3.6938 0
M  V30 145 H 13.4448 1.34082 4.40861 0
M  V30 146 H 11.7598 1.0594 4.02698 0
M  V30 147 H 14.3568 -1.49182 5.13468 0
M  V30 148 H 14.6998 -2.16085 3.55827 0
M  V30 149 H 15.2328 -0.50682 3.94558 0
M  V30 150 H 11.9718 1.12996 6.45687 0
M  V30 151 H 11.4918 -0.513717 5.97596 0
M  V30 152 H 13.1708 -0.179539 6.46751 0
M  V30 153 N 13.3029 -1.57598 0.00835791 0
M  V30 154 C 14.5309 -1.95214 -0.68549 0
M  V30 155 C 14.9459 -0.883706 -1.66841 0
M  V30 156 O 14.3029 0.136565 -1.81988 0
M  V30 157 C 14.3539 -3.32865 -1.41007 0
M  V30 158 O 14.0749 -4.35609 -0.466552 0
M  V30 159 C 15.5759 -3.84991 -2.19765 0
M  V30 160 H 12.7959 -0.643422 -0.190392 0
M  V30 161 H 15.3399 -2.04406 0.0619607 0
M  V30 162 H 13.4949 -3.24956 -2.10908 0
M  V30 163 H 13.9089 -5.15288 -0.978699 0
M  V30 164 H 15.3829 -4.8371 -2.65948 0
M  V30 165 H 15.8599 -3.18137 -3.02796 0
M  V30 166 H 16.4659 -3.96103 -1.54864 0
M  V30 167 N 14.781 0.264519 -1.55364 0
M  V30 168 C 15.729 1.34702 -1.89626 0
M  V30 169 C 16.723 1.50712 -0.773459 0
M  V30 170 O 17.929 1.52395 -0.957897 0
M  V30 171 H 14.304 0.450682 -0.601988 0
M  V30 172 H 16.275 1.0306 -2.80038 0
M  V30 173 C 15.024 2.6989 -2.19214 0
M  V30 174 H 14.347 2.58365 -3.05103 0
M  V30 175 H 15.787 3.44553 -2.47102 0
M  V30 176 C 14.246 3.21637 -1.00254 0
M  V30 177 O 14.776 4.00973 -0.241501 0
M  V30 178 N 12.982 2.7943 -0.797938 0
M  V30 179 H 12.529 2.15026 -1.4185 0
M  V30 180 H 12.487 3.144 -0.00363422 0
M  V30 181 N 16.2591 1.48442 0.529413 0
M  V30 182 C 17.1891 1.65902 1.64313 0
M  V30 183 C 18.1701 0.507897 1.6234 0
M  V30 184 O 19.3551 0.740503 1.79528 0
M  V30 185 C 16.4851 1.69911 3.02898 0
M  V30 186 C 15.4391 2.8453 3.19729 0
M  V30 187 C 14.7651 2.73629 4.59381 0
M  V30 188 C 16.0651 4.25821 3.02447 0
M  V30 189 H 17.7591 2.5914 1.49955 0
M  V30 190 H 15.3051 1.24709 0.719982 0
M  V30 191 H 17.2581 1.80715 3.80684 0
M  V30 192 H 15.9821 0.732524 3.18279 0
M  V30 193 H 14.6411 2.73283 2.44361 0
M  V30 194 H 14.2891 1.74938 4.71599 0
M  V30 195 H 13.9891 3.50541 4.71588 0
M  V30 196 H 15.5131 2.86401 5.39265 0
M  V30 197 H 16.9271 4.37898 3.70024 0
M  V30 198 H 15.3241 5.03735 3.26146 0
M  V30 199 H 16.3941 4.42244 1.98867 0
M  V30 200 N 17.7372 -0.778329 1.37039 0
M  V30 201 C 18.6472 -1.92253 1.34446 0
M  V30 202 C 19.6632 -1.72267 0.244991 0
M  V30 203 O 20.8392 -1.95615 0.479258 0
M  V30 204 C 17.9042 -3.27282 1.144 0
M  V30 205 C 16.9652 -3.59969 2.33925 0
M  V30 206 C 16.1982 -4.88555 2.14825 0
M  V30 207 O 16.4212 -5.59113 1.12912 0
M  V30 208 O 15.3552 -5.20153 3.02861 0
M  V30 209 H 19.1812 -1.97392 2.30803 0
M  V30 210 H 16.7662 -0.920154 1.17701 0
M  V30 211 H 18.6482 -4.08062 1.05182 0
M  V30 212 H 17.3232 -3.23011 0.211124 0
M  V30 213 H 16.2302 -2.7945 2.48714 0
M  V30 214 H 17.5632 -3.68976 3.25757 0
M  V30 215 N 19.2153 -1.21501 -1.00376 0
M  V30 216 C 20.4923 -0.941745 -1.71437 0
M  V30 217 C 20.8723 0.546114 -2.03914 0
M  V30 218 O 20.2203 1.51128 -1.71384 0
M  V30 219 C 20.4303 -1.82812 -2.97289 0
M  V30 220 C 21.7783 -2.07771 -3.70292 0
M  V30 221 O 22.8023 -1.80171 -3.07273 0
M  V30 222 O 21.6613 -2.54456 -4.83647 0
M  V30 223 H 18.7553 -0.353243 -0.747762 0
M  V30 224 H 21.3013 -1.32436 -1.06108 0
M  V30 225 H 20.0733 -2.83501 -2.69709 0
M  V30 226 H 19.6963 -1.4464 -3.70358 0
M  V30 227 N 20.6934 1.19889 -1.02296 0
M  V30 228 C 21.6564 2.21116 -0.603351 0
M  V30 229 C 22.6564 1.5738 0.329884 0
M  V30 230 O 23.8464 1.73802 0.117702 0
M  V30 231 C 20.9784 3.40696 0.117992 0
M  V30 232 H 22.1714 2.59754 -1.49893 0
M  V30 233 H 19.7244 1.33463 -0.813468 0
M  V30 234 H 20.4594 3.07569 1.0282 0
M  V30 235 H 20.2444 3.88188 -0.552511 0
M  V30 236 H 21.7344 4.15692 0.398696 0
M  V30 237 N 22.1715 0.800033 1.35784 0
M  V30 238 C 23.1015 0.220184 2.3246 0
M  V30 239 C 24.0825 -0.65073 1.57161 0
M  V30 240 O 25.2675 -0.582359 1.85263 0
M  V30 241 C 22.3975 -0.637353 3.41402 0
M  V30 242 C 21.3515 0.134531 4.27789 0
M  V30 243 C 20.6775 -0.844285 5.27992 0
M  V30 244 C 21.9775 1.32979 5.05088 0
M  V30 245 H 23.6715 1.02787 2.81203 0
M  V30 246 H 21.2175 0.495717 1.35199 0
M  V30 247 H 23.1705 -1.05302 4.08031 0
M  V30 248 H 21.8945 -1.47785 2.91251 0
M  V30 249 H 20.5535 0.531296 3.6273 0
M  V30 250 H 20.2015 -1.68011 4.74111 0
M  V30 251 H 19.9015 -0.332184 5.8666 0
M  V30 252 H 21.4255 -1.2583 5.97494 0
M  V30 253 H 22.8395 0.98934 5.64699 0
M  V30 254 H 21.2365 1.77593 5.7322 0
M  V30 255 H 22.3065 2.11978 4.36111 0
M  V30 256 N 23.6496 -1.47581 0.552962 0
M  V30 257 C 24.8966 -2.02482 0.0273243 0
M  V30 258 C 25.2246 -1.42776 -1.32081 0
M  V30 259 O 24.4796 -0.571393 -1.87173 0
M  V30 260 C 24.7786 -3.57199 -0.119728 0
M  V30 261 C 24.4446 -4.35804 1.15697 0
M  V30 262 C 23.1066 -4.57 1.50681 0
M  V30 263 C 25.4586 -4.81167 2.00319 0
M  V30 264 C 22.7866 -5.20807 2.70142 0
M  V30 265 C 25.1386 -5.46293 3.18978 0
M  V30 266 C 23.8026 -5.65722 3.54281 0
M  V30 267 H 23.0726 -0.740933 0.00999866 0
M  V30 268 H 25.7196 -1.77302 0.72362 0
M  V30 269 H 24.0246 -3.81348 -0.89896 0
M  V30 270 H 25.7216 -3.97324 -0.541718 0
M  V30 271 H 22.3116 -4.19582 0.874561 0
M  V30 272 H 26.4956 -4.64574 1.74599 0
M  V30 273 H 21.7516 -5.34045 2.97668 0
M  V30 274 H 25.9256 -5.80407 3.84838 0
M  V30 275 H 23.5526 -6.14936 4.46942 0
M  V30 276 N 25.1277 -0.289203 -1.54924 0
M  V30 277 C 26.3527 0.329299 -2.04769 0
M  V30 278 C 26.7777 1.4763 -1.16564 0
M  V30 279 O 26.1357 1.80527 -0.167186 0
M  V30 280 C 26.1837 0.774438 -3.52186 0
M  V30 281 O 25.2877 1.88038 -3.67036 0
M  V30 282 H 24.6287 0.0659259 -0.660719 0
M  V30 283 H 27.1587 -0.42761 -2.00082 0
M  V30 284 H 27.1687 1.06642 -3.93816 0
M  V30 285 H 25.8437 -0.0646707 -4.1585 0
M  V30 286 H 24.4207 1.58985 -3.3731 0
M  V30 287 N 26.6058 1.57591 -0.0167156 0
M  V30 288 C 27.8518 1.91567 0.665582 0
M  V30 289 C 28.1848 0.892298 1.72487 0
M  V30 290 O 27.4598 -0.0867127 1.94307 0
M  V30 291 C 27.7428 3.36069 1.29342 0
M  V30 292 C 27.5958 4.49135 0.244541 0
M  V30 293 C 28.9148 3.803 2.21495 0
M  V30 294 H 26.0338 0.69666 0.240488 0
M  V30 295 H 28.6758 1.89866 -0.0714356 0
M  V30 296 H 26.8258 3.3765 1.92158 0
M  V30 297 H 28.4978 4.59689 -0.385228 0
M  V30 298 H 26.7408 4.3165 -0.431379 0
M  V30 299 H 27.4118 5.47242 0.723207 0
M  V30 300 H 29.8878 3.80377 1.68678 0
M  V30 301 H 28.7638 4.82127 2.62382 0
M  V30 302 H 29.0248 3.15104 3.101 0
M  V30 303 N 28.0839 -0.256276 1.55502 0
M  V30 304 C 28.9939 -1.33882 1.92647 0
M  V30 305 C 30.0099 -1.53159 0.825727 0
M  V30 306 O 31.1859 -1.66963 1.12629 0
M  V30 307 C 28.2509 -2.6751 2.20543 0
M  V30 308 C 27.3119 -2.56836 3.43997 0
M  V30 309 C 26.5449 -3.84092 3.70553 0
M  V30 310 O 26.7679 -4.85545 2.99336 0
M  V30 311 O 25.7019 -3.83288 4.64084 0
M  V30 312 H 29.5279 -1.05374 2.84833 0
M  V30 313 H 27.1129 -0.456237 1.42263 0
M  V30 314 H 28.9949 -3.46492 2.39835 0
M  V30 315 H 27.6699 -2.9577 1.31536 0
M  V30 316 H 26.5769 -1.76172 3.30021 0
M  V30 317 H 27.9099 -2.33523 4.33275 0
M  V30 318 N 29.562 -1.4872 -0.521534 0
M  V30 319 C 30.787 -1.61101 -1.30618 0
M  V30 320 C 31.212 -0.274611 -1.86085 0
M  V30 321 O 30.57 0.754937 -1.64834 0
M  V30 322 C 30.618 -2.66709 -2.4269 0
M  V30 323 O 29.722 -2.24456 -3.45967 0
M  V30 324 H 29.063 -0.539921 -0.386499 0
M  V30 325 H 31.593 -1.94767 -0.626645 0
M  V30 326 H 31.603 -2.88245 -2.88754 0
M  V30 327 H 30.278 -3.63727 -2.01682 0
M  V30 328 H 28.855 -2.13168 -3.05964 0
M  V30 329 N 31.0401 0.771051 -1.3745 0
M  V30 330 C 32.2881 1.52661 -1.32435 0
M  V30 331 C 32.6091 1.9479 0.0905024 0
M  V30 332 O 31.8791 1.66348 1.03466 0
M  V30 333 H 30.4591 0.566218 -0.487244 0
M  V30 334 H 33.1211 0.917636 -1.71946 0
M  V30 335 H 32.2171 2.42568 -1.96385 0
M  V30 336 N 32.5182 1.22032 0.997298 0
M  V30 337 C 33.4812 0.987909 2.06816 0
M  V30 338 C 34.4812 -0.0440084 1.6074 0
M  V30 339 O 35.6712 0.194053 1.73116 0
M  V30 340 C 32.8032 0.49132 3.37341 0
M  V30 341 H 33.9962 1.93803 2.28868 0
M  V30 342 H 31.5492 1.03838 1.16822 0
M  V30 343 H 32.2842 -0.463364 3.20973 0
M  V30 344 H 32.0692 1.23575 3.72118 0
M  V30 345 H 33.5592 0.348824 4.16141 0
M  V30 346 N 33.9963 -1.19345 1.0293 0
M  V30 347 C 35.2733 -1.84811 0.640642 0
M  V30 348 C 35.6533 -1.91855 -0.88062 0
M  V30 349 O 35.0013 -1.43587 -1.7775 0
M  V30 350 C 35.2113 -3.23755 1.30321 0
M  V30 351 C 36.5593 -3.99912 1.42673 0
M  V30 352 O 37.5833 -3.33155 1.26041 0
M  V30 353 O 36.4423 -5.19494 1.6967 0
M  V30 354 H 33.5363 -0.796443 0.222726 0
M  V30 355 H 36.0823 -1.26831 1.12748 0
M  V30 356 H 34.8543 -3.13466 2.34211 0
M  V30 357 H 34.4773 -3.89381 0.804261 0
M  V30 358 N 35.4744 -0.807222 -1.35358 0
M  V30 359 C 36.4374 -0.223665 -2.28106 0
M  V30 360 C 37.4374 0.589354 -1.4961 0
M  V30 361 O 38.6274 0.407745 -1.69361 0
M  V30 362 C 35.7594 0.688149 -3.33882 0
M  V30 363 H 36.9524 -1.04169 -2.81227 0
M  V30 364 H 34.5054 -0.577921 -1.45223 0
M  V30 365 H 35.2404 1.52984 -2.85948 0
M  V30 366 H 35.0254 0.10687 -3.91954 0
M  V30 367 H 36.5154 1.09075 -4.03104 0
M  V30 368 N 36.9525 1.47285 -0.560781 0
M  V30 369 C 38.1985 2.02764 -0.0381184 0
M  V30 370 C 38.5315 1.43384 1.30976 0
M  V30 371 O 37.8065 0.590733 1.85312 0
M  V30 372 C 38.0895 3.60064 0.0511427 0
M  V30 373 C 37.9425 4.2987 -1.32408 0
M  V30 374 C 39.2615 4.33439 0.762795 0
M  V30 375 H 36.3805 0.736841 -0.0153264 0
M  V30 376 H 39.0225 1.75675 -0.723759 0
M  V30 377 H 37.1725 3.83274 0.635065 0
M  V30 378 H 38.8445 4.17989 -1.95148 0
M  V30 379 H 37.0875 3.90085 -1.8978 0
M  V30 380 H 37.7585 5.38478 -1.21431 0
M  V30 381 H 40.2345 4.15243 0.266965 0
M  V30 382 H 39.1105 5.43124 0.794221 0
M  V30 383 H 39.3715 4.02915 1.81966 0
M  V30 384 N 38.4306 0.297415 1.54768 0
M  V30 385 C 39.6786 -0.312295 1.99673 0
M  V30 386 C 39.9996 -1.54686 1.18732 0
M  V30 387 O 39.2696 -1.93854 0.282382 0
M  V30 388 H 37.8496 -0.118381 0.73756 0
M  V30 389 H 40.5116 0.407915 1.90583 0
M  V30 390 H 39.6076 -0.586813 3.06534 0
M  V30 391 N 39.9087 -1.5758 0.0250728 0
M  V30 392 C 41.1557 -1.91633 -0.654444 0
M  V30 393 C 41.4837 -0.901103 -1.72367 0
M  V30 394 O 40.7387 0.0905647 -1.9549 0
M  V30 395 C 41.0377 -3.32421 -1.31268 0
M  V30 396 C 40.7037 -4.49344 -0.374223 0
M  V30 397 C 39.3657 -4.8106 -0.115911 0
M  V30 398 C 41.7177 -5.20498 0.270432 0
M  V30 399 C 39.0457 -5.8129 0.79493 0
M  V30 400 C 41.3977 -6.21699 1.1693 0
M  V30 401 C 40.0617 -6.51859 1.43655 0
M  V30 402 H 39.3317 -0.701236 -0.239478 0
M  V30 403 H 41.9787 -1.91307 0.0859734 0
M  V30 404 H 40.2837 -3.28989 -2.12775 0
M  V30 405 H 41.9807 -3.56038 -1.84494 0
M  V30 406 H 38.5707 -4.24579 -0.58573 0
M  V30 407 H 42.7547 -4.96229 0.0839194 0
M  V30 408 H 38.0107 -6.03005 1.00973 0
M  V30 409 H 42.1847 -6.75955 1.67504 0
M  V30 410 H 39.8117 -7.2934 2.144 0
M  V30 411 N 41.3868 0.248026 -1.55636 0
M  V30 412 C 42.6328 0.97767 -1.77678 0
M  V30 413 C 42.9658 1.85016 -0.590135 0
M  V30 414 O 42.2408 1.90095 0.411611 0
M  V30 415 C 42.5238 1.83914 -3.09593 0
M  V30 416 C 42.3768 0.99491 -4.38659 0
M  V30 417 C 43.6958 2.82183 -3.37729 0
M  V30 418 H 40.8148 0.354005 -0.646413 0
M  V30 419 H 43.4568 0.248253 -1.88371 0
M  V30 420 H 41.6068 2.46104 -3.00608 0
M  V30 421 H 43.2788 0.391789 -4.59633 0
M  V30 422 H 41.5218 0.299231 -4.32767 0
M  V30 423 H 42.1928 1.63145 -5.2734 0
M  V30 424 H 44.6688 2.30129 -3.4667 0
M  V30 425 H 43.5448 3.39582 -4.31249 0
M  V30 426 H 43.8058 3.58588 -2.58586 0
M  V30 427 N 42.8649 1.48995 0.513639 0
M  V30 428 C 44.1119 1.57843 1.26854 0
M  V30 429 C 44.4399 0.259501 1.92761 0
M  V30 430 O 43.6949 -0.75159 1.80692 0
M  V30 431 C 43.9939 2.67756 2.36731 0
M  V30 432 C 43.6599 4.09669 1.88368 0
M  V30 433 C 42.3219 4.48291 1.74896 0
M  V30 434 C 44.6739 4.98537 1.52021 0
M  V30 435 C 42.0019 5.73568 1.23438 0
M  V30 436 C 44.3539 6.24319 1.0202 0
M  V30 437 C 43.0179 6.61783 0.871778 0
M  V30 438 H 42.2879 0.577587 0.464192 0
M  V30 439 H 44.9349 1.82778 0.571366 0
M  V30 440 H 43.2399 2.36743 3.12185 0
M  V30 441 H 44.9369 2.71813 2.9482 0
M  V30 442 H 41.5269 3.79176 1.99808 0
M  V30 443 H 45.7109 4.69363 1.61281 0
M  V30 444 H 40.9669 6.01304 1.10648 0
M  V30 445 H 45.1409 6.92566 0.729722 0
M  V30 446 H 42.7679 7.5874 0.470852 0
M  V30 447 N 44.343 -0.763751 1.37857 0
M  V30 448 C 45.573 -1.55067 1.3652 0
M  V30 449 C 45.981 -1.89135 -0.0494227 0
M  V30 450 O 45.324 -1.52529 -1.02375 0
M  V30 451 C 45.386 -2.8838 2.14656 0
M  V30 452 C 45.05 -2.76905 3.63555 0
M  V30 453 C 46.047 -2.4739 4.57268 0
M  V30 454 C 43.732 -2.94676 4.06781 0
M  V30 455 C 45.726 -2.35786 5.92186 0
M  V30 456 C 43.413 -2.82692 5.41782 0
M  V30 457 C 44.411 -2.53289 6.34298 0
M  V30 458 O 44.099 -2.41345 7.66817 0
M  V30 459 H 43.831 -0.486776 0.469069 0
M  V30 460 H 46.385 -0.953812 1.81911 0
M  V30 461 H 44.615 -3.50217 1.63967 0
M  V30 462 H 46.304 -3.49828 2.05852 0
M  V30 463 H 47.07 -2.33339 4.2518 0
M  V30 464 H 42.949 -3.16563 3.35126 0
M  V30 465 H 46.493 -2.12757 6.64365 0
M  V30 466 H 42.39 -2.96314 5.7347 0
M  V30 467 H 43.158 -2.56634 7.77226 0
M  V30 468 N 45.8211 -1.22559 -0.990812 0
M  V30 469 C 47.2321 -1.04791 -1.54518 0
M  V30 470 C 47.5831 0.387998 -1.92325 0
M  V30 471 O 46.7081 1.27328 -1.74976 0
M  V30 472 C 47.3031 -1.896 -2.80779 0
M  V30 473 C 45.8621 -1.76124 -3.32652 0
M  V30 474 C 45.0091 -1.8594 -2.05722 0
M  V30 475 H 47.9601 -1.36374 -0.811662 0
M  V30 476 H 47.9811 -1.41464 -3.53225 0
M  V30 477 H 47.4931 -2.94101 -2.53231 0
M  V30 478 H 45.5941 -0.743643 -3.65104 0
M  V30 479 H 45.7071 -2.58913 -4.03114 0
M  V30 480 H 44.0711 -1.29403 -2.19379 0
M  V30 481 H 44.8541 -2.91976 -1.80568 0
M  V30 482 N 47.2992 1.18797 -1.03562 0
M  V30 483 C 48.2462 2.22253 -0.622259 0
M  V30 484 C 49.2162 1.61987 0.36736 0
M  V30 485 O 50.4012 1.88986 0.262492 0
M  V30 486 C 47.5412 3.45097 0.0138462 0
M  V30 487 C 46.6542 4.19722 -1.02263 0
M  V30 488 C 45.7892 5.30009 -0.355573 0
M  V30 489 C 44.8282 5.96399 -1.37749 0
M  V30 490 N 43.9652 6.98234 -0.735766 0
M  V30 491 H 48.8052 2.56968 -1.50903 0
M  V30 492 H 46.3422 1.26245 -0.755017 0
M  V30 493 H 48.3002 4.15279 0.399948 0
M  V30 494 H 46.9302 3.11018 0.864158 0
M  V30 495 H 45.9822 3.48418 -1.52673 0
M  V30 496 H 47.2942 4.65227 -1.79903 0
M  V30 497 H 46.4482 6.0664 0.0850095 0
M  V30 498 H 45.1872 4.85592 0.452967 0
M  V30 499 H 44.1922 5.18512 -1.82826 0
M  V30 500 H 45.4172 6.42899 -2.18764 0
M  V30 501 H 43.3632 6.55979 0.0525597 0
M  V30 502 H 43.2802 7.41965 -1.44995 0
M  V30 503 H 44.5482 7.78845 -0.31941 0
M  V30 504 N 48.7773 0.814389 1.34928 0
M  V30 505 C 50.0023 0.410097 2.03305 0
M  V30 506 C 50.4273 -0.973464 1.60951 0
M  V30 507 O 49.7853 -1.63185 0.789964 0
M  V30 508 C 49.8333 0.51049 3.56968 0
M  V30 509 O 48.9373 -0.473035 4.09678 0
M  V30 510 H 48.2783 0.170088 0.641846 0
M  V30 511 H 50.8083 1.10244 1.72358 0
M  V30 512 H 50.8183 0.383135 4.06197 0
M  V30 513 H 49.4933 1.51963 3.87144 0
M  V30 514 H 48.0703 -0.305272 3.71648 0
M  V30 515 N 50.2554 -1.46986 0.568584 0
M  V30 516 C 51.2024 -2.30153 -0.172707 0
M  V30 517 C 52.1724 -1.39759 -0.897586 0
M  V30 518 O 53.3574 -1.68716 -0.891044 0
M  V30 519 C 50.4974 -3.23952 -1.1895 0
M  V30 520 C 49.6104 -4.29441 -0.469517 0
M  V30 521 C 48.7454 -5.1038 -1.47259 0
M  V30 522 C 47.7844 -6.07632 -0.738225 0
M  V30 523 N 46.9214 -6.8149 -1.68868 0
M  V30 524 H 51.7614 -2.93019 0.542596 0
M  V30 525 H 49.2984 -1.44422 0.279401 0
M  V30 526 H 51.2564 -3.76767 -1.79173 0
M  V30 527 H 49.8864 -2.62926 -1.87269 0
M  V30 528 H 48.9384 -3.79594 0.247467 0
M  V30 529 H 50.2504 -4.98689 0.105241 0
M  V30 530 H 49.4044 -5.67402 -2.14803 0
M  V30 531 H 48.1434 -4.4106 -2.08128 0
M  V30 532 H 47.1484 -5.49778 -0.0489293 0
M  V30 533 H 48.3734 -6.78966 -0.135129 0
M  V30 534 H 46.3194 -6.14891 -2.28573 0
M  V30 535 H 46.2364 -7.46948 -1.16636 0
M  V30 536 H 47.5044 -7.43078 -2.3549 0
M  V30 537 N 51.7335 -0.305618 -1.54608 0
M  V30 538 C 53.1495 0.0476228 -1.59529 0
M  V30 539 C 53.3495 1.52025 -1.32252 0
M  V30 540 O 52.4055 2.27368 -1.09818 0
M  V30 541 C 53.7185 -0.354471 -2.98603 0
M  V30 542 C 55.2665 -0.303622 -3.11524 0
M  V30 543 C 55.7415 -0.680608 -4.52915 0
M  V30 544 N 57.2325 -0.63332 -4.5885 0
M  V30 545 C 57.9675 -0.897432 -5.66334 0
M  V30 546 N 57.4635 -1.22775 -6.81834 0
M  V30 547 N 59.2565 -0.824186 -5.56025 0
M  V30 548 H 51.4075 -1.2653 -1.70599 0
M  V30 549 H 53.6705 -0.513291 -0.797017 0
M  V30 550 H 53.3765 -1.3798 -3.23503 0
M  V30 551 H 53.2505 0.289568 -3.76087 0
M  V30 552 H 55.6375 0.712472 -2.8637 0
M  V30 553 H 55.7185 -0.982348 -2.36185 0
M  V30 554 H 55.3625 -1.69453 -4.78799 0
M  V30 555 H 55.2925 0.0202385 -5.26596 0
M  V30 556 H 57.7835 -0.389138 -3.75891 0
M  V30 557 H 58.0965 -1.41513 -7.59733 0
M  V30 558 H 56.4415 -1.26583 -6.83375 0
M  V30 559 H 59.6325 -0.565748 -4.64669 0
M  V30 560 H 59.8055 -1.03338 -6.39707 0
M  V30 561 N 53.2116 1.57565 -0.0334293 0
M  V30 562 C 54.4416 1.95996 0.653398 0
M  V30 563 C 54.8496 0.908749 1.65947 0
M  V30 564 O 54.1926 -0.117471 1.83324 0
M  V30 565 C 54.2546 3.30589 1.41249 0
M  V30 566 C 53.9186 4.53503 0.564263 0
M  V30 567 C 54.9156 5.19647 -0.16225 0
M  V30 568 C 52.6006 4.99801 0.500398 0
M  V30 569 C 54.5946 6.30412 -0.941255 0
M  V30 570 C 52.2816 6.10448 -0.282308 0
M  V30 571 C 53.2796 6.75612 -1.00184 0
M  V30 572 O 52.9676 7.84134 -1.77171 0
M  V30 573 H 52.6996 0.65027 0.184728 0
M  V30 574 H 55.2536 2.05199 -0.0907841 0
M  V30 575 H 53.4836 3.17888 2.20191 0
M  V30 576 H 55.1726 3.53892 1.98784 0
M  V30 577 H 55.9386 4.84846 -0.12227 0
M  V30 578 H 51.8176 4.48883 1.05002 0
M  V30 579 H 55.3616 6.81208 -1.50339 0
M  V30 580 H 51.2586 6.44686 -0.323989 0
M  V30 581 H 52.0266 8.00822 -1.69194 0
M  V30 582 N 54.6897 -0.239769 1.55765 0
M  V30 583 C 55.9387 -0.964754 1.77131 0
M  V30 584 C 56.2517 -1.86213 0.59868 0
M  V30 585 O 57.4577 -2.6244 0.695522 0
M  V30 586 C 55.9137 -1.76552 3.1362 0
M  V30 587 C 55.5217 -0.915185 4.38553 0
M  V30 588 C 57.2657 -2.48281 3.44321 0
M  V30 589 C 55.1727 -1.71225 5.66071 0
M  V30 590 H 54.1027 -0.363953 0.660344 0
M  V30 591 H 56.7537 -0.219181 1.82186 0
M  V30 592 H 55.1357 -2.55331 3.02691 0
M  V30 593 H 56.3097 -0.169217 4.60489 0
M  V30 594 H 54.6247 -0.310889 4.15238 0
M  V30 595 H 57.2217 -3.08382 4.36812 0
M  V30 596 H 57.5647 -3.20256 2.65973 0
M  V30 597 H 58.0977 -1.76507 3.56497 0
M  V30 598 H 54.8367 -1.03612 6.4726 0
M  V30 599 H 54.3567 -2.43331 5.48224 0
M  V30 600 H 56.0357 -2.27758 6.05587 0
M  V30 601 N 56.1678 -1.49265 -0.50573 0
M  V30 602 C 57.3928 -1.62478 -1.28902 0
M  V30 603 C 57.8178 -0.294332 -1.85783 0
M  V30 604 O 57.1758 0.737412 -1.65626 0
M  V30 605 C 57.2238 -2.69268 -2.39848 0
M  V30 606 O 56.3278 -2.28113 -3.43567 0
M  V30 607 H 55.6688 -0.54399 -0.380751 0
M  V30 608 H 58.1988 -1.95421 -0.605952 0
M  V30 609 H 58.2088 -2.91291 -2.85681 0
M  V30 610 H 56.8838 -3.65846 -1.97812 0
M  V30 611 H 55.4608 -2.16401 -3.03685 0
M  V30 612 N 57.6459 0.756429 -1.3826 0
M  V30 613 C 59.0569 1.33359 -1.30661 0
M  V30 614 C 59.4079 1.96161 0.0388875 0
M  V30 615 O 58.5329 1.94874 0.940918 0
M  V30 616 C 59.1279 2.42477 -2.36622 0
M  V30 617 C 57.6869 2.95922 -2.3261 0
M  V30 618 C 56.8339 1.69275 -2.19639 0
M  V30 619 H 59.7849 0.55552 -1.4866 0
M  V30 620 H 59.8059 3.22345 -2.02174 0
M  V30 621 H 59.3179 1.96739 -3.34538 0
M  V30 622 H 57.4189 3.45996 -1.38267 0
M  V30 623 H 57.5319 3.50494 -3.26636 0
M  V30 624 H 55.8959 1.92793 -1.66442 0
M  V30 625 H 56.6789 1.25619 -3.19491 0
M  V30 626 N 59.124 1.23083 0.984299 0
M  V30 627 C 60.034 1.02515 2.11016 0
M  V30 628 C 61.05 -0.0291702 1.73976 0
M  V30 629 O 62.226 0.165434 2.00719 0
M  V30 630 C 59.291 0.614673 3.41208 0
M  V30 631 C 58.352 1.74359 3.92297 0
M  V30 632 C 57.585 1.35261 5.16275 0
M  V30 633 O 57.808 0.235136 5.69915 0
M  V30 634 O 56.742 2.17227 5.61334 0
M  V30 635 H 60.568 1.96862 2.31255 0
M  V30 636 H 58.153 1.01753 1.09392 0
M  V30 637 H 60.035 0.396518 4.1953 0
M  V30 638 H 58.71 -0.299851 3.22308 0
M  V30 639 H 57.617 2.01635 3.1511 0
M  V30 640 H 58.95 2.63629 4.15645 0
M  V30 641 N 60.6021 -1.18246 1.0419 0
M  V30 642 C 61.8791 -1.84121 0.660208 0
M  V30 643 C 62.2591 -1.92778 -0.860221 0
M  V30 644 O 61.6071 -1.45464 -1.76217 0
M  V30 645 C 61.8171 -3.22355 1.33747 0
M  V30 646 C 63.1651 -3.98376 1.46906 0
M  V30 647 O 64.1891 -3.31799 1.29568 0
M  V30 648 O 63.0481 -5.17665 1.75171 0
M  V30 649 H 60.1421 -0.794036 0.231161 0
M  V30 650 H 62.6881 -1.25628 1.14087 0
M  V30 651 H 61.4601 -3.10964 2.37522 0
M  V30 652 H 61.0831 -3.88506 0.845515 0
M  V30 653 N 62.0802 -0.821533 -1.34494 0
M  V30 654 C 63.0432 -0.247847 -2.27856 0
M  V30 655 C 64.0432 0.573453 -1.50227 0
M  V30 656 O 65.2332 0.389759 -1.69784 0
M  V30 657 C 62.3652 0.652698 -3.34593 0
M  V30 658 H 63.5582 -1.07146 -2.80107 0
M  V30 659 H 61.1112 -0.593291 -1.44602 0
M  V30 660 H 61.8462 1.49943 -2.87555 0
M  V30 661 H 61.6312 0.065292 -3.92046 0
M  V30 662 H 63.1212 1.04793 -4.04238 0
M  V30 663 N 63.5583 1.46682 -0.576371 0
M  V30 664 C 64.9743 1.57822 -0.237562 0
M  V30 665 C 65.1743 1.57237 1.26011 0
M  V30 666 O 64.2303 1.48596 2.04146 0
M  V30 667 C 65.5433 2.87499 -0.881168 0
M  V30 668 C 67.0913 3.01119 -0.85417 0
M  V30 669 C 67.5663 4.33524 -1.4772 0
M  V30 670 N 69.0573 4.40207 -1.44125 0
M  V30 671 C 69.7923 5.4126 -1.89276 0
M  V30 672 N 69.2883 6.49021 -2.42371 0
M  V30 673 N 71.0813 5.32422 -1.80231 0
M  V30 674 H 63.2323 1.45306 -1.54919 0
M  V30 675 H 65.4953 0.692733 -0.647167 0
M  V30 676 H 65.2013 2.9372 -1.93447 0
M  V30 677 H 65.0753 3.75224 -0.385592 0
M  V30 678 H 67.4623 2.94485 0.190491 0
M  V30 679 H 67.5433 2.14887 -1.3877 0
M  V30 680 H 67.1873 4.40916 -2.52103 0
M  V30 681 H 67.1173 5.1852 -0.918947 0
M  V30 682 H 69.6083 3.62931 -1.05307 0
M  V30 683 H 69.9213 7.2233 -2.74698 0
M  V30 684 H 68.2663 6.49858 -2.46393 0
M  V30 685 H 71.4573 4.47137 -1.38514 0
M  V30 686 H 71.6303 6.11034 -2.15735 0
M  V30 687 N 65.0364 0.313813 1.54444 0
M  V30 688 C 66.4524 -0.0391619 1.59552 0
M  V30 689 C 66.6524 -1.51322 1.33056 0
M  V30 690 O 65.7084 -2.26782 1.11022 0
M  V30 691 C 67.0214 0.370302 2.98411 0
M  V30 692 C 68.5694 0.320139 3.11358 0
M  V30 693 C 69.0444 0.704617 4.52547 0
M  V30 694 N 70.5354 0.657645 4.58508 0
M  V30 695 C 71.2704 0.927453 5.6585 0
M  V30 696 N 70.7664 1.26389 6.81174 0
M  V30 697 N 72.5594 0.853662 5.5558 0
M  V30 698 H 64.7104 1.27433 1.69925 0
M  V30 699 H 66.9734 0.517511 0.794284 0
M  V30 700 H 66.6794 1.39694 3.22767 0
M  V30 701 H 66.5534 -0.269619 3.76235 0
M  V30 702 H 68.9404 -0.697275 2.86744 0
M  V30 703 H 69.0214 0.99486 2.35661 0
M  V30 704 H 68.6654 1.7199 4.77893 0
M  V30 705 H 68.5954 0.00768843 5.26599 0
M  V30 706 H 71.0864 0.409067 3.75679 0
M  V30 707 H 71.3994 1.4554 7.58972 0
M  V30 708 H 69.7444 1.30206 6.82694 0
M  V30 709 H 72.9354 0.590383 4.64362 0
M  V30 710 H 73.1084 1.0673 6.3915 0
M  V30 711 N 66.5145 -1.57545 0.0417849 0
M  V30 712 C 67.7635 -1.91494 -0.633492 0
M  V30 713 C 68.0765 -0.921084 -1.72556 0
M  V30 714 O 69.2825 -1.15228 -2.45835 0
M  V30 715 C 67.7385 -3.40072 -1.17808 0
M  V30 716 C 67.3465 -4.47843 -0.118633 0
M  V30 717 C 69.0905 -3.8307 -1.82915 0
M  V30 718 C 66.9975 -5.87529 -0.675578 0
M  V30 719 H 65.9275 -0.714653 -0.24039 0
M  V30 720 H 68.5785 -1.83175 0.109148 0
M  V30 721 H 66.9605 -3.43364 -1.97274 0
M  V30 722 H 68.1345 -4.56128 0.654494 0
M  V30 723 H 66.4495 -4.14128 0.434414 0
M  V30 724 H 69.0465 -4.84794 -2.25563 0
M  V30 725 H 69.3895 -3.1881 -2.67705 0
M  V30 726 H 69.9225 -3.82255 -1.10119 0
M  V30 727 H 66.6615 -6.55362 0.134475 0
M  V30 728 H 66.1815 -5.82824 -1.4169 0
M  V30 729 H 67.8605 -6.36491 -1.1614 0
M  V30 730 N 67.9926 0.231505 -1.5589 0
M  V30 731 C 69.2176 0.978689 -1.82856 0
M  V30 732 C 69.6426 1.77559 -0.620846 0
M  V30 733 O 69.0006 1.76119 0.430305 0
M  V30 734 C 69.0486 1.87997 -3.07716 0
M  V30 735 O 68.1526 2.97393 -2.85712 0
M  V30 736 H 67.4936 0.277663 -0.603158 0
M  V30 737 H 70.0236 0.24783 -2.03093 0
M  V30 738 H 70.0336 2.2917 -3.37558 0
M  V30 739 H 68.7086 1.29417 -3.95252 0
M  V30 740 H 67.2856 2.60238 -2.67078 0
M  V30 741 N 69.4707 1.49531 0.497807 0
M  V30 742 C 70.7167 1.59415 1.25358 0
M  V30 743 C 71.0497 0.281422 1.9215 0
M  V30 744 O 70.3247 -0.715249 1.80871 0
M  V30 745 C 70.6077 2.75566 2.3181 0
M  V30 746 C 70.4607 4.16642 1.69498 0
M  V30 747 C 71.7797 2.87347 3.33346 0
M  V30 748 H 68.8987 0.580244 0.454408 0
M  V30 749 H 71.5407 1.81827 0.551262 0
M  V30 750 H 69.6907 2.56587 2.91711 0
M  V30 751 H 71.3627 4.47145 1.13399 0
M  V30 752 H 69.6057 4.22141 0.998978 0
M  V30 753 H 70.2767 4.93792 2.46725 0
M  V30 754 H 72.7527 3.04634 2.83438 0
M  V30 755 H 71.6287 3.70289 4.05188 0
M  V30 756 H 71.8897 1.96834 3.95865 0
M  V30 757 N 70.9488 -0.749086 1.3866 0
M  V30 758 C 71.8588 -1.89358 1.38494 0
M  V30 759 C 72.8748 -1.71708 0.281476 0
M  V30 760 O 74.0508 -1.94554 0.520643 0
M  V30 761 C 71.1158 -3.24782 1.21316 0
M  V30 762 C 70.1768 -3.54926 2.41508 0
M  V30 763 C 69.4098 -4.83888 2.2514 0
M  V30 764 O 69.6328 -5.56592 1.24746 0
M  V30 765 O 68.5668 -5.13612 3.13826 0
M  V30 766 H 72.3928 -1.92452 2.34938 0
M  V30 767 H 69.9778 -0.894981 1.19626 0
M  V30 768 H 71.8598 -4.05739 1.13814 0
M  V30 769 H 70.5348 -3.2249 0.279592 0
M  V30 770 H 69.4418 -2.74112 2.54585 0
M  V30 771 H 70.7748 -3.61983 3.3351 0
M  V30 772 N 72.4269 -1.23603 -0.977757 0
M  V30 773 C 73.3569 -1.04401 -2.0886 0
M  V30 774 C 74.3379 0.0399052 -1.70053 0
M  V30 775 O 75.5229 -0.125246 -1.93796 0
M  V30 776 C 72.6529 -0.637269 -3.41403 0
M  V30 777 C 71.6069 -1.66883 -3.94124 0
M  V30 778 C 70.9329 -1.11745 -5.22893 0
M  V30 779 C 72.2329 -3.06247 -4.23096 0
M  V30 780 H 73.9269 -1.97316 -2.25182 0
M  V30 781 H 71.4729 -0.950096 -1.08209 0
M  V30 782 H 73.4259 -0.48998 -4.18542 0
M  V30 783 H 72.1499 0.327557 -3.24953 0
M  V30 784 H 70.8089 -1.80416 -3.19133 0
M  V30 785 H 70.4569 -0.143527 -5.02795 0
M  V30 786 H 70.1569 -1.80672 -5.59134 0
M  V30 787 H 71.6809 -0.982067 -6.02651 0
M  V30 788 H 73.0949 -2.96001 -4.90975 0
M  V30 789 H 71.4919 -3.72436 -4.70544 0
M  V30 790 H 72.5619 -3.55041 -3.30263 0
M  V30 791 N 73.905 1.17692 -1.04816 0
M  V30 792 C 75.316 1.69501 -0.782698 0
M  V30 793 C 75.667 1.83456 0.695577 0
M  V30 794 O 74.792 1.51942 1.54086 0
M  V30 795 C 75.387 3.07874 -1.41419 0
M  V30 796 C 73.946 3.56864 -1.19686 0
M  V30 797 C 73.093 2.3322 -1.50012 0
M  V30 798 H 76.044 1.02262 -1.2136 0
M  V30 799 H 76.065 3.71528 -0.821428 0
M  V30 800 H 75.577 2.97685 -2.49009 0
M  V30 801 H 73.678 3.72337 -0.140043 0
M  V30 802 H 73.791 4.39851 -1.89916 0
M  V30 803 H 72.155 2.37501 -0.920071 0
M  V30 804 H 72.938 2.25644 -2.58727 0
M  V30 805 N 75.3831 0.828654 1.34056 0
M  V30 806 C 76.7941 0.477534 1.8049 0
M  V30 807 C 77.1451 -1.00258 1.6865 0
M  V30 808 O 76.2701 -1.78057 1.22982 0
M  V30 809 C 76.8651 0.860018 3.27703 0
M  V30 810 C 75.4241 0.561185 3.72193 0
M  V30 811 C 74.5711 1.07385 2.55663 0
M  V30 812 H 77.5221 1.0183 1.21722 0
M  V30 813 H 77.5431 0.166038 3.80138 0
M  V30 814 H 77.0551 1.93731 3.36288 0
M  V30 815 H 75.1561 -0.506465 3.69142 0
M  V30 816 H 75.2691 1.10926 4.66082 0
M  V30 817 H 73.6331 0.495149 2.49841 0
M  V30 818 H 74.4161 2.15771 2.67016 0
M  V30 819 N 76.8612 -1.46375 0.584142 0
M  V30 820 C 78.1082 -2.02378 0.0702675 0
M  V30 821 C 78.4362 -1.45545 -1.29023 0
M  V30 822 O 77.6912 -0.610967 -1.85918 0
M  V30 823 C 77.9902 -3.57373 -0.0439342 0
M  V30 824 C 77.6562 -4.33252 1.24915 0
M  V30 825 C 76.3182 -4.53701 1.60341 0
M  V30 826 C 78.6702 -4.7681 2.1048 0
M  V30 827 C 75.9982 -5.1496 2.81128 0
M  V30 828 C 78.3502 -5.39404 3.30494 0
M  V30 829 C 77.0142 -5.5808 3.66201 0
M  V30 830 H 76.2842 -0.740554 0.0257127 0
M  V30 831 H 78.9312 -1.75727 0.761065 0
M  V30 832 H 77.2362 -3.83169 -0.817869 0
M  V30 833 H 78.9332 -3.98384 -0.457318 0
M  V30 834 H 75.5232 -4.17633 0.963364 0
M  V30 835 H 79.7072 -4.60766 1.84414 0
M  V30 836 H 74.9632 -5.27611 3.08928 0
M  V30 837 H 79.1372 -5.72114 3.97063 0
M  V30 838 H 76.7642 -6.05318 4.59885 0
M  V30 839 N 78.3393 -0.321999 -1.54275 0
M  V30 840 C 79.5853 0.281461 -2.00837 0
M  V30 841 C 79.9183 1.51909 -1.20985 0
M  V30 842 O 79.1933 1.923 -0.291733 0
M  V30 843 C 79.4763 0.617162 -3.54772 0
M  V30 844 C 79.3293 -0.631064 -4.45351 0
M  V30 845 C 80.6483 1.43542 -4.16033 0
M  V30 846 H 77.7673 0.100826 -0.730071 0
M  V30 847 H 80.4093 -0.438268 -1.84876 0
M  V30 848 H 78.5593 1.23034 -3.68504 0
M  V30 849 H 80.2313 -1.26934 -4.43492 0
M  V30 850 H 78.4743 -1.26025 -4.15091 0
M  V30 851 H 79.1453 -0.351735 -5.50878 0
M  V30 852 H 81.6213 0.917134 -4.05867 0
M  V30 853 H 80.4973 1.63907 -5.23856 0
M  V30 854 H 80.7583 2.43108 -3.69257 0
M  V30 855 N 79.8174 1.5752 -0.0501392 0
M  V30 856 C 81.0644 1.9265 0.623874 0
M  V30 857 C 81.3924 0.928411 1.70912 0
M  V30 858 O 80.6474 -0.0594525 1.9561 0
M  V30 859 C 80.9464 3.34467 1.25963 0
M  V30 860 C 80.6124 4.49883 0.302689 0
M  V30 861 C 79.2744 4.81184 0.0393636 0
M  V30 862 C 81.6264 5.20002 -0.353205 0
M  V30 863 C 78.9544 5.79951 -0.887308 0
M  V30 864 C 81.3064 6.1976 -1.26806 0
M  V30 865 C 79.9704 6.49491 -1.54007 0
M  V30 866 H 79.2404 0.704957 0.228292 0
M  V30 867 H 81.8874 1.91146 -0.116398 0
M  V30 868 H 80.1924 3.32333 2.07514 0
M  V30 869 H 81.8894 3.58928 1.78806 0
M  V30 870 H 78.4794 4.25457 0.518109 0
M  V30 871 H 82.6634 4.96033 -0.162854 0
M  V30 872 H 77.9194 6.01322 -1.10553 0
M  V30 873 H 82.0934 6.73205 -1.78236 0
M  V30 874 H 79.7204 7.25837 -2.25976 0
M  V30 875 N 81.2955 -0.223234 1.56011 0
M  V30 876 C 82.7115 -0.572856 1.48965 0
M  V30 877 C 82.9115 -1.87225 0.74492 0
M  V30 878 O 81.9675 -2.50899 0.283896 0
M  V30 879 C 83.2805 -0.653646 2.9351 0
M  V30 880 C 84.8285 -0.744386 3.0402 0
M  V30 881 C 85.3035 -0.856535 4.49919 0
M  V30 882 N 86.7945 -0.9208 4.53955 0
M  V30 883 C 87.5295 -1.02726 5.64123 0
M  V30 884 N 87.0255 -1.09777 6.84047 0
M  V30 885 N 88.8185 -1.06226 5.51971 0
M  V30 886 H 80.9695 0.629462 2.02858 0
M  V30 887 H 83.2325 0.220621 0.921971 0
M  V30 888 H 82.9385 0.231518 3.50937 0
M  V30 889 H 82.8125 -1.51781 3.45315 0
M  V30 890 H 85.1995 -1.61999 2.46658 0
M  V30 891 H 85.2805 0.14541 2.55386 0
M  V30 892 H 84.9245 0.0146069 5.07898 0
M  V30 893 H 84.8545 -1.76172 4.96257 0
M  V30 894 H 87.3455 -0.876694 3.6759 0
M  V30 895 H 87.6585 -1.17872 7.63758 0
M  V30 896 H 86.0035 -1.06693 6.86762 0
M  V30 897 H 89.1945 -1.00382 4.5721 0
M  V30 898 H 89.3675 -1.14177 6.37862 0
M  V30 899 N 82.7736 -1.49793 -0.48987 0
M  V30 900 C 84.0196 -1.60078 -1.24511 0
M  V30 901 C 84.3526 -0.291608 -1.91998 0
M  V30 902 O 83.6276 0.705647 -1.81248 0
M  V30 903 C 83.9106 -2.76791 -2.30345 0
M  V30 904 C 83.7636 -4.17535 -1.67286 0
M  V30 905 C 85.0826 -2.89111 -3.31817 0
M  V30 906 H 82.2016 -0.582645 -0.451324 0
M  V30 907 H 84.8436 -1.82117 -0.541612 0
M  V30 908 H 82.9936 -2.5813 -2.90346 0
M  V30 909 H 84.6656 -4.4774 -1.11026 0
M  V30 910 H 82.9086 -4.22665 -0.976577 0
M  V30 911 H 83.5796 -4.95094 -2.44103 0
M  V30 912 H 86.0556 -3.06133 -2.81819 0
M  V30 913 H 84.9316 -3.72433 -4.03219 0
M  V30 914 H 85.1926 -1.9893 -3.94815 0
M  V30 915 N 84.2517 0.741722 -1.39055 0
M  V30 916 C 85.4997 1.49818 -1.35643 0
M  V30 917 C 85.8207 1.94938 0.0491642 0
M  V30 918 O 85.0907 1.68505 0.999141 0
M  V30 919 H 83.6707 0.555755 -0.499144 0
M  V30 920 H 86.3327 0.880957 -1.73854 0
M  V30 921 H 85.4287 2.38348 -2.01486 0
M  V30 922 N 85.7298 1.2412 0.971189 0
M  V30 923 C 86.9758 1.08041 1.71625 0
M  V30 924 C 87.3088 -0.380407 1.90438 0
M  V30 925 O 86.5838 -1.28127 1.46334 0
M  V30 926 C 86.8668 1.81682 3.10908 0
M  V30 927 C 86.7198 3.35493 2.99608 0
M  V30 928 C 88.0388 1.58671 4.10501 0
M  V30 929 H 85.1578 0.39388 0.622919 0
M  V30 930 H 87.7998 1.52743 1.13003 0
M  V30 931 H 85.9498 1.43684 3.60953 0
M  V30 932 H 87.6218 3.83068 2.57015 0
M  V30 933 H 85.8648 3.64052 2.35899 0
M  V30 934 H 86.5358 3.82217 3.98264 0
M  V30 935 H 89.0118 1.91719 3.69301 0
M  V30 936 H 87.8878 2.1266 5.06031 0
M  V30 937 H 88.1488 0.524161 4.38982 0
M  V30 938 N 87.2079 -1.17134 1.05439 0
M  V30 939 C 88.4549 -1.87456 0.765942 0
M  V30 940 C 88.7829 -1.81189 -0.707153 0
M  V30 941 O 88.0379 -1.21633 -1.5331 0
M  V30 942 C 88.3369 -3.36833 1.19491 0
M  V30 943 C 88.0029 -3.63301 2.67063 0
M  V30 944 C 86.6649 -3.70234 3.07376 0
M  V30 945 C 89.0169 -3.74575 3.62413 0
M  V30 946 C 86.3449 -3.85933 4.41896 0
M  V30 947 C 88.6969 -3.91793 4.9667 0
M  V30 948 C 87.3609 -3.96966 5.36633 0
M  V30 949 H 86.6309 -0.685948 0.280278 0
M  V30 950 H 89.2779 -1.38556 1.32192 0
M  V30 951 H 87.5829 -3.87807 0.557969 0
M  V30 952 H 89.2799 -3.89611 0.948893 0
M  V30 953 H 85.8699 -3.58532 2.34846 0
M  V30 954 H 90.0539 -3.68537 3.32406 0
M  V30 955 H 85.3099 -3.88187 4.72357 0
M  V30 956 H 89.4839 -3.99458 5.70444 0
M  V30 957 H 87.1109 -4.08883 6.40874 0
M  V30 958 N 88.686 -0.835752 -1.33615 0
M  V30 959 C 89.932 -0.430596 -1.98176 0
M  V30 960 C 90.265 1.00684 -1.66061 0
M  V30 961 O 89.54 1.70339 -0.938877 0
M  V30 962 C 89.823 -0.648065 -3.5422 0
M  V30 963 C 89.676 -2.13255 -3.96033 0
M  V30 964 C 90.995 -0.0922113 -4.40003 0
M  V30 965 H 88.114 -0.157924 -0.719881 0
M  V30 966 H 90.756 -1.05069 -1.58305 0
M  V30 967 H 88.906 -0.120237 -3.88314 0
M  V30 968 H 90.578 -2.725 -3.72211 0
M  V30 969 H 88.821 -2.61823 -3.45878 0
M  V30 970 H 89.492 -2.23547 -5.04708 0
M  V30 971 H 91.968 -0.543343 -4.12537 0
M  V30 972 H 90.844 -0.274083 -5.48215 0
M  V30 973 H 91.105 1.00378 -4.30554 0
M  V30 974 N 90.1641 1.46063 -0.591896 0
M  V30 975 C 91.1121 2.32124 0.148739 0
M  V30 976 C 92.1061 1.45035 0.875286 0
M  V30 977 O 93.3121 1.61609 0.792632 0
M  V30 978 H 89.6871 0.749024 0.066832 0
M  V30 979 H 91.6581 2.92392 -0.595783 0
M  V30 980 C 90.4071 3.28373 1.1431 0
M  V30 981 H 89.7301 3.95371 0.59346 0
M  V30 982 H 91.1701 3.91352 1.63155 0
M  V30 983 C 89.6291 2.54393 2.20875 0
M  V30 984 O 90.1591 2.31373 3.28374 0
M  V30 985 N 88.3651 2.14797 1.95731 0
M  V30 986 H 87.9121 2.33719 1.08319 0
M  V30 987 H 87.8701 1.65619 2.67241 0
M  V30 988 N 91.6422 0.330177 1.54103 0
M  V30 989 C 92.5522 -0.541534 2.28264 0
M  V30 990 C 93.5682 -1.12351 1.32866 0
M  V30 991 O 94.7442 -1.14206 1.65888 0
M  V30 992 C 91.8092 -1.68322 3.03098 0
M  V30 993 C 90.8702 -1.13238 4.14096 0
M  V30 994 C 90.1032 -2.21966 4.85352 0
M  V30 995 O 90.3262 -3.42437 4.56172 0
M  V30 996 O 89.2602 -1.87013 5.7211 0
M  V30 997 H 93.0862 0.060938 3.03639 0
M  V30 998 H 90.6712 0.09565 1.49093 0
M  V30 999 H 92.5532 -2.34777 3.49939 0
M  V30 1000 H 91.2282 -2.27176 2.30593 0
M  V30 1001 H 90.1352 -0.432736 3.71589 0
M  V30 1002 H 91.4682 -0.588898 4.88664 0
M  V30 1003 N 93.1203 -1.57491 0.0584922 0
M  V30 1004 C 94.0303 -2.15448 -0.928414 0
M  V30 1005 C 95.0463 -1.11416 -1.3365 0
M  V30 1006 O 96.2223 -1.4362 -1.41193 0
M  V30 1007 C 93.2873 -2.69393 -2.18239 0
M  V30 1008 C 92.3483 -3.88249 -1.83196 0
M  V30 1009 C 91.5813 -4.39613 -3.02616 0
M  V30 1010 O 91.8043 -3.90023 -4.16219 0
M  V30 1011 O 90.7383 -5.31111 -2.83204 0
M  V30 1012 H 94.5643 -3.00112 -0.465483 0
M  V30 1013 H 92.1493 -1.48499 -0.163826 0
M  V30 1014 H 94.0313 -3.04026 -2.91798 0
M  V30 1015 H 92.7063 -1.87796 -2.63656 0
M  V30 1016 H 91.6133 -3.58492 -1.06931 0
M  V30 1017 H 92.9463 -4.71098 -1.42573 0
M  V30 1018 N 94.5984 0.214957 -1.56127 0
M  V30 1019 C 96.0094 0.781386 -1.69562 0
M  V30 1020 C 96.3604 1.84707 -0.66165 0
M  V30 1021 O 95.4854 2.156 0.185927 0
M  V30 1022 C 96.0804 1.42411 -3.07416 0
M  V30 1023 C 94.6394 1.93786 -3.22683 0
M  V30 1024 C 93.7864 0.800438 -2.65496 0
M  V30 1025 H 96.7374 -0.00980633 -1.58697 0
M  V30 1026 H 96.7584 2.29309 -3.0364 0
M  V30 1027 H 96.2704 0.64826 -3.82648 0
M  V30 1028 H 94.3714 2.74152 -2.52332 0
M  V30 1029 H 94.4844 2.1133 -4.29973 0
M  V30 1030 H 92.8484 1.2095 -2.2415 0
M  V30 1031 H 93.6314 0.0371471 -3.4328 0
M  V30 1032 N 96.0765 1.50051 0.48192 0
M  V30 1033 C 96.9865 1.7089 1.60728 0
M  V30 1034 C 98.0025 0.591788 1.63627 0
M  V30 1035 O 99.1785 0.868817 1.81696 0
M  V30 1036 C 96.2435 1.78855 2.97005 0
M  V30 1037 C 95.3045 3.02537 3.04581 0
M  V30 1038 C 94.5375 3.10112 4.34357 0
M  V30 1039 O 94.7605 2.24765 5.24249 0
M  V30 1040 O 93.6945 4.02747 4.47301 0
M  V30 1041 H 97.5205 2.66264 1.46072 0
M  V30 1042 H 95.1055 1.34018 0.660264 0
M  V30 1043 H 96.9875 1.86336 3.77964 0
M  V30 1044 H 95.6625 0.866628 3.11883 0
M  V30 1045 H 94.5695 3.00563 2.22739 0
M  V30 1046 H 95.9025 3.94272 2.94636 0
M  V30 1047 N 97.5546 -0.734337 1.39446 0
M  V30 1048 C 98.5016 -1.84835 1.38219 0
M  V30 1049 C 99.4716 -1.64331 0.24179 0
M  V30 1050 O 100.657 -1.85728 0.437002 0
M  V30 1051 C 97.7966 -3.22355 1.23212 0
M  V30 1052 C 96.9096 -3.5456 2.46801 0
M  V30 1053 C 96.0446 -4.81485 2.24377 0
M  V30 1054 C 95.0836 -5.06536 3.43639 0
M  V30 1055 N 94.2206 -6.24665 3.20528 0
M  V30 1056 H 99.0606 -1.85219 2.33448 0
M  V30 1057 H 96.5976 -0.905039 1.15963 0
M  V30 1058 H 98.5556 -4.0174 1.12522 0
M  V30 1059 H 97.1856 -3.21248 0.316121 0
M  V30 1060 H 96.2376 -2.69872 2.68092 0
M  V30 1061 H 97.5496 -3.6899 3.3563 0
M  V30 1062 H 96.7036 -5.68852 2.10933 0
M  V30 1063 H 95.4426 -4.6923 1.32944 0
M  V30 1064 H 94.4476 -4.17632 3.5758 0
M  V30 1065 H 95.6726 -5.20676 4.35974 0
M  V30 1066 H 93.6186 -6.13696 2.3176 0
M  V30 1067 H 93.5356 -6.39685 4.02913 0
M  V30 1068 H 94.8036 -7.14868 3.10779 0
M  V30 1069 N 99.0327 -1.24633 -0.964593 0
M  V30 1070 C 100.282 -1.08188 -1.7023 0
M  V30 1071 C 100.595 0.37873 -1.91898 0
M  V30 1072 O 101.801 0.663427 -2.6327 0
M  V30 1073 C 100.257 -1.88773 -3.06419 0
M  V30 1074 C 99.8647 -3.39263 -2.92582 0
M  V30 1075 C 101.609 -1.80867 -3.84041 0
M  V30 1076 C 99.5157 -4.1218 -4.24101 0
M  V30 1077 H 98.4457 -0.401245 -0.638372 0
M  V30 1078 H 101.097 -1.48742 -1.07462 0
M  V30 1079 H 99.4787 -1.41035 -3.70034 0
M  V30 1080 H 100.653 -3.94603 -2.37961 0
M  V30 1081 H 98.9677 -3.48154 -2.28424 0
M  V30 1082 H 101.565 -2.32646 -4.81435 0
M  V30 1083 H 101.908 -0.774543 -4.09031 0
M  V30 1084 H 102.441 -2.26301 -3.27159 0
M  V30 1085 H 99.1797 -5.15965 -4.04303 0
M  V30 1086 H 98.6997 -3.61626 -4.78526 0
M  V30 1087 H 100.379 -4.19349 -4.92702 0
M  V30 1088 N 100.511 1.16574 -1.06058 0
M  V30 1089 C 101.441 2.23057 -0.690488 0
M  V30 1090 C 102.422 1.67141 0.315901 0
M  V30 1091 O 103.607 1.93253 0.191556 0
M  V30 1092 C 100.737 3.47222 -0.073625 0
M  V30 1093 C 99.6908 4.16016 -1.00573 0
M  V30 1094 C 99.0168 5.34104 -0.252289 0
M  V30 1095 C 100.317 4.67264 -2.33371 0
M  V30 1096 H 102.011 2.54271 -1.58072 0
M  V30 1097 H 99.5568 1.22218 -0.76149 0
M  V30 1098 H 101.51 4.20939 0.19714 0
M  V30 1099 H 100.234 3.15302 0.85161 0
M  V30 1100 H 98.8928 3.44223 -1.2612 0
M  V30 1101 H 98.5408 4.98437 0.675988 0
M  V30 1102 H 98.2408 5.81072 -0.873455 0
M  V30 1103 H 99.7648 6.10599 0.0109857 0
M  V30 1104 H 101.179 5.32573 -2.12223 0
M  V30 1105 H 99.5758 5.24843 -2.90963 0
M  V30 1106 H 100.646 3.83602 -2.96611 0
M  V30 1107 N 101.989 0.842826 1.3317 0
M  V30 1108 C 103.266 0.362216 1.92217 0
M  V30 1109 C 103.646 -1.15289 1.76838 0
M  V30 1110 O 102.994 -1.96914 1.15919 0
M  V30 1111 C 103.204 0.813495 3.39387 0
M  V30 1112 C 104.552 0.823804 4.16532 0
M  V30 1113 O 105.576 0.757358 3.48055 0
M  V30 1114 O 104.435 0.915193 5.38782 0
M  V30 1115 H 101.529 0.103317 0.820521 0
M  V30 1116 H 104.075 0.928942 1.42017 0
M  V30 1117 H 102.847 1.85624 3.4447 0
M  V30 1118 H 102.47 0.223561 3.96971 0
M  V30 1119 N 103.467 -1.45747 0.599634 0
M  V30 1120 C 104.713 -2.02592 0.0918643 0
M  V30 1121 C 105.046 -1.46806 -1.27128 0
M  V30 1122 O 104.321 -0.639658 -1.83681 0
M  V30 1123 C 104.604 -3.60073 0.0443398 0
M  V30 1124 C 104.457 -4.26208 1.43759 0
M  V30 1125 C 105.776 -4.35309 -0.647608 0
M  V30 1126 H 102.895 -0.736175 0.034857 0
M  V30 1127 H 105.537 -1.73694 0.770081 0
M  V30 1128 H 103.687 -3.84823 -0.533224 0
M  V30 1129 H 105.359 -4.12668 2.06162 0
M  V30 1130 H 103.602 -3.84916 2.00056 0
M  V30 1131 H 104.273 -5.35069 1.35665 0
M  V30 1132 H 106.749 -4.15805 -0.156776 0
M  V30 1133 H 105.625 -5.45038 -0.649942 0
M  V30 1134 H 105.886 -4.07598 -1.71219 0
M  V30 1135 N 104.945 -0.338344 -1.53925 0
M  V30 1136 C 105.908 0.508299 -2.23493 0
M  V30 1137 C 106.908 1.03175 -1.23335 0
M  V30 1138 O 108.098 0.921826 -1.47811 0
M  V30 1139 C 105.23 1.70754 -2.95052 0
M  V30 1140 H 106.423 -0.100058 -2.99733 0
M  V30 1141 H 103.976 -0.0896198 -1.56043 0
M  V30 1142 H 104.711 2.35474 -2.22986 0
M  V30 1143 H 104.496 1.33946 -3.68512 0
M  V30 1144 H 105.986 2.30818 -3.48013 0
M  V30 1145 N 106.423 1.57458 -0.0668435 0
M  V30 1146 C 107.648 1.9804 0.616027 0
M  V30 1147 C 108.073 0.944771 1.62652 0
M  V30 1148 O 107.431 -0.0902094 1.81075 0
M  V30 1149 C 107.479 3.37665 1.26549 0
M  V30 1150 O 106.583 3.36701 2.38131 0
M  V30 1151 H 105.924 0.644719 0.158849 0
M  V30 1152 H 108.454 2.04121 -0.139891 0
M  V30 1153 H 108.464 3.7474 1.6135 0
M  V30 1154 H 107.139 4.12573 0.525016 0
M  V30 1155 H 105.716 3.1139 2.0516 0
M  V30 1156 N 107.901 -0.206675 1.56239 0
M  V30 1157 C 109.131 -0.943975 1.83773 0
M  V30 1158 C 109.539 -1.77841 0.645703 0
M  V30 1159 O 108.882 -1.79403 -0.395008 0
M  V30 1160 C 108.944 -1.899 3.05251 0
M  V30 1161 C 108.608 -1.24764 4.39639 0
M  V30 1162 C 109.605 -0.630216 5.16066 0
M  V30 1163 C 107.29 -1.25496 4.8637 0
M  V30 1164 C 109.284 -0.0287946 6.37393 0
M  V30 1165 C 106.971 -0.649698 6.07637 0
M  V30 1166 C 107.969 -0.0376845 6.8299 0
M  V30 1167 O 107.657 0.55812 8.0196 0
M  V30 1168 H 107.389 -0.281508 0.614597 0
M  V30 1169 H 109.943 -0.222458 2.04192 0
M  V30 1170 H 108.173 -2.6599 2.80689 0
M  V30 1171 H 109.862 -2.5031 3.1953 0
M  V30 1172 H 110.628 -0.616785 4.81062 0
M  V30 1173 H 106.507 -1.72072 4.27683 0
M  V30 1174 H 110.051 0.449518 6.9615 0
M  V30 1175 H 105.948 -0.660592 6.42111 0
M  V30 1176 H 106.716 0.453891 8.17241 0
M  V30 1177 N 109.379 -1.50304 -0.473955 0
M  V30 1178 C 110.625 -1.61389 -1.22806 0
M  V30 1179 C 110.958 -0.311955 -1.91678 0
M  V30 1180 O 110.233 0.686384 -1.81986 0
M  V30 1181 C 110.516 -2.79219 -2.27396 0
M  V30 1182 C 110.369 -4.19286 -1.62848 0
M  V30 1183 C 111.688 -2.92614 -3.28732 0
M  V30 1184 H 108.807 -0.587399 -0.445119 0
M  V30 1185 H 111.449 -1.82681 -0.522265 0
M  V30 1186 H 109.599 -2.61195 -2.87592 0
M  V30 1187 H 111.271 -4.48892 -1.06271 0
M  V30 1188 H 109.514 -4.23677 -0.931693 0
M  V30 1189 H 110.185 -4.97655 -2.38838 0
M  V30 1190 H 112.661 -3.09105 -2.78556 0
M  V30 1191 H 111.537 -3.76688 -3.99246 0
M  V30 1192 H 111.798 -2.03107 -3.92683 0
M  V30 1193 N 110.857 0.726932 -1.39834 0
M  V30 1194 C 111.789 1.85147 -1.35104 0
M  V30 1195 C 112.802 1.60736 -0.258392 0
M  V30 1196 O 113.991 1.70821 -0.517931 0
M  V30 1197 C 111.091 3.21332 -1.07697 0
M  V30 1198 C 110.264 3.73033 -2.28396 0
M  V30 1199 C 109.323 4.87802 -1.97322 0
M  V30 1200 O 108.349 5.01043 -2.70083 0
M  V30 1201 N 109.551 5.72768 -0.944273 0
M  V30 1202 H 112.316 1.89706 -2.32017 0
M  V30 1203 H 109.877 0.908006 -1.3404 0
M  V30 1204 H 111.869 3.95691 -0.849144 0
M  V30 1205 H 110.439 3.11992 -0.194909 0
M  V30 1206 H 109.659 2.89934 -2.6708 0
M  V30 1207 H 110.947 4.0431 -3.08887 0
M  V30 1208 H 110.345 5.64669 -0.341427 0
M  V30 1209 H 108.902 6.4716 -0.776346 0
M  V30 1210 N 112.336 1.25143 0.95797 0
M  V30 1211 C 113.266 1.07711 2.07173 0
M  V30 1212 C 114.247 -0.0128462 1.70095 0
M  V30 1213 O 115.432 0.156061 1.93572 0
M  V30 1214 C 112.562 0.691503 3.40346 0
M  V30 1215 C 111.516 1.73132 3.9142 0
M  V30 1216 C 110.842 1.20049 5.21049 0
M  V30 1217 C 112.142 3.1294 4.1817 0
M  V30 1218 H 113.836 2.00873 2.22014 0
M  V30 1219 H 111.382 0.967191 1.06684 0
M  V30 1220 H 113.335 0.556505 4.17709 0
M  V30 1221 H 112.059 -0.275819 3.25433 0
M  V30 1222 H 110.718 1.8547 3.16222 0
M  V30 1223 H 110.366 0.223499 5.02503 0
M  V30 1224 H 110.066 1.89545 5.56189 0
M  V30 1225 H 111.59 1.07782 6.01012 0
M  V30 1226 H 113.004 3.03775 4.86203 0
M  V30 1227 H 111.401 3.79875 4.64559 0
M  V30 1228 H 112.471 3.6025 3.24573 0
M  V30 1229 N 113.814 -1.1601 1.06675 0
M  V30 1230 C 114.762 -2.22586 0.675157 0
M  V30 1231 C 115.756 -1.66525 -0.310766 0
M  V30 1232 O 116.962 -1.79145 -0.175215 0
M  V30 1233 H 113.337 -0.724855 0.200223 0
M  V30 1234 H 115.308 -2.52899 1.58381 0
M  V30 1235 C 114.057 -3.47604 0.0817162 0
M  V30 1236 H 113.38 -3.91058 0.831484 0
M  V30 1237 H 114.82 -4.23718 -0.154708 0
M  V30 1238 C 113.279 -3.15718 -1.17576 0
M  V30 1239 O 113.809 -3.31878 -2.26318 0
M  V30 1240 N 112.015 -2.69816 -1.07923 0
M  V30 1241 H 111.562 -2.56866 -0.194293 0
M  V30 1242 H 111.52 -2.48855 -1.92141 0
M  V30 1243 N 115.292 -0.849877 -1.32721 0
M  V30 1244 C 116.255 -0.296122 -2.27279 0
M  V30 1245 C 117.255 0.541458 -1.5141 0
M  V30 1246 O 118.445 0.353658 -1.70572 0
M  V30 1247 C 115.577 0.581579 -3.35902 0
M  V30 1248 H 116.77 -1.13064 -2.77771 0
M  V30 1249 H 114.323 -0.62383 -1.43311 0
M  V30 1250 H 115.058 1.43809 -2.9067 0
M  V30 1251 H 114.843 -0.0178814 -3.92096 0
M  V30 1252 H 116.333 0.961951 -4.0637 0
M  V30 1253 N 116.77 1.45427 -0.607355 0
M  V30 1254 C 118.016 2.0254 -0.102607 0
M  V30 1255 C 118.349 1.47478 1.26348 0
M  V30 1256 O 117.624 0.64939 1.83339 0
M  V30 1257 C 117.907 3.60044 -0.0634347 0
M  V30 1258 C 117.76 4.2544 -1.46017 0
M  V30 1259 C 119.079 4.35646 0.624514 0
M  V30 1260 H 116.198 0.73598 -0.0387607 0
M  V30 1261 H 118.84 1.73284 -0.779282 0
M  V30 1262 H 116.99 3.85101 0.512808 0
M  V30 1263 H 118.662 4.11569 -2.08347 0
M  V30 1264 H 116.905 3.83849 -2.02094 0
M  V30 1265 H 117.576 5.34342 -1.385 0
M  V30 1266 H 120.052 4.15882 0.134723 0
M  V30 1267 H 118.928 5.45376 0.621028 0
M  V30 1268 H 119.189 4.08501 1.69055 0
M  V30 1269 N 118.248 0.346503 1.53744 0
M  V30 1270 C 119.18 -0.543316 2.22667 0
M  V30 1271 C 120.193 -1.06159 1.23427 0
M  V30 1272 O 121.382 -0.971235 1.49764 0
M  V30 1273 C 118.482 -1.76076 2.89569 0
M  V30 1274 C 117.655 -1.37727 4.15151 0
M  V30 1275 C 116.714 -2.45471 4.65436 0
M  V30 1276 O 115.74 -2.08655 5.29577 0
M  V30 1277 N 116.942 -3.7677 4.41616 0
M  V30 1278 H 119.707 0.0469703 2.99663 0
M  V30 1279 H 117.268 0.170766 1.60997 0
M  V30 1280 H 119.26 -2.47593 3.20125 0
M  V30 1281 H 117.83 -2.25835 2.16142 0
M  V30 1282 H 117.05 -0.492746 3.91108 0
M  V30 1283 H 118.338 -1.09708 4.96832 0
M  V30 1284 H 117.736 -4.09467 3.90325 0
M  V30 1285 H 116.293 -4.44448 4.7677 0
M  V30 1286 N 119.726 -1.57421 0.075193 0
M  V30 1287 C 120.656 -2.15942 -0.888324 0
M  V30 1288 C 121.637 -1.08737 -1.30806 0
M  V30 1289 O 122.822 -1.36787 -1.37851 0
M  V30 1290 C 119.952 -2.72379 -2.1547 0
M  V30 1291 C 118.906 -3.8478 -1.87425 0
M  V30 1292 C 118.232 -4.27834 -3.20721 0
M  V30 1293 C 119.532 -5.08869 -1.17684 0
M  V30 1294 H 121.226 -2.96705 -0.400799 0
M  V30 1295 H 118.772 -1.42723 -0.191342 0
M  V30 1296 H 120.725 -3.11965 -2.83295 0
M  V30 1297 H 119.449 -1.88841 -2.6647 0
M  V30 1298 H 118.108 -3.45703 -1.22004 0
M  V30 1299 H 117.756 -3.41214 -3.6957 0
M  V30 1300 H 117.456 -5.03605 -3.02746 0
M  V30 1301 H 118.98 -4.70039 -3.89738 0
M  V30 1302 H 120.394 -5.4575 -1.75584 0
M  V30 1303 H 118.791 -5.8994 -1.09956 0
M  V30 1304 H 119.861 -4.84648 -0.156453 0
M  V30 1305 N 121.204 0.198386 -1.56346 0
M  V30 1306 C 122.154 1.2499 -1.90687 0
M  V30 1307 C 123.138 1.41158 -0.772217 0
M  V30 1308 O 124.33 1.43584 -1.03502 0
M  V30 1309 C 121.459 2.59542 -2.24706 0
M  V30 1310 C 120.545 2.47181 -3.44619 0
M  V30 1311 N 120.936 2.04495 -4.62618 0
M  V30 1312 C 119.234 2.78082 -3.48692 0
M  V30 1313 C 119.935 2.03945 -5.44776 0
M  V30 1314 N 118.911 2.45323 -4.85095 0
M  V30 1315 H 122.713 0.911149 -2.7942 0
M  V30 1316 H 120.227 0.40684 -1.57221 0
M  V30 1317 H 122.224 3.3549 -2.47491 0
M  V30 1318 H 120.884 2.94244 -1.37298 0
M  V30 1319 H 121.895 1.75256 -4.87345 0
M  V30 1320 H 118.572 3.17002 -2.71691 0
M  V30 1321 H 119.962 1.72872 -6.4928 0
M  V30 1322 N 122.682 1.50554 0.465978 0
M  V30 1323 C 123.93 1.61479 1.21528 0
M  V30 1324 C 124.251 0.319596 1.92363 0
M  V30 1325 O 123.521 -0.663194 1.84333 0
M  V30 1326 H 122.101 0.595055 0.451573 0
M  V30 1327 H 124.763 1.87355 0.53704 0
M  V30 1328 H 123.859 2.42846 1.96042 0
M  V30 1329 N 124.16 -0.719506 1.40217 0
M  V30 1330 C 125.07 -1.86378 1.42479 0
M  V30 1331 C 126.086 -1.71073 0.317834 0
M  V30 1332 O 127.262 -1.93406 0.561794 0
M  V30 1333 C 124.327 -3.22136 1.28178 0
M  V30 1334 C 123.388 -3.49723 2.48982 0
M  V30 1335 C 122.621 -4.79004 2.35353 0
M  V30 1336 O 122.844 -5.53821 1.36524 0
M  V30 1337 O 121.778 -5.06839 3.2465 0
M  V30 1338 H 125.604 -1.87425 2.38968 0
M  V30 1339 H 123.189 -0.869405 1.21498 0
M  V30 1340 H 125.071 -4.03234 1.22395 0
M  V30 1341 H 123.746 -3.21825 0.347934 0
M  V30 1342 H 122.653 -2.6865 2.60342 0
M  V30 1343 H 123.986 -3.54828 3.41113 0
M  V30 1344 N 125.638 -1.25649 -0.95132 0
M  V30 1345 C 126.548 -1.08073 -2.08224 0
M  V30 1346 C 127.564 -0.0169666 -1.73992 0
M  V30 1347 O 128.74 -0.218593 -2.0021 0
M  V30 1348 C 125.805 -0.704922 -3.39458 0
M  V30 1349 C 124.866 -1.84699 -3.87537 0
M  V30 1350 C 124.099 -1.48902 -5.12508 0
M  V30 1351 O 124.322 -0.386156 -5.69091 0
M  V30 1352 O 123.256 -2.32033 -5.55378 0
M  V30 1353 H 127.082 -2.02924 -2.25954 0
M  V30 1354 H 124.667 -1.04618 -1.06656 0
M  V30 1355 H 126.549 -0.507609 -4.18332 0
M  V30 1356 H 125.224 0.214291 -3.2299 0
M  V30 1357 H 124.131 -2.09919 -3.09653 0
M  V30 1358 H 125.464 -2.74557 -4.08509 0
M  V30 1359 N 127.117 1.15442 -1.07289 0
M  V30 1360 C 128.528 1.67803 -0.818475 0
M  V30 1361 C 128.879 1.8489 0.656507 0
M  V30 1362 O 128.004 1.55176 1.50829 0
M  V30 1363 C 128.599 3.04805 -1.47917 0
M  V30 1364 C 127.158 3.54245 -1.27229 0
M  V30 1365 C 126.305 2.29986 -1.54925 0
M  V30 1366 H 129.256 0.996646 -1.23502 0
M  V30 1367 H 129.277 3.69702 -0.90005 0
M  V30 1368 H 128.789 2.92336 -2.55267 0
M  V30 1369 H 126.89 3.71956 -0.21899 0
M  V30 1370 H 127.003 4.35723 -1.99203 0
M  V30 1371 H 125.367 2.35496 -0.970242 0
M  V30 1372 H 126.15 2.20105 -2.63455 0
M  V30 1373 N 128.595 0.856903 1.32268 0
M  V30 1374 C 129.844 0.457599 1.96441 0
M  V30 1375 C 130.157 -0.992426 1.68553 0
M  V30 1376 O 131.363 -1.49727 2.26482 0
M  V30 1377 C 129.819 0.767358 3.51624 0
M  V30 1378 C 129.427 2.23326 3.88367 0
M  V30 1379 C 131.171 0.435887 4.22256 0
M  V30 1380 C 129.078 2.48613 5.36606 0
M  V30 1381 H 128.008 0.167387 0.735185 0
M  V30 1382 H 130.659 1.048 1.5063 0
M  V30 1383 H 129.041 0.106367 3.95857 0
M  V30 1384 H 130.215 2.93623 3.55137 0
M  V30 1385 H 128.53 2.52948 3.30766 0
M  V30 1386 H 131.127 0.602202 5.31298 0
M  V30 1387 H 131.47 -0.622672 4.11617 0
M  V30 1388 H 132.003 1.05286 3.83614 0
M  V30 1389 H 128.742 3.53101 5.52268 0
M  V30 1390 H 128.262 1.82896 5.71235 0
M  V30 1391 H 129.941 2.32676 6.03714 0
M  V30 1392 N 130.073 -1.45103 0.615059 0
M  V30 1393 C 130.983 -2.34382 -0.101034 0
M  V30 1394 C 131.999 -1.51681 -0.852585 0
M  V30 1395 O 133.175 -1.8446 -0.808484 0
M  V30 1396 C 130.24 -3.29417 -1.08099 0
M  V30 1397 C 129.301 -4.28025 -0.330577 0
M  V30 1398 C 128.534 -5.1852 -1.26385 0
M  V30 1399 O 128.757 -5.12598 -2.50198 0
M  V30 1400 O 127.691 -5.97122 -0.756866 0
M  V30 1401 H 131.517 -2.97033 0.632855 0
M  V30 1402 H 129.102 -1.4461 0.375293 0
M  V30 1403 H 130.984 -3.87958 -1.6452 0
M  V30 1404 H 129.659 -2.69321 -1.79577 0
M  V30 1405 H 128.566 -3.73078 0.276283 0
M  V30 1406 H 129.899 -4.90997 0.343866 0
M  V30 1407 N 131.551 -0.354651 -1.53558 0
M  V30 1408 C 132.481 0.489091 -2.2832 0
M  V30 1409 C 133.462 1.09324 -1.30316 0
M  V30 1410 O 134.647 1.11255 -1.59173 0
M  V30 1411 C 131.777 1.63456 -3.0643 0
M  V30 1412 C 130.731 1.1582 -4.12031 0
M  V30 1413 C 130.057 2.39305 -4.7816 0
M  V30 1414 C 131.357 0.250731 -5.21698 0
M  V30 1415 H 133.051 -0.134614 -2.99097 0
M  V30 1416 H 130.597 -0.0661826 -1.43848 0
M  V30 1417 H 132.55 2.23136 -3.57475 0
M  V30 1418 H 131.274 2.28533 -2.33325 0
M  V30 1419 H 129.933 0.584146 -3.61916 0
M  V30 1420 H 129.581 3.02814 -4.01637 0
M  V30 1421 H 129.281 2.08109 -5.49513 0
M  V30 1422 H 130.805 2.99691 -5.31994 0
M  V30 1423 H 132.219 0.754695 -5.68311 0
M  V30 1424 H 130.616 0.0301468 -6.00092 0
M  V30 1425 H 131.686 -0.710125 -4.79672 0
M  V30 1426 N 133.029 1.57378 -0.0835403 0
M  V30 1427 C 134.269 1.95808 0.586381 0
M  V30 1428 C 134.633 0.963706 1.66062 0
M  V30 1429 O 135.834 1.23608 2.38693 0
M  V30 1430 C 134.105 3.38808 1.13771 0
M  V30 1431 S 135.664 3.99225 1.82112 0
M  V30 1432 H 132.482 0.684675 0.191679 0
M  V30 1433 H 135.084 1.94843 -0.160194 0
M  V30 1434 H 133.788 4.08954 0.344197 0
M  V30 1435 H 133.319 3.43344 1.92038 0
M  V30 1436 H 135.334 3.87087 3.10449 0
M  V30 1437 N 134.507 -0.190092 1.56449 0
M  V30 1438 C 135.923 -0.54113 1.50146 0
M  V30 1439 C 136.123 -1.85603 0.784465 0
M  V30 1440 O 135.179 -2.5024 0.337051 0
M  V30 1441 C 136.492 -0.591241 2.9483 0
M  V30 1442 C 138.04 -0.679732 3.0553 0
M  V30 1443 C 138.515 -0.760908 4.51635 0
M  V30 1444 N 140.006 -0.824302 4.55806 0
M  V30 1445 C 140.741 -0.907365 5.66175 0
M  V30 1446 N 140.237 -0.952422 6.86222 0
M  V30 1447 N 142.03 -0.94494 5.541 0
M  V30 1448 H 134.181 0.67235 2.01478 0
M  V30 1449 H 136.444 0.240127 0.917084 0
M  V30 1450 H 136.15 0.305905 3.50367 0
M  V30 1451 H 136.024 -1.44422 3.48457 0
M  V30 1452 H 138.411 -1.56731 2.50039 0
M  V30 1453 H 138.492 0.199549 2.5502 0
M  V30 1454 H 138.136 0.122336 5.07753 0
M  V30 1455 H 138.066 -1.65606 4.99882 0
M  V30 1456 H 140.557 -0.798526 3.69367 0
M  V30 1457 H 140.87 -1.01645 7.66086 0
M  V30 1458 H 139.215 -0.921014 6.8887 0
M  V30 1459 H 142.406 -0.906612 4.59236 0
M  V30 1460 H 142.579 -1.00622 6.4014 0
M  V30 1461 N 135.985 -1.50799 -0.457987 0
M  V30 1462 C 136.932 -1.70617 -1.5543 0
M  V30 1463 C 137.902 -0.547562 -1.56815 0
M  V30 1464 O 139.087 -0.779647 -1.74144 0
M  V30 1465 C 136.227 -1.81831 -2.93311 0
M  V30 1466 C 135.34 -3.09278 -3.01615 0
M  V30 1467 C 134.475 -3.11209 -4.30491 0
M  V30 1468 C 133.514 -4.33055 -4.32585 0
M  V30 1469 N 132.651 -4.32652 -5.52952 0
M  V30 1470 H 137.491 -2.64207 -1.37836 0
M  V30 1471 H 135.028 -1.30959 -0.669937 0
M  V30 1472 H 136.986 -1.86314 -3.73287 0
M  V30 1473 H 135.616 -0.916685 -3.0951 0
M  V30 1474 H 134.668 -3.14203 -2.1443 0
M  V30 1475 H 135.98 -3.99233 -2.99022 0
M  V30 1476 H 135.134 -3.14494 -5.18824 0
M  V30 1477 H 133.873 -2.19106 -4.35711 0
M  V30 1478 H 132.878 -4.29969 -3.42647 0
M  V30 1479 H 134.103 -5.264 -4.29046 0
M  V30 1480 H 132.049 -3.43409 -5.58933 0
M  V30 1481 H 131.966 -5.16392 -5.52155 0
M  V30 1482 H 133.234 -4.40101 -6.43375 0
M  V30 1483 N 137.463 0.71206 -1.40597 0
M  V30 1484 C 138.712 1.46754 -1.38369 0
M  V30 1485 C 139.025 1.95598 0.0097839 0
M  V30 1486 O 140.231 2.71059 0.154677 0
M  V30 1487 C 138.687 2.65289 -2.43207 0
M  V30 1488 C 138.295 2.23301 -3.88382 0
M  V30 1489 C 140.039 3.43008 -2.50091 0
M  V30 1490 C 137.946 3.38696 -4.84808 0
M  V30 1491 H 136.876 0.55118 -0.514506 0
M  V30 1492 H 139.527 0.774616 -1.66349 0
M  V30 1493 H 137.909 3.36769 -2.08332 0
M  V30 1494 H 139.083 1.59218 -4.32419 0
M  V30 1495 H 137.398 1.58618 -3.85006 0
M  V30 1496 H 139.995 4.28881 -3.1932 0
M  V30 1497 H 140.338 3.87065 -1.53253 0
M  V30 1498 H 140.871 2.78574 -2.83974 0
M  V30 1499 H 137.61 2.99668 -5.82992 0
M  V30 1500 H 137.13 4.01683 -4.45433 0
M  V30 1501 H 138.809 4.04712 -5.04794 0
M  V30 1502 N 138.941 1.26152 0.944643 0
M  V30 1503 C 139.904 1.07474 2.0244 0
M  V30 1504 C 140.904 0.0242064 1.60782 0
M  V30 1505 O 142.094 0.267302 1.72137 0
M  V30 1506 C 139.226 0.633956 3.34953 0
M  V30 1507 H 140.419 2.03336 2.20442 0
M  V30 1508 H 137.972 1.087 1.12312 0
M  V30 1509 H 138.707 -0.326811 3.22649 0
M  V30 1510 H 138.492 1.39247 3.66542 0
M  V30 1511 H 139.982 0.52501 4.14287 0
M  V30 1512 N 140.419 -1.14872 1.07899 0
M  V30 1513 C 141.329 -2.2341 0.715915 0
M  V30 1514 C 142.345 -1.71808 -0.275306 0
M  V30 1515 O 143.521 -2.01039 -0.120545 0
M  V30 1516 C 140.586 -3.46474 0.125168 0
M  V30 1517 C 139.647 -4.13039 1.17034 0
M  V30 1518 C 138.88 -5.30229 0.607688 0
M  V30 1519 O 139.103 -5.675 -0.574497 0
M  V30 1520 O 138.037 -5.86444 1.35526 0
M  V30 1521 H 141.863 -2.56808 1.62121 0
M  V30 1522 H 139.448 -1.22702 0.852322 0
M  V30 1523 H 141.33 -4.20917 -0.201729 0
M  V30 1524 H 140.005 -3.14811 -0.753364 0
M  V30 1525 H 138.912 -3.40493 1.54968 0
M  V30 1526 H 140.245 -4.48796 2.02097 0
M  V30 1527 N 141.898 -0.863906 -1.31812 0
M  V30 1528 C 143.314 -0.555004 -1.49639 0
M  V30 1529 C 143.514 0.912266 -1.79666 0
M  V30 1530 O 142.57 1.69479 -1.87171 0
M  V30 1531 C 143.883 -1.44998 -2.63431 0
M  V30 1532 C 145.431 -1.45138 -2.77316 0
M  V30 1533 C 145.906 -2.33179 -3.94197 0
M  V30 1534 N 147.397 -2.31025 -4.01474 0
M  V30 1535 C 148.132 -2.95871 -4.9117 0
M  V30 1536 N 147.628 -3.69863 -5.8581 0
M  V30 1537 N 149.421 -2.85211 -4.84367 0
M  V30 1538 H 141.572 -1.81339 -1.10589 0
M  V30 1539 H 143.835 -0.77505 -0.545895 0
M  V30 1540 H 143.541 -2.49377 -2.48 0
M  V30 1541 H 143.415 -1.14409 -3.59431 0
M  V30 1542 H 145.802 -0.415201 -2.92164 0
M  V30 1543 H 145.883 -1.79747 -1.82001 0
M  V30 1544 H 145.527 -3.3687 -3.80107 0
M  V30 1545 H 145.457 -1.95897 -4.88807 0
M  V30 1546 H 147.948 -1.77238 -3.33759 0
M  V30 1547 H 148.261 -4.16486 -6.50968 0
M  V30 1548 H 146.606 -3.73971 -5.85808 0
M  V30 1549 H 149.797 -2.26948 -4.09405 0
M  V30 1550 H 149.97 -3.36027 -5.54066 0
M  V30 1551 N 143.376 1.44774 -0.622745 0
M  V30 1552 C 144.625 2.01334 -0.121397 0
M  V30 1553 C 144.938 1.49505 1.26125 0
M  V30 1554 O 146.144 1.98139 1.85616 0
M  V30 1555 C 144.6 3.59516 -0.166298 0
M  V30 1556 C 144.208 4.20342 -1.54974 0
M  V30 1557 C 145.952 4.23582 0.279021 0
M  V30 1558 C 143.859 5.70721 -1.55021 0
M  V30 1559 H 142.789 0.752851 -0.0416172 0
M  V30 1560 H 145.44 1.66083 -0.780309 0
M  V30 1561 H 143.822 3.92027 0.559557 0
M  V30 1562 H 144.996 3.99381 -2.29851 0
M  V30 1563 H 143.311 3.68529 -1.93843 0
M  V30 1564 H 145.908 5.33868 0.298083 0
M  V30 1565 H 146.251 3.95327 1.30471 0
M  V30 1566 H 146.784 3.95843 -0.394063 0
M  V30 1567 H 143.523 6.03698 -2.55399 0
M  V30 1568 H 143.043 5.93829 -0.844245 0
M  V30 1569 H 144.722 6.34203 -1.28047 0
M  V30 1570 N 144.854 0.36279 1.53368 0
M  V30 1571 C 145.784 -0.476976 2.28576 0
M  V30 1572 C 146.765 -1.08631 1.30894 0
M  V30 1573 O 147.95 -1.10409 1.59761 0
M  V30 1574 C 145.08 -1.61828 3.07293 0
M  V30 1575 C 144.034 -1.13633 4.1264 0
M  V30 1576 C 143.36 -2.36766 4.79423 0
M  V30 1577 C 144.66 -0.223061 5.21823 0
M  V30 1578 H 146.354 0.150474 2.99022 0
M  V30 1579 H 143.9 0.0738103 1.43811 0
M  V30 1580 H 145.853 -2.21237 3.58653 0
M  V30 1581 H 144.577 -2.27292 2.34533 0
M  V30 1582 H 143.236 -0.564945 3.62221 0
M  V30 1583 H 142.884 -3.0068 4.03238 0
M  V30 1584 H 142.584 -2.05192 5.50609 0
M  V30 1585 H 144.108 -2.96865 5.33576 0
M  V30 1586 H 145.522 -0.724545 5.68703 0
M  V30 1587 H 143.919 0.001678 6.001 0
M  V30 1588 H 144.989 0.735553 4.79289 0
M  V30 1589 N 146.332 -1.57332 0.0918853 0
M  V30 1590 C 147.578 -1.94524 -0.573425 0
M  V30 1591 C 147.911 -0.973578 -1.68033 0
M  V30 1592 O 147.186 -0.00609226 -1.94499 0
M  V30 1593 C 147.469 -3.41858 -1.13161 0
M  V30 1594 C 147.322 -4.4979 -0.0299747 0
M  V30 1595 C 148.641 -3.90435 -2.03098 0
M  V30 1596 H 145.76 -0.70734 -0.206975 0
M  V30 1597 H 148.402 -1.89309 0.161942 0
M  V30 1598 H 146.552 -3.46433 -1.7583 0
M  V30 1599 H 148.224 -4.57327 0.604112 0
M  V30 1600 H 146.467 -4.291 0.636833 0
M  V30 1601 H 147.138 -5.50069 -0.461287 0
M  V30 1602 H 149.614 -3.87992 -1.50338 0
M  V30 1603 H 148.49 -4.94097 -2.39081 0
M  V30 1604 H 148.751 -3.29541 -2.94712 0
M  V30 1605 N 147.81 0.181792 -1.56548 0
M  V30 1606 C 149.059 0.898348 -1.8059 0
M  V30 1607 C 149.372 1.83862 -0.667379 0
M  V30 1608 O 150.578 2.59678 -0.792446 0
M  V30 1609 C 149.034 1.64791 -3.19956 0
M  V30 1610 C 148.642 0.751789 -4.41647 0
M  V30 1611 C 150.386 2.35331 -3.53298 0
M  V30 1612 C 148.293 1.50098 -5.72035 0
M  V30 1613 H 147.223 0.339194 -0.673397 0
M  V30 1614 H 149.874 0.151413 -1.82874 0
M  V30 1615 H 148.256 2.43921 -3.11959 0
M  V30 1616 H 149.43 -0.0018076 -4.608 0
M  V30 1617 H 147.745 0.156562 -4.16106 0
M  V30 1618 H 150.342 2.91958 -4.47956 0
M  V30 1619 H 150.685 3.10164 -2.77676 0
M  V30 1620 H 151.218 1.63154 -3.62803 0
M  V30 1621 H 147.957 0.795175 -6.50659 0
M  V30 1622 H 147.477 2.22817 -5.56878 0
M  V30 1623 H 149.156 2.05125 -6.13622 0
M  V30 1624 N 149.288 1.51039 0.449983 0
M  V30 1625 C 150.235 1.71439 1.54523 0
M  V30 1626 C 151.205 0.555871 1.56522 0
M  V30 1627 O 152.39 0.788871 1.73728 0
M  V30 1628 C 149.53 1.83384 2.92343 0
M  V30 1629 C 148.643 3.10873 2.9997 0
M  V30 1630 C 147.778 3.13488 4.28834 0
M  V30 1631 C 146.817 4.35343 4.30282 0
M  V30 1632 N 145.954 4.35579 5.5065 0
M  V30 1633 H 150.794 2.64934 1.36433 0
M  V30 1634 H 148.331 1.31312 0.662982 0
M  V30 1635 H 150.289 1.88291 3.72293 0
M  V30 1636 H 148.919 0.933086 3.0902 0
M  V30 1637 H 147.971 3.15336 2.12761 0
M  V30 1638 H 149.283 4.00814 2.96901 0
M  V30 1639 H 148.437 3.17241 5.17149 0
M  V30 1640 H 147.176 2.21414 4.34543 0
M  V30 1641 H 146.181 4.3178 3.40362 0
M  V30 1642 H 147.406 5.28668 4.26248 0
M  V30 1643 H 145.352 3.46369 5.57104 0
M  V30 1644 H 145.269 5.19313 5.49409 0
M  V30 1645 H 146.537 4.43507 6.41032 0
M  V30 1646 N 150.766 -0.704594 1.40972 0
M  V30 1647 C 151.729 -1.80035 1.41845 0
M  V30 1648 C 152.729 -1.57774 0.310474 0
M  V30 1649 O 153.919 -1.64613 0.56992 0
M  V30 1650 C 151.051 -3.18284 1.22098 0
M  V30 1651 H 152.244 -1.80658 2.3938 0
M  V30 1652 H 149.797 -0.911329 1.26982 0
M  V30 1653 H 150.532 -3.23306 0.253672 0
M  V30 1654 H 150.317 -3.35843 2.02366 0
M  V30 1655 H 151.807 -3.98289 1.25522 0
M  V30 1656 N 152.244 -1.26651 -0.937939 0
M  V30 1657 C 153.49 -1.12553 -1.687 0
M  V30 1658 C 153.823 0.329782 -1.91379 0
M  V30 1659 O 153.098 1.24202 -1.4968 0
M  V30 1660 C 153.381 -1.89862 -3.05981 0
M  V30 1661 C 153.234 -3.43318 -2.90607 0
M  V30 1662 C 154.553 -1.69499 -4.0615 0
M  V30 1663 H 151.672 -0.410257 -0.612257 0
M  V30 1664 H 154.314 -1.55685 -1.08913 0
M  V30 1665 H 152.464 -1.53204 -3.57017 0
M  V30 1666 H 154.136 -3.89747 -2.46769 0
M  V30 1667 H 152.379 -3.70179 -2.26164 0
M  V30 1668 H 153.05 -3.92642 -3.8799 0
M  V30 1669 H 155.526 -2.01442 -3.64088 0
M  V30 1670 H 154.402 -2.26002 -5.00214 0
M  V30 1671 H 154.663 -0.640365 -4.37438 0
M  V30 1672 N 153.722 1.14298 -1.08507 0
M  V30 1673 C 154.97 1.84993 -0.813763 0
M  V30 1674 C 155.291 1.83405 0.662393 0
M  V30 1675 O 154.561 1.28319 1.48024 0
M  V30 1676 H 153.141 0.684966 -0.298045 0
M  V30 1677 H 155.803 1.385 -1.37126 0
M  V30 1678 H 154.899 2.89788 -1.15884 0
M  V30 1679 N 155.201 0.870884 1.31352 0
M  V30 1680 C 156.447 0.482987 1.96965 0
M  V30 1681 C 156.78 -0.962462 1.68672 0
M  V30 1682 O 156.055 -1.6779 0.98371 0
M  V30 1683 C 156.338 0.741752 3.52378 0
M  V30 1684 C 156.191 2.2368 3.9024 0
M  V30 1685 C 157.51 0.208838 4.39604 0
M  V30 1686 H 154.629 0.176955 0.715441 0
M  V30 1687 H 157.271 1.09229 1.55464 0
M  V30 1688 H 155.421 0.223149 3.87859 0
M  V30 1689 H 157.093 2.82273 3.64856 0
M  V30 1690 H 155.336 2.70901 3.38814 0
M  V30 1691 H 156.007 2.3685 4.98604 0
M  V30 1692 H 158.483 0.652529 4.10952 0
M  V30 1693 H 157.359 0.419336 5.47296 0
M  V30 1694 H 157.62 -0.889275 4.33064 0
M  V30 1695 N 156.679 -1.44442 0.630414 0
M  V30 1696 C 157.904 -2.06927 0.139944 0
M  V30 1697 C 158.329 -1.46795 -1.17613 0
M  V30 1698 O 157.687 -0.569144 -1.72135 0
M  V30 1699 C 157.735 -3.6058 0.0379581 0
M  V30 1700 O 156.839 -3.99937 -1.0062 0
M  V30 1701 H 156.18 -0.658608 0.0844483 0
M  V30 1702 H 158.71 -1.85327 0.866891 0
M  V30 1703 H 158.72 -4.07714 -0.152856 0
M  V30 1704 H 157.395 -4.03728 0.998809 0
M  V30 1705 H 155.972 -3.64436 -0.79001 0
M  V30 1706 N 158.157 -0.370918 -1.53173 0
M  V30 1707 C 159.105 0.488101 -2.27421 0
M  V30 1708 C 160.099 1.07884 -1.30604 0
M  V30 1709 O 161.305 1.02143 -1.48212 0
M  V30 1710 H 157.68 0.176134 -0.731082 0
M  V30 1711 H 159.651 -0.159815 -2.97972 0
M  V30 1712 C 158.4 1.61306 -3.08019 0
M  V30 1713 H 157.723 1.1678 -3.82364 0
M  V30 1714 H 159.163 2.18872 -3.63141 0
M  V30 1715 C 157.622 2.55848 -2.19188 0
M  V30 1716 O 158.152 3.58799 -1.80626 0
M  V30 1717 N 156.358 2.2516 -1.83715 0
M  V30 1718 H 155.905 1.41476 -2.15273 0
M  V30 1719 H 155.863 2.8867 -1.24567 0
M  V30 1720 N 159.635 1.57281 -0.100228 0
M  V30 1721 C 160.545 2.17833 0.870965 0
M  V30 1722 C 161.561 1.14921 1.30649 0
M  V30 1723 O 162.737 1.47313 1.37335 0
M  V30 1724 C 159.802 2.75085 2.1102 0
M  V30 1725 C 158.863 3.9297 1.72838 0
M  V30 1726 C 158.096 4.47482 2.90854 0
M  V30 1727 O 158.319 4.00922 4.05731 0
M  V30 1728 O 157.253 5.38433 2.69023 0
M  V30 1729 H 161.079 3.0124 0.38575 0
M  V30 1730 H 158.664 1.48881 0.124397 0
M  V30 1731 H 160.546 3.11656 2.83634 0
M  V30 1732 H 159.221 1.94721 2.58584 0
M  V30 1733 H 158.128 3.61201 0.973883 0
M  V30 1734 H 159.461 4.74713 1.30033 0
M  V30 1735 N 161.113 -0.173488 1.56642 0
M  V30 1736 C 162.529 -0.525174 1.50712 0
M  V30 1737 C 162.729 -1.8476 0.804107 0
M  V30 1738 O 161.785 -2.49869 0.363574 0
M  V30 1739 C 163.098 -0.559937 2.95441 0
M  V30 1740 C 164.646 -0.647288 3.06234 0
M  V30 1741 C 165.121 -0.712963 4.52417 0
M  V30 1742 N 166.612 -0.775911 4.56655 0
M  V30 1743 C 167.347 -0.847264 5.67106 0
M  V30 1744 N 166.843 -0.879585 6.87194 0
M  V30 1745 N 168.636 -0.886117 5.55071 0
M  V30 1746 H 160.787 0.693681 2.00753 0
M  V30 1747 H 163.05 0.249841 0.914485 0
M  V30 1748 H 162.756 0.343049 3.50023 0
M  V30 1749 H 162.63 -1.40718 3.49969 0
M  V30 1750 H 165.017 -1.5407 2.51687 0
M  V30 1751 H 165.098 0.226586 2.54794 0
M  V30 1752 H 164.742 0.176183 5.07594 0
M  V30 1753 H 164.672 -1.60295 5.0161 0
M  V30 1754 H 167.163 -0.759304 3.70193 0
M  V30 1755 H 167.476 -0.935144 7.67121 0
M  V30 1756 H 165.821 -0.847898 6.89808 0
M  V30 1757 H 169.012 -0.857853 4.60172 0
M  V30 1758 H 169.185 -0.938263 6.41171 0
M  V30 1759 N 162.591 -1.51276 -0.441967 0
M  V30 1760 C 163.868 -1.54252 -1.20273 0
M  V30 1761 C 164.248 -0.30408 -2.08898 0
M  V30 1762 O 163.596 0.711084 -2.17154 0
M  V30 1763 C 163.806 -2.85406 -2.00859 0
M  V30 1764 C 165.154 -3.37181 -2.58059 0
M  V30 1765 O 166.178 -2.86925 -2.11074 0
M  V30 1766 O 165.037 -4.24858 -3.43741 0
M  V30 1767 H 162.131 -0.619969 -0.547328 0
M  V30 1768 H 164.677 -1.63586 -0.451413 0
M  V30 1769 H 163.449 -3.67003 -1.35736 0
M  V30 1770 H 163.072 -2.79213 -2.83065 0
M  V30 1771 N 164.069 0.697108 -1.41344 0
M  V30 1772 C 165.002 1.82134 -1.37486 0
M  V30 1773 C 165.98 1.60784 -0.242351 0
M  V30 1774 O 167.164 1.83553 -0.429012 0
M  V30 1775 C 164.291 3.18788 -1.14421 0
M  V30 1776 C 163.337 3.58932 -2.3037 0
M  V30 1777 S 164.17 3.63916 -3.92843 0
M  V30 1778 C 165.326 5.03298 -3.72078 0
M  V30 1779 H 165.559 1.85129 -2.32625 0
M  V30 1780 H 163.092 0.865671 -1.2785 0
M  V30 1781 H 165.05 3.97677 -1.018 0
M  V30 1782 H 163.711 3.13404 -0.20905 0
M  V30 1783 H 162.904 4.58202 -2.09922 0
M  V30 1784 H 162.506 2.87347 -2.39391 0
M  V30 1785 H 164.798 5.90753 -3.31688 0
M  V30 1786 H 165.741 5.28788 -4.70945 0
M  V30 1787 H 166.149 4.74764 -3.05384 0
M  V30 1788 N 165.547 1.27147 0.931209 0
M  V30 1789 C 166.457 1.11372 2.06478 0
M  V30 1790 C 167.473 0.044645 1.73943 0
M  V30 1791 O 168.649 0.250417 1.99837 0
M  V30 1792 C 165.714 0.758838 3.38294 0
M  V30 1793 C 164.775 1.90841 3.84549 0
M  V30 1794 C 164.008 1.57036 5.10074 0
M  V30 1795 O 164.231 0.476645 5.68405 0
M  V30 1796 O 163.165 2.40839 5.51616 0
M  V30 1797 H 166.991 2.06493 2.22698 0
M  V30 1798 H 164.576 1.06301 1.04978 0
M  V30 1799 H 166.458 0.574098 4.17471 0
M  V30 1800 H 165.133 -0.162879 3.2329 0
M  V30 1801 H 164.04 2.14819 3.06274 0
M  V30 1802 H 165.373 2.81021 4.04089 0
M  V30 1803 N 167.025 -1.13721 1.09112 0
M  V30 1804 C 168.441 -1.36914 0.820174 0
M  V30 1805 C 168.641 -1.93356 -0.567079 0
M  V30 1806 O 167.697 -2.15093 -1.32255 0
M  V30 1807 C 169.01 -2.3235 1.90877 0
M  V30 1808 C 170.558 -2.45973 1.93562 0
M  V30 1809 C 171.033 -3.44714 3.01556 0
M  V30 1810 N 172.524 -3.52263 3.00775 0
M  V30 1811 C 173.259 -4.28536 3.80978 0
M  V30 1812 N 172.755 -5.07991 4.71081 0
M  V30 1813 N 174.548 -4.23804 3.69251 0
M  V30 1814 H 166.699 -0.754348 1.98553 0
M  V30 1815 H 168.962 -0.3944 0.862063 0
M  V30 1816 H 168.668 -1.98027 2.90651 0
M  V30 1817 H 168.542 -3.32332 1.78424 0
M  V30 1818 H 170.929 -2.79584 0.944286 0
M  V30 1819 H 171.01 -1.45926 2.10093 0
M  V30 1820 H 170.654 -3.11835 4.00901 0
M  V30 1821 H 170.584 -4.44558 2.82269 0
M  V30 1822 H 173.075 -2.95567 2.35475 0
M  V30 1823 H 173.388 -5.63487 5.28869 0
M  V30 1824 H 171.733 -5.07235 4.75119 0
M  V30 1825 H 174.924 -3.60806 2.98222 0
M  V30 1826 H 175.097 -4.82995 4.31995 0
M  V30 1827 N 168.503 -0.877838 -1.30888 0
M  V30 1828 C 169.466 -0.344265 -2.266 0
M  V30 1829 C 170.466 0.50922 -1.52524 0
M  V30 1830 O 171.656 0.317398 -1.71284 0
M  V30 1831 C 168.788 0.510198 -3.37061 0
M  V30 1832 H 169.981 -1.1893 -2.7531 0
M  V30 1833 H 167.534 -0.654088 -1.41956 0
M  V30 1834 H 168.269 1.37612 -2.93655 0
M  V30 1835 H 168.054 -0.101047 -3.9197 0
M  V30 1836 H 169.544 0.875537 -4.08319 0
M  V30 1837 N 169.982 1.44106 -0.638065 0
M  V30 1838 C 170.912 2.33448 0.0494287 0
M  V30 1839 C 171.893 1.48606 0.827672 0
M  V30 1840 O 173.078 1.77308 0.792173 0
M  V30 1841 C 170.208 3.31771 1.02691 0
M  V30 1842 C 169.162 4.26485 0.359823 0
M  V30 1843 C 168.488 5.14729 1.44769 0
M  V30 1844 C 169.788 5.17056 -0.738296 0
M  V30 1845 H 171.482 2.91183 -0.696636 0
M  V30 1846 H 169.028 1.40014 -0.336456 0
M  V30 1847 H 170.981 3.93161 1.51666 0
M  V30 1848 H 169.705 2.7226 1.80395 0
M  V30 1849 H 168.364 3.66437 -0.10934 0
M  V30 1850 H 168.012 4.51566 2.21578 0
M  V30 1851 H 167.712 5.78913 1.00668 0
M  V30 1852 H 169.236 5.78991 1.93911 0
M  V30 1853 H 170.65 5.72342 -0.331354 0
M  V30 1854 H 169.047 5.89879 -1.10286 0
M  V30 1855 H 170.117 4.57652 -1.60258 0
M  V30 1856 N 171.46 0.379036 1.52974 0
M  V30 1857 C 172.408 -0.476033 2.27677 0
M  V30 1858 C 173.402 -1.0719 1.31174 0
M  V30 1859 O 174.608 -1.01355 1.48752 0
M  V30 1860 H 170.983 -0.172255 0.732006 0
M  V30 1861 H 172.954 0.175615 2.97883 0
M  V30 1862 C 171.703 -1.5967 3.0887 0
M  V30 1863 H 171.026 -1.1475 3.82978 0
M  V30 1864 H 172.466 -2.16943 3.64296 0
M  V30 1865 C 170.925 -2.54682 2.20542 0
M  V30 1866 O 171.455 -3.57836 1.82527 0
M  V30 1867 N 169.661 -2.24183 1.84907 0
M  V30 1868 H 169.208 -1.40333 2.1602 0
M  V30 1869 H 169.166 -2.88006 1.26096 0
M  V30 1870 N 172.938 -1.57226 0.108567 0
M  V30 1871 C 174.168 -1.9889 -0.559142 0
M  V30 1872 C 174.576 -0.986889 -1.61422 0
M  V30 1873 O 173.919 0.0298705 -1.83676 0
M  V30 1874 C 173.981 -3.36952 -1.25315 0
M  V30 1875 C 173.645 -4.55679 -0.347248 0
M  V30 1876 C 174.642 -5.18281 0.409996 0
M  V30 1877 C 172.327 -5.0162 -0.261367 0
M  V30 1878 C 174.321 -6.25203 1.24096 0
M  V30 1879 C 172.008 -6.08405 0.573238 0
M  V30 1880 C 173.006 -6.70063 1.32304 0
M  V30 1881 O 172.694 -7.74788 2.14381 0
M  V30 1882 H 172.426 -0.658343 -0.153492 0
M  V30 1883 H 174.98 -2.04532 0.188584 0
M  V30 1884 H 173.21 -3.28032 -2.04773 0
M  V30 1885 H 174.899 -3.62974 -1.81673 0
M  V30 1886 H 175.665 -4.8371 0.353457 0
M  V30 1887 H 171.544 -4.53381 -0.834656 0
M  V30 1888 H 175.088 -6.73259 1.82669 0
M  V30 1889 H 170.985 -6.42406 0.631208 0
M  V30 1890 H 171.753 -7.91837 2.07209 0
M  V30 1891 N 174.416 0.165178 -1.56732 0
M  V30 1892 C 175.832 0.517174 -1.50988 0
M  V30 1893 C 176.032 1.84331 -0.813894 0
M  V30 1894 O 175.088 2.49672 -0.37682 0
M  V30 1895 C 176.401 0.544261 -2.95733 0
M  V30 1896 C 177.949 0.631039 -3.06573 0
M  V30 1897 C 178.424 0.68896 -4.52788 0
M  V30 1898 N 179.915 0.751683 -4.5706 0
M  V30 1899 C 180.65 0.817177 -5.67547 0
M  V30 1900 N 180.146 0.843129 -6.8765 0
M  V30 1901 N 181.939 0.856668 -5.55534 0
M  V30 1902 H 174.09 -0.704318 -2.00382 0
M  V30 1903 H 176.353 -0.254687 -0.913148 0
M  V30 1904 H 176.059 -0.361607 -3.49836 0
M  V30 1905 H 175.933 1.3886 -3.5071 0
M  V30 1906 H 178.32 1.52733 -2.52501 0
M  V30 1907 H 178.401 -0.240095 -2.54671 0
M  V30 1908 H 178.045 -0.2031 -5.07494 0
M  V30 1909 H 177.975 1.57633 -5.02454 0
M  V30 1910 H 180.466 0.739661 -3.70591 0
M  V30 1911 H 180.779 0.894448 -7.67606 0
M  V30 1912 H 179.124 0.811304 -6.90248 0
M  V30 1913 H 182.315 0.833437 -4.60621 0
M  V30 1914 H 182.488 0.904247 -6.4166 0
M  V30 1915 N 175.894 1.51508 0.433938 0
M  V30 1916 C 176.804 1.75917 1.5521 0
M  V30 1917 C 177.82 0.643545 1.61662 0
M  V30 1918 O 178.996 0.926183 1.7884 0
M  V30 1919 C 176.061 1.88213 2.91164 0
M  V30 1920 C 175.122 3.12074 2.94802 0
M  V30 1921 C 174.355 3.23774 4.24271 0
M  V30 1922 O 174.578 2.4133 5.16833 0
M  V30 1923 O 173.512 4.16774 4.34262 0
M  V30 1924 H 177.338 2.70777 1.37527 0
M  V30 1925 H 174.923 1.36051 0.617293 0
M  V30 1926 H 176.805 1.98267 3.71845 0
M  V30 1927 H 175.48 0.965413 3.08968 0
M  V30 1928 H 174.387 3.07497 2.13065 0
M  V30 1929 H 175.72 4.03446 2.81943 0
M  V30 1930 N 177.372 -0.689602 1.41712 0
M  V30 1931 C 178.619 -1.44966 1.4139 0
M  V30 1932 C 178.947 -1.94484 0.025105 0
M  V30 1933 O 178.202 -1.70307 -0.964048 0
M  V30 1934 C 178.501 -2.67298 2.37247 0
M  V30 1935 C 178.167 -2.36405 3.83958 0
M  V30 1936 C 176.829 -2.27691 4.23923 0
M  V30 1937 C 179.181 -2.11043 4.76561 0
M  V30 1938 C 176.509 -1.91719 5.54492 0
M  V30 1939 C 178.861 -1.76578 6.07456 0
M  V30 1940 C 177.525 -1.66363 6.46436 0
M  V30 1941 H 176.795 -0.53047 0.517381 0
M  V30 1942 H 179.442 -0.787655 1.74552 0
M  V30 1943 H 177.747 -3.38461 1.9736 0
M  V30 1944 H 179.444 -3.25452 2.34269 0
M  V30 1945 H 176.034 -2.44085 3.52308 0
M  V30 1946 H 180.218 -2.16717 4.46483 0
M  V30 1947 H 175.474 -1.82367 5.83568 0
M  V30 1948 H 179.648 -1.55974 6.78708 0
M  V30 1949 H 177.275 -1.38258 7.47522 0
M  V30 1950 N 178.85 -1.27639 -0.924453 0
M  V30 1951 C 180.261 -1.12834 -1.48746 0
M  V30 1952 C 180.612 0.285505 -1.94112 0
M  V30 1953 O 179.737 1.17874 -1.81479 0
M  V30 1954 C 180.332 -2.04217 -2.70334 0
M  V30 1955 C 178.891 -1.93509 -3.22848 0
M  V30 1956 C 178.038 -1.96583 -1.95577 0
M  V30 1957 H 180.989 -1.40484 -0.738233 0
M  V30 1958 H 181.01 -1.59989 -3.4523 0
M  V30 1959 H 180.522 -3.07111 -2.37285 0
M  V30 1960 H 178.623 -0.936131 -3.60649 0
M  V30 1961 H 178.736 -2.79917 -3.88823 0
M  V30 1962 H 177.1 -1.4085 -2.12211 0
M  V30 1963 H 177.883 -3.01137 -1.64837 0
M  V30 1964 N 180.328 1.1314 -1.09713 0
M  V30 1965 C 181.577 1.83838 -0.829851 0
M  V30 1966 C 181.89 1.84599 0.646728 0
M  V30 1967 O 183.096 2.51218 1.02965 0
M  V30 1968 C 181.552 3.30069 -1.43466 0
M  V30 1969 C 181.16 3.37688 -2.94399 0
M  V30 1970 C 182.904 4.05788 -1.24645 0
M  V30 1971 C 180.811 4.78209 -3.47952 0
M  V30 1972 H 179.741 0.68877 -0.306777 0
M  V30 1973 H 182.392 1.27448 -1.3202 0
M  V30 1974 H 180.774 3.8628 -0.871996 0
M  V30 1975 H 181.948 2.91456 -3.56918 0
M  V30 1976 H 180.263 2.75436 -3.12289 0
M  V30 1977 H 182.86 5.09535 -1.62107 0
M  V30 1978 H 183.203 4.15878 -0.187357 0
M  V30 1979 H 183.736 3.55915 -1.77678 0
M  V30 1980 H 180.475 4.73311 -4.53495 0
M  V30 1981 H 179.995 5.24924 -2.90198 0
M  V30 1982 H 181.674 5.47133 -3.45332 0
M  V30 1983 N 181.806 0.884767 1.30421 0
M  V30 1984 C 182.736 0.367574 2.30589 0
M  V30 1985 C 183.717 -0.549464 1.60981 0
M  V30 1986 O 184.902 -0.46336 1.88591 0
M  V30 1987 C 182.032 -0.418944 3.44764 0
M  V30 1988 C 180.986 0.406316 4.26067 0
M  V30 1989 C 180.312 -0.506793 5.32293 0
M  V30 1990 C 181.612 1.64832 4.95608 0
M  V30 1991 H 183.306 1.20462 2.74097 0
M  V30 1992 H 180.852 0.580695 1.31772 0
M  V30 1993 H 182.805 -0.791395 4.13902 0
M  V30 1994 H 181.529 -1.28964 3.0006 0
M  V30 1995 H 180.188 0.760903 3.58617 0
M  V30 1996 H 179.836 -1.37519 4.83836 0
M  V30 1997 H 179.536 0.0415828 5.87585 0
M  V30 1998 H 181.06 -0.875764 6.04287 0
M  V30 1999 H 182.474 1.34646 5.57264 0
M  V30 2000 H 180.871 2.13688 5.60765 0
M  V30 2001 H 181.941 2.39284 4.21748 0
M  V30 2002 N 183.284 -1.43765 0.645699 0
M  V30 2003 C 184.214 -2.33471 -0.0370477 0
M  V30 2004 C 185.195 -1.49042 -0.819779 0
M  V30 2005 O 186.38 -1.77726 -0.782758 0
M  V30 2006 C 183.51 -3.32311 -1.0093 0
M  V30 2007 C 182.464 -4.2667 -0.337201 0
M  V30 2008 C 181.79 -5.1549 -1.42037 0
M  V30 2009 C 183.09 -5.16657 0.765706 0
M  V30 2010 H 184.784 -2.90809 0.712069 0
M  V30 2011 H 182.33 -1.39834 0.343876 0
M  V30 2012 H 184.283 -3.9396 -1.49578 0
M  V30 2013 H 183.007 -2.73213 -1.78948 0
M  V30 2014 H 181.666 -3.66374 0.128771 0
M  V30 2015 H 181.314 -4.52735 -2.1918 0
M  V30 2016 H 181.014 -5.79438 -0.975966 0
M  V30 2017 H 182.538 -5.80012 -1.90838 0
M  V30 2018 H 183.952 -5.72158 0.361702 0
M  V30 2019 H 182.349 -5.89286 1.13413 0
M  V30 2020 H 183.419 -4.56796 1.62683 0
M  V30 2021 N 184.763 -0.387143 -1.52771 0
M  V30 2022 C 186.04 0.253197 -1.93954 0
M  V30 2023 C 186.42 1.64545 -1.32243 0
M  V30 2024 O 185.768 2.23191 -0.489699 0
M  V30 2025 C 185.978 0.281722 -3.47861 0
M  V30 2026 C 187.326 0.511715 -4.21505 0
M  V30 2027 O 188.35 0.362023 -3.54356 0
M  V30 2028 O 187.209 0.804847 -5.40541 0
M  V30 2029 H 184.303 0.156845 -0.811991 0
M  V30 2030 H 186.849 -0.441494 -1.63856 0
M  V30 2031 H 185.621 -0.693571 -3.85104 0
M  V30 2032 H 185.244 1.02142 -3.84256 0
M  V30 2033 N 186.241 1.57166 -0.116904 0
M  V30 2034 C 187.469 1.99473 0.549383 0
M  V30 2035 C 187.884 0.996541 1.60357 0
M  V30 2036 O 187.241 -0.0108731 1.82497 0
M  V30 2037 C 187.292 3.41788 1.17741 0
M  V30 2038 O 187.013 4.37788 0.165362 0
M  V30 2039 C 188.514 3.99216 1.92722 0
M  V30 2040 H 185.734 0.655009 0.145616 0
M  V30 2041 H 188.278 2.03494 -0.202625 0
M  V30 2042 H 186.433 3.38713 1.88021 0
M  V30 2043 H 186.847 5.20806 0.621403 0
M  V30 2044 H 188.321 5.00882 2.31995 0
M  V30 2045 H 188.798 3.3824 2.80161 0
M  V30 2046 H 189.404 4.0583 1.27209 0
M  V30 2047 N 187.719 -0.156864 1.56817 0
M  V30 2048 C 188.666 -1.19394 1.97519 0
M  V30 2049 C 189.636 -1.4322 0.841265 0
M  V30 2050 O 190.821 -1.55719 1.10255 0
M  V30 2051 C 187.961 -2.52483 2.35258 0
M  V30 2052 C 187.074 -2.35914 3.61896 0
M  V30 2053 C 186.209 -3.61969 3.88782 0
M  V30 2054 C 185.248 -3.40395 5.08722 0
M  V30 2055 N 184.385 -4.58556 5.31668 0
M  V30 2056 H 189.225 -0.839845 2.85921 0
M  V30 2057 H 186.762 -0.403264 1.41464 0
M  V30 2058 H 188.72 -3.30071 2.55165 0
M  V30 2059 H 187.35 -2.85859 1.49949 0
M  V30 2060 H 186.402 -1.49429 3.49821 0
M  V30 2061 H 187.714 -2.15926 4.49641 0
M  V30 2062 H 186.868 -4.47989 4.09135 0
M  V30 2063 H 185.607 -3.84951 2.9944 0
M  V30 2064 H 184.612 -2.52763 4.88253 0
M  V30 2065 H 185.837 -3.18822 5.99608 0
M  V30 2066 H 183.783 -4.81729 4.45279 0
M  V30 2067 H 183.7 -4.41535 6.13664 0
M  V30 2068 H 184.968 -5.45817 5.5651 0
M  V30 2069 N 189.197 -1.51736 -0.425897 0
M  V30 2070 C 190.425 -1.68794 -1.1965 0
M  V30 2071 C 190.84 -0.390164 -1.84725 0
M  V30 2072 O 190.197 0.632376 -1.71194 0
M  V30 2073 C 190.248 -2.81174 -2.27208 0
M  V30 2074 O 189.969 -4.05925 -1.64793 0
M  V30 2075 C 191.47 -3.09599 -3.17275 0
M  V30 2076 H 188.69 -0.566128 -0.360194 0
M  V30 2077 H 191.234 -1.98211 -0.503249 0
M  V30 2078 H 189.389 -2.54324 -2.9223 0
M  V30 2079 H 189.803 -4.68423 -2.35967 0
M  V30 2080 H 191.277 -3.91786 -3.88854 0
M  V30 2081 H 191.754 -2.22468 -3.78688 0
M  V30 2082 H 192.36 -3.38151 -2.57941 0
M  V30 2083 N 190.675 0.682077 -1.42076 0
M  V30 2084 C 192.086 1.26246 -1.37546 0
M  V30 2085 C 192.437 1.96092 -0.0651481 0
M  V30 2086 O 191.562 1.99587 0.836297 0
M  V30 2087 C 192.157 2.29594 -2.49143 0
M  V30 2088 C 190.716 2.83175 -2.47969 0
M  V30 2089 C 189.863 1.57395 -2.28303 0
M  V30 2090 H 192.814 0.475937 -1.51395 0
M  V30 2091 H 192.835 3.11175 -2.18976 0
M  V30 2092 H 192.347 1.78729 -3.44496 0
M  V30 2093 H 190.448 3.3818 -1.56413 0
M  V30 2094 H 190.561 3.32687 -3.44755 0
M  V30 2095 H 188.925 1.83699 -1.76428 0
M  V30 2096 H 189.708 1.08507 -3.25701 0
M  V30 2097 N 192.153 1.28127 0.917671 0
M  V30 2098 C 193.063 1.13556 2.05286 0
M  V30 2099 C 194.079 0.0630914 1.73886 0
M  V30 2100 O 195.255 0.271598 1.9956 0
M  V30 2101 C 192.32 0.794676 3.3747 0
M  V30 2102 C 191.381 1.94909 3.82504 0
M  V30 2103 C 190.614 1.62437 5.0838 0
M  V30 2104 O 190.837 0.536905 5.67867 0
M  V30 2105 O 189.771 2.46677 5.4903 0
M  V30 2106 H 193.597 2.08844 2.20495 0
M  V30 2107 H 191.182 1.07409 1.03845 0
M  V30 2108 H 193.064 0.618344 4.16839 0
M  V30 2109 H 191.739 -0.128581 3.23445 0
M  V30 2110 H 190.646 2.18055 3.03978 0
M  V30 2111 H 191.979 2.85291 4.01086 0
M  V30 2112 N 193.631 -1.12557 1.10312 0
M  V30 2113 C 194.861 -1.87592 0.865617 0
M  V30 2114 C 195.269 -1.79851 -0.587389 0
M  V30 2115 O 194.612 -1.16949 -1.41664 0
M  V30 2116 C 194.674 -3.37665 1.23381 0
M  V30 2117 C 194.338 -3.69181 2.69359 0
M  V30 2118 C 195.335 -3.67652 3.67597 0
M  V30 2119 C 193.02 -3.98555 3.05711 0
M  V30 2120 C 195.014 -3.95053 5.00212 0
M  V30 2121 C 192.701 -4.25616 4.38514 0
M  V30 2122 C 193.699 -4.23851 5.35574 0
M  V30 2123 O 193.387 -4.50242 6.65986 0
M  V30 2124 H 193.119 -0.600442 0.310557 0
M  V30 2125 H 195.673 -1.4335 1.47105 0
M  V30 2126 H 193.903 -3.82454 0.571467 0
M  V30 2127 H 195.592 -3.94041 0.973994 0
M  V30 2128 H 196.358 -3.45024 3.40857 0
M  V30 2129 H 192.237 -3.99071 2.30789 0
M  V30 2130 H 195.781 -3.93591 5.75962 0
M  V30 2131 H 191.678 -4.47718 4.64994 0
M  V30 2132 H 192.446 -4.67867 6.71597 0
M  V30 2133 N 195.109 -0.891671 -1.2995 0
M  V30 2134 C 196.357 -0.512486 -1.95494 0
M  V30 2135 C 196.678 0.942776 -1.70695 0
M  V30 2136 O 195.948 1.66374 -1.03424 0
M  V30 2137 H 194.528 -0.186533 -0.723336 0
M  V30 2138 H 197.19 -1.13621 -1.58355 0
M  V30 2139 H 196.286 -0.688342 -3.04415 0
M  V30 2140 N 196.587 1.43421 -0.653314 0
M  V30 2141 C 197.835 2.01414 -0.166415 0
M  V30 2142 C 198.156 1.51803 1.22397 0
M  V30 2143 O 197.426 0.730693 1.81763 0
M  V30 2144 H 196.006 0.744703 -0.0585319 0
M  V30 2145 H 198.668 1.75629 -0.845003 0
M  V30 2146 H 197.764 3.11734 -0.151111 0
M  V30 2147 N 198.065 0.39524 1.52563 0
M  V30 2148 C 199.29 -0.187456 2.06551 0
M  V30 2149 C 199.715 -1.39249 1.26457 0
M  V30 2150 O 199.073 -1.78947 0.291151 0
M  V30 2151 C 199.121 -0.529985 3.56684 0
M  V30 2152 O 198.225 -1.62307 3.79118 0
M  V30 2153 H 197.566 -0.0202537 0.663691 0
M  V30 2154 H 200.096 0.564426 1.96661 0
M  V30 2155 H 200.106 -0.792598 4.00227 0
M  V30 2156 H 198.781 0.350987 4.14416 0
M  V30 2157 H 197.358 -1.3537 3.47461 0
M  V30 2158 N 199.544 -1.57102 0.125237 0
M  V30 2159 C 200.792 -1.95021 -0.530198 0
M  V30 2160 C 201.113 -1.00982 -1.66816 0
M  V30 2161 O 200.383 -0.0672693 -1.95784 0
M  V30 2162 H 198.963 -0.720046 -0.198853 0
M  V30 2163 H 201.625 -1.93916 0.19564 0
M  V30 2164 H 200.721 -2.98211 -0.920681 0
M  V30 2165 N 201.022 0.148545 -1.56898 0
M  V30 2166 C 201.969 1.18345 -1.98149 0
M  V30 2167 C 202.939 1.42772 -0.848848 0
M  V30 2168 O 204.124 1.55132 -1.11079 0
M  V30 2169 C 201.264 2.51231 -2.36594 0
M  V30 2170 C 200.377 2.33991 -3.63142 0
M  V30 2171 C 199.512 3.59902 -3.90697 0
M  V30 2172 C 198.551 3.37692 -5.1052 0
M  V30 2173 N 197.688 4.5573 -5.34092 0
M  V30 2174 H 202.528 0.82467 -2.86362 0
M  V30 2175 H 200.065 0.395756 -1.41676 0
M  V30 2176 H 202.023 3.28713 -2.56912 0
M  V30 2177 H 200.653 2.85059 -1.51463 0
M  V30 2178 H 199.705 1.47572 -3.50609 0
M  V30 2179 H 201.017 2.13539 -4.5078 0
M  V30 2180 H 200.171 4.45813 -4.11505 0
M  V30 2181 H 198.91 3.83357 -3.01477 0
M  V30 2182 H 197.915 2.5017 -4.89587 0
M  V30 2183 H 199.14 3.15637 -6.0129 0
M  V30 2184 H 197.086 4.79361 -4.47827 0
M  V30 2185 H 197.003 4.38274 -6.15996 0
M  V30 2186 H 198.271 5.42858 -5.59397 0
M  V30 2187 N 202.5 1.5196 0.417844 0
M  V30 2188 C 203.728 1.69426 1.18753 0
M  V30 2189 C 204.143 0.399955 1.84515 0
M  V30 2190 O 203.5 -0.623288 1.71527 0
M  V30 2191 C 203.551 2.82375 2.25714 0
M  V30 2192 O 203.272 4.06793 1.62638 0
M  V30 2193 C 204.773 3.11277 3.15628 0
M  V30 2194 H 201.993 0.568031 0.357186 0
M  V30 2195 H 204.537 1.98475 0.49273 0
M  V30 2196 H 202.692 2.5587 2.90877 0
M  V30 2197 H 203.106 4.69667 2.3348 0
M  V30 2198 H 204.58 3.93843 3.86771 0
M  V30 2199 H 205.057 2.24473 3.77503 0
M  V30 2200 H 205.663 3.39515 2.56144 0
M  V30 2201 N 203.978 -0.674533 1.42435 0
M  V30 2202 C 205.225 -1.43459 1.42919 0
M  V30 2203 C 205.553 -1.94446 0.0457312 0
M  V30 2204 O 204.808 -1.7132 -0.94593 0
M  V30 2205 C 205.107 -2.64767 2.40069 0
M  V30 2206 C 204.773 -2.3232 3.86443 0
M  V30 2207 C 203.435 -2.23182 4.26314 0
M  V30 2208 C 205.787 -2.05977 4.78773 0
M  V30 2209 C 203.115 -1.85827 5.56494 0
M  V30 2210 C 205.467 -1.70125 6.09295 0
M  V30 2211 C 204.131 -1.59498 6.48164 0
M  V30 2212 H 203.401 -0.524952 0.522978 0
M  V30 2213 H 206.048 -0.769097 1.75377 0
M  V30 2214 H 204.353 -3.36349 2.00939 0
M  V30 2215 H 206.05 -3.22949 2.37707 0
M  V30 2216 H 202.64 -2.40334 3.54877 0
M  V30 2217 H 206.824 -2.11969 4.48757 0
M  V30 2218 H 202.08 -1.76168 5.8547 0
M  V30 2219 H 206.254 -1.48767 6.80324 0
M  V30 2220 H 203.881 -1.30322 7.48946 0
M  V30 2221 N 205.456 -1.28612 -0.910864 0
M  V30 2222 C 206.733 -1.06632 -1.63979 0
M  V30 2223 C 207.113 0.393351 -2.07403 0
M  V30 2224 O 206.461 1.37999 -1.82122 0
M  V30 2225 C 206.671 -2.0436 -2.8291 0
M  V30 2226 C 208.019 -2.34666 -3.5386 0
M  V30 2227 O 209.043 -2.02467 -2.93062 0
M  V30 2228 O 207.902 -2.89631 -4.63439 0
M  V30 2229 H 204.996 -0.407737 -0.7195 0
M  V30 2230 H 207.542 -1.39942 -0.959914 0
M  V30 2231 H 206.314 -3.02727 -2.47936 0
M  V30 2232 H 205.937 -1.71714 -3.58609 0
M  V30 2233 N 206.934 1.1197 -1.10907 0
M  V30 2234 C 208.18 1.84059 -0.865674 0
M  V30 2235 C 208.535 1.82731 0.602254 0
M  V30 2236 O 207.828 1.26543 1.43866 0
M  V30 2237 C 208.022 3.30749 -1.35425 0
M  V30 2238 C 207.851 3.46363 -2.86815 0
M  V30 2239 C 206.621 3.59712 -3.54874 0
M  V30 2240 C 208.819 3.41116 -3.84895 0
M  V30 2241 N 206.801 3.63741 -4.94536 0
M  V30 2242 C 208.172 3.51698 -5.10596 0
M  V30 2243 C 210.227 3.24612 -3.77533 0
M  V30 2244 C 208.93 3.4748 -6.29802 0
M  V30 2245 C 210.956 3.21708 -4.96244 0
M  V30 2246 C 210.318 3.32856 -6.20795 0
M  V30 2247 H 206.417 0.689015 -0.369841 0
M  V30 2248 H 209.001 1.34016 -1.41237 0
M  V30 2249 H 207.172 3.79322 -0.834814 0
M  V30 2250 H 208.904 3.90718 -1.05458 0
M  V30 2251 H 205.659 3.62038 -3.05329 0
M  V30 2252 H 206.083 3.69408 -5.67333 0
M  V30 2253 H 210.725 3.14883 -2.8215 0
M  V30 2254 H 208.443 3.55978 -7.25469 0
M  V30 2255 H 212.029 3.10113 -4.92261 0
M  V30 2256 H 210.909 3.3059 -7.11112 0
M  V30 2257 N 208.412 0.89855 1.29475 0
M  V30 2258 C 209.637 0.538561 2.00285 0
M  V30 2259 C 210.062 -0.869135 1.66816 0
M  V30 2260 O 209.42 -1.57831 0.892145 0
M  V30 2261 C 209.468 0.736475 3.52999 0
M  V30 2262 O 208.572 -0.211537 4.11857 0
M  V30 2263 H 207.913 0.210563 0.62973 0
M  V30 2264 H 210.443 1.20982 1.64998 0
M  V30 2265 H 210.453 0.640685 4.02938 0
M  V30 2266 H 209.128 1.76276 3.76696 0
M  V30 2267 H 207.705 -0.0682991 3.72837 0
M  V30 2268 N 209.89 -1.43072 0.660911 0
M  V30 2269 C 210.82 -2.33497 -0.0122829 0
M  V30 2270 C 211.801 -1.49903 -0.803925 0
M  V30 2271 O 212.986 -1.78546 -0.763864 0
M  V30 2272 C 210.116 -3.33363 -0.973994 0
M  V30 2273 C 209.07 -4.27003 -0.291928 0
M  V30 2274 C 208.396 -5.16967 -1.36562 0
M  V30 2275 C 209.696 -5.15816 0.820462 0
M  V30 2276 H 211.39 -2.90038 0.742873 0
M  V30 2277 H 208.936 -1.39461 0.358688 0
M  V30 2278 H 210.889 -3.95524 -1.45392 0
M  V30 2279 H 209.613 -2.75095 -1.7604 0
M  V30 2280 H 208.272 -3.66217 0.167623 0
M  V30 2281 H 207.92 -4.55034 -2.14366 0
M  V30 2282 H 207.62 -5.80441 -0.914454 0
M  V30 2283 H 209.144 -5.82003 -1.84675 0
M  V30 2284 H 210.558 -5.71742 0.422366 0
M  V30 2285 H 208.955 -5.8805 1.19656 0
M  V30 2286 H 210.025 -4.55045 1.67518 0
M  V30 2287 N 211.368 -0.403325 -1.52352 0
M  V30 2288 C 212.617 0.175668 -2.00934 0
M  V30 2289 C 212.93 1.46718 -1.29356 0
M  V30 2290 O 214.136 2.12708 -1.68724 0
M  V30 2291 C 212.592 0.363612 -3.58058 0
M  V30 2292 C 212.2 -0.915472 -4.38547 0
M  V30 2293 C 213.944 0.89821 -4.14888 0
M  V30 2294 C 211.851 -0.695035 -5.87302 0
M  V30 2295 H 210.781 0.0694234 -0.750797 0
M  V30 2296 H 213.432 -0.527879 -1.75743 0
M  V30 2297 H 211.814 1.12935 -3.79555 0
M  V30 2298 H 212.988 -1.68691 -4.28812 0
M  V30 2299 H 211.303 -1.37606 -3.93006 0
M  V30 2300 H 213.9 1.07907 -5.23699 0
M  V30 2301 H 214.243 1.87126 -3.71873 0
M  V30 2302 H 214.776 0.191681 -3.97338 0
M  V30 2303 H 211.515 -1.63948 -6.34666 0
M  V30 2304 H 211.035 0.0372116 -5.99788 0
M  V30 2305 H 212.714 -0.33497 -6.46132 0
M  V30 2306 N 212.846 1.57033 -0.133567 0
M  V30 2307 C 213.776 2.1909 0.807567 0
M  V30 2308 C 214.757 1.13517 1.26681 0
M  V30 2309 O 215.942 1.41809 1.32679 0
M  V30 2310 C 213.072 2.80188 2.05212 0
M  V30 2311 C 212.026 3.91471 1.73015 0
M  V30 2312 C 211.352 4.39443 3.04622 0
M  V30 2313 C 212.652 5.12886 0.987168 0
M  V30 2314 H 214.346 2.97988 0.290403 0
M  V30 2315 H 211.892 1.43335 0.138239 0
M  V30 2316 H 213.845 3.22264 2.71521 0
M  V30 2317 H 212.569 1.98601 2.59278 0
M  V30 2318 H 211.228 3.49993 1.0909 0
M  V30 2319 H 210.876 3.54695 3.56651 0
M  V30 2320 H 210.576 5.14495 2.83847 0
M  V30 2321 H 212.1 4.8418 3.72024 0
M  V30 2322 H 213.514 5.51891 1.55208 0
M  V30 2323 H 211.911 5.93615 0.87985 0
M  V30 2324 H 212.981 4.84894 -0.0235286 0
M  V30 2325 N 214.325 -0.140222 1.56975 0
M  V30 2326 C 215.736 -0.699596 1.73097 0
M  V30 2327 C 216.087 -1.8134 0.749022 0
M  V30 2328 O 215.212 -2.16241 -0.0828503 0
M  V30 2329 C 215.807 -1.27582 3.1386 0
M  V30 2330 C 214.366 -1.78169 3.31561 0
M  V30 2331 C 213.513 -0.672855 2.69013 0
M  V30 2332 H 216.464 0.0855115 1.58469 0
M  V30 2333 H 216.485 -2.14561 3.14235 0
M  V30 2334 H 215.997 -0.464955 3.85305 0
M  V30 2335 H 214.098 -2.61801 2.65124 0
M  V30 2336 H 214.211 -1.90574 4.39566 0
M  V30 2337 H 212.575 -1.10118 2.29665 0
M  V30 2338 H 213.358 0.126679 3.43066 0
M  V30 2339 N 215.803 -1.52179 -0.40978 0
M  V30 2340 C 217.033 -1.69807 -1.17682 0
M  V30 2341 C 217.441 -0.406908 -1.84773 0
M  V30 2342 O 216.784 0.626863 -1.72673 0
M  V30 2343 C 216.846 -2.77712 -2.2829 0
M  V30 2344 C 216.51 -4.19481 -1.81341 0
M  V30 2345 C 217.507 -5.03345 -1.30154 0
M  V30 2346 C 215.192 -4.65713 -1.88194 0
M  V30 2347 C 217.186 -6.31511 -0.864416 0
M  V30 2348 C 214.873 -5.93869 -1.44093 0
M  V30 2349 C 215.871 -6.76597 -0.933023 0
M  V30 2350 O 215.559 -8.02354 -0.49838 0
M  V30 2351 H 215.291 -0.572372 -0.359675 0
M  V30 2352 H 217.845 -1.99511 -0.488311 0
M  V30 2353 H 216.075 -2.43383 -3.00502 0
M  V30 2354 H 217.764 -2.83946 -2.90051 0
M  V30 2355 H 218.53 -4.68819 -1.24232 0
M  V30 2356 H 214.409 -4.01424 -2.26671 0
M  V30 2357 H 217.953 -6.96033 -0.467286 0
M  V30 2358 H 213.85 -6.27903 -1.49694 0
M  V30 2359 H 214.618 -8.16135 -0.621747 0
M  V30 2360 N 217.281 0.66697 -1.42791 0
M  V30 2361 C 218.697 0.981027 -1.25889 0
M  V30 2362 C 218.897 2.00793 -0.168695 0
M  V30 2363 O 217.953 2.48321 0.45747 0
M  V30 2364 C 219.266 1.47838 -2.61848 0
M  V30 2365 C 220.814 1.59575 -2.69267 0
M  V30 2366 C 221.289 2.12704 -4.05612 0
M  V30 2367 N 222.78 2.20026 -4.07606 0
M  V30 2368 C 223.515 2.62227 -5.09926 0
M  V30 2369 N 223.011 3.03824 -6.22626 0
M  V30 2370 N 224.804 2.62045 -4.97281 0
M  V30 2371 H 216.955 -0.0127891 -2.12396 0
M  V30 2372 H 219.218 0.0568258 -0.946295 0
M  V30 2373 H 218.924 0.798299 -3.4252 0
M  V30 2374 H 218.798 2.45579 -2.86305 0
M  V30 2375 H 221.185 2.26687 -1.88936 0
M  V30 2376 H 221.266 0.60302 -2.48591 0
M  V30 2377 H 220.91 1.46198 -4.86404 0
M  V30 2378 H 220.84 3.12782 -4.23645 0
M  V30 2379 H 223.331 1.90708 -3.2625 0
M  V30 2380 H 223.644 3.34734 -6.96544 0
M  V30 2381 H 221.989 3.01662 -6.26119 0
M  V30 2382 H 225.18 2.28916 -4.08308 0
M  V30 2383 H 225.353 2.94613 -5.77154 0
M  V30 2384 N 218.759 1.29093 0.90403 0
M  V30 2385 C 220.036 1.075 1.63411 0
M  V30 2386 C 220.416 -0.382346 2.07609 0
M  V30 2387 O 219.764 -1.37031 1.82851 0
M  V30 2388 C 219.974 2.05858 2.81822 0
M  V30 2389 C 221.322 2.36539 3.52611 0
M  V30 2390 O 222.346 2.04019 2.91984 0
M  V30 2391 O 221.205 2.92085 4.61897 0
M  V30 2392 H 218.299 0.411547 0.717327 0
M  V30 2393 H 220.845 1.40449 0.952479 0
M  V30 2394 H 219.617 3.04037 2.46327 0
M  V30 2395 H 219.24 1.73613 3.57693 0
M  V30 2396 N 220.237 -1.11381 1.11499 0
M  V30 2397 C 221.653 -1.35143 0.849031 0
M  V30 2398 C 221.853 -1.94515 -0.525938 0
M  V30 2399 O 220.909 -2.1785 -1.27662 0
M  V30 2400 C 222.222 -2.28249 1.95762 0
M  V30 2401 C 223.77 -2.41812 1.98736 0
M  V30 2402 C 224.245 -3.3824 3.088 0
M  V30 2403 N 225.736 -3.45803 3.08179 0
M  V30 2404 C 226.471 -4.20358 3.89982 0
M  V30 2405 N 225.967 -4.97884 4.8175 0
M  V30 2406 N 227.76 -4.15877 3.78157 0
M  V30 2407 H 219.911 -0.712062 2.00109 0
M  V30 2408 H 222.174 -0.376025 0.870235 0
M  V30 2409 H 221.88 -1.91817 2.94787 0
M  V30 2410 H 221.754 -3.28473 1.85433 0
M  V30 2411 H 224.141 -2.77518 1.00338 0
M  V30 2412 H 224.222 -1.41437 2.13141 0
M  V30 2413 H 223.866 -3.03261 4.07425 0
M  V30 2414 H 223.796 -4.38471 2.91635 0
M  V30 2415 H 226.287 -2.90506 2.41691 0
M  V30 2416 H 226.6 -5.52142 5.40702 0
M  V30 2417 H 224.945 -4.97043 4.85771 0
M  V30 2418 H 228.136 -3.544 3.05808 0
M  V30 2419 H 228.309 -4.73723 4.42143 0
M  V30 2420 N 221.715 -0.905404 -1.28997 0
M  V30 2421 C 222.962 -0.534248 -1.95325 0
M  V30 2422 C 223.29 0.920535 -1.71337 0
M  V30 2423 O 222.545 1.66861 -1.02254 0
M  V30 2424 C 222.844 -0.779906 -3.48787 0
M  V30 2425 C 222.51 -2.21293 -3.92861 0
M  V30 2426 C 221.172 -2.60475 -4.04606 0
M  V30 2427 C 223.524 -3.14587 -4.15553 0
M  V30 2428 C 220.852 -3.9212 -4.36416 0
M  V30 2429 C 223.204 -4.45787 -4.48839 0
M  V30 2430 C 221.868 -4.84834 -4.58794 0
M  V30 2431 H 221.138 -0.195495 -0.714747 0
M  V30 2432 H 223.785 -1.14514 -1.53488 0
M  V30 2433 H 222.09 -0.0861365 -3.91705 0
M  V30 2434 H 223.787 -0.472029 -3.98212 0
M  V30 2435 H 220.377 -1.89887 -3.84241 0
M  V30 2436 H 224.561 -2.85528 -4.0594 0
M  V30 2437 H 219.817 -4.22086 -4.42327 0
M  V30 2438 H 223.991 -5.18098 -4.65346 0
M  V30 2439 H 221.618 -5.86877 -4.83197 0
M  V30 2440 N 223.193 1.4272 -0.668489 0
M  V30 2441 C 224.609 1.55992 -0.33745 0
M  V30 2442 C 224.809 1.64933 1.15756 0
M  V30 2443 O 223.865 1.61278 1.94282 0
M  V30 2444 C 225.178 2.81314 -1.06222 0
M  V30 2445 C 226.726 2.95078 -1.04394 0
M  V30 2446 C 227.201 4.23252 -1.74991 0
M  V30 2447 N 228.692 4.3015 -1.71829 0
M  V30 2448 C 229.427 5.28127 -2.23315 0
M  V30 2449 N 228.923 6.32293 -2.83156 0
M  V30 2450 N 230.716 5.19882 -2.13726 0
M  V30 2451 H 222.867 1.3516 -1.63846 0
M  V30 2452 H 225.13 0.650174 -0.689912 0
M  V30 2453 H 224.836 2.80823 -2.11734 0
M  V30 2454 H 224.71 3.72012 -0.62344 0
M  V30 2455 H 227.097 2.951 0.0028244 0
M  V30 2456 H 227.178 2.05627 -1.52155 0
M  V30 2457 H 226.822 4.2399 -2.79633 0
M  V30 2458 H 226.752 5.11626 -1.24685 0
M  V30 2459 H 229.243 3.55499 -1.28175 0
M  V30 2460 H 229.556 7.03398 -3.20079 0
M  V30 2461 H 227.901 6.32873 -2.87223 0
M  V30 2462 H 231.092 4.37423 -1.66669 0
M  V30 2463 H 231.265 5.96077 -2.54158 0
M  V30 2464 N 224.671 0.411399 1.52136 0
M  V30 2465 C 225.901 -0.16284 2.05957 0
M  V30 2466 C 226.309 -1.3922 1.28119 0
M  V30 2467 O 225.652 -1.80768 0.326881 0
M  V30 2468 C 225.714 -0.575946 3.54856 0
M  V30 2469 C 225.378 0.542998 4.53763 0
M  V30 2470 C 226.375 1.40726 5.00492 0
M  V30 2471 C 224.06 0.716337 4.97166 0
M  V30 2472 C 226.054 2.4298 5.8927 0
M  V30 2473 C 223.741 1.74218 5.8574 0
M  V30 2474 C 224.739 2.59731 6.31687 0
M  V30 2475 O 224.427 3.60558 7.18507 0
M  V30 2476 H 224.159 -0.0229125 0.675612 0
M  V30 2477 H 226.713 0.581634 1.96993 0
M  V30 2478 H 224.943 -1.37274 3.61515 0
M  V30 2479 H 226.632 -1.07836 3.91313 0
M  V30 2480 H 227.398 1.28476 4.67674 0
M  V30 2481 H 223.277 0.0603857 4.6096 0
M  V30 2482 H 226.821 3.0976 6.25055 0
M  V30 2483 H 222.718 1.86498 6.17971 0
M  V30 2484 H 223.486 3.56829 7.36624 0
M  V30 2485 N 226.149 -1.5696 0.141893 0
M  V30 2486 C 227.079 -2.19516 -0.795936 0
M  V30 2487 C 228.06 -1.14187 -1.26077 0
M  V30 2488 O 229.245 -1.42511 -1.31925 0
M  V30 2489 C 226.375 -2.81272 -2.03723 0
M  V30 2490 C 225.329 -3.92384 -1.70936 0
M  V30 2491 C 224.655 -4.41052 -3.02287 0
M  V30 2492 C 225.955 -5.13403 -0.959954 0
M  V30 2493 H 227.649 -2.98138 -0.274596 0
M  V30 2494 H 225.195 -1.43406 -0.130636 0
M  V30 2495 H 227.148 -3.237 -2.69808 0
M  V30 2496 H 225.872 -1.99973 -2.58221 0
M  V30 2497 H 224.531 -3.50566 -1.07232 0
M  V30 2498 H 224.179 -3.56582 -3.54765 0
M  V30 2499 H 223.879 -5.15993 -2.81114 0
M  V30 2500 H 225.403 -4.86146 -3.69451 0
M  V30 2501 H 226.817 -5.52706 -1.52279 0
M  V30 2502 H 225.214 -5.94073 -0.848357 0
M  V30 2503 H 226.284 -4.84875 0.0492434 0
M  V30 2504 N 227.627 0.131896 -1.57047 0
M  V30 2505 C 228.873 0.843179 -1.84441 0
M  V30 2506 C 229.206 1.80129 -0.725749 0
M  V30 2507 O 228.481 1.92624 0.269469 0
M  V30 2508 C 228.764 1.60442 -3.22382 0
M  V30 2509 C 228.617 0.666782 -4.4483 0
M  V30 2510 C 229.936 2.56354 -3.5773 0
M  V30 2511 H 227.055 0.305081 -0.670891 0
M  V30 2512 H 229.697 0.107839 -1.89694 0
M  V30 2513 H 227.847 2.23128 -3.18035 0
M  V30 2514 H 229.519 0.0497646 -4.61273 0
M  V30 2515 H 227.762 -0.022609 -4.33794 0
M  V30 2516 H 228.433 1.23579 -5.37989 0
M  V30 2517 H 230.909 2.0378 -3.62785 0
M  V30 2518 H 229.785 3.06657 -4.5525 0
M  V30 2519 H 230.046 3.38419 -2.84473 0
M  V30 2520 N 229.106 1.52395 0.401703 0
M  V30 2521 C 230.036 1.79231 1.49661 0
M  V30 2522 C 231.017 0.643654 1.57452 0
M  V30 2523 O 232.202 0.889989 1.72606 0
M  V30 2524 C 229.332 1.94971 2.87409 0
M  V30 2525 C 228.286 3.10604 2.94465 0
M  V30 2526 C 227.612 3.11577 4.34538 0
M  V30 2527 C 228.912 4.49921 2.6527 0
M  V30 2528 H 230.606 2.70917 1.27454 0
M  V30 2529 H 228.152 1.30362 0.6117 0
M  V30 2530 H 230.105 2.12328 3.63999 0
M  V30 2531 H 228.829 0.999632 3.10926 0
M  V30 2532 H 227.488 2.93009 2.20321 0
M  V30 2533 H 227.136 2.14277 4.55076 0
M  V30 2534 H 226.836 3.89247 4.40183 0
M  V30 2535 H 228.36 3.31073 5.13053 0
M  V30 2536 H 229.774 4.67683 3.31581 0
M  V30 2537 H 228.171 5.29564 2.82281 0
M  V30 2538 H 229.241 4.57507 1.60671 0
M  V30 2539 N 230.584 -0.659388 1.43143 0
M  V30 2540 C 231.809 -1.45221 1.48073 0
M  V30 2541 C 232.234 -1.87845 0.097995 0
M  V30 2542 O 231.592 -1.56985 -0.90694 0
M  V30 2543 C 231.64 -2.66748 2.42647 0
M  V30 2544 O 230.744 -3.65583 1.90848 0
M  V30 2545 H 230.085 -0.435669 0.501088 0
M  V30 2546 H 232.615 -0.807432 1.87994 0
M  V30 2547 H 232.625 -3.14637 2.59745 0
M  V30 2548 H 231.3 -2.35067 3.43098 0
M  V30 2549 H 229.877 -3.24693 1.83381 0
M  V30 2550 N 232.062 -1.29571 -0.897171 0
M  V30 2551 C 233.31 -1.17456 -1.64464 0
M  V30 2552 C 233.631 0.273698 -1.9307 0
M  V30 2553 O 232.901 1.18684 -1.55855 0
M  V30 2554 H 231.481 -0.431706 -0.609622 0
M  V30 2555 H 234.143 -1.62531 -1.07562 0
M  V30 2556 H 233.239 -1.72648 -2.59998 0
M  V30 2557 N 233.54 1.10788 -1.12088 0
M  V30 2558 C 234.788 1.8231 -0.872205 0
M  V30 2559 C 235.109 1.85419 0.603709 0
M  V30 2560 O 234.379 1.32963 1.43867 0
M  V30 2561 H 232.959 0.675137 -0.319686 0
M  V30 2562 H 235.621 1.34068 -1.41463 0
M  V30 2563 H 234.717 2.85955 -1.25045 0
M  V30 2564 N 235.018 0.912232 1.28515 0
M  V30 2565 C 235.948 0.416403 2.29757 0
M  V30 2566 C 236.929 -0.515194 1.6211 0
M  V30 2567 O 238.114 -0.423253 1.89532 0
M  V30 2568 C 235.244 -0.34572 3.45575 0
M  V30 2569 C 234.198 0.496599 4.25109 0
M  V30 2570 C 233.524 -0.393771 5.33248 0
M  V30 2571 C 234.824 1.75307 4.92001 0
M  V30 2572 H 236.518 1.26249 2.7148 0
M  V30 2573 H 234.064 0.608515 1.30511 0
M  V30 2574 H 236.017 -0.703422 4.15488 0
M  V30 2575 H 234.741 -1.2257 3.02728 0
M  V30 2576 H 233.4 0.8368 3.56922 0
M  V30 2577 H 233.048 -1.27225 4.86644 0
M  V30 2578 H 232.748 0.166209 5.87365 0
M  V30 2579 H 234.272 -0.747389 6.06009 0
M  V30 2580 H 235.686 1.46437 5.54283 0
M  V30 2581 H 234.083 2.25534 5.56106 0
M  V30 2582 H 235.153 2.48176 4.16577 0
M  V30 2583 N 236.496 -1.42363 0.676048 0
M  V30 2584 C 237.444 -2.32596 -0.0131507 0
M  V30 2585 C 238.438 -1.49891 -0.789238 0
M  V30 2586 O 239.644 -1.65955 -0.697061 0
M  V30 2587 H 236.019 -0.751647 -0.0230481 0
M  V30 2588 H 237.99 -2.88421 0.765243 0
M  V30 2589 C 236.739 -3.34479 -0.949702 0
M  V30 2590 H 236.062 -3.98158 -0.361938 0
M  V30 2591 H 237.502 -4.00199 -1.4006 0
M  V30 2592 C 235.961 -2.66838 -2.05667 0
M  V30 2593 O 236.491 -2.50124 -3.14326 0
M  V30 2594 N 234.697 -2.25843 -1.82875 0
M  V30 2595 H 234.244 -2.39637 -0.945085 0
M  V30 2596 H 234.202 -1.80918 -2.5713 0
M  V30 2597 N 237.974 -0.419461 -1.51915 0
M  V30 2598 C 239.385 0.0477853 -1.86639 0
M  V30 2599 C 239.736 1.43531 -1.33766 0
M  V30 2600 O 238.861 2.05401 -0.68113 0
M  V30 2601 C 239.456 0.0934885 -3.38671 0
M  V30 2602 C 238.015 0.505097 -3.72996 0
M  V30 2603 C 237.162 -0.313792 -2.75519 0
M  V30 2604 H 240.113 -0.636088 -1.45395 0
M  V30 2605 H 240.134 0.906667 -3.6954 0
M  V30 2606 H 239.646 -0.916501 -3.77123 0
M  V30 2607 H 237.747 1.52135 -3.40126 0
M  V30 2608 H 237.86 0.242309 -4.78487 0
M  V30 2609 H 236.224 0.225363 -2.53701 0
M  V30 2610 H 237.007 -1.32232 -3.16812 0
M  V30 2611 N 239.452 1.56882 -0.150215 0
M  V30 2612 C 240.362 2.20494 0.801222 0
M  V30 2613 C 241.378 1.19019 1.26927 0
M  V30 2614 O 242.554 1.51607 1.32579 0
M  V30 2615 C 239.619 2.81659 2.02161 0
M  V30 2616 C 238.68 3.9827 1.60249 0
M  V30 2617 C 237.913 4.56508 2.7647 0
M  V30 2618 O 238.136 4.13627 3.92771 0
M  V30 2619 O 237.07 5.46719 2.51757 0
M  V30 2620 H 240.896 3.02315 0.289717 0
M  V30 2621 H 238.481 1.49202 0.0769684 0
M  V30 2622 H 240.363 3.20522 2.73576 0
M  V30 2623 H 239.038 2.02849 2.52258 0
M  V30 2624 H 237.945 3.64117 0.858477 0
M  V30 2625 H 239.278 4.78609 1.14864 0
M  V30 2626 N 240.93 -0.123565 1.57115 0
M  V30 2627 C 241.878 -1.17082 2.00984 0
M  V30 2628 C 242.872 -1.43136 0.906009 0
M  V30 2629 O 244.078 -1.43152 1.09121 0
M  V30 2630 H 240.453 -0.394653 0.64012 0
M  V30 2631 H 242.424 -0.774292 2.88179 0
M  V30 2632 C 241.173 -2.49057 2.42623 0
M  V30 2633 H 240.496 -2.29846 3.27125 0
M  V30 2634 H 241.936 -3.20906 2.7712 0
M  V30 2635 C 240.395 -3.11305 1.28805 0
M  V30 2636 O 240.925 -3.97171 0.60153 0
M  V30 2637 N 239.131 -2.71111 1.04628 0
M  V30 2638 H 238.678 -2.01382 1.60634 0
M  V30 2639 H 238.636 -3.1309 0.286685 0
M  V30 2640 N 242.408 -1.52605 -0.393616 0
M  V30 2641 C 243.654 -1.67672 -1.14079 0
M  V30 2642 C 243.987 -0.413121 -1.89755 0
M  V30 2643 O 243.262 0.588952 -1.85369 0
M  V30 2644 C 243.545 -2.9088 -2.12276 0
M  V30 2645 C 243.398 -4.27329 -1.40394 0
M  V30 2646 C 244.717 -3.09628 -3.12759 0
M  V30 2647 H 241.836 -0.610168 -0.413356 0
M  V30 2648 H 244.478 -1.85193 -0.424696 0
M  V30 2649 H 242.628 -2.76073 -2.73342 0
M  V30 2650 H 244.3 -4.53894 -0.82327 0
M  V30 2651 H 242.543 -4.2802 -0.705801 0
M  V30 2652 H 243.214 -5.09615 -2.12123 0
M  V30 2653 H 245.69 -3.23436 -2.61779 0
M  V30 2654 H 244.566 -3.97322 -3.78717 0
M  V30 2655 H 244.827 -2.23637 -3.81365 0
M  V30 2656 N 243.887 0.651787 -1.4349 0
M  V30 2657 C 245.303 0.96762 -1.26922 0
M  V30 2658 C 245.503 2.00602 -0.189982 0
M  V30 2659 O 244.559 2.48793 0.431107 0
M  V30 2660 C 245.872 1.45052 -2.63401 0
M  V30 2661 C 247.42 1.5671 -2.70945 0
M  V30 2662 C 247.895 2.0839 -4.07845 0
M  V30 2663 N 249.386 2.1569 -4.09917 0
M  V30 2664 C 250.121 2.56804 -5.12679 0
M  V30 2665 N 249.617 2.97203 -6.25813 0
M  V30 2666 N 251.41 2.56756 -5.00033 0
M  V30 2667 H 243.561 -0.0353158 -2.12371 0
M  V30 2668 H 245.824 0.0467858 -0.946845 0
M  V30 2669 H 245.53 0.761926 -3.43348 0
M  V30 2670 H 245.404 2.42529 -2.88894 0
M  V30 2671 H 247.791 2.2467 -1.9133 0
M  V30 2672 H 247.872 0.57662 -2.49216 0
M  V30 2673 H 247.516 1.41031 -4.87927 0
M  V30 2674 H 247.446 3.08271 -4.26938 0
M  V30 2675 H 249.937 1.87237 -3.28254 0
M  V30 2676 H 250.25 3.27328 -7.00055 0
M  V30 2677 H 248.595 2.95004 -6.29283 0
M  V30 2678 H 251.786 2.24572 -4.10713 0
M  V30 2679 H 251.959 2.88475 -5.80247 0
M  V30 2680 N 245.365 1.30045 0.890287 0
M  V30 2681 C 246.59 1.21598 1.68014 0
M  V30 2682 C 247.015 -0.218678 1.86825 0
M  V30 2683 O 246.373 -1.15756 1.39536 0
M  V30 2684 C 246.421 1.94434 3.03691 0
M  V30 2685 O 245.525 1.2678 3.92429 0
M  V30 2686 H 244.866 0.420856 0.513592 0
M  V30 2687 H 247.396 1.71775 1.11151 0
M  V30 2688 H 247.406 2.03251 3.5377 0
M  V30 2689 H 246.081 2.98777 2.89318 0
M  V30 2690 H 244.658 1.26282 3.50866 0
M  V30 2691 N 246.843 -1.10192 1.12674 0
M  V30 2692 C 247.806 -2.14786 0.799979 0
M  V30 2693 C 248.806 -1.59711 -0.18685 0
M  V30 2694 O 249.996 -1.74156 0.0392558 0
M  V30 2695 C 247.128 -3.40374 0.189228 0
M  V30 2696 H 248.321 -2.45203 1.72671 0
M  V30 2697 H 245.874 -1.25597 0.930326 0
M  V30 2698 H 246.609 -3.15577 -0.747107 0
M  V30 2699 H 246.394 -3.81637 0.899766 0
M  V30 2700 H 247.884 -4.17594 -0.0228143 0
M  V30 2701 N 248.321 -0.919034 -1.28029 0
M  V30 2702 C 249.57 -0.550802 -1.94034 0
M  V30 2703 C 249.883 0.910877 -1.73096 0
M  V30 2704 O 251.089 1.3875 -2.33368 0
M  V30 2705 C 249.545 -0.934249 -3.47563 0
M  V30 2706 C 249.153 -2.41602 -3.7727 0
M  V30 2707 C 250.897 -0.636854 -4.19696 0
M  V30 2708 C 248.804 -2.73932 -5.24133 0
M  V30 2709 H 247.734 -0.202273 -0.726362 0
M  V30 2710 H 250.385 -1.11867 -1.45458 0
M  V30 2711 H 248.767 -0.295115 -3.94899 0
M  V30 2712 H 249.941 -3.10233 -3.40723 0
M  V30 2713 H 248.256 -2.68441 -3.18321 0
M  V30 2714 H 250.853 -0.855005 -5.2782 0
M  V30 2715 H 251.196 0.425575 -4.14119 0
M  V30 2716 H 251.729 -1.23469 -3.78154 0
M  V30 2717 H 248.468 -3.79049 -5.34792 0
M  V30 2718 H 247.988 -2.09942 -5.61858 0
M  V30 2719 H 249.667 -2.61215 -5.91925 0
M  V30 2720 N 249.799 1.42003 -0.683588 0
M  V30 2721 C 251.076 1.95112 -0.138075 0
M  V30 2722 C 251.456 1.62359 1.34918 0
M  V30 2723 O 250.804 0.924311 2.08971 0
M  V30 2724 C 251.014 3.46505 -0.416581 0
M  V30 2725 C 252.362 4.23254 -0.337834 0
M  V30 2726 O 253.386 3.54468 -0.35082 0
M  V30 2727 O 252.245 5.45743 -0.287596 0
M  V30 2728 H 249.339 0.826961 -0.00797996 0
M  V30 2729 H 251.885 1.51784 -0.758924 0
M  V30 2730 H 250.657 3.63582 -1.4465 0
M  V30 2731 H 250.28 3.969 0.235839 0
M  V30 2732 N 251.277 0.427512 1.51691 0
M  V30 2733 C 252.523 -0.142439 2.02299 0
M  V30 2734 C 252.856 -1.43214 1.31162 0
M  V30 2735 O 252.131 -1.89833 0.423511 0
M  V30 2736 C 252.414 -0.371301 3.58181 0
M  V30 2737 C 252.267 0.936358 4.39946 0
M  V30 2738 C 253.586 -1.14542 4.24933 0
M  V30 2739 H 250.705 -0.0502937 0.735282 0
M  V30 2740 H 253.347 0.564584 1.81418 0
M  V30 2741 H 251.497 -0.973559 3.76104 0
M  V30 2742 H 253.169 1.57184 4.33694 0
M  V30 2743 H 251.412 1.5432 4.05423 0
M  V30 2744 H 252.083 0.730388 5.47147 0
M  V30 2745 H 254.559 -0.635362 4.11221 0
M  V30 2746 H 253.435 -1.27431 5.33903 0
M  V30 2747 H 253.696 -2.17093 3.85127 0
M  V30 2748 N 252.755 -1.56801 0.158532 0
M  V30 2749 C 254.001 -1.96781 -0.490405 0
M  V30 2750 C 254.334 -1.04397 -1.63753 0
M  V30 2751 O 253.609 -0.0885805 -1.94298 0
M  V30 2752 C 253.892 -3.4635 -0.985594 0
M  V30 2753 C 253.745 -4.49512 0.160824 0
M  V30 2754 C 255.064 -3.98697 -1.86355 0
M  V30 2755 H 252.183 -0.715482 -0.176788 0
M  V30 2756 H 254.825 -1.88451 0.242088 0
M  V30 2757 H 252.975 -3.53579 -1.60978 0
M  V30 2758 H 254.647 -4.54353 0.797537 0
M  V30 2759 H 252.89 -4.26013 0.818256 0
M  V30 2760 H 253.561 -5.51531 -0.227569 0
M  V30 2761 H 256.037 -3.94019 -1.33746 0
M  V30 2762 H 254.913 -5.03792 -2.17909 0
M  V30 2763 H 255.174 -3.41744 -2.8047 0
M  V30 2764 N 254.233 0.115231 -1.57178 0
M  V30 2765 C 255.649 0.468877 -1.52557 0
M  V30 2766 C 255.849 1.81649 -0.872125 0
M  V30 2767 O 254.905 2.48347 -0.45606 0
M  V30 2768 C 256.218 0.4499 -2.97315 0
M  V30 2769 C 257.766 0.533185 -3.08425 0
M  V30 2770 C 258.241 0.54456 -4.54751 0
M  V30 2771 N 259.732 0.605892 -4.5922 0
M  V30 2772 C 260.467 0.636203 -5.6986 0
M  V30 2773 N 259.963 0.623931 -6.89985 0
M  V30 2774 N 261.756 0.679496 -5.57978 0
M  V30 2775 H 253.907 -0.767712 -1.9804 0
M  V30 2776 H 256.17 -0.283609 -0.904583 0
M  V30 2777 H 255.876 -0.472721 -3.48509 0
M  V30 2778 H 255.75 1.27632 -3.5495 0
M  V30 2779 H 258.137 1.44623 -2.57232 0
M  V30 2780 H 258.218 -0.320995 -2.53778 0
M  V30 2781 H 257.862 -0.364452 -5.06591 0
M  V30 2782 H 257.792 1.41568 -5.07214 0
M  V30 2783 H 260.283 0.621386 -3.72756 0
M  V30 2784 H 260.596 0.649787 -7.70063 0
M  V30 2785 H 258.941 0.591296 -6.9248 0
M  V30 2786 H 262.132 0.686472 -4.63039 0
M  V30 2787 H 262.305 0.69965 -6.44212 0
M  V30 2788 N 255.711 1.52812 0.385517 0
M  V30 2789 C 257.122 1.5993 0.963293 0
M  V30 2790 C 257.473 0.454302 1.90868 0
M  V30 2791 O 256.598 -0.422132 2.12243 0
M  V30 2792 C 257.193 2.89871 1.75387 0
M  V30 2793 C 255.752 2.99389 2.28129 0
M  V30 2794 C 254.899 2.55071 1.08783 0
M  V30 2795 H 257.85 1.5784 0.164948 0
M  V30 2796 H 257.871 2.76553 2.61341 0
M  V30 2797 H 257.383 3.73186 1.06554 0
M  V30 2798 H 255.484 2.20619 3.00263 0
M  V30 2799 H 255.597 4.04096 2.57377 0
M  V30 2800 H 253.961 2.09473 1.4489 0
M  V30 2801 H 254.744 3.40785 0.414807 0
M  V30 2802 N 257.189 -0.644168 1.43834 0
M  V30 2803 C 258.436 -1.40395 1.4593 0
M  V30 2804 C 258.764 -1.94305 0.0869658 0
M  V30 2805 O 258.019 -1.73288 -0.909378 0
M  V30 2806 C 258.318 -2.59615 2.45631 0
M  V30 2807 C 257.984 -2.2407 3.91284 0
M  V30 2808 C 256.646 -2.14089 4.30952 0
M  V30 2809 C 258.998 -1.95775 4.83034 0
M  V30 2810 C 256.326 -1.73981 5.6031 0
M  V30 2811 C 258.678 -1.57163 6.12766 0
M  V30 2812 C 257.342 -1.45713 6.51402 0
M  V30 2813 H 256.612 -0.513741 0.533995 0
M  V30 2814 H 259.259 -0.731724 1.76969 0
M  V30 2815 H 257.564 -3.32011 2.08028 0
M  V30 2816 H 259.261 -3.17834 2.44504 0
M  V30 2817 H 255.851 -2.32753 3.59895 0
M  V30 2818 H 260.035 -2.02403 4.53152 0
M  V30 2819 H 255.291 -1.63709 5.89075 0
M  V30 2820 H 259.465 -1.34303 6.83327 0
M  V30 2821 H 257.092 -1.14406 7.51542 0
M  V30 2822 N 258.668 -1.30515 -0.883378 0
M  V30 2823 C 259.631 -1.1701 -1.97082 0
M  V30 2824 C 260.631 -0.10089 -1.60483 0
M  V30 2825 O 261.821 -0.349127 -1.70666 0
M  V30 2826 C 258.953 -0.793045 -3.31547 0
M  V30 2827 H 260.146 -2.13622 -2.10489 0
M  V30 2828 H 257.699 -1.13935 -1.06998 0
M  V30 2829 H 258.434 0.172499 -3.23841 0
M  V30 2830 H 258.219 -1.56576 -3.5948 0
M  V30 2831 H 259.709 -0.722073 -4.1131 0
M  V30 2832 N 260.146 1.09593 -1.13257 0
M  V30 2833 C 261.392 1.82003 -0.89458 0
M  V30 2834 C 261.725 1.85402 0.577906 0
M  V30 2835 O 261 1.32099 1.42759 0
M  V30 2836 C 261.283 3.28237 -1.48096 0
M  V30 2837 C 261.136 3.3312 -3.02244 0
M  V30 2838 C 262.455 4.24871 -1.14774 0
M  V30 2839 H 259.574 0.66077 -0.326424 0
M  V30 2840 H 262.216 1.28389 -1.40058 0
M  V30 2841 H 260.366 3.74024 -1.05062 0
M  V30 2842 H 262.038 2.95748 -3.54021 0
M  V30 2843 H 260.281 2.72756 -3.37323 0
M  V30 2844 H 260.952 4.3613 -3.38371 0
M  V30 2845 H 263.428 3.87361 -1.51957 0
M  V30 2846 H 262.304 5.25532 -1.58452 0
M  V30 2847 H 262.565 4.42058 -0.0611849 0
M  V30 2848 N 261.624 0.925811 1.2754 0
M  V30 2849 C 262.901 0.483726 1.89524 0
M  V30 2850 C 263.281 -1.03809 1.83812 0
M  V30 2851 O 262.629 -1.89143 1.28207 0
M  V30 2852 C 262.839 1.02769 3.33526 0
M  V30 2853 C 264.187 1.08703 4.10449 0
M  V30 2854 O 265.211 0.977175 3.42534 0
M  V30 2855 O 264.07 1.25599 5.31871 0
M  V30 2856 H 261.164 0.15529 0.812289 0
M  V30 2857 H 263.71 1.01738 1.35822 0
M  V30 2858 H 262.482 2.07155 3.31967 0
M  V30 2859 H 262.105 0.475567 3.94746 0
M  V30 2860 N 263.102 -1.41638 0.69111 0
M  V30 2861 C 264.348 -2.01598 0.220519 0
M  V30 2862 C 264.681 -1.54594 -1.17535 0
M  V30 2863 O 263.956 -0.755177 -1.79241 0
M  V30 2864 C 264.239 -3.59062 0.273243 0
M  V30 2865 C 264.092 -4.16203 1.70573 0
M  V30 2866 C 265.411 -4.38546 -0.369457 0
M  V30 2867 H 262.53 -0.732468 0.0816045 0
M  V30 2868 H 265.172 -1.68445 0.878986 0
M  V30 2869 H 263.322 -3.87435 -0.287411 0
M  V30 2870 H 264.994 -3.98722 2.31989 0
M  V30 2871 H 263.237 -3.71414 2.2413 0
M  V30 2872 H 263.908 -5.25358 1.69419 0
M  V30 2873 H 266.384 -4.1596 0.107977 0
M  V30 2874 H 265.26 -5.48069 -0.302002 0
M  V30 2875 H 265.521 -4.17662 -1.44951 0
M  V30 2876 N 264.58 -0.43555 -1.51462 0
M  V30 2877 C 265.805 0.132627 -2.06976 0
M  V30 2878 C 266.23 1.35848 -1.30104 0
M  V30 2879 O 265.588 1.78112 -0.338493 0
M  V30 2880 C 265.636 0.43523 -3.57964 0
M  V30 2881 O 264.74 1.52198 -3.83288 0
M  V30 2882 H 264.081 0.00265 -0.663995 0
M  V30 2883 H 266.611 -0.616369 -1.95095 0
M  V30 2884 H 266.621 0.686206 -4.02188 0
M  V30 2885 H 265.296 -0.460739 -4.1334 0
M  V30 2886 H 263.873 1.2611 -3.50928 0
M  V30 2887 N 266.058 1.56714 -0.166846 0
M  V30 2888 C 267.283 2.01557 0.488833 0
M  V30 2889 C 267.708 1.0463 1.56314 0
M  V30 2890 O 267.066 0.0251304 1.81283 0
M  V30 2891 C 267.114 3.4503 1.04818 0
M  V30 2892 O 266.218 3.51163 2.16236 0
M  V30 2893 H 265.559 0.653516 0.117526 0
M  V30 2894 H 268.089 2.02818 -0.269421 0
M  V30 2895 H 268.099 3.84243 1.37191 0
M  V30 2896 H 266.774 4.15077 0.261572 0
M  V30 2897 H 265.351 3.23807 1.84942 0
M  V30 2898 N 267.536 -0.106894 1.57237 0
M  V30 2899 C 268.784 -0.810921 1.85117 0
M  V30 2900 C 269.105 -1.7984 0.753827 0
M  V30 2901 O 268.375 -1.94649 -0.221056 0
M  V30 2902 H 266.955 -0.302466 0.683025 0
M  V30 2903 H 269.617 -0.0913324 1.94686 0
M  V30 2904 H 268.713 -1.34875 2.81452 0
M  V30 2905 N 269.014 -1.53014 -0.377408 0
M  V30 2906 C 270.26 -1.68872 -1.12294 0
M  V30 2907 C 270.593 -0.433224 -1.89306 0
M  V30 2908 O 269.868 0.569258 -1.85983 0
M  V30 2909 C 270.151 -2.93115 -2.09179 0
M  V30 2910 C 270.004 -4.28794 -1.35853 0
M  V30 2911 C 271.323 -3.12928 -3.09458 0
M  V30 2912 H 268.442 -0.614518 -0.406862 0
M  V30 2913 H 271.084 -1.85633 -0.40503 0
M  V30 2914 H 269.234 -2.78956 -2.70399 0
M  V30 2915 H 270.906 -4.54742 -0.775082 0
M  V30 2916 H 269.149 -4.28744 -0.660364 0
M  V30 2917 H 269.82 -5.11837 -2.06706 0
M  V30 2918 H 272.296 -3.26194 -2.58334 0
M  V30 2919 H 271.172 -4.01316 -3.74482 0
M  V30 2920 H 271.433 -2.27669 -3.78971 0
M  V30 2921 N 270.492 0.636531 -1.44174 0
M  V30 2922 C 271.402 1.77754 -1.53103 0
M  V30 2923 C 272.418 1.68928 -0.417034 0
M  V30 2924 O 273.594 1.89801 -0.6736 0
M  V30 2925 C 270.659 3.14115 -1.46741 0
M  V30 2926 C 269.72 3.34612 -2.68948 0
M  V30 2927 C 268.953 4.64467 -2.6288 0
M  V30 2928 O 269.176 5.44919 -1.68581 0
M  V30 2929 O 268.11 4.87049 -3.53648 0
M  V30 2930 H 271.936 1.73174 -2.49489 0
M  V30 2931 H 269.521 0.79709 -1.2636 0
M  V30 2932 H 271.403 3.95412 -1.45696 0
M  V30 2933 H 270.078 3.19249 -0.534975 0
M  V30 2934 H 268.985 2.53014 -2.75562 0
M  V30 2935 H 270.318 3.34336 -3.61221 0
M  V30 2936 N 271.97 1.30982 0.876444 0
M  V30 2937 C 272.933 1.18054 1.96459 0
M  V30 2938 C 273.933 0.109399 1.60427 0
M  V30 2939 O 275.123 0.358173 1.70478 0
M  V30 2940 C 272.255 0.810616 3.31122 0
M  V30 2941 H 273.448 2.14735 2.09354 0
M  V30 2942 H 271.001 1.145 1.06392 0
M  V30 2943 H 271.736 -0.155322 3.23928 0
M  V30 2944 H 271.521 1.58481 3.58645 0
M  V30 2945 H 273.011 0.743876 4.10921 0
M  V30 2946 N 273.449 -1.08991 1.13837 0
M  V30 2947 C 274.696 -1.81258 0.902882 0
M  V30 2948 C 275.024 -1.85936 -0.570803 0
M  V30 2949 O 274.279 -1.3267 -1.43865 0
M  V30 2950 C 274.578 -3.27042 1.44147 0
M  V30 2951 C 274.244 -3.4249 2.93276 0
M  V30 2952 C 272.906 -3.46414 3.33992 0
M  V30 2953 C 275.258 -3.4666 3.892 0
M  V30 2954 C 272.586 -3.52091 4.69307 0
M  V30 2955 C 274.938 -3.53872 5.24364 0
M  V30 2956 C 273.602 -3.56066 5.646 0
M  V30 2957 H 272.872 -0.663268 0.330388 0
M  V30 2958 H 275.519 -1.28368 1.42105 0
M  V30 2959 H 273.824 -3.82599 0.844097 0
M  V30 2960 H 275.521 -3.81499 1.23528 0
M  V30 2961 H 272.111 -3.40124 2.60794 0
M  V30 2962 H 276.295 -3.42865 3.58828 0
M  V30 2963 H 271.551 -3.52079 4.9985 0
M  V30 2964 H 275.725 -3.56043 5.98503 0
M  V30 2965 H 273.352 -3.60218 6.69438 0
M  V30 2966 N 274.927 -0.932562 -1.27047 0
M  V30 2967 C 276.338 -0.619451 -1.76124 0
M  V30 2968 C 276.689 0.865397 -1.76083 0
M  V30 2969 O 275.814 1.67722 -1.36742 0
M  V30 2970 C 276.409 -1.11771 -3.19832 0
M  V30 2971 C 274.968 -0.855174 -3.66557 0
M  V30 2972 C 274.115 -1.27362 -2.46321 0
M  V30 2973 H 277.066 -1.11181 -1.13245 0
M  V30 2974 H 277.087 -0.46759 -3.77616 0
M  V30 2975 H 276.599 -2.19842 -3.1983 0
M  V30 2976 H 274.7 0.211524 -3.71999 0
M  V30 2977 H 274.813 -1.47613 -4.55793 0
M  V30 2978 H 273.177 -0.692119 -2.45116 0
M  V30 2979 H 273.96 -2.36307 -2.49025 0
M  V30 2980 N 276.405 1.4127 -0.698611 0
M  V30 2981 C 277.653 2.00782 -0.230409 0
M  V30 2982 C 277.974 1.5562 1.17505 0
M  V30 2983 O 277.244 0.78815 1.79346 0
M  V30 2984 H 275.824 0.742464 -0.0821944 0
M  V30 2985 H 278.486 1.72852 -0.90045 0
M  V30 2986 H 277.582 3.11095 -0.25021 0
M  V30 2987 N 277.883 0.443576 1.51229 0
M  V30 2988 C 278.83 -0.364716 2.279 0
M  V30 2989 C 279.8 -1.0114 1.31757 0
M  V30 2990 O 280.985 -1.02912 1.60667 0
M  V30 2991 C 278.125 -1.45644 3.12861 0
M  V30 2992 C 277.238 -0.827269 4.24005 0
M  V30 2993 C 276.373 -1.89456 4.96266 0
M  V30 2994 C 275.412 -1.24416 5.99322 0
M  V30 2995 N 274.549 -2.25309 6.64966 0
M  V30 2996 H 279.389 0.295464 2.96532 0
M  V30 2997 H 276.926 0.157554 1.46254 0
M  V30 2998 H 278.884 -2.10076 3.6045 0
M  V30 2999 H 277.514 -2.08616 2.46331 0
M  V30 3000 H 276.566 -0.0710839 3.80334 0
M  V30 3001 H 277.878 -0.312481 4.9782 0
M  V30 3002 H 277.032 -2.61535 5.47434 0
M  V30 3003 H 275.771 -2.4431 4.22095 0
M  V30 3004 H 274.776 -0.508868 5.4744 0
M  V30 3005 H 276.001 -0.702882 6.75453 0
M  V30 3006 H 273.947 -2.79231 5.93604 0
M  V30 3007 H 273.864 -1.78739 7.34567 0
M  V30 3008 H 275.132 -2.96853 7.20763 0
M  V30 3009 N 279.361 -1.56624 0.175154 0
M  V30 3010 C 280.308 -2.18149 -0.753634 0
M  V30 3011 C 281.278 -1.12265 -1.22417 0
M  V30 3012 O 282.463 -1.40432 -1.29165 0
M  V30 3013 C 279.603 -2.82933 -1.97592 0
M  V30 3014 C 278.716 -4.03289 -1.5486 0
M  V30 3015 C 277.851 -4.55988 -2.72485 0
M  V30 3016 C 276.89 -5.68746 -2.26262 0
M  V30 3017 N 276.027 -6.15938 -3.36994 0
M  V30 3018 H 280.867 -2.9717 -0.222195 0
M  V30 3019 H 278.404 -1.46774 -0.0979422 0
M  V30 3020 H 280.362 -3.18653 -2.69288 0
M  V30 3021 H 278.992 -2.06509 -2.481 0
M  V30 3022 H 278.044 -3.73364 -0.728246 0
M  V30 3023 H 279.356 -4.849 -1.16933 0
M  V30 3024 H 278.51 -4.9391 -3.52332 0
M  V30 3025 H 277.249 -3.73443 -3.13674 0
M  V30 3026 H 276.254 -5.30372 -1.44863 0
M  V30 3027 H 277.479 -6.53095 -1.86127 0
M  V30 3028 H 275.425 -5.36321 -3.77751 0
M  V30 3029 H 275.342 -6.92548 -3.03172 0
M  V30 3030 H 276.61 -6.58511 -4.17114 0
M  V30 3031 N 280.839 0.0985539 -1.57292 0
M  V30 3032 C 282.116 0.834155 -1.76921 0
M  V30 3033 C 282.496 1.97101 -0.755928 0
M  V30 3034 O 281.844 2.27474 0.216245 0
M  V30 3035 C 282.054 1.33194 -3.22584 0
M  V30 3036 C 283.402 1.77611 -3.85668 0
M  V30 3037 O 284.426 1.42825 -3.26312 0
M  V30 3038 O 283.285 2.4192 -4.90038 0
M  V30 3039 H 280.379 0.397628 -0.725135 0
M  V30 3040 H 282.925 0.0807044 -1.69508 0
M  V30 3041 H 281.697 0.517248 -3.87866 0
M  V30 3042 H 281.32 2.1475 -3.34616 0
M  V30 3043 N 282.317 1.53212 0.369288 0
M  V30 3044 C 283.267 1.75769 1.45222 0
M  V30 3045 C 284.251 0.612136 1.48801 0
M  V30 3046 O 285.443 0.870674 1.54105 0
M  V30 3047 C 282.572 1.94769 2.82701 0
M  V30 3048 C 281.658 3.15315 2.83615 0
M  V30 3049 N 282.049 4.37295 2.54178 0
M  V30 3050 C 280.347 3.15962 3.14776 0
M  V30 3051 C 281.048 5.19015 2.62675 0
M  V30 3052 N 280.024 4.55142 2.97232 0
M  V30 3053 H 283.826 2.67691 1.2132 0
M  V30 3054 H 281.34 1.51787 0.577438 0
M  V30 3055 H 283.337 2.09056 3.60696 0
M  V30 3056 H 281.997 1.04073 3.07569 0
M  V30 3057 H 283.008 4.65091 2.27839 0
M  V30 3058 H 279.685 2.35144 3.44983 0
M  V30 3059 H 281.075 6.26305 2.43294 0
M  V30 3060 N 283.795 -0.628877 1.44509 0
M  V30 3061 C 285.072 -1.38733 1.37886 0
M  V30 3062 C 285.452 -2.11065 0.0387008 0
M  V30 3063 O 284.8 -2.06476 -0.97878 0
M  V30 3064 C 285.01 -2.35188 2.57852 0
M  V30 3065 C 286.358 -2.9845 3.02014 0
M  V30 3066 O 287.382 -2.45513 2.58073 0
M  V30 3067 O 286.241 -3.94487 3.78209 0
M  V30 3068 H 283.335 -0.621015 0.54614 0
M  V30 3069 H 285.881 -0.653744 1.56602 0
M  V30 3070 H 284.653 -1.80855 3.46998 0
M  V30 3071 H 284.276 -3.1596 2.4136 0
M  V30 3072 N 285.273 -1.31445 -0.869486 0
M  V30 3073 C 286.498 -1.24256 -1.66058 0
M  V30 3074 C 286.923 0.188928 -1.87149 0
M  V30 3075 O 286.281 1.13522 -1.4136 0
M  V30 3076 C 286.329 -1.9924 -3.00559 0
M  V30 3077 O 285.433 -1.33007 -3.90362 0
M  V30 3078 H 284.774 -0.428973 -0.506831 0
M  V30 3079 H 287.304 -1.73521 -1.08404 0
M  V30 3080 H 287.314 -2.08854 -3.50491 0
M  V30 3081 H 285.989 -3.03342 -2.84528 0
M  V30 3082 H 284.566 -1.31848 -3.48813 0
M  V30 3083 N 286.751 1.08385 -1.14413 0
M  V30 3084 C 288 1.80153 -0.907076 0
M  V30 3085 C 288.313 1.87176 0.567851 0
M  V30 3086 O 289.519 2.55359 0.922172 0
M  V30 3087 C 287.975 3.23687 -1.57336 0
M  V30 3088 C 287.583 3.24897 -3.08457 0
M  V30 3089 C 289.327 4.00136 -1.41744 0
M  V30 3090 C 287.234 4.6302 -3.67921 0
M  V30 3091 H 286.164 0.675139 -0.335714 0
M  V30 3092 H 288.815 1.21733 -1.37307 0
M  V30 3093 H 287.197 3.82234 -1.03505 0
M  V30 3094 H 288.371 2.76055 -3.68958 0
M  V30 3095 H 286.686 2.61943 -3.2369 0
M  V30 3096 H 289.283 5.02201 -1.83572 0
M  V30 3097 H 289.626 4.14709 -0.363576 0
M  V30 3098 H 290.159 3.48058 -1.92614 0
M  V30 3099 H 286.898 4.5365 -4.73161 0
M  V30 3100 H 286.418 5.12143 -3.12201 0
M  V30 3101 H 288.097 5.31994 -3.68227 0
M  V30 3102 N 288.23 0.939286 1.26551 0
M  V30 3103 C 289.177 0.446088 2.26448 0
M  V30 3104 C 290.147 -0.493234 1.58608 0
M  V30 3105 O 291.332 -0.409857 1.86346 0
M  V30 3106 C 288.472 -0.284375 3.43926 0
M  V30 3107 C 287.585 0.690399 4.26448 0
M  V30 3108 C 286.72 -0.0610712 5.31165 0
M  V30 3109 C 285.759 0.905649 6.05363 0
M  V30 3110 N 284.896 0.186055 7.01853 0
M  V30 3111 H 289.736 1.30291 2.68008 0
M  V30 3112 H 287.273 0.65371 1.31776 0
M  V30 3113 H 289.231 -0.724313 4.10864 0
M  V30 3114 H 287.861 -1.10535 3.03285 0
M  V30 3115 H 286.913 1.24885 3.59316 0
M  V30 3116 H 288.225 1.42873 4.779 0
M  V30 3117 H 287.379 -0.56038 6.04106 0
M  V30 3118 H 286.118 -0.832297 4.80546 0
M  V30 3119 H 285.123 1.4161 5.3125 0
M  V30 3120 H 286.348 1.67685 6.58072 0
M  V30 3121 H 284.294 -0.566714 6.53548 0
M  V30 3122 H 284.211 0.863752 7.51049 0
M  V30 3123 H 285.479 -0.292221 7.78952 0
M  V30 3124 N 289.708 -1.40897 0.706093 0
M  V30 3125 C 290.641 -2.282 -0.00328781 0
M  V30 3126 C 291.619 -1.42816 -0.77732 0
M  V30 3127 O 292.803 -1.72237 -0.765944 0
M  V30 3128 C 289.93 -3.23226 -1.01205 0
M  V30 3129 C 288.976 -4.25222 -0.329955 0
M  V30 3130 S 289.809 -5.27269 0.935298 0
M  V30 3131 C 290.965 -6.25859 -0.0716061 0
M  V30 3132 H 291.198 -2.88016 0.737143 0
M  V30 3133 H 288.731 -1.46191 0.496756 0
M  V30 3134 H 290.689 -3.78503 -1.58888 0
M  V30 3135 H 289.35 -2.62485 -1.72513 0
M  V30 3136 H 288.543 -4.92023 -1.09221 0
M  V30 3137 H 288.145 -3.73595 0.174069 0
M  V30 3138 H 290.437 -6.71204 -0.921521 0
M  V30 3139 H 291.38 -7.0586 0.562765 0
M  V30 3140 H 291.788 -5.62852 -0.431088 0
M  V30 3141 N 291.186 -0.45159 -1.50991 0
M  V30 3142 C 292.433 0.110074 -2.02201 0
M  V30 3143 C 292.761 1.4146 -1.33489 0
M  V30 3144 O 292.016 1.90617 -0.443125 0
M  V30 3145 C 292.315 0.361728 -3.55565 0
M  V30 3146 C 291.981 -0.858717 -4.42648 0
M  V30 3147 C 290.643 -1.19338 -4.66167 0
M  V30 3148 C 292.995 -1.67221 -4.93646 0
M  V30 3149 C 290.323 -2.34195 -5.37931 0
M  V30 3150 C 292.675 -2.8119 -5.6667 0
M  V30 3151 C 291.339 -3.15094 -5.88449 0
M  V30 3152 H 290.609 0.040279 -0.739904 0
M  V30 3153 H 293.256 -0.601696 -1.81802 0
M  V30 3154 H 291.561 1.15554 -3.74372 0
M  V30 3155 H 293.258 0.80996 -3.92735 0
M  V30 3156 H 289.848 -0.58796 -4.24548 0
M  V30 3157 H 294.032 -1.42686 -4.75347 0
M  V30 3158 H 289.288 -2.6076 -5.53005 0
M  V30 3159 H 293.462 -3.44585 -6.05173 0
M  V30 3160 H 291.089 -4.04204 -6.43835 0
M  V30 3161 N 292.664 1.56529 -0.183458 0
M  V30 3162 C 293.913 1.96419 0.458511 0
M  V30 3163 C 294.226 1.0727 1.63562 0
M  V30 3164 O 295.432 1.36893 2.34462 0
M  V30 3165 C 293.888 3.49298 0.867122 0
M  V30 3166 C 293.496 4.47092 -0.285057 0
M  V30 3167 C 295.24 3.97983 1.47683 0
M  V30 3168 C 293.147 5.91225 0.143862 0
M  V30 3169 H 292.077 0.733394 0.175071 0
M  V30 3170 H 294.728 1.81448 -0.273624 0
M  V30 3171 H 293.11 3.59731 1.65559 0
M  V30 3172 H 294.284 4.48383 -1.0625 0
M  V30 3173 H 292.599 4.08535 -0.805503 0
M  V30 3174 H 295.196 5.03134 1.80999 0
M  V30 3175 H 295.539 3.41618 2.37914 0
M  V30 3176 H 296.072 3.90617 0.752562 0
M  V30 3177 H 292.811 6.5149 -0.723974 0
M  V30 3178 H 292.331 5.93214 0.886413 0
M  V30 3179 H 294.01 6.44362 0.583628 0
M  V30 3180 N 294.142 -0.090211 1.57342 0
M  V30 3181 C 295.089 -1.10909 2.02405 0
M  V30 3182 C 296.059 -1.39523 0.901252 0
M  V30 3183 O 297.244 -1.50903 1.1676 0
M  V30 3184 C 294.384 -2.42277 2.45755 0
M  V30 3185 C 293.497 -2.20352 3.71576 0
M  V30 3186 C 292.632 -3.45154 4.03785 0
M  V30 3187 C 291.671 -3.18512 5.22701 0
M  V30 3188 N 290.808 -4.35593 5.50639 0
M  V30 3189 H 295.648 -0.71782 2.89225 0
M  V30 3190 H 293.185 -0.342901 1.43048 0
M  V30 3191 H 295.143 -3.18951 2.68935 0
M  V30 3192 H 293.773 -2.79242 1.61938 0
M  V30 3193 H 292.825 -1.34458 3.55844 0
M  V30 3194 H 294.137 -1.96661 4.58395 0
M  V30 3195 H 293.291 -4.30233 4.27767 0
M  V30 3196 H 292.03 -3.71904 3.15498 0
M  V30 3197 H 291.035 -2.31827 4.98534 0
M  V30 3198 H 292.26 -2.93103 6.12591 0
M  V30 3199 H 290.206 -4.6241 4.6531 0
M  V30 3200 H 290.123 -4.1511 6.31838 0
M  V30 3201 H 291.391 -5.21723 5.7916 0
M  V30 3202 N 295.62 -1.53406 -0.361157 0
M  V30 3203 C 296.568 -1.80832 -1.46296 0
M  V30 3204 C 297.562 -0.677699 -1.55253 0
M  V30 3205 O 298.768 -0.860723 -1.58087 0
M  V30 3206 H 295.143 -0.572627 -0.487445 0
M  V30 3207 H 297.114 -2.73045 -1.20371 0
M  V30 3208 C 295.863 -2.01907 -2.8307 0
M  V30 3209 H 295.186 -2.88349 -2.76938 0
M  V30 3210 H 296.626 -2.25072 -3.59331 0
M  V30 3211 C 295.085 -0.799449 -3.27277 0
M  V30 3212 O 295.615 0.00971761 -4.01699 0
M  V30 3213 N 293.821 -0.621637 -2.83873 0
M  V30 3214 H 293.368 -1.28126 -2.23476 0
M  V30 3215 H 293.326 0.19298 -3.13807 0
M  V30 3216 N 297.098 0.621204 -1.44841 0
M  V30 3217 C 298.061 1.71459 -1.521 0
M  V30 3218 C 299.061 1.55696 -0.401933 0
M  V30 3219 O 300.251 1.61011 -0.664925 0
M  V30 3220 C 297.383 3.10624 -1.40447 0
M  V30 3221 H 298.576 1.66394 -2.49506 0
M  V30 3222 H 296.129 0.835745 -1.3208 0
M  V30 3223 H 296.864 3.21277 -0.441737 0
M  V30 3224 H 296.649 3.23473 -2.21602 0
M  V30 3225 H 298.139 3.90293 -1.4853 0
M  V30 3226 N 298.576 1.31904 0.862503 0
M  V30 3227 C 299.523 1.20182 1.9704 0
M  V30 3228 C 300.493 0.0858247 1.65878 0
M  V30 3229 O 301.678 0.26 1.8902 0
M  V30 3230 C 298.818 0.922797 3.32533 0
M  V30 3231 C 297.931 2.12284 3.76244 0
M  V30 3232 C 297.066 1.77996 5.00491 0
M  V30 3233 C 296.105 2.94366 5.36671 0
M  V30 3234 N 295.242 2.60223 6.52095 0
M  V30 3235 H 300.082 2.14951 2.06398 0
M  V30 3236 H 297.619 1.06917 1.01031 0
M  V30 3237 H 299.577 0.741548 4.10557 0
M  V30 3238 H 298.207 0.0119227 3.22798 0
M  V30 3239 H 297.259 2.41461 2.9394 0
M  V30 3240 H 298.571 2.99357 3.98982 0
M  V30 3241 H 297.725 1.56377 5.862 0
M  V30 3242 H 296.464 0.881252 4.79672 0
M  V30 3243 H 295.469 3.16625 4.49476 0
M  V30 3244 H 296.694 3.84957 5.59451 0
M  V30 3245 H 294.64 1.72884 6.32809 0
M  V30 3246 H 294.557 3.40827 6.74814 0
M  V30 3247 H 295.825 2.42016 7.40978 0
M  V30 3248 N 300.054 -1.07777 1.14986 0
M  V30 3249 C 301.302 -1.79934 0.920235 0
M  V30 3250 C 301.623 -1.86955 -0.554336 0
M  V30 3251 O 300.893 -1.36731 -1.40291 0
M  V30 3252 H 299.473 -0.666424 0.337473 0
M  V30 3253 H 302.135 -1.3027 1.44968 0
M  V30 3254 H 301.231 -2.82539 1.32583 0
M  V30 3255 N 301.532 -0.945985 -1.26051 0
M  V30 3256 C 302.462 -0.477172 -2.28572 0
M  V30 3257 C 303.443 0.472032 -1.63419 0
M  V30 3258 O 304.628 0.372853 -1.90587 0
M  V30 3259 C 301.758 0.253975 -3.4637 0
M  V30 3260 C 300.712 -0.609135 -4.23643 0
M  V30 3261 C 300.038 0.252252 -5.34105 0
M  V30 3262 C 301.338 -1.8829 -4.8718 0
M  V30 3263 H 303.032 -1.33402 -2.68038 0
M  V30 3264 H 300.578 -0.642904 -1.28852 0
M  V30 3265 H 302.531 0.593016 -4.17207 0
M  V30 3266 H 301.255 1.145 -3.05871 0
M  V30 3267 H 299.914 -0.931138 -3.54578 0
M  V30 3268 H 299.562 1.14278 -4.89846 0
M  V30 3269 H 299.262 -0.32188 -5.86718 0
M  V30 3270 H 300.786 0.586454 -6.07777 0
M  V30 3271 H 302.2 -1.61081 -5.50205 0
M  V30 3272 H 300.597 -2.40199 -5.49931 0
M  V30 3273 H 301.667 -2.59134 -4.09851 0
M  V30 3274 O 303.049 1.37208 -0.85184 0
M  V30 3275 H 303.74 1.88528 -0.444614 0
M  V30 END ATOM
M  V30 BEGIN BOND
M  V30 END BOND
M  V30 END CTAB
M  END
$$$$
