drugbank_target|Q56313 Holliday junction ATP-dependent DNA helicase RuvB (DB02210)
 OpenBabel12092119553D

  0  0  0     0  0            999 V3000
M  V30 BEGIN CTAB
M  V30 COUNTS 13262 14228 0 0 0
M  V30 BEGIN ATOM
M  V30 1 H -1.547 9.37743 -1.21644 0
M  V30 2 O -1.44 8.89599 -0.40059 0
M  V30 3 P 0 8.91 0 0
M  V30 4 O 0.22 10.1746 0.733838 0
M  V30 5 O 0.79 8.73346 -1.23964 0
M  V30 6 O 0.25 7.66872 0.971405 0
M  V30 7 C -0.69 7.42405 2.04668 0
M  V30 8 C 0.04 6.86059 3.24661 0
M  V30 9 O 0.25 5.42934 3.03695 0
M  V30 10 C 1.44 7.41287 3.50796 0
M  V30 11 O 1.83 7.27073 4.86816 0
M  V30 12 C 2.32 6.5273 2.63741 0
M  V30 13 C 1.61 5.1842 2.73198 0
M  V30 14 N 1.66 4.38762 1.4784 0
M  V30 15 H -1.178 8.36899 2.3252 0
M  V30 16 H -1.45 6.70391 1.71179 0
M  V30 17 H -0.582 7.03638 4.13219 0
M  V30 18 H 2.073 4.59931 3.54016 0
M  V30 19 H 2.353 6.88995 1.59871 0
M  V30 20 H 3.344 6.4684 3.0373 0
M  V30 21 H 1.51 8.47002 3.20749 0
M  V30 22 P 3.37998 7.20834 5.23717 0
M  V30 23 O 3.59998 7.79853 6.57286 0
M  V30 24 O 4.16998 7.79239 4.12957 0
M  V30 25 O 3.62998 5.63315 5.29344 0
M  V30 26 C 2.68998 4.80255 6.01876 0
M  V30 27 C 3.41998 3.64202 6.65911 0
M  V30 28 O 3.62998 2.60694 5.64732 0
M  V30 29 C 4.81998 3.93473 7.1943 0
M  V30 30 O 5.20998 3.02071 8.21205 0
M  V30 31 C 5.69998 3.73047 5.97036 0
M  V30 32 C 4.98998 2.58828 5.25741 0
M  V30 33 N 5.03998 2.68068 3.77503 0
M  V30 34 H 2.20098 5.40332 6.79951 0
M  V30 35 H 1.93098 4.41613 5.32378 0
M  V30 36 H 2.79798 3.26331 7.47797 0
M  V30 37 P 6.75996 2.75334 8.47391 0
M  V30 38 O 6.97996 2.44571 9.90142 0
M  V30 39 O 7.54996 3.87688 7.92115 0
M  V30 40 O 7.00996 1.4459 7.59357 0
M  V30 41 C 6.06996 0.347608 7.69215 0
M  V30 42 C 6.79996 -0.96767 7.52806 0
M  V30 43 O 7.00996 -1.21036 6.1011 0
M  V30 44 C 8.19996 -1.04544 8.13308 0
M  V30 45 O 8.58996 -2.38311 8.41922 0
M  V30 46 C 9.07996 -0.491279 7.02284 0
M  V30 47 C 8.36996 -0.996264 5.77469 0
M  V30 48 N 8.41996 -0.0501916 4.62973 0
M  V30 49 H 5.58096 0.374722 8.67691 0
M  V30 50 H 5.31096 0.443485 6.90277 0
M  V30 51 H 6.17796 -1.75537 7.96793 0
M  V30 52 P 10.1399 -2.75334 8.47391 0
M  V30 53 O 10.3599 -3.84128 9.44797 0
M  V30 54 O 10.9299 -1.51947 8.68712 0
M  V30 55 O 10.3899 -3.29363 6.99321 0
M  V30 56 C 9.44994 -4.24011 6.4274 0
M  V30 57 C 10.1799 -5.20775 5.52155 0
M  V30 58 O 10.3899 -4.56534 4.22446 0
M  V30 59 C 11.5799 -5.62629 5.96531 0
M  V30 60 O 11.9699 -6.87667 5.41053 0
M  V30 61 C 12.4599 -4.52537 5.39283 0
M  V30 62 C 11.7499 -4.20027 4.08623 0
M  V30 63 N 11.7999 -2.76189 3.71603 0
M  V30 64 H 8.96094 -4.797 7.24003 0
M  V30 65 H 8.69094 -3.69856 5.84513 0
M  V30 66 H 9.55794 -6.10356 5.41441 0
M  V30 67 P 13.5199 -7.20834 5.23717 0
M  V30 68 O 13.7399 -8.66104 5.38572 0
M  V30 69 O 14.3099 -6.33544 6.1349 0
M  V30 70 O 13.7699 -6.7751 3.72168 0
M  V30 71 C 12.8299 -7.20825 2.7076 0
M  V30 72 C 13.5599 -7.45864 1.40599 0
M  V30 73 O 13.7699 -6.17651 0.734225 0
M  V30 74 C 14.9599 -8.05808 1.51899 0
M  V30 75 O 15.3499 -8.74358 0.335205 0
M  V30 76 C 15.8399 -6.83093 1.70294 0
M  V30 77 C 15.1299 -5.79992 0.836974 0
M  V30 78 N 15.1799 -4.41864 1.38293 0
M  V30 79 H 12.3409 -8.13644 3.0377 0
M  V30 80 H 12.0709 -6.42788 2.55485 0
M  V30 81 H 12.9379 -8.12039 0.792769 0
M  V30 82 P 16.8999 -8.91 1.09116e-15 0
M  V30 83 O 17.1199 -10.1736 -0.733766 0
M  V30 84 O 17.6899 -8.73247 1.2395 0
M  V30 85 O 17.1499 -7.66872 -0.971405 0
M  V30 86 C 16.2099 -7.42212 -2.04614 0
M  V30 87 C 16.9399 -6.86059 -3.24661 0
M  V30 88 O 17.1499 -5.42847 -3.03646 0
M  V30 89 C 18.3399 -7.41196 -3.50753 0
M  V30 90 O 18.7299 -7.27073 -4.86816 0
M  V30 91 C 19.2199 -6.5273 -2.63741 0
M  V30 92 C 18.5099 -5.1842 -2.73198 0
M  V30 93 N 18.5599 -4.38668 -1.47808 0
M  V30 94 C 18.7099 -3.02239 -1.60048 0
M  V30 95 O 18.7999 -2.46459 -2.67869 0
M  V30 96 N 18.7499 -2.32436 -0.408571 0
M  V30 97 C 18.6599 -2.85471 0.854993 0
M  V30 98 O 18.7099 -2.12566 1.8531 0
M  V30 99 C 18.5099 -4.28918 0.887335 0
M  V30 100 C 18.3999 -4.91066 2.24619 0
M  V30 101 C 18.4599 -5.00349 -0.255399 0
M  V30 102 H 15.7199 -8.36803 -2.32493 0
M  V30 103 H 15.4509 -6.701 -1.71105 0
M  V30 104 H 16.3179 -7.03551 -4.13168 0
M  V30 105 H 18.9729 -4.59773 -3.53894 0
M  V30 106 H 19.2519 -6.88995 -1.59871 0
M  V30 107 H 20.2439 -6.46749 -3.03687 0
M  V30 108 H 18.4099 -8.46908 -3.20714 0
M  V30 109 H 18.3389 -6.08548 -0.206986 0
M  V30 110 H 19.3689 -5.34836 2.53099 0
M  V30 111 H 17.6319 -5.69638 2.2291 0
M  V30 112 H 18.1199 -4.13971 2.98044 0
M  V30 113 H 18.8559 -1.33211 -0.474216 0
M  V30 114 P 20.2799 -7.20834 -5.23717 0
M  V30 115 O 20.4999 -7.79853 -6.57286 0
M  V30 116 O 21.0699 -7.79239 -4.12957 0
M  V30 117 O 20.5299 -5.63315 -5.29344 0
M  V30 118 C 19.5899 -4.80255 -6.01876 0
M  V30 119 C 20.3199 -3.64202 -6.65911 0
M  V30 120 O 20.5299 -2.60694 -5.64732 0
M  V30 121 C 21.7199 -3.93473 -7.1943 0
M  V30 122 O 22.1099 -3.02071 -8.21205 0
M  V30 123 C 22.5999 -3.73047 -5.97036 0
M  V30 124 C 21.8899 -2.58828 -5.25741 0
M  V30 125 N 21.9399 -2.68068 -3.77503 0
M  V30 126 H 19.1009 -5.40332 -6.79951 0
M  V30 127 H 18.8309 -4.41613 -5.32378 0
M  V30 128 H 19.6979 -3.26331 -7.47797 0
M  V30 129 P 23.6599 -2.75334 -8.47391 0
M  V30 130 O 23.8799 -2.44571 -9.90142 0
M  V30 131 O 24.4499 -3.87688 -7.92115 0
M  V30 132 O 23.9099 -1.4459 -7.59357 0
M  V30 133 C 22.9699 -0.347608 -7.69215 0
M  V30 134 C 23.6999 0.96767 -7.52806 0
M  V30 135 O 23.9099 1.21036 -6.1011 0
M  V30 136 C 25.0999 1.04544 -8.13308 0
M  V30 137 O 25.4899 2.38311 -8.41922 0
M  V30 138 C 25.9799 0.491279 -7.02284 0
M  V30 139 C 25.2699 0.996264 -5.77469 0
M  V30 140 N 25.3199 0.0501916 -4.62973 0
M  V30 141 H 22.4809 -0.374722 -8.67691 0
M  V30 142 H 22.2109 -0.443485 -6.90277 0
M  V30 143 H 23.0779 1.75537 -7.96793 0
M  V30 144 P 27.0398 2.75334 -8.47391 0
M  V30 145 O 27.2598 3.84128 -9.44797 0
M  V30 146 O 27.8298 1.51947 -8.68712 0
M  V30 147 O 27.2898 3.29363 -6.99321 0
M  V30 148 C 26.3498 4.24011 -6.4274 0
M  V30 149 C 27.0798 5.20775 -5.52155 0
M  V30 150 O 27.2898 4.56534 -4.22446 0
M  V30 151 C 28.4798 5.62629 -5.96531 0
M  V30 152 O 28.8698 6.87667 -5.41053 0
M  V30 153 C 29.3598 4.52537 -5.39283 0
M  V30 154 C 28.6498 4.20027 -4.08623 0
M  V30 155 N 28.6998 2.76189 -3.71603 0
M  V30 156 C 28.6198 1.64862 -4.52822 0
M  V30 157 N 28.6998 0.512671 -3.88633 0
M  V30 158 C 28.8398 0.888083 -2.54977 0
M  V30 159 C 28.9698 0.094668 -1.38677 0
M  V30 160 N 29.0898 0.890102 -0.232633 0
M  V30 161 C 29.0898 2.26958 -0.21772 0
M  V30 162 N 29.2198 2.84626 0.97925 0
M  V30 163 N 28.9598 3.0178 -1.31033 0
M  V30 164 C 28.8398 2.26781 -2.43843 0
M  V30 165 H 25.8608 4.797 -7.24003 0
M  V30 166 H 25.5908 3.69856 -5.84513 0
M  V30 167 H 26.4578 6.10356 -5.41441 0
M  V30 168 P 30.4198 7.20834 -5.23717 0
M  V30 169 O 30.6398 8.66189 -5.38625 0
M  V30 170 O 31.2098 6.33615 -6.1356 0
M  V30 171 O 30.6698 6.7751 -3.72168 0
M  V30 172 C 29.7298 7.20732 -2.70725 0
M  V30 173 C 30.4598 7.45864 -1.40599 0
M  V30 174 O 30.6698 6.17651 -0.734225 0
M  V30 175 C 31.8598 8.05808 -1.51899 0
M  V30 176 O 32.2498 8.74358 -0.335205 0
M  V30 177 C 32.7398 6.83093 -1.70294 0
M  V30 178 C 32.0298 5.79992 -0.836974 0
M  V30 179 N 32.0798 4.41769 -1.38263 0
M  V30 180 C 32.2298 3.38591 -0.481702 0
M  V30 181 O 32.3198 3.56839 0.718452 0
M  V30 182 N 32.2698 2.1206 -1.03569 0
M  V30 183 C 32.1798 1.80696 -2.36966 0
M  V30 184 O 32.2298 0.630473 -2.74862 0
M  V30 185 C 32.0298 2.94845 -3.23898 0
M  V30 186 C 31.9198 2.65253 -4.70362 0
M  V30 187 C 31.9798 4.19803 -2.73435 0
M  V30 188 H 29.2398 8.13644 -3.0377 0
M  V30 189 H 28.9708 6.42695 -2.55448 0
M  V30 190 H 29.8378 8.12039 -0.792769 0
M  V30 191 H 32.4928 5.79978 0.160587 0
M  V30 192 H 32.7718 6.51379 -2.75643 0
M  V30 193 H 33.7638 7.01734 -1.34462 0
M  V30 194 H 31.9298 8.73674 -2.38337 0
M  V30 195 H 31.8588 5.04492 -3.4095 0
M  V30 196 H 32.8888 2.83924 -5.1913 0
M  V30 197 H 31.1518 3.29824 -5.15163 0
M  V30 198 H 31.6398 1.59723 -4.84449 0
M  V30 199 H 32.3758 1.35644 -0.399345 0
M  V30 200 P 33.7998 8.91 -2.18232e-15 0
M  V30 201 O 34.0198 10.1726 0.733694 0
M  V30 202 O 34.5898 8.73148 -1.23936 0
M  V30 203 O 34.0498 7.66872 0.971405 0
M  V30 204 C 33.1098 7.42309 2.04641 0
M  V30 205 C 33.8398 6.86059 3.24661 0
M  V30 206 O 34.0498 5.42847 3.03646 0
M  V30 207 C 35.2398 7.41196 3.50753 0
M  V30 208 O 35.6298 7.27073 4.86816 0
M  V30 209 C 36.1198 6.5273 2.63741 0
M  V30 210 C 35.4098 5.1842 2.73198 0
M  V30 211 N 35.4598 4.38762 1.4784 0
M  V30 212 H 32.6208 8.36803 2.32493 0
M  V30 213 H 32.3508 6.70197 1.71129 0
M  V30 214 H 33.2178 7.03551 4.13168 0
M  V30 215 P 37.1798 7.20834 5.23717 0
M  V30 216 O 37.3998 7.7993 6.57351 0
M  V30 217 O 37.9698 7.79328 4.13004 0
M  V30 218 O 37.4298 5.63315 5.29344 0
M  V30 219 C 36.4898 4.80193 6.01798 0
M  V30 220 C 37.2198 3.64202 6.65911 0
M  V30 221 O 37.4298 2.60694 5.64732 0
M  V30 222 C 38.6198 3.93473 7.1943 0
M  V30 223 O 39.0098 3.02071 8.21205 0
M  V30 224 C 39.4998 3.73047 5.97036 0
M  V30 225 C 38.7898 2.58828 5.25741 0
M  V30 226 N 38.8398 2.6801 3.77422 0
M  V30 227 C 38.9898 1.50443 3.07133 0
M  V30 228 O 39.0798 0.419406 3.61576 0
M  V30 229 N 39.0298 1.6403 1.69677 0
M  V30 230 C 38.9398 2.81206 0.986255 0
M  V30 231 C 38.7898 3.99158 1.80325 0
M  V30 232 C 38.7398 3.89779 3.1476 0
M  V30 233 H 35.9998 5.40332 6.79951 0
M  V30 234 H 35.7308 4.41549 5.32301 0
M  V30 235 H 36.5978 3.26331 7.47797 0
M  V30 236 H 39.2528 1.6395 5.56554 0
M  V30 237 H 39.5318 4.63439 5.3432 0
M  V30 238 H 40.5238 3.44728 6.25838 0
M  V30 239 H 38.6898 4.96652 7.57263 0
M  V30 240 H 38.6188 4.80159 3.74441 0
M  V30 241 P 40.5598 2.75334 8.47391 0
M  V30 242 O 40.7798 2.44571 9.90142 0
M  V30 243 O 41.3498 3.87688 7.92115 0
M  V30 244 O 40.8098 1.4459 7.59357 0
M  V30 245 C 39.8698 0.347608 7.69215 0
M  V30 246 C 40.5998 -0.96767 7.52806 0
M  V30 247 O 40.8098 -1.21036 6.1011 0
M  V30 248 C 41.9998 -1.04544 8.13308 0
M  V30 249 O 42.3898 -2.38311 8.41922 0
M  V30 250 C 42.8798 -0.491279 7.02284 0
M  V30 251 C 42.1698 -0.996264 5.77469 0
M  V30 252 N 42.2198 -0.0501916 4.62973 0
M  V30 253 H 39.3808 0.374722 8.67691 0
M  V30 254 H 39.1108 0.443485 6.90277 0
M  V30 255 H 39.9778 -1.75537 7.96793 0
M  V30 256 P 43.9397 -2.75334 8.47391 0
M  V30 257 O 44.1597 -3.84128 9.44797 0
M  V30 258 O 44.7297 -1.51947 8.68712 0
M  V30 259 O 44.1897 -3.29363 6.99321 0
M  V30 260 C 43.2497 -4.24011 6.4274 0
M  V30 261 C 43.9797 -5.20775 5.52155 0
M  V30 262 O 44.1897 -4.56534 4.22446 0
M  V30 263 C 45.3797 -5.62629 5.96531 0
M  V30 264 O 45.7697 -6.87667 5.41053 0
M  V30 265 C 46.2597 -4.52537 5.39283 0
M  V30 266 C 45.5497 -4.20027 4.08623 0
M  V30 267 N 45.5997 -2.76189 3.71603 0
M  V30 268 H 42.7607 -4.797 7.24003 0
M  V30 269 H 42.4907 -3.69856 5.84513 0
M  V30 270 H 43.3577 -6.10356 5.41441 0
M  V30 271 P 47.3197 -7.20834 5.23717 0
M  V30 272 O 47.5397 -8.66104 5.38572 0
M  V30 273 O 48.1097 -6.33544 6.1349 0
M  V30 274 O 47.5697 -6.7751 3.72168 0
M  V30 275 C 46.6297 -7.20825 2.7076 0
M  V30 276 C 47.3597 -7.45864 1.40599 0
M  V30 277 O 47.5697 -6.17651 0.734225 0
M  V30 278 C 48.7597 -8.05808 1.51899 0
M  V30 279 O 49.1497 -8.74358 0.335205 0
M  V30 280 C 49.6397 -6.83093 1.70294 0
M  V30 281 C 48.9297 -5.79992 0.836974 0
M  V30 282 N 48.9797 -4.41864 1.38293 0
M  V30 283 C 48.8997 -3.99538 2.69438 0
M  V30 284 N 48.9797 -2.69909 2.84277 0
M  V30 285 C 49.1197 -2.21719 1.5408 0
M  V30 286 C 49.2497 -0.891712 1.06628 0
M  V30 287 O 49.2697 0.161298 1.70137 0
M  V30 288 N 49.3697 -0.856846 -0.334985 0
M  V30 289 C 49.3697 -1.9641 -1.15789 0
M  V30 290 N 49.4997 -1.72708 -2.46522 0
M  V30 291 N 49.2397 -3.21165 -0.713741 0
M  V30 292 C 49.1197 -3.26797 0.639748 0
M  V30 293 H 46.1407 -8.13644 3.0377 0
M  V30 294 H 45.8707 -6.42788 2.55485 0
M  V30 295 H 46.7377 -8.12039 0.792769 0
M  V30 296 H 49.3927 -5.80061 -0.166416 0
M  V30 297 H 49.6717 -6.51287 2.75604 0
M  V30 298 H 50.6637 -7.01734 1.34462 0
M  V30 299 H 48.8297 -8.73674 2.38337 0
M  V30 300 H 48.7807 -4.68207 3.53221 0
M  V30 301 H 49.4627 0.0398818 -0.767965 0
M  V30 302 H 49.4997 -2.50995 -3.13503 0
M  V30 303 H 49.6007 -0.759148 -2.80716 0
M  V30 304 P 50.6997 -8.91 3.27348e-15 0
M  V30 305 O 50.9197 -10.1726 -0.733694 0
M  V30 306 O 51.4897 -8.73148 1.23936 0
M  V30 307 O 50.9497 -7.66872 -0.971405 0
M  V30 308 C 50.0097 -7.42309 -2.04641 0
M  V30 309 C 50.7397 -6.86059 -3.24661 0
M  V30 310 O 50.9497 -5.42847 -3.03646 0
M  V30 311 C 52.1397 -7.41196 -3.50753 0
M  V30 312 O 52.5297 -7.27073 -4.86816 0
M  V30 313 C 53.0197 -6.5273 -2.63741 0
M  V30 314 C 52.3097 -5.1842 -2.73198 0
M  V30 315 N 52.3597 -4.38762 -1.4784 0
M  V30 316 H 49.5207 -8.36803 -2.32493 0
M  V30 317 H 49.2507 -6.70197 -1.71129 0
M  V30 318 H 50.1177 -7.03551 -4.13168 0
M  V30 319 P 54.0797 -7.20834 -5.23717 0
M  V30 320 O 54.2997 -7.79853 -6.57286 0
M  V30 321 O 54.8697 -7.79239 -4.12957 0
M  V30 322 O 54.3297 -5.63315 -5.29344 0
M  V30 323 C 53.3897 -4.80255 -6.01876 0
M  V30 324 C 54.1197 -3.64202 -6.65911 0
M  V30 325 O 54.3297 -2.60694 -5.64732 0
M  V30 326 C 55.5197 -3.93473 -7.1943 0
M  V30 327 O 55.9097 -3.02071 -8.21205 0
M  V30 328 C 56.3997 -3.73047 -5.97036 0
M  V30 329 C 55.6897 -2.58828 -5.25741 0
M  V30 330 N 55.7397 -2.68068 -3.77503 0
M  V30 331 H 52.9007 -5.40332 -6.79951 0
M  V30 332 H 52.6307 -4.41613 -5.32378 0
M  V30 333 H 53.4977 -3.26331 -7.47797 0
M  V30 334 P 57.4597 -2.75334 -8.47391 0
M  V30 335 O 57.6797 -2.44571 -9.90142 0
M  V30 336 O 58.2497 -3.87688 -7.92115 0
M  V30 337 O 57.7097 -1.4459 -7.59357 0
M  V30 338 C 56.7697 -0.347608 -7.69215 0
M  V30 339 C 57.4997 0.96767 -7.52806 0
M  V30 340 O 57.7097 1.21036 -6.1011 0
M  V30 341 C 58.8997 1.04544 -8.13308 0
M  V30 342 O 59.2897 2.38311 -8.41922 0
M  V30 343 C 59.7797 0.491279 -7.02284 0
M  V30 344 C 59.0697 0.996264 -5.77469 0
M  V30 345 N 59.1197 0.0501916 -4.62973 0
M  V30 346 H 56.2807 -0.374722 -8.67691 0
M  V30 347 H 56.0107 -0.443485 -6.90277 0
M  V30 348 H 56.8777 1.75537 -7.96793 0
M  V30 349 P 60.8396 2.75334 -8.47391 0
M  V30 350 O 61.0596 3.84128 -9.44797 0
M  V30 351 O 61.6296 1.51947 -8.68712 0
M  V30 352 O 61.0896 3.29363 -6.99321 0
M  V30 353 C 60.1496 4.24011 -6.4274 0
M  V30 354 C 60.8796 5.20775 -5.52155 0
M  V30 355 O 61.0896 4.56534 -4.22446 0
M  V30 356 C 62.2796 5.62629 -5.96531 0
M  V30 357 O 62.6696 6.87667 -5.41053 0
M  V30 358 C 63.1596 4.52537 -5.39283 0
M  V30 359 C 62.4496 4.20027 -4.08623 0
M  V30 360 N 62.4996 2.76189 -3.71603 0
M  V30 361 H 59.6606 4.797 -7.24003 0
M  V30 362 H 59.3906 3.69856 -5.84513 0
M  V30 363 H 60.2576 6.10356 -5.41441 0
M  V30 364 P 64.2196 7.20834 -5.23717 0
M  V30 365 O 64.4396 8.66104 -5.38572 0
M  V30 366 O 65.0096 6.33544 -6.1349 0
M  V30 367 O 64.4696 6.7751 -3.72168 0
M  V30 368 C 63.5296 7.20825 -2.7076 0
M  V30 369 C 64.2596 7.45864 -1.40599 0
M  V30 370 O 64.4696 6.17651 -0.734225 0
M  V30 371 C 65.6596 8.05808 -1.51899 0
M  V30 372 O 66.0496 8.74358 -0.335205 0
M  V30 373 C 66.5396 6.83093 -1.70294 0
M  V30 374 C 65.8296 5.79992 -0.836974 0
M  V30 375 N 65.8796 4.41864 -1.38293 0
M  V30 376 C 65.7996 3.99538 -2.69438 0
M  V30 377 N 65.8796 2.69909 -2.84277 0
M  V30 378 C 66.0196 2.21719 -1.5408 0
M  V30 379 C 66.1496 0.891712 -1.06628 0
M  V30 380 N 66.2696 0.856846 0.334985 0
M  V30 381 C 66.2696 1.9641 1.15789 0
M  V30 382 N 66.3996 1.72708 2.46522 0
M  V30 383 N 66.1396 3.21165 0.713741 0
M  V30 384 C 66.0196 3.26797 -0.639748 0
M  V30 385 H 63.0406 8.13644 -3.0377 0
M  V30 386 H 62.7706 6.42788 -2.55485 0
M  V30 387 H 63.6376 8.12039 -0.792769 0
M  V30 388 P 67.5996 8.91 -4.36464e-15 0
M  V30 389 O 67.8196 10.1726 0.733694 0
M  V30 390 O 68.3896 8.73148 -1.23936 0
M  V30 391 O 67.8496 7.66872 0.971405 0
M  V30 392 C 66.9096 7.42309 2.04641 0
M  V30 393 C 67.6396 6.86059 3.24661 0
M  V30 394 O 67.8496 5.42847 3.03646 0
M  V30 395 C 69.0396 7.41196 3.50753 0
M  V30 396 O 69.4296 7.27073 4.86816 0
M  V30 397 C 69.9196 6.5273 2.63741 0
M  V30 398 C 69.2096 5.1842 2.73198 0
M  V30 399 N 69.2596 4.38762 1.4784 0
M  V30 400 H 66.4206 8.36803 2.32493 0
M  V30 401 H 66.1506 6.70197 1.71129 0
M  V30 402 H 67.0176 7.03551 4.13168 0
M  V30 403 P 70.9796 7.20834 5.23717 0
M  V30 404 O 71.1996 7.79853 6.57286 0
M  V30 405 O 71.7696 7.79239 4.12957 0
M  V30 406 O 71.2296 5.63315 5.29344 0
M  V30 407 C 70.2896 4.80255 6.01876 0
M  V30 408 C 71.0196 3.64202 6.65911 0
M  V30 409 O 71.2296 2.60694 5.64732 0
M  V30 410 C 72.4196 3.93473 7.1943 0
M  V30 411 O 72.8096 3.02071 8.21205 0
M  V30 412 C 73.2996 3.73047 5.97036 0
M  V30 413 C 72.5896 2.58828 5.25741 0
M  V30 414 N 72.6396 2.68068 3.77503 0
M  V30 415 H 69.8006 5.40332 6.79951 0
M  V30 416 H 69.5306 4.41613 5.32378 0
M  V30 417 H 70.3976 3.26331 7.47797 0
M  V30 418 P 74.3596 2.75334 8.47391 0
M  V30 419 O 74.5796 2.44571 9.90142 0
M  V30 420 O 75.1496 3.87688 7.92115 0
M  V30 421 O 74.6096 1.4459 7.59357 0
M  V30 422 C 73.6696 0.347608 7.69215 0
M  V30 423 C 74.3996 -0.96767 7.52806 0
M  V30 424 O 74.6096 -1.21036 6.1011 0
M  V30 425 C 75.7996 -1.04544 8.13308 0
M  V30 426 O 76.1896 -2.38311 8.41922 0
M  V30 427 C 76.6796 -0.491279 7.02284 0
M  V30 428 C 75.9696 -0.996264 5.77469 0
M  V30 429 N 76.0196 -0.0501916 4.62973 0
M  V30 430 H 73.1806 0.374722 8.67691 0
M  V30 431 H 72.9106 0.443485 6.90277 0
M  V30 432 H 73.7776 -1.75537 7.96793 0
M  V30 433 P 77.7395 -2.75334 8.47391 0
M  V30 434 O 77.9595 -3.84128 9.44797 0
M  V30 435 O 78.5295 -1.51947 8.68712 0
M  V30 436 O 77.9895 -3.29363 6.99321 0
M  V30 437 C 77.0495 -4.24011 6.4274 0
M  V30 438 C 77.7795 -5.20775 5.52155 0
M  V30 439 O 77.9895 -4.56534 4.22446 0
M  V30 440 C 79.1795 -5.62629 5.96531 0
M  V30 441 O 79.5695 -6.87667 5.41053 0
M  V30 442 C 80.0595 -4.52537 5.39283 0
M  V30 443 C 79.3495 -4.20027 4.08623 0
M  V30 444 N 79.3995 -2.76189 3.71603 0
M  V30 445 H 76.5605 -4.797 7.24003 0
M  V30 446 H 76.2905 -3.69856 5.84513 0
M  V30 447 H 77.1575 -6.10356 5.41441 0
M  V30 448 P 81.1195 -7.20834 5.23717 0
M  V30 449 O 81.3395 -8.66104 5.38572 0
M  V30 450 O 81.9095 -6.33544 6.1349 0
M  V30 451 O 81.3695 -6.7751 3.72168 0
M  V30 452 C 80.4295 -7.20825 2.7076 0
M  V30 453 C 81.1595 -7.45864 1.40599 0
M  V30 454 O 81.3695 -6.17651 0.734225 0
M  V30 455 C 82.5595 -8.05808 1.51899 0
M  V30 456 O 82.9495 -8.74358 0.335205 0
M  V30 457 C 83.4395 -6.83093 1.70294 0
M  V30 458 C 82.7295 -5.79992 0.836974 0
M  V30 459 N 82.7795 -4.41864 1.38293 0
M  V30 460 H 79.9405 -8.13644 3.0377 0
M  V30 461 H 79.6705 -6.42788 2.55485 0
M  V30 462 H 80.5375 -8.12039 0.792769 0
M  V30 463 P 84.4995 -8.91 5.4558e-15 0
M  V30 464 O 84.7195 -10.1726 -0.733694 0
M  V30 465 O 85.2895 -8.73148 1.23936 0
M  V30 466 O 84.7495 -7.66872 -0.971405 0
M  V30 467 C 83.8095 -7.42309 -2.04641 0
M  V30 468 C 84.5395 -6.86059 -3.24661 0
M  V30 469 O 84.7495 -5.42847 -3.03646 0
M  V30 470 C 85.9395 -7.41196 -3.50753 0
M  V30 471 O 86.3295 -7.27073 -4.86816 0
M  V30 472 C 86.8195 -6.5273 -2.63741 0
M  V30 473 C 86.1095 -5.1842 -2.73198 0
M  V30 474 N 86.1595 -4.38762 -1.4784 0
M  V30 475 H 83.3205 -8.36803 -2.32493 0
M  V30 476 H 83.0505 -6.70197 -1.71129 0
M  V30 477 H 83.9175 -7.03551 -4.13168 0
M  V30 478 P 87.8795 -7.20834 -5.23717 0
M  V30 479 O 88.0995 -7.79853 -6.57286 0
M  V30 480 O 88.6695 -7.79239 -4.12957 0
M  V30 481 O 88.1295 -5.63315 -5.29344 0
M  V30 482 C 87.1895 -4.80255 -6.01876 0
M  V30 483 C 87.9195 -3.64202 -6.65911 0
M  V30 484 O 88.1295 -2.60694 -5.64732 0
M  V30 485 C 89.3195 -3.93473 -7.1943 0
M  V30 486 O 89.7095 -3.02071 -8.21205 0
M  V30 487 C 90.1995 -3.73047 -5.97036 0
M  V30 488 C 89.4895 -2.58828 -5.25741 0
M  V30 489 N 89.5395 -2.68068 -3.77503 0
M  V30 490 H 86.7005 -5.40332 -6.79951 0
M  V30 491 H 86.4305 -4.41613 -5.32378 0
M  V30 492 H 87.2975 -3.26331 -7.47797 0
M  V30 493 P 91.2595 -2.75334 -8.47391 0
M  V30 494 O 91.4795 -2.44571 -9.90142 0
M  V30 495 O 92.0495 -3.87688 -7.92115 0
M  V30 496 O 91.5095 -1.4459 -7.59357 0
M  V30 497 C 90.5695 -0.347608 -7.69215 0
M  V30 498 C 91.2995 0.96767 -7.52806 0
M  V30 499 O 91.5095 1.21036 -6.1011 0
M  V30 500 C 92.6995 1.04544 -8.13308 0
M  V30 501 O 93.0895 2.38311 -8.41922 0
M  V30 502 C 93.5795 0.491279 -7.02284 0
M  V30 503 C 92.8695 0.996264 -5.77469 0
M  V30 504 N 92.9195 0.0501916 -4.62973 0
M  V30 505 H 90.0805 -0.374722 -8.67691 0
M  V30 506 H 89.8105 -0.443485 -6.90277 0
M  V30 507 H 90.6775 1.75537 -7.96793 0
M  V30 508 P 94.6394 2.75334 -8.47391 0
M  V30 509 O 94.8594 3.84128 -9.44797 0
M  V30 510 O 95.4294 1.51947 -8.68712 0
M  V30 511 O 94.8894 3.29363 -6.99321 0
M  V30 512 C 93.9494 4.24011 -6.4274 0
M  V30 513 C 94.6794 5.20775 -5.52155 0
M  V30 514 O 94.8894 4.56534 -4.22446 0
M  V30 515 C 96.0794 5.62629 -5.96531 0
M  V30 516 O 96.4694 6.87667 -5.41053 0
M  V30 517 C 96.9594 4.52537 -5.39283 0
M  V30 518 C 96.2494 4.20027 -4.08623 0
M  V30 519 N 96.2994 2.76189 -3.71603 0
M  V30 520 C 96.2194 1.64862 -4.52822 0
M  V30 521 N 96.2994 0.512671 -3.88633 0
M  V30 522 C 96.4394 0.888083 -2.54977 0
M  V30 523 C 96.5694 0.094668 -1.38677 0
M  V30 524 O 96.5894 -1.13053 -1.28163 0
M  V30 525 N 96.6894 0.890102 -0.232633 0
M  V30 526 C 96.6894 2.26958 -0.21772 0
M  V30 527 N 96.8194 2.84626 0.97925 0
M  V30 528 N 96.5594 3.0178 -1.31033 0
M  V30 529 C 96.4394 2.26781 -2.43843 0
M  V30 530 H 93.4604 4.797 -7.24003 0
M  V30 531 H 93.1904 3.69856 -5.84513 0
M  V30 532 H 94.0574 6.10356 -5.41441 0
M  V30 533 H 96.7124 4.79061 -3.27488 0
M  V30 534 H 96.9914 3.64906 -6.05785 0
M  V30 535 H 97.9834 4.8868 -5.2125 0
M  V30 536 H 96.1494 5.66726 -7.06352 0
M  V30 537 H 96.1004 1.71169 -5.60966 0
M  V30 538 H 96.7824 0.419134 0.644739 0
M  V30 539 H 96.8194 3.87332 1.06098 0
M  V30 540 H 96.9204 2.26417 1.82483 0
M  V30 541 P 98.0194 7.20834 -5.23717 0
M  V30 542 O 98.2394 8.66104 -5.38572 0
M  V30 543 O 98.8094 6.33544 -6.1349 0
M  V30 544 O 98.2694 6.7751 -3.72168 0
M  V30 545 C 97.3294 7.20825 -2.7076 0
M  V30 546 C 98.0594 7.45864 -1.40599 0
M  V30 547 O 98.2694 6.17651 -0.734225 0
M  V30 548 C 99.4594 8.05808 -1.51899 0
M  V30 549 O 99.8494 8.74358 -0.335205 0
M  V30 550 C 100.339 6.83093 -1.70294 0
M  V30 551 C 99.6294 5.79992 -0.836974 0
M  V30 552 N 99.6794 4.41864 -1.38293 0
M  V30 553 H 96.8404 8.13644 -3.0377 0
M  V30 554 H 96.5704 6.42788 -2.55485 0
M  V30 555 H 97.4374 8.12039 -0.792769 0
M  V30 556 P 101.399 8.91 -6.54696e-15 0
M  V30 557 O 101.619 10.1726 0.733694 0
M  V30 558 O 102.189 8.73148 -1.23936 0
M  V30 559 O 101.649 7.66872 0.971405 0
M  V30 560 C 100.709 7.42309 2.04641 0
M  V30 561 C 101.439 6.86059 3.24661 0
M  V30 562 O 101.649 5.42847 3.03646 0
M  V30 563 C 102.839 7.41196 3.50753 0
M  V30 564 O 103.229 7.27073 4.86816 0
M  V30 565 C 103.719 6.5273 2.63741 0
M  V30 566 C 103.009 5.1842 2.73198 0
M  V30 567 N 103.059 4.38762 1.4784 0
M  V30 568 H 100.22 8.36803 2.32493 0
M  V30 569 H 99.9504 6.70197 1.71129 0
M  V30 570 H 100.817 7.03551 4.13168 0
M  V30 571 P 104.779 7.20834 5.23717 0
M  V30 572 O 104.999 7.79853 6.57286 0
M  V30 573 O 105.569 7.79239 4.12957 0
M  V30 574 O 105.029 5.63315 5.29344 0
M  V30 575 C 104.089 4.80255 6.01876 0
M  V30 576 C 104.819 3.64202 6.65911 0
M  V30 577 O 105.029 2.60694 5.64732 0
M  V30 578 C 106.219 3.93473 7.1943 0
M  V30 579 O 106.609 3.02071 8.21205 0
M  V30 580 C 107.099 3.73047 5.97036 0
M  V30 581 C 106.389 2.58828 5.25741 0
M  V30 582 N 106.439 2.68068 3.77503 0
M  V30 583 H 103.6 5.40332 6.79951 0
M  V30 584 H 103.33 4.41613 5.32378 0
M  V30 585 H 104.197 3.26331 7.47797 0
M  V30 586 P 108.159 2.75334 8.47391 0
M  V30 587 O 108.379 2.44571 9.90142 0
M  V30 588 O 108.949 3.87688 7.92115 0
M  V30 589 O 108.409 1.4459 7.59357 0
M  V30 590 C 107.469 0.347608 7.69215 0
M  V30 591 C 108.199 -0.96767 7.52806 0
M  V30 592 O 108.409 -1.21036 6.1011 0
M  V30 593 C 109.599 -1.04544 8.13308 0
M  V30 594 O 109.989 -2.38311 8.41922 0
M  V30 595 C 110.479 -0.491279 7.02284 0
M  V30 596 C 109.769 -0.996264 5.77469 0
M  V30 597 N 109.819 -0.0501916 4.62973 0
M  V30 598 H 106.98 0.374722 8.67691 0
M  V30 599 H 106.71 0.443485 6.90277 0
M  V30 600 H 107.577 -1.75537 7.96793 0
M  V30 601 P 111.539 -2.75334 8.47391 0
M  V30 602 O 111.759 -3.84128 9.44797 0
M  V30 603 O 112.329 -1.51947 8.68712 0
M  V30 604 O 111.789 -3.29363 6.99321 0
M  V30 605 C 110.849 -4.24011 6.4274 0
M  V30 606 C 111.579 -5.20775 5.52155 0
M  V30 607 O 111.789 -4.56534 4.22446 0
M  V30 608 C 112.979 -5.62629 5.96531 0
M  V30 609 O 113.369 -6.87667 5.41053 0
M  V30 610 C 113.859 -4.52537 5.39283 0
M  V30 611 C 113.149 -4.20027 4.08623 0
M  V30 612 N 113.199 -2.76189 3.71603 0
M  V30 613 H 110.36 -4.797 7.24003 0
M  V30 614 H 110.09 -3.69856 5.84513 0
M  V30 615 H 110.957 -6.10356 5.41441 0
M  V30 616 P 114.919 -7.20834 5.23717 0
M  V30 617 O 115.139 -8.66104 5.38572 0
M  V30 618 O 115.709 -6.33544 6.1349 0
M  V30 619 O 115.169 -6.7751 3.72168 0
M  V30 620 C 114.229 -7.20825 2.7076 0
M  V30 621 C 114.959 -7.45864 1.40599 0
M  V30 622 O 115.169 -6.17651 0.734225 0
M  V30 623 C 116.359 -8.05808 1.51899 0
M  V30 624 O 116.749 -8.74358 0.335205 0
M  V30 625 C 117.239 -6.83093 1.70294 0
M  V30 626 C 116.529 -5.79992 0.836974 0
M  V30 627 N 116.579 -4.41864 1.38293 0
M  V30 628 H 113.74 -8.13644 3.0377 0
M  V30 629 H 113.47 -6.42788 2.55485 0
M  V30 630 H 114.337 -8.12039 0.792769 0
M  V30 631 P 118.299 -8.91 7.63812e-15 0
M  V30 632 O 118.519 -10.1726 -0.733694 0
M  V30 633 O 119.089 -8.73148 1.23936 0
M  V30 634 O 118.549 -7.66872 -0.971405 0
M  V30 635 C 117.609 -7.42309 -2.04641 0
M  V30 636 C 118.339 -6.86059 -3.24661 0
M  V30 637 O 118.549 -5.42847 -3.03646 0
M  V30 638 C 119.739 -7.41196 -3.50753 0
M  V30 639 O 120.129 -7.27073 -4.86816 0
M  V30 640 C 120.619 -6.5273 -2.63741 0
M  V30 641 C 119.909 -5.1842 -2.73198 0
M  V30 642 N 119.959 -4.38762 -1.4784 0
M  V30 643 H 117.12 -8.36803 -2.32493 0
M  V30 644 H 116.85 -6.70197 -1.71129 0
M  V30 645 H 117.717 -7.03551 -4.13168 0
M  V30 646 P 121.679 -7.20834 -5.23717 0
M  V30 647 O 121.899 -7.79853 -6.57286 0
M  V30 648 O 122.469 -7.79239 -4.12957 0
M  V30 649 O 121.929 -5.63315 -5.29344 0
M  V30 650 C 120.989 -4.80255 -6.01876 0
M  V30 651 C 121.719 -3.64202 -6.65911 0
M  V30 652 O 121.929 -2.60694 -5.64732 0
M  V30 653 C 123.119 -3.93473 -7.1943 0
M  V30 654 O 123.509 -3.02071 -8.21205 0
M  V30 655 C 123.999 -3.73047 -5.97036 0
M  V30 656 C 123.289 -2.58828 -5.25741 0
M  V30 657 N 123.339 -2.68068 -3.77503 0
M  V30 658 H 120.5 -5.40332 -6.79951 0
M  V30 659 H 120.23 -4.41613 -5.32378 0
M  V30 660 H 121.097 -3.26331 -7.47797 0
M  V30 661 P 125.059 -2.75334 -8.47391 0
M  V30 662 O 125.279 -2.44571 -9.90142 0
M  V30 663 O 125.849 -3.87688 -7.92115 0
M  V30 664 O 125.309 -1.4459 -7.59357 0
M  V30 665 C 124.369 -0.347608 -7.69215 0
M  V30 666 C 125.099 0.96767 -7.52806 0
M  V30 667 O 125.309 1.21036 -6.1011 0
M  V30 668 C 126.499 1.04544 -8.13308 0
M  V30 669 O 126.889 2.38311 -8.41922 0
M  V30 670 C 127.379 0.491279 -7.02284 0
M  V30 671 C 126.669 0.996264 -5.77469 0
M  V30 672 N 126.719 0.0501916 -4.62973 0
M  V30 673 H 123.88 -0.374722 -8.67691 0
M  V30 674 H 123.61 -0.443485 -6.90277 0
M  V30 675 H 124.477 1.75537 -7.96793 0
M  V30 676 P 128.439 2.75334 -8.47391 0
M  V30 677 O 128.659 3.84128 -9.44797 0
M  V30 678 O 129.229 1.51947 -8.68712 0
M  V30 679 O 128.689 3.29363 -6.99321 0
M  V30 680 C 127.749 4.24011 -6.4274 0
M  V30 681 C 128.479 5.20775 -5.52155 0
M  V30 682 O 128.689 4.56534 -4.22446 0
M  V30 683 C 129.879 5.62629 -5.96531 0
M  V30 684 O 130.269 6.87667 -5.41053 0
M  V30 685 C 130.759 4.52537 -5.39283 0
M  V30 686 C 130.049 4.20027 -4.08623 0
M  V30 687 N 130.099 2.76189 -3.71603 0
M  V30 688 H 127.26 4.797 -7.24003 0
M  V30 689 H 126.99 3.69856 -5.84513 0
M  V30 690 H 127.857 6.10356 -5.41441 0
M  V30 691 P 131.819 7.20834 -5.23717 0
M  V30 692 O 132.039 8.66274 -5.38678 0
M  V30 693 O 132.609 6.33687 -6.13629 0
M  V30 694 O 132.069 6.7751 -3.72168 0
M  V30 695 C 131.129 7.20919 -2.70795 0
M  V30 696 C 131.859 7.45864 -1.40599 0
M  V30 697 O 132.069 6.17751 -0.734343 0
M  V30 698 C 133.259 8.05906 -1.51917 0
M  V30 699 O 133.649 8.74358 -0.335205 0
M  V30 700 C 134.139 6.83093 -1.70294 0
M  V30 701 C 133.429 5.79992 -0.836974 0
M  V30 702 N 133.479 4.41864 -1.38293 0
M  V30 703 C 133.399 4.02089 -2.69407 0
M  V30 704 N 133.469 2.73403 -2.85089 0
M  V30 705 C 133.619 2.25086 -1.5642 0
M  V30 706 C 133.749 0.942887 -1.04836 0
M  V30 707 N 133.759 -0.150999 -1.80369 0
M  V30 708 N 133.869 0.812565 0.28167 0
M  V30 709 C 133.859 1.90572 1.03784 0
M  V30 710 N 133.739 3.167 0.683905 0
M  V30 711 C 133.619 3.26538 -0.652815 0
M  V30 712 H 130.641 8.13738 -3.03804 0
M  V30 713 H 130.369 6.42974 -2.55559 0
M  V30 714 H 131.237 8.12139 -0.792866 0
M  V30 715 H 133.892 5.80178 0.160643 0
M  V30 716 H 134.172 6.51379 -2.75643 0
M  V30 717 H 135.163 7.01832 -1.3448 0
M  V30 718 H 133.329 8.73771 -2.38364 0
M  V30 719 H 133.288 4.7189 -3.52311 0
M  V30 720 H 133.669 -0.0721434 -2.82608 0
M  V30 721 H 133.858 -1.0785 -1.36544 0
M  V30 722 H 133.966 1.73207 2.10241 0
M  V30 723 P 135.199 8.91 -8.72928e-15 0
M  V30 724 O 135.419 10.1726 0.733694 0
M  V30 725 O 135.989 8.73148 -1.23936 0
M  V30 726 O 135.449 7.66872 0.971405 0
M  V30 727 C 134.509 7.42309 2.04641 0
M  V30 728 C 135.239 6.86059 3.24661 0
M  V30 729 O 135.449 5.42847 3.03646 0
M  V30 730 C 136.639 7.41196 3.50753 0
M  V30 731 O 137.029 7.27073 4.86816 0
M  V30 732 C 137.519 6.5273 2.63741 0
M  V30 733 C 136.809 5.1842 2.73198 0
M  V30 734 N 136.859 4.38762 1.4784 0
M  V30 735 H 134.02 8.36803 2.32493 0
M  V30 736 H 133.75 6.70197 1.71129 0
M  V30 737 H 134.617 7.03551 4.13168 0
M  V30 738 P 138.579 7.20834 5.23717 0
M  V30 739 O 138.799 7.79853 6.57286 0
M  V30 740 O 139.369 7.79239 4.12957 0
M  V30 741 O 138.829 5.63315 5.29344 0
M  V30 742 C 137.889 4.80255 6.01876 0
M  V30 743 C 138.619 3.64202 6.65911 0
M  V30 744 O 138.829 2.60694 5.64732 0
M  V30 745 C 140.019 3.93473 7.1943 0
M  V30 746 O 140.409 3.02071 8.21205 0
M  V30 747 C 140.899 3.73047 5.97036 0
M  V30 748 C 140.189 2.58828 5.25741 0
M  V30 749 N 140.239 2.68068 3.77503 0
M  V30 750 H 137.4 5.40332 6.79951 0
M  V30 751 H 137.13 4.41613 5.32378 0
M  V30 752 H 137.997 3.26331 7.47797 0
M  V30 753 P 141.959 2.75334 8.47391 0
M  V30 754 O 142.179 2.44619 9.90336 0
M  V30 755 O 142.749 3.87776 7.92294 0
M  V30 756 O 142.209 1.4459 7.59357 0
M  V30 757 C 141.269 0.347653 7.69315 0
M  V30 758 C 141.999 -0.96767 7.52806 0
M  V30 759 O 142.209 -1.21055 6.10208 0
M  V30 760 C 143.399 -1.04557 8.13408 0
M  V30 761 O 143.789 -2.38311 8.41922 0
M  V30 762 C 144.279 -0.491279 7.02284 0
M  V30 763 C 143.569 -0.996264 5.77469 0
M  V30 764 N 143.619 -0.0501916 4.62973 0
M  V30 765 C 143.539 1.31969 4.65661 0
M  V30 766 N 143.609 1.86649 3.48119 0
M  V30 767 C 143.759 0.792089 2.62406 0
M  V30 768 C 143.889 0.705684 1.2207 0
M  V30 769 N 143.899 1.76207 0.413762 0
M  V30 770 N 144.009 -0.518981 0.685754 0
M  V30 771 C 143.999 -1.57595 1.49174 0
M  V30 772 N 143.879 -1.62909 2.80066 0
M  V30 773 C 143.759 -0.388195 3.3073 0
M  V30 774 H 140.781 0.374765 8.67791 0
M  V30 775 H 140.509 0.443613 6.90476 0
M  V30 776 H 141.377 -1.75559 7.96891 0
M  V30 777 H 144.032 -1.94563 5.46818 0
M  V30 778 H 144.312 0.608651 7.04676 0
M  V30 779 H 145.303 -0.889796 7.09039 0
M  V30 780 H 143.469 -0.433128 9.04664 0
M  V30 781 H 143.428 1.89246 5.57664 0
M  V30 782 H 143.809 2.71005 0.804694 0
M  V30 783 H 143.998 1.63189 -0.603768 0
M  V30 784 H 144.106 -2.53475 0.997614 0
M  V30 785 P 145.339 -2.75334 8.47391 0
M  V30 786 O 145.559 -3.84204 9.44982 0
M  V30 787 O 146.129 -1.51982 8.68909 0
M  V30 788 O 145.589 -3.29363 6.99321 0
M  V30 789 C 144.649 -4.24066 6.42823 0
M  V30 790 C 145.379 -5.20775 5.52155 0
M  V30 791 O 145.589 -4.56607 4.22514 0
M  V30 792 C 146.779 -5.62697 5.96604 0
M  V30 793 O 147.169 -6.87667 5.41053 0
M  V30 794 C 147.659 -4.52537 5.39283 0
M  V30 795 C 146.949 -4.20027 4.08623 0
M  V30 796 N 146.999 -2.76189 3.71603 0
M  V30 797 C 146.919 -1.66944 4.54297 0
M  V30 798 N 146.989 -0.536169 3.91344 0
M  V30 799 C 147.139 -0.901569 2.58849 0
M  V30 800 C 147.269 -0.146599 1.40236 0
M  V30 801 N 147.279 1.18234 1.37046 0
M  V30 802 N 147.389 -0.822941 0.249738 0
M  V30 803 C 147.379 -2.15179 0.280525 0
M  V30 804 N 147.259 -2.96414 1.30822 0
M  V30 805 C 147.139 -2.25804 2.44748 0
M  V30 806 H 144.161 -4.79756 7.24086 0
M  V30 807 H 143.889 -3.69963 5.84682 0
M  V30 808 H 144.757 -6.10431 5.41508 0
M  V30 809 H 147.412 -4.78816 3.28024 0
M  V30 810 H 147.692 -3.64957 6.05871 0
M  V30 811 H 148.683 -4.88748 5.21323 0
M  V30 812 H 146.849 -5.66789 7.0643 0
M  V30 813 H 146.808 -1.74684 5.62396 0
M  V30 814 H 147.189 1.71949 2.24394 0
M  V30 815 H 147.378 1.67511 0.470742 0
M  V30 816 H 147.486 -2.63704 -0.6828 0
M  V30 817 P 148.719 -7.20834 5.23717 0
M  V30 818 O 148.939 -8.66104 5.38572 0
M  V30 819 O 149.509 -6.33544 6.1349 0
M  V30 820 O 148.969 -6.7751 3.72168 0
M  V30 821 C 148.029 -7.20825 2.7076 0
M  V30 822 C 148.759 -7.45864 1.40599 0
M  V30 823 O 148.969 -6.17651 0.734225 0
M  V30 824 C 150.159 -8.05808 1.51899 0
M  V30 825 O 150.549 -8.74358 0.335205 0
M  V30 826 C 151.039 -6.83093 1.70294 0
M  V30 827 C 150.329 -5.79992 0.836974 0
M  V30 828 N 150.379 -4.41864 1.38293 0
M  V30 829 H 147.54 -8.13644 3.0377 0
M  V30 830 H 147.27 -6.42788 2.55485 0
M  V30 831 H 148.137 -8.12039 0.792769 0
M  V30 832 P 152.099 -8.91 9.82044e-15 0
M  V30 833 O 152.319 -10.1746 -0.733838 0
M  V30 834 O 152.889 -8.73346 1.23964 0
M  V30 835 O 152.349 -7.66872 -0.971405 0
M  V30 836 C 151.409 -7.42405 -2.04668 0
M  V30 837 C 152.139 -6.86059 -3.24661 0
M  V30 838 O 152.349 -5.42934 -3.03695 0
M  V30 839 C 153.539 -7.41287 -3.50796 0
M  V30 840 O 153.929 -7.27073 -4.86816 0
M  V30 841 C 154.419 -6.5273 -2.63741 0
M  V30 842 C 153.709 -5.1842 -2.73198 0
M  V30 843 N 153.759 -4.38762 -1.4784 0
M  V30 844 H 150.921 -8.36899 -2.3252 0
M  V30 845 H 150.649 -6.70391 -1.71179 0
M  V30 846 H 151.517 -7.03638 -4.13219 0
M  V30 847 H 154.172 -4.59931 -3.54016 0
M  V30 848 H 154.452 -6.88995 -1.59871 0
M  V30 849 H 155.443 -6.4684 -3.0373 0
M  V30 850 H 153.609 -8.47002 -3.20749 0
M  V30 851 P 155.479 -7.20834 -5.23717 0
M  V30 852 O 155.699 -7.79853 -6.57286 0
M  V30 853 O 156.269 -7.79239 -4.12957 0
M  V30 854 O 155.729 -5.63315 -5.29344 0
M  V30 855 C 154.789 -4.80255 -6.01876 0
M  V30 856 C 155.519 -3.64202 -6.65911 0
M  V30 857 O 155.729 -2.60694 -5.64732 0
M  V30 858 C 156.919 -3.93473 -7.1943 0
M  V30 859 O 157.309 -3.02071 -8.21205 0
M  V30 860 C 157.799 -3.73047 -5.97036 0
M  V30 861 C 157.089 -2.58828 -5.25741 0
M  V30 862 N 157.139 -2.68068 -3.77503 0
M  V30 863 C 157.059 -3.79715 -2.96723 0
M  V30 864 N 157.139 -3.5377 -1.68852 0
M  V30 865 C 157.279 -2.15054 -1.63254 0
M  V30 866 C 157.409 -1.28964 -0.518571 0
M  V30 867 N 157.529 0.0538097 -0.918425 0
M  V30 868 C 157.529 0.494275 -2.22578 0
M  V30 869 N 157.659 1.81086 -2.40434 0
M  V30 870 N 157.399 -0.313645 -3.27502 0
M  V30 871 C 157.279 -1.61829 -2.91033 0
M  V30 872 H 154.3 -5.40332 -6.79951 0
M  V30 873 H 154.03 -4.41613 -5.32378 0
M  V30 874 H 154.897 -3.26331 -7.47797 0
M  V30 875 P 158.859 -2.75334 -8.47391 0
M  V30 876 O 159.079 -2.44571 -9.90142 0
M  V30 877 O 159.649 -3.87688 -7.92115 0
M  V30 878 O 159.109 -1.4459 -7.59357 0
M  V30 879 C 158.169 -0.347608 -7.69215 0
M  V30 880 C 158.899 0.96767 -7.52806 0
M  V30 881 O 159.109 1.21036 -6.1011 0
M  V30 882 C 160.299 1.04544 -8.13308 0
M  V30 883 O 160.689 2.38311 -8.41922 0
M  V30 884 C 161.179 0.491279 -7.02284 0
M  V30 885 C 160.469 0.996264 -5.77469 0
M  V30 886 N 160.519 0.0501916 -4.62973 0
M  V30 887 C 160.439 -1.32786 -4.63244 0
M  V30 888 N 160.519 -1.86957 -3.44545 0
M  V30 889 C 160.659 -0.780241 -2.58481 0
M  V30 890 C 160.789 -0.738536 -1.17757 0
M  V30 891 O 160.809 -1.66794 -0.372349 0
M  V30 892 N 160.909 0.58337 -0.711393 0
M  V30 893 C 160.909 1.70816 -1.51017 0
M  V30 894 N 161.039 2.87826 -0.880757 0
M  V30 895 N 160.779 1.67126 -2.8339 0
M  V30 896 C 160.659 0.401421 -3.30572 0
M  V30 897 H 157.68 -0.374722 -8.67691 0
M  V30 898 H 157.41 -0.443485 -6.90277 0
M  V30 899 H 158.277 1.75537 -7.96793 0
M  V30 900 H 160.932 1.95076 -5.46529 0
M  V30 901 H 161.211 -0.608565 -7.04577 0
M  V30 902 H 162.203 0.889672 -7.08939 0
M  V30 903 H 160.369 0.43308 -9.04564 0
M  V30 904 H 160.32 -1.91249 -5.54442 0
M  V30 905 H 161.002 0.718054 0.275244 0
M  V30 906 H 161.039 3.75721 -1.41832 0
M  V30 907 H 161.14 2.90436 0.145468 0
M  V30 908 P 162.239 2.75334 -8.47391 0
M  V30 909 O 162.459 3.84128 -9.44797 0
M  V30 910 O 163.029 1.51947 -8.68712 0
M  V30 911 O 162.489 3.29363 -6.99321 0
M  V30 912 C 161.549 4.24011 -6.4274 0
M  V30 913 C 162.279 5.20775 -5.52155 0
M  V30 914 O 162.489 4.56534 -4.22446 0
M  V30 915 C 163.679 5.62629 -5.96531 0
M  V30 916 O 164.069 6.87667 -5.41053 0
M  V30 917 C 164.559 4.52537 -5.39283 0
M  V30 918 C 163.849 4.20027 -4.08623 0
M  V30 919 N 163.899 2.76189 -3.71603 0
M  V30 920 H 161.06 4.797 -7.24003 0
M  V30 921 H 160.79 3.69856 -5.84513 0
M  V30 922 H 161.657 6.10356 -5.41441 0
M  V30 923 P 165.619 7.20834 -5.23717 0
M  V30 924 O 165.839 8.66104 -5.38572 0
M  V30 925 O 166.409 6.33544 -6.1349 0
M  V30 926 O 165.869 6.7751 -3.72168 0
M  V30 927 C 164.929 7.20825 -2.7076 0
M  V30 928 C 165.659 7.45864 -1.40599 0
M  V30 929 O 165.869 6.17651 -0.734225 0
M  V30 930 C 167.059 8.05808 -1.51899 0
M  V30 931 O 167.449 8.74358 -0.335205 0
M  V30 932 C 167.939 6.83093 -1.70294 0
M  V30 933 C 167.229 5.79992 -0.836974 0
M  V30 934 N 167.279 4.41864 -1.38293 0
M  V30 935 H 164.44 8.13644 -3.0377 0
M  V30 936 H 164.17 6.42788 -2.55485 0
M  V30 937 H 165.037 8.12039 -0.792769 0
M  V30 938 P 168.999 8.91 -1.09116e-14 0
M  V30 939 O 169.219 10.1726 0.733694 0
M  V30 940 O 169.789 8.73148 -1.23936 0
M  V30 941 O 169.249 7.66872 0.971405 0
M  V30 942 C 168.309 7.42309 2.04641 0
M  V30 943 C 169.039 6.86059 3.24661 0
M  V30 944 O 169.249 5.42847 3.03646 0
M  V30 945 C 170.439 7.41196 3.50753 0
M  V30 946 O 170.829 7.27073 4.86816 0
M  V30 947 C 171.319 6.5273 2.63741 0
M  V30 948 C 170.609 5.1842 2.73198 0
M  V30 949 N 170.659 4.38762 1.4784 0
M  V30 950 H 167.82 8.36803 2.32493 0
M  V30 951 H 167.55 6.70197 1.71129 0
M  V30 952 H 168.417 7.03551 4.13168 0
M  V30 953 P 172.379 7.20834 5.23717 0
M  V30 954 O 172.599 7.79853 6.57286 0
M  V30 955 O 173.169 7.79239 4.12957 0
M  V30 956 O 172.629 5.63315 5.29344 0
M  V30 957 C 171.689 4.80255 6.01876 0
M  V30 958 C 172.419 3.64202 6.65911 0
M  V30 959 O 172.629 2.60694 5.64732 0
M  V30 960 C 173.819 3.93473 7.1943 0
M  V30 961 O 174.209 3.02071 8.21205 0
M  V30 962 C 174.699 3.73047 5.97036 0
M  V30 963 C 173.989 2.58828 5.25741 0
M  V30 964 N 174.039 2.68068 3.77503 0
M  V30 965 H 171.2 5.40332 6.79951 0
M  V30 966 H 170.93 4.41613 5.32378 0
M  V30 967 H 171.797 3.26331 7.47797 0
M  V30 968 P 175.759 2.75334 8.47391 0
M  V30 969 O 175.979 2.44619 9.90336 0
M  V30 970 O 176.549 3.87776 7.92294 0
M  V30 971 O 176.009 1.4459 7.59357 0
M  V30 972 C 175.069 0.347653 7.69315 0
M  V30 973 C 175.799 -0.96767 7.52806 0
M  V30 974 O 176.009 -1.21055 6.10208 0
M  V30 975 C 177.199 -1.04557 8.13408 0
M  V30 976 O 177.589 -2.38311 8.41922 0
M  V30 977 C 178.079 -0.491279 7.02284 0
M  V30 978 C 177.369 -0.996264 5.77469 0
M  V30 979 N 177.419 -0.0501916 4.62973 0
M  V30 980 H 174.581 0.374765 8.67791 0
M  V30 981 H 174.309 0.443613 6.90476 0
M  V30 982 H 175.177 -1.75559 7.96891 0
M  V30 983 H 177.832 -1.94563 5.46818 0
M  V30 984 H 178.112 0.608651 7.04676 0
M  V30 985 H 179.103 -0.889796 7.09039 0
M  V30 986 H 177.269 -0.433128 9.04664 0
M  V30 987 P 179.139 -2.75334 8.47391 0
M  V30 988 O 179.359 -3.84128 9.44797 0
M  V30 989 O 179.929 -1.51947 8.68712 0
M  V30 990 O 179.389 -3.29363 6.99321 0
M  V30 991 C 178.449 -4.24011 6.4274 0
M  V30 992 C 179.179 -5.20775 5.52155 0
M  V30 993 O 179.389 -4.56534 4.22446 0
M  V30 994 C 180.579 -5.62629 5.96531 0
M  V30 995 O 180.969 -6.87667 5.41053 0
M  V30 996 C 181.459 -4.52537 5.39283 0
M  V30 997 C 180.749 -4.20027 4.08623 0
M  V30 998 N 180.799 -2.76189 3.71603 0
M  V30 999 H 177.96 -4.797 7.24003 0
M  V30 1000 H 177.69 -3.69856 5.84513 0
M  V30 1001 H 178.557 -6.10356 5.41441 0
M  V30 1002 P 182.519 -7.20834 5.23717 0
M  V30 1003 O 182.739 -8.66104 5.38572 0
M  V30 1004 O 183.309 -6.33544 6.1349 0
M  V30 1005 O 182.769 -6.7751 3.72168 0
M  V30 1006 C 181.829 -7.20825 2.7076 0
M  V30 1007 C 182.559 -7.45864 1.40599 0
M  V30 1008 O 182.769 -6.17651 0.734225 0
M  V30 1009 C 183.959 -8.05808 1.51899 0
M  V30 1010 O 184.349 -8.74358 0.335205 0
M  V30 1011 C 184.839 -6.83093 1.70294 0
M  V30 1012 C 184.129 -5.79992 0.836974 0
M  V30 1013 N 184.179 -4.41864 1.38293 0
M  V30 1014 H 181.34 -8.13644 3.0377 0
M  V30 1015 H 181.07 -6.42788 2.55485 0
M  V30 1016 H 181.937 -8.12039 0.792769 0
M  V30 1017 P 185.899 -8.91 -8.29613e-14 0
M  V30 1018 O 186.119 -10.1726 -0.733694 0
M  V30 1019 O 186.689 -8.73148 1.23936 0
M  V30 1020 O 186.149 -7.66872 -0.971405 0
M  V30 1021 C 185.209 -7.42309 -2.04641 0
M  V30 1022 C 185.939 -6.86059 -3.24661 0
M  V30 1023 O 186.149 -5.42847 -3.03646 0
M  V30 1024 C 187.339 -7.41196 -3.50753 0
M  V30 1025 O 187.729 -7.27073 -4.86816 0
M  V30 1026 C 188.219 -6.5273 -2.63741 0
M  V30 1027 C 187.509 -5.1842 -2.73198 0
M  V30 1028 N 187.559 -4.38762 -1.4784 0
M  V30 1029 H 184.72 -8.36803 -2.32493 0
M  V30 1030 H 184.45 -6.70197 -1.71129 0
M  V30 1031 H 185.317 -7.03551 -4.13168 0
M  V30 1032 P 189.279 -7.20834 -5.23717 0
M  V30 1033 O 189.499 -7.80006 -6.57415 0
M  V30 1034 O 190.069 -7.79416 -4.13051 0
M  V30 1035 O 189.529 -5.63315 -5.29344 0
M  V30 1036 C 188.589 -4.80318 -6.01954 0
M  V30 1037 C 189.319 -3.64202 -6.65911 0
M  V30 1038 O 189.529 -2.60736 -5.64823 0
M  V30 1039 C 190.719 -3.93521 -7.19518 0
M  V30 1040 O 191.109 -3.02071 -8.21205 0
M  V30 1041 C 191.599 -3.73047 -5.97036 0
M  V30 1042 C 190.889 -2.58828 -5.25741 0
M  V30 1043 N 190.939 -2.68068 -3.77503 0
M  V30 1044 C 190.859 -3.80474 -2.99159 0
M  V30 1045 N 190.929 -3.55622 -1.71925 0
M  V30 1046 C 191.079 -2.1832 -1.65733 0
M  V30 1047 C 191.209 -1.28842 -0.572777 0
M  V30 1048 N 191.219 -1.66875 0.70098 0
M  V30 1049 N 191.329 0.016788 -0.859836 0
M  V30 1050 C 191.319 0.398145 -2.13316 0
M  V30 1051 N 191.199 -0.328224 -3.22333 0
M  V30 1052 C 191.079 -1.62992 -2.90383 0
M  V30 1053 H 188.101 -5.40394 -6.8003 0
M  V30 1054 H 187.829 -4.41741 -5.32532 0
M  V30 1055 H 188.697 -3.26371 -7.47889 0
M  V30 1056 H 191.352 -1.64007 -5.56746 0
M  V30 1057 H 191.632 -4.63439 -5.3432 0
M  V30 1058 H 192.623 -3.44776 -6.25925 0
M  V30 1059 H 190.789 -4.96707 -7.57347 0
M  V30 1060 H 190.748 -4.8089 -3.39924 0
M  V30 1061 H 191.129 -2.66547 0.941919 0
M  V30 1062 H 191.318 -0.965341 1.44766 0
M  V30 1063 H 191.426 1.46427 -2.29697 0
M  V30 1064 P 192.659 -2.75334 -8.47391 0
M  V30 1065 O 192.879 -2.44571 -9.90142 0
M  V30 1066 O 193.449 -3.87688 -7.92115 0
M  V30 1067 O 192.909 -1.4459 -7.59357 0
M  V30 1068 C 191.969 -0.347608 -7.69215 0
M  V30 1069 C 192.699 0.96767 -7.52806 0
M  V30 1070 O 192.909 1.21036 -6.1011 0
M  V30 1071 C 194.099 1.04544 -8.13308 0
M  V30 1072 O 194.489 2.38311 -8.41922 0
M  V30 1073 C 194.979 0.491279 -7.02284 0
M  V30 1074 C 194.269 0.996264 -5.77469 0
M  V30 1075 N 194.319 0.0501916 -4.62973 0
M  V30 1076 C 194.239 -1.32786 -4.63244 0
M  V30 1077 N 194.319 -1.86957 -3.44545 0
M  V30 1078 C 194.459 -0.780241 -2.58481 0
M  V30 1079 C 194.589 -0.738536 -1.17757 0
M  V30 1080 O 194.609 -1.66794 -0.372349 0
M  V30 1081 N 194.709 0.58337 -0.711393 0
M  V30 1082 C 194.709 1.70816 -1.51017 0
M  V30 1083 N 194.839 2.87826 -0.880757 0
M  V30 1084 N 194.579 1.67126 -2.8339 0
M  V30 1085 C 194.459 0.401421 -3.30572 0
M  V30 1086 H 191.48 -0.374722 -8.67691 0
M  V30 1087 H 191.21 -0.443485 -6.90277 0
M  V30 1088 H 192.077 1.75537 -7.96793 0
M  V30 1089 H 194.732 1.95076 -5.46529 0
M  V30 1090 H 195.011 -0.608565 -7.04577 0
M  V30 1091 H 196.003 0.889672 -7.08939 0
M  V30 1092 H 194.169 0.43308 -9.04564 0
M  V30 1093 H 194.12 -1.91249 -5.54442 0
M  V30 1094 H 194.802 0.718054 0.275244 0
M  V30 1095 H 194.839 3.75721 -1.41832 0
M  V30 1096 H 194.94 2.90436 0.145468 0
M  V30 1097 P 196.039 2.75334 -8.47391 0
M  V30 1098 O 196.259 3.84128 -9.44797 0
M  V30 1099 O 196.829 1.51947 -8.68712 0
M  V30 1100 O 196.289 3.29363 -6.99321 0
M  V30 1101 C 195.349 4.24011 -6.4274 0
M  V30 1102 C 196.079 5.20775 -5.52155 0
M  V30 1103 O 196.289 4.56534 -4.22446 0
M  V30 1104 C 197.479 5.62629 -5.96531 0
M  V30 1105 O 197.869 6.87667 -5.41053 0
M  V30 1106 C 198.359 4.52537 -5.39283 0
M  V30 1107 C 197.649 4.20027 -4.08623 0
M  V30 1108 N 197.699 2.76189 -3.71603 0
M  V30 1109 H 194.86 4.797 -7.24003 0
M  V30 1110 H 194.59 3.69856 -5.84513 0
M  V30 1111 H 195.457 6.10356 -5.41441 0
M  V30 1112 P 199.419 7.20834 -5.23717 0
M  V30 1113 O 199.639 8.66104 -5.38572 0
M  V30 1114 O 200.209 6.33544 -6.1349 0
M  V30 1115 O 199.669 6.7751 -3.72168 0
M  V30 1116 C 198.729 7.20825 -2.7076 0
M  V30 1117 C 199.459 7.45864 -1.40599 0
M  V30 1118 O 199.669 6.17651 -0.734225 0
M  V30 1119 C 200.859 8.05808 -1.51899 0
M  V30 1120 O 201.249 8.74358 -0.335205 0
M  V30 1121 C 201.739 6.83093 -1.70294 0
M  V30 1122 C 201.029 5.79992 -0.836974 0
M  V30 1123 N 201.079 4.41864 -1.38293 0
M  V30 1124 H 198.24 8.13644 -3.0377 0
M  V30 1125 H 197.97 6.42788 -2.55485 0
M  V30 1126 H 198.837 8.12039 -0.792769 0
M  V30 1127 P 202.799 8.91 2.40144e-13 0
M  V30 1128 O 203.019 10.1726 0.733694 0
M  V30 1129 O 203.589 8.73148 -1.23936 0
M  V30 1130 O 203.049 7.66872 0.971405 0
M  V30 1131 C 202.109 7.42309 2.04641 0
M  V30 1132 C 202.839 6.86059 3.24661 0
M  V30 1133 O 203.049 5.42847 3.03646 0
M  V30 1134 C 204.239 7.41196 3.50753 0
M  V30 1135 O 204.629 7.27073 4.86816 0
M  V30 1136 C 205.119 6.5273 2.63741 0
M  V30 1137 C 204.409 5.1842 2.73198 0
M  V30 1138 N 204.459 4.38762 1.4784 0
M  V30 1139 C 204.379 4.81605 0.168631 0
M  V30 1140 N 204.459 3.85454 -0.713363 0
M  V30 1141 C 204.599 2.6994 0.0566958 0
M  V30 1142 C 204.729 1.34815 -0.338502 0
M  V30 1143 O 204.749 0.869548 -1.47125 0
M  V30 1144 N 204.849 0.496304 0.77465 0
M  V30 1145 C 204.849 0.908403 2.09122 0
M  V30 1146 N 204.979 -0.0517805 3.00955 0
M  V30 1147 N 204.719 2.17875 2.46519 0
M  V30 1148 C 204.599 3.01988 1.4033 0
M  V30 1149 H 201.62 8.36803 2.32493 0
M  V30 1150 H 201.35 6.70197 1.71129 0
M  V30 1151 H 202.217 7.03551 4.13168 0
M  V30 1152 H 204.872 4.59498 3.54415 0
M  V30 1153 H 205.151 6.88898 1.59848 0
M  V30 1154 H 206.143 6.46749 3.03687 0
M  V30 1155 H 204.309 8.46908 3.20714 0
M  V30 1156 H 204.26 5.86405 -0.105564 0
M  V30 1157 H 204.942 -0.483664 0.597855 0
M  V30 1158 H 204.979 0.187865 4.0116 0
M  V30 1159 H 205.08 -1.03585 2.71726 0
M  V30 1160 P 206.179 7.20834 5.23717 0
M  V30 1161 O 206.399 7.79853 6.57286 0
M  V30 1162 O 206.969 7.79239 4.12957 0
M  V30 1163 O 206.429 5.63315 5.29344 0
M  V30 1164 C 205.489 4.80255 6.01876 0
M  V30 1165 C 206.219 3.64202 6.65911 0
M  V30 1166 O 206.429 2.60694 5.64732 0
M  V30 1167 C 207.619 3.93473 7.1943 0
M  V30 1168 O 208.009 3.02071 8.21205 0
M  V30 1169 C 208.499 3.73047 5.97036 0
M  V30 1170 C 207.789 2.58828 5.25741 0
M  V30 1171 N 207.839 2.68068 3.77503 0
M  V30 1172 H 205 5.40332 6.79951 0
M  V30 1173 H 204.73 4.41613 5.32378 0
M  V30 1174 H 205.597 3.26331 7.47797 0
M  V30 1175 P 209.559 2.75334 8.47391 0
M  V30 1176 O 209.779 2.44571 9.90142 0
M  V30 1177 O 210.349 3.87688 7.92115 0
M  V30 1178 O 209.809 1.4459 7.59357 0
M  V30 1179 C 208.869 0.347608 7.69215 0
M  V30 1180 C 209.599 -0.96767 7.52806 0
M  V30 1181 O 209.809 -1.21036 6.1011 0
M  V30 1182 C 210.999 -1.04544 8.13308 0
M  V30 1183 O 211.389 -2.38311 8.41922 0
M  V30 1184 C 211.879 -0.491279 7.02284 0
M  V30 1185 C 211.169 -0.996264 5.77469 0
M  V30 1186 N 211.219 -0.0501916 4.62973 0
M  V30 1187 C 211.139 1.32786 4.63244 0
M  V30 1188 N 211.219 1.86957 3.44545 0
M  V30 1189 C 211.359 0.780241 2.58481 0
M  V30 1190 C 211.489 0.738536 1.17757 0
M  V30 1191 O 211.509 1.66794 0.372349 0
M  V30 1192 N 211.609 -0.58337 0.711393 0
M  V30 1193 C 211.609 -1.70816 1.51017 0
M  V30 1194 N 211.739 -2.87826 0.880757 0
M  V30 1195 N 211.479 -1.67126 2.8339 0
M  V30 1196 C 211.359 -0.401421 3.30572 0
M  V30 1197 H 208.38 0.374722 8.67691 0
M  V30 1198 H 208.11 0.443485 6.90277 0
M  V30 1199 H 208.977 -1.75537 7.96793 0
M  V30 1200 H 211.632 -1.95076 5.46529 0
M  V30 1201 H 211.911 0.608565 7.04577 0
M  V30 1202 H 212.903 -0.889672 7.08939 0
M  V30 1203 H 211.069 -0.43308 9.04564 0
M  V30 1204 H 211.02 1.91249 5.54442 0
M  V30 1205 H 211.702 -0.718054 -0.275244 0
M  V30 1206 H 211.739 -3.75721 1.41832 0
M  V30 1207 H 211.84 -2.90436 -0.145468 0
M  V30 1208 P 212.939 -2.75334 8.47391 0
M  V30 1209 O 213.159 -3.84128 9.44797 0
M  V30 1210 O 213.729 -1.51947 8.68712 0
M  V30 1211 O 213.189 -3.29363 6.99321 0
M  V30 1212 C 212.249 -4.24011 6.4274 0
M  V30 1213 C 212.979 -5.20775 5.52155 0
M  V30 1214 O 213.189 -4.56534 4.22446 0
M  V30 1215 C 214.379 -5.62629 5.96531 0
M  V30 1216 O 214.769 -6.87667 5.41053 0
M  V30 1217 C 215.259 -4.52537 5.39283 0
M  V30 1218 C 214.549 -4.20027 4.08623 0
M  V30 1219 N 214.599 -2.76189 3.71603 0
M  V30 1220 H 211.76 -4.797 7.24003 0
M  V30 1221 H 211.49 -3.69856 5.84513 0
M  V30 1222 H 212.357 -6.10356 5.41441 0
M  V30 1223 P 216.319 -7.20834 5.23717 0
M  V30 1224 O 216.539 -8.66189 5.38625 0
M  V30 1225 O 217.109 -6.33615 6.1356 0
M  V30 1226 O 216.569 -6.7751 3.72168 0
M  V30 1227 C 215.629 -7.20732 2.70725 0
M  V30 1228 C 216.359 -7.45864 1.40599 0
M  V30 1229 O 216.569 -6.17651 0.734225 0
M  V30 1230 C 217.759 -8.05808 1.51899 0
M  V30 1231 O 218.149 -8.74358 0.335205 0
M  V30 1232 C 218.639 -6.83093 1.70294 0
M  V30 1233 C 217.929 -5.79992 0.836974 0
M  V30 1234 N 217.979 -4.41769 1.38263 0
M  V30 1235 C 218.129 -3.38591 0.481702 0
M  V30 1236 O 218.219 -3.56839 -0.718452 0
M  V30 1237 N 218.169 -2.1206 1.03569 0
M  V30 1238 C 218.079 -1.80696 2.36966 0
M  V30 1239 O 218.129 -0.630473 2.74862 0
M  V30 1240 C 217.929 -2.94845 3.23898 0
M  V30 1241 C 217.819 -2.65253 4.70362 0
M  V30 1242 C 217.879 -4.19803 2.73435 0
M  V30 1243 H 215.139 -8.13644 3.0377 0
M  V30 1244 H 214.87 -6.42695 2.55448 0
M  V30 1245 H 215.737 -8.12039 0.792769 0
M  V30 1246 H 218.392 -5.79978 -0.160587 0
M  V30 1247 H 218.671 -6.51379 2.75643 0
M  V30 1248 H 219.663 -7.01734 1.34462 0
M  V30 1249 H 217.829 -8.73674 2.38337 0
M  V30 1250 H 217.758 -5.04492 3.4095 0
M  V30 1251 H 218.788 -2.83924 5.1913 0
M  V30 1252 H 217.051 -3.29824 5.15163 0
M  V30 1253 H 217.539 -1.59723 4.84449 0
M  V30 1254 H 218.275 -1.35644 0.399345 0
M  V30 1255 P 219.699 -8.91 -3.97326e-13 0
M  V30 1256 O 219.919 -10.1736 -0.733766 0
M  V30 1257 O 220.489 -8.73247 1.2395 0
M  V30 1258 O 219.949 -7.66872 -0.971405 0
M  V30 1259 C 219.009 -7.42212 -2.04614 0
M  V30 1260 C 219.739 -6.86059 -3.24661 0
M  V30 1261 O 219.949 -5.42847 -3.03646 0
M  V30 1262 C 221.139 -7.41196 -3.50753 0
M  V30 1263 O 221.529 -7.27073 -4.86816 0
M  V30 1264 C 222.019 -6.5273 -2.63741 0
M  V30 1265 C 221.309 -5.1842 -2.73198 0
M  V30 1266 N 221.359 -4.38668 -1.47808 0
M  V30 1267 C 221.509 -3.02239 -1.60048 0
M  V30 1268 O 221.599 -2.46459 -2.67869 0
M  V30 1269 N 221.549 -2.32436 -0.408571 0
M  V30 1270 C 221.459 -2.85471 0.854993 0
M  V30 1271 O 221.509 -2.12566 1.8531 0
M  V30 1272 C 221.309 -4.28918 0.887335 0
M  V30 1273 C 221.199 -4.91066 2.24619 0
M  V30 1274 C 221.259 -5.00349 -0.255399 0
M  V30 1275 H 218.519 -8.36803 -2.32493 0
M  V30 1276 H 218.25 -6.701 -1.71105 0
M  V30 1277 H 219.117 -7.03551 -4.13168 0
M  V30 1278 H 221.772 -4.59773 -3.53894 0
M  V30 1279 H 222.051 -6.88995 -1.59871 0
M  V30 1280 H 223.043 -6.46749 -3.03687 0
M  V30 1281 H 221.209 -8.46908 -3.20714 0
M  V30 1282 H 221.138 -6.08548 -0.206986 0
M  V30 1283 H 222.168 -5.34836 2.53099 0
M  V30 1284 H 220.431 -5.69638 2.2291 0
M  V30 1285 H 220.919 -4.13971 2.98044 0
M  V30 1286 H 221.655 -1.33211 -0.474216 0
M  V30 1287 P 223.079 -7.20834 -5.23717 0
M  V30 1288 O 223.299 -7.79853 -6.57286 0
M  V30 1289 O 223.869 -7.79239 -4.12957 0
M  V30 1290 O 223.329 -5.63315 -5.29344 0
M  V30 1291 C 222.389 -4.80255 -6.01876 0
M  V30 1292 C 223.119 -3.64202 -6.65911 0
M  V30 1293 O 223.329 -2.60694 -5.64732 0
M  V30 1294 C 224.519 -3.93473 -7.1943 0
M  V30 1295 O 224.909 -3.02071 -8.21205 0
M  V30 1296 C 225.399 -3.73047 -5.97036 0
M  V30 1297 C 224.689 -2.58828 -5.25741 0
M  V30 1298 N 224.739 -2.68068 -3.77503 0
M  V30 1299 H 221.9 -5.40332 -6.79951 0
M  V30 1300 H 221.63 -4.41613 -5.32378 0
M  V30 1301 H 222.497 -3.26331 -7.47797 0
M  V30 1302 P 226.459 -2.75334 -8.47391 0
M  V30 1303 O 226.679 -2.44619 -9.90336 0
M  V30 1304 O 227.249 -3.87776 -7.92294 0
M  V30 1305 O 226.709 -1.4459 -7.59357 0
M  V30 1306 C 225.769 -0.347653 -7.69315 0
M  V30 1307 C 226.499 0.96767 -7.52806 0
M  V30 1308 O 226.709 1.21055 -6.10208 0
M  V30 1309 C 227.899 1.04557 -8.13408 0
M  V30 1310 O 228.289 2.38311 -8.41922 0
M  V30 1311 C 228.779 0.491279 -7.02284 0
M  V30 1312 C 228.069 0.996264 -5.77469 0
M  V30 1313 N 228.119 0.0501916 -4.62973 0
M  V30 1314 C 228.039 -1.31969 -4.65661 0
M  V30 1315 N 228.109 -1.86649 -3.48119 0
M  V30 1316 C 228.259 -0.792089 -2.62406 0
M  V30 1317 C 228.389 -0.705684 -1.2207 0
M  V30 1318 N 228.399 -1.76207 -0.413762 0
M  V30 1319 N 228.509 0.518981 -0.685754 0
M  V30 1320 C 228.499 1.57595 -1.49174 0
M  V30 1321 N 228.379 1.62909 -2.80066 0
M  V30 1322 C 228.259 0.388195 -3.3073 0
M  V30 1323 H 225.281 -0.374765 -8.67791 0
M  V30 1324 H 225.009 -0.443613 -6.90476 0
M  V30 1325 H 225.877 1.75559 -7.96891 0
M  V30 1326 H 228.532 1.94563 -5.46818 0
M  V30 1327 H 228.812 -0.608651 -7.04676 0
M  V30 1328 H 229.803 0.889796 -7.09039 0
M  V30 1329 H 227.969 0.433128 -9.04664 0
M  V30 1330 H 227.928 -1.89246 -5.57664 0
M  V30 1331 H 228.309 -2.71005 -0.804694 0
M  V30 1332 H 228.498 -1.63189 0.603768 0
M  V30 1333 H 228.606 2.53475 -0.997614 0
M  V30 1334 P 229.839 2.75334 -8.47391 0
M  V30 1335 O 230.059 3.84204 -9.44982 0
M  V30 1336 O 230.629 1.51982 -8.68909 0
M  V30 1337 O 230.089 3.29363 -6.99321 0
M  V30 1338 C 229.149 4.24066 -6.42823 0
M  V30 1339 C 229.879 5.20775 -5.52155 0
M  V30 1340 O 230.089 4.56607 -4.22514 0
M  V30 1341 C 231.279 5.62697 -5.96604 0
M  V30 1342 O 231.669 6.87667 -5.41053 0
M  V30 1343 C 232.159 4.52537 -5.39283 0
M  V30 1344 C 231.449 4.20027 -4.08623 0
M  V30 1345 N 231.499 2.76189 -3.71603 0
M  V30 1346 H 228.661 4.79756 -7.24086 0
M  V30 1347 H 228.389 3.69963 -5.84682 0
M  V30 1348 H 229.257 6.10431 -5.41508 0
M  V30 1349 H 231.912 4.78816 -3.28024 0
M  V30 1350 H 232.192 3.64957 -6.05871 0
M  V30 1351 H 233.183 4.88748 -5.21323 0
M  V30 1352 H 231.349 5.66789 -7.0643 0
M  V30 1353 P 233.219 7.20834 -5.23717 0
M  V30 1354 O 233.439 8.66104 -5.38572 0
M  V30 1355 O 234.009 6.33544 -6.1349 0
M  V30 1356 O 233.469 6.7751 -3.72168 0
M  V30 1357 C 232.529 7.20825 -2.7076 0
M  V30 1358 C 233.259 7.45864 -1.40599 0
M  V30 1359 O 233.469 6.17651 -0.734225 0
M  V30 1360 C 234.659 8.05808 -1.51899 0
M  V30 1361 O 235.049 8.74358 -0.335205 0
M  V30 1362 C 235.539 6.83093 -1.70294 0
M  V30 1363 C 234.829 5.79992 -0.836974 0
M  V30 1364 N 234.879 4.41864 -1.38293 0
M  V30 1365 H 232.04 8.13644 -3.0377 0
M  V30 1366 H 231.77 6.42788 -2.55485 0
M  V30 1367 H 232.637 8.12039 -0.792769 0
M  V30 1368 P 236.599 8.91 5.54508e-13 0
M  V30 1369 O 236.819 10.1726 0.733694 0
M  V30 1370 O 237.389 8.73148 -1.23936 0
M  V30 1371 O 236.849 7.66872 0.971405 0
M  V30 1372 C 235.909 7.42309 2.04641 0
M  V30 1373 C 236.639 6.86059 3.24661 0
M  V30 1374 O 236.849 5.42847 3.03646 0
M  V30 1375 C 238.039 7.41196 3.50753 0
M  V30 1376 O 238.429 7.27073 4.86816 0
M  V30 1377 C 238.919 6.5273 2.63741 0
M  V30 1378 C 238.209 5.1842 2.73198 0
M  V30 1379 N 238.259 4.38762 1.4784 0
M  V30 1380 H 235.42 8.36803 2.32493 0
M  V30 1381 H 235.15 6.70197 1.71129 0
M  V30 1382 H 236.017 7.03551 4.13168 0
M  V30 1383 P 239.979 7.20834 5.23717 0
M  V30 1384 O 240.199 7.80006 6.57415 0
M  V30 1385 O 240.769 7.79416 4.13051 0
M  V30 1386 O 240.229 5.63315 5.29344 0
M  V30 1387 C 239.289 4.80318 6.01954 0
M  V30 1388 C 240.019 3.64202 6.65911 0
M  V30 1389 O 240.229 2.60736 5.64823 0
M  V30 1390 C 241.419 3.93521 7.19518 0
M  V30 1391 O 241.809 3.02071 8.21205 0
M  V30 1392 C 242.299 3.73047 5.97036 0
M  V30 1393 C 241.589 2.58828 5.25741 0
M  V30 1394 N 241.639 2.68068 3.77503 0
M  V30 1395 C 241.559 3.80474 2.99159 0
M  V30 1396 N 241.629 3.55622 1.71925 0
M  V30 1397 C 241.779 2.1832 1.65733 0
M  V30 1398 C 241.909 1.28842 0.572777 0
M  V30 1399 N 241.919 1.66875 -0.70098 0
M  V30 1400 N 242.029 -0.016788 0.859836 0
M  V30 1401 C 242.019 -0.398145 2.13316 0
M  V30 1402 N 241.899 0.328224 3.22333 0
M  V30 1403 C 241.779 1.62992 2.90383 0
M  V30 1404 H 238.801 5.40394 6.8003 0
M  V30 1405 H 238.529 4.41741 5.32532 0
M  V30 1406 H 239.397 3.26371 7.47889 0
M  V30 1407 H 242.052 1.64007 5.56746 0
M  V30 1408 H 242.332 4.63439 5.3432 0
M  V30 1409 H 243.323 3.44776 6.25925 0
M  V30 1410 H 241.489 4.96707 7.57347 0
M  V30 1411 H 241.448 4.8089 3.39924 0
M  V30 1412 H 241.829 2.66547 -0.941919 0
M  V30 1413 H 242.018 0.965341 -1.44766 0
M  V30 1414 H 242.126 -1.46427 2.29697 0
M  V30 1415 P 243.359 2.75334 8.47391 0
M  V30 1416 O 243.579 2.44571 9.90142 0
M  V30 1417 O 244.149 3.87688 7.92115 0
M  V30 1418 O 243.609 1.4459 7.59357 0
M  V30 1419 C 242.669 0.347608 7.69215 0
M  V30 1420 C 243.399 -0.96767 7.52806 0
M  V30 1421 O 243.609 -1.21036 6.1011 0
M  V30 1422 C 244.799 -1.04544 8.13308 0
M  V30 1423 O 245.189 -2.38311 8.41922 0
M  V30 1424 C 245.679 -0.491279 7.02284 0
M  V30 1425 C 244.969 -0.996264 5.77469 0
M  V30 1426 N 245.019 -0.0501916 4.62973 0
M  V30 1427 H 242.18 0.374722 8.67691 0
M  V30 1428 H 241.91 0.443485 6.90277 0
M  V30 1429 H 242.777 -1.75537 7.96793 0
M  V30 1430 P 246.739 -2.75334 8.47391 0
M  V30 1431 O 246.959 -3.84128 9.44797 0
M  V30 1432 O 247.529 -1.51947 8.68712 0
M  V30 1433 O 246.989 -3.29363 6.99321 0
M  V30 1434 C 246.049 -4.24011 6.4274 0
M  V30 1435 C 246.779 -5.20775 5.52155 0
M  V30 1436 O 246.989 -4.56534 4.22446 0
M  V30 1437 C 248.179 -5.62629 5.96531 0
M  V30 1438 O 248.569 -6.87667 5.41053 0
M  V30 1439 C 249.059 -4.52537 5.39283 0
M  V30 1440 C 248.349 -4.20027 4.08623 0
M  V30 1441 N 248.399 -2.76189 3.71603 0
M  V30 1442 H 245.56 -4.797 7.24003 0
M  V30 1443 H 245.29 -3.69856 5.84513 0
M  V30 1444 H 246.157 -6.10356 5.41441 0
M  V30 1445 P 250.119 -7.20834 5.23717 0
M  V30 1446 O 250.339 -8.66104 5.38572 0
M  V30 1447 O 250.909 -6.33544 6.1349 0
M  V30 1448 O 250.369 -6.7751 3.72168 0
M  V30 1449 C 249.429 -7.20825 2.7076 0
M  V30 1450 C 250.159 -7.45864 1.40599 0
M  V30 1451 O 250.369 -6.17651 0.734225 0
M  V30 1452 C 251.559 -8.05808 1.51899 0
M  V30 1453 O 251.949 -8.74358 0.335205 0
M  V30 1454 C 252.439 -6.83093 1.70294 0
M  V30 1455 C 251.729 -5.79992 0.836974 0
M  V30 1456 N 251.779 -4.41864 1.38293 0
M  V30 1457 H 248.94 -8.13644 3.0377 0
M  V30 1458 H 248.67 -6.42788 2.55485 0
M  V30 1459 H 249.537 -8.12039 0.792769 0
M  V30 1460 P 253.498 -8.91 -7.1169e-13 0
M  V30 1461 O 253.718 -10.1726 -0.733694 0
M  V30 1462 O 254.288 -8.73148 1.23936 0
M  V30 1463 O 253.748 -7.66872 -0.971405 0
M  V30 1464 C 252.808 -7.42309 -2.04641 0
M  V30 1465 C 253.538 -6.86059 -3.24661 0
M  V30 1466 O 253.748 -5.42847 -3.03646 0
M  V30 1467 C 254.938 -7.41196 -3.50753 0
M  V30 1468 O 255.328 -7.27073 -4.86816 0
M  V30 1469 C 255.818 -6.5273 -2.63741 0
M  V30 1470 C 255.108 -5.1842 -2.73198 0
M  V30 1471 N 255.158 -4.38762 -1.4784 0
M  V30 1472 H 252.319 -8.36803 -2.32493 0
M  V30 1473 H 252.049 -6.70197 -1.71129 0
M  V30 1474 H 252.916 -7.03551 -4.13168 0
M  V30 1475 P 256.878 -7.20834 -5.23717 0
M  V30 1476 O 257.098 -7.7993 -6.57351 0
M  V30 1477 O 257.668 -7.79328 -4.13004 0
M  V30 1478 O 257.128 -5.63315 -5.29344 0
M  V30 1479 C 256.188 -4.80193 -6.01798 0
M  V30 1480 C 256.918 -3.64202 -6.65911 0
M  V30 1481 O 257.128 -2.60694 -5.64732 0
M  V30 1482 C 258.318 -3.93473 -7.1943 0
M  V30 1483 O 258.708 -3.02071 -8.21205 0
M  V30 1484 C 259.198 -3.73047 -5.97036 0
M  V30 1485 C 258.488 -2.58828 -5.25741 0
M  V30 1486 N 258.538 -2.6801 -3.77422 0
M  V30 1487 C 258.688 -1.50443 -3.07133 0
M  V30 1488 O 258.778 -0.419406 -3.61576 0
M  V30 1489 N 258.728 -1.6403 -1.69677 0
M  V30 1490 C 258.638 -2.81206 -0.986255 0
M  V30 1491 O 258.688 -2.80892 0.249754 0
M  V30 1492 C 258.488 -3.99158 -1.80325 0
M  V30 1493 C 258.378 -5.29309 -1.06921 0
M  V30 1494 C 258.438 -3.89779 -3.1476 0
M  V30 1495 H 255.698 -5.40332 -6.79951 0
M  V30 1496 H 255.429 -4.41549 -5.32301 0
M  V30 1497 H 256.296 -3.26331 -7.47797 0
M  V30 1498 H 258.951 -1.6395 -5.56554 0
M  V30 1499 H 259.23 -4.63439 -5.3432 0
M  V30 1500 H 260.222 -3.44728 -6.25838 0
M  V30 1501 H 258.388 -4.96652 -7.57263 0
M  V30 1502 H 258.317 -4.80159 -3.74441 0
M  V30 1503 H 259.347 -5.81459 -1.09608 0
M  V30 1504 H 257.61 -5.9187 -1.54487 0
M  V30 1505 H 258.098 -5.10095 -0.0220288 0
M  V30 1506 H 258.834 -0.798962 -1.16664 0
M  V30 1507 P 260.258 -2.75334 -8.47391 0
M  V30 1508 O 260.478 -2.44571 -9.90142 0
M  V30 1509 O 261.048 -3.87688 -7.92115 0
M  V30 1510 O 260.508 -1.4459 -7.59357 0
M  V30 1511 C 259.568 -0.347608 -7.69215 0
M  V30 1512 C 260.298 0.96767 -7.52806 0
M  V30 1513 O 260.508 1.21036 -6.1011 0
M  V30 1514 C 261.698 1.04544 -8.13308 0
M  V30 1515 O 262.088 2.38311 -8.41922 0
M  V30 1516 C 262.578 0.491279 -7.02284 0
M  V30 1517 C 261.868 0.996264 -5.77469 0
M  V30 1518 N 261.918 0.0501916 -4.62973 0
M  V30 1519 H 259.079 -0.374722 -8.67691 0
M  V30 1520 H 258.809 -0.443485 -6.90277 0
M  V30 1521 H 259.676 1.75537 -7.96793 0
M  V30 1522 P 263.638 2.75334 -8.47391 0
M  V30 1523 O 263.858 3.84128 -9.44797 0
M  V30 1524 O 264.428 1.51947 -8.68712 0
M  V30 1525 O 263.888 3.29363 -6.99321 0
M  V30 1526 C 262.948 4.24011 -6.4274 0
M  V30 1527 C 263.678 5.20775 -5.52155 0
M  V30 1528 O 263.888 4.56534 -4.22446 0
M  V30 1529 C 265.078 5.62629 -5.96531 0
M  V30 1530 O 265.468 6.87667 -5.41053 0
M  V30 1531 C 265.958 4.52537 -5.39283 0
M  V30 1532 C 265.248 4.20027 -4.08623 0
M  V30 1533 N 265.298 2.76189 -3.71603 0
M  V30 1534 H 262.459 4.797 -7.24003 0
M  V30 1535 H 262.189 3.69856 -5.84513 0
M  V30 1536 H 263.056 6.10356 -5.41441 0
M  V30 1537 P 267.018 7.20834 -5.23717 0
M  V30 1538 O 267.238 8.66274 -5.38678 0
M  V30 1539 O 267.808 6.33687 -6.13629 0
M  V30 1540 O 267.268 6.7751 -3.72168 0
M  V30 1541 C 266.328 7.20919 -2.70795 0
M  V30 1542 C 267.058 7.45864 -1.40599 0
M  V30 1543 O 267.268 6.17751 -0.734343 0
M  V30 1544 C 268.458 8.05906 -1.51917 0
M  V30 1545 O 268.848 8.74358 -0.335205 0
M  V30 1546 C 269.338 6.83093 -1.70294 0
M  V30 1547 C 268.628 5.79992 -0.836974 0
M  V30 1548 N 268.678 4.41864 -1.38293 0
M  V30 1549 H 265.84 8.13738 -3.03804 0
M  V30 1550 H 265.568 6.42974 -2.55559 0
M  V30 1551 H 266.436 8.12139 -0.792866 0
M  V30 1552 H 269.091 5.80178 0.160643 0
M  V30 1553 H 269.371 6.51379 -2.75643 0
M  V30 1554 H 270.362 7.01832 -1.3448 0
M  V30 1555 H 268.528 8.73771 -2.38364 0
M  V30 1556 P 270.398 8.91 8.68872e-13 0
M  V30 1557 O 270.618 10.1726 0.733694 0
M  V30 1558 O 271.188 8.73148 -1.23936 0
M  V30 1559 O 270.648 7.66872 0.971405 0
M  V30 1560 C 269.708 7.42309 2.04641 0
M  V30 1561 C 270.438 6.86059 3.24661 0
M  V30 1562 O 270.648 5.42847 3.03646 0
M  V30 1563 C 271.838 7.41196 3.50753 0
M  V30 1564 O 272.228 7.27073 4.86816 0
M  V30 1565 C 272.718 6.5273 2.63741 0
M  V30 1566 C 272.008 5.1842 2.73198 0
M  V30 1567 N 272.058 4.38762 1.4784 0
M  V30 1568 H 269.219 8.36803 2.32493 0
M  V30 1569 H 268.949 6.70197 1.71129 0
M  V30 1570 H 269.816 7.03551 4.13168 0
M  V30 1571 P 273.778 7.20834 5.23717 0
M  V30 1572 O 273.998 7.7993 6.57351 0
M  V30 1573 O 274.568 7.79328 4.13004 0
M  V30 1574 O 274.028 5.63315 5.29344 0
M  V30 1575 C 273.088 4.80193 6.01798 0
M  V30 1576 C 273.818 3.64202 6.65911 0
M  V30 1577 O 274.028 2.60694 5.64732 0
M  V30 1578 C 275.218 3.93473 7.1943 0
M  V30 1579 O 275.608 3.02071 8.21205 0
M  V30 1580 C 276.098 3.73047 5.97036 0
M  V30 1581 C 275.388 2.58828 5.25741 0
M  V30 1582 N 275.438 2.6801 3.77422 0
M  V30 1583 C 275.588 1.50443 3.07133 0
M  V30 1584 O 275.678 0.419406 3.61576 0
M  V30 1585 N 275.628 1.6403 1.69677 0
M  V30 1586 C 275.538 2.81206 0.986255 0
M  V30 1587 O 275.588 2.80892 -0.249754 0
M  V30 1588 C 275.388 3.99158 1.80325 0
M  V30 1589 C 275.278 5.29309 1.06921 0
M  V30 1590 C 275.338 3.89779 3.1476 0
M  V30 1591 H 272.598 5.40332 6.79951 0
M  V30 1592 H 272.329 4.41549 5.32301 0
M  V30 1593 H 273.196 3.26331 7.47797 0
M  V30 1594 H 275.851 1.6395 5.56554 0
M  V30 1595 H 276.13 4.63439 5.3432 0
M  V30 1596 H 277.122 3.44728 6.25838 0
M  V30 1597 H 275.288 4.96652 7.57263 0
M  V30 1598 H 275.217 4.80159 3.74441 0
M  V30 1599 H 276.247 5.81459 1.09608 0
M  V30 1600 H 274.51 5.9187 1.54487 0
M  V30 1601 H 274.998 5.10095 0.0220288 0
M  V30 1602 H 275.734 0.798962 1.16664 0
M  V30 1603 P 277.158 2.75334 8.47391 0
M  V30 1604 O 277.378 2.44571 9.90142 0
M  V30 1605 O 277.948 3.87688 7.92115 0
M  V30 1606 O 277.408 1.4459 7.59357 0
M  V30 1607 C 276.468 0.347608 7.69215 0
M  V30 1608 C 277.198 -0.96767 7.52806 0
M  V30 1609 O 277.408 -1.21036 6.1011 0
M  V30 1610 C 278.598 -1.04544 8.13308 0
M  V30 1611 O 278.988 -2.38311 8.41922 0
M  V30 1612 C 279.478 -0.491279 7.02284 0
M  V30 1613 C 278.768 -0.996264 5.77469 0
M  V30 1614 N 278.818 -0.0501916 4.62973 0
M  V30 1615 H 275.979 0.374722 8.67691 0
M  V30 1616 H 275.709 0.443485 6.90277 0
M  V30 1617 H 276.576 -1.75537 7.96793 0
M  V30 1618 P 280.538 -2.75334 8.47391 0
M  V30 1619 O 280.758 -3.84128 9.44797 0
M  V30 1620 O 281.328 -1.51947 8.68712 0
M  V30 1621 O 280.788 -3.29363 6.99321 0
M  V30 1622 C 279.848 -4.24011 6.4274 0
M  V30 1623 C 280.578 -5.20775 5.52155 0
M  V30 1624 O 280.788 -4.56534 4.22446 0
M  V30 1625 C 281.978 -5.62629 5.96531 0
M  V30 1626 O 282.368 -6.87667 5.41053 0
M  V30 1627 C 282.858 -4.52537 5.39283 0
M  V30 1628 C 282.148 -4.20027 4.08623 0
M  V30 1629 N 282.198 -2.76189 3.71603 0
M  V30 1630 C 282.118 -1.64862 4.52822 0
M  V30 1631 N 282.198 -0.512671 3.88633 0
M  V30 1632 C 282.338 -0.888083 2.54977 0
M  V30 1633 C 282.468 -0.094668 1.38677 0
M  V30 1634 O 282.488 1.13053 1.28163 0
M  V30 1635 N 282.588 -0.890102 0.232633 0
M  V30 1636 C 282.588 -2.26958 0.21772 0
M  V30 1637 N 282.718 -2.84626 -0.97925 0
M  V30 1638 N 282.458 -3.0178 1.31033 0
M  V30 1639 C 282.338 -2.26781 2.43843 0
M  V30 1640 H 279.359 -4.797 7.24003 0
M  V30 1641 H 279.089 -3.69856 5.84513 0
M  V30 1642 H 279.956 -6.10356 5.41441 0
M  V30 1643 H 282.611 -4.79061 3.27488 0
M  V30 1644 H 282.89 -3.64906 6.05785 0
M  V30 1645 H 283.882 -4.8868 5.2125 0
M  V30 1646 H 282.048 -5.66726 7.06352 0
M  V30 1647 H 281.999 -1.71169 5.60966 0
M  V30 1648 H 282.681 -0.419134 -0.644739 0
M  V30 1649 H 282.718 -3.87332 -1.06098 0
M  V30 1650 H 282.819 -2.26417 -1.82483 0
M  V30 1651 P 283.918 -7.20834 5.23717 0
M  V30 1652 O 284.138 -8.66104 5.38572 0
M  V30 1653 O 284.708 -6.33544 6.1349 0
M  V30 1654 O 284.168 -6.7751 3.72168 0
M  V30 1655 C 283.228 -7.20825 2.7076 0
M  V30 1656 C 283.958 -7.45864 1.40599 0
M  V30 1657 O 284.168 -6.17651 0.734225 0
M  V30 1658 C 285.358 -8.05808 1.51899 0
M  V30 1659 O 285.748 -8.74358 0.335205 0
M  V30 1660 C 286.238 -6.83093 1.70294 0
M  V30 1661 C 285.528 -5.79992 0.836974 0
M  V30 1662 N 285.578 -4.41864 1.38293 0
M  V30 1663 H 282.739 -8.13644 3.0377 0
M  V30 1664 H 282.469 -6.42788 2.55485 0
M  V30 1665 H 283.336 -8.12039 0.792769 0
M  V30 1666 P 287.298 -8.91 -1.02605e-12 0
M  V30 1667 O 287.518 -10.1726 -0.733694 0
M  V30 1668 O 288.088 -8.73148 1.23936 0
M  V30 1669 O 287.548 -7.66872 -0.971405 0
M  V30 1670 C 286.608 -7.42309 -2.04641 0
M  V30 1671 C 287.338 -6.86059 -3.24661 0
M  V30 1672 O 287.548 -5.42847 -3.03646 0
M  V30 1673 C 288.738 -7.41196 -3.50753 0
M  V30 1674 O 289.128 -7.27073 -4.86816 0
M  V30 1675 C 289.618 -6.5273 -2.63741 0
M  V30 1676 C 288.908 -5.1842 -2.73198 0
M  V30 1677 N 288.958 -4.38762 -1.4784 0
M  V30 1678 H 286.119 -8.36803 -2.32493 0
M  V30 1679 H 285.849 -6.70197 -1.71129 0
M  V30 1680 H 286.716 -7.03551 -4.13168 0
M  V30 1681 P 290.678 -7.20834 -5.23717 0
M  V30 1682 O 290.898 -7.79853 -6.57286 0
M  V30 1683 O 291.468 -7.79239 -4.12957 0
M  V30 1684 O 290.928 -5.63315 -5.29344 0
M  V30 1685 C 289.988 -4.80255 -6.01876 0
M  V30 1686 C 290.718 -3.64202 -6.65911 0
M  V30 1687 O 290.928 -2.60694 -5.64732 0
M  V30 1688 C 292.118 -3.93473 -7.1943 0
M  V30 1689 O 292.508 -3.02071 -8.21205 0
M  V30 1690 C 292.998 -3.73047 -5.97036 0
M  V30 1691 C 292.288 -2.58828 -5.25741 0
M  V30 1692 N 292.338 -2.68068 -3.77503 0
M  V30 1693 H 289.499 -5.40332 -6.79951 0
M  V30 1694 H 289.229 -4.41613 -5.32378 0
M  V30 1695 H 290.096 -3.26331 -7.47797 0
M  V30 1696 P 294.058 -2.75334 -8.47391 0
M  V30 1697 O 294.278 -2.44571 -9.90142 0
M  V30 1698 O 294.848 -3.87688 -7.92115 0
M  V30 1699 O 294.308 -1.4459 -7.59357 0
M  V30 1700 C 293.368 -0.347608 -7.69215 0
M  V30 1701 C 294.098 0.96767 -7.52806 0
M  V30 1702 O 294.308 1.21036 -6.1011 0
M  V30 1703 C 295.498 1.04544 -8.13308 0
M  V30 1704 O 295.888 2.38311 -8.41922 0
M  V30 1705 C 296.378 0.491279 -7.02284 0
M  V30 1706 C 295.668 0.996264 -5.77469 0
M  V30 1707 N 295.718 0.0501916 -4.62973 0
M  V30 1708 H 292.879 -0.374722 -8.67691 0
M  V30 1709 H 292.609 -0.443485 -6.90277 0
M  V30 1710 H 293.476 1.75537 -7.96793 0
M  V30 1711 P 297.438 2.75334 -8.47391 0
M  V30 1712 O 297.658 3.84128 -9.44797 0
M  V30 1713 O 298.228 1.51947 -8.68712 0
M  V30 1714 O 297.688 3.29363 -6.99321 0
M  V30 1715 C 296.748 4.24011 -6.4274 0
M  V30 1716 C 297.478 5.20775 -5.52155 0
M  V30 1717 O 297.688 4.56534 -4.22446 0
M  V30 1718 C 298.878 5.62629 -5.96531 0
M  V30 1719 O 299.268 6.87667 -5.41053 0
M  V30 1720 C 299.758 4.52537 -5.39283 0
M  V30 1721 C 299.048 4.20027 -4.08623 0
M  V30 1722 N 299.098 2.76189 -3.71603 0
M  V30 1723 H 296.259 4.797 -7.24003 0
M  V30 1724 H 295.989 3.69856 -5.84513 0
M  V30 1725 H 296.856 6.10356 -5.41441 0
M  V30 1726 P 300.818 7.20834 -5.23717 0
M  V30 1727 O 301.038 8.66104 -5.38572 0
M  V30 1728 O 301.608 6.33544 -6.1349 0
M  V30 1729 O 301.068 6.7751 -3.72168 0
M  V30 1730 C 300.128 7.20825 -2.7076 0
M  V30 1731 C 300.858 7.45864 -1.40599 0
M  V30 1732 O 301.068 6.17651 -0.734225 0
M  V30 1733 C 302.258 8.05808 -1.51899 0
M  V30 1734 O 302.648 8.74358 -0.335205 0
M  V30 1735 C 303.138 6.83093 -1.70294 0
M  V30 1736 C 302.428 5.79992 -0.836974 0
M  V30 1737 N 302.478 4.41864 -1.38293 0
M  V30 1738 H 299.639 8.13644 -3.0377 0
M  V30 1739 H 299.369 6.42788 -2.55485 0
M  V30 1740 H 300.236 8.12039 -0.792769 0
M  V30 1741 P 304.198 8.91 1.18324e-12 0
M  V30 1742 O 304.418 10.1726 0.733694 0
M  V30 1743 O 304.988 8.73148 -1.23936 0
M  V30 1744 O 304.448 7.66872 0.971405 0
M  V30 1745 C 303.508 7.42309 2.04641 0
M  V30 1746 C 304.238 6.86059 3.24661 0
M  V30 1747 O 304.448 5.42847 3.03646 0
M  V30 1748 C 305.638 7.41196 3.50753 0
M  V30 1749 O 306.028 7.27073 4.86816 0
M  V30 1750 C 306.518 6.5273 2.63741 0
M  V30 1751 C 305.808 5.1842 2.73198 0
M  V30 1752 N 305.858 4.38762 1.4784 0
M  V30 1753 C 305.778 4.81605 0.168631 0
M  V30 1754 N 305.858 3.85454 -0.713363 0
M  V30 1755 C 305.998 2.6994 0.0566958 0
M  V30 1756 C 306.128 1.34815 -0.338502 0
M  V30 1757 O 306.148 0.869548 -1.47125 0
M  V30 1758 N 306.248 0.496304 0.77465 0
M  V30 1759 C 306.248 0.908403 2.09122 0
M  V30 1760 N 306.378 -0.0517805 3.00955 0
M  V30 1761 N 306.118 2.17875 2.46519 0
M  V30 1762 C 305.998 3.01988 1.4033 0
M  V30 1763 H 303.019 8.36803 2.32493 0
M  V30 1764 H 302.749 6.70197 1.71129 0
M  V30 1765 H 303.616 7.03551 4.13168 0
M  V30 1766 H 306.271 4.59498 3.54415 0
M  V30 1767 H 306.55 6.88898 1.59848 0
M  V30 1768 H 307.542 6.46749 3.03687 0
M  V30 1769 H 305.708 8.46908 3.20714 0
M  V30 1770 H 305.659 5.86405 -0.105564 0
M  V30 1771 H 306.341 -0.483664 0.597855 0
M  V30 1772 H 306.378 0.187865 4.0116 0
M  V30 1773 H 306.479 -1.03585 2.71726 0
M  V30 1774 P 307.578 7.20834 5.23717 0
M  V30 1775 O 307.798 7.79853 6.57286 0
M  V30 1776 O 308.368 7.79239 4.12957 0
M  V30 1777 O 307.828 5.63315 5.29344 0
M  V30 1778 C 306.888 4.80255 6.01876 0
M  V30 1779 C 307.618 3.64202 6.65911 0
M  V30 1780 O 307.828 2.60694 5.64732 0
M  V30 1781 C 309.018 3.93473 7.1943 0
M  V30 1782 O 309.408 3.02071 8.21205 0
M  V30 1783 C 309.898 3.73047 5.97036 0
M  V30 1784 C 309.188 2.58828 5.25741 0
M  V30 1785 N 309.238 2.68068 3.77503 0
M  V30 1786 H 306.399 5.40332 6.79951 0
M  V30 1787 H 306.129 4.41613 5.32378 0
M  V30 1788 H 306.996 3.26331 7.47797 0
M  V30 1789 P 310.958 2.75334 8.47391 0
M  V30 1790 O 311.178 2.44619 9.90336 0
M  V30 1791 O 311.748 3.87776 7.92294 0
M  V30 1792 O 311.208 1.4459 7.59357 0
M  V30 1793 C 310.268 0.347653 7.69315 0
M  V30 1794 C 310.998 -0.96767 7.52806 0
M  V30 1795 O 311.208 -1.21055 6.10208 0
M  V30 1796 C 312.398 -1.04557 8.13408 0
M  V30 1797 O 312.788 -2.38311 8.41922 0
M  V30 1798 C 313.278 -0.491279 7.02284 0
M  V30 1799 C 312.568 -0.996264 5.77469 0
M  V30 1800 N 312.618 -0.0501916 4.62973 0
M  V30 1801 H 309.78 0.374765 8.67791 0
M  V30 1802 H 309.508 0.443613 6.90476 0
M  V30 1803 H 310.376 -1.75559 7.96891 0
M  V30 1804 H 313.031 -1.94563 5.46818 0
M  V30 1805 H 313.311 0.608651 7.04676 0
M  V30 1806 H 314.302 -0.889796 7.09039 0
M  V30 1807 H 312.468 -0.433128 9.04664 0
M  V30 1808 P 314.338 -2.75334 8.47391 0
M  V30 1809 O 314.558 -3.84204 9.44982 0
M  V30 1810 O 315.128 -1.51982 8.68909 0
M  V30 1811 O 314.588 -3.29363 6.99321 0
M  V30 1812 C 313.648 -4.24066 6.42823 0
M  V30 1813 C 314.378 -5.20775 5.52155 0
M  V30 1814 O 314.588 -4.56607 4.22514 0
M  V30 1815 C 315.778 -5.62697 5.96604 0
M  V30 1816 O 316.168 -6.87667 5.41053 0
M  V30 1817 C 316.658 -4.52537 5.39283 0
M  V30 1818 C 315.948 -4.20027 4.08623 0
M  V30 1819 N 315.998 -2.76189 3.71603 0
M  V30 1820 C 315.918 -1.66944 4.54297 0
M  V30 1821 N 315.988 -0.536169 3.91344 0
M  V30 1822 C 316.138 -0.901569 2.58849 0
M  V30 1823 C 316.268 -0.146599 1.40236 0
M  V30 1824 N 316.278 1.18234 1.37046 0
M  V30 1825 N 316.388 -0.822941 0.249738 0
M  V30 1826 C 316.378 -2.15179 0.280525 0
M  V30 1827 N 316.258 -2.96414 1.30822 0
M  V30 1828 C 316.138 -2.25804 2.44748 0
M  V30 1829 H 313.16 -4.79756 7.24086 0
M  V30 1830 H 312.888 -3.69963 5.84682 0
M  V30 1831 H 313.756 -6.10431 5.41508 0
M  V30 1832 H 316.411 -4.78816 3.28024 0
M  V30 1833 H 316.691 -3.64957 6.05871 0
M  V30 1834 H 317.682 -4.88748 5.21323 0
M  V30 1835 H 315.848 -5.66789 7.0643 0
M  V30 1836 H 315.807 -1.74684 5.62396 0
M  V30 1837 H 316.188 1.71949 2.24394 0
M  V30 1838 H 316.377 1.67511 0.470742 0
M  V30 1839 H 316.485 -2.63704 -0.6828 0
M  V30 1840 P 317.718 -7.20834 5.23717 0
M  V30 1841 O 317.938 -8.66274 5.38678 0
M  V30 1842 O 318.508 -6.33687 6.13629 0
M  V30 1843 O 317.968 -6.7751 3.72168 0
M  V30 1844 C 317.028 -7.20919 2.70795 0
M  V30 1845 C 317.758 -7.45864 1.40599 0
M  V30 1846 O 317.968 -6.17751 0.734343 0
M  V30 1847 C 319.158 -8.05906 1.51917 0
M  V30 1848 O 319.548 -8.74358 0.335205 0
M  V30 1849 C 320.038 -6.83093 1.70294 0
M  V30 1850 C 319.328 -5.79992 0.836974 0
M  V30 1851 N 319.378 -4.41864 1.38293 0
M  V30 1852 C 319.298 -4.02089 2.69407 0
M  V30 1853 N 319.368 -2.73403 2.85089 0
M  V30 1854 C 319.518 -2.25086 1.5642 0
M  V30 1855 C 319.648 -0.942887 1.04836 0
M  V30 1856 N 319.658 0.150999 1.80369 0
M  V30 1857 N 319.768 -0.812565 -0.28167 0
M  V30 1858 C 319.758 -1.90572 -1.03784 0
M  V30 1859 N 319.638 -3.167 -0.683905 0
M  V30 1860 C 319.518 -3.26538 0.652815 0
M  V30 1861 H 316.54 -8.13738 3.03804 0
M  V30 1862 H 316.268 -6.42974 2.55559 0
M  V30 1863 H 317.136 -8.12139 0.792866 0
M  V30 1864 H 319.791 -5.80178 -0.160643 0
M  V30 1865 H 320.071 -6.51379 2.75643 0
M  V30 1866 H 321.062 -7.01832 1.3448 0
M  V30 1867 H 319.228 -8.73771 2.38364 0
M  V30 1868 H 319.187 -4.7189 3.52311 0
M  V30 1869 H 319.568 0.0721434 2.82608 0
M  V30 1870 H 319.757 1.0785 1.36544 0
M  V30 1871 H 319.865 -1.73207 -2.10241 0
M  V30 1872 P 321.098 -8.91 -1.34042e-12 0
M  V30 1873 O 321.318 -10.1726 -0.733694 0
M  V30 1874 O 321.888 -8.73148 1.23936 0
M  V30 1875 O 321.348 -7.66872 -0.971405 0
M  V30 1876 C 320.408 -7.42309 -2.04641 0
M  V30 1877 C 321.138 -6.86059 -3.24661 0
M  V30 1878 O 321.348 -5.42847 -3.03646 0
M  V30 1879 C 322.538 -7.41196 -3.50753 0
M  V30 1880 O 322.928 -7.27073 -4.86816 0
M  V30 1881 C 323.418 -6.5273 -2.63741 0
M  V30 1882 C 322.708 -5.1842 -2.73198 0
M  V30 1883 N 322.758 -4.38762 -1.4784 0
M  V30 1884 H 319.919 -8.36803 -2.32493 0
M  V30 1885 H 319.649 -6.70197 -1.71129 0
M  V30 1886 H 320.516 -7.03551 -4.13168 0
M  V30 1887 P 324.478 -7.20834 -5.23717 0
M  V30 1888 O 324.698 -7.79853 -6.57286 0
M  V30 1889 O 325.268 -7.79239 -4.12957 0
M  V30 1890 O 324.728 -5.63315 -5.29344 0
M  V30 1891 C 323.788 -4.80255 -6.01876 0
M  V30 1892 C 324.518 -3.64202 -6.65911 0
M  V30 1893 O 324.728 -2.60694 -5.64732 0
M  V30 1894 C 325.918 -3.93473 -7.1943 0
M  V30 1895 O 326.308 -3.02071 -8.21205 0
M  V30 1896 C 326.798 -3.73047 -5.97036 0
M  V30 1897 C 326.088 -2.58828 -5.25741 0
M  V30 1898 N 326.138 -2.68068 -3.77503 0
M  V30 1899 H 323.299 -5.40332 -6.79951 0
M  V30 1900 H 323.029 -4.41613 -5.32378 0
M  V30 1901 H 323.896 -3.26331 -7.47797 0
M  V30 1902 P 327.858 -2.75334 -8.47391 0
M  V30 1903 O 328.078 -2.44595 -9.90239 0
M  V30 1904 O 328.648 -3.87732 -7.92204 0
M  V30 1905 O 328.108 -1.4459 -7.59357 0
M  V30 1906 C 327.168 -0.347563 -7.69115 0
M  V30 1907 C 327.898 0.96767 -7.52806 0
M  V30 1908 O 328.108 1.21036 -6.1011 0
M  V30 1909 C 329.298 1.04544 -8.13308 0
M  V30 1910 O 329.688 2.38311 -8.41922 0
M  V30 1911 C 330.178 0.491279 -7.02284 0
M  V30 1912 C 329.468 0.996264 -5.77469 0
M  V30 1913 N 329.518 0.0501808 -4.62873 0
M  V30 1914 C 329.668 0.588177 -3.36904 0
M  V30 1915 O 329.758 1.78598 -3.17173 0
M  V30 1916 N 329.708 -0.329694 -2.33686 0
M  V30 1917 C 329.618 -1.6953 -2.45079 0
M  V30 1918 O 329.668 -2.41926 -1.44899 0
M  V30 1919 C 329.468 -2.16933 -3.80505 0
M  V30 1920 C 329.358 -3.65373 -3.97621 0
M  V30 1921 C 329.418 -1.30326 -4.83752 0
M  V30 1922 H 326.678 -0.374722 -8.67691 0
M  V30 1923 H 326.409 -0.443421 -6.90177 0
M  V30 1924 H 327.276 1.75537 -7.96793 0
M  V30 1925 H 329.931 1.94496 -5.46629 0
M  V30 1926 H 330.21 -0.608651 -7.04676 0
M  V30 1927 H 331.202 0.889672 -7.08939 0
M  V30 1928 H 329.368 0.43308 -9.04564 0
M  V30 1929 H 329.297 -1.68366 -5.8516 0
M  V30 1930 H 330.327 -4.05985 -4.30448 0
M  V30 1931 H 328.59 -3.88028 -4.72875 0
M  V30 1932 H 329.078 -4.11381 -3.01609 0
M  V30 1933 H 329.814 0.0393617 -1.41345 0
M  V30 1934 P 331.238 2.75334 -8.47391 0
M  V30 1935 O 331.458 3.84128 -9.44797 0
M  V30 1936 O 332.028 1.51947 -8.68712 0
M  V30 1937 O 331.488 3.29363 -6.99321 0
M  V30 1938 C 330.548 4.24011 -6.4274 0
M  V30 1939 C 331.278 5.20775 -5.52155 0
M  V30 1940 O 331.488 4.56534 -4.22446 0
M  V30 1941 C 332.678 5.62629 -5.96531 0
M  V30 1942 O 333.068 6.87667 -5.41053 0
M  V30 1943 C 333.558 4.52537 -5.39283 0
M  V30 1944 C 332.848 4.20027 -4.08623 0
M  V30 1945 N 332.898 2.76189 -3.71603 0
M  V30 1946 H 330.059 4.797 -7.24003 0
M  V30 1947 H 329.789 3.69856 -5.84513 0
M  V30 1948 H 330.656 6.10356 -5.41441 0
M  V30 1949 P 334.618 7.20834 -5.23717 0
M  V30 1950 O 334.838 8.66104 -5.38572 0
M  V30 1951 O 335.408 6.33544 -6.1349 0
M  V30 1952 O 334.868 6.7751 -3.72168 0
M  V30 1953 C 333.928 7.20825 -2.7076 0
M  V30 1954 C 334.658 7.45864 -1.40599 0
M  V30 1955 O 334.868 6.17651 -0.734225 0
M  V30 1956 C 336.058 8.05808 -1.51899 0
M  V30 1957 O 336.448 8.74358 -0.335205 0
M  V30 1958 C 336.938 6.83093 -1.70294 0
M  V30 1959 C 336.228 5.79992 -0.836974 0
M  V30 1960 N 336.278 4.41864 -1.38293 0
M  V30 1961 H 333.439 8.13644 -3.0377 0
M  V30 1962 H 333.169 6.42788 -2.55485 0
M  V30 1963 H 334.036 8.12039 -0.792769 0
M  V30 1964 P 337.998 8.91 1.4976e-12 0
M  V30 1965 O 338.218 10.1726 0.733694 0
M  V30 1966 O 338.788 8.73148 -1.23936 0
M  V30 1967 O 338.248 7.66872 0.971405 0
M  V30 1968 C 337.308 7.42309 2.04641 0
M  V30 1969 C 338.038 6.86059 3.24661 0
M  V30 1970 O 338.248 5.42847 3.03646 0
M  V30 1971 C 339.438 7.41196 3.50753 0
M  V30 1972 O 339.828 7.27073 4.86816 0
M  V30 1973 C 340.318 6.5273 2.63741 0
M  V30 1974 C 339.608 5.1842 2.73198 0
M  V30 1975 N 339.658 4.38762 1.4784 0
M  V30 1976 H 336.819 8.36803 2.32493 0
M  V30 1977 H 336.549 6.70197 1.71129 0
M  V30 1978 H 337.416 7.03551 4.13168 0
M  V30 1979 P 341.378 7.20834 5.23717 0
M  V30 1980 O 341.598 7.79853 6.57286 0
M  V30 1981 O 342.168 7.79239 4.12957 0
M  V30 1982 O 341.628 5.63315 5.29344 0
M  V30 1983 C 340.688 4.80255 6.01876 0
M  V30 1984 C 341.418 3.64202 6.65911 0
M  V30 1985 O 341.628 2.60694 5.64732 0
M  V30 1986 C 342.818 3.93473 7.1943 0
M  V30 1987 O 343.208 3.02071 8.21205 0
M  V30 1988 C 343.698 3.73047 5.97036 0
M  V30 1989 C 342.988 2.58828 5.25741 0
M  V30 1990 N 343.038 2.68068 3.77503 0
M  V30 1991 C 342.958 3.79715 2.96723 0
M  V30 1992 N 343.038 3.5377 1.68852 0
M  V30 1993 C 343.178 2.15054 1.63254 0
M  V30 1994 C 343.308 1.28964 0.518571 0
M  V30 1995 N 343.428 -0.0538097 0.918425 0
M  V30 1996 C 343.428 -0.494275 2.22578 0
M  V30 1997 N 343.558 -1.81086 2.40434 0
M  V30 1998 N 343.298 0.313645 3.27502 0
M  V30 1999 C 343.178 1.61829 2.91033 0
M  V30 2000 H 340.199 5.40332 6.79951 0
M  V30 2001 H 339.929 4.41613 5.32378 0
M  V30 2002 H 340.796 3.26331 7.47797 0
M  V30 2003 P 344.758 2.75334 8.47391 0
M  V30 2004 O 344.978 2.44571 9.90142 0
M  V30 2005 O 345.548 3.87688 7.92115 0
M  V30 2006 O 345.008 1.4459 7.59357 0
M  V30 2007 C 344.068 0.347608 7.69215 0
M  V30 2008 C 344.798 -0.96767 7.52806 0
M  V30 2009 O 345.008 -1.21036 6.1011 0
M  V30 2010 C 346.198 -1.04544 8.13308 0
M  V30 2011 O 346.588 -2.38311 8.41922 0
M  V30 2012 C 347.078 -0.491279 7.02284 0
M  V30 2013 C 346.368 -0.996264 5.77469 0
M  V30 2014 N 346.418 -0.0501916 4.62973 0
M  V30 2015 C 346.338 1.32786 4.63244 0
M  V30 2016 N 346.418 1.86957 3.44545 0
M  V30 2017 C 346.558 0.780241 2.58481 0
M  V30 2018 C 346.688 0.738536 1.17757 0
M  V30 2019 O 346.708 1.66794 0.372349 0
M  V30 2020 N 346.808 -0.58337 0.711393 0
M  V30 2021 C 346.808 -1.70816 1.51017 0
M  V30 2022 N 346.938 -2.87826 0.880757 0
M  V30 2023 N 346.678 -1.67126 2.8339 0
M  V30 2024 C 346.558 -0.401421 3.30572 0
M  V30 2025 H 343.579 0.374722 8.67691 0
M  V30 2026 H 343.309 0.443485 6.90277 0
M  V30 2027 H 344.176 -1.75537 7.96793 0
M  V30 2028 H 346.831 -1.95076 5.46529 0
M  V30 2029 H 347.11 0.608565 7.04577 0
M  V30 2030 H 348.102 -0.889672 7.08939 0
M  V30 2031 H 346.268 -0.43308 9.04564 0
M  V30 2032 H 346.219 1.91249 5.54442 0
M  V30 2033 H 346.901 -0.718054 -0.275244 0
M  V30 2034 H 346.938 -3.75721 1.41832 0
M  V30 2035 H 347.039 -2.90436 -0.145468 0
M  V30 2036 P 348.138 -2.75334 8.47391 0
M  V30 2037 O 348.358 -3.84128 9.44797 0
M  V30 2038 O 348.928 -1.51947 8.68712 0
M  V30 2039 O 348.388 -3.29363 6.99321 0
M  V30 2040 C 347.448 -4.24011 6.4274 0
M  V30 2041 C 348.178 -5.20775 5.52155 0
M  V30 2042 O 348.388 -4.56534 4.22446 0
M  V30 2043 C 349.578 -5.62629 5.96531 0
M  V30 2044 O 349.968 -6.87667 5.41053 0
M  V30 2045 C 350.458 -4.52537 5.39283 0
M  V30 2046 C 349.748 -4.20027 4.08623 0
M  V30 2047 N 349.798 -2.76189 3.71603 0
M  V30 2048 H 346.959 -4.797 7.24003 0
M  V30 2049 H 346.689 -3.69856 5.84513 0
M  V30 2050 H 347.556 -6.10356 5.41441 0
M  V30 2051 P 351.518 -7.20834 5.23717 0
M  V30 2052 O 351.738 -8.66104 5.38572 0
M  V30 2053 O 352.308 -6.33544 6.1349 0
M  V30 2054 O 351.768 -6.7751 3.72168 0
M  V30 2055 C 350.828 -7.20825 2.7076 0
M  V30 2056 C 351.558 -7.45864 1.40599 0
M  V30 2057 O 351.768 -6.17651 0.734225 0
M  V30 2058 C 352.958 -8.05808 1.51899 0
M  V30 2059 O 353.348 -8.74358 0.335205 0
M  V30 2060 C 353.838 -6.83093 1.70294 0
M  V30 2061 C 353.128 -5.79992 0.836974 0
M  V30 2062 N 353.178 -4.41864 1.38293 0
M  V30 2063 H 350.339 -8.13644 3.0377 0
M  V30 2064 H 350.069 -6.42788 2.55485 0
M  V30 2065 H 350.936 -8.12039 0.792769 0
M  V30 2066 P 354.898 -8.91 -1.65478e-12 0
M  V30 2067 O 355.118 -10.1726 -0.733694 0
M  V30 2068 O 355.688 -8.73148 1.23936 0
M  V30 2069 O 355.148 -7.66872 -0.971405 0
M  V30 2070 C 354.208 -7.42309 -2.04641 0
M  V30 2071 C 354.938 -6.86059 -3.24661 0
M  V30 2072 O 355.148 -5.42847 -3.03646 0
M  V30 2073 C 356.338 -7.41196 -3.50753 0
M  V30 2074 O 356.728 -7.27073 -4.86816 0
M  V30 2075 C 357.218 -6.5273 -2.63741 0
M  V30 2076 C 356.508 -5.1842 -2.73198 0
M  V30 2077 N 356.558 -4.38762 -1.4784 0
M  V30 2078 H 353.719 -8.36803 -2.32493 0
M  V30 2079 H 353.449 -6.70197 -1.71129 0
M  V30 2080 H 354.316 -7.03551 -4.13168 0
M  V30 2081 P 358.278 -7.20834 -5.23717 0
M  V30 2082 O 358.498 -7.79853 -6.57286 0
M  V30 2083 O 359.068 -7.79239 -4.12957 0
M  V30 2084 O 358.528 -5.63315 -5.29344 0
M  V30 2085 C 357.588 -4.80255 -6.01876 0
M  V30 2086 C 358.318 -3.64202 -6.65911 0
M  V30 2087 O 358.528 -2.60694 -5.64732 0
M  V30 2088 C 359.718 -3.93473 -7.1943 0
M  V30 2089 O 360.108 -3.02071 -8.21205 0
M  V30 2090 C 360.598 -3.73047 -5.97036 0
M  V30 2091 C 359.888 -2.58828 -5.25741 0
M  V30 2092 N 359.938 -2.68068 -3.77503 0
M  V30 2093 H 357.099 -5.40332 -6.79951 0
M  V30 2094 H 356.829 -4.41613 -5.32378 0
M  V30 2095 H 357.696 -3.26331 -7.47797 0
M  V30 2096 P 361.658 -2.75334 -8.47391 0
M  V30 2097 O 361.878 -2.44571 -9.90142 0
M  V30 2098 O 362.448 -3.87688 -7.92115 0
M  V30 2099 O 361.908 -1.4459 -7.59357 0
M  V30 2100 C 360.968 -0.347608 -7.69215 0
M  V30 2101 C 361.698 0.96767 -7.52806 0
M  V30 2102 O 361.908 1.21036 -6.1011 0
M  V30 2103 C 363.098 1.04544 -8.13308 0
M  V30 2104 O 363.488 2.38311 -8.41922 0
M  V30 2105 C 363.978 0.491279 -7.02284 0
M  V30 2106 C 363.268 0.996264 -5.77469 0
M  V30 2107 N 363.318 0.0501916 -4.62973 0
M  V30 2108 H 360.479 -0.374722 -8.67691 0
M  V30 2109 H 360.209 -0.443485 -6.90277 0
M  V30 2110 H 361.076 1.75537 -7.96793 0
M  V30 2111 P 365.038 2.75334 -8.47391 0
M  V30 2112 O 365.258 3.84128 -9.44797 0
M  V30 2113 O 365.828 1.51947 -8.68712 0
M  V30 2114 O 365.288 3.29363 -6.99321 0
M  V30 2115 C 364.348 4.24011 -6.4274 0
M  V30 2116 C 365.078 5.20775 -5.52155 0
M  V30 2117 O 365.288 4.56534 -4.22446 0
M  V30 2118 C 366.478 5.62629 -5.96531 0
M  V30 2119 O 366.868 6.87667 -5.41053 0
M  V30 2120 C 367.358 4.52537 -5.39283 0
M  V30 2121 C 366.648 4.20027 -4.08623 0
M  V30 2122 N 366.698 2.76189 -3.71603 0
M  V30 2123 H 363.859 4.797 -7.24003 0
M  V30 2124 H 363.589 3.69856 -5.84513 0
M  V30 2125 H 364.456 6.10356 -5.41441 0
M  V30 2126 P 368.418 7.20834 -5.23717 0
M  V30 2127 O 368.638 8.66104 -5.38572 0
M  V30 2128 O 369.208 6.33544 -6.1349 0
M  V30 2129 O 368.668 6.7751 -3.72168 0
M  V30 2130 C 367.728 7.20825 -2.7076 0
M  V30 2131 C 368.458 7.45864 -1.40599 0
M  V30 2132 O 368.668 6.17651 -0.734225 0
M  V30 2133 C 369.858 8.05808 -1.51899 0
M  V30 2134 O 370.248 8.74358 -0.335205 0
M  V30 2135 C 370.738 6.83093 -1.70294 0
M  V30 2136 C 370.028 5.79992 -0.836974 0
M  V30 2137 N 370.078 4.41864 -1.38293 0
M  V30 2138 H 367.239 8.13644 -3.0377 0
M  V30 2139 H 366.969 6.42788 -2.55485 0
M  V30 2140 H 367.836 8.12039 -0.792769 0
M  V30 2141 P 371.798 8.91 1.81197e-12 0
M  V30 2142 O 372.018 10.1726 0.733694 0
M  V30 2143 O 372.588 8.73148 -1.23936 0
M  V30 2144 O 372.048 7.66872 0.971405 0
M  V30 2145 C 371.108 7.42309 2.04641 0
M  V30 2146 C 371.838 6.86059 3.24661 0
M  V30 2147 O 372.048 5.42847 3.03646 0
M  V30 2148 C 373.238 7.41196 3.50753 0
M  V30 2149 O 373.628 7.27073 4.86816 0
M  V30 2150 C 374.118 6.5273 2.63741 0
M  V30 2151 C 373.408 5.1842 2.73198 0
M  V30 2152 N 373.458 4.38762 1.4784 0
M  V30 2153 H 370.619 8.36803 2.32493 0
M  V30 2154 H 370.349 6.70197 1.71129 0
M  V30 2155 H 371.216 7.03551 4.13168 0
M  V30 2156 P 375.178 7.20834 5.23717 0
M  V30 2157 O 375.398 7.80006 6.57415 0
M  V30 2158 O 375.968 7.79416 4.13051 0
M  V30 2159 O 375.428 5.63315 5.29344 0
M  V30 2160 C 374.488 4.80318 6.01954 0
M  V30 2161 C 375.218 3.64202 6.65911 0
M  V30 2162 O 375.428 2.60736 5.64823 0
M  V30 2163 C 376.618 3.93521 7.19518 0
M  V30 2164 O 377.008 3.02071 8.21205 0
M  V30 2165 C 377.498 3.73047 5.97036 0
M  V30 2166 C 376.788 2.58828 5.25741 0
M  V30 2167 N 376.838 2.68068 3.77503 0
M  V30 2168 H 374 5.40394 6.8003 0
M  V30 2169 H 373.728 4.41741 5.32532 0
M  V30 2170 H 374.596 3.26371 7.47889 0
M  V30 2171 H 377.251 1.64007 5.56746 0
M  V30 2172 H 377.531 4.63439 5.3432 0
M  V30 2173 H 378.522 3.44776 6.25925 0
M  V30 2174 H 376.688 4.96707 7.57347 0
M  V30 2175 P 378.558 2.75334 8.47391 0
M  V30 2176 O 378.778 2.44571 9.90142 0
M  V30 2177 O 379.348 3.87688 7.92115 0
M  V30 2178 O 378.808 1.4459 7.59357 0
M  V30 2179 C 377.868 0.347608 7.69215 0
M  V30 2180 C 378.598 -0.96767 7.52806 0
M  V30 2181 O 378.808 -1.21036 6.1011 0
M  V30 2182 C 379.998 -1.04544 8.13308 0
M  V30 2183 O 380.388 -2.38311 8.41922 0
M  V30 2184 C 380.878 -0.491279 7.02284 0
M  V30 2185 C 380.168 -0.996264 5.77469 0
M  V30 2186 N 380.218 -0.0501916 4.62973 0
M  V30 2187 C 380.138 1.32786 4.63244 0
M  V30 2188 N 380.218 1.86957 3.44545 0
M  V30 2189 C 380.358 0.780241 2.58481 0
M  V30 2190 C 380.488 0.738536 1.17757 0
M  V30 2191 N 380.608 -0.58337 0.711393 0
M  V30 2192 C 380.608 -1.70816 1.51017 0
M  V30 2193 N 380.738 -2.87826 0.880757 0
M  V30 2194 N 380.478 -1.67126 2.8339 0
M  V30 2195 C 380.358 -0.401421 3.30572 0
M  V30 2196 H 377.379 0.374722 8.67691 0
M  V30 2197 H 377.109 0.443485 6.90277 0
M  V30 2198 H 377.976 -1.75537 7.96793 0
M  V30 2199 P 381.938 -2.75334 8.47391 0
M  V30 2200 O 382.158 -3.84128 9.44797 0
M  V30 2201 O 382.728 -1.51947 8.68712 0
M  V30 2202 O 382.188 -3.29363 6.99321 0
M  V30 2203 C 381.248 -4.24011 6.4274 0
M  V30 2204 C 381.978 -5.20775 5.52155 0
M  V30 2205 O 382.188 -4.56534 4.22446 0
M  V30 2206 C 383.378 -5.62629 5.96531 0
M  V30 2207 O 383.768 -6.87667 5.41053 0
M  V30 2208 C 384.258 -4.52537 5.39283 0
M  V30 2209 C 383.548 -4.20027 4.08623 0
M  V30 2210 N 383.598 -2.76189 3.71603 0
M  V30 2211 H 380.759 -4.797 7.24003 0
M  V30 2212 H 380.489 -3.69856 5.84513 0
M  V30 2213 H 381.356 -6.10356 5.41441 0
M  V30 2214 P 385.318 -7.20834 5.23717 0
M  V30 2215 O 385.538 -8.66104 5.38572 0
M  V30 2216 O 386.108 -6.33544 6.1349 0
M  V30 2217 O 385.568 -6.7751 3.72168 0
M  V30 2218 C 384.628 -7.20825 2.7076 0
M  V30 2219 C 385.358 -7.45864 1.40599 0
M  V30 2220 O 385.568 -6.17651 0.734225 0
M  V30 2221 C 386.758 -8.05808 1.51899 0
M  V30 2222 O 387.148 -8.74358 0.335205 0
M  V30 2223 C 387.638 -6.83093 1.70294 0
M  V30 2224 C 386.928 -5.79992 0.836974 0
M  V30 2225 N 386.978 -4.41864 1.38293 0
M  V30 2226 H 384.139 -8.13644 3.0377 0
M  V30 2227 H 383.869 -6.42788 2.55485 0
M  V30 2228 H 384.736 -8.12039 0.792769 0
M  V30 2229 P 388.698 -8.91 -1.96915e-12 0
M  V30 2230 O 388.918 -10.1726 -0.733694 0
M  V30 2231 O 389.488 -8.73148 1.23936 0
M  V30 2232 O 388.948 -7.66872 -0.971405 0
M  V30 2233 C 388.008 -7.42309 -2.04641 0
M  V30 2234 C 388.738 -6.86059 -3.24661 0
M  V30 2235 O 388.948 -5.42847 -3.03646 0
M  V30 2236 C 390.138 -7.41196 -3.50753 0
M  V30 2237 O 390.528 -7.27073 -4.86816 0
M  V30 2238 C 391.018 -6.5273 -2.63741 0
M  V30 2239 C 390.308 -5.1842 -2.73198 0
M  V30 2240 N 390.358 -4.38762 -1.4784 0
M  V30 2241 H 387.519 -8.36803 -2.32493 0
M  V30 2242 H 387.249 -6.70197 -1.71129 0
M  V30 2243 H 388.116 -7.03551 -4.13168 0
M  V30 2244 P 392.078 -7.20834 -5.23717 0
M  V30 2245 O 392.298 -7.80006 -6.57415 0
M  V30 2246 O 392.868 -7.79416 -4.13051 0
M  V30 2247 O 392.328 -5.63315 -5.29344 0
M  V30 2248 C 391.388 -4.80318 -6.01954 0
M  V30 2249 C 392.118 -3.64202 -6.65911 0
M  V30 2250 O 392.328 -2.60736 -5.64823 0
M  V30 2251 C 393.518 -3.93521 -7.19518 0
M  V30 2252 O 393.908 -3.02071 -8.21205 0
M  V30 2253 C 394.398 -3.73047 -5.97036 0
M  V30 2254 C 393.688 -2.58828 -5.25741 0
M  V30 2255 N 393.738 -2.68068 -3.77503 0
M  V30 2256 C 393.658 -3.80474 -2.99159 0
M  V30 2257 N 393.728 -3.55622 -1.71925 0
M  V30 2258 C 393.878 -2.1832 -1.65733 0
M  V30 2259 C 394.008 -1.28842 -0.572777 0
M  V30 2260 N 394.018 -1.66875 0.70098 0
M  V30 2261 N 394.128 0.016788 -0.859836 0
M  V30 2262 C 394.118 0.398145 -2.13316 0
M  V30 2263 N 393.998 -0.328224 -3.22333 0
M  V30 2264 C 393.878 -1.62992 -2.90383 0
M  V30 2265 H 390.9 -5.40394 -6.8003 0
M  V30 2266 H 390.628 -4.41741 -5.32532 0
M  V30 2267 H 391.496 -3.26371 -7.47889 0
M  V30 2268 H 394.151 -1.64007 -5.56746 0
M  V30 2269 H 394.431 -4.63439 -5.3432 0
M  V30 2270 H 395.422 -3.44776 -6.25925 0
M  V30 2271 H 393.588 -4.96707 -7.57347 0
M  V30 2272 H 393.547 -4.8089 -3.39924 0
M  V30 2273 H 393.928 -2.66547 0.941919 0
M  V30 2274 H 394.117 -0.965341 1.44766 0
M  V30 2275 H 394.225 1.46427 -2.29697 0
M  V30 2276 P 395.458 -2.75334 -8.47391 0
M  V30 2277 O 395.678 -2.44571 -9.90142 0
M  V30 2278 O 396.248 -3.87688 -7.92115 0
M  V30 2279 O 395.708 -1.4459 -7.59357 0
M  V30 2280 C 394.768 -0.347608 -7.69215 0
M  V30 2281 C 395.498 0.96767 -7.52806 0
M  V30 2282 O 395.708 1.21036 -6.1011 0
M  V30 2283 C 396.898 1.04544 -8.13308 0
M  V30 2284 O 397.288 2.38311 -8.41922 0
M  V30 2285 C 397.778 0.491279 -7.02284 0
M  V30 2286 C 397.068 0.996264 -5.77469 0
M  V30 2287 N 397.118 0.0501916 -4.62973 0
M  V30 2288 H 394.279 -0.374722 -8.67691 0
M  V30 2289 H 394.009 -0.443485 -6.90277 0
M  V30 2290 H 394.876 1.75537 -7.96793 0
M  V30 2291 P 398.838 2.75334 -8.47391 0
M  V30 2292 O 399.058 3.84128 -9.44797 0
M  V30 2293 O 399.628 1.51947 -8.68712 0
M  V30 2294 O 399.088 3.29363 -6.99321 0
M  V30 2295 C 398.148 4.24011 -6.4274 0
M  V30 2296 C 398.878 5.20775 -5.52155 0
M  V30 2297 O 399.088 4.56534 -4.22446 0
M  V30 2298 C 400.278 5.62629 -5.96531 0
M  V30 2299 O 400.668 6.87667 -5.41053 0
M  V30 2300 C 401.158 4.52537 -5.39283 0
M  V30 2301 C 400.448 4.20027 -4.08623 0
M  V30 2302 N 400.498 2.76189 -3.71603 0
M  V30 2303 H 397.659 4.797 -7.24003 0
M  V30 2304 H 397.389 3.69856 -5.84513 0
M  V30 2305 H 398.256 6.10356 -5.41441 0
M  V30 2306 P 402.218 7.20834 -5.23717 0
M  V30 2307 O 402.438 8.66104 -5.38572 0
M  V30 2308 O 403.008 6.33544 -6.1349 0
M  V30 2309 O 402.468 6.7751 -3.72168 0
M  V30 2310 C 401.528 7.20825 -2.7076 0
M  V30 2311 C 402.258 7.45864 -1.40599 0
M  V30 2312 O 402.468 6.17651 -0.734225 0
M  V30 2313 C 403.658 8.05808 -1.51899 0
M  V30 2314 O 404.048 8.74358 -0.335205 0
M  V30 2315 C 404.538 6.83093 -1.70294 0
M  V30 2316 C 403.828 5.79992 -0.836974 0
M  V30 2317 N 403.878 4.41864 -1.38293 0
M  V30 2318 H 401.039 8.13644 -3.0377 0
M  V30 2319 H 400.769 6.42788 -2.55485 0
M  V30 2320 H 401.636 8.12039 -0.792769 0
M  V30 2321 P 405.598 8.91 2.12633e-12 0
M  V30 2322 O 405.818 10.1726 0.733694 0
M  V30 2323 O 406.388 8.73148 -1.23936 0
M  V30 2324 O 405.848 7.66872 0.971405 0
M  V30 2325 C 404.908 7.42309 2.04641 0
M  V30 2326 C 405.638 6.86059 3.24661 0
M  V30 2327 O 405.848 5.42847 3.03646 0
M  V30 2328 C 407.038 7.41196 3.50753 0
M  V30 2329 O 407.428 7.27073 4.86816 0
M  V30 2330 C 407.918 6.5273 2.63741 0
M  V30 2331 C 407.208 5.1842 2.73198 0
M  V30 2332 N 407.258 4.38762 1.4784 0
M  V30 2333 H 404.419 8.36803 2.32493 0
M  V30 2334 H 404.149 6.70197 1.71129 0
M  V30 2335 H 405.016 7.03551 4.13168 0
M  V30 2336 P 408.978 7.20834 5.23717 0
M  V30 2337 O 409.198 7.79853 6.57286 0
M  V30 2338 O 409.768 7.79239 4.12957 0
M  V30 2339 O 409.228 5.63315 5.29344 0
M  V30 2340 C 408.288 4.80255 6.01876 0
M  V30 2341 C 409.018 3.64202 6.65911 0
M  V30 2342 O 409.228 2.60694 5.64732 0
M  V30 2343 C 410.418 3.93473 7.1943 0
M  V30 2344 O 410.808 3.02071 8.21205 0
M  V30 2345 C 411.298 3.73047 5.97036 0
M  V30 2346 C 410.588 2.58828 5.25741 0
M  V30 2347 N 410.638 2.68068 3.77503 0
M  V30 2348 H 407.799 5.40332 6.79951 0
M  V30 2349 H 407.529 4.41613 5.32378 0
M  V30 2350 H 408.396 3.26331 7.47797 0
M  V30 2351 P 412.358 2.75334 8.47391 0
M  V30 2352 O 412.578 2.44595 9.90239 0
M  V30 2353 O 413.148 3.87732 7.92204 0
M  V30 2354 O 412.608 1.4459 7.59357 0
M  V30 2355 C 411.668 0.347563 7.69115 0
M  V30 2356 C 412.398 -0.96767 7.52806 0
M  V30 2357 O 412.608 -1.21036 6.1011 0
M  V30 2358 C 413.798 -1.04544 8.13308 0
M  V30 2359 O 414.188 -2.38311 8.41922 0
M  V30 2360 C 414.678 -0.491279 7.02284 0
M  V30 2361 C 413.968 -0.996264 5.77469 0
M  V30 2362 N 414.018 -0.0501808 4.62873 0
M  V30 2363 C 414.168 -0.588177 3.36904 0
M  V30 2364 O 414.258 -1.78598 3.17173 0
M  V30 2365 N 414.208 0.329694 2.33686 0
M  V30 2366 C 414.118 1.6953 2.45079 0
M  V30 2367 C 413.968 2.16933 3.80505 0
M  V30 2368 C 413.918 1.30326 4.83752 0
M  V30 2369 H 411.178 0.374722 8.67691 0
M  V30 2370 H 410.909 0.443421 6.90177 0
M  V30 2371 H 411.776 -1.75537 7.96793 0
M  V30 2372 H 414.431 -1.94496 5.46629 0
M  V30 2373 H 414.71 0.608651 7.04676 0
M  V30 2374 H 415.702 -0.889672 7.08939 0
M  V30 2375 H 413.868 -0.43308 9.04564 0
M  V30 2376 H 413.797 1.68366 5.8516 0
M  V30 2377 P 415.738 -2.75334 8.47391 0
M  V30 2378 O 415.958 -3.84128 9.44797 0
M  V30 2379 O 416.528 -1.51947 8.68712 0
M  V30 2380 O 415.988 -3.29363 6.99321 0
M  V30 2381 C 415.048 -4.24011 6.4274 0
M  V30 2382 C 415.778 -5.20775 5.52155 0
M  V30 2383 O 415.988 -4.56534 4.22446 0
M  V30 2384 C 417.178 -5.62629 5.96531 0
M  V30 2385 O 417.568 -6.87667 5.41053 0
M  V30 2386 C 418.058 -4.52537 5.39283 0
M  V30 2387 C 417.348 -4.20027 4.08623 0
M  V30 2388 N 417.398 -2.76189 3.71603 0
M  V30 2389 H 414.559 -4.797 7.24003 0
M  V30 2390 H 414.289 -3.69856 5.84513 0
M  V30 2391 H 415.156 -6.10356 5.41441 0
M  V30 2392 P 419.118 -7.20834 5.23717 0
M  V30 2393 O 419.338 -8.66274 5.38678 0
M  V30 2394 O 419.908 -6.33687 6.13629 0
M  V30 2395 O 419.368 -6.7751 3.72168 0
M  V30 2396 C 418.428 -7.20919 2.70795 0
M  V30 2397 C 419.158 -7.45864 1.40599 0
M  V30 2398 O 419.368 -6.17751 0.734343 0
M  V30 2399 C 420.558 -8.05906 1.51917 0
M  V30 2400 O 420.948 -8.74358 0.335205 0
M  V30 2401 C 421.438 -6.83093 1.70294 0
M  V30 2402 C 420.728 -5.79992 0.836974 0
M  V30 2403 N 420.778 -4.41864 1.38293 0
M  V30 2404 C 420.698 -4.02089 2.69407 0
M  V30 2405 N 420.768 -2.73403 2.85089 0
M  V30 2406 C 420.918 -2.25086 1.5642 0
M  V30 2407 C 421.048 -0.942887 1.04836 0
M  V30 2408 N 421.058 0.150999 1.80369 0
M  V30 2409 N 421.168 -0.812565 -0.28167 0
M  V30 2410 C 421.158 -1.90572 -1.03784 0
M  V30 2411 N 421.038 -3.167 -0.683905 0
M  V30 2412 C 420.918 -3.26538 0.652815 0
M  V30 2413 H 417.94 -8.13738 3.03804 0
M  V30 2414 H 417.668 -6.42974 2.55559 0
M  V30 2415 H 418.536 -8.12139 0.792866 0
M  V30 2416 H 421.191 -5.80178 -0.160643 0
M  V30 2417 H 421.471 -6.51379 2.75643 0
M  V30 2418 H 422.462 -7.01832 1.3448 0
M  V30 2419 H 420.628 -8.73771 2.38364 0
M  V30 2420 H 420.587 -4.7189 3.52311 0
M  V30 2421 H 420.968 0.0721434 2.82608 0
M  V30 2422 H 421.157 1.0785 1.36544 0
M  V30 2423 H 421.265 -1.73207 -2.10241 0
M  V30 2424 P 422.497 -8.91 -2.28351e-12 0
M  V30 2425 O 422.717 -10.1726 -0.733694 0
M  V30 2426 O 423.287 -8.73148 1.23936 0
M  V30 2427 O 422.747 -7.66872 -0.971405 0
M  V30 2428 C 421.807 -7.42309 -2.04641 0
M  V30 2429 C 422.537 -6.86059 -3.24661 0
M  V30 2430 O 422.747 -5.42847 -3.03646 0
M  V30 2431 C 423.937 -7.41196 -3.50753 0
M  V30 2432 O 424.327 -7.27073 -4.86816 0
M  V30 2433 C 424.817 -6.5273 -2.63741 0
M  V30 2434 C 424.107 -5.1842 -2.73198 0
M  V30 2435 N 424.157 -4.38762 -1.4784 0
M  V30 2436 H 421.318 -8.36803 -2.32493 0
M  V30 2437 H 421.048 -6.70197 -1.71129 0
M  V30 2438 H 421.915 -7.03551 -4.13168 0
M  V30 2439 P 425.877 -7.20834 -5.23717 0
M  V30 2440 O 426.097 -7.79853 -6.57286 0
M  V30 2441 O 426.667 -7.79239 -4.12957 0
M  V30 2442 O 426.127 -5.63315 -5.29344 0
M  V30 2443 C 425.187 -4.80255 -6.01876 0
M  V30 2444 C 425.917 -3.64202 -6.65911 0
M  V30 2445 O 426.127 -2.60694 -5.64732 0
M  V30 2446 C 427.317 -3.93473 -7.1943 0
M  V30 2447 O 427.707 -3.02071 -8.21205 0
M  V30 2448 C 428.197 -3.73047 -5.97036 0
M  V30 2449 C 427.487 -2.58828 -5.25741 0
M  V30 2450 N 427.537 -2.68068 -3.77503 0
M  V30 2451 H 424.698 -5.40332 -6.79951 0
M  V30 2452 H 424.428 -4.41613 -5.32378 0
M  V30 2453 H 425.295 -3.26331 -7.47797 0
M  V30 2454 P 429.257 -2.75334 -8.47391 0
M  V30 2455 O 429.477 -2.44571 -9.90142 0
M  V30 2456 O 430.047 -3.87688 -7.92115 0
M  V30 2457 O 429.507 -1.4459 -7.59357 0
M  V30 2458 C 428.567 -0.347608 -7.69215 0
M  V30 2459 C 429.297 0.96767 -7.52806 0
M  V30 2460 O 429.507 1.21036 -6.1011 0
M  V30 2461 C 430.697 1.04544 -8.13308 0
M  V30 2462 O 431.087 2.38311 -8.41922 0
M  V30 2463 C 431.577 0.491279 -7.02284 0
M  V30 2464 C 430.867 0.996264 -5.77469 0
M  V30 2465 N 430.917 0.0501916 -4.62973 0
M  V30 2466 H 428.078 -0.374722 -8.67691 0
M  V30 2467 H 427.808 -0.443485 -6.90277 0
M  V30 2468 H 428.675 1.75537 -7.96793 0
M  V30 2469 P 432.637 2.75334 -8.47391 0
M  V30 2470 O 432.857 3.84128 -9.44797 0
M  V30 2471 O 433.427 1.51947 -8.68712 0
M  V30 2472 O 432.887 3.29363 -6.99321 0
M  V30 2473 C 431.947 4.24011 -6.4274 0
M  V30 2474 C 432.677 5.20775 -5.52155 0
M  V30 2475 O 432.887 4.56534 -4.22446 0
M  V30 2476 C 434.077 5.62629 -5.96531 0
M  V30 2477 O 434.467 6.87667 -5.41053 0
M  V30 2478 C 434.957 4.52537 -5.39283 0
M  V30 2479 C 434.247 4.20027 -4.08623 0
M  V30 2480 N 434.297 2.76189 -3.71603 0
M  V30 2481 H 431.458 4.797 -7.24003 0
M  V30 2482 H 431.188 3.69856 -5.84513 0
M  V30 2483 H 432.055 6.10356 -5.41441 0
M  V30 2484 P 436.017 7.20834 -5.23717 0
M  V30 2485 O 436.237 8.66104 -5.38572 0
M  V30 2486 O 436.807 6.33544 -6.1349 0
M  V30 2487 O 436.267 6.7751 -3.72168 0
M  V30 2488 C 435.327 7.20825 -2.7076 0
M  V30 2489 C 436.057 7.45864 -1.40599 0
M  V30 2490 O 436.267 6.17651 -0.734225 0
M  V30 2491 C 437.457 8.05808 -1.51899 0
M  V30 2492 O 437.847 8.74358 -0.335205 0
M  V30 2493 C 438.337 6.83093 -1.70294 0
M  V30 2494 C 437.627 5.79992 -0.836974 0
M  V30 2495 N 437.677 4.41864 -1.38293 0
M  V30 2496 H 434.838 8.13644 -3.0377 0
M  V30 2497 H 434.568 6.42788 -2.55485 0
M  V30 2498 H 435.435 8.12039 -0.792769 0
M  V30 2499 P 439.397 8.91 2.44069e-12 0
M  V30 2500 O 439.617 10.1726 0.733694 0
M  V30 2501 O 440.187 8.73148 -1.23936 0
M  V30 2502 O 439.647 7.66872 0.971405 0
M  V30 2503 C 438.707 7.42309 2.04641 0
M  V30 2504 C 439.437 6.86059 3.24661 0
M  V30 2505 O 439.647 5.42847 3.03646 0
M  V30 2506 C 440.837 7.41196 3.50753 0
M  V30 2507 O 441.227 7.27073 4.86816 0
M  V30 2508 C 441.717 6.5273 2.63741 0
M  V30 2509 C 441.007 5.1842 2.73198 0
M  V30 2510 N 441.057 4.38762 1.4784 0
M  V30 2511 H 438.218 8.36803 2.32493 0
M  V30 2512 H 437.948 6.70197 1.71129 0
M  V30 2513 H 438.815 7.03551 4.13168 0
M  V30 2514 P 442.777 7.20834 5.23717 0
M  V30 2515 O 442.997 7.79853 6.57286 0
M  V30 2516 O 443.567 7.79239 4.12957 0
M  V30 2517 O 443.027 5.63315 5.29344 0
M  V30 2518 C 442.087 4.80255 6.01876 0
M  V30 2519 C 442.817 3.64202 6.65911 0
M  V30 2520 O 443.027 2.60694 5.64732 0
M  V30 2521 C 444.217 3.93473 7.1943 0
M  V30 2522 O 444.607 3.02071 8.21205 0
M  V30 2523 C 445.097 3.73047 5.97036 0
M  V30 2524 C 444.387 2.58828 5.25741 0
M  V30 2525 N 444.437 2.68068 3.77503 0
M  V30 2526 H 441.598 5.40332 6.79951 0
M  V30 2527 H 441.328 4.41613 5.32378 0
M  V30 2528 H 442.195 3.26331 7.47797 0
M  V30 2529 P 446.157 2.75334 8.47391 0
M  V30 2530 O 446.377 2.44571 9.90142 0
M  V30 2531 O 446.947 3.87688 7.92115 0
M  V30 2532 O 446.407 1.4459 7.59357 0
M  V30 2533 C 445.467 0.347608 7.69215 0
M  V30 2534 C 446.197 -0.96767 7.52806 0
M  V30 2535 O 446.407 -1.21036 6.1011 0
M  V30 2536 C 447.597 -1.04544 8.13308 0
M  V30 2537 O 447.987 -2.38311 8.41922 0
M  V30 2538 C 448.477 -0.491279 7.02284 0
M  V30 2539 C 447.767 -0.996264 5.77469 0
M  V30 2540 N 447.817 -0.0501916 4.62973 0
M  V30 2541 H 444.978 0.374722 8.67691 0
M  V30 2542 H 444.708 0.443485 6.90277 0
M  V30 2543 H 445.575 -1.75537 7.96793 0
M  V30 2544 P 449.537 -2.75334 8.47391 0
M  V30 2545 O 449.757 -3.84204 9.44982 0
M  V30 2546 O 450.327 -1.51982 8.68909 0
M  V30 2547 O 449.787 -3.29363 6.99321 0
M  V30 2548 C 448.847 -4.24066 6.42823 0
M  V30 2549 C 449.577 -5.20775 5.52155 0
M  V30 2550 O 449.787 -4.56607 4.22514 0
M  V30 2551 C 450.977 -5.62697 5.96604 0
M  V30 2552 O 451.367 -6.87667 5.41053 0
M  V30 2553 C 451.857 -4.52537 5.39283 0
M  V30 2554 C 451.147 -4.20027 4.08623 0
M  V30 2555 N 451.197 -2.76189 3.71603 0
M  V30 2556 H 448.359 -4.79756 7.24086 0
M  V30 2557 H 448.087 -3.69963 5.84682 0
M  V30 2558 H 448.955 -6.10431 5.41508 0
M  V30 2559 H 451.61 -4.78816 3.28024 0
M  V30 2560 H 451.89 -3.64957 6.05871 0
M  V30 2561 H 452.881 -4.88748 5.21323 0
M  V30 2562 H 451.047 -5.66789 7.0643 0
M  V30 2563 P 452.917 -7.20834 5.23717 0
M  V30 2564 O 453.137 -8.66104 5.38572 0
M  V30 2565 O 453.707 -6.33544 6.1349 0
M  V30 2566 O 453.167 -6.7751 3.72168 0
M  V30 2567 C 452.227 -7.20825 2.7076 0
M  V30 2568 C 452.957 -7.45864 1.40599 0
M  V30 2569 O 453.167 -6.17651 0.734225 0
M  V30 2570 C 454.357 -8.05808 1.51899 0
M  V30 2571 O 454.747 -8.74358 0.335205 0
M  V30 2572 C 455.237 -6.83093 1.70294 0
M  V30 2573 C 454.527 -5.79992 0.836974 0
M  V30 2574 N 454.577 -4.41864 1.38293 0
M  V30 2575 H 451.738 -8.13644 3.0377 0
M  V30 2576 H 451.468 -6.42788 2.55485 0
M  V30 2577 H 452.335 -8.12039 0.792769 0
M  V30 2578 P 456.297 -8.91 -2.59788e-12 0
M  V30 2579 O 456.517 -10.1726 -0.733694 0
M  V30 2580 O 457.087 -8.73148 1.23936 0
M  V30 2581 O 456.547 -7.66872 -0.971405 0
M  V30 2582 C 455.607 -7.42309 -2.04641 0
M  V30 2583 C 456.337 -6.86059 -3.24661 0
M  V30 2584 O 456.547 -5.42847 -3.03646 0
M  V30 2585 C 457.737 -7.41196 -3.50753 0
M  V30 2586 O 458.127 -7.27073 -4.86816 0
M  V30 2587 C 458.617 -6.5273 -2.63741 0
M  V30 2588 C 457.907 -5.1842 -2.73198 0
M  V30 2589 N 457.957 -4.38762 -1.4784 0
M  V30 2590 C 457.877 -4.81605 -0.168631 0
M  V30 2591 N 457.957 -3.85454 0.713363 0
M  V30 2592 C 458.097 -2.6994 -0.0566958 0
M  V30 2593 C 458.227 -1.34815 0.338502 0
M  V30 2594 O 458.247 -0.869548 1.47125 0
M  V30 2595 N 458.347 -0.496304 -0.77465 0
M  V30 2596 C 458.347 -0.908403 -2.09122 0
M  V30 2597 N 458.477 0.0517805 -3.00955 0
M  V30 2598 N 458.217 -2.17875 -2.46519 0
M  V30 2599 C 458.097 -3.01988 -1.4033 0
M  V30 2600 H 455.118 -8.36803 -2.32493 0
M  V30 2601 H 454.848 -6.70197 -1.71129 0
M  V30 2602 H 455.715 -7.03551 -4.13168 0
M  V30 2603 H 458.37 -4.59498 -3.54415 0
M  V30 2604 H 458.649 -6.88898 -1.59848 0
M  V30 2605 H 459.641 -6.46749 -3.03687 0
M  V30 2606 H 457.807 -8.46908 -3.20714 0
M  V30 2607 H 457.758 -5.86405 0.105564 0
M  V30 2608 H 458.44 0.483664 -0.597855 0
M  V30 2609 H 458.477 -0.187865 -4.0116 0
M  V30 2610 H 458.578 1.03585 -2.71726 0
M  V30 2611 P 459.677 -7.20834 -5.23717 0
M  V30 2612 O 459.897 -7.79853 -6.57286 0
M  V30 2613 O 460.467 -7.79239 -4.12957 0
M  V30 2614 O 459.927 -5.63315 -5.29344 0
M  V30 2615 C 458.987 -4.80255 -6.01876 0
M  V30 2616 C 459.717 -3.64202 -6.65911 0
M  V30 2617 O 459.927 -2.60694 -5.64732 0
M  V30 2618 C 461.117 -3.93473 -7.1943 0
M  V30 2619 O 461.507 -3.02071 -8.21205 0
M  V30 2620 C 461.997 -3.73047 -5.97036 0
M  V30 2621 C 461.287 -2.58828 -5.25741 0
M  V30 2622 N 461.337 -2.68068 -3.77503 0
M  V30 2623 H 458.498 -5.40332 -6.79951 0
M  V30 2624 H 458.228 -4.41613 -5.32378 0
M  V30 2625 H 459.095 -3.26331 -7.47797 0
M  V30 2626 P 463.057 -2.75334 -8.47391 0
M  V30 2627 O 463.277 -2.44571 -9.90142 0
M  V30 2628 O 463.847 -3.87688 -7.92115 0
M  V30 2629 O 463.307 -1.4459 -7.59357 0
M  V30 2630 C 462.367 -0.347608 -7.69215 0
M  V30 2631 C 463.097 0.96767 -7.52806 0
M  V30 2632 O 463.307 1.21036 -6.1011 0
M  V30 2633 C 464.497 1.04544 -8.13308 0
M  V30 2634 O 464.887 2.38311 -8.41922 0
M  V30 2635 C 465.377 0.491279 -7.02284 0
M  V30 2636 C 464.667 0.996264 -5.77469 0
M  V30 2637 N 464.717 0.0501916 -4.62973 0
M  V30 2638 C 464.637 -1.32786 -4.63244 0
M  V30 2639 N 464.717 -1.86957 -3.44545 0
M  V30 2640 C 464.857 -0.780241 -2.58481 0
M  V30 2641 C 464.987 -0.738536 -1.17757 0
M  V30 2642 O 465.007 -1.66794 -0.372349 0
M  V30 2643 N 465.107 0.58337 -0.711393 0
M  V30 2644 C 465.107 1.70816 -1.51017 0
M  V30 2645 N 465.237 2.87826 -0.880757 0
M  V30 2646 N 464.977 1.67126 -2.8339 0
M  V30 2647 C 464.857 0.401421 -3.30572 0
M  V30 2648 H 461.878 -0.374722 -8.67691 0
M  V30 2649 H 461.608 -0.443485 -6.90277 0
M  V30 2650 H 462.475 1.75537 -7.96793 0
M  V30 2651 H 465.13 1.95076 -5.46529 0
M  V30 2652 H 465.409 -0.608565 -7.04577 0
M  V30 2653 H 466.401 0.889672 -7.08939 0
M  V30 2654 H 464.567 0.43308 -9.04564 0
M  V30 2655 H 464.518 -1.91249 -5.54442 0
M  V30 2656 H 465.2 0.718054 0.275244 0
M  V30 2657 H 465.237 3.75721 -1.41832 0
M  V30 2658 H 465.338 2.90436 0.145468 0
M  V30 2659 P 466.437 2.75334 -8.47391 0
M  V30 2660 O 466.657 3.84128 -9.44797 0
M  V30 2661 O 467.227 1.51947 -8.68712 0
M  V30 2662 O 466.687 3.29363 -6.99321 0
M  V30 2663 C 465.747 4.24011 -6.4274 0
M  V30 2664 C 466.477 5.20775 -5.52155 0
M  V30 2665 O 466.687 4.56534 -4.22446 0
M  V30 2666 C 467.877 5.62629 -5.96531 0
M  V30 2667 O 468.267 6.87667 -5.41053 0
M  V30 2668 C 468.757 4.52537 -5.39283 0
M  V30 2669 C 468.047 4.20027 -4.08623 0
M  V30 2670 N 468.097 2.76189 -3.71603 0
M  V30 2671 H 465.258 4.797 -7.24003 0
M  V30 2672 H 464.988 3.69856 -5.84513 0
M  V30 2673 H 465.855 6.10356 -5.41441 0
M  V30 2674 P 469.817 7.20834 -5.23717 0
M  V30 2675 O 470.037 8.66104 -5.38572 0
M  V30 2676 O 470.607 6.33544 -6.1349 0
M  V30 2677 O 470.067 6.7751 -3.72168 0
M  V30 2678 C 469.127 7.20825 -2.7076 0
M  V30 2679 C 469.857 7.45864 -1.40599 0
M  V30 2680 O 470.067 6.17651 -0.734225 0
M  V30 2681 C 471.257 8.05808 -1.51899 0
M  V30 2682 O 471.647 8.74358 -0.335205 0
M  V30 2683 C 472.137 6.83093 -1.70294 0
M  V30 2684 C 471.427 5.79992 -0.836974 0
M  V30 2685 N 471.477 4.41864 -1.38293 0
M  V30 2686 H 468.638 8.13644 -3.0377 0
M  V30 2687 H 468.368 6.42788 -2.55485 0
M  V30 2688 H 469.235 8.12039 -0.792769 0
M  V30 2689 P 473.197 8.91 2.75506e-12 0
M  V30 2690 O 473.417 10.1746 0.733838 0
M  V30 2691 O 473.987 8.73346 -1.23964 0
M  V30 2692 O 473.447 7.66872 0.971405 0
M  V30 2693 C 472.507 7.42405 2.04668 0
M  V30 2694 C 473.237 6.86059 3.24661 0
M  V30 2695 O 473.447 5.42934 3.03695 0
M  V30 2696 C 474.637 7.41287 3.50796 0
M  V30 2697 O 475.027 7.27073 4.86816 0
M  V30 2698 C 475.517 6.5273 2.63741 0
M  V30 2699 C 474.807 5.1842 2.73198 0
M  V30 2700 N 474.857 4.38762 1.4784 0
M  V30 2701 C 474.777 4.83651 0.183876 0
M  V30 2702 N 474.847 3.88759 -0.699393 0
M  V30 2703 C 474.997 2.7404 0.0575568 0
M  V30 2704 C 475.127 1.37902 -0.293928 0
M  V30 2705 N 475.137 0.938021 -1.54797 0
M  V30 2706 N 475.247 0.491817 0.70549 0
M  V30 2707 C 475.237 0.931735 1.95979 0
M  V30 2708 N 475.117 2.16017 2.41481 0
M  V30 2709 C 474.997 3.02547 1.39121 0
M  V30 2710 H 472.019 8.36899 2.3252 0
M  V30 2711 H 471.747 6.70391 1.71179 0
M  V30 2712 H 472.615 7.03638 4.13219 0
M  V30 2713 H 475.27 4.59931 3.54016 0
M  V30 2714 H 475.55 6.88995 1.59871 0
M  V30 2715 H 476.541 6.4684 3.0373 0
M  V30 2716 H 474.707 8.47002 3.20749 0
M  V30 2717 H 474.666 5.8885 -0.0765548 0
M  V30 2718 H 475.047 1.60276 -2.32875 0
M  V30 2719 H 475.236 -0.0699355 -1.73859 0
M  V30 2720 H 475.344 0.165507 2.71897 0
M  V30 2721 P 476.577 7.20834 5.23717 0
M  V30 2722 O 476.797 7.79853 6.57286 0
M  V30 2723 O 477.367 7.79239 4.12957 0
M  V30 2724 O 476.827 5.63315 5.29344 0
M  V30 2725 C 475.887 4.80255 6.01876 0
M  V30 2726 C 476.617 3.64202 6.65911 0
M  V30 2727 O 476.827 2.60694 5.64732 0
M  V30 2728 C 478.017 3.93473 7.1943 0
M  V30 2729 O 478.407 3.02071 8.21205 0
M  V30 2730 C 478.897 3.73047 5.97036 0
M  V30 2731 C 478.187 2.58828 5.25741 0
M  V30 2732 N 478.237 2.68068 3.77503 0
M  V30 2733 H 475.398 5.40332 6.79951 0
M  V30 2734 H 475.128 4.41613 5.32378 0
M  V30 2735 H 475.995 3.26331 7.47797 0
M  V30 2736 P 479.957 2.75334 8.47391 0
M  V30 2737 O 480.177 2.44571 9.90142 0
M  V30 2738 O 480.747 3.87688 7.92115 0
M  V30 2739 O 480.207 1.4459 7.59357 0
M  V30 2740 C 479.267 0.347608 7.69215 0
M  V30 2741 C 479.997 -0.96767 7.52806 0
M  V30 2742 O 480.207 -1.21036 6.1011 0
M  V30 2743 C 481.397 -1.04544 8.13308 0
M  V30 2744 O 481.787 -2.38311 8.41922 0
M  V30 2745 C 482.277 -0.491279 7.02284 0
M  V30 2746 C 481.567 -0.996264 5.77469 0
M  V30 2747 N 481.617 -0.0501916 4.62973 0
M  V30 2748 H 478.778 0.374722 8.67691 0
M  V30 2749 H 478.508 0.443485 6.90277 0
M  V30 2750 H 479.375 -1.75537 7.96793 0
M  V30 2751 P 483.337 -2.75334 8.47391 0
M  V30 2752 O 483.557 -3.84128 9.44797 0
M  V30 2753 O 484.127 -1.51947 8.68712 0
M  V30 2754 O 483.587 -3.29363 6.99321 0
M  V30 2755 C 482.647 -4.24011 6.4274 0
M  V30 2756 C 483.377 -5.20775 5.52155 0
M  V30 2757 O 483.587 -4.56534 4.22446 0
M  V30 2758 C 484.777 -5.62629 5.96531 0
M  V30 2759 O 485.167 -6.87667 5.41053 0
M  V30 2760 C 485.657 -4.52537 5.39283 0
M  V30 2761 C 484.947 -4.20027 4.08623 0
M  V30 2762 N 484.997 -2.76189 3.71603 0
M  V30 2763 H 482.158 -4.797 7.24003 0
M  V30 2764 H 481.888 -3.69856 5.84513 0
M  V30 2765 H 482.755 -6.10356 5.41441 0
M  V30 2766 P 486.717 -7.20834 5.23717 0
M  V30 2767 O 486.937 -8.66104 5.38572 0
M  V30 2768 O 487.507 -6.33544 6.1349 0
M  V30 2769 O 486.967 -6.7751 3.72168 0
M  V30 2770 C 486.027 -7.20825 2.7076 0
M  V30 2771 C 486.757 -7.45864 1.40599 0
M  V30 2772 O 486.967 -6.17651 0.734225 0
M  V30 2773 C 488.157 -8.05808 1.51899 0
M  V30 2774 O 488.547 -8.74358 0.335205 0
M  V30 2775 C 489.037 -6.83093 1.70294 0
M  V30 2776 C 488.327 -5.79992 0.836974 0
M  V30 2777 N 488.377 -4.41864 1.38293 0
M  V30 2778 C 488.297 -3.99538 2.69438 0
M  V30 2779 N 488.377 -2.69909 2.84277 0
M  V30 2780 C 488.517 -2.21719 1.5408 0
M  V30 2781 C 488.647 -0.891712 1.06628 0
M  V30 2782 N 488.767 -0.856846 -0.334985 0
M  V30 2783 C 488.767 -1.9641 -1.15789 0
M  V30 2784 N 488.897 -1.72708 -2.46522 0
M  V30 2785 N 488.637 -3.21165 -0.713741 0
M  V30 2786 C 488.517 -3.26797 0.639748 0
M  V30 2787 H 485.538 -8.13644 3.0377 0
M  V30 2788 H 485.268 -6.42788 2.55485 0
M  V30 2789 H 486.135 -8.12039 0.792769 0
M  V30 2790 P 490.097 -8.91 -2.91224e-12 0
M  V30 2791 O 490.317 -10.1726 -0.733694 0
M  V30 2792 O 490.887 -8.73148 1.23936 0
M  V30 2793 O 490.347 -7.66872 -0.971405 0
M  V30 2794 C 489.407 -7.42309 -2.04641 0
M  V30 2795 C 490.137 -6.86059 -3.24661 0
M  V30 2796 O 490.347 -5.42847 -3.03646 0
M  V30 2797 C 491.537 -7.41196 -3.50753 0
M  V30 2798 O 491.927 -7.27073 -4.86816 0
M  V30 2799 C 492.417 -6.5273 -2.63741 0
M  V30 2800 C 491.707 -5.1842 -2.73198 0
M  V30 2801 N 491.757 -4.38762 -1.4784 0
M  V30 2802 H 488.918 -8.36803 -2.32493 0
M  V30 2803 H 488.648 -6.70197 -1.71129 0
M  V30 2804 H 489.515 -7.03551 -4.13168 0
M  V30 2805 P 493.477 -7.20834 -5.23717 0
M  V30 2806 O 493.697 -7.79853 -6.57286 0
M  V30 2807 O 494.267 -7.79239 -4.12957 0
M  V30 2808 O 493.727 -5.63315 -5.29344 0
M  V30 2809 C 492.787 -4.80255 -6.01876 0
M  V30 2810 C 493.517 -3.64202 -6.65911 0
M  V30 2811 O 493.727 -2.60694 -5.64732 0
M  V30 2812 C 494.917 -3.93473 -7.1943 0
M  V30 2813 O 495.307 -3.02071 -8.21205 0
M  V30 2814 C 495.797 -3.73047 -5.97036 0
M  V30 2815 C 495.087 -2.58828 -5.25741 0
M  V30 2816 N 495.137 -2.68068 -3.77503 0
M  V30 2817 H 492.298 -5.40332 -6.79951 0
M  V30 2818 H 492.028 -4.41613 -5.32378 0
M  V30 2819 H 492.895 -3.26331 -7.47797 0
M  V30 2820 P 496.857 -2.75334 -8.47391 0
M  V30 2821 O 497.077 -2.44571 -9.90142 0
M  V30 2822 O 497.647 -3.87688 -7.92115 0
M  V30 2823 O 497.107 -1.4459 -7.59357 0
M  V30 2824 C 496.167 -0.347608 -7.69215 0
M  V30 2825 C 496.897 0.96767 -7.52806 0
M  V30 2826 O 497.107 1.21036 -6.1011 0
M  V30 2827 C 498.297 1.04544 -8.13308 0
M  V30 2828 O 498.687 2.38311 -8.41922 0
M  V30 2829 C 499.177 0.491279 -7.02284 0
M  V30 2830 C 498.467 0.996264 -5.77469 0
M  V30 2831 N 498.517 0.0501916 -4.62973 0
M  V30 2832 H 495.678 -0.374722 -8.67691 0
M  V30 2833 H 495.408 -0.443485 -6.90277 0
M  V30 2834 H 496.275 1.75537 -7.96793 0
M  V30 2835 P 500.237 2.75334 -8.47391 0
M  V30 2836 O 500.457 3.84128 -9.44797 0
M  V30 2837 O 501.027 1.51947 -8.68712 0
M  V30 2838 O 500.487 3.29363 -6.99321 0
M  V30 2839 C 499.547 4.24011 -6.4274 0
M  V30 2840 C 500.277 5.20775 -5.52155 0
M  V30 2841 O 500.487 4.56534 -4.22446 0
M  V30 2842 C 501.677 5.62629 -5.96531 0
M  V30 2843 O 502.067 6.87667 -5.41053 0
M  V30 2844 C 502.557 4.52537 -5.39283 0
M  V30 2845 C 501.847 4.20027 -4.08623 0
M  V30 2846 N 501.897 2.76189 -3.71603 0
M  V30 2847 H 499.058 4.797 -7.24003 0
M  V30 2848 H 498.788 3.69856 -5.84513 0
M  V30 2849 H 499.655 6.10356 -5.41441 0
M  V30 2850 P 503.617 7.20834 -5.23717 0
M  V30 2851 O 503.837 8.66104 -5.38572 0
M  V30 2852 O 504.407 6.33544 -6.1349 0
M  V30 2853 O 503.867 6.7751 -3.72168 0
M  V30 2854 C 502.927 7.20825 -2.7076 0
M  V30 2855 C 503.657 7.45864 -1.40599 0
M  V30 2856 O 503.867 6.17651 -0.734225 0
M  V30 2857 C 505.057 8.05808 -1.51899 0
M  V30 2858 O 505.447 8.74358 -0.335205 0
M  V30 2859 C 505.937 6.83093 -1.70294 0
M  V30 2860 C 505.227 5.79992 -0.836974 0
M  V30 2861 N 505.277 4.41864 -1.38293 0
M  V30 2862 H 502.438 8.13644 -3.0377 0
M  V30 2863 H 502.168 6.42788 -2.55485 0
M  V30 2864 H 503.035 8.12039 -0.792769 0
M  V30 2865 P 506.997 8.91 3.06942e-12 0
M  V30 2866 O 507.217 10.1726 0.733694 0
M  V30 2867 O 507.787 8.73148 -1.23936 0
M  V30 2868 O 507.247 7.66872 0.971405 0
M  V30 2869 C 506.307 7.42309 2.04641 0
M  V30 2870 C 507.037 6.86059 3.24661 0
M  V30 2871 O 507.247 5.42847 3.03646 0
M  V30 2872 C 508.437 7.41196 3.50753 0
M  V30 2873 O 508.827 7.27073 4.86816 0
M  V30 2874 C 509.317 6.5273 2.63741 0
M  V30 2875 C 508.607 5.1842 2.73198 0
M  V30 2876 N 508.657 4.38762 1.4784 0
M  V30 2877 H 505.818 8.36803 2.32493 0
M  V30 2878 H 505.548 6.70197 1.71129 0
M  V30 2879 H 506.415 7.03551 4.13168 0
M  V30 2880 P 510.377 7.20834 5.23717 0
M  V30 2881 O 510.597 7.7993 6.57351 0
M  V30 2882 O 511.167 7.79328 4.13004 0
M  V30 2883 O 510.627 5.63315 5.29344 0
M  V30 2884 C 509.687 4.80193 6.01798 0
M  V30 2885 C 510.417 3.64202 6.65911 0
M  V30 2886 O 510.627 2.60694 5.64732 0
M  V30 2887 C 511.817 3.93473 7.1943 0
M  V30 2888 O 512.207 3.02071 8.21205 0
M  V30 2889 C 512.697 3.73047 5.97036 0
M  V30 2890 C 511.987 2.58828 5.25741 0
M  V30 2891 N 512.037 2.6801 3.77422 0
M  V30 2892 C 512.187 1.50443 3.07133 0
M  V30 2893 O 512.277 0.419406 3.61576 0
M  V30 2894 N 512.227 1.6403 1.69677 0
M  V30 2895 C 512.137 2.81206 0.986255 0
M  V30 2896 O 512.187 2.80892 -0.249754 0
M  V30 2897 C 511.987 3.99158 1.80325 0
M  V30 2898 C 511.877 5.29309 1.06921 0
M  V30 2899 C 511.937 3.89779 3.1476 0
M  V30 2900 H 509.197 5.40332 6.79951 0
M  V30 2901 H 508.928 4.41549 5.32301 0
M  V30 2902 H 509.795 3.26331 7.47797 0
M  V30 2903 H 512.45 1.6395 5.56554 0
M  V30 2904 H 512.729 4.63439 5.3432 0
M  V30 2905 H 513.721 3.44728 6.25838 0
M  V30 2906 H 511.887 4.96652 7.57263 0
M  V30 2907 H 511.816 4.80159 3.74441 0
M  V30 2908 H 512.846 5.81459 1.09608 0
M  V30 2909 H 511.109 5.9187 1.54487 0
M  V30 2910 H 511.597 5.10095 0.0220288 0
M  V30 2911 H 512.333 0.798962 1.16664 0
M  V30 2912 P 513.757 2.75334 8.47391 0
M  V30 2913 O 513.977 2.44571 9.90142 0
M  V30 2914 O 514.547 3.87688 7.92115 0
M  V30 2915 O 514.007 1.4459 7.59357 0
M  V30 2916 C 513.067 0.347608 7.69215 0
M  V30 2917 C 513.797 -0.96767 7.52806 0
M  V30 2918 O 514.007 -1.21036 6.1011 0
M  V30 2919 C 515.197 -1.04544 8.13308 0
M  V30 2920 O 515.587 -2.38311 8.41922 0
M  V30 2921 C 516.077 -0.491279 7.02284 0
M  V30 2922 C 515.367 -0.996264 5.77469 0
M  V30 2923 N 515.417 -0.0501916 4.62973 0
M  V30 2924 H 512.578 0.374722 8.67691 0
M  V30 2925 H 512.308 0.443485 6.90277 0
M  V30 2926 H 513.175 -1.75537 7.96793 0
M  V30 2927 P 517.137 -2.75334 8.47391 0
M  V30 2928 O 517.357 -3.84128 9.44797 0
M  V30 2929 O 517.927 -1.51947 8.68712 0
M  V30 2930 O 517.387 -3.29363 6.99321 0
M  V30 2931 C 516.447 -4.24011 6.4274 0
M  V30 2932 C 517.177 -5.20775 5.52155 0
M  V30 2933 O 517.387 -4.56534 4.22446 0
M  V30 2934 C 518.577 -5.62629 5.96531 0
M  V30 2935 O 518.967 -6.87667 5.41053 0
M  V30 2936 C 519.457 -4.52537 5.39283 0
M  V30 2937 C 518.747 -4.20027 4.08623 0
M  V30 2938 N 518.797 -2.76189 3.71603 0
M  V30 2939 H 515.958 -4.797 7.24003 0
M  V30 2940 H 515.688 -3.69856 5.84513 0
M  V30 2941 H 516.555 -6.10356 5.41441 0
M  V30 2942 P 520.517 -7.20834 5.23717 0
M  V30 2943 O 520.737 -8.66104 5.38572 0
M  V30 2944 O 521.307 -6.33544 6.1349 0
M  V30 2945 O 520.767 -6.7751 3.72168 0
M  V30 2946 C 519.827 -7.20825 2.7076 0
M  V30 2947 C 520.557 -7.45864 1.40599 0
M  V30 2948 O 520.767 -6.17651 0.734225 0
M  V30 2949 C 521.957 -8.05808 1.51899 0
M  V30 2950 O 522.347 -8.74358 0.335205 0
M  V30 2951 C 522.837 -6.83093 1.70294 0
M  V30 2952 C 522.127 -5.79992 0.836974 0
M  V30 2953 N 522.177 -4.41864 1.38293 0
M  V30 2954 C 522.097 -3.99538 2.69438 0
M  V30 2955 N 522.177 -2.69909 2.84277 0
M  V30 2956 C 522.317 -2.21719 1.5408 0
M  V30 2957 C 522.447 -0.891712 1.06628 0
M  V30 2958 O 522.467 0.161298 1.70137 0
M  V30 2959 N 522.567 -0.856846 -0.334985 0
M  V30 2960 C 522.567 -1.9641 -1.15789 0
M  V30 2961 N 522.697 -1.72708 -2.46522 0
M  V30 2962 N 522.437 -3.21165 -0.713741 0
M  V30 2963 C 522.317 -3.26797 0.639748 0
M  V30 2964 H 519.338 -8.13644 3.0377 0
M  V30 2965 H 519.068 -6.42788 2.55485 0
M  V30 2966 H 519.935 -8.12039 0.792769 0
M  V30 2967 H 522.59 -5.80061 -0.166416 0
M  V30 2968 H 522.869 -6.51287 2.75604 0
M  V30 2969 H 523.861 -7.01734 1.34462 0
M  V30 2970 H 522.027 -8.73674 2.38337 0
M  V30 2971 H 521.978 -4.68207 3.53221 0
M  V30 2972 H 522.66 0.0398818 -0.767965 0
M  V30 2973 H 522.697 -2.50995 -3.13503 0
M  V30 2974 H 522.798 -0.759148 -2.80716 0
M  V30 2975 P 523.897 -8.91 -3.22661e-12 0
M  V30 2976 O 524.117 -10.1746 -0.733838 0
M  V30 2977 O 524.687 -8.73346 1.23964 0
M  V30 2978 O 524.147 -7.66872 -0.971405 0
M  V30 2979 C 523.207 -7.42405 -2.04668 0
M  V30 2980 C 523.937 -6.86059 -3.24661 0
M  V30 2981 O 524.147 -5.42934 -3.03695 0
M  V30 2982 C 525.337 -7.41287 -3.50796 0
M  V30 2983 O 525.727 -7.27073 -4.86816 0
M  V30 2984 C 526.217 -6.5273 -2.63741 0
M  V30 2985 C 525.507 -5.1842 -2.73198 0
M  V30 2986 N 525.557 -4.38762 -1.4784 0
M  V30 2987 C 525.477 -4.83651 -0.183876 0
M  V30 2988 N 525.547 -3.88759 0.699393 0
M  V30 2989 C 525.697 -2.7404 -0.0575568 0
M  V30 2990 C 525.827 -1.37902 0.293928 0
M  V30 2991 N 525.837 -0.938021 1.54797 0
M  V30 2992 N 525.947 -0.491817 -0.70549 0
M  V30 2993 C 525.937 -0.931735 -1.95979 0
M  V30 2994 N 525.817 -2.16017 -2.41481 0
M  V30 2995 C 525.697 -3.02547 -1.39121 0
M  V30 2996 H 522.719 -8.36899 -2.3252 0
M  V30 2997 H 522.447 -6.70391 -1.71179 0
M  V30 2998 H 523.315 -7.03638 -4.13219 0
M  V30 2999 H 525.97 -4.59931 -3.54016 0
M  V30 3000 H 526.25 -6.88995 -1.59871 0
M  V30 3001 H 527.241 -6.4684 -3.0373 0
M  V30 3002 H 525.407 -8.47002 -3.20749 0
M  V30 3003 H 525.366 -5.8885 0.0765548 0
M  V30 3004 H 525.747 -1.60276 2.32875 0
M  V30 3005 H 525.936 0.0699355 1.73859 0
M  V30 3006 H 526.044 -0.165507 -2.71897 0
M  V30 3007 P 527.277 -7.20834 -5.23717 0
M  V30 3008 O 527.497 -7.7993 -6.57351 0
M  V30 3009 O 528.067 -7.79328 -4.13004 0
M  V30 3010 O 527.527 -5.63315 -5.29344 0
M  V30 3011 C 526.587 -4.80193 -6.01798 0
M  V30 3012 C 527.317 -3.64202 -6.65911 0
M  V30 3013 O 527.527 -2.60694 -5.64732 0
M  V30 3014 C 528.717 -3.93473 -7.1943 0
M  V30 3015 O 529.107 -3.02071 -8.21205 0
M  V30 3016 C 529.597 -3.73047 -5.97036 0
M  V30 3017 C 528.887 -2.58828 -5.25741 0
M  V30 3018 N 528.937 -2.6801 -3.77422 0
M  V30 3019 C 529.087 -1.50443 -3.07133 0
M  V30 3020 O 529.177 -0.419406 -3.61576 0
M  V30 3021 N 529.127 -1.6403 -1.69677 0
M  V30 3022 C 529.037 -2.81206 -0.986255 0
M  V30 3023 O 529.087 -2.80892 0.249754 0
M  V30 3024 C 528.887 -3.99158 -1.80325 0
M  V30 3025 C 528.777 -5.29309 -1.06921 0
M  V30 3026 C 528.837 -3.89779 -3.1476 0
M  V30 3027 H 526.097 -5.40332 -6.79951 0
M  V30 3028 H 525.828 -4.41549 -5.32301 0
M  V30 3029 H 526.695 -3.26331 -7.47797 0
M  V30 3030 H 529.35 -1.6395 -5.56554 0
M  V30 3031 H 529.629 -4.63439 -5.3432 0
M  V30 3032 H 530.621 -3.44728 -6.25838 0
M  V30 3033 H 528.787 -4.96652 -7.57263 0
M  V30 3034 H 528.716 -4.80159 -3.74441 0
M  V30 3035 H 529.746 -5.81459 -1.09608 0
M  V30 3036 H 528.009 -5.9187 -1.54487 0
M  V30 3037 H 528.497 -5.10095 -0.0220288 0
M  V30 3038 H 529.233 -0.798962 -1.16664 0
M  V30 3039 P 530.657 -2.75334 -8.47391 0
M  V30 3040 O 530.877 -2.44595 -9.90239 0
M  V30 3041 O 531.447 -3.87732 -7.92204 0
M  V30 3042 O 530.907 -1.4459 -7.59357 0
M  V30 3043 C 529.967 -0.347563 -7.69115 0
M  V30 3044 C 530.697 0.96767 -7.52806 0
M  V30 3045 O 530.907 1.21036 -6.1011 0
M  V30 3046 C 532.097 1.04544 -8.13308 0
M  V30 3047 O 532.487 2.38311 -8.41922 0
M  V30 3048 C 532.977 0.491279 -7.02284 0
M  V30 3049 C 532.267 0.996264 -5.77469 0
M  V30 3050 N 532.317 0.0501808 -4.62873 0
M  V30 3051 C 532.467 0.588177 -3.36904 0
M  V30 3052 O 532.557 1.78598 -3.17173 0
M  V30 3053 N 532.507 -0.329694 -2.33686 0
M  V30 3054 C 532.417 -1.6953 -2.45079 0
M  V30 3055 O 532.467 -2.41926 -1.44899 0
M  V30 3056 C 532.267 -2.16933 -3.80505 0
M  V30 3057 C 532.157 -3.65373 -3.97621 0
M  V30 3058 C 532.217 -1.30326 -4.83752 0
M  V30 3059 H 529.477 -0.374722 -8.67691 0
M  V30 3060 H 529.208 -0.443421 -6.90177 0
M  V30 3061 H 530.075 1.75537 -7.96793 0
M  V30 3062 H 532.73 1.94496 -5.46629 0
M  V30 3063 H 533.009 -0.608651 -7.04676 0
M  V30 3064 H 534.001 0.889672 -7.08939 0
M  V30 3065 H 532.167 0.43308 -9.04564 0
M  V30 3066 H 532.096 -1.68366 -5.8516 0
M  V30 3067 H 533.126 -4.05985 -4.30448 0
M  V30 3068 H 531.389 -3.88028 -4.72875 0
M  V30 3069 H 531.877 -4.11381 -3.01609 0
M  V30 3070 H 532.613 0.0393617 -1.41345 0
M  V30 3071 P 534.037 2.75334 -8.47391 0
M  V30 3072 O 534.257 3.84128 -9.44797 0
M  V30 3073 O 534.827 1.51947 -8.68712 0
M  V30 3074 O 534.287 3.29363 -6.99321 0
M  V30 3075 C 533.347 4.24011 -6.4274 0
M  V30 3076 C 534.077 5.20775 -5.52155 0
M  V30 3077 O 534.287 4.56534 -4.22446 0
M  V30 3078 C 535.477 5.62629 -5.96531 0
M  V30 3079 O 535.867 6.87667 -5.41053 0
M  V30 3080 C 536.357 4.52537 -5.39283 0
M  V30 3081 C 535.647 4.20027 -4.08623 0
M  V30 3082 N 535.697 2.76189 -3.71603 0
M  V30 3083 C 535.617 1.64862 -4.52822 0
M  V30 3084 N 535.697 0.512671 -3.88633 0
M  V30 3085 C 535.837 0.888083 -2.54977 0
M  V30 3086 C 535.967 0.094668 -1.38677 0
M  V30 3087 N 536.087 0.890102 -0.232633 0
M  V30 3088 C 536.087 2.26958 -0.21772 0
M  V30 3089 N 536.217 2.84626 0.97925 0
M  V30 3090 N 535.957 3.0178 -1.31033 0
M  V30 3091 C 535.837 2.26781 -2.43843 0
M  V30 3092 H 532.858 4.797 -7.24003 0
M  V30 3093 H 532.588 3.69856 -5.84513 0
M  V30 3094 H 533.455 6.10356 -5.41441 0
M  V30 3095 P 537.417 7.20834 -5.23717 0
M  V30 3096 O 537.637 8.66104 -5.38572 0
M  V30 3097 O 538.207 6.33544 -6.1349 0
M  V30 3098 O 537.667 6.7751 -3.72168 0
M  V30 3099 C 536.727 7.20825 -2.7076 0
M  V30 3100 C 537.457 7.45864 -1.40599 0
M  V30 3101 O 537.667 6.17651 -0.734225 0
M  V30 3102 C 538.857 8.05808 -1.51899 0
M  V30 3103 O 539.247 8.74358 -0.335205 0
M  V30 3104 C 539.737 6.83093 -1.70294 0
M  V30 3105 C 539.027 5.79992 -0.836974 0
M  V30 3106 N 539.077 4.41864 -1.38293 0
M  V30 3107 H 536.238 8.13644 -3.0377 0
M  V30 3108 H 535.968 6.42788 -2.55485 0
M  V30 3109 H 536.835 8.12039 -0.792769 0
M  V30 3110 P 540.797 8.91 3.38379e-12 0
M  V30 3111 O 541.017 10.1726 0.733694 0
M  V30 3112 O 541.587 8.73148 -1.23936 0
M  V30 3113 O 541.047 7.66872 0.971405 0
M  V30 3114 C 540.107 7.42309 2.04641 0
M  V30 3115 C 540.837 6.86059 3.24661 0
M  V30 3116 O 541.047 5.42847 3.03646 0
M  V30 3117 C 542.237 7.41196 3.50753 0
M  V30 3118 O 542.627 7.27073 4.86816 0
M  V30 3119 C 543.117 6.5273 2.63741 0
M  V30 3120 C 542.407 5.1842 2.73198 0
M  V30 3121 N 542.457 4.38762 1.4784 0
M  V30 3122 C 542.377 4.81605 0.168631 0
M  V30 3123 N 542.457 3.85454 -0.713363 0
M  V30 3124 C 542.597 2.6994 0.0566958 0
M  V30 3125 C 542.727 1.34815 -0.338502 0
M  V30 3126 O 542.747 0.869548 -1.47125 0
M  V30 3127 N 542.847 0.496304 0.77465 0
M  V30 3128 C 542.847 0.908403 2.09122 0
M  V30 3129 N 542.977 -0.0517805 3.00955 0
M  V30 3130 N 542.717 2.17875 2.46519 0
M  V30 3131 C 542.597 3.01988 1.4033 0
M  V30 3132 H 539.618 8.36803 2.32493 0
M  V30 3133 H 539.348 6.70197 1.71129 0
M  V30 3134 H 540.215 7.03551 4.13168 0
M  V30 3135 H 542.87 4.59498 3.54415 0
M  V30 3136 H 543.149 6.88898 1.59848 0
M  V30 3137 H 544.141 6.46749 3.03687 0
M  V30 3138 H 542.307 8.46908 3.20714 0
M  V30 3139 H 542.258 5.86405 -0.105564 0
M  V30 3140 H 542.94 -0.483664 0.597855 0
M  V30 3141 H 542.977 0.187865 4.0116 0
M  V30 3142 H 543.078 -1.03585 2.71726 0
M  V30 3143 P 544.177 7.20834 5.23717 0
M  V30 3144 O 544.397 7.79853 6.57286 0
M  V30 3145 O 544.967 7.79239 4.12957 0
M  V30 3146 O 544.427 5.63315 5.29344 0
M  V30 3147 C 543.487 4.80255 6.01876 0
M  V30 3148 C 544.217 3.64202 6.65911 0
M  V30 3149 O 544.427 2.60694 5.64732 0
M  V30 3150 C 545.617 3.93473 7.1943 0
M  V30 3151 O 546.007 3.02071 8.21205 0
M  V30 3152 C 546.497 3.73047 5.97036 0
M  V30 3153 C 545.787 2.58828 5.25741 0
M  V30 3154 N 545.837 2.68068 3.77503 0
M  V30 3155 H 542.998 5.40332 6.79951 0
M  V30 3156 H 542.728 4.41613 5.32378 0
M  V30 3157 H 543.595 3.26331 7.47797 0
M  V30 3158 P 547.557 2.75334 8.47391 0
M  V30 3159 O 547.777 2.44571 9.90142 0
M  V30 3160 O 548.347 3.87688 7.92115 0
M  V30 3161 O 547.807 1.4459 7.59357 0
M  V30 3162 C 546.867 0.347608 7.69215 0
M  V30 3163 C 547.597 -0.96767 7.52806 0
M  V30 3164 O 547.807 -1.21036 6.1011 0
M  V30 3165 C 548.997 -1.04544 8.13308 0
M  V30 3166 O 549.387 -2.38311 8.41922 0
M  V30 3167 C 549.877 -0.491279 7.02284 0
M  V30 3168 C 549.167 -0.996264 5.77469 0
M  V30 3169 N 549.217 -0.0501916 4.62973 0
M  V30 3170 H 546.378 0.374722 8.67691 0
M  V30 3171 H 546.108 0.443485 6.90277 0
M  V30 3172 H 546.975 -1.75537 7.96793 0
M  V30 3173 P 550.937 -2.75334 8.47391 0
M  V30 3174 O 551.157 -3.84128 9.44797 0
M  V30 3175 O 551.727 -1.51947 8.68712 0
M  V30 3176 O 551.187 -3.29363 6.99321 0
M  V30 3177 C 550.247 -4.24011 6.4274 0
M  V30 3178 C 550.977 -5.20775 5.52155 0
M  V30 3179 O 551.187 -4.56534 4.22446 0
M  V30 3180 C 552.377 -5.62629 5.96531 0
M  V30 3181 O 552.767 -6.87667 5.41053 0
M  V30 3182 C 553.257 -4.52537 5.39283 0
M  V30 3183 C 552.547 -4.20027 4.08623 0
M  V30 3184 N 552.597 -2.76189 3.71603 0
M  V30 3185 H 549.758 -4.797 7.24003 0
M  V30 3186 H 549.488 -3.69856 5.84513 0
M  V30 3187 H 550.355 -6.10356 5.41441 0
M  V30 3188 P 554.317 -7.20834 5.23717 0
M  V30 3189 O 554.537 -8.66104 5.38572 0
M  V30 3190 O 555.107 -6.33544 6.1349 0
M  V30 3191 O 554.567 -6.7751 3.72168 0
M  V30 3192 C 553.627 -7.20825 2.7076 0
M  V30 3193 C 554.357 -7.45864 1.40599 0
M  V30 3194 O 554.567 -6.17651 0.734225 0
M  V30 3195 C 555.757 -8.05808 1.51899 0
M  V30 3196 O 556.147 -8.74358 0.335205 0
M  V30 3197 C 556.637 -6.83093 1.70294 0
M  V30 3198 C 555.927 -5.79992 0.836974 0
M  V30 3199 N 555.977 -4.41864 1.38293 0
M  V30 3200 H 553.138 -8.13644 3.0377 0
M  V30 3201 H 552.868 -6.42788 2.55485 0
M  V30 3202 H 553.735 -8.12039 0.792769 0
M  V30 3203 P 557.697 -8.91 -3.54097e-12 0
M  V30 3204 O 557.917 -10.1726 -0.733694 0
M  V30 3205 O 558.487 -8.73148 1.23936 0
M  V30 3206 O 557.947 -7.66872 -0.971405 0
M  V30 3207 C 557.007 -7.42309 -2.04641 0
M  V30 3208 C 557.737 -6.86059 -3.24661 0
M  V30 3209 O 557.947 -5.42847 -3.03646 0
M  V30 3210 C 559.137 -7.41196 -3.50753 0
M  V30 3211 O 559.527 -7.27073 -4.86816 0
M  V30 3212 C 560.017 -6.5273 -2.63741 0
M  V30 3213 C 559.307 -5.1842 -2.73198 0
M  V30 3214 N 559.357 -4.38762 -1.4784 0
M  V30 3215 H 556.518 -8.36803 -2.32493 0
M  V30 3216 H 556.248 -6.70197 -1.71129 0
M  V30 3217 H 557.115 -7.03551 -4.13168 0
M  V30 3218 P 561.077 -7.20834 -5.23717 0
M  V30 3219 O 561.297 -7.79853 -6.57286 0
M  V30 3220 O 561.867 -7.79239 -4.12957 0
M  V30 3221 O 561.327 -5.63315 -5.29344 0
M  V30 3222 C 560.387 -4.80255 -6.01876 0
M  V30 3223 C 561.117 -3.64202 -6.65911 0
M  V30 3224 O 561.327 -2.60694 -5.64732 0
M  V30 3225 C 562.517 -3.93473 -7.1943 0
M  V30 3226 O 562.907 -3.02071 -8.21205 0
M  V30 3227 C 563.397 -3.73047 -5.97036 0
M  V30 3228 C 562.687 -2.58828 -5.25741 0
M  V30 3229 N 562.737 -2.68068 -3.77503 0
M  V30 3230 H 559.898 -5.40332 -6.79951 0
M  V30 3231 H 559.628 -4.41613 -5.32378 0
M  V30 3232 H 560.495 -3.26331 -7.47797 0
M  V30 3233 P 564.457 -2.75334 -8.47391 0
M  V30 3234 O 564.677 -2.44571 -9.90142 0
M  V30 3235 O 565.247 -3.87688 -7.92115 0
M  V30 3236 O 564.707 -1.4459 -7.59357 0
M  V30 3237 C 563.767 -0.347608 -7.69215 0
M  V30 3238 C 564.497 0.96767 -7.52806 0
M  V30 3239 O 564.707 1.21036 -6.1011 0
M  V30 3240 C 565.897 1.04544 -8.13308 0
M  V30 3241 O 566.287 2.38311 -8.41922 0
M  V30 3242 C 566.777 0.491279 -7.02284 0
M  V30 3243 C 566.067 0.996264 -5.77469 0
M  V30 3244 N 566.117 0.0501916 -4.62973 0
M  V30 3245 C 566.037 -1.32786 -4.63244 0
M  V30 3246 N 566.117 -1.86957 -3.44545 0
M  V30 3247 C 566.257 -0.780241 -2.58481 0
M  V30 3248 C 566.387 -0.738536 -1.17757 0
M  V30 3249 N 566.507 0.58337 -0.711393 0
M  V30 3250 C 566.507 1.70816 -1.51017 0
M  V30 3251 N 566.637 2.87826 -0.880757 0
M  V30 3252 N 566.377 1.67126 -2.8339 0
M  V30 3253 C 566.257 0.401421 -3.30572 0
M  V30 3254 H 563.278 -0.374722 -8.67691 0
M  V30 3255 H 563.008 -0.443485 -6.90277 0
M  V30 3256 H 563.875 1.75537 -7.96793 0
M  V30 3257 P 567.837 2.75334 -8.47391 0
M  V30 3258 O 568.057 3.84128 -9.44797 0
M  V30 3259 O 568.627 1.51947 -8.68712 0
M  V30 3260 O 568.087 3.29363 -6.99321 0
M  V30 3261 C 567.147 4.24011 -6.4274 0
M  V30 3262 C 567.877 5.20775 -5.52155 0
M  V30 3263 O 568.087 4.56534 -4.22446 0
M  V30 3264 C 569.277 5.62629 -5.96531 0
M  V30 3265 O 569.667 6.87667 -5.41053 0
M  V30 3266 C 570.157 4.52537 -5.39283 0
M  V30 3267 C 569.447 4.20027 -4.08623 0
M  V30 3268 N 569.497 2.76189 -3.71603 0
M  V30 3269 H 566.658 4.797 -7.24003 0
M  V30 3270 H 566.388 3.69856 -5.84513 0
M  V30 3271 H 567.255 6.10356 -5.41441 0
M  V30 3272 P 571.217 7.20834 -5.23717 0
M  V30 3273 O 571.437 8.66104 -5.38572 0
M  V30 3274 O 572.007 6.33544 -6.1349 0
M  V30 3275 O 571.467 6.7751 -3.72168 0
M  V30 3276 C 570.527 7.20825 -2.7076 0
M  V30 3277 C 571.257 7.45864 -1.40599 0
M  V30 3278 O 571.467 6.17651 -0.734225 0
M  V30 3279 C 572.657 8.05808 -1.51899 0
M  V30 3280 O 573.047 8.74358 -0.335205 0
M  V30 3281 C 573.537 6.83093 -1.70294 0
M  V30 3282 C 572.827 5.79992 -0.836974 0
M  V30 3283 N 572.877 4.41864 -1.38293 0
M  V30 3284 C 572.797 3.99538 -2.69438 0
M  V30 3285 N 572.877 2.69909 -2.84277 0
M  V30 3286 C 573.017 2.21719 -1.5408 0
M  V30 3287 C 573.147 0.891712 -1.06628 0
M  V30 3288 N 573.267 0.856846 0.334985 0
M  V30 3289 C 573.267 1.9641 1.15789 0
M  V30 3290 N 573.397 1.72708 2.46522 0
M  V30 3291 N 573.137 3.21165 0.713741 0
M  V30 3292 C 573.017 3.26797 -0.639748 0
M  V30 3293 H 570.038 8.13644 -3.0377 0
M  V30 3294 H 569.768 6.42788 -2.55485 0
M  V30 3295 H 570.635 8.12039 -0.792769 0
M  V30 3296 P 574.597 8.91 3.69815e-12 0
M  V30 3297 O 574.817 10.1726 0.733694 0
M  V30 3298 O 575.387 8.73148 -1.23936 0
M  V30 3299 O 574.847 7.66872 0.971405 0
M  V30 3300 C 573.907 7.42309 2.04641 0
M  V30 3301 C 574.637 6.86059 3.24661 0
M  V30 3302 O 574.847 5.42847 3.03646 0
M  V30 3303 C 576.037 7.41196 3.50753 0
M  V30 3304 O 576.427 7.27073 4.86816 0
M  V30 3305 C 576.917 6.5273 2.63741 0
M  V30 3306 C 576.207 5.1842 2.73198 0
M  V30 3307 N 576.257 4.38762 1.4784 0
M  V30 3308 H 573.418 8.36803 2.32493 0
M  V30 3309 H 573.148 6.70197 1.71129 0
M  V30 3310 H 574.015 7.03551 4.13168 0
M  V30 3311 P 577.977 7.20834 5.23717 0
M  V30 3312 O 578.197 7.79853 6.57286 0
M  V30 3313 O 578.767 7.79239 4.12957 0
M  V30 3314 O 578.227 5.63315 5.29344 0
M  V30 3315 C 577.287 4.80255 6.01876 0
M  V30 3316 C 578.017 3.64202 6.65911 0
M  V30 3317 O 578.227 2.60694 5.64732 0
M  V30 3318 C 579.417 3.93473 7.1943 0
M  V30 3319 O 579.807 3.02071 8.21205 0
M  V30 3320 C 580.297 3.73047 5.97036 0
M  V30 3321 C 579.587 2.58828 5.25741 0
M  V30 3322 N 579.637 2.68068 3.77503 0
M  V30 3323 C 579.557 3.79715 2.96723 0
M  V30 3324 N 579.637 3.5377 1.68852 0
M  V30 3325 C 579.777 2.15054 1.63254 0
M  V30 3326 C 579.907 1.28964 0.518571 0
M  V30 3327 O 579.927 1.56826 -0.679156 0
M  V30 3328 N 580.027 -0.0538097 0.918425 0
M  V30 3329 C 580.027 -0.494275 2.22578 0
M  V30 3330 N 580.157 -1.81086 2.40434 0
M  V30 3331 N 579.897 0.313645 3.27502 0
M  V30 3332 C 579.777 1.61829 2.91033 0
M  V30 3333 H 576.798 5.40332 6.79951 0
M  V30 3334 H 576.528 4.41613 5.32378 0
M  V30 3335 H 577.395 3.26331 7.47797 0
M  V30 3336 H 580.05 1.63422 5.56814 0
M  V30 3337 H 580.329 4.63374 5.34244 0
M  V30 3338 H 581.321 3.44728 6.25838 0
M  V30 3339 H 579.487 4.96652 7.57263 0
M  V30 3340 H 579.438 4.80617 3.3614 0
M  V30 3341 H 580.12 -0.742702 0.199384 0
M  V30 3342 H 580.157 -2.20598 3.35588 0
M  V30 3343 H 580.258 -2.43518 1.58945 0
M  V30 3344 P 581.357 2.75334 8.47391 0
M  V30 3345 O 581.577 2.44571 9.90142 0
M  V30 3346 O 582.147 3.87688 7.92115 0
M  V30 3347 O 581.607 1.4459 7.59357 0
M  V30 3348 C 580.667 0.347608 7.69215 0
M  V30 3349 C 581.397 -0.96767 7.52806 0
M  V30 3350 O 581.607 -1.21036 6.1011 0
M  V30 3351 C 582.797 -1.04544 8.13308 0
M  V30 3352 O 583.187 -2.38311 8.41922 0
M  V30 3353 C 583.677 -0.491279 7.02284 0
M  V30 3354 C 582.967 -0.996264 5.77469 0
M  V30 3355 N 583.017 -0.0501916 4.62973 0
M  V30 3356 H 580.178 0.374722 8.67691 0
M  V30 3357 H 579.908 0.443485 6.90277 0
M  V30 3358 H 580.775 -1.75537 7.96793 0
M  V30 3359 P 584.737 -2.75334 8.47391 0
M  V30 3360 O 584.957 -3.84128 9.44797 0
M  V30 3361 O 585.527 -1.51947 8.68712 0
M  V30 3362 O 584.987 -3.29363 6.99321 0
M  V30 3363 C 584.047 -4.24011 6.4274 0
M  V30 3364 C 584.777 -5.20775 5.52155 0
M  V30 3365 O 584.987 -4.56534 4.22446 0
M  V30 3366 C 586.177 -5.62629 5.96531 0
M  V30 3367 O 586.567 -6.87667 5.41053 0
M  V30 3368 C 587.057 -4.52537 5.39283 0
M  V30 3369 C 586.347 -4.20027 4.08623 0
M  V30 3370 N 586.397 -2.76189 3.71603 0
M  V30 3371 H 583.558 -4.797 7.24003 0
M  V30 3372 H 583.288 -3.69856 5.84513 0
M  V30 3373 H 584.155 -6.10356 5.41441 0
M  V30 3374 P 588.117 -7.20834 5.23717 0
M  V30 3375 O 588.337 -8.66104 5.38572 0
M  V30 3376 O 588.907 -6.33544 6.1349 0
M  V30 3377 O 588.367 -6.7751 3.72168 0
M  V30 3378 C 587.427 -7.20825 2.7076 0
M  V30 3379 C 588.157 -7.45864 1.40599 0
M  V30 3380 O 588.367 -6.17651 0.734225 0
M  V30 3381 C 589.557 -8.05808 1.51899 0
M  V30 3382 O 589.947 -8.74358 0.335205 0
M  V30 3383 C 590.437 -6.83093 1.70294 0
M  V30 3384 C 589.727 -5.79992 0.836974 0
M  V30 3385 N 589.777 -4.41864 1.38293 0
M  V30 3386 H 586.938 -8.13644 3.0377 0
M  V30 3387 H 586.668 -6.42788 2.55485 0
M  V30 3388 H 587.535 -8.12039 0.792769 0
M  V30 3389 P 591.496 -8.91 -3.85533e-12 0
M  V30 3390 O 591.716 -10.1726 -0.733694 0
M  V30 3391 O 592.286 -8.73148 1.23936 0
M  V30 3392 O 591.746 -7.66872 -0.971405 0
M  V30 3393 C 590.806 -7.42309 -2.04641 0
M  V30 3394 C 591.536 -6.86059 -3.24661 0
M  V30 3395 O 591.746 -5.42847 -3.03646 0
M  V30 3396 C 592.937 -7.41196 -3.50753 0
M  V30 3397 O 593.327 -7.27073 -4.86816 0
M  V30 3398 C 593.817 -6.5273 -2.63741 0
M  V30 3399 C 593.106 -5.1842 -2.73198 0
M  V30 3400 N 593.156 -4.38762 -1.4784 0
M  V30 3401 H 590.317 -8.36803 -2.32493 0
M  V30 3402 H 590.048 -6.70197 -1.71129 0
M  V30 3403 H 590.914 -7.03551 -4.13168 0
M  V30 3404 P 594.876 -7.20834 -5.23717 0
M  V30 3405 O 595.096 -7.79853 -6.57286 0
M  V30 3406 O 595.666 -7.79239 -4.12957 0
M  V30 3407 O 595.126 -5.63315 -5.29344 0
M  V30 3408 C 594.186 -4.80255 -6.01876 0
M  V30 3409 C 594.916 -3.64202 -6.65911 0
M  V30 3410 O 595.126 -2.60694 -5.64732 0
M  V30 3411 C 596.316 -3.93473 -7.1943 0
M  V30 3412 O 596.706 -3.02071 -8.21205 0
M  V30 3413 C 597.196 -3.73047 -5.97036 0
M  V30 3414 C 596.486 -2.58828 -5.25741 0
M  V30 3415 N 596.536 -2.68068 -3.77503 0
M  V30 3416 H 593.697 -5.40332 -6.79951 0
M  V30 3417 H 593.427 -4.41613 -5.32378 0
M  V30 3418 H 594.294 -3.26331 -7.47797 0
M  V30 3419 P 598.256 -2.75334 -8.47391 0
M  V30 3420 O 598.476 -2.44571 -9.90142 0
M  V30 3421 O 599.046 -3.87688 -7.92115 0
M  V30 3422 O 598.506 -1.4459 -7.59357 0
M  V30 3423 C 597.566 -0.347608 -7.69215 0
M  V30 3424 C 598.296 0.96767 -7.52806 0
M  V30 3425 O 598.506 1.21036 -6.1011 0
M  V30 3426 C 599.696 1.04544 -8.13308 0
M  V30 3427 O 600.086 2.38311 -8.41922 0
M  V30 3428 C 600.576 0.491279 -7.02284 0
M  V30 3429 C 599.866 0.996264 -5.77469 0
M  V30 3430 N 599.916 0.0501916 -4.62973 0
M  V30 3431 H 597.077 -0.374722 -8.67691 0
M  V30 3432 H 596.807 -0.443485 -6.90277 0
M  V30 3433 H 597.674 1.75537 -7.96793 0
M  V30 3434 P 601.636 2.75334 -8.47391 0
M  V30 3435 O 601.856 3.84128 -9.44797 0
M  V30 3436 O 602.426 1.51947 -8.68712 0
M  V30 3437 O 601.886 3.29363 -6.99321 0
M  V30 3438 C 600.946 4.24011 -6.4274 0
M  V30 3439 C 601.676 5.20775 -5.52155 0
M  V30 3440 O 601.886 4.56534 -4.22446 0
M  V30 3441 C 603.076 5.62629 -5.96531 0
M  V30 3442 O 603.466 6.87667 -5.41053 0
M  V30 3443 C 603.956 4.52537 -5.39283 0
M  V30 3444 C 603.246 4.20027 -4.08623 0
M  V30 3445 N 603.296 2.76189 -3.71603 0
M  V30 3446 H 600.457 4.797 -7.24003 0
M  V30 3447 H 600.187 3.69856 -5.84513 0
M  V30 3448 H 601.054 6.10356 -5.41441 0
M  V30 3449 P 605.016 7.20834 -5.23717 0
M  V30 3450 O 605.236 8.66189 -5.38625 0
M  V30 3451 O 605.806 6.33615 -6.1356 0
M  V30 3452 O 605.266 6.7751 -3.72168 0
M  V30 3453 C 604.326 7.20732 -2.70725 0
M  V30 3454 C 605.056 7.45864 -1.40599 0
M  V30 3455 O 605.266 6.17651 -0.734225 0
M  V30 3456 C 606.456 8.05808 -1.51899 0
M  V30 3457 O 606.846 8.74358 -0.335205 0
M  V30 3458 C 607.336 6.83093 -1.70294 0
M  V30 3459 C 606.626 5.79992 -0.836974 0
M  V30 3460 N 606.676 4.41769 -1.38263 0
M  V30 3461 C 606.826 3.38591 -0.481702 0
M  V30 3462 O 606.916 3.56839 0.718452 0
M  V30 3463 N 606.866 2.1206 -1.03569 0
M  V30 3464 C 606.776 1.80696 -2.36966 0
M  V30 3465 C 606.626 2.94845 -3.23898 0
M  V30 3466 C 606.576 4.19803 -2.73435 0
M  V30 3467 H 603.836 8.13644 -3.0377 0
M  V30 3468 H 603.567 6.42695 -2.55448 0
M  V30 3469 H 604.434 8.12039 -0.792769 0
M  V30 3470 H 607.089 5.79978 0.160587 0
M  V30 3471 H 607.368 6.51379 -2.75643 0
M  V30 3472 H 608.36 7.01734 -1.34462 0
M  V30 3473 H 606.526 8.73674 -2.38337 0
M  V30 3474 H 606.455 5.04492 -3.4095 0
M  V30 3475 P 608.396 8.91 4.01252e-12 0
M  V30 3476 O 608.616 10.1736 0.733766 0
M  V30 3477 O 609.186 8.73247 -1.2395 0
M  V30 3478 O 608.646 7.66872 0.971405 0
M  V30 3479 C 607.706 7.42212 2.04614 0
M  V30 3480 C 608.436 6.86059 3.24661 0
M  V30 3481 O 608.646 5.42847 3.03646 0
M  V30 3482 C 609.836 7.41196 3.50753 0
M  V30 3483 O 610.226 7.27073 4.86816 0
M  V30 3484 C 610.716 6.5273 2.63741 0
M  V30 3485 C 610.006 5.1842 2.73198 0
M  V30 3486 N 610.056 4.38668 1.47808 0
M  V30 3487 C 610.206 3.02239 1.60048 0
M  V30 3488 O 610.296 2.46459 2.67869 0
M  V30 3489 N 610.246 2.32436 0.408571 0
M  V30 3490 C 610.156 2.85471 -0.854993 0
M  V30 3491 O 610.206 2.12566 -1.8531 0
M  V30 3492 C 610.006 4.28918 -0.887335 0
M  V30 3493 C 609.896 4.91066 -2.24619 0
M  V30 3494 C 609.956 5.00349 0.255399 0
M  V30 3495 H 607.216 8.36803 2.32493 0
M  V30 3496 H 606.947 6.701 1.71105 0
M  V30 3497 H 607.814 7.03551 4.13168 0
M  V30 3498 H 610.469 4.59773 3.53894 0
M  V30 3499 H 610.748 6.88995 1.59871 0
M  V30 3500 H 611.74 6.46749 3.03687 0
M  V30 3501 H 609.906 8.46908 3.20714 0
M  V30 3502 H 609.835 6.08548 0.206986 0
M  V30 3503 H 610.865 5.34836 -2.53099 0
M  V30 3504 H 609.128 5.69638 -2.2291 0
M  V30 3505 H 609.616 4.13971 -2.98044 0
M  V30 3506 H 610.352 1.33211 0.474216 0
M  V30 3507 P 611.776 7.20834 5.23717 0
M  V30 3508 O 611.996 7.79853 6.57286 0
M  V30 3509 O 612.566 7.79239 4.12957 0
M  V30 3510 O 612.026 5.63315 5.29344 0
M  V30 3511 C 611.086 4.80255 6.01876 0
M  V30 3512 C 611.816 3.64202 6.65911 0
M  V30 3513 O 612.026 2.60694 5.64732 0
M  V30 3514 C 613.216 3.93473 7.1943 0
M  V30 3515 O 613.606 3.02071 8.21205 0
M  V30 3516 C 614.096 3.73047 5.97036 0
M  V30 3517 C 613.386 2.58828 5.25741 0
M  V30 3518 N 613.436 2.68068 3.77503 0
M  V30 3519 H 610.597 5.40332 6.79951 0
M  V30 3520 H 610.327 4.41613 5.32378 0
M  V30 3521 H 611.194 3.26331 7.47797 0
M  V30 3522 P 615.156 2.75334 8.47391 0
M  V30 3523 O 615.376 2.44571 9.90142 0
M  V30 3524 O 615.946 3.87688 7.92115 0
M  V30 3525 O 615.406 1.4459 7.59357 0
M  V30 3526 C 614.466 0.347608 7.69215 0
M  V30 3527 C 615.196 -0.96767 7.52806 0
M  V30 3528 O 615.406 -1.21036 6.1011 0
M  V30 3529 C 616.596 -1.04544 8.13308 0
M  V30 3530 O 616.986 -2.38311 8.41922 0
M  V30 3531 C 617.476 -0.491279 7.02284 0
M  V30 3532 C 616.766 -0.996264 5.77469 0
M  V30 3533 N 616.816 -0.0501916 4.62973 0
M  V30 3534 H 613.977 0.374722 8.67691 0
M  V30 3535 H 613.707 0.443485 6.90277 0
M  V30 3536 H 614.574 -1.75537 7.96793 0
M  V30 3537 P 618.536 -2.75334 8.47391 0
M  V30 3538 O 618.756 -3.84128 9.44797 0
M  V30 3539 O 619.326 -1.51947 8.68712 0
M  V30 3540 O 618.786 -3.29363 6.99321 0
M  V30 3541 C 617.846 -4.24011 6.4274 0
M  V30 3542 C 618.576 -5.20775 5.52155 0
M  V30 3543 O 618.786 -4.56534 4.22446 0
M  V30 3544 C 619.976 -5.62629 5.96531 0
M  V30 3545 O 620.366 -6.87667 5.41053 0
M  V30 3546 C 620.856 -4.52537 5.39283 0
M  V30 3547 C 620.146 -4.20027 4.08623 0
M  V30 3548 N 620.196 -2.76189 3.71603 0
M  V30 3549 H 617.357 -4.797 7.24003 0
M  V30 3550 H 617.087 -3.69856 5.84513 0
M  V30 3551 H 617.954 -6.10356 5.41441 0
M  V30 3552 P 621.916 -7.20834 5.23717 0
M  V30 3553 O 622.136 -8.66104 5.38572 0
M  V30 3554 O 622.706 -6.33544 6.1349 0
M  V30 3555 O 622.166 -6.7751 3.72168 0
M  V30 3556 C 621.226 -7.20825 2.7076 0
M  V30 3557 C 621.956 -7.45864 1.40599 0
M  V30 3558 O 622.166 -6.17651 0.734225 0
M  V30 3559 C 623.356 -8.05808 1.51899 0
M  V30 3560 O 623.746 -8.74358 0.335205 0
M  V30 3561 C 624.236 -6.83093 1.70294 0
M  V30 3562 C 623.526 -5.79992 0.836974 0
M  V30 3563 N 623.576 -4.41864 1.38293 0
M  V30 3564 H 620.737 -8.13644 3.0377 0
M  V30 3565 H 620.467 -6.42788 2.55485 0
M  V30 3566 H 621.334 -8.12039 0.792769 0
M  V30 3567 P 625.296 -8.91 -4.1697e-12 0
M  V30 3568 O 625.516 -10.1726 -0.733694 0
M  V30 3569 O 626.086 -8.73148 1.23936 0
M  V30 3570 O 625.546 -7.66872 -0.971405 0
M  V30 3571 C 624.606 -7.42309 -2.04641 0
M  V30 3572 C 625.336 -6.86059 -3.24661 0
M  V30 3573 O 625.546 -5.42847 -3.03646 0
M  V30 3574 C 626.736 -7.41196 -3.50753 0
M  V30 3575 O 627.126 -7.27073 -4.86816 0
M  V30 3576 C 627.616 -6.5273 -2.63741 0
M  V30 3577 C 626.906 -5.1842 -2.73198 0
M  V30 3578 N 626.956 -4.38762 -1.4784 0
M  V30 3579 H 624.117 -8.36803 -2.32493 0
M  V30 3580 H 623.847 -6.70197 -1.71129 0
M  V30 3581 H 624.714 -7.03551 -4.13168 0
M  V30 3582 P 628.676 -7.20834 -5.23717 0
M  V30 3583 O 628.896 -7.79853 -6.57286 0
M  V30 3584 O 629.466 -7.79239 -4.12957 0
M  V30 3585 O 628.926 -5.63315 -5.29344 0
M  V30 3586 C 627.986 -4.80255 -6.01876 0
M  V30 3587 C 628.716 -3.64202 -6.65911 0
M  V30 3588 O 628.926 -2.60694 -5.64732 0
M  V30 3589 C 630.116 -3.93473 -7.1943 0
M  V30 3590 O 630.506 -3.02071 -8.21205 0
M  V30 3591 C 630.996 -3.73047 -5.97036 0
M  V30 3592 C 630.286 -2.58828 -5.25741 0
M  V30 3593 N 630.336 -2.68068 -3.77503 0
M  V30 3594 H 627.497 -5.40332 -6.79951 0
M  V30 3595 H 627.227 -4.41613 -5.32378 0
M  V30 3596 H 628.094 -3.26331 -7.47797 0
M  V30 3597 P 632.056 -2.75334 -8.47391 0
M  V30 3598 O 632.276 -2.44571 -9.90142 0
M  V30 3599 O 632.846 -3.87688 -7.92115 0
M  V30 3600 O 632.306 -1.4459 -7.59357 0
M  V30 3601 C 631.366 -0.347608 -7.69215 0
M  V30 3602 C 632.096 0.96767 -7.52806 0
M  V30 3603 O 632.306 1.21036 -6.1011 0
M  V30 3604 C 633.496 1.04544 -8.13308 0
M  V30 3605 O 633.886 2.38311 -8.41922 0
M  V30 3606 C 634.376 0.491279 -7.02284 0
M  V30 3607 C 633.666 0.996264 -5.77469 0
M  V30 3608 N 633.716 0.0501916 -4.62973 0
M  V30 3609 H 630.877 -0.374722 -8.67691 0
M  V30 3610 H 630.607 -0.443485 -6.90277 0
M  V30 3611 H 631.474 1.75537 -7.96793 0
M  V30 3612 P 635.436 2.75334 -8.47391 0
M  V30 3613 O 635.656 3.84128 -9.44797 0
M  V30 3614 O 636.226 1.51947 -8.68712 0
M  V30 3615 O 635.686 3.29363 -6.99321 0
M  V30 3616 C 634.746 4.24011 -6.4274 0
M  V30 3617 C 635.476 5.20775 -5.52155 0
M  V30 3618 O 635.686 4.56534 -4.22446 0
M  V30 3619 C 636.876 5.62629 -5.96531 0
M  V30 3620 O 637.266 6.87667 -5.41053 0
M  V30 3621 C 637.756 4.52537 -5.39283 0
M  V30 3622 C 637.046 4.20027 -4.08623 0
M  V30 3623 N 637.096 2.76189 -3.71603 0
M  V30 3624 H 634.257 4.797 -7.24003 0
M  V30 3625 H 633.987 3.69856 -5.84513 0
M  V30 3626 H 634.854 6.10356 -5.41441 0
M  V30 3627 P 638.816 7.20834 -5.23717 0
M  V30 3628 O 639.036 8.66104 -5.38572 0
M  V30 3629 O 639.606 6.33544 -6.1349 0
M  V30 3630 O 639.066 6.7751 -3.72168 0
M  V30 3631 C 638.126 7.20825 -2.7076 0
M  V30 3632 C 638.856 7.45864 -1.40599 0
M  V30 3633 O 639.066 6.17651 -0.734225 0
M  V30 3634 C 640.256 8.05808 -1.51899 0
M  V30 3635 O 640.646 8.74358 -0.335205 0
M  V30 3636 C 641.136 6.83093 -1.70294 0
M  V30 3637 C 640.426 5.79992 -0.836974 0
M  V30 3638 N 640.476 4.41864 -1.38293 0
M  V30 3639 H 637.637 8.13644 -3.0377 0
M  V30 3640 H 637.367 6.42788 -2.55485 0
M  V30 3641 H 638.234 8.12039 -0.792769 0
M  V30 3642 P 642.196 8.91 4.32688e-12 0
M  V30 3643 O 642.416 10.1726 0.733694 0
M  V30 3644 O 642.986 8.73148 -1.23936 0
M  V30 3645 O 642.446 7.66872 0.971405 0
M  V30 3646 C 641.506 7.42309 2.04641 0
M  V30 3647 C 642.236 6.86059 3.24661 0
M  V30 3648 O 642.446 5.42847 3.03646 0
M  V30 3649 C 643.636 7.41196 3.50753 0
M  V30 3650 O 644.026 7.27073 4.86816 0
M  V30 3651 C 644.516 6.5273 2.63741 0
M  V30 3652 C 643.806 5.1842 2.73198 0
M  V30 3653 N 643.856 4.38762 1.4784 0
M  V30 3654 C 643.776 4.81605 0.168631 0
M  V30 3655 N 643.856 3.85454 -0.713363 0
M  V30 3656 C 643.996 2.6994 0.0566958 0
M  V30 3657 C 644.126 1.34815 -0.338502 0
M  V30 3658 N 644.246 0.496304 0.77465 0
M  V30 3659 C 644.246 0.908403 2.09122 0
M  V30 3660 N 644.376 -0.0517805 3.00955 0
M  V30 3661 N 644.116 2.17875 2.46519 0
M  V30 3662 C 643.996 3.01988 1.4033 0
M  V30 3663 H 641.017 8.36803 2.32493 0
M  V30 3664 H 640.747 6.70197 1.71129 0
M  V30 3665 H 641.614 7.03551 4.13168 0
M  V30 3666 P 645.576 7.20834 5.23717 0
M  V30 3667 O 645.796 7.80006 6.57415 0
M  V30 3668 O 646.366 7.79416 4.13051 0
M  V30 3669 O 645.826 5.63315 5.29344 0
M  V30 3670 C 644.886 4.80318 6.01954 0
M  V30 3671 C 645.616 3.64202 6.65911 0
M  V30 3672 O 645.826 2.60736 5.64823 0
M  V30 3673 C 647.016 3.93521 7.19518 0
M  V30 3674 O 647.406 3.02071 8.21205 0
M  V30 3675 C 647.896 3.73047 5.97036 0
M  V30 3676 C 647.186 2.58828 5.25741 0
M  V30 3677 N 647.236 2.68068 3.77503 0
M  V30 3678 C 647.156 3.80474 2.99159 0
M  V30 3679 N 647.226 3.55622 1.71925 0
M  V30 3680 C 647.376 2.1832 1.65733 0
M  V30 3681 C 647.506 1.28842 0.572777 0
M  V30 3682 N 647.516 1.66875 -0.70098 0
M  V30 3683 N 647.626 -0.016788 0.859836 0
M  V30 3684 C 647.616 -0.398145 2.13316 0
M  V30 3685 N 647.496 0.328224 3.22333 0
M  V30 3686 C 647.376 1.62992 2.90383 0
M  V30 3687 H 644.398 5.40394 6.8003 0
M  V30 3688 H 644.126 4.41741 5.32532 0
M  V30 3689 H 644.994 3.26371 7.47889 0
M  V30 3690 H 647.649 1.64007 5.56746 0
M  V30 3691 H 647.929 4.63439 5.3432 0
M  V30 3692 H 648.92 3.44776 6.25925 0
M  V30 3693 H 647.086 4.96707 7.57347 0
M  V30 3694 H 647.045 4.8089 3.39924 0
M  V30 3695 H 647.426 2.66547 -0.941919 0
M  V30 3696 H 647.615 0.965341 -1.44766 0
M  V30 3697 H 647.723 -1.46427 2.29697 0
M  V30 3698 P 648.956 2.75334 8.47391 0
M  V30 3699 O 649.176 2.44619 9.90336 0
M  V30 3700 O 649.746 3.87776 7.92294 0
M  V30 3701 O 649.206 1.4459 7.59357 0
M  V30 3702 C 648.266 0.347653 7.69315 0
M  V30 3703 C 648.996 -0.96767 7.52806 0
M  V30 3704 O 649.206 -1.21055 6.10208 0
M  V30 3705 C 650.396 -1.04557 8.13408 0
M  V30 3706 O 650.786 -2.38311 8.41922 0
M  V30 3707 C 651.276 -0.491279 7.02284 0
M  V30 3708 C 650.566 -0.996264 5.77469 0
M  V30 3709 N 650.616 -0.0501916 4.62973 0
M  V30 3710 C 650.536 1.31969 4.65661 0
M  V30 3711 N 650.606 1.86649 3.48119 0
M  V30 3712 C 650.756 0.792089 2.62406 0
M  V30 3713 C 650.886 0.705684 1.2207 0
M  V30 3714 N 650.896 1.76207 0.413762 0
M  V30 3715 N 651.006 -0.518981 0.685754 0
M  V30 3716 C 650.996 -1.57595 1.49174 0
M  V30 3717 N 650.876 -1.62909 2.80066 0
M  V30 3718 C 650.756 -0.388195 3.3073 0
M  V30 3719 H 647.778 0.374765 8.67791 0
M  V30 3720 H 647.506 0.443613 6.90476 0
M  V30 3721 H 648.374 -1.75559 7.96891 0
M  V30 3722 H 651.029 -1.94563 5.46818 0
M  V30 3723 H 651.309 0.608651 7.04676 0
M  V30 3724 H 652.3 -0.889796 7.09039 0
M  V30 3725 H 650.466 -0.433128 9.04664 0
M  V30 3726 H 650.425 1.89246 5.57664 0
M  V30 3727 H 650.806 2.71005 0.804694 0
M  V30 3728 H 650.995 1.63189 -0.603768 0
M  V30 3729 H 651.103 -2.53475 0.997614 0
M  V30 3730 P 652.336 -2.75334 8.47391 0
M  V30 3731 O 652.556 -3.84128 9.44797 0
M  V30 3732 O 653.126 -1.51947 8.68712 0
M  V30 3733 O 652.586 -3.29363 6.99321 0
M  V30 3734 C 651.646 -4.24011 6.4274 0
M  V30 3735 C 652.376 -5.20775 5.52155 0
M  V30 3736 O 652.586 -4.56534 4.22446 0
M  V30 3737 C 653.776 -5.62629 5.96531 0
M  V30 3738 O 654.166 -6.87667 5.41053 0
M  V30 3739 C 654.656 -4.52537 5.39283 0
M  V30 3740 C 653.946 -4.20027 4.08623 0
M  V30 3741 N 653.996 -2.76189 3.71603 0
M  V30 3742 H 651.157 -4.797 7.24003 0
M  V30 3743 H 650.887 -3.69856 5.84513 0
M  V30 3744 H 651.754 -6.10356 5.41441 0
M  V30 3745 P 655.716 -7.20834 5.23717 0
M  V30 3746 O 655.936 -8.66104 5.38572 0
M  V30 3747 O 656.506 -6.33544 6.1349 0
M  V30 3748 O 655.966 -6.7751 3.72168 0
M  V30 3749 C 655.026 -7.20825 2.7076 0
M  V30 3750 C 655.756 -7.45864 1.40599 0
M  V30 3751 O 655.966 -6.17651 0.734225 0
M  V30 3752 C 657.156 -8.05808 1.51899 0
M  V30 3753 O 657.546 -8.74358 0.335205 0
M  V30 3754 C 658.036 -6.83093 1.70294 0
M  V30 3755 C 657.326 -5.79992 0.836974 0
M  V30 3756 N 657.376 -4.41864 1.38293 0
M  V30 3757 H 654.537 -8.13644 3.0377 0
M  V30 3758 H 654.267 -6.42788 2.55485 0
M  V30 3759 H 655.134 -8.12039 0.792769 0
M  V30 3760 P 659.096 -8.91 -4.48406e-12 0
M  V30 3761 O 659.316 -10.1746 -0.733838 0
M  V30 3762 O 659.886 -8.73346 1.23964 0
M  V30 3763 O 659.346 -7.66872 -0.971405 0
M  V30 3764 C 658.406 -7.42405 -2.04668 0
M  V30 3765 C 659.136 -6.86059 -3.24661 0
M  V30 3766 O 659.346 -5.42934 -3.03695 0
M  V30 3767 C 660.536 -7.41287 -3.50796 0
M  V30 3768 O 660.926 -7.27073 -4.86816 0
M  V30 3769 C 661.416 -6.5273 -2.63741 0
M  V30 3770 C 660.706 -5.1842 -2.73198 0
M  V30 3771 N 660.756 -4.38762 -1.4784 0
M  V30 3772 H 657.918 -8.36899 -2.3252 0
M  V30 3773 H 657.646 -6.70391 -1.71179 0
M  V30 3774 H 658.514 -7.03638 -4.13219 0
M  V30 3775 H 661.169 -4.59931 -3.54016 0
M  V30 3776 H 661.449 -6.88995 -1.59871 0
M  V30 3777 H 662.44 -6.4684 -3.0373 0
M  V30 3778 H 660.606 -8.47002 -3.20749 0
M  V30 3779 P 662.476 -7.20834 -5.23717 0
M  V30 3780 O 662.696 -7.79853 -6.57286 0
M  V30 3781 O 663.266 -7.79239 -4.12957 0
M  V30 3782 O 662.726 -5.63315 -5.29344 0
M  V30 3783 C 661.786 -4.80255 -6.01876 0
M  V30 3784 C 662.516 -3.64202 -6.65911 0
M  V30 3785 O 662.726 -2.60694 -5.64732 0
M  V30 3786 C 663.916 -3.93473 -7.1943 0
M  V30 3787 O 664.306 -3.02071 -8.21205 0
M  V30 3788 C 664.796 -3.73047 -5.97036 0
M  V30 3789 C 664.086 -2.58828 -5.25741 0
M  V30 3790 N 664.136 -2.68068 -3.77503 0
M  V30 3791 H 661.297 -5.40332 -6.79951 0
M  V30 3792 H 661.027 -4.41613 -5.32378 0
M  V30 3793 H 661.894 -3.26331 -7.47797 0
M  V30 3794 P 665.856 -2.75334 -8.47391 0
M  V30 3795 O 666.076 -2.44571 -9.90142 0
M  V30 3796 O 666.646 -3.87688 -7.92115 0
M  V30 3797 O 666.106 -1.4459 -7.59357 0
M  V30 3798 C 665.166 -0.347608 -7.69215 0
M  V30 3799 C 665.896 0.96767 -7.52806 0
M  V30 3800 O 666.106 1.21036 -6.1011 0
M  V30 3801 C 667.296 1.04544 -8.13308 0
M  V30 3802 O 667.686 2.38311 -8.41922 0
M  V30 3803 C 668.176 0.491279 -7.02284 0
M  V30 3804 C 667.466 0.996264 -5.77469 0
M  V30 3805 N 667.516 0.0501916 -4.62973 0
M  V30 3806 H 664.677 -0.374722 -8.67691 0
M  V30 3807 H 664.407 -0.443485 -6.90277 0
M  V30 3808 H 665.274 1.75537 -7.96793 0
M  V30 3809 P 669.236 2.75334 -8.47391 0
M  V30 3810 O 669.456 3.84128 -9.44797 0
M  V30 3811 O 670.026 1.51947 -8.68712 0
M  V30 3812 O 669.486 3.29363 -6.99321 0
M  V30 3813 C 668.546 4.24011 -6.4274 0
M  V30 3814 C 669.276 5.20775 -5.52155 0
M  V30 3815 O 669.486 4.56534 -4.22446 0
M  V30 3816 C 670.676 5.62629 -5.96531 0
M  V30 3817 O 671.066 6.87667 -5.41053 0
M  V30 3818 C 671.556 4.52537 -5.39283 0
M  V30 3819 C 670.846 4.20027 -4.08623 0
M  V30 3820 N 670.896 2.76189 -3.71603 0
M  V30 3821 H 668.057 4.797 -7.24003 0
M  V30 3822 H 667.787 3.69856 -5.84513 0
M  V30 3823 H 668.654 6.10356 -5.41441 0
M  V30 3824 P 672.616 7.20834 -5.23717 0
M  V30 3825 O 672.836 8.66104 -5.38572 0
M  V30 3826 O 673.406 6.33544 -6.1349 0
M  V30 3827 O 672.866 6.7751 -3.72168 0
M  V30 3828 C 671.926 7.20825 -2.7076 0
M  V30 3829 C 672.656 7.45864 -1.40599 0
M  V30 3830 O 672.866 6.17651 -0.734225 0
M  V30 3831 C 674.056 8.05808 -1.51899 0
M  V30 3832 O 674.446 8.74358 -0.335205 0
M  V30 3833 C 674.936 6.83093 -1.70294 0
M  V30 3834 C 674.226 5.79992 -0.836974 0
M  V30 3835 N 674.276 4.41864 -1.38293 0
M  V30 3836 H 671.437 8.13644 -3.0377 0
M  V30 3837 H 671.167 6.42788 -2.55485 0
M  V30 3838 H 672.034 8.12039 -0.792769 0
M  V30 3839 P 675.996 8.91 4.64125e-12 0
M  V30 3840 O 676.216 10.1726 0.733694 0
M  V30 3841 O 676.786 8.73148 -1.23936 0
M  V30 3842 O 676.246 7.66872 0.971405 0
M  V30 3843 C 675.306 7.42309 2.04641 0
M  V30 3844 C 676.036 6.86059 3.24661 0
M  V30 3845 O 676.246 5.42847 3.03646 0
M  V30 3846 C 677.436 7.41196 3.50753 0
M  V30 3847 O 677.826 7.27073 4.86816 0
M  V30 3848 C 678.316 6.5273 2.63741 0
M  V30 3849 C 677.606 5.1842 2.73198 0
M  V30 3850 N 677.656 4.38762 1.4784 0
M  V30 3851 H 674.817 8.36803 2.32493 0
M  V30 3852 H 674.547 6.70197 1.71129 0
M  V30 3853 H 675.414 7.03551 4.13168 0
M  V30 3854 P 679.376 7.20834 5.23717 0
M  V30 3855 O 679.596 7.79853 6.57286 0
M  V30 3856 O 680.166 7.79239 4.12957 0
M  V30 3857 O 679.626 5.63315 5.29344 0
M  V30 3858 C 678.686 4.80255 6.01876 0
M  V30 3859 C 679.416 3.64202 6.65911 0
M  V30 3860 O 679.626 2.60694 5.64732 0
M  V30 3861 C 680.816 3.93473 7.1943 0
M  V30 3862 O 681.206 3.02071 8.21205 0
M  V30 3863 C 681.696 3.73047 5.97036 0
M  V30 3864 C 680.986 2.58828 5.25741 0
M  V30 3865 N 681.036 2.68068 3.77503 0
M  V30 3866 H 678.197 5.40332 6.79951 0
M  V30 3867 H 677.927 4.41613 5.32378 0
M  V30 3868 H 678.794 3.26331 7.47797 0
M  V30 3869 P 682.756 2.75334 8.47391 0
M  V30 3870 O 682.976 2.44619 9.90336 0
M  V30 3871 O 683.546 3.87776 7.92294 0
M  V30 3872 O 683.006 1.4459 7.59357 0
M  V30 3873 C 682.066 0.347653 7.69315 0
M  V30 3874 C 682.796 -0.96767 7.52806 0
M  V30 3875 O 683.006 -1.21055 6.10208 0
M  V30 3876 C 684.196 -1.04557 8.13408 0
M  V30 3877 O 684.586 -2.38311 8.41922 0
M  V30 3878 C 685.076 -0.491279 7.02284 0
M  V30 3879 C 684.366 -0.996264 5.77469 0
M  V30 3880 N 684.416 -0.0501916 4.62973 0
M  V30 3881 C 684.336 1.31969 4.65661 0
M  V30 3882 N 684.406 1.86649 3.48119 0
M  V30 3883 C 684.556 0.792089 2.62406 0
M  V30 3884 C 684.686 0.705684 1.2207 0
M  V30 3885 N 684.696 1.76207 0.413762 0
M  V30 3886 N 684.806 -0.518981 0.685754 0
M  V30 3887 C 684.796 -1.57595 1.49174 0
M  V30 3888 N 684.676 -1.62909 2.80066 0
M  V30 3889 C 684.556 -0.388195 3.3073 0
M  V30 3890 H 681.578 0.374765 8.67791 0
M  V30 3891 H 681.306 0.443613 6.90476 0
M  V30 3892 H 682.174 -1.75559 7.96891 0
M  V30 3893 H 684.829 -1.94563 5.46818 0
M  V30 3894 H 685.109 0.608651 7.04676 0
M  V30 3895 H 686.1 -0.889796 7.09039 0
M  V30 3896 H 684.266 -0.433128 9.04664 0
M  V30 3897 H 684.225 1.89246 5.57664 0
M  V30 3898 H 684.606 2.71005 0.804694 0
M  V30 3899 H 684.795 1.63189 -0.603768 0
M  V30 3900 H 684.903 -2.53475 0.997614 0
M  V30 3901 P 686.136 -2.75334 8.47391 0
M  V30 3902 O 686.356 -3.84204 9.44982 0
M  V30 3903 O 686.926 -1.51982 8.68909 0
M  V30 3904 O 686.386 -3.29363 6.99321 0
M  V30 3905 C 685.446 -4.24066 6.42823 0
M  V30 3906 C 686.176 -5.20775 5.52155 0
M  V30 3907 O 686.386 -4.56607 4.22514 0
M  V30 3908 C 687.576 -5.62697 5.96604 0
M  V30 3909 O 687.966 -6.87667 5.41053 0
M  V30 3910 C 688.456 -4.52537 5.39283 0
M  V30 3911 C 687.746 -4.20027 4.08623 0
M  V30 3912 N 687.796 -2.76189 3.71603 0
M  V30 3913 C 687.716 -1.66944 4.54297 0
M  V30 3914 N 687.786 -0.536169 3.91344 0
M  V30 3915 C 687.936 -0.901569 2.58849 0
M  V30 3916 C 688.066 -0.146599 1.40236 0
M  V30 3917 N 688.076 1.18234 1.37046 0
M  V30 3918 N 688.186 -0.822941 0.249738 0
M  V30 3919 C 688.176 -2.15179 0.280525 0
M  V30 3920 N 688.056 -2.96414 1.30822 0
M  V30 3921 C 687.936 -2.25804 2.44748 0
M  V30 3922 H 684.958 -4.79756 7.24086 0
M  V30 3923 H 684.686 -3.69963 5.84682 0
M  V30 3924 H 685.554 -6.10431 5.41508 0
M  V30 3925 H 688.209 -4.78816 3.28024 0
M  V30 3926 H 688.489 -3.64957 6.05871 0
M  V30 3927 H 689.48 -4.88748 5.21323 0
M  V30 3928 H 687.646 -5.66789 7.0643 0
M  V30 3929 H 687.605 -1.74684 5.62396 0
M  V30 3930 H 687.986 1.71949 2.24394 0
M  V30 3931 H 688.175 1.67511 0.470742 0
M  V30 3932 H 688.283 -2.63704 -0.6828 0
M  V30 3933 P 689.516 -7.20834 5.23717 0
M  V30 3934 O 689.736 -8.66274 5.38678 0
M  V30 3935 O 690.306 -6.33687 6.13629 0
M  V30 3936 O 689.766 -6.7751 3.72168 0
M  V30 3937 C 688.826 -7.20919 2.70795 0
M  V30 3938 C 689.556 -7.45864 1.40599 0
M  V30 3939 O 689.766 -6.17751 0.734343 0
M  V30 3940 C 690.956 -8.05906 1.51917 0
M  V30 3941 O 691.346 -8.74358 0.335205 0
M  V30 3942 C 691.836 -6.83093 1.70294 0
M  V30 3943 C 691.126 -5.79992 0.836974 0
M  V30 3944 N 691.176 -4.41864 1.38293 0
M  V30 3945 C 691.096 -4.02089 2.69407 0
M  V30 3946 N 691.166 -2.73403 2.85089 0
M  V30 3947 C 691.316 -2.25086 1.5642 0
M  V30 3948 C 691.446 -0.942887 1.04836 0
M  V30 3949 N 691.456 0.150999 1.80369 0
M  V30 3950 N 691.566 -0.812565 -0.28167 0
M  V30 3951 C 691.556 -1.90572 -1.03784 0
M  V30 3952 N 691.436 -3.167 -0.683905 0
M  V30 3953 C 691.316 -3.26538 0.652815 0
M  V30 3954 H 688.338 -8.13738 3.03804 0
M  V30 3955 H 688.066 -6.42974 2.55559 0
M  V30 3956 H 688.934 -8.12139 0.792866 0
M  V30 3957 H 691.589 -5.80178 -0.160643 0
M  V30 3958 H 691.869 -6.51379 2.75643 0
M  V30 3959 H 692.86 -7.01832 1.3448 0
M  V30 3960 H 691.026 -8.73771 2.38364 0
M  V30 3961 H 690.985 -4.7189 3.52311 0
M  V30 3962 H 691.366 0.0721434 2.82608 0
M  V30 3963 H 691.555 1.0785 1.36544 0
M  V30 3964 H 691.663 -1.73207 -2.10241 0
M  V30 3965 P 692.896 -8.91 -4.67181e-12 0
M  V30 3966 O 693.116 -10.1726 -0.733694 0
M  V30 3967 O 693.686 -8.73148 1.23936 0
M  V30 3968 O 693.146 -7.66872 -0.971405 0
M  V30 3969 C 692.206 -7.42309 -2.04641 0
M  V30 3970 C 692.936 -6.86059 -3.24661 0
M  V30 3971 O 693.146 -5.42847 -3.03646 0
M  V30 3972 C 694.336 -7.41196 -3.50753 0
M  V30 3973 O 694.726 -7.27073 -4.86816 0
M  V30 3974 C 695.216 -6.5273 -2.63741 0
M  V30 3975 C 694.506 -5.1842 -2.73198 0
M  V30 3976 N 694.556 -4.38762 -1.4784 0
M  V30 3977 H 691.717 -8.36803 -2.32493 0
M  V30 3978 H 691.447 -6.70197 -1.71129 0
M  V30 3979 H 692.314 -7.03551 -4.13168 0
M  V30 3980 P 696.276 -7.20834 -5.23717 0
M  V30 3981 O 696.496 -7.80006 -6.57415 0
M  V30 3982 O 697.066 -7.79416 -4.13051 0
M  V30 3983 O 696.526 -5.63315 -5.29344 0
M  V30 3984 C 695.586 -4.80318 -6.01954 0
M  V30 3985 C 696.316 -3.64202 -6.65911 0
M  V30 3986 O 696.526 -2.60736 -5.64823 0
M  V30 3987 C 697.716 -3.93521 -7.19518 0
M  V30 3988 O 698.106 -3.02071 -8.21205 0
M  V30 3989 C 698.596 -3.73047 -5.97036 0
M  V30 3990 C 697.886 -2.58828 -5.25741 0
M  V30 3991 N 697.936 -2.68068 -3.77503 0
M  V30 3992 H 695.098 -5.40394 -6.8003 0
M  V30 3993 H 694.826 -4.41741 -5.32532 0
M  V30 3994 H 695.694 -3.26371 -7.47889 0
M  V30 3995 H 698.349 -1.64007 -5.56746 0
M  V30 3996 H 698.629 -4.63439 -5.3432 0
M  V30 3997 H 699.62 -3.44776 -6.25925 0
M  V30 3998 H 697.786 -4.96707 -7.57347 0
M  V30 3999 P 699.656 -2.75334 -8.47391 0
M  V30 4000 O 699.876 -2.44571 -9.90142 0
M  V30 4001 O 700.446 -3.87688 -7.92115 0
M  V30 4002 O 699.906 -1.4459 -7.59357 0
M  V30 4003 C 698.966 -0.347608 -7.69215 0
M  V30 4004 C 699.696 0.96767 -7.52806 0
M  V30 4005 O 699.906 1.21036 -6.1011 0
M  V30 4006 C 701.096 1.04544 -8.13308 0
M  V30 4007 O 701.486 2.38311 -8.41922 0
M  V30 4008 C 701.976 0.491279 -7.02284 0
M  V30 4009 C 701.266 0.996264 -5.77469 0
M  V30 4010 N 701.316 0.0501916 -4.62973 0
M  V30 4011 H 698.477 -0.374722 -8.67691 0
M  V30 4012 H 698.207 -0.443485 -6.90277 0
M  V30 4013 H 699.074 1.75537 -7.96793 0
M  V30 4014 P 703.036 2.75334 -8.47391 0
M  V30 4015 O 703.256 3.84204 -9.44982 0
M  V30 4016 O 703.826 1.51982 -8.68909 0
M  V30 4017 O 703.286 3.29363 -6.99321 0
M  V30 4018 C 702.346 4.24066 -6.42823 0
M  V30 4019 C 703.076 5.20775 -5.52155 0
M  V30 4020 O 703.286 4.56607 -4.22514 0
M  V30 4021 C 704.476 5.62697 -5.96604 0
M  V30 4022 O 704.866 6.87667 -5.41053 0
M  V30 4023 C 705.356 4.52537 -5.39283 0
M  V30 4024 C 704.646 4.20027 -4.08623 0
M  V30 4025 N 704.696 2.76189 -3.71603 0
M  V30 4026 C 704.616 1.66944 -4.54297 0
M  V30 4027 N 704.686 0.536169 -3.91344 0
M  V30 4028 C 704.836 0.901569 -2.58849 0
M  V30 4029 C 704.966 0.146599 -1.40236 0
M  V30 4030 N 704.976 -1.18234 -1.37046 0
M  V30 4031 N 705.086 0.822941 -0.249738 0
M  V30 4032 C 705.076 2.15179 -0.280525 0
M  V30 4033 N 704.956 2.96414 -1.30822 0
M  V30 4034 C 704.836 2.25804 -2.44748 0
M  V30 4035 H 701.858 4.79756 -7.24086 0
M  V30 4036 H 701.586 3.69963 -5.84682 0
M  V30 4037 H 702.454 6.10431 -5.41508 0
M  V30 4038 H 705.109 4.78816 -3.28024 0
M  V30 4039 H 705.389 3.64957 -6.05871 0
M  V30 4040 H 706.38 4.88748 -5.21323 0
M  V30 4041 H 704.546 5.66789 -7.0643 0
M  V30 4042 H 704.505 1.74684 -5.62396 0
M  V30 4043 H 704.886 -1.71949 -2.24394 0
M  V30 4044 H 705.075 -1.67511 -0.470742 0
M  V30 4045 H 705.183 2.63704 0.6828 0
M  V30 4046 P 706.416 7.20834 -5.23717 0
M  V30 4047 O 706.636 8.66104 -5.38572 0
M  V30 4048 O 707.206 6.33544 -6.1349 0
M  V30 4049 O 706.666 6.7751 -3.72168 0
M  V30 4050 C 705.726 7.20825 -2.7076 0
M  V30 4051 C 706.456 7.45864 -1.40599 0
M  V30 4052 O 706.666 6.17651 -0.734225 0
M  V30 4053 C 707.856 8.05808 -1.51899 0
M  V30 4054 O 708.246 8.74358 -0.335205 0
M  V30 4055 C 708.736 6.83093 -1.70294 0
M  V30 4056 C 708.026 5.79992 -0.836974 0
M  V30 4057 N 708.076 4.41864 -1.38293 0
M  V30 4058 H 705.237 8.13644 -3.0377 0
M  V30 4059 H 704.967 6.42788 -2.55485 0
M  V30 4060 H 705.834 8.12039 -0.792769 0
M  V30 4061 P 709.796 8.91 4.82899e-12 0
M  V30 4062 O 710.016 10.1726 0.733694 0
M  V30 4063 O 710.586 8.73148 -1.23936 0
M  V30 4064 O 710.046 7.66872 0.971405 0
M  V30 4065 C 709.106 7.42309 2.04641 0
M  V30 4066 C 709.836 6.86059 3.24661 0
M  V30 4067 O 710.046 5.42847 3.03646 0
M  V30 4068 C 711.236 7.41196 3.50753 0
M  V30 4069 O 711.626 7.27073 4.86816 0
M  V30 4070 C 712.116 6.5273 2.63741 0
M  V30 4071 C 711.406 5.1842 2.73198 0
M  V30 4072 N 711.456 4.38762 1.4784 0
M  V30 4073 C 711.376 4.81605 0.168631 0
M  V30 4074 N 711.456 3.85454 -0.713363 0
M  V30 4075 C 711.596 2.6994 0.0566958 0
M  V30 4076 C 711.726 1.34815 -0.338502 0
M  V30 4077 N 711.846 0.496304 0.77465 0
M  V30 4078 C 711.846 0.908403 2.09122 0
M  V30 4079 N 711.976 -0.0517805 3.00955 0
M  V30 4080 N 711.716 2.17875 2.46519 0
M  V30 4081 C 711.596 3.01988 1.4033 0
M  V30 4082 H 708.617 8.36803 2.32493 0
M  V30 4083 H 708.347 6.70197 1.71129 0
M  V30 4084 H 709.214 7.03551 4.13168 0
M  V30 4085 P 713.176 7.20834 5.23717 0
M  V30 4086 O 713.396 7.79853 6.57286 0
M  V30 4087 O 713.966 7.79239 4.12957 0
M  V30 4088 O 713.426 5.63315 5.29344 0
M  V30 4089 C 712.486 4.80255 6.01876 0
M  V30 4090 C 713.216 3.64202 6.65911 0
M  V30 4091 O 713.426 2.60694 5.64732 0
M  V30 4092 C 714.616 3.93473 7.1943 0
M  V30 4093 O 715.006 3.02071 8.21205 0
M  V30 4094 C 715.496 3.73047 5.97036 0
M  V30 4095 C 714.786 2.58828 5.25741 0
M  V30 4096 N 714.836 2.68068 3.77503 0
M  V30 4097 H 711.997 5.40332 6.79951 0
M  V30 4098 H 711.727 4.41613 5.32378 0
M  V30 4099 H 712.594 3.26331 7.47797 0
M  V30 4100 P 716.556 2.75334 8.47391 0
M  V30 4101 O 716.776 2.44571 9.90142 0
M  V30 4102 O 717.346 3.87688 7.92115 0
M  V30 4103 O 716.806 1.4459 7.59357 0
M  V30 4104 C 715.866 0.347608 7.69215 0
M  V30 4105 C 716.596 -0.96767 7.52806 0
M  V30 4106 O 716.806 -1.21036 6.1011 0
M  V30 4107 C 717.996 -1.04544 8.13308 0
M  V30 4108 O 718.386 -2.38311 8.41922 0
M  V30 4109 C 718.876 -0.491279 7.02284 0
M  V30 4110 C 718.166 -0.996264 5.77469 0
M  V30 4111 N 718.216 -0.0501916 4.62973 0
M  V30 4112 C 718.136 1.32786 4.63244 0
M  V30 4113 N 718.216 1.86957 3.44545 0
M  V30 4114 C 718.356 0.780241 2.58481 0
M  V30 4115 C 718.486 0.738536 1.17757 0
M  V30 4116 N 718.606 -0.58337 0.711393 0
M  V30 4117 C 718.606 -1.70816 1.51017 0
M  V30 4118 N 718.736 -2.87826 0.880757 0
M  V30 4119 N 718.476 -1.67126 2.8339 0
M  V30 4120 C 718.356 -0.401421 3.30572 0
M  V30 4121 H 715.377 0.374722 8.67691 0
M  V30 4122 H 715.107 0.443485 6.90277 0
M  V30 4123 H 715.974 -1.75537 7.96793 0
M  V30 4124 P 719.936 -2.75334 8.47391 0
M  V30 4125 O 720.156 -3.84128 9.44797 0
M  V30 4126 O 720.726 -1.51947 8.68712 0
M  V30 4127 O 720.186 -3.29363 6.99321 0
M  V30 4128 C 719.246 -4.24011 6.4274 0
M  V30 4129 C 719.976 -5.20775 5.52155 0
M  V30 4130 O 720.186 -4.56534 4.22446 0
M  V30 4131 C 721.376 -5.62629 5.96531 0
M  V30 4132 O 721.766 -6.87667 5.41053 0
M  V30 4133 C 722.256 -4.52537 5.39283 0
M  V30 4134 C 721.546 -4.20027 4.08623 0
M  V30 4135 N 721.596 -2.76189 3.71603 0
M  V30 4136 C 721.516 -1.64862 4.52822 0
M  V30 4137 N 721.596 -0.512671 3.88633 0
M  V30 4138 C 721.736 -0.888083 2.54977 0
M  V30 4139 C 721.866 -0.094668 1.38677 0
M  V30 4140 O 721.886 1.13053 1.28163 0
M  V30 4141 N 721.986 -0.890102 0.232633 0
M  V30 4142 C 721.986 -2.26958 0.21772 0
M  V30 4143 N 722.116 -2.84626 -0.97925 0
M  V30 4144 N 721.856 -3.0178 1.31033 0
M  V30 4145 C 721.736 -2.26781 2.43843 0
M  V30 4146 H 718.757 -4.797 7.24003 0
M  V30 4147 H 718.487 -3.69856 5.84513 0
M  V30 4148 H 719.354 -6.10356 5.41441 0
M  V30 4149 H 722.009 -4.79061 3.27488 0
M  V30 4150 H 722.288 -3.64906 6.05785 0
M  V30 4151 H 723.28 -4.8868 5.2125 0
M  V30 4152 H 721.446 -5.66726 7.06352 0
M  V30 4153 H 721.397 -1.71169 5.60966 0
M  V30 4154 H 722.079 -0.419134 -0.644739 0
M  V30 4155 H 722.116 -3.87332 -1.06098 0
M  V30 4156 H 722.217 -2.26417 -1.82483 0
M  V30 4157 P 723.316 -7.20834 5.23717 0
M  V30 4158 O 723.536 -8.66189 5.38625 0
M  V30 4159 O 724.106 -6.33615 6.1356 0
M  V30 4160 O 723.566 -6.7751 3.72168 0
M  V30 4161 C 722.626 -7.20732 2.70725 0
M  V30 4162 C 723.356 -7.45864 1.40599 0
M  V30 4163 O 723.566 -6.17651 0.734225 0
M  V30 4164 C 724.756 -8.05808 1.51899 0
M  V30 4165 O 725.146 -8.74358 0.335205 0
M  V30 4166 C 725.636 -6.83093 1.70294 0
M  V30 4167 C 724.926 -5.79992 0.836974 0
M  V30 4168 N 724.976 -4.41769 1.38263 0
M  V30 4169 C 725.126 -3.38591 0.481702 0
M  V30 4170 O 725.216 -3.56839 -0.718452 0
M  V30 4171 N 725.166 -2.1206 1.03569 0
M  V30 4172 C 725.076 -1.80696 2.36966 0
M  V30 4173 O 725.126 -0.630473 2.74862 0
M  V30 4174 C 724.926 -2.94845 3.23898 0
M  V30 4175 C 724.816 -2.65253 4.70362 0
M  V30 4176 C 724.876 -4.19803 2.73435 0
M  V30 4177 H 722.136 -8.13644 3.0377 0
M  V30 4178 H 721.867 -6.42695 2.55448 0
M  V30 4179 H 722.734 -8.12039 0.792769 0
M  V30 4180 H 725.389 -5.79978 -0.160587 0
M  V30 4181 H 725.668 -6.51379 2.75643 0
M  V30 4182 H 726.66 -7.01734 1.34462 0
M  V30 4183 H 724.826 -8.73674 2.38337 0
M  V30 4184 H 724.755 -5.04492 3.4095 0
M  V30 4185 H 725.785 -2.83924 5.1913 0
M  V30 4186 H 724.048 -3.29824 5.15163 0
M  V30 4187 H 724.536 -1.59723 4.84449 0
M  V30 4188 H 725.272 -1.35644 0.399345 0
M  V30 4189 P 726.696 -8.91 -4.98617e-12 0
M  V30 4190 O 726.916 -10.1726 -0.733694 0
M  V30 4191 O 727.486 -8.73148 1.23936 0
M  V30 4192 O 726.946 -7.66872 -0.971405 0
M  V30 4193 C 726.006 -7.42309 -2.04641 0
M  V30 4194 C 726.736 -6.86059 -3.24661 0
M  V30 4195 O 726.946 -5.42847 -3.03646 0
M  V30 4196 C 728.136 -7.41196 -3.50753 0
M  V30 4197 O 728.526 -7.27073 -4.86816 0
M  V30 4198 C 729.016 -6.5273 -2.63741 0
M  V30 4199 C 728.306 -5.1842 -2.73198 0
M  V30 4200 N 728.356 -4.38762 -1.4784 0
M  V30 4201 H 725.517 -8.36803 -2.32493 0
M  V30 4202 H 725.247 -6.70197 -1.71129 0
M  V30 4203 H 726.114 -7.03551 -4.13168 0
M  V30 4204 P 730.076 -7.20834 -5.23717 0
M  V30 4205 O 730.296 -7.79853 -6.57286 0
M  V30 4206 O 730.866 -7.79239 -4.12957 0
M  V30 4207 O 730.326 -5.63315 -5.29344 0
M  V30 4208 C 729.386 -4.80255 -6.01876 0
M  V30 4209 C 730.116 -3.64202 -6.65911 0
M  V30 4210 O 730.326 -2.60694 -5.64732 0
M  V30 4211 C 731.516 -3.93473 -7.1943 0
M  V30 4212 O 731.906 -3.02071 -8.21205 0
M  V30 4213 C 732.396 -3.73047 -5.97036 0
M  V30 4214 C 731.686 -2.58828 -5.25741 0
M  V30 4215 N 731.736 -2.68068 -3.77503 0
M  V30 4216 C 731.656 -3.79715 -2.96723 0
M  V30 4217 N 731.736 -3.5377 -1.68852 0
M  V30 4218 C 731.876 -2.15054 -1.63254 0
M  V30 4219 C 732.006 -1.28964 -0.518571 0
M  V30 4220 N 732.126 0.0538097 -0.918425 0
M  V30 4221 C 732.126 0.494275 -2.22578 0
M  V30 4222 N 732.256 1.81086 -2.40434 0
M  V30 4223 N 731.996 -0.313645 -3.27502 0
M  V30 4224 C 731.876 -1.61829 -2.91033 0
M  V30 4225 H 728.897 -5.40332 -6.79951 0
M  V30 4226 H 728.627 -4.41613 -5.32378 0
M  V30 4227 H 729.494 -3.26331 -7.47797 0
M  V30 4228 P 733.456 -2.75334 -8.47391 0
M  V30 4229 O 733.676 -2.44571 -9.90142 0
M  V30 4230 O 734.246 -3.87688 -7.92115 0
M  V30 4231 O 733.706 -1.4459 -7.59357 0
M  V30 4232 C 732.766 -0.347608 -7.69215 0
M  V30 4233 C 733.496 0.96767 -7.52806 0
M  V30 4234 O 733.706 1.21036 -6.1011 0
M  V30 4235 C 734.896 1.04544 -8.13308 0
M  V30 4236 O 735.286 2.38311 -8.41922 0
M  V30 4237 C 735.776 0.491279 -7.02284 0
M  V30 4238 C 735.066 0.996264 -5.77469 0
M  V30 4239 N 735.116 0.0501916 -4.62973 0
M  V30 4240 H 732.277 -0.374722 -8.67691 0
M  V30 4241 H 732.007 -0.443485 -6.90277 0
M  V30 4242 H 732.874 1.75537 -7.96793 0
M  V30 4243 P 736.836 2.75334 -8.47391 0
M  V30 4244 O 737.056 3.84204 -9.44982 0
M  V30 4245 O 737.626 1.51982 -8.68909 0
M  V30 4246 O 737.086 3.29363 -6.99321 0
M  V30 4247 C 736.146 4.24066 -6.42823 0
M  V30 4248 C 736.876 5.20775 -5.52155 0
M  V30 4249 O 737.086 4.56607 -4.22514 0
M  V30 4250 C 738.276 5.62697 -5.96604 0
M  V30 4251 O 738.666 6.87667 -5.41053 0
M  V30 4252 C 739.156 4.52537 -5.39283 0
M  V30 4253 C 738.446 4.20027 -4.08623 0
M  V30 4254 N 738.496 2.76189 -3.71603 0
M  V30 4255 C 738.416 1.66944 -4.54297 0
M  V30 4256 N 738.486 0.536169 -3.91344 0
M  V30 4257 C 738.636 0.901569 -2.58849 0
M  V30 4258 C 738.766 0.146599 -1.40236 0
M  V30 4259 N 738.776 -1.18234 -1.37046 0
M  V30 4260 N 738.886 0.822941 -0.249738 0
M  V30 4261 C 738.876 2.15179 -0.280525 0
M  V30 4262 N 738.756 2.96414 -1.30822 0
M  V30 4263 C 738.636 2.25804 -2.44748 0
M  V30 4264 H 735.658 4.79756 -7.24086 0
M  V30 4265 H 735.386 3.69963 -5.84682 0
M  V30 4266 H 736.254 6.10431 -5.41508 0
M  V30 4267 H 738.909 4.78816 -3.28024 0
M  V30 4268 H 739.189 3.64957 -6.05871 0
M  V30 4269 H 740.18 4.88748 -5.21323 0
M  V30 4270 H 738.346 5.66789 -7.0643 0
M  V30 4271 H 738.305 1.74684 -5.62396 0
M  V30 4272 H 738.686 -1.71949 -2.24394 0
M  V30 4273 H 738.875 -1.67511 -0.470742 0
M  V30 4274 H 738.983 2.63704 0.6828 0
M  V30 4275 P 740.216 7.20834 -5.23717 0
M  V30 4276 O 740.436 8.66104 -5.38572 0
M  V30 4277 O 741.006 6.33544 -6.1349 0
M  V30 4278 O 740.466 6.7751 -3.72168 0
M  V30 4279 C 739.526 7.20825 -2.7076 0
M  V30 4280 C 740.256 7.45864 -1.40599 0
M  V30 4281 O 740.466 6.17651 -0.734225 0
M  V30 4282 C 741.656 8.05808 -1.51899 0
M  V30 4283 O 742.046 8.74358 -0.335205 0
M  V30 4284 C 742.536 6.83093 -1.70294 0
M  V30 4285 C 741.826 5.79992 -0.836974 0
M  V30 4286 N 741.876 4.41864 -1.38293 0
M  V30 4287 H 739.037 8.13644 -3.0377 0
M  V30 4288 H 738.767 6.42788 -2.55485 0
M  V30 4289 H 739.634 8.12039 -0.792769 0
M  V30 4290 P 743.596 8.91 5.14336e-12 0
M  V30 4291 O 743.816 10.1726 0.733694 0
M  V30 4292 O 744.386 8.73148 -1.23936 0
M  V30 4293 O 743.846 7.66872 0.971405 0
M  V30 4294 C 742.906 7.42309 2.04641 0
M  V30 4295 C 743.636 6.86059 3.24661 0
M  V30 4296 O 743.846 5.42847 3.03646 0
M  V30 4297 C 745.036 7.41196 3.50753 0
M  V30 4298 O 745.426 7.27073 4.86816 0
M  V30 4299 C 745.916 6.5273 2.63741 0
M  V30 4300 C 745.206 5.1842 2.73198 0
M  V30 4301 N 745.256 4.38762 1.4784 0
M  V30 4302 C 745.176 4.81605 0.168631 0
M  V30 4303 N 745.256 3.85454 -0.713363 0
M  V30 4304 C 745.396 2.6994 0.0566958 0
M  V30 4305 C 745.526 1.34815 -0.338502 0
M  V30 4306 N 745.646 0.496304 0.77465 0
M  V30 4307 C 745.646 0.908403 2.09122 0
M  V30 4308 N 745.776 -0.0517805 3.00955 0
M  V30 4309 N 745.516 2.17875 2.46519 0
M  V30 4310 C 745.396 3.01988 1.4033 0
M  V30 4311 H 742.417 8.36803 2.32493 0
M  V30 4312 H 742.147 6.70197 1.71129 0
M  V30 4313 H 743.014 7.03551 4.13168 0
M  V30 4314 P 746.976 7.20834 5.23717 0
M  V30 4315 O 747.196 7.79853 6.57286 0
M  V30 4316 O 747.766 7.79239 4.12957 0
M  V30 4317 O 747.226 5.63315 5.29344 0
M  V30 4318 C 746.286 4.80255 6.01876 0
M  V30 4319 C 747.016 3.64202 6.65911 0
M  V30 4320 O 747.226 2.60694 5.64732 0
M  V30 4321 C 748.416 3.93473 7.1943 0
M  V30 4322 O 748.806 3.02071 8.21205 0
M  V30 4323 C 749.296 3.73047 5.97036 0
M  V30 4324 C 748.586 2.58828 5.25741 0
M  V30 4325 N 748.636 2.68068 3.77503 0
M  V30 4326 H 745.797 5.40332 6.79951 0
M  V30 4327 H 745.527 4.41613 5.32378 0
M  V30 4328 H 746.394 3.26331 7.47797 0
M  V30 4329 P 750.356 2.75334 8.47391 0
M  V30 4330 O 750.576 2.44595 9.90239 0
M  V30 4331 O 751.146 3.87732 7.92204 0
M  V30 4332 O 750.606 1.4459 7.59357 0
M  V30 4333 C 749.666 0.347563 7.69115 0
M  V30 4334 C 750.396 -0.96767 7.52806 0
M  V30 4335 O 750.606 -1.21036 6.1011 0
M  V30 4336 C 751.796 -1.04544 8.13308 0
M  V30 4337 O 752.186 -2.38311 8.41922 0
M  V30 4338 C 752.676 -0.491279 7.02284 0
M  V30 4339 C 751.966 -0.996264 5.77469 0
M  V30 4340 N 752.016 -0.0501808 4.62873 0
M  V30 4341 C 752.166 -0.588177 3.36904 0
M  V30 4342 O 752.256 -1.78598 3.17173 0
M  V30 4343 N 752.206 0.329694 2.33686 0
M  V30 4344 C 752.116 1.6953 2.45079 0
M  V30 4345 O 752.166 2.41926 1.44899 0
M  V30 4346 C 751.966 2.16933 3.80505 0
M  V30 4347 C 751.856 3.65373 3.97621 0
M  V30 4348 C 751.916 1.30326 4.83752 0
M  V30 4349 H 749.176 0.374722 8.67691 0
M  V30 4350 H 748.907 0.443421 6.90177 0
M  V30 4351 H 749.774 -1.75537 7.96793 0
M  V30 4352 H 752.429 -1.94496 5.46629 0
M  V30 4353 H 752.708 0.608651 7.04676 0
M  V30 4354 H 753.7 -0.889672 7.08939 0
M  V30 4355 H 751.866 -0.43308 9.04564 0
M  V30 4356 H 751.795 1.68366 5.8516 0
M  V30 4357 H 752.825 4.05985 4.30448 0
M  V30 4358 H 751.088 3.88028 4.72875 0
M  V30 4359 H 751.576 4.11381 3.01609 0
M  V30 4360 H 752.312 -0.0393617 1.41345 0
M  V30 4361 P 753.736 -2.75334 8.47391 0
M  V30 4362 O 753.956 -3.84128 9.44797 0
M  V30 4363 O 754.526 -1.51947 8.68712 0
M  V30 4364 O 753.986 -3.29363 6.99321 0
M  V30 4365 C 753.046 -4.24011 6.4274 0
M  V30 4366 C 753.776 -5.20775 5.52155 0
M  V30 4367 O 753.986 -4.56534 4.22446 0
M  V30 4368 C 755.176 -5.62629 5.96531 0
M  V30 4369 O 755.566 -6.87667 5.41053 0
M  V30 4370 C 756.056 -4.52537 5.39283 0
M  V30 4371 C 755.346 -4.20027 4.08623 0
M  V30 4372 N 755.396 -2.76189 3.71603 0
M  V30 4373 H 752.557 -4.797 7.24003 0
M  V30 4374 H 752.287 -3.69856 5.84513 0
M  V30 4375 H 753.154 -6.10356 5.41441 0
M  V30 4376 P 757.116 -7.20834 5.23717 0
M  V30 4377 O 757.336 -8.66104 5.38572 0
M  V30 4378 O 757.906 -6.33544 6.1349 0
M  V30 4379 O 757.366 -6.7751 3.72168 0
M  V30 4380 C 756.426 -7.20825 2.7076 0
M  V30 4381 C 757.156 -7.45864 1.40599 0
M  V30 4382 O 757.366 -6.17651 0.734225 0
M  V30 4383 C 758.556 -8.05808 1.51899 0
M  V30 4384 O 758.946 -8.74358 0.335205 0
M  V30 4385 C 759.436 -6.83093 1.70294 0
M  V30 4386 C 758.726 -5.79992 0.836974 0
M  V30 4387 N 758.776 -4.41864 1.38293 0
M  V30 4388 C 758.696 -3.99538 2.69438 0
M  V30 4389 N 758.776 -2.69909 2.84277 0
M  V30 4390 C 758.916 -2.21719 1.5408 0
M  V30 4391 C 759.046 -0.891712 1.06628 0
M  V30 4392 N 759.166 -0.856846 -0.334985 0
M  V30 4393 C 759.166 -1.9641 -1.15789 0
M  V30 4394 N 759.296 -1.72708 -2.46522 0
M  V30 4395 N 759.036 -3.21165 -0.713741 0
M  V30 4396 C 758.916 -3.26797 0.639748 0
M  V30 4397 H 755.937 -8.13644 3.0377 0
M  V30 4398 H 755.667 -6.42788 2.55485 0
M  V30 4399 H 756.534 -8.12039 0.792769 0
M  V30 4400 P 760.496 -8.91 -5.30054e-12 0
M  V30 4401 O 760.716 -10.1726 -0.733694 0
M  V30 4402 O 761.286 -8.73148 1.23936 0
M  V30 4403 O 760.746 -7.66872 -0.971405 0
M  V30 4404 C 759.806 -7.42309 -2.04641 0
M  V30 4405 C 760.536 -6.86059 -3.24661 0
M  V30 4406 O 760.746 -5.42847 -3.03646 0
M  V30 4407 C 761.936 -7.41196 -3.50753 0
M  V30 4408 O 762.326 -7.27073 -4.86816 0
M  V30 4409 C 762.816 -6.5273 -2.63741 0
M  V30 4410 C 762.106 -5.1842 -2.73198 0
M  V30 4411 N 762.156 -4.38762 -1.4784 0
M  V30 4412 H 759.317 -8.36803 -2.32493 0
M  V30 4413 H 759.047 -6.70197 -1.71129 0
M  V30 4414 H 759.914 -7.03551 -4.13168 0
M  V30 4415 P 763.875 -7.20834 -5.23717 0
M  V30 4416 O 764.095 -7.79853 -6.57286 0
M  V30 4417 O 764.665 -7.79239 -4.12957 0
M  V30 4418 O 764.125 -5.63315 -5.29344 0
M  V30 4419 C 763.185 -4.80255 -6.01876 0
M  V30 4420 C 763.915 -3.64202 -6.65911 0
M  V30 4421 O 764.125 -2.60694 -5.64732 0
M  V30 4422 C 765.315 -3.93473 -7.1943 0
M  V30 4423 O 765.705 -3.02071 -8.21205 0
M  V30 4424 C 766.195 -3.73047 -5.97036 0
M  V30 4425 C 765.485 -2.58828 -5.25741 0
M  V30 4426 N 765.535 -2.68068 -3.77503 0
M  V30 4427 C 765.455 -3.79715 -2.96723 0
M  V30 4428 N 765.535 -3.5377 -1.68852 0
M  V30 4429 C 765.675 -2.15054 -1.63254 0
M  V30 4430 C 765.805 -1.28964 -0.518571 0
M  V30 4431 N 765.925 0.0538097 -0.918425 0
M  V30 4432 C 765.925 0.494275 -2.22578 0
M  V30 4433 N 766.055 1.81086 -2.40434 0
M  V30 4434 N 765.795 -0.313645 -3.27502 0
M  V30 4435 C 765.675 -1.61829 -2.91033 0
M  V30 4436 H 762.696 -5.40332 -6.79951 0
M  V30 4437 H 762.426 -4.41613 -5.32378 0
M  V30 4438 H 763.293 -3.26331 -7.47797 0
M  V30 4439 P 767.255 -2.75334 -8.47391 0
M  V30 4440 O 767.475 -2.44571 -9.90142 0
M  V30 4441 O 768.045 -3.87688 -7.92115 0
M  V30 4442 O 767.505 -1.4459 -7.59357 0
M  V30 4443 C 766.565 -0.347608 -7.69215 0
M  V30 4444 C 767.295 0.96767 -7.52806 0
M  V30 4445 O 767.505 1.21036 -6.1011 0
M  V30 4446 C 768.695 1.04544 -8.13308 0
M  V30 4447 O 769.085 2.38311 -8.41922 0
M  V30 4448 C 769.575 0.491279 -7.02284 0
M  V30 4449 C 768.865 0.996264 -5.77469 0
M  V30 4450 N 768.915 0.0501916 -4.62973 0
M  V30 4451 H 766.076 -0.374722 -8.67691 0
M  V30 4452 H 765.806 -0.443485 -6.90277 0
M  V30 4453 H 766.673 1.75537 -7.96793 0
M  V30 4454 P 770.635 2.75334 -8.47391 0
M  V30 4455 O 770.855 3.84204 -9.44982 0
M  V30 4456 O 771.425 1.51982 -8.68909 0
M  V30 4457 O 770.885 3.29363 -6.99321 0
M  V30 4458 C 769.945 4.24066 -6.42823 0
M  V30 4459 C 770.675 5.20775 -5.52155 0
M  V30 4460 O 770.885 4.56607 -4.22514 0
M  V30 4461 C 772.075 5.62697 -5.96604 0
M  V30 4462 O 772.465 6.87667 -5.41053 0
M  V30 4463 C 772.955 4.52537 -5.39283 0
M  V30 4464 C 772.245 4.20027 -4.08623 0
M  V30 4465 N 772.295 2.76189 -3.71603 0
M  V30 4466 H 769.457 4.79756 -7.24086 0
M  V30 4467 H 769.185 3.69963 -5.84682 0
M  V30 4468 H 770.053 6.10431 -5.41508 0
M  V30 4469 H 772.708 4.78816 -3.28024 0
M  V30 4470 H 772.988 3.64957 -6.05871 0
M  V30 4471 H 773.979 4.88748 -5.21323 0
M  V30 4472 H 772.145 5.66789 -7.0643 0
M  V30 4473 P 774.015 7.20834 -5.23717 0
M  V30 4474 O 774.235 8.66104 -5.38572 0
M  V30 4475 O 774.805 6.33544 -6.1349 0
M  V30 4476 O 774.265 6.7751 -3.72168 0
M  V30 4477 C 773.325 7.20825 -2.7076 0
M  V30 4478 C 774.055 7.45864 -1.40599 0
M  V30 4479 O 774.265 6.17651 -0.734225 0
M  V30 4480 C 775.455 8.05808 -1.51899 0
M  V30 4481 O 775.845 8.74358 -0.335205 0
M  V30 4482 C 776.335 6.83093 -1.70294 0
M  V30 4483 C 775.625 5.79992 -0.836974 0
M  V30 4484 N 775.675 4.41864 -1.38293 0
M  V30 4485 H 772.836 8.13644 -3.0377 0
M  V30 4486 H 772.566 6.42788 -2.55485 0
M  V30 4487 H 773.433 8.12039 -0.792769 0
M  V30 4488 P 777.395 8.91 5.45772e-12 0
M  V30 4489 O 777.615 10.1736 0.733766 0
M  V30 4490 O 778.185 8.73247 -1.2395 0
M  V30 4491 O 777.645 7.66872 0.971405 0
M  V30 4492 C 776.705 7.42212 2.04614 0
M  V30 4493 C 777.435 6.86059 3.24661 0
M  V30 4494 O 777.645 5.42847 3.03646 0
M  V30 4495 C 778.835 7.41196 3.50753 0
M  V30 4496 O 779.225 7.27073 4.86816 0
M  V30 4497 C 779.715 6.5273 2.63741 0
M  V30 4498 C 779.005 5.1842 2.73198 0
M  V30 4499 N 779.055 4.38668 1.47808 0
M  V30 4500 C 779.205 3.02239 1.60048 0
M  V30 4501 O 779.295 2.46459 2.67869 0
M  V30 4502 N 779.245 2.32436 0.408571 0
M  V30 4503 C 779.155 2.85471 -0.854993 0
M  V30 4504 O 779.205 2.12566 -1.8531 0
M  V30 4505 C 779.005 4.28918 -0.887335 0
M  V30 4506 C 778.895 4.91066 -2.24619 0
M  V30 4507 C 778.955 5.00349 0.255399 0
M  V30 4508 H 776.215 8.36803 2.32493 0
M  V30 4509 H 775.946 6.701 1.71105 0
M  V30 4510 H 776.813 7.03551 4.13168 0
M  V30 4511 H 779.468 4.59773 3.53894 0
M  V30 4512 H 779.747 6.88995 1.59871 0
M  V30 4513 H 780.739 6.46749 3.03687 0
M  V30 4514 H 778.905 8.46908 3.20714 0
M  V30 4515 H 778.834 6.08548 0.206986 0
M  V30 4516 H 779.864 5.34836 -2.53099 0
M  V30 4517 H 778.127 5.69638 -2.2291 0
M  V30 4518 H 778.615 4.13971 -2.98044 0
M  V30 4519 H 779.351 1.33211 0.474216 0
M  V30 4520 P 780.775 7.20834 5.23717 0
M  V30 4521 O 780.995 7.79853 6.57286 0
M  V30 4522 O 781.565 7.79239 4.12957 0
M  V30 4523 O 781.025 5.63315 5.29344 0
M  V30 4524 C 780.085 4.80255 6.01876 0
M  V30 4525 C 780.815 3.64202 6.65911 0
M  V30 4526 O 781.025 2.60694 5.64732 0
M  V30 4527 C 782.215 3.93473 7.1943 0
M  V30 4528 O 782.605 3.02071 8.21205 0
M  V30 4529 C 783.095 3.73047 5.97036 0
M  V30 4530 C 782.385 2.58828 5.25741 0
M  V30 4531 N 782.435 2.68068 3.77503 0
M  V30 4532 H 779.596 5.40332 6.79951 0
M  V30 4533 H 779.326 4.41613 5.32378 0
M  V30 4534 H 780.193 3.26331 7.47797 0
M  V30 4535 P 784.155 2.75334 8.47391 0
M  V30 4536 O 784.375 2.44571 9.90142 0
M  V30 4537 O 784.945 3.87688 7.92115 0
M  V30 4538 O 784.405 1.4459 7.59357 0
M  V30 4539 C 783.465 0.347608 7.69215 0
M  V30 4540 C 784.195 -0.96767 7.52806 0
M  V30 4541 O 784.405 -1.21036 6.1011 0
M  V30 4542 C 785.595 -1.04544 8.13308 0
M  V30 4543 O 785.985 -2.38311 8.41922 0
M  V30 4544 C 786.475 -0.491279 7.02284 0
M  V30 4545 C 785.765 -0.996264 5.77469 0
M  V30 4546 N 785.815 -0.0501916 4.62973 0
M  V30 4547 H 782.976 0.374722 8.67691 0
M  V30 4548 H 782.706 0.443485 6.90277 0
M  V30 4549 H 783.573 -1.75537 7.96793 0
M  V30 4550 P 787.535 -2.75334 8.47391 0
M  V30 4551 O 787.755 -3.84128 9.44797 0
M  V30 4552 O 788.325 -1.51947 8.68712 0
M  V30 4553 O 787.785 -3.29363 6.99321 0
M  V30 4554 C 786.845 -4.24011 6.4274 0
M  V30 4555 C 787.575 -5.20775 5.52155 0
M  V30 4556 O 787.785 -4.56534 4.22446 0
M  V30 4557 C 788.975 -5.62629 5.96531 0
M  V30 4558 O 789.365 -6.87667 5.41053 0
M  V30 4559 C 789.855 -4.52537 5.39283 0
M  V30 4560 C 789.145 -4.20027 4.08623 0
M  V30 4561 N 789.195 -2.76189 3.71603 0
M  V30 4562 H 786.356 -4.797 7.24003 0
M  V30 4563 H 786.086 -3.69856 5.84513 0
M  V30 4564 H 786.953 -6.10356 5.41441 0
M  V30 4565 P 790.915 -7.20834 5.23717 0
M  V30 4566 O 791.135 -8.66274 5.38678 0
M  V30 4567 O 791.705 -6.33687 6.13629 0
M  V30 4568 O 791.165 -6.7751 3.72168 0
M  V30 4569 C 790.225 -7.20919 2.70795 0
M  V30 4570 C 790.955 -7.45864 1.40599 0
M  V30 4571 O 791.165 -6.17751 0.734343 0
M  V30 4572 C 792.355 -8.05906 1.51917 0
M  V30 4573 O 792.745 -8.74358 0.335205 0
M  V30 4574 C 793.235 -6.83093 1.70294 0
M  V30 4575 C 792.525 -5.79992 0.836974 0
M  V30 4576 N 792.575 -4.41864 1.38293 0
M  V30 4577 C 792.495 -4.02089 2.69407 0
M  V30 4578 N 792.565 -2.73403 2.85089 0
M  V30 4579 C 792.715 -2.25086 1.5642 0
M  V30 4580 C 792.845 -0.942887 1.04836 0
M  V30 4581 N 792.855 0.150999 1.80369 0
M  V30 4582 N 792.965 -0.812565 -0.28167 0
M  V30 4583 C 792.955 -1.90572 -1.03784 0
M  V30 4584 N 792.835 -3.167 -0.683905 0
M  V30 4585 C 792.715 -3.26538 0.652815 0
M  V30 4586 H 789.737 -8.13738 3.03804 0
M  V30 4587 H 789.465 -6.42974 2.55559 0
M  V30 4588 H 790.333 -8.12139 0.792866 0
M  V30 4589 H 792.988 -5.80178 -0.160643 0
M  V30 4590 H 793.268 -6.51379 2.75643 0
M  V30 4591 H 794.259 -7.01832 1.3448 0
M  V30 4592 H 792.425 -8.73771 2.38364 0
M  V30 4593 H 792.384 -4.7189 3.52311 0
M  V30 4594 H 792.765 0.0721434 2.82608 0
M  V30 4595 H 792.954 1.0785 1.36544 0
M  V30 4596 H 793.062 -1.73207 -2.10241 0
M  V30 4597 P 794.295 -8.91 -5.6149e-12 0
M  V30 4598 O 794.515 -10.1726 -0.733694 0
M  V30 4599 O 795.085 -8.73148 1.23936 0
M  V30 4600 O 794.545 -7.66872 -0.971405 0
M  V30 4601 C 793.605 -7.42309 -2.04641 0
M  V30 4602 C 794.335 -6.86059 -3.24661 0
M  V30 4603 O 794.545 -5.42847 -3.03646 0
M  V30 4604 C 795.735 -7.41196 -3.50753 0
M  V30 4605 O 796.125 -7.27073 -4.86816 0
M  V30 4606 C 796.615 -6.5273 -2.63741 0
M  V30 4607 C 795.905 -5.1842 -2.73198 0
M  V30 4608 N 795.955 -4.38762 -1.4784 0
M  V30 4609 H 793.116 -8.36803 -2.32493 0
M  V30 4610 H 792.846 -6.70197 -1.71129 0
M  V30 4611 H 793.713 -7.03551 -4.13168 0
M  V30 4612 P 797.675 -7.20834 -5.23717 0
M  V30 4613 O 797.895 -7.79853 -6.57286 0
M  V30 4614 O 798.465 -7.79239 -4.12957 0
M  V30 4615 O 797.925 -5.63315 -5.29344 0
M  V30 4616 C 796.985 -4.80255 -6.01876 0
M  V30 4617 C 797.715 -3.64202 -6.65911 0
M  V30 4618 O 797.925 -2.60694 -5.64732 0
M  V30 4619 C 799.115 -3.93473 -7.1943 0
M  V30 4620 O 799.505 -3.02071 -8.21205 0
M  V30 4621 C 799.995 -3.73047 -5.97036 0
M  V30 4622 C 799.285 -2.58828 -5.25741 0
M  V30 4623 N 799.335 -2.68068 -3.77503 0
M  V30 4624 C 799.255 -3.79715 -2.96723 0
M  V30 4625 N 799.335 -3.5377 -1.68852 0
M  V30 4626 C 799.475 -2.15054 -1.63254 0
M  V30 4627 C 799.605 -1.28964 -0.518571 0
M  V30 4628 N 799.725 0.0538097 -0.918425 0
M  V30 4629 C 799.725 0.494275 -2.22578 0
M  V30 4630 N 799.855 1.81086 -2.40434 0
M  V30 4631 N 799.595 -0.313645 -3.27502 0
M  V30 4632 C 799.475 -1.61829 -2.91033 0
M  V30 4633 H 796.496 -5.40332 -6.79951 0
M  V30 4634 H 796.226 -4.41613 -5.32378 0
M  V30 4635 H 797.093 -3.26331 -7.47797 0
M  V30 4636 P 801.055 -2.75334 -8.47391 0
M  V30 4637 O 801.275 -2.44571 -9.90142 0
M  V30 4638 O 801.845 -3.87688 -7.92115 0
M  V30 4639 O 801.305 -1.4459 -7.59357 0
M  V30 4640 C 800.365 -0.347608 -7.69215 0
M  V30 4641 C 801.095 0.96767 -7.52806 0
M  V30 4642 O 801.305 1.21036 -6.1011 0
M  V30 4643 C 802.495 1.04544 -8.13308 0
M  V30 4644 O 802.885 2.38311 -8.41922 0
M  V30 4645 C 803.375 0.491279 -7.02284 0
M  V30 4646 C 802.665 0.996264 -5.77469 0
M  V30 4647 N 802.715 0.0501916 -4.62973 0
M  V30 4648 H 799.876 -0.374722 -8.67691 0
M  V30 4649 H 799.606 -0.443485 -6.90277 0
M  V30 4650 H 800.473 1.75537 -7.96793 0
M  V30 4651 P 804.435 2.75334 -8.47391 0
M  V30 4652 O 804.655 3.84128 -9.44797 0
M  V30 4653 O 805.225 1.51947 -8.68712 0
M  V30 4654 O 804.685 3.29363 -6.99321 0
M  V30 4655 C 803.745 4.24011 -6.4274 0
M  V30 4656 C 804.475 5.20775 -5.52155 0
M  V30 4657 O 804.685 4.56534 -4.22446 0
M  V30 4658 C 805.875 5.62629 -5.96531 0
M  V30 4659 O 806.265 6.87667 -5.41053 0
M  V30 4660 C 806.755 4.52537 -5.39283 0
M  V30 4661 C 806.045 4.20027 -4.08623 0
M  V30 4662 N 806.095 2.76189 -3.71603 0
M  V30 4663 H 803.256 4.797 -7.24003 0
M  V30 4664 H 802.986 3.69856 -5.84513 0
M  V30 4665 H 803.853 6.10356 -5.41441 0
M  V30 4666 P 807.815 7.20834 -5.23717 0
M  V30 4667 O 808.035 8.66189 -5.38625 0
M  V30 4668 O 808.605 6.33615 -6.1356 0
M  V30 4669 O 808.065 6.7751 -3.72168 0
M  V30 4670 C 807.125 7.20732 -2.70725 0
M  V30 4671 C 807.855 7.45864 -1.40599 0
M  V30 4672 O 808.065 6.17651 -0.734225 0
M  V30 4673 C 809.255 8.05808 -1.51899 0
M  V30 4674 O 809.645 8.74358 -0.335205 0
M  V30 4675 C 810.135 6.83093 -1.70294 0
M  V30 4676 C 809.425 5.79992 -0.836974 0
M  V30 4677 N 809.475 4.41769 -1.38263 0
M  V30 4678 C 809.625 3.38591 -0.481702 0
M  V30 4679 O 809.715 3.56839 0.718452 0
M  V30 4680 N 809.665 2.1206 -1.03569 0
M  V30 4681 C 809.575 1.80696 -2.36966 0
M  V30 4682 O 809.625 0.630473 -2.74862 0
M  V30 4683 C 809.425 2.94845 -3.23898 0
M  V30 4684 C 809.315 2.65253 -4.70362 0
M  V30 4685 C 809.375 4.19803 -2.73435 0
M  V30 4686 H 806.635 8.13644 -3.0377 0
M  V30 4687 H 806.366 6.42695 -2.55448 0
M  V30 4688 H 807.233 8.12039 -0.792769 0
M  V30 4689 H 809.888 5.79978 0.160587 0
M  V30 4690 H 810.167 6.51379 -2.75643 0
M  V30 4691 H 811.159 7.01734 -1.34462 0
M  V30 4692 H 809.325 8.73674 -2.38337 0
M  V30 4693 H 809.254 5.04492 -3.4095 0
M  V30 4694 H 810.284 2.83924 -5.1913 0
M  V30 4695 H 808.547 3.29824 -5.15163 0
M  V30 4696 H 809.035 1.59723 -4.84449 0
M  V30 4697 H 809.771 1.35644 -0.399345 0
M  V30 4698 P 811.195 8.91 5.77209e-12 0
M  V30 4699 O 811.415 10.1726 0.733694 0
M  V30 4700 O 811.985 8.73148 -1.23936 0
M  V30 4701 O 811.445 7.66872 0.971405 0
M  V30 4702 C 810.505 7.42309 2.04641 0
M  V30 4703 C 811.235 6.86059 3.24661 0
M  V30 4704 O 811.445 5.42847 3.03646 0
M  V30 4705 C 812.635 7.41196 3.50753 0
M  V30 4706 O 813.025 7.27073 4.86816 0
M  V30 4707 C 813.515 6.5273 2.63741 0
M  V30 4708 C 812.805 5.1842 2.73198 0
M  V30 4709 N 812.855 4.38762 1.4784 0
M  V30 4710 H 810.016 8.36803 2.32493 0
M  V30 4711 H 809.746 6.70197 1.71129 0
M  V30 4712 H 810.613 7.03551 4.13168 0
M  V30 4713 P 814.575 7.20834 5.23717 0
M  V30 4714 O 814.795 7.79853 6.57286 0
M  V30 4715 O 815.365 7.79239 4.12957 0
M  V30 4716 O 814.825 5.63315 5.29344 0
M  V30 4717 C 813.885 4.80255 6.01876 0
M  V30 4718 C 814.615 3.64202 6.65911 0
M  V30 4719 O 814.825 2.60694 5.64732 0
M  V30 4720 C 816.015 3.93473 7.1943 0
M  V30 4721 O 816.405 3.02071 8.21205 0
M  V30 4722 C 816.895 3.73047 5.97036 0
M  V30 4723 C 816.185 2.58828 5.25741 0
M  V30 4724 N 816.235 2.68068 3.77503 0
M  V30 4725 H 813.396 5.40332 6.79951 0
M  V30 4726 H 813.126 4.41613 5.32378 0
M  V30 4727 H 813.993 3.26331 7.47797 0
M  V30 4728 P 817.955 2.75334 8.47391 0
M  V30 4729 O 818.175 2.44571 9.90142 0
M  V30 4730 O 818.745 3.87688 7.92115 0
M  V30 4731 O 818.205 1.4459 7.59357 0
M  V30 4732 C 817.265 0.347608 7.69215 0
M  V30 4733 C 817.995 -0.96767 7.52806 0
M  V30 4734 O 818.205 -1.21036 6.1011 0
M  V30 4735 C 819.395 -1.04544 8.13308 0
M  V30 4736 O 819.785 -2.38311 8.41922 0
M  V30 4737 C 820.275 -0.491279 7.02284 0
M  V30 4738 C 819.565 -0.996264 5.77469 0
M  V30 4739 N 819.615 -0.0501916 4.62973 0
M  V30 4740 H 816.776 0.374722 8.67691 0
M  V30 4741 H 816.506 0.443485 6.90277 0
M  V30 4742 H 817.373 -1.75537 7.96793 0
M  V30 4743 P 821.335 -2.75334 8.47391 0
M  V30 4744 O 821.555 -3.84128 9.44797 0
M  V30 4745 O 822.125 -1.51947 8.68712 0
M  V30 4746 O 821.585 -3.29363 6.99321 0
M  V30 4747 C 820.645 -4.24011 6.4274 0
M  V30 4748 C 821.375 -5.20775 5.52155 0
M  V30 4749 O 821.585 -4.56534 4.22446 0
M  V30 4750 C 822.775 -5.62629 5.96531 0
M  V30 4751 O 823.165 -6.87667 5.41053 0
M  V30 4752 C 823.655 -4.52537 5.39283 0
M  V30 4753 C 822.945 -4.20027 4.08623 0
M  V30 4754 N 822.995 -2.76189 3.71603 0
M  V30 4755 H 820.156 -4.797 7.24003 0
M  V30 4756 H 819.886 -3.69856 5.84513 0
M  V30 4757 H 820.753 -6.10356 5.41441 0
M  V30 4758 P 824.715 -7.20834 5.23717 0
M  V30 4759 O 824.935 -8.66104 5.38572 0
M  V30 4760 O 825.505 -6.33544 6.1349 0
M  V30 4761 O 824.965 -6.7751 3.72168 0
M  V30 4762 C 824.025 -7.20825 2.7076 0
M  V30 4763 C 824.755 -7.45864 1.40599 0
M  V30 4764 O 824.965 -6.17651 0.734225 0
M  V30 4765 C 826.155 -8.05808 1.51899 0
M  V30 4766 O 826.545 -8.74358 0.335205 0
M  V30 4767 C 827.035 -6.83093 1.70294 0
M  V30 4768 C 826.325 -5.79992 0.836974 0
M  V30 4769 N 826.375 -4.41864 1.38293 0
M  V30 4770 H 823.536 -8.13644 3.0377 0
M  V30 4771 H 823.266 -6.42788 2.55485 0
M  V30 4772 H 824.133 -8.12039 0.792769 0
M  V30 4773 P 828.095 -8.91 -5.92927e-12 0
M  V30 4774 O 828.315 -10.1736 -0.733766 0
M  V30 4775 O 828.885 -8.73247 1.2395 0
M  V30 4776 O 828.345 -7.66872 -0.971405 0
M  V30 4777 C 827.405 -7.42212 -2.04614 0
M  V30 4778 C 828.135 -6.86059 -3.24661 0
M  V30 4779 O 828.345 -5.42847 -3.03646 0
M  V30 4780 C 829.535 -7.41196 -3.50753 0
M  V30 4781 O 829.925 -7.27073 -4.86816 0
M  V30 4782 C 830.415 -6.5273 -2.63741 0
M  V30 4783 C 829.705 -5.1842 -2.73198 0
M  V30 4784 N 829.755 -4.38668 -1.47808 0
M  V30 4785 C 829.905 -3.02239 -1.60048 0
M  V30 4786 O 829.995 -2.46459 -2.67869 0
M  V30 4787 N 829.945 -2.32436 -0.408571 0
M  V30 4788 C 829.855 -2.85471 0.854993 0
M  V30 4789 O 829.905 -2.12566 1.8531 0
M  V30 4790 C 829.705 -4.28918 0.887335 0
M  V30 4791 C 829.595 -4.91066 2.24619 0
M  V30 4792 C 829.655 -5.00349 -0.255399 0
M  V30 4793 H 826.915 -8.36803 -2.32493 0
M  V30 4794 H 826.646 -6.701 -1.71105 0
M  V30 4795 H 827.513 -7.03551 -4.13168 0
M  V30 4796 H 830.168 -4.59773 -3.53894 0
M  V30 4797 H 830.447 -6.88995 -1.59871 0
M  V30 4798 H 831.439 -6.46749 -3.03687 0
M  V30 4799 H 829.605 -8.46908 -3.20714 0
M  V30 4800 H 829.534 -6.08548 -0.206986 0
M  V30 4801 H 830.564 -5.34836 2.53099 0
M  V30 4802 H 828.827 -5.69638 2.2291 0
M  V30 4803 H 829.315 -4.13971 2.98044 0
M  V30 4804 H 830.051 -1.33211 -0.474216 0
M  V30 4805 P 831.475 -7.20834 -5.23717 0
M  V30 4806 O 831.695 -7.80006 -6.57415 0
M  V30 4807 O 832.265 -7.79416 -4.13051 0
M  V30 4808 O 831.725 -5.63315 -5.29344 0
M  V30 4809 C 830.785 -4.80318 -6.01954 0
M  V30 4810 C 831.515 -3.64202 -6.65911 0
M  V30 4811 O 831.725 -2.60736 -5.64823 0
M  V30 4812 C 832.915 -3.93521 -7.19518 0
M  V30 4813 O 833.305 -3.02071 -8.21205 0
M  V30 4814 C 833.795 -3.73047 -5.97036 0
M  V30 4815 C 833.085 -2.58828 -5.25741 0
M  V30 4816 N 833.135 -2.68068 -3.77503 0
M  V30 4817 H 830.297 -5.40394 -6.8003 0
M  V30 4818 H 830.025 -4.41741 -5.32532 0
M  V30 4819 H 830.893 -3.26371 -7.47889 0
M  V30 4820 H 833.548 -1.64007 -5.56746 0
M  V30 4821 H 833.828 -4.63439 -5.3432 0
M  V30 4822 H 834.819 -3.44776 -6.25925 0
M  V30 4823 H 832.985 -4.96707 -7.57347 0
M  V30 4824 P 834.855 -2.75334 -8.47391 0
M  V30 4825 O 835.075 -2.44571 -9.90142 0
M  V30 4826 O 835.645 -3.87688 -7.92115 0
M  V30 4827 O 835.105 -1.4459 -7.59357 0
M  V30 4828 C 834.165 -0.347608 -7.69215 0
M  V30 4829 C 834.895 0.96767 -7.52806 0
M  V30 4830 O 835.105 1.21036 -6.1011 0
M  V30 4831 C 836.295 1.04544 -8.13308 0
M  V30 4832 O 836.685 2.38311 -8.41922 0
M  V30 4833 C 837.175 0.491279 -7.02284 0
M  V30 4834 C 836.465 0.996264 -5.77469 0
M  V30 4835 N 836.515 0.0501916 -4.62973 0
M  V30 4836 H 833.676 -0.374722 -8.67691 0
M  V30 4837 H 833.406 -0.443485 -6.90277 0
M  V30 4838 H 834.273 1.75537 -7.96793 0
M  V30 4839 P 838.235 2.75334 -8.47391 0
M  V30 4840 O 838.455 3.84128 -9.44797 0
M  V30 4841 O 839.025 1.51947 -8.68712 0
M  V30 4842 O 838.485 3.29363 -6.99321 0
M  V30 4843 C 837.545 4.24011 -6.4274 0
M  V30 4844 C 838.275 5.20775 -5.52155 0
M  V30 4845 O 838.485 4.56534 -4.22446 0
M  V30 4846 C 839.675 5.62629 -5.96531 0
M  V30 4847 O 840.065 6.87667 -5.41053 0
M  V30 4848 C 840.555 4.52537 -5.39283 0
M  V30 4849 C 839.845 4.20027 -4.08623 0
M  V30 4850 N 839.895 2.76189 -3.71603 0
M  V30 4851 H 837.056 4.797 -7.24003 0
M  V30 4852 H 836.786 3.69856 -5.84513 0
M  V30 4853 H 837.653 6.10356 -5.41441 0
M  V30 4854 P 841.615 7.20834 -5.23717 0
M  V30 4855 O 841.835 8.66104 -5.38572 0
M  V30 4856 O 842.405 6.33544 -6.1349 0
M  V30 4857 O 841.865 6.7751 -3.72168 0
M  V30 4858 C 840.925 7.20825 -2.7076 0
M  V30 4859 C 841.655 7.45864 -1.40599 0
M  V30 4860 O 841.865 6.17651 -0.734225 0
M  V30 4861 C 843.055 8.05808 -1.51899 0
M  V30 4862 O 843.445 8.74358 -0.335205 0
M  V30 4863 C 843.935 6.83093 -1.70294 0
M  V30 4864 C 843.225 5.79992 -0.836974 0
M  V30 4865 N 843.275 4.41864 -1.38293 0
M  V30 4866 H 840.436 8.13644 -3.0377 0
M  V30 4867 H 840.166 6.42788 -2.55485 0
M  V30 4868 H 841.033 8.12039 -0.792769 0
M  V30 4869 P 844.995 8.91 6.08645e-12 0
M  V30 4870 O 845.215 10.1726 0.733694 0
M  V30 4871 O 845.785 8.73148 -1.23936 0
M  V30 4872 O 845.245 7.66872 0.971405 0
M  V30 4873 C 844.305 7.42309 2.04641 0
M  V30 4874 C 845.035 6.86059 3.24661 0
M  V30 4875 O 845.245 5.42847 3.03646 0
M  V30 4876 C 846.435 7.41196 3.50753 0
M  V30 4877 O 846.825 7.27073 4.86816 0
M  V30 4878 C 847.315 6.5273 2.63741 0
M  V30 4879 C 846.605 5.1842 2.73198 0
M  V30 4880 N 846.655 4.38762 1.4784 0
M  V30 4881 H 843.816 8.36803 2.32493 0
M  V30 4882 H 843.546 6.70197 1.71129 0
M  V30 4883 H 844.413 7.03551 4.13168 0
M  V30 4884 P 848.375 7.20834 5.23717 0
M  V30 4885 O 848.595 7.79853 6.57286 0
M  V30 4886 O 849.165 7.79239 4.12957 0
M  V30 4887 O 848.625 5.63315 5.29344 0
M  V30 4888 C 847.685 4.80255 6.01876 0
M  V30 4889 C 848.415 3.64202 6.65911 0
M  V30 4890 O 848.625 2.60694 5.64732 0
M  V30 4891 C 849.815 3.93473 7.1943 0
M  V30 4892 O 850.205 3.02071 8.21205 0
M  V30 4893 C 850.695 3.73047 5.97036 0
M  V30 4894 C 849.985 2.58828 5.25741 0
M  V30 4895 N 850.035 2.68068 3.77503 0
M  V30 4896 H 847.196 5.40332 6.79951 0
M  V30 4897 H 846.926 4.41613 5.32378 0
M  V30 4898 H 847.793 3.26331 7.47797 0
M  V30 4899 P 851.755 2.75334 8.47391 0
M  V30 4900 O 851.975 2.44571 9.90142 0
M  V30 4901 O 852.545 3.87688 7.92115 0
M  V30 4902 O 852.005 1.4459 7.59357 0
M  V30 4903 C 851.065 0.347608 7.69215 0
M  V30 4904 C 851.795 -0.96767 7.52806 0
M  V30 4905 O 852.005 -1.21036 6.1011 0
M  V30 4906 C 853.195 -1.04544 8.13308 0
M  V30 4907 O 853.585 -2.38311 8.41922 0
M  V30 4908 C 854.075 -0.491279 7.02284 0
M  V30 4909 C 853.365 -0.996264 5.77469 0
M  V30 4910 N 853.415 -0.0501916 4.62973 0
M  V30 4911 H 850.576 0.374722 8.67691 0
M  V30 4912 H 850.306 0.443485 6.90277 0
M  V30 4913 H 851.173 -1.75537 7.96793 0
M  V30 4914 P 855.135 -2.75334 8.47391 0
M  V30 4915 O 855.355 -3.84128 9.44797 0
M  V30 4916 O 855.925 -1.51947 8.68712 0
M  V30 4917 O 855.385 -3.29363 6.99321 0
M  V30 4918 C 854.445 -4.24011 6.4274 0
M  V30 4919 C 855.175 -5.20775 5.52155 0
M  V30 4920 O 855.385 -4.56534 4.22446 0
M  V30 4921 C 856.575 -5.62629 5.96531 0
M  V30 4922 O 856.965 -6.87667 5.41053 0
M  V30 4923 C 857.455 -4.52537 5.39283 0
M  V30 4924 C 856.745 -4.20027 4.08623 0
M  V30 4925 N 856.795 -2.76189 3.71603 0
M  V30 4926 H 853.956 -4.797 7.24003 0
M  V30 4927 H 853.686 -3.69856 5.84513 0
M  V30 4928 H 854.553 -6.10356 5.41441 0
M  V30 4929 P 858.515 -7.20834 5.23717 0
M  V30 4930 O 858.735 -8.66104 5.38572 0
M  V30 4931 O 859.305 -6.33544 6.1349 0
M  V30 4932 O 858.765 -6.7751 3.72168 0
M  V30 4933 C 857.825 -7.20825 2.7076 0
M  V30 4934 C 858.555 -7.45864 1.40599 0
M  V30 4935 O 858.765 -6.17651 0.734225 0
M  V30 4936 C 859.955 -8.05808 1.51899 0
M  V30 4937 O 860.345 -8.74358 0.335205 0
M  V30 4938 C 860.835 -6.83093 1.70294 0
M  V30 4939 C 860.125 -5.79992 0.836974 0
M  V30 4940 N 860.175 -4.41864 1.38293 0
M  V30 4941 H 857.336 -8.13644 3.0377 0
M  V30 4942 H 857.066 -6.42788 2.55485 0
M  V30 4943 H 857.933 -8.12039 0.792769 0
M  V30 4944 P 861.895 -8.91 -6.24363e-12 0
M  V30 4945 O 862.115 -10.1726 -0.733694 0
M  V30 4946 O 862.685 -8.73148 1.23936 0
M  V30 4947 O 862.145 -7.66872 -0.971405 0
M  V30 4948 C 861.205 -7.42309 -2.04641 0
M  V30 4949 C 861.935 -6.86059 -3.24661 0
M  V30 4950 O 862.145 -5.42847 -3.03646 0
M  V30 4951 C 863.335 -7.41196 -3.50753 0
M  V30 4952 O 863.725 -7.27073 -4.86816 0
M  V30 4953 C 864.215 -6.5273 -2.63741 0
M  V30 4954 C 863.505 -5.1842 -2.73198 0
M  V30 4955 N 863.555 -4.38762 -1.4784 0
M  V30 4956 C 863.475 -4.81605 -0.168631 0
M  V30 4957 N 863.555 -3.85454 0.713363 0
M  V30 4958 C 863.695 -2.6994 -0.0566958 0
M  V30 4959 C 863.825 -1.34815 0.338502 0
M  V30 4960 O 863.845 -0.869548 1.47125 0
M  V30 4961 N 863.945 -0.496304 -0.77465 0
M  V30 4962 C 863.945 -0.908403 -2.09122 0
M  V30 4963 N 864.075 0.0517805 -3.00955 0
M  V30 4964 N 863.815 -2.17875 -2.46519 0
M  V30 4965 C 863.695 -3.01988 -1.4033 0
M  V30 4966 H 860.716 -8.36803 -2.32493 0
M  V30 4967 H 860.446 -6.70197 -1.71129 0
M  V30 4968 H 861.313 -7.03551 -4.13168 0
M  V30 4969 H 863.968 -4.59498 -3.54415 0
M  V30 4970 H 864.247 -6.88898 -1.59848 0
M  V30 4971 H 865.239 -6.46749 -3.03687 0
M  V30 4972 H 863.405 -8.46908 -3.20714 0
M  V30 4973 H 863.356 -5.86405 0.105564 0
M  V30 4974 H 864.038 0.483664 -0.597855 0
M  V30 4975 H 864.075 -0.187865 -4.0116 0
M  V30 4976 H 864.176 1.03585 -2.71726 0
M  V30 4977 P 865.275 -7.20834 -5.23717 0
M  V30 4978 O 865.495 -7.79853 -6.57286 0
M  V30 4979 O 866.065 -7.79239 -4.12957 0
M  V30 4980 O 865.525 -5.63315 -5.29344 0
M  V30 4981 C 864.585 -4.80255 -6.01876 0
M  V30 4982 C 865.315 -3.64202 -6.65911 0
M  V30 4983 O 865.525 -2.60694 -5.64732 0
M  V30 4984 C 866.715 -3.93473 -7.1943 0
M  V30 4985 O 867.105 -3.02071 -8.21205 0
M  V30 4986 C 867.595 -3.73047 -5.97036 0
M  V30 4987 C 866.885 -2.58828 -5.25741 0
M  V30 4988 N 866.935 -2.68068 -3.77503 0
M  V30 4989 H 864.096 -5.40332 -6.79951 0
M  V30 4990 H 863.826 -4.41613 -5.32378 0
M  V30 4991 H 864.693 -3.26331 -7.47797 0
M  V30 4992 P 868.655 -2.75334 -8.47391 0
M  V30 4993 O 868.875 -2.44571 -9.90142 0
M  V30 4994 O 869.445 -3.87688 -7.92115 0
M  V30 4995 O 868.905 -1.4459 -7.59357 0
M  V30 4996 C 867.965 -0.347608 -7.69215 0
M  V30 4997 C 868.695 0.96767 -7.52806 0
M  V30 4998 O 868.905 1.21036 -6.1011 0
M  V30 4999 C 870.095 1.04544 -8.13308 0
M  V30 5000 O 870.485 2.38311 -8.41922 0
M  V30 5001 C 870.975 0.491279 -7.02284 0
M  V30 5002 C 870.265 0.996264 -5.77469 0
M  V30 5003 N 870.315 0.0501916 -4.62973 0
M  V30 5004 H 867.476 -0.374722 -8.67691 0
M  V30 5005 H 867.206 -0.443485 -6.90277 0
M  V30 5006 H 868.073 1.75537 -7.96793 0
M  V30 5007 P 872.035 2.75334 -8.47391 0
M  V30 5008 O 872.255 3.84128 -9.44797 0
M  V30 5009 O 872.825 1.51947 -8.68712 0
M  V30 5010 O 872.285 3.29363 -6.99321 0
M  V30 5011 C 871.345 4.24011 -6.4274 0
M  V30 5012 C 872.075 5.20775 -5.52155 0
M  V30 5013 O 872.285 4.56534 -4.22446 0
M  V30 5014 C 873.475 5.62629 -5.96531 0
M  V30 5015 O 873.865 6.87667 -5.41053 0
M  V30 5016 C 874.355 4.52537 -5.39283 0
M  V30 5017 C 873.645 4.20027 -4.08623 0
M  V30 5018 N 873.695 2.76189 -3.71603 0
M  V30 5019 H 870.856 4.797 -7.24003 0
M  V30 5020 H 870.586 3.69856 -5.84513 0
M  V30 5021 H 871.453 6.10356 -5.41441 0
M  V30 5022 P 875.415 7.20834 -5.23717 0
M  V30 5023 O 875.635 8.66104 -5.38572 0
M  V30 5024 O 876.205 6.33544 -6.1349 0
M  V30 5025 O 875.665 6.7751 -3.72168 0
M  V30 5026 C 874.725 7.20825 -2.7076 0
M  V30 5027 C 875.455 7.45864 -1.40599 0
M  V30 5028 O 875.665 6.17651 -0.734225 0
M  V30 5029 C 876.855 8.05808 -1.51899 0
M  V30 5030 O 877.245 8.74358 -0.335205 0
M  V30 5031 C 877.735 6.83093 -1.70294 0
M  V30 5032 C 877.025 5.79992 -0.836974 0
M  V30 5033 N 877.075 4.41864 -1.38293 0
M  V30 5034 H 874.236 8.13644 -3.0377 0
M  V30 5035 H 873.966 6.42788 -2.55485 0
M  V30 5036 H 874.833 8.12039 -0.792769 0
M  V30 5037 P 878.795 8.91 6.40081e-12 0
M  V30 5038 O 879.015 10.1726 0.733694 0
M  V30 5039 O 879.585 8.73148 -1.23936 0
M  V30 5040 O 879.045 7.66872 0.971405 0
M  V30 5041 C 878.105 7.42309 2.04641 0
M  V30 5042 C 878.835 6.86059 3.24661 0
M  V30 5043 O 879.045 5.42847 3.03646 0
M  V30 5044 C 880.235 7.41196 3.50753 0
M  V30 5045 O 880.625 7.27073 4.86816 0
M  V30 5046 C 881.115 6.5273 2.63741 0
M  V30 5047 C 880.405 5.1842 2.73198 0
M  V30 5048 N 880.455 4.38762 1.4784 0
M  V30 5049 H 877.616 8.36803 2.32493 0
M  V30 5050 H 877.346 6.70197 1.71129 0
M  V30 5051 H 878.213 7.03551 4.13168 0
M  V30 5052 P 882.175 7.20834 5.23717 0
M  V30 5053 O 882.395 7.79853 6.57286 0
M  V30 5054 O 882.965 7.79239 4.12957 0
M  V30 5055 O 882.425 5.63315 5.29344 0
M  V30 5056 C 881.485 4.80255 6.01876 0
M  V30 5057 C 882.215 3.64202 6.65911 0
M  V30 5058 O 882.425 2.60694 5.64732 0
M  V30 5059 C 883.615 3.93473 7.1943 0
M  V30 5060 O 884.005 3.02071 8.21205 0
M  V30 5061 C 884.495 3.73047 5.97036 0
M  V30 5062 C 883.785 2.58828 5.25741 0
M  V30 5063 N 883.835 2.68068 3.77503 0
M  V30 5064 C 883.755 3.79715 2.96723 0
M  V30 5065 N 883.835 3.5377 1.68852 0
M  V30 5066 C 883.975 2.15054 1.63254 0
M  V30 5067 C 884.105 1.28964 0.518571 0
M  V30 5068 N 884.225 -0.0538097 0.918425 0
M  V30 5069 C 884.225 -0.494275 2.22578 0
M  V30 5070 N 884.355 -1.81086 2.40434 0
M  V30 5071 N 884.095 0.313645 3.27502 0
M  V30 5072 C 883.975 1.61829 2.91033 0
M  V30 5073 H 880.996 5.40332 6.79951 0
M  V30 5074 H 880.726 4.41613 5.32378 0
M  V30 5075 H 881.593 3.26331 7.47797 0
M  V30 5076 P 885.555 2.75334 8.47391 0
M  V30 5077 O 885.775 2.44571 9.90142 0
M  V30 5078 O 886.345 3.87688 7.92115 0
M  V30 5079 O 885.805 1.4459 7.59357 0
M  V30 5080 C 884.865 0.347608 7.69215 0
M  V30 5081 C 885.595 -0.96767 7.52806 0
M  V30 5082 O 885.805 -1.21036 6.1011 0
M  V30 5083 C 886.995 -1.04544 8.13308 0
M  V30 5084 O 887.385 -2.38311 8.41922 0
M  V30 5085 C 887.875 -0.491279 7.02284 0
M  V30 5086 C 887.165 -0.996264 5.77469 0
M  V30 5087 N 887.215 -0.0501916 4.62973 0
M  V30 5088 H 884.376 0.374722 8.67691 0
M  V30 5089 H 884.106 0.443485 6.90277 0
M  V30 5090 H 884.973 -1.75537 7.96793 0
M  V30 5091 P 888.935 -2.75334 8.47391 0
M  V30 5092 O 889.155 -3.84128 9.44797 0
M  V30 5093 O 889.725 -1.51947 8.68712 0
M  V30 5094 O 889.185 -3.29363 6.99321 0
M  V30 5095 C 888.245 -4.24011 6.4274 0
M  V30 5096 C 888.975 -5.20775 5.52155 0
M  V30 5097 O 889.185 -4.56534 4.22446 0
M  V30 5098 C 890.375 -5.62629 5.96531 0
M  V30 5099 O 890.765 -6.87667 5.41053 0
M  V30 5100 C 891.255 -4.52537 5.39283 0
M  V30 5101 C 890.545 -4.20027 4.08623 0
M  V30 5102 N 890.595 -2.76189 3.71603 0
M  V30 5103 H 887.756 -4.797 7.24003 0
M  V30 5104 H 887.486 -3.69856 5.84513 0
M  V30 5105 H 888.353 -6.10356 5.41441 0
M  V30 5106 P 892.315 -7.20834 5.23717 0
M  V30 5107 O 892.535 -8.66104 5.38572 0
M  V30 5108 O 893.105 -6.33544 6.1349 0
M  V30 5109 O 892.565 -6.7751 3.72168 0
M  V30 5110 C 891.625 -7.20825 2.7076 0
M  V30 5111 C 892.355 -7.45864 1.40599 0
M  V30 5112 O 892.565 -6.17651 0.734225 0
M  V30 5113 C 893.755 -8.05808 1.51899 0
M  V30 5114 O 894.145 -8.74358 0.335205 0
M  V30 5115 C 894.635 -6.83093 1.70294 0
M  V30 5116 C 893.925 -5.79992 0.836974 0
M  V30 5117 N 893.975 -4.41864 1.38293 0
M  V30 5118 H 891.136 -8.13644 3.0377 0
M  V30 5119 H 890.866 -6.42788 2.55485 0
M  V30 5120 H 891.733 -8.12039 0.792769 0
M  V30 5121 P 895.695 -8.91 -6.558e-12 0
M  V30 5122 O 895.915 -10.1726 -0.733694 0
M  V30 5123 O 896.485 -8.73148 1.23936 0
M  V30 5124 O 895.945 -7.66872 -0.971405 0
M  V30 5125 C 895.005 -7.42309 -2.04641 0
M  V30 5126 C 895.735 -6.86059 -3.24661 0
M  V30 5127 O 895.945 -5.42847 -3.03646 0
M  V30 5128 C 897.135 -7.41196 -3.50753 0
M  V30 5129 O 897.525 -7.27073 -4.86816 0
M  V30 5130 C 898.015 -6.5273 -2.63741 0
M  V30 5131 C 897.305 -5.1842 -2.73198 0
M  V30 5132 N 897.355 -4.38762 -1.4784 0
M  V30 5133 H 894.516 -8.36803 -2.32493 0
M  V30 5134 H 894.246 -6.70197 -1.71129 0
M  V30 5135 H 895.113 -7.03551 -4.13168 0
M  V30 5136 P 899.075 -7.20834 -5.23717 0
M  V30 5137 O 899.295 -7.7993 -6.57351 0
M  V30 5138 O 899.865 -7.79328 -4.13004 0
M  V30 5139 O 899.325 -5.63315 -5.29344 0
M  V30 5140 C 898.385 -4.80193 -6.01798 0
M  V30 5141 C 899.115 -3.64202 -6.65911 0
M  V30 5142 O 899.325 -2.60694 -5.64732 0
M  V30 5143 C 900.515 -3.93473 -7.1943 0
M  V30 5144 O 900.905 -3.02071 -8.21205 0
M  V30 5145 C 901.395 -3.73047 -5.97036 0
M  V30 5146 C 900.685 -2.58828 -5.25741 0
M  V30 5147 N 900.735 -2.6801 -3.77422 0
M  V30 5148 C 900.885 -1.50443 -3.07133 0
M  V30 5149 O 900.975 -0.419406 -3.61576 0
M  V30 5150 N 900.925 -1.6403 -1.69677 0
M  V30 5151 C 900.835 -2.81206 -0.986255 0
M  V30 5152 O 900.885 -2.80892 0.249754 0
M  V30 5153 C 900.685 -3.99158 -1.80325 0
M  V30 5154 C 900.575 -5.29309 -1.06921 0
M  V30 5155 C 900.635 -3.89779 -3.1476 0
M  V30 5156 H 897.895 -5.40332 -6.79951 0
M  V30 5157 H 897.626 -4.41549 -5.32301 0
M  V30 5158 H 898.493 -3.26331 -7.47797 0
M  V30 5159 H 901.148 -1.6395 -5.56554 0
M  V30 5160 H 901.427 -4.63439 -5.3432 0
M  V30 5161 H 902.419 -3.44728 -6.25838 0
M  V30 5162 H 900.585 -4.96652 -7.57263 0
M  V30 5163 H 900.514 -4.80159 -3.74441 0
M  V30 5164 H 901.544 -5.81459 -1.09608 0
M  V30 5165 H 899.807 -5.9187 -1.54487 0
M  V30 5166 H 900.295 -5.10095 -0.0220288 0
M  V30 5167 H 901.031 -0.798962 -1.16664 0
M  V30 5168 P 902.455 -2.75334 -8.47391 0
M  V30 5169 O 902.675 -2.44571 -9.90142 0
M  V30 5170 O 903.245 -3.87688 -7.92115 0
M  V30 5171 O 902.705 -1.4459 -7.59357 0
M  V30 5172 C 901.765 -0.347608 -7.69215 0
M  V30 5173 C 902.495 0.96767 -7.52806 0
M  V30 5174 O 902.705 1.21036 -6.1011 0
M  V30 5175 C 903.895 1.04544 -8.13308 0
M  V30 5176 O 904.285 2.38311 -8.41922 0
M  V30 5177 C 904.775 0.491279 -7.02284 0
M  V30 5178 C 904.065 0.996264 -5.77469 0
M  V30 5179 N 904.115 0.0501916 -4.62973 0
M  V30 5180 H 901.276 -0.374722 -8.67691 0
M  V30 5181 H 901.006 -0.443485 -6.90277 0
M  V30 5182 H 901.873 1.75537 -7.96793 0
M  V30 5183 P 905.835 2.75334 -8.47391 0
M  V30 5184 O 906.055 3.84128 -9.44797 0
M  V30 5185 O 906.625 1.51947 -8.68712 0
M  V30 5186 O 906.085 3.29363 -6.99321 0
M  V30 5187 C 905.145 4.24011 -6.4274 0
M  V30 5188 C 905.875 5.20775 -5.52155 0
M  V30 5189 O 906.085 4.56534 -4.22446 0
M  V30 5190 C 907.275 5.62629 -5.96531 0
M  V30 5191 O 907.665 6.87667 -5.41053 0
M  V30 5192 C 908.155 4.52537 -5.39283 0
M  V30 5193 C 907.445 4.20027 -4.08623 0
M  V30 5194 N 907.495 2.76189 -3.71603 0
M  V30 5195 H 904.656 4.797 -7.24003 0
M  V30 5196 H 904.386 3.69856 -5.84513 0
M  V30 5197 H 905.253 6.10356 -5.41441 0
M  V30 5198 P 909.215 7.20834 -5.23717 0
M  V30 5199 O 909.435 8.66104 -5.38572 0
M  V30 5200 O 910.005 6.33544 -6.1349 0
M  V30 5201 O 909.465 6.7751 -3.72168 0
M  V30 5202 C 908.525 7.20825 -2.7076 0
M  V30 5203 C 909.255 7.45864 -1.40599 0
M  V30 5204 O 909.465 6.17651 -0.734225 0
M  V30 5205 C 910.655 8.05808 -1.51899 0
M  V30 5206 O 911.045 8.74358 -0.335205 0
M  V30 5207 C 911.535 6.83093 -1.70294 0
M  V30 5208 C 910.825 5.79992 -0.836974 0
M  V30 5209 N 910.875 4.41864 -1.38293 0
M  V30 5210 H 908.036 8.13644 -3.0377 0
M  V30 5211 H 907.766 6.42788 -2.55485 0
M  V30 5212 H 908.633 8.12039 -0.792769 0
M  V30 5213 P 912.595 8.91 6.71518e-12 0
M  V30 5214 O 912.815 10.1726 0.733694 0
M  V30 5215 O 913.385 8.73148 -1.23936 0
M  V30 5216 O 912.845 7.66872 0.971405 0
M  V30 5217 C 911.905 7.42309 2.04641 0
M  V30 5218 C 912.635 6.86059 3.24661 0
M  V30 5219 O 912.845 5.42847 3.03646 0
M  V30 5220 C 914.035 7.41196 3.50753 0
M  V30 5221 O 914.425 7.27073 4.86816 0
M  V30 5222 C 914.915 6.5273 2.63741 0
M  V30 5223 C 914.205 5.1842 2.73198 0
M  V30 5224 N 914.255 4.38762 1.4784 0
M  V30 5225 H 911.416 8.36803 2.32493 0
M  V30 5226 H 911.146 6.70197 1.71129 0
M  V30 5227 H 912.013 7.03551 4.13168 0
M  V30 5228 P 915.975 7.20834 5.23717 0
M  V30 5229 O 916.195 7.7993 6.57351 0
M  V30 5230 O 916.765 7.79328 4.13004 0
M  V30 5231 O 916.225 5.63315 5.29344 0
M  V30 5232 C 915.285 4.80193 6.01798 0
M  V30 5233 C 916.015 3.64202 6.65911 0
M  V30 5234 O 916.225 2.60694 5.64732 0
M  V30 5235 C 917.415 3.93473 7.1943 0
M  V30 5236 O 917.805 3.02071 8.21205 0
M  V30 5237 C 918.295 3.73047 5.97036 0
M  V30 5238 C 917.585 2.58828 5.25741 0
M  V30 5239 N 917.635 2.6801 3.77422 0
M  V30 5240 C 917.785 1.50443 3.07133 0
M  V30 5241 O 917.875 0.419406 3.61576 0
M  V30 5242 N 917.825 1.6403 1.69677 0
M  V30 5243 C 917.735 2.81206 0.986255 0
M  V30 5244 C 917.585 3.99158 1.80325 0
M  V30 5245 C 917.535 3.89779 3.1476 0
M  V30 5246 H 914.795 5.40332 6.79951 0
M  V30 5247 H 914.526 4.41549 5.32301 0
M  V30 5248 H 915.393 3.26331 7.47797 0
M  V30 5249 H 918.048 1.6395 5.56554 0
M  V30 5250 H 918.327 4.63439 5.3432 0
M  V30 5251 H 919.319 3.44728 6.25838 0
M  V30 5252 H 917.485 4.96652 7.57263 0
M  V30 5253 H 917.414 4.80159 3.74441 0
M  V30 5254 P 919.355 2.75334 8.47391 0
M  V30 5255 O 919.575 2.44571 9.90142 0
M  V30 5256 O 920.145 3.87688 7.92115 0
M  V30 5257 O 919.605 1.4459 7.59357 0
M  V30 5258 C 918.665 0.347608 7.69215 0
M  V30 5259 C 919.395 -0.96767 7.52806 0
M  V30 5260 O 919.605 -1.21036 6.1011 0
M  V30 5261 C 920.795 -1.04544 8.13308 0
M  V30 5262 O 921.185 -2.38311 8.41922 0
M  V30 5263 C 921.675 -0.491279 7.02284 0
M  V30 5264 C 920.965 -0.996264 5.77469 0
M  V30 5265 N 921.015 -0.0501916 4.62973 0
M  V30 5266 C 920.935 1.32786 4.63244 0
M  V30 5267 N 921.015 1.86957 3.44545 0
M  V30 5268 C 921.155 0.780241 2.58481 0
M  V30 5269 C 921.285 0.738536 1.17757 0
M  V30 5270 N 921.405 -0.58337 0.711393 0
M  V30 5271 C 921.405 -1.70816 1.51017 0
M  V30 5272 N 921.535 -2.87826 0.880757 0
M  V30 5273 N 921.275 -1.67126 2.8339 0
M  V30 5274 C 921.155 -0.401421 3.30572 0
M  V30 5275 H 918.176 0.374722 8.67691 0
M  V30 5276 H 917.906 0.443485 6.90277 0
M  V30 5277 H 918.773 -1.75537 7.96793 0
M  V30 5278 P 922.735 -2.75334 8.47391 0
M  V30 5279 O 922.955 -3.84128 9.44797 0
M  V30 5280 O 923.525 -1.51947 8.68712 0
M  V30 5281 O 922.985 -3.29363 6.99321 0
M  V30 5282 C 922.045 -4.24011 6.4274 0
M  V30 5283 C 922.775 -5.20775 5.52155 0
M  V30 5284 O 922.985 -4.56534 4.22446 0
M  V30 5285 C 924.175 -5.62629 5.96531 0
M  V30 5286 O 924.565 -6.87667 5.41053 0
M  V30 5287 C 925.055 -4.52537 5.39283 0
M  V30 5288 C 924.345 -4.20027 4.08623 0
M  V30 5289 N 924.395 -2.76189 3.71603 0
M  V30 5290 C 924.315 -1.64862 4.52822 0
M  V30 5291 N 924.395 -0.512671 3.88633 0
M  V30 5292 C 924.535 -0.888083 2.54977 0
M  V30 5293 C 924.665 -0.094668 1.38677 0
M  V30 5294 O 924.685 1.13053 1.28163 0
M  V30 5295 N 924.785 -0.890102 0.232633 0
M  V30 5296 C 924.785 -2.26958 0.21772 0
M  V30 5297 N 924.915 -2.84626 -0.97925 0
M  V30 5298 N 924.655 -3.0178 1.31033 0
M  V30 5299 C 924.535 -2.26781 2.43843 0
M  V30 5300 H 921.556 -4.797 7.24003 0
M  V30 5301 H 921.286 -3.69856 5.84513 0
M  V30 5302 H 922.153 -6.10356 5.41441 0
M  V30 5303 H 924.808 -4.79061 3.27488 0
M  V30 5304 H 925.087 -3.64906 6.05785 0
M  V30 5305 H 926.079 -4.8868 5.2125 0
M  V30 5306 H 924.245 -5.66726 7.06352 0
M  V30 5307 H 924.196 -1.71169 5.60966 0
M  V30 5308 H 924.878 -0.419134 -0.644739 0
M  V30 5309 H 924.915 -3.87332 -1.06098 0
M  V30 5310 H 925.016 -2.26417 -1.82483 0
M  V30 5311 P 926.115 -7.20834 5.23717 0
M  V30 5312 O 926.335 -8.66104 5.38572 0
M  V30 5313 O 926.905 -6.33544 6.1349 0
M  V30 5314 O 926.365 -6.7751 3.72168 0
M  V30 5315 C 925.425 -7.20825 2.7076 0
M  V30 5316 C 926.155 -7.45864 1.40599 0
M  V30 5317 O 926.365 -6.17651 0.734225 0
M  V30 5318 C 927.555 -8.05808 1.51899 0
M  V30 5319 O 927.945 -8.74358 0.335205 0
M  V30 5320 C 928.435 -6.83093 1.70294 0
M  V30 5321 C 927.725 -5.79992 0.836974 0
M  V30 5322 N 927.775 -4.41864 1.38293 0
M  V30 5323 C 927.695 -3.99538 2.69438 0
M  V30 5324 N 927.775 -2.69909 2.84277 0
M  V30 5325 C 927.915 -2.21719 1.5408 0
M  V30 5326 C 928.045 -0.891712 1.06628 0
M  V30 5327 O 928.065 0.161298 1.70137 0
M  V30 5328 N 928.165 -0.856846 -0.334985 0
M  V30 5329 C 928.165 -1.9641 -1.15789 0
M  V30 5330 N 928.295 -1.72708 -2.46522 0
M  V30 5331 N 928.035 -3.21165 -0.713741 0
M  V30 5332 C 927.915 -3.26797 0.639748 0
M  V30 5333 H 924.936 -8.13644 3.0377 0
M  V30 5334 H 924.666 -6.42788 2.55485 0
M  V30 5335 H 925.533 -8.12039 0.792769 0
M  V30 5336 H 928.188 -5.80061 -0.166416 0
M  V30 5337 H 928.467 -6.51287 2.75604 0
M  V30 5338 H 929.459 -7.01734 1.34462 0
M  V30 5339 H 927.625 -8.73674 2.38337 0
M  V30 5340 H 927.576 -4.68207 3.53221 0
M  V30 5341 H 928.258 0.0398818 -0.767965 0
M  V30 5342 H 928.295 -2.50995 -3.13503 0
M  V30 5343 H 928.396 -0.759148 -2.80716 0
M  V30 5344 P 929.495 -8.91 -6.87236e-12 0
M  V30 5345 O 929.715 -10.1726 -0.733694 0
M  V30 5346 O 930.285 -8.73148 1.23936 0
M  V30 5347 O 929.745 -7.66872 -0.971405 0
M  V30 5348 C 928.805 -7.42309 -2.04641 0
M  V30 5349 C 929.535 -6.86059 -3.24661 0
M  V30 5350 O 929.745 -5.42847 -3.03646 0
M  V30 5351 C 930.935 -7.41196 -3.50753 0
M  V30 5352 O 931.325 -7.27073 -4.86816 0
M  V30 5353 C 931.815 -6.5273 -2.63741 0
M  V30 5354 C 931.105 -5.1842 -2.73198 0
M  V30 5355 N 931.155 -4.38762 -1.4784 0
M  V30 5356 H 928.316 -8.36803 -2.32493 0
M  V30 5357 H 928.046 -6.70197 -1.71129 0
M  V30 5358 H 928.913 -7.03551 -4.13168 0
M  V30 5359 P 932.874 -7.20834 -5.23717 0
M  V30 5360 O 933.094 -7.79853 -6.57286 0
M  V30 5361 O 933.664 -7.79239 -4.12957 0
M  V30 5362 O 933.124 -5.63315 -5.29344 0
M  V30 5363 C 932.184 -4.80255 -6.01876 0
M  V30 5364 C 932.914 -3.64202 -6.65911 0
M  V30 5365 O 933.124 -2.60694 -5.64732 0
M  V30 5366 C 934.314 -3.93473 -7.1943 0
M  V30 5367 O 934.704 -3.02071 -8.21205 0
M  V30 5368 C 935.194 -3.73047 -5.97036 0
M  V30 5369 C 934.484 -2.58828 -5.25741 0
M  V30 5370 N 934.534 -2.68068 -3.77503 0
M  V30 5371 H 931.695 -5.40332 -6.79951 0
M  V30 5372 H 931.425 -4.41613 -5.32378 0
M  V30 5373 H 932.292 -3.26331 -7.47797 0
M  V30 5374 P 936.254 -2.75334 -8.47391 0
M  V30 5375 O 936.474 -2.44571 -9.90142 0
M  V30 5376 O 937.044 -3.87688 -7.92115 0
M  V30 5377 O 936.504 -1.4459 -7.59357 0
M  V30 5378 C 935.564 -0.347608 -7.69215 0
M  V30 5379 C 936.294 0.96767 -7.52806 0
M  V30 5380 O 936.504 1.21036 -6.1011 0
M  V30 5381 C 937.694 1.04544 -8.13308 0
M  V30 5382 O 938.084 2.38311 -8.41922 0
M  V30 5383 C 938.574 0.491279 -7.02284 0
M  V30 5384 C 937.864 0.996264 -5.77469 0
M  V30 5385 N 937.914 0.0501916 -4.62973 0
M  V30 5386 C 937.834 -1.32786 -4.63244 0
M  V30 5387 N 937.914 -1.86957 -3.44545 0
M  V30 5388 C 938.054 -0.780241 -2.58481 0
M  V30 5389 C 938.184 -0.738536 -1.17757 0
M  V30 5390 O 938.204 -1.66794 -0.372349 0
M  V30 5391 N 938.304 0.58337 -0.711393 0
M  V30 5392 C 938.304 1.70816 -1.51017 0
M  V30 5393 N 938.434 2.87826 -0.880757 0
M  V30 5394 N 938.174 1.67126 -2.8339 0
M  V30 5395 C 938.054 0.401421 -3.30572 0
M  V30 5396 H 935.075 -0.374722 -8.67691 0
M  V30 5397 H 934.805 -0.443485 -6.90277 0
M  V30 5398 H 935.672 1.75537 -7.96793 0
M  V30 5399 H 938.327 1.95076 -5.46529 0
M  V30 5400 H 938.606 -0.608565 -7.04577 0
M  V30 5401 H 939.598 0.889672 -7.08939 0
M  V30 5402 H 937.764 0.43308 -9.04564 0
M  V30 5403 H 937.715 -1.91249 -5.54442 0
M  V30 5404 H 938.397 0.718054 0.275244 0
M  V30 5405 H 938.434 3.75721 -1.41832 0
M  V30 5406 H 938.535 2.90436 0.145468 0
M  V30 5407 P 939.634 2.75334 -8.47391 0
M  V30 5408 O 939.854 3.84128 -9.44797 0
M  V30 5409 O 940.424 1.51947 -8.68712 0
M  V30 5410 O 939.884 3.29363 -6.99321 0
M  V30 5411 C 938.944 4.24011 -6.4274 0
M  V30 5412 C 939.674 5.20775 -5.52155 0
M  V30 5413 O 939.884 4.56534 -4.22446 0
M  V30 5414 C 941.074 5.62629 -5.96531 0
M  V30 5415 O 941.464 6.87667 -5.41053 0
M  V30 5416 C 941.954 4.52537 -5.39283 0
M  V30 5417 C 941.244 4.20027 -4.08623 0
M  V30 5418 N 941.294 2.76189 -3.71603 0
M  V30 5419 H 938.455 4.797 -7.24003 0
M  V30 5420 H 938.185 3.69856 -5.84513 0
M  V30 5421 H 939.052 6.10356 -5.41441 0
M  V30 5422 P 943.014 7.20834 -5.23717 0
M  V30 5423 O 943.234 8.66104 -5.38572 0
M  V30 5424 O 943.804 6.33544 -6.1349 0
M  V30 5425 O 943.264 6.7751 -3.72168 0
M  V30 5426 C 942.324 7.20825 -2.7076 0
M  V30 5427 C 943.054 7.45864 -1.40599 0
M  V30 5428 O 943.264 6.17651 -0.734225 0
M  V30 5429 C 944.454 8.05808 -1.51899 0
M  V30 5430 O 944.844 8.74358 -0.335205 0
M  V30 5431 C 945.334 6.83093 -1.70294 0
M  V30 5432 C 944.624 5.79992 -0.836974 0
M  V30 5433 N 944.674 4.41864 -1.38293 0
M  V30 5434 H 941.835 8.13644 -3.0377 0
M  V30 5435 H 941.565 6.42788 -2.55485 0
M  V30 5436 H 942.432 8.12039 -0.792769 0
M  V30 5437 P 946.394 8.91 7.02954e-12 0
M  V30 5438 O 946.614 10.1746 0.733838 0
M  V30 5439 O 947.184 8.73346 -1.23964 0
M  V30 5440 O 946.644 7.66872 0.971405 0
M  V30 5441 C 945.704 7.42405 2.04668 0
M  V30 5442 C 946.434 6.86059 3.24661 0
M  V30 5443 O 946.644 5.42934 3.03695 0
M  V30 5444 C 947.834 7.41287 3.50796 0
M  V30 5445 O 948.224 7.27073 4.86816 0
M  V30 5446 C 948.714 6.5273 2.63741 0
M  V30 5447 C 948.004 5.1842 2.73198 0
M  V30 5448 N 948.054 4.38762 1.4784 0
M  V30 5449 C 947.974 4.83651 0.183876 0
M  V30 5450 N 948.044 3.88759 -0.699393 0
M  V30 5451 C 948.194 2.7404 0.0575568 0
M  V30 5452 C 948.324 1.37902 -0.293928 0
M  V30 5453 N 948.334 0.938021 -1.54797 0
M  V30 5454 N 948.444 0.491817 0.70549 0
M  V30 5455 C 948.434 0.931735 1.95979 0
M  V30 5456 N 948.314 2.16017 2.41481 0
M  V30 5457 C 948.194 3.02547 1.39121 0
M  V30 5458 H 945.216 8.36899 2.3252 0
M  V30 5459 H 944.944 6.70391 1.71179 0
M  V30 5460 H 945.812 7.03638 4.13219 0
M  V30 5461 H 948.467 4.59931 3.54016 0
M  V30 5462 H 948.747 6.88995 1.59871 0
M  V30 5463 H 949.738 6.4684 3.0373 0
M  V30 5464 H 947.904 8.47002 3.20749 0
M  V30 5465 H 947.863 5.8885 -0.0765548 0
M  V30 5466 H 948.244 1.60276 -2.32875 0
M  V30 5467 H 948.433 -0.0699355 -1.73859 0
M  V30 5468 H 948.541 0.165507 2.71897 0
M  V30 5469 P 949.774 7.20834 5.23717 0
M  V30 5470 O 949.994 7.79853 6.57286 0
M  V30 5471 O 950.564 7.79239 4.12957 0
M  V30 5472 O 950.024 5.63315 5.29344 0
M  V30 5473 C 949.084 4.80255 6.01876 0
M  V30 5474 C 949.814 3.64202 6.65911 0
M  V30 5475 O 950.024 2.60694 5.64732 0
M  V30 5476 C 951.214 3.93473 7.1943 0
M  V30 5477 O 951.604 3.02071 8.21205 0
M  V30 5478 C 952.094 3.73047 5.97036 0
M  V30 5479 C 951.384 2.58828 5.25741 0
M  V30 5480 N 951.434 2.68068 3.77503 0
M  V30 5481 H 948.595 5.40332 6.79951 0
M  V30 5482 H 948.325 4.41613 5.32378 0
M  V30 5483 H 949.192 3.26331 7.47797 0
M  V30 5484 P 953.154 2.75334 8.47391 0
M  V30 5485 O 953.374 2.44619 9.90336 0
M  V30 5486 O 953.944 3.87776 7.92294 0
M  V30 5487 O 953.404 1.4459 7.59357 0
M  V30 5488 C 952.464 0.347653 7.69315 0
M  V30 5489 C 953.194 -0.96767 7.52806 0
M  V30 5490 O 953.404 -1.21055 6.10208 0
M  V30 5491 C 954.594 -1.04557 8.13408 0
M  V30 5492 O 954.984 -2.38311 8.41922 0
M  V30 5493 C 955.474 -0.491279 7.02284 0
M  V30 5494 C 954.764 -0.996264 5.77469 0
M  V30 5495 N 954.814 -0.0501916 4.62973 0
M  V30 5496 C 954.734 1.31969 4.65661 0
M  V30 5497 N 954.804 1.86649 3.48119 0
M  V30 5498 C 954.954 0.792089 2.62406 0
M  V30 5499 C 955.084 0.705684 1.2207 0
M  V30 5500 N 955.094 1.76207 0.413762 0
M  V30 5501 N 955.204 -0.518981 0.685754 0
M  V30 5502 C 955.194 -1.57595 1.49174 0
M  V30 5503 N 955.074 -1.62909 2.80066 0
M  V30 5504 C 954.954 -0.388195 3.3073 0
M  V30 5505 H 951.976 0.374765 8.67791 0
M  V30 5506 H 951.704 0.443613 6.90476 0
M  V30 5507 H 952.572 -1.75559 7.96891 0
M  V30 5508 H 955.227 -1.94563 5.46818 0
M  V30 5509 H 955.507 0.608651 7.04676 0
M  V30 5510 H 956.498 -0.889796 7.09039 0
M  V30 5511 H 954.664 -0.433128 9.04664 0
M  V30 5512 H 954.623 1.89246 5.57664 0
M  V30 5513 H 955.004 2.71005 0.804694 0
M  V30 5514 H 955.193 1.63189 -0.603768 0
M  V30 5515 H 955.301 -2.53475 0.997614 0
M  V30 5516 P 956.534 -2.75334 8.47391 0
M  V30 5517 O 956.754 -3.84204 9.44982 0
M  V30 5518 O 957.324 -1.51982 8.68909 0
M  V30 5519 O 956.784 -3.29363 6.99321 0
M  V30 5520 C 955.844 -4.24066 6.42823 0
M  V30 5521 C 956.574 -5.20775 5.52155 0
M  V30 5522 O 956.784 -4.56607 4.22514 0
M  V30 5523 C 957.974 -5.62697 5.96604 0
M  V30 5524 O 958.364 -6.87667 5.41053 0
M  V30 5525 C 958.854 -4.52537 5.39283 0
M  V30 5526 C 958.144 -4.20027 4.08623 0
M  V30 5527 N 958.194 -2.76189 3.71603 0
M  V30 5528 C 958.114 -1.66944 4.54297 0
M  V30 5529 N 958.184 -0.536169 3.91344 0
M  V30 5530 C 958.334 -0.901569 2.58849 0
M  V30 5531 C 958.464 -0.146599 1.40236 0
M  V30 5532 N 958.474 1.18234 1.37046 0
M  V30 5533 N 958.584 -0.822941 0.249738 0
M  V30 5534 C 958.574 -2.15179 0.280525 0
M  V30 5535 N 958.454 -2.96414 1.30822 0
M  V30 5536 C 958.334 -2.25804 2.44748 0
M  V30 5537 H 955.356 -4.79756 7.24086 0
M  V30 5538 H 955.084 -3.69963 5.84682 0
M  V30 5539 H 955.952 -6.10431 5.41508 0
M  V30 5540 H 958.607 -4.78816 3.28024 0
M  V30 5541 H 958.887 -3.64957 6.05871 0
M  V30 5542 H 959.878 -4.88748 5.21323 0
M  V30 5543 H 958.044 -5.66789 7.0643 0
M  V30 5544 H 958.003 -1.74684 5.62396 0
M  V30 5545 H 958.384 1.71949 2.24394 0
M  V30 5546 H 958.573 1.67511 0.470742 0
M  V30 5547 H 958.681 -2.63704 -0.6828 0
M  V30 5548 P 959.914 -7.20834 5.23717 0
M  V30 5549 O 960.134 -8.66104 5.38572 0
M  V30 5550 O 960.704 -6.33544 6.1349 0
M  V30 5551 O 960.164 -6.7751 3.72168 0
M  V30 5552 C 959.224 -7.20825 2.7076 0
M  V30 5553 C 959.954 -7.45864 1.40599 0
M  V30 5554 O 960.164 -6.17651 0.734225 0
M  V30 5555 C 961.354 -8.05808 1.51899 0
M  V30 5556 O 961.744 -8.74358 0.335205 0
M  V30 5557 C 962.234 -6.83093 1.70294 0
M  V30 5558 C 961.524 -5.79992 0.836974 0
M  V30 5559 N 961.574 -4.41864 1.38293 0
M  V30 5560 H 958.735 -8.13644 3.0377 0
M  V30 5561 H 958.465 -6.42788 2.55485 0
M  V30 5562 H 959.332 -8.12039 0.792769 0
M  V30 5563 P 963.294 -8.91 -7.18673e-12 0
M  V30 5564 O 963.514 -10.1726 -0.733694 0
M  V30 5565 O 964.084 -8.73148 1.23936 0
M  V30 5566 O 963.544 -7.66872 -0.971405 0
M  V30 5567 C 962.604 -7.42309 -2.04641 0
M  V30 5568 C 963.334 -6.86059 -3.24661 0
M  V30 5569 O 963.544 -5.42847 -3.03646 0
M  V30 5570 C 964.734 -7.41196 -3.50753 0
M  V30 5571 O 965.124 -7.27073 -4.86816 0
M  V30 5572 C 965.614 -6.5273 -2.63741 0
M  V30 5573 C 964.904 -5.1842 -2.73198 0
M  V30 5574 N 964.954 -4.38762 -1.4784 0
M  V30 5575 H 962.115 -8.36803 -2.32493 0
M  V30 5576 H 961.845 -6.70197 -1.71129 0
M  V30 5577 H 962.712 -7.03551 -4.13168 0
M  V30 5578 P 966.674 -7.20834 -5.23717 0
M  V30 5579 O 966.894 -7.79853 -6.57286 0
M  V30 5580 O 967.464 -7.79239 -4.12957 0
M  V30 5581 O 966.924 -5.63315 -5.29344 0
M  V30 5582 C 965.984 -4.80255 -6.01876 0
M  V30 5583 C 966.714 -3.64202 -6.65911 0
M  V30 5584 O 966.924 -2.60694 -5.64732 0
M  V30 5585 C 968.114 -3.93473 -7.1943 0
M  V30 5586 O 968.504 -3.02071 -8.21205 0
M  V30 5587 C 968.994 -3.73047 -5.97036 0
M  V30 5588 C 968.284 -2.58828 -5.25741 0
M  V30 5589 N 968.334 -2.68068 -3.77503 0
M  V30 5590 C 968.254 -3.79715 -2.96723 0
M  V30 5591 N 968.334 -3.5377 -1.68852 0
M  V30 5592 C 968.474 -2.15054 -1.63254 0
M  V30 5593 C 968.604 -1.28964 -0.518571 0
M  V30 5594 O 968.624 -1.56826 0.679156 0
M  V30 5595 N 968.724 0.0538097 -0.918425 0
M  V30 5596 C 968.724 0.494275 -2.22578 0
M  V30 5597 N 968.854 1.81086 -2.40434 0
M  V30 5598 N 968.594 -0.313645 -3.27502 0
M  V30 5599 C 968.474 -1.61829 -2.91033 0
M  V30 5600 H 965.495 -5.40332 -6.79951 0
M  V30 5601 H 965.225 -4.41613 -5.32378 0
M  V30 5602 H 966.092 -3.26331 -7.47797 0
M  V30 5603 H 968.747 -1.63422 -5.56814 0
M  V30 5604 H 969.026 -4.63374 -5.34244 0
M  V30 5605 H 970.018 -3.44728 -6.25838 0
M  V30 5606 H 968.184 -4.96652 -7.57263 0
M  V30 5607 H 968.135 -4.80617 -3.3614 0
M  V30 5608 H 968.817 0.742702 -0.199384 0
M  V30 5609 H 968.854 2.20598 -3.35588 0
M  V30 5610 H 968.955 2.43518 -1.58945 0
M  V30 5611 P 970.054 -2.75334 -8.47391 0
M  V30 5612 O 970.274 -2.44571 -9.90142 0
M  V30 5613 O 970.844 -3.87688 -7.92115 0
M  V30 5614 O 970.304 -1.4459 -7.59357 0
M  V30 5615 C 969.364 -0.347608 -7.69215 0
M  V30 5616 C 970.094 0.96767 -7.52806 0
M  V30 5617 O 970.304 1.21036 -6.1011 0
M  V30 5618 C 971.494 1.04544 -8.13308 0
M  V30 5619 O 971.884 2.38311 -8.41922 0
M  V30 5620 C 972.374 0.491279 -7.02284 0
M  V30 5621 C 971.664 0.996264 -5.77469 0
M  V30 5622 N 971.714 0.0501916 -4.62973 0
M  V30 5623 H 968.875 -0.374722 -8.67691 0
M  V30 5624 H 968.605 -0.443485 -6.90277 0
M  V30 5625 H 969.472 1.75537 -7.96793 0
M  V30 5626 P 973.434 2.75334 -8.47391 0
M  V30 5627 O 973.654 3.84128 -9.44797 0
M  V30 5628 O 974.224 1.51947 -8.68712 0
M  V30 5629 O 973.684 3.29363 -6.99321 0
M  V30 5630 C 972.744 4.24011 -6.4274 0
M  V30 5631 C 973.474 5.20775 -5.52155 0
M  V30 5632 O 973.684 4.56534 -4.22446 0
M  V30 5633 C 974.874 5.62629 -5.96531 0
M  V30 5634 O 975.264 6.87667 -5.41053 0
M  V30 5635 C 975.754 4.52537 -5.39283 0
M  V30 5636 C 975.044 4.20027 -4.08623 0
M  V30 5637 N 975.094 2.76189 -3.71603 0
M  V30 5638 H 972.255 4.797 -7.24003 0
M  V30 5639 H 971.985 3.69856 -5.84513 0
M  V30 5640 H 972.852 6.10356 -5.41441 0
M  V30 5641 P 976.814 7.20834 -5.23717 0
M  V30 5642 O 977.034 8.66274 -5.38678 0
M  V30 5643 O 977.604 6.33687 -6.13629 0
M  V30 5644 O 977.064 6.7751 -3.72168 0
M  V30 5645 C 976.124 7.20919 -2.70795 0
M  V30 5646 C 976.854 7.45864 -1.40599 0
M  V30 5647 O 977.064 6.17751 -0.734343 0
M  V30 5648 C 978.254 8.05906 -1.51917 0
M  V30 5649 O 978.644 8.74358 -0.335205 0
M  V30 5650 C 979.134 6.83093 -1.70294 0
M  V30 5651 C 978.424 5.79992 -0.836974 0
M  V30 5652 N 978.474 4.41864 -1.38293 0
M  V30 5653 C 978.394 4.02089 -2.69407 0
M  V30 5654 N 978.464 2.73403 -2.85089 0
M  V30 5655 C 978.614 2.25086 -1.5642 0
M  V30 5656 C 978.744 0.942887 -1.04836 0
M  V30 5657 N 978.754 -0.150999 -1.80369 0
M  V30 5658 N 978.864 0.812565 0.28167 0
M  V30 5659 C 978.854 1.90572 1.03784 0
M  V30 5660 N 978.734 3.167 0.683905 0
M  V30 5661 C 978.614 3.26538 -0.652815 0
M  V30 5662 H 975.636 8.13738 -3.03804 0
M  V30 5663 H 975.364 6.42974 -2.55559 0
M  V30 5664 H 976.232 8.12139 -0.792866 0
M  V30 5665 H 978.887 5.80178 0.160643 0
M  V30 5666 H 979.167 6.51379 -2.75643 0
M  V30 5667 H 980.158 7.01832 -1.3448 0
M  V30 5668 H 978.324 8.73771 -2.38364 0
M  V30 5669 H 978.283 4.7189 -3.52311 0
M  V30 5670 H 978.664 -0.0721434 -2.82608 0
M  V30 5671 H 978.853 -1.0785 -1.36544 0
M  V30 5672 H 978.961 1.73207 2.10241 0
M  V30 5673 P 980.194 8.91 7.34391e-12 0
M  V30 5674 O 980.414 10.1726 0.733694 0
M  V30 5675 O 980.984 8.73148 -1.23936 0
M  V30 5676 O 980.444 7.66872 0.971405 0
M  V30 5677 C 979.504 7.42309 2.04641 0
M  V30 5678 C 980.234 6.86059 3.24661 0
M  V30 5679 O 980.444 5.42847 3.03646 0
M  V30 5680 C 981.634 7.41196 3.50753 0
M  V30 5681 O 982.024 7.27073 4.86816 0
M  V30 5682 C 982.514 6.5273 2.63741 0
M  V30 5683 C 981.804 5.1842 2.73198 0
M  V30 5684 N 981.854 4.38762 1.4784 0
M  V30 5685 H 979.015 8.36803 2.32493 0
M  V30 5686 H 978.745 6.70197 1.71129 0
M  V30 5687 H 979.612 7.03551 4.13168 0
M  V30 5688 P 983.574 7.20834 5.23717 0
M  V30 5689 O 983.794 7.7993 6.57351 0
M  V30 5690 O 984.364 7.79328 4.13004 0
M  V30 5691 O 983.824 5.63315 5.29344 0
M  V30 5692 C 982.884 4.80193 6.01798 0
M  V30 5693 C 983.614 3.64202 6.65911 0
M  V30 5694 O 983.824 2.60694 5.64732 0
M  V30 5695 C 985.014 3.93473 7.1943 0
M  V30 5696 O 985.404 3.02071 8.21205 0
M  V30 5697 C 985.894 3.73047 5.97036 0
M  V30 5698 C 985.184 2.58828 5.25741 0
M  V30 5699 N 985.234 2.6801 3.77422 0
M  V30 5700 C 985.384 1.50443 3.07133 0
M  V30 5701 O 985.474 0.419406 3.61576 0
M  V30 5702 N 985.424 1.6403 1.69677 0
M  V30 5703 C 985.334 2.81206 0.986255 0
M  V30 5704 O 985.384 2.80892 -0.249754 0
M  V30 5705 C 985.184 3.99158 1.80325 0
M  V30 5706 C 985.074 5.29309 1.06921 0
M  V30 5707 C 985.134 3.89779 3.1476 0
M  V30 5708 H 982.394 5.40332 6.79951 0
M  V30 5709 H 982.125 4.41549 5.32301 0
M  V30 5710 H 982.992 3.26331 7.47797 0
M  V30 5711 H 985.647 1.6395 5.56554 0
M  V30 5712 H 985.926 4.63439 5.3432 0
M  V30 5713 H 986.918 3.44728 6.25838 0
M  V30 5714 H 985.084 4.96652 7.57263 0
M  V30 5715 H 985.013 4.80159 3.74441 0
M  V30 5716 H 986.043 5.81459 1.09608 0
M  V30 5717 H 984.306 5.9187 1.54487 0
M  V30 5718 H 984.794 5.10095 0.0220288 0
M  V30 5719 H 985.53 0.798962 1.16664 0
M  V30 5720 P 986.954 2.75334 8.47391 0
M  V30 5721 O 987.174 2.44571 9.90142 0
M  V30 5722 O 987.744 3.87688 7.92115 0
M  V30 5723 O 987.204 1.4459 7.59357 0
M  V30 5724 C 986.264 0.347608 7.69215 0
M  V30 5725 C 986.994 -0.96767 7.52806 0
M  V30 5726 O 987.204 -1.21036 6.1011 0
M  V30 5727 C 988.394 -1.04544 8.13308 0
M  V30 5728 O 988.784 -2.38311 8.41922 0
M  V30 5729 C 989.274 -0.491279 7.02284 0
M  V30 5730 C 988.564 -0.996264 5.77469 0
M  V30 5731 N 988.614 -0.0501916 4.62973 0
M  V30 5732 H 985.775 0.374722 8.67691 0
M  V30 5733 H 985.505 0.443485 6.90277 0
M  V30 5734 H 986.372 -1.75537 7.96793 0
M  V30 5735 P 990.334 -2.75334 8.47391 0
M  V30 5736 O 990.554 -3.84128 9.44797 0
M  V30 5737 O 991.124 -1.51947 8.68712 0
M  V30 5738 O 990.584 -3.29363 6.99321 0
M  V30 5739 C 989.644 -4.24011 6.4274 0
M  V30 5740 C 990.374 -5.20775 5.52155 0
M  V30 5741 O 990.584 -4.56534 4.22446 0
M  V30 5742 C 991.774 -5.62629 5.96531 0
M  V30 5743 O 992.164 -6.87667 5.41053 0
M  V30 5744 C 992.654 -4.52537 5.39283 0
M  V30 5745 C 991.944 -4.20027 4.08623 0
M  V30 5746 N 991.994 -2.76189 3.71603 0
M  V30 5747 H 989.155 -4.797 7.24003 0
M  V30 5748 H 988.885 -3.69856 5.84513 0
M  V30 5749 H 989.752 -6.10356 5.41441 0
M  V30 5750 P 993.714 -7.20834 5.23717 0
M  V30 5751 O 993.934 -8.66104 5.38572 0
M  V30 5752 O 994.504 -6.33544 6.1349 0
M  V30 5753 O 993.964 -6.7751 3.72168 0
M  V30 5754 C 993.024 -7.20825 2.7076 0
M  V30 5755 C 993.754 -7.45864 1.40599 0
M  V30 5756 O 993.964 -6.17651 0.734225 0
M  V30 5757 C 995.154 -8.05808 1.51899 0
M  V30 5758 O 995.544 -8.74358 0.335205 0
M  V30 5759 C 996.034 -6.83093 1.70294 0
M  V30 5760 C 995.324 -5.79992 0.836974 0
M  V30 5761 N 995.374 -4.41864 1.38293 0
M  V30 5762 H 992.535 -8.13644 3.0377 0
M  V30 5763 H 992.265 -6.42788 2.55485 0
M  V30 5764 H 993.132 -8.12039 0.792769 0
M  V30 5765 P 997.094 -8.91 -7.50109e-12 0
M  V30 5766 O 997.314 -10.1726 -0.733694 0
M  V30 5767 O 997.884 -8.73148 1.23936 0
M  V30 5768 O 997.344 -7.66872 -0.971405 0
M  V30 5769 C 996.404 -7.42309 -2.04641 0
M  V30 5770 C 997.134 -6.86059 -3.24661 0
M  V30 5771 O 997.344 -5.42847 -3.03646 0
M  V30 5772 C 998.534 -7.41196 -3.50753 0
M  V30 5773 O 998.924 -7.27073 -4.86816 0
M  V30 5774 C 999.414 -6.5273 -2.63741 0
M  V30 5775 C 998.704 -5.1842 -2.73198 0
M  V30 5776 N 998.754 -4.38762 -1.4784 0
M  V30 5777 H 995.915 -8.36803 -2.32493 0
M  V30 5778 H 995.645 -6.70197 -1.71129 0
M  V30 5779 H 996.512 -7.03551 -4.13168 0
M  V30 5780 P 1000.47 -7.20834 -5.23717 0
M  V30 5781 O 1000.69 -7.7993 -6.57351 0
M  V30 5782 O 1001.26 -7.79328 -4.13004 0
M  V30 5783 O 1000.72 -5.63315 -5.29344 0
M  V30 5784 C 999.784 -4.80193 -6.01798 0
M  V30 5785 C 1000.51 -3.64202 -6.65911 0
M  V30 5786 O 1000.72 -2.60694 -5.64732 0
M  V30 5787 C 1001.91 -3.93473 -7.1943 0
M  V30 5788 O 1002.3 -3.02071 -8.21205 0
M  V30 5789 C 1002.79 -3.73047 -5.97036 0
M  V30 5790 C 1002.08 -2.58828 -5.25741 0
M  V30 5791 N 1002.13 -2.6801 -3.77422 0
M  V30 5792 C 1002.28 -1.50443 -3.07133 0
M  V30 5793 O 1002.37 -0.419406 -3.61576 0
M  V30 5794 N 1002.32 -1.6403 -1.69677 0
M  V30 5795 C 1002.23 -2.81206 -0.986255 0
M  V30 5796 C 1002.08 -3.99158 -1.80325 0
M  V30 5797 C 1002.03 -3.89779 -3.1476 0
M  V30 5798 H 999.294 -5.40332 -6.79951 0
M  V30 5799 H 999.025 -4.41549 -5.32301 0
M  V30 5800 H 999.892 -3.26331 -7.47797 0
M  V30 5801 H 1002.55 -1.6395 -5.56554 0
M  V30 5802 H 1002.83 -4.63439 -5.3432 0
M  V30 5803 H 1003.82 -3.44728 -6.25838 0
M  V30 5804 H 1001.98 -4.96652 -7.57263 0
M  V30 5805 H 1001.91 -4.80159 -3.74441 0
M  V30 5806 P 1003.85 -2.75334 -8.47391 0
M  V30 5807 O 1004.07 -2.44571 -9.90142 0
M  V30 5808 O 1004.64 -3.87688 -7.92115 0
M  V30 5809 O 1004.1 -1.4459 -7.59357 0
M  V30 5810 C 1003.16 -0.347608 -7.69215 0
M  V30 5811 C 1003.89 0.96767 -7.52806 0
M  V30 5812 O 1004.1 1.21036 -6.1011 0
M  V30 5813 C 1005.29 1.04544 -8.13308 0
M  V30 5814 O 1005.68 2.38311 -8.41922 0
M  V30 5815 C 1006.17 0.491279 -7.02284 0
M  V30 5816 C 1005.46 0.996264 -5.77469 0
M  V30 5817 N 1005.51 0.0501916 -4.62973 0
M  V30 5818 H 1002.68 -0.374722 -8.67691 0
M  V30 5819 H 1002.41 -0.443485 -6.90277 0
M  V30 5820 H 1003.27 1.75537 -7.96793 0
M  V30 5821 P 1007.23 2.75334 -8.47391 0
M  V30 5822 O 1007.45 3.84128 -9.44797 0
M  V30 5823 O 1008.02 1.51947 -8.68712 0
M  V30 5824 O 1007.48 3.29363 -6.99321 0
M  V30 5825 C 1006.54 4.24011 -6.4274 0
M  V30 5826 C 1007.27 5.20775 -5.52155 0
M  V30 5827 O 1007.48 4.56534 -4.22446 0
M  V30 5828 C 1008.67 5.62629 -5.96531 0
M  V30 5829 O 1009.06 6.87667 -5.41053 0
M  V30 5830 C 1009.55 4.52537 -5.39283 0
M  V30 5831 C 1008.84 4.20027 -4.08623 0
M  V30 5832 N 1008.89 2.76189 -3.71603 0
M  V30 5833 H 1006.06 4.797 -7.24003 0
M  V30 5834 H 1005.79 3.69856 -5.84513 0
M  V30 5835 H 1006.65 6.10356 -5.41441 0
M  V30 5836 P 1010.61 7.20834 -5.23717 0
M  V30 5837 O 1010.83 8.66189 -5.38625 0
M  V30 5838 O 1011.4 6.33615 -6.1356 0
M  V30 5839 O 1010.86 6.7751 -3.72168 0
M  V30 5840 C 1009.92 7.20732 -2.70725 0
M  V30 5841 C 1010.65 7.45864 -1.40599 0
M  V30 5842 O 1010.86 6.17651 -0.734225 0
M  V30 5843 C 1012.05 8.05808 -1.51899 0
M  V30 5844 O 1012.44 8.74358 -0.335205 0
M  V30 5845 C 1012.93 6.83093 -1.70294 0
M  V30 5846 C 1012.22 5.79992 -0.836974 0
M  V30 5847 N 1012.27 4.41769 -1.38263 0
M  V30 5848 C 1012.42 3.38591 -0.481702 0
M  V30 5849 O 1012.51 3.56839 0.718452 0
M  V30 5850 N 1012.46 2.1206 -1.03569 0
M  V30 5851 C 1012.37 1.80696 -2.36966 0
M  V30 5852 C 1012.22 2.94845 -3.23898 0
M  V30 5853 C 1012.17 4.19803 -2.73435 0
M  V30 5854 H 1009.43 8.13644 -3.0377 0
M  V30 5855 H 1009.17 6.42695 -2.55448 0
M  V30 5856 H 1010.03 8.12039 -0.792769 0
M  V30 5857 H 1012.69 5.79978 0.160587 0
M  V30 5858 H 1012.97 6.51379 -2.75643 0
M  V30 5859 H 1013.96 7.01734 -1.34462 0
M  V30 5860 H 1012.12 8.73674 -2.38337 0
M  V30 5861 H 1012.05 5.04492 -3.4095 0
M  V30 5862 P 1013.99 8.91 7.65827e-12 0
M  V30 5863 O 1014.21 10.1726 0.733694 0
M  V30 5864 O 1014.78 8.73148 -1.23936 0
M  V30 5865 O 1014.24 7.66872 0.971405 0
M  V30 5866 C 1013.3 7.42309 2.04641 0
M  V30 5867 C 1014.03 6.86059 3.24661 0
M  V30 5868 O 1014.24 5.42847 3.03646 0
M  V30 5869 C 1015.43 7.41196 3.50753 0
M  V30 5870 O 1015.82 7.27073 4.86816 0
M  V30 5871 C 1016.31 6.5273 2.63741 0
M  V30 5872 C 1015.6 5.1842 2.73198 0
M  V30 5873 N 1015.65 4.38762 1.4784 0
M  V30 5874 H 1012.82 8.36803 2.32493 0
M  V30 5875 H 1012.55 6.70197 1.71129 0
M  V30 5876 H 1013.41 7.03551 4.13168 0
M  V30 5877 P 1017.37 7.20834 5.23717 0
M  V30 5878 O 1017.59 7.79853 6.57286 0
M  V30 5879 O 1018.16 7.79239 4.12957 0
M  V30 5880 O 1017.62 5.63315 5.29344 0
M  V30 5881 C 1016.68 4.80255 6.01876 0
M  V30 5882 C 1017.41 3.64202 6.65911 0
M  V30 5883 O 1017.62 2.60694 5.64732 0
M  V30 5884 C 1018.81 3.93473 7.1943 0
M  V30 5885 O 1019.2 3.02071 8.21205 0
M  V30 5886 C 1019.69 3.73047 5.97036 0
M  V30 5887 C 1018.98 2.58828 5.25741 0
M  V30 5888 N 1019.03 2.68068 3.77503 0
M  V30 5889 H 1016.19 5.40332 6.79951 0
M  V30 5890 H 1015.92 4.41613 5.32378 0
M  V30 5891 H 1016.79 3.26331 7.47797 0
M  V30 5892 P 1020.75 2.75334 8.47391 0
M  V30 5893 O 1020.97 2.44571 9.90142 0
M  V30 5894 O 1021.54 3.87688 7.92115 0
M  V30 5895 O 1021 1.4459 7.59357 0
M  V30 5896 C 1020.06 0.347608 7.69215 0
M  V30 5897 C 1020.79 -0.96767 7.52806 0
M  V30 5898 O 1021 -1.21036 6.1011 0
M  V30 5899 C 1022.19 -1.04544 8.13308 0
M  V30 5900 O 1022.58 -2.38311 8.41922 0
M  V30 5901 C 1023.07 -0.491279 7.02284 0
M  V30 5902 C 1022.36 -0.996264 5.77469 0
M  V30 5903 N 1022.41 -0.0501916 4.62973 0
M  V30 5904 H 1019.57 0.374722 8.67691 0
M  V30 5905 H 1019.3 0.443485 6.90277 0
M  V30 5906 H 1020.17 -1.75537 7.96793 0
M  V30 5907 P 1024.13 -2.75334 8.47391 0
M  V30 5908 O 1024.35 -3.84204 9.44982 0
M  V30 5909 O 1024.92 -1.51982 8.68909 0
M  V30 5910 O 1024.38 -3.29363 6.99321 0
M  V30 5911 C 1023.44 -4.24066 6.42823 0
M  V30 5912 C 1024.17 -5.20775 5.52155 0
M  V30 5913 O 1024.38 -4.56607 4.22514 0
M  V30 5914 C 1025.57 -5.62697 5.96604 0
M  V30 5915 O 1025.96 -6.87667 5.41053 0
M  V30 5916 C 1026.45 -4.52537 5.39283 0
M  V30 5917 C 1025.74 -4.20027 4.08623 0
M  V30 5918 N 1025.79 -2.76189 3.71603 0
M  V30 5919 C 1025.71 -1.66944 4.54297 0
M  V30 5920 N 1025.78 -0.536169 3.91344 0
M  V30 5921 C 1025.93 -0.901569 2.58849 0
M  V30 5922 C 1026.06 -0.146599 1.40236 0
M  V30 5923 N 1026.07 1.18234 1.37046 0
M  V30 5924 N 1026.18 -0.822941 0.249738 0
M  V30 5925 C 1026.17 -2.15179 0.280525 0
M  V30 5926 N 1026.05 -2.96414 1.30822 0
M  V30 5927 C 1025.93 -2.25804 2.44748 0
M  V30 5928 H 1022.96 -4.79756 7.24086 0
M  V30 5929 H 1022.68 -3.69963 5.84682 0
M  V30 5930 H 1023.55 -6.10431 5.41508 0
M  V30 5931 H 1026.21 -4.78816 3.28024 0
M  V30 5932 H 1026.49 -3.64957 6.05871 0
M  V30 5933 H 1027.48 -4.88748 5.21323 0
M  V30 5934 H 1025.64 -5.66789 7.0643 0
M  V30 5935 H 1025.6 -1.74684 5.62396 0
M  V30 5936 H 1025.98 1.71949 2.24394 0
M  V30 5937 H 1026.17 1.67511 0.470742 0
M  V30 5938 H 1026.28 -2.63704 -0.6828 0
M  V30 5939 P 1027.51 -7.20834 5.23717 0
M  V30 5940 O 1027.73 -8.66104 5.38572 0
M  V30 5941 O 1028.3 -6.33544 6.1349 0
M  V30 5942 O 1027.76 -6.7751 3.72168 0
M  V30 5943 C 1026.82 -7.20825 2.7076 0
M  V30 5944 C 1027.55 -7.45864 1.40599 0
M  V30 5945 O 1027.76 -6.17651 0.734225 0
M  V30 5946 C 1028.95 -8.05808 1.51899 0
M  V30 5947 O 1029.34 -8.74358 0.335205 0
M  V30 5948 C 1029.83 -6.83093 1.70294 0
M  V30 5949 C 1029.12 -5.79992 0.836974 0
M  V30 5950 N 1029.17 -4.41864 1.38293 0
M  V30 5951 C 1029.09 -3.99538 2.69438 0
M  V30 5952 N 1029.17 -2.69909 2.84277 0
M  V30 5953 C 1029.31 -2.21719 1.5408 0
M  V30 5954 C 1029.44 -0.891712 1.06628 0
M  V30 5955 O 1029.46 0.161298 1.70137 0
M  V30 5956 N 1029.56 -0.856846 -0.334985 0
M  V30 5957 C 1029.56 -1.9641 -1.15789 0
M  V30 5958 N 1029.69 -1.72708 -2.46522 0
M  V30 5959 N 1029.43 -3.21165 -0.713741 0
M  V30 5960 C 1029.31 -3.26797 0.639748 0
M  V30 5961 H 1026.33 -8.13644 3.0377 0
M  V30 5962 H 1026.06 -6.42788 2.55485 0
M  V30 5963 H 1026.93 -8.12039 0.792769 0
M  V30 5964 H 1029.59 -5.80061 -0.166416 0
M  V30 5965 H 1029.87 -6.51287 2.75604 0
M  V30 5966 H 1030.86 -7.01734 1.34462 0
M  V30 5967 H 1029.02 -8.73674 2.38337 0
M  V30 5968 H 1028.97 -4.68207 3.53221 0
M  V30 5969 H 1029.66 0.0398818 -0.767965 0
M  V30 5970 H 1029.69 -2.50995 -3.13503 0
M  V30 5971 H 1029.79 -0.759148 -2.80716 0
M  V30 5972 P 1030.89 -8.91 -7.81545e-12 0
M  V30 5973 O 1031.11 -10.1726 -0.733694 0
M  V30 5974 O 1031.68 -8.73148 1.23936 0
M  V30 5975 O 1031.14 -7.66872 -0.971405 0
M  V30 5976 C 1030.2 -7.42309 -2.04641 0
M  V30 5977 C 1030.93 -6.86059 -3.24661 0
M  V30 5978 O 1031.14 -5.42847 -3.03646 0
M  V30 5979 C 1032.33 -7.41196 -3.50753 0
M  V30 5980 O 1032.72 -7.27073 -4.86816 0
M  V30 5981 C 1033.21 -6.5273 -2.63741 0
M  V30 5982 C 1032.5 -5.1842 -2.73198 0
M  V30 5983 N 1032.55 -4.38762 -1.4784 0
M  V30 5984 H 1029.71 -8.36803 -2.32493 0
M  V30 5985 H 1029.44 -6.70197 -1.71129 0
M  V30 5986 H 1030.31 -7.03551 -4.13168 0
M  V30 5987 P 1034.27 -7.20834 -5.23717 0
M  V30 5988 O 1034.49 -7.79853 -6.57286 0
M  V30 5989 O 1035.06 -7.79239 -4.12957 0
M  V30 5990 O 1034.52 -5.63315 -5.29344 0
M  V30 5991 C 1033.58 -4.80255 -6.01876 0
M  V30 5992 C 1034.31 -3.64202 -6.65911 0
M  V30 5993 O 1034.52 -2.60694 -5.64732 0
M  V30 5994 C 1035.71 -3.93473 -7.1943 0
M  V30 5995 O 1036.1 -3.02071 -8.21205 0
M  V30 5996 C 1036.59 -3.73047 -5.97036 0
M  V30 5997 C 1035.88 -2.58828 -5.25741 0
M  V30 5998 N 1035.93 -2.68068 -3.77503 0
M  V30 5999 H 1033.09 -5.40332 -6.79951 0
M  V30 6000 H 1032.82 -4.41613 -5.32378 0
M  V30 6001 H 1033.69 -3.26331 -7.47797 0
M  V30 6002 P 1037.65 -2.75334 -8.47391 0
M  V30 6003 O 1037.87 -2.44619 -9.90336 0
M  V30 6004 O 1038.44 -3.87776 -7.92294 0
M  V30 6005 O 1037.9 -1.4459 -7.59357 0
M  V30 6006 C 1036.96 -0.347653 -7.69315 0
M  V30 6007 C 1037.69 0.96767 -7.52806 0
M  V30 6008 O 1037.9 1.21055 -6.10208 0
M  V30 6009 C 1039.09 1.04557 -8.13408 0
M  V30 6010 O 1039.48 2.38311 -8.41922 0
M  V30 6011 C 1039.97 0.491279 -7.02284 0
M  V30 6012 C 1039.26 0.996264 -5.77469 0
M  V30 6013 N 1039.31 0.0501916 -4.62973 0
M  V30 6014 C 1039.23 -1.31969 -4.65661 0
M  V30 6015 N 1039.3 -1.86649 -3.48119 0
M  V30 6016 C 1039.45 -0.792089 -2.62406 0
M  V30 6017 C 1039.58 -0.705684 -1.2207 0
M  V30 6018 N 1039.59 -1.76207 -0.413762 0
M  V30 6019 N 1039.7 0.518981 -0.685754 0
M  V30 6020 C 1039.69 1.57595 -1.49174 0
M  V30 6021 N 1039.57 1.62909 -2.80066 0
M  V30 6022 C 1039.45 0.388195 -3.3073 0
M  V30 6023 H 1036.48 -0.374765 -8.67791 0
M  V30 6024 H 1036.2 -0.443613 -6.90476 0
M  V30 6025 H 1037.07 1.75559 -7.96891 0
M  V30 6026 H 1039.73 1.94563 -5.46818 0
M  V30 6027 H 1040.01 -0.608651 -7.04676 0
M  V30 6028 H 1041 0.889796 -7.09039 0
M  V30 6029 H 1039.16 0.433128 -9.04664 0
M  V30 6030 H 1039.12 -1.89246 -5.57664 0
M  V30 6031 H 1039.5 -2.71005 -0.804694 0
M  V30 6032 H 1039.69 -1.63189 0.603768 0
M  V30 6033 H 1039.8 2.53475 -0.997614 0
M  V30 6034 P 1041.03 2.75334 -8.47391 0
M  V30 6035 O 1041.25 3.84128 -9.44797 0
M  V30 6036 O 1041.82 1.51947 -8.68712 0
M  V30 6037 O 1041.28 3.29363 -6.99321 0
M  V30 6038 C 1040.34 4.24011 -6.4274 0
M  V30 6039 C 1041.07 5.20775 -5.52155 0
M  V30 6040 O 1041.28 4.56534 -4.22446 0
M  V30 6041 C 1042.47 5.62629 -5.96531 0
M  V30 6042 O 1042.86 6.87667 -5.41053 0
M  V30 6043 C 1043.35 4.52537 -5.39283 0
M  V30 6044 C 1042.64 4.20027 -4.08623 0
M  V30 6045 N 1042.69 2.76189 -3.71603 0
M  V30 6046 C 1042.61 1.64862 -4.52822 0
M  V30 6047 N 1042.69 0.512671 -3.88633 0
M  V30 6048 C 1042.83 0.888083 -2.54977 0
M  V30 6049 C 1042.96 0.094668 -1.38677 0
M  V30 6050 N 1043.08 0.890102 -0.232633 0
M  V30 6051 C 1043.08 2.26958 -0.21772 0
M  V30 6052 N 1043.21 2.84626 0.97925 0
M  V30 6053 N 1042.95 3.0178 -1.31033 0
M  V30 6054 C 1042.83 2.26781 -2.43843 0
M  V30 6055 H 1039.85 4.797 -7.24003 0
M  V30 6056 H 1039.58 3.69856 -5.84513 0
M  V30 6057 H 1040.45 6.10356 -5.41441 0
M  V30 6058 P 1044.41 7.20834 -5.23717 0
M  V30 6059 O 1044.63 8.66189 -5.38625 0
M  V30 6060 O 1045.2 6.33615 -6.1356 0
M  V30 6061 O 1044.66 6.7751 -3.72168 0
M  V30 6062 C 1043.72 7.20732 -2.70725 0
M  V30 6063 C 1044.45 7.45864 -1.40599 0
M  V30 6064 O 1044.66 6.17651 -0.734225 0
M  V30 6065 C 1045.85 8.05808 -1.51899 0
M  V30 6066 O 1046.24 8.74358 -0.335205 0
M  V30 6067 C 1046.73 6.83093 -1.70294 0
M  V30 6068 C 1046.02 5.79992 -0.836974 0
M  V30 6069 N 1046.07 4.41769 -1.38263 0
M  V30 6070 C 1046.22 3.38591 -0.481702 0
M  V30 6071 O 1046.31 3.56839 0.718452 0
M  V30 6072 N 1046.26 2.1206 -1.03569 0
M  V30 6073 C 1046.17 1.80696 -2.36966 0
M  V30 6074 O 1046.22 0.630473 -2.74862 0
M  V30 6075 C 1046.02 2.94845 -3.23898 0
M  V30 6076 C 1045.91 2.65253 -4.70362 0
M  V30 6077 C 1045.97 4.19803 -2.73435 0
M  V30 6078 H 1043.23 8.13644 -3.0377 0
M  V30 6079 H 1042.96 6.42695 -2.55448 0
M  V30 6080 H 1043.83 8.12039 -0.792769 0
M  V30 6081 H 1046.49 5.79978 0.160587 0
M  V30 6082 H 1046.77 6.51379 -2.75643 0
M  V30 6083 H 1047.76 7.01734 -1.34462 0
M  V30 6084 H 1045.92 8.73674 -2.38337 0
M  V30 6085 H 1045.85 5.04492 -3.4095 0
M  V30 6086 H 1046.88 2.83924 -5.1913 0
M  V30 6087 H 1045.15 3.29824 -5.15163 0
M  V30 6088 H 1045.63 1.59723 -4.84449 0
M  V30 6089 H 1046.37 1.35644 -0.399345 0
M  V30 6090 P 1047.79 8.91 7.97264e-12 0
M  V30 6091 O 1048.01 10.1726 0.733694 0
M  V30 6092 O 1048.58 8.73148 -1.23936 0
M  V30 6093 O 1048.04 7.66872 0.971405 0
M  V30 6094 C 1047.1 7.42309 2.04641 0
M  V30 6095 C 1047.83 6.86059 3.24661 0
M  V30 6096 O 1048.04 5.42847 3.03646 0
M  V30 6097 C 1049.23 7.41196 3.50753 0
M  V30 6098 O 1049.62 7.27073 4.86816 0
M  V30 6099 C 1050.11 6.5273 2.63741 0
M  V30 6100 C 1049.4 5.1842 2.73198 0
M  V30 6101 N 1049.45 4.38762 1.4784 0
M  V30 6102 H 1046.61 8.36803 2.32493 0
M  V30 6103 H 1046.34 6.70197 1.71129 0
M  V30 6104 H 1047.21 7.03551 4.13168 0
M  V30 6105 P 1051.17 7.20834 5.23717 0
M  V30 6106 O 1051.39 7.79853 6.57286 0
M  V30 6107 O 1051.96 7.79239 4.12957 0
M  V30 6108 O 1051.42 5.63315 5.29344 0
M  V30 6109 C 1050.48 4.80255 6.01876 0
M  V30 6110 C 1051.21 3.64202 6.65911 0
M  V30 6111 O 1051.42 2.60694 5.64732 0
M  V30 6112 C 1052.61 3.93473 7.1943 0
M  V30 6113 O 1053 3.02071 8.21205 0
M  V30 6114 C 1053.49 3.73047 5.97036 0
M  V30 6115 C 1052.78 2.58828 5.25741 0
M  V30 6116 N 1052.83 2.68068 3.77503 0
M  V30 6117 C 1052.75 3.79715 2.96723 0
M  V30 6118 N 1052.83 3.5377 1.68852 0
M  V30 6119 C 1052.97 2.15054 1.63254 0
M  V30 6120 C 1053.1 1.28964 0.518571 0
M  V30 6121 N 1053.22 -0.0538097 0.918425 0
M  V30 6122 C 1053.22 -0.494275 2.22578 0
M  V30 6123 N 1053.35 -1.81086 2.40434 0
M  V30 6124 N 1053.09 0.313645 3.27502 0
M  V30 6125 C 1052.97 1.61829 2.91033 0
M  V30 6126 H 1049.99 5.40332 6.79951 0
M  V30 6127 H 1049.72 4.41613 5.32378 0
M  V30 6128 H 1050.59 3.26331 7.47797 0
M  V30 6129 P 1054.55 2.75334 8.47391 0
M  V30 6130 O 1054.77 2.44571 9.90142 0
M  V30 6131 O 1055.34 3.87688 7.92115 0
M  V30 6132 O 1054.8 1.4459 7.59357 0
M  V30 6133 C 1053.86 0.347608 7.69215 0
M  V30 6134 C 1054.59 -0.96767 7.52806 0
M  V30 6135 O 1054.8 -1.21036 6.1011 0
M  V30 6136 C 1055.99 -1.04544 8.13308 0
M  V30 6137 O 1056.38 -2.38311 8.41922 0
M  V30 6138 C 1056.87 -0.491279 7.02284 0
M  V30 6139 C 1056.16 -0.996264 5.77469 0
M  V30 6140 N 1056.21 -0.0501916 4.62973 0
M  V30 6141 C 1056.13 1.32786 4.63244 0
M  V30 6142 N 1056.21 1.86957 3.44545 0
M  V30 6143 C 1056.35 0.780241 2.58481 0
M  V30 6144 C 1056.48 0.738536 1.17757 0
M  V30 6145 O 1056.5 1.66794 0.372349 0
M  V30 6146 N 1056.6 -0.58337 0.711393 0
M  V30 6147 C 1056.6 -1.70816 1.51017 0
M  V30 6148 N 1056.73 -2.87826 0.880757 0
M  V30 6149 N 1056.47 -1.67126 2.8339 0
M  V30 6150 C 1056.35 -0.401421 3.30572 0
M  V30 6151 H 1053.37 0.374722 8.67691 0
M  V30 6152 H 1053.1 0.443485 6.90277 0
M  V30 6153 H 1053.97 -1.75537 7.96793 0
M  V30 6154 H 1056.63 -1.95076 5.46529 0
M  V30 6155 H 1056.91 0.608565 7.04577 0
M  V30 6156 H 1057.9 -0.889672 7.08939 0
M  V30 6157 H 1056.06 -0.43308 9.04564 0
M  V30 6158 H 1056.01 1.91249 5.54442 0
M  V30 6159 H 1056.7 -0.718054 -0.275244 0
M  V30 6160 H 1056.73 -3.75721 1.41832 0
M  V30 6161 H 1056.83 -2.90436 -0.145468 0
M  V30 6162 P 1057.93 -2.75334 8.47391 0
M  V30 6163 O 1058.15 -3.84128 9.44797 0
M  V30 6164 O 1058.72 -1.51947 8.68712 0
M  V30 6165 O 1058.18 -3.29363 6.99321 0
M  V30 6166 C 1057.24 -4.24011 6.4274 0
M  V30 6167 C 1057.97 -5.20775 5.52155 0
M  V30 6168 O 1058.18 -4.56534 4.22446 0
M  V30 6169 C 1059.37 -5.62629 5.96531 0
M  V30 6170 O 1059.76 -6.87667 5.41053 0
M  V30 6171 C 1060.25 -4.52537 5.39283 0
M  V30 6172 C 1059.54 -4.20027 4.08623 0
M  V30 6173 N 1059.59 -2.76189 3.71603 0
M  V30 6174 C 1059.51 -1.64862 4.52822 0
M  V30 6175 N 1059.59 -0.512671 3.88633 0
M  V30 6176 C 1059.73 -0.888083 2.54977 0
M  V30 6177 C 1059.86 -0.094668 1.38677 0
M  V30 6178 N 1059.98 -0.890102 0.232633 0
M  V30 6179 C 1059.98 -2.26958 0.21772 0
M  V30 6180 N 1060.11 -2.84626 -0.97925 0
M  V30 6181 N 1059.85 -3.0178 1.31033 0
M  V30 6182 C 1059.73 -2.26781 2.43843 0
M  V30 6183 H 1056.75 -4.797 7.24003 0
M  V30 6184 H 1056.48 -3.69856 5.84513 0
M  V30 6185 H 1057.35 -6.10356 5.41441 0
M  V30 6186 P 1061.31 -7.20834 5.23717 0
M  V30 6187 O 1061.53 -8.66104 5.38572 0
M  V30 6188 O 1062.1 -6.33544 6.1349 0
M  V30 6189 O 1061.56 -6.7751 3.72168 0
M  V30 6190 C 1060.62 -7.20825 2.7076 0
M  V30 6191 C 1061.35 -7.45864 1.40599 0
M  V30 6192 O 1061.56 -6.17651 0.734225 0
M  V30 6193 C 1062.75 -8.05808 1.51899 0
M  V30 6194 O 1063.14 -8.74358 0.335205 0
M  V30 6195 C 1063.63 -6.83093 1.70294 0
M  V30 6196 C 1062.92 -5.79992 0.836974 0
M  V30 6197 N 1062.97 -4.41864 1.38293 0
M  V30 6198 H 1060.13 -8.13644 3.0377 0
M  V30 6199 H 1059.86 -6.42788 2.55485 0
M  V30 6200 H 1060.73 -8.12039 0.792769 0
M  V30 6201 P 1064.69 -8.91 -8.12982e-12 0
M  V30 6202 O 1064.91 -10.1726 -0.733694 0
M  V30 6203 O 1065.48 -8.73148 1.23936 0
M  V30 6204 O 1064.94 -7.66872 -0.971405 0
M  V30 6205 C 1064 -7.42309 -2.04641 0
M  V30 6206 C 1064.73 -6.86059 -3.24661 0
M  V30 6207 O 1064.94 -5.42847 -3.03646 0
M  V30 6208 C 1066.13 -7.41196 -3.50753 0
M  V30 6209 O 1066.52 -7.27073 -4.86816 0
M  V30 6210 C 1067.01 -6.5273 -2.63741 0
M  V30 6211 C 1066.3 -5.1842 -2.73198 0
M  V30 6212 N 1066.35 -4.38762 -1.4784 0
M  V30 6213 H 1063.51 -8.36803 -2.32493 0
M  V30 6214 H 1063.24 -6.70197 -1.71129 0
M  V30 6215 H 1064.11 -7.03551 -4.13168 0
M  V30 6216 P 1068.07 -7.20834 -5.23717 0
M  V30 6217 O 1068.29 -7.7993 -6.57351 0
M  V30 6218 O 1068.86 -7.79328 -4.13004 0
M  V30 6219 O 1068.32 -5.63315 -5.29344 0
M  V30 6220 C 1067.38 -4.80193 -6.01798 0
M  V30 6221 C 1068.11 -3.64202 -6.65911 0
M  V30 6222 O 1068.32 -2.60694 -5.64732 0
M  V30 6223 C 1069.51 -3.93473 -7.1943 0
M  V30 6224 O 1069.9 -3.02071 -8.21205 0
M  V30 6225 C 1070.39 -3.73047 -5.97036 0
M  V30 6226 C 1069.68 -2.58828 -5.25741 0
M  V30 6227 N 1069.73 -2.6801 -3.77422 0
M  V30 6228 C 1069.88 -1.50443 -3.07133 0
M  V30 6229 O 1069.97 -0.419406 -3.61576 0
M  V30 6230 N 1069.92 -1.6403 -1.69677 0
M  V30 6231 C 1069.83 -2.81206 -0.986255 0
M  V30 6232 O 1069.88 -2.80892 0.249754 0
M  V30 6233 C 1069.68 -3.99158 -1.80325 0
M  V30 6234 C 1069.57 -5.29309 -1.06921 0
M  V30 6235 C 1069.63 -3.89779 -3.1476 0
M  V30 6236 H 1066.89 -5.40332 -6.79951 0
M  V30 6237 H 1066.62 -4.41549 -5.32301 0
M  V30 6238 H 1067.49 -3.26331 -7.47797 0
M  V30 6239 H 1070.15 -1.6395 -5.56554 0
M  V30 6240 H 1070.43 -4.63439 -5.3432 0
M  V30 6241 H 1071.42 -3.44728 -6.25838 0
M  V30 6242 H 1069.58 -4.96652 -7.57263 0
M  V30 6243 H 1069.51 -4.80159 -3.74441 0
M  V30 6244 H 1070.54 -5.81459 -1.09608 0
M  V30 6245 H 1068.81 -5.9187 -1.54487 0
M  V30 6246 H 1069.29 -5.10095 -0.0220288 0
M  V30 6247 H 1070.03 -0.798962 -1.16664 0
M  V30 6248 P 1071.45 -2.75334 -8.47391 0
M  V30 6249 O 1071.67 -2.44571 -9.90142 0
M  V30 6250 O 1072.24 -3.87688 -7.92115 0
M  V30 6251 O 1071.7 -1.4459 -7.59357 0
M  V30 6252 C 1070.76 -0.347608 -7.69215 0
M  V30 6253 C 1071.49 0.96767 -7.52806 0
M  V30 6254 O 1071.7 1.21036 -6.1011 0
M  V30 6255 C 1072.89 1.04544 -8.13308 0
M  V30 6256 O 1073.28 2.38311 -8.41922 0
M  V30 6257 C 1073.77 0.491279 -7.02284 0
M  V30 6258 C 1073.06 0.996264 -5.77469 0
M  V30 6259 N 1073.11 0.0501916 -4.62973 0
M  V30 6260 H 1070.27 -0.374722 -8.67691 0
M  V30 6261 H 1070 -0.443485 -6.90277 0
M  V30 6262 H 1070.87 1.75537 -7.96793 0
M  V30 6263 P 1074.83 2.75334 -8.47391 0
M  V30 6264 O 1075.05 3.84128 -9.44797 0
M  V30 6265 O 1075.62 1.51947 -8.68712 0
M  V30 6266 O 1075.08 3.29363 -6.99321 0
M  V30 6267 C 1074.14 4.24011 -6.4274 0
M  V30 6268 C 1074.87 5.20775 -5.52155 0
M  V30 6269 O 1075.08 4.56534 -4.22446 0
M  V30 6270 C 1076.27 5.62629 -5.96531 0
M  V30 6271 O 1076.66 6.87667 -5.41053 0
M  V30 6272 C 1077.15 4.52537 -5.39283 0
M  V30 6273 C 1076.44 4.20027 -4.08623 0
M  V30 6274 N 1076.49 2.76189 -3.71603 0
M  V30 6275 H 1073.65 4.797 -7.24003 0
M  V30 6276 H 1073.38 3.69856 -5.84513 0
M  V30 6277 H 1074.25 6.10356 -5.41441 0
M  V30 6278 P 1078.21 7.20834 -5.23717 0
M  V30 6279 O 1078.43 8.66274 -5.38678 0
M  V30 6280 O 1079 6.33687 -6.13629 0
M  V30 6281 O 1078.46 6.7751 -3.72168 0
M  V30 6282 C 1077.52 7.20919 -2.70795 0
M  V30 6283 C 1078.25 7.45864 -1.40599 0
M  V30 6284 O 1078.46 6.17751 -0.734343 0
M  V30 6285 C 1079.65 8.05906 -1.51917 0
M  V30 6286 O 1080.04 8.74358 -0.335205 0
M  V30 6287 C 1080.53 6.83093 -1.70294 0
M  V30 6288 C 1079.82 5.79992 -0.836974 0
M  V30 6289 N 1079.87 4.41864 -1.38293 0
M  V30 6290 C 1079.79 4.02089 -2.69407 0
M  V30 6291 N 1079.86 2.73403 -2.85089 0
M  V30 6292 C 1080.01 2.25086 -1.5642 0
M  V30 6293 C 1080.14 0.942887 -1.04836 0
M  V30 6294 N 1080.15 -0.150999 -1.80369 0
M  V30 6295 N 1080.26 0.812565 0.28167 0
M  V30 6296 C 1080.25 1.90572 1.03784 0
M  V30 6297 N 1080.13 3.167 0.683905 0
M  V30 6298 C 1080.01 3.26538 -0.652815 0
M  V30 6299 H 1077.04 8.13738 -3.03804 0
M  V30 6300 H 1076.76 6.42974 -2.55559 0
M  V30 6301 H 1077.63 8.12139 -0.792866 0
M  V30 6302 H 1080.29 5.80178 0.160643 0
M  V30 6303 H 1080.57 6.51379 -2.75643 0
M  V30 6304 H 1081.56 7.01832 -1.3448 0
M  V30 6305 H 1079.72 8.73771 -2.38364 0
M  V30 6306 H 1079.68 4.7189 -3.52311 0
M  V30 6307 H 1080.06 -0.0721434 -2.82608 0
M  V30 6308 H 1080.25 -1.0785 -1.36544 0
M  V30 6309 H 1080.36 1.73207 2.10241 0
M  V30 6310 P 1081.59 8.91 8.287e-12 0
M  V30 6311 O 1081.81 10.1736 0.733766 0
M  V30 6312 O 1082.38 8.73247 -1.2395 0
M  V30 6313 O 1081.84 7.66872 0.971405 0
M  V30 6314 C 1080.9 7.42212 2.04614 0
M  V30 6315 C 1081.63 6.86059 3.24661 0
M  V30 6316 O 1081.84 5.42847 3.03646 0
M  V30 6317 C 1083.03 7.41196 3.50753 0
M  V30 6318 O 1083.42 7.27073 4.86816 0
M  V30 6319 C 1083.91 6.5273 2.63741 0
M  V30 6320 C 1083.2 5.1842 2.73198 0
M  V30 6321 N 1083.25 4.38668 1.47808 0
M  V30 6322 C 1083.4 3.02239 1.60048 0
M  V30 6323 O 1083.49 2.46459 2.67869 0
M  V30 6324 N 1083.44 2.32436 0.408571 0
M  V30 6325 C 1083.35 2.85471 -0.854993 0
M  V30 6326 C 1083.2 4.28918 -0.887335 0
M  V30 6327 C 1083.15 5.00349 0.255399 0
M  V30 6328 H 1080.41 8.36803 2.32493 0
M  V30 6329 H 1080.14 6.701 1.71105 0
M  V30 6330 H 1081.01 7.03551 4.13168 0
M  V30 6331 H 1083.67 4.59773 3.53894 0
M  V30 6332 H 1083.95 6.88995 1.59871 0
M  V30 6333 H 1084.94 6.46749 3.03687 0
M  V30 6334 H 1083.1 8.46908 3.20714 0
M  V30 6335 H 1083.03 6.08548 0.206986 0
M  V30 6336 P 1084.97 7.20834 5.23717 0
M  V30 6337 O 1085.19 7.79853 6.57286 0
M  V30 6338 O 1085.76 7.79239 4.12957 0
M  V30 6339 O 1085.22 5.63315 5.29344 0
M  V30 6340 C 1084.28 4.80255 6.01876 0
M  V30 6341 C 1085.01 3.64202 6.65911 0
M  V30 6342 O 1085.22 2.60694 5.64732 0
M  V30 6343 C 1086.41 3.93473 7.1943 0
M  V30 6344 O 1086.8 3.02071 8.21205 0
M  V30 6345 C 1087.29 3.73047 5.97036 0
M  V30 6346 C 1086.58 2.58828 5.25741 0
M  V30 6347 N 1086.63 2.68068 3.77503 0
M  V30 6348 H 1083.79 5.40332 6.79951 0
M  V30 6349 H 1083.52 4.41613 5.32378 0
M  V30 6350 H 1084.39 3.26331 7.47797 0
M  V30 6351 P 1088.35 2.75334 8.47391 0
M  V30 6352 O 1088.57 2.44619 9.90336 0
M  V30 6353 O 1089.14 3.87776 7.92294 0
M  V30 6354 O 1088.6 1.4459 7.59357 0
M  V30 6355 C 1087.66 0.347653 7.69315 0
M  V30 6356 C 1088.39 -0.96767 7.52806 0
M  V30 6357 O 1088.6 -1.21055 6.10208 0
M  V30 6358 C 1089.79 -1.04557 8.13408 0
M  V30 6359 O 1090.18 -2.38311 8.41922 0
M  V30 6360 C 1090.67 -0.491279 7.02284 0
M  V30 6361 C 1089.96 -0.996264 5.77469 0
M  V30 6362 N 1090.01 -0.0501916 4.62973 0
M  V30 6363 H 1087.18 0.374765 8.67791 0
M  V30 6364 H 1086.9 0.443613 6.90476 0
M  V30 6365 H 1087.77 -1.75559 7.96891 0
M  V30 6366 H 1090.43 -1.94563 5.46818 0
M  V30 6367 H 1090.71 0.608651 7.04676 0
M  V30 6368 H 1091.7 -0.889796 7.09039 0
M  V30 6369 H 1089.86 -0.433128 9.04664 0
M  V30 6370 P 1091.73 -2.75334 8.47391 0
M  V30 6371 O 1091.95 -3.84128 9.44797 0
M  V30 6372 O 1092.52 -1.51947 8.68712 0
M  V30 6373 O 1091.98 -3.29363 6.99321 0
M  V30 6374 C 1091.04 -4.24011 6.4274 0
M  V30 6375 C 1091.77 -5.20775 5.52155 0
M  V30 6376 O 1091.98 -4.56534 4.22446 0
M  V30 6377 C 1093.17 -5.62629 5.96531 0
M  V30 6378 O 1093.56 -6.87667 5.41053 0
M  V30 6379 C 1094.05 -4.52537 5.39283 0
M  V30 6380 C 1093.34 -4.20027 4.08623 0
M  V30 6381 N 1093.39 -2.76189 3.71603 0
M  V30 6382 H 1090.55 -4.797 7.24003 0
M  V30 6383 H 1090.28 -3.69856 5.84513 0
M  V30 6384 H 1091.15 -6.10356 5.41441 0
M  V30 6385 P 1095.11 -7.20834 5.23717 0
M  V30 6386 O 1095.33 -8.66104 5.38572 0
M  V30 6387 O 1095.9 -6.33544 6.1349 0
M  V30 6388 O 1095.36 -6.7751 3.72168 0
M  V30 6389 C 1094.42 -7.20825 2.7076 0
M  V30 6390 C 1095.15 -7.45864 1.40599 0
M  V30 6391 O 1095.36 -6.17651 0.734225 0
M  V30 6392 C 1096.55 -8.05808 1.51899 0
M  V30 6393 O 1096.94 -8.74358 0.335205 0
M  V30 6394 C 1097.43 -6.83093 1.70294 0
M  V30 6395 C 1096.72 -5.79992 0.836974 0
M  V30 6396 N 1096.77 -4.41864 1.38293 0
M  V30 6397 H 1093.93 -8.13644 3.0377 0
M  V30 6398 H 1093.66 -6.42788 2.55485 0
M  V30 6399 H 1094.53 -8.12039 0.792769 0
M  V30 6400 P 1098.49 -8.91 -8.44418e-12 0
M  V30 6401 O 1098.71 -10.1736 -0.733766 0
M  V30 6402 O 1099.28 -8.73247 1.2395 0
M  V30 6403 O 1098.74 -7.66872 -0.971405 0
M  V30 6404 C 1097.8 -7.42212 -2.04614 0
M  V30 6405 C 1098.53 -6.86059 -3.24661 0
M  V30 6406 O 1098.74 -5.42847 -3.03646 0
M  V30 6407 C 1099.93 -7.41196 -3.50753 0
M  V30 6408 O 1100.32 -7.27073 -4.86816 0
M  V30 6409 C 1100.81 -6.5273 -2.63741 0
M  V30 6410 C 1100.1 -5.1842 -2.73198 0
M  V30 6411 N 1100.15 -4.38668 -1.47808 0
M  V30 6412 C 1100.3 -3.02239 -1.60048 0
M  V30 6413 O 1100.39 -2.46459 -2.67869 0
M  V30 6414 N 1100.34 -2.32436 -0.408571 0
M  V30 6415 C 1100.25 -2.85471 0.854993 0
M  V30 6416 C 1100.1 -4.28918 0.887335 0
M  V30 6417 C 1100.05 -5.00349 -0.255399 0
M  V30 6418 H 1097.31 -8.36803 -2.32493 0
M  V30 6419 H 1097.04 -6.701 -1.71105 0
M  V30 6420 H 1097.91 -7.03551 -4.13168 0
M  V30 6421 H 1100.57 -4.59773 -3.53894 0
M  V30 6422 H 1100.85 -6.88995 -1.59871 0
M  V30 6423 H 1101.84 -6.46749 -3.03687 0
M  V30 6424 H 1100 -8.46908 -3.20714 0
M  V30 6425 H 1099.93 -6.08548 -0.206986 0
M  V30 6426 P 1101.87 -7.20834 -5.23717 0
M  V30 6427 O 1102.09 -7.79853 -6.57286 0
M  V30 6428 O 1102.66 -7.79239 -4.12957 0
M  V30 6429 O 1102.12 -5.63315 -5.29344 0
M  V30 6430 C 1101.18 -4.80255 -6.01876 0
M  V30 6431 C 1101.91 -3.64202 -6.65911 0
M  V30 6432 O 1102.12 -2.60694 -5.64732 0
M  V30 6433 C 1103.31 -3.93473 -7.1943 0
M  V30 6434 O 1103.7 -3.02071 -8.21205 0
M  V30 6435 C 1104.19 -3.73047 -5.97036 0
M  V30 6436 C 1103.48 -2.58828 -5.25741 0
M  V30 6437 N 1103.53 -2.68068 -3.77503 0
M  V30 6438 H 1100.69 -5.40332 -6.79951 0
M  V30 6439 H 1100.42 -4.41613 -5.32378 0
M  V30 6440 H 1101.29 -3.26331 -7.47797 0
M  V30 6441 P 1105.25 -2.75334 -8.47391 0
M  V30 6442 O 1105.47 -2.44571 -9.90142 0
M  V30 6443 O 1106.04 -3.87688 -7.92115 0
M  V30 6444 O 1105.5 -1.4459 -7.59357 0
M  V30 6445 C 1104.56 -0.347608 -7.69215 0
M  V30 6446 C 1105.29 0.96767 -7.52806 0
M  V30 6447 O 1105.5 1.21036 -6.1011 0
M  V30 6448 C 1106.69 1.04544 -8.13308 0
M  V30 6449 O 1107.08 2.38311 -8.41922 0
M  V30 6450 C 1107.57 0.491279 -7.02284 0
M  V30 6451 C 1106.86 0.996264 -5.77469 0
M  V30 6452 N 1106.91 0.0501916 -4.62973 0
M  V30 6453 H 1104.07 -0.374722 -8.67691 0
M  V30 6454 H 1103.8 -0.443485 -6.90277 0
M  V30 6455 H 1104.67 1.75537 -7.96793 0
M  V30 6456 P 1108.63 2.75334 -8.47391 0
M  V30 6457 O 1108.85 3.84128 -9.44797 0
M  V30 6458 O 1109.42 1.51947 -8.68712 0
M  V30 6459 O 1108.88 3.29363 -6.99321 0
M  V30 6460 C 1107.94 4.24011 -6.4274 0
M  V30 6461 C 1108.67 5.20775 -5.52155 0
M  V30 6462 O 1108.88 4.56534 -4.22446 0
M  V30 6463 C 1110.07 5.62629 -5.96531 0
M  V30 6464 O 1110.46 6.87667 -5.41053 0
M  V30 6465 C 1110.95 4.52537 -5.39283 0
M  V30 6466 C 1110.24 4.20027 -4.08623 0
M  V30 6467 N 1110.29 2.76189 -3.71603 0
M  V30 6468 H 1107.45 4.797 -7.24003 0
M  V30 6469 H 1107.18 3.69856 -5.84513 0
M  V30 6470 H 1108.05 6.10356 -5.41441 0
M  V30 6471 P 1112.01 7.20834 -5.23717 0
M  V30 6472 O 1112.23 8.66104 -5.38572 0
M  V30 6473 O 1112.8 6.33544 -6.1349 0
M  V30 6474 O 1112.26 6.7751 -3.72168 0
M  V30 6475 C 1111.32 7.20825 -2.7076 0
M  V30 6476 C 1112.05 7.45864 -1.40599 0
M  V30 6477 O 1112.26 6.17651 -0.734225 0
M  V30 6478 C 1113.45 8.05808 -1.51899 0
M  V30 6479 O 1113.84 8.74358 -0.335205 0
M  V30 6480 C 1114.33 6.83093 -1.70294 0
M  V30 6481 C 1113.62 5.79992 -0.836974 0
M  V30 6482 N 1113.67 4.41864 -1.38293 0
M  V30 6483 H 1110.83 8.13644 -3.0377 0
M  V30 6484 H 1110.56 6.42788 -2.55485 0
M  V30 6485 H 1111.43 8.12039 -0.792769 0
M  V30 6486 P 1115.39 8.91 8.60137e-12 0
M  V30 6487 O 1115.61 10.1726 0.733694 0
M  V30 6488 O 1116.18 8.73148 -1.23936 0
M  V30 6489 O 1115.64 7.66872 0.971405 0
M  V30 6490 C 1114.7 7.42309 2.04641 0
M  V30 6491 C 1115.43 6.86059 3.24661 0
M  V30 6492 O 1115.64 5.42847 3.03646 0
M  V30 6493 C 1116.83 7.41196 3.50753 0
M  V30 6494 O 1117.22 7.27073 4.86816 0
M  V30 6495 C 1117.71 6.5273 2.63741 0
M  V30 6496 C 1117 5.1842 2.73198 0
M  V30 6497 N 1117.05 4.38762 1.4784 0
M  V30 6498 H 1114.21 8.36803 2.32493 0
M  V30 6499 H 1113.94 6.70197 1.71129 0
M  V30 6500 H 1114.81 7.03551 4.13168 0
M  V30 6501 P 1118.77 7.20834 5.23717 0
M  V30 6502 O 1118.99 7.79853 6.57286 0
M  V30 6503 O 1119.56 7.79239 4.12957 0
M  V30 6504 O 1119.02 5.63315 5.29344 0
M  V30 6505 C 1118.08 4.80255 6.01876 0
M  V30 6506 C 1118.81 3.64202 6.65911 0
M  V30 6507 O 1119.02 2.60694 5.64732 0
M  V30 6508 C 1120.21 3.93473 7.1943 0
M  V30 6509 O 1120.6 3.02071 8.21205 0
M  V30 6510 C 1121.09 3.73047 5.97036 0
M  V30 6511 C 1120.38 2.58828 5.25741 0
M  V30 6512 N 1120.43 2.68068 3.77503 0
M  V30 6513 C 1120.35 3.79715 2.96723 0
M  V30 6514 N 1120.43 3.5377 1.68852 0
M  V30 6515 C 1120.57 2.15054 1.63254 0
M  V30 6516 C 1120.7 1.28964 0.518571 0
M  V30 6517 N 1120.82 -0.0538097 0.918425 0
M  V30 6518 C 1120.82 -0.494275 2.22578 0
M  V30 6519 N 1120.95 -1.81086 2.40434 0
M  V30 6520 N 1120.69 0.313645 3.27502 0
M  V30 6521 C 1120.57 1.61829 2.91033 0
M  V30 6522 H 1117.59 5.40332 6.79951 0
M  V30 6523 H 1117.32 4.41613 5.32378 0
M  V30 6524 H 1118.19 3.26331 7.47797 0
M  V30 6525 P 1122.15 2.75334 8.47391 0
M  V30 6526 O 1122.37 2.44571 9.90142 0
M  V30 6527 O 1122.94 3.87688 7.92115 0
M  V30 6528 O 1122.4 1.4459 7.59357 0
M  V30 6529 C 1121.46 0.347608 7.69215 0
M  V30 6530 C 1122.19 -0.96767 7.52806 0
M  V30 6531 O 1122.4 -1.21036 6.1011 0
M  V30 6532 C 1123.59 -1.04544 8.13308 0
M  V30 6533 O 1123.98 -2.38311 8.41922 0
M  V30 6534 C 1124.47 -0.491279 7.02284 0
M  V30 6535 C 1123.76 -0.996264 5.77469 0
M  V30 6536 N 1123.81 -0.0501916 4.62973 0
M  V30 6537 H 1120.97 0.374722 8.67691 0
M  V30 6538 H 1120.7 0.443485 6.90277 0
M  V30 6539 H 1121.57 -1.75537 7.96793 0
M  V30 6540 P 1125.53 -2.75334 8.47391 0
M  V30 6541 O 1125.75 -3.84128 9.44797 0
M  V30 6542 O 1126.32 -1.51947 8.68712 0
M  V30 6543 O 1125.78 -3.29363 6.99321 0
M  V30 6544 C 1124.84 -4.24011 6.4274 0
M  V30 6545 C 1125.57 -5.20775 5.52155 0
M  V30 6546 O 1125.78 -4.56534 4.22446 0
M  V30 6547 C 1126.97 -5.62629 5.96531 0
M  V30 6548 O 1127.36 -6.87667 5.41053 0
M  V30 6549 C 1127.85 -4.52537 5.39283 0
M  V30 6550 C 1127.14 -4.20027 4.08623 0
M  V30 6551 N 1127.19 -2.76189 3.71603 0
M  V30 6552 H 1124.35 -4.797 7.24003 0
M  V30 6553 H 1124.08 -3.69856 5.84513 0
M  V30 6554 H 1124.95 -6.10356 5.41441 0
M  V30 6555 H 1127.23 -6.85814 4.46035 0
M  V30 6556 H 1131.25 5.51656 -7.74769 0
M  V30 6557 O 1131.13 4.58361 -7.63359 0
M  V30 6558 P 1129.69 4.23843 -7.83734 0
M  V30 6559 O 1129.47 4.19407 -9.29784 0
M  V30 6560 O 1128.9 5.24426 -7.09156 0
M  V30 6561 O 1129.44 2.7935 -7.20758 0
M  V30 6562 C 1130.38 1.7299 -7.50419 0
M  V30 6563 C 1129.65 0.406376 -7.57911 0
M  V30 6564 O 1129.44 -0.0897726 -6.21935 0
M  V30 6565 C 1128.25 0.447224 -8.1878 0
M  V30 6566 O 1127.86 -0.825065 -8.71101 0
M  V30 6567 C 1127.37 0.783801 -6.99623 0
M  V30 6568 C 1128.08 0.0619192 -5.85967 0
M  V30 6569 N 1128.03 0.7859 -4.56281 0
M  V30 6570 H 1130.87 1.93423 -8.4679 0
M  V30 6571 H 1131.14 1.68181 -6.71046 0
M  V30 6572 H 1130.28 -0.289041 -8.15388 0
M  V30 6573 P 1126.31 -1.17771 -8.83182 0
M  V30 6574 O 1126.09 -2.07206 -9.98732 0
M  V30 6575 O 1125.52 0.0743816 -8.81969 0
M  V30 6576 O 1126.06 -1.97652 -7.47304 0
M  V30 6577 C 1127 -3.01133 -7.08783 0
M  V30 6578 C 1126.27 -4.12613 -6.37049 0
M  V30 6579 O 1126.06 -3.72827 -4.97879 0
M  V30 6580 C 1124.87 -4.45085 -6.88694 0
M  V30 6581 O 1124.48 -5.7877 -6.5624 0
M  V30 6582 C 1123.99 -3.47817 -6.12078 0
M  V30 6583 C 1124.7 -3.39414 -4.77697 0
M  V30 6584 N 1124.65 -2.04615 -4.15333 0
M  V30 6585 H 1127.49 -3.41248 -7.98759 0
M  V30 6586 H 1127.76 -2.5837 -6.41742 0
M  V30 6587 H 1126.9 -5.02657 -6.42673 0
M  V30 6588 P 1122.93 -6.144 -6.45285 0
M  V30 6589 O 1122.71 -7.54673 -6.86199 0
M  V30 6590 O 1122.14 -5.12391 -7.179 0
M  V30 6591 O 1122.68 -5.99158 -4.88404 0
M  V30 6592 C 1123.62 -6.60062 -3.96313 0
M  V30 6593 C 1122.89 -7.08259 -2.72856 0
M  V30 6594 O 1122.68 -5.9427 -1.83651 0
M  V30 6595 C 1121.49 -7.65087 -2.94749 0
M  V30 6596 O 1121.1 -8.53963 -1.90717 0
M  V30 6597 C 1120.61 -6.41069 -2.90698 0
M  V30 6598 C 1121.32 -5.5528 -1.86931 0
M  V30 6599 N 1121.27 -4.09575 -2.15696 0
M  V30 6600 C 1121.12 -3.24249 -1.08435 0
M  V30 6601 O 1121.03 -3.63946 0.0628747 0
M  V30 6602 N 1121.08 -1.90009 -1.39973 0
M  V30 6603 C 1121.17 -1.34884 -2.65614 0
M  V30 6604 C 1121.32 -2.3145 -3.71736 0
M  V30 6605 C 1121.37 -3.63518 -3.44754 0
M  V30 6606 H 1124.11 -7.45402 -4.45526 0
M  V30 6607 H 1124.38 -5.86062 -3.67208 0
M  V30 6608 H 1123.52 -7.84412 -2.24479 0
M  V30 6609 H 1120.86 -5.73358 -0.888409 0
M  V30 6610 H 1120.58 -5.90877 -3.88583 0
M  V30 6611 H 1119.59 -6.65867 -2.58821 0
M  V30 6612 H 1121.42 -8.16248 -3.92006 0
M  V30 6613 H 1121.5 -4.34551 -4.26383 0
M  V30 6614 P 1119.55 -8.7635 -1.60911 0
M  V30 6615 O 1119.33 -10.1388 -1.11561 0
M  V30 6616 O 1118.76 -8.36503 -2.79617 0
M  V30 6617 O 1119.3 -7.71806 -0.42951 0
M  V30 6618 C 1120.24 -7.67148 0.673689 0
M  V30 6619 C 1119.51 -7.33374 1.95559 0
M  V30 6620 O 1119.3 -5.88721 2.00726 0
M  V30 6621 C 1118.11 -7.92526 2.10483 0
M  V30 6622 O 1117.72 -8.02971 3.47653 0
M  V30 6623 C 1117.23 -6.89602 1.41652 0
M  V30 6624 C 1117.94 -5.59201 1.75185 0
M  V30 6625 N 1117.89 -4.58235 0.662552 0
M  V30 6626 H 1120.73 -8.65116 0.777161 0
M  V30 6627 H 1121 -6.90173 0.474152 0
M  V30 6628 H 1120.14 -7.66548 2.79458 0
M  V30 6629 P 1116.17 -8.03563 3.84925 0
M  V30 6630 O 1115.95 -8.85821 5.0569 0
M  V30 6631 O 1115.38 -8.41101 2.65469 0
M  V30 6632 O 1115.92 -6.4965 4.18908 0
M  V30 6633 C 1116.86 -5.81037 5.05421 0
M  V30 6634 C 1116.13 -4.78366 5.89277 0
M  V30 6635 O 1115.92 -3.58302 5.08433 0
M  V30 6636 C 1114.73 -5.17448 6.36119 0
M  V30 6637 O 1114.34 -4.45271 7.53232 0
M  V30 6638 C 1113.85 -4.74639 5.19936 0
M  V30 6639 C 1114.56 -3.49432 4.70418 0
M  V30 6640 N 1114.51 -3.31776 3.22945 0
M  V30 6641 H 1117.35 -6.54213 5.71376 0
M  V30 6642 H 1117.62 -5.30492 4.44033 0
M  V30 6643 H 1116.76 -4.55889 6.76652 0
M  V30 6644 P 1112.79 -4.23843 7.83734 0
M  V30 6645 O 1112.57 -4.19407 9.29784 0
M  V30 6646 O 1112 -5.24426 7.09156 0
M  V30 6647 O 1112.54 -2.7935 7.20758 0
M  V30 6648 C 1113.48 -1.7299 7.50419 0
M  V30 6649 C 1112.75 -0.406376 7.57911 0
M  V30 6650 O 1112.54 0.0897726 6.21935 0
M  V30 6651 C 1111.35 -0.447224 8.1878 0
M  V30 6652 O 1110.96 0.825065 8.71101 0
M  V30 6653 C 1110.47 -0.783801 6.99623 0
M  V30 6654 C 1111.18 -0.0619192 5.85967 0
M  V30 6655 N 1111.13 -0.7859 4.56281 0
M  V30 6656 H 1113.97 -1.93423 8.4679 0
M  V30 6657 H 1114.24 -1.68181 6.71046 0
M  V30 6658 H 1113.38 0.289041 8.15388 0
M  V30 6659 P 1109.41 1.17771 8.83182 0
M  V30 6660 O 1109.19 2.07206 9.98732 0
M  V30 6661 O 1108.62 -0.0743816 8.81969 0
M  V30 6662 O 1109.16 1.97652 7.47304 0
M  V30 6663 C 1110.1 3.01133 7.08783 0
M  V30 6664 C 1109.37 4.12613 6.37049 0
M  V30 6665 O 1109.16 3.72827 4.97879 0
M  V30 6666 C 1107.97 4.45085 6.88694 0
M  V30 6667 O 1107.58 5.7877 6.5624 0
M  V30 6668 C 1107.09 3.47817 6.12078 0
M  V30 6669 C 1107.8 3.39414 4.77697 0
M  V30 6670 N 1107.75 2.04615 4.15333 0
M  V30 6671 H 1110.59 3.41248 7.98759 0
M  V30 6672 H 1110.86 2.5837 6.41742 0
M  V30 6673 H 1110 5.02657 6.42673 0
M  V30 6674 P 1106.03 6.144 6.45285 0
M  V30 6675 O 1105.81 7.54673 6.86199 0
M  V30 6676 O 1105.24 5.12391 7.179 0
M  V30 6677 O 1105.78 5.99158 4.88404 0
M  V30 6678 C 1106.72 6.60234 3.96415 0
M  V30 6679 C 1105.99 7.08259 2.72856 0
M  V30 6680 O 1105.78 5.9427 1.83651 0
M  V30 6681 C 1104.59 7.64886 2.9555 0
M  V30 6682 O 1104.2 8.53963 1.90717 0
M  V30 6683 C 1103.71 6.4116 2.90739 0
M  V30 6684 C 1104.42 5.55375 1.86963 0
M  V30 6685 N 1104.37 4.09664 2.15742 0
M  V30 6686 H 1107.21 7.45574 4.45629 0
M  V30 6687 H 1107.48 5.86232 3.67314 0
M  V30 6688 H 1106.62 7.84412 2.24479 0
M  V30 6689 P 1102.65 8.7635 1.60911 0
M  V30 6690 O 1102.43 10.1388 1.11561 0
M  V30 6691 O 1101.86 8.36503 2.79617 0
M  V30 6692 O 1102.4 7.71806 0.42951 0
M  V30 6693 C 1103.34 7.67148 -0.673689 0
M  V30 6694 C 1102.61 7.33374 -1.95559 0
M  V30 6695 O 1102.4 5.88721 -2.00726 0
M  V30 6696 C 1101.21 7.92526 -2.10483 0
M  V30 6697 O 1100.82 8.02971 -3.47653 0
M  V30 6698 C 1100.33 6.89602 -1.41652 0
M  V30 6699 C 1101.04 5.59201 -1.75185 0
M  V30 6700 N 1100.99 4.58235 -0.662552 0
M  V30 6701 C 1101.07 4.7683 0.704049 0
M  V30 6702 N 1100.99 3.66233 1.39775 0
M  V30 6703 C 1100.85 2.66526 0.431739 0
M  V30 6704 C 1100.72 1.26394 0.575992 0
M  V30 6705 N 1100.6 0.62859 -0.67177 0
M  V30 6706 C 1100.6 1.27134 -1.89385 0
M  V30 6707 N 1100.47 0.492035 -2.96951 0
M  V30 6708 N 1100.73 2.58978 -2.02907 0
M  V30 6709 C 1100.85 3.22433 -0.832218 0
M  V30 6710 H 1103.83 8.65116 -0.777161 0
M  V30 6711 H 1104.1 6.90173 -0.474152 0
M  V30 6712 H 1103.24 7.66548 -2.79458 0
M  V30 6713 P 1099.27 8.03563 -3.84925 0
M  V30 6714 O 1099.05 8.85821 -5.0569 0
M  V30 6715 O 1098.48 8.41101 -2.65469 0
M  V30 6716 O 1099.02 6.4965 -4.18908 0
M  V30 6717 C 1099.96 5.81037 -5.05421 0
M  V30 6718 C 1099.23 4.78366 -5.89277 0
M  V30 6719 O 1099.02 3.58302 -5.08433 0
M  V30 6720 C 1097.83 5.17448 -6.36119 0
M  V30 6721 O 1097.44 4.45271 -7.53232 0
M  V30 6722 C 1096.95 4.74639 -5.19936 0
M  V30 6723 C 1097.66 3.49432 -4.70418 0
M  V30 6724 N 1097.61 3.32099 -3.22613 0
M  V30 6725 H 1100.45 6.54213 -5.71376 0
M  V30 6726 H 1100.72 5.30936 -4.43503 0
M  V30 6727 H 1099.86 4.55889 -6.76652 0
M  V30 6728 H 1097.2 2.61715 -5.17932 0
M  V30 6729 H 1096.92 5.52155 -4.41878 0
M  V30 6730 H 1095.93 4.51981 -5.53374 0
M  V30 6731 H 1097.76 6.25124 -6.55234 0
M  V30 6732 P 1095.89 4.23843 -7.83734 0
M  V30 6733 O 1095.67 4.19407 -9.29784 0
M  V30 6734 O 1095.1 5.24426 -7.09156 0
M  V30 6735 O 1095.64 2.7935 -7.20758 0
M  V30 6736 C 1096.58 1.7299 -7.50419 0
M  V30 6737 C 1095.85 0.406376 -7.57911 0
M  V30 6738 O 1095.64 -0.0897726 -6.21935 0
M  V30 6739 C 1094.45 0.447224 -8.1878 0
M  V30 6740 O 1094.06 -0.825065 -8.71101 0
M  V30 6741 C 1093.57 0.783801 -6.99623 0
M  V30 6742 C 1094.28 0.0619192 -5.85967 0
M  V30 6743 N 1094.23 0.7859 -4.56281 0
M  V30 6744 H 1097.07 1.93423 -8.4679 0
M  V30 6745 H 1097.34 1.68181 -6.71046 0
M  V30 6746 H 1096.48 -0.289041 -8.15388 0
M  V30 6747 P 1092.51 -1.17771 -8.83182 0
M  V30 6748 O 1092.29 -2.07206 -9.98732 0
M  V30 6749 O 1091.72 0.0743816 -8.81969 0
M  V30 6750 O 1092.26 -1.97652 -7.47304 0
M  V30 6751 C 1093.2 -3.01133 -7.08783 0
M  V30 6752 C 1092.47 -4.12613 -6.37049 0
M  V30 6753 O 1092.26 -3.72827 -4.97879 0
M  V30 6754 C 1091.07 -4.45085 -6.88694 0
M  V30 6755 O 1090.68 -5.7877 -6.5624 0
M  V30 6756 C 1090.19 -3.47817 -6.12078 0
M  V30 6757 C 1090.9 -3.39414 -4.77697 0
M  V30 6758 N 1090.85 -2.04615 -4.15333 0
M  V30 6759 H 1093.69 -3.41248 -7.98759 0
M  V30 6760 H 1093.96 -2.5837 -6.41742 0
M  V30 6761 H 1093.1 -5.02657 -6.42673 0
M  V30 6762 P 1089.13 -6.144 -6.45285 0
M  V30 6763 O 1088.91 -7.54673 -6.86199 0
M  V30 6764 O 1088.34 -5.12391 -7.179 0
M  V30 6765 O 1088.88 -5.99158 -4.88404 0
M  V30 6766 C 1089.82 -6.60234 -3.96415 0
M  V30 6767 C 1089.09 -7.08259 -2.72856 0
M  V30 6768 O 1088.88 -5.9427 -1.83651 0
M  V30 6769 C 1087.69 -7.64886 -2.9555 0
M  V30 6770 O 1087.3 -8.53963 -1.90717 0
M  V30 6771 C 1086.81 -6.4116 -2.90739 0
M  V30 6772 C 1087.52 -5.55375 -1.86963 0
M  V30 6773 N 1087.47 -4.09448 -2.16152 0
M  V30 6774 H 1090.31 -7.45574 -4.45629 0
M  V30 6775 H 1090.58 -5.85864 -3.679 0
M  V30 6776 H 1089.72 -7.84412 -2.24479 0
M  V30 6777 H 1087.06 -5.73457 -0.888562 0
M  V30 6778 H 1086.78 -5.90877 -3.88583 0
M  V30 6779 H 1085.79 -6.6596 -2.58858 0
M  V30 6780 H 1087.62 -8.16339 -3.92049 0
M  V30 6781 P 1085.75 -8.7635 -1.60911 0
M  V30 6782 O 1085.53 -10.1388 -1.11561 0
M  V30 6783 O 1084.96 -8.36503 -2.79617 0
M  V30 6784 O 1085.5 -7.71806 -0.42951 0
M  V30 6785 C 1086.44 -7.67148 0.673689 0
M  V30 6786 C 1085.71 -7.33374 1.95559 0
M  V30 6787 O 1085.5 -5.88721 2.00726 0
M  V30 6788 C 1084.31 -7.92526 2.10483 0
M  V30 6789 O 1083.92 -8.02971 3.47653 0
M  V30 6790 C 1083.43 -6.89602 1.41652 0
M  V30 6791 C 1084.14 -5.59201 1.75185 0
M  V30 6792 N 1084.09 -4.58235 0.662552 0
M  V30 6793 C 1084.17 -4.7683 -0.704049 0
M  V30 6794 N 1084.09 -3.66233 -1.39775 0
M  V30 6795 C 1083.95 -2.66526 -0.431739 0
M  V30 6796 C 1083.82 -1.26394 -0.575992 0
M  V30 6797 N 1083.7 -0.62859 0.67177 0
M  V30 6798 C 1083.7 -1.27134 1.89385 0
M  V30 6799 N 1083.57 -0.492035 2.96951 0
M  V30 6800 N 1083.83 -2.58978 2.02907 0
M  V30 6801 C 1083.95 -3.22433 0.832218 0
M  V30 6802 H 1086.93 -8.65116 0.777161 0
M  V30 6803 H 1087.2 -6.90173 0.474152 0
M  V30 6804 H 1086.34 -7.66548 2.79458 0
M  V30 6805 P 1082.37 -8.03563 3.84925 0
M  V30 6806 O 1082.15 -8.85821 5.0569 0
M  V30 6807 O 1081.58 -8.41101 2.65469 0
M  V30 6808 O 1082.12 -6.4965 4.18908 0
M  V30 6809 C 1083.06 -5.80886 5.05289 0
M  V30 6810 C 1082.33 -4.78366 5.89277 0
M  V30 6811 O 1082.12 -3.58302 5.08433 0
M  V30 6812 C 1080.93 -5.16748 6.36559 0
M  V30 6813 O 1080.54 -4.45271 7.53232 0
M  V30 6814 C 1080.05 -4.74572 5.19863 0
M  V30 6815 C 1080.76 -3.49373 4.70338 0
M  V30 6816 N 1080.71 -3.31704 3.22876 0
M  V30 6817 C 1080.56 -2.03326 2.74871 0
M  V30 6818 O 1080.47 -1.06486 3.48076 0
M  V30 6819 N 1080.52 -1.91838 1.37456 0
M  V30 6820 C 1080.61 -2.94295 0.462035 0
M  V30 6821 O 1080.56 -2.71763 -0.752928 0
M  V30 6822 C 1080.76 -4.25064 1.05249 0
M  V30 6823 C 1080.87 -5.39815 0.095697 0
M  V30 6824 C 1080.81 -4.40214 2.39192 0
M  V30 6825 H 1083.55 -6.54063 5.71245 0
M  V30 6826 H 1083.82 -5.30339 4.43905 0
M  V30 6827 H 1082.96 -4.55889 6.76652 0
M  V30 6828 H 1080.3 -2.6167 5.17842 0
M  V30 6829 H 1080.02 -5.52155 4.41878 0
M  V30 6830 H 1079.03 -4.51918 5.53297 0
M  V30 6831 H 1080.86 -6.25055 6.55162 0
M  V30 6832 H 1080.94 -5.39798 2.81523 0
M  V30 6833 H 1079.91 -5.91593 0.0279582 0
M  V30 6834 H 1081.64 -6.10038 0.450573 0
M  V30 6835 H 1081.15 -5.02007 -0.89937 0
M  V30 6836 H 1080.42 -0.995326 1.00435 0
M  V30 6837 P 1078.99 -4.23843 7.83734 0
M  V30 6838 O 1078.77 -4.19407 9.29784 0
M  V30 6839 O 1078.2 -5.24426 7.09156 0
M  V30 6840 O 1078.74 -2.7935 7.20758 0
M  V30 6841 C 1079.68 -1.7299 7.50419 0
M  V30 6842 C 1078.95 -0.406376 7.57911 0
M  V30 6843 O 1078.74 0.0897726 6.21935 0
M  V30 6844 C 1077.55 -0.447224 8.1878 0
M  V30 6845 O 1077.16 0.825065 8.71101 0
M  V30 6846 C 1076.67 -0.783801 6.99623 0
M  V30 6847 C 1077.38 -0.0619192 5.85967 0
M  V30 6848 N 1077.33 -0.790462 4.56202 0
M  V30 6849 H 1080.17 -1.93423 8.4679 0
M  V30 6850 H 1080.44 -1.68852 6.70877 0
M  V30 6851 H 1079.58 0.289041 8.15388 0
M  V30 6852 H 1076.92 0.927006 5.72848 0
M  V30 6853 H 1076.64 -1.86973 6.82036 0
M  V30 6854 H 1075.65 -0.403953 7.13357 0
M  V30 6855 H 1077.48 -1.20599 8.97534 0
M  V30 6856 P 1075.61 1.17771 8.83182 0
M  V30 6857 O 1075.39 2.07206 9.98732 0
M  V30 6858 O 1074.82 -0.0743816 8.81969 0
M  V30 6859 O 1075.36 1.97652 7.47304 0
M  V30 6860 C 1076.3 3.01133 7.08783 0
M  V30 6861 C 1075.57 4.12613 6.37049 0
M  V30 6862 O 1075.36 3.72827 4.97879 0
M  V30 6863 C 1074.17 4.45085 6.88694 0
M  V30 6864 O 1073.78 5.7877 6.5624 0
M  V30 6865 C 1073.29 3.47817 6.12078 0
M  V30 6866 C 1074 3.39414 4.77697 0
M  V30 6867 N 1073.95 2.04615 4.15333 0
M  V30 6868 H 1076.79 3.41248 7.98759 0
M  V30 6869 H 1077.06 2.5837 6.41742 0
M  V30 6870 H 1076.2 5.02657 6.42673 0
M  V30 6871 P 1072.23 6.144 6.45285 0
M  V30 6872 O 1072.01 7.54673 6.86199 0
M  V30 6873 O 1071.44 5.12391 7.179 0
M  V30 6874 O 1071.98 5.99158 4.88404 0
M  V30 6875 C 1072.92 6.60234 3.96415 0
M  V30 6876 C 1072.19 7.08259 2.72856 0
M  V30 6877 O 1071.98 5.9427 1.83651 0
M  V30 6878 C 1070.79 7.64886 2.9555 0
M  V30 6879 O 1070.4 8.53963 1.90717 0
M  V30 6880 C 1069.91 6.4116 2.90739 0
M  V30 6881 C 1070.62 5.55375 1.86963 0
M  V30 6882 N 1070.57 4.09448 2.16152 0
M  V30 6883 C 1070.65 3.46824 3.37593 0
M  V30 6884 N 1070.58 2.17422 3.29777 0
M  V30 6885 C 1070.43 1.93065 1.94427 0
M  V30 6886 C 1070.3 0.738053 1.20141 0
M  V30 6887 N 1070.29 -0.474256 1.74676 0
M  V30 6888 N 1070.18 0.850049 -0.13045 0
M  V30 6889 C 1070.19 2.06169 -0.676992 0
M  V30 6890 N 1070.31 3.23842 -0.101312 0
M  V30 6891 C 1070.43 3.09402 1.23122 0
M  V30 6892 H 1073.41 7.45574 4.45629 0
M  V30 6893 H 1073.68 5.85864 3.679 0
M  V30 6894 H 1072.82 7.84412 2.24479 0
M  V30 6895 H 1070.16 5.73457 0.888562 0
M  V30 6896 H 1069.88 5.90877 3.88583 0
M  V30 6897 H 1068.89 6.6596 2.58858 0
M  V30 6898 H 1070.72 8.16339 3.92049 0
M  V30 6899 H 1070.77 4.00505 4.3174 0
M  V30 6900 H 1070.38 -0.581337 2.76658 0
M  V30 6901 H 1070.2 -1.30811 1.14888 0
M  V30 6902 H 1070.09 2.08295 -1.75542 0
M  V30 6903 P 1068.85 8.7635 1.60911 0
M  V30 6904 O 1068.63 10.1388 1.11561 0
M  V30 6905 O 1068.06 8.36503 2.79617 0
M  V30 6906 O 1068.6 7.71806 0.42951 0
M  V30 6907 C 1069.54 7.67148 -0.673689 0
M  V30 6908 C 1068.81 7.33374 -1.95559 0
M  V30 6909 O 1068.6 5.88721 -2.00726 0
M  V30 6910 C 1067.41 7.92526 -2.10483 0
M  V30 6911 O 1067.02 8.02971 -3.47653 0
M  V30 6912 C 1066.53 6.89602 -1.41652 0
M  V30 6913 C 1067.24 5.59201 -1.75185 0
M  V30 6914 N 1067.19 4.58235 -0.662552 0
M  V30 6915 H 1070.03 8.65116 -0.777161 0
M  V30 6916 H 1070.3 6.90173 -0.474152 0
M  V30 6917 H 1069.44 7.66548 -2.79458 0
M  V30 6918 P 1065.47 8.03563 -3.84925 0
M  V30 6919 O 1065.25 8.85821 -5.0569 0
M  V30 6920 O 1064.68 8.41101 -2.65469 0
M  V30 6921 O 1065.22 6.4965 -4.18908 0
M  V30 6922 C 1066.16 5.81037 -5.05421 0
M  V30 6923 C 1065.43 4.78366 -5.89277 0
M  V30 6924 O 1065.22 3.58302 -5.08433 0
M  V30 6925 C 1064.03 5.17448 -6.36119 0
M  V30 6926 O 1063.64 4.45271 -7.53232 0
M  V30 6927 C 1063.15 4.74639 -5.19936 0
M  V30 6928 C 1063.86 3.49432 -4.70418 0
M  V30 6929 N 1063.81 3.31776 -3.22945 0
M  V30 6930 H 1066.65 6.54213 -5.71376 0
M  V30 6931 H 1066.92 5.30492 -4.44033 0
M  V30 6932 H 1066.06 4.55889 -6.76652 0
M  V30 6933 P 1062.09 4.23843 -7.83734 0
M  V30 6934 O 1061.87 4.19407 -9.29784 0
M  V30 6935 O 1061.3 5.24426 -7.09156 0
M  V30 6936 O 1061.84 2.7935 -7.20758 0
M  V30 6937 C 1062.78 1.72945 -7.50224 0
M  V30 6938 C 1062.05 0.406376 -7.57911 0
M  V30 6939 O 1061.84 -0.0897726 -6.21935 0
M  V30 6940 C 1060.65 0.438983 -8.18724 0
M  V30 6941 O 1060.26 -0.825065 -8.71101 0
M  V30 6942 C 1059.77 0.783689 -6.99524 0
M  V30 6943 C 1060.48 0.0619086 -5.85867 0
M  V30 6944 N 1060.43 0.78573 -4.56183 0
M  V30 6945 C 1060.28 0.0292889 -3.41887 0
M  V30 6946 O 1060.19 -1.18445 -3.4419 0
M  V30 6947 N 1060.24 0.744061 -2.23964 0
M  V30 6948 C 1060.33 2.10932 -2.10362 0
M  V30 6949 C 1060.48 2.8202 -3.34994 0
M  V30 6950 C 1060.53 2.15547 -4.52261 0
M  V30 6951 H 1063.27 1.93379 -8.46595 0
M  V30 6952 H 1063.54 1.68132 -6.70852 0
M  V30 6953 H 1062.68 -0.289041 -8.15388 0
M  V30 6954 H 1060.02 -0.926847 -5.72749 0
M  V30 6955 H 1059.74 1.86973 -6.82036 0
M  V30 6956 H 1058.75 0.403896 -7.13257 0
M  V30 6957 H 1060.58 1.20585 -8.97435 0
M  V30 6958 H 1060.66 2.71231 -5.45042 0
M  V30 6959 P 1058.71 -1.17771 -8.83182 0
M  V30 6960 O 1058.49 -2.07206 -9.98732 0
M  V30 6961 O 1057.92 0.0743816 -8.81969 0
M  V30 6962 O 1058.46 -1.97678 -7.474 0
M  V30 6963 C 1059.4 -3.01133 -7.08783 0
M  V30 6964 C 1058.67 -4.1203 -6.37546 0
M  V30 6965 O 1058.46 -3.72887 -4.9796 0
M  V30 6966 C 1057.27 -4.45085 -6.88694 0
M  V30 6967 O 1056.88 -5.78836 -6.56315 0
M  V30 6968 C 1056.39 -3.47817 -6.12078 0
M  V30 6969 C 1057.1 -3.39414 -4.77697 0
M  V30 6970 N 1057.05 -2.04615 -4.15333 0
M  V30 6971 C 1056.9 -1.96929 -2.77162 0
M  V30 6972 O 1056.81 -3.02017 -2.12006 0
M  V30 6973 N 1056.85 -0.55485 -2.24237 0
M  V30 6974 C 1056.95 0.367808 -2.9169 0
M  V30 6975 N 1056.9 1.53426 -2.29427 0
M  V30 6976 C 1057.1 0.319148 -4.33828 0
M  V30 6977 C 1057.15 -0.920672 -4.90433 0
M  V30 6978 H 1059.89 -3.41209 -7.98667 0
M  V30 6979 H 1060.16 -2.5837 -6.41742 0
M  V30 6980 H 1059.3 -5.02718 -6.42752 0
M  V30 6981 H 1056.64 -4.11779 -4.09026 0
M  V30 6982 H 1056.36 -2.49661 -6.61772 0
M  V30 6983 H 1055.37 -3.86674 -6.00946 0
M  V30 6984 H 1057.2 -4.29991 -7.97006 0
M  V30 6985 H 1057.28 -1.00589 -5.98303 0
M  V30 6986 H 1057.17 1.22639 -4.93799 0
M  V30 6987 H 1056.79 1.56819 -1.27167 0
M  V30 6988 H 1056.98 2.41062 -2.83063 0
M  V30 6989 P 1055.33 -6.144 -6.45285 0
M  V30 6990 O 1055.11 -7.54673 -6.86199 0
M  V30 6991 O 1054.54 -5.12391 -7.179 0
M  V30 6992 O 1055.08 -5.99158 -4.88404 0
M  V30 6993 C 1056.02 -6.60062 -3.96313 0
M  V30 6994 C 1055.29 -7.08259 -2.72856 0
M  V30 6995 O 1055.08 -5.9427 -1.83651 0
M  V30 6996 C 1053.89 -7.65087 -2.94749 0
M  V30 6997 O 1053.5 -8.53963 -1.90717 0
M  V30 6998 C 1053.01 -6.41069 -2.90698 0
M  V30 6999 C 1053.72 -5.5528 -1.86931 0
M  V30 7000 N 1053.67 -4.09575 -2.15696 0
M  V30 7001 C 1053.52 -3.24249 -1.08435 0
M  V30 7002 O 1053.43 -3.63946 0.0628747 0
M  V30 7003 N 1053.48 -1.90009 -1.39973 0
M  V30 7004 C 1053.57 -1.34884 -2.65614 0
M  V30 7005 C 1053.72 -2.3145 -3.71736 0
M  V30 7006 C 1053.77 -3.63518 -3.44754 0
M  V30 7007 H 1056.51 -7.45402 -4.45526 0
M  V30 7008 H 1056.78 -5.86062 -3.67208 0
M  V30 7009 H 1055.92 -7.84412 -2.24479 0
M  V30 7010 H 1053.26 -5.73358 -0.888409 0
M  V30 7011 H 1052.98 -5.90877 -3.88583 0
M  V30 7012 H 1051.99 -6.65867 -2.58821 0
M  V30 7013 H 1053.82 -8.16248 -3.92006 0
M  V30 7014 H 1053.9 -4.34551 -4.26383 0
M  V30 7015 P 1051.95 -8.7635 -1.60911 0
M  V30 7016 O 1051.73 -10.1388 -1.11561 0
M  V30 7017 O 1051.16 -8.36503 -2.79617 0
M  V30 7018 O 1051.7 -7.71806 -0.42951 0
M  V30 7019 C 1052.64 -7.67148 0.673689 0
M  V30 7020 C 1051.91 -7.33374 1.95559 0
M  V30 7021 O 1051.7 -5.88721 2.00726 0
M  V30 7022 C 1050.51 -7.92526 2.10483 0
M  V30 7023 O 1050.12 -8.02971 3.47653 0
M  V30 7024 C 1049.63 -6.89602 1.41652 0
M  V30 7025 C 1050.34 -5.59201 1.75185 0
M  V30 7026 N 1050.29 -4.58235 0.662552 0
M  V30 7027 H 1053.13 -8.65116 0.777161 0
M  V30 7028 H 1053.4 -6.90173 0.474152 0
M  V30 7029 H 1052.54 -7.66548 2.79458 0
M  V30 7030 P 1048.57 -8.03563 3.84925 0
M  V30 7031 O 1048.35 -8.85821 5.0569 0
M  V30 7032 O 1047.78 -8.41101 2.65469 0
M  V30 7033 O 1048.32 -6.4965 4.18908 0
M  V30 7034 C 1049.26 -5.81037 5.05421 0
M  V30 7035 C 1048.53 -4.78366 5.89277 0
M  V30 7036 O 1048.32 -3.58302 5.08433 0
M  V30 7037 C 1047.13 -5.17448 6.36119 0
M  V30 7038 O 1046.74 -4.45271 7.53232 0
M  V30 7039 C 1046.25 -4.74639 5.19936 0
M  V30 7040 C 1046.96 -3.49432 4.70418 0
M  V30 7041 N 1046.91 -3.32099 3.22613 0
M  V30 7042 C 1046.99 -4.28245 2.25527 0
M  V30 7043 N 1046.92 -3.80823 1.04874 0
M  V30 7044 C 1046.77 -2.44571 1.23535 0
M  V30 7045 C 1046.64 -1.37068 0.330675 0
M  V30 7046 N 1046.63 -1.51472 -0.990824 0
M  V30 7047 N 1046.52 -0.138614 0.848756 0
M  V30 7048 C 1046.53 0.00675923 2.16999 0
M  V30 7049 N 1046.65 -0.904372 3.11122 0
M  V30 7050 C 1046.77 -2.12707 2.56212 0
M  V30 7051 H 1049.75 -6.54213 5.71376 0
M  V30 7052 H 1050.02 -5.30936 4.43503 0
M  V30 7053 H 1049.16 -4.55889 6.76652 0
M  V30 7054 H 1046.5 -2.61715 5.17932 0
M  V30 7055 H 1046.22 -5.52155 4.41878 0
M  V30 7056 H 1045.23 -4.51981 5.53374 0
M  V30 7057 H 1047.06 -6.25124 6.55234 0
M  V30 7058 H 1047.11 -5.34372 2.47488 0
M  V30 7059 H 1046.72 -2.45153 -1.4078 0
M  V30 7060 H 1046.54 -0.688422 -1.59911 0
M  V30 7061 H 1046.43 1.02584 2.52346 0
M  V30 7062 P 1045.19 -4.23843 7.83734 0
M  V30 7063 O 1044.97 -4.19407 9.29784 0
M  V30 7064 O 1044.4 -5.24426 7.09156 0
M  V30 7065 O 1044.94 -2.7935 7.20758 0
M  V30 7066 C 1045.88 -1.72945 7.50224 0
M  V30 7067 C 1045.15 -0.406376 7.57911 0
M  V30 7068 O 1044.94 0.0897726 6.21935 0
M  V30 7069 C 1043.75 -0.438983 8.18724 0
M  V30 7070 O 1043.36 0.825065 8.71101 0
M  V30 7071 C 1042.87 -0.783689 6.99524 0
M  V30 7072 C 1043.58 -0.0619086 5.85867 0
M  V30 7073 N 1043.53 -0.78573 4.56183 0
M  V30 7074 C 1043.38 -0.0292889 3.41887 0
M  V30 7075 O 1043.29 1.18445 3.4419 0
M  V30 7076 N 1043.34 -0.744061 2.23964 0
M  V30 7077 C 1043.43 -2.10932 2.10362 0
M  V30 7078 C 1043.58 -2.8202 3.34994 0
M  V30 7079 C 1043.63 -2.15547 4.52261 0
M  V30 7080 H 1046.37 -1.93379 8.46595 0
M  V30 7081 H 1046.64 -1.68132 6.70852 0
M  V30 7082 H 1045.78 0.289041 8.15388 0
M  V30 7083 H 1043.12 0.926847 5.72749 0
M  V30 7084 H 1042.84 -1.86973 6.82036 0
M  V30 7085 H 1041.85 -0.403896 7.13257 0
M  V30 7086 H 1043.68 -1.20585 8.97435 0
M  V30 7087 H 1043.76 -2.71231 5.45042 0
M  V30 7088 P 1041.81 1.17771 8.83182 0
M  V30 7089 O 1041.59 2.07206 9.98732 0
M  V30 7090 O 1041.02 -0.0743816 8.81969 0
M  V30 7091 O 1041.56 1.97652 7.47304 0
M  V30 7092 C 1042.5 3.01055 7.08599 0
M  V30 7093 C 1041.77 4.12613 6.37049 0
M  V30 7094 O 1041.56 3.72827 4.97879 0
M  V30 7095 C 1040.37 4.45719 6.88164 0
M  V30 7096 O 1039.98 5.7877 6.5624 0
M  V30 7097 C 1039.49 3.47768 6.11991 0
M  V30 7098 C 1040.2 3.39356 4.77615 0
M  V30 7099 N 1040.15 2.04571 4.15244 0
M  V30 7100 C 1040 1.98587 2.78314 0
M  V30 7101 O 1039.91 2.98134 2.08835 0
M  V30 7102 N 1039.96 0.714467 2.24925 0
M  V30 7103 C 1040.05 -0.470001 2.94169 0
M  V30 7104 O 1040 -1.55587 2.35195 0
M  V30 7105 C 1040.2 -0.312541 4.36783 0
M  V30 7106 C 1040.31 -1.57711 5.16352 0
M  V30 7107 C 1040.25 0.914512 4.92583 0
M  V30 7108 H 1042.99 3.41169 7.98575 0
M  V30 7109 H 1043.26 2.58295 6.41556 0
M  V30 7110 H 1042.4 5.02657 6.42673 0
M  V30 7111 H 1039.74 4.11637 4.08885 0
M  V30 7112 H 1039.46 2.49626 6.61679 0
M  V30 7113 H 1038.47 3.86566 6.00778 0
M  V30 7114 H 1040.3 4.29943 7.96918 0
M  V30 7115 H 1040.38 1.00937 6.00374 0
M  V30 7116 H 1039.35 -1.80153 5.63503 0
M  V30 7117 H 1041.08 -1.4566 5.94104 0
M  V30 7118 H 1040.59 -2.40664 4.49645 0
M  V30 7119 H 1039.86 0.647622 1.25697 0
M  V30 7120 P 1038.43 6.144 6.45285 0
M  V30 7121 O 1038.21 7.54673 6.86199 0
M  V30 7122 O 1037.64 5.12391 7.179 0
M  V30 7123 O 1038.18 5.99158 4.88404 0
M  V30 7124 C 1039.12 6.60234 3.96415 0
M  V30 7125 C 1038.39 7.08259 2.72856 0
M  V30 7126 O 1038.18 5.9427 1.83651 0
M  V30 7127 C 1036.99 7.64886 2.9555 0
M  V30 7128 O 1036.6 8.53963 1.90717 0
M  V30 7129 C 1036.11 6.4116 2.90739 0
M  V30 7130 C 1036.82 5.55375 1.86963 0
M  V30 7131 N 1036.77 4.09664 2.15742 0
M  V30 7132 H 1039.61 7.45574 4.45629 0
M  V30 7133 H 1039.88 5.86232 3.67314 0
M  V30 7134 H 1039.02 7.84412 2.24479 0
M  V30 7135 P 1035.05 8.7635 1.60911 0
M  V30 7136 O 1034.83 10.1388 1.11561 0
M  V30 7137 O 1034.26 8.36503 2.79617 0
M  V30 7138 O 1034.8 7.71806 0.42951 0
M  V30 7139 C 1035.74 7.67148 -0.673689 0
M  V30 7140 C 1035.01 7.33374 -1.95559 0
M  V30 7141 O 1034.8 5.88721 -2.00726 0
M  V30 7142 C 1033.61 7.92526 -2.10483 0
M  V30 7143 O 1033.22 8.02971 -3.47653 0
M  V30 7144 C 1032.73 6.89602 -1.41652 0
M  V30 7145 C 1033.44 5.59201 -1.75185 0
M  V30 7146 N 1033.39 4.58235 -0.662552 0
M  V30 7147 H 1036.23 8.65116 -0.777161 0
M  V30 7148 H 1036.5 6.90173 -0.474152 0
M  V30 7149 H 1035.64 7.66548 -2.79458 0
M  V30 7150 P 1031.67 8.03563 -3.84925 0
M  V30 7151 O 1031.45 8.85821 -5.0569 0
M  V30 7152 O 1030.88 8.41101 -2.65469 0
M  V30 7153 O 1031.42 6.49734 -4.18962 0
M  V30 7154 C 1032.36 5.81037 -5.05421 0
M  V30 7155 C 1031.63 4.79018 -5.88876 0
M  V30 7156 O 1031.42 3.58359 -5.08515 0
M  V30 7157 C 1030.23 5.17448 -6.36119 0
M  V30 7158 O 1029.84 4.45322 -7.53318 0
M  V30 7159 C 1029.35 4.74639 -5.19936 0
M  V30 7160 C 1030.06 3.49432 -4.70418 0
M  V30 7161 N 1030.01 3.31776 -3.22945 0
M  V30 7162 C 1029.86 2.02742 -2.72939 0
M  V30 7163 O 1029.77 1.08301 -3.52749 0
M  V30 7164 N 1029.81 1.96117 -1.22063 0
M  V30 7165 C 1029.91 2.8878 -0.551566 0
M  V30 7166 N 1029.86 2.65609 0.750198 0
M  V30 7167 C 1030.06 4.22457 -1.03707 0
M  V30 7168 C 1030.11 4.37979 -2.39113 0
M  V30 7169 H 1032.85 6.54138 -5.7131 0
M  V30 7170 H 1033.12 5.30492 -4.44033 0
M  V30 7171 H 1032.26 4.55945 -6.76735 0
M  V30 7172 H 1029.6 2.6176 -5.18021 0
M  V30 7173 H 1029.32 5.52233 -4.41941 0
M  V30 7174 H 1028.33 4.52045 -5.53452 0
M  V30 7175 H 1030.16 6.25124 -6.55234 0
M  V30 7176 H 1030.24 5.37936 -2.80552 0
M  V30 7177 H 1030.13 5.07528 -0.359553 0
M  V30 7178 H 1029.75 1.69403 1.09847 0
M  V30 7179 H 1029.94 3.43701 1.41792 0
M  V30 7180 P 1028.29 4.23843 -7.83734 0
M  V30 7181 O 1028.07 4.19407 -9.29784 0
M  V30 7182 O 1027.5 5.24426 -7.09156 0
M  V30 7183 O 1028.04 2.7935 -7.20758 0
M  V30 7184 C 1028.98 1.72945 -7.50224 0
M  V30 7185 C 1028.25 0.406376 -7.57911 0
M  V30 7186 O 1028.04 -0.0897726 -6.21935 0
M  V30 7187 C 1026.85 0.438983 -8.18724 0
M  V30 7188 O 1026.46 -0.825065 -8.71101 0
M  V30 7189 C 1025.97 0.783689 -6.99524 0
M  V30 7190 C 1026.68 0.0619086 -5.85867 0
M  V30 7191 N 1026.63 0.78573 -4.56183 0
M  V30 7192 C 1026.48 0.0292889 -3.41887 0
M  V30 7193 O 1026.39 -1.18445 -3.4419 0
M  V30 7194 N 1026.44 0.744061 -2.23964 0
M  V30 7195 C 1026.53 2.10932 -2.10362 0
M  V30 7196 O 1026.48 2.64117 -0.98825 0
M  V30 7197 C 1026.68 2.8202 -3.34994 0
M  V30 7198 C 1026.79 4.31095 -3.25037 0
M  V30 7199 C 1026.73 2.15547 -4.52261 0
M  V30 7200 H 1029.47 1.93379 -8.46595 0
M  V30 7201 H 1029.74 1.68132 -6.70852 0
M  V30 7202 H 1028.88 -0.289041 -8.15388 0
M  V30 7203 H 1026.22 -0.926847 -5.72749 0
M  V30 7204 H 1025.94 1.86973 -6.82036 0
M  V30 7205 H 1024.95 0.403896 -7.13257 0
M  V30 7206 H 1026.78 1.20585 -8.97435 0
M  V30 7207 H 1026.86 2.71231 -5.45042 0
M  V30 7208 H 1025.83 4.76966 -3.49992 0
M  V30 7209 H 1027.56 4.67047 -3.95024 0
M  V30 7210 H 1027.07 4.58996 -2.22312 0
M  V30 7211 H 1026.34 0.214893 -1.39758 0
M  V30 7212 P 1024.91 -1.17771 -8.83182 0
M  V30 7213 O 1024.69 -2.07206 -9.98732 0
M  V30 7214 O 1024.12 0.0743816 -8.81969 0
M  V30 7215 O 1024.66 -1.97652 -7.47304 0
M  V30 7216 C 1025.6 -3.01133 -7.08783 0
M  V30 7217 C 1024.87 -4.12613 -6.37049 0
M  V30 7218 O 1024.66 -3.72827 -4.97879 0
M  V30 7219 C 1023.47 -4.45085 -6.88694 0
M  V30 7220 O 1023.08 -5.7877 -6.5624 0
M  V30 7221 C 1022.59 -3.47817 -6.12078 0
M  V30 7222 C 1023.3 -3.39414 -4.77697 0
M  V30 7223 N 1023.25 -2.04615 -4.15333 0
M  V30 7224 H 1026.09 -3.41248 -7.98759 0
M  V30 7225 H 1026.36 -2.5837 -6.41742 0
M  V30 7226 H 1025.5 -5.02657 -6.42673 0
M  V30 7227 P 1021.53 -6.144 -6.45285 0
M  V30 7228 O 1021.31 -7.54673 -6.86199 0
M  V30 7229 O 1020.74 -5.12391 -7.179 0
M  V30 7230 O 1021.28 -5.99158 -4.88404 0
M  V30 7231 C 1022.22 -6.60234 -3.96415 0
M  V30 7232 C 1021.49 -7.08259 -2.72856 0
M  V30 7233 O 1021.28 -5.9427 -1.83651 0
M  V30 7234 C 1020.09 -7.64886 -2.9555 0
M  V30 7235 O 1019.7 -8.53963 -1.90717 0
M  V30 7236 C 1019.21 -6.4116 -2.90739 0
M  V30 7237 C 1019.92 -5.55375 -1.86963 0
M  V30 7238 N 1019.87 -4.09664 -2.15742 0
M  V30 7239 H 1022.71 -7.45574 -4.45629 0
M  V30 7240 H 1022.98 -5.86232 -3.67314 0
M  V30 7241 H 1022.12 -7.84412 -2.24479 0
M  V30 7242 P 1018.15 -8.7635 -1.60911 0
M  V30 7243 O 1017.93 -10.1388 -1.11561 0
M  V30 7244 O 1017.36 -8.36503 -2.79617 0
M  V30 7245 O 1017.9 -7.71806 -0.42951 0
M  V30 7246 C 1018.84 -7.67148 0.673689 0
M  V30 7247 C 1018.11 -7.33374 1.95559 0
M  V30 7248 O 1017.9 -5.88721 2.00726 0
M  V30 7249 C 1016.71 -7.92526 2.10483 0
M  V30 7250 O 1016.32 -8.02971 3.47653 0
M  V30 7251 C 1015.83 -6.89602 1.41652 0
M  V30 7252 C 1016.54 -5.59201 1.75185 0
M  V30 7253 N 1016.49 -4.58235 0.662552 0
M  V30 7254 H 1019.33 -8.65116 0.777161 0
M  V30 7255 H 1019.61 -6.90173 0.474152 0
M  V30 7256 H 1018.74 -7.66548 2.79458 0
M  V30 7257 P 1014.77 -8.03563 3.84925 0
M  V30 7258 O 1014.55 -8.85821 5.0569 0
M  V30 7259 O 1013.98 -8.41101 2.65469 0
M  V30 7260 O 1014.52 -6.4965 4.18908 0
M  V30 7261 C 1015.46 -5.81037 5.05421 0
M  V30 7262 C 1014.73 -4.78366 5.89277 0
M  V30 7263 O 1014.52 -3.58302 5.08433 0
M  V30 7264 C 1013.33 -5.17448 6.36119 0
M  V30 7265 O 1012.94 -4.45271 7.53232 0
M  V30 7266 C 1012.45 -4.74639 5.19936 0
M  V30 7267 C 1013.16 -3.49432 4.70418 0
M  V30 7268 N 1013.11 -3.31776 3.22945 0
M  V30 7269 C 1013.19 -4.27147 2.23315 0
M  V30 7270 N 1013.11 -3.78447 1.02186 0
M  V30 7271 C 1012.97 -2.41001 1.21732 0
M  V30 7272 C 1012.84 -1.36111 0.27694 0
M  V30 7273 N 1012.72 -0.113683 0.912949 0
M  V30 7274 C 1012.72 0.0846396 2.27943 0
M  V30 7275 N 1012.59 1.34737 2.6916 0
M  V30 7276 N 1012.85 -0.902521 3.16379 0
M  V30 7277 C 1012.97 -2.11937 2.56849 0
M  V30 7278 H 1015.95 -6.54213 5.71376 0
M  V30 7279 H 1016.23 -5.30492 4.44033 0
M  V30 7280 H 1015.36 -4.55889 6.76652 0
M  V30 7281 P 1011.39 -4.23843 7.83734 0
M  V30 7282 O 1011.17 -4.19407 9.29784 0
M  V30 7283 O 1010.6 -5.24426 7.09156 0
M  V30 7284 O 1011.14 -2.7935 7.20758 0
M  V30 7285 C 1012.08 -1.7299 7.50419 0
M  V30 7286 C 1011.35 -0.406376 7.57911 0
M  V30 7287 O 1011.14 0.0897726 6.21935 0
M  V30 7288 C 1009.95 -0.447224 8.1878 0
M  V30 7289 O 1009.56 0.825065 8.71101 0
M  V30 7290 C 1009.07 -0.783801 6.99623 0
M  V30 7291 C 1009.78 -0.0619192 5.85967 0
M  V30 7292 N 1009.73 -0.7859 4.56281 0
M  V30 7293 H 1012.57 -1.93423 8.4679 0
M  V30 7294 H 1012.85 -1.68181 6.71046 0
M  V30 7295 H 1011.98 0.289041 8.15388 0
M  V30 7296 P 1008.01 1.17771 8.83182 0
M  V30 7297 O 1007.79 2.07206 9.98732 0
M  V30 7298 O 1007.22 -0.0743816 8.81969 0
M  V30 7299 O 1007.76 1.97652 7.47304 0
M  V30 7300 C 1008.7 3.01133 7.08783 0
M  V30 7301 C 1007.97 4.12613 6.37049 0
M  V30 7302 O 1007.76 3.72827 4.97879 0
M  V30 7303 C 1006.57 4.45085 6.88694 0
M  V30 7304 O 1006.18 5.7877 6.5624 0
M  V30 7305 C 1005.69 3.47817 6.12078 0
M  V30 7306 C 1006.4 3.39414 4.77697 0
M  V30 7307 N 1006.35 2.04615 4.15333 0
M  V30 7308 H 1009.19 3.41248 7.98759 0
M  V30 7309 H 1009.47 2.5837 6.41742 0
M  V30 7310 H 1008.6 5.02657 6.42673 0
M  V30 7311 P 1004.63 6.144 6.45285 0
M  V30 7312 O 1004.41 7.54673 6.86199 0
M  V30 7313 O 1003.84 5.12391 7.179 0
M  V30 7314 O 1004.38 5.99158 4.88404 0
M  V30 7315 C 1005.32 6.60234 3.96415 0
M  V30 7316 C 1004.59 7.08259 2.72856 0
M  V30 7317 O 1004.38 5.9427 1.83651 0
M  V30 7318 C 1003.19 7.64886 2.9555 0
M  V30 7319 O 1002.8 8.53963 1.90717 0
M  V30 7320 C 1002.31 6.4116 2.90739 0
M  V30 7321 C 1003.02 5.55375 1.86963 0
M  V30 7322 N 1002.97 4.09664 2.15742 0
M  V30 7323 C 1003.05 3.44381 3.37233 0
M  V30 7324 N 1002.97 2.14131 3.28347 0
M  V30 7325 C 1002.83 1.90247 1.91588 0
M  V30 7326 C 1002.7 0.683992 1.20892 0
M  V30 7327 N 1002.58 0.903396 -0.173998 0
M  V30 7328 C 1002.58 2.14171 -0.784879 0
M  V30 7329 N 1002.45 2.1435 -2.11317 0
M  V30 7330 N 1002.71 3.28784 -0.119316 0
M  V30 7331 C 1002.83 3.0977 1.22194 0
M  V30 7332 H 1005.81 7.45574 4.45629 0
M  V30 7333 H 1006.09 5.86232 3.67314 0
M  V30 7334 H 1005.22 7.84412 2.24479 0
M  V30 7335 P 1001.25 8.7635 1.60911 0
M  V30 7336 O 1001.03 10.1388 1.11561 0
M  V30 7337 O 1000.46 8.36503 2.79617 0
M  V30 7338 O 1001 7.71806 0.42951 0
M  V30 7339 C 1001.94 7.67148 -0.673689 0
M  V30 7340 C 1001.21 7.33374 -1.95559 0
M  V30 7341 O 1001 5.88721 -2.00726 0
M  V30 7342 C 999.814 7.92526 -2.10483 0
M  V30 7343 O 999.424 8.02971 -3.47653 0
M  V30 7344 C 998.934 6.89602 -1.41652 0
M  V30 7345 C 999.644 5.59201 -1.75185 0
M  V30 7346 N 999.594 4.58235 -0.662552 0
M  V30 7347 H 1002.43 8.65116 -0.777161 0
M  V30 7348 H 1002.71 6.90173 -0.474152 0
M  V30 7349 H 1001.84 7.66548 -2.79458 0
M  V30 7350 P 997.874 8.03563 -3.84925 0
M  V30 7351 O 997.654 8.85821 -5.0569 0
M  V30 7352 O 997.084 8.41101 -2.65469 0
M  V30 7353 O 997.624 6.4965 -4.18908 0
M  V30 7354 C 998.564 5.81037 -5.05421 0
M  V30 7355 C 997.834 4.78366 -5.89277 0
M  V30 7356 O 997.624 3.58302 -5.08433 0
M  V30 7357 C 996.434 5.17448 -6.36119 0
M  V30 7358 O 996.044 4.45271 -7.53232 0
M  V30 7359 C 995.554 4.74639 -5.19936 0
M  V30 7360 C 996.264 3.49432 -4.70418 0
M  V30 7361 N 996.214 3.31776 -3.22945 0
M  V30 7362 H 999.053 6.54213 -5.71376 0
M  V30 7363 H 999.325 5.30492 -4.44033 0
M  V30 7364 H 998.457 4.55889 -6.76652 0
M  V30 7365 P 994.494 4.23843 -7.83734 0
M  V30 7366 O 994.274 4.19407 -9.29784 0
M  V30 7367 O 993.704 5.24426 -7.09156 0
M  V30 7368 O 994.244 2.7935 -7.20758 0
M  V30 7369 C 995.184 1.7299 -7.50419 0
M  V30 7370 C 994.454 0.406376 -7.57911 0
M  V30 7371 O 994.244 -0.0897726 -6.21935 0
M  V30 7372 C 993.054 0.447224 -8.1878 0
M  V30 7373 O 992.664 -0.825065 -8.71101 0
M  V30 7374 C 992.174 0.783801 -6.99623 0
M  V30 7375 C 992.884 0.0619192 -5.85967 0
M  V30 7376 N 992.834 0.790462 -4.56202 0
M  V30 7377 H 995.673 1.93423 -8.4679 0
M  V30 7378 H 995.945 1.68852 -6.70877 0
M  V30 7379 H 995.077 -0.289041 -8.15388 0
M  V30 7380 H 992.422 -0.927006 -5.72848 0
M  V30 7381 H 992.142 1.86973 -6.82036 0
M  V30 7382 H 991.151 0.403953 -7.13357 0
M  V30 7383 H 992.985 1.20599 -8.97534 0
M  V30 7384 P 991.114 -1.17771 -8.83182 0
M  V30 7385 O 990.894 -2.07206 -9.98732 0
M  V30 7386 O 990.324 0.0743816 -8.81969 0
M  V30 7387 O 990.864 -1.97652 -7.47304 0
M  V30 7388 C 991.804 -3.01133 -7.08783 0
M  V30 7389 C 991.074 -4.12613 -6.37049 0
M  V30 7390 O 990.864 -3.72827 -4.97879 0
M  V30 7391 C 989.674 -4.45085 -6.88694 0
M  V30 7392 O 989.284 -5.7877 -6.5624 0
M  V30 7393 C 988.794 -3.47817 -6.12078 0
M  V30 7394 C 989.504 -3.39414 -4.77697 0
M  V30 7395 N 989.454 -2.04615 -4.15333 0
M  V30 7396 H 992.293 -3.41248 -7.98759 0
M  V30 7397 H 992.565 -2.5837 -6.41742 0
M  V30 7398 H 991.697 -5.02657 -6.42673 0
M  V30 7399 P 987.734 -6.144 -6.45285 0
M  V30 7400 O 987.514 -7.54673 -6.86199 0
M  V30 7401 O 986.944 -5.12391 -7.179 0
M  V30 7402 O 987.484 -5.99158 -4.88404 0
M  V30 7403 C 988.424 -6.60234 -3.96415 0
M  V30 7404 C 987.694 -7.08259 -2.72856 0
M  V30 7405 O 987.484 -5.9427 -1.83651 0
M  V30 7406 C 986.294 -7.64886 -2.9555 0
M  V30 7407 O 985.904 -8.53963 -1.90717 0
M  V30 7408 C 985.414 -6.4116 -2.90739 0
M  V30 7409 C 986.124 -5.55375 -1.86963 0
M  V30 7410 N 986.074 -4.09448 -2.16152 0
M  V30 7411 C 986.154 -3.46824 -3.37593 0
M  V30 7412 N 986.084 -2.17422 -3.29777 0
M  V30 7413 C 985.934 -1.93065 -1.94427 0
M  V30 7414 C 985.804 -0.738053 -1.20141 0
M  V30 7415 N 985.794 0.474256 -1.74676 0
M  V30 7416 N 985.684 -0.850049 0.13045 0
M  V30 7417 C 985.694 -2.06169 0.676992 0
M  V30 7418 N 985.814 -3.23842 0.101312 0
M  V30 7419 C 985.934 -3.09402 -1.23122 0
M  V30 7420 H 988.913 -7.45574 -4.45629 0
M  V30 7421 H 989.185 -5.85864 -3.679 0
M  V30 7422 H 988.317 -7.84412 -2.24479 0
M  V30 7423 H 985.662 -5.73457 -0.888562 0
M  V30 7424 H 985.382 -5.90877 -3.88583 0
M  V30 7425 H 984.391 -6.6596 -2.58858 0
M  V30 7426 H 986.225 -8.16339 -3.92049 0
M  V30 7427 H 986.266 -4.00505 -4.3174 0
M  V30 7428 H 985.885 0.581337 -2.76658 0
M  V30 7429 H 985.696 1.30811 -1.14888 0
M  V30 7430 H 985.588 -2.08295 1.75542 0
M  V30 7431 P 984.354 -8.7635 -1.60911 0
M  V30 7432 O 984.134 -10.1388 -1.11561 0
M  V30 7433 O 983.564 -8.36503 -2.79617 0
M  V30 7434 O 984.104 -7.71806 -0.42951 0
M  V30 7435 C 985.044 -7.67148 0.673689 0
M  V30 7436 C 984.314 -7.33374 1.95559 0
M  V30 7437 O 984.104 -5.88721 2.00726 0
M  V30 7438 C 982.914 -7.92526 2.10483 0
M  V30 7439 O 982.524 -8.02971 3.47653 0
M  V30 7440 C 982.034 -6.89602 1.41652 0
M  V30 7441 C 982.744 -5.59201 1.75185 0
M  V30 7442 N 982.694 -4.58301 0.657969 0
M  V30 7443 H 985.533 -8.65116 0.777161 0
M  V30 7444 H 985.805 -6.9022 0.46725 0
M  V30 7445 H 984.937 -7.66548 2.79458 0
M  V30 7446 H 982.282 -5.16165 2.65183 0
M  V30 7447 H 982.002 -7.06433 0.329384 0
M  V30 7448 H 981.011 -6.90926 1.82021 0
M  V30 7449 H 982.845 -8.90873 1.62657 0
M  V30 7450 P 980.974 -8.03563 3.84925 0
M  V30 7451 O 980.754 -8.85821 5.0569 0
M  V30 7452 O 980.184 -8.41101 2.65469 0
M  V30 7453 O 980.724 -6.4965 4.18908 0
M  V30 7454 C 981.664 -5.80886 5.05289 0
M  V30 7455 C 980.934 -4.78366 5.89277 0
M  V30 7456 O 980.724 -3.58302 5.08433 0
M  V30 7457 C 979.534 -5.16748 6.36559 0
M  V30 7458 O 979.144 -4.45271 7.53232 0
M  V30 7459 C 978.654 -4.74572 5.19863 0
M  V30 7460 C 979.364 -3.49373 4.70338 0
M  V30 7461 N 979.314 -3.31704 3.22876 0
M  V30 7462 C 979.164 -2.03326 2.74871 0
M  V30 7463 O 979.074 -1.06486 3.48076 0
M  V30 7464 N 979.124 -1.91838 1.37456 0
M  V30 7465 C 979.214 -2.94295 0.462035 0
M  V30 7466 O 979.164 -2.71763 -0.752928 0
M  V30 7467 C 979.364 -4.25064 1.05249 0
M  V30 7468 C 979.474 -5.39815 0.095697 0
M  V30 7469 C 979.414 -4.40214 2.39192 0
M  V30 7470 H 982.155 -6.54063 5.71245 0
M  V30 7471 H 982.424 -5.30339 4.43905 0
M  V30 7472 H 981.557 -4.55889 6.76652 0
M  V30 7473 H 978.902 -2.6167 5.17842 0
M  V30 7474 H 978.623 -5.52155 4.41878 0
M  V30 7475 H 977.631 -4.51918 5.53297 0
M  V30 7476 H 979.465 -6.25055 6.55162 0
M  V30 7477 H 979.536 -5.39798 2.81523 0
M  V30 7478 H 978.506 -5.91593 0.0279582 0
M  V30 7479 H 980.243 -6.10038 0.450573 0
M  V30 7480 H 979.755 -5.02007 -0.89937 0
M  V30 7481 H 979.019 -0.995326 1.00435 0
M  V30 7482 P 977.594 -4.23843 7.83734 0
M  V30 7483 O 977.374 -4.19407 9.29784 0
M  V30 7484 O 976.804 -5.24426 7.09156 0
M  V30 7485 O 977.344 -2.7935 7.20758 0
M  V30 7486 C 978.284 -1.7299 7.50419 0
M  V30 7487 C 977.554 -0.406376 7.57911 0
M  V30 7488 O 977.344 0.0897726 6.21935 0
M  V30 7489 C 976.154 -0.447224 8.1878 0
M  V30 7490 O 975.764 0.825065 8.71101 0
M  V30 7491 C 975.274 -0.783801 6.99623 0
M  V30 7492 C 975.984 -0.0619192 5.85967 0
M  V30 7493 N 975.934 -0.7859 4.56281 0
M  V30 7494 H 978.773 -1.93423 8.4679 0
M  V30 7495 H 979.045 -1.68181 6.71046 0
M  V30 7496 H 978.177 0.289041 8.15388 0
M  V30 7497 P 974.214 1.17771 8.83182 0
M  V30 7498 O 973.994 2.07206 9.98732 0
M  V30 7499 O 973.424 -0.0743816 8.81969 0
M  V30 7500 O 973.964 1.97652 7.47304 0
M  V30 7501 C 974.904 3.01133 7.08783 0
M  V30 7502 C 974.174 4.12613 6.37049 0
M  V30 7503 O 973.964 3.72827 4.97879 0
M  V30 7504 C 972.774 4.45085 6.88694 0
M  V30 7505 O 972.384 5.7877 6.5624 0
M  V30 7506 C 971.894 3.47817 6.12078 0
M  V30 7507 C 972.604 3.39414 4.77697 0
M  V30 7508 N 972.554 2.04615 4.15333 0
M  V30 7509 H 975.393 3.41248 7.98759 0
M  V30 7510 H 975.665 2.5837 6.41742 0
M  V30 7511 H 974.797 5.02657 6.42673 0
M  V30 7512 P 970.834 6.144 6.45285 0
M  V30 7513 O 970.614 7.54673 6.86199 0
M  V30 7514 O 970.044 5.12391 7.179 0
M  V30 7515 O 970.584 5.99236 4.88467 0
M  V30 7516 C 971.524 6.60234 3.96415 0
M  V30 7517 C 970.794 7.08079 2.736 0
M  V30 7518 O 970.584 5.94365 1.8368 0
M  V30 7519 C 969.394 7.64886 2.9555 0
M  V30 7520 O 969.004 8.5406 1.90739 0
M  V30 7521 C 968.514 6.4116 2.90739 0
M  V30 7522 C 969.224 5.55375 1.86963 0
M  V30 7523 N 969.174 4.09664 2.15742 0
M  V30 7524 C 969.024 3.22231 1.08477 0
M  V30 7525 O 968.934 3.68951 -0.0600489 0
M  V30 7526 N 968.974 1.76692 1.48799 0
M  V30 7527 C 969.074 1.41695 2.57602 0
M  V30 7528 N 969.024 0.107296 2.75791 0
M  V30 7529 C 969.224 2.29178 3.69733 0
M  V30 7530 C 969.274 3.62753 3.42653 0
M  V30 7531 H 972.014 7.45488 4.45578 0
M  V30 7532 H 972.284 5.86232 3.67314 0
M  V30 7533 H 971.417 7.84508 2.24507 0
M  V30 7534 H 968.762 5.73556 0.888715 0
M  V30 7535 H 968.482 5.9096 3.88638 0
M  V30 7536 H 967.491 6.66053 2.58894 0
M  V30 7537 H 969.325 8.16339 3.92049 0
M  V30 7538 H 969.397 4.33052 4.24913 0
M  V30 7539 H 969.295 1.9103 4.71577 0
M  V30 7540 H 968.907 -0.521221 1.95056 0
M  V30 7541 H 969.103 -0.286429 3.70695 0
M  V30 7542 P 967.454 8.7635 1.60911 0
M  V30 7543 O 967.234 10.1388 1.11561 0
M  V30 7544 O 966.664 8.36503 2.79617 0
M  V30 7545 O 967.204 7.71806 0.42951 0
M  V30 7546 C 968.144 7.67148 -0.673689 0
M  V30 7547 C 967.414 7.33374 -1.95559 0
M  V30 7548 O 967.204 5.88721 -2.00726 0
M  V30 7549 C 966.014 7.92526 -2.10483 0
M  V30 7550 O 965.624 8.02971 -3.47653 0
M  V30 7551 C 965.134 6.89602 -1.41652 0
M  V30 7552 C 965.844 5.59201 -1.75185 0
M  V30 7553 N 965.794 4.58235 -0.662552 0
M  V30 7554 H 968.633 8.65116 -0.777161 0
M  V30 7555 H 968.905 6.90173 -0.474152 0
M  V30 7556 H 968.037 7.66548 -2.79458 0
M  V30 7557 P 964.074 8.03563 -3.84925 0
M  V30 7558 O 963.854 8.85821 -5.0569 0
M  V30 7559 O 963.284 8.41101 -2.65469 0
M  V30 7560 O 963.824 6.4965 -4.18908 0
M  V30 7561 C 964.764 5.81037 -5.05421 0
M  V30 7562 C 964.034 4.78366 -5.89277 0
M  V30 7563 O 963.824 3.58302 -5.08433 0
M  V30 7564 C 962.634 5.17448 -6.36119 0
M  V30 7565 O 962.244 4.45271 -7.53232 0
M  V30 7566 C 961.754 4.74639 -5.19936 0
M  V30 7567 C 962.464 3.49432 -4.70418 0
M  V30 7568 N 962.414 3.32099 -3.22613 0
M  V30 7569 H 965.253 6.54213 -5.71376 0
M  V30 7570 H 965.525 5.30936 -4.43503 0
M  V30 7571 H 964.657 4.55889 -6.76652 0
M  V30 7572 H 962.002 2.61715 -5.17932 0
M  V30 7573 H 961.722 5.52155 -4.41878 0
M  V30 7574 H 960.731 4.51981 -5.53374 0
M  V30 7575 H 962.565 6.25124 -6.55234 0
M  V30 7576 P 960.694 4.23843 -7.83734 0
M  V30 7577 O 960.474 4.19407 -9.29784 0
M  V30 7578 O 959.904 5.24426 -7.09156 0
M  V30 7579 O 960.444 2.7935 -7.20758 0
M  V30 7580 C 961.384 1.72945 -7.50224 0
M  V30 7581 C 960.654 0.406376 -7.57911 0
M  V30 7582 O 960.444 -0.0897726 -6.21935 0
M  V30 7583 C 959.254 0.438983 -8.18724 0
M  V30 7584 O 958.864 -0.825065 -8.71101 0
M  V30 7585 C 958.374 0.783689 -6.99524 0
M  V30 7586 C 959.084 0.0619086 -5.85867 0
M  V30 7587 N 959.034 0.78573 -4.56183 0
M  V30 7588 C 958.884 0.0292889 -3.41887 0
M  V30 7589 O 958.794 -1.18445 -3.4419 0
M  V30 7590 N 958.844 0.744061 -2.23964 0
M  V30 7591 C 958.934 2.10932 -2.10362 0
M  V30 7592 O 958.884 2.64117 -0.98825 0
M  V30 7593 C 959.084 2.8202 -3.34994 0
M  V30 7594 C 959.194 4.31095 -3.25037 0
M  V30 7595 C 959.134 2.15547 -4.52261 0
M  V30 7596 H 961.875 1.93379 -8.46595 0
M  V30 7597 H 962.144 1.68132 -6.70852 0
M  V30 7598 H 961.277 -0.289041 -8.15388 0
M  V30 7599 H 958.622 -0.926847 -5.72749 0
M  V30 7600 H 958.343 1.86973 -6.82036 0
M  V30 7601 H 957.351 0.403896 -7.13257 0
M  V30 7602 H 959.185 1.20585 -8.97435 0
M  V30 7603 H 959.256 2.71231 -5.45042 0
M  V30 7604 H 958.226 4.76966 -3.49992 0
M  V30 7605 H 959.963 4.67047 -3.95024 0
M  V30 7606 H 959.475 4.58996 -2.22312 0
M  V30 7607 H 958.739 0.214893 -1.39758 0
M  V30 7608 P 957.314 -1.17771 -8.83182 0
M  V30 7609 O 957.094 -2.07206 -9.98732 0
M  V30 7610 O 956.524 0.0743816 -8.81969 0
M  V30 7611 O 957.064 -1.97652 -7.47304 0
M  V30 7612 C 958.004 -3.01055 -7.08599 0
M  V30 7613 C 957.274 -4.12613 -6.37049 0
M  V30 7614 O 957.064 -3.72827 -4.97879 0
M  V30 7615 C 955.874 -4.45719 -6.88164 0
M  V30 7616 O 955.484 -5.7877 -6.5624 0
M  V30 7617 C 954.994 -3.47768 -6.11991 0
M  V30 7618 C 955.704 -3.39356 -4.77615 0
M  V30 7619 N 955.654 -2.04571 -4.15244 0
M  V30 7620 C 955.504 -1.98587 -2.78314 0
M  V30 7621 O 955.414 -2.98134 -2.08835 0
M  V30 7622 N 955.464 -0.714467 -2.24925 0
M  V30 7623 C 955.554 0.470001 -2.94169 0
M  V30 7624 O 955.504 1.55587 -2.35195 0
M  V30 7625 C 955.704 0.312541 -4.36783 0
M  V30 7626 C 955.814 1.57711 -5.16352 0
M  V30 7627 C 955.754 -0.914512 -4.92583 0
M  V30 7628 H 958.495 -3.41169 -7.98575 0
M  V30 7629 H 958.764 -2.58295 -6.41556 0
M  V30 7630 H 957.897 -5.02657 -6.42673 0
M  V30 7631 H 955.242 -4.11637 -4.08885 0
M  V30 7632 H 954.963 -2.49626 -6.61679 0
M  V30 7633 H 953.971 -3.86566 -6.00778 0
M  V30 7634 H 955.805 -4.29943 -7.96918 0
M  V30 7635 H 955.876 -1.00937 -6.00374 0
M  V30 7636 H 954.846 1.80153 -5.63503 0
M  V30 7637 H 956.583 1.4566 -5.94104 0
M  V30 7638 H 956.095 2.40664 -4.49645 0
M  V30 7639 H 955.359 -0.647622 -1.25697 0
M  V30 7640 P 953.934 -6.144 -6.45285 0
M  V30 7641 O 953.714 -7.54673 -6.86199 0
M  V30 7642 O 953.144 -5.12391 -7.179 0
M  V30 7643 O 953.684 -5.99158 -4.88404 0
M  V30 7644 C 954.624 -6.60234 -3.96415 0
M  V30 7645 C 953.894 -7.08259 -2.72856 0
M  V30 7646 O 953.684 -5.9427 -1.83651 0
M  V30 7647 C 952.494 -7.64886 -2.9555 0
M  V30 7648 O 952.104 -8.53963 -1.90717 0
M  V30 7649 C 951.614 -6.4116 -2.90739 0
M  V30 7650 C 952.324 -5.55375 -1.86963 0
M  V30 7651 N 952.274 -4.09664 -2.15742 0
M  V30 7652 H 955.113 -7.45574 -4.45629 0
M  V30 7653 H 955.385 -5.86232 -3.67314 0
M  V30 7654 H 954.517 -7.84412 -2.24479 0
M  V30 7655 P 950.554 -8.7635 -1.60911 0
M  V30 7656 O 950.334 -10.1388 -1.11561 0
M  V30 7657 O 949.764 -8.36503 -2.79617 0
M  V30 7658 O 950.304 -7.71806 -0.42951 0
M  V30 7659 C 951.244 -7.66948 0.673514 0
M  V30 7660 C 950.514 -7.33374 1.95559 0
M  V30 7661 O 950.304 -5.88721 2.00726 0
M  V30 7662 C 949.114 -7.92218 2.1125 0
M  V30 7663 O 948.724 -8.02971 3.47653 0
M  V30 7664 C 948.234 -6.89504 1.41631 0
M  V30 7665 C 948.944 -5.59106 1.75155 0
M  V30 7666 N 948.894 -4.58136 0.662409 0
M  V30 7667 C 948.744 -3.26059 1.02863 0
M  V30 7668 O 948.654 -2.90743 2.19009 0
M  V30 7669 N 948.704 -2.35995 -0.0155585 0
M  V30 7670 C 948.794 -2.65248 -1.35603 0
M  V30 7671 O 948.744 -1.75605 -2.20651 0
M  V30 7672 C 948.944 -4.05747 -1.64698 0
M  V30 7673 C 949.054 -4.42345 -3.09553 0
M  V30 7674 C 948.994 -4.96734 -0.652411 0
M  V30 7675 H 951.735 -8.64917 0.776982 0
M  V30 7676 H 952.004 -6.89974 0.474015 0
M  V30 7677 H 951.137 -7.66548 2.79458 0
M  V30 7678 H 948.482 -5.16076 2.65138 0
M  V30 7679 H 948.203 -7.06433 0.329384 0
M  V30 7680 H 947.211 -6.90829 1.81996 0
M  V30 7681 H 949.045 -8.90774 1.62639 0
M  V30 7682 H 949.116 -6.02181 -0.895285 0
M  V30 7683 H 948.086 -4.80252 -3.45468 0
M  V30 7684 H 949.823 -5.20015 -3.22119 0
M  V30 7685 H 949.335 -3.53269 -3.67833 0
M  V30 7686 H 948.599 -1.39558 0.227499 0
M  V30 7687 P 947.174 -8.03563 3.84925 0
M  V30 7688 O 946.954 -8.85821 5.0569 0
M  V30 7689 O 946.384 -8.41101 2.65469 0
M  V30 7690 O 946.924 -6.4965 4.18908 0
M  V30 7691 C 947.864 -5.81037 5.05421 0
M  V30 7692 C 947.134 -4.78366 5.89277 0
M  V30 7693 O 946.924 -3.58302 5.08433 0
M  V30 7694 C 945.734 -5.17448 6.36119 0
M  V30 7695 O 945.344 -4.45271 7.53232 0
M  V30 7696 C 944.854 -4.74639 5.19936 0
M  V30 7697 C 945.564 -3.49432 4.70418 0
M  V30 7698 N 945.514 -3.31776 3.22945 0
M  V30 7699 H 948.353 -6.54213 5.71376 0
M  V30 7700 H 948.625 -5.30492 4.44033 0
M  V30 7701 H 947.757 -4.55889 6.76652 0
M  V30 7702 P 943.794 -4.23843 7.83734 0
M  V30 7703 O 943.574 -4.19407 9.29784 0
M  V30 7704 O 943.004 -5.24426 7.09156 0
M  V30 7705 O 943.544 -2.7935 7.20758 0
M  V30 7706 C 944.484 -1.7299 7.50419 0
M  V30 7707 C 943.754 -0.406376 7.57911 0
M  V30 7708 O 943.544 0.0897726 6.21935 0
M  V30 7709 C 942.354 -0.447224 8.1878 0
M  V30 7710 O 941.964 0.825065 8.71101 0
M  V30 7711 C 941.474 -0.783801 6.99623 0
M  V30 7712 C 942.184 -0.0619192 5.85967 0
M  V30 7713 N 942.134 -0.7859 4.56281 0
M  V30 7714 H 944.973 -1.93423 8.4679 0
M  V30 7715 H 945.245 -1.68181 6.71046 0
M  V30 7716 H 944.377 0.289041 8.15388 0
M  V30 7717 P 940.414 1.17771 8.83182 0
M  V30 7718 O 940.194 2.07206 9.98732 0
M  V30 7719 O 939.624 -0.0743816 8.81969 0
M  V30 7720 O 940.164 1.97678 7.474 0
M  V30 7721 C 941.104 3.01133 7.08783 0
M  V30 7722 C 940.374 4.1203 6.37546 0
M  V30 7723 O 940.164 3.72887 4.9796 0
M  V30 7724 C 938.974 4.45085 6.88694 0
M  V30 7725 O 938.584 5.78836 6.56315 0
M  V30 7726 C 938.094 3.47817 6.12078 0
M  V30 7727 C 938.804 3.39414 4.77697 0
M  V30 7728 N 938.754 2.04615 4.15333 0
M  V30 7729 C 938.604 1.96929 2.77162 0
M  V30 7730 O 938.514 3.02017 2.12006 0
M  V30 7731 N 938.554 0.55485 2.24237 0
M  V30 7732 C 938.654 -0.367808 2.9169 0
M  V30 7733 N 938.604 -1.53426 2.29427 0
M  V30 7734 C 938.804 -0.319148 4.33828 0
M  V30 7735 C 938.854 0.920672 4.90433 0
M  V30 7736 H 941.594 3.41209 7.98667 0
M  V30 7737 H 941.864 2.5837 6.41742 0
M  V30 7738 H 940.997 5.02718 6.42752 0
M  V30 7739 H 938.342 4.11779 4.09026 0
M  V30 7740 H 938.062 2.49661 6.61772 0
M  V30 7741 H 937.071 3.86674 6.00946 0
M  V30 7742 H 938.905 4.29991 7.97006 0
M  V30 7743 H 938.977 1.00589 5.98303 0
M  V30 7744 H 938.875 -1.22639 4.93799 0
M  V30 7745 H 938.487 -1.56819 1.27167 0
M  V30 7746 H 938.683 -2.41062 2.83063 0
M  V30 7747 P 937.034 6.144 6.45285 0
M  V30 7748 O 936.814 7.54673 6.86199 0
M  V30 7749 O 936.244 5.12391 7.179 0
M  V30 7750 O 936.784 5.99158 4.88404 0
M  V30 7751 C 937.724 6.60234 3.96415 0
M  V30 7752 C 936.994 7.08259 2.72856 0
M  V30 7753 O 936.784 5.9427 1.83651 0
M  V30 7754 C 935.594 7.64886 2.9555 0
M  V30 7755 O 935.204 8.53963 1.90717 0
M  V30 7756 C 934.714 6.4116 2.90739 0
M  V30 7757 C 935.424 5.55375 1.86963 0
M  V30 7758 N 935.374 4.09664 2.15742 0
M  V30 7759 H 938.213 7.45574 4.45629 0
M  V30 7760 H 938.485 5.86232 3.67314 0
M  V30 7761 H 937.617 7.84412 2.24479 0
M  V30 7762 P 933.655 8.7635 1.60911 0
M  V30 7763 O 933.435 10.1388 1.11561 0
M  V30 7764 O 932.865 8.36503 2.79617 0
M  V30 7765 O 933.405 7.71806 0.42951 0
M  V30 7766 C 934.345 7.67148 -0.673689 0
M  V30 7767 C 933.615 7.33374 -1.95559 0
M  V30 7768 O 933.405 5.88721 -2.00726 0
M  V30 7769 C 932.215 7.92526 -2.10483 0
M  V30 7770 O 931.825 8.02971 -3.47653 0
M  V30 7771 C 931.335 6.89602 -1.41652 0
M  V30 7772 C 932.045 5.59201 -1.75185 0
M  V30 7773 N 931.995 4.58235 -0.662552 0
M  V30 7774 H 934.834 8.65116 -0.777161 0
M  V30 7775 H 935.106 6.90173 -0.474152 0
M  V30 7776 H 934.238 7.66548 -2.79458 0
M  V30 7777 P 930.275 8.03563 -3.84925 0
M  V30 7778 O 930.055 8.85821 -5.0569 0
M  V30 7779 O 929.485 8.41101 -2.65469 0
M  V30 7780 O 930.025 6.49734 -4.18962 0
M  V30 7781 C 930.965 5.81037 -5.05421 0
M  V30 7782 C 930.235 4.79018 -5.88876 0
M  V30 7783 O 930.025 3.58359 -5.08515 0
M  V30 7784 C 928.835 5.17448 -6.36119 0
M  V30 7785 O 928.445 4.45322 -7.53318 0
M  V30 7786 C 927.955 4.74639 -5.19936 0
M  V30 7787 C 928.665 3.49432 -4.70418 0
M  V30 7788 N 928.615 3.31776 -3.22945 0
M  V30 7789 C 928.465 2.02742 -2.72939 0
M  V30 7790 O 928.375 1.08301 -3.52749 0
M  V30 7791 N 928.415 1.96117 -1.22063 0
M  V30 7792 C 928.515 2.8878 -0.551566 0
M  V30 7793 N 928.465 2.65609 0.750198 0
M  V30 7794 C 928.665 4.22457 -1.03707 0
M  V30 7795 C 928.715 4.37979 -2.39113 0
M  V30 7796 H 931.455 6.54138 -5.7131 0
M  V30 7797 H 931.725 5.30492 -4.44033 0
M  V30 7798 H 930.858 4.55945 -6.76735 0
M  V30 7799 H 928.203 2.6176 -5.18021 0
M  V30 7800 H 927.923 5.52233 -4.41941 0
M  V30 7801 H 926.932 4.52045 -5.53452 0
M  V30 7802 H 928.766 6.25124 -6.55234 0
M  V30 7803 H 928.838 5.37936 -2.80552 0
M  V30 7804 H 928.736 5.07528 -0.359553 0
M  V30 7805 H 928.348 1.69403 1.09847 0
M  V30 7806 H 928.544 3.43701 1.41792 0
M  V30 7807 P 926.895 4.23843 -7.83734 0
M  V30 7808 O 926.675 4.19407 -9.29784 0
M  V30 7809 O 926.105 5.24426 -7.09156 0
M  V30 7810 O 926.645 2.79386 -7.20852 0
M  V30 7811 C 927.585 1.7299 -7.50419 0
M  V30 7812 C 926.855 0.41401 -7.5797 0
M  V30 7813 O 926.645 -0.089787 -6.22035 0
M  V30 7814 C 925.455 0.447224 -8.1878 0
M  V30 7815 O 925.065 -0.825159 -8.71201 0
M  V30 7816 C 924.575 0.783801 -6.99623 0
M  V30 7817 C 925.285 0.0619192 -5.85967 0
M  V30 7818 N 925.235 0.7859 -4.56281 0
M  V30 7819 C 925.085 0.0359258 -3.39981 0
M  V30 7820 O 924.995 -1.19723 -3.49038 0
M  V30 7821 N 925.035 0.869151 -2.14025 0
M  V30 7822 C 925.135 2.01207 -2.14363 0
M  V30 7823 N 925.085 2.58978 -0.954287 0
M  V30 7824 C 925.285 2.80817 -3.32215 0
M  V30 7825 C 925.335 2.13785 -4.50884 0
M  V30 7826 H 928.075 1.93401 -8.46693 0
M  V30 7827 H 928.345 1.68181 -6.71046 0
M  V30 7828 H 927.478 -0.289076 -8.15488 0
M  V30 7829 H 924.823 -0.927166 -5.72947 0
M  V30 7830 H 924.543 1.87 -6.82132 0
M  V30 7831 H 923.552 0.404009 -7.13457 0
M  V30 7832 H 925.386 1.20599 -8.97534 0
M  V30 7833 H 925.458 2.70295 -5.43162 0
M  V30 7834 H 925.356 3.89465 -3.27406 0
M  V30 7835 H 924.968 2.01616 -0.107046 0
M  V30 7836 H 925.164 3.61403 -0.873101 0
M  V30 7837 P 923.515 -1.17771 -8.83182 0
M  V30 7838 O 923.295 -2.07206 -9.98732 0
M  V30 7839 O 922.725 0.0743816 -8.81969 0
M  V30 7840 O 923.265 -1.97652 -7.47304 0
M  V30 7841 C 924.205 -3.01055 -7.08599 0
M  V30 7842 C 923.475 -4.12613 -6.37049 0
M  V30 7843 O 923.265 -3.72827 -4.97879 0
M  V30 7844 C 922.075 -4.45719 -6.88164 0
M  V30 7845 O 921.685 -5.7877 -6.5624 0
M  V30 7846 C 921.195 -3.47768 -6.11991 0
M  V30 7847 C 921.905 -3.39356 -4.77615 0
M  V30 7848 N 921.855 -2.04571 -4.15244 0
M  V30 7849 C 921.705 -1.98587 -2.78314 0
M  V30 7850 O 921.615 -2.98134 -2.08835 0
M  V30 7851 N 921.665 -0.714467 -2.24925 0
M  V30 7852 C 921.755 0.470001 -2.94169 0
M  V30 7853 C 921.905 0.312541 -4.36783 0
M  V30 7854 C 921.955 -0.914512 -4.92583 0
M  V30 7855 H 924.696 -3.41169 -7.98575 0
M  V30 7856 H 924.965 -2.58295 -6.41556 0
M  V30 7857 H 924.098 -5.02657 -6.42673 0
M  V30 7858 H 921.443 -4.11637 -4.08885 0
M  V30 7859 H 921.164 -2.49626 -6.61679 0
M  V30 7860 H 920.172 -3.86566 -6.00778 0
M  V30 7861 H 922.006 -4.29943 -7.96918 0
M  V30 7862 H 922.077 -1.00937 -6.00374 0
M  V30 7863 P 920.135 -6.144 -6.45285 0
M  V30 7864 O 919.915 -7.54673 -6.86199 0
M  V30 7865 O 919.345 -5.12391 -7.179 0
M  V30 7866 O 919.885 -5.99158 -4.88404 0
M  V30 7867 C 920.825 -6.60234 -3.96415 0
M  V30 7868 C 920.095 -7.08259 -2.72856 0
M  V30 7869 O 919.885 -5.9427 -1.83651 0
M  V30 7870 C 918.695 -7.64886 -2.9555 0
M  V30 7871 O 918.305 -8.53963 -1.90717 0
M  V30 7872 C 917.815 -6.4116 -2.90739 0
M  V30 7873 C 918.525 -5.55375 -1.86963 0
M  V30 7874 N 918.475 -4.09664 -2.15742 0
M  V30 7875 C 918.555 -3.44381 -3.37233 0
M  V30 7876 N 918.475 -2.14131 -3.28347 0
M  V30 7877 C 918.335 -1.90247 -1.91588 0
M  V30 7878 C 918.205 -0.683992 -1.20892 0
M  V30 7879 N 918.085 -0.903396 0.173998 0
M  V30 7880 C 918.085 -2.14171 0.784879 0
M  V30 7881 N 917.955 -2.1435 2.11317 0
M  V30 7882 N 918.215 -3.28784 0.119316 0
M  V30 7883 C 918.335 -3.0977 -1.22194 0
M  V30 7884 H 921.314 -7.45574 -4.45629 0
M  V30 7885 H 921.586 -5.86232 -3.67314 0
M  V30 7886 H 920.718 -7.84412 -2.24479 0
M  V30 7887 P 916.755 -8.7635 -1.60911 0
M  V30 7888 O 916.535 -10.1388 -1.11561 0
M  V30 7889 O 915.965 -8.36503 -2.79617 0
M  V30 7890 O 916.505 -7.71806 -0.42951 0
M  V30 7891 C 917.445 -7.67148 0.673689 0
M  V30 7892 C 916.715 -7.33374 1.95559 0
M  V30 7893 O 916.505 -5.88721 2.00726 0
M  V30 7894 C 915.315 -7.92526 2.10483 0
M  V30 7895 O 914.925 -8.02971 3.47653 0
M  V30 7896 C 914.435 -6.89602 1.41652 0
M  V30 7897 C 915.145 -5.59201 1.75185 0
M  V30 7898 N 915.095 -4.58235 0.662552 0
M  V30 7899 H 917.934 -8.65116 0.777161 0
M  V30 7900 H 918.206 -6.90173 0.474152 0
M  V30 7901 H 917.338 -7.66548 2.79458 0
M  V30 7902 P 913.375 -8.03563 3.84925 0
M  V30 7903 O 913.155 -8.85821 5.0569 0
M  V30 7904 O 912.585 -8.41101 2.65469 0
M  V30 7905 O 913.125 -6.4965 4.18908 0
M  V30 7906 C 914.065 -5.81037 5.05421 0
M  V30 7907 C 913.335 -4.78366 5.89277 0
M  V30 7908 O 913.125 -3.58302 5.08433 0
M  V30 7909 C 911.935 -5.17448 6.36119 0
M  V30 7910 O 911.545 -4.45271 7.53232 0
M  V30 7911 C 911.055 -4.74639 5.19936 0
M  V30 7912 C 911.765 -3.49432 4.70418 0
M  V30 7913 N 911.715 -3.31776 3.22945 0
M  V30 7914 H 914.554 -6.54213 5.71376 0
M  V30 7915 H 914.826 -5.30492 4.44033 0
M  V30 7916 H 913.958 -4.55889 6.76652 0
M  V30 7917 P 909.995 -4.23843 7.83734 0
M  V30 7918 O 909.775 -4.19407 9.29784 0
M  V30 7919 O 909.205 -5.24426 7.09156 0
M  V30 7920 O 909.745 -2.7935 7.20758 0
M  V30 7921 C 910.685 -1.7299 7.50419 0
M  V30 7922 C 909.955 -0.406376 7.57911 0
M  V30 7923 O 909.745 0.0897726 6.21935 0
M  V30 7924 C 908.555 -0.447224 8.1878 0
M  V30 7925 O 908.165 0.825065 8.71101 0
M  V30 7926 C 907.675 -0.783801 6.99623 0
M  V30 7927 C 908.385 -0.0619192 5.85967 0
M  V30 7928 N 908.335 -0.7859 4.56281 0
M  V30 7929 H 911.174 -1.93423 8.4679 0
M  V30 7930 H 911.446 -1.68181 6.71046 0
M  V30 7931 H 910.578 0.289041 8.15388 0
M  V30 7932 P 906.615 1.17771 8.83182 0
M  V30 7933 O 906.395 2.07206 9.98732 0
M  V30 7934 O 905.825 -0.0743816 8.81969 0
M  V30 7935 O 906.365 1.97652 7.47304 0
M  V30 7936 C 907.305 3.01133 7.08783 0
M  V30 7937 C 906.575 4.12613 6.37049 0
M  V30 7938 O 906.365 3.72827 4.97879 0
M  V30 7939 C 905.175 4.45085 6.88694 0
M  V30 7940 O 904.785 5.7877 6.5624 0
M  V30 7941 C 904.295 3.47817 6.12078 0
M  V30 7942 C 905.005 3.39414 4.77697 0
M  V30 7943 N 904.955 2.04615 4.15333 0
M  V30 7944 H 907.794 3.41248 7.98759 0
M  V30 7945 H 908.066 2.5837 6.41742 0
M  V30 7946 H 907.198 5.02657 6.42673 0
M  V30 7947 P 903.235 6.144 6.45285 0
M  V30 7948 O 903.015 7.54673 6.86199 0
M  V30 7949 O 902.445 5.12391 7.179 0
M  V30 7950 O 902.985 5.99158 4.88404 0
M  V30 7951 C 903.925 6.60234 3.96415 0
M  V30 7952 C 903.195 7.08259 2.72856 0
M  V30 7953 O 902.985 5.9427 1.83651 0
M  V30 7954 C 901.795 7.64886 2.9555 0
M  V30 7955 O 901.405 8.53963 1.90717 0
M  V30 7956 C 900.915 6.4116 2.90739 0
M  V30 7957 C 901.625 5.55375 1.86963 0
M  V30 7958 N 901.575 4.09448 2.16152 0
M  V30 7959 C 901.655 3.46824 3.37593 0
M  V30 7960 N 901.585 2.17422 3.29777 0
M  V30 7961 C 901.435 1.93065 1.94427 0
M  V30 7962 C 901.305 0.738053 1.20141 0
M  V30 7963 N 901.295 -0.474256 1.74676 0
M  V30 7964 N 901.185 0.850049 -0.13045 0
M  V30 7965 C 901.195 2.06169 -0.676992 0
M  V30 7966 N 901.315 3.23842 -0.101312 0
M  V30 7967 C 901.435 3.09402 1.23122 0
M  V30 7968 H 904.414 7.45574 4.45629 0
M  V30 7969 H 904.686 5.85864 3.679 0
M  V30 7970 H 903.818 7.84412 2.24479 0
M  V30 7971 H 901.163 5.73457 0.888562 0
M  V30 7972 H 900.883 5.90877 3.88583 0
M  V30 7973 H 899.892 6.6596 2.58858 0
M  V30 7974 H 901.726 8.16339 3.92049 0
M  V30 7975 H 901.767 4.00505 4.3174 0
M  V30 7976 H 901.386 -0.581337 2.76658 0
M  V30 7977 H 901.197 -1.30811 1.14888 0
M  V30 7978 H 901.089 2.08295 -1.75542 0
M  V30 7979 P 899.855 8.7635 1.60911 0
M  V30 7980 O 899.635 10.1388 1.11561 0
M  V30 7981 O 899.065 8.36503 2.79617 0
M  V30 7982 O 899.605 7.71806 0.42951 0
M  V30 7983 C 900.545 7.67148 -0.673689 0
M  V30 7984 C 899.815 7.33374 -1.95559 0
M  V30 7985 O 899.605 5.88721 -2.00726 0
M  V30 7986 C 898.415 7.92526 -2.10483 0
M  V30 7987 O 898.025 8.02971 -3.47653 0
M  V30 7988 C 897.535 6.89602 -1.41652 0
M  V30 7989 C 898.245 5.59201 -1.75185 0
M  V30 7990 N 898.195 4.58301 -0.657969 0
M  V30 7991 H 901.034 8.65116 -0.777161 0
M  V30 7992 H 901.306 6.9022 -0.46725 0
M  V30 7993 H 900.438 7.66548 -2.79458 0
M  V30 7994 H 897.783 5.16165 -2.65183 0
M  V30 7995 H 897.503 7.06433 -0.329384 0
M  V30 7996 H 896.512 6.90926 -1.82021 0
M  V30 7997 H 898.346 8.90873 -1.62657 0
M  V30 7998 P 896.475 8.03563 -3.84925 0
M  V30 7999 O 896.255 8.85821 -5.0569 0
M  V30 8000 O 895.685 8.41101 -2.65469 0
M  V30 8001 O 896.225 6.4965 -4.18908 0
M  V30 8002 C 897.165 5.81037 -5.05421 0
M  V30 8003 C 896.435 4.78366 -5.89277 0
M  V30 8004 O 896.225 3.58302 -5.08433 0
M  V30 8005 C 895.035 5.17448 -6.36119 0
M  V30 8006 O 894.645 4.45271 -7.53232 0
M  V30 8007 C 894.155 4.74639 -5.19936 0
M  V30 8008 C 894.865 3.49432 -4.70418 0
M  V30 8009 N 894.815 3.31776 -3.22945 0
M  V30 8010 H 897.654 6.54213 -5.71376 0
M  V30 8011 H 897.926 5.30492 -4.44033 0
M  V30 8012 H 897.058 4.55889 -6.76652 0
M  V30 8013 P 893.095 4.23843 -7.83734 0
M  V30 8014 O 892.875 4.19407 -9.29784 0
M  V30 8015 O 892.305 5.24426 -7.09156 0
M  V30 8016 O 892.845 2.7935 -7.20758 0
M  V30 8017 C 893.785 1.7299 -7.50419 0
M  V30 8018 C 893.055 0.406376 -7.57911 0
M  V30 8019 O 892.845 -0.0897726 -6.21935 0
M  V30 8020 C 891.655 0.447224 -8.1878 0
M  V30 8021 O 891.265 -0.825065 -8.71101 0
M  V30 8022 C 890.775 0.783801 -6.99623 0
M  V30 8023 C 891.485 0.0619192 -5.85967 0
M  V30 8024 N 891.435 0.7859 -4.56281 0
M  V30 8025 H 894.274 1.93423 -8.4679 0
M  V30 8026 H 894.546 1.68181 -6.71046 0
M  V30 8027 H 893.678 -0.289041 -8.15388 0
M  V30 8028 P 889.715 -1.17771 -8.83182 0
M  V30 8029 O 889.495 -2.07206 -9.98732 0
M  V30 8030 O 888.925 0.0743816 -8.81969 0
M  V30 8031 O 889.465 -1.97652 -7.47304 0
M  V30 8032 C 890.405 -3.01133 -7.08783 0
M  V30 8033 C 889.675 -4.12613 -6.37049 0
M  V30 8034 O 889.465 -3.72827 -4.97879 0
M  V30 8035 C 888.275 -4.45085 -6.88694 0
M  V30 8036 O 887.885 -5.7877 -6.5624 0
M  V30 8037 C 887.395 -3.47817 -6.12078 0
M  V30 8038 C 888.105 -3.39414 -4.77697 0
M  V30 8039 N 888.055 -2.04199 -4.15538 0
M  V30 8040 H 890.894 -3.41248 -7.98759 0
M  V30 8041 H 891.166 -2.57728 -6.42 0
M  V30 8042 H 890.298 -5.02657 -6.42673 0
M  V30 8043 H 887.643 -4.11708 -4.08956 0
M  V30 8044 H 887.363 -2.49626 -6.61679 0
M  V30 8045 H 886.372 -3.8662 -6.00862 0
M  V30 8046 H 888.206 -4.29991 -7.97006 0
M  V30 8047 P 886.335 -6.144 -6.45285 0
M  V30 8048 O 886.115 -7.54673 -6.86199 0
M  V30 8049 O 885.545 -5.12391 -7.179 0
M  V30 8050 O 886.085 -5.99158 -4.88404 0
M  V30 8051 C 887.025 -6.60062 -3.96313 0
M  V30 8052 C 886.295 -7.08259 -2.72856 0
M  V30 8053 O 886.085 -5.9427 -1.83651 0
M  V30 8054 C 884.895 -7.65087 -2.94749 0
M  V30 8055 O 884.505 -8.53963 -1.90717 0
M  V30 8056 C 884.015 -6.41069 -2.90698 0
M  V30 8057 C 884.725 -5.5528 -1.86931 0
M  V30 8058 N 884.675 -4.09575 -2.15696 0
M  V30 8059 C 884.525 -3.24249 -1.08435 0
M  V30 8060 O 884.435 -3.63946 0.0628747 0
M  V30 8061 N 884.485 -1.90009 -1.39973 0
M  V30 8062 C 884.575 -1.34884 -2.65614 0
M  V30 8063 C 884.725 -2.3145 -3.71736 0
M  V30 8064 C 884.775 -3.63518 -3.44754 0
M  V30 8065 H 887.516 -7.45402 -4.45526 0
M  V30 8066 H 887.785 -5.86062 -3.67208 0
M  V30 8067 H 886.918 -7.84412 -2.24479 0
M  V30 8068 H 884.263 -5.73358 -0.888409 0
M  V30 8069 H 883.984 -5.90877 -3.88583 0
M  V30 8070 H 882.992 -6.65867 -2.58821 0
M  V30 8071 H 884.826 -8.16248 -3.92006 0
M  V30 8072 H 884.897 -4.34551 -4.26383 0
M  V30 8073 P 882.955 -8.7635 -1.60911 0
M  V30 8074 O 882.735 -10.1388 -1.11561 0
M  V30 8075 O 882.165 -8.36503 -2.79617 0
M  V30 8076 O 882.705 -7.71806 -0.42951 0
M  V30 8077 C 883.645 -7.67148 0.673689 0
M  V30 8078 C 882.915 -7.33374 1.95559 0
M  V30 8079 O 882.705 -5.88721 2.00726 0
M  V30 8080 C 881.515 -7.92526 2.10483 0
M  V30 8081 O 881.125 -8.02971 3.47653 0
M  V30 8082 C 880.635 -6.89602 1.41652 0
M  V30 8083 C 881.345 -5.59201 1.75185 0
M  V30 8084 N 881.295 -4.58301 0.657969 0
M  V30 8085 H 884.134 -8.65116 0.777161 0
M  V30 8086 H 884.406 -6.9022 0.46725 0
M  V30 8087 H 883.538 -7.66548 2.79458 0
M  V30 8088 H 880.883 -5.16165 2.65183 0
M  V30 8089 H 880.603 -7.06433 0.329384 0
M  V30 8090 H 879.612 -6.90926 1.82021 0
M  V30 8091 H 881.446 -8.90873 1.62657 0
M  V30 8092 P 879.575 -8.03563 3.84925 0
M  V30 8093 O 879.355 -8.85821 5.0569 0
M  V30 8094 O 878.785 -8.41101 2.65469 0
M  V30 8095 O 879.325 -6.4965 4.18908 0
M  V30 8096 C 880.265 -5.81037 5.05421 0
M  V30 8097 C 879.535 -4.78366 5.89277 0
M  V30 8098 O 879.325 -3.58302 5.08433 0
M  V30 8099 C 878.135 -5.17448 6.36119 0
M  V30 8100 O 877.745 -4.45271 7.53232 0
M  V30 8101 C 877.255 -4.74639 5.19936 0
M  V30 8102 C 877.965 -3.49432 4.70418 0
M  V30 8103 N 877.915 -3.31776 3.22945 0
M  V30 8104 H 880.754 -6.54213 5.71376 0
M  V30 8105 H 881.026 -5.30492 4.44033 0
M  V30 8106 H 880.158 -4.55889 6.76652 0
M  V30 8107 P 876.195 -4.23843 7.83734 0
M  V30 8108 O 875.975 -4.19407 9.29784 0
M  V30 8109 O 875.405 -5.24426 7.09156 0
M  V30 8110 O 875.945 -2.7935 7.20758 0
M  V30 8111 C 876.885 -1.7299 7.50419 0
M  V30 8112 C 876.155 -0.406376 7.57911 0
M  V30 8113 O 875.945 0.0897726 6.21935 0
M  V30 8114 C 874.755 -0.447224 8.1878 0
M  V30 8115 O 874.365 0.825065 8.71101 0
M  V30 8116 C 873.875 -0.783801 6.99623 0
M  V30 8117 C 874.585 -0.0619192 5.85967 0
M  V30 8118 N 874.535 -0.7859 4.56281 0
M  V30 8119 H 877.374 -1.93423 8.4679 0
M  V30 8120 H 877.646 -1.68181 6.71046 0
M  V30 8121 H 876.778 0.289041 8.15388 0
M  V30 8122 P 872.815 1.17771 8.83182 0
M  V30 8123 O 872.595 2.07206 9.98732 0
M  V30 8124 O 872.025 -0.0743816 8.81969 0
M  V30 8125 O 872.565 1.97652 7.47304 0
M  V30 8126 C 873.505 3.01133 7.08783 0
M  V30 8127 C 872.775 4.12613 6.37049 0
M  V30 8128 O 872.565 3.72827 4.97879 0
M  V30 8129 C 871.375 4.45085 6.88694 0
M  V30 8130 O 870.985 5.7877 6.5624 0
M  V30 8131 C 870.495 3.47817 6.12078 0
M  V30 8132 C 871.205 3.39414 4.77697 0
M  V30 8133 N 871.155 2.04199 4.15538 0
M  V30 8134 H 873.994 3.41248 7.98759 0
M  V30 8135 H 874.266 2.57728 6.42 0
M  V30 8136 H 873.398 5.02657 6.42673 0
M  V30 8137 H 870.743 4.11708 4.08956 0
M  V30 8138 H 870.463 2.49626 6.61679 0
M  V30 8139 H 869.472 3.8662 6.00862 0
M  V30 8140 H 871.306 4.29991 7.97006 0
M  V30 8141 P 869.435 6.144 6.45285 0
M  V30 8142 O 869.215 7.54673 6.86199 0
M  V30 8143 O 868.645 5.12391 7.179 0
M  V30 8144 O 869.185 5.99158 4.88404 0
M  V30 8145 C 870.125 6.60234 3.96415 0
M  V30 8146 C 869.395 7.08259 2.72856 0
M  V30 8147 O 869.185 5.9427 1.83651 0
M  V30 8148 C 867.995 7.64886 2.9555 0
M  V30 8149 O 867.605 8.53963 1.90717 0
M  V30 8150 C 867.115 6.4116 2.90739 0
M  V30 8151 C 867.825 5.55375 1.86963 0
M  V30 8152 N 867.775 4.09664 2.15742 0
M  V30 8153 H 870.614 7.45574 4.45629 0
M  V30 8154 H 870.886 5.86232 3.67314 0
M  V30 8155 H 870.018 7.84412 2.24479 0
M  V30 8156 P 866.055 8.7635 1.60911 0
M  V30 8157 O 865.835 10.1388 1.11561 0
M  V30 8158 O 865.265 8.36503 2.79617 0
M  V30 8159 O 865.805 7.71906 0.429565 0
M  V30 8160 C 866.745 7.67148 -0.673689 0
M  V30 8161 C 866.015 7.33666 -1.94851 0
M  V30 8162 O 865.805 5.88816 -2.00759 0
M  V30 8163 C 864.615 7.92526 -2.10483 0
M  V30 8164 O 864.225 8.03063 -3.47693 0
M  V30 8165 C 863.735 6.89602 -1.41652 0
M  V30 8166 C 864.445 5.59201 -1.75185 0
M  V30 8167 N 864.395 4.58235 -0.662552 0
M  V30 8168 C 864.245 3.24451 -1.01643 0
M  V30 8169 O 864.155 2.94958 -2.21722 0
M  V30 8170 N 864.195 2.30408 0.165238 0
M  V30 8171 C 864.295 2.66048 1.25118 0
M  V30 8172 N 864.245 1.70787 2.16813 0
M  V30 8173 C 864.445 4.02732 1.64413 0
M  V30 8174 C 864.495 4.9488 0.63991 0
M  V30 8175 H 867.235 8.65017 -0.777072 0
M  V30 8176 H 867.505 6.90173 -0.474152 0
M  V30 8177 H 866.638 7.66642 -2.79492 0
M  V30 8178 H 863.983 5.16254 -2.65229 0
M  V30 8179 H 863.703 7.06532 -0.329431 0
M  V30 8180 H 862.712 6.91023 -1.82047 0
M  V30 8181 H 864.546 8.90873 -1.62657 0
M  V30 8182 H 864.618 6.00104 0.892197 0
M  V30 8183 H 864.516 4.31733 2.69229 0
M  V30 8184 H 864.128 0.724835 1.8844 0
M  V30 8185 H 864.324 1.94716 3.16734 0
M  V30 8186 P 862.675 8.03563 -3.84925 0
M  V30 8187 O 862.455 8.85821 -5.0569 0
M  V30 8188 O 861.885 8.41101 -2.65469 0
M  V30 8189 O 862.425 6.4965 -4.18908 0
M  V30 8190 C 863.365 5.81037 -5.05421 0
M  V30 8191 C 862.635 4.78366 -5.89277 0
M  V30 8192 O 862.425 3.58302 -5.08433 0
M  V30 8193 C 861.235 5.17448 -6.36119 0
M  V30 8194 O 860.845 4.45271 -7.53232 0
M  V30 8195 C 860.355 4.74639 -5.19936 0
M  V30 8196 C 861.065 3.49432 -4.70418 0
M  V30 8197 N 861.015 3.31776 -3.22945 0
M  V30 8198 H 863.854 6.54213 -5.71376 0
M  V30 8199 H 864.126 5.30492 -4.44033 0
M  V30 8200 H 863.258 4.55889 -6.76652 0
M  V30 8201 P 859.295 4.23843 -7.83734 0
M  V30 8202 O 859.075 4.19407 -9.29784 0
M  V30 8203 O 858.505 5.24426 -7.09156 0
M  V30 8204 O 859.045 2.7935 -7.20758 0
M  V30 8205 C 859.985 1.7299 -7.50419 0
M  V30 8206 C 859.255 0.406376 -7.57911 0
M  V30 8207 O 859.045 -0.0897726 -6.21935 0
M  V30 8208 C 857.855 0.447224 -8.1878 0
M  V30 8209 O 857.465 -0.825065 -8.71101 0
M  V30 8210 C 856.975 0.783801 -6.99623 0
M  V30 8211 C 857.685 0.0619192 -5.85967 0
M  V30 8212 N 857.635 0.790462 -4.56202 0
M  V30 8213 H 860.474 1.93423 -8.4679 0
M  V30 8214 H 860.746 1.68852 -6.70877 0
M  V30 8215 H 859.878 -0.289041 -8.15388 0
M  V30 8216 H 857.223 -0.927006 -5.72848 0
M  V30 8217 H 856.943 1.86973 -6.82036 0
M  V30 8218 H 855.952 0.403953 -7.13357 0
M  V30 8219 H 857.786 1.20599 -8.97534 0
M  V30 8220 P 855.915 -1.17771 -8.83182 0
M  V30 8221 O 855.695 -2.07206 -9.98732 0
M  V30 8222 O 855.125 0.0743816 -8.81969 0
M  V30 8223 O 855.665 -1.97652 -7.47304 0
M  V30 8224 C 856.605 -3.01133 -7.08783 0
M  V30 8225 C 855.875 -4.12613 -6.37049 0
M  V30 8226 O 855.665 -3.72827 -4.97879 0
M  V30 8227 C 854.475 -4.45085 -6.88694 0
M  V30 8228 O 854.085 -5.7877 -6.5624 0
M  V30 8229 C 853.595 -3.47817 -6.12078 0
M  V30 8230 C 854.305 -3.39414 -4.77697 0
M  V30 8231 N 854.255 -2.04199 -4.15538 0
M  V30 8232 H 857.094 -3.41248 -7.98759 0
M  V30 8233 H 857.366 -2.57728 -6.42 0
M  V30 8234 H 856.498 -5.02657 -6.42673 0
M  V30 8235 H 853.843 -4.11708 -4.08956 0
M  V30 8236 H 853.563 -2.49626 -6.61679 0
M  V30 8237 H 852.572 -3.8662 -6.00862 0
M  V30 8238 H 854.406 -4.29991 -7.97006 0
M  V30 8239 P 852.535 -6.144 -6.45285 0
M  V30 8240 O 852.315 -7.54673 -6.86199 0
M  V30 8241 O 851.745 -5.12391 -7.179 0
M  V30 8242 O 852.285 -5.99158 -4.88404 0
M  V30 8243 C 853.225 -6.60234 -3.96415 0
M  V30 8244 C 852.495 -7.08259 -2.72856 0
M  V30 8245 O 852.285 -5.9427 -1.83651 0
M  V30 8246 C 851.095 -7.64886 -2.9555 0
M  V30 8247 O 850.705 -8.53963 -1.90717 0
M  V30 8248 C 850.215 -6.4116 -2.90739 0
M  V30 8249 C 850.925 -5.55375 -1.86963 0
M  V30 8250 N 850.875 -4.09664 -2.15742 0
M  V30 8251 H 853.714 -7.45574 -4.45629 0
M  V30 8252 H 853.986 -5.86232 -3.67314 0
M  V30 8253 H 853.118 -7.84412 -2.24479 0
M  V30 8254 P 849.155 -8.7635 -1.60911 0
M  V30 8255 O 848.935 -10.1388 -1.11561 0
M  V30 8256 O 848.365 -8.36503 -2.79617 0
M  V30 8257 O 848.905 -7.71806 -0.42951 0
M  V30 8258 C 849.845 -7.67148 0.673689 0
M  V30 8259 C 849.115 -7.33374 1.95559 0
M  V30 8260 O 848.905 -5.88721 2.00726 0
M  V30 8261 C 847.715 -7.92526 2.10483 0
M  V30 8262 O 847.325 -8.02971 3.47653 0
M  V30 8263 C 846.835 -6.89602 1.41652 0
M  V30 8264 C 847.545 -5.59201 1.75185 0
M  V30 8265 N 847.495 -4.58235 0.662552 0
M  V30 8266 H 850.334 -8.65116 0.777161 0
M  V30 8267 H 850.606 -6.90173 0.474152 0
M  V30 8268 H 849.738 -7.66548 2.79458 0
M  V30 8269 P 845.775 -8.03563 3.84925 0
M  V30 8270 O 845.555 -8.85821 5.0569 0
M  V30 8271 O 844.985 -8.41101 2.65469 0
M  V30 8272 O 845.525 -6.4965 4.18908 0
M  V30 8273 C 846.465 -5.81037 5.05421 0
M  V30 8274 C 845.735 -4.78366 5.89277 0
M  V30 8275 O 845.525 -3.58302 5.08433 0
M  V30 8276 C 844.335 -5.17448 6.36119 0
M  V30 8277 O 843.945 -4.45271 7.53232 0
M  V30 8278 C 843.455 -4.74639 5.19936 0
M  V30 8279 C 844.165 -3.49432 4.70418 0
M  V30 8280 N 844.115 -3.31776 3.22945 0
M  V30 8281 H 846.954 -6.54213 5.71376 0
M  V30 8282 H 847.226 -5.30492 4.44033 0
M  V30 8283 H 846.358 -4.55889 6.76652 0
M  V30 8284 P 842.395 -4.23843 7.83734 0
M  V30 8285 O 842.175 -4.19407 9.29784 0
M  V30 8286 O 841.605 -5.24426 7.09156 0
M  V30 8287 O 842.145 -2.7935 7.20758 0
M  V30 8288 C 843.085 -1.7299 7.50419 0
M  V30 8289 C 842.355 -0.406376 7.57911 0
M  V30 8290 O 842.145 0.0897726 6.21935 0
M  V30 8291 C 840.955 -0.447224 8.1878 0
M  V30 8292 O 840.565 0.825065 8.71101 0
M  V30 8293 C 840.075 -0.783801 6.99623 0
M  V30 8294 C 840.785 -0.0619192 5.85967 0
M  V30 8295 N 840.735 -0.7859 4.56281 0
M  V30 8296 H 843.574 -1.93423 8.4679 0
M  V30 8297 H 843.846 -1.68181 6.71046 0
M  V30 8298 H 842.978 0.289041 8.15388 0
M  V30 8299 P 839.015 1.17771 8.83182 0
M  V30 8300 O 838.795 2.07206 9.98732 0
M  V30 8301 O 838.225 -0.0743816 8.81969 0
M  V30 8302 O 838.765 1.97652 7.47304 0
M  V30 8303 C 839.705 3.01133 7.08783 0
M  V30 8304 C 838.975 4.12613 6.37049 0
M  V30 8305 O 838.765 3.72827 4.97879 0
M  V30 8306 C 837.575 4.45085 6.88694 0
M  V30 8307 O 837.185 5.7877 6.5624 0
M  V30 8308 C 836.695 3.47817 6.12078 0
M  V30 8309 C 837.405 3.39414 4.77697 0
M  V30 8310 N 837.355 2.04615 4.15333 0
M  V30 8311 H 840.194 3.41248 7.98759 0
M  V30 8312 H 840.466 2.5837 6.41742 0
M  V30 8313 H 839.598 5.02657 6.42673 0
M  V30 8314 P 835.635 6.144 6.45285 0
M  V30 8315 O 835.415 7.54673 6.86199 0
M  V30 8316 O 834.845 5.12391 7.179 0
M  V30 8317 O 835.385 5.99158 4.88404 0
M  V30 8318 C 836.325 6.60234 3.96415 0
M  V30 8319 C 835.595 7.08259 2.72856 0
M  V30 8320 O 835.385 5.9427 1.83651 0
M  V30 8321 C 834.195 7.64886 2.9555 0
M  V30 8322 O 833.805 8.53963 1.90717 0
M  V30 8323 C 833.315 6.4116 2.90739 0
M  V30 8324 C 834.025 5.55375 1.86963 0
M  V30 8325 N 833.975 4.09664 2.15742 0
M  V30 8326 H 836.814 7.45574 4.45629 0
M  V30 8327 H 837.086 5.86232 3.67314 0
M  V30 8328 H 836.218 7.84412 2.24479 0
M  V30 8329 P 832.255 8.7635 1.60911 0
M  V30 8330 O 832.035 10.1388 1.11561 0
M  V30 8331 O 831.465 8.36503 2.79617 0
M  V30 8332 O 832.005 7.71806 0.42951 0
M  V30 8333 C 832.945 7.67148 -0.673689 0
M  V30 8334 C 832.215 7.33374 -1.95559 0
M  V30 8335 O 832.005 5.88721 -2.00726 0
M  V30 8336 C 830.815 7.92526 -2.10483 0
M  V30 8337 O 830.425 8.02971 -3.47653 0
M  V30 8338 C 829.935 6.89602 -1.41652 0
M  V30 8339 C 830.645 5.59201 -1.75185 0
M  V30 8340 N 830.595 4.58301 -0.657969 0
M  V30 8341 C 830.675 4.79019 0.692603 0
M  V30 8342 N 830.605 3.69736 1.38998 0
M  V30 8343 C 830.455 2.70474 0.438135 0
M  V30 8344 C 830.325 1.30327 0.538142 0
M  V30 8345 N 830.315 0.64304 1.69192 0
M  V30 8346 N 830.205 0.611027 -0.605183 0
M  V30 8347 C 830.215 1.27002 -1.75953 0
M  V30 8348 N 830.335 2.56038 -1.98546 0
M  V30 8349 C 830.455 3.22681 -0.822541 0
M  V30 8350 H 833.434 8.65116 -0.777161 0
M  V30 8351 H 833.706 6.9022 -0.46725 0
M  V30 8352 H 832.838 7.66548 -2.79458 0
M  V30 8353 H 830.183 5.16165 -2.65183 0
M  V30 8354 H 829.903 7.06433 -0.329384 0
M  V30 8355 H 828.912 6.90926 -1.82021 0
M  V30 8356 H 830.746 8.90873 -1.62657 0
M  V30 8357 H 830.787 5.77785 1.13874 0
M  V30 8358 H 830.406 1.15585 2.57991 0
M  V30 8359 H 830.217 -0.382989 1.69835 0
M  V30 8360 H 830.109 0.653331 -2.64449 0
M  V30 8361 P 828.875 8.03563 -3.84925 0
M  V30 8362 O 828.655 8.85821 -5.0569 0
M  V30 8363 O 828.085 8.41101 -2.65469 0
M  V30 8364 O 828.625 6.4965 -4.18908 0
M  V30 8365 C 829.565 5.81037 -5.05421 0
M  V30 8366 C 828.835 4.78366 -5.89277 0
M  V30 8367 O 828.625 3.58302 -5.08433 0
M  V30 8368 C 827.435 5.17448 -6.36119 0
M  V30 8369 O 827.045 4.45271 -7.53232 0
M  V30 8370 C 826.555 4.74639 -5.19936 0
M  V30 8371 C 827.265 3.49432 -4.70418 0
M  V30 8372 N 827.215 3.32099 -3.22613 0
M  V30 8373 H 830.054 6.54213 -5.71376 0
M  V30 8374 H 830.326 5.30936 -4.43503 0
M  V30 8375 H 829.458 4.55889 -6.76652 0
M  V30 8376 H 826.803 2.61715 -5.17932 0
M  V30 8377 H 826.523 5.52155 -4.41878 0
M  V30 8378 H 825.532 4.51981 -5.53374 0
M  V30 8379 H 827.366 6.25124 -6.55234 0
M  V30 8380 P 825.495 4.23843 -7.83734 0
M  V30 8381 O 825.275 4.19407 -9.29784 0
M  V30 8382 O 824.705 5.24426 -7.09156 0
M  V30 8383 O 825.245 2.7935 -7.20758 0
M  V30 8384 C 826.185 1.7299 -7.50419 0
M  V30 8385 C 825.455 0.406376 -7.57911 0
M  V30 8386 O 825.245 -0.0897726 -6.21935 0
M  V30 8387 C 824.055 0.447224 -8.1878 0
M  V30 8388 O 823.665 -0.825065 -8.71101 0
M  V30 8389 C 823.175 0.783801 -6.99623 0
M  V30 8390 C 823.885 0.0619192 -5.85967 0
M  V30 8391 N 823.835 0.7859 -4.56281 0
M  V30 8392 H 826.674 1.93423 -8.4679 0
M  V30 8393 H 826.946 1.68181 -6.71046 0
M  V30 8394 H 826.078 -0.289041 -8.15388 0
M  V30 8395 P 822.115 -1.17771 -8.83182 0
M  V30 8396 O 821.895 -2.07206 -9.98732 0
M  V30 8397 O 821.325 0.0743816 -8.81969 0
M  V30 8398 O 821.865 -1.97652 -7.47304 0
M  V30 8399 C 822.805 -3.01133 -7.08783 0
M  V30 8400 C 822.075 -4.12613 -6.37049 0
M  V30 8401 O 821.865 -3.72827 -4.97879 0
M  V30 8402 C 820.675 -4.45085 -6.88694 0
M  V30 8403 O 820.285 -5.7877 -6.5624 0
M  V30 8404 C 819.795 -3.47817 -6.12078 0
M  V30 8405 C 820.505 -3.39414 -4.77697 0
M  V30 8406 N 820.455 -2.04615 -4.15333 0
M  V30 8407 H 823.294 -3.41248 -7.98759 0
M  V30 8408 H 823.566 -2.5837 -6.41742 0
M  V30 8409 H 822.698 -5.02657 -6.42673 0
M  V30 8410 P 818.735 -6.144 -6.45285 0
M  V30 8411 O 818.515 -7.54673 -6.86199 0
M  V30 8412 O 817.945 -5.12391 -7.179 0
M  V30 8413 O 818.485 -5.99158 -4.88404 0
M  V30 8414 C 819.425 -6.60234 -3.96415 0
M  V30 8415 C 818.695 -7.08259 -2.72856 0
M  V30 8416 O 818.485 -5.9427 -1.83651 0
M  V30 8417 C 817.295 -7.64886 -2.9555 0
M  V30 8418 O 816.905 -8.53963 -1.90717 0
M  V30 8419 C 816.415 -6.4116 -2.90739 0
M  V30 8420 C 817.125 -5.55375 -1.86963 0
M  V30 8421 N 817.075 -4.09664 -2.15742 0
M  V30 8422 H 819.914 -7.45574 -4.45629 0
M  V30 8423 H 820.186 -5.86232 -3.67314 0
M  V30 8424 H 819.318 -7.84412 -2.24479 0
M  V30 8425 P 815.355 -8.7635 -1.60911 0
M  V30 8426 O 815.135 -10.1388 -1.11561 0
M  V30 8427 O 814.565 -8.36503 -2.79617 0
M  V30 8428 O 815.105 -7.71806 -0.42951 0
M  V30 8429 C 816.045 -7.67148 0.673689 0
M  V30 8430 C 815.315 -7.33374 1.95559 0
M  V30 8431 O 815.105 -5.88721 2.00726 0
M  V30 8432 C 813.915 -7.92526 2.10483 0
M  V30 8433 O 813.525 -8.02971 3.47653 0
M  V30 8434 C 813.035 -6.89602 1.41652 0
M  V30 8435 C 813.745 -5.59201 1.75185 0
M  V30 8436 N 813.695 -4.58301 0.657969 0
M  V30 8437 H 816.534 -8.65116 0.777161 0
M  V30 8438 H 816.806 -6.9022 0.46725 0
M  V30 8439 H 815.938 -7.66548 2.79458 0
M  V30 8440 H 813.283 -5.16165 2.65183 0
M  V30 8441 H 813.003 -7.06433 0.329384 0
M  V30 8442 H 812.012 -6.90926 1.82021 0
M  V30 8443 H 813.846 -8.90873 1.62657 0
M  V30 8444 P 811.975 -8.03563 3.84925 0
M  V30 8445 O 811.755 -8.85821 5.0569 0
M  V30 8446 O 811.185 -8.41101 2.65469 0
M  V30 8447 O 811.725 -6.4965 4.18908 0
M  V30 8448 C 812.665 -5.81037 5.05421 0
M  V30 8449 C 811.935 -4.78366 5.89277 0
M  V30 8450 O 811.725 -3.58302 5.08433 0
M  V30 8451 C 810.535 -5.17448 6.36119 0
M  V30 8452 O 810.145 -4.45271 7.53232 0
M  V30 8453 C 809.655 -4.74639 5.19936 0
M  V30 8454 C 810.365 -3.49432 4.70418 0
M  V30 8455 N 810.315 -3.32099 3.22613 0
M  V30 8456 C 810.395 -4.28245 2.25527 0
M  V30 8457 N 810.325 -3.80823 1.04874 0
M  V30 8458 C 810.175 -2.44571 1.23535 0
M  V30 8459 C 810.045 -1.37068 0.330675 0
M  V30 8460 N 810.035 -1.51472 -0.990824 0
M  V30 8461 N 809.925 -0.138614 0.848756 0
M  V30 8462 C 809.935 0.00675923 2.16999 0
M  V30 8463 N 810.055 -0.904372 3.11122 0
M  V30 8464 C 810.175 -2.12707 2.56212 0
M  V30 8465 H 813.154 -6.54213 5.71376 0
M  V30 8466 H 813.426 -5.30936 4.43503 0
M  V30 8467 H 812.558 -4.55889 6.76652 0
M  V30 8468 H 809.903 -2.61715 5.17932 0
M  V30 8469 H 809.623 -5.52155 4.41878 0
M  V30 8470 H 808.632 -4.51981 5.53374 0
M  V30 8471 H 810.466 -6.25124 6.55234 0
M  V30 8472 H 810.507 -5.34372 2.47488 0
M  V30 8473 H 810.126 -2.45153 -1.4078 0
M  V30 8474 H 809.937 -0.688422 -1.59911 0
M  V30 8475 H 809.829 1.02584 2.52346 0
M  V30 8476 P 808.595 -4.23843 7.83734 0
M  V30 8477 O 808.375 -4.19407 9.29784 0
M  V30 8478 O 807.805 -5.24426 7.09156 0
M  V30 8479 O 808.345 -2.7935 7.20758 0
M  V30 8480 C 809.285 -1.7299 7.50419 0
M  V30 8481 C 808.555 -0.406376 7.57911 0
M  V30 8482 O 808.345 0.0897726 6.21935 0
M  V30 8483 C 807.155 -0.447224 8.1878 0
M  V30 8484 O 806.765 0.825065 8.71101 0
M  V30 8485 C 806.275 -0.783801 6.99623 0
M  V30 8486 C 806.985 -0.0619192 5.85967 0
M  V30 8487 N 806.935 -0.7859 4.56281 0
M  V30 8488 H 809.774 -1.93423 8.4679 0
M  V30 8489 H 810.046 -1.68181 6.71046 0
M  V30 8490 H 809.178 0.289041 8.15388 0
M  V30 8491 P 805.215 1.17771 8.83182 0
M  V30 8492 O 804.995 2.07206 9.98732 0
M  V30 8493 O 804.425 -0.0743816 8.81969 0
M  V30 8494 O 804.965 1.97652 7.47304 0
M  V30 8495 C 805.905 3.01133 7.08783 0
M  V30 8496 C 805.175 4.12613 6.37049 0
M  V30 8497 O 804.965 3.72827 4.97879 0
M  V30 8498 C 803.775 4.45085 6.88694 0
M  V30 8499 O 803.385 5.7877 6.5624 0
M  V30 8500 C 802.895 3.47817 6.12078 0
M  V30 8501 C 803.605 3.39414 4.77697 0
M  V30 8502 N 803.555 2.04615 4.15333 0
M  V30 8503 H 806.394 3.41248 7.98759 0
M  V30 8504 H 806.666 2.5837 6.41742 0
M  V30 8505 H 805.798 5.02657 6.42673 0
M  V30 8506 P 801.835 6.144 6.45285 0
M  V30 8507 O 801.615 7.54673 6.86199 0
M  V30 8508 O 801.045 5.12391 7.179 0
M  V30 8509 O 801.585 5.99158 4.88404 0
M  V30 8510 C 802.525 6.60062 3.96313 0
M  V30 8511 C 801.795 7.08259 2.72856 0
M  V30 8512 O 801.585 5.9427 1.83651 0
M  V30 8513 C 800.395 7.65087 2.94749 0
M  V30 8514 O 800.005 8.53963 1.90717 0
M  V30 8515 C 799.515 6.41069 2.90698 0
M  V30 8516 C 800.225 5.5528 1.86931 0
M  V30 8517 N 800.175 4.09575 2.15696 0
M  V30 8518 C 800.025 3.24249 1.08435 0
M  V30 8519 O 799.935 3.63946 -0.0628747 0
M  V30 8520 N 799.985 1.90009 1.39973 0
M  V30 8521 C 800.075 1.34884 2.65614 0
M  V30 8522 C 800.225 2.3145 3.71736 0
M  V30 8523 C 800.275 3.63518 3.44754 0
M  V30 8524 H 803.016 7.45402 4.45526 0
M  V30 8525 H 803.285 5.86062 3.67208 0
M  V30 8526 H 802.418 7.84412 2.24479 0
M  V30 8527 H 799.763 5.73358 0.888409 0
M  V30 8528 H 799.484 5.90877 3.88583 0
M  V30 8529 H 798.492 6.65867 2.58821 0
M  V30 8530 H 800.326 8.16248 3.92006 0
M  V30 8531 H 800.397 4.34551 4.26383 0
M  V30 8532 P 798.455 8.7635 1.60911 0
M  V30 8533 O 798.235 10.1388 1.11561 0
M  V30 8534 O 797.665 8.36503 2.79617 0
M  V30 8535 O 798.205 7.71806 0.42951 0
M  V30 8536 C 799.145 7.67148 -0.673689 0
M  V30 8537 C 798.415 7.33374 -1.95559 0
M  V30 8538 O 798.205 5.88721 -2.00726 0
M  V30 8539 C 797.015 7.92526 -2.10483 0
M  V30 8540 O 796.625 8.02971 -3.47653 0
M  V30 8541 C 796.135 6.89602 -1.41652 0
M  V30 8542 C 796.845 5.59201 -1.75185 0
M  V30 8543 N 796.795 4.58301 -0.657969 0
M  V30 8544 H 799.634 8.65116 -0.777161 0
M  V30 8545 H 799.906 6.9022 -0.46725 0
M  V30 8546 H 799.038 7.66548 -2.79458 0
M  V30 8547 H 796.383 5.16165 -2.65183 0
M  V30 8548 H 796.103 7.06433 -0.329384 0
M  V30 8549 H 795.112 6.90926 -1.82021 0
M  V30 8550 H 796.946 8.90873 -1.62657 0
M  V30 8551 P 795.075 8.03563 -3.84925 0
M  V30 8552 O 794.855 8.85821 -5.0569 0
M  V30 8553 O 794.285 8.41101 -2.65469 0
M  V30 8554 O 794.825 6.4965 -4.18908 0
M  V30 8555 C 795.765 5.80886 -5.05289 0
M  V30 8556 C 795.035 4.78366 -5.89277 0
M  V30 8557 O 794.825 3.58302 -5.08433 0
M  V30 8558 C 793.635 5.16748 -6.36559 0
M  V30 8559 O 793.245 4.45271 -7.53232 0
M  V30 8560 C 792.755 4.74572 -5.19863 0
M  V30 8561 C 793.465 3.49373 -4.70338 0
M  V30 8562 N 793.415 3.31704 -3.22876 0
M  V30 8563 C 793.265 2.03326 -2.74871 0
M  V30 8564 O 793.175 1.06486 -3.48076 0
M  V30 8565 N 793.225 1.91838 -1.37456 0
M  V30 8566 C 793.315 2.94295 -0.462035 0
M  V30 8567 O 793.265 2.71763 0.752928 0
M  V30 8568 C 793.465 4.25064 -1.05249 0
M  V30 8569 C 793.575 5.39815 -0.095697 0
M  V30 8570 C 793.515 4.40214 -2.39192 0
M  V30 8571 H 796.256 6.54063 -5.71245 0
M  V30 8572 H 796.525 5.30339 -4.43905 0
M  V30 8573 H 795.658 4.55889 -6.76652 0
M  V30 8574 H 793.003 2.6167 -5.17842 0
M  V30 8575 H 792.724 5.52155 -4.41878 0
M  V30 8576 H 791.732 4.51918 -5.53297 0
M  V30 8577 H 793.566 6.25055 -6.55162 0
M  V30 8578 H 793.637 5.39798 -2.81523 0
M  V30 8579 H 792.607 5.91593 -0.0279582 0
M  V30 8580 H 794.344 6.10038 -0.450573 0
M  V30 8581 H 793.856 5.02007 0.89937 0
M  V30 8582 H 793.12 0.995326 -1.00435 0
M  V30 8583 P 791.695 4.23843 -7.83734 0
M  V30 8584 O 791.475 4.19407 -9.29784 0
M  V30 8585 O 790.905 5.24426 -7.09156 0
M  V30 8586 O 791.445 2.7935 -7.20758 0
M  V30 8587 C 792.385 1.7299 -7.50419 0
M  V30 8588 C 791.655 0.406376 -7.57911 0
M  V30 8589 O 791.445 -0.0897726 -6.21935 0
M  V30 8590 C 790.255 0.447224 -8.1878 0
M  V30 8591 O 789.865 -0.825065 -8.71101 0
M  V30 8592 C 789.375 0.783801 -6.99623 0
M  V30 8593 C 790.085 0.0619192 -5.85967 0
M  V30 8594 N 790.035 0.790462 -4.56202 0
M  V30 8595 H 792.874 1.93423 -8.4679 0
M  V30 8596 H 793.146 1.68852 -6.70877 0
M  V30 8597 H 792.278 -0.289041 -8.15388 0
M  V30 8598 H 789.623 -0.927006 -5.72848 0
M  V30 8599 H 789.343 1.86973 -6.82036 0
M  V30 8600 H 788.352 0.403953 -7.13357 0
M  V30 8601 H 790.186 1.20599 -8.97534 0
M  V30 8602 P 788.315 -1.17771 -8.83182 0
M  V30 8603 O 788.095 -2.07206 -9.98732 0
M  V30 8604 O 787.525 0.0743816 -8.81969 0
M  V30 8605 O 788.065 -1.97652 -7.47304 0
M  V30 8606 C 789.005 -3.01133 -7.08783 0
M  V30 8607 C 788.275 -4.12613 -6.37049 0
M  V30 8608 O 788.065 -3.72827 -4.97879 0
M  V30 8609 C 786.875 -4.45085 -6.88694 0
M  V30 8610 O 786.485 -5.7877 -6.5624 0
M  V30 8611 C 785.995 -3.47817 -6.12078 0
M  V30 8612 C 786.705 -3.39414 -4.77697 0
M  V30 8613 N 786.655 -2.04615 -4.15333 0
M  V30 8614 H 789.494 -3.41248 -7.98759 0
M  V30 8615 H 789.766 -2.5837 -6.41742 0
M  V30 8616 H 788.898 -5.02657 -6.42673 0
M  V30 8617 P 784.935 -6.144 -6.45285 0
M  V30 8618 O 784.715 -7.54673 -6.86199 0
M  V30 8619 O 784.145 -5.12391 -7.179 0
M  V30 8620 O 784.685 -5.99158 -4.88404 0
M  V30 8621 C 785.625 -6.60234 -3.96415 0
M  V30 8622 C 784.895 -7.08259 -2.72856 0
M  V30 8623 O 784.685 -5.9427 -1.83651 0
M  V30 8624 C 783.495 -7.64886 -2.9555 0
M  V30 8625 O 783.105 -8.53963 -1.90717 0
M  V30 8626 C 782.615 -6.4116 -2.90739 0
M  V30 8627 C 783.325 -5.55375 -1.86963 0
M  V30 8628 N 783.275 -4.09664 -2.15742 0
M  V30 8629 H 786.114 -7.45574 -4.45629 0
M  V30 8630 H 786.386 -5.86232 -3.67314 0
M  V30 8631 H 785.518 -7.84412 -2.24479 0
M  V30 8632 P 781.555 -8.7635 -1.60911 0
M  V30 8633 O 781.335 -10.1388 -1.11561 0
M  V30 8634 O 780.765 -8.36503 -2.79617 0
M  V30 8635 O 781.305 -7.71806 -0.42951 0
M  V30 8636 C 782.245 -7.67148 0.673689 0
M  V30 8637 C 781.515 -7.33374 1.95559 0
M  V30 8638 O 781.305 -5.88721 2.00726 0
M  V30 8639 C 780.115 -7.92526 2.10483 0
M  V30 8640 O 779.725 -8.02971 3.47653 0
M  V30 8641 C 779.235 -6.89602 1.41652 0
M  V30 8642 C 779.945 -5.59201 1.75185 0
M  V30 8643 N 779.895 -4.58301 0.657969 0
M  V30 8644 C 779.975 -4.79019 -0.692603 0
M  V30 8645 N 779.905 -3.69736 -1.38998 0
M  V30 8646 C 779.755 -2.70474 -0.438135 0
M  V30 8647 C 779.625 -1.30327 -0.538142 0
M  V30 8648 N 779.615 -0.64304 -1.69192 0
M  V30 8649 N 779.505 -0.611027 0.605183 0
M  V30 8650 C 779.515 -1.27002 1.75953 0
M  V30 8651 N 779.635 -2.56038 1.98546 0
M  V30 8652 C 779.755 -3.22681 0.822541 0
M  V30 8653 H 782.734 -8.65116 0.777161 0
M  V30 8654 H 783.006 -6.9022 0.46725 0
M  V30 8655 H 782.138 -7.66548 2.79458 0
M  V30 8656 H 779.483 -5.16165 2.65183 0
M  V30 8657 H 779.203 -7.06433 0.329384 0
M  V30 8658 H 778.212 -6.90926 1.82021 0
M  V30 8659 H 780.046 -8.90873 1.62657 0
M  V30 8660 H 780.087 -5.77785 -1.13874 0
M  V30 8661 H 779.706 -1.15585 -2.57991 0
M  V30 8662 H 779.517 0.382989 -1.69835 0
M  V30 8663 H 779.409 -0.653331 2.64449 0
M  V30 8664 P 778.175 -8.03563 3.84925 0
M  V30 8665 O 777.955 -8.85821 5.0569 0
M  V30 8666 O 777.385 -8.41101 2.65469 0
M  V30 8667 O 777.925 -6.4965 4.18908 0
M  V30 8668 C 778.865 -5.81037 5.05421 0
M  V30 8669 C 778.135 -4.78366 5.89277 0
M  V30 8670 O 777.925 -3.58302 5.08433 0
M  V30 8671 C 776.735 -5.17448 6.36119 0
M  V30 8672 O 776.345 -4.45271 7.53232 0
M  V30 8673 C 775.855 -4.74639 5.19936 0
M  V30 8674 C 776.565 -3.49432 4.70418 0
M  V30 8675 N 776.515 -3.31776 3.22945 0
M  V30 8676 H 779.354 -6.54213 5.71376 0
M  V30 8677 H 779.626 -5.30492 4.44033 0
M  V30 8678 H 778.758 -4.55889 6.76652 0
M  V30 8679 P 774.795 -4.23843 7.83734 0
M  V30 8680 O 774.575 -4.19407 9.29784 0
M  V30 8681 O 774.005 -5.24426 7.09156 0
M  V30 8682 O 774.545 -2.7935 7.20758 0
M  V30 8683 C 775.485 -1.7299 7.50419 0
M  V30 8684 C 774.755 -0.406376 7.57911 0
M  V30 8685 O 774.545 0.0897726 6.21935 0
M  V30 8686 C 773.355 -0.447224 8.1878 0
M  V30 8687 O 772.965 0.825065 8.71101 0
M  V30 8688 C 772.475 -0.783801 6.99623 0
M  V30 8689 C 773.185 -0.0619192 5.85967 0
M  V30 8690 N 773.135 -0.7859 4.56281 0
M  V30 8691 H 775.974 -1.93423 8.4679 0
M  V30 8692 H 776.246 -1.68181 6.71046 0
M  V30 8693 H 775.378 0.289041 8.15388 0
M  V30 8694 P 771.415 1.17771 8.83182 0
M  V30 8695 O 771.195 2.07206 9.98732 0
M  V30 8696 O 770.625 -0.0743816 8.81969 0
M  V30 8697 O 771.165 1.97652 7.47304 0
M  V30 8698 C 772.105 3.01133 7.08783 0
M  V30 8699 C 771.375 4.12613 6.37049 0
M  V30 8700 O 771.165 3.72827 4.97879 0
M  V30 8701 C 769.975 4.45085 6.88694 0
M  V30 8702 O 769.585 5.7877 6.5624 0
M  V30 8703 C 769.095 3.47817 6.12078 0
M  V30 8704 C 769.805 3.39414 4.77697 0
M  V30 8705 N 769.755 2.04199 4.15538 0
M  V30 8706 H 772.594 3.41248 7.98759 0
M  V30 8707 H 772.866 2.57728 6.42 0
M  V30 8708 H 771.998 5.02657 6.42673 0
M  V30 8709 H 769.343 4.11708 4.08956 0
M  V30 8710 H 769.063 2.49626 6.61679 0
M  V30 8711 H 768.072 3.8662 6.00862 0
M  V30 8712 H 769.906 4.29991 7.97006 0
M  V30 8713 P 768.035 6.144 6.45285 0
M  V30 8714 O 767.815 7.54673 6.86199 0
M  V30 8715 O 767.245 5.12391 7.179 0
M  V30 8716 O 767.785 5.99158 4.88404 0
M  V30 8717 C 768.725 6.60062 3.96313 0
M  V30 8718 C 767.995 7.08259 2.72856 0
M  V30 8719 O 767.785 5.9427 1.83651 0
M  V30 8720 C 766.595 7.65087 2.94749 0
M  V30 8721 O 766.205 8.53963 1.90717 0
M  V30 8722 C 765.715 6.41069 2.90698 0
M  V30 8723 C 766.425 5.5528 1.86931 0
M  V30 8724 N 766.375 4.09575 2.15696 0
M  V30 8725 C 766.225 3.24249 1.08435 0
M  V30 8726 O 766.135 3.63946 -0.0628747 0
M  V30 8727 N 766.185 1.90009 1.39973 0
M  V30 8728 C 766.275 1.34884 2.65614 0
M  V30 8729 C 766.425 2.3145 3.71736 0
M  V30 8730 C 766.475 3.63518 3.44754 0
M  V30 8731 H 769.216 7.45402 4.45526 0
M  V30 8732 H 769.485 5.86062 3.67208 0
M  V30 8733 H 768.618 7.84412 2.24479 0
M  V30 8734 H 765.963 5.73358 0.888409 0
M  V30 8735 H 765.684 5.90877 3.88583 0
M  V30 8736 H 764.692 6.65867 2.58821 0
M  V30 8737 H 766.526 8.16248 3.92006 0
M  V30 8738 H 766.597 4.34551 4.26383 0
M  V30 8739 P 764.656 8.7635 1.60911 0
M  V30 8740 O 764.436 10.1388 1.11561 0
M  V30 8741 O 763.866 8.36503 2.79617 0
M  V30 8742 O 764.406 7.71806 0.42951 0
M  V30 8743 C 765.346 7.67148 -0.673689 0
M  V30 8744 C 764.616 7.33374 -1.95559 0
M  V30 8745 O 764.406 5.88721 -2.00726 0
M  V30 8746 C 763.216 7.92526 -2.10483 0
M  V30 8747 O 762.826 8.02971 -3.47653 0
M  V30 8748 C 762.336 6.89602 -1.41652 0
M  V30 8749 C 763.046 5.59201 -1.75185 0
M  V30 8750 N 762.996 4.58235 -0.662552 0
M  V30 8751 H 765.835 8.65116 -0.777161 0
M  V30 8752 H 766.107 6.90173 -0.474152 0
M  V30 8753 H 765.239 7.66548 -2.79458 0
M  V30 8754 P 761.276 8.03563 -3.84925 0
M  V30 8755 O 761.056 8.85821 -5.0569 0
M  V30 8756 O 760.486 8.41101 -2.65469 0
M  V30 8757 O 761.026 6.4965 -4.18908 0
M  V30 8758 C 761.966 5.80886 -5.05289 0
M  V30 8759 C 761.236 4.78366 -5.89277 0
M  V30 8760 O 761.026 3.58302 -5.08433 0
M  V30 8761 C 759.836 5.16748 -6.36559 0
M  V30 8762 O 759.446 4.45271 -7.53232 0
M  V30 8763 C 758.956 4.74572 -5.19863 0
M  V30 8764 C 759.666 3.49373 -4.70338 0
M  V30 8765 N 759.616 3.31704 -3.22876 0
M  V30 8766 C 759.466 2.03326 -2.74871 0
M  V30 8767 O 759.376 1.06486 -3.48076 0
M  V30 8768 N 759.426 1.91838 -1.37456 0
M  V30 8769 C 759.516 2.94295 -0.462035 0
M  V30 8770 C 759.666 4.25064 -1.05249 0
M  V30 8771 C 759.716 4.40214 -2.39192 0
M  V30 8772 H 762.457 6.54063 -5.71245 0
M  V30 8773 H 762.726 5.30339 -4.43905 0
M  V30 8774 H 761.859 4.55889 -6.76652 0
M  V30 8775 H 759.204 2.6167 -5.17842 0
M  V30 8776 H 758.925 5.52155 -4.41878 0
M  V30 8777 H 757.933 4.51918 -5.53297 0
M  V30 8778 H 759.767 6.25055 -6.55162 0
M  V30 8779 H 759.838 5.39798 -2.81523 0
M  V30 8780 P 757.896 4.23843 -7.83734 0
M  V30 8781 O 757.676 4.19407 -9.29784 0
M  V30 8782 O 757.106 5.24426 -7.09156 0
M  V30 8783 O 757.646 2.7935 -7.20758 0
M  V30 8784 C 758.586 1.7299 -7.50419 0
M  V30 8785 C 757.856 0.406376 -7.57911 0
M  V30 8786 O 757.646 -0.0897726 -6.21935 0
M  V30 8787 C 756.456 0.447224 -8.1878 0
M  V30 8788 O 756.066 -0.825065 -8.71101 0
M  V30 8789 C 755.576 0.783801 -6.99623 0
M  V30 8790 C 756.286 0.0619192 -5.85967 0
M  V30 8791 N 756.236 0.790462 -4.56202 0
M  V30 8792 H 759.075 1.93423 -8.4679 0
M  V30 8793 H 759.347 1.68852 -6.70877 0
M  V30 8794 H 758.479 -0.289041 -8.15388 0
M  V30 8795 H 755.824 -0.927006 -5.72848 0
M  V30 8796 H 755.544 1.86973 -6.82036 0
M  V30 8797 H 754.553 0.403953 -7.13357 0
M  V30 8798 H 756.387 1.20599 -8.97534 0
M  V30 8799 P 754.516 -1.17771 -8.83182 0
M  V30 8800 O 754.296 -2.07206 -9.98732 0
M  V30 8801 O 753.726 0.0743816 -8.81969 0
M  V30 8802 O 754.266 -1.97652 -7.47304 0
M  V30 8803 C 755.206 -3.01133 -7.08783 0
M  V30 8804 C 754.476 -4.12613 -6.37049 0
M  V30 8805 O 754.266 -3.72827 -4.97879 0
M  V30 8806 C 753.076 -4.45085 -6.88694 0
M  V30 8807 O 752.686 -5.7877 -6.5624 0
M  V30 8808 C 752.196 -3.47817 -6.12078 0
M  V30 8809 C 752.906 -3.39414 -4.77697 0
M  V30 8810 N 752.856 -2.04199 -4.15538 0
M  V30 8811 C 752.936 -0.821545 -4.76977 0
M  V30 8812 N 752.866 0.1794 -3.94592 0
M  V30 8813 C 752.716 -0.419121 -2.70776 0
M  V30 8814 C 752.586 0.109072 -1.40577 0
M  V30 8815 N 752.576 1.4104 -1.1344 0
M  V30 8816 N 752.466 -0.764381 -0.39411 0
M  V30 8817 C 752.476 -2.06587 -0.664135 0
M  V30 8818 N 752.596 -2.67948 -1.82153 0
M  V30 8819 C 752.716 -1.77942 -2.8147 0
M  V30 8820 H 755.695 -3.41248 -7.98759 0
M  V30 8821 H 755.967 -2.57728 -6.42 0
M  V30 8822 H 755.099 -5.02657 -6.42673 0
M  V30 8823 H 752.444 -4.11708 -4.08956 0
M  V30 8824 H 752.164 -2.49626 -6.61679 0
M  V30 8825 H 751.173 -3.8662 -6.00862 0
M  V30 8826 H 753.007 -4.29991 -7.97006 0
M  V30 8827 H 753.048 -0.702451 -5.84696 0
M  V30 8828 H 752.667 2.09647 -1.89651 0
M  V30 8829 H 752.478 1.73358 -0.160575 0
M  V30 8830 H 752.37 -2.71695 0.195838 0
M  V30 8831 P 751.136 -6.144 -6.45285 0
M  V30 8832 O 750.916 -7.54673 -6.86199 0
M  V30 8833 O 750.346 -5.12391 -7.179 0
M  V30 8834 O 750.886 -5.99158 -4.88404 0
M  V30 8835 C 751.826 -6.60234 -3.96415 0
M  V30 8836 C 751.096 -7.08259 -2.72856 0
M  V30 8837 O 750.886 -5.9427 -1.83651 0
M  V30 8838 C 749.696 -7.64886 -2.9555 0
M  V30 8839 O 749.306 -8.53963 -1.90717 0
M  V30 8840 C 748.816 -6.4116 -2.90739 0
M  V30 8841 C 749.526 -5.55375 -1.86963 0
M  V30 8842 N 749.476 -4.09664 -2.15742 0
M  V30 8843 H 752.315 -7.45574 -4.45629 0
M  V30 8844 H 752.587 -5.86232 -3.67314 0
M  V30 8845 H 751.719 -7.84412 -2.24479 0
M  V30 8846 P 747.756 -8.7635 -1.60911 0
M  V30 8847 O 747.536 -10.1388 -1.11561 0
M  V30 8848 O 746.966 -8.36503 -2.79617 0
M  V30 8849 O 747.506 -7.71806 -0.42951 0
M  V30 8850 C 748.446 -7.66948 0.673514 0
M  V30 8851 C 747.716 -7.33374 1.95559 0
M  V30 8852 O 747.506 -5.88721 2.00726 0
M  V30 8853 C 746.316 -7.92218 2.1125 0
M  V30 8854 O 745.926 -8.02971 3.47653 0
M  V30 8855 C 745.436 -6.89504 1.41631 0
M  V30 8856 C 746.146 -5.59106 1.75155 0
M  V30 8857 N 746.096 -4.58136 0.662409 0
M  V30 8858 C 745.946 -3.26059 1.02863 0
M  V30 8859 O 745.856 -2.90743 2.19009 0
M  V30 8860 N 745.906 -2.35995 -0.0155585 0
M  V30 8861 C 745.996 -2.65248 -1.35603 0
M  V30 8862 C 746.146 -4.05747 -1.64698 0
M  V30 8863 C 746.196 -4.96734 -0.652411 0
M  V30 8864 H 748.937 -8.64917 0.776982 0
M  V30 8865 H 749.206 -6.89974 0.474015 0
M  V30 8866 H 748.339 -7.66548 2.79458 0
M  V30 8867 H 745.684 -5.16076 2.65138 0
M  V30 8868 H 745.405 -7.06433 0.329384 0
M  V30 8869 H 744.413 -6.90829 1.81996 0
M  V30 8870 H 746.247 -8.90774 1.62639 0
M  V30 8871 H 746.318 -6.02181 -0.895285 0
M  V30 8872 P 744.376 -8.03563 3.84925 0
M  V30 8873 O 744.156 -8.85821 5.0569 0
M  V30 8874 O 743.586 -8.41101 2.65469 0
M  V30 8875 O 744.126 -6.4965 4.18908 0
M  V30 8876 C 745.066 -5.81037 5.05421 0
M  V30 8877 C 744.336 -4.78366 5.89277 0
M  V30 8878 O 744.126 -3.58302 5.08433 0
M  V30 8879 C 742.936 -5.17448 6.36119 0
M  V30 8880 O 742.546 -4.45271 7.53232 0
M  V30 8881 C 742.056 -4.74639 5.19936 0
M  V30 8882 C 742.766 -3.49432 4.70418 0
M  V30 8883 N 742.716 -3.31776 3.22945 0
M  V30 8884 H 745.555 -6.54213 5.71376 0
M  V30 8885 H 745.827 -5.30492 4.44033 0
M  V30 8886 H 744.959 -4.55889 6.76652 0
M  V30 8887 P 740.996 -4.23843 7.83734 0
M  V30 8888 O 740.776 -4.19407 9.29784 0
M  V30 8889 O 740.206 -5.24426 7.09156 0
M  V30 8890 O 740.746 -2.7935 7.20758 0
M  V30 8891 C 741.686 -1.72945 7.50224 0
M  V30 8892 C 740.956 -0.406376 7.57911 0
M  V30 8893 O 740.746 0.0897726 6.21935 0
M  V30 8894 C 739.556 -0.438983 8.18724 0
M  V30 8895 O 739.166 0.825065 8.71101 0
M  V30 8896 C 738.676 -0.783689 6.99524 0
M  V30 8897 C 739.386 -0.0619086 5.85867 0
M  V30 8898 N 739.336 -0.78573 4.56183 0
M  V30 8899 C 739.186 -0.0292889 3.41887 0
M  V30 8900 O 739.096 1.18445 3.4419 0
M  V30 8901 N 739.146 -0.744061 2.23964 0
M  V30 8902 C 739.236 -2.10932 2.10362 0
M  V30 8903 O 739.186 -2.64117 0.98825 0
M  V30 8904 C 739.386 -2.8202 3.34994 0
M  V30 8905 C 739.496 -4.31095 3.25037 0
M  V30 8906 C 739.436 -2.15547 4.52261 0
M  V30 8907 H 742.177 -1.93379 8.46595 0
M  V30 8908 H 742.446 -1.68132 6.70852 0
M  V30 8909 H 741.579 0.289041 8.15388 0
M  V30 8910 H 738.924 0.926847 5.72749 0
M  V30 8911 H 738.645 -1.86973 6.82036 0
M  V30 8912 H 737.653 -0.403896 7.13257 0
M  V30 8913 H 739.487 -1.20585 8.97435 0
M  V30 8914 H 739.558 -2.71231 5.45042 0
M  V30 8915 H 738.528 -4.76966 3.49992 0
M  V30 8916 H 740.265 -4.67047 3.95024 0
M  V30 8917 H 739.777 -4.58996 2.22312 0
M  V30 8918 H 739.041 -0.214893 1.39758 0
M  V30 8919 P 737.616 1.17771 8.83182 0
M  V30 8920 O 737.396 2.07206 9.98732 0
M  V30 8921 O 736.826 -0.0743816 8.81969 0
M  V30 8922 O 737.366 1.97652 7.47304 0
M  V30 8923 C 738.306 3.01133 7.08783 0
M  V30 8924 C 737.576 4.12613 6.37049 0
M  V30 8925 O 737.366 3.72827 4.97879 0
M  V30 8926 C 736.176 4.45085 6.88694 0
M  V30 8927 O 735.786 5.7877 6.5624 0
M  V30 8928 C 735.296 3.47817 6.12078 0
M  V30 8929 C 736.006 3.39414 4.77697 0
M  V30 8930 N 735.956 2.04615 4.15333 0
M  V30 8931 H 738.795 3.41248 7.98759 0
M  V30 8932 H 739.067 2.5837 6.41742 0
M  V30 8933 H 738.199 5.02657 6.42673 0
M  V30 8934 P 734.236 6.144 6.45285 0
M  V30 8935 O 734.016 7.54673 6.86199 0
M  V30 8936 O 733.446 5.12391 7.179 0
M  V30 8937 O 733.986 5.99158 4.88404 0
M  V30 8938 C 734.926 6.60062 3.96313 0
M  V30 8939 C 734.196 7.08259 2.72856 0
M  V30 8940 O 733.986 5.9427 1.83651 0
M  V30 8941 C 732.796 7.65087 2.94749 0
M  V30 8942 O 732.406 8.53963 1.90717 0
M  V30 8943 C 731.916 6.41069 2.90698 0
M  V30 8944 C 732.626 5.5528 1.86931 0
M  V30 8945 N 732.576 4.09575 2.15696 0
M  V30 8946 C 732.426 3.24249 1.08435 0
M  V30 8947 O 732.336 3.63946 -0.0628747 0
M  V30 8948 N 732.386 1.90009 1.39973 0
M  V30 8949 C 732.476 1.34884 2.65614 0
M  V30 8950 C 732.626 2.3145 3.71736 0
M  V30 8951 C 732.676 3.63518 3.44754 0
M  V30 8952 H 735.417 7.45402 4.45526 0
M  V30 8953 H 735.686 5.86062 3.67208 0
M  V30 8954 H 734.819 7.84412 2.24479 0
M  V30 8955 H 732.164 5.73358 0.888409 0
M  V30 8956 H 731.885 5.90877 3.88583 0
M  V30 8957 H 730.893 6.65867 2.58821 0
M  V30 8958 H 732.727 8.16248 3.92006 0
M  V30 8959 H 732.798 4.34551 4.26383 0
M  V30 8960 P 730.856 8.7635 1.60911 0
M  V30 8961 O 730.636 10.1388 1.11561 0
M  V30 8962 O 730.066 8.36503 2.79617 0
M  V30 8963 O 730.606 7.71806 0.42951 0
M  V30 8964 C 731.546 7.67148 -0.673689 0
M  V30 8965 C 730.816 7.33374 -1.95559 0
M  V30 8966 O 730.606 5.88721 -2.00726 0
M  V30 8967 C 729.416 7.92526 -2.10483 0
M  V30 8968 O 729.026 8.02971 -3.47653 0
M  V30 8969 C 728.536 6.89602 -1.41652 0
M  V30 8970 C 729.246 5.59201 -1.75185 0
M  V30 8971 N 729.196 4.58235 -0.662552 0
M  V30 8972 H 732.035 8.65116 -0.777161 0
M  V30 8973 H 732.307 6.90173 -0.474152 0
M  V30 8974 H 731.439 7.66548 -2.79458 0
M  V30 8975 P 727.476 8.03563 -3.84925 0
M  V30 8976 O 727.256 8.85821 -5.0569 0
M  V30 8977 O 726.686 8.41101 -2.65469 0
M  V30 8978 O 727.226 6.4965 -4.18908 0
M  V30 8979 C 728.166 5.81037 -5.05421 0
M  V30 8980 C 727.436 4.78366 -5.89277 0
M  V30 8981 O 727.226 3.58302 -5.08433 0
M  V30 8982 C 726.036 5.17448 -6.36119 0
M  V30 8983 O 725.646 4.45271 -7.53232 0
M  V30 8984 C 725.156 4.74639 -5.19936 0
M  V30 8985 C 725.866 3.49432 -4.70418 0
M  V30 8986 N 725.816 3.32099 -3.22613 0
M  V30 8987 C 725.896 4.28245 -2.25527 0
M  V30 8988 N 725.826 3.80823 -1.04874 0
M  V30 8989 C 725.676 2.44571 -1.23535 0
M  V30 8990 C 725.546 1.37068 -0.330675 0
M  V30 8991 N 725.536 1.51472 0.990824 0
M  V30 8992 N 725.426 0.138614 -0.848756 0
M  V30 8993 C 725.436 -0.00675923 -2.16999 0
M  V30 8994 N 725.556 0.904372 -3.11122 0
M  V30 8995 C 725.676 2.12707 -2.56212 0
M  V30 8996 H 728.655 6.54213 -5.71376 0
M  V30 8997 H 728.927 5.30936 -4.43503 0
M  V30 8998 H 728.059 4.55889 -6.76652 0
M  V30 8999 H 725.404 2.61715 -5.17932 0
M  V30 9000 H 725.124 5.52155 -4.41878 0
M  V30 9001 H 724.133 4.51981 -5.53374 0
M  V30 9002 H 725.967 6.25124 -6.55234 0
M  V30 9003 H 726.008 5.34372 -2.47488 0
M  V30 9004 H 725.627 2.45153 1.4078 0
M  V30 9005 H 725.438 0.688422 1.59911 0
M  V30 9006 H 725.33 -1.02584 -2.52346 0
M  V30 9007 P 724.096 4.23843 -7.83734 0
M  V30 9008 O 723.876 4.19407 -9.29784 0
M  V30 9009 O 723.306 5.24426 -7.09156 0
M  V30 9010 O 723.846 2.79386 -7.20852 0
M  V30 9011 C 724.786 1.7299 -7.50419 0
M  V30 9012 C 724.056 0.41401 -7.5797 0
M  V30 9013 O 723.846 -0.089787 -6.22035 0
M  V30 9014 C 722.656 0.447224 -8.1878 0
M  V30 9015 O 722.266 -0.825159 -8.71201 0
M  V30 9016 C 721.776 0.783801 -6.99623 0
M  V30 9017 C 722.486 0.0619192 -5.85967 0
M  V30 9018 N 722.436 0.7859 -4.56281 0
M  V30 9019 C 722.286 0.0359258 -3.39981 0
M  V30 9020 O 722.196 -1.19723 -3.49038 0
M  V30 9021 N 722.236 0.869151 -2.14025 0
M  V30 9022 C 722.336 2.01207 -2.14363 0
M  V30 9023 N 722.286 2.58978 -0.954287 0
M  V30 9024 C 722.486 2.80817 -3.32215 0
M  V30 9025 C 722.536 2.13785 -4.50884 0
M  V30 9026 H 725.276 1.93401 -8.46693 0
M  V30 9027 H 725.546 1.68181 -6.71046 0
M  V30 9028 H 724.679 -0.289076 -8.15488 0
M  V30 9029 H 722.024 -0.927166 -5.72947 0
M  V30 9030 H 721.744 1.87 -6.82132 0
M  V30 9031 H 720.753 0.404009 -7.13457 0
M  V30 9032 H 722.587 1.20599 -8.97534 0
M  V30 9033 H 722.659 2.70295 -5.43162 0
M  V30 9034 H 722.557 3.89465 -3.27406 0
M  V30 9035 H 722.169 2.01616 -0.107046 0
M  V30 9036 H 722.365 3.61403 -0.873101 0
M  V30 9037 P 720.716 -1.17771 -8.83182 0
M  V30 9038 O 720.496 -2.07206 -9.98732 0
M  V30 9039 O 719.926 0.0743816 -8.81969 0
M  V30 9040 O 720.466 -1.97652 -7.47304 0
M  V30 9041 C 721.406 -3.01055 -7.08599 0
M  V30 9042 C 720.676 -4.12613 -6.37049 0
M  V30 9043 O 720.466 -3.72827 -4.97879 0
M  V30 9044 C 719.276 -4.45719 -6.88164 0
M  V30 9045 O 718.886 -5.7877 -6.5624 0
M  V30 9046 C 718.396 -3.47768 -6.11991 0
M  V30 9047 C 719.106 -3.39356 -4.77615 0
M  V30 9048 N 719.056 -2.04571 -4.15244 0
M  V30 9049 C 718.906 -1.98587 -2.78314 0
M  V30 9050 O 718.816 -2.98134 -2.08835 0
M  V30 9051 N 718.866 -0.714467 -2.24925 0
M  V30 9052 C 718.956 0.470001 -2.94169 0
M  V30 9053 C 719.106 0.312541 -4.36783 0
M  V30 9054 C 719.156 -0.914512 -4.92583 0
M  V30 9055 H 721.897 -3.41169 -7.98575 0
M  V30 9056 H 722.166 -2.58295 -6.41556 0
M  V30 9057 H 721.299 -5.02657 -6.42673 0
M  V30 9058 H 718.644 -4.11637 -4.08885 0
M  V30 9059 H 718.365 -2.49626 -6.61679 0
M  V30 9060 H 717.373 -3.86566 -6.00778 0
M  V30 9061 H 719.207 -4.29943 -7.96918 0
M  V30 9062 H 719.278 -1.00937 -6.00374 0
M  V30 9063 P 717.336 -6.144 -6.45285 0
M  V30 9064 O 717.116 -7.54673 -6.86199 0
M  V30 9065 O 716.546 -5.12391 -7.179 0
M  V30 9066 O 717.086 -5.99158 -4.88404 0
M  V30 9067 C 718.026 -6.60234 -3.96415 0
M  V30 9068 C 717.296 -7.08259 -2.72856 0
M  V30 9069 O 717.086 -5.9427 -1.83651 0
M  V30 9070 C 715.896 -7.64886 -2.9555 0
M  V30 9071 O 715.506 -8.53963 -1.90717 0
M  V30 9072 C 715.016 -6.4116 -2.90739 0
M  V30 9073 C 715.726 -5.55375 -1.86963 0
M  V30 9074 N 715.676 -4.09448 -2.16152 0
M  V30 9075 H 718.515 -7.45574 -4.45629 0
M  V30 9076 H 718.787 -5.85864 -3.679 0
M  V30 9077 H 717.919 -7.84412 -2.24479 0
M  V30 9078 H 715.264 -5.73457 -0.888562 0
M  V30 9079 H 714.984 -5.90877 -3.88583 0
M  V30 9080 H 713.993 -6.6596 -2.58858 0
M  V30 9081 H 715.827 -8.16339 -3.92049 0
M  V30 9082 P 713.956 -8.7635 -1.60911 0
M  V30 9083 O 713.736 -10.1388 -1.11561 0
M  V30 9084 O 713.166 -8.36503 -2.79617 0
M  V30 9085 O 713.706 -7.71806 -0.42951 0
M  V30 9086 C 714.646 -7.66948 0.673514 0
M  V30 9087 C 713.916 -7.33374 1.95559 0
M  V30 9088 O 713.706 -5.88721 2.00726 0
M  V30 9089 C 712.516 -7.92218 2.1125 0
M  V30 9090 O 712.126 -8.02971 3.47653 0
M  V30 9091 C 711.636 -6.89504 1.41631 0
M  V30 9092 C 712.346 -5.59106 1.75155 0
M  V30 9093 N 712.296 -4.58136 0.662409 0
M  V30 9094 C 712.146 -3.26059 1.02863 0
M  V30 9095 O 712.056 -2.90743 2.19009 0
M  V30 9096 N 712.106 -2.35995 -0.0155585 0
M  V30 9097 C 712.196 -2.65248 -1.35603 0
M  V30 9098 C 712.346 -4.05747 -1.64698 0
M  V30 9099 C 712.396 -4.96734 -0.652411 0
M  V30 9100 H 715.137 -8.64917 0.776982 0
M  V30 9101 H 715.406 -6.89974 0.474015 0
M  V30 9102 H 714.539 -7.66548 2.79458 0
M  V30 9103 H 711.884 -5.16076 2.65138 0
M  V30 9104 H 711.605 -7.06433 0.329384 0
M  V30 9105 H 710.613 -6.90829 1.81996 0
M  V30 9106 H 712.447 -8.90774 1.62639 0
M  V30 9107 H 712.518 -6.02181 -0.895285 0
M  V30 9108 P 710.576 -8.03563 3.84925 0
M  V30 9109 O 710.356 -8.85821 5.0569 0
M  V30 9110 O 709.786 -8.41101 2.65469 0
M  V30 9111 O 710.326 -6.4965 4.18908 0
M  V30 9112 C 711.266 -5.81037 5.05421 0
M  V30 9113 C 710.536 -4.78366 5.89277 0
M  V30 9114 O 710.326 -3.58302 5.08433 0
M  V30 9115 C 709.136 -5.17448 6.36119 0
M  V30 9116 O 708.746 -4.45271 7.53232 0
M  V30 9117 C 708.256 -4.74639 5.19936 0
M  V30 9118 C 708.966 -3.49432 4.70418 0
M  V30 9119 N 708.916 -3.32099 3.22613 0
M  V30 9120 H 711.755 -6.54213 5.71376 0
M  V30 9121 H 712.027 -5.30936 4.43503 0
M  V30 9122 H 711.159 -4.55889 6.76652 0
M  V30 9123 H 708.504 -2.61715 5.17932 0
M  V30 9124 H 708.224 -5.52155 4.41878 0
M  V30 9125 H 707.233 -4.51981 5.53374 0
M  V30 9126 H 709.067 -6.25124 6.55234 0
M  V30 9127 P 707.196 -4.23843 7.83734 0
M  V30 9128 O 706.976 -4.19407 9.29784 0
M  V30 9129 O 706.406 -5.24426 7.09156 0
M  V30 9130 O 706.946 -2.7935 7.20758 0
M  V30 9131 C 707.886 -1.72945 7.50224 0
M  V30 9132 C 707.156 -0.406376 7.57911 0
M  V30 9133 O 706.946 0.0897726 6.21935 0
M  V30 9134 C 705.756 -0.438983 8.18724 0
M  V30 9135 O 705.366 0.825065 8.71101 0
M  V30 9136 C 704.876 -0.783689 6.99524 0
M  V30 9137 C 705.586 -0.0619086 5.85867 0
M  V30 9138 N 705.536 -0.78573 4.56183 0
M  V30 9139 C 705.386 -0.0292889 3.41887 0
M  V30 9140 O 705.296 1.18445 3.4419 0
M  V30 9141 N 705.346 -0.744061 2.23964 0
M  V30 9142 C 705.436 -2.10932 2.10362 0
M  V30 9143 O 705.386 -2.64117 0.98825 0
M  V30 9144 C 705.586 -2.8202 3.34994 0
M  V30 9145 C 705.696 -4.31095 3.25037 0
M  V30 9146 C 705.636 -2.15547 4.52261 0
M  V30 9147 H 708.377 -1.93379 8.46595 0
M  V30 9148 H 708.646 -1.68132 6.70852 0
M  V30 9149 H 707.779 0.289041 8.15388 0
M  V30 9150 H 705.124 0.926847 5.72749 0
M  V30 9151 H 704.845 -1.86973 6.82036 0
M  V30 9152 H 703.853 -0.403896 7.13257 0
M  V30 9153 H 705.687 -1.20585 8.97435 0
M  V30 9154 H 705.758 -2.71231 5.45042 0
M  V30 9155 H 704.728 -4.76966 3.49992 0
M  V30 9156 H 706.465 -4.67047 3.95024 0
M  V30 9157 H 705.977 -4.58996 2.22312 0
M  V30 9158 H 705.241 -0.214893 1.39758 0
M  V30 9159 P 703.816 1.17771 8.83182 0
M  V30 9160 O 703.596 2.07206 9.98732 0
M  V30 9161 O 703.026 -0.0743816 8.81969 0
M  V30 9162 O 703.566 1.97652 7.47304 0
M  V30 9163 C 704.506 3.01133 7.08783 0
M  V30 9164 C 703.776 4.12613 6.37049 0
M  V30 9165 O 703.566 3.72827 4.97879 0
M  V30 9166 C 702.376 4.45085 6.88694 0
M  V30 9167 O 701.986 5.7877 6.5624 0
M  V30 9168 C 701.496 3.47817 6.12078 0
M  V30 9169 C 702.206 3.39414 4.77697 0
M  V30 9170 N 702.156 2.04615 4.15333 0
M  V30 9171 H 704.995 3.41248 7.98759 0
M  V30 9172 H 705.267 2.5837 6.41742 0
M  V30 9173 H 704.399 5.02657 6.42673 0
M  V30 9174 P 700.436 6.144 6.45285 0
M  V30 9175 O 700.216 7.54673 6.86199 0
M  V30 9176 O 699.646 5.12391 7.179 0
M  V30 9177 O 700.186 5.99158 4.88404 0
M  V30 9178 C 701.126 6.60234 3.96415 0
M  V30 9179 C 700.396 7.08259 2.72856 0
M  V30 9180 O 700.186 5.9427 1.83651 0
M  V30 9181 C 698.996 7.64886 2.9555 0
M  V30 9182 O 698.606 8.53963 1.90717 0
M  V30 9183 C 698.116 6.4116 2.90739 0
M  V30 9184 C 698.826 5.55375 1.86963 0
M  V30 9185 N 698.776 4.09664 2.15742 0
M  V30 9186 H 701.615 7.45574 4.45629 0
M  V30 9187 H 701.887 5.86232 3.67314 0
M  V30 9188 H 701.019 7.84412 2.24479 0
M  V30 9189 P 697.056 8.7635 1.60911 0
M  V30 9190 O 696.836 10.1388 1.11561 0
M  V30 9191 O 696.266 8.36503 2.79617 0
M  V30 9192 O 696.806 7.71806 0.42951 0
M  V30 9193 C 697.746 7.67148 -0.673689 0
M  V30 9194 C 697.016 7.33374 -1.95559 0
M  V30 9195 O 696.806 5.88721 -2.00726 0
M  V30 9196 C 695.616 7.92526 -2.10483 0
M  V30 9197 O 695.226 8.02971 -3.47653 0
M  V30 9198 C 694.736 6.89602 -1.41652 0
M  V30 9199 C 695.446 5.59201 -1.75185 0
M  V30 9200 N 695.396 4.58235 -0.662552 0
M  V30 9201 H 698.235 8.65116 -0.777161 0
M  V30 9202 H 698.507 6.90173 -0.474152 0
M  V30 9203 H 697.639 7.66548 -2.79458 0
M  V30 9204 P 693.676 8.03563 -3.84925 0
M  V30 9205 O 693.456 8.85821 -5.0569 0
M  V30 9206 O 692.886 8.41101 -2.65469 0
M  V30 9207 O 693.426 6.4965 -4.18908 0
M  V30 9208 C 694.366 5.80886 -5.05289 0
M  V30 9209 C 693.636 4.78366 -5.89277 0
M  V30 9210 O 693.426 3.58302 -5.08433 0
M  V30 9211 C 692.236 5.16748 -6.36559 0
M  V30 9212 O 691.846 4.45271 -7.53232 0
M  V30 9213 C 691.356 4.74572 -5.19863 0
M  V30 9214 C 692.066 3.49373 -4.70338 0
M  V30 9215 N 692.016 3.31704 -3.22876 0
M  V30 9216 C 691.866 2.03326 -2.74871 0
M  V30 9217 O 691.776 1.06486 -3.48076 0
M  V30 9218 N 691.826 1.91838 -1.37456 0
M  V30 9219 C 691.916 2.94295 -0.462035 0
M  V30 9220 O 691.866 2.71763 0.752928 0
M  V30 9221 C 692.066 4.25064 -1.05249 0
M  V30 9222 C 692.176 5.39815 -0.095697 0
M  V30 9223 C 692.116 4.40214 -2.39192 0
M  V30 9224 H 694.857 6.54063 -5.71245 0
M  V30 9225 H 695.126 5.30339 -4.43905 0
M  V30 9226 H 694.259 4.55889 -6.76652 0
M  V30 9227 H 691.604 2.6167 -5.17842 0
M  V30 9228 H 691.325 5.52155 -4.41878 0
M  V30 9229 H 690.333 4.51918 -5.53297 0
M  V30 9230 H 692.167 6.25055 -6.55162 0
M  V30 9231 H 692.238 5.39798 -2.81523 0
M  V30 9232 H 691.208 5.91593 -0.0279582 0
M  V30 9233 H 692.945 6.10038 -0.450573 0
M  V30 9234 H 692.457 5.02007 0.89937 0
M  V30 9235 H 691.721 0.995326 -1.00435 0
M  V30 9236 P 690.296 4.23843 -7.83734 0
M  V30 9237 O 690.076 4.19407 -9.29784 0
M  V30 9238 O 689.506 5.24426 -7.09156 0
M  V30 9239 O 690.046 2.7935 -7.20758 0
M  V30 9240 C 690.986 1.72945 -7.50224 0
M  V30 9241 C 690.256 0.406376 -7.57911 0
M  V30 9242 O 690.046 -0.0897726 -6.21935 0
M  V30 9243 C 688.856 0.438983 -8.18724 0
M  V30 9244 O 688.466 -0.825065 -8.71101 0
M  V30 9245 C 687.976 0.783689 -6.99524 0
M  V30 9246 C 688.686 0.0619086 -5.85867 0
M  V30 9247 N 688.636 0.78573 -4.56183 0
M  V30 9248 C 688.486 0.0292889 -3.41887 0
M  V30 9249 O 688.396 -1.18445 -3.4419 0
M  V30 9250 N 688.446 0.744061 -2.23964 0
M  V30 9251 C 688.536 2.10932 -2.10362 0
M  V30 9252 O 688.486 2.64117 -0.98825 0
M  V30 9253 C 688.686 2.8202 -3.34994 0
M  V30 9254 C 688.796 4.31095 -3.25037 0
M  V30 9255 C 688.736 2.15547 -4.52261 0
M  V30 9256 H 691.477 1.93379 -8.46595 0
M  V30 9257 H 691.746 1.68132 -6.70852 0
M  V30 9258 H 690.879 -0.289041 -8.15388 0
M  V30 9259 H 688.224 -0.926847 -5.72749 0
M  V30 9260 H 687.945 1.86973 -6.82036 0
M  V30 9261 H 686.953 0.403896 -7.13257 0
M  V30 9262 H 688.787 1.20585 -8.97435 0
M  V30 9263 H 688.858 2.71231 -5.45042 0
M  V30 9264 H 687.828 4.76966 -3.49992 0
M  V30 9265 H 689.565 4.67047 -3.95024 0
M  V30 9266 H 689.077 4.58996 -2.22312 0
M  V30 9267 H 688.341 0.214893 -1.39758 0
M  V30 9268 P 686.916 -1.17771 -8.83182 0
M  V30 9269 O 686.696 -2.07206 -9.98732 0
M  V30 9270 O 686.126 0.0743816 -8.81969 0
M  V30 9271 O 686.666 -1.97652 -7.47304 0
M  V30 9272 C 687.606 -3.01055 -7.08599 0
M  V30 9273 C 686.876 -4.12613 -6.37049 0
M  V30 9274 O 686.666 -3.72827 -4.97879 0
M  V30 9275 C 685.476 -4.45719 -6.88164 0
M  V30 9276 O 685.086 -5.7877 -6.5624 0
M  V30 9277 C 684.596 -3.47768 -6.11991 0
M  V30 9278 C 685.306 -3.39356 -4.77615 0
M  V30 9279 N 685.256 -2.04571 -4.15244 0
M  V30 9280 C 685.106 -1.98587 -2.78314 0
M  V30 9281 O 685.016 -2.98134 -2.08835 0
M  V30 9282 N 685.066 -0.714467 -2.24925 0
M  V30 9283 C 685.156 0.470001 -2.94169 0
M  V30 9284 O 685.106 1.55587 -2.35195 0
M  V30 9285 C 685.306 0.312541 -4.36783 0
M  V30 9286 C 685.416 1.57711 -5.16352 0
M  V30 9287 C 685.356 -0.914512 -4.92583 0
M  V30 9288 H 688.097 -3.41169 -7.98575 0
M  V30 9289 H 688.366 -2.58295 -6.41556 0
M  V30 9290 H 687.499 -5.02657 -6.42673 0
M  V30 9291 H 684.844 -4.11637 -4.08885 0
M  V30 9292 H 684.565 -2.49626 -6.61679 0
M  V30 9293 H 683.573 -3.86566 -6.00778 0
M  V30 9294 H 685.407 -4.29943 -7.96918 0
M  V30 9295 H 685.478 -1.00937 -6.00374 0
M  V30 9296 H 684.448 1.80153 -5.63503 0
M  V30 9297 H 686.185 1.4566 -5.94104 0
M  V30 9298 H 685.697 2.40664 -4.49645 0
M  V30 9299 H 684.961 -0.647622 -1.25697 0
M  V30 9300 P 683.536 -6.144 -6.45285 0
M  V30 9301 O 683.316 -7.54673 -6.86199 0
M  V30 9302 O 682.746 -5.12391 -7.179 0
M  V30 9303 O 683.286 -5.99158 -4.88404 0
M  V30 9304 C 684.226 -6.60234 -3.96415 0
M  V30 9305 C 683.496 -7.08259 -2.72856 0
M  V30 9306 O 683.286 -5.9427 -1.83651 0
M  V30 9307 C 682.096 -7.64886 -2.9555 0
M  V30 9308 O 681.706 -8.53963 -1.90717 0
M  V30 9309 C 681.216 -6.4116 -2.90739 0
M  V30 9310 C 681.926 -5.55375 -1.86963 0
M  V30 9311 N 681.876 -4.09448 -2.16152 0
M  V30 9312 H 684.715 -7.45574 -4.45629 0
M  V30 9313 H 684.987 -5.85864 -3.679 0
M  V30 9314 H 684.119 -7.84412 -2.24479 0
M  V30 9315 H 681.464 -5.73457 -0.888562 0
M  V30 9316 H 681.184 -5.90877 -3.88583 0
M  V30 9317 H 680.193 -6.6596 -2.58858 0
M  V30 9318 H 682.027 -8.16339 -3.92049 0
M  V30 9319 P 680.156 -8.7635 -1.60911 0
M  V30 9320 O 679.936 -10.1388 -1.11561 0
M  V30 9321 O 679.366 -8.36503 -2.79617 0
M  V30 9322 O 679.906 -7.71806 -0.42951 0
M  V30 9323 C 680.846 -7.67148 0.673689 0
M  V30 9324 C 680.116 -7.33374 1.95559 0
M  V30 9325 O 679.906 -5.88721 2.00726 0
M  V30 9326 C 678.716 -7.92526 2.10483 0
M  V30 9327 O 678.326 -8.02971 3.47653 0
M  V30 9328 C 677.836 -6.89602 1.41652 0
M  V30 9329 C 678.546 -5.59201 1.75185 0
M  V30 9330 N 678.496 -4.58235 0.662552 0
M  V30 9331 H 681.335 -8.65116 0.777161 0
M  V30 9332 H 681.607 -6.90173 0.474152 0
M  V30 9333 H 680.739 -7.66548 2.79458 0
M  V30 9334 P 676.776 -8.03563 3.84925 0
M  V30 9335 O 676.556 -8.85821 5.0569 0
M  V30 9336 O 675.986 -8.41101 2.65469 0
M  V30 9337 O 676.526 -6.4965 4.18908 0
M  V30 9338 C 677.466 -5.81037 5.05421 0
M  V30 9339 C 676.736 -4.78366 5.89277 0
M  V30 9340 O 676.526 -3.58302 5.08433 0
M  V30 9341 C 675.336 -5.17448 6.36119 0
M  V30 9342 O 674.946 -4.45271 7.53232 0
M  V30 9343 C 674.456 -4.74639 5.19936 0
M  V30 9344 C 675.166 -3.49432 4.70418 0
M  V30 9345 N 675.116 -3.31776 3.22945 0
M  V30 9346 H 677.955 -6.54213 5.71376 0
M  V30 9347 H 678.227 -5.30492 4.44033 0
M  V30 9348 H 677.359 -4.55889 6.76652 0
M  V30 9349 P 673.396 -4.23843 7.83734 0
M  V30 9350 O 673.176 -4.19407 9.29784 0
M  V30 9351 O 672.606 -5.24426 7.09156 0
M  V30 9352 O 673.146 -2.7935 7.20758 0
M  V30 9353 C 674.086 -1.7299 7.50419 0
M  V30 9354 C 673.356 -0.406376 7.57911 0
M  V30 9355 O 673.146 0.0897726 6.21935 0
M  V30 9356 C 671.956 -0.447224 8.1878 0
M  V30 9357 O 671.566 0.825065 8.71101 0
M  V30 9358 C 671.076 -0.783801 6.99623 0
M  V30 9359 C 671.786 -0.0619192 5.85967 0
M  V30 9360 N 671.736 -0.7859 4.56281 0
M  V30 9361 H 674.575 -1.93423 8.4679 0
M  V30 9362 H 674.847 -1.68181 6.71046 0
M  V30 9363 H 673.979 0.289041 8.15388 0
M  V30 9364 P 670.016 1.17771 8.83182 0
M  V30 9365 O 669.796 2.07206 9.98732 0
M  V30 9366 O 669.226 -0.0743816 8.81969 0
M  V30 9367 O 669.766 1.97652 7.47304 0
M  V30 9368 C 670.706 3.01133 7.08783 0
M  V30 9369 C 669.976 4.12613 6.37049 0
M  V30 9370 O 669.766 3.72827 4.97879 0
M  V30 9371 C 668.576 4.45085 6.88694 0
M  V30 9372 O 668.186 5.7877 6.5624 0
M  V30 9373 C 667.696 3.47817 6.12078 0
M  V30 9374 C 668.406 3.39414 4.77697 0
M  V30 9375 N 668.356 2.04615 4.15333 0
M  V30 9376 H 671.195 3.41248 7.98759 0
M  V30 9377 H 671.467 2.5837 6.41742 0
M  V30 9378 H 670.599 5.02657 6.42673 0
M  V30 9379 P 666.636 6.144 6.45285 0
M  V30 9380 O 666.416 7.54673 6.86199 0
M  V30 9381 O 665.846 5.12391 7.179 0
M  V30 9382 O 666.386 5.99158 4.88404 0
M  V30 9383 C 667.326 6.60234 3.96415 0
M  V30 9384 C 666.596 7.08259 2.72856 0
M  V30 9385 O 666.386 5.9427 1.83651 0
M  V30 9386 C 665.196 7.64886 2.9555 0
M  V30 9387 O 664.806 8.53963 1.90717 0
M  V30 9388 C 664.316 6.4116 2.90739 0
M  V30 9389 C 665.026 5.55375 1.86963 0
M  V30 9390 N 664.976 4.09448 2.16152 0
M  V30 9391 H 667.815 7.45574 4.45629 0
M  V30 9392 H 668.087 5.85864 3.679 0
M  V30 9393 H 667.219 7.84412 2.24479 0
M  V30 9394 H 664.564 5.73457 0.888562 0
M  V30 9395 H 664.284 5.90877 3.88583 0
M  V30 9396 H 663.293 6.6596 2.58858 0
M  V30 9397 H 665.127 8.16339 3.92049 0
M  V30 9398 P 663.256 8.7635 1.60911 0
M  V30 9399 O 663.036 10.1388 1.11561 0
M  V30 9400 O 662.466 8.36503 2.79617 0
M  V30 9401 O 663.006 7.71806 0.42951 0
M  V30 9402 C 663.946 7.67148 -0.673689 0
M  V30 9403 C 663.216 7.33374 -1.95559 0
M  V30 9404 O 663.006 5.88721 -2.00726 0
M  V30 9405 C 661.816 7.92526 -2.10483 0
M  V30 9406 O 661.426 8.02971 -3.47653 0
M  V30 9407 C 660.936 6.89602 -1.41652 0
M  V30 9408 C 661.646 5.59201 -1.75185 0
M  V30 9409 N 661.596 4.58235 -0.662552 0
M  V30 9410 H 664.435 8.65116 -0.777161 0
M  V30 9411 H 664.707 6.90173 -0.474152 0
M  V30 9412 H 663.839 7.66548 -2.79458 0
M  V30 9413 P 659.876 8.03563 -3.84925 0
M  V30 9414 O 659.656 8.85821 -5.0569 0
M  V30 9415 O 659.086 8.41101 -2.65469 0
M  V30 9416 O 659.626 6.4965 -4.18908 0
M  V30 9417 C 660.566 5.81037 -5.05421 0
M  V30 9418 C 659.836 4.78366 -5.89277 0
M  V30 9419 O 659.626 3.58302 -5.08433 0
M  V30 9420 C 658.436 5.17448 -6.36119 0
M  V30 9421 O 658.046 4.45271 -7.53232 0
M  V30 9422 C 657.556 4.74639 -5.19936 0
M  V30 9423 C 658.266 3.49432 -4.70418 0
M  V30 9424 N 658.216 3.31776 -3.22945 0
M  V30 9425 H 661.055 6.54213 -5.71376 0
M  V30 9426 H 661.327 5.30492 -4.44033 0
M  V30 9427 H 660.459 4.55889 -6.76652 0
M  V30 9428 P 656.496 4.23843 -7.83734 0
M  V30 9429 O 656.276 4.19407 -9.29784 0
M  V30 9430 O 655.706 5.24426 -7.09156 0
M  V30 9431 O 656.246 2.7935 -7.20758 0
M  V30 9432 C 657.186 1.7299 -7.50419 0
M  V30 9433 C 656.456 0.406376 -7.57911 0
M  V30 9434 O 656.246 -0.0897726 -6.21935 0
M  V30 9435 C 655.056 0.447224 -8.1878 0
M  V30 9436 O 654.666 -0.825065 -8.71101 0
M  V30 9437 C 654.176 0.783801 -6.99623 0
M  V30 9438 C 654.886 0.0619192 -5.85967 0
M  V30 9439 N 654.836 0.790462 -4.56202 0
M  V30 9440 H 657.675 1.93423 -8.4679 0
M  V30 9441 H 657.947 1.68852 -6.70877 0
M  V30 9442 H 657.079 -0.289041 -8.15388 0
M  V30 9443 H 654.424 -0.927006 -5.72848 0
M  V30 9444 H 654.144 1.86973 -6.82036 0
M  V30 9445 H 653.153 0.403953 -7.13357 0
M  V30 9446 H 654.987 1.20599 -8.97534 0
M  V30 9447 P 653.116 -1.17771 -8.83182 0
M  V30 9448 O 652.896 -2.07206 -9.98732 0
M  V30 9449 O 652.326 0.0743816 -8.81969 0
M  V30 9450 O 652.866 -1.97652 -7.47304 0
M  V30 9451 C 653.806 -3.01055 -7.08599 0
M  V30 9452 C 653.076 -4.12613 -6.37049 0
M  V30 9453 O 652.866 -3.72827 -4.97879 0
M  V30 9454 C 651.676 -4.45719 -6.88164 0
M  V30 9455 O 651.286 -5.7877 -6.5624 0
M  V30 9456 C 650.796 -3.47768 -6.11991 0
M  V30 9457 C 651.506 -3.39356 -4.77615 0
M  V30 9458 N 651.456 -2.04571 -4.15244 0
M  V30 9459 C 651.306 -1.98587 -2.78314 0
M  V30 9460 O 651.216 -2.98134 -2.08835 0
M  V30 9461 N 651.266 -0.714467 -2.24925 0
M  V30 9462 C 651.356 0.470001 -2.94169 0
M  V30 9463 O 651.306 1.55587 -2.35195 0
M  V30 9464 C 651.506 0.312541 -4.36783 0
M  V30 9465 C 651.616 1.57711 -5.16352 0
M  V30 9466 C 651.556 -0.914512 -4.92583 0
M  V30 9467 H 654.297 -3.41169 -7.98575 0
M  V30 9468 H 654.566 -2.58295 -6.41556 0
M  V30 9469 H 653.699 -5.02657 -6.42673 0
M  V30 9470 H 651.044 -4.11637 -4.08885 0
M  V30 9471 H 650.765 -2.49626 -6.61679 0
M  V30 9472 H 649.773 -3.86566 -6.00778 0
M  V30 9473 H 651.607 -4.29943 -7.96918 0
M  V30 9474 H 651.678 -1.00937 -6.00374 0
M  V30 9475 H 650.648 1.80153 -5.63503 0
M  V30 9476 H 652.385 1.4566 -5.94104 0
M  V30 9477 H 651.897 2.40664 -4.49645 0
M  V30 9478 H 651.161 -0.647622 -1.25697 0
M  V30 9479 P 649.736 -6.144 -6.45285 0
M  V30 9480 O 649.516 -7.54673 -6.86199 0
M  V30 9481 O 648.946 -5.12391 -7.179 0
M  V30 9482 O 649.486 -5.99158 -4.88404 0
M  V30 9483 C 650.426 -6.60062 -3.96313 0
M  V30 9484 C 649.696 -7.08259 -2.72856 0
M  V30 9485 O 649.486 -5.9427 -1.83651 0
M  V30 9486 C 648.296 -7.65087 -2.94749 0
M  V30 9487 O 647.906 -8.53963 -1.90717 0
M  V30 9488 C 647.416 -6.41069 -2.90698 0
M  V30 9489 C 648.126 -5.5528 -1.86931 0
M  V30 9490 N 648.076 -4.09575 -2.15696 0
M  V30 9491 C 647.926 -3.24249 -1.08435 0
M  V30 9492 O 647.836 -3.63946 0.0628747 0
M  V30 9493 N 647.886 -1.90009 -1.39973 0
M  V30 9494 C 647.976 -1.34884 -2.65614 0
M  V30 9495 O 647.926 -0.123716 -2.81728 0
M  V30 9496 C 648.126 -2.3145 -3.71736 0
M  V30 9497 C 648.236 -1.75913 -5.10438 0
M  V30 9498 C 648.176 -3.63518 -3.44754 0
M  V30 9499 H 650.917 -7.45402 -4.45526 0
M  V30 9500 H 651.186 -5.86062 -3.67208 0
M  V30 9501 H 650.319 -7.84412 -2.24479 0
M  V30 9502 H 647.664 -5.73358 -0.888409 0
M  V30 9503 H 647.385 -5.90877 -3.88583 0
M  V30 9504 H 646.393 -6.65867 -2.58821 0
M  V30 9505 H 648.227 -8.16248 -3.92006 0
M  V30 9506 H 648.298 -4.34551 -4.26383 0
M  V30 9507 H 647.268 -1.85471 -5.61775 0
M  V30 9508 H 649.005 -2.31364 -5.66257 0
M  V30 9509 H 648.517 -0.695936 -5.05229 0
M  V30 9510 H 647.781 -1.26277 -0.63625 0
M  V30 9511 P 646.356 -8.7635 -1.60911 0
M  V30 9512 O 646.136 -10.1388 -1.11561 0
M  V30 9513 O 645.566 -8.36503 -2.79617 0
M  V30 9514 O 646.106 -7.71806 -0.42951 0
M  V30 9515 C 647.046 -7.66948 0.673514 0
M  V30 9516 C 646.316 -7.33374 1.95559 0
M  V30 9517 O 646.106 -5.88721 2.00726 0
M  V30 9518 C 644.916 -7.92218 2.1125 0
M  V30 9519 O 644.526 -8.02971 3.47653 0
M  V30 9520 C 644.036 -6.89504 1.41631 0
M  V30 9521 C 644.746 -5.59106 1.75155 0
M  V30 9522 N 644.696 -4.58136 0.662409 0
M  V30 9523 C 644.546 -3.26059 1.02863 0
M  V30 9524 O 644.456 -2.90743 2.19009 0
M  V30 9525 N 644.506 -2.35995 -0.0155585 0
M  V30 9526 C 644.596 -2.65248 -1.35603 0
M  V30 9527 C 644.746 -4.05747 -1.64698 0
M  V30 9528 C 644.796 -4.96734 -0.652411 0
M  V30 9529 H 647.537 -8.64917 0.776982 0
M  V30 9530 H 647.806 -6.89974 0.474015 0
M  V30 9531 H 646.939 -7.66548 2.79458 0
M  V30 9532 H 644.284 -5.16076 2.65138 0
M  V30 9533 H 644.005 -7.06433 0.329384 0
M  V30 9534 H 643.013 -6.90829 1.81996 0
M  V30 9535 H 644.847 -8.90774 1.62639 0
M  V30 9536 H 644.918 -6.02181 -0.895285 0
M  V30 9537 P 642.976 -8.03563 3.84925 0
M  V30 9538 O 642.756 -8.85821 5.0569 0
M  V30 9539 O 642.186 -8.41101 2.65469 0
M  V30 9540 O 642.726 -6.4965 4.18908 0
M  V30 9541 C 643.666 -5.81037 5.05421 0
M  V30 9542 C 642.936 -4.78366 5.89277 0
M  V30 9543 O 642.726 -3.58302 5.08433 0
M  V30 9544 C 641.536 -5.17448 6.36119 0
M  V30 9545 O 641.146 -4.45271 7.53232 0
M  V30 9546 C 640.656 -4.74639 5.19936 0
M  V30 9547 C 641.366 -3.49432 4.70418 0
M  V30 9548 N 641.316 -3.32099 3.22613 0
M  V30 9549 H 644.155 -6.54213 5.71376 0
M  V30 9550 H 644.427 -5.30936 4.43503 0
M  V30 9551 H 643.559 -4.55889 6.76652 0
M  V30 9552 H 640.904 -2.61715 5.17932 0
M  V30 9553 H 640.624 -5.52155 4.41878 0
M  V30 9554 H 639.633 -4.51981 5.53374 0
M  V30 9555 H 641.467 -6.25124 6.55234 0
M  V30 9556 P 639.596 -4.23843 7.83734 0
M  V30 9557 O 639.376 -4.19407 9.29784 0
M  V30 9558 O 638.806 -5.24426 7.09156 0
M  V30 9559 O 639.346 -2.7935 7.20758 0
M  V30 9560 C 640.286 -1.7299 7.50419 0
M  V30 9561 C 639.556 -0.406376 7.57911 0
M  V30 9562 O 639.346 0.0897726 6.21935 0
M  V30 9563 C 638.156 -0.447224 8.1878 0
M  V30 9564 O 637.766 0.825065 8.71101 0
M  V30 9565 C 637.276 -0.783801 6.99623 0
M  V30 9566 C 637.986 -0.0619192 5.85967 0
M  V30 9567 N 637.936 -0.7859 4.56281 0
M  V30 9568 H 640.775 -1.93423 8.4679 0
M  V30 9569 H 641.047 -1.68181 6.71046 0
M  V30 9570 H 640.179 0.289041 8.15388 0
M  V30 9571 P 636.216 1.17771 8.83182 0
M  V30 9572 O 635.996 2.07206 9.98732 0
M  V30 9573 O 635.426 -0.0743816 8.81969 0
M  V30 9574 O 635.966 1.97652 7.47304 0
M  V30 9575 C 636.906 3.01133 7.08783 0
M  V30 9576 C 636.176 4.12613 6.37049 0
M  V30 9577 O 635.966 3.72827 4.97879 0
M  V30 9578 C 634.776 4.45085 6.88694 0
M  V30 9579 O 634.386 5.7877 6.5624 0
M  V30 9580 C 633.896 3.47817 6.12078 0
M  V30 9581 C 634.606 3.39414 4.77697 0
M  V30 9582 N 634.556 2.04615 4.15333 0
M  V30 9583 H 637.395 3.41248 7.98759 0
M  V30 9584 H 637.667 2.5837 6.41742 0
M  V30 9585 H 636.799 5.02657 6.42673 0
M  V30 9586 P 632.836 6.144 6.45285 0
M  V30 9587 O 632.616 7.54673 6.86199 0
M  V30 9588 O 632.046 5.12391 7.179 0
M  V30 9589 O 632.586 5.99158 4.88404 0
M  V30 9590 C 633.526 6.60234 3.96415 0
M  V30 9591 C 632.796 7.08259 2.72856 0
M  V30 9592 O 632.586 5.9427 1.83651 0
M  V30 9593 C 631.396 7.64886 2.9555 0
M  V30 9594 O 631.006 8.53963 1.90717 0
M  V30 9595 C 630.516 6.4116 2.90739 0
M  V30 9596 C 631.226 5.55375 1.86963 0
M  V30 9597 N 631.176 4.09664 2.15742 0
M  V30 9598 H 634.015 7.45574 4.45629 0
M  V30 9599 H 634.287 5.86232 3.67314 0
M  V30 9600 H 633.419 7.84412 2.24479 0
M  V30 9601 P 629.456 8.7635 1.60911 0
M  V30 9602 O 629.236 10.1388 1.11561 0
M  V30 9603 O 628.666 8.36503 2.79617 0
M  V30 9604 O 629.206 7.71806 0.42951 0
M  V30 9605 C 630.146 7.67148 -0.673689 0
M  V30 9606 C 629.416 7.33374 -1.95559 0
M  V30 9607 O 629.206 5.88721 -2.00726 0
M  V30 9608 C 628.016 7.92526 -2.10483 0
M  V30 9609 O 627.626 8.02971 -3.47653 0
M  V30 9610 C 627.136 6.89602 -1.41652 0
M  V30 9611 C 627.846 5.59201 -1.75185 0
M  V30 9612 N 627.796 4.58301 -0.657969 0
M  V30 9613 H 630.635 8.65116 -0.777161 0
M  V30 9614 H 630.907 6.9022 -0.46725 0
M  V30 9615 H 630.039 7.66548 -2.79458 0
M  V30 9616 H 627.384 5.16165 -2.65183 0
M  V30 9617 H 627.104 7.06433 -0.329384 0
M  V30 9618 H 626.113 6.90926 -1.82021 0
M  V30 9619 H 627.947 8.90873 -1.62657 0
M  V30 9620 P 626.076 8.03563 -3.84925 0
M  V30 9621 O 625.856 8.85821 -5.0569 0
M  V30 9622 O 625.286 8.41101 -2.65469 0
M  V30 9623 O 625.826 6.4965 -4.18908 0
M  V30 9624 C 626.766 5.81037 -5.05421 0
M  V30 9625 C 626.036 4.78366 -5.89277 0
M  V30 9626 O 625.826 3.58302 -5.08433 0
M  V30 9627 C 624.636 5.17448 -6.36119 0
M  V30 9628 O 624.246 4.45271 -7.53232 0
M  V30 9629 C 623.756 4.74639 -5.19936 0
M  V30 9630 C 624.466 3.49432 -4.70418 0
M  V30 9631 N 624.416 3.31776 -3.22945 0
M  V30 9632 H 627.255 6.54213 -5.71376 0
M  V30 9633 H 627.527 5.30492 -4.44033 0
M  V30 9634 H 626.659 4.55889 -6.76652 0
M  V30 9635 P 622.696 4.23843 -7.83734 0
M  V30 9636 O 622.476 4.19407 -9.29784 0
M  V30 9637 O 621.906 5.24426 -7.09156 0
M  V30 9638 O 622.446 2.7935 -7.20758 0
M  V30 9639 C 623.386 1.7299 -7.50419 0
M  V30 9640 C 622.656 0.406376 -7.57911 0
M  V30 9641 O 622.446 -0.0897726 -6.21935 0
M  V30 9642 C 621.256 0.447224 -8.1878 0
M  V30 9643 O 620.866 -0.825065 -8.71101 0
M  V30 9644 C 620.376 0.783801 -6.99623 0
M  V30 9645 C 621.086 0.0619192 -5.85967 0
M  V30 9646 N 621.036 0.7859 -4.56281 0
M  V30 9647 H 623.875 1.93423 -8.4679 0
M  V30 9648 H 624.147 1.68181 -6.71046 0
M  V30 9649 H 623.279 -0.289041 -8.15388 0
M  V30 9650 P 619.316 -1.17771 -8.83182 0
M  V30 9651 O 619.096 -2.07206 -9.98732 0
M  V30 9652 O 618.526 0.0743816 -8.81969 0
M  V30 9653 O 619.066 -1.97652 -7.47304 0
M  V30 9654 C 620.006 -3.01133 -7.08783 0
M  V30 9655 C 619.276 -4.12613 -6.37049 0
M  V30 9656 O 619.066 -3.72827 -4.97879 0
M  V30 9657 C 617.876 -4.45085 -6.88694 0
M  V30 9658 O 617.486 -5.7877 -6.5624 0
M  V30 9659 C 616.996 -3.47817 -6.12078 0
M  V30 9660 C 617.706 -3.39414 -4.77697 0
M  V30 9661 N 617.656 -2.04199 -4.15538 0
M  V30 9662 H 620.495 -3.41248 -7.98759 0
M  V30 9663 H 620.767 -2.57728 -6.42 0
M  V30 9664 H 619.899 -5.02657 -6.42673 0
M  V30 9665 H 617.244 -4.11708 -4.08956 0
M  V30 9666 H 616.964 -2.49626 -6.61679 0
M  V30 9667 H 615.973 -3.8662 -6.00862 0
M  V30 9668 H 617.807 -4.29991 -7.97006 0
M  V30 9669 P 615.936 -6.144 -6.45285 0
M  V30 9670 O 615.716 -7.54673 -6.86199 0
M  V30 9671 O 615.146 -5.12391 -7.179 0
M  V30 9672 O 615.686 -5.99158 -4.88404 0
M  V30 9673 C 616.626 -6.60234 -3.96415 0
M  V30 9674 C 615.896 -7.08259 -2.72856 0
M  V30 9675 O 615.686 -5.9427 -1.83651 0
M  V30 9676 C 614.496 -7.64886 -2.9555 0
M  V30 9677 O 614.106 -8.53963 -1.90717 0
M  V30 9678 C 613.616 -6.4116 -2.90739 0
M  V30 9679 C 614.326 -5.55375 -1.86963 0
M  V30 9680 N 614.276 -4.09664 -2.15742 0
M  V30 9681 H 617.115 -7.45574 -4.45629 0
M  V30 9682 H 617.387 -5.86232 -3.67314 0
M  V30 9683 H 616.519 -7.84412 -2.24479 0
M  V30 9684 P 612.556 -8.7635 -1.60911 0
M  V30 9685 O 612.336 -10.1388 -1.11561 0
M  V30 9686 O 611.766 -8.36503 -2.79617 0
M  V30 9687 O 612.306 -7.71806 -0.42951 0
M  V30 9688 C 613.246 -7.67148 0.673689 0
M  V30 9689 C 612.516 -7.33374 1.95559 0
M  V30 9690 O 612.306 -5.88721 2.00726 0
M  V30 9691 C 611.116 -7.92526 2.10483 0
M  V30 9692 O 610.726 -8.02971 3.47653 0
M  V30 9693 C 610.236 -6.89602 1.41652 0
M  V30 9694 C 610.946 -5.59201 1.75185 0
M  V30 9695 N 610.896 -4.58301 0.657969 0
M  V30 9696 C 610.976 -4.79019 -0.692603 0
M  V30 9697 N 610.906 -3.69736 -1.38998 0
M  V30 9698 C 610.756 -2.70474 -0.438135 0
M  V30 9699 C 610.626 -1.30327 -0.538142 0
M  V30 9700 N 610.616 -0.64304 -1.69192 0
M  V30 9701 N 610.506 -0.611027 0.605183 0
M  V30 9702 C 610.516 -1.27002 1.75953 0
M  V30 9703 N 610.636 -2.56038 1.98546 0
M  V30 9704 C 610.756 -3.22681 0.822541 0
M  V30 9705 H 613.735 -8.65116 0.777161 0
M  V30 9706 H 614.007 -6.9022 0.46725 0
M  V30 9707 H 613.139 -7.66548 2.79458 0
M  V30 9708 H 610.484 -5.16165 2.65183 0
M  V30 9709 H 610.204 -7.06433 0.329384 0
M  V30 9710 H 609.213 -6.90926 1.82021 0
M  V30 9711 H 611.047 -8.90873 1.62657 0
M  V30 9712 H 611.088 -5.77785 -1.13874 0
M  V30 9713 H 610.707 -1.15585 -2.57991 0
M  V30 9714 H 610.518 0.382989 -1.69835 0
M  V30 9715 H 610.41 -0.653331 2.64449 0
M  V30 9716 P 609.176 -8.03563 3.84925 0
M  V30 9717 O 608.956 -8.85821 5.0569 0
M  V30 9718 O 608.386 -8.41101 2.65469 0
M  V30 9719 O 608.926 -6.4965 4.18908 0
M  V30 9720 C 609.866 -5.81037 5.05421 0
M  V30 9721 C 609.136 -4.78366 5.89277 0
M  V30 9722 O 608.926 -3.58302 5.08433 0
M  V30 9723 C 607.736 -5.17448 6.36119 0
M  V30 9724 O 607.346 -4.45271 7.53232 0
M  V30 9725 C 606.856 -4.74639 5.19936 0
M  V30 9726 C 607.566 -3.49432 4.70418 0
M  V30 9727 N 607.516 -3.31776 3.22945 0
M  V30 9728 C 607.596 -4.27147 2.23315 0
M  V30 9729 N 607.516 -3.78447 1.02186 0
M  V30 9730 C 607.376 -2.41001 1.21732 0
M  V30 9731 C 607.246 -1.36111 0.27694 0
M  V30 9732 N 607.126 -0.113683 0.912949 0
M  V30 9733 C 607.126 0.0846396 2.27943 0
M  V30 9734 N 606.996 1.34737 2.6916 0
M  V30 9735 N 607.256 -0.902521 3.16379 0
M  V30 9736 C 607.376 -2.11937 2.56849 0
M  V30 9737 H 610.355 -6.54213 5.71376 0
M  V30 9738 H 610.627 -5.30492 4.44033 0
M  V30 9739 H 609.759 -4.55889 6.76652 0
M  V30 9740 P 605.796 -4.23843 7.83734 0
M  V30 9741 O 605.576 -4.19407 9.29784 0
M  V30 9742 O 605.006 -5.24426 7.09156 0
M  V30 9743 O 605.546 -2.7935 7.20758 0
M  V30 9744 C 606.486 -1.7299 7.50419 0
M  V30 9745 C 605.756 -0.406376 7.57911 0
M  V30 9746 O 605.546 0.0897726 6.21935 0
M  V30 9747 C 604.356 -0.447224 8.1878 0
M  V30 9748 O 603.966 0.825065 8.71101 0
M  V30 9749 C 603.476 -0.783801 6.99623 0
M  V30 9750 C 604.186 -0.0619192 5.85967 0
M  V30 9751 N 604.136 -0.7859 4.56281 0
M  V30 9752 H 606.975 -1.93423 8.4679 0
M  V30 9753 H 607.247 -1.68181 6.71046 0
M  V30 9754 H 606.379 0.289041 8.15388 0
M  V30 9755 P 602.416 1.17771 8.83182 0
M  V30 9756 O 602.196 2.07206 9.98732 0
M  V30 9757 O 601.626 -0.0743816 8.81969 0
M  V30 9758 O 602.166 1.97652 7.47304 0
M  V30 9759 C 603.106 3.01133 7.08783 0
M  V30 9760 C 602.376 4.12613 6.37049 0
M  V30 9761 O 602.166 3.72827 4.97879 0
M  V30 9762 C 600.976 4.45085 6.88694 0
M  V30 9763 O 600.586 5.7877 6.5624 0
M  V30 9764 C 600.096 3.47817 6.12078 0
M  V30 9765 C 600.806 3.39414 4.77697 0
M  V30 9766 N 600.756 2.04199 4.15538 0
M  V30 9767 H 603.595 3.41248 7.98759 0
M  V30 9768 H 603.867 2.57728 6.42 0
M  V30 9769 H 602.999 5.02657 6.42673 0
M  V30 9770 H 600.344 4.11708 4.08956 0
M  V30 9771 H 600.064 2.49626 6.61679 0
M  V30 9772 H 599.073 3.8662 6.00862 0
M  V30 9773 H 600.907 4.29991 7.97006 0
M  V30 9774 P 599.036 6.144 6.45285 0
M  V30 9775 O 598.816 7.54673 6.86199 0
M  V30 9776 O 598.246 5.12391 7.179 0
M  V30 9777 O 598.786 5.99158 4.88404 0
M  V30 9778 C 599.726 6.60234 3.96415 0
M  V30 9779 C 598.996 7.08259 2.72856 0
M  V30 9780 O 598.786 5.9427 1.83651 0
M  V30 9781 C 597.596 7.64886 2.9555 0
M  V30 9782 O 597.206 8.53963 1.90717 0
M  V30 9783 C 596.716 6.4116 2.90739 0
M  V30 9784 C 597.426 5.55375 1.86963 0
M  V30 9785 N 597.376 4.09664 2.15742 0
M  V30 9786 H 600.215 7.45574 4.45629 0
M  V30 9787 H 600.487 5.86232 3.67314 0
M  V30 9788 H 599.619 7.84412 2.24479 0
M  V30 9789 P 595.656 8.7635 1.60911 0
M  V30 9790 O 595.437 10.1388 1.11561 0
M  V30 9791 O 594.866 8.36503 2.79617 0
M  V30 9792 O 595.406 7.71806 0.42951 0
M  V30 9793 C 596.346 7.67148 -0.673689 0
M  V30 9794 C 595.616 7.33374 -1.95559 0
M  V30 9795 O 595.406 5.88721 -2.00726 0
M  V30 9796 C 594.216 7.92526 -2.10483 0
M  V30 9797 O 593.827 8.02971 -3.47653 0
M  V30 9798 C 593.337 6.89602 -1.41652 0
M  V30 9799 C 594.046 5.59201 -1.75185 0
M  V30 9800 N 593.996 4.58235 -0.662552 0
M  V30 9801 H 596.836 8.65116 -0.777161 0
M  V30 9802 H 597.107 6.90173 -0.474152 0
M  V30 9803 H 596.24 7.66548 -2.79458 0
M  V30 9804 P 592.277 8.03563 -3.84925 0
M  V30 9805 O 592.057 8.85821 -5.0569 0
M  V30 9806 O 591.487 8.41101 -2.65469 0
M  V30 9807 O 592.027 6.4965 -4.18908 0
M  V30 9808 C 592.967 5.81037 -5.05421 0
M  V30 9809 C 592.237 4.78366 -5.89277 0
M  V30 9810 O 592.027 3.58302 -5.08433 0
M  V30 9811 C 590.837 5.17448 -6.36119 0
M  V30 9812 O 590.447 4.45271 -7.53232 0
M  V30 9813 C 589.957 4.74639 -5.19936 0
M  V30 9814 C 590.667 3.49432 -4.70418 0
M  V30 9815 N 590.617 3.31776 -3.22945 0
M  V30 9816 H 593.456 6.54213 -5.71376 0
M  V30 9817 H 593.728 5.30492 -4.44033 0
M  V30 9818 H 592.86 4.55889 -6.76652 0
M  V30 9819 P 588.897 4.23843 -7.83734 0
M  V30 9820 O 588.677 4.19407 -9.29784 0
M  V30 9821 O 588.107 5.24426 -7.09156 0
M  V30 9822 O 588.647 2.7935 -7.20758 0
M  V30 9823 C 589.587 1.7299 -7.50419 0
M  V30 9824 C 588.857 0.406376 -7.57911 0
M  V30 9825 O 588.647 -0.0897726 -6.21935 0
M  V30 9826 C 587.457 0.447224 -8.1878 0
M  V30 9827 O 587.067 -0.825065 -8.71101 0
M  V30 9828 C 586.577 0.783801 -6.99623 0
M  V30 9829 C 587.287 0.0619192 -5.85967 0
M  V30 9830 N 587.237 0.7859 -4.56281 0
M  V30 9831 H 590.076 1.93423 -8.4679 0
M  V30 9832 H 590.348 1.68181 -6.71046 0
M  V30 9833 H 589.48 -0.289041 -8.15388 0
M  V30 9834 P 585.517 -1.17771 -8.83182 0
M  V30 9835 O 585.297 -2.07206 -9.98732 0
M  V30 9836 O 584.727 0.0743816 -8.81969 0
M  V30 9837 O 585.267 -1.97652 -7.47304 0
M  V30 9838 C 586.207 -3.01133 -7.08783 0
M  V30 9839 C 585.477 -4.12613 -6.37049 0
M  V30 9840 O 585.267 -3.72827 -4.97879 0
M  V30 9841 C 584.077 -4.45085 -6.88694 0
M  V30 9842 O 583.687 -5.7877 -6.5624 0
M  V30 9843 C 583.197 -3.47817 -6.12078 0
M  V30 9844 C 583.907 -3.39414 -4.77697 0
M  V30 9845 N 583.857 -2.04615 -4.15333 0
M  V30 9846 H 586.696 -3.41248 -7.98759 0
M  V30 9847 H 586.968 -2.5837 -6.41742 0
M  V30 9848 H 586.1 -5.02657 -6.42673 0
M  V30 9849 P 582.137 -6.144 -6.45285 0
M  V30 9850 O 581.917 -7.54673 -6.86199 0
M  V30 9851 O 581.347 -5.12391 -7.179 0
M  V30 9852 O 581.887 -5.99236 -4.88467 0
M  V30 9853 C 582.827 -6.60234 -3.96415 0
M  V30 9854 C 582.097 -7.08079 -2.736 0
M  V30 9855 O 581.887 -5.94365 -1.8368 0
M  V30 9856 C 580.697 -7.64886 -2.9555 0
M  V30 9857 O 580.307 -8.5406 -1.90739 0
M  V30 9858 C 579.817 -6.4116 -2.90739 0
M  V30 9859 C 580.527 -5.55375 -1.86963 0
M  V30 9860 N 580.477 -4.09664 -2.15742 0
M  V30 9861 C 580.327 -3.22231 -1.08477 0
M  V30 9862 O 580.237 -3.68951 0.0600489 0
M  V30 9863 N 580.277 -1.76692 -1.48799 0
M  V30 9864 C 580.377 -1.41695 -2.57602 0
M  V30 9865 N 580.327 -0.107296 -2.75791 0
M  V30 9866 C 580.527 -2.29178 -3.69733 0
M  V30 9867 C 580.577 -3.62753 -3.42653 0
M  V30 9868 H 583.317 -7.45488 -4.45578 0
M  V30 9869 H 583.587 -5.86232 -3.67314 0
M  V30 9870 H 582.72 -7.84508 -2.24507 0
M  V30 9871 H 580.065 -5.73556 -0.888715 0
M  V30 9872 H 579.785 -5.9096 -3.88638 0
M  V30 9873 H 578.794 -6.66053 -2.58894 0
M  V30 9874 H 580.628 -8.16339 -3.92049 0
M  V30 9875 H 580.7 -4.33052 -4.24913 0
M  V30 9876 H 580.598 -1.9103 -4.71577 0
M  V30 9877 H 580.21 0.521221 -1.95056 0
M  V30 9878 H 580.406 0.286429 -3.70695 0
M  V30 9879 P 578.757 -8.7635 -1.60911 0
M  V30 9880 O 578.537 -10.1388 -1.11561 0
M  V30 9881 O 577.967 -8.36503 -2.79617 0
M  V30 9882 O 578.507 -7.71806 -0.42951 0
M  V30 9883 C 579.447 -7.67148 0.673689 0
M  V30 9884 C 578.717 -7.33374 1.95559 0
M  V30 9885 O 578.507 -5.88721 2.00726 0
M  V30 9886 C 577.317 -7.92526 2.10483 0
M  V30 9887 O 576.927 -8.02971 3.47653 0
M  V30 9888 C 576.437 -6.89602 1.41652 0
M  V30 9889 C 577.147 -5.59201 1.75185 0
M  V30 9890 N 577.097 -4.58235 0.662552 0
M  V30 9891 H 579.936 -8.65116 0.777161 0
M  V30 9892 H 580.208 -6.90173 0.474152 0
M  V30 9893 H 579.34 -7.66548 2.79458 0
M  V30 9894 P 575.377 -8.03563 3.84925 0
M  V30 9895 O 575.157 -8.85821 5.0569 0
M  V30 9896 O 574.587 -8.41101 2.65469 0
M  V30 9897 O 575.127 -6.4965 4.18908 0
M  V30 9898 C 576.067 -5.80886 5.05289 0
M  V30 9899 C 575.337 -4.78366 5.89277 0
M  V30 9900 O 575.127 -3.58302 5.08433 0
M  V30 9901 C 573.937 -5.16748 6.36559 0
M  V30 9902 O 573.547 -4.45271 7.53232 0
M  V30 9903 C 573.057 -4.74572 5.19863 0
M  V30 9904 C 573.767 -3.49373 4.70338 0
M  V30 9905 N 573.717 -3.31704 3.22876 0
M  V30 9906 C 573.567 -2.03326 2.74871 0
M  V30 9907 O 573.477 -1.06486 3.48076 0
M  V30 9908 N 573.527 -1.91838 1.37456 0
M  V30 9909 C 573.617 -2.94295 0.462035 0
M  V30 9910 C 573.767 -4.25064 1.05249 0
M  V30 9911 C 573.817 -4.40214 2.39192 0
M  V30 9912 H 576.558 -6.54063 5.71245 0
M  V30 9913 H 576.827 -5.30339 4.43905 0
M  V30 9914 H 575.96 -4.55889 6.76652 0
M  V30 9915 H 573.305 -2.6167 5.17842 0
M  V30 9916 H 573.026 -5.52155 4.41878 0
M  V30 9917 H 572.034 -4.51918 5.53297 0
M  V30 9918 H 573.868 -6.25055 6.55162 0
M  V30 9919 H 573.939 -5.39798 2.81523 0
M  V30 9920 P 571.997 -4.23843 7.83734 0
M  V30 9921 O 571.777 -4.19407 9.29784 0
M  V30 9922 O 571.207 -5.24426 7.09156 0
M  V30 9923 O 571.747 -2.7935 7.20758 0
M  V30 9924 C 572.687 -1.7299 7.50419 0
M  V30 9925 C 571.957 -0.406376 7.57911 0
M  V30 9926 O 571.747 0.0897726 6.21935 0
M  V30 9927 C 570.557 -0.447224 8.1878 0
M  V30 9928 O 570.167 0.825065 8.71101 0
M  V30 9929 C 569.677 -0.783801 6.99623 0
M  V30 9930 C 570.387 -0.0619192 5.85967 0
M  V30 9931 N 570.337 -0.790462 4.56202 0
M  V30 9932 H 573.176 -1.93423 8.4679 0
M  V30 9933 H 573.448 -1.68852 6.70877 0
M  V30 9934 H 572.58 0.289041 8.15388 0
M  V30 9935 H 569.925 0.927006 5.72848 0
M  V30 9936 H 569.645 -1.86973 6.82036 0
M  V30 9937 H 568.654 -0.403953 7.13357 0
M  V30 9938 H 570.488 -1.20599 8.97534 0
M  V30 9939 P 568.617 1.17771 8.83182 0
M  V30 9940 O 568.397 2.07206 9.98732 0
M  V30 9941 O 567.827 -0.0743816 8.81969 0
M  V30 9942 O 568.367 1.97652 7.47304 0
M  V30 9943 C 569.307 3.01055 7.08599 0
M  V30 9944 C 568.577 4.12613 6.37049 0
M  V30 9945 O 568.367 3.72827 4.97879 0
M  V30 9946 C 567.177 4.45719 6.88164 0
M  V30 9947 O 566.787 5.7877 6.5624 0
M  V30 9948 C 566.297 3.47768 6.11991 0
M  V30 9949 C 567.007 3.39356 4.77615 0
M  V30 9950 N 566.957 2.04571 4.15244 0
M  V30 9951 C 566.807 1.98587 2.78314 0
M  V30 9952 O 566.717 2.98134 2.08835 0
M  V30 9953 N 566.767 0.714467 2.24925 0
M  V30 9954 C 566.857 -0.470001 2.94169 0
M  V30 9955 C 567.007 -0.312541 4.36783 0
M  V30 9956 C 567.057 0.914512 4.92583 0
M  V30 9957 H 569.798 3.41169 7.98575 0
M  V30 9958 H 570.067 2.58295 6.41556 0
M  V30 9959 H 569.2 5.02657 6.42673 0
M  V30 9960 H 566.545 4.11637 4.08885 0
M  V30 9961 H 566.266 2.49626 6.61679 0
M  V30 9962 H 565.274 3.86566 6.00778 0
M  V30 9963 H 567.108 4.29943 7.96918 0
M  V30 9964 H 567.179 1.00937 6.00374 0
M  V30 9965 P 565.237 6.144 6.45285 0
M  V30 9966 O 565.017 7.54673 6.86199 0
M  V30 9967 O 564.447 5.12391 7.179 0
M  V30 9968 O 564.987 5.99158 4.88404 0
M  V30 9969 C 565.927 6.60234 3.96415 0
M  V30 9970 C 565.197 7.08259 2.72856 0
M  V30 9971 O 564.987 5.9427 1.83651 0
M  V30 9972 C 563.797 7.64886 2.9555 0
M  V30 9973 O 563.407 8.53963 1.90717 0
M  V30 9974 C 562.917 6.4116 2.90739 0
M  V30 9975 C 563.627 5.55375 1.86963 0
M  V30 9976 N 563.577 4.09664 2.15742 0
M  V30 9977 H 566.416 7.45574 4.45629 0
M  V30 9978 H 566.688 5.86232 3.67314 0
M  V30 9979 H 565.82 7.84412 2.24479 0
M  V30 9980 P 561.857 8.7635 1.60911 0
M  V30 9981 O 561.637 10.1388 1.11561 0
M  V30 9982 O 561.067 8.36503 2.79617 0
M  V30 9983 O 561.607 7.71806 0.42951 0
M  V30 9984 C 562.547 7.67148 -0.673689 0
M  V30 9985 C 561.817 7.33374 -1.95559 0
M  V30 9986 O 561.607 5.88721 -2.00726 0
M  V30 9987 C 560.417 7.92526 -2.10483 0
M  V30 9988 O 560.027 8.02971 -3.47653 0
M  V30 9989 C 559.537 6.89602 -1.41652 0
M  V30 9990 C 560.247 5.59201 -1.75185 0
M  V30 9991 N 560.197 4.58235 -0.662552 0
M  V30 9992 H 563.036 8.65116 -0.777161 0
M  V30 9993 H 563.308 6.90173 -0.474152 0
M  V30 9994 H 562.44 7.66548 -2.79458 0
M  V30 9995 P 558.477 8.03563 -3.84925 0
M  V30 9996 O 558.257 8.85821 -5.0569 0
M  V30 9997 O 557.687 8.41101 -2.65469 0
M  V30 9998 O 558.227 6.4965 -4.18908 0
M  V30 9999 C 559.167 5.81037 -5.05421 0
M  V30 10000 C 558.437 4.78366 -5.89277 0
M  V30 10001 O 558.227 3.58302 -5.08433 0
M  V30 10002 C 557.037 5.17448 -6.36119 0
M  V30 10003 O 556.647 4.45271 -7.53232 0
M  V30 10004 C 556.157 4.74639 -5.19936 0
M  V30 10005 C 556.867 3.49432 -4.70418 0
M  V30 10006 N 556.817 3.32099 -3.22613 0
M  V30 10007 H 559.656 6.54213 -5.71376 0
M  V30 10008 H 559.928 5.30936 -4.43503 0
M  V30 10009 H 559.06 4.55889 -6.76652 0
M  V30 10010 H 556.405 2.61715 -5.17932 0
M  V30 10011 H 556.125 5.52155 -4.41878 0
M  V30 10012 H 555.134 4.51981 -5.53374 0
M  V30 10013 H 556.968 6.25124 -6.55234 0
M  V30 10014 P 555.097 4.23843 -7.83734 0
M  V30 10015 O 554.877 4.19407 -9.29784 0
M  V30 10016 O 554.307 5.24426 -7.09156 0
M  V30 10017 O 554.847 2.7935 -7.20758 0
M  V30 10018 C 555.787 1.7299 -7.50419 0
M  V30 10019 C 555.057 0.406376 -7.57911 0
M  V30 10020 O 554.847 -0.0897726 -6.21935 0
M  V30 10021 C 553.657 0.447224 -8.1878 0
M  V30 10022 O 553.267 -0.825065 -8.71101 0
M  V30 10023 C 552.777 0.783801 -6.99623 0
M  V30 10024 C 553.487 0.0619192 -5.85967 0
M  V30 10025 N 553.437 0.790462 -4.56202 0
M  V30 10026 H 556.276 1.93423 -8.4679 0
M  V30 10027 H 556.548 1.68852 -6.70877 0
M  V30 10028 H 555.68 -0.289041 -8.15388 0
M  V30 10029 H 553.025 -0.927006 -5.72848 0
M  V30 10030 H 552.745 1.86973 -6.82036 0
M  V30 10031 H 551.754 0.403953 -7.13357 0
M  V30 10032 H 553.588 1.20599 -8.97534 0
M  V30 10033 P 551.717 -1.17771 -8.83182 0
M  V30 10034 O 551.497 -2.07206 -9.98732 0
M  V30 10035 O 550.927 0.0743816 -8.81969 0
M  V30 10036 O 551.467 -1.97652 -7.47304 0
M  V30 10037 C 552.407 -3.01133 -7.08783 0
M  V30 10038 C 551.677 -4.12613 -6.37049 0
M  V30 10039 O 551.467 -3.72827 -4.97879 0
M  V30 10040 C 550.277 -4.45085 -6.88694 0
M  V30 10041 O 549.887 -5.7877 -6.5624 0
M  V30 10042 C 549.397 -3.47817 -6.12078 0
M  V30 10043 C 550.107 -3.39414 -4.77697 0
M  V30 10044 N 550.057 -2.04615 -4.15333 0
M  V30 10045 H 552.896 -3.41248 -7.98759 0
M  V30 10046 H 553.168 -2.5837 -6.41742 0
M  V30 10047 H 552.3 -5.02657 -6.42673 0
M  V30 10048 P 548.337 -6.144 -6.45285 0
M  V30 10049 O 548.117 -7.54673 -6.86199 0
M  V30 10050 O 547.547 -5.12391 -7.179 0
M  V30 10051 O 548.087 -5.99158 -4.88404 0
M  V30 10052 C 549.027 -6.60234 -3.96415 0
M  V30 10053 C 548.297 -7.08259 -2.72856 0
M  V30 10054 O 548.087 -5.9427 -1.83651 0
M  V30 10055 C 546.897 -7.64886 -2.9555 0
M  V30 10056 O 546.507 -8.53963 -1.90717 0
M  V30 10057 C 546.017 -6.4116 -2.90739 0
M  V30 10058 C 546.727 -5.55375 -1.86963 0
M  V30 10059 N 546.677 -4.09664 -2.15742 0
M  V30 10060 H 549.516 -7.45574 -4.45629 0
M  V30 10061 H 549.788 -5.86232 -3.67314 0
M  V30 10062 H 548.92 -7.84412 -2.24479 0
M  V30 10063 P 544.957 -8.7635 -1.60911 0
M  V30 10064 O 544.737 -10.1388 -1.11561 0
M  V30 10065 O 544.167 -8.36503 -2.79617 0
M  V30 10066 O 544.707 -7.71906 -0.429565 0
M  V30 10067 C 545.647 -7.67148 0.673689 0
M  V30 10068 C 544.917 -7.33666 1.94851 0
M  V30 10069 O 544.707 -5.88816 2.00759 0
M  V30 10070 C 543.517 -7.92526 2.10483 0
M  V30 10071 O 543.127 -8.03063 3.47693 0
M  V30 10072 C 542.637 -6.89602 1.41652 0
M  V30 10073 C 543.347 -5.59201 1.75185 0
M  V30 10074 N 543.297 -4.58235 0.662552 0
M  V30 10075 C 543.147 -3.24451 1.01643 0
M  V30 10076 O 543.057 -2.94958 2.21722 0
M  V30 10077 N 543.097 -2.30408 -0.165238 0
M  V30 10078 C 543.197 -2.66048 -1.25118 0
M  V30 10079 N 543.147 -1.70787 -2.16813 0
M  V30 10080 C 543.347 -4.02732 -1.64413 0
M  V30 10081 C 543.397 -4.9488 -0.63991 0
M  V30 10082 H 546.137 -8.65017 0.777072 0
M  V30 10083 H 546.407 -6.90173 0.474152 0
M  V30 10084 H 545.54 -7.66642 2.79492 0
M  V30 10085 H 542.885 -5.16254 2.65229 0
M  V30 10086 H 542.605 -7.06532 0.329431 0
M  V30 10087 H 541.614 -6.91023 1.82047 0
M  V30 10088 H 543.448 -8.90873 1.62657 0
M  V30 10089 H 543.52 -6.00104 -0.892197 0
M  V30 10090 H 543.418 -4.31733 -2.69229 0
M  V30 10091 H 543.03 -0.724835 -1.8844 0
M  V30 10092 H 543.226 -1.94716 -3.16734 0
M  V30 10093 P 541.577 -8.03563 3.84925 0
M  V30 10094 O 541.357 -8.85821 5.0569 0
M  V30 10095 O 540.787 -8.41101 2.65469 0
M  V30 10096 O 541.327 -6.4965 4.18908 0
M  V30 10097 C 542.267 -5.81037 5.05421 0
M  V30 10098 C 541.537 -4.78366 5.89277 0
M  V30 10099 O 541.327 -3.58302 5.08433 0
M  V30 10100 C 540.137 -5.17448 6.36119 0
M  V30 10101 O 539.747 -4.45271 7.53232 0
M  V30 10102 C 539.257 -4.74639 5.19936 0
M  V30 10103 C 539.967 -3.49432 4.70418 0
M  V30 10104 N 539.917 -3.32099 3.22613 0
M  V30 10105 H 542.756 -6.54213 5.71376 0
M  V30 10106 H 543.028 -5.30936 4.43503 0
M  V30 10107 H 542.16 -4.55889 6.76652 0
M  V30 10108 H 539.505 -2.61715 5.17932 0
M  V30 10109 H 539.225 -5.52155 4.41878 0
M  V30 10110 H 538.234 -4.51981 5.53374 0
M  V30 10111 H 540.068 -6.25124 6.55234 0
M  V30 10112 P 538.197 -4.23843 7.83734 0
M  V30 10113 O 537.977 -4.19407 9.29784 0
M  V30 10114 O 537.407 -5.24426 7.09156 0
M  V30 10115 O 537.947 -2.7935 7.20758 0
M  V30 10116 C 538.887 -1.72945 7.50224 0
M  V30 10117 C 538.157 -0.406376 7.57911 0
M  V30 10118 O 537.947 0.0897726 6.21935 0
M  V30 10119 C 536.757 -0.438983 8.18724 0
M  V30 10120 O 536.367 0.825065 8.71101 0
M  V30 10121 C 535.877 -0.783689 6.99524 0
M  V30 10122 C 536.587 -0.0619086 5.85867 0
M  V30 10123 N 536.537 -0.78573 4.56183 0
M  V30 10124 C 536.387 -0.0292889 3.41887 0
M  V30 10125 O 536.297 1.18445 3.4419 0
M  V30 10126 N 536.347 -0.744061 2.23964 0
M  V30 10127 C 536.437 -2.10932 2.10362 0
M  V30 10128 C 536.587 -2.8202 3.34994 0
M  V30 10129 C 536.637 -2.15547 4.52261 0
M  V30 10130 H 539.378 -1.93379 8.46595 0
M  V30 10131 H 539.647 -1.68132 6.70852 0
M  V30 10132 H 538.78 0.289041 8.15388 0
M  V30 10133 H 536.125 0.926847 5.72749 0
M  V30 10134 H 535.846 -1.86973 6.82036 0
M  V30 10135 H 534.854 -0.403896 7.13257 0
M  V30 10136 H 536.688 -1.20585 8.97435 0
M  V30 10137 H 536.759 -2.71231 5.45042 0
M  V30 10138 P 534.817 1.17771 8.83182 0
M  V30 10139 O 534.597 2.07206 9.98732 0
M  V30 10140 O 534.027 -0.0743816 8.81969 0
M  V30 10141 O 534.567 1.97652 7.47304 0
M  V30 10142 C 535.507 3.01133 7.08783 0
M  V30 10143 C 534.777 4.12613 6.37049 0
M  V30 10144 O 534.567 3.72827 4.97879 0
M  V30 10145 C 533.377 4.45085 6.88694 0
M  V30 10146 O 532.987 5.7877 6.5624 0
M  V30 10147 C 532.497 3.47817 6.12078 0
M  V30 10148 C 533.207 3.39414 4.77697 0
M  V30 10149 N 533.157 2.04199 4.15538 0
M  V30 10150 C 533.237 0.821545 4.76977 0
M  V30 10151 N 533.167 -0.1794 3.94592 0
M  V30 10152 C 533.017 0.419121 2.70776 0
M  V30 10153 C 532.887 -0.109072 1.40577 0
M  V30 10154 N 532.877 -1.4104 1.1344 0
M  V30 10155 N 532.767 0.764381 0.39411 0
M  V30 10156 C 532.777 2.06587 0.664135 0
M  V30 10157 N 532.897 2.67948 1.82153 0
M  V30 10158 C 533.017 1.77942 2.8147 0
M  V30 10159 H 535.996 3.41248 7.98759 0
M  V30 10160 H 536.268 2.57728 6.42 0
M  V30 10161 H 535.4 5.02657 6.42673 0
M  V30 10162 H 532.745 4.11708 4.08956 0
M  V30 10163 H 532.465 2.49626 6.61679 0
M  V30 10164 H 531.474 3.8662 6.00862 0
M  V30 10165 H 533.308 4.29991 7.97006 0
M  V30 10166 H 533.349 0.702451 5.84696 0
M  V30 10167 H 532.968 -2.09647 1.89651 0
M  V30 10168 H 532.779 -1.73358 0.160575 0
M  V30 10169 H 532.671 2.71695 -0.195838 0
M  V30 10170 P 531.437 6.144 6.45285 0
M  V30 10171 O 531.217 7.54673 6.86199 0
M  V30 10172 O 530.647 5.12391 7.179 0
M  V30 10173 O 531.187 5.99158 4.88404 0
M  V30 10174 C 532.127 6.60234 3.96415 0
M  V30 10175 C 531.397 7.08259 2.72856 0
M  V30 10176 O 531.187 5.9427 1.83651 0
M  V30 10177 C 529.997 7.64886 2.9555 0
M  V30 10178 O 529.607 8.53963 1.90717 0
M  V30 10179 C 529.117 6.4116 2.90739 0
M  V30 10180 C 529.827 5.55375 1.86963 0
M  V30 10181 N 529.777 4.09448 2.16152 0
M  V30 10182 C 529.857 3.46824 3.37593 0
M  V30 10183 N 529.787 2.17422 3.29777 0
M  V30 10184 C 529.637 1.93065 1.94427 0
M  V30 10185 C 529.507 0.738053 1.20141 0
M  V30 10186 N 529.497 -0.474256 1.74676 0
M  V30 10187 N 529.387 0.850049 -0.13045 0
M  V30 10188 C 529.397 2.06169 -0.676992 0
M  V30 10189 N 529.517 3.23842 -0.101312 0
M  V30 10190 C 529.637 3.09402 1.23122 0
M  V30 10191 H 532.616 7.45574 4.45629 0
M  V30 10192 H 532.888 5.85864 3.679 0
M  V30 10193 H 532.02 7.84412 2.24479 0
M  V30 10194 H 529.365 5.73457 0.888562 0
M  V30 10195 H 529.085 5.90877 3.88583 0
M  V30 10196 H 528.094 6.6596 2.58858 0
M  V30 10197 H 529.928 8.16339 3.92049 0
M  V30 10198 H 529.969 4.00505 4.3174 0
M  V30 10199 H 529.588 -0.581337 2.76658 0
M  V30 10200 H 529.399 -1.30811 1.14888 0
M  V30 10201 H 529.291 2.08295 -1.75542 0
M  V30 10202 P 528.057 8.7635 1.60911 0
M  V30 10203 O 527.837 10.1388 1.11561 0
M  V30 10204 O 527.267 8.36503 2.79617 0
M  V30 10205 O 527.807 7.71806 0.42951 0
M  V30 10206 C 528.747 7.66948 -0.673514 0
M  V30 10207 C 528.017 7.33374 -1.95559 0
M  V30 10208 O 527.807 5.88721 -2.00726 0
M  V30 10209 C 526.617 7.92218 -2.1125 0
M  V30 10210 O 526.227 8.02971 -3.47653 0
M  V30 10211 C 525.737 6.89504 -1.41631 0
M  V30 10212 C 526.447 5.59106 -1.75155 0
M  V30 10213 N 526.397 4.58136 -0.662409 0
M  V30 10214 C 526.247 3.26059 -1.02863 0
M  V30 10215 O 526.157 2.90743 -2.19009 0
M  V30 10216 N 526.207 2.35995 0.0155585 0
M  V30 10217 C 526.297 2.65248 1.35603 0
M  V30 10218 O 526.247 1.75605 2.20651 0
M  V30 10219 C 526.447 4.05747 1.64698 0
M  V30 10220 C 526.557 4.42345 3.09553 0
M  V30 10221 C 526.497 4.96734 0.652411 0
M  V30 10222 H 529.238 8.64917 -0.776982 0
M  V30 10223 H 529.507 6.89974 -0.474015 0
M  V30 10224 H 528.64 7.66548 -2.79458 0
M  V30 10225 H 525.985 5.16076 -2.65138 0
M  V30 10226 H 525.706 7.06433 -0.329384 0
M  V30 10227 H 524.714 6.90829 -1.81996 0
M  V30 10228 H 526.548 8.90774 -1.62639 0
M  V30 10229 H 526.619 6.02181 0.895285 0
M  V30 10230 H 525.589 4.80252 3.45468 0
M  V30 10231 H 527.326 5.20015 3.22119 0
M  V30 10232 H 526.838 3.53269 3.67833 0
M  V30 10233 H 526.102 1.39558 -0.227499 0
M  V30 10234 P 524.677 8.03563 -3.84925 0
M  V30 10235 O 524.457 8.85821 -5.0569 0
M  V30 10236 O 523.887 8.41101 -2.65469 0
M  V30 10237 O 524.427 6.49734 -4.18962 0
M  V30 10238 C 525.367 5.81037 -5.05421 0
M  V30 10239 C 524.637 4.79018 -5.88876 0
M  V30 10240 O 524.427 3.58359 -5.08515 0
M  V30 10241 C 523.237 5.17448 -6.36119 0
M  V30 10242 O 522.847 4.45322 -7.53318 0
M  V30 10243 C 522.357 4.74639 -5.19936 0
M  V30 10244 C 523.067 3.49432 -4.70418 0
M  V30 10245 N 523.017 3.31776 -3.22945 0
M  V30 10246 C 522.867 2.02742 -2.72939 0
M  V30 10247 O 522.777 1.08301 -3.52749 0
M  V30 10248 N 522.817 1.96117 -1.22063 0
M  V30 10249 C 522.917 2.8878 -0.551566 0
M  V30 10250 N 522.867 2.65609 0.750198 0
M  V30 10251 C 523.067 4.22457 -1.03707 0
M  V30 10252 C 523.117 4.37979 -2.39113 0
M  V30 10253 H 525.857 6.54138 -5.7131 0
M  V30 10254 H 526.127 5.30492 -4.44033 0
M  V30 10255 H 525.26 4.55945 -6.76735 0
M  V30 10256 H 522.605 2.6176 -5.18021 0
M  V30 10257 H 522.325 5.52233 -4.41941 0
M  V30 10258 H 521.334 4.52045 -5.53452 0
M  V30 10259 H 523.168 6.25124 -6.55234 0
M  V30 10260 H 523.24 5.37936 -2.80552 0
M  V30 10261 H 523.138 5.07528 -0.359553 0
M  V30 10262 H 522.75 1.69403 1.09847 0
M  V30 10263 H 522.946 3.43701 1.41792 0
M  V30 10264 P 521.297 4.23843 -7.83734 0
M  V30 10265 O 521.077 4.19407 -9.29784 0
M  V30 10266 O 520.507 5.24426 -7.09156 0
M  V30 10267 O 521.047 2.7935 -7.20758 0
M  V30 10268 C 521.987 1.7299 -7.50419 0
M  V30 10269 C 521.257 0.406376 -7.57911 0
M  V30 10270 O 521.047 -0.0897726 -6.21935 0
M  V30 10271 C 519.857 0.447224 -8.1878 0
M  V30 10272 O 519.467 -0.825065 -8.71101 0
M  V30 10273 C 518.977 0.783801 -6.99623 0
M  V30 10274 C 519.687 0.0619192 -5.85967 0
M  V30 10275 N 519.637 0.7859 -4.56281 0
M  V30 10276 H 522.476 1.93423 -8.4679 0
M  V30 10277 H 522.748 1.68181 -6.71046 0
M  V30 10278 H 521.88 -0.289041 -8.15388 0
M  V30 10279 P 517.917 -1.17771 -8.83182 0
M  V30 10280 O 517.697 -2.07206 -9.98732 0
M  V30 10281 O 517.127 0.0743816 -8.81969 0
M  V30 10282 O 517.667 -1.97652 -7.47304 0
M  V30 10283 C 518.607 -3.01133 -7.08783 0
M  V30 10284 C 517.877 -4.12613 -6.37049 0
M  V30 10285 O 517.667 -3.72827 -4.97879 0
M  V30 10286 C 516.477 -4.45085 -6.88694 0
M  V30 10287 O 516.087 -5.7877 -6.5624 0
M  V30 10288 C 515.597 -3.47817 -6.12078 0
M  V30 10289 C 516.307 -3.39414 -4.77697 0
M  V30 10290 N 516.257 -2.04615 -4.15333 0
M  V30 10291 H 519.096 -3.41248 -7.98759 0
M  V30 10292 H 519.368 -2.5837 -6.41742 0
M  V30 10293 H 518.5 -5.02657 -6.42673 0
M  V30 10294 P 514.537 -6.144 -6.45285 0
M  V30 10295 O 514.317 -7.54673 -6.86199 0
M  V30 10296 O 513.747 -5.12391 -7.179 0
M  V30 10297 O 514.287 -5.99158 -4.88404 0
M  V30 10298 C 515.227 -6.60234 -3.96415 0
M  V30 10299 C 514.497 -7.08259 -2.72856 0
M  V30 10300 O 514.287 -5.9427 -1.83651 0
M  V30 10301 C 513.097 -7.64886 -2.9555 0
M  V30 10302 O 512.707 -8.53963 -1.90717 0
M  V30 10303 C 512.217 -6.4116 -2.90739 0
M  V30 10304 C 512.927 -5.55375 -1.86963 0
M  V30 10305 N 512.877 -4.09448 -2.16152 0
M  V30 10306 C 512.957 -3.46824 -3.37593 0
M  V30 10307 N 512.887 -2.17422 -3.29777 0
M  V30 10308 C 512.737 -1.93065 -1.94427 0
M  V30 10309 C 512.607 -0.738053 -1.20141 0
M  V30 10310 N 512.597 0.474256 -1.74676 0
M  V30 10311 N 512.487 -0.850049 0.13045 0
M  V30 10312 C 512.497 -2.06169 0.676992 0
M  V30 10313 N 512.617 -3.23842 0.101312 0
M  V30 10314 C 512.737 -3.09402 -1.23122 0
M  V30 10315 H 515.716 -7.45574 -4.45629 0
M  V30 10316 H 515.988 -5.85864 -3.679 0
M  V30 10317 H 515.12 -7.84412 -2.24479 0
M  V30 10318 H 512.465 -5.73457 -0.888562 0
M  V30 10319 H 512.185 -5.90877 -3.88583 0
M  V30 10320 H 511.194 -6.6596 -2.58858 0
M  V30 10321 H 513.028 -8.16339 -3.92049 0
M  V30 10322 H 513.069 -4.00505 -4.3174 0
M  V30 10323 H 512.688 0.581337 -2.76658 0
M  V30 10324 H 512.499 1.30811 -1.14888 0
M  V30 10325 H 512.391 -2.08295 1.75542 0
M  V30 10326 P 511.157 -8.7635 -1.60911 0
M  V30 10327 O 510.937 -10.1388 -1.11561 0
M  V30 10328 O 510.367 -8.36503 -2.79617 0
M  V30 10329 O 510.907 -7.71806 -0.42951 0
M  V30 10330 C 511.847 -7.67148 0.673689 0
M  V30 10331 C 511.117 -7.33374 1.95559 0
M  V30 10332 O 510.907 -5.88721 2.00726 0
M  V30 10333 C 509.717 -7.92526 2.10483 0
M  V30 10334 O 509.327 -8.02971 3.47653 0
M  V30 10335 C 508.837 -6.89602 1.41652 0
M  V30 10336 C 509.547 -5.59201 1.75185 0
M  V30 10337 N 509.497 -4.58235 0.662552 0
M  V30 10338 H 512.336 -8.65116 0.777161 0
M  V30 10339 H 512.608 -6.90173 0.474152 0
M  V30 10340 H 511.74 -7.66548 2.79458 0
M  V30 10341 P 507.777 -8.03563 3.84925 0
M  V30 10342 O 507.557 -8.85821 5.0569 0
M  V30 10343 O 506.987 -8.41101 2.65469 0
M  V30 10344 O 507.527 -6.4965 4.18908 0
M  V30 10345 C 508.467 -5.81037 5.05421 0
M  V30 10346 C 507.737 -4.78366 5.89277 0
M  V30 10347 O 507.527 -3.58302 5.08433 0
M  V30 10348 C 506.337 -5.17448 6.36119 0
M  V30 10349 O 505.947 -4.45271 7.53232 0
M  V30 10350 C 505.457 -4.74639 5.19936 0
M  V30 10351 C 506.167 -3.49432 4.70418 0
M  V30 10352 N 506.117 -3.31776 3.22945 0
M  V30 10353 H 508.956 -6.54213 5.71376 0
M  V30 10354 H 509.228 -5.30492 4.44033 0
M  V30 10355 H 508.36 -4.55889 6.76652 0
M  V30 10356 P 504.397 -4.23843 7.83734 0
M  V30 10357 O 504.177 -4.19407 9.29784 0
M  V30 10358 O 503.607 -5.24426 7.09156 0
M  V30 10359 O 504.147 -2.7935 7.20758 0
M  V30 10360 C 505.087 -1.7299 7.50419 0
M  V30 10361 C 504.357 -0.406376 7.57911 0
M  V30 10362 O 504.147 0.0897726 6.21935 0
M  V30 10363 C 502.957 -0.447224 8.1878 0
M  V30 10364 O 502.567 0.825065 8.71101 0
M  V30 10365 C 502.077 -0.783801 6.99623 0
M  V30 10366 C 502.787 -0.0619192 5.85967 0
M  V30 10367 N 502.737 -0.7859 4.56281 0
M  V30 10368 H 505.576 -1.93423 8.4679 0
M  V30 10369 H 505.848 -1.68181 6.71046 0
M  V30 10370 H 504.98 0.289041 8.15388 0
M  V30 10371 P 501.017 1.17771 8.83182 0
M  V30 10372 O 500.797 2.07206 9.98732 0
M  V30 10373 O 500.227 -0.0743816 8.81969 0
M  V30 10374 O 500.767 1.97652 7.47304 0
M  V30 10375 C 501.707 3.01133 7.08783 0
M  V30 10376 C 500.977 4.12613 6.37049 0
M  V30 10377 O 500.767 3.72827 4.97879 0
M  V30 10378 C 499.577 4.45085 6.88694 0
M  V30 10379 O 499.187 5.7877 6.5624 0
M  V30 10380 C 498.697 3.47817 6.12078 0
M  V30 10381 C 499.407 3.39414 4.77697 0
M  V30 10382 N 499.357 2.04615 4.15333 0
M  V30 10383 H 502.196 3.41248 7.98759 0
M  V30 10384 H 502.468 2.5837 6.41742 0
M  V30 10385 H 501.6 5.02657 6.42673 0
M  V30 10386 P 497.637 6.144 6.45285 0
M  V30 10387 O 497.417 7.54673 6.86199 0
M  V30 10388 O 496.847 5.12391 7.179 0
M  V30 10389 O 497.387 5.99158 4.88404 0
M  V30 10390 C 498.327 6.60234 3.96415 0
M  V30 10391 C 497.597 7.08259 2.72856 0
M  V30 10392 O 497.387 5.9427 1.83651 0
M  V30 10393 C 496.197 7.64886 2.9555 0
M  V30 10394 O 495.807 8.53963 1.90717 0
M  V30 10395 C 495.317 6.4116 2.90739 0
M  V30 10396 C 496.027 5.55375 1.86963 0
M  V30 10397 N 495.977 4.09448 2.16152 0
M  V30 10398 H 498.816 7.45574 4.45629 0
M  V30 10399 H 499.088 5.85864 3.679 0
M  V30 10400 H 498.22 7.84412 2.24479 0
M  V30 10401 H 495.565 5.73457 0.888562 0
M  V30 10402 H 495.285 5.90877 3.88583 0
M  V30 10403 H 494.294 6.6596 2.58858 0
M  V30 10404 H 496.128 8.16339 3.92049 0
M  V30 10405 P 494.257 8.7635 1.60911 0
M  V30 10406 O 494.037 10.1388 1.11561 0
M  V30 10407 O 493.467 8.36503 2.79617 0
M  V30 10408 O 494.007 7.71806 0.42951 0
M  V30 10409 C 494.947 7.67148 -0.673689 0
M  V30 10410 C 494.217 7.33374 -1.95559 0
M  V30 10411 O 494.007 5.88721 -2.00726 0
M  V30 10412 C 492.817 7.92526 -2.10483 0
M  V30 10413 O 492.427 8.02971 -3.47653 0
M  V30 10414 C 491.937 6.89602 -1.41652 0
M  V30 10415 C 492.647 5.59201 -1.75185 0
M  V30 10416 N 492.597 4.58235 -0.662552 0
M  V30 10417 H 495.436 8.65116 -0.777161 0
M  V30 10418 H 495.708 6.90173 -0.474152 0
M  V30 10419 H 494.84 7.66548 -2.79458 0
M  V30 10420 P 490.877 8.03563 -3.84925 0
M  V30 10421 O 490.657 8.85821 -5.0569 0
M  V30 10422 O 490.087 8.41101 -2.65469 0
M  V30 10423 O 490.627 6.4965 -4.18908 0
M  V30 10424 C 491.567 5.80886 -5.05289 0
M  V30 10425 C 490.837 4.78366 -5.89277 0
M  V30 10426 O 490.627 3.58302 -5.08433 0
M  V30 10427 C 489.437 5.16748 -6.36559 0
M  V30 10428 O 489.047 4.45271 -7.53232 0
M  V30 10429 C 488.557 4.74572 -5.19863 0
M  V30 10430 C 489.267 3.49373 -4.70338 0
M  V30 10431 N 489.217 3.31704 -3.22876 0
M  V30 10432 C 489.067 2.03326 -2.74871 0
M  V30 10433 O 488.977 1.06486 -3.48076 0
M  V30 10434 N 489.027 1.91838 -1.37456 0
M  V30 10435 C 489.117 2.94295 -0.462035 0
M  V30 10436 C 489.267 4.25064 -1.05249 0
M  V30 10437 C 489.317 4.40214 -2.39192 0
M  V30 10438 H 492.058 6.54063 -5.71245 0
M  V30 10439 H 492.327 5.30339 -4.43905 0
M  V30 10440 H 491.46 4.55889 -6.76652 0
M  V30 10441 H 488.805 2.6167 -5.17842 0
M  V30 10442 H 488.526 5.52155 -4.41878 0
M  V30 10443 H 487.534 4.51918 -5.53297 0
M  V30 10444 H 489.368 6.25055 -6.55162 0
M  V30 10445 H 489.439 5.39798 -2.81523 0
M  V30 10446 P 487.497 4.23843 -7.83734 0
M  V30 10447 O 487.277 4.19407 -9.29784 0
M  V30 10448 O 486.707 5.24426 -7.09156 0
M  V30 10449 O 487.247 2.7935 -7.20758 0
M  V30 10450 C 488.187 1.7299 -7.50419 0
M  V30 10451 C 487.457 0.406376 -7.57911 0
M  V30 10452 O 487.247 -0.0897726 -6.21935 0
M  V30 10453 C 486.057 0.447224 -8.1878 0
M  V30 10454 O 485.667 -0.825065 -8.71101 0
M  V30 10455 C 485.177 0.783801 -6.99623 0
M  V30 10456 C 485.887 0.0619192 -5.85967 0
M  V30 10457 N 485.837 0.7859 -4.56281 0
M  V30 10458 H 488.676 1.93423 -8.4679 0
M  V30 10459 H 488.948 1.68181 -6.71046 0
M  V30 10460 H 488.08 -0.289041 -8.15388 0
M  V30 10461 P 484.117 -1.17771 -8.83182 0
M  V30 10462 O 483.897 -2.07206 -9.98732 0
M  V30 10463 O 483.327 0.0743816 -8.81969 0
M  V30 10464 O 483.867 -1.97652 -7.47304 0
M  V30 10465 C 484.807 -3.01133 -7.08783 0
M  V30 10466 C 484.077 -4.12613 -6.37049 0
M  V30 10467 O 483.867 -3.72827 -4.97879 0
M  V30 10468 C 482.677 -4.45085 -6.88694 0
M  V30 10469 O 482.287 -5.7877 -6.5624 0
M  V30 10470 C 481.797 -3.47817 -6.12078 0
M  V30 10471 C 482.507 -3.39414 -4.77697 0
M  V30 10472 N 482.457 -2.04199 -4.15538 0
M  V30 10473 H 485.296 -3.41248 -7.98759 0
M  V30 10474 H 485.568 -2.57728 -6.42 0
M  V30 10475 H 484.7 -5.02657 -6.42673 0
M  V30 10476 H 482.045 -4.11708 -4.08956 0
M  V30 10477 H 481.765 -2.49626 -6.61679 0
M  V30 10478 H 480.774 -3.8662 -6.00862 0
M  V30 10479 H 482.608 -4.29991 -7.97006 0
M  V30 10480 P 480.737 -6.144 -6.45285 0
M  V30 10481 O 480.517 -7.54673 -6.86199 0
M  V30 10482 O 479.947 -5.12391 -7.179 0
M  V30 10483 O 480.487 -5.99158 -4.88404 0
M  V30 10484 C 481.427 -6.60234 -3.96415 0
M  V30 10485 C 480.697 -7.08259 -2.72856 0
M  V30 10486 O 480.487 -5.9427 -1.83651 0
M  V30 10487 C 479.297 -7.64886 -2.9555 0
M  V30 10488 O 478.907 -8.53963 -1.90717 0
M  V30 10489 C 478.417 -6.4116 -2.90739 0
M  V30 10490 C 479.127 -5.55375 -1.86963 0
M  V30 10491 N 479.077 -4.09448 -2.16152 0
M  V30 10492 H 481.916 -7.45574 -4.45629 0
M  V30 10493 H 482.188 -5.85864 -3.679 0
M  V30 10494 H 481.32 -7.84412 -2.24479 0
M  V30 10495 H 478.665 -5.73457 -0.888562 0
M  V30 10496 H 478.385 -5.90877 -3.88583 0
M  V30 10497 H 477.394 -6.6596 -2.58858 0
M  V30 10498 H 479.228 -8.16339 -3.92049 0
M  V30 10499 P 477.357 -8.7635 -1.60911 0
M  V30 10500 O 477.137 -10.1388 -1.11561 0
M  V30 10501 O 476.567 -8.36503 -2.79617 0
M  V30 10502 O 477.107 -7.71806 -0.42951 0
M  V30 10503 C 478.047 -7.66948 0.673514 0
M  V30 10504 C 477.317 -7.33374 1.95559 0
M  V30 10505 O 477.107 -5.88721 2.00726 0
M  V30 10506 C 475.917 -7.92218 2.1125 0
M  V30 10507 O 475.527 -8.02971 3.47653 0
M  V30 10508 C 475.037 -6.89504 1.41631 0
M  V30 10509 C 475.747 -5.59106 1.75155 0
M  V30 10510 N 475.697 -4.58136 0.662409 0
M  V30 10511 C 475.547 -3.26059 1.02863 0
M  V30 10512 O 475.457 -2.90743 2.19009 0
M  V30 10513 N 475.507 -2.35995 -0.0155585 0
M  V30 10514 C 475.597 -2.65248 -1.35603 0
M  V30 10515 O 475.547 -1.75605 -2.20651 0
M  V30 10516 C 475.747 -4.05747 -1.64698 0
M  V30 10517 C 475.857 -4.42345 -3.09553 0
M  V30 10518 C 475.797 -4.96734 -0.652411 0
M  V30 10519 H 478.538 -8.64917 0.776982 0
M  V30 10520 H 478.807 -6.89974 0.474015 0
M  V30 10521 H 477.94 -7.66548 2.79458 0
M  V30 10522 H 475.285 -5.16076 2.65138 0
M  V30 10523 H 475.006 -7.06433 0.329384 0
M  V30 10524 H 474.014 -6.90829 1.81996 0
M  V30 10525 H 475.848 -8.90774 1.62639 0
M  V30 10526 H 475.919 -6.02181 -0.895285 0
M  V30 10527 H 474.889 -4.80252 -3.45468 0
M  V30 10528 H 476.626 -5.20015 -3.22119 0
M  V30 10529 H 476.138 -3.53269 -3.67833 0
M  V30 10530 H 475.402 -1.39558 0.227499 0
M  V30 10531 P 473.977 -8.03563 3.84925 0
M  V30 10532 O 473.757 -8.85821 5.0569 0
M  V30 10533 O 473.187 -8.41101 2.65469 0
M  V30 10534 O 473.727 -6.4965 4.18908 0
M  V30 10535 C 474.667 -5.81037 5.05421 0
M  V30 10536 C 473.937 -4.78366 5.89277 0
M  V30 10537 O 473.727 -3.58302 5.08433 0
M  V30 10538 C 472.537 -5.17448 6.36119 0
M  V30 10539 O 472.147 -4.45271 7.53232 0
M  V30 10540 C 471.657 -4.74639 5.19936 0
M  V30 10541 C 472.367 -3.49432 4.70418 0
M  V30 10542 N 472.317 -3.32099 3.22613 0
M  V30 10543 H 475.156 -6.54213 5.71376 0
M  V30 10544 H 475.428 -5.30936 4.43503 0
M  V30 10545 H 474.56 -4.55889 6.76652 0
M  V30 10546 H 471.905 -2.61715 5.17932 0
M  V30 10547 H 471.625 -5.52155 4.41878 0
M  V30 10548 H 470.634 -4.51981 5.53374 0
M  V30 10549 H 472.468 -6.25124 6.55234 0
M  V30 10550 P 470.597 -4.23843 7.83734 0
M  V30 10551 O 470.377 -4.19407 9.29784 0
M  V30 10552 O 469.807 -5.24426 7.09156 0
M  V30 10553 O 470.347 -2.7935 7.20758 0
M  V30 10554 C 471.287 -1.7299 7.50419 0
M  V30 10555 C 470.557 -0.406376 7.57911 0
M  V30 10556 O 470.347 0.0897726 6.21935 0
M  V30 10557 C 469.157 -0.447224 8.1878 0
M  V30 10558 O 468.767 0.825065 8.71101 0
M  V30 10559 C 468.277 -0.783801 6.99623 0
M  V30 10560 C 468.987 -0.0619192 5.85967 0
M  V30 10561 N 468.937 -0.7859 4.56281 0
M  V30 10562 H 471.776 -1.93423 8.4679 0
M  V30 10563 H 472.048 -1.68181 6.71046 0
M  V30 10564 H 471.18 0.289041 8.15388 0
M  V30 10565 P 467.217 1.17771 8.83182 0
M  V30 10566 O 466.997 2.07206 9.98732 0
M  V30 10567 O 466.427 -0.0743816 8.81969 0
M  V30 10568 O 466.967 1.97678 7.474 0
M  V30 10569 C 467.907 3.01133 7.08783 0
M  V30 10570 C 467.177 4.1203 6.37546 0
M  V30 10571 O 466.967 3.72887 4.9796 0
M  V30 10572 C 465.777 4.45085 6.88694 0
M  V30 10573 O 465.387 5.78836 6.56315 0
M  V30 10574 C 464.897 3.47817 6.12078 0
M  V30 10575 C 465.607 3.39414 4.77697 0
M  V30 10576 N 465.557 2.04615 4.15333 0
M  V30 10577 C 465.407 1.96929 2.77162 0
M  V30 10578 O 465.317 3.02017 2.12006 0
M  V30 10579 N 465.357 0.55485 2.24237 0
M  V30 10580 C 465.457 -0.367808 2.9169 0
M  V30 10581 N 465.407 -1.53426 2.29427 0
M  V30 10582 C 465.607 -0.319148 4.33828 0
M  V30 10583 C 465.657 0.920672 4.90433 0
M  V30 10584 H 468.397 3.41209 7.98667 0
M  V30 10585 H 468.667 2.5837 6.41742 0
M  V30 10586 H 467.8 5.02718 6.42752 0
M  V30 10587 H 465.145 4.11779 4.09026 0
M  V30 10588 H 464.865 2.49661 6.61772 0
M  V30 10589 H 463.874 3.86674 6.00946 0
M  V30 10590 H 465.708 4.29991 7.97006 0
M  V30 10591 H 465.78 1.00589 5.98303 0
M  V30 10592 H 465.678 -1.22639 4.93799 0
M  V30 10593 H 465.29 -1.56819 1.27167 0
M  V30 10594 H 465.486 -2.41062 2.83063 0
M  V30 10595 P 463.837 6.144 6.45285 0
M  V30 10596 O 463.617 7.54673 6.86199 0
M  V30 10597 O 463.047 5.12391 7.179 0
M  V30 10598 O 463.587 5.99158 4.88404 0
M  V30 10599 C 464.527 6.60234 3.96415 0
M  V30 10600 C 463.797 7.08259 2.72856 0
M  V30 10601 O 463.587 5.9427 1.83651 0
M  V30 10602 C 462.397 7.64886 2.9555 0
M  V30 10603 O 462.007 8.53963 1.90717 0
M  V30 10604 C 461.517 6.4116 2.90739 0
M  V30 10605 C 462.227 5.55375 1.86963 0
M  V30 10606 N 462.177 4.09448 2.16152 0
M  V30 10607 H 465.016 7.45574 4.45629 0
M  V30 10608 H 465.288 5.85864 3.679 0
M  V30 10609 H 464.42 7.84412 2.24479 0
M  V30 10610 H 461.765 5.73457 0.888562 0
M  V30 10611 H 461.485 5.90877 3.88583 0
M  V30 10612 H 460.494 6.6596 2.58858 0
M  V30 10613 H 462.328 8.16339 3.92049 0
M  V30 10614 P 460.457 8.7635 1.60911 0
M  V30 10615 O 460.237 10.1388 1.11561 0
M  V30 10616 O 459.667 8.36503 2.79617 0
M  V30 10617 O 460.207 7.71906 0.429565 0
M  V30 10618 C 461.147 7.67148 -0.673689 0
M  V30 10619 C 460.417 7.33666 -1.94851 0
M  V30 10620 O 460.207 5.88816 -2.00759 0
M  V30 10621 C 459.017 7.92526 -2.10483 0
M  V30 10622 O 458.627 8.03063 -3.47693 0
M  V30 10623 C 458.137 6.89602 -1.41652 0
M  V30 10624 C 458.847 5.59201 -1.75185 0
M  V30 10625 N 458.797 4.58235 -0.662552 0
M  V30 10626 C 458.647 3.24451 -1.01643 0
M  V30 10627 O 458.557 2.94958 -2.21722 0
M  V30 10628 N 458.597 2.30408 0.165238 0
M  V30 10629 C 458.697 2.66048 1.25118 0
M  V30 10630 N 458.647 1.70787 2.16813 0
M  V30 10631 C 458.847 4.02732 1.64413 0
M  V30 10632 C 458.897 4.9488 0.63991 0
M  V30 10633 H 461.637 8.65017 -0.777072 0
M  V30 10634 H 461.907 6.90173 -0.474152 0
M  V30 10635 H 461.04 7.66642 -2.79492 0
M  V30 10636 H 458.385 5.16254 -2.65229 0
M  V30 10637 H 458.105 7.06532 -0.329431 0
M  V30 10638 H 457.114 6.91023 -1.82047 0
M  V30 10639 H 458.948 8.90873 -1.62657 0
M  V30 10640 H 459.02 6.00104 0.892197 0
M  V30 10641 H 458.918 4.31733 2.69229 0
M  V30 10642 H 458.53 0.724835 1.8844 0
M  V30 10643 H 458.726 1.94716 3.16734 0
M  V30 10644 P 457.077 8.03563 -3.84925 0
M  V30 10645 O 456.857 8.85821 -5.0569 0
M  V30 10646 O 456.287 8.41101 -2.65469 0
M  V30 10647 O 456.827 6.4965 -4.18908 0
M  V30 10648 C 457.767 5.81037 -5.05421 0
M  V30 10649 C 457.037 4.78366 -5.89277 0
M  V30 10650 O 456.827 3.58302 -5.08433 0
M  V30 10651 C 455.637 5.17448 -6.36119 0
M  V30 10652 O 455.247 4.45271 -7.53232 0
M  V30 10653 C 454.757 4.74639 -5.19936 0
M  V30 10654 C 455.467 3.49432 -4.70418 0
M  V30 10655 N 455.417 3.31776 -3.22945 0
M  V30 10656 H 458.256 6.54213 -5.71376 0
M  V30 10657 H 458.528 5.30492 -4.44033 0
M  V30 10658 H 457.66 4.55889 -6.76652 0
M  V30 10659 P 453.697 4.23843 -7.83734 0
M  V30 10660 O 453.477 4.19407 -9.29784 0
M  V30 10661 O 452.907 5.24426 -7.09156 0
M  V30 10662 O 453.447 2.7935 -7.20758 0
M  V30 10663 C 454.387 1.7299 -7.50419 0
M  V30 10664 C 453.657 0.406376 -7.57911 0
M  V30 10665 O 453.447 -0.0897726 -6.21935 0
M  V30 10666 C 452.257 0.447224 -8.1878 0
M  V30 10667 O 451.867 -0.825065 -8.71101 0
M  V30 10668 C 451.377 0.783801 -6.99623 0
M  V30 10669 C 452.087 0.0619192 -5.85967 0
M  V30 10670 N 452.037 0.7859 -4.56281 0
M  V30 10671 H 454.876 1.93423 -8.4679 0
M  V30 10672 H 455.148 1.68181 -6.71046 0
M  V30 10673 H 454.28 -0.289041 -8.15388 0
M  V30 10674 P 450.317 -1.17771 -8.83182 0
M  V30 10675 O 450.097 -2.07206 -9.98732 0
M  V30 10676 O 449.527 0.0743816 -8.81969 0
M  V30 10677 O 450.067 -1.97652 -7.47304 0
M  V30 10678 C 451.007 -3.01133 -7.08783 0
M  V30 10679 C 450.277 -4.12613 -6.37049 0
M  V30 10680 O 450.067 -3.72827 -4.97879 0
M  V30 10681 C 448.877 -4.45085 -6.88694 0
M  V30 10682 O 448.487 -5.7877 -6.5624 0
M  V30 10683 C 447.997 -3.47817 -6.12078 0
M  V30 10684 C 448.707 -3.39414 -4.77697 0
M  V30 10685 N 448.657 -2.04615 -4.15333 0
M  V30 10686 H 451.496 -3.41248 -7.98759 0
M  V30 10687 H 451.768 -2.5837 -6.41742 0
M  V30 10688 H 450.9 -5.02657 -6.42673 0
M  V30 10689 P 446.937 -6.144 -6.45285 0
M  V30 10690 O 446.717 -7.54673 -6.86199 0
M  V30 10691 O 446.147 -5.12391 -7.179 0
M  V30 10692 O 446.687 -5.99158 -4.88404 0
M  V30 10693 C 447.627 -6.60234 -3.96415 0
M  V30 10694 C 446.897 -7.08259 -2.72856 0
M  V30 10695 O 446.687 -5.9427 -1.83651 0
M  V30 10696 C 445.497 -7.64886 -2.9555 0
M  V30 10697 O 445.107 -8.53963 -1.90717 0
M  V30 10698 C 444.617 -6.4116 -2.90739 0
M  V30 10699 C 445.327 -5.55375 -1.86963 0
M  V30 10700 N 445.277 -4.09448 -2.16152 0
M  V30 10701 H 448.116 -7.45574 -4.45629 0
M  V30 10702 H 448.388 -5.85864 -3.679 0
M  V30 10703 H 447.52 -7.84412 -2.24479 0
M  V30 10704 H 444.865 -5.73457 -0.888562 0
M  V30 10705 H 444.585 -5.90877 -3.88583 0
M  V30 10706 H 443.594 -6.6596 -2.58858 0
M  V30 10707 H 445.428 -8.16339 -3.92049 0
M  V30 10708 P 443.557 -8.7635 -1.60911 0
M  V30 10709 O 443.337 -10.1388 -1.11561 0
M  V30 10710 O 442.767 -8.36503 -2.79617 0
M  V30 10711 O 443.307 -7.71806 -0.42951 0
M  V30 10712 C 444.247 -7.67148 0.673689 0
M  V30 10713 C 443.517 -7.33374 1.95559 0
M  V30 10714 O 443.307 -5.88721 2.00726 0
M  V30 10715 C 442.117 -7.92526 2.10483 0
M  V30 10716 O 441.727 -8.02971 3.47653 0
M  V30 10717 C 441.237 -6.89602 1.41652 0
M  V30 10718 C 441.947 -5.59201 1.75185 0
M  V30 10719 N 441.897 -4.58235 0.662552 0
M  V30 10720 H 444.736 -8.65116 0.777161 0
M  V30 10721 H 445.008 -6.90173 0.474152 0
M  V30 10722 H 444.14 -7.66548 2.79458 0
M  V30 10723 P 440.177 -8.03563 3.84925 0
M  V30 10724 O 439.957 -8.85821 5.0569 0
M  V30 10725 O 439.387 -8.41101 2.65469 0
M  V30 10726 O 439.927 -6.4965 4.18908 0
M  V30 10727 C 440.867 -5.81037 5.05421 0
M  V30 10728 C 440.137 -4.78366 5.89277 0
M  V30 10729 O 439.927 -3.58302 5.08433 0
M  V30 10730 C 438.737 -5.17448 6.36119 0
M  V30 10731 O 438.347 -4.45271 7.53232 0
M  V30 10732 C 437.857 -4.74639 5.19936 0
M  V30 10733 C 438.567 -3.49432 4.70418 0
M  V30 10734 N 438.517 -3.31776 3.22945 0
M  V30 10735 H 441.356 -6.54213 5.71376 0
M  V30 10736 H 441.628 -5.30492 4.44033 0
M  V30 10737 H 440.76 -4.55889 6.76652 0
M  V30 10738 P 436.797 -4.23843 7.83734 0
M  V30 10739 O 436.577 -4.19407 9.29784 0
M  V30 10740 O 436.007 -5.24426 7.09156 0
M  V30 10741 O 436.547 -2.7935 7.20758 0
M  V30 10742 C 437.487 -1.7299 7.50419 0
M  V30 10743 C 436.757 -0.406376 7.57911 0
M  V30 10744 O 436.547 0.0897726 6.21935 0
M  V30 10745 C 435.357 -0.447224 8.1878 0
M  V30 10746 O 434.967 0.825065 8.71101 0
M  V30 10747 C 434.477 -0.783801 6.99623 0
M  V30 10748 C 435.187 -0.0619192 5.85967 0
M  V30 10749 N 435.137 -0.7859 4.56281 0
M  V30 10750 H 437.976 -1.93423 8.4679 0
M  V30 10751 H 438.248 -1.68181 6.71046 0
M  V30 10752 H 437.38 0.289041 8.15388 0
M  V30 10753 P 433.417 1.17771 8.83182 0
M  V30 10754 O 433.197 2.07206 9.98732 0
M  V30 10755 O 432.627 -0.0743816 8.81969 0
M  V30 10756 O 433.167 1.97652 7.47304 0
M  V30 10757 C 434.107 3.01133 7.08783 0
M  V30 10758 C 433.377 4.12613 6.37049 0
M  V30 10759 O 433.167 3.72827 4.97879 0
M  V30 10760 C 431.977 4.45085 6.88694 0
M  V30 10761 O 431.587 5.7877 6.5624 0
M  V30 10762 C 431.097 3.47817 6.12078 0
M  V30 10763 C 431.807 3.39414 4.77697 0
M  V30 10764 N 431.757 2.04199 4.15538 0
M  V30 10765 H 434.596 3.41248 7.98759 0
M  V30 10766 H 434.868 2.57728 6.42 0
M  V30 10767 H 434 5.02657 6.42673 0
M  V30 10768 H 431.345 4.11708 4.08956 0
M  V30 10769 H 431.065 2.49626 6.61679 0
M  V30 10770 H 430.074 3.8662 6.00862 0
M  V30 10771 H 431.908 4.29991 7.97006 0
M  V30 10772 P 430.037 6.144 6.45285 0
M  V30 10773 O 429.817 7.54673 6.86199 0
M  V30 10774 O 429.247 5.12391 7.179 0
M  V30 10775 O 429.787 5.99158 4.88404 0
M  V30 10776 C 430.727 6.60234 3.96415 0
M  V30 10777 C 429.997 7.08259 2.72856 0
M  V30 10778 O 429.787 5.9427 1.83651 0
M  V30 10779 C 428.597 7.64886 2.9555 0
M  V30 10780 O 428.207 8.53963 1.90717 0
M  V30 10781 C 427.717 6.4116 2.90739 0
M  V30 10782 C 428.427 5.55375 1.86963 0
M  V30 10783 N 428.377 4.09664 2.15742 0
M  V30 10784 H 431.216 7.45574 4.45629 0
M  V30 10785 H 431.488 5.86232 3.67314 0
M  V30 10786 H 430.62 7.84412 2.24479 0
M  V30 10787 P 426.657 8.7635 1.60911 0
M  V30 10788 O 426.437 10.1388 1.11561 0
M  V30 10789 O 425.867 8.36503 2.79617 0
M  V30 10790 O 426.407 7.71806 0.42951 0
M  V30 10791 C 427.347 7.67148 -0.673689 0
M  V30 10792 C 426.617 7.33374 -1.95559 0
M  V30 10793 O 426.407 5.88721 -2.00726 0
M  V30 10794 C 425.217 7.92526 -2.10483 0
M  V30 10795 O 424.827 8.02971 -3.47653 0
M  V30 10796 C 424.337 6.89602 -1.41652 0
M  V30 10797 C 425.047 5.59201 -1.75185 0
M  V30 10798 N 424.997 4.58235 -0.662552 0
M  V30 10799 H 427.836 8.65116 -0.777161 0
M  V30 10800 H 428.108 6.90173 -0.474152 0
M  V30 10801 H 427.24 7.66548 -2.79458 0
M  V30 10802 P 423.278 8.03563 -3.84925 0
M  V30 10803 O 423.058 8.85821 -5.0569 0
M  V30 10804 O 422.488 8.41101 -2.65469 0
M  V30 10805 O 423.028 6.4965 -4.18908 0
M  V30 10806 C 423.968 5.80886 -5.05289 0
M  V30 10807 C 423.238 4.78366 -5.89277 0
M  V30 10808 O 423.028 3.58302 -5.08433 0
M  V30 10809 C 421.838 5.16748 -6.36559 0
M  V30 10810 O 421.448 4.45271 -7.53232 0
M  V30 10811 C 420.958 4.74572 -5.19863 0
M  V30 10812 C 421.668 3.49373 -4.70338 0
M  V30 10813 N 421.618 3.31704 -3.22876 0
M  V30 10814 C 421.468 2.03326 -2.74871 0
M  V30 10815 O 421.378 1.06486 -3.48076 0
M  V30 10816 N 421.428 1.91838 -1.37456 0
M  V30 10817 C 421.518 2.94295 -0.462035 0
M  V30 10818 O 421.468 2.71763 0.752928 0
M  V30 10819 C 421.668 4.25064 -1.05249 0
M  V30 10820 C 421.778 5.39815 -0.095697 0
M  V30 10821 C 421.718 4.40214 -2.39192 0
M  V30 10822 H 424.459 6.54063 -5.71245 0
M  V30 10823 H 424.728 5.30339 -4.43905 0
M  V30 10824 H 423.861 4.55889 -6.76652 0
M  V30 10825 H 421.206 2.6167 -5.17842 0
M  V30 10826 H 420.927 5.52155 -4.41878 0
M  V30 10827 H 419.935 4.51918 -5.53297 0
M  V30 10828 H 421.769 6.25055 -6.55162 0
M  V30 10829 H 421.84 5.39798 -2.81523 0
M  V30 10830 H 420.81 5.91593 -0.0279582 0
M  V30 10831 H 422.547 6.10038 -0.450573 0
M  V30 10832 H 422.059 5.02007 0.89937 0
M  V30 10833 H 421.323 0.995326 -1.00435 0
M  V30 10834 P 419.898 4.23843 -7.83734 0
M  V30 10835 O 419.678 4.19407 -9.29784 0
M  V30 10836 O 419.108 5.24426 -7.09156 0
M  V30 10837 O 419.648 2.7935 -7.20758 0
M  V30 10838 C 420.588 1.7299 -7.50419 0
M  V30 10839 C 419.858 0.406376 -7.57911 0
M  V30 10840 O 419.648 -0.0897726 -6.21935 0
M  V30 10841 C 418.458 0.447224 -8.1878 0
M  V30 10842 O 418.068 -0.825065 -8.71101 0
M  V30 10843 C 417.578 0.783801 -6.99623 0
M  V30 10844 C 418.288 0.0619192 -5.85967 0
M  V30 10845 N 418.238 0.790462 -4.56202 0
M  V30 10846 H 421.077 1.93423 -8.4679 0
M  V30 10847 H 421.349 1.68852 -6.70877 0
M  V30 10848 H 420.481 -0.289041 -8.15388 0
M  V30 10849 H 417.826 -0.927006 -5.72848 0
M  V30 10850 H 417.546 1.86973 -6.82036 0
M  V30 10851 H 416.555 0.403953 -7.13357 0
M  V30 10852 H 418.389 1.20599 -8.97534 0
M  V30 10853 P 416.518 -1.17771 -8.83182 0
M  V30 10854 O 416.298 -2.07206 -9.98732 0
M  V30 10855 O 415.728 0.0743816 -8.81969 0
M  V30 10856 O 416.268 -1.97652 -7.47304 0
M  V30 10857 C 417.208 -3.01133 -7.08783 0
M  V30 10858 C 416.478 -4.12613 -6.37049 0
M  V30 10859 O 416.268 -3.72827 -4.97879 0
M  V30 10860 C 415.078 -4.45085 -6.88694 0
M  V30 10861 O 414.688 -5.7877 -6.5624 0
M  V30 10862 C 414.198 -3.47817 -6.12078 0
M  V30 10863 C 414.908 -3.39414 -4.77697 0
M  V30 10864 N 414.858 -2.04615 -4.15333 0
M  V30 10865 C 414.938 -0.803897 -4.75249 0
M  V30 10866 N 414.858 0.197615 -3.91502 0
M  V30 10867 C 414.718 -0.413002 -2.66823 0
M  V30 10868 C 414.588 0.157221 -1.38007 0
M  V30 10869 N 414.468 -0.833136 -0.390236 0
M  V30 10870 C 414.468 -2.19402 -0.623885 0
M  V30 10871 N 414.338 -2.97622 0.449677 0
M  V30 10872 N 414.598 -2.73005 -1.83601 0
M  V30 10873 C 414.718 -1.78786 -2.80935 0
M  V30 10874 H 417.697 -3.41248 -7.98759 0
M  V30 10875 H 417.969 -2.5837 -6.41742 0
M  V30 10876 H 417.101 -5.02657 -6.42673 0
M  V30 10877 P 413.138 -6.144 -6.45285 0
M  V30 10878 O 412.918 -7.54673 -6.86199 0
M  V30 10879 O 412.348 -5.12391 -7.179 0
M  V30 10880 O 412.888 -5.99158 -4.88404 0
M  V30 10881 C 413.828 -6.60234 -3.96415 0
M  V30 10882 C 413.098 -7.08259 -2.72856 0
M  V30 10883 O 412.888 -5.9427 -1.83651 0
M  V30 10884 C 411.698 -7.64886 -2.9555 0
M  V30 10885 O 411.308 -8.53963 -1.90717 0
M  V30 10886 C 410.818 -6.4116 -2.90739 0
M  V30 10887 C 411.528 -5.55375 -1.86963 0
M  V30 10888 N 411.478 -4.09664 -2.15742 0
M  V30 10889 H 414.317 -7.45574 -4.45629 0
M  V30 10890 H 414.589 -5.86232 -3.67314 0
M  V30 10891 H 413.721 -7.84412 -2.24479 0
M  V30 10892 P 409.758 -8.7635 -1.60911 0
M  V30 10893 O 409.538 -10.1388 -1.11561 0
M  V30 10894 O 408.968 -8.36503 -2.79617 0
M  V30 10895 O 409.508 -7.71806 -0.42951 0
M  V30 10896 C 410.448 -7.67148 0.673689 0
M  V30 10897 C 409.718 -7.33374 1.95559 0
M  V30 10898 O 409.508 -5.88721 2.00726 0
M  V30 10899 C 408.318 -7.92526 2.10483 0
M  V30 10900 O 407.928 -8.02971 3.47653 0
M  V30 10901 C 407.438 -6.89602 1.41652 0
M  V30 10902 C 408.148 -5.59201 1.75185 0
M  V30 10903 N 408.098 -4.58235 0.662552 0
M  V30 10904 H 410.937 -8.65116 0.777161 0
M  V30 10905 H 411.209 -6.90173 0.474152 0
M  V30 10906 H 410.341 -7.66548 2.79458 0
M  V30 10907 P 406.378 -8.03563 3.84925 0
M  V30 10908 O 406.158 -8.85821 5.0569 0
M  V30 10909 O 405.588 -8.41101 2.65469 0
M  V30 10910 O 406.128 -6.4965 4.18908 0
M  V30 10911 C 407.068 -5.81037 5.05421 0
M  V30 10912 C 406.338 -4.78366 5.89277 0
M  V30 10913 O 406.128 -3.58302 5.08433 0
M  V30 10914 C 404.938 -5.17448 6.36119 0
M  V30 10915 O 404.548 -4.45271 7.53232 0
M  V30 10916 C 404.058 -4.74639 5.19936 0
M  V30 10917 C 404.768 -3.49432 4.70418 0
M  V30 10918 N 404.718 -3.31776 3.22945 0
M  V30 10919 H 407.557 -6.54213 5.71376 0
M  V30 10920 H 407.829 -5.30492 4.44033 0
M  V30 10921 H 406.961 -4.55889 6.76652 0
M  V30 10922 P 402.998 -4.23843 7.83734 0
M  V30 10923 O 402.778 -4.19407 9.29784 0
M  V30 10924 O 402.208 -5.24426 7.09156 0
M  V30 10925 O 402.748 -2.7935 7.20758 0
M  V30 10926 C 403.688 -1.7299 7.50419 0
M  V30 10927 C 402.958 -0.406376 7.57911 0
M  V30 10928 O 402.748 0.0897726 6.21935 0
M  V30 10929 C 401.558 -0.447224 8.1878 0
M  V30 10930 O 401.168 0.825065 8.71101 0
M  V30 10931 C 400.678 -0.783801 6.99623 0
M  V30 10932 C 401.388 -0.0619192 5.85967 0
M  V30 10933 N 401.338 -0.7859 4.56281 0
M  V30 10934 H 404.177 -1.93423 8.4679 0
M  V30 10935 H 404.449 -1.68181 6.71046 0
M  V30 10936 H 403.581 0.289041 8.15388 0
M  V30 10937 P 399.618 1.17771 8.83182 0
M  V30 10938 O 399.398 2.07206 9.98732 0
M  V30 10939 O 398.828 -0.0743816 8.81969 0
M  V30 10940 O 399.368 1.97652 7.47304 0
M  V30 10941 C 400.308 3.01133 7.08783 0
M  V30 10942 C 399.578 4.12613 6.37049 0
M  V30 10943 O 399.368 3.72827 4.97879 0
M  V30 10944 C 398.178 4.45085 6.88694 0
M  V30 10945 O 397.788 5.7877 6.5624 0
M  V30 10946 C 397.298 3.47817 6.12078 0
M  V30 10947 C 398.008 3.39414 4.77697 0
M  V30 10948 N 397.958 2.04615 4.15333 0
M  V30 10949 H 400.797 3.41248 7.98759 0
M  V30 10950 H 401.069 2.5837 6.41742 0
M  V30 10951 H 400.201 5.02657 6.42673 0
M  V30 10952 P 396.238 6.144 6.45285 0
M  V30 10953 O 396.018 7.54673 6.86199 0
M  V30 10954 O 395.448 5.12391 7.179 0
M  V30 10955 O 395.988 5.99158 4.88404 0
M  V30 10956 C 396.928 6.60062 3.96313 0
M  V30 10957 C 396.198 7.08259 2.72856 0
M  V30 10958 O 395.988 5.9427 1.83651 0
M  V30 10959 C 394.798 7.65087 2.94749 0
M  V30 10960 O 394.408 8.53963 1.90717 0
M  V30 10961 C 393.918 6.41069 2.90698 0
M  V30 10962 C 394.628 5.5528 1.86931 0
M  V30 10963 N 394.578 4.09575 2.15696 0
M  V30 10964 C 394.428 3.24249 1.08435 0
M  V30 10965 O 394.338 3.63946 -0.0628747 0
M  V30 10966 N 394.388 1.90009 1.39973 0
M  V30 10967 C 394.478 1.34884 2.65614 0
M  V30 10968 O 394.428 0.123716 2.81728 0
M  V30 10969 C 394.628 2.3145 3.71736 0
M  V30 10970 C 394.738 1.75913 5.10438 0
M  V30 10971 C 394.678 3.63518 3.44754 0
M  V30 10972 H 397.419 7.45402 4.45526 0
M  V30 10973 H 397.688 5.86062 3.67208 0
M  V30 10974 H 396.821 7.84412 2.24479 0
M  V30 10975 H 394.166 5.73358 0.888409 0
M  V30 10976 H 393.887 5.90877 3.88583 0
M  V30 10977 H 392.895 6.65867 2.58821 0
M  V30 10978 H 394.729 8.16248 3.92006 0
M  V30 10979 H 394.8 4.34551 4.26383 0
M  V30 10980 H 393.77 1.85471 5.61775 0
M  V30 10981 H 395.507 2.31364 5.66257 0
M  V30 10982 H 395.019 0.695936 5.05229 0
M  V30 10983 H 394.283 1.26277 0.63625 0
M  V30 10984 P 392.858 8.7635 1.60911 0
M  V30 10985 O 392.638 10.1388 1.11561 0
M  V30 10986 O 392.068 8.36503 2.79617 0
M  V30 10987 O 392.608 7.71806 0.42951 0
M  V30 10988 C 393.548 7.67148 -0.673689 0
M  V30 10989 C 392.818 7.33374 -1.95559 0
M  V30 10990 O 392.608 5.88721 -2.00726 0
M  V30 10991 C 391.418 7.92526 -2.10483 0
M  V30 10992 O 391.028 8.02971 -3.47653 0
M  V30 10993 C 390.538 6.89602 -1.41652 0
M  V30 10994 C 391.248 5.59201 -1.75185 0
M  V30 10995 N 391.198 4.58301 -0.657969 0
M  V30 10996 H 394.037 8.65116 -0.777161 0
M  V30 10997 H 394.309 6.9022 -0.46725 0
M  V30 10998 H 393.441 7.66548 -2.79458 0
M  V30 10999 H 390.786 5.16165 -2.65183 0
M  V30 11000 H 390.506 7.06433 -0.329384 0
M  V30 11001 H 389.515 6.90926 -1.82021 0
M  V30 11002 H 391.349 8.90873 -1.62657 0
M  V30 11003 P 389.478 8.03563 -3.84925 0
M  V30 11004 O 389.258 8.85821 -5.0569 0
M  V30 11005 O 388.688 8.41101 -2.65469 0
M  V30 11006 O 389.228 6.4965 -4.18908 0
M  V30 11007 C 390.168 5.81037 -5.05421 0
M  V30 11008 C 389.438 4.78366 -5.89277 0
M  V30 11009 O 389.228 3.58302 -5.08433 0
M  V30 11010 C 388.038 5.17448 -6.36119 0
M  V30 11011 O 387.648 4.45271 -7.53232 0
M  V30 11012 C 387.158 4.74639 -5.19936 0
M  V30 11013 C 387.868 3.49432 -4.70418 0
M  V30 11014 N 387.818 3.31776 -3.22945 0
M  V30 11015 H 390.657 6.54213 -5.71376 0
M  V30 11016 H 390.929 5.30492 -4.44033 0
M  V30 11017 H 390.061 4.55889 -6.76652 0
M  V30 11018 P 386.098 4.23843 -7.83734 0
M  V30 11019 O 385.878 4.19407 -9.29784 0
M  V30 11020 O 385.308 5.24426 -7.09156 0
M  V30 11021 O 385.848 2.7935 -7.20758 0
M  V30 11022 C 386.788 1.7299 -7.50419 0
M  V30 11023 C 386.058 0.406376 -7.57911 0
M  V30 11024 O 385.848 -0.0897726 -6.21935 0
M  V30 11025 C 384.658 0.447224 -8.1878 0
M  V30 11026 O 384.268 -0.825065 -8.71101 0
M  V30 11027 C 383.778 0.783801 -6.99623 0
M  V30 11028 C 384.488 0.0619192 -5.85967 0
M  V30 11029 N 384.438 0.7859 -4.56281 0
M  V30 11030 H 387.277 1.93423 -8.4679 0
M  V30 11031 H 387.549 1.68181 -6.71046 0
M  V30 11032 H 386.681 -0.289041 -8.15388 0
M  V30 11033 P 382.718 -1.17771 -8.83182 0
M  V30 11034 O 382.498 -2.07206 -9.98732 0
M  V30 11035 O 381.928 0.0743816 -8.81969 0
M  V30 11036 O 382.468 -1.97652 -7.47304 0
M  V30 11037 C 383.408 -3.01055 -7.08599 0
M  V30 11038 C 382.678 -4.12613 -6.37049 0
M  V30 11039 O 382.468 -3.72827 -4.97879 0
M  V30 11040 C 381.278 -4.45719 -6.88164 0
M  V30 11041 O 380.888 -5.7877 -6.5624 0
M  V30 11042 C 380.398 -3.47768 -6.11991 0
M  V30 11043 C 381.108 -3.39356 -4.77615 0
M  V30 11044 N 381.058 -2.04571 -4.15244 0
M  V30 11045 C 380.908 -1.98587 -2.78314 0
M  V30 11046 O 380.818 -2.98134 -2.08835 0
M  V30 11047 N 380.868 -0.714467 -2.24925 0
M  V30 11048 C 380.958 0.470001 -2.94169 0
M  V30 11049 C 381.108 0.312541 -4.36783 0
M  V30 11050 C 381.158 -0.914512 -4.92583 0
M  V30 11051 H 383.899 -3.41169 -7.98575 0
M  V30 11052 H 384.168 -2.58295 -6.41556 0
M  V30 11053 H 383.301 -5.02657 -6.42673 0
M  V30 11054 H 380.646 -4.11637 -4.08885 0
M  V30 11055 H 380.367 -2.49626 -6.61679 0
M  V30 11056 H 379.375 -3.86566 -6.00778 0
M  V30 11057 H 381.209 -4.29943 -7.96918 0
M  V30 11058 H 381.28 -1.00937 -6.00374 0
M  V30 11059 P 379.338 -6.144 -6.45285 0
M  V30 11060 O 379.118 -7.54673 -6.86199 0
M  V30 11061 O 378.548 -5.12391 -7.179 0
M  V30 11062 O 379.088 -5.99158 -4.88404 0
M  V30 11063 C 380.028 -6.60234 -3.96415 0
M  V30 11064 C 379.298 -7.08259 -2.72856 0
M  V30 11065 O 379.088 -5.9427 -1.83651 0
M  V30 11066 C 377.898 -7.64886 -2.9555 0
M  V30 11067 O 377.508 -8.53963 -1.90717 0
M  V30 11068 C 377.018 -6.4116 -2.90739 0
M  V30 11069 C 377.728 -5.55375 -1.86963 0
M  V30 11070 N 377.678 -4.09664 -2.15742 0
M  V30 11071 H 380.517 -7.45574 -4.45629 0
M  V30 11072 H 380.789 -5.86232 -3.67314 0
M  V30 11073 H 379.921 -7.84412 -2.24479 0
M  V30 11074 P 375.958 -8.7635 -1.60911 0
M  V30 11075 O 375.738 -10.1388 -1.11561 0
M  V30 11076 O 375.168 -8.36503 -2.79617 0
M  V30 11077 O 375.708 -7.71806 -0.42951 0
M  V30 11078 C 376.648 -7.67148 0.673689 0
M  V30 11079 C 375.918 -7.33374 1.95559 0
M  V30 11080 O 375.708 -5.88721 2.00726 0
M  V30 11081 C 374.518 -7.92526 2.10483 0
M  V30 11082 O 374.128 -8.02971 3.47653 0
M  V30 11083 C 373.638 -6.89602 1.41652 0
M  V30 11084 C 374.348 -5.59201 1.75185 0
M  V30 11085 N 374.298 -4.58235 0.662552 0
M  V30 11086 H 377.137 -8.65116 0.777161 0
M  V30 11087 H 377.409 -6.90173 0.474152 0
M  V30 11088 H 376.541 -7.66548 2.79458 0
M  V30 11089 P 372.578 -8.03563 3.84925 0
M  V30 11090 O 372.358 -8.85821 5.0569 0
M  V30 11091 O 371.788 -8.41101 2.65469 0
M  V30 11092 O 372.328 -6.4965 4.18908 0
M  V30 11093 C 373.268 -5.81037 5.05421 0
M  V30 11094 C 372.538 -4.78366 5.89277 0
M  V30 11095 O 372.328 -3.58302 5.08433 0
M  V30 11096 C 371.138 -5.17448 6.36119 0
M  V30 11097 O 370.748 -4.45271 7.53232 0
M  V30 11098 C 370.258 -4.74639 5.19936 0
M  V30 11099 C 370.968 -3.49432 4.70418 0
M  V30 11100 N 370.918 -3.31776 3.22945 0
M  V30 11101 H 373.757 -6.54213 5.71376 0
M  V30 11102 H 374.029 -5.30492 4.44033 0
M  V30 11103 H 373.161 -4.55889 6.76652 0
M  V30 11104 P 369.198 -4.23843 7.83734 0
M  V30 11105 O 368.978 -4.19407 9.29784 0
M  V30 11106 O 368.408 -5.24426 7.09156 0
M  V30 11107 O 368.948 -2.7935 7.20758 0
M  V30 11108 C 369.888 -1.7299 7.50419 0
M  V30 11109 C 369.158 -0.406376 7.57911 0
M  V30 11110 O 368.948 0.0897726 6.21935 0
M  V30 11111 C 367.758 -0.447224 8.1878 0
M  V30 11112 O 367.368 0.825065 8.71101 0
M  V30 11113 C 366.878 -0.783801 6.99623 0
M  V30 11114 C 367.588 -0.0619192 5.85967 0
M  V30 11115 N 367.538 -0.790462 4.56202 0
M  V30 11116 H 370.377 -1.93423 8.4679 0
M  V30 11117 H 370.649 -1.68852 6.70877 0
M  V30 11118 H 369.781 0.289041 8.15388 0
M  V30 11119 H 367.126 0.927006 5.72848 0
M  V30 11120 H 366.846 -1.86973 6.82036 0
M  V30 11121 H 365.855 -0.403953 7.13357 0
M  V30 11122 H 367.689 -1.20599 8.97534 0
M  V30 11123 P 365.818 1.17771 8.83182 0
M  V30 11124 O 365.598 2.07206 9.98732 0
M  V30 11125 O 365.028 -0.0743816 8.81969 0
M  V30 11126 O 365.568 1.97652 7.47304 0
M  V30 11127 C 366.508 3.01133 7.08783 0
M  V30 11128 C 365.778 4.12613 6.37049 0
M  V30 11129 O 365.568 3.72827 4.97879 0
M  V30 11130 C 364.378 4.45085 6.88694 0
M  V30 11131 O 363.988 5.7877 6.5624 0
M  V30 11132 C 363.498 3.47817 6.12078 0
M  V30 11133 C 364.208 3.39414 4.77697 0
M  V30 11134 N 364.158 2.04615 4.15333 0
M  V30 11135 H 366.997 3.41248 7.98759 0
M  V30 11136 H 367.269 2.5837 6.41742 0
M  V30 11137 H 366.401 5.02657 6.42673 0
M  V30 11138 P 362.438 6.144 6.45285 0
M  V30 11139 O 362.218 7.54673 6.86199 0
M  V30 11140 O 361.648 5.12391 7.179 0
M  V30 11141 O 362.188 5.99158 4.88404 0
M  V30 11142 C 363.128 6.60234 3.96415 0
M  V30 11143 C 362.398 7.08259 2.72856 0
M  V30 11144 O 362.188 5.9427 1.83651 0
M  V30 11145 C 360.998 7.64886 2.9555 0
M  V30 11146 O 360.608 8.53963 1.90717 0
M  V30 11147 C 360.118 6.4116 2.90739 0
M  V30 11148 C 360.828 5.55375 1.86963 0
M  V30 11149 N 360.778 4.09664 2.15742 0
M  V30 11150 H 363.617 7.45574 4.45629 0
M  V30 11151 H 363.889 5.86232 3.67314 0
M  V30 11152 H 363.021 7.84412 2.24479 0
M  V30 11153 P 359.058 8.7635 1.60911 0
M  V30 11154 O 358.838 10.1388 1.11561 0
M  V30 11155 O 358.268 8.36503 2.79617 0
M  V30 11156 O 358.808 7.71806 0.42951 0
M  V30 11157 C 359.748 7.67148 -0.673689 0
M  V30 11158 C 359.018 7.33374 -1.95559 0
M  V30 11159 O 358.808 5.88721 -2.00726 0
M  V30 11160 C 357.618 7.92526 -2.10483 0
M  V30 11161 O 357.228 8.02971 -3.47653 0
M  V30 11162 C 356.738 6.89602 -1.41652 0
M  V30 11163 C 357.448 5.59201 -1.75185 0
M  V30 11164 N 357.398 4.58235 -0.662552 0
M  V30 11165 H 360.237 8.65116 -0.777161 0
M  V30 11166 H 360.509 6.90173 -0.474152 0
M  V30 11167 H 359.641 7.66548 -2.79458 0
M  V30 11168 P 355.678 8.03563 -3.84925 0
M  V30 11169 O 355.458 8.85821 -5.0569 0
M  V30 11170 O 354.888 8.41101 -2.65469 0
M  V30 11171 O 355.428 6.4965 -4.18908 0
M  V30 11172 C 356.368 5.81037 -5.05421 0
M  V30 11173 C 355.638 4.78366 -5.89277 0
M  V30 11174 O 355.428 3.58302 -5.08433 0
M  V30 11175 C 354.238 5.17448 -6.36119 0
M  V30 11176 O 353.848 4.45271 -7.53232 0
M  V30 11177 C 353.358 4.74639 -5.19936 0
M  V30 11178 C 354.068 3.49432 -4.70418 0
M  V30 11179 N 354.018 3.31776 -3.22945 0
M  V30 11180 H 356.857 6.54213 -5.71376 0
M  V30 11181 H 357.129 5.30492 -4.44033 0
M  V30 11182 H 356.261 4.55889 -6.76652 0
M  V30 11183 P 352.298 4.23843 -7.83734 0
M  V30 11184 O 352.078 4.19407 -9.29784 0
M  V30 11185 O 351.508 5.24426 -7.09156 0
M  V30 11186 O 352.048 2.7935 -7.20758 0
M  V30 11187 C 352.988 1.7299 -7.50419 0
M  V30 11188 C 352.258 0.406376 -7.57911 0
M  V30 11189 O 352.048 -0.0897726 -6.21935 0
M  V30 11190 C 350.858 0.447224 -8.1878 0
M  V30 11191 O 350.468 -0.825065 -8.71101 0
M  V30 11192 C 349.978 0.783801 -6.99623 0
M  V30 11193 C 350.688 0.0619192 -5.85967 0
M  V30 11194 N 350.638 0.790462 -4.56202 0
M  V30 11195 H 353.477 1.93423 -8.4679 0
M  V30 11196 H 353.749 1.68852 -6.70877 0
M  V30 11197 H 352.881 -0.289041 -8.15388 0
M  V30 11198 H 350.226 -0.927006 -5.72848 0
M  V30 11199 H 349.946 1.86973 -6.82036 0
M  V30 11200 H 348.955 0.403953 -7.13357 0
M  V30 11201 H 350.789 1.20599 -8.97534 0
M  V30 11202 P 348.918 -1.17771 -8.83182 0
M  V30 11203 O 348.698 -2.07206 -9.98732 0
M  V30 11204 O 348.128 0.0743816 -8.81969 0
M  V30 11205 O 348.668 -1.97678 -7.474 0
M  V30 11206 C 349.608 -3.01133 -7.08783 0
M  V30 11207 C 348.878 -4.1203 -6.37546 0
M  V30 11208 O 348.668 -3.72887 -4.9796 0
M  V30 11209 C 347.478 -4.45085 -6.88694 0
M  V30 11210 O 347.088 -5.78836 -6.56315 0
M  V30 11211 C 346.598 -3.47817 -6.12078 0
M  V30 11212 C 347.308 -3.39414 -4.77697 0
M  V30 11213 N 347.258 -2.04615 -4.15333 0
M  V30 11214 C 347.108 -1.96929 -2.77162 0
M  V30 11215 O 347.018 -3.02017 -2.12006 0
M  V30 11216 N 347.058 -0.55485 -2.24237 0
M  V30 11217 C 347.158 0.367808 -2.9169 0
M  V30 11218 N 347.108 1.53426 -2.29427 0
M  V30 11219 C 347.308 0.319148 -4.33828 0
M  V30 11220 C 347.358 -0.920672 -4.90433 0
M  V30 11221 H 350.098 -3.41209 -7.98667 0
M  V30 11222 H 350.368 -2.5837 -6.41742 0
M  V30 11223 H 349.501 -5.02718 -6.42752 0
M  V30 11224 H 346.846 -4.11779 -4.09026 0
M  V30 11225 H 346.566 -2.49661 -6.61772 0
M  V30 11226 H 345.575 -3.86674 -6.00946 0
M  V30 11227 H 347.409 -4.29991 -7.97006 0
M  V30 11228 H 347.481 -1.00589 -5.98303 0
M  V30 11229 H 347.379 1.22639 -4.93799 0
M  V30 11230 H 346.991 1.56819 -1.27167 0
M  V30 11231 H 347.187 2.41062 -2.83063 0
M  V30 11232 P 345.538 -6.144 -6.45285 0
M  V30 11233 O 345.318 -7.54673 -6.86199 0
M  V30 11234 O 344.748 -5.12391 -7.179 0
M  V30 11235 O 345.288 -5.99158 -4.88404 0
M  V30 11236 C 346.228 -6.60062 -3.96313 0
M  V30 11237 C 345.498 -7.08259 -2.72856 0
M  V30 11238 O 345.288 -5.9427 -1.83651 0
M  V30 11239 C 344.098 -7.65087 -2.94749 0
M  V30 11240 O 343.708 -8.53963 -1.90717 0
M  V30 11241 C 343.218 -6.41069 -2.90698 0
M  V30 11242 C 343.928 -5.5528 -1.86931 0
M  V30 11243 N 343.878 -4.09575 -2.15696 0
M  V30 11244 C 343.728 -3.24249 -1.08435 0
M  V30 11245 O 343.638 -3.63946 0.0628747 0
M  V30 11246 N 343.688 -1.90009 -1.39973 0
M  V30 11247 C 343.778 -1.34884 -2.65614 0
M  V30 11248 C 343.928 -2.3145 -3.71736 0
M  V30 11249 C 343.978 -3.63518 -3.44754 0
M  V30 11250 H 346.719 -7.45402 -4.45526 0
M  V30 11251 H 346.988 -5.86062 -3.67208 0
M  V30 11252 H 346.121 -7.84412 -2.24479 0
M  V30 11253 H 343.466 -5.73358 -0.888409 0
M  V30 11254 H 343.187 -5.90877 -3.88583 0
M  V30 11255 H 342.195 -6.65867 -2.58821 0
M  V30 11256 H 344.029 -8.16248 -3.92006 0
M  V30 11257 H 344.1 -4.34551 -4.26383 0
M  V30 11258 P 342.158 -8.7635 -1.60911 0
M  V30 11259 O 341.938 -10.1388 -1.11561 0
M  V30 11260 O 341.368 -8.36503 -2.79617 0
M  V30 11261 O 341.908 -7.71806 -0.42951 0
M  V30 11262 C 342.848 -7.67148 0.673689 0
M  V30 11263 C 342.118 -7.33374 1.95559 0
M  V30 11264 O 341.908 -5.88721 2.00726 0
M  V30 11265 C 340.718 -7.92526 2.10483 0
M  V30 11266 O 340.328 -8.02971 3.47653 0
M  V30 11267 C 339.838 -6.89602 1.41652 0
M  V30 11268 C 340.548 -5.59201 1.75185 0
M  V30 11269 N 340.498 -4.58235 0.662552 0
M  V30 11270 H 343.337 -8.65116 0.777161 0
M  V30 11271 H 343.609 -6.90173 0.474152 0
M  V30 11272 H 342.741 -7.66548 2.79458 0
M  V30 11273 P 338.778 -8.03563 3.84925 0
M  V30 11274 O 338.558 -8.85821 5.0569 0
M  V30 11275 O 337.988 -8.41101 2.65469 0
M  V30 11276 O 338.528 -6.4965 4.18908 0
M  V30 11277 C 339.468 -5.81037 5.05421 0
M  V30 11278 C 338.738 -4.78366 5.89277 0
M  V30 11279 O 338.528 -3.58302 5.08433 0
M  V30 11280 C 337.338 -5.17448 6.36119 0
M  V30 11281 O 336.948 -4.45271 7.53232 0
M  V30 11282 C 336.458 -4.74639 5.19936 0
M  V30 11283 C 337.168 -3.49432 4.70418 0
M  V30 11284 N 337.118 -3.31776 3.22945 0
M  V30 11285 H 339.957 -6.54213 5.71376 0
M  V30 11286 H 340.229 -5.30492 4.44033 0
M  V30 11287 H 339.361 -4.55889 6.76652 0
M  V30 11288 P 335.398 -4.23843 7.83734 0
M  V30 11289 O 335.178 -4.19407 9.29784 0
M  V30 11290 O 334.608 -5.24426 7.09156 0
M  V30 11291 O 335.148 -2.7935 7.20758 0
M  V30 11292 C 336.088 -1.7299 7.50419 0
M  V30 11293 C 335.358 -0.406376 7.57911 0
M  V30 11294 O 335.148 0.0897726 6.21935 0
M  V30 11295 C 333.958 -0.447224 8.1878 0
M  V30 11296 O 333.568 0.825065 8.71101 0
M  V30 11297 C 333.078 -0.783801 6.99623 0
M  V30 11298 C 333.788 -0.0619192 5.85967 0
M  V30 11299 N 333.738 -0.790462 4.56202 0
M  V30 11300 H 336.577 -1.93423 8.4679 0
M  V30 11301 H 336.849 -1.68852 6.70877 0
M  V30 11302 H 335.981 0.289041 8.15388 0
M  V30 11303 H 333.326 0.927006 5.72848 0
M  V30 11304 H 333.046 -1.86973 6.82036 0
M  V30 11305 H 332.055 -0.403953 7.13357 0
M  V30 11306 H 333.889 -1.20599 8.97534 0
M  V30 11307 P 332.018 1.17771 8.83182 0
M  V30 11308 O 331.798 2.07206 9.98732 0
M  V30 11309 O 331.228 -0.0743816 8.81969 0
M  V30 11310 O 331.768 1.97652 7.47304 0
M  V30 11311 C 332.708 3.01133 7.08783 0
M  V30 11312 C 331.978 4.12613 6.37049 0
M  V30 11313 O 331.768 3.72827 4.97879 0
M  V30 11314 C 330.578 4.45085 6.88694 0
M  V30 11315 O 330.188 5.7877 6.5624 0
M  V30 11316 C 329.698 3.47817 6.12078 0
M  V30 11317 C 330.408 3.39414 4.77697 0
M  V30 11318 N 330.358 2.04199 4.15538 0
M  V30 11319 C 330.438 0.821545 4.76977 0
M  V30 11320 N 330.368 -0.1794 3.94592 0
M  V30 11321 C 330.218 0.419121 2.70776 0
M  V30 11322 C 330.088 -0.109072 1.40577 0
M  V30 11323 N 330.078 -1.4104 1.1344 0
M  V30 11324 N 329.968 0.764381 0.39411 0
M  V30 11325 C 329.978 2.06587 0.664135 0
M  V30 11326 N 330.098 2.67948 1.82153 0
M  V30 11327 C 330.218 1.77942 2.8147 0
M  V30 11328 H 333.197 3.41248 7.98759 0
M  V30 11329 H 333.469 2.57728 6.42 0
M  V30 11330 H 332.601 5.02657 6.42673 0
M  V30 11331 H 329.946 4.11708 4.08956 0
M  V30 11332 H 329.666 2.49626 6.61679 0
M  V30 11333 H 328.675 3.8662 6.00862 0
M  V30 11334 H 330.509 4.29991 7.97006 0
M  V30 11335 H 330.55 0.702451 5.84696 0
M  V30 11336 H 330.169 -2.09647 1.89651 0
M  V30 11337 H 329.98 -1.73358 0.160575 0
M  V30 11338 H 329.872 2.71695 -0.195838 0
M  V30 11339 P 328.638 6.144 6.45285 0
M  V30 11340 O 328.418 7.54673 6.86199 0
M  V30 11341 O 327.848 5.12391 7.179 0
M  V30 11342 O 328.388 5.99158 4.88404 0
M  V30 11343 C 329.328 6.60234 3.96415 0
M  V30 11344 C 328.598 7.08259 2.72856 0
M  V30 11345 O 328.388 5.9427 1.83651 0
M  V30 11346 C 327.198 7.64886 2.9555 0
M  V30 11347 O 326.808 8.53963 1.90717 0
M  V30 11348 C 326.318 6.4116 2.90739 0
M  V30 11349 C 327.028 5.55375 1.86963 0
M  V30 11350 N 326.978 4.09664 2.15742 0
M  V30 11351 H 329.817 7.45574 4.45629 0
M  V30 11352 H 330.089 5.86232 3.67314 0
M  V30 11353 H 329.221 7.84412 2.24479 0
M  V30 11354 P 325.258 8.7635 1.60911 0
M  V30 11355 O 325.038 10.1388 1.11561 0
M  V30 11356 O 324.468 8.36503 2.79617 0
M  V30 11357 O 325.008 7.71806 0.42951 0
M  V30 11358 C 325.948 7.67148 -0.673689 0
M  V30 11359 C 325.218 7.33374 -1.95559 0
M  V30 11360 O 325.008 5.88721 -2.00726 0
M  V30 11361 C 323.818 7.92526 -2.10483 0
M  V30 11362 O 323.428 8.02971 -3.47653 0
M  V30 11363 C 322.938 6.89602 -1.41652 0
M  V30 11364 C 323.648 5.59201 -1.75185 0
M  V30 11365 N 323.598 4.58235 -0.662552 0
M  V30 11366 H 326.437 8.65116 -0.777161 0
M  V30 11367 H 326.709 6.90173 -0.474152 0
M  V30 11368 H 325.841 7.66548 -2.79458 0
M  V30 11369 P 321.878 8.03563 -3.84925 0
M  V30 11370 O 321.658 8.85821 -5.0569 0
M  V30 11371 O 321.088 8.41101 -2.65469 0
M  V30 11372 O 321.628 6.4965 -4.18908 0
M  V30 11373 C 322.568 5.80886 -5.05289 0
M  V30 11374 C 321.838 4.78366 -5.89277 0
M  V30 11375 O 321.628 3.58302 -5.08433 0
M  V30 11376 C 320.438 5.16748 -6.36559 0
M  V30 11377 O 320.048 4.45271 -7.53232 0
M  V30 11378 C 319.558 4.74572 -5.19863 0
M  V30 11379 C 320.268 3.49373 -4.70338 0
M  V30 11380 N 320.218 3.31704 -3.22876 0
M  V30 11381 C 320.068 2.03326 -2.74871 0
M  V30 11382 O 319.978 1.06486 -3.48076 0
M  V30 11383 N 320.028 1.91838 -1.37456 0
M  V30 11384 C 320.118 2.94295 -0.462035 0
M  V30 11385 O 320.068 2.71763 0.752928 0
M  V30 11386 C 320.268 4.25064 -1.05249 0
M  V30 11387 C 320.378 5.39815 -0.095697 0
M  V30 11388 C 320.318 4.40214 -2.39192 0
M  V30 11389 H 323.059 6.54063 -5.71245 0
M  V30 11390 H 323.328 5.30339 -4.43905 0
M  V30 11391 H 322.461 4.55889 -6.76652 0
M  V30 11392 H 319.806 2.6167 -5.17842 0
M  V30 11393 H 319.527 5.52155 -4.41878 0
M  V30 11394 H 318.535 4.51918 -5.53297 0
M  V30 11395 H 320.369 6.25055 -6.55162 0
M  V30 11396 H 320.44 5.39798 -2.81523 0
M  V30 11397 H 319.41 5.91593 -0.0279582 0
M  V30 11398 H 321.147 6.10038 -0.450573 0
M  V30 11399 H 320.659 5.02007 0.89937 0
M  V30 11400 H 319.923 0.995326 -1.00435 0
M  V30 11401 P 318.498 4.23843 -7.83734 0
M  V30 11402 O 318.278 4.19407 -9.29784 0
M  V30 11403 O 317.708 5.24426 -7.09156 0
M  V30 11404 O 318.248 2.7935 -7.20758 0
M  V30 11405 C 319.188 1.72945 -7.50224 0
M  V30 11406 C 318.458 0.406376 -7.57911 0
M  V30 11407 O 318.248 -0.0897726 -6.21935 0
M  V30 11408 C 317.058 0.438983 -8.18724 0
M  V30 11409 O 316.668 -0.825065 -8.71101 0
M  V30 11410 C 316.178 0.783689 -6.99524 0
M  V30 11411 C 316.888 0.0619086 -5.85867 0
M  V30 11412 N 316.838 0.78573 -4.56183 0
M  V30 11413 C 316.688 0.0292889 -3.41887 0
M  V30 11414 O 316.598 -1.18445 -3.4419 0
M  V30 11415 N 316.648 0.744061 -2.23964 0
M  V30 11416 C 316.738 2.10932 -2.10362 0
M  V30 11417 O 316.688 2.64117 -0.98825 0
M  V30 11418 C 316.888 2.8202 -3.34994 0
M  V30 11419 C 316.998 4.31095 -3.25037 0
M  V30 11420 C 316.938 2.15547 -4.52261 0
M  V30 11421 H 319.679 1.93379 -8.46595 0
M  V30 11422 H 319.948 1.68132 -6.70852 0
M  V30 11423 H 319.081 -0.289041 -8.15388 0
M  V30 11424 H 316.426 -0.926847 -5.72749 0
M  V30 11425 H 316.147 1.86973 -6.82036 0
M  V30 11426 H 315.155 0.403896 -7.13257 0
M  V30 11427 H 316.989 1.20585 -8.97435 0
M  V30 11428 H 317.06 2.71231 -5.45042 0
M  V30 11429 H 316.03 4.76966 -3.49992 0
M  V30 11430 H 317.767 4.67047 -3.95024 0
M  V30 11431 H 317.279 4.58996 -2.22312 0
M  V30 11432 H 316.543 0.214893 -1.39758 0
M  V30 11433 P 315.118 -1.17771 -8.83182 0
M  V30 11434 O 314.898 -2.07206 -9.98732 0
M  V30 11435 O 314.328 0.0743816 -8.81969 0
M  V30 11436 O 314.868 -1.97652 -7.47304 0
M  V30 11437 C 315.808 -3.01133 -7.08783 0
M  V30 11438 C 315.078 -4.12613 -6.37049 0
M  V30 11439 O 314.868 -3.72827 -4.97879 0
M  V30 11440 C 313.678 -4.45085 -6.88694 0
M  V30 11441 O 313.288 -5.7877 -6.5624 0
M  V30 11442 C 312.798 -3.47817 -6.12078 0
M  V30 11443 C 313.508 -3.39414 -4.77697 0
M  V30 11444 N 313.458 -2.04615 -4.15333 0
M  V30 11445 H 316.297 -3.41248 -7.98759 0
M  V30 11446 H 316.569 -2.5837 -6.41742 0
M  V30 11447 H 315.701 -5.02657 -6.42673 0
M  V30 11448 P 311.738 -6.144 -6.45285 0
M  V30 11449 O 311.518 -7.54673 -6.86199 0
M  V30 11450 O 310.948 -5.12391 -7.179 0
M  V30 11451 O 311.488 -5.99158 -4.88404 0
M  V30 11452 C 312.428 -6.60234 -3.96415 0
M  V30 11453 C 311.698 -7.08259 -2.72856 0
M  V30 11454 O 311.488 -5.9427 -1.83651 0
M  V30 11455 C 310.298 -7.64886 -2.9555 0
M  V30 11456 O 309.908 -8.53963 -1.90717 0
M  V30 11457 C 309.418 -6.4116 -2.90739 0
M  V30 11458 C 310.128 -5.55375 -1.86963 0
M  V30 11459 N 310.078 -4.09448 -2.16152 0
M  V30 11460 H 312.917 -7.45574 -4.45629 0
M  V30 11461 H 313.189 -5.85864 -3.679 0
M  V30 11462 H 312.321 -7.84412 -2.24479 0
M  V30 11463 H 309.666 -5.73457 -0.888562 0
M  V30 11464 H 309.386 -5.90877 -3.88583 0
M  V30 11465 H 308.395 -6.6596 -2.58858 0
M  V30 11466 H 310.229 -8.16339 -3.92049 0
M  V30 11467 P 308.358 -8.7635 -1.60911 0
M  V30 11468 O 308.138 -10.1388 -1.11561 0
M  V30 11469 O 307.568 -8.36503 -2.79617 0
M  V30 11470 O 308.108 -7.71906 -0.429565 0
M  V30 11471 C 309.048 -7.67148 0.673689 0
M  V30 11472 C 308.318 -7.33666 1.94851 0
M  V30 11473 O 308.108 -5.88816 2.00759 0
M  V30 11474 C 306.918 -7.92526 2.10483 0
M  V30 11475 O 306.528 -8.03063 3.47693 0
M  V30 11476 C 306.038 -6.89602 1.41652 0
M  V30 11477 C 306.748 -5.59201 1.75185 0
M  V30 11478 N 306.698 -4.58235 0.662552 0
M  V30 11479 C 306.548 -3.24451 1.01643 0
M  V30 11480 O 306.458 -2.94958 2.21722 0
M  V30 11481 N 306.498 -2.30408 -0.165238 0
M  V30 11482 C 306.598 -2.66048 -1.25118 0
M  V30 11483 N 306.548 -1.70787 -2.16813 0
M  V30 11484 C 306.748 -4.02732 -1.64413 0
M  V30 11485 C 306.798 -4.9488 -0.63991 0
M  V30 11486 H 309.538 -8.65017 0.777072 0
M  V30 11487 H 309.808 -6.90173 0.474152 0
M  V30 11488 H 308.941 -7.66642 2.79492 0
M  V30 11489 H 306.286 -5.16254 2.65229 0
M  V30 11490 H 306.006 -7.06532 0.329431 0
M  V30 11491 H 305.015 -6.91023 1.82047 0
M  V30 11492 H 306.849 -8.90873 1.62657 0
M  V30 11493 H 306.921 -6.00104 -0.892197 0
M  V30 11494 H 306.819 -4.31733 -2.69229 0
M  V30 11495 H 306.431 -0.724835 -1.8844 0
M  V30 11496 H 306.627 -1.94716 -3.16734 0
M  V30 11497 P 304.978 -8.03563 3.84925 0
M  V30 11498 O 304.758 -8.85821 5.0569 0
M  V30 11499 O 304.188 -8.41101 2.65469 0
M  V30 11500 O 304.728 -6.4965 4.18908 0
M  V30 11501 C 305.668 -5.81037 5.05421 0
M  V30 11502 C 304.938 -4.78366 5.89277 0
M  V30 11503 O 304.728 -3.58302 5.08433 0
M  V30 11504 C 303.538 -5.17448 6.36119 0
M  V30 11505 O 303.148 -4.45271 7.53232 0
M  V30 11506 C 302.658 -4.74639 5.19936 0
M  V30 11507 C 303.368 -3.49432 4.70418 0
M  V30 11508 N 303.318 -3.31776 3.22945 0
M  V30 11509 H 306.157 -6.54213 5.71376 0
M  V30 11510 H 306.429 -5.30492 4.44033 0
M  V30 11511 H 305.561 -4.55889 6.76652 0
M  V30 11512 P 301.598 -4.23843 7.83734 0
M  V30 11513 O 301.378 -4.19407 9.29784 0
M  V30 11514 O 300.808 -5.24426 7.09156 0
M  V30 11515 O 301.348 -2.7935 7.20758 0
M  V30 11516 C 302.288 -1.7299 7.50419 0
M  V30 11517 C 301.558 -0.406376 7.57911 0
M  V30 11518 O 301.348 0.0897726 6.21935 0
M  V30 11519 C 300.158 -0.447224 8.1878 0
M  V30 11520 O 299.768 0.825065 8.71101 0
M  V30 11521 C 299.278 -0.783801 6.99623 0
M  V30 11522 C 299.988 -0.0619192 5.85967 0
M  V30 11523 N 299.938 -0.790462 4.56202 0
M  V30 11524 H 302.777 -1.93423 8.4679 0
M  V30 11525 H 303.049 -1.68852 6.70877 0
M  V30 11526 H 302.181 0.289041 8.15388 0
M  V30 11527 H 299.526 0.927006 5.72848 0
M  V30 11528 H 299.246 -1.86973 6.82036 0
M  V30 11529 H 298.255 -0.403953 7.13357 0
M  V30 11530 H 300.089 -1.20599 8.97534 0
M  V30 11531 P 298.218 1.17771 8.83182 0
M  V30 11532 O 297.998 2.07206 9.98732 0
M  V30 11533 O 297.428 -0.0743816 8.81969 0
M  V30 11534 O 297.968 1.97652 7.47304 0
M  V30 11535 C 298.908 3.01133 7.08783 0
M  V30 11536 C 298.178 4.12613 6.37049 0
M  V30 11537 O 297.968 3.72827 4.97879 0
M  V30 11538 C 296.778 4.45085 6.88694 0
M  V30 11539 O 296.388 5.7877 6.5624 0
M  V30 11540 C 295.898 3.47817 6.12078 0
M  V30 11541 C 296.608 3.39414 4.77697 0
M  V30 11542 N 296.558 2.04615 4.15333 0
M  V30 11543 H 299.397 3.41248 7.98759 0
M  V30 11544 H 299.669 2.5837 6.41742 0
M  V30 11545 H 298.801 5.02657 6.42673 0
M  V30 11546 P 294.838 6.144 6.45285 0
M  V30 11547 O 294.618 7.54673 6.86199 0
M  V30 11548 O 294.048 5.12391 7.179 0
M  V30 11549 O 294.588 5.99158 4.88404 0
M  V30 11550 C 295.528 6.60234 3.96415 0
M  V30 11551 C 294.798 7.08259 2.72856 0
M  V30 11552 O 294.588 5.9427 1.83651 0
M  V30 11553 C 293.398 7.64886 2.9555 0
M  V30 11554 O 293.008 8.53963 1.90717 0
M  V30 11555 C 292.518 6.4116 2.90739 0
M  V30 11556 C 293.228 5.55375 1.86963 0
M  V30 11557 N 293.178 4.09664 2.15742 0
M  V30 11558 H 296.017 7.45574 4.45629 0
M  V30 11559 H 296.289 5.86232 3.67314 0
M  V30 11560 H 295.421 7.84412 2.24479 0
M  V30 11561 P 291.458 8.7635 1.60911 0
M  V30 11562 O 291.238 10.1388 1.11561 0
M  V30 11563 O 290.668 8.36503 2.79617 0
M  V30 11564 O 291.208 7.71806 0.42951 0
M  V30 11565 C 292.148 7.67148 -0.673689 0
M  V30 11566 C 291.418 7.33374 -1.95559 0
M  V30 11567 O 291.208 5.88721 -2.00726 0
M  V30 11568 C 290.018 7.92526 -2.10483 0
M  V30 11569 O 289.628 8.02971 -3.47653 0
M  V30 11570 C 289.138 6.89602 -1.41652 0
M  V30 11571 C 289.848 5.59201 -1.75185 0
M  V30 11572 N 289.798 4.58235 -0.662552 0
M  V30 11573 H 292.637 8.65116 -0.777161 0
M  V30 11574 H 292.909 6.90173 -0.474152 0
M  V30 11575 H 292.041 7.66548 -2.79458 0
M  V30 11576 P 288.078 8.03563 -3.84925 0
M  V30 11577 O 287.858 8.85821 -5.0569 0
M  V30 11578 O 287.288 8.41101 -2.65469 0
M  V30 11579 O 287.828 6.4965 -4.18908 0
M  V30 11580 C 288.768 5.81037 -5.05421 0
M  V30 11581 C 288.038 4.78366 -5.89277 0
M  V30 11582 O 287.828 3.58302 -5.08433 0
M  V30 11583 C 286.638 5.17448 -6.36119 0
M  V30 11584 O 286.248 4.45271 -7.53232 0
M  V30 11585 C 285.758 4.74639 -5.19936 0
M  V30 11586 C 286.468 3.49432 -4.70418 0
M  V30 11587 N 286.418 3.31776 -3.22945 0
M  V30 11588 H 289.257 6.54213 -5.71376 0
M  V30 11589 H 289.529 5.30492 -4.44033 0
M  V30 11590 H 288.661 4.55889 -6.76652 0
M  V30 11591 P 284.698 4.23843 -7.83734 0
M  V30 11592 O 284.478 4.19407 -9.29784 0
M  V30 11593 O 283.908 5.24426 -7.09156 0
M  V30 11594 O 284.448 2.79386 -7.20852 0
M  V30 11595 C 285.388 1.7299 -7.50419 0
M  V30 11596 C 284.658 0.41401 -7.5797 0
M  V30 11597 O 284.448 -0.089787 -6.22035 0
M  V30 11598 C 283.258 0.447224 -8.1878 0
M  V30 11599 O 282.868 -0.825159 -8.71201 0
M  V30 11600 C 282.378 0.783801 -6.99623 0
M  V30 11601 C 283.088 0.0619192 -5.85967 0
M  V30 11602 N 283.038 0.7859 -4.56281 0
M  V30 11603 C 282.888 0.0359258 -3.39981 0
M  V30 11604 O 282.798 -1.19723 -3.49038 0
M  V30 11605 N 282.838 0.869151 -2.14025 0
M  V30 11606 C 282.938 2.01207 -2.14363 0
M  V30 11607 N 282.888 2.58978 -0.954287 0
M  V30 11608 C 283.088 2.80817 -3.32215 0
M  V30 11609 C 283.138 2.13785 -4.50884 0
M  V30 11610 H 285.878 1.93401 -8.46693 0
M  V30 11611 H 286.148 1.68181 -6.71046 0
M  V30 11612 H 285.281 -0.289076 -8.15488 0
M  V30 11613 H 282.626 -0.927166 -5.72947 0
M  V30 11614 H 282.346 1.87 -6.82132 0
M  V30 11615 H 281.355 0.404009 -7.13457 0
M  V30 11616 H 283.189 1.20599 -8.97534 0
M  V30 11617 H 283.261 2.70295 -5.43162 0
M  V30 11618 H 283.159 3.89465 -3.27406 0
M  V30 11619 H 282.771 2.01616 -0.107046 0
M  V30 11620 H 282.967 3.61403 -0.873101 0
M  V30 11621 P 281.318 -1.17771 -8.83182 0
M  V30 11622 O 281.098 -2.07206 -9.98732 0
M  V30 11623 O 280.528 0.0743816 -8.81969 0
M  V30 11624 O 281.068 -1.97652 -7.47304 0
M  V30 11625 C 282.008 -3.01133 -7.08783 0
M  V30 11626 C 281.278 -4.12613 -6.37049 0
M  V30 11627 O 281.068 -3.72827 -4.97879 0
M  V30 11628 C 279.878 -4.45085 -6.88694 0
M  V30 11629 O 279.488 -5.7877 -6.5624 0
M  V30 11630 C 278.998 -3.47817 -6.12078 0
M  V30 11631 C 279.708 -3.39414 -4.77697 0
M  V30 11632 N 279.658 -2.04199 -4.15538 0
M  V30 11633 H 282.497 -3.41248 -7.98759 0
M  V30 11634 H 282.769 -2.57728 -6.42 0
M  V30 11635 H 281.901 -5.02657 -6.42673 0
M  V30 11636 H 279.246 -4.11708 -4.08956 0
M  V30 11637 H 278.966 -2.49626 -6.61679 0
M  V30 11638 H 277.975 -3.8662 -6.00862 0
M  V30 11639 H 279.809 -4.29991 -7.97006 0
M  V30 11640 P 277.938 -6.144 -6.45285 0
M  V30 11641 O 277.718 -7.54673 -6.86199 0
M  V30 11642 O 277.148 -5.12391 -7.179 0
M  V30 11643 O 277.688 -5.99158 -4.88404 0
M  V30 11644 C 278.628 -6.60234 -3.96415 0
M  V30 11645 C 277.898 -7.08259 -2.72856 0
M  V30 11646 O 277.688 -5.9427 -1.83651 0
M  V30 11647 C 276.498 -7.64886 -2.9555 0
M  V30 11648 O 276.108 -8.53963 -1.90717 0
M  V30 11649 C 275.618 -6.4116 -2.90739 0
M  V30 11650 C 276.328 -5.55375 -1.86963 0
M  V30 11651 N 276.278 -4.09448 -2.16152 0
M  V30 11652 C 276.358 -3.46824 -3.37593 0
M  V30 11653 N 276.288 -2.17422 -3.29777 0
M  V30 11654 C 276.138 -1.93065 -1.94427 0
M  V30 11655 C 276.008 -0.738053 -1.20141 0
M  V30 11656 N 275.998 0.474256 -1.74676 0
M  V30 11657 N 275.888 -0.850049 0.13045 0
M  V30 11658 C 275.898 -2.06169 0.676992 0
M  V30 11659 N 276.018 -3.23842 0.101312 0
M  V30 11660 C 276.138 -3.09402 -1.23122 0
M  V30 11661 H 279.117 -7.45574 -4.45629 0
M  V30 11662 H 279.389 -5.85864 -3.679 0
M  V30 11663 H 278.521 -7.84412 -2.24479 0
M  V30 11664 H 275.866 -5.73457 -0.888562 0
M  V30 11665 H 275.586 -5.90877 -3.88583 0
M  V30 11666 H 274.595 -6.6596 -2.58858 0
M  V30 11667 H 276.429 -8.16339 -3.92049 0
M  V30 11668 H 276.47 -4.00505 -4.3174 0
M  V30 11669 H 276.089 0.581337 -2.76658 0
M  V30 11670 H 275.9 1.30811 -1.14888 0
M  V30 11671 H 275.792 -2.08295 1.75542 0
M  V30 11672 P 274.558 -8.7635 -1.60911 0
M  V30 11673 O 274.338 -10.1388 -1.11561 0
M  V30 11674 O 273.768 -8.36503 -2.79617 0
M  V30 11675 O 274.308 -7.71806 -0.42951 0
M  V30 11676 C 275.248 -7.67148 0.673689 0
M  V30 11677 C 274.518 -7.33374 1.95559 0
M  V30 11678 O 274.308 -5.88721 2.00726 0
M  V30 11679 C 273.118 -7.92526 2.10483 0
M  V30 11680 O 272.728 -8.02971 3.47653 0
M  V30 11681 C 272.238 -6.89602 1.41652 0
M  V30 11682 C 272.948 -5.59201 1.75185 0
M  V30 11683 N 272.898 -4.58235 0.662552 0
M  V30 11684 H 275.737 -8.65116 0.777161 0
M  V30 11685 H 276.009 -6.90173 0.474152 0
M  V30 11686 H 275.141 -7.66548 2.79458 0
M  V30 11687 P 271.178 -8.03563 3.84925 0
M  V30 11688 O 270.958 -8.85821 5.0569 0
M  V30 11689 O 270.388 -8.41101 2.65469 0
M  V30 11690 O 270.928 -6.4965 4.18908 0
M  V30 11691 C 271.868 -5.81037 5.05421 0
M  V30 11692 C 271.138 -4.78366 5.89277 0
M  V30 11693 O 270.928 -3.58302 5.08433 0
M  V30 11694 C 269.738 -5.17448 6.36119 0
M  V30 11695 O 269.348 -4.45271 7.53232 0
M  V30 11696 C 268.858 -4.74639 5.19936 0
M  V30 11697 C 269.568 -3.49432 4.70418 0
M  V30 11698 N 269.518 -3.31776 3.22945 0
M  V30 11699 H 272.357 -6.54213 5.71376 0
M  V30 11700 H 272.629 -5.30492 4.44033 0
M  V30 11701 H 271.761 -4.55889 6.76652 0
M  V30 11702 P 267.798 -4.23843 7.83734 0
M  V30 11703 O 267.578 -4.19407 9.29784 0
M  V30 11704 O 267.008 -5.24426 7.09156 0
M  V30 11705 O 267.548 -2.7935 7.20758 0
M  V30 11706 C 268.488 -1.7299 7.50419 0
M  V30 11707 C 267.758 -0.406376 7.57911 0
M  V30 11708 O 267.548 0.0897726 6.21935 0
M  V30 11709 C 266.358 -0.447224 8.1878 0
M  V30 11710 O 265.968 0.825065 8.71101 0
M  V30 11711 C 265.478 -0.783801 6.99623 0
M  V30 11712 C 266.188 -0.0619192 5.85967 0
M  V30 11713 N 266.138 -0.7859 4.56281 0
M  V30 11714 H 268.977 -1.93423 8.4679 0
M  V30 11715 H 269.249 -1.68181 6.71046 0
M  V30 11716 H 268.381 0.289041 8.15388 0
M  V30 11717 P 264.418 1.17771 8.83182 0
M  V30 11718 O 264.198 2.07206 9.98732 0
M  V30 11719 O 263.628 -0.0743816 8.81969 0
M  V30 11720 O 264.168 1.97652 7.47304 0
M  V30 11721 C 265.108 3.01133 7.08783 0
M  V30 11722 C 264.378 4.12613 6.37049 0
M  V30 11723 O 264.168 3.72827 4.97879 0
M  V30 11724 C 262.978 4.45085 6.88694 0
M  V30 11725 O 262.588 5.7877 6.5624 0
M  V30 11726 C 262.098 3.47817 6.12078 0
M  V30 11727 C 262.808 3.39414 4.77697 0
M  V30 11728 N 262.758 2.04615 4.15333 0
M  V30 11729 H 265.597 3.41248 7.98759 0
M  V30 11730 H 265.869 2.5837 6.41742 0
M  V30 11731 H 265.001 5.02657 6.42673 0
M  V30 11732 P 261.038 6.144 6.45285 0
M  V30 11733 O 260.818 7.54673 6.86199 0
M  V30 11734 O 260.248 5.12391 7.179 0
M  V30 11735 O 260.788 5.99158 4.88404 0
M  V30 11736 C 261.728 6.60234 3.96415 0
M  V30 11737 C 260.998 7.08259 2.72856 0
M  V30 11738 O 260.788 5.9427 1.83651 0
M  V30 11739 C 259.598 7.64886 2.9555 0
M  V30 11740 O 259.208 8.53963 1.90717 0
M  V30 11741 C 258.718 6.4116 2.90739 0
M  V30 11742 C 259.428 5.55375 1.86963 0
M  V30 11743 N 259.378 4.09448 2.16152 0
M  V30 11744 C 259.458 3.46824 3.37593 0
M  V30 11745 N 259.388 2.17422 3.29777 0
M  V30 11746 C 259.238 1.93065 1.94427 0
M  V30 11747 C 259.108 0.738053 1.20141 0
M  V30 11748 N 259.098 -0.474256 1.74676 0
M  V30 11749 N 258.988 0.850049 -0.13045 0
M  V30 11750 C 258.998 2.06169 -0.676992 0
M  V30 11751 N 259.118 3.23842 -0.101312 0
M  V30 11752 C 259.238 3.09402 1.23122 0
M  V30 11753 H 262.217 7.45574 4.45629 0
M  V30 11754 H 262.489 5.85864 3.679 0
M  V30 11755 H 261.621 7.84412 2.24479 0
M  V30 11756 H 258.966 5.73457 0.888562 0
M  V30 11757 H 258.686 5.90877 3.88583 0
M  V30 11758 H 257.695 6.6596 2.58858 0
M  V30 11759 H 259.529 8.16339 3.92049 0
M  V30 11760 H 259.57 4.00505 4.3174 0
M  V30 11761 H 259.189 -0.581337 2.76658 0
M  V30 11762 H 259 -1.30811 1.14888 0
M  V30 11763 H 258.892 2.08295 -1.75542 0
M  V30 11764 P 257.658 8.7635 1.60911 0
M  V30 11765 O 257.438 10.1388 1.11561 0
M  V30 11766 O 256.868 8.36503 2.79617 0
M  V30 11767 O 257.408 7.71806 0.42951 0
M  V30 11768 C 258.348 7.67148 -0.673689 0
M  V30 11769 C 257.618 7.33374 -1.95559 0
M  V30 11770 O 257.408 5.88721 -2.00726 0
M  V30 11771 C 256.218 7.92526 -2.10483 0
M  V30 11772 O 255.828 8.02971 -3.47653 0
M  V30 11773 C 255.338 6.89602 -1.41652 0
M  V30 11774 C 256.048 5.59201 -1.75185 0
M  V30 11775 N 255.998 4.58235 -0.662552 0
M  V30 11776 H 258.837 8.65116 -0.777161 0
M  V30 11777 H 259.109 6.90173 -0.474152 0
M  V30 11778 H 258.241 7.66548 -2.79458 0
M  V30 11779 P 254.279 8.03563 -3.84925 0
M  V30 11780 O 254.059 8.85821 -5.0569 0
M  V30 11781 O 253.489 8.41101 -2.65469 0
M  V30 11782 O 254.029 6.4965 -4.18908 0
M  V30 11783 C 254.969 5.81037 -5.05421 0
M  V30 11784 C 254.239 4.78366 -5.89277 0
M  V30 11785 O 254.029 3.58302 -5.08433 0
M  V30 11786 C 252.839 5.17448 -6.36119 0
M  V30 11787 O 252.449 4.45271 -7.53232 0
M  V30 11788 C 251.959 4.74639 -5.19936 0
M  V30 11789 C 252.669 3.49432 -4.70418 0
M  V30 11790 N 252.619 3.31776 -3.22945 0
M  V30 11791 H 255.458 6.54213 -5.71376 0
M  V30 11792 H 255.73 5.30492 -4.44033 0
M  V30 11793 H 254.862 4.55889 -6.76652 0
M  V30 11794 P 250.899 4.23843 -7.83734 0
M  V30 11795 O 250.679 4.19407 -9.29784 0
M  V30 11796 O 250.109 5.24426 -7.09156 0
M  V30 11797 O 250.649 2.7935 -7.20758 0
M  V30 11798 C 251.589 1.7299 -7.50419 0
M  V30 11799 C 250.859 0.406376 -7.57911 0
M  V30 11800 O 250.649 -0.0897726 -6.21935 0
M  V30 11801 C 249.459 0.447224 -8.1878 0
M  V30 11802 O 249.069 -0.825065 -8.71101 0
M  V30 11803 C 248.579 0.783801 -6.99623 0
M  V30 11804 C 249.289 0.0619192 -5.85967 0
M  V30 11805 N 249.239 0.7859 -4.56281 0
M  V30 11806 H 252.078 1.93423 -8.4679 0
M  V30 11807 H 252.35 1.68181 -6.71046 0
M  V30 11808 H 251.482 -0.289041 -8.15388 0
M  V30 11809 P 247.519 -1.17771 -8.83182 0
M  V30 11810 O 247.299 -2.07206 -9.98732 0
M  V30 11811 O 246.729 0.0743816 -8.81969 0
M  V30 11812 O 247.269 -1.97652 -7.47304 0
M  V30 11813 C 248.209 -3.01133 -7.08783 0
M  V30 11814 C 247.479 -4.12613 -6.37049 0
M  V30 11815 O 247.269 -3.72827 -4.97879 0
M  V30 11816 C 246.079 -4.45085 -6.88694 0
M  V30 11817 O 245.689 -5.7877 -6.5624 0
M  V30 11818 C 245.199 -3.47817 -6.12078 0
M  V30 11819 C 245.909 -3.39414 -4.77697 0
M  V30 11820 N 245.859 -2.04199 -4.15538 0
M  V30 11821 H 248.698 -3.41248 -7.98759 0
M  V30 11822 H 248.97 -2.57728 -6.42 0
M  V30 11823 H 248.102 -5.02657 -6.42673 0
M  V30 11824 H 245.447 -4.11708 -4.08956 0
M  V30 11825 H 245.167 -2.49626 -6.61679 0
M  V30 11826 H 244.176 -3.8662 -6.00862 0
M  V30 11827 H 246.01 -4.29991 -7.97006 0
M  V30 11828 P 244.139 -6.144 -6.45285 0
M  V30 11829 O 243.919 -7.54673 -6.86199 0
M  V30 11830 O 243.349 -5.12391 -7.179 0
M  V30 11831 O 243.889 -5.99158 -4.88404 0
M  V30 11832 C 244.829 -6.60062 -3.96313 0
M  V30 11833 C 244.099 -7.08259 -2.72856 0
M  V30 11834 O 243.889 -5.9427 -1.83651 0
M  V30 11835 C 242.699 -7.65087 -2.94749 0
M  V30 11836 O 242.309 -8.53963 -1.90717 0
M  V30 11837 C 241.819 -6.41069 -2.90698 0
M  V30 11838 C 242.529 -5.5528 -1.86931 0
M  V30 11839 N 242.479 -4.09575 -2.15696 0
M  V30 11840 C 242.329 -3.24249 -1.08435 0
M  V30 11841 O 242.239 -3.63946 0.0628747 0
M  V30 11842 N 242.289 -1.90009 -1.39973 0
M  V30 11843 C 242.379 -1.34884 -2.65614 0
M  V30 11844 O 242.329 -0.123716 -2.81728 0
M  V30 11845 C 242.529 -2.3145 -3.71736 0
M  V30 11846 C 242.639 -1.75913 -5.10438 0
M  V30 11847 C 242.579 -3.63518 -3.44754 0
M  V30 11848 H 245.32 -7.45402 -4.45526 0
M  V30 11849 H 245.589 -5.86062 -3.67208 0
M  V30 11850 H 244.722 -7.84412 -2.24479 0
M  V30 11851 H 242.067 -5.73358 -0.888409 0
M  V30 11852 H 241.788 -5.90877 -3.88583 0
M  V30 11853 H 240.796 -6.65867 -2.58821 0
M  V30 11854 H 242.63 -8.16248 -3.92006 0
M  V30 11855 H 242.701 -4.34551 -4.26383 0
M  V30 11856 H 241.671 -1.85471 -5.61775 0
M  V30 11857 H 243.408 -2.31364 -5.66257 0
M  V30 11858 H 242.92 -0.695936 -5.05229 0
M  V30 11859 H 242.184 -1.26277 -0.63625 0
M  V30 11860 P 240.759 -8.7635 -1.60911 0
M  V30 11861 O 240.539 -10.1388 -1.11561 0
M  V30 11862 O 239.969 -8.36503 -2.79617 0
M  V30 11863 O 240.509 -7.71806 -0.42951 0
M  V30 11864 C 241.449 -7.67148 0.673689 0
M  V30 11865 C 240.719 -7.33374 1.95559 0
M  V30 11866 O 240.509 -5.88721 2.00726 0
M  V30 11867 C 239.319 -7.92526 2.10483 0
M  V30 11868 O 238.929 -8.02971 3.47653 0
M  V30 11869 C 238.439 -6.89602 1.41652 0
M  V30 11870 C 239.149 -5.59201 1.75185 0
M  V30 11871 N 239.099 -4.58235 0.662552 0
M  V30 11872 H 241.938 -8.65116 0.777161 0
M  V30 11873 H 242.21 -6.90173 0.474152 0
M  V30 11874 H 241.342 -7.66548 2.79458 0
M  V30 11875 P 237.379 -8.03563 3.84925 0
M  V30 11876 O 237.159 -8.85821 5.0569 0
M  V30 11877 O 236.589 -8.41101 2.65469 0
M  V30 11878 O 237.129 -6.4965 4.18908 0
M  V30 11879 C 238.069 -5.81037 5.05421 0
M  V30 11880 C 237.339 -4.78366 5.89277 0
M  V30 11881 O 237.129 -3.58302 5.08433 0
M  V30 11882 C 235.939 -5.17448 6.36119 0
M  V30 11883 O 235.549 -4.45271 7.53232 0
M  V30 11884 C 235.059 -4.74639 5.19936 0
M  V30 11885 C 235.769 -3.49432 4.70418 0
M  V30 11886 N 235.719 -3.31776 3.22945 0
M  V30 11887 H 238.558 -6.54213 5.71376 0
M  V30 11888 H 238.83 -5.30492 4.44033 0
M  V30 11889 H 237.962 -4.55889 6.76652 0
M  V30 11890 P 233.999 -4.23843 7.83734 0
M  V30 11891 O 233.779 -4.19407 9.29784 0
M  V30 11892 O 233.209 -5.24426 7.09156 0
M  V30 11893 O 233.749 -2.7935 7.20758 0
M  V30 11894 C 234.689 -1.7299 7.50419 0
M  V30 11895 C 233.959 -0.406376 7.57911 0
M  V30 11896 O 233.749 0.0897726 6.21935 0
M  V30 11897 C 232.559 -0.447224 8.1878 0
M  V30 11898 O 232.169 0.825065 8.71101 0
M  V30 11899 C 231.679 -0.783801 6.99623 0
M  V30 11900 C 232.389 -0.0619192 5.85967 0
M  V30 11901 N 232.339 -0.7859 4.56281 0
M  V30 11902 H 235.178 -1.93423 8.4679 0
M  V30 11903 H 235.45 -1.68181 6.71046 0
M  V30 11904 H 234.582 0.289041 8.15388 0
M  V30 11905 P 230.619 1.17771 8.83182 0
M  V30 11906 O 230.399 2.07206 9.98732 0
M  V30 11907 O 229.829 -0.0743816 8.81969 0
M  V30 11908 O 230.369 1.97652 7.47304 0
M  V30 11909 C 231.309 3.01055 7.08599 0
M  V30 11910 C 230.579 4.12613 6.37049 0
M  V30 11911 O 230.369 3.72827 4.97879 0
M  V30 11912 C 229.179 4.45719 6.88164 0
M  V30 11913 O 228.789 5.7877 6.5624 0
M  V30 11914 C 228.299 3.47768 6.11991 0
M  V30 11915 C 229.009 3.39356 4.77615 0
M  V30 11916 N 228.959 2.04571 4.15244 0
M  V30 11917 C 228.809 1.98587 2.78314 0
M  V30 11918 O 228.719 2.98134 2.08835 0
M  V30 11919 N 228.769 0.714467 2.24925 0
M  V30 11920 C 228.859 -0.470001 2.94169 0
M  V30 11921 O 228.809 -1.55587 2.35195 0
M  V30 11922 C 229.009 -0.312541 4.36783 0
M  V30 11923 C 229.119 -1.57711 5.16352 0
M  V30 11924 C 229.059 0.914512 4.92583 0
M  V30 11925 H 231.8 3.41169 7.98575 0
M  V30 11926 H 232.069 2.58295 6.41556 0
M  V30 11927 H 231.202 5.02657 6.42673 0
M  V30 11928 H 228.547 4.11637 4.08885 0
M  V30 11929 H 228.268 2.49626 6.61679 0
M  V30 11930 H 227.276 3.86566 6.00778 0
M  V30 11931 H 229.11 4.29943 7.96918 0
M  V30 11932 H 229.181 1.00937 6.00374 0
M  V30 11933 H 228.151 -1.80153 5.63503 0
M  V30 11934 H 229.888 -1.4566 5.94104 0
M  V30 11935 H 229.4 -2.40664 4.49645 0
M  V30 11936 H 228.664 0.647622 1.25697 0
M  V30 11937 P 227.239 6.144 6.45285 0
M  V30 11938 O 227.019 7.54673 6.86199 0
M  V30 11939 O 226.449 5.12391 7.179 0
M  V30 11940 O 226.989 5.99158 4.88404 0
M  V30 11941 C 227.929 6.60234 3.96415 0
M  V30 11942 C 227.199 7.08259 2.72856 0
M  V30 11943 O 226.989 5.9427 1.83651 0
M  V30 11944 C 225.799 7.64886 2.9555 0
M  V30 11945 O 225.409 8.53963 1.90717 0
M  V30 11946 C 224.919 6.4116 2.90739 0
M  V30 11947 C 225.629 5.55375 1.86963 0
M  V30 11948 N 225.579 4.09664 2.15742 0
M  V30 11949 H 228.418 7.45574 4.45629 0
M  V30 11950 H 228.69 5.86232 3.67314 0
M  V30 11951 H 227.822 7.84412 2.24479 0
M  V30 11952 P 223.859 8.7635 1.60911 0
M  V30 11953 O 223.639 10.1388 1.11561 0
M  V30 11954 O 223.069 8.36503 2.79617 0
M  V30 11955 O 223.609 7.71806 0.42951 0
M  V30 11956 C 224.549 7.67148 -0.673689 0
M  V30 11957 C 223.819 7.33374 -1.95559 0
M  V30 11958 O 223.609 5.88721 -2.00726 0
M  V30 11959 C 222.419 7.92526 -2.10483 0
M  V30 11960 O 222.029 8.02971 -3.47653 0
M  V30 11961 C 221.539 6.89602 -1.41652 0
M  V30 11962 C 222.249 5.59201 -1.75185 0
M  V30 11963 N 222.199 4.58301 -0.657969 0
M  V30 11964 C 222.279 4.79019 0.692603 0
M  V30 11965 N 222.209 3.69736 1.38998 0
M  V30 11966 C 222.059 2.70474 0.438135 0
M  V30 11967 C 221.929 1.30327 0.538142 0
M  V30 11968 N 221.919 0.64304 1.69192 0
M  V30 11969 N 221.809 0.611027 -0.605183 0
M  V30 11970 C 221.819 1.27002 -1.75953 0
M  V30 11971 N 221.939 2.56038 -1.98546 0
M  V30 11972 C 222.059 3.22681 -0.822541 0
M  V30 11973 H 225.038 8.65116 -0.777161 0
M  V30 11974 H 225.31 6.9022 -0.46725 0
M  V30 11975 H 224.442 7.66548 -2.79458 0
M  V30 11976 H 221.787 5.16165 -2.65183 0
M  V30 11977 H 221.507 7.06433 -0.329384 0
M  V30 11978 H 220.516 6.90926 -1.82021 0
M  V30 11979 H 222.35 8.90873 -1.62657 0
M  V30 11980 H 222.391 5.77785 1.13874 0
M  V30 11981 H 222.01 1.15585 2.57991 0
M  V30 11982 H 221.821 -0.382989 1.69835 0
M  V30 11983 H 221.713 0.653331 -2.64449 0
M  V30 11984 P 220.479 8.03563 -3.84925 0
M  V30 11985 O 220.259 8.85821 -5.0569 0
M  V30 11986 O 219.689 8.41101 -2.65469 0
M  V30 11987 O 220.229 6.4965 -4.18908 0
M  V30 11988 C 221.169 5.81037 -5.05421 0
M  V30 11989 C 220.439 4.78366 -5.89277 0
M  V30 11990 O 220.229 3.58302 -5.08433 0
M  V30 11991 C 219.039 5.17448 -6.36119 0
M  V30 11992 O 218.649 4.45271 -7.53232 0
M  V30 11993 C 218.159 4.74639 -5.19936 0
M  V30 11994 C 218.869 3.49432 -4.70418 0
M  V30 11995 N 218.819 3.32099 -3.22613 0
M  V30 11996 C 218.899 4.28245 -2.25527 0
M  V30 11997 N 218.829 3.80823 -1.04874 0
M  V30 11998 C 218.679 2.44571 -1.23535 0
M  V30 11999 C 218.549 1.37068 -0.330675 0
M  V30 12000 N 218.539 1.51472 0.990824 0
M  V30 12001 N 218.429 0.138614 -0.848756 0
M  V30 12002 C 218.439 -0.00675923 -2.16999 0
M  V30 12003 N 218.559 0.904372 -3.11122 0
M  V30 12004 C 218.679 2.12707 -2.56212 0
M  V30 12005 H 221.658 6.54213 -5.71376 0
M  V30 12006 H 221.93 5.30936 -4.43503 0
M  V30 12007 H 221.062 4.55889 -6.76652 0
M  V30 12008 H 218.407 2.61715 -5.17932 0
M  V30 12009 H 218.127 5.52155 -4.41878 0
M  V30 12010 H 217.136 4.51981 -5.53374 0
M  V30 12011 H 218.97 6.25124 -6.55234 0
M  V30 12012 H 219.011 5.34372 -2.47488 0
M  V30 12013 H 218.63 2.45153 1.4078 0
M  V30 12014 H 218.441 0.688422 1.59911 0
M  V30 12015 H 218.333 -1.02584 -2.52346 0
M  V30 12016 P 217.099 4.23843 -7.83734 0
M  V30 12017 O 216.879 4.19407 -9.29784 0
M  V30 12018 O 216.309 5.24426 -7.09156 0
M  V30 12019 O 216.849 2.7935 -7.20758 0
M  V30 12020 C 217.789 1.7299 -7.50419 0
M  V30 12021 C 217.059 0.406376 -7.57911 0
M  V30 12022 O 216.849 -0.0897726 -6.21935 0
M  V30 12023 C 215.659 0.447224 -8.1878 0
M  V30 12024 O 215.269 -0.825065 -8.71101 0
M  V30 12025 C 214.779 0.783801 -6.99623 0
M  V30 12026 C 215.489 0.0619192 -5.85967 0
M  V30 12027 N 215.439 0.790462 -4.56202 0
M  V30 12028 H 218.278 1.93423 -8.4679 0
M  V30 12029 H 218.55 1.68852 -6.70877 0
M  V30 12030 H 217.682 -0.289041 -8.15388 0
M  V30 12031 H 215.027 -0.927006 -5.72848 0
M  V30 12032 H 214.747 1.86973 -6.82036 0
M  V30 12033 H 213.756 0.403953 -7.13357 0
M  V30 12034 H 215.59 1.20599 -8.97534 0
M  V30 12035 P 213.719 -1.17771 -8.83182 0
M  V30 12036 O 213.499 -2.07206 -9.98732 0
M  V30 12037 O 212.929 0.0743816 -8.81969 0
M  V30 12038 O 213.469 -1.97678 -7.474 0
M  V30 12039 C 214.409 -3.01133 -7.08783 0
M  V30 12040 C 213.679 -4.1203 -6.37546 0
M  V30 12041 O 213.469 -3.72887 -4.9796 0
M  V30 12042 C 212.279 -4.45085 -6.88694 0
M  V30 12043 O 211.889 -5.78836 -6.56315 0
M  V30 12044 C 211.399 -3.47817 -6.12078 0
M  V30 12045 C 212.109 -3.39414 -4.77697 0
M  V30 12046 N 212.059 -2.04615 -4.15333 0
M  V30 12047 C 211.909 -1.96929 -2.77162 0
M  V30 12048 O 211.819 -3.02017 -2.12006 0
M  V30 12049 N 211.859 -0.55485 -2.24237 0
M  V30 12050 C 211.959 0.367808 -2.9169 0
M  V30 12051 N 211.909 1.53426 -2.29427 0
M  V30 12052 C 212.109 0.319148 -4.33828 0
M  V30 12053 C 212.159 -0.920672 -4.90433 0
M  V30 12054 H 214.899 -3.41209 -7.98667 0
M  V30 12055 H 215.169 -2.5837 -6.41742 0
M  V30 12056 H 214.302 -5.02718 -6.42752 0
M  V30 12057 H 211.647 -4.11779 -4.09026 0
M  V30 12058 H 211.367 -2.49661 -6.61772 0
M  V30 12059 H 210.376 -3.86674 -6.00946 0
M  V30 12060 H 212.21 -4.29991 -7.97006 0
M  V30 12061 H 212.282 -1.00589 -5.98303 0
M  V30 12062 H 212.18 1.22639 -4.93799 0
M  V30 12063 H 211.792 1.56819 -1.27167 0
M  V30 12064 H 211.988 2.41062 -2.83063 0
M  V30 12065 P 210.339 -6.144 -6.45285 0
M  V30 12066 O 210.119 -7.54673 -6.86199 0
M  V30 12067 O 209.549 -5.12391 -7.179 0
M  V30 12068 O 210.089 -5.99158 -4.88404 0
M  V30 12069 C 211.029 -6.60234 -3.96415 0
M  V30 12070 C 210.299 -7.08259 -2.72856 0
M  V30 12071 O 210.089 -5.9427 -1.83651 0
M  V30 12072 C 208.899 -7.64886 -2.9555 0
M  V30 12073 O 208.509 -8.53963 -1.90717 0
M  V30 12074 C 208.019 -6.4116 -2.90739 0
M  V30 12075 C 208.729 -5.55375 -1.86963 0
M  V30 12076 N 208.679 -4.09664 -2.15742 0
M  V30 12077 H 211.518 -7.45574 -4.45629 0
M  V30 12078 H 211.79 -5.86232 -3.67314 0
M  V30 12079 H 210.922 -7.84412 -2.24479 0
M  V30 12080 P 206.959 -8.7635 -1.60911 0
M  V30 12081 O 206.739 -10.1388 -1.11561 0
M  V30 12082 O 206.169 -8.36503 -2.79617 0
M  V30 12083 O 206.709 -7.71906 -0.429565 0
M  V30 12084 C 207.649 -7.67148 0.673689 0
M  V30 12085 C 206.919 -7.33666 1.94851 0
M  V30 12086 O 206.709 -5.88816 2.00759 0
M  V30 12087 C 205.519 -7.92526 2.10483 0
M  V30 12088 O 205.129 -8.03063 3.47693 0
M  V30 12089 C 204.639 -6.89602 1.41652 0
M  V30 12090 C 205.349 -5.59201 1.75185 0
M  V30 12091 N 205.299 -4.58235 0.662552 0
M  V30 12092 C 205.149 -3.24451 1.01643 0
M  V30 12093 O 205.059 -2.94958 2.21722 0
M  V30 12094 N 205.099 -2.30408 -0.165238 0
M  V30 12095 C 205.199 -2.66048 -1.25118 0
M  V30 12096 N 205.149 -1.70787 -2.16813 0
M  V30 12097 C 205.349 -4.02732 -1.64413 0
M  V30 12098 C 205.399 -4.9488 -0.63991 0
M  V30 12099 H 208.139 -8.65017 0.777072 0
M  V30 12100 H 208.409 -6.90173 0.474152 0
M  V30 12101 H 207.542 -7.66642 2.79492 0
M  V30 12102 H 204.887 -5.16254 2.65229 0
M  V30 12103 H 204.607 -7.06532 0.329431 0
M  V30 12104 H 203.616 -6.91023 1.82047 0
M  V30 12105 H 205.45 -8.90873 1.62657 0
M  V30 12106 H 205.522 -6.00104 -0.892197 0
M  V30 12107 H 205.42 -4.31733 -2.69229 0
M  V30 12108 H 205.032 -0.724835 -1.8844 0
M  V30 12109 H 205.228 -1.94716 -3.16734 0
M  V30 12110 P 203.579 -8.03563 3.84925 0
M  V30 12111 O 203.359 -8.85821 5.0569 0
M  V30 12112 O 202.789 -8.41101 2.65469 0
M  V30 12113 O 203.329 -6.4965 4.18908 0
M  V30 12114 C 204.269 -5.81037 5.05421 0
M  V30 12115 C 203.539 -4.78366 5.89277 0
M  V30 12116 O 203.329 -3.58302 5.08433 0
M  V30 12117 C 202.139 -5.17448 6.36119 0
M  V30 12118 O 201.749 -4.45271 7.53232 0
M  V30 12119 C 201.259 -4.74639 5.19936 0
M  V30 12120 C 201.969 -3.49432 4.70418 0
M  V30 12121 N 201.919 -3.31776 3.22945 0
M  V30 12122 H 204.758 -6.54213 5.71376 0
M  V30 12123 H 205.03 -5.30492 4.44033 0
M  V30 12124 H 204.162 -4.55889 6.76652 0
M  V30 12125 P 200.199 -4.23843 7.83734 0
M  V30 12126 O 199.979 -4.19407 9.29784 0
M  V30 12127 O 199.409 -5.24426 7.09156 0
M  V30 12128 O 199.949 -2.7935 7.20758 0
M  V30 12129 C 200.889 -1.7299 7.50419 0
M  V30 12130 C 200.159 -0.406376 7.57911 0
M  V30 12131 O 199.949 0.0897726 6.21935 0
M  V30 12132 C 198.759 -0.447224 8.1878 0
M  V30 12133 O 198.369 0.825065 8.71101 0
M  V30 12134 C 197.879 -0.783801 6.99623 0
M  V30 12135 C 198.589 -0.0619192 5.85967 0
M  V30 12136 N 198.539 -0.7859 4.56281 0
M  V30 12137 H 201.378 -1.93423 8.4679 0
M  V30 12138 H 201.65 -1.68181 6.71046 0
M  V30 12139 H 200.782 0.289041 8.15388 0
M  V30 12140 P 196.819 1.17771 8.83182 0
M  V30 12141 O 196.599 2.07206 9.98732 0
M  V30 12142 O 196.029 -0.0743816 8.81969 0
M  V30 12143 O 196.569 1.97678 7.474 0
M  V30 12144 C 197.509 3.01133 7.08783 0
M  V30 12145 C 196.779 4.1203 6.37546 0
M  V30 12146 O 196.569 3.72887 4.9796 0
M  V30 12147 C 195.379 4.45085 6.88694 0
M  V30 12148 O 194.989 5.78836 6.56315 0
M  V30 12149 C 194.499 3.47817 6.12078 0
M  V30 12150 C 195.209 3.39414 4.77697 0
M  V30 12151 N 195.159 2.04615 4.15333 0
M  V30 12152 C 195.009 1.96929 2.77162 0
M  V30 12153 O 194.919 3.02017 2.12006 0
M  V30 12154 N 194.959 0.55485 2.24237 0
M  V30 12155 C 195.059 -0.367808 2.9169 0
M  V30 12156 N 195.009 -1.53426 2.29427 0
M  V30 12157 C 195.209 -0.319148 4.33828 0
M  V30 12158 C 195.259 0.920672 4.90433 0
M  V30 12159 H 197.999 3.41209 7.98667 0
M  V30 12160 H 198.269 2.5837 6.41742 0
M  V30 12161 H 197.402 5.02718 6.42752 0
M  V30 12162 H 194.747 4.11779 4.09026 0
M  V30 12163 H 194.467 2.49661 6.61772 0
M  V30 12164 H 193.476 3.86674 6.00946 0
M  V30 12165 H 195.31 4.29991 7.97006 0
M  V30 12166 H 195.382 1.00589 5.98303 0
M  V30 12167 H 195.28 -1.22639 4.93799 0
M  V30 12168 H 194.892 -1.56819 1.27167 0
M  V30 12169 H 195.088 -2.41062 2.83063 0
M  V30 12170 P 193.439 6.144 6.45285 0
M  V30 12171 O 193.219 7.54673 6.86199 0
M  V30 12172 O 192.649 5.12391 7.179 0
M  V30 12173 O 193.189 5.99158 4.88404 0
M  V30 12174 C 194.129 6.60062 3.96313 0
M  V30 12175 C 193.399 7.08259 2.72856 0
M  V30 12176 O 193.189 5.9427 1.83651 0
M  V30 12177 C 191.999 7.65087 2.94749 0
M  V30 12178 O 191.609 8.53963 1.90717 0
M  V30 12179 C 191.119 6.41069 2.90698 0
M  V30 12180 C 191.829 5.5528 1.86931 0
M  V30 12181 N 191.779 4.09575 2.15696 0
M  V30 12182 C 191.629 3.24249 1.08435 0
M  V30 12183 O 191.539 3.63946 -0.0628747 0
M  V30 12184 N 191.589 1.90009 1.39973 0
M  V30 12185 C 191.679 1.34884 2.65614 0
M  V30 12186 O 191.629 0.123716 2.81728 0
M  V30 12187 C 191.829 2.3145 3.71736 0
M  V30 12188 C 191.939 1.75913 5.10438 0
M  V30 12189 C 191.879 3.63518 3.44754 0
M  V30 12190 H 194.62 7.45402 4.45526 0
M  V30 12191 H 194.889 5.86062 3.67208 0
M  V30 12192 H 194.022 7.84412 2.24479 0
M  V30 12193 H 191.367 5.73358 0.888409 0
M  V30 12194 H 191.088 5.90877 3.88583 0
M  V30 12195 H 190.096 6.65867 2.58821 0
M  V30 12196 H 191.93 8.16248 3.92006 0
M  V30 12197 H 192.001 4.34551 4.26383 0
M  V30 12198 H 190.971 1.85471 5.61775 0
M  V30 12199 H 192.708 2.31364 5.66257 0
M  V30 12200 H 192.22 0.695936 5.05229 0
M  V30 12201 H 191.484 1.26277 0.63625 0
M  V30 12202 P 190.059 8.7635 1.60911 0
M  V30 12203 O 189.839 10.1388 1.11561 0
M  V30 12204 O 189.269 8.36503 2.79617 0
M  V30 12205 O 189.809 7.71806 0.42951 0
M  V30 12206 C 190.749 7.67148 -0.673689 0
M  V30 12207 C 190.019 7.33374 -1.95559 0
M  V30 12208 O 189.809 5.88721 -2.00726 0
M  V30 12209 C 188.619 7.92526 -2.10483 0
M  V30 12210 O 188.229 8.02971 -3.47653 0
M  V30 12211 C 187.739 6.89602 -1.41652 0
M  V30 12212 C 188.449 5.59201 -1.75185 0
M  V30 12213 N 188.399 4.58235 -0.662552 0
M  V30 12214 H 191.238 8.65116 -0.777161 0
M  V30 12215 H 191.51 6.90173 -0.474152 0
M  V30 12216 H 190.642 7.66548 -2.79458 0
M  V30 12217 P 186.679 8.03563 -3.84925 0
M  V30 12218 O 186.459 8.85821 -5.0569 0
M  V30 12219 O 185.889 8.41101 -2.65469 0
M  V30 12220 O 186.429 6.4965 -4.18908 0
M  V30 12221 C 187.369 5.81037 -5.05421 0
M  V30 12222 C 186.639 4.78366 -5.89277 0
M  V30 12223 O 186.429 3.58302 -5.08433 0
M  V30 12224 C 185.239 5.17448 -6.36119 0
M  V30 12225 O 184.849 4.45271 -7.53232 0
M  V30 12226 C 184.359 4.74639 -5.19936 0
M  V30 12227 C 185.069 3.49432 -4.70418 0
M  V30 12228 N 185.019 3.31776 -3.22945 0
M  V30 12229 H 187.858 6.54213 -5.71376 0
M  V30 12230 H 188.13 5.30492 -4.44033 0
M  V30 12231 H 187.262 4.55889 -6.76652 0
M  V30 12232 P 183.299 4.23843 -7.83734 0
M  V30 12233 O 183.079 4.19407 -9.29784 0
M  V30 12234 O 182.509 5.24426 -7.09156 0
M  V30 12235 O 183.049 2.7935 -7.20758 0
M  V30 12236 C 183.989 1.7299 -7.50419 0
M  V30 12237 C 183.259 0.406376 -7.57911 0
M  V30 12238 O 183.049 -0.0897726 -6.21935 0
M  V30 12239 C 181.859 0.447224 -8.1878 0
M  V30 12240 O 181.469 -0.825065 -8.71101 0
M  V30 12241 C 180.979 0.783801 -6.99623 0
M  V30 12242 C 181.689 0.0619192 -5.85967 0
M  V30 12243 N 181.639 0.7859 -4.56281 0
M  V30 12244 H 184.478 1.93423 -8.4679 0
M  V30 12245 H 184.75 1.68181 -6.71046 0
M  V30 12246 H 183.882 -0.289041 -8.15388 0
M  V30 12247 P 179.919 -1.17771 -8.83182 0
M  V30 12248 O 179.699 -2.07206 -9.98732 0
M  V30 12249 O 179.129 0.0743816 -8.81969 0
M  V30 12250 O 179.669 -1.97652 -7.47304 0
M  V30 12251 C 180.609 -3.01133 -7.08783 0
M  V30 12252 C 179.879 -4.12613 -6.37049 0
M  V30 12253 O 179.669 -3.72827 -4.97879 0
M  V30 12254 C 178.479 -4.45085 -6.88694 0
M  V30 12255 O 178.089 -5.7877 -6.5624 0
M  V30 12256 C 177.599 -3.47817 -6.12078 0
M  V30 12257 C 178.309 -3.39414 -4.77697 0
M  V30 12258 N 178.259 -2.04615 -4.15333 0
M  V30 12259 H 181.098 -3.41248 -7.98759 0
M  V30 12260 H 181.37 -2.5837 -6.41742 0
M  V30 12261 H 180.502 -5.02657 -6.42673 0
M  V30 12262 P 176.539 -6.144 -6.45285 0
M  V30 12263 O 176.319 -7.54673 -6.86199 0
M  V30 12264 O 175.749 -5.12391 -7.179 0
M  V30 12265 O 176.289 -5.99158 -4.88404 0
M  V30 12266 C 177.229 -6.60234 -3.96415 0
M  V30 12267 C 176.499 -7.08259 -2.72856 0
M  V30 12268 O 176.289 -5.9427 -1.83651 0
M  V30 12269 C 175.099 -7.64886 -2.9555 0
M  V30 12270 O 174.709 -8.53963 -1.90717 0
M  V30 12271 C 174.219 -6.4116 -2.90739 0
M  V30 12272 C 174.929 -5.55375 -1.86963 0
M  V30 12273 N 174.879 -4.09448 -2.16152 0
M  V30 12274 H 177.718 -7.45574 -4.45629 0
M  V30 12275 H 177.99 -5.85864 -3.679 0
M  V30 12276 H 177.122 -7.84412 -2.24479 0
M  V30 12277 H 174.467 -5.73457 -0.888562 0
M  V30 12278 H 174.187 -5.90877 -3.88583 0
M  V30 12279 H 173.196 -6.6596 -2.58858 0
M  V30 12280 H 175.03 -8.16339 -3.92049 0
M  V30 12281 P 173.159 -8.7635 -1.60911 0
M  V30 12282 O 172.939 -10.1388 -1.11561 0
M  V30 12283 O 172.369 -8.36503 -2.79617 0
M  V30 12284 O 172.909 -7.71806 -0.42951 0
M  V30 12285 C 173.849 -7.67148 0.673689 0
M  V30 12286 C 173.119 -7.33374 1.95559 0
M  V30 12287 O 172.909 -5.88721 2.00726 0
M  V30 12288 C 171.719 -7.92526 2.10483 0
M  V30 12289 O 171.329 -8.02971 3.47653 0
M  V30 12290 C 170.839 -6.89602 1.41652 0
M  V30 12291 C 171.549 -5.59201 1.75185 0
M  V30 12292 N 171.499 -4.58235 0.662552 0
M  V30 12293 H 174.338 -8.65116 0.777161 0
M  V30 12294 H 174.61 -6.90173 0.474152 0
M  V30 12295 H 173.742 -7.66548 2.79458 0
M  V30 12296 P 169.779 -8.03563 3.84925 0
M  V30 12297 O 169.559 -8.85821 5.0569 0
M  V30 12298 O 168.989 -8.41101 2.65469 0
M  V30 12299 O 169.529 -6.4965 4.18908 0
M  V30 12300 C 170.469 -5.81037 5.05421 0
M  V30 12301 C 169.739 -4.78366 5.89277 0
M  V30 12302 O 169.529 -3.58302 5.08433 0
M  V30 12303 C 168.339 -5.17448 6.36119 0
M  V30 12304 O 167.949 -4.45271 7.53232 0
M  V30 12305 C 167.459 -4.74639 5.19936 0
M  V30 12306 C 168.169 -3.49432 4.70418 0
M  V30 12307 N 168.119 -3.31776 3.22945 0
M  V30 12308 H 170.958 -6.54213 5.71376 0
M  V30 12309 H 171.23 -5.30492 4.44033 0
M  V30 12310 H 170.362 -4.55889 6.76652 0
M  V30 12311 P 166.399 -4.23843 7.83734 0
M  V30 12312 O 166.179 -4.19407 9.29784 0
M  V30 12313 O 165.609 -5.24426 7.09156 0
M  V30 12314 O 166.149 -2.7935 7.20758 0
M  V30 12315 C 167.089 -1.7299 7.50419 0
M  V30 12316 C 166.359 -0.406376 7.57911 0
M  V30 12317 O 166.149 0.0897726 6.21935 0
M  V30 12318 C 164.959 -0.447224 8.1878 0
M  V30 12319 O 164.569 0.825065 8.71101 0
M  V30 12320 C 164.079 -0.783801 6.99623 0
M  V30 12321 C 164.789 -0.0619192 5.85967 0
M  V30 12322 N 164.739 -0.7859 4.56281 0
M  V30 12323 H 167.578 -1.93423 8.4679 0
M  V30 12324 H 167.85 -1.68181 6.71046 0
M  V30 12325 H 166.982 0.289041 8.15388 0
M  V30 12326 P 163.019 1.17771 8.83182 0
M  V30 12327 O 162.799 2.07206 9.98732 0
M  V30 12328 O 162.229 -0.0743816 8.81969 0
M  V30 12329 O 162.769 1.97678 7.474 0
M  V30 12330 C 163.709 3.01133 7.08783 0
M  V30 12331 C 162.979 4.1203 6.37546 0
M  V30 12332 O 162.769 3.72887 4.9796 0
M  V30 12333 C 161.579 4.45085 6.88694 0
M  V30 12334 O 161.189 5.78836 6.56315 0
M  V30 12335 C 160.699 3.47817 6.12078 0
M  V30 12336 C 161.409 3.39414 4.77697 0
M  V30 12337 N 161.359 2.04615 4.15333 0
M  V30 12338 C 161.209 1.96929 2.77162 0
M  V30 12339 O 161.119 3.02017 2.12006 0
M  V30 12340 N 161.159 0.55485 2.24237 0
M  V30 12341 C 161.259 -0.367808 2.9169 0
M  V30 12342 N 161.209 -1.53426 2.29427 0
M  V30 12343 C 161.409 -0.319148 4.33828 0
M  V30 12344 C 161.459 0.920672 4.90433 0
M  V30 12345 H 164.199 3.41209 7.98667 0
M  V30 12346 H 164.469 2.5837 6.41742 0
M  V30 12347 H 163.602 5.02718 6.42752 0
M  V30 12348 H 160.947 4.11779 4.09026 0
M  V30 12349 H 160.667 2.49661 6.61772 0
M  V30 12350 H 159.676 3.86674 6.00946 0
M  V30 12351 H 161.51 4.29991 7.97006 0
M  V30 12352 H 161.582 1.00589 5.98303 0
M  V30 12353 H 161.48 -1.22639 4.93799 0
M  V30 12354 H 161.092 -1.56819 1.27167 0
M  V30 12355 H 161.288 -2.41062 2.83063 0
M  V30 12356 P 159.639 6.144 6.45285 0
M  V30 12357 O 159.419 7.54673 6.86199 0
M  V30 12358 O 158.849 5.12391 7.179 0
M  V30 12359 O 159.389 5.99158 4.88404 0
M  V30 12360 C 160.329 6.60062 3.96313 0
M  V30 12361 C 159.599 7.08259 2.72856 0
M  V30 12362 O 159.389 5.9427 1.83651 0
M  V30 12363 C 158.199 7.65087 2.94749 0
M  V30 12364 O 157.809 8.53963 1.90717 0
M  V30 12365 C 157.319 6.41069 2.90698 0
M  V30 12366 C 158.029 5.5528 1.86931 0
M  V30 12367 N 157.979 4.09575 2.15696 0
M  V30 12368 C 157.829 3.24249 1.08435 0
M  V30 12369 O 157.739 3.63946 -0.0628747 0
M  V30 12370 N 157.789 1.90009 1.39973 0
M  V30 12371 C 157.879 1.34884 2.65614 0
M  V30 12372 C 158.029 2.3145 3.71736 0
M  V30 12373 C 158.079 3.63518 3.44754 0
M  V30 12374 H 160.82 7.45402 4.45526 0
M  V30 12375 H 161.089 5.86062 3.67208 0
M  V30 12376 H 160.222 7.84412 2.24479 0
M  V30 12377 H 157.567 5.73358 0.888409 0
M  V30 12378 H 157.288 5.90877 3.88583 0
M  V30 12379 H 156.296 6.65867 2.58821 0
M  V30 12380 H 158.13 8.16248 3.92006 0
M  V30 12381 H 158.201 4.34551 4.26383 0
M  V30 12382 P 156.259 8.7635 1.60911 0
M  V30 12383 O 156.039 10.1388 1.11561 0
M  V30 12384 O 155.469 8.36503 2.79617 0
M  V30 12385 O 156.009 7.71806 0.42951 0
M  V30 12386 C 156.949 7.67148 -0.673689 0
M  V30 12387 C 156.219 7.33374 -1.95559 0
M  V30 12388 O 156.009 5.88721 -2.00726 0
M  V30 12389 C 154.819 7.92526 -2.10483 0
M  V30 12390 O 154.429 8.02971 -3.47653 0
M  V30 12391 C 153.939 6.89602 -1.41652 0
M  V30 12392 C 154.649 5.59201 -1.75185 0
M  V30 12393 N 154.599 4.58235 -0.662552 0
M  V30 12394 H 157.438 8.65116 -0.777161 0
M  V30 12395 H 157.71 6.90173 -0.474152 0
M  V30 12396 H 156.842 7.66548 -2.79458 0
M  V30 12397 P 152.879 8.03563 -3.84925 0
M  V30 12398 O 152.659 8.85821 -5.0569 0
M  V30 12399 O 152.089 8.41101 -2.65469 0
M  V30 12400 O 152.629 6.4965 -4.18908 0
M  V30 12401 C 153.569 5.81037 -5.05421 0
M  V30 12402 C 152.839 4.78366 -5.89277 0
M  V30 12403 O 152.629 3.58302 -5.08433 0
M  V30 12404 C 151.439 5.17448 -6.36119 0
M  V30 12405 O 151.049 4.45271 -7.53232 0
M  V30 12406 C 150.559 4.74639 -5.19936 0
M  V30 12407 C 151.269 3.49432 -4.70418 0
M  V30 12408 N 151.219 3.32099 -3.22613 0
M  V30 12409 H 154.058 6.54213 -5.71376 0
M  V30 12410 H 154.33 5.30936 -4.43503 0
M  V30 12411 H 153.462 4.55889 -6.76652 0
M  V30 12412 H 150.807 2.61715 -5.17932 0
M  V30 12413 H 150.527 5.52155 -4.41878 0
M  V30 12414 H 149.536 4.51981 -5.53374 0
M  V30 12415 H 151.37 6.25124 -6.55234 0
M  V30 12416 P 149.499 4.23843 -7.83734 0
M  V30 12417 O 149.279 4.19407 -9.29784 0
M  V30 12418 O 148.709 5.24426 -7.09156 0
M  V30 12419 O 149.249 2.7935 -7.20758 0
M  V30 12420 C 150.189 1.72945 -7.50224 0
M  V30 12421 C 149.459 0.406376 -7.57911 0
M  V30 12422 O 149.249 -0.0897726 -6.21935 0
M  V30 12423 C 148.059 0.438983 -8.18724 0
M  V30 12424 O 147.669 -0.825065 -8.71101 0
M  V30 12425 C 147.179 0.783689 -6.99524 0
M  V30 12426 C 147.889 0.0619086 -5.85867 0
M  V30 12427 N 147.839 0.78573 -4.56183 0
M  V30 12428 C 147.689 0.0292889 -3.41887 0
M  V30 12429 O 147.599 -1.18445 -3.4419 0
M  V30 12430 N 147.649 0.744061 -2.23964 0
M  V30 12431 C 147.739 2.10932 -2.10362 0
M  V30 12432 O 147.689 2.64117 -0.98825 0
M  V30 12433 C 147.889 2.8202 -3.34994 0
M  V30 12434 C 147.999 4.31095 -3.25037 0
M  V30 12435 C 147.939 2.15547 -4.52261 0
M  V30 12436 H 150.68 1.93379 -8.46595 0
M  V30 12437 H 150.949 1.68132 -6.70852 0
M  V30 12438 H 150.082 -0.289041 -8.15388 0
M  V30 12439 H 147.427 -0.926847 -5.72749 0
M  V30 12440 H 147.148 1.86973 -6.82036 0
M  V30 12441 H 146.156 0.403896 -7.13257 0
M  V30 12442 H 147.99 1.20585 -8.97435 0
M  V30 12443 H 148.061 2.71231 -5.45042 0
M  V30 12444 H 147.031 4.76966 -3.49992 0
M  V30 12445 H 148.768 4.67047 -3.95024 0
M  V30 12446 H 148.28 4.58996 -2.22312 0
M  V30 12447 H 147.544 0.214893 -1.39758 0
M  V30 12448 P 146.119 -1.17771 -8.83182 0
M  V30 12449 O 145.899 -2.07206 -9.98732 0
M  V30 12450 O 145.329 0.0743816 -8.81969 0
M  V30 12451 O 145.869 -1.97652 -7.47304 0
M  V30 12452 C 146.809 -3.01055 -7.08599 0
M  V30 12453 C 146.079 -4.12613 -6.37049 0
M  V30 12454 O 145.869 -3.72827 -4.97879 0
M  V30 12455 C 144.679 -4.45719 -6.88164 0
M  V30 12456 O 144.289 -5.7877 -6.5624 0
M  V30 12457 C 143.799 -3.47768 -6.11991 0
M  V30 12458 C 144.509 -3.39356 -4.77615 0
M  V30 12459 N 144.459 -2.04571 -4.15244 0
M  V30 12460 C 144.309 -1.98587 -2.78314 0
M  V30 12461 O 144.219 -2.98134 -2.08835 0
M  V30 12462 N 144.269 -0.714467 -2.24925 0
M  V30 12463 C 144.359 0.470001 -2.94169 0
M  V30 12464 O 144.309 1.55587 -2.35195 0
M  V30 12465 C 144.509 0.312541 -4.36783 0
M  V30 12466 C 144.619 1.57711 -5.16352 0
M  V30 12467 C 144.559 -0.914512 -4.92583 0
M  V30 12468 H 147.3 -3.41169 -7.98575 0
M  V30 12469 H 147.569 -2.58295 -6.41556 0
M  V30 12470 H 146.702 -5.02657 -6.42673 0
M  V30 12471 H 144.047 -4.11637 -4.08885 0
M  V30 12472 H 143.768 -2.49626 -6.61679 0
M  V30 12473 H 142.776 -3.86566 -6.00778 0
M  V30 12474 H 144.61 -4.29943 -7.96918 0
M  V30 12475 H 144.681 -1.00937 -6.00374 0
M  V30 12476 H 143.651 1.80153 -5.63503 0
M  V30 12477 H 145.388 1.4566 -5.94104 0
M  V30 12478 H 144.9 2.40664 -4.49645 0
M  V30 12479 H 144.164 -0.647622 -1.25697 0
M  V30 12480 P 142.739 -6.144 -6.45285 0
M  V30 12481 O 142.519 -7.54673 -6.86199 0
M  V30 12482 O 141.949 -5.12391 -7.179 0
M  V30 12483 O 142.489 -5.99158 -4.88404 0
M  V30 12484 C 143.429 -6.60234 -3.96415 0
M  V30 12485 C 142.699 -7.08259 -2.72856 0
M  V30 12486 O 142.489 -5.9427 -1.83651 0
M  V30 12487 C 141.299 -7.64886 -2.9555 0
M  V30 12488 O 140.909 -8.53963 -1.90717 0
M  V30 12489 C 140.419 -6.4116 -2.90739 0
M  V30 12490 C 141.129 -5.55375 -1.86963 0
M  V30 12491 N 141.079 -4.09664 -2.15742 0
M  V30 12492 H 143.918 -7.45574 -4.45629 0
M  V30 12493 H 144.19 -5.86232 -3.67314 0
M  V30 12494 H 143.322 -7.84412 -2.24479 0
M  V30 12495 P 139.359 -8.7635 -1.60911 0
M  V30 12496 O 139.139 -10.1388 -1.11561 0
M  V30 12497 O 138.569 -8.36503 -2.79617 0
M  V30 12498 O 139.109 -7.71806 -0.42951 0
M  V30 12499 C 140.049 -7.67148 0.673689 0
M  V30 12500 C 139.319 -7.33374 1.95559 0
M  V30 12501 O 139.109 -5.88721 2.00726 0
M  V30 12502 C 137.919 -7.92526 2.10483 0
M  V30 12503 O 137.529 -8.02971 3.47653 0
M  V30 12504 C 137.039 -6.89602 1.41652 0
M  V30 12505 C 137.749 -5.59201 1.75185 0
M  V30 12506 N 137.699 -4.58235 0.662552 0
M  V30 12507 H 140.538 -8.65116 0.777161 0
M  V30 12508 H 140.81 -6.90173 0.474152 0
M  V30 12509 H 139.942 -7.66548 2.79458 0
M  V30 12510 P 135.979 -8.03563 3.84925 0
M  V30 12511 O 135.759 -8.85821 5.0569 0
M  V30 12512 O 135.189 -8.41101 2.65469 0
M  V30 12513 O 135.729 -6.4965 4.18908 0
M  V30 12514 C 136.669 -5.80886 5.05289 0
M  V30 12515 C 135.939 -4.78366 5.89277 0
M  V30 12516 O 135.729 -3.58302 5.08433 0
M  V30 12517 C 134.539 -5.16748 6.36559 0
M  V30 12518 O 134.149 -4.45271 7.53232 0
M  V30 12519 C 133.659 -4.74572 5.19863 0
M  V30 12520 C 134.369 -3.49373 4.70338 0
M  V30 12521 N 134.319 -3.31704 3.22876 0
M  V30 12522 C 134.169 -2.03326 2.74871 0
M  V30 12523 O 134.079 -1.06486 3.48076 0
M  V30 12524 N 134.129 -1.91838 1.37456 0
M  V30 12525 C 134.219 -2.94295 0.462035 0
M  V30 12526 O 134.169 -2.71763 -0.752928 0
M  V30 12527 C 134.369 -4.25064 1.05249 0
M  V30 12528 C 134.479 -5.39815 0.095697 0
M  V30 12529 C 134.419 -4.40214 2.39192 0
M  V30 12530 H 137.16 -6.54063 5.71245 0
M  V30 12531 H 137.429 -5.30339 4.43905 0
M  V30 12532 H 136.562 -4.55889 6.76652 0
M  V30 12533 H 133.907 -2.6167 5.17842 0
M  V30 12534 H 133.628 -5.52155 4.41878 0
M  V30 12535 H 132.636 -4.51918 5.53297 0
M  V30 12536 H 134.47 -6.25055 6.55162 0
M  V30 12537 H 134.541 -5.39798 2.81523 0
M  V30 12538 H 133.511 -5.91593 0.0279582 0
M  V30 12539 H 135.248 -6.10038 0.450573 0
M  V30 12540 H 134.76 -5.02007 -0.89937 0
M  V30 12541 H 134.024 -0.995326 1.00435 0
M  V30 12542 P 132.599 -4.23843 7.83734 0
M  V30 12543 O 132.379 -4.19407 9.29784 0
M  V30 12544 O 131.809 -5.24426 7.09156 0
M  V30 12545 O 132.349 -2.7935 7.20758 0
M  V30 12546 C 133.289 -1.7299 7.50419 0
M  V30 12547 C 132.559 -0.406376 7.57911 0
M  V30 12548 O 132.349 0.0897726 6.21935 0
M  V30 12549 C 131.159 -0.447224 8.1878 0
M  V30 12550 O 130.769 0.825065 8.71101 0
M  V30 12551 C 130.279 -0.783801 6.99623 0
M  V30 12552 C 130.989 -0.0619192 5.85967 0
M  V30 12553 N 130.939 -0.7859 4.56281 0
M  V30 12554 H 133.778 -1.93423 8.4679 0
M  V30 12555 H 134.05 -1.68181 6.71046 0
M  V30 12556 H 133.182 0.289041 8.15388 0
M  V30 12557 P 129.219 1.17771 8.83182 0
M  V30 12558 O 128.999 2.07206 9.98732 0
M  V30 12559 O 128.429 -0.0743816 8.81969 0
M  V30 12560 O 128.969 1.97652 7.47304 0
M  V30 12561 C 129.909 3.01133 7.08783 0
M  V30 12562 C 129.179 4.12613 6.37049 0
M  V30 12563 O 128.969 3.72827 4.97879 0
M  V30 12564 C 127.779 4.45085 6.88694 0
M  V30 12565 O 127.389 5.7877 6.5624 0
M  V30 12566 C 126.899 3.47817 6.12078 0
M  V30 12567 C 127.609 3.39414 4.77697 0
M  V30 12568 N 127.559 2.04199 4.15538 0
M  V30 12569 H 130.398 3.41248 7.98759 0
M  V30 12570 H 130.67 2.57728 6.42 0
M  V30 12571 H 129.802 5.02657 6.42673 0
M  V30 12572 H 127.147 4.11708 4.08956 0
M  V30 12573 H 126.867 2.49626 6.61679 0
M  V30 12574 H 125.876 3.8662 6.00862 0
M  V30 12575 H 127.71 4.29991 7.97006 0
M  V30 12576 P 125.839 6.144 6.45285 0
M  V30 12577 O 125.619 7.54673 6.86199 0
M  V30 12578 O 125.049 5.12391 7.179 0
M  V30 12579 O 125.589 5.99158 4.88404 0
M  V30 12580 C 126.529 6.60234 3.96415 0
M  V30 12581 C 125.799 7.08259 2.72856 0
M  V30 12582 O 125.589 5.9427 1.83651 0
M  V30 12583 C 124.399 7.64886 2.9555 0
M  V30 12584 O 124.009 8.53963 1.90717 0
M  V30 12585 C 123.519 6.4116 2.90739 0
M  V30 12586 C 124.229 5.55375 1.86963 0
M  V30 12587 N 124.179 4.09664 2.15742 0
M  V30 12588 H 127.018 7.45574 4.45629 0
M  V30 12589 H 127.29 5.86232 3.67314 0
M  V30 12590 H 126.422 7.84412 2.24479 0
M  V30 12591 P 122.459 8.7635 1.60911 0
M  V30 12592 O 122.239 10.1388 1.11561 0
M  V30 12593 O 121.669 8.36503 2.79617 0
M  V30 12594 O 122.209 7.71806 0.42951 0
M  V30 12595 C 123.149 7.67148 -0.673689 0
M  V30 12596 C 122.419 7.33374 -1.95559 0
M  V30 12597 O 122.209 5.88721 -2.00726 0
M  V30 12598 C 121.019 7.92526 -2.10483 0
M  V30 12599 O 120.629 8.02971 -3.47653 0
M  V30 12600 C 120.139 6.89602 -1.41652 0
M  V30 12601 C 120.849 5.59201 -1.75185 0
M  V30 12602 N 120.799 4.58301 -0.657969 0
M  V30 12603 H 123.638 8.65116 -0.777161 0
M  V30 12604 H 123.91 6.9022 -0.46725 0
M  V30 12605 H 123.042 7.66548 -2.79458 0
M  V30 12606 H 120.387 5.16165 -2.65183 0
M  V30 12607 H 120.107 7.06433 -0.329384 0
M  V30 12608 H 119.116 6.90926 -1.82021 0
M  V30 12609 H 120.95 8.90873 -1.62657 0
M  V30 12610 P 119.079 8.03563 -3.84925 0
M  V30 12611 O 118.859 8.85821 -5.0569 0
M  V30 12612 O 118.289 8.41101 -2.65469 0
M  V30 12613 O 118.829 6.4965 -4.18908 0
M  V30 12614 C 119.769 5.81037 -5.05421 0
M  V30 12615 C 119.039 4.78366 -5.89277 0
M  V30 12616 O 118.829 3.58302 -5.08433 0
M  V30 12617 C 117.639 5.17448 -6.36119 0
M  V30 12618 O 117.249 4.45271 -7.53232 0
M  V30 12619 C 116.759 4.74639 -5.19936 0
M  V30 12620 C 117.469 3.49432 -4.70418 0
M  V30 12621 N 117.419 3.32099 -3.22613 0
M  V30 12622 H 120.258 6.54213 -5.71376 0
M  V30 12623 H 120.53 5.30936 -4.43503 0
M  V30 12624 H 119.662 4.55889 -6.76652 0
M  V30 12625 H 117.007 2.61715 -5.17932 0
M  V30 12626 H 116.727 5.52155 -4.41878 0
M  V30 12627 H 115.736 4.51981 -5.53374 0
M  V30 12628 H 117.57 6.25124 -6.55234 0
M  V30 12629 P 115.699 4.23843 -7.83734 0
M  V30 12630 O 115.479 4.19407 -9.29784 0
M  V30 12631 O 114.909 5.24426 -7.09156 0
M  V30 12632 O 115.449 2.7935 -7.20758 0
M  V30 12633 C 116.389 1.7299 -7.50419 0
M  V30 12634 C 115.659 0.406376 -7.57911 0
M  V30 12635 O 115.449 -0.0897726 -6.21935 0
M  V30 12636 C 114.259 0.447224 -8.1878 0
M  V30 12637 O 113.869 -0.825065 -8.71101 0
M  V30 12638 C 113.379 0.783801 -6.99623 0
M  V30 12639 C 114.089 0.0619192 -5.85967 0
M  V30 12640 N 114.039 0.790462 -4.56202 0
M  V30 12641 H 116.878 1.93423 -8.4679 0
M  V30 12642 H 117.15 1.68852 -6.70877 0
M  V30 12643 H 116.282 -0.289041 -8.15388 0
M  V30 12644 H 113.627 -0.927006 -5.72848 0
M  V30 12645 H 113.347 1.86973 -6.82036 0
M  V30 12646 H 112.356 0.403953 -7.13357 0
M  V30 12647 H 114.19 1.20599 -8.97534 0
M  V30 12648 P 112.319 -1.17771 -8.83182 0
M  V30 12649 O 112.099 -2.07206 -9.98732 0
M  V30 12650 O 111.529 0.0743816 -8.81969 0
M  V30 12651 O 112.069 -1.97652 -7.47304 0
M  V30 12652 C 113.009 -3.01133 -7.08783 0
M  V30 12653 C 112.279 -4.12613 -6.37049 0
M  V30 12654 O 112.069 -3.72827 -4.97879 0
M  V30 12655 C 110.879 -4.45085 -6.88694 0
M  V30 12656 O 110.489 -5.7877 -6.5624 0
M  V30 12657 C 109.999 -3.47817 -6.12078 0
M  V30 12658 C 110.709 -3.39414 -4.77697 0
M  V30 12659 N 110.659 -2.04615 -4.15333 0
M  V30 12660 H 113.498 -3.41248 -7.98759 0
M  V30 12661 H 113.77 -2.5837 -6.41742 0
M  V30 12662 H 112.902 -5.02657 -6.42673 0
M  V30 12663 P 108.939 -6.144 -6.45285 0
M  V30 12664 O 108.719 -7.54673 -6.86199 0
M  V30 12665 O 108.149 -5.12391 -7.179 0
M  V30 12666 O 108.689 -5.99158 -4.88404 0
M  V30 12667 C 109.629 -6.60234 -3.96415 0
M  V30 12668 C 108.899 -7.08259 -2.72856 0
M  V30 12669 O 108.689 -5.9427 -1.83651 0
M  V30 12670 C 107.499 -7.64886 -2.9555 0
M  V30 12671 O 107.109 -8.53963 -1.90717 0
M  V30 12672 C 106.619 -6.4116 -2.90739 0
M  V30 12673 C 107.329 -5.55375 -1.86963 0
M  V30 12674 N 107.279 -4.09664 -2.15742 0
M  V30 12675 H 110.118 -7.45574 -4.45629 0
M  V30 12676 H 110.39 -5.86232 -3.67314 0
M  V30 12677 H 109.522 -7.84412 -2.24479 0
M  V30 12678 P 105.559 -8.7635 -1.60911 0
M  V30 12679 O 105.339 -10.1388 -1.11561 0
M  V30 12680 O 104.769 -8.36503 -2.79617 0
M  V30 12681 O 105.309 -7.71806 -0.42951 0
M  V30 12682 C 106.249 -7.67148 0.673689 0
M  V30 12683 C 105.519 -7.33374 1.95559 0
M  V30 12684 O 105.309 -5.88721 2.00726 0
M  V30 12685 C 104.119 -7.92526 2.10483 0
M  V30 12686 O 103.729 -8.02971 3.47653 0
M  V30 12687 C 103.239 -6.89602 1.41652 0
M  V30 12688 C 103.949 -5.59201 1.75185 0
M  V30 12689 N 103.899 -4.58235 0.662552 0
M  V30 12690 H 106.738 -8.65116 0.777161 0
M  V30 12691 H 107.01 -6.90173 0.474152 0
M  V30 12692 H 106.142 -7.66548 2.79458 0
M  V30 12693 P 102.179 -8.03563 3.84925 0
M  V30 12694 O 101.959 -8.85821 5.0569 0
M  V30 12695 O 101.389 -8.41101 2.65469 0
M  V30 12696 O 101.929 -6.4965 4.18908 0
M  V30 12697 C 102.869 -5.81037 5.05421 0
M  V30 12698 C 102.139 -4.78366 5.89277 0
M  V30 12699 O 101.929 -3.58302 5.08433 0
M  V30 12700 C 100.739 -5.17448 6.36119 0
M  V30 12701 O 100.349 -4.45271 7.53232 0
M  V30 12702 C 99.8594 -4.74639 5.19936 0
M  V30 12703 C 100.569 -3.49432 4.70418 0
M  V30 12704 N 100.519 -3.31776 3.22945 0
M  V30 12705 H 103.358 -6.54213 5.71376 0
M  V30 12706 H 103.63 -5.30492 4.44033 0
M  V30 12707 H 102.762 -4.55889 6.76652 0
M  V30 12708 P 98.7994 -4.23843 7.83734 0
M  V30 12709 O 98.5794 -4.19407 9.29784 0
M  V30 12710 O 98.0094 -5.24426 7.09156 0
M  V30 12711 O 98.5494 -2.79386 7.20852 0
M  V30 12712 C 99.4894 -1.7299 7.50419 0
M  V30 12713 C 98.7594 -0.41401 7.5797 0
M  V30 12714 O 98.5494 0.089787 6.22035 0
M  V30 12715 C 97.3594 -0.447224 8.1878 0
M  V30 12716 O 96.9694 0.825159 8.71201 0
M  V30 12717 C 96.4794 -0.783801 6.99623 0
M  V30 12718 C 97.1894 -0.0619192 5.85967 0
M  V30 12719 N 97.1394 -0.7859 4.56281 0
M  V30 12720 C 96.9894 -0.0359258 3.39981 0
M  V30 12721 O 96.8994 1.19723 3.49038 0
M  V30 12722 N 96.9394 -0.869151 2.14025 0
M  V30 12723 C 97.0394 -2.01207 2.14363 0
M  V30 12724 N 96.9894 -2.58978 0.954287 0
M  V30 12725 C 97.1894 -2.80817 3.32215 0
M  V30 12726 C 97.2394 -2.13785 4.50884 0
M  V30 12727 H 99.9794 -1.93401 8.46693 0
M  V30 12728 H 100.249 -1.68181 6.71046 0
M  V30 12729 H 99.3824 0.289076 8.15488 0
M  V30 12730 H 96.7274 0.927166 5.72947 0
M  V30 12731 H 96.4474 -1.87 6.82132 0
M  V30 12732 H 95.4564 -0.404009 7.13457 0
M  V30 12733 H 97.2904 -1.20599 8.97534 0
M  V30 12734 H 97.3624 -2.70295 5.43162 0
M  V30 12735 H 97.2604 -3.89465 3.27406 0
M  V30 12736 H 96.8724 -2.01616 0.107046 0
M  V30 12737 H 97.0684 -3.61403 0.873101 0
M  V30 12738 P 95.4195 1.17771 8.83182 0
M  V30 12739 O 95.1995 2.07206 9.98732 0
M  V30 12740 O 94.6295 -0.0743816 8.81969 0
M  V30 12741 O 95.1695 1.97652 7.47304 0
M  V30 12742 C 96.1095 3.01133 7.08783 0
M  V30 12743 C 95.3795 4.12613 6.37049 0
M  V30 12744 O 95.1695 3.72827 4.97879 0
M  V30 12745 C 93.9795 4.45085 6.88694 0
M  V30 12746 O 93.5895 5.7877 6.5624 0
M  V30 12747 C 93.0995 3.47817 6.12078 0
M  V30 12748 C 93.8095 3.39414 4.77697 0
M  V30 12749 N 93.7595 2.04615 4.15333 0
M  V30 12750 H 96.5985 3.41248 7.98759 0
M  V30 12751 H 96.8705 2.5837 6.41742 0
M  V30 12752 H 96.0025 5.02657 6.42673 0
M  V30 12753 P 92.0395 6.144 6.45285 0
M  V30 12754 O 91.8195 7.54673 6.86199 0
M  V30 12755 O 91.2495 5.12391 7.179 0
M  V30 12756 O 91.7895 5.99158 4.88404 0
M  V30 12757 C 92.7295 6.60234 3.96415 0
M  V30 12758 C 91.9995 7.08259 2.72856 0
M  V30 12759 O 91.7895 5.9427 1.83651 0
M  V30 12760 C 90.5995 7.64886 2.9555 0
M  V30 12761 O 90.2095 8.53963 1.90717 0
M  V30 12762 C 89.7195 6.4116 2.90739 0
M  V30 12763 C 90.4295 5.55375 1.86963 0
M  V30 12764 N 90.3795 4.09664 2.15742 0
M  V30 12765 H 93.2185 7.45574 4.45629 0
M  V30 12766 H 93.4905 5.86232 3.67314 0
M  V30 12767 H 92.6225 7.84412 2.24479 0
M  V30 12768 P 88.6595 8.7635 1.60911 0
M  V30 12769 O 88.4395 10.1388 1.11561 0
M  V30 12770 O 87.8695 8.36503 2.79617 0
M  V30 12771 O 88.4095 7.71806 0.42951 0
M  V30 12772 C 89.3495 7.67148 -0.673689 0
M  V30 12773 C 88.6195 7.33374 -1.95559 0
M  V30 12774 O 88.4095 5.88721 -2.00726 0
M  V30 12775 C 87.2195 7.92526 -2.10483 0
M  V30 12776 O 86.8295 8.02971 -3.47653 0
M  V30 12777 C 86.3395 6.89602 -1.41652 0
M  V30 12778 C 87.0495 5.59201 -1.75185 0
M  V30 12779 N 86.9995 4.58235 -0.662552 0
M  V30 12780 H 89.8385 8.65116 -0.777161 0
M  V30 12781 H 90.1105 6.90173 -0.474152 0
M  V30 12782 H 89.2425 7.66548 -2.79458 0
M  V30 12783 P 85.2795 8.03563 -3.84925 0
M  V30 12784 O 85.0595 8.85821 -5.0569 0
M  V30 12785 O 84.4895 8.41101 -2.65469 0
M  V30 12786 O 85.0295 6.4965 -4.18908 0
M  V30 12787 C 85.9695 5.81037 -5.05421 0
M  V30 12788 C 85.2395 4.78366 -5.89277 0
M  V30 12789 O 85.0295 3.58302 -5.08433 0
M  V30 12790 C 83.8395 5.17448 -6.36119 0
M  V30 12791 O 83.4495 4.45271 -7.53232 0
M  V30 12792 C 82.9595 4.74639 -5.19936 0
M  V30 12793 C 83.6695 3.49432 -4.70418 0
M  V30 12794 N 83.6195 3.32099 -3.22613 0
M  V30 12795 H 86.4585 6.54213 -5.71376 0
M  V30 12796 H 86.7305 5.30936 -4.43503 0
M  V30 12797 H 85.8625 4.55889 -6.76652 0
M  V30 12798 H 83.2075 2.61715 -5.17932 0
M  V30 12799 H 82.9275 5.52155 -4.41878 0
M  V30 12800 H 81.9365 4.51981 -5.53374 0
M  V30 12801 H 83.7705 6.25124 -6.55234 0
M  V30 12802 P 81.8995 4.23843 -7.83734 0
M  V30 12803 O 81.6795 4.19407 -9.29784 0
M  V30 12804 O 81.1095 5.24426 -7.09156 0
M  V30 12805 O 81.6495 2.7935 -7.20758 0
M  V30 12806 C 82.5895 1.7299 -7.50419 0
M  V30 12807 C 81.8595 0.406376 -7.57911 0
M  V30 12808 O 81.6495 -0.0897726 -6.21935 0
M  V30 12809 C 80.4595 0.447224 -8.1878 0
M  V30 12810 O 80.0695 -0.825065 -8.71101 0
M  V30 12811 C 79.5795 0.783801 -6.99623 0
M  V30 12812 C 80.2895 0.0619192 -5.85967 0
M  V30 12813 N 80.2395 0.7859 -4.56281 0
M  V30 12814 H 83.0785 1.93423 -8.4679 0
M  V30 12815 H 83.3505 1.68181 -6.71046 0
M  V30 12816 H 82.4825 -0.289041 -8.15388 0
M  V30 12817 P 78.5196 -1.17771 -8.83182 0
M  V30 12818 O 78.2996 -2.07206 -9.98732 0
M  V30 12819 O 77.7296 0.0743816 -8.81969 0
M  V30 12820 O 78.2696 -1.97652 -7.47304 0
M  V30 12821 C 79.2096 -3.01133 -7.08783 0
M  V30 12822 C 78.4796 -4.12613 -6.37049 0
M  V30 12823 O 78.2696 -3.72827 -4.97879 0
M  V30 12824 C 77.0796 -4.45085 -6.88694 0
M  V30 12825 O 76.6896 -5.7877 -6.5624 0
M  V30 12826 C 76.1996 -3.47817 -6.12078 0
M  V30 12827 C 76.9096 -3.39414 -4.77697 0
M  V30 12828 N 76.8596 -2.04199 -4.15538 0
M  V30 12829 H 79.6986 -3.41248 -7.98759 0
M  V30 12830 H 79.9706 -2.57728 -6.42 0
M  V30 12831 H 79.1026 -5.02657 -6.42673 0
M  V30 12832 H 76.4476 -4.11708 -4.08956 0
M  V30 12833 H 76.1676 -2.49626 -6.61679 0
M  V30 12834 H 75.1766 -3.8662 -6.00862 0
M  V30 12835 H 77.0106 -4.29991 -7.97006 0
M  V30 12836 P 75.1396 -6.144 -6.45285 0
M  V30 12837 O 74.9196 -7.54673 -6.86199 0
M  V30 12838 O 74.3496 -5.12391 -7.179 0
M  V30 12839 O 74.8896 -5.99158 -4.88404 0
M  V30 12840 C 75.8296 -6.60234 -3.96415 0
M  V30 12841 C 75.0996 -7.08259 -2.72856 0
M  V30 12842 O 74.8896 -5.9427 -1.83651 0
M  V30 12843 C 73.6996 -7.64886 -2.9555 0
M  V30 12844 O 73.3096 -8.53963 -1.90717 0
M  V30 12845 C 72.8196 -6.4116 -2.90739 0
M  V30 12846 C 73.5296 -5.55375 -1.86963 0
M  V30 12847 N 73.4796 -4.09448 -2.16152 0
M  V30 12848 H 76.3186 -7.45574 -4.45629 0
M  V30 12849 H 76.5906 -5.85864 -3.679 0
M  V30 12850 H 75.7226 -7.84412 -2.24479 0
M  V30 12851 H 73.0676 -5.73457 -0.888562 0
M  V30 12852 H 72.7876 -5.90877 -3.88583 0
M  V30 12853 H 71.7966 -6.6596 -2.58858 0
M  V30 12854 H 73.6306 -8.16339 -3.92049 0
M  V30 12855 P 71.7596 -8.7635 -1.60911 0
M  V30 12856 O 71.5396 -10.1388 -1.11561 0
M  V30 12857 O 70.9696 -8.36503 -2.79617 0
M  V30 12858 O 71.5096 -7.71806 -0.42951 0
M  V30 12859 C 72.4496 -7.67148 0.673689 0
M  V30 12860 C 71.7196 -7.33374 1.95559 0
M  V30 12861 O 71.5096 -5.88721 2.00726 0
M  V30 12862 C 70.3196 -7.92526 2.10483 0
M  V30 12863 O 69.9296 -8.02971 3.47653 0
M  V30 12864 C 69.4396 -6.89602 1.41652 0
M  V30 12865 C 70.1496 -5.59201 1.75185 0
M  V30 12866 N 70.0996 -4.58235 0.662552 0
M  V30 12867 H 72.9386 -8.65116 0.777161 0
M  V30 12868 H 73.2106 -6.90173 0.474152 0
M  V30 12869 H 72.3426 -7.66548 2.79458 0
M  V30 12870 P 68.3796 -8.03563 3.84925 0
M  V30 12871 O 68.1596 -8.85821 5.0569 0
M  V30 12872 O 67.5896 -8.41101 2.65469 0
M  V30 12873 O 68.1296 -6.4965 4.18908 0
M  V30 12874 C 69.0696 -5.80886 5.05289 0
M  V30 12875 C 68.3396 -4.78366 5.89277 0
M  V30 12876 O 68.1296 -3.58302 5.08433 0
M  V30 12877 C 66.9396 -5.16748 6.36559 0
M  V30 12878 O 66.5496 -4.45271 7.53232 0
M  V30 12879 C 66.0596 -4.74572 5.19863 0
M  V30 12880 C 66.7696 -3.49373 4.70338 0
M  V30 12881 N 66.7196 -3.31704 3.22876 0
M  V30 12882 C 66.5696 -2.03326 2.74871 0
M  V30 12883 O 66.4796 -1.06486 3.48076 0
M  V30 12884 N 66.5296 -1.91838 1.37456 0
M  V30 12885 C 66.6196 -2.94295 0.462035 0
M  V30 12886 C 66.7696 -4.25064 1.05249 0
M  V30 12887 C 66.8196 -4.40214 2.39192 0
M  V30 12888 H 69.5606 -6.54063 5.71245 0
M  V30 12889 H 69.8296 -5.30339 4.43905 0
M  V30 12890 H 68.9626 -4.55889 6.76652 0
M  V30 12891 H 66.3076 -2.6167 5.17842 0
M  V30 12892 H 66.0286 -5.52155 4.41878 0
M  V30 12893 H 65.0366 -4.51918 5.53297 0
M  V30 12894 H 66.8706 -6.25055 6.55162 0
M  V30 12895 H 66.9416 -5.39798 2.81523 0
M  V30 12896 P 64.9996 -4.23843 7.83734 0
M  V30 12897 O 64.7796 -4.19407 9.29784 0
M  V30 12898 O 64.2096 -5.24426 7.09156 0
M  V30 12899 O 64.7496 -2.7935 7.20758 0
M  V30 12900 C 65.6896 -1.7299 7.50419 0
M  V30 12901 C 64.9596 -0.406376 7.57911 0
M  V30 12902 O 64.7496 0.0897726 6.21935 0
M  V30 12903 C 63.5596 -0.447224 8.1878 0
M  V30 12904 O 63.1696 0.825065 8.71101 0
M  V30 12905 C 62.6796 -0.783801 6.99623 0
M  V30 12906 C 63.3896 -0.0619192 5.85967 0
M  V30 12907 N 63.3396 -0.7859 4.56281 0
M  V30 12908 H 66.1786 -1.93423 8.4679 0
M  V30 12909 H 66.4506 -1.68181 6.71046 0
M  V30 12910 H 65.5826 0.289041 8.15388 0
M  V30 12911 P 61.6197 1.17771 8.83182 0
M  V30 12912 O 61.3997 2.07206 9.98732 0
M  V30 12913 O 60.8297 -0.0743816 8.81969 0
M  V30 12914 O 61.3697 1.97652 7.47304 0
M  V30 12915 C 62.3097 3.01133 7.08783 0
M  V30 12916 C 61.5797 4.12613 6.37049 0
M  V30 12917 O 61.3697 3.72827 4.97879 0
M  V30 12918 C 60.1797 4.45085 6.88694 0
M  V30 12919 O 59.7897 5.7877 6.5624 0
M  V30 12920 C 59.2997 3.47817 6.12078 0
M  V30 12921 C 60.0097 3.39414 4.77697 0
M  V30 12922 N 59.9597 2.04615 4.15333 0
M  V30 12923 H 62.7987 3.41248 7.98759 0
M  V30 12924 H 63.0707 2.5837 6.41742 0
M  V30 12925 H 62.2027 5.02657 6.42673 0
M  V30 12926 P 58.2397 6.144 6.45285 0
M  V30 12927 O 58.0197 7.54673 6.86199 0
M  V30 12928 O 57.4497 5.12391 7.179 0
M  V30 12929 O 57.9897 5.99158 4.88404 0
M  V30 12930 C 58.9297 6.60234 3.96415 0
M  V30 12931 C 58.1997 7.08259 2.72856 0
M  V30 12932 O 57.9897 5.9427 1.83651 0
M  V30 12933 C 56.7997 7.64886 2.9555 0
M  V30 12934 O 56.4097 8.53963 1.90717 0
M  V30 12935 C 55.9197 6.4116 2.90739 0
M  V30 12936 C 56.6297 5.55375 1.86963 0
M  V30 12937 N 56.5797 4.09664 2.15742 0
M  V30 12938 H 59.4187 7.45574 4.45629 0
M  V30 12939 H 59.6907 5.86232 3.67314 0
M  V30 12940 H 58.8227 7.84412 2.24479 0
M  V30 12941 P 54.8597 8.7635 1.60911 0
M  V30 12942 O 54.6397 10.1388 1.11561 0
M  V30 12943 O 54.0697 8.36503 2.79617 0
M  V30 12944 O 54.6097 7.71806 0.42951 0
M  V30 12945 C 55.5497 7.67148 -0.673689 0
M  V30 12946 C 54.8197 7.33374 -1.95559 0
M  V30 12947 O 54.6097 5.88721 -2.00726 0
M  V30 12948 C 53.4197 7.92526 -2.10483 0
M  V30 12949 O 53.0297 8.02971 -3.47653 0
M  V30 12950 C 52.5397 6.89602 -1.41652 0
M  V30 12951 C 53.2497 5.59201 -1.75185 0
M  V30 12952 N 53.1997 4.58235 -0.662552 0
M  V30 12953 H 56.0387 8.65116 -0.777161 0
M  V30 12954 H 56.3107 6.90173 -0.474152 0
M  V30 12955 H 55.4427 7.66548 -2.79458 0
M  V30 12956 P 51.4797 8.03563 -3.84925 0
M  V30 12957 O 51.2597 8.85821 -5.0569 0
M  V30 12958 O 50.6897 8.41101 -2.65469 0
M  V30 12959 O 51.2297 6.49734 -4.18962 0
M  V30 12960 C 52.1697 5.81037 -5.05421 0
M  V30 12961 C 51.4397 4.79018 -5.88876 0
M  V30 12962 O 51.2297 3.58359 -5.08515 0
M  V30 12963 C 50.0397 5.17448 -6.36119 0
M  V30 12964 O 49.6497 4.45322 -7.53318 0
M  V30 12965 C 49.1597 4.74639 -5.19936 0
M  V30 12966 C 49.8697 3.49432 -4.70418 0
M  V30 12967 N 49.8197 3.31776 -3.22945 0
M  V30 12968 C 49.6697 2.02742 -2.72939 0
M  V30 12969 O 49.5797 1.08301 -3.52749 0
M  V30 12970 N 49.6197 1.96117 -1.22063 0
M  V30 12971 C 49.7197 2.8878 -0.551566 0
M  V30 12972 N 49.6697 2.65609 0.750198 0
M  V30 12973 C 49.8697 4.22457 -1.03707 0
M  V30 12974 C 49.9197 4.37979 -2.39113 0
M  V30 12975 H 52.6597 6.54138 -5.7131 0
M  V30 12976 H 52.9297 5.30492 -4.44033 0
M  V30 12977 H 52.0627 4.55945 -6.76735 0
M  V30 12978 H 49.4077 2.6176 -5.18021 0
M  V30 12979 H 49.1277 5.52233 -4.41941 0
M  V30 12980 H 48.1367 4.52045 -5.53452 0
M  V30 12981 H 49.9707 6.25124 -6.55234 0
M  V30 12982 H 50.0427 5.37936 -2.80552 0
M  V30 12983 H 49.9407 5.07528 -0.359553 0
M  V30 12984 H 49.5527 1.69403 1.09847 0
M  V30 12985 H 49.7487 3.43701 1.41792 0
M  V30 12986 P 48.0997 4.23843 -7.83734 0
M  V30 12987 O 47.8797 4.19407 -9.29784 0
M  V30 12988 O 47.3097 5.24426 -7.09156 0
M  V30 12989 O 47.8497 2.7935 -7.20758 0
M  V30 12990 C 48.7897 1.7299 -7.50419 0
M  V30 12991 C 48.0597 0.406376 -7.57911 0
M  V30 12992 O 47.8497 -0.0897726 -6.21935 0
M  V30 12993 C 46.6597 0.447224 -8.1878 0
M  V30 12994 O 46.2697 -0.825065 -8.71101 0
M  V30 12995 C 45.7797 0.783801 -6.99623 0
M  V30 12996 C 46.4897 0.0619192 -5.85967 0
M  V30 12997 N 46.4397 0.790462 -4.56202 0
M  V30 12998 H 49.2787 1.93423 -8.4679 0
M  V30 12999 H 49.5507 1.68852 -6.70877 0
M  V30 13000 H 48.6827 -0.289041 -8.15388 0
M  V30 13001 H 46.0277 -0.927006 -5.72848 0
M  V30 13002 H 45.7477 1.86973 -6.82036 0
M  V30 13003 H 44.7567 0.403953 -7.13357 0
M  V30 13004 H 46.5907 1.20599 -8.97534 0
M  V30 13005 P 44.7198 -1.17771 -8.83182 0
M  V30 13006 O 44.4998 -2.07206 -9.98732 0
M  V30 13007 O 43.9298 0.0743816 -8.81969 0
M  V30 13008 O 44.4698 -1.97652 -7.47304 0
M  V30 13009 C 45.4098 -3.01133 -7.08783 0
M  V30 13010 C 44.6798 -4.12613 -6.37049 0
M  V30 13011 O 44.4698 -3.72827 -4.97879 0
M  V30 13012 C 43.2798 -4.45085 -6.88694 0
M  V30 13013 O 42.8898 -5.7877 -6.5624 0
M  V30 13014 C 42.3998 -3.47817 -6.12078 0
M  V30 13015 C 43.1098 -3.39414 -4.77697 0
M  V30 13016 N 43.0598 -2.04199 -4.15538 0
M  V30 13017 H 45.8988 -3.41248 -7.98759 0
M  V30 13018 H 46.1708 -2.57728 -6.42 0
M  V30 13019 H 45.3028 -5.02657 -6.42673 0
M  V30 13020 H 42.6478 -4.11708 -4.08956 0
M  V30 13021 H 42.3678 -2.49626 -6.61679 0
M  V30 13022 H 41.3768 -3.8662 -6.00862 0
M  V30 13023 H 43.2108 -4.29991 -7.97006 0
M  V30 13024 P 41.3398 -6.144 -6.45285 0
M  V30 13025 O 41.1198 -7.54673 -6.86199 0
M  V30 13026 O 40.5498 -5.12391 -7.179 0
M  V30 13027 O 41.0898 -5.99158 -4.88404 0
M  V30 13028 C 42.0298 -6.60234 -3.96415 0
M  V30 13029 C 41.2998 -7.08259 -2.72856 0
M  V30 13030 O 41.0898 -5.9427 -1.83651 0
M  V30 13031 C 39.8998 -7.64886 -2.9555 0
M  V30 13032 O 39.5098 -8.53963 -1.90717 0
M  V30 13033 C 39.0198 -6.4116 -2.90739 0
M  V30 13034 C 39.7298 -5.55375 -1.86963 0
M  V30 13035 N 39.6798 -4.09664 -2.15742 0
M  V30 13036 C 39.7598 -3.44381 -3.37233 0
M  V30 13037 N 39.6798 -2.14131 -3.28347 0
M  V30 13038 C 39.5398 -1.90247 -1.91588 0
M  V30 13039 C 39.4098 -0.683992 -1.20892 0
M  V30 13040 N 39.2898 -0.903396 0.173998 0
M  V30 13041 C 39.2898 -2.14171 0.784879 0
M  V30 13042 N 39.1598 -2.1435 2.11317 0
M  V30 13043 N 39.4198 -3.28784 0.119316 0
M  V30 13044 C 39.5398 -3.0977 -1.22194 0
M  V30 13045 H 42.5188 -7.45574 -4.45629 0
M  V30 13046 H 42.7908 -5.86232 -3.67314 0
M  V30 13047 H 41.9228 -7.84412 -2.24479 0
M  V30 13048 P 37.9598 -8.7635 -1.60911 0
M  V30 13049 O 37.7398 -10.1388 -1.11561 0
M  V30 13050 O 37.1698 -8.36503 -2.79617 0
M  V30 13051 O 37.7098 -7.71806 -0.42951 0
M  V30 13052 C 38.6498 -7.67148 0.673689 0
M  V30 13053 C 37.9198 -7.33374 1.95559 0
M  V30 13054 O 37.7098 -5.88721 2.00726 0
M  V30 13055 C 36.5198 -7.92526 2.10483 0
M  V30 13056 O 36.1298 -8.02971 3.47653 0
M  V30 13057 C 35.6398 -6.89602 1.41652 0
M  V30 13058 C 36.3498 -5.59201 1.75185 0
M  V30 13059 N 36.2998 -4.58235 0.662552 0
M  V30 13060 H 39.1388 -8.65116 0.777161 0
M  V30 13061 H 39.4108 -6.90173 0.474152 0
M  V30 13062 H 38.5428 -7.66548 2.79458 0
M  V30 13063 P 34.5798 -8.03563 3.84925 0
M  V30 13064 O 34.3598 -8.85821 5.0569 0
M  V30 13065 O 33.7898 -8.41101 2.65469 0
M  V30 13066 O 34.3298 -6.4965 4.18908 0
M  V30 13067 C 35.2698 -5.81037 5.05421 0
M  V30 13068 C 34.5398 -4.78366 5.89277 0
M  V30 13069 O 34.3298 -3.58302 5.08433 0
M  V30 13070 C 33.1398 -5.17448 6.36119 0
M  V30 13071 O 32.7498 -4.45271 7.53232 0
M  V30 13072 C 32.2598 -4.74639 5.19936 0
M  V30 13073 C 32.9698 -3.49432 4.70418 0
M  V30 13074 N 32.9198 -3.32099 3.22613 0
M  V30 13075 C 32.9998 -4.28245 2.25527 0
M  V30 13076 N 32.9298 -3.80823 1.04874 0
M  V30 13077 C 32.7798 -2.44571 1.23535 0
M  V30 13078 C 32.6498 -1.37068 0.330675 0
M  V30 13079 N 32.6398 -1.51472 -0.990824 0
M  V30 13080 N 32.5298 -0.138614 0.848756 0
M  V30 13081 C 32.5398 0.00675923 2.16999 0
M  V30 13082 N 32.6598 -0.904372 3.11122 0
M  V30 13083 C 32.7798 -2.12707 2.56212 0
M  V30 13084 H 35.7588 -6.54213 5.71376 0
M  V30 13085 H 36.0308 -5.30936 4.43503 0
M  V30 13086 H 35.1628 -4.55889 6.76652 0
M  V30 13087 H 32.5078 -2.61715 5.17932 0
M  V30 13088 H 32.2278 -5.52155 4.41878 0
M  V30 13089 H 31.2368 -4.51981 5.53374 0
M  V30 13090 H 33.0708 -6.25124 6.55234 0
M  V30 13091 H 33.1118 -5.34372 2.47488 0
M  V30 13092 H 32.7308 -2.45153 -1.4078 0
M  V30 13093 H 32.5418 -0.688422 -1.59911 0
M  V30 13094 H 32.4338 1.02584 2.52346 0
M  V30 13095 P 31.1998 -4.23843 7.83734 0
M  V30 13096 O 30.9798 -4.19407 9.29784 0
M  V30 13097 O 30.4098 -5.24426 7.09156 0
M  V30 13098 O 30.9498 -2.7935 7.20758 0
M  V30 13099 C 31.8898 -1.72945 7.50224 0
M  V30 13100 C 31.1598 -0.406376 7.57911 0
M  V30 13101 O 30.9498 0.0897726 6.21935 0
M  V30 13102 C 29.7598 -0.438983 8.18724 0
M  V30 13103 O 29.3698 0.825065 8.71101 0
M  V30 13104 C 28.8798 -0.783689 6.99524 0
M  V30 13105 C 29.5898 -0.0619086 5.85867 0
M  V30 13106 N 29.5398 -0.78573 4.56183 0
M  V30 13107 C 29.3898 -0.0292889 3.41887 0
M  V30 13108 O 29.2998 1.18445 3.4419 0
M  V30 13109 N 29.3498 -0.744061 2.23964 0
M  V30 13110 C 29.4398 -2.10932 2.10362 0
M  V30 13111 C 29.5898 -2.8202 3.34994 0
M  V30 13112 C 29.6398 -2.15547 4.52261 0
M  V30 13113 H 32.3808 -1.93379 8.46595 0
M  V30 13114 H 32.6498 -1.68132 6.70852 0
M  V30 13115 H 31.7828 0.289041 8.15388 0
M  V30 13116 H 29.1278 0.926847 5.72749 0
M  V30 13117 H 28.8488 -1.86973 6.82036 0
M  V30 13118 H 27.8568 -0.403896 7.13257 0
M  V30 13119 H 29.6908 -1.20585 8.97435 0
M  V30 13120 H 29.7618 -2.71231 5.45042 0
M  V30 13121 P 27.8199 1.17771 8.83182 0
M  V30 13122 O 27.5999 2.07206 9.98732 0
M  V30 13123 O 27.0299 -0.0743816 8.81969 0
M  V30 13124 O 27.5699 1.97652 7.47304 0
M  V30 13125 C 28.5099 3.01133 7.08783 0
M  V30 13126 C 27.7799 4.12613 6.37049 0
M  V30 13127 O 27.5699 3.72827 4.97879 0
M  V30 13128 C 26.3799 4.45085 6.88694 0
M  V30 13129 O 25.9899 5.7877 6.5624 0
M  V30 13130 C 25.4999 3.47817 6.12078 0
M  V30 13131 C 26.2099 3.39414 4.77697 0
M  V30 13132 N 26.1599 2.04615 4.15333 0
M  V30 13133 H 28.9989 3.41248 7.98759 0
M  V30 13134 H 29.2709 2.5837 6.41742 0
M  V30 13135 H 28.4029 5.02657 6.42673 0
M  V30 13136 P 24.4399 6.144 6.45285 0
M  V30 13137 O 24.2199 7.54673 6.86199 0
M  V30 13138 O 23.6499 5.12391 7.179 0
M  V30 13139 O 24.1899 5.99158 4.88404 0
M  V30 13140 C 25.1299 6.60234 3.96415 0
M  V30 13141 C 24.3999 7.08259 2.72856 0
M  V30 13142 O 24.1899 5.9427 1.83651 0
M  V30 13143 C 22.9999 7.64886 2.9555 0
M  V30 13144 O 22.6099 8.53963 1.90717 0
M  V30 13145 C 22.1199 6.4116 2.90739 0
M  V30 13146 C 22.8299 5.55375 1.86963 0
M  V30 13147 N 22.7799 4.09664 2.15742 0
M  V30 13148 H 25.6189 7.45574 4.45629 0
M  V30 13149 H 25.8909 5.86232 3.67314 0
M  V30 13150 H 25.0229 7.84412 2.24479 0
M  V30 13151 P 21.0599 8.7635 1.60911 0
M  V30 13152 O 20.8399 10.1388 1.11561 0
M  V30 13153 O 20.2699 8.36503 2.79617 0
M  V30 13154 O 20.8099 7.71806 0.42951 0
M  V30 13155 C 21.7499 7.67148 -0.673689 0
M  V30 13156 C 21.0199 7.33374 -1.95559 0
M  V30 13157 O 20.8099 5.88721 -2.00726 0
M  V30 13158 C 19.6199 7.92526 -2.10483 0
M  V30 13159 O 19.2299 8.02971 -3.47653 0
M  V30 13160 C 18.7399 6.89602 -1.41652 0
M  V30 13161 C 19.4499 5.59201 -1.75185 0
M  V30 13162 N 19.3999 4.58301 -0.657969 0
M  V30 13163 C 19.4799 4.79019 0.692603 0
M  V30 13164 N 19.4099 3.69736 1.38998 0
M  V30 13165 C 19.2599 2.70474 0.438135 0
M  V30 13166 C 19.1299 1.30327 0.538142 0
M  V30 13167 N 19.1199 0.64304 1.69192 0
M  V30 13168 N 19.0099 0.611027 -0.605183 0
M  V30 13169 C 19.0199 1.27002 -1.75953 0
M  V30 13170 N 19.1399 2.56038 -1.98546 0
M  V30 13171 C 19.2599 3.22681 -0.822541 0
M  V30 13172 H 22.2389 8.65116 -0.777161 0
M  V30 13173 H 22.5109 6.9022 -0.46725 0
M  V30 13174 H 21.6429 7.66548 -2.79458 0
M  V30 13175 H 18.9879 5.16165 -2.65183 0
M  V30 13176 H 18.7079 7.06433 -0.329384 0
M  V30 13177 H 17.7169 6.90926 -1.82021 0
M  V30 13178 H 19.5509 8.90873 -1.62657 0
M  V30 13179 H 19.5919 5.77785 1.13874 0
M  V30 13180 H 19.2109 1.15585 2.57991 0
M  V30 13181 H 19.0219 -0.382989 1.69835 0
M  V30 13182 H 18.9139 0.653331 -2.64449 0
M  V30 13183 P 17.6799 8.03563 -3.84925 0
M  V30 13184 O 17.4599 8.85821 -5.0569 0
M  V30 13185 O 16.8899 8.41101 -2.65469 0
M  V30 13186 O 17.4299 6.4965 -4.18908 0
M  V30 13187 C 18.3699 5.81037 -5.05421 0
M  V30 13188 C 17.6399 4.78366 -5.89277 0
M  V30 13189 O 17.4299 3.58302 -5.08433 0
M  V30 13190 C 16.2399 5.17448 -6.36119 0
M  V30 13191 O 15.8499 4.45271 -7.53232 0
M  V30 13192 C 15.3599 4.74639 -5.19936 0
M  V30 13193 C 16.0699 3.49432 -4.70418 0
M  V30 13194 N 16.0199 3.31776 -3.22945 0
M  V30 13195 H 18.8589 6.54213 -5.71376 0
M  V30 13196 H 19.1309 5.30492 -4.44033 0
M  V30 13197 H 18.2629 4.55889 -6.76652 0
M  V30 13198 P 14.2999 4.23843 -7.83734 0
M  V30 13199 O 14.0799 4.19407 -9.29784 0
M  V30 13200 O 13.5099 5.24426 -7.09156 0
M  V30 13201 O 14.0499 2.7935 -7.20758 0
M  V30 13202 C 14.9899 1.7299 -7.50419 0
M  V30 13203 C 14.2599 0.406376 -7.57911 0
M  V30 13204 O 14.0499 -0.0897726 -6.21935 0
M  V30 13205 C 12.8599 0.447224 -8.1878 0
M  V30 13206 O 12.4699 -0.825065 -8.71101 0
M  V30 13207 C 11.9799 0.783801 -6.99623 0
M  V30 13208 C 12.6899 0.0619192 -5.85967 0
M  V30 13209 N 12.6399 0.7859 -4.56281 0
M  V30 13210 H 15.4789 1.93423 -8.4679 0
M  V30 13211 H 15.7509 1.68181 -6.71046 0
M  V30 13212 H 14.8829 -0.289041 -8.15388 0
M  V30 13213 P 10.92 -1.17771 -8.83182 0
M  V30 13214 O 10.7 -2.07206 -9.98732 0
M  V30 13215 O 10.13 0.0743816 -8.81969 0
M  V30 13216 O 10.67 -1.97652 -7.47304 0
M  V30 13217 C 11.61 -3.01133 -7.08783 0
M  V30 13218 C 10.88 -4.12613 -6.37049 0
M  V30 13219 O 10.67 -3.72827 -4.97879 0
M  V30 13220 C 9.47996 -4.45085 -6.88694 0
M  V30 13221 O 9.08996 -5.7877 -6.5624 0
M  V30 13222 C 8.59996 -3.47817 -6.12078 0
M  V30 13223 C 9.30996 -3.39414 -4.77697 0
M  V30 13224 N 9.25996 -2.04615 -4.15333 0
M  V30 13225 H 12.099 -3.41248 -7.98759 0
M  V30 13226 H 12.371 -2.5837 -6.41742 0
M  V30 13227 H 11.503 -5.02657 -6.42673 0
M  V30 13228 P 7.53998 -6.144 -6.45285 0
M  V30 13229 O 7.31998 -7.54673 -6.86199 0
M  V30 13230 O 6.74998 -5.12391 -7.179 0
M  V30 13231 O 7.28998 -5.99158 -4.88404 0
M  V30 13232 C 8.22998 -6.60234 -3.96415 0
M  V30 13233 C 7.49998 -7.08259 -2.72856 0
M  V30 13234 O 7.28998 -5.9427 -1.83651 0
M  V30 13235 C 6.09998 -7.64886 -2.9555 0
M  V30 13236 O 5.70998 -8.53963 -1.90717 0
M  V30 13237 C 5.21998 -6.4116 -2.90739 0
M  V30 13238 C 5.92998 -5.55375 -1.86963 0
M  V30 13239 N 5.87998 -4.09448 -2.16152 0
M  V30 13240 H 8.71898 -7.45574 -4.45629 0
M  V30 13241 H 8.99098 -5.85864 -3.679 0
M  V30 13242 H 8.12298 -7.84412 -2.24479 0
M  V30 13243 H 5.46798 -5.73457 -0.888562 0
M  V30 13244 H 5.18798 -5.90877 -3.88583 0
M  V30 13245 H 4.19698 -6.6596 -2.58858 0
M  V30 13246 H 6.03098 -8.16339 -3.92049 0
M  V30 13247 P 4.16 -8.7635 -1.60911 0
M  V30 13248 O 3.94 -10.1388 -1.11561 0
M  V30 13249 O 3.37 -8.36503 -2.79617 0
M  V30 13250 O 3.91 -7.71806 -0.42951 0
M  V30 13251 C 4.85 -7.67148 0.673689 0
M  V30 13252 C 4.12 -7.33374 1.95559 0
M  V30 13253 O 3.91 -5.88721 2.00726 0
M  V30 13254 C 2.72 -7.92526 2.10483 0
M  V30 13255 O 2.33 -8.02971 3.47653 0
M  V30 13256 C 1.84 -6.89602 1.41652 0
M  V30 13257 C 2.55 -5.59201 1.75185 0
M  V30 13258 N 2.5 -4.58235 0.662552 0
M  V30 13259 H 5.339 -8.65116 0.777161 0
M  V30 13260 H 5.611 -6.90173 0.474152 0
M  V30 13261 H 4.743 -7.66548 2.79458 0
M  V30 13262 H 1.613 -8.66322 3.55694 0
M  V30 END ATOM
M  V30 BEGIN BOND
M  V30 END BOND
M  V30 END CTAB
M  END
$$$$
